# generated using pymatgen
data_Dy5Ir2
_symmetry_space_group_name_H-M   'P 1'
_cell_length_a   6.47687800
_cell_length_b   7.19206895
_cell_length_c   8.59446989
_cell_angle_alpha   96.62457901
_cell_angle_beta   112.13591525
_cell_angle_gamma   90.00000000
_symmetry_Int_Tables_number   1
_chemical_formula_structural   Dy5Ir2
_chemical_formula_sum   'Dy10 Ir4'
_cell_volume   367.95295695
_cell_formula_units_Z   2
loop_
 _symmetry_equiv_pos_site_id
 _symmetry_equiv_pos_as_xyz
  1  'x, y, z'
loop_
 _atom_site_type_symbol
 _atom_site_label
 _atom_site_symmetry_multiplicity
 _atom_site_fract_x
 _atom_site_fract_y
 _atom_site_fract_z
 _atom_site_occupancy
  Dy  Dy0  1  0.79191400  0.08374800  0.81398000  1
  Dy  Dy1  1  0.97793400  0.41625200  0.18602000  1
  Dy  Dy2  1  0.20808600  0.91625200  0.18602000  1
  Dy  Dy3  1  0.02206600  0.58374800  0.81398000  1
  Dy  Dy4  1  0.20968500  0.18426100  0.56093000  1
  Dy  Dy5  1  0.64875500  0.31573900  0.43907000  1
  Dy  Dy6  1  0.79031500  0.81573900  0.43907000  1
  Dy  Dy7  1  0.35124500  0.68426100  0.56093000  1
  Dy  Dy8  1  0.42988200  0.25000000  0.00000000  1
  Dy  Dy9  1  0.57011800  0.75000000  0.00000000  1
  Ir  Ir0  1  0.60049100  0.42527800  0.77744800  1
  Ir  Ir1  1  0.82304300  0.07472200  0.22255200  1
  Ir  Ir2  1  0.39950900  0.57472200  0.22255200  1
  Ir  Ir3  1  0.17695700  0.92527800  0.77744800  1
loop_
_geom_bond_atom_site_label_1
_geom_bond_atom_site_label_2
_geom_bond_distance
_geom_bond_site_symmetry_2
Dy0 Ir0 2.748412 1_555
Dy0 Ir3 2.850350 1_645
Dy0 Ir1 3.448807 1_556
Dy1 Ir1 2.748412 1_555
Dy1 Ir2 2.850350 1_655
Dy1 Ir0 3.448807 1_554
Dy2 Ir2 2.748412 1_555
Dy2 Ir1 2.850350 1_465
Dy2 Ir3 3.448807 1_554
Dy3 Ir3 2.748412 1_555
Dy3 Ir0 2.850350 1_455
Dy3 Ir2 3.448807 1_556
Dy4 Ir3 2.841491 1_545
Dy4 Ir0 2.929265 1_555
Dy4 Ir1 3.054891 1_455
Dy5 Ir2 2.841491 1_555
Dy5 Ir1 2.929265 1_555
Dy5 Ir0 3.054891 1_555
Dy6 Ir1 2.841491 1_565
Dy6 Ir2 2.929265 1_555
Dy6 Ir3 3.054891 1_655
Dy7 Ir0 2.841491 1_555
Dy7 Ir3 2.929265 1_555
Dy7 Ir2 3.054891 1_555
Dy8 Ir2 2.899016 1_555
Dy8 Ir3 2.899016 1_544
Dy8 Ir1 2.935612 1_555
Dy8 Ir0 2.935612 1_554
Dy9 Ir0 2.899016 1_554
Dy9 Ir1 2.899016 1_565
Dy9 Ir3 2.935612 1_554
Dy9 Ir2 2.935612 1_555
