# generated using pymatgen
data_PrAl2Ag
_symmetry_space_group_name_H-M   'P 1'
_cell_length_a   9.53993643
_cell_length_b   9.53993643
_cell_length_c   9.53993628
_cell_angle_alpha   34.49881140
_cell_angle_beta   34.49881140
_cell_angle_gamma   34.49881341
_symmetry_Int_Tables_number   1
_chemical_formula_structural   PrAl2Ag
_chemical_formula_sum   'Pr3 Al6 Ag3'
_cell_volume   248.47930419
_cell_formula_units_Z   3
loop_
 _symmetry_equiv_pos_site_id
 _symmetry_equiv_pos_as_xyz
  1  'x, y, z'
loop_
 _atom_site_type_symbol
 _atom_site_label
 _atom_site_symmetry_multiplicity
 _atom_site_fract_x
 _atom_site_fract_y
 _atom_site_fract_z
 _atom_site_occupancy
  Pr  Pr0  1  0.85812567  0.85812567  0.85812567  1
  Pr  Pr1  1  0.14187433  0.14187433  0.14187433  1
  Pr  Pr2  1  -0.00000000  0.00000000  0.00000000  1
  Al  Al0  1  0.41555900  0.92293131  0.41555900  1
  Al  Al1  1  0.41555900  0.41555900  0.92293131  1
  Al  Al2  1  0.92293131  0.41555900  0.41555900  1
  Al  Al3  1  0.58444100  0.07706869  0.58444100  1
  Al  Al4  1  0.58444100  0.58444100  0.07706869  1
  Al  Al5  1  0.07706869  0.58444100  0.58444100  1
  Ag  Ag0  1  0.66466282  0.66466282  0.66466282  1
  Ag  Ag1  1  0.33533718  0.33533718  0.33533718  1
  Ag  Ag2  1  0.50000000  0.50000000  0.50000000  1
loop_
_geom_bond_atom_site_label_1
_geom_bond_atom_site_label_2
_geom_bond_distance
_geom_bond_site_symmetry_2
Al0 Al1 2.787182 1_564
Al0 Al2 2.787182 1_465
Al0 Al1 2.870604 1_555
Al0 Al2 2.870604 1_555
Al0 Pr0 3.255268 1_554
Al0 Pr0 3.255268 1_455
Al0 Pr1 3.354887 1_565
Al0 Pr2 3.586521 1_566
Al0 Pr2 3.586521 1_665
Al1 Al2 2.787182 1_456
Al1 Al2 2.870604 1_555
Al1 Pr0 3.255268 1_545
Al1 Pr0 3.255268 1_455
Al1 Pr1 3.354887 1_556
Al1 Pr2 3.586522 1_656
Al1 Pr2 3.586522 1_566
Al2 Pr0 3.255268 1_554
Al2 Pr0 3.255268 1_545
Al2 Pr1 3.354887 1_655
Al2 Pr2 3.586521 1_656
Al2 Pr2 3.586521 1_665
Al3 Al4 2.787182 1_546
Al3 Al5 2.787182 1_645
Al3 Al4 2.870604 1_555
Al3 Al5 2.870604 1_555
Al3 Pr1 3.255268 1_556
Al3 Pr1 3.255268 1_655
Al3 Pr0 3.354887 1_545
Al3 Pr2 3.586521 1_655
Al3 Pr2 3.586521 1_556
Al4 Al5 2.787182 1_654
Al4 Al5 2.870604 1_555
Al4 Pr1 3.255268 1_655
Al4 Pr1 3.255268 1_565
Al4 Pr0 3.354887 1_554
Al4 Pr2 3.586522 1_565
Al4 Pr2 3.586522 1_655
Al5 Pr1 3.255268 1_556
Al5 Pr1 3.255268 1_565
Al5 Pr0 3.354887 1_455
Al5 Pr2 3.586521 1_565
Al5 Pr2 3.586521 1_556
Ag0 Al1 2.715150 1_555
Ag0 Al2 2.715150 1_555
Ag0 Al0 2.715150 1_555
Ag0 Al4 2.773059 1_556
Ag0 Al5 2.773059 1_655
Ag0 Al3 2.773059 1_565
Ag0 Pr2 3.266969 1_665
Ag0 Pr2 3.266969 1_656
Ag0 Pr2 3.266969 1_566
Ag1 Al4 2.715150 1_555
Ag1 Al3 2.715150 1_555
Ag1 Al5 2.715150 1_555
Ag1 Al1 2.773059 1_554
Ag1 Al2 2.773059 1_455
Ag1 Al0 2.773059 1_545
Ag1 Pr2 3.266969 1_556
Ag1 Pr2 3.266969 1_655
Ag1 Pr2 3.266969 1_565
Ag2 Al1 2.816386 1_555
Ag2 Al4 2.816386 1_555
Ag2 Al2 2.816386 1_555
Ag2 Al5 2.816386 1_555
Ag2 Al3 2.816386 1_555
Ag2 Al0 2.816386 1_555
Ag2 Pr0 3.333860 1_554
Ag2 Pr1 3.333860 1_556
Ag2 Pr0 3.333860 1_455
Ag2 Pr1 3.333860 1_655
Ag2 Pr0 3.333860 1_545
Ag2 Pr1 3.333860 1_565
