# generated using pymatgen
data_HgC2Br3N
_symmetry_space_group_name_H-M   'P 1'
_cell_length_a   8.72682100
_cell_length_b   15.52309200
_cell_length_c   16.82705389
_cell_angle_alpha   79.54784069
_cell_angle_beta   90.00000000
_cell_angle_gamma   90.00000000
_symmetry_Int_Tables_number   1
_chemical_formula_structural   HgC2Br3N
_chemical_formula_sum   'Hg8 C16 Br24 N8'
_cell_volume   2241.69002871
_cell_formula_units_Z   8
loop_
 _symmetry_equiv_pos_site_id
 _symmetry_equiv_pos_as_xyz
  1  'x, y, z'
loop_
 _atom_site_type_symbol
 _atom_site_label
 _atom_site_symmetry_multiplicity
 _atom_site_fract_x
 _atom_site_fract_y
 _atom_site_fract_z
 _atom_site_occupancy
  Hg  Hg0  1  0.19732800  0.85078300  0.22729700  1
  Hg  Hg1  1  0.19732800  0.64921700  0.77270300  1
  Hg  Hg2  1  0.80267200  0.14921700  0.77270300  1
  Hg  Hg3  1  0.80267200  0.35078300  0.22729700  1
  Hg  Hg4  1  0.88348000  0.75000000  0.00000000  1
  Hg  Hg5  1  0.11652000  0.25000000  0.00000000  1
  Hg  Hg6  1  0.18939200  0.75000000  0.50000000  1
  Hg  Hg7  1  0.81060800  0.25000000  0.50000000  1
  C  C0  1  0.61112000  0.01377300  0.14854700  1
  C  C1  1  0.61112000  0.48622700  0.85145300  1
  C  C2  1  0.38888000  0.98622700  0.85145300  1
  C  C3  1  0.38888000  0.51377300  0.14854700  1
  C  C4  1  0.85428900  0.06909700  0.07658800  1
  C  C5  1  0.85428900  0.43090300  0.92341200  1
  C  C6  1  0.14571100  0.93090300  0.92341200  1
  C  C7  1  0.14571100  0.56909700  0.07658800  1
  C  C8  1  0.79842100  0.63323900  0.43640700  1
  C  C9  1  0.79842100  0.86676100  0.56359300  1
  C  C10  1  0.20157900  0.36676100  0.56359300  1
  C  C11  1  0.20157900  0.13323900  0.43640700  1
  C  C12  1  0.60101800  0.57802300  0.34896000  1
  C  C13  1  0.60101800  0.92197700  0.65104000  1
  C  C14  1  0.39898200  0.42197700  0.65104000  1
  C  C15  1  0.39898200  0.07802300  0.34896000  1
  Br  Br0  1  0.02937600  0.92038200  0.31333900  1
  Br  Br1  1  0.02937600  0.57961800  0.68666100  1
  Br  Br2  1  0.97062400  0.07961800  0.68666100  1
  Br  Br3  1  0.97062400  0.42038200  0.31333900  1
  Br  Br4  1  0.37956600  0.79277400  0.14068900  1
  Br  Br5  1  0.37956600  0.70722600  0.85931100  1
  Br  Br6  1  0.62043400  0.20722600  0.85931100  1
  Br  Br7  1  0.62043400  0.29277400  0.14068900  1
  Br  Br8  1  0.20745700  0.65440800  0.40046400  1
  Br  Br9  1  0.20745700  0.84559200  0.59953600  1
  Br  Br10  1  0.79254300  0.34559200  0.59953600  1
  Br  Br11  1  0.79254300  0.15440800  0.40046400  1
  Br  Br12  1  0.86685600  0.76545100  0.14158200  1
  Br  Br13  1  0.86685600  0.73454900  0.85841800  1
  Br  Br14  1  0.13314400  0.23454900  0.85841800  1
  Br  Br15  1  0.13314400  0.26545100  0.14158200  1
  Br  Br16  1  0.57569900  0.56686100  0.10921100  1
  Br  Br17  1  0.57569900  0.93313900  0.89078900  1
  Br  Br18  1  0.42430100  0.43313900  0.89078900  1
  Br  Br19  1  0.42430100  0.06686100  0.10921100  1
  Br  Br20  1  0.46972700  0.53909400  0.61988600  1
  Br  Br21  1  0.46972700  0.96090600  0.38011400  1
  Br  Br22  1  0.53027300  0.46090600  0.38011400  1
  Br  Br23  1  0.53027300  0.03909400  0.61988600  1
  N  N0  1  0.72941600  0.04980600  0.10477100  1
  N  N1  1  0.72941600  0.45019400  0.89522900  1
  N  N2  1  0.27058400  0.95019400  0.89522900  1
  N  N3  1  0.27058400  0.54980600  0.10477100  1
  N  N4  1  0.70877500  0.59664100  0.39905200  1
  N  N5  1  0.70877500  0.90335900  0.60094800  1
  N  N6  1  0.29122500  0.40335900  0.60094800  1
  N  N7  1  0.29122500  0.09664100  0.39905200  1
loop_
_geom_bond_atom_site_label_1
_geom_bond_atom_site_label_2
_geom_bond_distance
_geom_bond_site_symmetry_2
C0 N0 1.331061 1_555
C1 N1 1.331061 1_555
C2 N2 1.331061 1_555
C3 N3 1.331061 1_555
C4 N0 1.204405 1_555
C5 N1 1.204405 1_555
C6 N2 1.204405 1_555
C7 N3 1.204405 1_555
C8 N4 1.208080 1_555
C9 N5 1.208080 1_555
C10 N6 1.208080 1_555
C11 N7 1.208080 1_555
C12 N4 1.329174 1_555
C13 N5 1.329174 1_555
C14 N6 1.329174 1_555
C15 N7 1.329174 1_555
Br0 Hg0 2.445251 1_555
Br1 Hg1 2.445251 1_555
Br2 Hg2 2.445251 1_555
Br3 Hg3 2.445251 1_555
Br4 Hg0 2.437240 1_555
Br5 Hg1 2.437240 1_555
Br6 Hg2 2.437240 1_555
Br7 Hg3 2.437240 1_555
Br8 Hg6 2.435940 1_555
Br9 Hg6 2.435940 1_555
Br10 Hg7 2.435940 1_555
Br11 Hg7 2.435940 1_555
Br12 Hg4 2.441673 1_555
Br13 Hg4 2.441673 1_556
Br14 Hg5 2.441673 1_556
Br15 Hg5 2.441673 1_555
Br16 C3 1.891383 1_555
Br17 C2 1.891383 1_555
Br18 C1 1.891383 1_555
Br19 C0 1.891383 1_555
Br20 C14 1.901411 1_555
Br21 C15 1.901411 1_565
Br22 C12 1.901411 1_555
Br23 C13 1.901411 1_545
