# generated using pymatgen
data_PrMgTi2O6
_symmetry_space_group_name_H-M   'P 1'
_cell_length_a   5.36331200
_cell_length_b   5.53080300
_cell_length_c   7.70070700
_cell_angle_alpha   90.00000000
_cell_angle_beta   90.00000000
_cell_angle_gamma   90.00000000
_symmetry_Int_Tables_number   1
_chemical_formula_structural   PrMgTi2O6
_chemical_formula_sum   'Pr2 Mg2 Ti4 O12'
_cell_volume   228.42932221
_cell_formula_units_Z   2
loop_
 _symmetry_equiv_pos_site_id
 _symmetry_equiv_pos_as_xyz
  1  'x, y, z'
loop_
 _atom_site_type_symbol
 _atom_site_label
 _atom_site_symmetry_multiplicity
 _atom_site_fract_x
 _atom_site_fract_y
 _atom_site_fract_z
 _atom_site_occupancy
  Pr  Pr0  1  0.01029900  0.70248500  0.00000000  1
  Pr  Pr1  1  0.51029900  0.29751500  0.50000000  1
  Mg  Mg0  1  0.48207900  0.20380200  0.00000000  1
  Mg  Mg1  1  0.98207900  0.79619800  0.50000000  1
  Ti  Ti0  1  0.00068200  0.24448400  0.75066600  1
  Ti  Ti1  1  0.00068200  0.24448400  0.24933400  1
  Ti  Ti2  1  0.50068200  0.75551600  0.25066600  1
  Ti  Ti3  1  0.50068200  0.75551600  0.74933400  1
  O  O0  1  0.07997000  0.20774000  0.50000000  1
  O  O1  1  0.21640700  0.96892400  0.80169200  1
  O  O2  1  0.21640700  0.96892400  0.19830800  1
  O  O3  1  0.31055600  0.44500400  0.19186000  1
  O  O4  1  0.31055600  0.44500400  0.80814000  1
  O  O5  1  0.37252300  0.72727600  0.50000000  1
  O  O6  1  0.57997000  0.79226000  0.00000000  1
  O  O7  1  0.71640700  0.03107600  0.69830800  1
  O  O8  1  0.71640700  0.03107600  0.30169200  1
  O  O9  1  0.81055600  0.55499600  0.69186000  1
  O  O10  1  0.81055600  0.55499600  0.30814000  1
  O  O11  1  0.87252300  0.27272400  0.00000000  1
loop_
_geom_bond_atom_site_label_1
_geom_bond_atom_site_label_2
_geom_bond_distance
_geom_bond_site_symmetry_2
Mg0 O11 2.128486 1_555
Mg0 O4 2.192902 1_554
Mg0 O3 2.192902 1_555
Mg0 O6 2.335924 1_545
Mg0 O2 2.459660 1_545
Mg0 O1 2.459660 1_544
Mg1 O5 2.128486 1_655
Mg1 O10 2.192902 1_555
Mg1 O9 2.192902 1_555
Mg1 O0 2.335924 1_665
Mg1 O7 2.459660 1_565
Mg1 O8 2.459660 1_565
O0 Ti0 1.987011 1_555
O0 Ti1 1.987011 1_555
O0 Pr1 2.360795 1_555
O1 Ti0 1.953416 1_565
O1 Ti3 1.969845 1_555
O1 Pr0 2.392820 1_556
O2 Ti1 1.953416 1_565
O2 Ti2 1.969845 1_555
O2 Pr0 2.392820 1_555
O3 Ti1 2.046443 1_555
O3 Ti2 2.047991 1_555
O3 Pr0 2.608481 1_555
O3 Pr1 2.728315 1_555
O4 Ti0 2.046443 1_555
O4 Ti3 2.047991 1_555
O4 Pr0 2.608481 1_556
O4 Pr1 2.728315 1_555
O5 Ti3 2.045346 1_555
O5 Ti2 2.045346 1_555
O5 Pr1 2.489135 1_555
O6 Ti2 1.987011 1_555
O6 Ti3 1.987011 1_554
O6 Pr0 2.360795 1_655
O7 Ti3 1.953416 1_545
O7 Ti0 1.969845 1_655
O7 Pr1 2.392820 1_555
O8 Ti2 1.953416 1_545
O8 Ti1 1.969845 1_655
O8 Pr1 2.392820 1_555
O9 Ti3 2.046443 1_555
O9 Ti0 2.047991 1_655
O9 Pr1 2.608481 1_555
O9 Pr0 2.728315 1_656
O10 Ti2 2.046443 1_555
O10 Ti1 2.047991 1_655
O10 Pr1 2.608481 1_555
O10 Pr0 2.728315 1_655
O11 Ti1 2.045346 1_655
O11 Ti0 2.045346 1_654
O11 Pr0 2.489135 1_655
