# generated using pymatgen
data_Mg2Si3
_symmetry_space_group_name_H-M   'P 1'
_cell_length_a   2.98219500
_cell_length_b   7.85290525
_cell_length_c   8.08285944
_cell_angle_alpha   110.19818377
_cell_angle_beta   93.24892199
_cell_angle_gamma   89.37697889
_symmetry_Int_Tables_number   1
_chemical_formula_structural   Mg2Si3
_chemical_formula_sum   'Mg4 Si6'
_cell_volume   177.35778311
_cell_formula_units_Z   2
loop_
 _symmetry_equiv_pos_site_id
 _symmetry_equiv_pos_as_xyz
  1  'x, y, z'
loop_
 _atom_site_type_symbol
 _atom_site_label
 _atom_site_symmetry_multiplicity
 _atom_site_fract_x
 _atom_site_fract_y
 _atom_site_fract_z
 _atom_site_occupancy
  Mg  Mg0  1  0.97484300  0.20095200  0.00386900  1
  Mg  Mg1  1  0.02515700  0.79904800  0.99613100  1
  Mg  Mg2  1  0.12194300  0.19548500  0.59200000  1
  Mg  Mg3  1  0.87805700  0.80451500  0.40800000  1
  Si  Si0  1  0.28038000  0.58367600  0.61996200  1
  Si  Si1  1  0.71962000  0.41632400  0.38003800  1
  Si  Si2  1  0.38183700  0.91938300  0.73104600  1
  Si  Si3  1  0.61816300  0.08061700  0.26895400  1
  Si  Si4  1  0.59990300  0.46448800  0.84344600  1
  Si  Si5  1  0.40009700  0.53551200  0.15655400  1
loop_
_geom_bond_atom_site_label_1
_geom_bond_atom_site_label_2
_geom_bond_distance
_geom_bond_site_symmetry_2
Mg0 Si5 2.773083 1_655
Mg0 Si2 2.846596 1_644
Mg0 Si3 2.879880 1_555
Mg0 Si4 2.975389 1_554
Mg0 Si2 3.025788 1_544
Mg0 Si5 3.044055 1_555
Mg0 Si1 3.060694 1_555
Mg0 Si3 3.171337 1_655
Mg1 Si4 2.773083 1_455
Mg1 Si3 2.846596 1_466
Mg1 Si2 2.879880 1_555
Mg1 Si5 2.975389 1_556
Mg1 Si3 3.025788 1_566
Mg1 Si4 3.044055 1_555
Mg1 Si0 3.060694 1_555
Mg1 Si2 3.171337 1_455
Mg2 Si4 2.719780 1_555
Mg2 Si3 2.801283 1_455
Mg2 Si2 2.848223 1_545
Mg2 Si4 2.887773 1_455
Mg2 Si3 2.933271 1_555
Mg2 Si0 3.018391 1_555
Mg2 Si1 3.025855 1_455
Mg3 Si5 2.719780 1_555
Mg3 Si2 2.801283 1_655
Mg3 Si3 2.848223 1_565
Mg3 Si5 2.887773 1_655
Mg3 Si2 2.933271 1_555
Mg3 Si1 3.018391 1_555
Mg3 Si0 3.025855 1_655
Si0 Si1 2.386280 1_555
Si0 Si4 2.449506 1_555
Si0 Si2 2.489918 1_555
Si0 Si1 2.490939 1_455
Si1 Si5 2.449506 1_555
Si1 Si3 2.489918 1_555
Si4 Si5 2.502018 1_556
