# generated using pymatgen
data_Pr2AlNO3
_symmetry_space_group_name_H-M   'P 1'
_cell_length_a   6.86984811
_cell_length_b   6.86984811
_cell_length_c   6.86984811
_cell_angle_alpha   148.27540811
_cell_angle_beta   148.27540811
_cell_angle_gamma   45.47897187
_symmetry_Int_Tables_number   1
_chemical_formula_structural   Pr2AlNO3
_chemical_formula_sum   'Pr2 Al1 N1 O3'
_cell_volume   89.35588291
_cell_formula_units_Z   1
loop_
 _symmetry_equiv_pos_site_id
 _symmetry_equiv_pos_as_xyz
  1  'x, y, z'
loop_
 _atom_site_type_symbol
 _atom_site_label
 _atom_site_symmetry_multiplicity
 _atom_site_fract_x
 _atom_site_fract_y
 _atom_site_fract_z
 _atom_site_occupancy
  Pr  Pr0  1  0.52006500  0.52006500  0.00000000  1
  Pr  Pr1  1  0.80849100  0.80849100  0.00000000  1
  Al  Al0  1  0.15777000  0.15777000  0.00000000  1
  N  N0  1  0.99746600  0.99746600  0.00000000  1
  O  O0  1  0.66993800  0.16993800  0.50000000  1
  O  O1  1  0.16993800  0.66993800  0.50000000  1
  O  O2  1  0.32903300  0.32903300  0.00000000  1
loop_
_geom_bond_atom_site_label_1
_geom_bond_atom_site_label_2
_geom_bond_distance
_geom_bond_site_symmetry_2
Al0 O0 1.884030 1_555
Al0 O1 1.884030 1_555
Al0 O0 1.884030 1_454
Al0 O1 1.884030 1_544
Al0 N0 2.031330 1_445
Al0 O2 2.170200 1_555
N0 Pr1 2.394641 1_555
N0 Pr0 2.670879 1_554
N0 Pr0 2.670879 1_565
N0 Pr0 2.670879 1_655
N0 Pr0 2.670879 1_666
O0 Pr1 2.570662 1_556
O0 Pr1 2.570662 1_545
O0 Pr0 2.670687 1_556
O0 Pr0 2.670687 1_545
O1 Pr1 2.570662 1_556
O1 Pr1 2.570662 1_455
O1 Pr0 2.670687 1_556
O1 Pr0 2.670687 1_455
O2 Pr0 2.420707 1_555
O2 Pr1 2.668210 1_444
O2 Pr1 2.668210 1_556
O2 Pr1 2.668210 1_545
O2 Pr1 2.668210 1_455
