# generated using pymatgen
data_La6NbGa11O28
_symmetry_space_group_name_H-M   'P 1'
_cell_length_a   8.48186767
_cell_length_b   9.69833668
_cell_length_c   9.71315345
_cell_angle_alpha   64.77335026
_cell_angle_beta   65.34076208
_cell_angle_gamma   64.23367332
_symmetry_Int_Tables_number   1
_chemical_formula_structural   La6NbGa11O28
_chemical_formula_sum   'La6 Nb1 Ga11 O28'
_cell_volume   623.99692274
_cell_formula_units_Z   1
loop_
 _symmetry_equiv_pos_site_id
 _symmetry_equiv_pos_as_xyz
  1  'x, y, z'
loop_
 _atom_site_type_symbol
 _atom_site_label
 _atom_site_symmetry_multiplicity
 _atom_site_fract_x
 _atom_site_fract_y
 _atom_site_fract_z
 _atom_site_occupancy
  La  La0  1  0.43526800  0.01404200  0.99509300  1
  La  La1  1  0.41008800  0.50743000  0.51588900  1
  La  La2  1  0.57033200  0.71628300  0.72918300  1
  La  La3  1  0.54070900  0.20724900  0.23852400  1
  La  La4  1  0.00030800  0.28307300  0.29092500  1
  La  La5  1  0.00371100  0.80167700  0.79071800  1
  Nb  Nb0  1  0.99343500  0.01792900  0.01439900  1
  Ga  Ga0  1  0.75189800  0.27967600  0.75100300  1
  Ga  Ga1  1  0.74789200  0.74313500  0.23424200  1
  Ga  Ga2  1  0.27330000  0.09820200  0.61886800  1
  Ga  Ga3  1  0.24486800  0.62748300  0.15598200  1
  Ga  Ga4  1  0.39513400  0.90731000  0.41575600  1
  Ga  Ga5  1  0.32164700  0.44816900  0.91371000  1
  Ga  Ga6  1  0.65111500  0.07778900  0.60839700  1
  Ga  Ga7  1  0.63769200  0.60653500  0.11398400  1
  Ga  Ga8  1  0.92900800  0.83179800  0.40234600  1
  Ga  Ga9  1  0.06144700  0.36942700  0.79827400  1
  Ga  Ga10  1  0.00448200  0.48447000  0.48821900  1
  O  O0  1  0.20922100  0.32105200  0.59738000  1
  O  O1  1  0.21364600  0.85424100  0.09040200  1
  O  O2  1  0.79828400  0.69861100  0.42379100  1
  O  O3  1  0.76985000  0.20242500  0.96675700  1
  O  O4  1  0.87112800  0.02330500  0.24301200  1
  O  O5  1  0.85963200  0.48707000  0.72268200  1
  O  O6  1  0.13883500  0.65269100  0.41060000  1
  O  O7  1  0.10907100  0.18650800  0.96497700  1
  O  O8  1  0.55892900  0.96178600  0.21209300  1
  O  O9  1  0.53267500  0.44952600  0.74053600  1
  O  O10  1  0.43567300  0.02397200  0.75115500  1
  O  O11  1  0.48825300  0.49240900  0.16634700  1
  O  O12  1  0.20767800  0.10193500  0.43544700  1
  O  O13  1  0.15673900  0.51153200  0.79426000  1
  O  O14  1  0.85055400  0.88707500  0.58571300  1
  O  O15  1  0.85203000  0.54519600  0.16331600  1
  O  O16  1  0.87910300  0.33806000  0.53402900  1
  O  O17  1  0.90612900  0.84272000  0.04873700  1
  O  O18  1  0.08861300  0.01686400  0.78626300  1
  O  O19  1  0.14267800  0.45953100  0.27971100  1
  O  O20  1  0.51081400  0.97536800  0.50155200  1
  O  O21  1  0.28319300  0.64045600  0.93967400  1
  O  O22  1  0.69723900  0.09750600  0.77456800  1
  O  O23  1  0.51728100  0.69942800  0.28805600  1
  O  O24  1  0.63612500  0.25759800  0.43340400  1
  O  O25  1  0.66485600  0.75300200  0.91702200  1
  O  O26  1  0.32077400  0.75246600  0.59352100  1
  O  O27  1  0.32866400  0.25969100  0.07318200  1
loop_
_geom_bond_atom_site_label_1
_geom_bond_atom_site_label_2
_geom_bond_distance
_geom_bond_site_symmetry_2
La0 O10 2.328598 1_555
La0 O27 2.482708 1_556
La0 O8 2.504334 1_546
La0 O22 2.508967 1_555
La0 O1 2.578796 1_546
La0 O7 2.602519 1_555
La0 O25 2.625738 1_545
La1 O23 2.339157 1_555
La1 O6 2.498255 1_555
La1 O26 2.505114 1_555
La1 O9 2.549268 1_555
La1 O24 2.553946 1_555
La1 O13 2.664423 1_555
La1 O0 2.670022 1_555
La2 O25 2.474085 1_555
La2 O5 2.492943 1_555
La2 O20 2.559304 1_555
La2 O21 2.602489 1_555
La2 O9 2.693158 1_555
La2 O26 2.761790 1_555
La2 O10 2.762433 1_565
La2 O2 2.815353 1_555
La2 O14 3.004368 1_555
La3 O11 2.423983 1_555
La3 O8 2.434126 1_545
La3 O3 2.548106 1_554
La3 O20 2.589710 1_545
La3 O4 2.593786 1_555
La3 O24 2.624166 1_555
La3 O27 2.644113 1_555
La4 O15 2.327202 1_455
La4 O12 2.328565 1_555
La4 O16 2.342679 1_455
La4 O19 2.434506 1_555
La4 O27 2.688073 1_555
La4 O24 2.884932 1_455
La5 O17 2.440787 1_456
La5 O18 2.465657 1_565
La5 O14 2.481104 1_455
La5 O13 2.526542 1_555
La5 O26 2.548312 1_555
La5 O25 2.780680 1_455
La5 O21 2.805113 1_555
La5 O22 2.913050 1_465
Nb0 O17 1.987915 1_545
Nb0 O18 2.020312 1_654
Nb0 O3 2.022010 1_554
Nb0 O1 2.031635 1_645
Nb0 O4 2.034506 1_555
Nb0 O7 2.048830 1_654
Ga0 O9 1.879708 1_555
Ga0 O16 1.882240 1_555
Ga0 O22 1.915092 1_555
Ga0 O3 1.950642 1_555
Ga0 O5 2.423399 1_555
Ga1 O2 1.891396 1_555
Ga1 O17 1.899054 1_555
Ga1 O23 1.989401 1_555
Ga1 O8 2.013912 1_555
Ga1 O15 2.021216 1_555
Ga2 O18 1.890909 1_555
Ga2 O0 1.923266 1_555
Ga2 O10 1.972870 1_555
Ga2 O20 1.982717 1_545
Ga2 O12 2.059164 1_555
Ga3 O19 1.881058 1_555
Ga3 O11 1.922934 1_555
Ga3 O1 1.937164 1_555
Ga3 O21 1.943235 1_554
Ga3 O6 2.335226 1_555
Ga4 O26 1.827245 1_555
Ga4 O12 1.890021 1_565
Ga4 O8 1.891171 1_555
Ga4 O20 1.951171 1_555
Ga4 O23 2.433087 1_555
Ga5 O27 1.820171 1_556
Ga5 O21 1.857724 1_555
Ga5 O9 1.876864 1_555
Ga5 O13 1.918166 1_555
Ga6 O24 1.845875 1_555
Ga6 O10 1.905861 1_555
Ga6 O14 1.909794 1_545
Ga6 O22 1.910441 1_555
Ga6 O20 2.533134 1_545
Ga7 O11 1.814467 1_555
Ga7 O25 1.825152 1_554
Ga7 O15 1.852629 1_555
Ga7 O23 1.941910 1_555
Ga8 O14 1.848565 1_555
Ga8 O4 1.864633 1_565
Ga8 O6 1.871841 1_655
Ga8 O2 1.940196 1_555
Ga9 O7 1.845637 1_555
Ga9 O5 1.846001 1_455
Ga9 O13 1.857560 1_555
Ga9 O0 1.956270 1_555
Ga10 O19 1.929852 1_555
Ga10 O16 1.929906 1_455
Ga10 O0 2.088770 1_555
Ga10 O6 2.092769 1_555
Ga10 O5 2.093751 1_455
Ga10 O2 2.100275 1_455
