# generated using pymatgen
data_NaH24Ru(C2N5)4
_symmetry_space_group_name_H-M   'P 1'
_cell_length_a   13.62444701
_cell_length_b   13.62444701
_cell_length_c   13.62444701
_cell_angle_alpha   90.00000000
_cell_angle_beta   90.00000000
_cell_angle_gamma   90.00000000
_symmetry_Int_Tables_number   1
_chemical_formula_structural   NaH24Ru(C2N5)4
_chemical_formula_sum   'Na4 H96 Ru4 C32 N80'
_cell_volume   2529.04555590
_cell_formula_units_Z   4
loop_
 _symmetry_equiv_pos_site_id
 _symmetry_equiv_pos_as_xyz
  1  'x, y, z'
loop_
 _atom_site_type_symbol
 _atom_site_label
 _atom_site_symmetry_multiplicity
 _atom_site_fract_x
 _atom_site_fract_y
 _atom_site_fract_z
 _atom_site_occupancy
  Na  Na0  1  0.50000000  0.50000000  0.50000000  1
  Na  Na1  1  0.50000000  -0.00000000  -0.00000000  1
  Na  Na2  1  0.00000000  0.50000000  -0.00000000  1
  Na  Na3  1  0.00000000  -0.00000000  0.50000000  1
  H  H0  1  0.28677870  0.20616849  0.60149706  1
  H  H1  1  0.71322130  0.70616849  0.89850294  1
  H  H2  1  0.21322130  0.79383151  0.10149706  1
  H  H3  1  0.78677870  0.29383151  0.39850294  1
  H  H4  1  0.60149706  0.28677870  0.20616849  1
  H  H5  1  0.89850294  0.71322130  0.70616849  1
  H  H6  1  0.10149706  0.21322130  0.79383151  1
  H  H7  1  0.39850294  0.78677870  0.29383151  1
  H  H8  1  0.20616849  0.60149706  0.28677870  1
  H  H9  1  0.70616849  0.89850294  0.71322130  1
  H  H10  1  0.79383151  0.10149706  0.21322130  1
  H  H11  1  0.29383151  0.39850294  0.78677870  1
  H  H12  1  0.71322130  0.79383151  0.39850294  1
  H  H13  1  0.28677870  0.29383151  0.10149706  1
  H  H14  1  0.78677870  0.20616849  0.89850294  1
  H  H15  1  0.21322130  0.70616849  0.60149706  1
  H  H16  1  0.39850294  0.71322130  0.79383151  1
  H  H17  1  0.10149706  0.28677870  0.29383151  1
  H  H18  1  0.89850294  0.78677870  0.20616849  1
  H  H19  1  0.60149706  0.21322130  0.70616849  1
  H  H20  1  0.79383151  0.39850294  0.71322130  1
  H  H21  1  0.29383151  0.10149706  0.28677870  1
  H  H22  1  0.20616849  0.89850294  0.78677870  1
  H  H23  1  0.70616849  0.60149706  0.21322130  1
  H  H24  1  0.17312836  0.15421995  0.64420311  1
  H  H25  1  0.82687164  0.65421995  0.85579689  1
  H  H26  1  0.32687164  0.84578005  0.14420311  1
  H  H27  1  0.67312836  0.34578005  0.35579689  1
  H  H28  1  0.64420311  0.17312836  0.15421995  1
  H  H29  1  0.85579689  0.82687164  0.65421995  1
  H  H30  1  0.14420311  0.32687164  0.84578005  1
  H  H31  1  0.35579689  0.67312836  0.34578005  1
  H  H32  1  0.15421995  0.64420311  0.17312836  1
  H  H33  1  0.65421995  0.85579689  0.82687164  1
  H  H34  1  0.84578005  0.14420311  0.32687164  1
  H  H35  1  0.34578005  0.35579689  0.67312836  1
  H  H36  1  0.82687164  0.84578005  0.35579689  1
  H  H37  1  0.17312836  0.34578005  0.14420311  1
  H  H38  1  0.67312836  0.15421995  0.85579689  1
  H  H39  1  0.32687164  0.65421995  0.64420311  1
  H  H40  1  0.35579689  0.82687164  0.84578005  1
  H  H41  1  0.14420311  0.17312836  0.34578005  1
  H  H42  1  0.85579689  0.67312836  0.15421995  1
  H  H43  1  0.64420311  0.32687164  0.65421995  1
  H  H44  1  0.84578005  0.35579689  0.82687164  1
  H  H45  1  0.34578005  0.14420311  0.17312836  1
  H  H46  1  0.15421995  0.85579689  0.67312836  1
  H  H47  1  0.65421995  0.64420311  0.32687164  1
  H  H48  1  0.17316051  0.27241235  0.58473126  1
  H  H49  1  0.82683949  0.77241235  0.91526874  1
  H  H50  1  0.32683949  0.72758765  0.08473126  1
  H  H51  1  0.67316051  0.22758765  0.41526874  1
  H  H52  1  0.58473126  0.17316051  0.27241235  1
  H  H53  1  0.91526874  0.82683949  0.77241235  1
  H  H54  1  0.08473126  0.32683949  0.72758765  1
  H  H55  1  0.41526874  0.67316051  0.22758765  1
  H  H56  1  0.27241235  0.58473126  0.17316051  1
  H  H57  1  0.77241235  0.91526874  0.82683949  1
  H  H58  1  0.72758765  0.08473126  0.32683949  1
  H  H59  1  0.22758765  0.41526874  0.67316051  1
  H  H60  1  0.82683949  0.72758765  0.41526874  1
  H  H61  1  0.17316051  0.22758765  0.08473126  1
  H  H62  1  0.67316051  0.27241235  0.91526874  1
  H  H63  1  0.32683949  0.77241235  0.58473126  1
  H  H64  1  0.41526874  0.82683949  0.72758765  1
  H  H65  1  0.08473126  0.17316051  0.22758765  1
  H  H66  1  0.91526874  0.67316051  0.27241235  1
  H  H67  1  0.58473126  0.32683949  0.77241235  1
  H  H68  1  0.72758765  0.41526874  0.82683949  1
  H  H69  1  0.22758765  0.08473126  0.17316051  1
  H  H70  1  0.27241235  0.91526874  0.67316051  1
  H  H71  1  0.77241235  0.58473126  0.32683949  1
  H  H72  1  0.29790462  0.24287293  0.86398436  1
  H  H73  1  0.70209538  0.74287293  0.63601564  1
  H  H74  1  0.20209538  0.75712707  0.36398436  1
  H  H75  1  0.79790462  0.25712707  0.13601564  1
  H  H76  1  0.86398436  0.29790462  0.24287293  1
  H  H77  1  0.63601564  0.70209538  0.74287293  1
  H  H78  1  0.36398436  0.20209538  0.75712707  1
  H  H79  1  0.13601564  0.79790462  0.25712707  1
  H  H80  1  0.24287293  0.86398436  0.29790462  1
  H  H81  1  0.74287293  0.63601564  0.70209538  1
  H  H82  1  0.75712707  0.36398436  0.20209538  1
  H  H83  1  0.25712707  0.13601564  0.79790462  1
  H  H84  1  0.70209538  0.75712707  0.13601564  1
  H  H85  1  0.29790462  0.25712707  0.36398436  1
  H  H86  1  0.79790462  0.24287293  0.63601564  1
  H  H87  1  0.20209538  0.74287293  0.86398436  1
  H  H88  1  0.13601564  0.70209538  0.75712707  1
  H  H89  1  0.36398436  0.29790462  0.25712707  1
  H  H90  1  0.63601564  0.79790462  0.24287293  1
  H  H91  1  0.86398436  0.20209538  0.74287293  1
  H  H92  1  0.75712707  0.13601564  0.70209538  1
  H  H93  1  0.25712707  0.36398436  0.29790462  1
  H  H94  1  0.24287293  0.63601564  0.79790462  1
  H  H95  1  0.74287293  0.86398436  0.20209538  1
  Ru  Ru0  1  0.50000000  -0.00000000  0.50000000  1
  Ru  Ru1  1  0.50000000  0.50000000  -0.00000000  1
  Ru  Ru2  1  0.00000000  -0.00000000  -0.00000000  1
  Ru  Ru3  1  0.00000000  0.50000000  0.50000000  1
  C  C0  1  0.29201712  0.20798288  0.79201712  1
  C  C1  1  0.70798288  0.70798288  0.70798288  1
  C  C2  1  0.20798288  0.79201712  0.29201712  1
  C  C3  1  0.79201712  0.29201712  0.20798288  1
  C  C4  1  0.70798288  0.79201712  0.20798288  1
  C  C5  1  0.29201712  0.29201712  0.29201712  1
  C  C6  1  0.79201712  0.20798288  0.70798288  1
  C  C7  1  0.20798288  0.70798288  0.79201712  1
  C  C8  1  0.21429032  0.22209668  0.63198515  1
  C  C9  1  0.78570968  0.72209668  0.86801485  1
  C  C10  1  0.28570968  0.77790332  0.13198515  1
  C  C11  1  0.71429032  0.27790332  0.36801485  1
  C  C12  1  0.63198515  0.21429032  0.22209668  1
  C  C13  1  0.86801485  0.78570968  0.72209668  1
  C  C14  1  0.13198515  0.28570968  0.77790332  1
  C  C15  1  0.36801485  0.71429032  0.27790332  1
  C  C16  1  0.22209668  0.63198515  0.21429032  1
  C  C17  1  0.72209668  0.86801485  0.78570968  1
  C  C18  1  0.77790332  0.13198515  0.28570968  1
  C  C19  1  0.27790332  0.36801485  0.71429032  1
  C  C20  1  0.78570968  0.77790332  0.36801485  1
  C  C21  1  0.21429032  0.27790332  0.13198515  1
  C  C22  1  0.71429032  0.22209668  0.86801485  1
  C  C23  1  0.28570968  0.72209668  0.63198515  1
  C  C24  1  0.36801485  0.78570968  0.77790332  1
  C  C25  1  0.13198515  0.21429032  0.27790332  1
  C  C26  1  0.86801485  0.71429032  0.22209668  1
  C  C27  1  0.63198515  0.28570968  0.72209668  1
  C  C28  1  0.77790332  0.36801485  0.78570968  1
  C  C29  1  0.27790332  0.13198515  0.21429032  1
  C  C30  1  0.22209668  0.86801485  0.71429032  1
  C  C31  1  0.72209668  0.63198515  0.28570968  1
  N  N0  1  0.46855436  0.21777532  0.48341080  1
  N  N1  1  0.53144564  0.71777532  0.01658920  1
  N  N2  1  0.03144564  0.78222468  0.98341080  1
  N  N3  1  0.96855436  0.28222468  0.51658920  1
  N  N4  1  0.48341080  0.46855436  0.21777532  1
  N  N5  1  0.01658920  0.53144564  0.71777532  1
  N  N6  1  0.98341080  0.03144564  0.78222468  1
  N  N7  1  0.51658920  0.96855436  0.28222468  1
  N  N8  1  0.21777532  0.48341080  0.46855436  1
  N  N9  1  0.71777532  0.01658920  0.53144564  1
  N  N10  1  0.78222468  0.98341080  0.03144564  1
  N  N11  1  0.28222468  0.51658920  0.96855436  1
  N  N12  1  0.53144564  0.78222468  0.51658920  1
  N  N13  1  0.46855436  0.28222468  0.98341080  1
  N  N14  1  0.96855436  0.21777532  0.01658920  1
  N  N15  1  0.03144564  0.71777532  0.48341080  1
  N  N16  1  0.51658920  0.53144564  0.78222468  1
  N  N17  1  0.98341080  0.46855436  0.28222468  1
  N  N18  1  0.01658920  0.96855436  0.21777532  1
  N  N19  1  0.48341080  0.03144564  0.71777532  1
  N  N20  1  0.78222468  0.51658920  0.53144564  1
  N  N21  1  0.28222468  0.98341080  0.46855436  1
  N  N22  1  0.21777532  0.01658920  0.96855436  1
  N  N23  1  0.71777532  0.48341080  0.03144564  1
  N  N24  1  0.46041298  0.13776229  0.44754444  1
  N  N25  1  0.53958702  0.63776229  0.05245556  1
  N  N26  1  0.03958702  0.86223771  0.94754444  1
  N  N27  1  0.96041298  0.36223771  0.55245556  1
  N  N28  1  0.44754444  0.46041298  0.13776229  1
  N  N29  1  0.05245556  0.53958702  0.63776229  1
  N  N30  1  0.94754444  0.03958702  0.86223771  1
  N  N31  1  0.55245556  0.96041298  0.36223771  1
  N  N32  1  0.13776229  0.44754444  0.46041298  1
  N  N33  1  0.63776229  0.05245556  0.53958702  1
  N  N34  1  0.86223771  0.94754444  0.03958702  1
  N  N35  1  0.36223771  0.55245556  0.96041298  1
  N  N36  1  0.53958702  0.86223771  0.55245556  1
  N  N37  1  0.46041298  0.36223771  0.94754444  1
  N  N38  1  0.96041298  0.13776229  0.05245556  1
  N  N39  1  0.03958702  0.63776229  0.44754444  1
  N  N40  1  0.55245556  0.53958702  0.86223771  1
  N  N41  1  0.94754444  0.46041298  0.36223771  1
  N  N42  1  0.05245556  0.96041298  0.13776229  1
  N  N43  1  0.44754444  0.03958702  0.63776229  1
  N  N44  1  0.86223771  0.55245556  0.53958702  1
  N  N45  1  0.36223771  0.94754444  0.46041298  1
  N  N46  1  0.13776229  0.05245556  0.96041298  1
  N  N47  1  0.63776229  0.44754444  0.03958702  1
  N  N48  1  0.47249717  0.29934309  0.51183401  1
  N  N49  1  0.52750283  0.79934309  0.98816599  1
  N  N50  1  0.02750283  0.70065691  0.01183401  1
  N  N51  1  0.97249717  0.20065691  0.48816599  1
  N  N52  1  0.51183401  0.47249717  0.29934309  1
  N  N53  1  0.98816599  0.52750283  0.79934309  1
  N  N54  1  0.01183401  0.02750283  0.70065691  1
  N  N55  1  0.48816599  0.97249717  0.20065691  1
  N  N56  1  0.29934309  0.51183401  0.47249717  1
  N  N57  1  0.79934309  0.98816599  0.52750283  1
  N  N58  1  0.70065691  0.01183401  0.02750283  1
  N  N59  1  0.20065691  0.48816599  0.97249717  1
  N  N60  1  0.52750283  0.70065691  0.48816599  1
  N  N61  1  0.47249717  0.20065691  0.01183401  1
  N  N62  1  0.97249717  0.29934309  0.98816599  1
  N  N63  1  0.02750283  0.79934309  0.51183401  1
  N  N64  1  0.48816599  0.52750283  0.70065691  1
  N  N65  1  0.01183401  0.47249717  0.20065691  1
  N  N66  1  0.98816599  0.97249717  0.29934309  1
  N  N67  1  0.51183401  0.02750283  0.79934309  1
  N  N68  1  0.70065691  0.48816599  0.52750283  1
  N  N69  1  0.20065691  0.01183401  0.47249717  1
  N  N70  1  0.29934309  0.98816599  0.97249717  1
  N  N71  1  0.79934309  0.51183401  0.02750283  1
  N  N72  1  0.22886935  0.27113065  0.72886935  1
  N  N73  1  0.77113065  0.77113065  0.77113065  1
  N  N74  1  0.27113065  0.72886935  0.22886935  1
  N  N75  1  0.72886935  0.22886935  0.27113065  1
  N  N76  1  0.77113065  0.72886935  0.27113065  1
  N  N77  1  0.22886935  0.22886935  0.22886935  1
  N  N78  1  0.72886935  0.27113065  0.77113065  1
  N  N79  1  0.27113065  0.77113065  0.72886935  1
loop_
_geom_bond_atom_site_label_1
_geom_bond_atom_site_label_2
_geom_bond_distance
_geom_bond_site_symmetry_2
C0 H72 1.092615 1_555
C0 H78 1.092615 1_555
C0 H83 1.092615 1_555
C0 N72 1.490176 1_555
C1 H81 1.092615 1_555
C1 H73 1.092615 1_555
C1 H77 1.092615 1_555
C1 N73 1.490176 1_555
C2 H74 1.092615 1_555
C2 H80 1.092615 1_555
C2 H79 1.092615 1_555
C2 N74 1.490176 1_555
C3 H76 1.092615 1_555
C3 H82 1.092615 1_555
C3 H75 1.092615 1_555
C3 N75 1.490176 1_555
C4 H90 1.092615 1_555
C4 H95 1.092615 1_555
C4 H84 1.092615 1_555
C4 N76 1.490176 1_555
C5 H89 1.092615 1_555
C5 H85 1.092615 1_555
C5 H93 1.092615 1_555
C5 N77 1.490176 1_555
C6 H91 1.092615 1_555
C6 H86 1.092615 1_555
C6 H92 1.092615 1_555
C6 N78 1.490176 1_555
C7 H94 1.092615 1_555
C7 H87 1.092615 1_555
C7 H88 1.092615 1_555
C7 N79 1.490176 1_555
C8 H0 1.093169 1_555
C8 H24 1.094276 1_555
C8 H48 1.094736 1_555
C8 N72 1.492696 1_555
C9 H1 1.093169 1_555
C9 H25 1.094276 1_555
C9 H49 1.094736 1_555
C9 N73 1.492696 1_555
C10 H2 1.093169 1_555
C10 H26 1.094276 1_555
C10 H50 1.094736 1_555
C10 N74 1.492696 1_555
C11 H3 1.093169 1_555
C11 H27 1.094276 1_555
C11 H51 1.094736 1_555
C11 N75 1.492696 1_555
C12 H4 1.093169 1_555
C12 H28 1.094276 1_555
C12 H52 1.094736 1_555
C12 N75 1.492696 1_555
C13 H5 1.093169 1_555
C13 H29 1.094276 1_555
C13 H53 1.094736 1_555
C13 N73 1.492696 1_555
C14 H6 1.093169 1_555
C14 H30 1.094276 1_555
C14 H54 1.094736 1_555
C14 N72 1.492696 1_555
C15 H7 1.093169 1_555
C15 H31 1.094276 1_555
C15 H55 1.094736 1_555
C15 N74 1.492696 1_555
C16 H8 1.093169 1_555
C16 H32 1.094276 1_555
C16 H56 1.094736 1_555
C16 N74 1.492696 1_555
C17 H9 1.093169 1_555
C17 H33 1.094276 1_555
C17 H57 1.094736 1_555
C17 N73 1.492696 1_555
C18 H10 1.093169 1_555
C18 H34 1.094276 1_555
C18 H58 1.094736 1_555
C18 N75 1.492696 1_555
C19 H11 1.093169 1_555
C19 H35 1.094276 1_555
C19 H59 1.094736 1_555
C19 N72 1.492696 1_555
C20 H12 1.093169 1_555
C20 H36 1.094276 1_555
C20 H60 1.094736 1_555
C20 N76 1.492696 1_555
C21 H13 1.093169 1_555
C21 H37 1.094276 1_555
C21 H61 1.094736 1_555
C21 N77 1.492696 1_555
C22 H14 1.093169 1_555
C22 H38 1.094276 1_555
C22 H62 1.094736 1_555
C22 N78 1.492696 1_555
C23 H15 1.093169 1_555
C23 H39 1.094276 1_555
C23 H63 1.094736 1_555
C23 N79 1.492696 1_555
C24 H16 1.093169 1_555
C24 H40 1.094276 1_555
C24 H64 1.094736 1_555
C24 N79 1.492696 1_555
C25 H17 1.093169 1_555
C25 H41 1.094276 1_555
C25 H65 1.094736 1_555
C25 N77 1.492696 1_555
C26 H18 1.093169 1_555
C26 H42 1.094276 1_555
C26 H66 1.094736 1_555
C26 N76 1.492696 1_555
C27 H19 1.093169 1_555
C27 H43 1.094276 1_555
C27 H67 1.094736 1_555
C27 N78 1.492696 1_555
C28 H20 1.093169 1_555
C28 H44 1.094276 1_555
C28 H68 1.094736 1_555
C28 N78 1.492696 1_555
C29 H21 1.093169 1_555
C29 H45 1.094276 1_555
C29 H69 1.094736 1_555
C29 N77 1.492696 1_555
C30 H22 1.093169 1_555
C30 H46 1.094276 1_555
C30 H70 1.094736 1_555
C30 N79 1.492696 1_555
C31 H23 1.093169 1_555
C31 H47 1.094276 1_555
C31 H71 1.094736 1_555
C31 N76 1.492696 1_555
N0 N48 1.178080 1_555
N0 N24 1.199784 1_555
N1 N49 1.178080 1_554
N1 N25 1.199784 1_555
N2 N50 1.178080 1_556
N2 N26 1.199784 1_555
N3 N51 1.178080 1_555
N4 N52 1.178080 1_555
N5 N53 1.178080 1_455
N10 N58 1.178080 1_565
N10 N34 1.199784 1_555
N11 N59 1.178080 1_555
N11 N35 1.199784 1_555
N12 N60 1.178080 1_555
N12 N36 1.199784 1_555
N13 N61 1.178080 1_556
N13 N37 1.199784 1_555
N14 N62 1.178080 1_554
N14 N38 1.199784 1_555
N15 N63 1.178080 1_555
N15 N39 1.199784 1_555
N16 N64 1.178080 1_555
N16 N40 1.199784 1_555
N17 N65 1.178080 1_655
N17 N41 1.199784 1_555
N18 N66 1.178080 1_455
N18 N42 1.199784 1_555
N19 N67 1.178080 1_555
N19 N43 1.199784 1_555
N20 N68 1.178080 1_555
N20 N44 1.199784 1_555
N21 N69 1.178080 1_565
N21 N45 1.199784 1_555
N22 N70 1.178080 1_545
N22 N46 1.199784 1_555
N23 N71 1.178080 1_555
N23 N47 1.199784 1_555
N24 Ru0 2.079555 1_555
N25 Ru1 2.079555 1_555
N26 Ru2 2.079555 1_566
N27 N3 1.199784 1_555
N27 Ru3 2.079555 1_655
N28 N4 1.199784 1_555
N28 Ru1 2.079555 1_555
N29 N5 1.199784 1_555
N29 Ru3 2.079555 1_555
N30 N6 1.199784 1_555
N30 Ru2 2.079555 1_656
N31 N7 1.199784 1_555
N31 Ru0 2.079555 1_565
N32 N8 1.199784 1_555
N32 Ru3 2.079555 1_555
N33 N9 1.199784 1_555
N33 Ru0 2.079555 1_555
N34 Ru2 2.079555 1_665
N35 Ru1 2.079555 1_556
N36 Ru0 2.079555 1_565
N37 Ru1 2.079555 1_556
N38 Ru2 2.079555 1_655
N39 Ru3 2.079555 1_555
N40 Ru1 2.079555 1_556
N41 Ru3 2.079555 1_655
N42 Ru2 2.079555 1_565
N43 Ru0 2.079555 1_555
N44 Ru3 2.079555 1_655
N45 Ru0 2.079555 1_565
N46 Ru2 2.079555 1_556
N47 Ru1 2.079555 1_555
N48 Na0 2.764106 1_555
N49 Na1 2.764106 1_566
N50 Na2 2.764106 1_555
N51 Na3 2.764106 1_655
N52 Na0 2.764106 1_555
N53 Na2 2.764106 1_656
N54 N6 1.178080 1_455
N54 Na3 2.764106 1_555
N55 N7 1.178080 1_555
N55 Na1 2.764106 1_565
N56 N8 1.178080 1_555
N56 Na0 2.764106 1_555
N57 N9 1.178080 1_565
N57 Na3 2.764106 1_665
N58 Na1 2.764106 1_555
N59 Na2 2.764106 1_556
N60 Na0 2.764106 1_555
N61 Na1 2.764106 1_555
N62 Na2 2.764106 1_656
N63 Na3 2.764106 1_565
N64 Na0 2.764106 1_555
N65 Na2 2.764106 1_555
N66 Na3 2.764106 1_665
N67 Na1 2.764106 1_556
N68 Na0 2.764106 1_555
N69 Na3 2.764106 1_555
N70 Na1 2.764106 1_566
N71 Na2 2.764106 1_655
