# generated using pymatgen
data_Li3Ti2(NiO4)2
_symmetry_space_group_name_H-M   'P 1'
_cell_length_a   5.84864858
_cell_length_b   8.60734610
_cell_length_c   5.87202399
_cell_angle_alpha   89.37977751
_cell_angle_beta   90.03727138
_cell_angle_gamma   89.97744922
_symmetry_Int_Tables_number   1
_chemical_formula_structural   Li3Ti2(NiO4)2
_chemical_formula_sum   'Li6 Ti4 Ni4 O16'
_cell_volume   295.58816612
_cell_formula_units_Z   2
loop_
 _symmetry_equiv_pos_site_id
 _symmetry_equiv_pos_as_xyz
  1  'x, y, z'
loop_
 _atom_site_type_symbol
 _atom_site_label
 _atom_site_symmetry_multiplicity
 _atom_site_fract_x
 _atom_site_fract_y
 _atom_site_fract_z
 _atom_site_occupancy
  Li  Li0  1  0.74999200  0.24999600  0.24998200  1
  Li  Li1  1  0.25001100  0.74999500  0.74999300  1
  Li  Li2  1  0.50011300  0.00060700  0.50049500  1
  Li  Li3  1  0.99988300  0.49939600  0.99950700  1
  Li  Li4  1  0.75000300  0.24999300  0.75000800  1
  Li  Li5  1  0.24998400  0.75000100  0.25000600  1
  Ti  Ti0  1  0.00096800  0.99996600  0.99939400  1
  Ti  Ti1  1  0.49900300  0.50003600  0.50062600  1
  Ti  Ti2  1  0.99898000  0.49978500  0.49915100  1
  Ti  Ti3  1  0.50105900  0.00019000  0.00086900  1
  Ni  Ni0  1  0.74995900  0.74989800  0.74963800  1
  Ni  Ni1  1  0.75012900  0.75001600  0.25016100  1
  Ni  Ni2  1  0.25030600  0.25002800  0.75000500  1
  Ni  Ni3  1  0.24983000  0.24991500  0.24984700  1
  O  O0  1  0.51555000  0.73420500  0.48607100  1
  O  O1  1  0.01552700  0.23480100  0.98611800  1
  O  O2  1  0.98439500  0.76593100  0.01393600  1
  O  O3  1  0.48445800  0.26523500  0.51387300  1
  O  O4  1  0.01992000  0.27120000  0.51669100  1
  O  O5  1  0.51968300  0.77131700  0.01724500  1
  O  O6  1  0.48009800  0.22883100  0.98361300  1
  O  O7  1  0.98027000  0.72867900  0.48284900  1
  O  O8  1  0.74775900  0.99790100  0.77480000  1
  O  O9  1  0.24792000  0.49781500  0.27462800  1
  O  O10  1  0.75218300  0.50209600  0.72522800  1
  O  O11  1  0.25208700  0.00215600  0.22526400  1
  O  O12  1  0.24817500  0.50900900  0.72451100  1
  O  O13  1  0.74817200  0.00896400  0.22505400  1
  O  O14  1  0.25178800  0.99101400  0.77545100  1
  O  O15  1  0.75179500  0.49102600  0.27498800  1
loop_
_geom_bond_atom_site_label_1
_geom_bond_atom_site_label_2
_geom_bond_distance
_geom_bond_site_symmetry_2
Li0 O13 2.081414 1_555
Li0 O15 2.081434 1_555
Li0 O1 2.199324 1_654
Li0 O3 2.199457 1_555
Li0 O6 2.230374 1_554
Li0 O4 2.231946 1_655
Li1 O12 2.081286 1_555
Li1 O14 2.081556 1_555
Li1 O0 2.199929 1_555
Li1 O2 2.200421 1_456
Li1 O7 2.233054 1_455
Li1 O5 2.233220 1_556
Li2 O8 2.165399 1_545
Li2 O11 2.170926 1_555
Li2 O14 2.173294 1_545
Li2 O13 2.174077 1_555
Li2 O3 2.281753 1_555
Li2 O0 2.297236 1_545
Li3 O10 2.165496 1_555
Li3 O9 2.170488 1_656
Li3 O12 2.173345 1_655
Li3 O15 2.174368 1_556
Li3 O1 2.281469 1_655
Li3 O2 2.298392 1_556
Li4 O1 2.084254 1_655
Li4 O3 2.084466 1_555
Li4 O4 2.097641 1_655
Li4 O6 2.098662 1_555
Li4 O8 2.173194 1_545
Li4 O10 2.173282 1_555
Li5 O0 2.084555 1_555
Li5 O2 2.084741 1_455
Li5 O5 2.094626 1_555
Li5 O7 2.095011 1_455
Li5 O11 2.173713 1_565
Li5 O9 2.173939 1_555
Ni0 O0 2.072443 1_555
Ni0 O2 2.075973 1_556
Ni0 O7 2.076233 1_555
Ni0 O5 2.079899 1_556
Ni0 O10 2.139311 1_555
Ni0 O8 2.141384 1_555
Ni1 O7 1.924675 1_555
Ni1 O5 1.926843 1_555
Ni1 O0 1.954055 1_555
Ni1 O2 1.954137 1_555
Ni1 O13 2.232157 1_565
Ni1 O15 2.232420 1_555
Ni2 O6 1.926978 1_555
Ni2 O4 1.928158 1_555
Ni2 O3 1.952909 1_555
Ni2 O1 1.955416 1_555
Ni2 O12 2.232572 1_555
Ni2 O14 2.232823 1_545
Ni3 O1 2.072383 1_554
Ni3 O6 2.073496 1_554
Ni3 O4 2.075010 1_555
Ni3 O3 2.075070 1_555
Ni3 O11 2.139022 1_555
Ni3 O9 2.140313 1_555
O0 Ti1 2.018822 1_555
O1 Ti0 2.023793 1_545
O2 Ti0 2.017676 1_654
O3 Ti1 2.023493 1_555
O4 Ti2 1.972843 1_455
O5 Ti3 1.974256 1_565
O6 Ti3 1.973263 1_556
O7 Ti2 1.974447 1_555
O8 Ti3 1.961500 1_566
O8 Ti0 1.982611 1_655
O9 Ti2 1.965011 1_455
O9 Ti1 1.978885 1_555
O10 Ti2 1.961953 1_555
O10 Ti1 1.982515 1_555
O11 Ti3 1.964644 1_555
O11 Ti0 1.978533 1_544
O12 Ti2 1.970154 1_455
O12 Ti1 1.972565 1_555
O13 Ti3 1.956337 1_555
O13 Ti0 1.988096 1_644
O14 Ti3 1.970691 1_566
O14 Ti0 1.972749 1_555
O15 Ti2 1.956555 1_555
O15 Ti1 1.987997 1_555
