# generated using pymatgen
data_TiAl3
_symmetry_space_group_name_H-M   'P 1'
_cell_length_a   5.67935400
_cell_length_b   9.36252800
_cell_length_c   9.80148400
_cell_angle_alpha   90.00000000
_cell_angle_beta   90.00000000
_cell_angle_gamma   90.00000000
_symmetry_Int_Tables_number   1
_chemical_formula_structural   TiAl3
_chemical_formula_sum   'Ti8 Al24'
_cell_volume   521.17539520
_cell_formula_units_Z   8
loop_
 _symmetry_equiv_pos_site_id
 _symmetry_equiv_pos_as_xyz
  1  'x, y, z'
loop_
 _atom_site_type_symbol
 _atom_site_label
 _atom_site_symmetry_multiplicity
 _atom_site_fract_x
 _atom_site_fract_y
 _atom_site_fract_z
 _atom_site_occupancy
  Ti  Ti0_0  1  0.00000000  0.25000000  0.08295800  1
  Ti  Ti0_1  1  0.00000000  0.25000000  0.58295800  1
  Ti  Ti0_2  1  0.00000000  0.75000000  0.08295800  1
  Ti  Ti0_3  1  0.00000000  0.75000000  0.58295800  1
  Ti  Ti0_4  1  0.50000000  0.25000000  0.08295800  1
  Ti  Ti0_5  1  0.50000000  0.25000000  0.58295800  1
  Ti  Ti0_6  1  0.50000000  0.75000000  0.08295800  1
  Ti  Ti0_7  1  0.50000000  0.75000000  0.58295800  1
  Al  Al0_0  1  0.25000000  0.25000000  0.33363550  1
  Al  Al0_1  1  0.25000000  0.25000000  0.83363550  1
  Al  Al0_2  1  0.25000000  0.75000000  0.33363550  1
  Al  Al0_3  1  0.25000000  0.75000000  0.83363550  1
  Al  Al0_4  1  0.75000000  0.25000000  0.33363550  1
  Al  Al0_5  1  0.75000000  0.25000000  0.83363550  1
  Al  Al0_6  1  0.75000000  0.75000000  0.33363550  1
  Al  Al0_7  1  0.75000000  0.75000000  0.83363550  1
  Al  Al1_0  1  0.25000000  0.00000000  0.16545600  1
  Al  Al1_1  1  0.25000000  0.00000000  0.66545600  1
  Al  Al1_2  1  0.25000000  0.50000000  0.16545600  1
  Al  Al1_3  1  0.25000000  0.50000000  0.66545600  1
  Al  Al1_4  1  0.75000000  0.00000000  0.16545600  1
  Al  Al1_5  1  0.75000000  0.00000000  0.66545600  1
  Al  Al1_6  1  0.75000000  0.50000000  0.16545600  1
  Al  Al1_7  1  0.75000000  0.50000000  0.66545600  1
  Al  Al2_0  1  0.00000000  0.00000000  0.41795000  1
  Al  Al2_1  1  0.00000000  0.00000000  0.91795000  1
  Al  Al2_2  1  0.00000000  0.50000000  0.41795000  1
  Al  Al2_3  1  0.00000000  0.50000000  0.91795000  1
  Al  Al2_4  1  0.50000000  0.00000000  0.41795000  1
  Al  Al2_5  1  0.50000000  0.00000000  0.91795000  1
  Al  Al2_6  1  0.50000000  0.50000000  0.41795000  1
  Al  Al2_7  1  0.50000000  0.50000000  0.91795000  1
loop_
_geom_bond_atom_site_label_1
_geom_bond_atom_site_label_2
_geom_bond_distance
_geom_bond_site_symmetry_2
Ti0_0 Ti0_4 2.839677 1_455
Ti0_0 Ti0_4 2.839677 1_555
Ti0_1 Ti0_5 2.839677 1_555
Ti0_1 Ti0_5 2.839677 1_455
Ti0_2 Ti0_6 2.839677 1_455
Ti0_2 Ti0_6 2.839677 1_555
Ti0_3 Ti0_7 2.839677 1_455
Ti0_3 Ti0_7 2.839677 1_555
Al0_0 Ti0_1 2.826263 1_555
Al0_0 Ti0_5 2.826263 1_555
Al0_0 Ti0_0 2.837754 1_555
Al0_0 Ti0_4 2.837754 1_555
Al0_0 Al0_4 2.839677 1_555
Al0_0 Al0_4 2.839677 1_455
Al0_0 Al2_2 2.859624 1_555
Al0_0 Al2_6 2.859624 1_555
Al0_0 Al2_4 2.859624 1_555
Al0_0 Al2_0 2.859624 1_555
Al0_0 Al1_2 2.862832 1_555
Al0_0 Al1_0 2.862832 1_555
Al0_1 Ti0_4 2.826263 1_556
Al0_1 Ti0_0 2.826263 1_556
Al0_1 Ti0_5 2.837754 1_555
Al0_1 Ti0_1 2.837754 1_555
Al0_1 Al0_5 2.839677 1_455
Al0_1 Al0_5 2.839677 1_555
Al0_1 Al2_5 2.859624 1_555
Al0_1 Al2_7 2.859624 1_555
Al0_1 Al2_1 2.859624 1_555
Al0_1 Al2_3 2.859624 1_555
Al0_1 Al1_3 2.862832 1_555
Al0_1 Al1_1 2.862832 1_555
Al0_2 Ti0_3 2.826263 1_555
Al0_2 Ti0_7 2.826263 1_555
Al0_2 Ti0_6 2.837754 1_555
Al0_2 Ti0_2 2.837754 1_555
Al0_2 Al0_6 2.839677 1_555
Al0_2 Al0_6 2.839677 1_455
Al0_2 Al2_0 2.859624 1_565
Al0_2 Al2_4 2.859624 1_565
Al0_2 Al2_2 2.859624 1_555
Al0_2 Al2_6 2.859624 1_555
Al0_2 Al1_0 2.862832 1_565
Al0_2 Al1_2 2.862832 1_555
Al0_3 Ti0_2 2.826263 1_556
Al0_3 Ti0_6 2.826263 1_556
Al0_3 Ti0_3 2.837754 1_555
Al0_3 Ti0_7 2.837754 1_555
Al0_3 Al0_7 2.839677 1_455
Al0_3 Al0_7 2.839677 1_555
Al0_3 Al2_1 2.859624 1_565
Al0_3 Al2_5 2.859624 1_565
Al0_3 Al2_3 2.859624 1_555
Al0_3 Al2_7 2.859624 1_555
Al0_3 Al1_1 2.862832 1_565
Al0_3 Al1_3 2.862832 1_555
Al0_4 Ti0_1 2.826263 1_655
Al0_4 Ti0_5 2.826263 1_555
Al0_4 Ti0_4 2.837754 1_555
Al0_4 Ti0_0 2.837754 1_655
Al0_4 Al2_0 2.859624 1_655
Al0_4 Al2_6 2.859624 1_555
Al0_4 Al2_4 2.859624 1_555
Al0_4 Al2_2 2.859624 1_655
Al0_4 Al1_4 2.862832 1_555
Al0_4 Al1_6 2.862832 1_555
Al0_5 Ti0_4 2.826263 1_556
Al0_5 Ti0_0 2.826263 1_656
Al0_5 Ti0_1 2.837754 1_655
Al0_5 Ti0_5 2.837754 1_555
Al0_5 Al2_5 2.859624 1_555
Al0_5 Al2_7 2.859624 1_555
Al0_5 Al2_1 2.859624 1_655
Al0_5 Al2_3 2.859624 1_655
Al0_5 Al1_7 2.862832 1_555
Al0_5 Al1_5 2.862832 1_555
Al0_6 Ti0_7 2.826263 1_555
Al0_6 Ti0_3 2.826263 1_655
Al0_6 Ti0_2 2.837754 1_655
Al0_6 Ti0_6 2.837754 1_555
Al0_6 Al2_0 2.859624 1_665
Al0_6 Al2_4 2.859624 1_565
Al0_6 Al2_2 2.859624 1_655
Al0_6 Al2_6 2.859624 1_555
Al0_6 Al1_4 2.862832 1_565
Al0_6 Al1_6 2.862832 1_555
Al0_7 Ti0_2 2.826263 1_656
Al0_7 Ti0_6 2.826263 1_556
Al0_7 Ti0_7 2.837754 1_555
Al0_7 Ti0_3 2.837754 1_655
Al0_7 Al2_1 2.859624 1_665
Al0_7 Al2_5 2.859624 1_565
Al0_7 Al2_3 2.859624 1_655
Al0_7 Al2_7 2.859624 1_555
Al0_7 Al1_5 2.862832 1_565
Al0_7 Al1_7 2.862832 1_555
Al1_0 Al2_1 2.810882 1_554
Al1_0 Al2_5 2.810882 1_554
Al1_0 Al1_4 2.839677 1_455
Al1_0 Al1_4 2.839677 1_555
Al1_0 Al2_4 2.853183 1_555
Al1_0 Al2_0 2.853183 1_555
Al1_0 Ti0_2 2.854529 1_545
Al1_0 Ti0_6 2.854529 1_545
Al1_0 Ti0_0 2.854529 1_555
Al1_0 Ti0_4 2.854529 1_555
Al1_1 Al2_0 2.810882 1_555
Al1_1 Al2_4 2.810882 1_555
Al1_1 Al1_5 2.839677 1_555
Al1_1 Al1_5 2.839677 1_455
Al1_1 Al2_5 2.853183 1_555
Al1_1 Al2_1 2.853183 1_555
Al1_1 Ti0_3 2.854529 1_545
Al1_1 Ti0_7 2.854529 1_545
Al1_1 Ti0_5 2.854529 1_555
Al1_1 Ti0_1 2.854529 1_555
Al1_2 Al2_7 2.810882 1_554
Al1_2 Al2_3 2.810882 1_554
Al1_2 Al1_6 2.839677 1_455
Al1_2 Al1_6 2.839677 1_555
Al1_2 Al2_6 2.853183 1_555
Al1_2 Al2_2 2.853183 1_555
Al1_2 Ti0_0 2.854529 1_555
Al1_2 Ti0_4 2.854529 1_555
Al1_2 Ti0_6 2.854529 1_555
Al1_2 Ti0_2 2.854529 1_555
Al1_3 Al2_2 2.810882 1_555
Al1_3 Al2_6 2.810882 1_555
Al1_3 Al1_7 2.839677 1_555
Al1_3 Al1_7 2.839677 1_455
Al1_3 Al2_3 2.853183 1_555
Al1_3 Al2_7 2.853183 1_555
Al1_3 Ti0_1 2.854529 1_555
Al1_3 Ti0_5 2.854529 1_555
Al1_3 Ti0_3 2.854529 1_555
Al1_3 Ti0_7 2.854529 1_555
Al1_4 Al2_5 2.810882 1_554
Al1_4 Al2_1 2.810882 1_654
Al1_4 Al2_4 2.853183 1_555
Al1_4 Al2_0 2.853183 1_655
Al1_4 Ti0_6 2.854529 1_545
Al1_4 Ti0_2 2.854529 1_645
Al1_4 Ti0_4 2.854529 1_555
Al1_4 Ti0_0 2.854529 1_655
Al1_5 Al2_4 2.810882 1_555
Al1_5 Al2_0 2.810882 1_655
Al1_5 Al2_1 2.853183 1_655
Al1_5 Al2_5 2.853183 1_555
Al1_5 Ti0_3 2.854529 1_645
Al1_5 Ti0_7 2.854529 1_545
Al1_5 Ti0_1 2.854529 1_655
Al1_5 Ti0_5 2.854529 1_555
Al1_6 Al2_7 2.810882 1_554
Al1_6 Al2_3 2.810882 1_654
Al1_6 Al2_2 2.853183 1_655
Al1_6 Al2_6 2.853183 1_555
Al1_6 Ti0_4 2.854529 1_555
Al1_6 Ti0_0 2.854529 1_655
Al1_6 Ti0_2 2.854529 1_655
Al1_6 Ti0_6 2.854529 1_555
Al1_7 Al2_2 2.810882 1_655
Al1_7 Al2_6 2.810882 1_555
Al1_7 Al2_3 2.853183 1_655
Al1_7 Al2_7 2.853183 1_555
Al1_7 Ti0_1 2.854529 1_655
Al1_7 Ti0_5 2.854529 1_555
Al1_7 Ti0_7 2.854529 1_555
Al1_7 Ti0_3 2.854529 1_655
Al2_0 Al2_4 2.839677 1_455
Al2_0 Al2_4 2.839677 1_555
Al2_0 Ti0_3 2.845047 1_545
Al2_0 Ti0_1 2.845047 1_555
Al2_1 Al2_5 2.839677 1_455
Al2_1 Al2_5 2.839677 1_555
Al2_1 Ti0_2 2.845047 1_546
Al2_1 Ti0_0 2.845047 1_556
Al2_2 Al2_6 2.839677 1_455
Al2_2 Al2_6 2.839677 1_555
Al2_2 Ti0_1 2.845047 1_555
Al2_2 Ti0_3 2.845047 1_555
Al2_3 Al2_7 2.839677 1_455
Al2_3 Al2_7 2.839677 1_555
Al2_3 Ti0_0 2.845047 1_556
Al2_3 Ti0_2 2.845047 1_556
Al2_4 Ti0_7 2.845047 1_545
Al2_4 Ti0_5 2.845047 1_555
Al2_5 Ti0_6 2.845047 1_546
Al2_5 Ti0_4 2.845047 1_556
Al2_6 Ti0_5 2.845047 1_555
Al2_6 Ti0_7 2.845047 1_555
Al2_7 Ti0_4 2.845047 1_556
Al2_7 Ti0_6 2.845047 1_556
