# generated using pymatgen
data_Er6Ti4Al43
_symmetry_space_group_name_H-M   'P 1'
_cell_length_a   11.08012635
_cell_length_b   11.08012635
_cell_length_c   17.72985000
_cell_angle_alpha   90.00000000
_cell_angle_beta   90.00000000
_cell_angle_gamma   120.00000210
_symmetry_Int_Tables_number   1
_chemical_formula_structural   Er6Ti4Al43
_chemical_formula_sum   'Er12 Ti8 Al86'
_cell_volume   1885.05970323
_cell_formula_units_Z   2
loop_
 _symmetry_equiv_pos_site_id
 _symmetry_equiv_pos_as_xyz
  1  'x, y, z'
loop_
 _atom_site_type_symbol
 _atom_site_label
 _atom_site_symmetry_multiplicity
 _atom_site_fract_x
 _atom_site_fract_y
 _atom_site_fract_z
 _atom_site_occupancy
  Er  Er0  1  0.53114100  0.00000000  0.59628200  1
  Er  Er1  1  0.46885900  0.00000000  0.40371800  1
  Er  Er2  1  0.00000000  0.53114100  0.59628200  1
  Er  Er3  1  0.46885900  0.00000000  0.09628200  1
  Er  Er4  1  0.00000000  0.53114100  0.90371800  1
  Er  Er5  1  0.00000000  0.46885900  0.40371800  1
  Er  Er6  1  0.53114100  0.00000000  0.90371800  1
  Er  Er7  1  0.00000000  0.46885900  0.09628200  1
  Er  Er8  1  0.46885900  0.46885900  0.59628200  1
  Er  Er9  1  0.53114100  0.53114100  0.40371800  1
  Er  Er10  1  0.53114100  0.53114100  0.09628200  1
  Er  Er11  1  0.46885900  0.46885900  0.90371800  1
  Ti  Ti0  1  0.00000000  0.00000000  0.50000000  1
  Ti  Ti1  1  0.00000000  0.00000000  0.00000000  1
  Ti  Ti2  1  0.72816400  0.00000000  0.75000000  1
  Ti  Ti3  1  0.27183600  0.00000000  0.25000000  1
  Ti  Ti4  1  0.00000000  0.72816400  0.75000000  1
  Ti  Ti5  1  0.00000000  0.27183600  0.25000000  1
  Ti  Ti6  1  0.27183600  0.27183600  0.75000000  1
  Ti  Ti7  1  0.72816400  0.72816400  0.25000000  1
  Al  Al0  1  0.14866700  0.59688900  0.75000000  1
  Al  Al1  1  0.85133300  0.40311100  0.25000000  1
  Al  Al2  1  0.40311100  0.55177800  0.75000000  1
  Al  Al3  1  0.59688900  0.14866700  0.75000000  1
  Al  Al4  1  0.59688900  0.44822200  0.25000000  1
  Al  Al5  1  0.40311100  0.85133300  0.25000000  1
  Al  Al6  1  0.44822200  0.85133300  0.75000000  1
  Al  Al7  1  0.55177800  0.40311100  0.75000000  1
  Al  Al8  1  0.55177800  0.14866700  0.25000000  1
  Al  Al9  1  0.44822200  0.59688900  0.25000000  1
  Al  Al10  1  0.85133300  0.44822200  0.75000000  1
  Al  Al11  1  0.14866700  0.55177800  0.25000000  1
  Al  Al12  1  0.15828900  0.00000000  0.11537700  1
  Al  Al13  1  0.84171100  0.00000000  0.88462300  1
  Al  Al14  1  0.00000000  0.15828900  0.11537700  1
  Al  Al15  1  0.84171100  0.00000000  0.61537700  1
  Al  Al16  1  0.00000000  0.15828900  0.38462300  1
  Al  Al17  1  0.00000000  0.84171100  0.88462300  1
  Al  Al18  1  0.15828900  0.00000000  0.38462300  1
  Al  Al19  1  0.00000000  0.84171100  0.61537700  1
  Al  Al20  1  0.84171100  0.84171100  0.11537700  1
  Al  Al21  1  0.15828900  0.15828900  0.88462300  1
  Al  Al22  1  0.15828900  0.15828900  0.61537700  1
  Al  Al23  1  0.84171100  0.84171100  0.38462300  1
  Al  Al24  1  0.24738700  0.49477400  0.50000000  1
  Al  Al25  1  0.75261300  0.50522600  0.50000000  1
  Al  Al26  1  0.50522600  0.75261300  0.50000000  1
  Al  Al27  1  0.75261300  0.50522600  0.00000000  1
  Al  Al28  1  0.49477400  0.24738700  0.00000000  1
  Al  Al29  1  0.49477400  0.24738700  0.50000000  1
  Al  Al30  1  0.24738700  0.49477400  0.00000000  1
  Al  Al31  1  0.50522600  0.75261300  0.00000000  1
  Al  Al32  1  0.24738700  0.75261300  0.50000000  1
  Al  Al33  1  0.75261300  0.24738700  0.50000000  1
  Al  Al34  1  0.75261300  0.24738700  0.00000000  1
  Al  Al35  1  0.24738700  0.75261300  0.00000000  1
  Al  Al36  1  0.14684500  0.00000000  0.75000000  1
  Al  Al37  1  0.85315500  0.00000000  0.25000000  1
  Al  Al38  1  0.00000000  0.14684500  0.75000000  1
  Al  Al39  1  0.00000000  0.85315500  0.25000000  1
  Al  Al40  1  0.85315500  0.85315500  0.75000000  1
  Al  Al41  1  0.14684500  0.14684500  0.25000000  1
  Al  Al42  1  0.33333300  0.66666700  0.62611300  1
  Al  Al43  1  0.66666700  0.33333300  0.37388700  1
  Al  Al44  1  0.66666700  0.33333300  0.12611300  1
  Al  Al45  1  0.66666700  0.33333300  0.87388700  1
  Al  Al46  1  0.33333300  0.66666700  0.87388700  1
  Al  Al47  1  0.33333300  0.66666700  0.12611300  1
  Al  Al48  1  0.33333300  0.66666700  0.37388700  1
  Al  Al49  1  0.66666700  0.33333300  0.62611300  1
  Al  Al50  1  0.25462100  0.00000000  0.52951900  1
  Al  Al51  1  0.74537900  0.00000000  0.47048100  1
  Al  Al52  1  0.00000000  0.25462100  0.52951900  1
  Al  Al53  1  0.74537900  0.00000000  0.02951900  1
  Al  Al54  1  0.00000000  0.25462100  0.97048100  1
  Al  Al55  1  0.00000000  0.74537900  0.47048100  1
  Al  Al56  1  0.25462100  0.00000000  0.97048100  1
  Al  Al57  1  0.00000000  0.74537900  0.02951900  1
  Al  Al58  1  0.74537900  0.74537900  0.52951900  1
  Al  Al59  1  0.25462100  0.25462100  0.47048100  1
  Al  Al60  1  0.25462100  0.25462100  0.02951900  1
  Al  Al61  1  0.74537900  0.74537900  0.97048100  1
  Al  Al62  1  0.15849300  0.39390200  0.66423800  1
  Al  Al63  1  0.84150700  0.60609800  0.33576200  1
  Al  Al64  1  0.60609800  0.76459100  0.66423800  1
  Al  Al65  1  0.84150700  0.60609800  0.16423800  1
  Al  Al66  1  0.39390200  0.15849300  0.83576200  1
  Al  Al67  1  0.39390200  0.23540900  0.33576200  1
  Al  Al68  1  0.15849300  0.39390200  0.83576200  1
  Al  Al69  1  0.60609800  0.84150700  0.16423800  1
  Al  Al70  1  0.23540900  0.84150700  0.66423800  1
  Al  Al71  1  0.39390200  0.23540900  0.16423800  1
  Al  Al72  1  0.76459100  0.60609800  0.83576200  1
  Al  Al73  1  0.76459100  0.15849300  0.33576200  1
  Al  Al74  1  0.60609800  0.76459100  0.83576200  1
  Al  Al75  1  0.23540900  0.39390200  0.16423800  1
  Al  Al76  1  0.60609800  0.84150700  0.33576200  1
  Al  Al77  1  0.39390200  0.15849300  0.66423800  1
  Al  Al78  1  0.76459100  0.15849300  0.16423800  1
  Al  Al79  1  0.23540900  0.39390200  0.33576200  1
  Al  Al80  1  0.23540900  0.84150700  0.83576200  1
  Al  Al81  1  0.76459100  0.60609800  0.66423800  1
  Al  Al82  1  0.84150700  0.23540900  0.83576200  1
  Al  Al83  1  0.15849300  0.76459100  0.16423800  1
  Al  Al84  1  0.15849300  0.76459100  0.33576200  1
  Al  Al85  1  0.84150700  0.23540900  0.66423800  1
loop_
_geom_bond_atom_site_label_1
_geom_bond_atom_site_label_2
_geom_bond_distance
_geom_bond_site_symmetry_2
Er0 Er1 3.483176 1_555
Er0 Ti2 3.491912 1_555
Er1 Ti3 3.491912 1_555
Er2 Er5 3.483176 1_555
Er2 Ti4 3.491912 1_555
Er3 Er6 3.483176 1_554
Er3 Ti3 3.491912 1_555
Er4 Er7 3.483176 1_556
Er4 Ti4 3.491912 1_555
Er5 Ti5 3.491912 1_555
Er6 Ti2 3.491912 1_555
Er7 Ti5 3.491912 1_555
Er8 Er9 3.483176 1_555
Er8 Ti6 3.491912 1_555
Er9 Ti7 3.491912 1_555
Er10 Er11 3.483176 1_554
Er10 Ti7 3.491912 1_555
Er11 Ti6 3.491912 1_555
Al0 Ti4 2.687959 1_555
Al0 Al68 2.761763 1_555
Al0 Al62 2.761763 1_555
Al0 Al70 2.824369 1_555
Al0 Al80 2.824369 1_555
Al0 Al42 2.833200 1_555
Al0 Al46 2.833200 1_555
Al0 Al10 2.853119 1_455
Al0 Er4 3.077647 1_555
Al0 Er2 3.077647 1_555
Al1 Ti5 2.687959 1_655
Al1 Al65 2.761763 1_555
Al1 Al63 2.761763 1_555
Al1 Al73 2.824369 1_555
Al1 Al78 2.824369 1_555
Al1 Al44 2.833200 1_555
Al1 Al43 2.833200 1_555
Al1 Al11 2.853119 1_655
Al1 Er7 3.077647 1_655
Al1 Er5 3.077647 1_655
Al2 Ti6 2.687959 1_555
Al2 Al74 2.761763 1_555
Al2 Al64 2.761763 1_555
Al2 Al68 2.824369 1_555
Al2 Al62 2.824369 1_555
Al2 Al42 2.833207 1_555
Al2 Al46 2.833207 1_555
Al2 Al7 2.853119 1_555
Al2 Er11 3.077647 1_555
Al2 Er8 3.077647 1_555
Al3 Ti2 2.687959 1_555
Al3 Al77 2.761763 1_555
Al3 Al66 2.761763 1_555
Al3 Al85 2.824369 1_555
Al3 Al82 2.824369 1_555
Al3 Al49 2.833200 1_555
Al3 Al45 2.833200 1_555
Al3 Al6 2.853119 1_545
Al3 Er6 3.077647 1_555
Al3 Er0 3.077647 1_555
Al4 Ti7 2.687959 1_555
Al4 Al67 2.761763 1_555
Al4 Al71 2.761763 1_555
Al4 Al65 2.824369 1_555
Al4 Al63 2.824369 1_555
Al4 Al44 2.833207 1_555
Al4 Al43 2.833207 1_555
Al4 Al9 2.853119 1_555
Al4 Er10 3.077647 1_555
Al4 Er9 3.077647 1_555
Al5 Ti3 2.687959 1_565
Al5 Al69 2.761763 1_555
Al5 Al76 2.761763 1_555
Al5 Al84 2.824369 1_555
Al5 Al83 2.824369 1_555
Al5 Al8 2.853119 1_565
Al5 Er3 3.077647 1_565
Al5 Er1 3.077647 1_565
Al6 Ti2 2.687959 1_565
Al6 Al80 2.761763 1_555
Al6 Al70 2.761763 1_555
Al6 Al74 2.824370 1_555
Al6 Al64 2.824370 1_555
Al6 Er0 3.077647 1_565
Al6 Er6 3.077647 1_565
Al7 Ti6 2.687959 1_555
Al7 Al81 2.761763 1_555
Al7 Al72 2.761763 1_555
Al7 Al77 2.824369 1_555
Al7 Er11 3.077647 1_555
Al7 Er8 3.077647 1_555
Al8 Ti3 2.687959 1_555
Al8 Er3 3.077647 1_555
Al8 Er1 3.077647 1_555
Al9 Ti7 2.687959 1_555
Al9 Er10 3.077647 1_555
Al9 Er9 3.077647 1_555
Al10 Ti4 2.687959 1_655
Al10 Al85 2.761763 1_555
Al10 Al82 2.761763 1_555
Al10 Al81 2.824370 1_555
Al10 Al72 2.824370 1_555
Al10 Al49 2.833201 1_555
Al10 Al45 2.833201 1_555
Al10 Er4 3.077647 1_655
Al10 Er2 3.077647 1_655
Al11 Ti5 2.687959 1_555
Al11 Al83 2.761763 1_555
Al11 Al84 2.761763 1_555
Al11 Al75 2.824370 1_555
Al11 Al79 2.824370 1_555
Al11 Al47 2.833201 1_555
Al11 Al48 2.833201 1_555
Al11 Er5 3.077647 1_555
Al11 Er7 3.077647 1_555
Al12 Ti1 2.694547 1_555
Al12 Ti3 2.698126 1_555
Al12 Al71 2.749531 1_555
Al12 Al83 2.749531 1_545
Al12 Al56 2.781899 1_554
Al12 Al57 2.899065 1_545
Al12 Al60 2.899065 1_555
Al12 Al39 2.926901 1_545
Al12 Al41 2.926901 1_555
Al12 Al20 3.037778 1_445
Al12 Al14 3.037778 1_555
Al12 Er3 3.457769 1_555
Al13 Ti1 2.694547 1_656
Al13 Ti2 2.698126 1_555
Al13 Al74 2.749531 1_545
Al13 Al82 2.749531 1_555
Al13 Al53 2.781899 1_556
Al13 Al54 2.899065 1_655
Al13 Al61 2.899065 1_545
Al13 Al38 2.926901 1_655
Al13 Al40 2.926901 1_545
Al13 Al21 3.037778 1_655
Al13 Al17 3.037778 1_645
Al13 Er6 3.457769 1_555
Al14 Ti1 2.694547 1_555
Al14 Ti5 2.698126 1_555
Al14 Al75 2.749531 1_555
Al14 Al78 2.749531 1_455
Al14 Al54 2.781899 1_554
Al14 Al53 2.899065 1_455
Al14 Al60 2.899065 1_555
Al14 Al37 2.926901 1_455
Al14 Al41 2.926901 1_555
Al14 Al20 3.037778 1_445
Al14 Er7 3.457769 1_555
Al15 Ti0 2.694547 1_655
Al15 Ti2 2.698126 1_555
Al15 Al64 2.749531 1_545
Al15 Al85 2.749531 1_555
Al15 Al51 2.781899 1_555
Al15 Al52 2.899065 1_655
Al15 Al58 2.899065 1_545
Al15 Al38 2.926901 1_655
Al15 Al40 2.926901 1_545
Al15 Al22 3.037778 1_655
Al15 Al19 3.037778 1_645
Al15 Er0 3.457769 1_555
Al16 Ti0 2.694547 1_555
Al16 Ti5 2.698126 1_555
Al16 Al79 2.749531 1_555
Al16 Al73 2.749531 1_455
Al16 Al52 2.781899 1_555
Al16 Al51 2.899065 1_455
Al16 Al59 2.899065 1_555
Al16 Al37 2.926901 1_455
Al16 Al41 2.926901 1_555
Al16 Al23 3.037778 1_445
Al16 Al18 3.037778 1_555
Al16 Er5 3.457769 1_555
Al17 Ti1 2.694547 1_566
Al17 Ti4 2.698126 1_555
Al17 Al72 2.749531 1_455
Al17 Al80 2.749531 1_555
Al17 Al57 2.781899 1_556
Al17 Al56 2.899065 1_565
Al17 Al61 2.899065 1_455
Al17 Al36 2.926901 1_565
Al17 Al40 2.926901 1_455
Al17 Al21 3.037778 1_565
Al17 Er4 3.457769 1_555
Al18 Ti0 2.694547 1_555
Al18 Ti3 2.698126 1_555
Al18 Al67 2.749531 1_555
Al18 Al84 2.749531 1_545
Al18 Al50 2.781899 1_555
Al18 Al55 2.899065 1_545
Al18 Al59 2.899065 1_555
Al18 Al39 2.926901 1_545
Al18 Al41 2.926901 1_555
Al18 Al23 3.037778 1_445
Al18 Er1 3.457769 1_555
Al19 Ti0 2.694547 1_565
Al19 Ti4 2.698126 1_555
Al19 Al81 2.749531 1_455
Al19 Al70 2.749531 1_555
Al19 Al55 2.781899 1_555
Al19 Al50 2.899065 1_565
Al19 Al58 2.899065 1_455
Al19 Al36 2.926901 1_565
Al19 Al40 2.926901 1_455
Al19 Al22 3.037778 1_565
Al19 Er2 3.457769 1_555
Al20 Ti1 2.694546 1_665
Al20 Ti7 2.698126 1_555
Al20 Al65 2.749531 1_555
Al20 Al69 2.749531 1_555
Al20 Al61 2.781899 1_554
Al20 Al53 2.899065 1_565
Al20 Al57 2.899065 1_655
Al20 Al39 2.926901 1_655
Al20 Al37 2.926901 1_565
Al20 Er10 3.457768 1_555
Al21 Ti1 2.694546 1_556
Al21 Ti6 2.698126 1_555
Al21 Al68 2.749531 1_555
Al21 Al66 2.749531 1_555
Al21 Al60 2.781899 1_556
Al21 Al54 2.899065 1_555
Al21 Al56 2.899065 1_555
Al21 Al36 2.926901 1_555
Al21 Al38 2.926901 1_555
Al21 Er11 3.457768 1_555
Al22 Ti0 2.694546 1_555
Al22 Ti6 2.698126 1_555
Al22 Al77 2.749531 1_555
Al22 Al62 2.749531 1_555
Al22 Al59 2.781899 1_555
Al22 Al50 2.899065 1_555
Al22 Al52 2.899065 1_555
Al22 Al36 2.926901 1_555
Al22 Al38 2.926901 1_555
Al22 Er8 3.457768 1_555
Al23 Ti0 2.694546 1_665
Al23 Ti7 2.698126 1_555
Al23 Al63 2.749531 1_555
Al23 Al76 2.749531 1_555
Al23 Al58 2.781899 1_555
Al23 Al55 2.899065 1_655
Al23 Al51 2.899065 1_565
Al23 Al39 2.926901 1_655
Al23 Al37 2.926901 1_565
Al23 Er9 3.457768 1_555
Al24 Al52 2.752117 1_555
Al24 Al59 2.752117 1_555
Al24 Al48 2.778516 1_555
Al24 Al42 2.778516 1_555
Al24 Al26 2.856889 1_555
Al24 Al32 2.856889 1_555
Al24 Al62 3.098019 1_555
Al24 Al79 3.098019 1_555
Al24 Er5 3.118166 1_555
Al24 Er8 3.118166 1_555
Al24 Er9 3.419719 1_555
Al24 Er2 3.419719 1_555
Al25 Al55 2.752117 1_655
Al25 Al58 2.752117 1_555
Al25 Al43 2.778516 1_555
Al25 Al49 2.778516 1_555
Al25 Al29 2.856889 1_555
Al25 Al33 2.856889 1_555
Al25 Al63 3.098019 1_555
Al25 Al81 3.098019 1_555
Al25 Er2 3.118166 1_655
Al25 Er9 3.118166 1_555
Al25 Er8 3.419719 1_555
Al25 Er5 3.419719 1_655
Al26 Al51 2.752117 1_565
Al26 Al58 2.752117 1_555
Al26 Al48 2.778516 1_555
Al26 Al42 2.778516 1_555
Al26 Al32 2.856889 1_555
Al26 Al76 3.098019 1_555
Al26 Al64 3.098019 1_555
Al26 Er0 3.118166 1_565
Al26 Er9 3.118166 1_555
Al26 Er8 3.419719 1_555
Al26 Er1 3.419719 1_565
Al27 Al57 2.752117 1_655
Al27 Al61 2.752117 1_554
Al27 Al44 2.778516 1_555
Al27 Al45 2.778516 1_554
Al27 Al28 2.856889 1_555
Al27 Al34 2.856889 1_555
Al27 Al65 3.098019 1_555
Al27 Al72 3.098019 1_554
Al27 Er4 3.118166 1_654
Al27 Er10 3.118166 1_555
Al27 Er11 3.419719 1_554
Al27 Er7 3.419719 1_655
Al28 Al56 2.752117 1_554
Al28 Al60 2.752117 1_555
Al28 Al44 2.778516 1_555
Al28 Al45 2.778516 1_554
Al28 Al34 2.856889 1_555
Al28 Al66 3.098019 1_554
Al28 Al71 3.098019 1_555
Al28 Er3 3.118166 1_555
Al28 Er11 3.118166 1_554
Al28 Er10 3.419719 1_555
Al28 Er6 3.419719 1_554
Al29 Al50 2.752117 1_555
Al29 Al59 2.752117 1_555
Al29 Al43 2.778516 1_555
Al29 Al49 2.778516 1_555
Al29 Al33 2.856889 1_555
Al29 Al77 3.098019 1_555
Al29 Al67 3.098019 1_555
Al29 Er1 3.118166 1_555
Al29 Er8 3.118166 1_555
Al29 Er9 3.419719 1_555
Al29 Er0 3.419719 1_555
Al30 Al54 2.752117 1_554
Al30 Al60 2.752117 1_555
Al30 Al47 2.778516 1_555
Al30 Al46 2.778516 1_554
Al30 Al31 2.856889 1_555
Al30 Al35 2.856889 1_555
Al30 Al68 3.098019 1_554
Al30 Al75 3.098019 1_555
Al30 Er7 3.118166 1_555
Al30 Er11 3.118166 1_554
Al30 Er10 3.419719 1_555
Al30 Er4 3.419719 1_554
Al31 Al53 2.752117 1_565
Al31 Al61 2.752117 1_554
Al31 Al47 2.778516 1_555
Al31 Al46 2.778516 1_554
Al31 Al35 2.856889 1_555
Al31 Al69 3.098019 1_555
Al31 Al74 3.098019 1_554
Al31 Er6 3.118166 1_564
Al31 Er10 3.118166 1_555
Al31 Er11 3.419719 1_554
Al31 Er3 3.419719 1_565
Al32 Al55 2.752117 1_555
Al32 Al50 2.752117 1_565
Al32 Al48 2.778511 1_555
Al32 Al42 2.778511 1_555
Al32 Al70 3.098019 1_555
Al32 Al84 3.098019 1_555
Al32 Er1 3.118166 1_565
Al32 Er2 3.118166 1_555
Al32 Er5 3.419719 1_555
Al32 Er0 3.419719 1_565
Al33 Al51 2.752117 1_555
Al33 Al52 2.752117 1_655
Al33 Al43 2.778511 1_555
Al33 Al49 2.778511 1_555
Al33 Al85 3.098019 1_555
Al33 Al73 3.098019 1_555
Al33 Er0 3.118166 1_555
Al33 Er5 3.118166 1_655
Al33 Er2 3.419719 1_655
Al33 Er1 3.419719 1_555
Al34 Al53 2.752117 1_555
Al34 Al54 2.752117 1_654
Al34 Al44 2.778511 1_555
Al34 Al45 2.778511 1_554
Al34 Al82 3.098019 1_554
Al34 Al78 3.098019 1_555
Al34 Er6 3.118166 1_554
Al34 Er7 3.118166 1_655
Al34 Er3 3.419719 1_555
Al34 Er4 3.419719 1_654
Al35 Al56 2.752117 1_564
Al35 Al57 2.752117 1_555
Al35 Al46 2.778511 1_554
Al35 Al47 2.778511 1_555
Al35 Al80 3.098019 1_554
Al35 Al83 3.098019 1_555
Al35 Er3 3.118166 1_565
Al35 Er4 3.118166 1_554
Al35 Er6 3.419719 1_564
Al35 Er7 3.419719 1_555
Al36 Ti4 2.611257 1_545
Al36 Ti6 2.611257 1_555
Al36 Al40 2.818153 1_445
Al36 Al38 2.818153 1_555
Al36 Al66 2.842932 1_555
Al36 Al77 2.842932 1_555
Al36 Al80 2.842932 1_545
Al36 Al70 2.842932 1_545
Al37 Ti5 2.611257 1_655
Al37 Ti7 2.611257 1_545
Al37 Al41 2.818153 1_655
Al37 Al39 2.818153 1_645
Al37 Al76 2.842932 1_545
Al37 Al69 2.842932 1_545
Al37 Al78 2.842932 1_555
Al37 Al73 2.842932 1_555
Al38 Ti2 2.611257 1_455
Al38 Ti6 2.611257 1_555
Al38 Al40 2.818153 1_445
Al38 Al62 2.842932 1_555
Al38 Al68 2.842932 1_555
Al38 Al82 2.842932 1_455
Al38 Al85 2.842932 1_455
Al39 Ti3 2.611257 1_565
Al39 Ti7 2.611257 1_455
Al39 Al41 2.818153 1_565
Al39 Al63 2.842932 1_455
Al39 Al65 2.842932 1_455
Al39 Al84 2.842932 1_555
Al39 Al83 2.842932 1_555
Al40 Ti4 2.611257 1_655
Al40 Ti2 2.611257 1_565
Al40 Al72 2.842932 1_555
Al40 Al81 2.842932 1_555
Al40 Al74 2.842932 1_555
Al40 Al64 2.842932 1_555
Al41 Ti3 2.611257 1_555
Al41 Ti5 2.611257 1_555
Al41 Al71 2.842932 1_555
Al41 Al75 2.842932 1_555
Al41 Al67 2.842932 1_555
Al41 Al79 2.842932 1_555
Al42 Al70 2.736609 1_555
Al42 Al62 2.736617 1_555
Al42 Al64 2.736619 1_555
Al42 Al6 2.833201 1_555
Al42 Er2 3.260296 1_555
Al42 Er0 3.260298 1_565
Al42 Er8 3.260307 1_555
Al43 Al73 2.736609 1_555
Al43 Al63 2.736617 1_555
Al43 Al67 2.736619 1_555
Al43 Al8 2.833201 1_555
Al43 Er5 3.260296 1_655
Al43 Er1 3.260298 1_555
Al43 Er9 3.260307 1_555
Al44 Al78 2.736609 1_555
Al44 Al65 2.736617 1_555
Al44 Al71 2.736619 1_555
Al44 Al8 2.833201 1_555
Al44 Er7 3.260296 1_655
Al44 Er3 3.260298 1_555
Al44 Er10 3.260307 1_555
Al45 Al82 2.736609 1_555
Al45 Al66 2.736617 1_555
Al45 Al72 2.736619 1_555
Al45 Al7 2.833207 1_555
Al45 Er6 3.260296 1_555
Al45 Er4 3.260298 1_655
Al45 Er11 3.260307 1_555
Al46 Al80 2.736609 1_555
Al46 Al68 2.736617 1_555
Al46 Al74 2.736619 1_555
Al46 Al6 2.833201 1_555
Al46 Er4 3.260296 1_555
Al46 Er6 3.260298 1_565
Al46 Er11 3.260307 1_555
Al47 Al83 2.736609 1_555
Al47 Al69 2.736617 1_555
Al47 Al75 2.736619 1_555
Al47 Al5 2.833200 1_555
Al47 Al9 2.833207 1_555
Al47 Er3 3.260296 1_565
Al47 Er7 3.260298 1_555
Al47 Er10 3.260307 1_555
Al48 Al84 2.736609 1_555
Al48 Al76 2.736617 1_555
Al48 Al79 2.736619 1_555
Al48 Al5 2.833200 1_555
Al48 Al9 2.833207 1_555
Al48 Er1 3.260296 1_565
Al48 Er5 3.260298 1_555
Al48 Er9 3.260307 1_555
Al49 Al85 2.736609 1_555
Al49 Al77 2.736617 1_555
Al49 Al81 2.736619 1_555
Al49 Al7 2.833207 1_555
Al49 Er0 3.260296 1_555
Al49 Er2 3.260298 1_655
Al49 Er8 3.260307 1_555
Al50 Ti0 2.869367 1_555
Al50 Al77 2.908713 1_555
Al50 Al70 2.908713 1_545
Al50 Al55 3.009154 1_545
Al50 Al59 3.009154 1_555
Al50 Er1 3.257251 1_555
Al50 Er0 3.284582 1_555
Al51 Ti0 2.869367 1_655
Al51 Al76 2.908713 1_545
Al51 Al73 2.908713 1_555
Al51 Al52 3.009154 1_655
Al51 Al58 3.009154 1_545
Al51 Er0 3.257251 1_555
Al51 Er1 3.284582 1_555
Al52 Ti0 2.869367 1_555
Al52 Al62 2.908713 1_555
Al52 Al85 2.908713 1_455
Al52 Al59 3.009154 1_555
Al52 Er5 3.257251 1_555
Al52 Er2 3.284582 1_555
Al53 Ti1 2.869367 1_655
Al53 Al69 2.908713 1_545
Al53 Al78 2.908713 1_555
Al53 Al54 3.009154 1_654
Al53 Al61 3.009154 1_544
Al53 Er6 3.257251 1_554
Al53 Er3 3.284582 1_555
Al54 Ti1 2.869367 1_556
Al54 Al68 2.908713 1_555
Al54 Al82 2.908713 1_455
Al54 Al60 3.009154 1_556
Al54 Er7 3.257251 1_556
Al54 Er4 3.284582 1_555
Al55 Ti0 2.869367 1_565
Al55 Al63 2.908713 1_455
Al55 Al84 2.908713 1_555
Al55 Al58 3.009154 1_455
Al55 Er2 3.257251 1_555
Al55 Er5 3.284582 1_555
Al56 Ti1 2.869367 1_556
Al56 Al66 2.908713 1_555
Al56 Al80 2.908713 1_545
Al56 Al57 3.009154 1_546
Al56 Al60 3.009154 1_556
Al56 Er3 3.257251 1_556
Al56 Er6 3.284582 1_555
Al57 Ti1 2.869367 1_565
Al57 Al65 2.908713 1_455
Al57 Al83 2.908713 1_555
Al57 Al61 3.009154 1_454
Al57 Er4 3.257251 1_554
Al57 Er7 3.284582 1_555
Al58 Ti0 2.869367 1_665
Al58 Al64 2.908713 1_555
Al58 Al81 2.908713 1_555
Al58 Er9 3.257251 1_555
Al58 Er8 3.284582 1_555
Al59 Ti0 2.869367 1_555
Al59 Al67 2.908713 1_555
Al59 Al79 2.908713 1_555
Al59 Er8 3.257251 1_555
Al59 Er9 3.284582 1_555
Al60 Ti1 2.869367 1_555
Al60 Al71 2.908713 1_555
Al60 Al75 2.908713 1_555
Al60 Er11 3.257251 1_554
Al60 Er10 3.284582 1_555
Al61 Ti1 2.869367 1_666
Al61 Al74 2.908713 1_555
Al61 Al72 2.908713 1_555
Al61 Er10 3.257251 1_556
Al61 Er11 3.284582 1_555
Al62 Ti6 2.723428 1_555
Al62 Al68 3.041095 1_555
Al62 Al85 3.041693 1_455
Al62 Er2 3.085180 1_555
Al62 Er8 3.333366 1_555
Al63 Ti7 2.723428 1_555
Al63 Al65 3.041095 1_555
Al63 Al84 3.041693 1_655
Al63 Er5 3.085180 1_655
Al63 Er9 3.333366 1_555
Al64 Ti2 2.723428 1_565
Al64 Al74 3.041095 1_555
Al64 Al81 3.041693 1_555
Al64 Er8 3.085180 1_555
Al64 Er0 3.333366 1_565
Al65 Ti7 2.723428 1_555
Al65 Al83 3.041693 1_655
Al65 Er7 3.085180 1_655
Al65 Er10 3.333366 1_555
Al66 Ti6 2.723428 1_555
Al66 Al7 2.824369 1_555
Al66 Al77 3.041095 1_555
Al66 Al80 3.041693 1_545
Al66 Er6 3.085180 1_555
Al66 Er11 3.333366 1_555
Al67 Ti3 2.723428 1_555
Al67 Al8 2.824370 1_555
Al67 Al71 3.041095 1_555
Al67 Al79 3.041693 1_555
Al67 Er9 3.085180 1_555
Al67 Er1 3.333366 1_555
Al68 Ti6 2.723428 1_555
Al68 Al82 3.041693 1_455
Al68 Er4 3.085180 1_555
Al68 Er11 3.333366 1_555
Al69 Ti7 2.723428 1_555
Al69 Al9 2.824369 1_555
Al69 Al76 3.041095 1_555
Al69 Al78 3.041693 1_565
Al69 Er3 3.085180 1_565
Al69 Er10 3.333366 1_555
Al70 Ti4 2.723428 1_555
Al70 Al80 3.041095 1_555
Al70 Al77 3.041693 1_565
Al70 Er0 3.085180 1_565
Al70 Er2 3.333366 1_555
Al71 Ti3 2.723428 1_555
Al71 Al8 2.824370 1_555
Al71 Al75 3.041693 1_555
Al71 Er10 3.085180 1_555
Al71 Er3 3.333366 1_555
Al72 Ti4 2.723428 1_655
Al72 Al81 3.041095 1_555
Al72 Al74 3.041693 1_555
Al72 Er11 3.085180 1_555
Al72 Er4 3.333366 1_655
Al73 Ti5 2.723428 1_655
Al73 Al8 2.761763 1_555
Al73 Al78 3.041095 1_555
Al73 Al76 3.041693 1_545
Al73 Er1 3.085180 1_555
Al73 Er5 3.333366 1_655
Al74 Ti2 2.723428 1_565
Al74 Er11 3.085180 1_555
Al74 Er6 3.333366 1_565
Al75 Ti5 2.723428 1_555
Al75 Al9 2.761763 1_555
Al75 Al79 3.041095 1_555
Al75 Er10 3.085180 1_555
Al75 Er7 3.333366 1_555
Al76 Ti7 2.723428 1_555
Al76 Al9 2.824369 1_555
Al76 Er1 3.085180 1_565
Al76 Er9 3.333366 1_555
Al77 Ti6 2.723428 1_555
Al77 Er0 3.085180 1_555
Al77 Er8 3.333366 1_555
Al78 Ti5 2.723428 1_655
Al78 Al8 2.761763 1_555
Al78 Er3 3.085180 1_555
Al78 Er7 3.333366 1_655
Al79 Ti5 2.723428 1_555
Al79 Al9 2.761763 1_555
Al79 Er9 3.085180 1_555
Al79 Er5 3.333366 1_555
Al80 Ti4 2.723428 1_555
Al80 Er6 3.085180 1_565
Al80 Er4 3.333366 1_555
Al81 Ti4 2.723428 1_655
Al81 Er8 3.085180 1_555
Al81 Er2 3.333366 1_655
Al82 Ti2 2.723428 1_555
Al82 Al85 3.041095 1_555
Al82 Er4 3.085180 1_655
Al82 Er6 3.333366 1_555
Al83 Ti3 2.723428 1_565
Al83 Al84 3.041095 1_555
Al83 Er7 3.085180 1_555
Al83 Er3 3.333366 1_565
Al84 Ti3 2.723428 1_565
Al84 Er5 3.085180 1_555
Al84 Er1 3.333366 1_565
Al85 Ti2 2.723428 1_555
Al85 Er2 3.085180 1_655
Al85 Er0 3.333366 1_555
