# generated using pymatgen
data_Y3Co4Ge13
_symmetry_space_group_name_H-M   'P 1'
_cell_length_a   8.81684500
_cell_length_b   8.81684500
_cell_length_c   8.81684500
_cell_angle_alpha   90.00000000
_cell_angle_beta   90.00000000
_cell_angle_gamma   90.00000000
_symmetry_Int_Tables_number   1
_chemical_formula_structural   Y3Co4Ge13
_chemical_formula_sum   'Y6 Co8 Ge26'
_cell_volume   685.39292629
_cell_formula_units_Z   2
loop_
 _symmetry_equiv_pos_site_id
 _symmetry_equiv_pos_as_xyz
  1  'x, y, z'
loop_
 _atom_site_type_symbol
 _atom_site_label
 _atom_site_symmetry_multiplicity
 _atom_site_fract_x
 _atom_site_fract_y
 _atom_site_fract_z
 _atom_site_occupancy
  Y  Y0  1  0.00000000  0.50000000  0.75000000  1
  Y  Y1  1  0.50000000  0.25000000  0.00000000  1
  Y  Y2  1  0.75000000  0.00000000  0.50000000  1
  Y  Y3  1  0.00000000  0.50000000  0.25000000  1
  Y  Y4  1  0.50000000  0.75000000  0.00000000  1
  Y  Y5  1  0.25000000  0.00000000  0.50000000  1
  Co  Co0  1  0.75000000  0.25000000  0.75000000  1
  Co  Co1  1  0.25000000  0.75000000  0.25000000  1
  Co  Co2  1  0.75000000  0.75000000  0.25000000  1
  Co  Co3  1  0.25000000  0.25000000  0.75000000  1
  Co  Co4  1  0.25000000  0.75000000  0.75000000  1
  Co  Co5  1  0.75000000  0.25000000  0.25000000  1
  Co  Co6  1  0.25000000  0.25000000  0.25000000  1
  Co  Co7  1  0.75000000  0.75000000  0.75000000  1
  Ge  Ge0  1  0.50000000  0.50000000  0.50000000  1
  Ge  Ge1  1  0.00000000  0.00000000  0.00000000  1
  Ge  Ge2  1  0.80319100  0.34690600  0.50000000  1
  Ge  Ge3  1  0.65309400  0.50000000  0.80319100  1
  Ge  Ge4  1  0.50000000  0.19680900  0.65309400  1
  Ge  Ge5  1  0.19680900  0.65309400  0.50000000  1
  Ge  Ge6  1  0.34690600  0.50000000  0.19680900  1
  Ge  Ge7  1  0.50000000  0.80319100  0.34690600  1
  Ge  Ge8  1  0.80319100  0.65309400  0.50000000  1
  Ge  Ge9  1  0.65309400  0.50000000  0.19680900  1
  Ge  Ge10  1  0.19680900  0.34690600  0.50000000  1
  Ge  Ge11  1  0.34690600  0.50000000  0.80319100  1
  Ge  Ge12  1  0.50000000  0.80319100  0.65309400  1
  Ge  Ge13  1  0.50000000  0.19680900  0.34690600  1
  Ge  Ge14  1  0.30319100  0.00000000  0.84690600  1
  Ge  Ge15  1  0.15309400  0.30319100  0.00000000  1
  Ge  Ge16  1  0.00000000  0.15309400  0.69680900  1
  Ge  Ge17  1  0.69680900  0.00000000  0.15309400  1
  Ge  Ge18  1  0.84690600  0.69680900  0.00000000  1
  Ge  Ge19  1  0.00000000  0.84690600  0.30319100  1
  Ge  Ge20  1  0.30319100  0.00000000  0.15309400  1
  Ge  Ge21  1  0.15309400  0.69680900  0.00000000  1
  Ge  Ge22  1  0.69680900  0.00000000  0.84690600  1
  Ge  Ge23  1  0.84690600  0.30319100  0.00000000  1
  Ge  Ge24  1  0.00000000  0.15309400  0.30319100  1
  Ge  Ge25  1  0.00000000  0.84690600  0.69680900  1
loop_
_geom_bond_atom_site_label_1
_geom_bond_atom_site_label_2
_geom_bond_distance
_geom_bond_site_symmetry_2
Co0 Ge16 2.410082 1_655
Co0 Ge3 2.410082 1_555
Co0 Ge22 2.410082 1_555
Co0 Ge23 2.410082 1_556
Co0 Ge4 2.410082 1_555
Co0 Ge2 2.410082 1_555
Co0 Y1 3.117225 1_556
Co0 Y0 3.117225 1_655
Co0 Y2 3.117225 1_555
Co1 Ge20 2.410082 1_565
Co1 Ge6 2.410082 1_555
Co1 Ge7 2.410082 1_555
Co1 Ge19 2.410082 1_555
Co1 Ge21 2.410082 1_555
Co1 Ge5 2.410082 1_555
Co1 Y3 3.117225 1_555
Co1 Y4 3.117225 1_555
Co1 Y5 3.117225 1_565
Co2 Ge17 2.410082 1_565
Co2 Ge7 2.410082 1_555
Co2 Ge9 2.410082 1_555
Co2 Ge19 2.410082 1_655
Co2 Ge8 2.410082 1_555
Co2 Ge18 2.410082 1_555
Co2 Y3 3.117225 1_655
Co2 Y2 3.117225 1_565
Co2 Y4 3.117225 1_555
Co3 Ge16 2.410082 1_555
Co3 Ge11 2.410082 1_555
Co3 Ge15 2.410082 1_556
Co3 Ge10 2.410082 1_555
Co3 Ge14 2.410082 1_555
Co3 Ge4 2.410082 1_555
Co3 Y0 3.117225 1_555
Co3 Y1 3.117225 1_556
Co3 Y5 3.117225 1_555
Co4 Ge11 2.410082 1_555
Co4 Ge14 2.410082 1_565
Co4 Ge25 2.410082 1_555
Co4 Ge12 2.410082 1_555
Co4 Ge5 2.410082 1_555
Co4 Ge21 2.410082 1_556
Co4 Y0 3.117225 1_555
Co4 Y4 3.117225 1_556
Co4 Y5 3.117225 1_565
Co5 Ge13 2.410082 1_555
Co5 Ge17 2.410082 1_555
Co5 Ge24 2.410082 1_655
Co5 Ge9 2.410082 1_555
Co5 Ge23 2.410082 1_555
Co5 Ge2 2.410082 1_555
Co5 Y3 3.117225 1_655
Co5 Y1 3.117225 1_555
Co5 Y2 3.117225 1_555
Co6 Ge13 2.410082 1_555
Co6 Ge6 2.410082 1_555
Co6 Ge20 2.410082 1_555
Co6 Ge24 2.410082 1_555
Co6 Ge15 2.410082 1_555
Co6 Ge10 2.410082 1_555
Co6 Y3 3.117225 1_555
Co6 Y1 3.117225 1_555
Co6 Y5 3.117225 1_555
Co7 Ge3 2.410082 1_555
Co7 Ge22 2.410082 1_565
Co7 Ge25 2.410082 1_655
Co7 Ge8 2.410082 1_555
Co7 Ge12 2.410082 1_555
Co7 Ge18 2.410082 1_556
Co7 Y4 3.117225 1_556
Co7 Y2 3.117225 1_565
Co7 Y0 3.117225 1_655
Ge0 Ge8 2.994647 1_555
Ge0 Ge12 2.994647 1_555
Ge0 Ge2 2.994647 1_555
Ge0 Ge3 2.994647 1_555
Ge0 Ge5 2.994647 1_555
Ge0 Ge9 2.994647 1_555
Ge0 Ge10 2.994647 1_555
Ge0 Ge7 2.994647 1_555
Ge0 Ge4 2.994647 1_555
Ge0 Ge13 2.994647 1_555
Ge0 Ge11 2.994647 1_555
Ge0 Ge6 2.994647 1_555
Ge1 Ge22 2.994647 1_454
Ge1 Ge20 2.994647 1_555
Ge1 Ge18 2.994647 1_445
Ge1 Ge23 2.994647 1_455
Ge1 Ge17 2.994647 1_455
Ge1 Ge19 2.994647 1_545
Ge1 Ge14 2.994647 1_554
Ge1 Ge25 2.994647 1_544
Ge1 Ge21 2.994647 1_545
Ge1 Ge16 2.994647 1_554
Ge1 Ge15 2.994647 1_555
Ge1 Ge24 2.994647 1_555
Ge2 Y2 3.094362 1_555
Ge2 Y0 3.113127 1_655
Ge2 Y3 3.113127 1_655
Ge3 Y0 3.094362 1_655
Ge3 Y1 3.113127 1_556
Ge3 Y4 3.113127 1_556
Ge4 Y1 3.094362 1_556
Ge4 Y2 3.113127 1_555
Ge4 Y5 3.113127 1_555
Ge5 Y5 3.094362 1_565
Ge5 Y3 3.113127 1_555
Ge5 Y0 3.113127 1_555
Ge6 Y3 3.094362 1_555
Ge6 Y1 3.113127 1_555
Ge6 Y4 3.113127 1_555
Ge7 Y4 3.094362 1_555
Ge7 Y5 3.113127 1_565
Ge7 Y2 3.113127 1_565
Ge8 Y2 3.094362 1_565
Ge8 Y0 3.113127 1_655
Ge8 Y3 3.113127 1_655
Ge9 Y3 3.094362 1_655
Ge9 Y1 3.113127 1_555
Ge9 Y4 3.113127 1_555
Ge10 Y5 3.094362 1_555
Ge10 Y0 3.113127 1_555
Ge10 Y3 3.113127 1_555
Ge11 Y0 3.094362 1_555
Ge11 Y1 3.113127 1_556
Ge11 Y4 3.113127 1_556
Ge12 Y4 3.094362 1_556
Ge12 Y5 3.113127 1_565
Ge12 Y2 3.113127 1_565
Ge13 Y1 3.094362 1_555
Ge13 Y2 3.113127 1_555
Ge13 Y5 3.113127 1_555
Ge14 Y5 3.094362 1_555
Ge14 Y1 3.113127 1_556
Ge14 Y4 3.113127 1_546
Ge15 Y1 3.094362 1_555
Ge15 Y0 3.113127 1_554
Ge15 Y3 3.113127 1_555
Ge16 Y0 3.094362 1_555
Ge16 Y2 3.113127 1_455
Ge16 Y5 3.113127 1_555
Ge17 Y2 3.094362 1_555
Ge17 Y4 3.113127 1_545
Ge17 Y1 3.113127 1_555
Ge18 Y4 3.094362 1_555
Ge18 Y0 3.113127 1_654
Ge18 Y3 3.113127 1_655
Ge19 Y3 3.094362 1_555
Ge19 Y5 3.113127 1_565
Ge19 Y2 3.113127 1_465
Ge20 Y5 3.094362 1_555
Ge20 Y4 3.113127 1_545
Ge20 Y1 3.113127 1_555
Ge21 Y4 3.094362 1_555
Ge21 Y0 3.113127 1_554
Ge21 Y3 3.113127 1_555
Ge22 Y2 3.094362 1_555
Ge22 Y1 3.113127 1_556
Ge22 Y4 3.113127 1_546
Ge23 Y1 3.094362 1_555
Ge23 Y0 3.113127 1_654
Ge23 Y3 3.113127 1_655
Ge24 Y3 3.094362 1_555
Ge24 Y2 3.113127 1_455
Ge24 Y5 3.113127 1_555
Ge25 Y0 3.094362 1_555
Ge25 Y5 3.113127 1_565
Ge25 Y2 3.113127 1_465
