# generated using pymatgen
data_Y8Cu3(SiSe7)3
_symmetry_space_group_name_H-M   'P 1'
_cell_length_a   18.24430400
_cell_length_b   10.27209400
_cell_length_c   10.28823708
_cell_angle_alpha   60.23937084
_cell_angle_beta   90.00000000
_cell_angle_gamma   90.00000000
_symmetry_Int_Tables_number   1
_chemical_formula_structural   Y8Cu3(SiSe7)3
_chemical_formula_sum   'Y16 Cu6 Si6 Se42'
_cell_volume   1673.78772696
_cell_formula_units_Z   2
loop_
 _symmetry_equiv_pos_site_id
 _symmetry_equiv_pos_as_xyz
  1  'x, y, z'
loop_
 _atom_site_type_symbol
 _atom_site_label
 _atom_site_symmetry_multiplicity
 _atom_site_fract_x
 _atom_site_fract_y
 _atom_site_fract_z
 _atom_site_occupancy
  Y  Y0  1  0.30877200  0.13532400  0.22186700  1
  Y  Y1  1  0.63743800  0.13647000  0.22275800  1
  Y  Y2  1  0.97409400  0.13293500  0.22970700  1
  Y  Y3  1  0.30925800  0.22776100  0.64681900  1
  Y  Y4  1  0.63766100  0.22901800  0.64140100  1
  Y  Y5  1  0.97302800  0.22706800  0.63531600  1
  Y  Y6  1  0.14322000  0.35708200  0.86935000  1
  Y  Y7  1  0.80829000  0.36118600  0.86513500  1
  Y  Y8  1  0.13743800  0.86353000  0.77724200  1
  Y  Y9  1  0.47409400  0.86706500  0.77029300  1
  Y  Y10  1  0.80877200  0.86467600  0.77813300  1
  Y  Y11  1  0.30829000  0.63881400  0.13486500  1
  Y  Y12  1  0.64322000  0.64291800  0.13065000  1
  Y  Y13  1  0.13766100  0.77098200  0.35859900  1
  Y  Y14  1  0.47302800  0.77293200  0.36468400  1
  Y  Y15  1  0.80925800  0.77223900  0.35318100  1
  Cu  Cu0  1  0.32204800  0.00062700  0.00027400  1
  Cu  Cu1  1  0.65904500  0.99783600  0.99953800  1
  Cu  Cu2  1  0.99015700  0.99547600  0.00181300  1
  Cu  Cu3  1  0.15904500  0.00216400  0.00046200  1
  Cu  Cu4  1  0.49015700  0.00452400  0.99818700  1
  Cu  Cu5  1  0.82204800  0.99937300  0.99972600  1
  Si  Si0  1  0.28074800  0.67186700  0.66304400  1
  Si  Si1  1  0.61162500  0.66354200  0.66975500  1
  Si  Si2  1  0.94387000  0.66338500  0.66847400  1
  Si  Si3  1  0.11162500  0.33645800  0.33024500  1
  Si  Si4  1  0.44387000  0.33661500  0.33152600  1
  Si  Si5  1  0.78074800  0.32813300  0.33695600  1
  Se  Se0  1  0.31789900  0.90193900  0.83599500  1
  Se  Se1  1  0.64883500  0.90265000  0.83345400  1
  Se  Se2  1  0.98106400  0.90602600  0.83402500  1
  Se  Se3  1  0.06284200  0.47751900  0.42565700  1
  Se  Se4  1  0.39454800  0.48129700  0.42365400  1
  Se  Se5  1  0.72712100  0.47973000  0.41933600  1
  Se  Se6  1  0.31754100  0.83604100  0.26232500  1
  Se  Se7  1  0.65023400  0.83840300  0.26196800  1
  Se  Se8  1  0.98318000  0.83889200  0.26037200  1
  Se  Se9  1  0.14883500  0.09735000  0.16654600  1
  Se  Se10  1  0.48106400  0.09397400  0.16597500  1
  Se  Se11  1  0.81789900  0.09806100  0.16400500  1
  Se  Se12  1  0.06117600  0.09943300  0.48084000  1
  Se  Se13  1  0.39448800  0.10096900  0.48040900  1
  Se  Se14  1  0.72442600  0.09843100  0.48140600  1
  Se  Se15  1  0.15023400  0.16159700  0.73803200  1
  Se  Se16  1  0.48318000  0.16110800  0.73962800  1
  Se  Se17  1  0.81754100  0.16395900  0.73767500  1
  Se  Se18  1  0.22712100  0.52027000  0.58066400  1
  Se  Se19  1  0.56284200  0.52248100  0.57434300  1
  Se  Se20  1  0.89454800  0.51870300  0.57634600  1
  Se  Se21  1  0.23722500  0.33279300  0.33358800  1
  Se  Se22  1  0.56928100  0.33496100  0.33378100  1
  Se  Se23  1  0.90400800  0.33140500  0.33409000  1
  Se  Se24  1  0.22816100  0.58242400  0.89806100  1
  Se  Se25  1  0.55964600  0.58165900  0.90077000  1
  Se  Se26  1  0.89624200  0.57920500  0.90154100  1
  Se  Se27  1  0.06928100  0.66503900  0.66621900  1
  Se  Se28  1  0.40400800  0.66859500  0.66591000  1
  Se  Se29  1  0.73722500  0.66720700  0.66641200  1
  Se  Se30  1  0.31099000  0.26069300  0.90531500  1
  Se  Se31  1  0.65479500  0.26006000  0.90183900  1
  Se  Se32  1  0.98441600  0.25984900  0.90274800  1
  Se  Se33  1  0.15479500  0.73994000  0.09816100  1
  Se  Se34  1  0.48441600  0.74015100  0.09725200  1
  Se  Se35  1  0.81099000  0.73930700  0.09468500  1
  Se  Se36  1  0.05964600  0.41834100  0.09923000  1
  Se  Se37  1  0.39624200  0.42079500  0.09845900  1
  Se  Se38  1  0.72816100  0.41757600  0.10193900  1
  Se  Se39  1  0.22442600  0.90156900  0.51859400  1
  Se  Se40  1  0.56117600  0.90056700  0.51916000  1
  Se  Se41  1  0.89448800  0.89903100  0.51959100  1
loop_
_geom_bond_atom_site_label_1
_geom_bond_atom_site_label_2
_geom_bond_distance
_geom_bond_site_symmetry_2
Cu0 Se30 2.353866 1_554
Cu0 Se0 2.364508 1_544
Cu0 Se6 2.368261 1_545
Cu0 Y3 3.209171 1_554
Cu0 Y0 3.209687 1_555
Cu1 Se1 2.359875 1_555
Cu1 Se31 2.363031 1_565
Cu1 Se7 2.368108 1_556
Cu1 Y12 3.211270 1_556
Cu1 Y4 3.268222 1_565
Cu1 Y1 3.271722 1_566
Cu2 Se2 2.329452 1_554
Cu2 Se8 2.330636 1_555
Cu2 Se32 2.382607 1_564
Cu3 Se9 2.359875 1_555
Cu3 Se33 2.363031 1_545
Cu3 Se15 2.368108 1_554
Cu3 Y6 3.211270 1_554
Cu3 Y13 3.268222 1_545
Cu3 Y8 3.271722 1_544
Cu4 Se10 2.329452 1_556
Cu4 Se16 2.330636 1_555
Cu4 Se34 2.382607 1_546
Cu5 Se35 2.353866 1_556
Cu5 Se11 2.364508 1_566
Cu5 Se17 2.368261 1_565
Cu5 Y15 3.209171 1_556
Cu5 Y10 3.209687 1_555
Se0 Y11 2.922355 1_556
Se0 Y3 2.923640 1_565
Se0 Y9 2.991029 1_555
Se0 Y8 3.405525 1_555
Se1 Y12 2.894671 1_556
Se1 Y4 2.934058 1_565
Se1 Y10 3.034941 1_555
Se1 Y9 3.309865 1_555
Se2 Y5 2.895380 1_565
Se2 Y8 2.987347 1_655
Se2 Y10 3.261009 1_555
Se3 Si3 2.295068 1_555
Se3 Y5 2.906410 1_455
Se3 Y13 3.059689 1_555
Se4 Si4 2.305498 1_555
Se4 Y3 2.922197 1_555
Se4 Y11 3.024842 1_555
Se4 Y14 3.096463 1_555
Se5 Si5 2.326103 1_555
Se5 Y4 2.945293 1_555
Se5 Y12 3.005282 1_555
Se5 Y15 3.115561 1_555
Se6 Y0 2.894751 1_565
Se6 Y11 2.913751 1_555
Se6 Y14 2.983065 1_555
Se6 Y13 3.397155 1_555
Se7 Y1 2.892319 1_565
Se7 Y12 2.926970 1_555
Se7 Y15 3.021062 1_555
Se7 Y14 3.363894 1_555
Se8 Y2 2.881674 1_565
Se8 Y13 2.958278 1_655
Se8 Y15 3.286328 1_555
Se9 Y6 2.894671 1_554
Se9 Y13 2.934058 1_545
Se9 Y0 3.034941 1_555
Se9 Y2 3.309865 1_455
Se10 Y14 2.895380 1_545
Se10 Y1 2.987347 1_555
Se10 Y0 3.261009 1_555
Se11 Y7 2.922355 1_554
Se11 Y15 2.923640 1_545
Se11 Y2 2.991029 1_555
Se11 Y1 3.405525 1_555
Se12 Si3 2.330381 1_555
Se12 Y2 2.904383 1_455
Se12 Y5 2.983227 1_455
Se12 Y8 3.125867 1_545
Se13 Si4 2.310040 1_555
Se13 Y0 2.951864 1_555
Se13 Y3 3.042868 1_555
Se13 Y9 3.108548 1_545
Se14 Si5 2.313146 1_555
Se14 Y1 2.953000 1_555
Se14 Y4 3.034257 1_555
Se14 Y10 3.189983 1_545
Se15 Y8 2.892319 1_545
Se15 Y6 2.926970 1_555
Se15 Y3 3.021062 1_555
Se15 Y5 3.363894 1_455
Se16 Y9 2.881674 1_545
Se16 Y4 2.958278 1_555
Se16 Y3 3.286328 1_555
Se17 Y10 2.894751 1_545
Se17 Y7 2.913751 1_555
Se17 Y5 2.983065 1_555
Se17 Y4 3.397155 1_555
Se18 Si0 2.326103 1_555
Se18 Y13 2.945293 1_555
Se18 Y6 3.005282 1_555
Se18 Y3 3.115561 1_555
Se19 Si1 2.295068 1_555
Se19 Y14 2.906410 1_555
Se19 Y4 3.059689 1_555
Se20 Si2 2.305498 1_555
Se20 Y15 2.922197 1_555
Se20 Y7 3.024842 1_555
Se20 Y5 3.096463 1_555
Se21 Si3 2.291771 1_555
Se21 Y11 3.059763 1_555
Se21 Y0 3.074754 1_555
Se21 Y3 3.134418 1_555
Se22 Si4 2.288132 1_555
Se22 Y1 3.052893 1_555
Se22 Y4 3.055785 1_555
Se22 Y12 3.103385 1_555
Se23 Si5 2.249019 1_555
Se23 Y5 3.006863 1_555
Se23 Y2 3.019626 1_555
Se24 Si0 2.324972 1_555
Se24 Y6 2.919858 1_555
Se24 Y8 3.009879 1_555
Se24 Y11 3.131962 1_556
Se25 Si1 2.295875 1_555
Se25 Y9 2.987674 1_555
Se25 Y12 3.129183 1_556
Se26 Si2 2.279043 1_555
Se26 Y7 2.926304 1_555
Se26 Y10 3.010222 1_555
Se27 Si2 2.288132 1_455
Se27 Y8 3.052893 1_555
Se27 Y13 3.055785 1_555
Se27 Y6 3.103385 1_555
Se28 Si0 2.249019 1_555
Se28 Y14 3.006863 1_555
Se28 Y9 3.019626 1_555
Se29 Si1 2.291771 1_555
Se29 Y7 3.059763 1_555
Se29 Y10 3.074754 1_555
Se29 Y15 3.134418 1_555
Se30 Y3 2.842768 1_555
Se30 Y0 2.846558 1_556
Se30 Y6 3.181560 1_555
Se31 Y4 2.868280 1_555
Se31 Y1 2.907219 1_556
Se31 Y7 2.945255 1_555
Se32 Y5 2.940500 1_555
Se32 Y2 2.949038 1_556
Se32 Y6 3.028052 1_655
Se32 Y7 3.340462 1_555
Se33 Y13 2.868280 1_555
Se33 Y8 2.907219 1_554
Se33 Y11 2.945255 1_555
Se34 Y14 2.940500 1_555
Se34 Y9 2.949038 1_554
Se34 Y12 3.028052 1_555
Se34 Y11 3.340462 1_555
Se35 Y15 2.842768 1_555
Se35 Y10 2.846558 1_554
Se35 Y12 3.181560 1_555
Se36 Si3 2.295875 1_555
Se36 Y2 2.987674 1_455
Se36 Y6 3.129183 1_554
Se37 Si4 2.279043 1_555
Se37 Y11 2.926304 1_555
Se37 Y0 3.010222 1_555
Se38 Si5 2.324972 1_555
Se38 Y12 2.919858 1_555
Se38 Y1 3.009879 1_555
Se38 Y7 3.131962 1_554
Se39 Si0 2.313146 1_555
Se39 Y8 2.953000 1_555
Se39 Y13 3.034257 1_555
Se39 Y0 3.189983 1_565
Se40 Si1 2.330381 1_555
Se40 Y9 2.904383 1_555
Se40 Y14 2.983227 1_555
Se40 Y1 3.125867 1_565
Se41 Si2 2.310040 1_555
Se41 Y10 2.951864 1_555
Se41 Y15 3.042868 1_555
Se41 Y2 3.108548 1_565
