# generated using pymatgen
data_Ti5CoSb2
_symmetry_space_group_name_H-M   'P 1'
_cell_length_a   5.14287899
_cell_length_b   7.78549164
_cell_length_c   7.78551609
_cell_angle_alpha   83.73217830
_cell_angle_beta   70.69789848
_cell_angle_gamma   70.69791833
_symmetry_Int_Tables_number   1
_chemical_formula_structural   Ti5CoSb2
_chemical_formula_sum   'Ti10 Co2 Sb4'
_cell_volume   277.67032591
_cell_formula_units_Z   2
loop_
 _symmetry_equiv_pos_site_id
 _symmetry_equiv_pos_as_xyz
  1  'x, y, z'
loop_
 _atom_site_type_symbol
 _atom_site_label
 _atom_site_symmetry_multiplicity
 _atom_site_fract_x
 _atom_site_fract_y
 _atom_site_fract_z
 _atom_site_occupancy
  Ti  Ti0  1  0.25000242  0.50004384  0.49995480  1
  Ti  Ti1  1  0.74999705  0.49998458  0.50001562  1
  Ti  Ti2  1  0.06937651  0.13215769  0.72869608  1
  Ti  Ti3  1  0.93061475  0.86782308  0.27131933  1
  Ti  Ti4  1  0.79826882  0.27133979  0.13218607  1
  Ti  Ti5  1  0.43062128  0.27130631  0.86784216  1
  Ti  Ti6  1  0.20170908  0.72868268  0.86781442  1
  Ti  Ti7  1  0.56938347  0.72868045  0.13217617  1
  Ti  Ti8  1  0.70172751  0.86781329  0.72866331  1
  Ti  Ti9  1  0.29829060  0.13218549  0.27131446  1
  Co  Co0  1  0.25000082  -0.00015065  0.00014919  1
  Co  Co1  1  0.74999957  0.00011670  -0.00011798  1
  Sb  Sb0  1  0.16407219  0.50000261  0.17187043  1
  Sb  Sb1  1  0.83592845  0.50000338  0.82811126  1
  Sb  Sb2  1  0.33591832  0.82812381  0.50000736  1
  Sb  Sb3  1  0.66408915  0.17188695  0.49999733  1
loop_
_geom_bond_atom_site_label_1
_geom_bond_atom_site_label_2
_geom_bond_distance
_geom_bond_site_symmetry_2
Ti0 Ti1 2.571416 1_555
Ti0 Ti1 2.571463 1_455
Co0 Ti7 2.561536 1_545
Co0 Ti3 2.561549 1_445
Co0 Ti8 2.563354 1_544
Co0 Ti9 2.563381 1_555
Co0 Ti6 2.563386 1_544
Co0 Ti4 2.563387 1_455
Co0 Ti2 2.565226 1_554
Co0 Ti5 2.565236 1_554
Co0 Co1 2.571435 1_555
Co0 Co1 2.571447 1_455
Co1 Ti2 2.561655 1_654
Co1 Ti5 2.561669 1_554
Co1 Ti9 2.563121 1_555
Co1 Ti6 2.563125 1_644
Co1 Ti8 2.563576 1_544
Co1 Ti4 2.563598 1_555
Co1 Ti7 2.565060 1_545
Co1 Ti3 2.565070 1_545
Sb0 Ti1 2.732260 1_455
Sb0 Ti0 2.732456 1_555
Sb0 Ti5 2.795301 1_554
Sb0 Ti6 2.795653 1_554
Sb0 Ti3 2.799670 1_455
Sb0 Ti9 2.799773 1_555
Sb0 Ti7 3.085065 1_555
Sb0 Ti4 3.085131 1_555
Sb0 Ti4 3.085849 1_455
Sb0 Ti7 3.086110 1_455
Sb1 Ti0 2.732344 1_655
Sb1 Ti1 2.732518 1_555
Sb1 Ti7 2.795431 1_556
Sb1 Ti4 2.795691 1_556
Sb1 Ti8 2.799730 1_555
Sb1 Ti2 2.799784 1_655
Sb1 Ti5 3.085113 1_555
Sb1 Ti6 3.085232 1_555
Sb1 Ti6 3.085906 1_655
Sb1 Ti5 3.086267 1_655
Sb2 Ti1 2.732221 1_555
Sb2 Ti0 2.732393 1_555
Sb2 Ti2 2.795298 1_565
Sb2 Ti9 2.795741 1_565
Sb2 Ti6 2.799704 1_555
Sb2 Ti7 2.799743 1_555
Sb2 Ti8 3.085087 1_455
Sb2 Ti3 3.085093 1_455
Sb2 Ti8 3.085850 1_555
Sb2 Ti3 3.086177 1_555
Sb3 Ti0 2.732375 1_555
Sb3 Ti1 2.732468 1_555
Sb3 Ti3 2.795427 1_545
Sb3 Ti8 2.795692 1_545
Sb3 Ti4 2.799756 1_555
Sb3 Ti5 2.799793 1_555
Sb3 Ti2 3.085046 1_655
Sb3 Ti9 3.085165 1_655
Sb3 Ti9 3.086004 1_555
Sb3 Ti2 3.086351 1_555
