# generated using pymatgen
data_BiRhS
_symmetry_space_group_name_H-M   'P 1'
_cell_length_a   6.22212400
_cell_length_b   6.22212400
_cell_length_c   6.22212400
_cell_angle_alpha   90.00000000
_cell_angle_beta   90.00000000
_cell_angle_gamma   90.00000000
_symmetry_Int_Tables_number   1
_chemical_formula_structural   BiRhS
_chemical_formula_sum   'Bi4 Rh4 S4'
_cell_volume   240.88845468
_cell_formula_units_Z   4
loop_
 _symmetry_equiv_pos_site_id
 _symmetry_equiv_pos_as_xyz
  1  'x, y, z'
loop_
 _atom_site_type_symbol
 _atom_site_label
 _atom_site_symmetry_multiplicity
 _atom_site_fract_x
 _atom_site_fract_y
 _atom_site_fract_z
 _atom_site_occupancy
  Bi  Bi0  1  0.12736100  0.62736100  0.87263900  1
  Bi  Bi1  1  0.62736100  0.87263900  0.12736100  1
  Bi  Bi2  1  0.87263900  0.12736100  0.62736100  1
  Bi  Bi3  1  0.37263900  0.37263900  0.37263900  1
  Rh  Rh0  1  0.47799300  0.97799300  0.52200700  1
  Rh  Rh1  1  0.97799300  0.52200700  0.47799300  1
  Rh  Rh2  1  0.52200700  0.47799300  0.97799300  1
  Rh  Rh3  1  0.02200700  0.02200700  0.02200700  1
  S  S0  1  0.88110600  0.38110600  0.11889400  1
  S  S1  1  0.38110600  0.11889400  0.88110600  1
  S  S2  1  0.11889400  0.88110600  0.38110600  1
  S  S3  1  0.61889400  0.61889400  0.61889400  1
loop_
_geom_bond_atom_site_label_1
_geom_bond_atom_site_label_2
_geom_bond_distance
_geom_bond_site_symmetry_2
Bi0 S0 2.653899 1_456
Bi0 Rh3 2.706128 1_566
Bi0 Rh2 2.706128 1_555
Bi0 Rh1 2.706128 1_455
Bi1 S1 2.653899 1_564
Bi1 Rh3 2.706128 1_665
Bi1 Rh0 2.706128 1_555
Bi1 Rh2 2.706128 1_554
Bi2 S2 2.653899 1_645
Bi2 Rh3 2.706128 1_656
Bi2 Rh1 2.706128 1_555
Bi2 Rh0 2.706128 1_545
Bi3 S3 2.653899 1_555
Bi3 Rh1 2.706128 1_455
Bi3 Rh0 2.706128 1_545
Bi3 Rh2 2.706128 1_554
Rh0 S3 2.474750 1_555
Rh0 S1 2.474750 1_565
Rh0 S2 2.474750 1_555
Rh1 S3 2.474750 1_555
Rh1 S0 2.474750 1_555
Rh1 S2 2.474750 1_655
Rh2 S3 2.474750 1_555
Rh2 S0 2.474750 1_556
Rh2 S1 2.474750 1_555
Rh3 S2 2.474750 1_545
Rh3 S0 2.474750 1_455
Rh3 S1 2.474750 1_554
