# generated using pymatgen
data_Zr3Fe8Mo
_symmetry_space_group_name_H-M   'P 1'
_cell_length_a   8.53488343
_cell_length_b   8.53488343
_cell_length_c   8.53488259
_cell_angle_alpha   33.51499571
_cell_angle_beta   33.51499571
_cell_angle_gamma   33.51499516
_symmetry_Int_Tables_number   1
_chemical_formula_structural   Zr3Fe8Mo
_chemical_formula_sum   'Zr3 Fe8 Mo1'
_cell_volume   168.82152530
_cell_formula_units_Z   1
loop_
 _symmetry_equiv_pos_site_id
 _symmetry_equiv_pos_as_xyz
  1  'x, y, z'
loop_
 _atom_site_type_symbol
 _atom_site_label
 _atom_site_symmetry_multiplicity
 _atom_site_fract_x
 _atom_site_fract_y
 _atom_site_fract_z
 _atom_site_occupancy
  Zr  Zr0  1  0.62458400  0.62458400  0.62458400  1
  Zr  Zr1  1  0.00290700  0.00290700  0.00290700  1
  Zr  Zr2  1  0.49744000  0.49744000  0.49744000  1
  Fe  Fe0  1  0.56423700  0.06349400  0.56423700  1
  Fe  Fe1  1  0.06166400  0.56000600  0.06166400  1
  Fe  Fe2  1  0.06349400  0.56423700  0.56423700  1
  Fe  Fe3  1  0.56000600  0.06166400  0.06166400  1
  Fe  Fe4  1  0.81204600  0.81204600  0.81204600  1
  Fe  Fe5  1  0.31274200  0.31274200  0.31274200  1
  Fe  Fe6  1  0.56423700  0.56423700  0.06349400  1
  Fe  Fe7  1  0.06166400  0.06166400  0.56000600  1
  Mo  Mo0  1  0.12497900  0.12497900  0.12497900  1
loop_
_geom_bond_atom_site_label_1
_geom_bond_atom_site_label_2
_geom_bond_distance
_geom_bond_site_symmetry_2
Zr0 Zr1 3.042020 1_656
Zr0 Zr1 3.042020 1_566
Zr0 Zr1 3.042020 1_665
Zr0 Zr2 3.069763 1_555
Fe0 Fe4 2.423642 1_545
Fe0 Fe6 2.457134 1_546
Fe0 Fe2 2.457134 1_645
Fe0 Fe6 2.464448 1_555
Fe0 Fe2 2.464448 1_555
Fe0 Fe5 2.488922 1_555
Fe0 Zr2 2.804908 1_555
Fe0 Mo0 2.867726 1_556
Fe0 Mo0 2.867726 1_655
Fe0 Zr1 2.868875 1_655
Fe0 Zr1 2.868876 1_556
Fe0 Zr0 2.927666 1_545
Fe1 Fe4 2.447396 1_454
Fe1 Fe7 2.452631 1_555
Fe1 Fe3 2.452631 1_555
Fe1 Fe7 2.468951 1_564
Fe1 Fe3 2.468951 1_465
Fe1 Fe5 2.492639 1_555
Fe1 Mo0 2.857507 1_555
Fe1 Zr0 2.898968 1_455
Fe1 Zr0 2.898969 1_554
Fe1 Zr2 2.901507 1_554
Fe1 Zr2 2.901507 1_455
Fe1 Zr1 2.981538 1_565
Fe2 Fe4 2.423642 1_455
Fe2 Fe6 2.457134 1_456
Fe2 Fe6 2.464448 1_555
Fe2 Fe5 2.488922 1_555
Fe2 Zr2 2.804908 1_555
Fe2 Mo0 2.867726 1_556
Fe2 Mo0 2.867726 1_565
Fe2 Zr1 2.868875 1_565
Fe2 Zr1 2.868876 1_556
Fe2 Zr0 2.927666 1_455
Fe3 Fe4 2.447396 1_544
Fe3 Fe7 2.452631 1_555
Fe3 Fe7 2.468951 1_654
Fe3 Fe5 2.492639 1_555
Fe3 Mo0 2.857507 1_555
Fe3 Zr0 2.898968 1_545
Fe3 Zr0 2.898969 1_554
Fe3 Zr2 2.901507 1_554
Fe3 Zr2 2.901507 1_545
Fe3 Zr1 2.981538 1_655
Fe4 Fe6 2.423642 1_556
Fe4 Fe7 2.447396 1_665
Fe4 Zr2 2.877226 1_556
Fe4 Zr2 2.877226 1_565
Fe4 Zr2 2.877226 1_655
Fe4 Mo0 2.883850 1_665
Fe4 Mo0 2.883850 1_656
Fe4 Mo0 2.883850 1_566
Fe5 Fe6 2.488922 1_555
Fe5 Fe7 2.492640 1_555
Fe5 Zr0 2.888465 1_554
Fe5 Zr0 2.888466 1_545
Fe5 Zr0 2.888466 1_455
Fe5 Zr1 2.897562 1_556
Fe5 Zr1 2.897563 1_565
Fe5 Zr1 2.897563 1_655
Fe6 Zr2 2.804908 1_555
Fe6 Mo0 2.867726 1_565
Fe6 Mo0 2.867726 1_655
Fe6 Zr1 2.868876 1_655
Fe6 Zr1 2.868876 1_565
Fe6 Zr0 2.927666 1_554
Fe7 Mo0 2.857507 1_555
Fe7 Zr0 2.898969 1_455
Fe7 Zr0 2.898969 1_545
Fe7 Zr2 2.901507 1_545
Fe7 Zr2 2.901507 1_455
Fe7 Zr1 2.981537 1_556
Mo0 Zr1 2.947305 1_555
Mo0 Zr2 2.994402 1_455
Mo0 Zr2 2.994402 1_545
Mo0 Zr2 2.994402 1_554
