# generated using pymatgen
data_La4MgSi4(C2O11)2
_symmetry_space_group_name_H-M   'P 1'
_cell_length_a   5.55057600
_cell_length_b   11.91918600
_cell_length_c   14.33689935
_cell_angle_alpha   64.56085792
_cell_angle_beta   90.00000000
_cell_angle_gamma   90.00000000
_symmetry_Int_Tables_number   1
_chemical_formula_structural   La4MgSi4(C2O11)2
_chemical_formula_sum   'La8 Mg2 Si8 C8 O44'
_cell_volume   856.54041831
_cell_formula_units_Z   2
loop_
 _symmetry_equiv_pos_site_id
 _symmetry_equiv_pos_as_xyz
  1  'x, y, z'
loop_
 _atom_site_type_symbol
 _atom_site_label
 _atom_site_symmetry_multiplicity
 _atom_site_fract_x
 _atom_site_fract_y
 _atom_site_fract_z
 _atom_site_occupancy
  La  La0  1  0.03448600  0.75794700  0.54994500  1
  La  La1  1  0.96551400  0.24205300  0.45005500  1
  La  La2  1  0.53448600  0.24205300  0.95005500  1
  La  La3  1  0.46551400  0.75794700  0.04994500  1
  La  La4  1  0.00860000  0.23483300  0.73747200  1
  La  La5  1  0.99140000  0.76516700  0.26252800  1
  La  La6  1  0.50860000  0.76516700  0.76252800  1
  La  La7  1  0.49140000  0.23483300  0.23747200  1
  Mg  Mg0  1  0.50000000  0.00000000  0.50000000  1
  Mg  Mg1  1  0.00000000  0.00000000  0.00000000  1
  Si  Si0  1  0.99441900  0.94760300  0.66259500  1
  Si  Si1  1  0.00558100  0.05239700  0.33740500  1
  Si  Si2  1  0.49441900  0.05239700  0.83740500  1
  Si  Si3  1  0.50558100  0.94760300  0.16259500  1
  Si  Si4  1  0.99913100  0.76111300  0.90978000  1
  Si  Si5  1  0.00086900  0.23888700  0.09022000  1
  Si  Si6  1  0.49913100  0.23888700  0.59022000  1
  Si  Si7  1  0.50086900  0.76111300  0.40978000  1
  C  C0  1  0.33694000  0.46160200  0.01147400  1
  C  C1  1  0.66306000  0.53839800  0.98852600  1
  C  C2  1  0.83694000  0.53839800  0.48852600  1
  C  C3  1  0.16306000  0.46160200  0.51147400  1
  C  C4  1  0.01467500  0.40830100  0.83575300  1
  C  C5  1  0.98532500  0.59169900  0.16424700  1
  C  C6  1  0.51467500  0.59169900  0.66424700  1
  C  C7  1  0.48532500  0.40830100  0.33575300  1
  O  O0  1  0.99132000  0.83297900  0.98165100  1
  O  O1  1  0.00868000  0.16702100  0.01834900  1
  O  O2  1  0.49132000  0.16702100  0.51834900  1
  O  O3  1  0.50868000  0.83297900  0.48165100  1
  O  O4  1  0.23617500  0.33905500  0.55720700  1
  O  O5  1  0.76382500  0.66094500  0.44279300  1
  O  O6  1  0.73617500  0.66094500  0.94279300  1
  O  O7  1  0.26382500  0.33905500  0.05720700  1
  O  O8  1  0.77676400  0.91317600  0.60225800  1
  O  O9  1  0.22323600  0.08682400  0.39774200  1
  O  O10  1  0.27676400  0.08682400  0.89774200  1
  O  O11  1  0.72323600  0.91317600  0.10225800  1
  O  O12  1  0.93303900  0.84405900  0.78577000  1
  O  O13  1  0.06696100  0.15594100  0.21423000  1
  O  O14  1  0.43303900  0.15594100  0.71423000  1
  O  O15  1  0.56696100  0.84405900  0.28577000  1
  O  O16  1  0.25448700  0.69751200  0.91624500  1
  O  O17  1  0.74551300  0.30248800  0.08375500  1
  O  O18  1  0.75448700  0.30248800  0.58375500  1
  O  O19  1  0.24551300  0.69751200  0.41624500  1
  O  O20  1  0.24427500  0.89988900  0.62818800  1
  O  O21  1  0.75572500  0.10011100  0.37181200  1
  O  O22  1  0.74427500  0.10011100  0.87181200  1
  O  O23  1  0.25572500  0.89988900  0.12818800  1
  O  O24  1  0.21779500  0.35748100  0.82120300  1
  O  O25  1  0.78220500  0.64251900  0.17879700  1
  O  O26  1  0.71779500  0.64251900  0.67879700  1
  O  O27  1  0.28220500  0.35748100  0.32120300  1
  O  O28  1  0.49979000  0.90999800  0.85616700  1
  O  O29  1  0.50021000  0.09000200  0.14383300  1
  O  O30  1  0.99979000  0.09000200  0.64383300  1
  O  O31  1  0.00021000  0.90999800  0.35616700  1
  O  O32  1  0.50547800  0.51168900  0.63177300  1
  O  O33  1  0.49452200  0.48831100  0.36822700  1
  O  O34  1  0.00547800  0.48831100  0.86822700  1
  O  O35  1  0.99452200  0.51168900  0.13177300  1
  O  O36  1  0.00963300  0.50403300  0.56859100  1
  O  O37  1  0.99036700  0.49596700  0.43140900  1
  O  O38  1  0.50963300  0.49596700  0.93140900  1
  O  O39  1  0.49036700  0.50403300  0.06859100  1
  O  O40  1  0.31462700  0.63993300  0.68676200  1
  O  O41  1  0.68537300  0.36006700  0.31323800  1
  O  O42  1  0.81462700  0.36006700  0.81323800  1
  O  O43  1  0.18537300  0.63993300  0.18676200  1
loop_
_geom_bond_atom_site_label_1
_geom_bond_atom_site_label_2
_geom_bond_distance
_geom_bond_site_symmetry_2
La0 O40 2.423565 1_555
La0 O26 2.492377 1_455
La0 O31 2.591027 1_555
La0 O19 2.598344 1_555
La0 O20 2.665901 1_555
La0 O8 2.687798 1_455
La0 O5 2.734894 1_455
La0 O3 2.816719 1_555
La0 O36 2.924863 1_555
La0 O3 3.086100 1_455
La1 O41 2.423565 1_555
La1 O27 2.492377 1_655
La1 O30 2.591027 1_555
La1 O18 2.598344 1_555
La1 O21 2.665901 1_555
La1 O9 2.687798 1_655
La1 O4 2.734894 1_655
La1 O2 2.816719 1_555
La1 O37 2.924863 1_555
La1 O2 3.086100 1_655
La2 O42 2.423565 1_555
La2 O24 2.492377 1_555
La2 O29 2.591027 1_556
La2 O17 2.598344 1_556
La2 O22 2.665901 1_555
La2 O10 2.687798 1_555
La2 O7 2.734894 1_556
La2 O1 2.816719 1_656
La2 O38 2.924863 1_555
La2 O1 3.086100 1_556
La3 O43 2.423565 1_555
La3 O25 2.492377 1_555
La3 O28 2.591027 1_554
La3 O16 2.598344 1_554
La3 O23 2.665901 1_555
La3 O11 2.687798 1_555
La3 O6 2.734894 1_554
La3 O0 2.816719 1_454
La3 O39 2.924863 1_555
La3 O0 3.086100 1_554
La4 O22 2.404915 1_455
La4 O42 2.441359 1_455
La4 O18 2.443316 1_455
La4 O24 2.536536 1_555
La4 O30 2.603009 1_455
La4 O14 2.610482 1_555
La4 O4 2.657057 1_555
La4 O10 2.669276 1_555
La5 O23 2.404915 1_655
La5 O43 2.441359 1_655
La5 O19 2.443316 1_655
La5 O25 2.536536 1_555
La5 O31 2.603009 1_655
La5 O15 2.610482 1_555
La5 O5 2.657057 1_555
La5 O11 2.669276 1_555
La6 O20 2.404915 1_555
La6 O40 2.441359 1_555
La6 O16 2.443316 1_555
La6 O26 2.536536 1_555
La6 O28 2.603009 1_555
La6 O12 2.610482 1_555
La6 O6 2.657057 1_555
La6 O8 2.669276 1_555
La7 O21 2.404915 1_555
La7 O41 2.441359 1_555
La7 O17 2.443316 1_555
La7 O27 2.536536 1_555
La7 O29 2.603009 1_555
La7 O13 2.610482 1_555
La7 O7 2.657057 1_555
La7 O9 2.669276 1_555
Mg0 O8 2.068039 1_545
Mg0 O9 2.068039 1_555
Mg0 O2 2.117674 1_555
Mg0 O3 2.117674 1_545
Mg0 O20 2.220850 1_545
Mg0 O21 2.220850 1_555
Mg1 O10 2.068039 1_554
Mg1 O11 2.068039 1_445
Mg1 O0 2.117674 1_444
Mg1 O1 2.117674 1_555
Mg1 O23 2.220850 1_545
Mg1 O22 2.220850 1_454
C0 O7 1.380347 1_555
C0 O38 1.414316 1_554
C0 O39 1.416817 1_555
C1 O6 1.380347 1_555
C1 O39 1.414316 1_556
C1 O38 1.416817 1_555
C2 O5 1.380347 1_555
C2 O36 1.414316 1_655
C2 O37 1.416817 1_555
C3 O4 1.380347 1_555
C3 O37 1.414316 1_455
C3 O36 1.416817 1_555
C4 O34 1.228928 1_555
C4 O24 1.337941 1_555
C4 O42 1.351701 1_455
C5 O35 1.228928 1_555
C5 O25 1.337941 1_555
C5 O43 1.351701 1_655
C6 O32 1.228928 1_555
C6 O26 1.337941 1_555
C6 O40 1.351701 1_555
C7 O33 1.228928 1_555
C7 O27 1.337941 1_555
C7 O41 1.351701 1_555
O0 Si4 1.598633 1_555
O1 Si5 1.598633 1_555
O2 Si6 1.598633 1_555
O3 Si7 1.598633 1_555
O4 Si6 1.815021 1_555
O5 Si7 1.815021 1_555
O6 Si4 1.815021 1_555
O7 Si5 1.815021 1_555
O8 Si0 1.637427 1_555
O9 Si1 1.637427 1_555
O10 Si2 1.637427 1_555
O11 Si3 1.637427 1_555
O12 Si4 1.662203 1_555
O12 Si0 1.698649 1_555
O13 Si5 1.662203 1_555
O13 Si1 1.698649 1_555
O14 Si6 1.662203 1_555
O14 Si2 1.698649 1_555
O15 Si7 1.662203 1_555
O15 Si3 1.698649 1_555
O16 Si4 1.591178 1_455
O17 Si5 1.591178 1_655
O18 Si6 1.591178 1_555
O19 Si7 1.591178 1_555
O20 Si0 1.652610 1_455
O21 Si1 1.652610 1_655
O22 Si2 1.652610 1_555
O23 Si3 1.652610 1_555
O28 Si2 1.600556 1_565
O29 Si3 1.600556 1_545
O30 Si0 1.600556 1_545
O31 Si1 1.600556 1_565
