# generated using pymatgen
data_K2Si5BO12
_symmetry_space_group_name_H-M   'P 1'
_cell_length_a   4.78184100
_cell_length_b   13.39154500
_cell_length_c   9.19858300
_cell_angle_alpha   90.00000000
_cell_angle_beta   90.00000000
_cell_angle_gamma   90.00000000
_symmetry_Int_Tables_number   1
_chemical_formula_structural   K2Si5BO12
_chemical_formula_sum   'K4 Si10 B2 O24'
_cell_volume   589.04265885
_cell_formula_units_Z   2
loop_
 _symmetry_equiv_pos_site_id
 _symmetry_equiv_pos_as_xyz
  1  'x, y, z'
loop_
 _atom_site_type_symbol
 _atom_site_label
 _atom_site_symmetry_multiplicity
 _atom_site_fract_x
 _atom_site_fract_y
 _atom_site_fract_z
 _atom_site_occupancy
  K  K0  1  0.94742600  0.00000000  0.94152200  1
  K  K1  1  0.05257400  0.50000000  0.44152200  1
  K  K2  1  0.46550000  0.00000000  0.26909800  1
  K  K3  1  0.53450000  0.50000000  0.76909800  1
  Si  Si0  1  0.85556000  0.71010300  0.94458200  1
  Si  Si1  1  0.14444000  0.78989700  0.44458200  1
  Si  Si2  1  0.14444000  0.21010300  0.44458200  1
  Si  Si3  1  0.85556000  0.28989700  0.94458200  1
  Si  Si4  1  0.35780800  0.79928300  0.77663100  1
  Si  Si5  1  0.64219200  0.70071700  0.27663100  1
  Si  Si6  1  0.64219200  0.29928300  0.27663100  1
  Si  Si7  1  0.35780800  0.20071700  0.77663100  1
  Si  Si8  1  0.93771700  0.00000000  0.53067600  1
  Si  Si9  1  0.06228300  0.50000000  0.03067600  1
  B  B0  1  0.43743400  0.00000000  0.70079300  1
  B  B1  1  0.56256600  0.50000000  0.20079300  1
  O  O0  1  0.98647300  0.59720200  0.92681900  1
  O  O1  1  0.01352700  0.90279800  0.42681900  1
  O  O2  1  0.01352700  0.09720200  0.42681900  1
  O  O3  1  0.98647300  0.40279800  0.92681900  1
  O  O4  1  0.13350200  0.00000000  0.67221000  1
  O  O5  1  0.86649800  0.50000000  0.17221000  1
  O  O6  1  0.60494000  0.00000000  0.56522700  1
  O  O7  1  0.39506000  0.50000000  0.06522700  1
  O  O8  1  0.90771700  0.70848900  0.39258300  1
  O  O9  1  0.09228300  0.79151100  0.89258300  1
  O  O10  1  0.09228300  0.20848900  0.89258300  1
  O  O11  1  0.90771700  0.29151100  0.39258300  1
  O  O12  1  0.24783400  0.76923100  0.61206400  1
  O  O13  1  0.75216600  0.73076900  0.11206400  1
  O  O14  1  0.75216600  0.26923100  0.11206400  1
  O  O15  1  0.24783400  0.23076900  0.61206400  1
  O  O16  1  0.59066100  0.71618900  0.83066800  1
  O  O17  1  0.40933900  0.78381100  0.33066800  1
  O  O18  1  0.40933900  0.21618900  0.33066800  1
  O  O19  1  0.59066100  0.28381100  0.83066800  1
  O  O20  1  0.50013700  0.90935800  0.78779000  1
  O  O21  1  0.49986300  0.59064200  0.28779000  1
  O  O22  1  0.49986300  0.40935800  0.28779000  1
  O  O23  1  0.50013700  0.09064200  0.78779000  1
loop_
_geom_bond_atom_site_label_1
_geom_bond_atom_site_label_2
_geom_bond_distance
_geom_bond_site_symmetry_2
K0 O4 2.632238 1_655
K0 O23 2.836876 1_555
K0 O20 2.836876 1_545
K0 O10 2.911644 1_655
K0 O9 2.911644 1_645
K1 O5 2.632238 1_455
K1 O22 2.836876 1_555
K1 O21 2.836876 1_555
K1 O8 2.911644 1_455
K1 O11 2.911644 1_455
K2 O6 2.804388 1_555
K2 O2 2.910376 1_555
K2 O1 2.910376 1_545
K2 O18 2.962180 1_555
K2 O17 2.962180 1_545
K2 O2 3.265986 1_655
K2 O1 3.265986 1_645
K3 O7 2.804388 1_556
K3 O0 2.910376 1_555
K3 O3 2.910376 1_555
K3 O16 2.962180 1_555
K3 O19 2.962180 1_555
K3 O3 3.265986 1_455
K3 O0 3.265986 1_455
B0 O4 1.476945 1_555
B0 O6 1.482102 1_555
B0 O23 1.484486 1_555
B0 O20 1.484486 1_545
B1 O5 1.476945 1_555
B1 O7 1.482102 1_555
B1 O21 1.484486 1_555
B1 O22 1.484486 1_555
O0 Si0 1.644530 1_555
O0 Si9 1.654832 1_656
O1 Si1 1.644530 1_555
O1 Si8 1.654832 1_465
O2 Si2 1.644530 1_555
O2 Si8 1.654832 1_455
O3 Si3 1.644530 1_555
O3 Si9 1.654832 1_656
O4 Si8 1.603580 1_455
O5 Si9 1.603580 1_655
O6 Si8 1.622715 1_555
O7 Si9 1.622715 1_555
O8 Si1 1.642753 1_655
O8 Si5 1.661502 1_555
O9 Si0 1.642753 1_455
O9 Si4 1.661502 1_555
O10 Si3 1.642753 1_455
O10 Si7 1.661502 1_555
O11 Si2 1.642753 1_655
O11 Si6 1.661502 1_555
O12 Si1 1.641485 1_555
O12 Si4 1.652286 1_555
O13 Si0 1.641485 1_554
O13 Si5 1.652286 1_555
O14 Si3 1.641485 1_554
O14 Si6 1.652286 1_555
O15 Si2 1.641485 1_555
O15 Si7 1.652286 1_555
O16 Si0 1.645955 1_555
O16 Si4 1.650790 1_555
O17 Si1 1.645955 1_555
O17 Si5 1.650790 1_555
O18 Si2 1.645955 1_555
O18 Si6 1.650790 1_555
O19 Si3 1.645955 1_555
O19 Si7 1.650790 1_555
O20 Si4 1.626850 1_555
O21 Si5 1.626850 1_555
O22 Si6 1.626850 1_555
O23 Si7 1.626850 1_555
