# generated using pymatgen
data_La5Ge3
_symmetry_space_group_name_H-M   'P 1'
_cell_length_a   6.96326086
_cell_length_b   9.01617036
_cell_length_c   9.01624471
_cell_angle_alpha   119.99925225
_cell_angle_beta   89.99932415
_cell_angle_gamma   90.00020948
_symmetry_Int_Tables_number   1
_chemical_formula_structural   La5Ge3
_chemical_formula_sum   'La10 Ge6'
_cell_volume   490.22377364
_cell_formula_units_Z   2
loop_
 _symmetry_equiv_pos_site_id
 _symmetry_equiv_pos_as_xyz
  1  'x, y, z'
loop_
 _atom_site_type_symbol
 _atom_site_label
 _atom_site_symmetry_multiplicity
 _atom_site_fract_x
 _atom_site_fract_y
 _atom_site_fract_z
 _atom_site_occupancy
  La  La0  1  0.49999159  0.33335212  0.66664713  1
  La  La1  1  0.49999143  0.66664555  0.33333725  1
  La  La2  1  0.00001026  0.66667441  0.33332556  1
  La  La3  1  0.00000856  0.33332773  0.66666208  1
  La  La4  1  0.74999750  0.24947823  0.00002086  1
  La  La5  1  0.75000689  0.75060383  0.75056578  1
  La  La6  1  0.74998625  -0.00004193  0.24948225  1
  La  La7  1  0.25000493  0.75056243  0.00002798  1
  La  La8  1  0.24998395  0.24945646  0.24943955  1
  La  La9  1  0.25001575  -0.00004935  0.75051174  1
  Ge  Ge0  1  0.74999253  0.60829972  0.00002576  1
  Ge  Ge1  1  0.75002106  0.39174138  0.39172451  1
  Ge  Ge2  1  0.74998739  -0.00005155  0.60824387  1
  Ge  Ge3  1  0.25000648  0.39175479  0.00002873  1
  Ge  Ge4  1  0.24998158  0.60828644  0.60825689  1
  Ge  Ge5  1  0.25001485  -0.00004425  0.39169905  1
loop_
_geom_bond_atom_site_label_1
_geom_bond_atom_site_label_2
_geom_bond_distance
_geom_bond_site_symmetry_2
Ge0 La6 3.096179 1_565
Ge0 La5 3.096900 1_554
Ge0 La4 3.235174 1_555
Ge0 La2 3.279800 1_655
Ge0 La1 3.279869 1_555
Ge0 La0 3.280190 1_554
Ge0 La3 3.280211 1_654
Ge0 La7 3.710308 1_555
Ge0 La7 3.710461 1_655
Ge1 La4 3.096485 1_555
Ge1 La6 3.097156 1_555
Ge1 La5 3.235519 1_555
Ge1 La1 3.279710 1_555
Ge1 La2 3.279818 1_655
Ge1 La0 3.279848 1_555
Ge1 La3 3.279957 1_655
Ge1 La8 3.710212 1_655
Ge1 La8 3.710716 1_555
Ge2 La5 3.096044 1_545
Ge2 La4 3.097133 1_556
Ge2 La6 3.234726 1_555
Ge2 La2 3.279654 1_645
Ge2 La1 3.279683 1_545
Ge2 La3 3.280253 1_655
Ge2 La0 3.280388 1_555
Ge2 La9 3.710205 1_555
Ge2 La9 3.710604 1_655
Ge3 La8 3.096445 1_555
Ge3 La9 3.097286 1_554
Ge3 La7 3.235074 1_555
Ge3 La1 3.279638 1_555
Ge3 La2 3.279673 1_555
Ge3 La3 3.280091 1_554
Ge3 La0 3.280186 1_554
Ge3 La4 3.710365 1_555
Ge3 La4 3.710473 1_455
Ge4 La9 3.096136 1_565
Ge4 La7 3.097035 1_556
Ge4 La8 3.235265 1_555
Ge4 La1 3.279607 1_555
Ge4 La2 3.279725 1_555
Ge4 La0 3.279879 1_555
Ge4 La3 3.279982 1_555
Ge4 La5 3.710377 1_455
Ge4 La5 3.710727 1_555
Ge5 La7 3.096199 1_545
Ge5 La8 3.096921 1_555
Ge5 La9 3.235166 1_555
Ge5 La2 3.279574 1_545
Ge5 La1 3.279724 1_545
Ge5 La0 3.280177 1_555
Ge5 La3 3.280188 1_555
Ge5 La6 3.710051 1_555
Ge5 La6 3.710453 1_455
