# generated using pymatgen
data_MgFeO2
_symmetry_space_group_name_H-M   'P 1'
_cell_length_a   2.97602622
_cell_length_b   8.42931165
_cell_length_c   8.53026064
_cell_angle_alpha   85.38826829
_cell_angle_beta   79.75006312
_cell_angle_gamma   79.84282155
_symmetry_Int_Tables_number   1
_chemical_formula_structural   MgFeO2
_chemical_formula_sum   'Mg4 Fe4 O8'
_cell_volume   207.00797397
_cell_formula_units_Z   4
loop_
 _symmetry_equiv_pos_site_id
 _symmetry_equiv_pos_as_xyz
  1  'x, y, z'
loop_
 _atom_site_type_symbol
 _atom_site_label
 _atom_site_symmetry_multiplicity
 _atom_site_fract_x
 _atom_site_fract_y
 _atom_site_fract_z
 _atom_site_occupancy
  Mg  Mg0  1  0.35765600  0.06333400  0.23076800  1
  Mg  Mg1  1  0.63795300  0.91674400  0.79699700  1
  Mg  Mg2  1  0.07995800  0.70685900  0.13498100  1
  Mg  Mg3  1  0.91641900  0.27395900  0.89290500  1
  Fe  Fe0  1  0.62285400  0.18413900  0.56770900  1
  Fe  Fe1  1  0.20290700  0.37795200  0.21580900  1
  Fe  Fe2  1  0.79370300  0.60252300  0.81122900  1
  Fe  Fe3  1  0.37535700  0.79286700  0.45869300  1
  O  O0  1  0.81484600  0.75593000  0.61295800  1
  O  O1  1  0.36528500  0.42386700  0.84666500  1
  O  O2  1  0.62786200  0.55815600  0.18648600  1
  O  O3  1  0.18217700  0.22232500  0.41462800  1
  O  O4  1  0.07944300  0.09606000  0.73757400  1
  O  O5  1  0.84722900  0.19815900  0.11727900  1
  O  O6  1  0.91664400  0.88410900  0.29014700  1
  O  O7  1  0.14798300  0.78235500  0.91078600  1
loop_
_geom_bond_atom_site_label_1
_geom_bond_atom_site_label_2
_geom_bond_distance
_geom_bond_site_symmetry_2
Mg0 O5 2.063178 1_555
Mg0 O5 2.067325 1_455
Mg0 O3 2.080452 1_555
Mg0 O6 2.144007 1_545
Mg0 O6 2.145030 1_445
Mg1 O7 2.062456 1_555
Mg1 O7 2.066492 1_655
Mg1 O0 2.091803 1_555
Mg1 O4 2.143561 1_565
Mg1 O4 2.146653 1_665
Mg2 O7 1.953290 1_554
Mg2 O2 1.966853 1_555
Mg2 O2 1.967313 1_455
Mg2 O6 2.013312 1_455
Mg3 O5 1.955356 1_556
Mg3 O1 1.965105 1_555
Mg3 O1 1.965824 1_655
Mg3 O4 2.018385 1_655
Fe0 O3 1.980331 1_555
Fe0 O3 1.981757 1_655
Fe0 O4 2.160809 1_655
Fe0 O4 2.163953 1_555
Fe1 O3 2.057810 1_555
Fe1 O2 2.114952 1_455
Fe1 O2 2.114992 1_555
Fe1 O5 2.282748 1_455
Fe1 O5 2.299226 1_555
Fe2 O0 2.043464 1_555
Fe2 O1 2.109899 1_555
Fe2 O1 2.111655 1_655
Fe2 O7 2.284747 1_655
Fe2 O7 2.304498 1_555
Fe3 O0 1.985518 1_555
Fe3 O0 1.986764 1_455
Fe3 O6 2.161623 1_455
Fe3 O6 2.165292 1_555
