# generated using pymatgen
data_Mg6MnMo
_symmetry_space_group_name_H-M   'P 1'
_cell_length_a   4.87948900
_cell_length_b   5.93913100
_cell_length_c   10.75790300
_cell_angle_alpha   90.00000000
_cell_angle_beta   90.00000000
_cell_angle_gamma   90.00000000
_symmetry_Int_Tables_number   1
_chemical_formula_structural   Mg6MnMo
_chemical_formula_sum   'Mg12 Mn2 Mo2'
_cell_volume   311.76321547
_cell_formula_units_Z   2
loop_
 _symmetry_equiv_pos_site_id
 _symmetry_equiv_pos_as_xyz
  1  'x, y, z'
loop_
 _atom_site_type_symbol
 _atom_site_label
 _atom_site_symmetry_multiplicity
 _atom_site_fract_x
 _atom_site_fract_y
 _atom_site_fract_z
 _atom_site_occupancy
  Mg  Mg0  1  0.50000000  0.25029700  0.41987000  1
  Mg  Mg1  1  0.50000000  0.74970300  0.41987000  1
  Mg  Mg2  1  0.00000000  0.74521200  0.08772600  1
  Mg  Mg3  1  0.00000000  0.25478800  0.08772600  1
  Mg  Mg4  1  0.00000000  0.00000000  0.32350400  1
  Mg  Mg5  1  0.00000000  0.50000000  0.32343000  1
  Mg  Mg6  1  0.50000000  0.75029700  0.91987000  1
  Mg  Mg7  1  0.50000000  0.24970300  0.91987000  1
  Mg  Mg8  1  0.00000000  0.24521200  0.58772600  1
  Mg  Mg9  1  0.00000000  0.75478800  0.58772600  1
  Mg  Mg10  1  0.00000000  0.50000000  0.82350400  1
  Mg  Mg11  1  0.00000000  0.00000000  0.82343000  1
  Mn  Mn0  1  0.50000000  0.00000000  0.16606000  1
  Mn  Mn1  1  0.50000000  0.50000000  0.66606000  1
  Mo  Mo0  1  0.50000000  0.50000000  0.17180800  1
  Mo  Mo1  1  0.50000000  0.00000000  0.67180800  1
loop_
_geom_bond_atom_site_label_1
_geom_bond_atom_site_label_2
_geom_bond_distance
_geom_bond_site_symmetry_2
Mg0 Mg1 2.966038 1_555
Mg0 Mg1 2.973093 1_545
Mg0 Mn1 3.035430 1_555
Mg0 Mg8 3.035474 1_655
Mg0 Mg8 3.035474 1_555
Mg0 Mg5 3.037777 1_655
Mg0 Mg5 3.037777 1_555
Mg0 Mg4 3.039229 1_655
Mg0 Mg4 3.039229 1_555
Mg0 Mo0 3.053017 1_555
Mg0 Mo1 3.091226 1_555
Mg0 Mn0 3.108899 1_555
Mg1 Mn1 3.035430 1_555
Mg1 Mg9 3.035474 1_555
Mg1 Mg9 3.035474 1_655
Mg1 Mg5 3.037777 1_655
Mg1 Mg5 3.037777 1_555
Mg1 Mg4 3.039229 1_565
Mg1 Mg4 3.039229 1_665
Mg1 Mo0 3.053017 1_555
Mg1 Mo1 3.091226 1_565
Mg1 Mn0 3.108899 1_565
Mg2 Mg3 2.912692 1_555
Mg2 Mg5 2.924145 1_555
Mg2 Mg4 2.953565 1_565
Mg2 Mo0 2.981862 1_555
Mg2 Mo0 2.981862 1_455
Mg2 Mn0 2.992047 1_565
Mg2 Mn0 2.992047 1_465
Mg2 Mg3 3.026439 1_565
Mg2 Mg6 3.035474 1_454
Mg2 Mg6 3.035474 1_554
Mg3 Mg5 2.924145 1_555
Mg3 Mg4 2.953565 1_555
Mg3 Mo0 2.981862 1_555
Mg3 Mo0 2.981862 1_455
Mg3 Mn0 2.992047 1_455
Mg3 Mn0 2.992047 1_555
Mg3 Mg7 3.035474 1_554
Mg3 Mg7 3.035474 1_454
Mg4 Mg5 2.969566 1_545
Mg4 Mg5 2.969566 1_555
Mg4 Mn0 2.970051 1_555
Mg4 Mn0 2.970051 1_455
Mg4 Mg8 3.193839 1_555
Mg4 Mg9 3.193839 1_545
Mg5 Mo0 2.934783 1_555
Mg5 Mo0 2.934783 1_455
Mg5 Mg9 3.220873 1_555
Mg5 Mg8 3.220873 1_555
Mg6 Mg7 2.966038 1_565
Mg6 Mg7 2.973093 1_555
Mg6 Mn0 3.035430 1_566
Mg6 Mo1 3.053017 1_565
Mg6 Mo0 3.091226 1_556
Mg6 Mn1 3.108899 1_555
Mg7 Mn0 3.035430 1_556
Mg7 Mo1 3.053017 1_555
Mg7 Mo0 3.091226 1_556
Mg7 Mn1 3.108899 1_555
Mg8 Mg9 2.912692 1_545
Mg8 Mo1 2.981862 1_555
Mg8 Mo1 2.981862 1_455
Mg8 Mn1 2.992047 1_555
Mg8 Mn1 2.992047 1_455
Mg8 Mg9 3.026439 1_555
Mg9 Mo1 2.981862 1_565
Mg9 Mo1 2.981862 1_465
Mg9 Mn1 2.992047 1_555
Mg9 Mn1 2.992047 1_455
Mg10 Mg9 2.953565 1_555
Mg10 Mg8 2.953565 1_555
Mg10 Mg11 2.969566 1_565
Mg10 Mg11 2.969566 1_555
Mg10 Mn1 2.970051 1_455
Mg10 Mn1 2.970051 1_555
Mg10 Mg6 3.039229 1_555
Mg10 Mg6 3.039229 1_455
Mg10 Mg7 3.039229 1_455
Mg10 Mg7 3.039229 1_555
Mg10 Mg3 3.193839 1_556
Mg10 Mg2 3.193839 1_556
Mg11 Mg8 2.924145 1_555
Mg11 Mg9 2.924145 1_545
Mg11 Mo1 2.934783 1_555
Mg11 Mo1 2.934783 1_455
Mg11 Mg7 3.037777 1_455
Mg11 Mg7 3.037777 1_555
Mg11 Mg6 3.037777 1_445
Mg11 Mg6 3.037777 1_545
Mg11 Mg2 3.220873 1_546
Mg11 Mg3 3.220873 1_556
Mn0 Mo0 2.970209 1_545
Mn0 Mo0 2.970209 1_555
Mn1 Mo1 2.970209 1_555
Mn1 Mo1 2.970209 1_565
