# generated using pymatgen
data_Rb3NaBe2F8
_symmetry_space_group_name_H-M   'P 1'
_cell_length_a   5.84364746
_cell_length_b   5.84364746
_cell_length_c   7.59933600
_cell_angle_alpha   90.00000000
_cell_angle_beta   90.00000000
_cell_angle_gamma   119.99999393
_symmetry_Int_Tables_number   1
_chemical_formula_structural   Rb3NaBe2F8
_chemical_formula_sum   'Rb3 Na1 Be2 F8'
_cell_volume   224.73686643
_cell_formula_units_Z   1
loop_
 _symmetry_equiv_pos_site_id
 _symmetry_equiv_pos_as_xyz
  1  'x, y, z'
loop_
 _atom_site_type_symbol
 _atom_site_label
 _atom_site_symmetry_multiplicity
 _atom_site_fract_x
 _atom_site_fract_y
 _atom_site_fract_z
 _atom_site_occupancy
  Rb  Rb0  1  0.33333300  0.66666700  0.18089300  1
  Rb  Rb1  1  0.00000000  0.00000000  0.50000000  1
  Rb  Rb2  1  0.66666700  0.33333300  0.81910700  1
  Na  Na0  1  0.00000000  0.00000000  0.00000000  1
  Be  Be0  1  0.33333300  0.66666700  0.74165200  1
  Be  Be1  1  0.66666700  0.33333300  0.25834800  1
  F  F0  1  0.37367400  0.18683700  0.18260300  1
  F  F1  1  0.62632600  0.81316300  0.81739700  1
  F  F2  1  0.81316300  0.18683700  0.18260300  1
  F  F3  1  0.81316300  0.62632600  0.18260300  1
  F  F4  1  0.33333300  0.66666700  0.54023700  1
  F  F5  1  0.66666700  0.33333300  0.45976300  1
  F  F6  1  0.18683700  0.81316300  0.81739700  1
  F  F7  1  0.18683700  0.37367400  0.81739700  1
loop_
_geom_bond_atom_site_label_1
_geom_bond_atom_site_label_2
_geom_bond_distance
_geom_bond_site_symmetry_2
Be0 F4 1.530620 1_555
Be0 F6 1.590566 1_555
Be0 F7 1.590571 1_555
Be0 F1 1.590571 1_555
Be1 F5 1.530620 1_555
Be1 F2 1.590566 1_555
Be1 F0 1.590571 1_555
Be1 F3 1.590571 1_555
F0 Na0 2.345581 1_555
F0 Rb0 2.928973 1_545
F0 Rb0 2.928979 1_555
F0 Rb1 3.064950 1_555
F0 Rb2 3.135131 1_554
F1 Na0 2.345581 1_666
F1 Rb2 2.928973 1_565
F1 Rb2 2.928979 1_555
F1 Rb1 3.064950 1_665
F1 Rb0 3.135131 1_556
F2 Na0 2.345581 1_655
F2 Rb0 2.928976 1_545
F2 Rb0 2.928976 1_655
F2 Rb1 3.064950 1_655
F2 Rb2 3.135128 1_554
F3 Na0 2.345581 1_665
F3 Rb0 2.928973 1_655
F3 Rb0 2.928979 1_555
F3 Rb1 3.064950 1_665
F3 Rb2 3.135131 1_554
F4 Rb0 2.730776 1_555
F4 Rb1 3.387656 1_565
F4 Rb1 3.387661 1_665
F4 Rb1 3.387661 1_555
F5 Rb2 2.730776 1_555
F5 Rb1 3.387656 1_655
F5 Rb1 3.387661 1_665
F5 Rb1 3.387661 1_555
F6 Na0 2.345581 1_566
F6 Rb2 2.928976 1_455
F6 Rb2 2.928976 1_565
F6 Rb1 3.064950 1_565
F6 Rb0 3.135128 1_556
F7 Na0 2.345581 1_556
F7 Rb2 2.928973 1_455
F7 Rb2 2.928979 1_555
F7 Rb1 3.064950 1_555
F7 Rb0 3.135131 1_556
