# generated using pymatgen
data_KCa3
_symmetry_space_group_name_H-M   'P 1'
_cell_length_a   7.08857264
_cell_length_b   7.08857264
_cell_length_c   7.08857264
_cell_angle_alpha   132.56447674
_cell_angle_beta   132.56447674
_cell_angle_gamma   69.33894510
_symmetry_Int_Tables_number   1
_chemical_formula_structural   KCa3
_chemical_formula_sum   'K1 Ca3'
_cell_volume   189.58187755
_cell_formula_units_Z   1
loop_
 _symmetry_equiv_pos_site_id
 _symmetry_equiv_pos_as_xyz
  1  'x, y, z'
loop_
 _atom_site_type_symbol
 _atom_site_label
 _atom_site_symmetry_multiplicity
 _atom_site_fract_x
 _atom_site_fract_y
 _atom_site_fract_z
 _atom_site_occupancy
  K  K0  1  0.00000000  0.00000000  0.00000000  1
  Ca  Ca0  1  0.75000000  0.25000000  0.50000000  1
  Ca  Ca1  1  0.25000000  0.75000000  0.50000000  1
  Ca  Ca2  1  0.50000000  0.50000000  0.00000000  1
loop_
_geom_bond_atom_site_label_1
_geom_bond_atom_site_label_2
_geom_bond_distance
_geom_bond_site_symmetry_2
Ca0 Ca1 4.032274 1_544
Ca0 Ca1 4.032274 1_645
Ca0 Ca1 4.032274 1_656
Ca0 Ca1 4.032274 1_555
Ca0 K0 4.077594 1_655
Ca0 K0 4.077594 1_656
Ca0 K0 4.077594 1_666
Ca0 Ca2 4.077594 1_555
Ca0 Ca2 4.077594 1_545
Ca0 Ca2 4.077594 1_556
Ca0 Ca2 4.077594 1_656
Ca0 K0 4.077594 1_555
Ca1 K0 4.077594 1_666
Ca1 Ca2 4.077594 1_455
Ca1 Ca2 4.077594 1_555
Ca1 Ca2 4.077594 1_556
Ca1 K0 4.077594 1_566
Ca1 K0 4.077594 1_555
Ca1 Ca2 4.077594 1_566
Ca1 K0 4.077594 1_565
Ca2 K0 4.032274 1_565
Ca2 K0 4.032274 1_655
Ca2 K0 4.032274 1_666
Ca2 K0 4.032274 1_554
