# generated using pymatgen
data_MgTi2
_symmetry_space_group_name_H-M   'P 1'
_cell_length_a   5.17804113
_cell_length_b   5.17804113
_cell_length_c   5.46476024
_cell_angle_alpha   63.81315399
_cell_angle_beta   63.81315399
_cell_angle_gamma   61.27150470
_symmetry_Int_Tables_number   1
_chemical_formula_structural   MgTi2
_chemical_formula_sum   'Mg2 Ti4'
_cell_volume   110.29962847
_cell_formula_units_Z   2
loop_
 _symmetry_equiv_pos_site_id
 _symmetry_equiv_pos_as_xyz
  1  'x, y, z'
loop_
 _atom_site_type_symbol
 _atom_site_label
 _atom_site_symmetry_multiplicity
 _atom_site_fract_x
 _atom_site_fract_y
 _atom_site_fract_z
 _atom_site_occupancy
  Mg  Mg0  1  0.08997800  0.91002200  0.25000000  1
  Mg  Mg1  1  0.91002200  0.08997800  0.75000000  1
  Ti  Ti0  1  0.24964000  0.41748100  0.75839000  1
  Ti  Ti1  1  0.58251900  0.75036000  0.74161000  1
  Ti  Ti2  1  0.41748100  0.24964000  0.25839000  1
  Ti  Ti3  1  0.75036000  0.58251900  0.24161000  1
loop_
_geom_bond_atom_site_label_1
_geom_bond_atom_site_label_2
_geom_bond_distance
_geom_bond_site_symmetry_2
Mg0 Mg1 2.892711 1_465
Mg0 Mg1 2.892711 1_464
Mg0 Ti1 2.941616 1_554
Mg0 Ti0 2.941616 1_555
Mg0 Ti1 2.950085 1_455
Mg0 Ti0 2.950085 1_564
Mg0 Ti3 2.987726 1_555
Mg0 Ti2 2.987726 1_555
Mg0 Ti3 2.996177 1_455
Mg0 Ti2 2.996177 1_565
Mg0 Ti2 3.043666 1_465
Mg0 Ti3 3.043666 1_465
Mg1 Ti2 2.941616 1_556
Mg1 Ti3 2.941616 1_555
Mg1 Ti3 2.950085 1_546
Mg1 Ti2 2.950085 1_655
Mg1 Ti1 2.987726 1_555
Mg1 Ti0 2.987726 1_555
Mg1 Ti1 2.996177 1_545
Mg1 Ti0 2.996177 1_655
Mg1 Ti0 3.043666 1_645
Mg1 Ti1 3.043666 1_645
Ti0 Ti3 2.868735 1_456
Ti0 Ti2 2.872356 1_556
Ti0 Ti2 2.872356 1_555
Ti0 Ti1 2.920190 1_555
Ti0 Ti3 2.994244 1_555
Ti0 Ti1 3.054237 1_545
Ti0 Ti1 3.054237 1_455
Ti1 Ti2 2.868735 1_565
Ti1 Ti3 2.872356 1_555
Ti1 Ti3 2.872356 1_556
Ti1 Ti2 2.994244 1_556
Ti2 Ti3 2.920190 1_555
Ti2 Ti3 3.054237 1_455
Ti2 Ti3 3.054237 1_545
