# generated using pymatgen
data_ScNb2B2Ru5
_symmetry_space_group_name_H-M   'P 1'
_cell_length_a   9.47581506
_cell_length_b   9.47581506
_cell_length_c   3.05266600
_cell_angle_alpha   90.00000000
_cell_angle_beta   90.00000000
_cell_angle_gamma   90.01836772
_symmetry_Int_Tables_number   1
_chemical_formula_structural   ScNb2B2Ru5
_chemical_formula_sum   'Sc2 Nb4 B4 Ru10'
_cell_volume   274.10213561
_cell_formula_units_Z   2
loop_
 _symmetry_equiv_pos_site_id
 _symmetry_equiv_pos_as_xyz
  1  'x, y, z'
loop_
 _atom_site_type_symbol
 _atom_site_label
 _atom_site_symmetry_multiplicity
 _atom_site_fract_x
 _atom_site_fract_y
 _atom_site_fract_z
 _atom_site_occupancy
  Sc  Sc0  1  0.17474200  0.17474200  0.00000000  1
  Sc  Sc1  1  0.82525800  0.82525800  0.00000000  1
  Nb  Nb0  1  0.50000000  0.00000000  0.00000000  1
  Nb  Nb1  1  0.00000000  0.50000000  0.00000000  1
  Nb  Nb2  1  0.67670700  0.32329300  0.00000000  1
  Nb  Nb3  1  0.32329300  0.67670700  0.00000000  1
  B  B0  1  0.37745400  0.37745400  0.00000000  1
  B  B1  1  0.62254600  0.62254600  0.00000000  1
  B  B2  1  0.88059800  0.11940200  0.00000000  1
  B  B3  1  0.11940200  0.88059800  0.00000000  1
  Ru  Ru0  1  0.50000000  0.50000000  0.50000000  1
  Ru  Ru1  1  0.00000000  0.00000000  0.50000000  1
  Ru  Ru2  1  0.43438600  0.21984700  0.50000000  1
  Ru  Ru3  1  0.56561400  0.78015300  0.50000000  1
  Ru  Ru4  1  0.92393600  0.28379400  0.50000000  1
  Ru  Ru5  1  0.07606400  0.71620600  0.50000000  1
  Ru  Ru6  1  0.71620600  0.07606400  0.50000000  1
  Ru  Ru7  1  0.28379400  0.92393600  0.50000000  1
  Ru  Ru8  1  0.78015300  0.56561400  0.50000000  1
  Ru  Ru9  1  0.21984700  0.43438600  0.50000000  1
loop_
_geom_bond_atom_site_label_1
_geom_bond_atom_site_label_2
_geom_bond_distance
_geom_bond_site_symmetry_2
Nb0 Ru6 2.654344 1_554
Nb0 Ru6 2.654344 1_555
Nb0 Ru7 2.654344 1_545
Nb0 Ru7 2.654344 1_544
Nb0 Ru2 2.656489 1_555
Nb0 Ru3 2.656489 1_544
Nb0 Ru3 2.656489 1_545
Nb0 Ru2 2.656489 1_554
Nb1 Ru4 2.654344 1_455
Nb1 Ru4 2.654344 1_454
Nb1 Ru5 2.654344 1_554
Nb1 Ru5 2.654344 1_555
Nb1 Ru9 2.656489 1_555
Nb1 Ru8 2.656489 1_455
Nb1 Ru8 2.656489 1_454
Nb1 Ru9 2.656489 1_554
Nb2 Ru0 2.817624 1_555
Nb2 Ru0 2.817624 1_554
Nb2 Ru6 2.821094 1_555
Nb2 Ru6 2.821094 1_554
Nb2 Ru4 2.821094 1_555
Nb2 Ru4 2.821094 1_554
Nb2 Ru8 2.926020 1_555
Nb2 Ru2 2.926020 1_555
Nb2 Ru8 2.926020 1_554
Nb2 Ru2 2.926020 1_554
Nb3 Ru0 2.817624 1_554
Nb3 Ru0 2.817624 1_555
Nb3 Ru5 2.821094 1_554
Nb3 Ru5 2.821094 1_555
Nb3 Ru7 2.821094 1_555
Nb3 Ru7 2.821094 1_554
Nb3 Ru3 2.926020 1_554
Nb3 Ru9 2.926020 1_555
Nb3 Ru3 2.926020 1_555
Nb3 Ru9 2.926020 1_554
B0 Ru2 2.202647 1_554
B0 Ru9 2.202647 1_554
B0 Ru2 2.202647 1_555
B0 Ru9 2.202647 1_555
B0 Ru0 2.241809 1_554
B0 Ru0 2.241809 1_555
B0 Sc0 2.716073 1_555
B0 Nb3 2.881897 1_555
B0 Nb2 2.881897 1_555
B1 Ru3 2.202647 1_555
B1 Ru8 2.202647 1_554
B1 Ru3 2.202647 1_554
B1 Ru8 2.202647 1_555
B1 Ru0 2.241809 1_554
B1 Ru0 2.241809 1_555
B1 Sc1 2.716073 1_555
B1 Nb3 2.881897 1_555
B1 Nb2 2.881897 1_555
B2 Ru1 2.211512 1_655
B2 Ru1 2.211512 1_654
B2 Ru4 2.219123 1_554
B2 Ru6 2.219123 1_555
B2 Ru6 2.219123 1_554
B2 Ru4 2.219123 1_555
B2 Nb2 2.732746 1_555
B2 Sc0 2.835989 1_655
B2 Sc1 2.835989 1_545
B3 Ru1 2.211512 1_565
B3 Ru1 2.211512 1_564
B3 Ru5 2.219123 1_555
B3 Ru5 2.219123 1_554
B3 Ru7 2.219123 1_555
B3 Ru7 2.219123 1_554
B3 Nb3 2.732746 1_555
B3 Sc0 2.835989 1_565
B3 Sc1 2.835989 1_455
Ru1 Sc1 2.794894 1_445
Ru1 Sc1 2.794894 1_446
Ru1 Sc0 2.794894 1_555
Ru1 Sc0 2.794894 1_556
Ru2 Sc0 2.926595 1_555
Ru2 Sc0 2.926595 1_556
Ru3 Sc1 2.926595 1_555
Ru3 Sc1 2.926595 1_556
Ru4 Sc0 3.007869 1_656
Ru4 Sc0 3.007869 1_655
Ru5 Sc1 3.007869 1_456
Ru5 Sc1 3.007869 1_455
Ru6 Sc1 3.007869 1_546
Ru6 Sc1 3.007869 1_545
Ru7 Sc0 3.007869 1_565
Ru7 Sc0 3.007869 1_566
Ru8 Sc1 2.926595 1_555
Ru8 Sc1 2.926595 1_556
Ru9 Sc0 2.926595 1_555
Ru9 Sc0 2.926595 1_556
