# generated using pymatgen
data_Ti4Co4Ge7
_symmetry_space_group_name_H-M   'P 1'
_cell_length_a   5.09066900
_cell_length_b   9.44403363
_cell_length_c   9.44403363
_cell_angle_alpha   85.83437847
_cell_angle_beta   74.36443219
_cell_angle_gamma   74.36443219
_symmetry_Int_Tables_number   1
_chemical_formula_structural   Ti4Co4Ge7
_chemical_formula_sum   'Ti8 Co8 Ge14'
_cell_volume   421.05455826
_cell_formula_units_Z   2
loop_
 _symmetry_equiv_pos_site_id
 _symmetry_equiv_pos_as_xyz
  1  'x, y, z'
loop_
 _atom_site_type_symbol
 _atom_site_label
 _atom_site_symmetry_multiplicity
 _atom_site_fract_x
 _atom_site_fract_y
 _atom_site_fract_z
 _atom_site_occupancy
  Ti  Ti0  1  0.13677800  0.00000000  0.72644400  1
  Ti  Ti1  1  0.86322200  0.00000000  0.27355600  1
  Ti  Ti2  1  0.86322200  0.27355600  0.00000000  1
  Ti  Ti3  1  0.13677800  0.72644400  0.00000000  1
  Ti  Ti4  1  0.50000000  0.19185200  0.80814800  1
  Ti  Ti5  1  0.50000000  0.80814800  0.19185200  1
  Ti  Ti6  1  0.30814800  0.19185200  0.19185200  1
  Ti  Ti7  1  0.69185200  0.80814800  0.80814800  1
  Co  Co0  1  0.40055100  0.50000000  0.19889800  1
  Co  Co1  1  0.09944900  0.50000000  0.80110200  1
  Co  Co2  1  0.09944900  0.80110200  0.50000000  1
  Co  Co3  1  0.40055100  0.19889800  0.50000000  1
  Co  Co4  1  0.59944900  0.80110200  0.50000000  1
  Co  Co5  1  0.90055100  0.19889800  0.50000000  1
  Co  Co6  1  0.90055100  0.50000000  0.19889800  1
  Co  Co7  1  0.59944900  0.50000000  0.80110200  1
  Ge  Ge0  1  0.29777200  0.00000000  0.40445700  1
  Ge  Ge1  1  0.70222800  0.00000000  0.59554300  1
  Ge  Ge2  1  0.70222800  0.59554300  0.00000000  1
  Ge  Ge3  1  0.29777200  0.40445700  0.00000000  1
  Ge  Ge4  1  0.00000000  0.28384800  0.71615200  1
  Ge  Ge5  1  0.00000000  0.71615200  0.28384800  1
  Ge  Ge6  1  0.71615200  0.28384800  0.28384800  1
  Ge  Ge7  1  0.28384800  0.71615200  0.71615200  1
  Ge  Ge8  1  0.50000000  0.40317200  0.59682800  1
  Ge  Ge9  1  0.50000000  0.59682800  0.40317200  1
  Ge  Ge10  1  0.09682800  0.40317200  0.40317200  1
  Ge  Ge11  1  0.90317200  0.59682800  0.59682800  1
  Ge  Ge12  1  0.75069100  0.00000000  0.00000000  1
  Ge  Ge13  1  0.24930900  0.00000000  0.00000000  1
loop_
_geom_bond_atom_site_label_1
_geom_bond_atom_site_label_2
_geom_bond_distance
_geom_bond_site_symmetry_2
Co0 Ge3 2.376296 1_555
Co0 Ge2 2.376296 1_555
Co0 Ge9 2.417955 1_555
Co0 Ge10 2.417955 1_555
Co0 Ge6 2.465962 1_555
Co0 Ge5 2.465962 1_555
Co1 Ge3 2.376299 1_556
Co1 Ge2 2.376299 1_456
Co1 Ge11 2.417955 1_455
Co1 Ge8 2.417955 1_555
Co1 Ge4 2.465961 1_555
Co1 Ge7 2.465961 1_555
Co2 Ge0 2.376299 1_565
Co2 Ge1 2.376299 1_465
Co2 Ge11 2.417955 1_455
Co2 Ge9 2.417955 1_555
Co2 Ge5 2.465961 1_555
Co2 Ge7 2.465961 1_555
Co3 Ge0 2.376296 1_555
Co3 Ge1 2.376296 1_555
Co3 Ge8 2.417955 1_555
Co3 Ge10 2.417955 1_555
Co3 Ge6 2.465962 1_555
Co3 Ge4 2.465962 1_555
Co4 Ge1 2.376296 1_565
Co4 Ge0 2.376296 1_565
Co4 Ge9 2.417955 1_555
Co4 Ge11 2.417955 1_555
Co4 Ge7 2.465962 1_555
Co4 Ge5 2.465962 1_655
Co5 Ge1 2.376299 1_555
Co5 Ge0 2.376299 1_655
Co5 Ge10 2.417955 1_655
Co5 Ge8 2.417955 1_555
Co5 Ge4 2.465961 1_655
Co5 Ge6 2.465961 1_555
Co6 Ge2 2.376299 1_555
Co6 Ge3 2.376299 1_655
Co6 Ge10 2.417955 1_655
Co6 Ge9 2.417955 1_555
Co6 Ge5 2.465961 1_655
Co6 Ge6 2.465961 1_555
Co7 Ge2 2.376296 1_556
Co7 Ge3 2.376296 1_556
Co7 Ge8 2.417955 1_555
Co7 Ge11 2.417955 1_555
Co7 Ge7 2.465962 1_555
Co7 Ge4 2.465962 1_655
Ge0 Ti5 2.604414 1_545
Ge0 Ti6 2.604414 1_555
Ge0 Ti1 2.809978 1_555
Ge0 Ti1 2.809982 1_455
Ge0 Ti0 2.928331 1_555
Ge1 Ti4 2.604414 1_555
Ge1 Ti7 2.604414 1_545
Ge1 Ti0 2.809978 1_555
Ge1 Ti0 2.809982 1_655
Ge1 Ti1 2.928331 1_555
Ge2 Ti5 2.604414 1_555
Ge2 Ti7 2.604414 1_554
Ge2 Ti3 2.809978 1_555
Ge2 Ti3 2.809982 1_655
Ge2 Ti2 2.928331 1_555
Ge3 Ti4 2.604414 1_554
Ge3 Ti6 2.604414 1_555
Ge3 Ti2 2.809978 1_555
Ge3 Ti2 2.809982 1_455
Ge3 Ti3 2.928331 1_555
Ge4 Ti0 2.583169 1_555
Ge4 Ti2 2.583169 1_456
Ge4 Ti4 2.806909 1_455
Ge4 Ti4 2.806909 1_555
Ge5 Ti1 2.583169 1_465
Ge5 Ti3 2.583169 1_555
Ge5 Ti5 2.806909 1_555
Ge5 Ti5 2.806909 1_455
Ge6 Ti1 2.583169 1_555
Ge6 Ti2 2.583169 1_555
Ge6 Ti6 2.806909 1_555
Ge6 Ti6 2.806909 1_655
Ge7 Ti3 2.583169 1_556
Ge7 Ti0 2.583169 1_565
Ge7 Ti7 2.806909 1_555
Ge7 Ti7 2.806909 1_455
Ge8 Ge9 2.490736 1_555
Ge8 Ti4 2.717924 1_555
Ge9 Ti5 2.717924 1_555
Ge10 Ge11 2.490736 1_455
Ge10 Ti6 2.717924 1_555
Ge11 Ti7 2.717924 1_555
Ge12 Ge13 2.538299 1_655
Ge12 Ge13 2.552370 1_555
Ge12 Ti7 2.778015 1_544
Ge12 Ti4 2.778016 1_554
Ge12 Ti5 2.778016 1_545
Ge12 Ti6 2.778016 1_555
Ge12 Ti1 2.792892 1_555
Ge12 Ti2 2.792892 1_555
Ge12 Ti0 2.792892 1_654
Ge12 Ti3 2.792892 1_645
Ge13 Ti6 2.778015 1_555
Ge13 Ti4 2.778016 1_554
Ge13 Ti5 2.778016 1_545
Ge13 Ti7 2.778016 1_544
Ge13 Ti3 2.792892 1_545
Ge13 Ti0 2.792892 1_554
Ge13 Ti1 2.792892 1_455
Ge13 Ti2 2.792892 1_455
