# generated using pymatgen
data_HfMg6FeO8
_symmetry_space_group_name_H-M   'P 1'
_cell_length_a   4.32553800
_cell_length_b   4.32553800
_cell_length_c   8.83689300
_cell_angle_alpha   90.00000000
_cell_angle_beta   90.00000000
_cell_angle_gamma   90.00000000
_symmetry_Int_Tables_number   1
_chemical_formula_structural   HfMg6FeO8
_chemical_formula_sum   'Hf1 Mg6 Fe1 O8'
_cell_volume   165.34073343
_cell_formula_units_Z   1
loop_
 _symmetry_equiv_pos_site_id
 _symmetry_equiv_pos_as_xyz
  1  'x, y, z'
loop_
 _atom_site_type_symbol
 _atom_site_label
 _atom_site_symmetry_multiplicity
 _atom_site_fract_x
 _atom_site_fract_y
 _atom_site_fract_z
 _atom_site_occupancy
  Hf  Hf0  1  0.50000000  0.50000000  0.00000000  1
  Mg  Mg0  1  0.00000000  0.00000000  0.50000000  1
  Mg  Mg1  1  0.50000000  0.50000000  0.50000000  1
  Mg  Mg2  1  0.00000000  0.50000000  0.25918600  1
  Mg  Mg3  1  0.00000000  0.50000000  0.74081400  1
  Mg  Mg4  1  0.50000000  0.00000000  0.25918600  1
  Mg  Mg5  1  0.50000000  0.00000000  0.74081400  1
  Fe  Fe0  1  0.00000000  0.00000000  0.00000000  1
  O  O0  1  0.00000000  0.00000000  0.26215300  1
  O  O1  1  0.00000000  0.00000000  0.73784700  1
  O  O2  1  0.50000000  0.50000000  0.25570700  1
  O  O3  1  0.50000000  0.50000000  0.74429300  1
  O  O4  1  0.00000000  0.50000000  0.00000000  1
  O  O5  1  0.00000000  0.50000000  0.50000000  1
  O  O6  1  0.50000000  0.00000000  0.00000000  1
  O  O7  1  0.50000000  0.00000000  0.50000000  1
loop_
_geom_bond_atom_site_label_1
_geom_bond_atom_site_label_2
_geom_bond_distance
_geom_bond_site_symmetry_2
Hf0 O4 2.162769 1_555
Hf0 O4 2.162769 1_655
Hf0 O6 2.162769 1_555
Hf0 O6 2.162769 1_565
Hf0 O2 2.259655 1_555
Hf0 O3 2.259655 1_554
Mg0 O0 2.101828 1_555
Mg0 O1 2.101828 1_555
Mg0 O5 2.162769 1_545
Mg0 O7 2.162769 1_555
Mg0 O5 2.162769 1_555
Mg0 O7 2.162769 1_455
Mg1 O2 2.158791 1_555
Mg1 O3 2.158791 1_555
Mg1 O5 2.162769 1_555
Mg1 O7 2.162769 1_565
Mg1 O5 2.162769 1_655
Mg1 O7 2.162769 1_555
Mg2 O5 2.128048 1_555
Mg2 O0 2.162928 1_555
Mg2 O0 2.162928 1_565
Mg2 O2 2.162987 1_455
Mg2 O2 2.162987 1_555
Mg2 O4 2.290399 1_555
Mg3 O5 2.128048 1_555
Mg3 O1 2.162928 1_555
Mg3 O1 2.162928 1_565
Mg3 O3 2.162987 1_555
Mg3 O3 2.162987 1_455
Mg3 O4 2.290399 1_556
Mg4 O7 2.128048 1_555
Mg4 O0 2.162928 1_555
Mg4 O0 2.162928 1_655
Mg4 O2 2.162987 1_555
Mg4 O2 2.162987 1_545
Mg4 O6 2.290399 1_555
Mg5 O7 2.128048 1_555
Mg5 O1 2.162928 1_555
Mg5 O1 2.162928 1_655
Mg5 O3 2.162987 1_545
Mg5 O3 2.162987 1_555
Mg5 O6 2.290399 1_556
Fe0 O4 2.162769 1_555
Fe0 O6 2.162769 1_455
Fe0 O4 2.162769 1_545
Fe0 O6 2.162769 1_555
Fe0 O1 2.316618 1_554
Fe0 O0 2.316618 1_555
