# generated using pymatgen
data_Sr3Ta2ZnO9
_symmetry_space_group_name_H-M   'P 1'
_cell_length_a   5.72531145
_cell_length_b   5.72531145
_cell_length_c   7.07413900
_cell_angle_alpha   90.00000000
_cell_angle_beta   90.00000000
_cell_angle_gamma   119.99999363
_symmetry_Int_Tables_number   1
_chemical_formula_structural   Sr3Ta2ZnO9
_chemical_formula_sum   'Sr3 Ta2 Zn1 O9'
_cell_volume   200.81792805
_cell_formula_units_Z   1
loop_
 _symmetry_equiv_pos_site_id
 _symmetry_equiv_pos_as_xyz
  1  'x, y, z'
loop_
 _atom_site_type_symbol
 _atom_site_label
 _atom_site_symmetry_multiplicity
 _atom_site_fract_x
 _atom_site_fract_y
 _atom_site_fract_z
 _atom_site_occupancy
  Sr  Sr0  1  0.00000000  0.00000000  0.00000000  1
  Sr  Sr1  1  0.66666700  0.33333300  0.33780500  1
  Sr  Sr2  1  0.33333300  0.66666700  0.66219500  1
  Ta  Ta0  1  0.66666700  0.33333300  0.82349900  1
  Ta  Ta1  1  0.33333300  0.66666700  0.17650100  1
  Zn  Zn0  1  0.00000000  0.00000000  0.50000000  1
  O  O0  1  0.50000000  0.00000000  0.00000000  1
  O  O1  1  0.50000000  0.50000000  0.00000000  1
  O  O2  1  0.00000000  0.50000000  0.00000000  1
  O  O3  1  0.83035600  0.66071200  0.67677900  1
  O  O4  1  0.83035600  0.16964400  0.67677900  1
  O  O5  1  0.33928800  0.16964400  0.67677900  1
  O  O6  1  0.16964400  0.33928800  0.32322100  1
  O  O7  1  0.16964400  0.83035600  0.32322100  1
  O  O8  1  0.66071200  0.83035600  0.32322100  1
loop_
_geom_bond_atom_site_label_1
_geom_bond_atom_site_label_2
_geom_bond_distance
_geom_bond_site_symmetry_2
O0 Ta1 2.071371 1_545
O0 Ta0 2.071371 1_554
O0 Sr0 2.862656 1_555
O0 Sr0 2.862656 1_655
O0 Sr2 2.905540 1_544
O0 Sr1 2.905540 1_555
O1 Ta1 2.071375 1_555
O1 Ta0 2.071375 1_554
O1 Sr0 2.862656 1_555
O1 Sr0 2.862656 1_665
O1 Sr1 2.905543 1_555
O1 Sr2 2.905543 1_554
O2 Ta1 2.071371 1_555
O2 Ta0 2.071371 1_454
O2 Sr0 2.862656 1_555
O2 Sr0 2.862656 1_565
O2 Sr1 2.905540 1_455
O2 Sr2 2.905540 1_554
O3 Ta0 1.926695 1_555
O3 Zn0 2.096178 1_665
O3 Sr0 2.838696 1_666
O3 Sr2 2.864664 1_655
O3 Sr2 2.864669 1_555
O3 Sr1 2.895694 1_555
O4 Ta0 1.926691 1_555
O4 Zn0 2.096178 1_655
O4 Sr0 2.838696 1_656
O4 Sr2 2.864667 1_545
O4 Sr2 2.864667 1_655
O4 Sr1 2.895691 1_555
O5 Ta0 1.926695 1_555
O5 Zn0 2.096178 1_555
O5 Sr0 2.838696 1_556
O5 Sr2 2.864664 1_545
O5 Sr2 2.864669 1_555
O5 Sr1 2.895694 1_555
O6 Ta1 1.926695 1_555
O6 Zn0 2.096178 1_555
O6 Sr0 2.838696 1_555
O6 Sr1 2.864664 1_455
O6 Sr1 2.864669 1_555
O6 Sr2 2.895694 1_555
O7 Ta1 1.926691 1_555
O7 Zn0 2.096178 1_565
O7 Sr0 2.838696 1_565
O7 Sr1 2.864667 1_455
O7 Sr1 2.864667 1_565
O7 Sr2 2.895691 1_555
O8 Ta1 1.926695 1_555
O8 Zn0 2.096178 1_665
O8 Sr0 2.838696 1_665
O8 Sr1 2.864664 1_565
O8 Sr1 2.864669 1_555
O8 Sr2 2.895694 1_555
