# generated using pymatgen
data_Zn(CuO2)2
_symmetry_space_group_name_H-M   'P 1'
_cell_length_a   5.91960152
_cell_length_b   5.91963000
_cell_length_c   17.73811493
_cell_angle_alpha   59.96300095
_cell_angle_beta   59.96267736
_cell_angle_gamma   60.04597452
_symmetry_Int_Tables_number   1
_chemical_formula_structural   Zn(CuO2)2
_chemical_formula_sum   'Zn6 Cu12 O24'
_cell_volume   439.42608746
_cell_formula_units_Z   6
loop_
 _symmetry_equiv_pos_site_id
 _symmetry_equiv_pos_as_xyz
  1  'x, y, z'
loop_
 _atom_site_type_symbol
 _atom_site_label
 _atom_site_symmetry_multiplicity
 _atom_site_fract_x
 _atom_site_fract_y
 _atom_site_fract_z
 _atom_site_occupancy
  Zn  Zn0  1  0.12009700  0.12011000  0.04659600  1
  Zn  Zn1  1  0.12087300  0.12087000  0.37906900  1
  Zn  Zn2  1  0.49972500  0.49973400  0.33371500  1
  Zn  Zn3  1  0.12261200  0.12260700  0.71065300  1
  Zn  Zn4  1  0.50062300  0.50064100  0.99934200  1
  Zn  Zn5  1  0.87670400  0.87669700  0.62332500  1
  Cu  Cu0  1  0.49950000  0.49949400  0.16710000  1
  Cu  Cu1  1  0.49953300  0.99979100  0.16707200  1
  Cu  Cu2  1  0.50026100  0.50025000  0.50002000  1
  Cu  Cu3  1  0.99979600  0.49953100  0.16706700  1
  Cu  Cu4  1  0.50047200  0.99924600  0.49999100  1
  Cu  Cu5  1  0.50000500  0.50000700  0.66670300  1
  Cu  Cu6  1  0.87768600  0.87769000  0.28908600  1
  Cu  Cu7  1  0.49955100  0.49954900  0.83363200  1
  Cu  Cu8  1  0.99924700  0.50046400  0.49998300  1
  Cu  Cu9  1  0.49953000  0.99976700  0.83367900  1
  Cu  Cu10  1  0.99978300  0.49953400  0.83368800  1
  Cu  Cu11  1  0.87604600  0.87606400  0.95727700  1
  O  O0  1  0.25437600  0.25435300  0.09255700  1
  O  O1  1  0.25634200  0.25632700  0.24388100  1
  O  O2  1  0.25404600  0.71361700  0.09262800  1
  O  O3  1  0.71361600  0.25403700  0.09263000  1
  O  O4  1  0.25306700  0.25301500  0.42633400  1
  O  O5  1  0.28288800  0.74887600  0.23988700  1
  O  O6  1  0.25861700  0.25865300  0.57488000  1
  O  O7  1  0.74886200  0.28289500  0.23988600  1
  O  O8  1  0.74502800  0.74505800  0.08797200  1
  O  O9  1  0.25283300  0.71521600  0.42620700  1
  O  O10  1  0.71522200  0.25280000  0.42621600  1
  O  O11  1  0.74853600  0.74856000  0.23997500  1
  O  O12  1  0.26273200  0.26278000  0.75361000  1
  O  O13  1  0.28878900  0.73906600  0.57792900  1
  O  O14  1  0.73902400  0.28878000  0.57794200  1
  O  O15  1  0.25843700  0.25844500  0.90822400  1
  O  O16  1  0.74591200  0.74586600  0.42081700  1
  O  O17  1  0.26251200  0.71380900  0.75350600  1
  O  O18  1  0.71379600  0.26254900  0.75350700  1
  O  O19  1  0.73880500  0.73886600  0.57782200  1
  O  O20  1  0.27617000  0.74954200  0.90838400  1
  O  O21  1  0.74958800  0.27615900  0.90837900  1
  O  O22  1  0.73935300  0.73933200  0.76051100  1
  O  O23  1  0.74939900  0.74935300  0.90831300  1
loop_
_geom_bond_atom_site_label_1
_geom_bond_atom_site_label_2
_geom_bond_distance
_geom_bond_site_symmetry_2
Cu0 O7 1.962269 1_555
Cu0 O5 1.962364 1_555
Cu0 O3 1.966957 1_555
Cu0 O2 1.966970 1_555
Cu0 O1 2.035345 1_555
Cu0 O8 2.054391 1_555
Cu1 O5 1.960213 1_555
Cu1 O11 1.962281 1_555
Cu1 O3 1.963311 1_565
Cu1 O0 1.966316 1_565
Cu1 O1 2.039472 1_565
Cu1 O8 2.059819 1_555
Cu2 O10 1.967089 1_555
Cu2 O9 1.967107 1_555
Cu2 O14 1.982898 1_555
Cu2 O13 1.982958 1_555
Cu2 O6 2.023586 1_555
Cu2 O16 2.055102 1_555
Cu3 O7 1.960256 1_555
Cu3 O11 1.962451 1_555
Cu3 O2 1.963341 1_655
Cu3 O0 1.966345 1_655
Cu3 O1 2.039581 1_655
Cu3 O8 2.059911 1_555
Cu4 O10 1.963405 1_565
Cu4 O4 1.965275 1_565
Cu4 O13 1.978612 1_555
Cu4 O19 1.979968 1_555
Cu4 O6 2.028577 1_565
Cu4 O16 2.054965 1_555
Cu5 O18 1.988944 1_555
Cu5 O17 1.988969 1_555
Cu5 O12 1.988980 1_555
Cu5 O19 2.004061 1_555
Cu5 O14 2.004561 1_555
Cu5 O13 2.004696 1_555
Cu6 O16 1.906581 1_555
Cu6 O5 1.959737 1_655
Cu6 O7 1.959768 1_565
Cu6 O11 1.960779 1_555
Cu7 O20 1.987884 1_555
Cu7 O21 1.988017 1_555
Cu7 O18 2.002887 1_555
Cu7 O17 2.003068 1_555
Cu7 O22 2.009453 1_555
Cu7 O15 2.019403 1_555
Cu8 O9 1.963553 1_655
Cu8 O4 1.965377 1_655
Cu8 O14 1.978800 1_555
Cu8 O19 1.980358 1_555
Cu8 O6 2.028517 1_655
Cu8 O16 2.054680 1_555
Cu9 O20 1.983668 1_555
Cu9 O23 1.985953 1_555
Cu9 O18 2.000199 1_565
Cu9 O12 2.001523 1_565
Cu9 O22 2.012352 1_555
Cu9 O15 2.021265 1_565
Cu10 O21 1.983607 1_555
Cu10 O23 1.985625 1_555
Cu10 O17 2.000001 1_655
Cu10 O12 2.001422 1_655
Cu10 O22 2.012442 1_555
Cu10 O15 2.021056 1_655
Cu11 O8 1.891588 1_556
Cu11 O23 1.935107 1_555
Cu11 O21 1.935212 1_565
Cu11 O20 1.935332 1_655
O0 Zn0 1.963701 1_555
O0 Zn4 2.068894 1_554
O1 Zn1 1.956616 1_555
O2 Zn0 1.965068 1_565
O2 Zn4 2.071453 1_554
O3 Zn0 1.964995 1_655
O3 Zn4 2.071553 1_554
O4 Zn1 1.962611 1_555
O4 Zn2 2.071218 1_555
O5 Zn2 2.093718 1_555
O6 Zn3 1.965083 1_555
O7 Zn2 2.093733 1_555
O9 Zn1 1.961195 1_565
O9 Zn2 2.070673 1_555
O10 Zn1 1.961167 1_655
O10 Zn2 2.070858 1_555
O11 Zn2 2.089607 1_555
O12 Zn3 1.977407 1_555
O13 Zn5 1.992079 1_455
O14 Zn5 1.992086 1_545
O15 Zn0 2.002698 1_556
O17 Zn3 1.976642 1_565
O18 Zn3 1.976714 1_655
O19 Zn5 1.991869 1_555
O20 Zn4 2.085838 1_555
O21 Zn4 2.086013 1_555
O22 Zn5 1.985533 1_555
O23 Zn4 2.085234 1_555
