# generated using pymatgen
data_CePuCo4
_symmetry_space_group_name_H-M   'P 1'
_cell_length_a   4.91290296
_cell_length_b   4.91290296
_cell_length_c   4.91290296
_cell_angle_alpha   60.00000000
_cell_angle_beta   60.00000000
_cell_angle_gamma   60.00000000
_symmetry_Int_Tables_number   1
_chemical_formula_structural   CePuCo4
_chemical_formula_sum   'Ce1 Pu1 Co4'
_cell_volume   83.84932307
_cell_formula_units_Z   1
loop_
 _symmetry_equiv_pos_site_id
 _symmetry_equiv_pos_as_xyz
  1  'x, y, z'
loop_
 _atom_site_type_symbol
 _atom_site_label
 _atom_site_symmetry_multiplicity
 _atom_site_fract_x
 _atom_site_fract_y
 _atom_site_fract_z
 _atom_site_occupancy
  Ce  Ce0  1  0.25000000  0.25000000  0.25000000  1
  Pu  Pu0  1  0.00000000  0.00000000  0.00000000  1
  Co  Co0  1  0.62689000  0.62689000  0.11932900  1
  Co  Co1  1  0.62689000  0.11932900  0.62689000  1
  Co  Co2  1  0.11932900  0.62689000  0.62689000  1
  Co  Co3  1  0.62689000  0.62689000  0.62689000  1
loop_
_geom_bond_atom_site_label_1
_geom_bond_atom_site_label_2
_geom_bond_distance
_geom_bond_site_symmetry_2
Ce0 Co2 2.884489 1_555
Ce0 Co0 2.884489 1_555
Ce0 Co1 2.884489 1_555
Ce0 Co3 2.884491 1_455
Ce0 Co3 2.884491 1_554
Ce0 Co3 2.884491 1_545
Ce0 Co1 2.884493 1_554
Ce0 Co2 2.884493 1_545
Ce0 Co2 2.884493 1_554
Ce0 Co0 2.884493 1_545
Ce0 Co0 2.884493 1_455
Ce0 Co1 2.884493 1_455
Ce0 Pu0 3.008526 1_555
Ce0 Pu0 3.008526 1_556
Ce0 Pu0 3.008526 1_565
Ce0 Pu0 3.008526 1_655
Co0 Co2 2.419305 1_654
Co0 Co1 2.419305 1_564
Co0 Co3 2.419305 1_554
Co0 Co3 2.493598 1_555
Co0 Co2 2.493598 1_555
Co0 Co1 2.493598 1_555
Co0 Pu0 2.876571 1_565
Co0 Pu0 2.876571 1_655
Co0 Pu0 2.876575 1_665
Co1 Co3 2.419305 1_545
Co1 Co2 2.419305 1_645
Co1 Co3 2.493598 1_555
Co1 Co2 2.493598 1_555
Co1 Pu0 2.876571 1_556
Co1 Pu0 2.876571 1_655
Co1 Pu0 2.876575 1_656
Co2 Co3 2.419305 1_455
Co2 Co3 2.493598 1_555
Co2 Pu0 2.876571 1_556
Co2 Pu0 2.876571 1_565
Co2 Pu0 2.876575 1_566
Co3 Pu0 2.876573 1_665
Co3 Pu0 2.876573 1_566
Co3 Pu0 2.876573 1_656
