# generated using pymatgen
data_K2Nd2Ti3O10
_symmetry_space_group_name_H-M   'P 1'
_cell_length_a   15.19820412
_cell_length_b   15.19483684
_cell_length_c   3.90434391
_cell_angle_alpha   82.66829464
_cell_angle_beta   82.57028466
_cell_angle_gamma   14.76142070
_symmetry_Int_Tables_number   1
_chemical_formula_structural   K2Nd2Ti3O10
_chemical_formula_sum   'K2 Nd2 Ti3 O10'
_cell_volume   227.79419466
_cell_formula_units_Z   1
loop_
 _symmetry_equiv_pos_site_id
 _symmetry_equiv_pos_as_xyz
  1  'x, y, z'
loop_
 _atom_site_type_symbol
 _atom_site_label
 _atom_site_symmetry_multiplicity
 _atom_site_fract_x
 _atom_site_fract_y
 _atom_site_fract_z
 _atom_site_occupancy
  K  K0  1  0.70678400  0.70887700  0.29112300  1
  K  K1  1  0.29112300  0.29321600  0.70678400  1
  Nd  Nd0  1  0.55231900  0.59140700  0.40859300  1
  Nd  Nd1  1  0.40859300  0.44768100  0.55231900  1
  Ti  Ti0  1  0.13665500  0.14186100  0.85813900  1
  Ti  Ti1  1  0.85813900  0.86334500  0.13665500  1
  Ti  Ti2  1  0.01072100  0.98927900  0.01072100  1
  O  O0  1  0.09057800  0.03789900  0.96210100  1
  O  O1  1  0.96210100  0.90942200  0.09057800  1
  O  O2  1  0.19842500  0.19849200  0.80150800  1
  O  O3  1  0.80150800  0.80157500  0.19842500  1
  O  O4  1  0.12609300  0.12513700  0.37845100  1
  O  O5  1  0.62968100  0.62154900  0.87486300  1
  O  O6  1  0.87486300  0.87390700  0.62968100  1
  O  O7  1  0.37845100  0.37031900  0.12609300  1
  O  O8  1  0.52964800  0.47035200  0.05531700  1
  O  O9  1  0.05531700  0.94468300  0.52964800  1
loop_
_geom_bond_atom_site_label_1
_geom_bond_atom_site_label_2
_geom_bond_distance
_geom_bond_site_symmetry_2
K0 O2 2.765731 1_654
K0 O2 2.765731 1_565
K0 O2 2.778582 1_564
K0 O2 2.789750 1_655
K0 O3 2.800772 1_555
K0 O4 3.134560 1_565
K0 O5 3.134560 1_554
K0 O4 3.142132 1_655
K0 O5 3.142132 1_555
K1 O3 2.765731 1_545
K1 O3 2.765731 1_456
K1 O3 2.778582 1_455
K1 O3 2.789750 1_546
K1 O2 2.800772 1_555
K1 O7 3.134560 1_555
K1 O6 3.134560 1_455
K1 O6 3.142132 1_545
K1 O7 3.142132 1_556
Nd0 O4 2.469594 1_565
Nd0 O5 2.469594 1_554
Nd0 O0 2.526141 1_564
Nd0 O4 2.591169 1_655
Nd0 O5 2.591169 1_555
Nd0 O9 2.720448 1_555
Nd0 O8 2.720448 1_555
Nd0 O0 2.772602 1_565
Nd0 O0 2.772602 1_654
Nd0 O0 3.032811 1_655
Nd0 O9 3.113399 1_645
Nd0 O8 3.113399 1_556
Nd1 O7 2.469594 1_555
Nd1 O6 2.469594 1_455
Nd1 O1 2.526141 1_455
Nd1 O7 2.591169 1_556
Nd1 O6 2.591169 1_545
Nd1 O8 2.720448 1_555
Nd1 O9 2.720448 1_555
Nd1 O1 2.772602 1_545
Nd1 O1 2.772602 1_456
Nd1 O1 3.032811 1_546
Nd1 O8 3.113399 1_556
Nd1 O9 3.113399 1_645
O0 Ti2 1.921863 1_546
O0 Ti0 2.247854 1_555
O1 Ti2 1.921863 1_655
O1 Ti1 2.247854 1_555
O2 Ti0 1.769399 1_555
O3 Ti1 1.769399 1_555
O4 Ti0 1.968778 1_555
O4 Ti0 2.019911 1_554
O5 Ti0 1.968778 1_655
O5 Ti0 2.019911 1_565
O6 Ti1 1.968778 1_556
O6 Ti1 2.019911 1_555
O7 Ti1 1.968778 1_545
O7 Ti1 2.019911 1_455
O8 Ti2 1.885163 1_645
O8 Ti2 2.034702 1_555
O9 Ti2 1.885163 1_556
O9 Ti2 2.034702 1_555
