# generated using pymatgen
data_LaGd3(ClO)4
_symmetry_space_group_name_H-M   'P 1'
_cell_length_a   7.98511409
_cell_length_b   7.98511409
_cell_length_c   3.98599600
_cell_angle_alpha   90.00000000
_cell_angle_beta   90.00000000
_cell_angle_gamma   120.12546757
_symmetry_Int_Tables_number   1
_chemical_formula_structural   LaGd3(ClO)4
_chemical_formula_sum   'La1 Gd3 Cl4 O4'
_cell_volume   219.82611036
_cell_formula_units_Z   1
loop_
 _symmetry_equiv_pos_site_id
 _symmetry_equiv_pos_as_xyz
  1  'x, y, z'
loop_
 _atom_site_type_symbol
 _atom_site_label
 _atom_site_symmetry_multiplicity
 _atom_site_fract_x
 _atom_site_fract_y
 _atom_site_fract_z
 _atom_site_occupancy
  La  La0  1  0.15963600  0.84036400  0.00000000  1
  Gd  Gd0  1  0.66824200  0.33175800  0.00000000  1
  Gd  Gd1  1  0.58385200  0.91566000  0.50000000  1
  Gd  Gd2  1  0.08434000  0.41614800  0.50000000  1
  Cl  Cl0  1  0.93402100  0.06597900  0.00000000  1
  Cl  Cl1  1  0.43317900  0.56682100  0.00000000  1
  Cl  Cl2  1  0.80752300  0.67731800  0.50000000  1
  Cl  Cl3  1  0.32268200  0.19247700  0.50000000  1
  O  O0  1  0.25187200  0.74812800  0.50000000  1
  O  O1  1  0.75128600  0.24871400  0.50000000  1
  O  O2  1  0.99765800  0.49429100  0.00000000  1
  O  O3  1  0.50570900  0.00234200  0.00000000  1
loop_
_geom_bond_atom_site_label_1
_geom_bond_atom_site_label_2
_geom_bond_distance
_geom_bond_site_symmetry_2
La0 O0 2.366740 1_554
La0 O0 2.366740 1_555
La0 O3 2.392001 1_565
La0 O2 2.392001 1_455
Gd0 O3 2.275239 1_555
Gd0 O2 2.275239 1_555
Gd0 O1 2.300625 1_554
Gd0 O1 2.300625 1_555
Gd1 O0 2.292849 1_555
Gd1 O3 2.296524 1_565
Gd1 O3 2.296524 1_566
Gd1 O1 2.300256 1_565
Gd2 O0 2.292849 1_555
Gd2 O2 2.296524 1_455
Gd2 O2 2.296524 1_456
Gd2 O1 2.300256 1_455
Cl0 La0 3.122367 1_645
Cl0 Gd1 3.140418 1_544
Cl0 Gd1 3.140418 1_545
Cl0 Gd2 3.140418 1_654
Cl0 Gd2 3.140418 1_655
Cl1 Gd1 3.132831 1_554
Cl1 Gd1 3.132831 1_555
Cl1 Gd2 3.132831 1_554
Cl1 Gd2 3.132831 1_555
Cl1 Gd0 3.253121 1_555
Cl2 Gd0 3.121284 1_556
Cl2 Gd0 3.121284 1_555
Cl2 La0 3.146116 1_655
Cl2 La0 3.146116 1_656
Cl2 Gd1 3.197516 1_555
Cl3 Gd0 3.121284 1_556
Cl3 Gd0 3.121284 1_555
Cl3 La0 3.146116 1_546
Cl3 La0 3.146116 1_545
Cl3 Gd2 3.197516 1_555
