# generated using pymatgen
data_Te8Pd5Se2
_symmetry_space_group_name_H-M   'P 1'
_cell_length_a   17.73699979
_cell_length_b   17.73699979
_cell_length_c   5.12553131
_cell_angle_alpha   89.91809027
_cell_angle_beta   89.91809027
_cell_angle_gamma   13.15786206
_symmetry_Int_Tables_number   1
_chemical_formula_structural   Te8Pd5Se2
_chemical_formula_sum   'Te8 Pd5 Se2'
_cell_volume   367.06029322
_cell_formula_units_Z   1
loop_
 _symmetry_equiv_pos_site_id
 _symmetry_equiv_pos_as_xyz
  1  'x, y, z'
loop_
 _atom_site_type_symbol
 _atom_site_label
 _atom_site_symmetry_multiplicity
 _atom_site_fract_x
 _atom_site_fract_y
 _atom_site_fract_z
 _atom_site_occupancy
  Te  Te0  1  0.67086500  0.67086500  0.72720800  1
  Te  Te1  1  0.27228800  0.27228800  0.73202200  1
  Te  Te2  1  0.87420300  0.87420300  0.73026200  1
  Te  Te3  1  0.53754800  0.53754800  0.26897200  1
  Te  Te4  1  0.13688100  0.13688100  0.25840700  1
  Te  Te5  1  0.73882000  0.73882000  0.26624300  1
  Te  Te6  1  0.34077700  0.34077700  0.26460800  1
  Te  Te7  1  0.94069700  0.94069700  0.27255200  1
  Pd  Pd0  1  0.00605000  0.00605000  0.99290700  1
  Pd  Pd1  1  0.60312100  0.60312100  0.99162200  1
  Pd  Pd2  1  0.20472400  0.20472400  0.99826500  1
  Pd  Pd3  1  0.80641700  0.80641700  0.99880000  1
  Pd  Pd4  1  0.40833900  0.40833900  0.99900100  1
  Se  Se0  1  0.07118900  0.07118900  0.74848800  1
  Se  Se1  1  0.47380300  0.47380300  0.75064300  1
loop_
_geom_bond_atom_site_label_1
_geom_bond_atom_site_label_2
_geom_bond_distance
_geom_bond_site_symmetry_2
Pd0 Se0 2.613543 1_555
Pd0 Se1 2.639514 1_455
Pd0 Se1 2.639514 1_545
Pd0 Te7 2.710912 1_446
Pd0 Te3 2.714493 1_546
Pd0 Te3 2.714493 1_456
Pd1 Se0 2.636854 1_655
Pd1 Se0 2.636854 1_565
Pd1 Te3 2.711324 1_556
Pd1 Te4 2.723896 1_566
Pd1 Te4 2.723896 1_656
Pd1 Te0 2.743492 1_555
Pd2 Te5 2.732170 1_546
Pd2 Te5 2.732170 1_456
Pd2 Te4 2.735815 1_556
Pd2 Te0 2.736489 1_455
Pd2 Te0 2.736489 1_545
Pd2 Te1 2.742619 1_555
Pd3 Te1 2.729592 1_565
Pd3 Te1 2.729592 1_655
Pd3 Te6 2.730707 1_656
Pd3 Te6 2.730707 1_566
Pd3 Te5 2.746685 1_556
Pd3 Te2 2.755251 1_555
Pd4 Se1 2.633275 1_555
Pd4 Te7 2.720377 1_546
Pd4 Te7 2.720377 1_456
Pd4 Te2 2.734756 1_455
Pd4 Te2 2.734756 1_545
Pd4 Te6 2.740942 1_556
