# generated using pymatgen
data_CaSbAu
_symmetry_space_group_name_H-M   'P 1'
_cell_length_a   4.64950771
_cell_length_b   4.64950844
_cell_length_c   8.24168948
_cell_angle_alpha   90.00000000
_cell_angle_beta   90.00000000
_cell_angle_gamma   120.00000201
_symmetry_Int_Tables_number   1
_chemical_formula_structural   CaSbAu
_chemical_formula_sum   'Ca2 Sb2 Au2'
_cell_volume   154.29820824
_cell_formula_units_Z   2
loop_
 _symmetry_equiv_pos_site_id
 _symmetry_equiv_pos_as_xyz
  1  'x, y, z'
loop_
 _atom_site_type_symbol
 _atom_site_label
 _atom_site_symmetry_multiplicity
 _atom_site_fract_x
 _atom_site_fract_y
 _atom_site_fract_z
 _atom_site_occupancy
  Ca  Ca0  1  0.00000000  0.00000000  0.00000000  1
  Ca  Ca1  1  0.00000000  0.00000000  0.50000000  1
  Sb  Sb0  1  0.33333300  0.66666700  0.75000000  1
  Sb  Sb1  1  0.66666700  0.33333300  0.25000000  1
  Au  Au0  1  0.33333300  0.66666700  0.25000000  1
  Au  Au1  1  0.66666700  0.33333300  0.75000000  1
loop_
_geom_bond_atom_site_label_1
_geom_bond_atom_site_label_2
_geom_bond_distance
_geom_bond_site_symmetry_2
Ca0 Sb1 3.383977 1_455
Ca0 Sb0 3.383977 1_544
Ca0 Sb1 3.383980 1_555
Ca0 Sb0 3.383980 1_444
Ca0 Sb1 3.383980 1_445
Ca0 Sb0 3.383980 1_554
Ca1 Sb0 3.383977 1_545
Ca1 Sb1 3.383977 1_455
Ca1 Sb1 3.383980 1_555
Ca1 Sb0 3.383980 1_445
Ca1 Sb1 3.383980 1_445
Ca1 Sb0 3.383980 1_555
Au0 Sb1 2.684392 1_455
Au0 Sb1 2.684392 1_565
Au0 Sb1 2.684400 1_555
Au0 Ca1 3.383977 1_565
Au0 Ca0 3.383977 1_565
Au0 Ca1 3.383980 1_665
Au0 Ca0 3.383980 1_665
Au0 Ca0 3.383980 1_555
Au0 Ca1 3.383980 1_555
Au1 Sb0 2.684392 1_655
Au1 Sb0 2.684392 1_545
Au1 Sb0 2.684400 1_555
Au1 Ca1 3.383977 1_655
Au1 Ca0 3.383977 1_656
Au1 Ca1 3.383980 1_555
Au1 Ca0 3.383980 1_556
Au1 Ca0 3.383980 1_666
Au1 Ca1 3.383980 1_665
