# generated using pymatgen
data_YMgS3
_symmetry_space_group_name_H-M   'P 1'
_cell_length_a   7.25363236
_cell_length_b   12.00085900
_cell_length_c   7.26845454
_cell_angle_alpha   90.00000000
_cell_angle_beta   126.07413653
_cell_angle_gamma   90.00000000
_symmetry_Int_Tables_number   1
_chemical_formula_structural   YMgS3
_chemical_formula_sum   'Y4 Mg4 S12'
_cell_volume   511.39769162
_cell_formula_units_Z   4
loop_
 _symmetry_equiv_pos_site_id
 _symmetry_equiv_pos_as_xyz
  1  'x, y, z'
loop_
 _atom_site_type_symbol
 _atom_site_label
 _atom_site_symmetry_multiplicity
 _atom_site_fract_x
 _atom_site_fract_y
 _atom_site_fract_z
 _atom_site_occupancy
  Y  Y0  1  0.09619900  0.00000000  0.29837000  1
  Y  Y1  1  0.90380100  0.00000000  0.70163000  1
  Y  Y2  1  0.59619900  0.50000000  0.29837000  1
  Y  Y3  1  0.40380100  0.50000000  0.70163000  1
  Mg  Mg0  1  0.00000000  0.33766000  0.00000000  1
  Mg  Mg1  1  0.00000000  0.66234000  0.00000000  1
  Mg  Mg2  1  0.50000000  0.83766000  0.00000000  1
  Mg  Mg3  1  0.50000000  0.16234000  0.00000000  1
  S  S0  1  0.24686500  0.16571000  0.19178100  1
  S  S1  1  0.75313500  0.83429000  0.80821900  1
  S  S2  1  0.75313500  0.16571000  0.80821900  1
  S  S3  1  0.24686500  0.83429000  0.19178100  1
  S  S4  1  0.74686500  0.66571000  0.19178100  1
  S  S5  1  0.25313500  0.33429000  0.80821900  1
  S  S6  1  0.25313500  0.66571000  0.80821900  1
  S  S7  1  0.74686500  0.33429000  0.19178100  1
  S  S8  1  0.28659600  0.00000000  0.73601000  1
  S  S9  1  0.71340400  0.00000000  0.26399000  1
  S  S10  1  0.78659600  0.50000000  0.73601000  1
  S  S11  1  0.21340400  0.50000000  0.26399000  1
loop_
_geom_bond_atom_site_label_1
_geom_bond_atom_site_label_2
_geom_bond_distance
_geom_bond_site_symmetry_2
Mg0 S11 2.524995 1_555
Mg0 S10 2.524995 1_454
Mg0 S0 2.543276 1_555
Mg0 S2 2.543276 1_454
Mg0 S7 2.886244 1_455
Mg0 S5 2.886244 1_554
Mg1 S11 2.524995 1_555
Mg1 S10 2.524995 1_454
Mg1 S3 2.543276 1_555
Mg1 S1 2.543276 1_454
Mg1 S4 2.886244 1_455
Mg1 S6 2.886244 1_554
Mg2 S9 2.524995 1_565
Mg2 S8 2.524995 1_564
Mg2 S4 2.543276 1_555
Mg2 S6 2.543276 1_554
Mg2 S3 2.886244 1_555
Mg2 S1 2.886244 1_554
Mg3 S9 2.524995 1_555
Mg3 S8 2.524995 1_554
Mg3 S7 2.543276 1_555
Mg3 S5 2.543276 1_554
Mg3 S0 2.886244 1_555
Mg3 S2 2.886244 1_554
S0 Y0 2.597401 1_555
S1 Y1 2.597401 1_565
S2 Y1 2.597401 1_555
S3 Y0 2.597401 1_565
S4 Y2 2.597401 1_555
S5 Y3 2.597401 1_555
S6 Y3 2.597401 1_555
S7 Y2 2.597401 1_555
S8 Y0 2.617683 1_555
S8 Y1 2.637257 1_455
S9 Y1 2.617683 1_555
S9 Y0 2.637257 1_655
S10 Y2 2.617683 1_555
S10 Y3 2.637257 1_555
S11 Y3 2.617683 1_555
S11 Y2 2.637257 1_555
