# generated using pymatgen
data_YbSiAg
_symmetry_space_group_name_H-M   'P 1'
_cell_length_a   6.98154893
_cell_length_b   6.98154893
_cell_length_c   4.39446900
_cell_angle_alpha   90.00000000
_cell_angle_beta   90.00000000
_cell_angle_gamma   120.00000882
_symmetry_Int_Tables_number   1
_chemical_formula_structural   YbSiAg
_chemical_formula_sum   'Yb3 Si3 Ag3'
_cell_volume   185.49857193
_cell_formula_units_Z   3
loop_
 _symmetry_equiv_pos_site_id
 _symmetry_equiv_pos_as_xyz
  1  'x, y, z'
loop_
 _atom_site_type_symbol
 _atom_site_label
 _atom_site_symmetry_multiplicity
 _atom_site_fract_x
 _atom_site_fract_y
 _atom_site_fract_z
 _atom_site_occupancy
  Yb  Yb0  1  0.00000000  0.57193000  0.50000000  1
  Yb  Yb1  1  0.57193000  0.00000000  0.50000000  1
  Yb  Yb2  1  0.42807000  0.42807000  0.50000000  1
  Si  Si0  1  0.66666700  0.33333300  0.00000000  1
  Si  Si1  1  0.33333300  0.66666700  0.00000000  1
  Si  Si2  1  0.00000000  0.00000000  0.50000000  1
  Ag  Ag0  1  0.75530200  0.75530200  0.00000000  1
  Ag  Ag1  1  0.24469800  0.00000000  0.00000000  1
  Ag  Ag2  1  0.00000000  0.24469800  0.00000000  1
loop_
_geom_bond_atom_site_label_1
_geom_bond_atom_site_label_2
_geom_bond_distance
_geom_bond_site_symmetry_2
Si0 Yb1 3.023549 1_554
Si0 Yb1 3.023549 1_555
Si0 Yb0 3.023550 1_655
Si0 Yb0 3.023550 1_654
Si0 Yb2 3.023554 1_555
Si0 Yb2 3.023554 1_554
Si1 Yb0 3.023549 1_555
Si1 Yb0 3.023549 1_554
Si1 Yb1 3.023550 1_564
Si1 Yb1 3.023550 1_565
Si1 Yb2 3.023554 1_555
Si1 Yb2 3.023554 1_554
Si2 Yb2 2.988591 1_555
Si2 Yb0 2.988592 1_545
Si2 Yb1 2.988592 1_455
Ag0 Si0 2.690504 1_555
Ag0 Si1 2.690504 1_555
Ag0 Si2 2.783230 1_665
Ag0 Si2 2.783230 1_664
Ag0 Ag2 2.958985 1_665
Ag0 Ag1 2.958985 1_665
Ag0 Yb2 3.169727 1_555
Ag0 Yb2 3.169727 1_554
Ag0 Yb0 3.401827 1_655
Ag0 Yb1 3.401827 1_565
Ag0 Yb1 3.401827 1_564
Ag0 Yb0 3.401827 1_654
Ag1 Si1 2.690498 1_545
Ag1 Si0 2.690502 1_555
Ag1 Si2 2.783230 1_555
Ag1 Si2 2.783230 1_554
Ag1 Ag2 2.958986 1_555
Ag1 Yb1 3.169728 1_554
Ag1 Yb1 3.169728 1_555
Ag1 Yb0 3.401827 1_545
Ag1 Yb0 3.401827 1_544
Ag1 Yb2 3.401827 1_555
Ag1 Yb2 3.401827 1_554
Ag2 Si0 2.690498 1_455
Ag2 Si1 2.690502 1_555
Ag2 Si2 2.783230 1_555
Ag2 Si2 2.783230 1_554
Ag2 Yb0 3.169728 1_555
Ag2 Yb0 3.169728 1_554
Ag2 Yb1 3.401827 1_455
Ag2 Yb1 3.401827 1_454
Ag2 Yb2 3.401827 1_555
Ag2 Yb2 3.401827 1_554
