# generated using pymatgen
data_Sr2YSn2O7
_symmetry_space_group_name_H-M   'P 1'
_cell_length_a   14.40198524
_cell_length_b   14.40198524
_cell_length_c   14.40198524
_cell_angle_alpha   158.02919015
_cell_angle_beta   157.22117709
_cell_angle_gamma   31.85560350
_symmetry_Int_Tables_number   1
_chemical_formula_structural   Sr2YSn2O7
_chemical_formula_sum   'Sr4 Y2 Sn4 O14'
_cell_volume   432.38368341
_cell_formula_units_Z   2
loop_
 _symmetry_equiv_pos_site_id
 _symmetry_equiv_pos_as_xyz
  1  'x, y, z'
loop_
 _atom_site_type_symbol
 _atom_site_label
 _atom_site_symmetry_multiplicity
 _atom_site_fract_x
 _atom_site_fract_y
 _atom_site_fract_z
 _atom_site_occupancy
  Sr  Sr0  1  0.81082500  0.72407300  0.91377700  1
  Sr  Sr1  1  0.18970400  0.27592700  0.08675200  1
  Sr  Sr2  1  0.68970400  0.60295200  0.91377700  1
  Sr  Sr3  1  0.31082500  0.39704800  0.08675200  1
  Y  Y0  1  0.51724900  0.50000000  0.01724900  1
  Y  Y1  1  0.01724900  0.00000000  0.01724900  1
  Sn  Sn0  1  0.43711100  0.92198200  0.52008300  1
  Sn  Sn1  1  0.59810200  0.07801800  0.51513000  1
  Sn  Sn2  1  0.09810200  0.58297200  0.52008300  1
  Sn  Sn3  1  0.93711100  0.41702800  0.51513000  1
  O  O0  1  0.00628700  0.51237500  0.01866300  1
  O  O1  1  0.50628700  0.48762500  0.49391200  1
  O  O2  1  0.21636700  0.19892300  0.51594200  1
  O  O3  1  0.31701900  0.80107700  0.01744400  1
  O  O4  1  0.81701900  0.79957500  0.51594200  1
  O  O5  1  0.71636700  0.20042500  0.01744400  1
  O  O6  1  0.71650200  0.69897200  0.51873200  1
  O  O7  1  0.81976000  0.30102800  0.01753000  1
  O  O8  1  0.31976000  0.30223000  0.51873200  1
  O  O9  1  0.21650200  0.69777000  0.01753000  1
  O  O10  1  0.87116300  0.35366900  0.52834400  1
  O  O11  1  0.17467600  0.64633100  0.51749500  1
  O  O12  1  0.67467600  0.15718100  0.52834400  1
  O  O13  1  0.37116300  0.84281900  0.51749500  1
loop_
_geom_bond_atom_site_label_1
_geom_bond_atom_site_label_2
_geom_bond_distance
_geom_bond_site_symmetry_2
O0 Sr2 2.371205 1_454
O0 Sr0 2.371225 1_454
O0 Sr1 2.381513 1_555
O0 Sr3 2.381532 1_555
O1 Sr3 2.371214 1_555
O1 Sr1 2.371214 1_555
O1 Sr2 2.381523 1_555
O1 Sr0 2.381523 1_555
O2 Sn3 2.136062 1_455
O2 Sn0 2.137727 1_545
O2 Y1 2.414105 1_555
O2 Y0 2.422502 1_556
O3 Sn2 2.136062 1_554
O3 Sn1 2.137731 1_565
O3 Y1 2.414105 1_565
O3 Y0 2.422502 1_555
O4 Sn1 2.136053 1_565
O4 Sn2 2.137736 1_655
O4 Y0 2.414105 1_555
O4 Y1 2.422502 1_666
O5 Sn0 2.136057 1_544
O5 Sn3 2.137736 1_555
O5 Y0 2.414105 1_555
O5 Y1 2.422502 1_655
O6 Sn0 2.140385 1_555
O6 Sn3 2.140694 1_555
O6 Y1 2.434505 1_666
O6 Y0 2.444066 1_555
O7 Sn1 2.140381 1_554
O7 Sn2 2.140694 1_655
O7 Y1 2.434505 1_655
O7 Y0 2.444066 1_555
O8 Sn2 2.140386 1_555
O8 Sn1 2.140692 1_555
O8 Y0 2.434505 1_556
O8 Y1 2.444066 1_555
O9 Sn3 2.140386 1_454
O9 Sn0 2.140688 1_555
O9 Y0 2.434505 1_555
O9 Y1 2.444066 1_565
O10 Sn3 1.974491 1_555
O10 Sr0 2.474539 1_555
O10 Sr3 2.942730 1_656
O10 Sr3 3.182076 1_555
O11 Sn2 1.974491 1_555
O11 Sr1 2.474540 1_555
O11 Sr2 2.942724 1_555
O11 Sr2 3.182081 1_454
O12 Sn1 1.974518 1_555
O12 Sr2 2.474536 1_555
O12 Sr1 2.942723 1_656
O12 Sr1 3.182074 1_555
O13 Sn0 1.974518 1_555
O13 Sr3 2.474536 1_555
O13 Sr0 2.942723 1_555
O13 Sr0 3.182074 1_454
