# generated using pymatgen
data_Ni(N3Cl)2
_symmetry_space_group_name_H-M   'P 1'
_cell_length_a   5.51987635
_cell_length_b   5.51987635
_cell_length_c   5.51987635
_cell_angle_alpha   60.00000000
_cell_angle_beta   60.00000000
_cell_angle_gamma   60.00000000
_symmetry_Int_Tables_number   1
_chemical_formula_structural   Ni(N3Cl)2
_chemical_formula_sum   'Ni1 N6 Cl2'
_cell_volume   118.92496999
_cell_formula_units_Z   1
loop_
 _symmetry_equiv_pos_site_id
 _symmetry_equiv_pos_as_xyz
  1  'x, y, z'
loop_
 _atom_site_type_symbol
 _atom_site_label
 _atom_site_symmetry_multiplicity
 _atom_site_fract_x
 _atom_site_fract_y
 _atom_site_fract_z
 _atom_site_occupancy
  Ni  Ni0  1  0.00000000  0.00000000  0.00000000  1
  N  N0  1  0.76537500  0.23462500  0.23462500  1
  N  N1  1  0.76537500  0.23462500  0.76537500  1
  N  N2  1  0.76537500  0.76537500  0.23462500  1
  N  N3  1  0.23462500  0.76537500  0.76537500  1
  N  N4  1  0.23462500  0.76537500  0.23462500  1
  N  N5  1  0.23462500  0.23462500  0.76537500  1
  Cl  Cl0  1  0.25000000  0.25000000  0.25000000  1
  Cl  Cl1  1  0.75000000  0.75000000  0.75000000  1
loop_
_geom_bond_atom_site_label_1
_geom_bond_atom_site_label_2
_geom_bond_distance
_geom_bond_site_symmetry_2
N0 Ni0 1.831549 1_655
N1 Ni0 1.831549 1_656
N2 Ni0 1.831549 1_665
N3 Ni0 1.831549 1_566
N4 Ni0 1.831549 1_565
N5 Ni0 1.831549 1_556
