# generated using pymatgen
data_Ba2SrI6
_symmetry_space_group_name_H-M   'P 1'
_cell_length_a   13.82553734
_cell_length_b   13.82553734
_cell_length_c   9.10261256
_cell_angle_alpha   79.29118606
_cell_angle_beta   79.29118606
_cell_angle_gamma   33.88716321
_symmetry_Int_Tables_number   1
_chemical_formula_structural   Ba2SrI6
_chemical_formula_sum   'Ba4 Sr2 I12'
_cell_volume   951.63156522
_cell_formula_units_Z   2
loop_
 _symmetry_equiv_pos_site_id
 _symmetry_equiv_pos_as_xyz
  1  'x, y, z'
loop_
 _atom_site_type_symbol
 _atom_site_label
 _atom_site_symmetry_multiplicity
 _atom_site_fract_x
 _atom_site_fract_y
 _atom_site_fract_z
 _atom_site_occupancy
  Ba  Ba0  1  0.05784000  0.61106200  0.64133900  1
  Ba  Ba1  1  0.61106200  0.05784000  0.14133900  1
  Ba  Ba2  1  0.38893800  0.94216000  0.85866100  1
  Ba  Ba3  1  0.94216000  0.38893800  0.35866100  1
  Sr  Sr0  1  0.66576600  0.33423400  0.75000000  1
  Sr  Sr1  1  0.33423400  0.66576600  0.25000000  1
  I  I0  1  0.45968300  0.38528800  0.52123300  1
  I  I1  1  0.38528800  0.45968300  0.02123300  1
  I  I2  1  0.87592900  0.94502400  0.82622400  1
  I  I3  1  0.94502400  0.87592900  0.32622400  1
  I  I4  1  0.28601300  0.26234200  0.90687400  1
  I  I5  1  0.26234200  0.28601300  0.40687400  1
  I  I6  1  0.73765800  0.71398700  0.59312600  1
  I  I7  1  0.71398700  0.73765800  0.09312600  1
  I  I8  1  0.05497600  0.12407100  0.67377600  1
  I  I9  1  0.12407100  0.05497600  0.17377600  1
  I  I10  1  0.61471200  0.54031700  0.97876700  1
  I  I11  1  0.54031700  0.61471200  0.47876700  1
loop_
_geom_bond_atom_site_label_1
_geom_bond_atom_site_label_2
_geom_bond_distance
_geom_bond_site_symmetry_2
Ba0 I6 3.441607 1_455
Ba0 I0 3.467455 1_555
Ba0 I4 3.505667 1_555
Ba0 I3 3.513720 1_455
Ba0 I2 3.537127 1_455
Ba0 I5 3.601543 1_555
Ba1 I7 3.441607 1_545
Ba1 I1 3.467455 1_555
Ba1 I5 3.505667 1_555
Ba1 I2 3.513720 1_544
Ba1 I3 3.537127 1_545
Ba1 I4 3.601543 1_554
Ba2 I4 3.441607 1_565
Ba2 I10 3.467455 1_555
Ba2 I6 3.505667 1_555
Ba2 I9 3.513720 1_566
Ba2 I8 3.537127 1_565
Ba2 I7 3.601543 1_556
Ba3 I5 3.441607 1_655
Ba3 I11 3.467455 1_555
Ba3 I7 3.505667 1_555
Ba3 I8 3.513720 1_655
Ba3 I9 3.537127 1_655
Ba3 I6 3.601543 1_555
I0 Sr1 3.317805 1_555
I0 Sr0 3.357413 1_555
I1 Sr0 3.317805 1_554
I1 Sr1 3.357413 1_555
I2 Sr0 3.358944 1_565
I3 Sr1 3.358944 1_655
I8 Sr0 3.358944 1_455
I9 Sr1 3.358944 1_545
I10 Sr1 3.317805 1_556
I10 Sr0 3.357413 1_555
I11 Sr0 3.317805 1_555
I11 Sr1 3.357413 1_555
