# generated using pymatgen
data_Ni17(GeSe)4
_symmetry_space_group_name_H-M   'P 1'
_cell_length_a   3.60070300
_cell_length_b   3.60070300
_cell_length_c   25.42978400
_cell_angle_alpha   90.00000000
_cell_angle_beta   90.00000000
_cell_angle_gamma   90.00000000
_symmetry_Int_Tables_number   1
_chemical_formula_structural   Ni17(GeSe)4
_chemical_formula_sum   'Ni17 Ge4 Se4'
_cell_volume   329.69872860
_cell_formula_units_Z   1
loop_
 _symmetry_equiv_pos_site_id
 _symmetry_equiv_pos_as_xyz
  1  'x, y, z'
loop_
 _atom_site_type_symbol
 _atom_site_label
 _atom_site_symmetry_multiplicity
 _atom_site_fract_x
 _atom_site_fract_y
 _atom_site_fract_z
 _atom_site_occupancy
  Ni  Ni0  1  0.00000000  0.50000000  0.50038900  1
  Ni  Ni1  1  0.50000000  0.00000000  0.00004200  1
  Ni  Ni2  1  0.50000000  0.00000000  0.50038900  1
  Ni  Ni3  1  0.00000000  0.50000000  0.00004200  1
  Ni  Ni4  1  0.00000000  0.50000000  0.36250100  1
  Ni  Ni5  1  0.50000000  0.00000000  0.86086800  1
  Ni  Ni6  1  0.50000000  0.00000000  0.36250100  1
  Ni  Ni7  1  0.00000000  0.50000000  0.86086800  1
  Ni  Ni8  1  0.50000000  0.00000000  0.13917200  1
  Ni  Ni9  1  0.00000000  0.50000000  0.63918200  1
  Ni  Ni10  1  0.00000000  0.50000000  0.13917200  1
  Ni  Ni11  1  0.50000000  0.00000000  0.63918200  1
  Ni  Ni12  1  0.00000000  0.00000000  0.43233500  1
  Ni  Ni13  1  0.50000000  0.50000000  0.93123500  1
  Ni  Ni14  1  0.50000000  0.50000000  0.06873900  1
  Ni  Ni15  1  0.00000000  0.00000000  0.56907400  1
  Ni  Ni16  1  0.50000000  0.50000000  0.28635100  1
  Ge  Ge0  1  0.50000000  0.50000000  0.42971200  1
  Ge  Ge1  1  0.00000000  0.00000000  0.92923400  1
  Ge  Ge2  1  0.00000000  0.00000000  0.07048500  1
  Ge  Ge3  1  0.50000000  0.50000000  0.57006200  1
  Se  Se0  1  0.00000000  0.00000000  0.29843800  1
  Se  Se1  1  0.50000000  0.50000000  0.80278900  1
  Se  Se2  1  0.50000000  0.50000000  0.19665000  1
  Se  Se3  1  0.00000000  0.00000000  0.69718600  1
loop_
_geom_bond_atom_site_label_1
_geom_bond_atom_site_label_2
_geom_bond_distance
_geom_bond_site_symmetry_2
Ni0 Ni12 2.497246 1_555
Ni0 Ni12 2.497246 1_565
Ni0 Ni15 2.508393 1_565
Ni0 Ni15 2.508393 1_555
Ni0 Ni2 2.546082 1_465
Ni0 Ni2 2.546082 1_565
Ni0 Ni2 2.546082 1_555
Ni0 Ni2 2.546082 1_455
Ni1 Ni14 2.508605 1_555
Ni1 Ni14 2.508605 1_545
Ni1 Ni13 2.510554 1_554
Ni1 Ni13 2.510554 1_544
Ni1 Ni3 2.546082 1_655
Ni1 Ni3 2.546082 1_555
Ni1 Ni3 2.546082 1_645
Ni1 Ni3 2.546082 1_545
Ni4 Se0 2.428015 1_555
Ni4 Se0 2.428015 1_565
Ni4 Ni6 2.546082 1_455
Ni4 Ni6 2.546082 1_555
Ni4 Ni6 2.546082 1_565
Ni4 Ni6 2.546082 1_465
Ni5 Se1 2.328649 1_555
Ni5 Se1 2.328649 1_545
Ni6 Se0 2.428015 1_555
Ni6 Se0 2.428015 1_655
Ni7 Se1 2.328649 1_555
Ni7 Se1 2.328649 1_455
Ni8 Se2 2.318986 1_555
Ni8 Se2 2.318986 1_545
Ni9 Se3 2.327440 1_565
Ni9 Se3 2.327440 1_555
Ni10 Se2 2.318986 1_555
Ni10 Se2 2.318986 1_455
Ni10 Ni14 2.539545 1_555
Ni10 Ni14 2.539545 1_455
Ni11 Se3 2.327440 1_655
Ni11 Se3 2.327440 1_555
Ni11 Ni15 2.533723 1_555
Ni11 Ni15 2.533723 1_655
Ni12 Ni2 2.497246 1_455
Ni12 Ni2 2.497246 1_555
Ni12 Ni6 2.528825 1_455
Ni12 Ni6 2.528825 1_555
Ni12 Ni4 2.528825 1_555
Ni12 Ni4 2.528825 1_545
Ni13 Ni3 2.510554 1_656
Ni13 Ni3 2.510554 1_556
Ni13 Ni5 2.538362 1_565
Ni13 Ni7 2.538362 1_555
Ni13 Ni5 2.538362 1_555
Ni13 Ni7 2.538362 1_655
Ni14 Ni3 2.508605 1_555
Ni14 Ni3 2.508605 1_655
Ni14 Ni8 2.539545 1_565
Ni14 Ni8 2.539545 1_555
Ni15 Ni2 2.508393 1_455
Ni15 Ni2 2.508393 1_555
Ni15 Ni9 2.533723 1_555
Ni15 Ni9 2.533723 1_545
Ni16 Se2 2.281077 1_555
Ni16 Se0 2.564568 1_565
Ni16 Se0 2.564568 1_665
Ni16 Se0 2.564568 1_555
Ni16 Se0 2.564568 1_655
Ni16 Ni4 2.644090 1_655
Ni16 Ni6 2.644090 1_555
Ni16 Ni6 2.644090 1_565
Ni16 Ni4 2.644090 1_555
Ge0 Ni4 2.482438 1_655
Ge0 Ni6 2.482438 1_555
Ge0 Ni6 2.482438 1_565
Ge0 Ni4 2.482438 1_555
Ge0 Ni2 2.543925 1_565
Ge0 Ni0 2.543925 1_555
Ge0 Ni0 2.543925 1_655
Ge0 Ni2 2.543925 1_555
Ge0 Ni12 2.546955 1_655
Ge0 Ni12 2.546955 1_665
Ge0 Ni12 2.546955 1_555
Ge0 Ni12 2.546955 1_565
Ge1 Ni5 2.502751 1_555
Ge1 Ni7 2.502751 1_545
Ge1 Ni7 2.502751 1_555
Ge1 Ni5 2.502751 1_455
Ge1 Ni3 2.546280 1_556
Ge1 Ni3 2.546280 1_546
Ge1 Ni1 2.546280 1_556
Ge1 Ni1 2.546280 1_456
Ge1 Ni13 2.546590 1_455
Ge1 Ni13 2.546590 1_445
Ge1 Ni13 2.546590 1_555
Ge1 Ni13 2.546590 1_545
Ge2 Ni10 2.508428 1_545
Ge2 Ni10 2.508428 1_555
Ge2 Ni8 2.508428 1_455
Ge2 Ni8 2.508428 1_555
Ge2 Ni1 2.539725 1_555
Ge2 Ni1 2.539725 1_455
Ge2 Ni3 2.539725 1_545
Ge2 Ni3 2.539725 1_555
Ge2 Ni14 2.546469 1_545
Ge2 Ni14 2.546469 1_445
Ge2 Ni14 2.546469 1_555
Ge2 Ni14 2.546469 1_455
Ge3 Ni9 2.516108 1_555
Ge3 Ni9 2.516108 1_655
Ge3 Ni11 2.516108 1_565
Ge3 Ni11 2.516108 1_555
Ge3 Ni0 2.525952 1_655
Ge3 Ni2 2.525952 1_565
Ge3 Ni2 2.525952 1_555
Ge3 Ni0 2.525952 1_555
Ge3 Ni15 2.546205 1_665
Ge3 Ni15 2.546205 1_655
Ge3 Ni15 2.546205 1_565
Ge3 Ni15 2.546205 1_555
