# generated using pymatgen
data_Cs2PH3SeO8
_symmetry_space_group_name_H-M   'P 1'
_cell_length_a   12.48301800
_cell_length_b   8.03139900
_cell_length_c   10.36491897
_cell_angle_alpha   90.00000000
_cell_angle_beta   90.81825553
_cell_angle_gamma   90.00000000
_symmetry_Int_Tables_number   1
_chemical_formula_structural   Cs2PH3SeO8
_chemical_formula_sum   'Cs8 P4 H12 Se4 O32'
_cell_volume   1039.04036725
_cell_formula_units_Z   4
loop_
 _symmetry_equiv_pos_site_id
 _symmetry_equiv_pos_as_xyz
  1  'x, y, z'
loop_
 _atom_site_type_symbol
 _atom_site_label
 _atom_site_symmetry_multiplicity
 _atom_site_fract_x
 _atom_site_fract_y
 _atom_site_fract_z
 _atom_site_occupancy
  Cs  Cs0  1  0.55399000  0.16492200  0.83500900  1
  Cs  Cs1  1  0.44601000  0.66492200  0.66499100  1
  Cs  Cs2  1  0.44601000  0.83507800  0.16499100  1
  Cs  Cs3  1  0.55399000  0.33507800  0.33500900  1
  Cs  Cs4  1  0.06156200  0.16164200  0.32537100  1
  Cs  Cs5  1  0.93843800  0.66164200  0.17462900  1
  Cs  Cs6  1  0.93843800  0.83835800  0.67462900  1
  Cs  Cs7  1  0.06156200  0.33835800  0.82537100  1
  P  P0  1  0.32524000  0.16787100  0.57407800  1
  P  P1  1  0.67476000  0.66787100  0.92592200  1
  P  P2  1  0.67476000  0.83212900  0.42592200  1
  P  P3  1  0.32524000  0.33212900  0.07407800  1
  H  H0  1  0.20241700  0.37683500  0.57001500  1
  H  H1  1  0.79758300  0.87683500  0.92998500  1
  H  H2  1  0.79758300  0.62316500  0.42998500  1
  H  H3  1  0.20241700  0.12316500  0.07001500  1
  H  H4  1  0.74243100  0.99484500  0.26580200  1
  H  H5  1  0.25756900  0.49484500  0.23419800  1
  H  H6  1  0.25756900  0.00515500  0.73419800  1
  H  H7  1  0.74243100  0.50515500  0.76580200  1
  H  H8  1  0.31065200  0.94972500  0.43769300  1
  H  H9  1  0.68934800  0.44972500  0.06230700  1
  H  H10  1  0.68934800  0.05027500  0.56230700  1
  H  H11  1  0.31065200  0.55027500  0.93769300  1
  Se  Se0  1  0.82360300  0.16630600  0.06792500  1
  Se  Se1  1  0.17639700  0.66630600  0.43207500  1
  Se  Se2  1  0.17639700  0.83369400  0.93207500  1
  Se  Se3  1  0.82360300  0.33369400  0.56792500  1
  O  O0  1  0.41471900  0.29104100  0.58810900  1
  O  O1  1  0.58528100  0.79104100  0.91189100  1
  O  O2  1  0.58528100  0.70895900  0.41189100  1
  O  O3  1  0.41471900  0.20895900  0.08810900  1
  O  O4  1  0.32749100  0.02946600  0.68209100  1
  O  O5  1  0.67250900  0.52946600  0.81790900  1
  O  O6  1  0.67250900  0.97053400  0.31790900  1
  O  O7  1  0.32749100  0.47053400  0.18209100  1
  O  O8  1  0.33297000  0.07339200  0.44008900  1
  O  O9  1  0.66703000  0.57339200  0.05991100  1
  O  O10  1  0.66703000  0.92660800  0.55991100  1
  O  O11  1  0.33297000  0.42660800  0.94008900  1
  O  O12  1  0.20949500  0.24798100  0.57900700  1
  O  O13  1  0.79050500  0.74798100  0.92099300  1
  O  O14  1  0.79050500  0.75201900  0.42099300  1
  O  O15  1  0.20949500  0.25201900  0.07900700  1
  O  O16  1  0.92312400  0.30306200  0.07247100  1
  O  O17  1  0.07687600  0.80306200  0.42752900  1
  O  O18  1  0.07687600  0.69693800  0.92752900  1
  O  O19  1  0.92312400  0.19693800  0.57247100  1
  O  O20  1  0.70415700  0.26131000  0.08262200  1
  O  O21  1  0.29584300  0.76131000  0.41737800  1
  O  O22  1  0.29584300  0.73869000  0.91737800  1
  O  O23  1  0.70415700  0.23869000  0.58262200  1
  O  O24  1  0.84001900  0.02906400  0.19054600  1
  O  O25  1  0.15998100  0.52906400  0.30945400  1
  O  O26  1  0.15998100  0.97093600  0.80945400  1
  O  O27  1  0.84001900  0.47093600  0.69054600  1
  O  O28  1  0.82394700  0.06032800  0.92751600  1
  O  O29  1  0.17605300  0.56032800  0.57248400  1
  O  O30  1  0.17605300  0.93967200  0.07248400  1
  O  O31  1  0.82394700  0.43967200  0.42751600  1
loop_
_geom_bond_atom_site_label_1
_geom_bond_atom_site_label_2
_geom_bond_distance
_geom_bond_site_symmetry_2
Cs0 O1 3.129765 1_545
Cs0 O3 3.187449 1_556
Cs0 O0 3.235794 1_555
Cs0 O20 3.250019 1_556
Cs0 O5 3.286298 1_555
Cs0 O23 3.293670 1_555
Cs0 O4 3.400271 1_555
Cs0 O28 3.590098 1_555
Cs0 O11 3.647093 1_555
Cs1 O0 3.129765 1_555
Cs1 O2 3.187449 1_555
Cs1 O1 3.235794 1_555
Cs1 O21 3.250019 1_555
Cs1 O4 3.286298 1_565
Cs1 O22 3.293670 1_555
Cs1 O5 3.400271 1_555
Cs1 O29 3.590098 1_555
Cs1 O10 3.647093 1_555
Cs2 O3 3.129765 1_565
Cs2 O1 3.187449 1_554
Cs2 O2 3.235794 1_555
Cs2 O22 3.250019 1_554
Cs2 O7 3.286298 1_555
Cs2 O21 3.293670 1_555
Cs2 O6 3.400271 1_555
Cs2 O30 3.590098 1_555
Cs2 O9 3.647093 1_555
Cs3 O2 3.129765 1_555
Cs3 O0 3.187449 1_555
Cs3 O3 3.235794 1_555
Cs3 O23 3.250019 1_555
Cs3 O6 3.286298 1_545
Cs3 O20 3.293670 1_555
Cs3 O7 3.400271 1_555
Cs3 O31 3.590098 1_555
Cs3 O8 3.647093 1_555
Cs4 O17 3.073396 1_545
Cs4 O19 3.122945 1_455
Cs4 O25 3.201604 1_555
Cs4 O24 3.259507 1_455
Cs4 O12 3.265501 1_555
Cs4 O16 3.319371 1_455
Cs5 O16 3.073396 1_555
Cs5 O18 3.122945 1_654
Cs5 O24 3.201604 1_565
Cs5 O25 3.259507 1_655
Cs5 O13 3.265501 1_554
Cs5 O17 3.319371 1_655
Cs6 O19 3.073396 1_565
Cs6 O17 3.122945 1_655
Cs6 O27 3.201604 1_555
Cs6 O26 3.259507 1_655
Cs6 O14 3.265501 1_555
Cs6 O18 3.319371 1_655
Cs7 O18 3.073396 1_555
Cs7 O16 3.122945 1_456
Cs7 O26 3.201604 1_545
Cs7 O27 3.259507 1_455
Cs7 O15 3.265501 1_556
Cs7 O19 3.319371 1_455
H0 O12 1.042703 1_555
H0 O29 1.510302 1_555
H1 O13 1.042703 1_555
H1 O28 1.510302 1_565
H2 O14 1.042703 1_555
H2 O31 1.510302 1_555
H3 O15 1.042703 1_555
H3 O30 1.510302 1_545
H4 O6 1.051249 1_555
H4 O24 1.481586 1_565
H5 O7 1.051249 1_555
H5 O25 1.481586 1_555
H6 O4 1.051249 1_555
H6 O26 1.481586 1_545
H7 O5 1.051249 1_555
H7 O27 1.481586 1_555
H8 O8 1.031755 1_565
H8 O21 1.538597 1_555
H9 O9 1.031755 1_555
H9 O20 1.538597 1_555
H10 O10 1.031755 1_545
H10 O23 1.538597 1_555
H11 O11 1.031755 1_555
H11 O22 1.538597 1_555
O0 P0 1.497564 1_555
O1 P1 1.497564 1_555
O2 P2 1.497564 1_555
O3 P3 1.497564 1_555
O4 P0 1.577624 1_555
O5 P1 1.577624 1_555
O6 P2 1.577624 1_555
O7 P3 1.577624 1_555
O8 P0 1.586707 1_555
O9 P1 1.586707 1_554
O10 P2 1.586707 1_555
O11 P3 1.586707 1_556
O12 P0 1.583117 1_555
O13 P1 1.583117 1_555
O14 P2 1.583117 1_555
O15 P3 1.583117 1_555
O16 Se0 1.658393 1_555
O17 Se1 1.658393 1_555
O18 Se2 1.658393 1_555
O19 Se3 1.658393 1_555
O20 Se0 1.683777 1_555
O21 Se1 1.683777 1_555
O22 Se2 1.683777 1_555
O23 Se3 1.683777 1_555
O24 Se0 1.692581 1_555
O25 Se1 1.692581 1_555
O26 Se2 1.692581 1_555
O27 Se3 1.692581 1_555
O28 Se0 1.686012 1_556
O29 Se1 1.686012 1_555
O30 Se2 1.686012 1_554
O31 Se3 1.686012 1_555
