# generated using pymatgen
data_Y4Ti13Si2(SbO14)2
_symmetry_space_group_name_H-M   'P 1'
_cell_length_a   12.33348020
_cell_length_b   12.33348020
_cell_length_c   9.26509894
_cell_angle_alpha   85.77846404
_cell_angle_beta   85.77846404
_cell_angle_gamma   152.38121598
_symmetry_Int_Tables_number   1
_chemical_formula_structural   Y4Ti13Si2(SbO14)2
_chemical_formula_sum   'Y4 Ti13 Si2 Sb2 O28'
_cell_volume   621.51236708
_cell_formula_units_Z   1
loop_
 _symmetry_equiv_pos_site_id
 _symmetry_equiv_pos_as_xyz
  1  'x, y, z'
loop_
 _atom_site_type_symbol
 _atom_site_label
 _atom_site_symmetry_multiplicity
 _atom_site_fract_x
 _atom_site_fract_y
 _atom_site_fract_z
 _atom_site_occupancy
  Y  Y0  1  0.05211100  0.45461300  0.16173300  1
  Y  Y1  1  0.54538700  0.94788900  0.83826700  1
  Y  Y2  1  0.94788900  0.54538700  0.83826700  1
  Y  Y3  1  0.45461300  0.05211100  0.16173300  1
  Ti  Ti0  1  0.88081200  0.61153500  0.13908200  1
  Ti  Ti1  1  0.62508100  0.74728400  0.85752700  1
  Ti  Ti2  1  0.38846500  0.11918800  0.86091800  1
  Ti  Ti3  1  0.11918800  0.38846500  0.86091800  1
  Ti  Ti4  1  0.37491900  0.25271600  0.14247300  1
  Ti  Ti5  1  0.29213800  0.70786200  0.50000000  1
  Ti  Ti6  1  0.25271600  0.37491900  0.14247300  1
  Ti  Ti7  1  0.00000000  0.00000000  0.50000000  1
  Ti  Ti8  1  0.42615500  0.57384500  0.50000000  1
  Ti  Ti9  1  0.74728400  0.62508100  0.85752700  1
  Ti  Ti10  1  0.61153500  0.88081200  0.13908200  1
  Ti  Ti11  1  0.57384500  0.42615500  0.50000000  1
  Ti  Ti12  1  0.70786200  0.29213800  0.50000000  1
  Si  Si0  1  0.22034300  0.22034300  0.80563100  1
  Si  Si1  1  0.77965700  0.77965700  0.19436900  1
  Sb  Sb0  1  0.85195800  0.14804200  0.50000000  1
  Sb  Sb1  1  0.14804200  0.85195800  0.50000000  1
  O  O0  1  0.78944100  0.03787500  0.88373400  1
  O  O1  1  0.12818200  0.54736700  0.89561600  1
  O  O2  1  0.93043900  0.93043900  0.85725100  1
  O  O3  1  0.30018300  0.30018300  0.61858600  1
  O  O4  1  0.87181800  0.45263300  0.10438400  1
  O  O5  1  0.21055900  0.96212500  0.11626600  1
  O  O6  1  0.99046900  0.54080000  0.60672000  1
  O  O7  1  0.00953100  0.45920000  0.39328000  1
  O  O8  1  0.69981700  0.69981700  0.38141400  1
  O  O9  1  0.18643800  0.30348200  0.37490100  1
  O  O10  1  0.27404900  0.38250500  0.87250000  1
  O  O11  1  0.96212500  0.21055900  0.11626600  1
  O  O12  1  0.45920000  0.00953100  0.39328000  1
  O  O13  1  0.69651800  0.81356200  0.62509900  1
  O  O14  1  0.61749500  0.72595100  0.12750000  1
  O  O15  1  0.06956100  0.06956100  0.14274900  1
  O  O16  1  0.30348200  0.18643800  0.37490100  1
  O  O17  1  0.81356200  0.69651800  0.62509900  1
  O  O18  1  0.54080000  0.99046900  0.60672000  1
  O  O19  1  0.27281700  0.55104100  0.65193900  1
  O  O20  1  0.72718300  0.44895900  0.34806100  1
  O  O21  1  0.38250500  0.27404900  0.87250000  1
  O  O22  1  0.55104100  0.27281700  0.65193900  1
  O  O23  1  0.54736700  0.12818200  0.89561600  1
  O  O24  1  0.72595100  0.61749500  0.12750000  1
  O  O25  1  0.44895900  0.72718300  0.34806100  1
  O  O26  1  0.03787500  0.78944100  0.88373400  1
  O  O27  1  0.45263300  0.87181800  0.10438400  1
loop_
_geom_bond_atom_site_label_1
_geom_bond_atom_site_label_2
_geom_bond_distance
_geom_bond_site_symmetry_2
O0 Ti3 1.963994 1_655
O0 Ti1 2.083051 1_545
O0 Y1 2.192039 1_545
O0 Ti10 2.278790 1_546
O1 Ti3 1.915538 1_555
O1 Y2 2.303721 1_455
O1 Y1 2.308346 1_555
O1 Y0 2.368604 1_556
O2 Si0 1.624416 1_665
O2 Ti9 2.051384 1_555
O2 Ti1 2.051384 1_555
O3 Si0 1.649775 1_555
O3 Ti8 2.218769 1_555
O3 Ti11 2.218769 1_555
O3 Ti7 2.351322 1_555
O4 Ti0 1.915538 1_555
O4 Y0 2.303721 1_655
O4 Y3 2.308346 1_555
O4 Y2 2.368604 1_554
O5 Ti0 1.963994 1_455
O5 Ti4 2.083051 1_565
O5 Y3 2.192039 1_565
O5 Ti2 2.278790 1_564
O6 Ti12 2.131416 1_555
O6 Ti5 2.153920 1_655
O6 Y2 2.187688 1_555
O6 Sb1 2.328934 1_655
O7 Ti5 2.131416 1_555
O7 Ti12 2.153920 1_455
O7 Y0 2.187688 1_555
O7 Sb0 2.328934 1_455
O8 Si1 1.649775 1_555
O8 Ti8 2.218769 1_555
O8 Ti11 2.218769 1_555
O8 Ti7 2.351322 1_665
O9 Ti6 2.065697 1_555
O9 Ti7 2.087492 1_555
O9 Ti8 2.192385 1_555
O9 Sb0 2.644005 1_455
O10 Si0 1.648599 1_555
O10 Ti3 1.985632 1_555
O10 Ti1 2.075256 1_555
O10 Ti6 2.481863 1_556
O11 Ti10 1.963994 1_545
O11 Ti6 2.083051 1_655
O11 Y0 2.192039 1_655
O11 Ti3 2.278790 1_654
O12 Ti12 2.131416 1_555
O12 Ti5 2.153920 1_545
O12 Y3 2.187688 1_555
O12 Sb1 2.328934 1_545
O13 Ti1 2.065697 1_555
O13 Ti7 2.087492 1_665
O13 Ti8 2.192385 1_555
O13 Sb0 2.644005 1_565
O14 Si1 1.648599 1_555
O14 Ti10 1.985632 1_555
O14 Ti6 2.075256 1_555
O14 Ti1 2.481863 1_554
O15 Si1 1.624416 1_445
O15 Ti4 2.051384 1_555
O15 Ti6 2.051384 1_555
O16 Ti4 2.065697 1_555
O16 Ti7 2.087492 1_555
O16 Ti11 2.192385 1_555
O16 Sb1 2.644005 1_545
O17 Ti9 2.065697 1_555
O17 Ti7 2.087492 1_665
O17 Ti11 2.192385 1_555
O17 Sb1 2.644005 1_655
O18 Ti5 2.131416 1_555
O18 Ti12 2.153920 1_565
O18 Y1 2.187688 1_555
O18 Sb0 2.328934 1_565
O19 Ti3 1.874892 1_555
O19 Ti8 2.060237 1_555
O19 Ti5 2.124244 1_555
O20 Ti0 1.874892 1_555
O20 Ti11 2.060237 1_555
O20 Ti12 2.124244 1_555
O21 Si0 1.648599 1_555
O21 Ti2 1.985632 1_555
O21 Ti9 2.075256 1_555
O21 Ti4 2.481863 1_556
O22 Ti2 1.874892 1_555
O22 Ti11 2.060237 1_555
O22 Ti12 2.124244 1_555
O23 Ti2 1.915538 1_555
O23 Y1 2.303721 1_545
O23 Y2 2.308346 1_555
O23 Y3 2.368604 1_556
O24 Si1 1.648599 1_555
O24 Ti0 1.985632 1_555
O24 Ti4 2.075256 1_555
O24 Ti9 2.481863 1_554
O25 Ti10 1.874892 1_555
O25 Ti8 2.060237 1_555
O25 Ti5 2.124244 1_555
O26 Ti2 1.963994 1_565
O26 Ti9 2.083051 1_455
O26 Y2 2.192039 1_455
O26 Ti0 2.278790 1_456
O27 Ti10 1.915538 1_555
O27 Y3 2.303721 1_565
O27 Y0 2.308346 1_555
O27 Y1 2.368604 1_554
