# generated using pymatgen
data_Li5Co3(SbO5)2
_symmetry_space_group_name_H-M   'P 1'
_cell_length_a   5.25597200
_cell_length_b   5.28696078
_cell_length_c   8.08824079
_cell_angle_alpha   106.78015722
_cell_angle_beta   103.28784667
_cell_angle_gamma   101.52907117
_symmetry_Int_Tables_number   1
_chemical_formula_structural   Li5Co3(SbO5)2
_chemical_formula_sum   'Li5 Co3 Sb2 O10'
_cell_volume   200.69600192
_cell_formula_units_Z   1
loop_
 _symmetry_equiv_pos_site_id
 _symmetry_equiv_pos_as_xyz
  1  'x, y, z'
loop_
 _atom_site_type_symbol
 _atom_site_label
 _atom_site_symmetry_multiplicity
 _atom_site_fract_x
 _atom_site_fract_y
 _atom_site_fract_z
 _atom_site_occupancy
  Li  Li0  1  0.83847400  0.50657000  0.39284200  1
  Li  Li1  1  0.61629100  0.49280000  0.80320800  1
  Li  Li2  1  0.00000000  0.00000000  0.50000000  1
  Li  Li3  1  0.38370900  0.50720000  0.19679200  1
  Li  Li4  1  0.16152600  0.49343000  0.60715800  1
  Co  Co0  1  0.00000000  0.50000000  0.00000000  1
  Co  Co1  1  0.82139700  0.99568800  0.90874300  1
  Co  Co2  1  0.17860300  0.00431200  0.09125700  1
  Sb  Sb0  1  0.41330500  0.00437700  0.69993700  1
  Sb  Sb1  1  0.58669500  0.99562300  0.30006300  1
  O  O0  1  0.23265900  0.24328600  0.82453000  1
  O  O1  1  0.40652800  0.75434000  0.93196500  1
  O  O2  1  0.59205300  0.78183400  0.54578600  1
  O  O3  1  0.96896200  0.24688800  0.24623600  1
  O  O4  1  0.78559700  0.23730600  0.65703100  1
  O  O5  1  0.21440300  0.76269400  0.34296900  1
  O  O6  1  0.03103800  0.75311200  0.75376400  1
  O  O7  1  0.40794700  0.21816600  0.45421400  1
  O  O8  1  0.59347200  0.24566000  0.06803500  1
  O  O9  1  0.76734100  0.75671400  0.17547000  1
loop_
_geom_bond_atom_site_label_1
_geom_bond_atom_site_label_2
_geom_bond_distance
_geom_bond_site_symmetry_2
Li0 O3 1.889874 1_555
Li0 O5 2.347914 1_655
Li0 O2 2.403369 1_555
Li0 O8 2.470864 1_555
Li0 O9 2.493580 1_555
Li1 O4 2.014036 1_555
Li1 O1 2.125510 1_555
Li1 O0 2.250248 1_555
Li2 O4 2.181777 1_455
Li2 O5 2.181777 1_545
Li2 Sb0 2.382874 1_555
Li2 Sb1 2.382874 1_445
Li2 O7 2.384958 1_555
Li2 O2 2.384958 1_445
Li2 O0 2.446647 1_555
Li2 O9 2.446647 1_445
Li3 O5 2.014036 1_555
Li3 O8 2.125510 1_555
Li3 O9 2.250248 1_555
Li4 O6 1.889874 1_555
Li4 O4 2.347914 1_455
Li4 O7 2.403369 1_555
Li4 O1 2.470864 1_555
Li4 O0 2.493580 1_555
Co0 Li3 2.249665 1_555
Co0 Li1 2.249665 1_454
Co0 O0 2.387617 1_554
Co0 O9 2.387617 1_455
Co0 Co2 2.465711 1_565
Co0 Co1 2.465711 1_444
Co0 O8 2.548671 1_455
Co0 O1 2.548671 1_554
Co0 O5 2.570372 1_555
Co0 O4 2.570372 1_454
Co0 O3 2.717511 1_455
Co0 O6 2.717511 1_554
Co1 O6 2.168347 1_655
Co1 O8 2.280547 1_566
Co1 O1 2.373322 1_555
Co1 O0 2.628789 1_665
Co2 O3 2.168347 1_455
Co2 O1 2.280547 1_544
Co2 O8 2.373322 1_555
Co2 O9 2.628789 1_445
O0 Sb0 1.922686 1_555
O1 Sb0 2.591360 1_565
O2 Sb0 1.988670 1_565
O4 Sb0 2.249793 1_555
O5 Sb1 2.249793 1_555
O7 Sb1 1.988670 1_545
O8 Sb1 2.591360 1_545
O9 Sb1 1.922686 1_555
