# generated using pymatgen
data_VZnAsO5
_symmetry_space_group_name_H-M   'P 1'
_cell_length_a   6.22604400
_cell_length_b   8.20291700
_cell_length_c   8.36207800
_cell_angle_alpha   90.00000000
_cell_angle_beta   90.00000000
_cell_angle_gamma   90.00000000
_symmetry_Int_Tables_number   1
_chemical_formula_structural   VZnAsO5
_chemical_formula_sum   'V4 Zn4 As4 O20'
_cell_volume   427.06572438
_cell_formula_units_Z   4
loop_
 _symmetry_equiv_pos_site_id
 _symmetry_equiv_pos_as_xyz
  1  'x, y, z'
loop_
 _atom_site_type_symbol
 _atom_site_label
 _atom_site_symmetry_multiplicity
 _atom_site_fract_x
 _atom_site_fract_y
 _atom_site_fract_z
 _atom_site_occupancy
  V  V0  1  0.26014800  0.75478800  0.00553900  1
  V  V1  1  0.23985200  0.24521200  0.50553900  1
  V  V2  1  0.73985200  0.25478800  0.49446100  1
  V  V3  1  0.76014800  0.74521200  0.99446100  1
  Zn  Zn0  1  0.08958300  0.85607000  0.68301300  1
  Zn  Zn1  1  0.41041700  0.14393000  0.18301300  1
  Zn  Zn2  1  0.91041700  0.35607000  0.81698700  1
  Zn  Zn3  1  0.58958300  0.64393000  0.31698700  1
  As  As0  1  0.49527400  0.08269300  0.81617200  1
  As  As1  1  0.00472600  0.91730700  0.31617200  1
  As  As2  1  0.50472600  0.58269300  0.68382800  1
  As  As3  1  0.99527400  0.41730700  0.18382800  1
  O  O0  1  0.51188600  0.88849100  0.89626900  1
  O  O1  1  0.98811400  0.11150900  0.39626900  1
  O  O2  1  0.48811400  0.38849100  0.60373100  1
  O  O3  1  0.01188600  0.61150900  0.10373100  1
  O  O4  1  0.45506700  0.21704600  0.96973300  1
  O  O5  1  0.04493300  0.78295400  0.46973300  1
  O  O6  1  0.54493300  0.71704600  0.53026700  1
  O  O7  1  0.95506700  0.28295400  0.03026700  1
  O  O8  1  0.72986800  0.12895300  0.71696600  1
  O  O9  1  0.77013200  0.87104700  0.21696600  1
  O  O10  1  0.27013200  0.62895300  0.78303400  1
  O  O11  1  0.22986800  0.37104700  0.28303400  1
  O  O12  1  0.27346200  0.07562000  0.68826400  1
  O  O13  1  0.22653800  0.92438000  0.18826400  1
  O  O14  1  0.72653800  0.57562000  0.81173600  1
  O  O15  1  0.77346200  0.42438000  0.31173600  1
  O  O16  1  0.00485400  0.85430700  0.90018000  1
  O  O17  1  0.49514600  0.14569300  0.40018000  1
  O  O18  1  0.99514600  0.35430700  0.59982000  1
  O  O19  1  0.50485400  0.64569300  0.09982000  1
loop_
_geom_bond_atom_site_label_1
_geom_bond_atom_site_label_2
_geom_bond_distance
_geom_bond_site_symmetry_2
As0 O4 1.710598 1_555
As0 O8 1.722065 1_555
As0 O0 1.731191 1_545
As0 O12 1.747728 1_555
As1 O5 1.710598 1_555
As1 O9 1.722065 1_455
As1 O1 1.731191 1_465
As1 O13 1.747728 1_555
As2 O6 1.710598 1_555
As2 O10 1.722065 1_555
As2 O2 1.731191 1_555
As2 O14 1.747728 1_555
As3 O7 1.710598 1_555
As3 O11 1.722065 1_655
As3 O3 1.731191 1_655
As3 O15 1.747728 1_555
O0 V3 2.108243 1_555
O0 V0 2.119974 1_556
O1 V2 2.108243 1_555
O1 V1 2.119974 1_655
O2 V1 2.108243 1_555
O2 V2 2.119974 1_555
O3 V0 2.108243 1_555
O3 V3 2.119974 1_454
O4 Zn1 1.902036 1_556
O5 Zn0 1.902036 1_555
O6 Zn3 1.902036 1_555
O7 Zn2 1.902036 1_554
O8 V2 2.128656 1_555
O8 Zn2 2.331095 1_555
O9 V3 2.128656 1_554
O9 Zn3 2.331095 1_555
O10 V0 2.128656 1_556
O10 Zn0 2.331095 1_555
O11 V1 2.128656 1_555
O11 Zn1 2.331095 1_555
O12 V1 2.076957 1_555
O12 Zn0 2.134480 1_545
O13 V0 2.076957 1_555
O13 Zn1 2.134480 1_565
O14 V3 2.076957 1_555
O14 Zn2 2.134480 1_555
O15 V2 2.076957 1_555
O15 Zn3 2.134480 1_555
O16 Zn0 1.891093 1_555
O16 V3 1.934838 1_455
O16 V0 1.992244 1_556
O17 Zn1 1.891093 1_555
O17 V2 1.934838 1_555
O17 V1 1.992244 1_555
O18 Zn2 1.891093 1_555
O18 V1 1.934838 1_655
O18 V2 1.992244 1_555
O19 Zn3 1.891093 1_555
O19 V0 1.934838 1_555
O19 V3 1.992244 1_554
