# generated using pymatgen
data_EuGe3
_symmetry_space_group_name_H-M   'P 1'
_cell_length_a   6.37708208
_cell_length_b   6.37708208
_cell_length_c   4.97324998
_cell_angle_alpha   90.00000000
_cell_angle_beta   90.00000000
_cell_angle_gamma   120.00000681
_symmetry_Int_Tables_number   1
_chemical_formula_structural   EuGe3
_chemical_formula_sum   'Eu2 Ge6'
_cell_volume   175.15192094
_cell_formula_units_Z   2
loop_
 _symmetry_equiv_pos_site_id
 _symmetry_equiv_pos_as_xyz
  1  'x, y, z'
loop_
 _atom_site_type_symbol
 _atom_site_label
 _atom_site_symmetry_multiplicity
 _atom_site_fract_x
 _atom_site_fract_y
 _atom_site_fract_z
 _atom_site_occupancy
  Eu  Eu0  1  0.33333300  0.66666700  0.75000000  1
  Eu  Eu1  1  0.66666700  0.33333300  0.25000000  1
  Ge  Ge0  1  0.13766221  0.86233779  0.25000000  1
  Ge  Ge1  1  0.13766221  0.27532442  0.25000000  1
  Ge  Ge2  1  0.72467558  0.86233779  0.25000000  1
  Ge  Ge3  1  0.86233768  0.13766232  0.75000000  1
  Ge  Ge4  1  0.86233768  0.72467537  0.75000000  1
  Ge  Ge5  1  0.27532463  0.13766232  0.75000000  1
loop_
_geom_bond_atom_site_label_1
_geom_bond_atom_site_label_2
_geom_bond_distance
_geom_bond_site_symmetry_2
Eu0 Ge5 3.204592 1_565
Eu0 Ge4 3.204592 1_455
Eu0 Ge3 3.204595 1_455
Eu0 Ge3 3.204595 1_565
Eu0 Ge4 3.204598 1_555
Eu0 Ge5 3.204598 1_555
Eu0 Ge0 3.294599 1_555
Eu0 Ge0 3.294599 1_556
Eu0 Ge1 3.294603 1_555
Eu0 Ge1 3.294603 1_556
Eu0 Ge2 3.294603 1_555
Eu0 Ge2 3.294603 1_556
Eu1 Ge1 3.204592 1_655
Eu1 Ge2 3.204592 1_545
Eu1 Ge0 3.204595 1_545
Eu1 Ge0 3.204595 1_655
Eu1 Ge2 3.204598 1_555
Eu1 Ge1 3.204598 1_555
Eu1 Ge3 3.294598 1_555
Eu1 Ge3 3.294598 1_554
Eu1 Ge5 3.294602 1_555
Eu1 Ge5 3.294602 1_554
Eu1 Ge4 3.294602 1_555
Eu1 Ge4 3.294602 1_554
Ge0 Ge1 2.633650 1_565
Ge0 Ge2 2.633650 1_455
Ge0 Ge4 2.914677 1_455
Ge0 Ge5 2.914677 1_564
Ge0 Ge4 2.914677 1_454
Ge0 Ge5 2.914677 1_565
Ge1 Ge2 2.633649 1_445
Ge1 Ge3 2.914677 1_455
Ge1 Ge3 2.914677 1_454
Ge1 Ge5 2.914677 1_555
Ge1 Ge5 2.914677 1_554
Ge2 Ge3 2.914677 1_565
Ge2 Ge3 2.914677 1_564
Ge2 Ge4 2.914677 1_555
Ge2 Ge4 2.914677 1_554
Ge3 Ge4 2.633652 1_545
Ge3 Ge5 2.633652 1_655
Ge4 Ge5 2.633651 1_665
