# generated using pymatgen
data_Na3Ga3Ge3O16
_symmetry_space_group_name_H-M   'P 1'
_cell_length_a   9.23249610
_cell_length_b   9.23249610
_cell_length_c   9.23249612
_cell_angle_alpha   90.91825659
_cell_angle_beta   90.91825659
_cell_angle_gamma   90.91825387
_symmetry_Int_Tables_number   1
_chemical_formula_structural   Na3Ga3Ge3O16
_chemical_formula_sum   'Na6 Ga6 Ge6 O32'
_cell_volume   786.66211719
_cell_formula_units_Z   2
loop_
 _symmetry_equiv_pos_site_id
 _symmetry_equiv_pos_as_xyz
  1  'x, y, z'
loop_
 _atom_site_type_symbol
 _atom_site_label
 _atom_site_symmetry_multiplicity
 _atom_site_fract_x
 _atom_site_fract_y
 _atom_site_fract_z
 _atom_site_occupancy
  Na  Na0  1  0.32821100  0.67124500  0.32952300  1
  Na  Na1  1  0.67124500  0.32952300  0.32821100  1
  Na  Na2  1  0.32952300  0.32821100  0.67124500  1
  Na  Na3  1  0.17124500  0.82821100  0.82952300  1
  Na  Na4  1  0.82952300  0.17124500  0.82821100  1
  Na  Na5  1  0.82821100  0.82952300  0.17124500  1
  Ga  Ga0  1  0.99500300  0.75156300  0.50368100  1
  Ga  Ga1  1  0.50368100  0.99500300  0.75156300  1
  Ga  Ga2  1  0.75156300  0.50368100  0.99500300  1
  Ga  Ga3  1  0.49500300  0.00368100  0.25156300  1
  Ga  Ga4  1  0.25156300  0.49500300  0.00368100  1
  Ga  Ga5  1  0.00368100  0.25156300  0.49500300  1
  Ge  Ge0  1  0.50302900  0.75071100  0.99860300  1
  Ge  Ge1  1  0.99860300  0.50302900  0.75071100  1
  Ge  Ge2  1  0.75071100  0.99860300  0.50302900  1
  Ge  Ge3  1  0.00302900  0.49860300  0.25071100  1
  Ge  Ge4  1  0.25071100  0.00302900  0.49860300  1
  Ge  Ge5  1  0.49860300  0.25071100  0.00302900  1
  O  O0  1  0.92129300  0.64532400  0.65326500  1
  O  O1  1  0.65326500  0.92129300  0.64532400  1
  O  O2  1  0.64532400  0.65326500  0.92129300  1
  O  O3  1  0.08299100  0.63700800  0.36389200  1
  O  O4  1  0.35370000  0.91573900  0.36290700  1
  O  O5  1  0.36959100  0.64280500  0.08417400  1
  O  O6  1  0.91573900  0.36290700  0.35370000  1
  O  O7  1  0.64280500  0.08417400  0.36959100  1
  O  O8  1  0.63700800  0.36389200  0.08299100  1
  O  O9  1  0.08417400  0.36959100  0.64280500  1
  O  O10  1  0.36389200  0.08299100  0.63700800  1
  O  O11  1  0.36290700  0.35370000  0.91573900  1
  O  O12  1  0.41573900  0.85370000  0.86290700  1
  O  O13  1  0.14280500  0.86959100  0.58417400  1
  O  O14  1  0.13700800  0.58299100  0.86389200  1
  O  O15  1  0.58417400  0.14280500  0.86959100  1
  O  O16  1  0.86389200  0.13700800  0.58299100  1
  O  O17  1  0.86290700  0.41573900  0.85370000  1
  O  O18  1  0.42129300  0.15326500  0.14532400  1
  O  O19  1  0.15326500  0.14532400  0.42129300  1
  O  O20  1  0.14532400  0.42129300  0.15326500  1
  O  O21  1  0.58299100  0.86389200  0.13700800  1
  O  O22  1  0.85370000  0.86290700  0.41573900  1
  O  O23  1  0.86959100  0.58417400  0.14280500  1
  O  O24  1  0.93721200  0.93721200  0.93721200  1
  O  O25  1  0.07026800  0.91456500  0.07119600  1
  O  O26  1  0.91456500  0.07119600  0.07026800  1
  O  O27  1  0.07119600  0.07026800  0.91456500  1
  O  O28  1  0.41456500  0.57026800  0.57119600  1
  O  O29  1  0.57119600  0.41456500  0.57026800  1
  O  O30  1  0.43721200  0.43721200  0.43721200  1
  O  O31  1  0.57026800  0.57119600  0.41456500  1
loop_
_geom_bond_atom_site_label_1
_geom_bond_atom_site_label_2
_geom_bond_distance
_geom_bond_site_symmetry_2
Na0 O4 2.281246 1_555
Na0 O3 2.308586 1_555
Na0 O5 2.314702 1_555
Na0 O31 2.548949 1_555
Na0 O28 2.552780 1_555
Na0 O30 2.603151 1_555
Na1 O6 2.281246 1_555
Na1 O8 2.308586 1_555
Na1 O7 2.314702 1_555
Na1 O29 2.548949 1_555
Na1 O31 2.552780 1_555
Na1 O30 2.603151 1_555
Na2 O11 2.281246 1_555
Na2 O10 2.308586 1_555
Na2 O9 2.314702 1_555
Na2 O28 2.548949 1_555
Na2 O29 2.552780 1_555
Na2 O30 2.603151 1_555
Na3 O12 2.281246 1_555
Na3 O14 2.308586 1_555
Na3 O13 2.314702 1_555
Na3 O27 2.548949 1_565
Na3 O25 2.552780 1_556
Na3 O24 2.603151 1_455
Na4 O17 2.281246 1_555
Na4 O16 2.308586 1_555
Na4 O15 2.314702 1_555
Na4 O26 2.548949 1_556
Na4 O27 2.552780 1_655
Na4 O24 2.603151 1_545
Na5 O22 2.281246 1_555
Na5 O21 2.308586 1_555
Na5 O23 2.314702 1_555
Na5 O25 2.548949 1_655
Na5 O26 2.552780 1_565
Na5 O24 2.603151 1_554
Ga0 O0 1.839725 1_555
Ga0 O22 1.858409 1_555
Ga0 O3 1.860519 1_655
Ga0 O13 1.869671 1_655
Ga1 O1 1.839725 1_555
Ga1 O12 1.858409 1_555
Ga1 O10 1.860519 1_565
Ga1 O15 1.869670 1_565
Ga2 O2 1.839724 1_555
Ga2 O17 1.858409 1_555
Ga2 O8 1.860519 1_556
Ga2 O23 1.869670 1_556
Ga3 O18 1.839725 1_555
Ga3 O4 1.858409 1_545
Ga3 O21 1.860519 1_545
Ga3 O7 1.869670 1_555
Ga4 O20 1.839725 1_555
Ga4 O11 1.858409 1_554
Ga4 O14 1.860519 1_554
Ga4 O5 1.869671 1_555
Ga5 O19 1.839724 1_555
Ga5 O6 1.858409 1_455
Ga5 O16 1.860519 1_455
Ga5 O9 1.869670 1_555
Ge0 O2 1.758445 1_555
Ge0 O5 1.775240 1_556
Ge0 O12 1.775813 1_555
Ge0 O21 1.781009 1_556
Ge1 O0 1.758445 1_555
Ge1 O9 1.775239 1_655
Ge1 O17 1.775813 1_555
Ge1 O14 1.781009 1_655
Ge2 O1 1.758445 1_555
Ge2 O7 1.775239 1_565
Ge2 O22 1.775813 1_555
Ge2 O16 1.781009 1_565
Ge3 O20 1.758445 1_555
Ge3 O23 1.775239 1_455
Ge3 O6 1.775813 1_455
Ge3 O3 1.781009 1_555
Ge4 O19 1.758445 1_555
Ge4 O13 1.775240 1_545
Ge4 O4 1.775813 1_545
Ge4 O10 1.781009 1_555
Ge5 O18 1.758445 1_555
Ge5 O15 1.775239 1_554
Ge5 O11 1.775813 1_554
Ge5 O8 1.781009 1_555
O24 O26 1.746649 1_566
O24 O25 1.746649 1_656
O24 O27 1.746649 1_665
O28 O30 1.746649 1_555
O29 O30 1.746649 1_555
O30 O31 1.746649 1_555
