# generated using pymatgen
data_VCrSi4
_symmetry_space_group_name_H-M   'P 1'
_cell_length_a   12.68255400
_cell_length_b   4.48929400
_cell_length_c   4.49876156
_cell_angle_alpha   60.17525725
_cell_angle_beta   90.00000000
_cell_angle_gamma   90.00000000
_symmetry_Int_Tables_number   1
_chemical_formula_structural   VCrSi4
_chemical_formula_sum   'V3 Cr3 Si12'
_cell_volume   222.21462426
_cell_formula_units_Z   3
loop_
 _symmetry_equiv_pos_site_id
 _symmetry_equiv_pos_as_xyz
  1  'x, y, z'
loop_
 _atom_site_type_symbol
 _atom_site_label
 _atom_site_symmetry_multiplicity
 _atom_site_fract_x
 _atom_site_fract_y
 _atom_site_fract_z
 _atom_site_occupancy
  V  V0  1  0.24991600  0.00000000  0.50000000  1
  V  V1  1  0.58363500  0.50000000  0.50000000  1
  V  V2  1  0.08310200  0.50000000  0.50000000  1
  Cr  Cr0  1  0.91591900  0.50000000  0.00000000  1
  Cr  Cr1  1  0.41626300  0.50000000  0.00000000  1
  Cr  Cr2  1  0.75118900  0.00000000  0.50000000  1
  Si  Si0  1  0.91603000  0.83757100  0.32991400  1
  Si  Si1  1  0.41686000  0.83466200  0.32761600  1
  Si  Si2  1  0.75043500  0.32995900  0.83624100  1
  Si  Si3  1  0.25073300  0.32598500  0.83824200  1
  Si  Si4  1  0.58345700  0.83621200  0.83409100  1
  Si  Si5  1  0.08247300  0.83426100  0.83940400  1
  Si  Si6  1  0.91603000  0.16242900  0.67008600  1
  Si  Si7  1  0.41686000  0.16533800  0.67238400  1
  Si  Si8  1  0.75043500  0.67004100  0.16375900  1
  Si  Si9  1  0.25073300  0.67401500  0.16175800  1
  Si  Si10  1  0.58345700  0.16378800  0.16590900  1
  Si  Si11  1  0.08247300  0.16573900  0.16059600  1
loop_
_geom_bond_atom_site_label_1
_geom_bond_atom_site_label_2
_geom_bond_distance
_geom_bond_site_symmetry_2
Cr0 Si8 2.467724 1_555
Cr0 Si2 2.467724 1_554
Cr0 Si11 2.481391 1_655
Cr0 Si5 2.481391 1_654
Cr0 Si6 2.579961 1_564
Cr0 Si0 2.579961 1_545
Cr0 Si0 2.595532 1_555
Cr0 Si6 2.595532 1_554
Cr0 Si0 2.615332 1_554
Cr0 Si6 2.615332 1_555
Cr1 Si3 2.472359 1_554
Cr1 Si9 2.472359 1_555
Cr1 Si4 2.492178 1_554
Cr1 Si10 2.492178 1_555
Cr1 Si7 2.575291 1_554
Cr1 Si1 2.575291 1_555
Cr1 Si7 2.591323 1_564
Cr1 Si1 2.591323 1_545
Cr1 Si7 2.624262 1_555
Cr1 Si1 2.624262 1_554
Cr2 Si6 2.458220 1_555
Cr2 Si0 2.458220 1_545
Cr2 Si4 2.495125 1_545
Cr2 Si10 2.495125 1_555
Cr2 Si8 2.590608 1_546
Cr2 Si2 2.590608 1_554
Cr2 Si8 2.590611 1_545
Cr2 Si2 2.590611 1_555
Cr2 Si2 2.609673 1_545
Cr2 Si8 2.609673 1_555
Si0 Si11 2.467875 1_665
Si0 Si8 2.468662 1_555
Si0 V2 2.493671 1_655
Si0 Si6 2.575308 1_564
Si0 Si6 2.586284 1_565
Si0 Si6 2.629569 1_555
Si1 Si9 2.459923 1_555
Si1 Si10 2.471320 1_565
Si1 V1 2.484643 1_555
Si1 V0 2.491544 1_565
Si1 Si7 2.557374 1_564
Si1 Si7 2.607424 1_555
Si1 Si7 2.626734 1_565
Si2 Si6 2.468662 1_555
Si2 V1 2.489463 1_555
Si2 Si8 2.570176 1_546
Si2 Si8 2.596049 1_556
Si2 Si8 2.624726 1_555
Si3 Si7 2.459923 1_555
Si3 V2 2.502630 1_555
Si3 Si9 2.539221 1_546
Si3 V0 2.582856 1_556
Si3 V0 2.583083 1_555
Si3 Si9 2.611758 1_556
Si3 V0 2.625154 1_565
Si3 Si9 2.640703 1_555
Si4 Si7 2.471320 1_565
Si4 Si8 2.477954 1_556
Si4 V1 2.585334 1_565
Si4 V1 2.599052 1_556
Si4 V1 2.606468 1_555
Si5 Si6 2.467875 1_465
Si5 Si9 2.477231 1_556
Si5 V0 2.502930 1_565
Si5 V2 2.578354 1_556
Si5 V2 2.593175 1_565
Si5 V2 2.619613 1_555
Si6 V2 2.493671 1_655
Si7 V1 2.484643 1_555
Si7 V0 2.491544 1_555
Si8 V1 2.489463 1_555
Si9 V2 2.502630 1_555
Si9 V0 2.582856 1_564
Si9 V0 2.583083 1_565
Si9 V0 2.625154 1_555
Si10 Si2 2.477954 1_554
Si10 Si4 2.564096 1_544
Si10 V1 2.585334 1_545
Si10 V1 2.599052 1_554
Si10 V1 2.606468 1_555
Si10 Si4 2.607965 1_545
Si10 Si4 2.618897 1_554
Si11 Si3 2.477231 1_554
Si11 V0 2.502930 1_555
Si11 Si5 2.537958 1_544
Si11 V2 2.578354 1_554
Si11 V2 2.593175 1_545
Si11 Si5 2.604123 1_554
Si11 V2 2.619613 1_555
Si11 Si5 2.649500 1_545
