# generated using pymatgen
data_LiZnPO4
_symmetry_space_group_name_H-M   'P 1'
_cell_length_a   8.58166057
_cell_length_b   8.58166057
_cell_length_c   8.58166015
_cell_angle_alpha   107.89095500
_cell_angle_beta   107.89095500
_cell_angle_gamma   107.89095332
_symmetry_Int_Tables_number   1
_chemical_formula_structural   LiZnPO4
_chemical_formula_sum   'Li6 Zn6 P6 O24'
_cell_volume   513.00247688
_cell_formula_units_Z   6
loop_
 _symmetry_equiv_pos_site_id
 _symmetry_equiv_pos_as_xyz
  1  'x, y, z'
loop_
 _atom_site_type_symbol
 _atom_site_label
 _atom_site_symmetry_multiplicity
 _atom_site_fract_x
 _atom_site_fract_y
 _atom_site_fract_z
 _atom_site_occupancy
  Li  Li0  1  0.38790900  0.78954400  0.57070800  1
  Li  Li1  1  0.87306300  0.10607100  0.27815600  1
  Li  Li2  1  0.10607100  0.27815600  0.87306300  1
  Li  Li3  1  0.27815600  0.87306300  0.10607100  1
  Li  Li4  1  0.78954400  0.57070800  0.38790900  1
  Li  Li5  1  0.57070800  0.38790900  0.78954400  1
  Zn  Zn0  1  0.94701100  0.54460700  0.76372200  1
  Zn  Zn1  1  0.54460700  0.76372200  0.94701100  1
  Zn  Zn2  1  0.76372200  0.94701100  0.54460700  1
  Zn  Zn3  1  0.05750300  0.46264400  0.23043600  1
  Zn  Zn4  1  0.46264400  0.23043600  0.05750300  1
  Zn  Zn5  1  0.23043600  0.05750300  0.46264400  1
  P  P0  1  0.90583200  0.71796900  0.12419100  1
  P  P1  1  0.71796900  0.12419100  0.90583200  1
  P  P2  1  0.12419100  0.90583200  0.71796900  1
  P  P3  1  0.20855900  0.43147100  0.61459600  1
  P  P4  1  0.43147100  0.61459600  0.20855900  1
  P  P5  1  0.61459600  0.20855900  0.43147100  1
  O  O0  1  0.31144500  0.63205000  0.31088000  1
  O  O1  1  0.69109200  0.35327700  0.63165000  1
  O  O2  1  0.63165000  0.69109200  0.35327700  1
  O  O3  1  0.92359100  0.25612000  0.97979900  1
  O  O4  1  0.25612000  0.97979900  0.92359100  1
  O  O5  1  0.97979900  0.92359100  0.25612000  1
  O  O6  1  0.69856900  0.02344000  0.02728600  1
  O  O7  1  0.02344000  0.02728600  0.69856900  1
  O  O8  1  0.02728600  0.69856900  0.02344000  1
  O  O9  1  0.35327700  0.63165000  0.69109200  1
  O  O10  1  0.31088000  0.31144500  0.63205000  1
  O  O11  1  0.63205000  0.31088000  0.31144500  1
  O  O12  1  0.41069500  0.07526400  0.35962100  1
  O  O13  1  0.35962100  0.41069500  0.07526400  1
  O  O14  1  0.07526400  0.35962100  0.41069500  1
  O  O15  1  0.64334500  0.98001200  0.70676400  1
  O  O16  1  0.70676400  0.64334500  0.98001200  1
  O  O17  1  0.98001200  0.70676400  0.64334500  1
  O  O18  1  0.23535000  0.91442700  0.60529900  1
  O  O19  1  0.60529900  0.23535000  0.91442700  1
  O  O20  1  0.91442700  0.60529900  0.23535000  1
  O  O21  1  0.72900800  0.09975000  0.41840000  1
  O  O22  1  0.41840000  0.72900800  0.09975000  1
  O  O23  1  0.09975000  0.41840000  0.72900800  1
loop_
_geom_bond_atom_site_label_1
_geom_bond_atom_site_label_2
_geom_bond_distance
_geom_bond_site_symmetry_2
Li0 O9 1.947541 1_555
Li0 O18 1.963692 1_555
Li0 O15 1.973205 1_555
Li0 O0 1.983331 1_555
Li1 O6 1.951647 1_555
Li1 O21 1.973003 1_555
Li1 O14 1.996527 1_655
Li1 O5 2.032941 1_545
Li2 O7 1.951647 1_555
Li2 O23 1.973003 1_555
Li2 O13 1.996527 1_556
Li2 O3 2.032941 1_455
Li3 O8 1.951647 1_555
Li3 O22 1.973003 1_555
Li3 O12 1.996527 1_565
Li3 O4 2.032941 1_554
Li4 O2 1.947541 1_555
Li4 O20 1.963692 1_555
Li4 O17 1.973205 1_555
Li4 O11 1.983331 1_555
Li5 O1 1.947541 1_555
Li5 O19 1.963692 1_555
Li5 O16 1.973205 1_555
Li5 O10 1.983331 1_555
O0 P4 1.556952 1_555
O0 Zn3 1.962561 1_555
O1 P5 1.555558 1_555
O1 Zn0 1.978761 1_555
O2 P4 1.555558 1_555
O2 Zn2 1.978761 1_555
O3 P1 1.562448 1_555
O3 Zn3 1.993939 1_656
O4 P2 1.562448 1_555
O4 Zn4 1.993939 1_566
O5 P0 1.562448 1_555
O5 Zn5 1.993939 1_665
O6 P1 1.559958 1_554
O6 Zn1 1.968738 1_544
O7 P2 1.559958 1_545
O7 Zn2 1.968738 1_445
O8 P0 1.559958 1_455
O8 Zn0 1.968737 1_454
O9 P3 1.555558 1_555
O9 Zn1 1.978761 1_555
O10 P3 1.556952 1_555
O10 Zn5 1.962561 1_555
O11 P5 1.556952 1_555
O11 Zn4 1.962561 1_555
O12 P5 1.557064 1_555
O12 Zn5 1.994009 1_555
O13 P4 1.557064 1_555
O13 Zn4 1.994009 1_555
O14 P3 1.557064 1_555
O14 Zn3 1.994009 1_555
O15 P1 1.549745 1_565
O15 Zn2 1.976033 1_555
O16 P0 1.549745 1_556
O16 Zn1 1.976034 1_555
O17 P2 1.549745 1_655
O17 Zn0 1.976033 1_555
O18 P2 1.554863 1_555
O18 Zn5 1.982848 1_565
O19 P1 1.554863 1_555
O19 Zn4 1.982848 1_556
O20 P0 1.554863 1_555
O20 Zn3 1.982848 1_655
O21 P5 1.554068 1_555
O21 Zn2 1.973264 1_545
O22 P4 1.554068 1_555
O22 Zn1 1.973264 1_554
O23 P3 1.554068 1_555
O23 Zn0 1.973264 1_455
