# generated using pymatgen
data_In(PO3)3
_symmetry_space_group_name_H-M   'P 1'
_cell_length_a   11.95820465
_cell_length_b   11.95820465
_cell_length_c   9.68373843
_cell_angle_alpha   69.97900582
_cell_angle_beta   69.97900582
_cell_angle_gamma   110.79931498
_symmetry_Int_Tables_number   1
_chemical_formula_structural   In(PO3)3
_chemical_formula_sum   'In6 P18 O54'
_cell_volume   1032.77242424
_cell_formula_units_Z   6
loop_
 _symmetry_equiv_pos_site_id
 _symmetry_equiv_pos_as_xyz
  1  'x, y, z'
loop_
 _atom_site_type_symbol
 _atom_site_label
 _atom_site_symmetry_multiplicity
 _atom_site_fract_x
 _atom_site_fract_y
 _atom_site_fract_z
 _atom_site_occupancy
  In  In0  1  0.19158074  0.01185558  0.48792709  1
  In  In1  1  0.01185558  0.19158074  0.98792709  1
  In  In2  1  0.33899099  0.82540600  0.02318720  1
  In  In3  1  0.82540600  0.33899099  0.52318720  1
  In  In4  1  0.52156112  0.67748141  0.48892280  1
  In  In5  1  0.67748141  0.52156112  0.98892280  1
  P  P0  1  0.54251146  0.16103817  0.23291353  1
  P  P1  1  0.16103817  0.54251146  0.73291353  1
  P  P2  1  0.83873599  0.88904652  0.71177180  1
  P  P3  1  0.88904652  0.83873599  0.21177180  1
  P  P4  1  0.08078622  0.80562127  0.33552314  1
  P  P5  1  0.80562127  0.08078622  0.83552314  1
  P  P6  1  0.74827425  0.14674229  0.33938239  1
  P  P7  1  0.14674229  0.74827425  0.83938239  1
  P  P8  1  0.46616910  0.18454448  0.78186653  1
  P  P9  1  0.18454448  0.46616910  0.28186653  1
  P  P10  1  0.48515691  0.42360951  0.81863918  1
  P  P11  1  0.42360951  0.48515691  0.31863918  1
  P  P12  1  0.27469860  0.21902443  0.65429873  1
  P  P13  1  0.21902443  0.27469860  0.15429873  1
  P  P14  1  0.54201376  0.93118934  0.18105338  1
  P  P15  1  0.93118934  0.54201376  0.68105338  1
  P  P16  1  0.60065201  0.87393963  0.67101280  1
  P  P17  1  0.87393963  0.60065201  0.17101280  1
  O  O0  1  0.75144566  0.74166320  0.86020519  1
  O  O1  1  0.74166320  0.75144566  0.36020519  1
  O  O2  1  0.83646280  0.25570944  0.36040929  1
  O  O3  1  0.25570944  0.83646280  0.86040929  1
  O  O4  1  0.82239609  0.11124026  0.22010566  1
  O  O5  1  0.11124026  0.82239609  0.72010566  1
  O  O6  1  0.67381153  0.96199702  0.02442509  1
  O  O7  1  0.96199702  0.67381153  0.52442509  1
  O  O8  1  0.99062234  0.86045128  0.28391529  1
  O  O9  1  0.86045128  0.99062234  0.78391529  1
  O  O10  1  0.41287951  0.84429774  0.18907202  1
  O  O11  1  0.84429774  0.41287951  0.68907202  1
  O  O12  1  0.18457460  0.91379038  0.34260505  1
  O  O13  1  0.91379038  0.18457460  0.84260505  1
  O  O14  1  0.65952396  0.19840543  0.27983735  1
  O  O15  1  0.19840543  0.65952396  0.77983735  1
  O  O16  1  0.62579549  0.00789284  0.52230284  1
  O  O17  1  0.00789284  0.62579549  0.02230284  1
  O  O18  1  0.13778284  0.75816754  0.22081554  1
  O  O19  1  0.75816754  0.13778284  0.72081554  1
  O  O20  1  0.57174949  0.29647103  0.10791800  1
  O  O21  1  0.29647103  0.57174949  0.60791800  1
  O  O22  1  0.40242328  0.06137465  0.39773345  1
  O  O23  1  0.06137465  0.40242328  0.89773345  1
  O  O24  1  0.26518328  0.44163902  0.37942111  1
  O  O25  1  0.44163902  0.26518328  0.87942111  1
  O  O26  1  0.35601607  0.40115910  0.97119313  1
  O  O27  1  0.40115910  0.35601607  0.47119313  1
  O  O28  1  0.04494073  0.42182962  0.41707846  1
  O  O29  1  0.42182962  0.04494073  0.91707846  1
  O  O30  1  0.48378628  0.48578015  0.15613137  1
  O  O31  1  0.48578015  0.48378628  0.65613137  1
  O  O32  1  0.16102071  0.35679905  0.22173642  1
  O  O33  1  0.35679905  0.16102071  0.72173642  1
  O  O34  1  0.50495954  0.61642902  0.31097720  1
  O  O35  1  0.61642902  0.50495954  0.81097720  1
  O  O36  1  0.25907562  0.20281360  0.26847123  1
  O  O37  1  0.20281360  0.25907562  0.76847123  1
  O  O38  1  0.11410376  0.18643566  0.12853747  1
  O  O39  1  0.18643566  0.11410376  0.62853747  1
  O  O40  1  0.08525349  0.57336792  0.63014194  1
  O  O41  1  0.57336792  0.08525349  0.13014194  1
  O  O42  1  0.87112057  0.54645399  0.84003770  1
  O  O43  1  0.54645399  0.87112057  0.34003770  1
  O  O44  1  0.92061541  0.75833100  0.11729527  1
  O  O45  1  0.75833100  0.92061541  0.61729527  1
  O  O46  1  0.27467555  0.60976628  0.12462648  1
  O  O47  1  0.60976628  0.27467555  0.62462648  1
  O  O48  1  0.94018326  0.97841305  0.06908701  1
  O  O49  1  0.97841305  0.94018326  0.56908701  1
  O  O50  1  0.74837890  0.53353711  0.16081623  1
  O  O51  1  0.53353711  0.74837890  0.66081623  1
  O  O52  1  0.86232195  0.52797013  0.33835464  1
  O  O53  1  0.52797013  0.86232195  0.83835464  1
loop_
_geom_bond_atom_site_label_1
_geom_bond_atom_site_label_2
_geom_bond_distance
_geom_bond_site_symmetry_2
In0 O49 2.113185 1_445
In0 O39 2.118700 1_555
In0 O12 2.122153 1_545
In0 O22 2.132632 1_555
In0 O36 2.139131 1_555
In0 O5 2.144350 1_545
In1 O48 2.113185 1_446
In1 O38 2.118700 1_556
In1 O13 2.122153 1_455
In1 O23 2.132632 1_555
In1 O37 2.139131 1_555
In1 O4 2.144350 1_456
In2 O53 2.118089 1_554
In2 O10 2.119155 1_555
In2 O18 2.125496 1_555
In2 O3 2.125965 1_554
In2 O29 2.130274 1_564
In2 O46 2.132067 1_555
In3 O52 2.118089 1_555
In3 O11 2.119155 1_555
In3 O19 2.125496 1_555
In3 O2 2.125965 1_555
In3 O28 2.130274 1_655
In3 O47 2.132067 1_555
In4 O31 2.103235 1_555
In4 O43 2.111828 1_555
In4 O34 2.129437 1_555
In4 O51 2.133869 1_555
In4 O1 2.146841 1_555
In4 O21 2.152483 1_555
In5 O30 2.103235 1_556
In5 O42 2.111828 1_555
In5 O35 2.129437 1_555
In5 O50 2.133869 1_556
In5 O0 2.146841 1_555
In5 O20 2.152483 1_556
O0 P2 1.480993 1_555
O1 P3 1.480993 1_555
O2 P6 1.484696 1_555
O3 P7 1.484696 1_555
O4 P6 1.483912 1_555
O5 P7 1.483912 1_555
O6 P14 1.577472 1_555
O6 P5 1.582667 1_564
O7 P15 1.577472 1_555
O7 P4 1.582667 1_655
O8 P4 1.577600 1_655
O8 P3 1.584984 1_555
O9 P5 1.577600 1_565
O9 P2 1.584984 1_555
O10 P14 1.481014 1_555
O11 P15 1.481014 1_555
O12 P4 1.482272 1_555
O13 P5 1.482272 1_555
O14 P6 1.575202 1_555
O14 P0 1.579374 1_555
O15 P7 1.575202 1_555
O15 P1 1.579374 1_555
O16 P16 1.584948 1_545
O16 P6 1.588180 1_555
O17 P17 1.584948 1_455
O17 P7 1.588180 1_554
O18 P4 1.486041 1_555
O19 P5 1.486041 1_555
O20 P0 1.475143 1_555
O21 P1 1.475143 1_555
O22 P0 1.490958 1_555
O23 P1 1.490958 1_555
O24 P11 1.591516 1_555
O24 P9 1.594760 1_555
O25 P10 1.591516 1_555
O25 P8 1.594760 1_555
O26 P10 1.584671 1_555
O26 P13 1.590651 1_556
O27 P11 1.584671 1_555
O27 P12 1.590651 1_555
O28 P9 1.477079 1_555
O29 P8 1.477079 1_555
O30 P11 1.485637 1_555
O31 P10 1.485637 1_555
O32 P13 1.576052 1_555
O32 P9 1.581467 1_555
O33 P12 1.576052 1_555
O33 P8 1.581467 1_555
O34 P11 1.484034 1_555
O35 P10 1.484034 1_555
O36 P13 1.481523 1_555
O37 P12 1.481523 1_555
O38 P13 1.484774 1_555
O39 P12 1.484774 1_555
O40 P15 1.593343 1_455
O40 P1 1.597338 1_555
O41 P14 1.593343 1_545
O41 P0 1.597338 1_555
O42 P15 1.488245 1_555
O43 P14 1.488245 1_555
O44 P17 1.587328 1_555
O44 P3 1.589852 1_555
O45 P16 1.587328 1_555
O45 P2 1.589852 1_555
O46 P9 1.483362 1_555
O47 P8 1.483362 1_555
O48 P3 1.479445 1_555
O49 P2 1.479445 1_555
O50 P17 1.486029 1_555
O51 P16 1.486029 1_555
O52 P17 1.482028 1_555
O53 P16 1.482028 1_555
