# generated using pymatgen
data_KOsN2
_symmetry_space_group_name_H-M   'P 1'
_cell_length_a   6.25293100
_cell_length_b   12.16506300
_cell_length_c   15.23194500
_cell_angle_alpha   90.00000000
_cell_angle_beta   90.00000000
_cell_angle_gamma   90.00000000
_symmetry_Int_Tables_number   1
_chemical_formula_structural   KOsN2
_chemical_formula_sum   'K16 Os16 N32'
_cell_volume   1158.65292304
_cell_formula_units_Z   16
loop_
 _symmetry_equiv_pos_site_id
 _symmetry_equiv_pos_as_xyz
  1  'x, y, z'
loop_
 _atom_site_type_symbol
 _atom_site_label
 _atom_site_symmetry_multiplicity
 _atom_site_fract_x
 _atom_site_fract_y
 _atom_site_fract_z
 _atom_site_occupancy
  K  K0  1  0.25767400  0.99169000  0.42770800  1
  K  K1  1  0.75767400  0.50831000  0.57229200  1
  K  K2  1  0.74232600  0.49169000  0.07229200  1
  K  K3  1  0.24232600  0.00831000  0.92770800  1
  K  K4  1  0.74232600  0.00831000  0.57229200  1
  K  K5  1  0.24232600  0.49169000  0.42770800  1
  K  K6  1  0.25767400  0.50831000  0.92770800  1
  K  K7  1  0.75767400  0.99169000  0.07229200  1
  K  K8  1  0.41084300  0.25576300  0.30887400  1
  K  K9  1  0.91084300  0.24423700  0.69112600  1
  K  K10  1  0.58915700  0.75576300  0.19112600  1
  K  K11  1  0.08915700  0.74423700  0.80887400  1
  K  K12  1  0.58915700  0.74423700  0.69112600  1
  K  K13  1  0.08915700  0.75576300  0.30887400  1
  K  K14  1  0.41084300  0.24423700  0.80887400  1
  K  K15  1  0.91084300  0.25576300  0.19112600  1
  Os  Os0  1  0.75594400  0.01091400  0.31631100  1
  Os  Os1  1  0.25594400  0.48908600  0.68368900  1
  Os  Os2  1  0.24405600  0.51091400  0.18368900  1
  Os  Os3  1  0.74405600  0.98908600  0.81631100  1
  Os  Os4  1  0.24405600  0.98908600  0.68368900  1
  Os  Os5  1  0.74405600  0.51091400  0.31631100  1
  Os  Os6  1  0.75594400  0.48908600  0.81631100  1
  Os  Os7  1  0.25594400  0.01091400  0.18368900  1
  Os  Os8  1  0.85634500  0.26318300  0.44269800  1
  Os  Os9  1  0.35634500  0.23681700  0.55730200  1
  Os  Os10  1  0.14365500  0.76318300  0.05730200  1
  Os  Os11  1  0.64365500  0.73681700  0.94269800  1
  Os  Os12  1  0.14365500  0.73681700  0.55730200  1
  Os  Os13  1  0.64365500  0.76318300  0.44269800  1
  Os  Os14  1  0.85634500  0.23681700  0.94269800  1
  Os  Os15  1  0.35634500  0.26318300  0.05730200  1
  N  N0  1  0.15481700  0.26140200  0.46705400  1
  N  N1  1  0.65481700  0.23859800  0.53294600  1
  N  N2  1  0.84518300  0.76140200  0.03294600  1
  N  N3  1  0.34518300  0.73859800  0.96705400  1
  N  N4  1  0.84518300  0.73859800  0.53294600  1
  N  N5  1  0.34518300  0.76140200  0.46705400  1
  N  N6  1  0.15481700  0.23859800  0.96705400  1
  N  N7  1  0.65481700  0.26140200  0.03294600  1
  N  N8  1  0.78899100  0.40646700  0.40481600  1
  N  N9  1  0.28899100  0.09353300  0.59518400  1
  N  N10  1  0.21100900  0.90646700  0.09518400  1
  N  N11  1  0.71100900  0.59353300  0.90481600  1
  N  N12  1  0.21100900  0.59353300  0.59518400  1
  N  N13  1  0.71100900  0.90646700  0.40481600  1
  N  N14  1  0.78899100  0.09353300  0.90481600  1
  N  N15  1  0.28899100  0.40646700  0.09518400  1
  N  N16  1  0.79383100  0.15498900  0.35970800  1
  N  N17  1  0.29383100  0.34501100  0.64029200  1
  N  N18  1  0.20616900  0.65498900  0.14029200  1
  N  N19  1  0.70616900  0.84501100  0.85970800  1
  N  N20  1  0.20616900  0.84501100  0.64029200  1
  N  N21  1  0.70616900  0.65498900  0.35970800  1
  N  N22  1  0.79383100  0.34501100  0.85970800  1
  N  N23  1  0.29383100  0.15498900  0.14029200  1
  N  N24  1  0.48389300  0.49427400  0.25525200  1
  N  N25  1  0.98389300  0.00572600  0.74474800  1
  N  N26  1  0.51610700  0.99427400  0.24474800  1
  N  N27  1  0.01610700  0.50572600  0.75525200  1
  N  N28  1  0.51610700  0.50572600  0.74474800  1
  N  N29  1  0.01610700  0.99427400  0.25525200  1
  N  N30  1  0.48389300  0.00572600  0.75525200  1
  N  N31  1  0.98389300  0.49427400  0.24474800  1
loop_
_geom_bond_atom_site_label_1
_geom_bond_atom_site_label_2
_geom_bond_distance
_geom_bond_site_symmetry_2
K0 N9 2.842677 1_565
K0 N5 2.916645 1_555
K0 N29 3.030329 1_555
K0 N13 3.038386 1_555
K0 N26 3.221612 1_555
K0 N0 3.396794 1_565
K1 N8 2.842677 1_555
K1 N4 2.916645 1_555
K1 N28 3.030329 1_555
K1 N12 3.038386 1_655
K1 N27 3.221612 1_655
K1 N1 3.396794 1_555
K2 N11 2.842677 1_554
K2 N7 2.916645 1_555
K2 N31 3.030329 1_555
K2 N15 3.038386 1_555
K2 N24 3.221612 1_555
K2 N2 3.396794 1_555
K3 N10 2.842677 1_546
K3 N6 2.916645 1_555
K3 N30 3.030329 1_555
K3 N14 3.038386 1_455
K3 N25 3.221612 1_455
K3 N3 3.396794 1_545
K4 N13 2.842677 1_545
K4 N1 2.916645 1_555
K4 N25 3.030329 1_555
K4 N9 3.038386 1_555
K4 N30 3.221612 1_555
K4 N4 3.396794 1_545
K5 N12 2.842677 1_555
K5 N0 2.916645 1_555
K5 N24 3.030329 1_555
K5 N8 3.038386 1_455
K5 N31 3.221612 1_455
K5 N5 3.396794 1_555
K6 N15 2.842677 1_556
K6 N3 2.916645 1_555
K6 N27 3.030329 1_555
K6 N11 3.038386 1_555
K6 N28 3.221612 1_555
K6 N6 3.396794 1_555
K7 N14 2.842677 1_564
K7 N2 2.916645 1_555
K7 N26 3.030329 1_555
K7 N10 3.038386 1_655
K7 N29 3.221612 1_655
K7 N7 3.396794 1_565
K8 N16 2.799550 1_555
K8 N0 2.893576 1_555
K8 N23 2.938024 1_555
K8 N24 3.048682 1_555
K9 N17 2.799550 1_655
K9 N1 2.893576 1_555
K9 N22 2.938024 1_555
K9 N25 3.048682 1_555
K10 N18 2.799550 1_555
K10 N2 2.893576 1_555
K10 N21 2.938024 1_555
K10 N26 3.048682 1_555
K11 N19 2.799550 1_455
K11 N3 2.893576 1_555
K11 N20 2.938024 1_555
K11 N27 3.048682 1_555
K12 N20 2.799550 1_555
K12 N4 2.893576 1_555
K12 N19 2.938024 1_555
K12 N28 3.048682 1_555
K13 N21 2.799550 1_455
K13 N5 2.893576 1_555
K13 N18 2.938024 1_555
K13 N29 3.048682 1_555
K14 N22 2.799550 1_555
K14 N6 2.893576 1_555
K14 N17 2.938024 1_555
K14 N30 3.048682 1_555
K15 N23 2.799550 1_655
K15 N7 2.893576 1_555
K15 N16 2.938024 1_555
K15 N31 3.048682 1_555
N0 Os9 1.888669 1_555
N0 Os8 1.902964 1_455
N1 Os8 1.888669 1_555
N1 Os9 1.902964 1_555
N2 Os11 1.888669 1_554
N2 Os10 1.902964 1_655
N3 Os10 1.888669 1_556
N3 Os11 1.902964 1_555
N4 Os13 1.888669 1_555
N4 Os12 1.902964 1_655
N5 Os12 1.888669 1_555
N5 Os13 1.902964 1_555
N6 Os15 1.888669 1_556
N6 Os14 1.902964 1_455
N7 Os14 1.888669 1_554
N7 Os15 1.902964 1_555
N8 Os5 1.873704 1_555
N8 Os8 1.883767 1_555
N9 Os4 1.873704 1_545
N9 Os9 1.883767 1_555
N10 Os7 1.873704 1_565
N10 Os10 1.883767 1_555
N11 Os6 1.873704 1_555
N11 Os11 1.883767 1_555
N12 Os1 1.873704 1_555
N12 Os12 1.883767 1_555
N13 Os0 1.873704 1_565
N13 Os13 1.883767 1_555
N14 Os3 1.873704 1_545
N14 Os14 1.883767 1_555
N15 Os2 1.873704 1_555
N15 Os15 1.883767 1_555
N16 Os8 1.866305 1_555
N16 Os0 1.888111 1_555
N17 Os9 1.866305 1_555
N17 Os1 1.888111 1_555
N18 Os10 1.866305 1_555
N18 Os2 1.888111 1_555
N19 Os11 1.866305 1_555
N19 Os3 1.888111 1_555
N20 Os12 1.866305 1_555
N20 Os4 1.888111 1_555
N21 Os13 1.866305 1_555
N21 Os5 1.888111 1_555
N22 Os14 1.866305 1_555
N22 Os6 1.888111 1_555
N23 Os15 1.866305 1_555
N23 Os7 1.888111 1_555
N24 Os2 1.865000 1_555
N24 Os5 1.884776 1_555
N25 Os3 1.865000 1_545
N25 Os4 1.884776 1_645
N26 Os0 1.865000 1_565
N26 Os7 1.884776 1_565
N27 Os1 1.865000 1_555
N27 Os6 1.884776 1_455
N28 Os6 1.865000 1_555
N28 Os1 1.884776 1_555
N29 Os7 1.865000 1_565
N29 Os0 1.884776 1_465
N30 Os4 1.865000 1_545
N30 Os3 1.884776 1_545
N31 Os5 1.865000 1_555
N31 Os2 1.884776 1_655
