# generated using pymatgen
data_Mg14MnSnO16
_symmetry_space_group_name_H-M   'P 1'
_cell_length_a   4.38216900
_cell_length_b   8.71545100
_cell_length_c   8.72131700
_cell_angle_alpha   90.00000000
_cell_angle_beta   90.00000000
_cell_angle_gamma   90.00000000
_symmetry_Int_Tables_number   1
_chemical_formula_structural   Mg14MnSnO16
_chemical_formula_sum   'Mg14 Mn1 Sn1 O16'
_cell_volume   333.08959019
_cell_formula_units_Z   1
loop_
 _symmetry_equiv_pos_site_id
 _symmetry_equiv_pos_as_xyz
  1  'x, y, z'
loop_
 _atom_site_type_symbol
 _atom_site_label
 _atom_site_symmetry_multiplicity
 _atom_site_fract_x
 _atom_site_fract_y
 _atom_site_fract_z
 _atom_site_occupancy
  Mg  Mg0  1  0.00000000  0.00000000  0.50000000  1
  Mg  Mg1  1  0.00000000  0.50000000  0.50000000  1
  Mg  Mg2  1  0.50000000  0.75773000  0.00000000  1
  Mg  Mg3  1  0.50000000  0.24227000  0.00000000  1
  Mg  Mg4  1  0.50000000  0.75134200  0.50000000  1
  Mg  Mg5  1  0.50000000  0.24865800  0.50000000  1
  Mg  Mg6  1  0.50000000  0.00000000  0.74628900  1
  Mg  Mg7  1  0.50000000  0.50000000  0.74041800  1
  Mg  Mg8  1  0.50000000  0.00000000  0.25371100  1
  Mg  Mg9  1  0.50000000  0.50000000  0.25958200  1
  Mg  Mg10  1  0.00000000  0.75390800  0.74342200  1
  Mg  Mg11  1  0.00000000  0.24609200  0.74342200  1
  Mg  Mg12  1  0.00000000  0.75390800  0.25657800  1
  Mg  Mg13  1  0.00000000  0.24609200  0.25657800  1
  Mn  Mn0  1  0.00000000  0.00000000  0.00000000  1
  Sn  Sn0  1  0.00000000  0.50000000  0.00000000  1
  O  O0  1  0.00000000  0.00000000  0.73836700  1
  O  O1  1  0.00000000  0.50000000  0.72751800  1
  O  O2  1  0.00000000  0.00000000  0.26163300  1
  O  O3  1  0.00000000  0.50000000  0.27248200  1
  O  O4  1  0.50000000  0.75045500  0.75011600  1
  O  O5  1  0.50000000  0.24954500  0.75011600  1
  O  O6  1  0.50000000  0.75045500  0.24988400  1
  O  O7  1  0.50000000  0.24954500  0.24988400  1
  O  O8  1  0.50000000  0.00000000  0.00000000  1
  O  O9  1  0.50000000  0.50000000  0.00000000  1
  O  O10  1  0.50000000  0.00000000  0.50000000  1
  O  O11  1  0.50000000  0.50000000  0.50000000  1
  O  O12  1  0.00000000  0.76529500  0.00000000  1
  O  O13  1  0.00000000  0.23470500  0.00000000  1
  O  O14  1  0.00000000  0.75283800  0.50000000  1
  O  O15  1  0.00000000  0.24716200  0.50000000  1
loop_
_geom_bond_atom_site_label_1
_geom_bond_atom_site_label_2
_geom_bond_distance
_geom_bond_site_symmetry_2
Mg0 O0 2.078874 1_555
Mg0 O2 2.078874 1_555
Mg0 O14 2.154128 1_545
Mg0 O15 2.154128 1_555
Mg0 O10 2.191085 1_455
Mg0 O10 2.191085 1_555
Mg1 O3 1.984257 1_555
Mg1 O1 1.984257 1_555
Mg1 O11 2.191085 1_555
Mg1 O11 2.191085 1_455
Mg1 O15 2.203597 1_555
Mg1 O14 2.203597 1_555
Mg2 O8 2.111492 1_565
Mg2 O4 2.180240 1_554
Mg2 O6 2.180240 1_555
Mg2 O12 2.192076 1_655
Mg2 O12 2.192076 1_555
Mg2 O9 2.246233 1_555
Mg3 O8 2.111492 1_555
Mg3 O5 2.180240 1_554
Mg3 O7 2.180240 1_555
Mg3 O13 2.192076 1_655
Mg3 O13 2.192076 1_555
Mg3 O9 2.246233 1_555
Mg4 O10 2.167167 1_565
Mg4 O6 2.181355 1_555
Mg4 O4 2.181355 1_555
Mg4 O11 2.190559 1_555
Mg4 O14 2.191123 1_655
Mg4 O14 2.191123 1_555
Mg5 O10 2.167167 1_555
Mg5 O7 2.181355 1_555
Mg5 O5 2.181355 1_555
Mg5 O11 2.190559 1_555
Mg5 O15 2.191123 1_655
Mg5 O15 2.191123 1_555
Mg6 O10 2.147964 1_555
Mg6 O4 2.175153 1_545
Mg6 O5 2.175153 1_555
Mg6 O0 2.192174 1_555
Mg6 O0 2.192174 1_655
Mg6 O8 2.212694 1_556
Mg7 O11 2.096762 1_555
Mg7 O4 2.184466 1_555
Mg7 O5 2.184466 1_555
Mg7 O1 2.193971 1_655
Mg7 O1 2.193971 1_555
Mg7 O9 2.263897 1_556
Mg8 O10 2.147964 1_555
Mg8 O7 2.175153 1_555
Mg8 O6 2.175153 1_545
Mg8 O2 2.192174 1_655
Mg8 O2 2.192174 1_555
Mg8 O8 2.212694 1_555
Mg9 O11 2.096762 1_555
Mg9 O6 2.184466 1_555
Mg9 O7 2.184466 1_555
Mg9 O3 2.193971 1_655
Mg9 O3 2.193971 1_555
Mg9 O9 2.263897 1_555
Mg10 O14 2.122981 1_555
Mg10 O0 2.145256 1_565
Mg10 O4 2.192069 1_555
Mg10 O4 2.192069 1_455
Mg10 O1 2.217265 1_555
Mg10 O12 2.239898 1_556
Mg11 O15 2.122981 1_555
Mg11 O0 2.145256 1_555
Mg11 O5 2.192069 1_455
Mg11 O5 2.192069 1_555
Mg11 O1 2.217265 1_555
Mg11 O13 2.239898 1_556
Mg12 O14 2.122981 1_555
Mg12 O2 2.145256 1_565
Mg12 O6 2.192069 1_455
Mg12 O6 2.192069 1_555
Mg12 O3 2.217265 1_555
Mg12 O12 2.239898 1_555
Mg13 O15 2.122981 1_555
Mg13 O2 2.145256 1_555
Mg13 O7 2.192069 1_455
Mg13 O7 2.192069 1_555
Mg13 O3 2.217265 1_555
Mg13 O13 2.239898 1_555
Mn0 O13 2.045560 1_555
Mn0 O12 2.045560 1_545
Mn0 O8 2.191085 1_555
Mn0 O8 2.191085 1_455
Mn0 O2 2.281784 1_555
Mn0 O0 2.281784 1_554
O1 Sn0 2.376402 1_556
O3 Sn0 2.376402 1_555
O9 Sn0 2.191085 1_655
O9 Sn0 2.191085 1_555
O12 Sn0 2.312166 1_555
O13 Sn0 2.312166 1_555
