# generated using pymatgen
data_LiFeP2O7
_symmetry_space_group_name_H-M   'P 1'
_cell_length_a   7.92938852
_cell_length_b   7.92938852
_cell_length_c   10.52863518
_cell_angle_alpha   88.31193340
_cell_angle_beta   88.31193340
_cell_angle_gamma   115.32738082
_symmetry_Int_Tables_number   1
_chemical_formula_structural   LiFeP2O7
_chemical_formula_sum   'Li4 Fe4 P8 O28'
_cell_volume   597.45028175
_cell_formula_units_Z   4
loop_
 _symmetry_equiv_pos_site_id
 _symmetry_equiv_pos_as_xyz
  1  'x, y, z'
loop_
 _atom_site_type_symbol
 _atom_site_label
 _atom_site_symmetry_multiplicity
 _atom_site_fract_x
 _atom_site_fract_y
 _atom_site_fract_z
 _atom_site_occupancy
  Li  Li0  1  0.72070500  0.27986900  0.99876400  1
  Li  Li1  1  0.72013100  0.27929500  0.50123600  1
  Li  Li2  1  0.27929500  0.72013100  0.00123600  1
  Li  Li3  1  0.27986900  0.72070500  0.49876400  1
  Fe  Fe0  1  0.67820900  0.67777700  0.89851400  1
  Fe  Fe1  1  0.32179100  0.32222300  0.10148600  1
  Fe  Fe2  1  0.67777700  0.67820900  0.39851400  1
  Fe  Fe3  1  0.32222300  0.32179100  0.60148600  1
  P  P0  1  0.31496000  0.10329400  0.86275500  1
  P  P1  1  0.10744700  0.32544700  0.86176900  1
  P  P2  1  0.89670600  0.68504000  0.63724500  1
  P  P3  1  0.68504000  0.89670600  0.13724500  1
  P  P4  1  0.67455300  0.89255300  0.63823100  1
  P  P5  1  0.89255300  0.67455300  0.13823100  1
  P  P6  1  0.32544700  0.10744700  0.36176900  1
  P  P7  1  0.10329400  0.31496000  0.36275500  1
  O  O0  1  0.11680300  0.12254400  0.88251500  1
  O  O1  1  0.08878400  0.70307400  0.12113500  1
  O  O2  1  0.91121600  0.29692600  0.87886500  1
  O  O3  1  0.70307400  0.08878400  0.62113500  1
  O  O4  1  0.12254400  0.11680300  0.38251500  1
  O  O5  1  0.19913100  0.40182800  0.72743400  1
  O  O6  1  0.81023700  0.60800100  0.77259400  1
  O  O7  1  0.40182800  0.19913100  0.22743400  1
  O  O8  1  0.88319700  0.87745600  0.11748500  1
  O  O9  1  0.55320000  0.75840500  0.53552200  1
  O  O10  1  0.39199900  0.18976300  0.72740600  1
  O  O11  1  0.80086900  0.59817200  0.27256600  1
  O  O12  1  0.44068300  0.23660000  0.96411000  1
  O  O13  1  0.59817200  0.80086900  0.77256600  1
  O  O14  1  0.60800100  0.81023700  0.27259400  1
  O  O15  1  0.23660000  0.44068300  0.46411000  1
  O  O16  1  0.76340000  0.55931700  0.53589000  1
  O  O17  1  0.75840500  0.55320000  0.03552200  1
  O  O18  1  0.44680000  0.24159500  0.46447800  1
  O  O19  1  0.55931700  0.76340000  0.03589000  1
  O  O20  1  0.27843200  0.90511200  0.88316000  1
  O  O21  1  0.09488800  0.72156800  0.61684000  1
  O  O22  1  0.29692600  0.91121600  0.37886500  1
  O  O23  1  0.18976300  0.39199900  0.22740600  1
  O  O24  1  0.24159500  0.44680000  0.96447800  1
  O  O25  1  0.90511200  0.27843200  0.38316000  1
  O  O26  1  0.87745600  0.88319700  0.61748500  1
  O  O27  1  0.72156800  0.09488800  0.11684000  1
loop_
_geom_bond_atom_site_label_1
_geom_bond_atom_site_label_2
_geom_bond_distance
_geom_bond_site_symmetry_2
Li0 O2 1.896491 1_555
Li0 O27 1.897013 1_556
Li0 O17 2.106761 1_556
Li0 O12 2.141108 1_555
Li1 O3 1.896491 1_555
Li1 O25 1.897013 1_555
Li1 O18 2.106761 1_555
Li1 O16 2.141108 1_555
Li2 O1 1.896491 1_555
Li2 O20 1.897013 1_554
Li2 O24 2.106761 1_554
Li2 O19 2.141108 1_555
Li3 O22 1.896491 1_555
Li3 O21 1.897013 1_555
Li3 O9 2.106761 1_555
Li3 O15 2.141108 1_555
Fe0 O6 1.901788 1_555
Fe0 O13 1.901889 1_555
Fe0 O19 1.991703 1_556
Fe0 O17 1.992115 1_556
Fe1 O23 1.901788 1_555
Fe1 O7 1.901889 1_555
Fe1 O12 1.991703 1_554
Fe1 O24 1.992115 1_554
Fe2 O14 1.901788 1_555
Fe2 O11 1.901889 1_555
Fe2 O16 1.991703 1_555
Fe2 O9 1.992115 1_555
Fe3 O10 1.901788 1_555
Fe3 O5 1.901889 1_555
Fe3 O15 1.991703 1_555
Fe3 O18 1.992115 1_555
O0 P0 1.650232 1_555
O0 P1 1.650495 1_555
O1 P5 1.478067 1_455
O2 P1 1.478067 1_655
O3 P4 1.478067 1_545
O4 P7 1.650232 1_555
O4 P6 1.650495 1_555
O5 P1 1.551774 1_555
O6 P2 1.551390 1_555
O7 P6 1.551774 1_555
O8 P3 1.650232 1_555
O8 P5 1.650495 1_555
O9 P4 1.574849 1_555
O10 P0 1.551390 1_555
O11 P5 1.551774 1_555
O12 P0 1.573997 1_555
O13 P4 1.551774 1_555
O14 P3 1.551390 1_555
O15 P7 1.573997 1_555
O16 P2 1.573997 1_555
O17 P5 1.574849 1_555
O18 P6 1.574849 1_555
O19 P3 1.573997 1_555
O20 P0 1.478700 1_565
O21 P2 1.478700 1_455
O22 P6 1.478067 1_565
O23 P7 1.551390 1_555
O24 P1 1.574849 1_555
O25 P7 1.478700 1_655
O26 P2 1.650232 1_555
O26 P4 1.650495 1_555
O27 P3 1.478700 1_545
