# generated using pymatgen
data_Al3Pt2
_symmetry_space_group_name_H-M   'P 1'
_cell_length_a   4.20714050
_cell_length_b   4.20713957
_cell_length_c   5.18896172
_cell_angle_alpha   90.00000000
_cell_angle_beta   90.00000000
_cell_angle_gamma   119.99998374
_symmetry_Int_Tables_number   1
_chemical_formula_structural   Al3Pt2
_chemical_formula_sum   'Al3 Pt2'
_cell_volume   79.53991179
_cell_formula_units_Z   1
loop_
 _symmetry_equiv_pos_site_id
 _symmetry_equiv_pos_as_xyz
  1  'x, y, z'
loop_
 _atom_site_type_symbol
 _atom_site_label
 _atom_site_symmetry_multiplicity
 _atom_site_fract_x
 _atom_site_fract_y
 _atom_site_fract_z
 _atom_site_occupancy
  Al  Al0  1  -0.00000000  -0.00000000  0.00000000  1
  Al  Al1  1  0.33333300  0.66666700  0.64683023  1
  Al  Al2  1  0.66666700  0.33333300  0.35316977  1
  Pt  Pt0  1  0.33333300  0.66666700  0.16612550  1
  Pt  Pt1  1  0.66666700  0.33333300  0.83387450  1
loop_
_geom_bond_atom_site_label_1
_geom_bond_atom_site_label_2
_geom_bond_distance
_geom_bond_site_symmetry_2
Al0 Pt0 2.577416 1_545
Al0 Pt1 2.577416 1_454
Al0 Pt1 2.577420 1_444
Al0 Pt0 2.577420 1_555
Al0 Pt1 2.577420 1_554
Al0 Pt0 2.577420 1_445
Al1 Pt0 2.494358 1_555
Al1 Pt1 2.615721 1_565
Al1 Pt1 2.615721 1_455
Al1 Pt1 2.615727 1_555
Al1 Pt0 2.694603 1_556
Al2 Pt1 2.494358 1_555
Al2 Pt0 2.615721 1_545
Al2 Pt0 2.615721 1_655
Al2 Pt0 2.615727 1_555
Al2 Pt1 2.694603 1_554
