# generated using pymatgen
data_Ti2P2O9
_symmetry_space_group_name_H-M   'P 1'
_cell_length_a   6.34027300
_cell_length_b   7.82757300
_cell_length_c   14.04445200
_cell_angle_alpha   90.00000000
_cell_angle_beta   90.00000000
_cell_angle_gamma   90.00000000
_symmetry_Int_Tables_number   1
_chemical_formula_structural   Ti2P2O9
_chemical_formula_sum   'Ti8 P8 O36'
_cell_volume   697.01140254
_cell_formula_units_Z   4
loop_
 _symmetry_equiv_pos_site_id
 _symmetry_equiv_pos_as_xyz
  1  'x, y, z'
loop_
 _atom_site_type_symbol
 _atom_site_label
 _atom_site_symmetry_multiplicity
 _atom_site_fract_x
 _atom_site_fract_y
 _atom_site_fract_z
 _atom_site_occupancy
  Ti  Ti0  1  0.25000000  0.85389100  0.37354000  1
  Ti  Ti1  1  0.75000000  0.14610900  0.62646000  1
  Ti  Ti2  1  0.75000000  0.35389100  0.12646000  1
  Ti  Ti3  1  0.25000000  0.64610900  0.87354000  1
  Ti  Ti4  1  0.00000000  0.50000000  0.50000000  1
  Ti  Ti5  1  0.00000000  0.00000000  0.00000000  1
  Ti  Ti6  1  0.50000000  0.00000000  0.00000000  1
  Ti  Ti7  1  0.50000000  0.50000000  0.50000000  1
  P  P0  1  0.75000000  0.85387800  0.43924100  1
  P  P1  1  0.25000000  0.14612200  0.56075900  1
  P  P2  1  0.25000000  0.35387800  0.06075900  1
  P  P3  1  0.75000000  0.64612200  0.93924100  1
  P  P4  1  0.25000000  0.89229900  0.19037300  1
  P  P5  1  0.25000000  0.60770100  0.69037300  1
  P  P6  1  0.75000000  0.39229900  0.30962700  1
  P  P7  1  0.75000000  0.10770100  0.80962700  1
  O  O0  1  0.55306600  0.08990400  0.87498600  1
  O  O1  1  0.05306600  0.91009600  0.12501400  1
  O  O2  1  0.44693400  0.58990400  0.62501400  1
  O  O3  1  0.94693400  0.41009600  0.37498600  1
  O  O4  1  0.44693400  0.91009600  0.12501400  1
  O  O5  1  0.94693400  0.08990400  0.87498600  1
  O  O6  1  0.55306600  0.41009600  0.37498600  1
  O  O7  1  0.05306600  0.58990400  0.62501400  1
  O  O8  1  0.75000000  0.83443300  0.98387800  1
  O  O9  1  0.25000000  0.16556700  0.01612200  1
  O  O10  1  0.25000000  0.33443300  0.51612200  1
  O  O11  1  0.75000000  0.66556700  0.48387800  1
  O  O12  1  0.25000000  0.63416500  0.45239900  1
  O  O13  1  0.75000000  0.36583500  0.54760100  1
  O  O14  1  0.75000000  0.13416500  0.04760100  1
  O  O15  1  0.25000000  0.86583500  0.95239900  1
  O  O16  1  0.25000000  0.72566700  0.24979400  1
  O  O17  1  0.75000000  0.27433300  0.75020600  1
  O  O18  1  0.75000000  0.22566700  0.25020600  1
  O  O19  1  0.25000000  0.77433300  0.74979400  1
  O  O20  1  0.94703800  0.63841800  0.87774900  1
  O  O21  1  0.44703800  0.36158200  0.12225100  1
  O  O22  1  0.05296200  0.13841800  0.62225100  1
  O  O23  1  0.55296200  0.86158200  0.37774900  1
  O  O24  1  0.05296200  0.36158200  0.12225100  1
  O  O25  1  0.55296200  0.63841800  0.87774900  1
  O  O26  1  0.94703800  0.86158200  0.37774900  1
  O  O27  1  0.44703800  0.13841800  0.62225100  1
  O  O28  1  0.25000000  0.01551700  0.48079400  1
  O  O29  1  0.75000000  0.52806200  0.22886500  1
  O  O30  1  0.75000000  0.97193800  0.72886500  1
  O  O31  1  0.25000000  0.02806200  0.27113500  1
  O  O32  1  0.25000000  0.48448300  0.98079400  1
  O  O33  1  0.75000000  0.51551700  0.01920600  1
  O  O34  1  0.75000000  0.98448300  0.51920600  1
  O  O35  1  0.25000000  0.47193800  0.77113500  1
loop_
_geom_bond_atom_site_label_1
_geom_bond_atom_site_label_2
_geom_bond_distance
_geom_bond_site_symmetry_2
O0 P7 1.555971 1_555
O0 Ti6 1.921225 1_556
O1 P4 1.555971 1_555
O1 Ti5 1.921225 1_565
O2 P5 1.555971 1_555
O2 Ti7 1.921225 1_555
O3 P6 1.555971 1_555
O3 Ti4 1.921225 1_655
O4 P4 1.555971 1_555
O4 Ti6 1.921225 1_565
O5 P7 1.555971 1_555
O5 Ti5 1.921225 1_656
O6 P6 1.555971 1_555
O6 Ti7 1.921225 1_555
O7 P5 1.555971 1_555
O7 Ti4 1.921225 1_555
O8 P3 1.601791 1_555
O8 Ti5 2.059926 1_666
O8 Ti6 2.059926 1_566
O9 P2 1.601791 1_555
O9 Ti5 2.059926 1_555
O9 Ti6 2.059926 1_555
O10 P1 1.601791 1_555
O10 Ti4 2.059926 1_555
O10 Ti7 2.059926 1_555
O11 P0 1.601791 1_555
O11 Ti4 2.059926 1_655
O11 Ti7 2.059926 1_555
O12 Ti4 2.015506 1_555
O12 Ti7 2.015506 1_555
O12 Ti0 2.045667 1_555
O13 Ti7 2.015506 1_555
O13 Ti4 2.015506 1_655
O13 Ti1 2.045667 1_555
O14 Ti5 2.015506 1_655
O14 Ti6 2.015506 1_555
O14 Ti2 2.045667 1_555
O15 Ti6 2.015506 1_566
O15 Ti5 2.015506 1_566
O15 Ti3 2.045667 1_555
O16 P4 1.548454 1_555
O16 Ti0 2.006946 1_555
O17 P7 1.548454 1_555
O17 Ti1 2.006946 1_555
O18 P6 1.548454 1_555
O18 Ti2 2.006946 1_555
O19 P5 1.548454 1_555
O19 Ti3 2.006946 1_555
O20 P3 1.519923 1_555
O20 Ti3 1.922714 1_655
O21 P2 1.519923 1_555
O21 Ti2 1.922714 1_555
O22 P1 1.519923 1_555
O22 Ti1 1.922714 1_455
O23 P0 1.519923 1_555
O23 Ti0 1.922714 1_555
O24 P2 1.519923 1_555
O24 Ti2 1.922714 1_455
O25 P3 1.519923 1_555
O25 Ti3 1.922714 1_555
O26 P0 1.519923 1_555
O26 Ti0 1.922714 1_655
O27 P1 1.519923 1_555
O27 Ti1 1.922714 1_555
O28 P1 1.518688 1_555
O28 Ti0 1.967127 1_545
O29 P6 1.554304 1_555
O29 Ti2 1.981708 1_555
O30 P7 1.554304 1_565
O30 Ti1 1.981708 1_565
O31 P4 1.554304 1_545
O31 Ti0 1.981708 1_545
O32 P2 1.518688 1_556
O32 Ti3 1.967127 1_555
O33 P3 1.518688 1_554
O33 Ti2 1.967127 1_555
O34 P0 1.518688 1_555
O34 Ti1 1.967127 1_565
O35 P5 1.554304 1_555
O35 Ti3 1.981708 1_555
