# generated using pymatgen
data_LaZnCrBiO6
_symmetry_space_group_name_H-M   'P 1'
_cell_length_a   6.54227000
_cell_length_b   5.65460800
_cell_length_c   9.22862347
_cell_angle_alpha   56.07524216
_cell_angle_beta   90.00000000
_cell_angle_gamma   90.00000000
_symmetry_Int_Tables_number   1
_chemical_formula_structural   LaZnCrBiO6
_chemical_formula_sum   'La2 Zn2 Cr2 Bi2 O12'
_cell_volume   283.28674386
_cell_formula_units_Z   2
loop_
 _symmetry_equiv_pos_site_id
 _symmetry_equiv_pos_as_xyz
  1  'x, y, z'
loop_
 _atom_site_type_symbol
 _atom_site_label
 _atom_site_symmetry_multiplicity
 _atom_site_fract_x
 _atom_site_fract_y
 _atom_site_fract_z
 _atom_site_occupancy
  La  La0  1  0.14694500  0.71750600  0.25514600  1
  La  La1  1  0.85305500  0.71750600  0.75514600  1
  Zn  Zn0  1  0.86294100  0.24839500  0.22939300  1
  Zn  Zn1  1  0.13705900  0.24839500  0.72939300  1
  Cr  Cr0  1  0.28412900  0.97431900  0.51063100  1
  Cr  Cr1  1  0.71587100  0.97431900  0.01063100  1
  Bi  Bi0  1  0.32716300  0.47558500  0.99341600  1
  Bi  Bi1  1  0.67283700  0.47558500  0.49341600  1
  O  O0  1  0.76530900  0.12225200  0.77212700  1
  O  O1  1  0.47895500  0.79808600  0.07491300  1
  O  O2  1  0.38564000  0.34754100  0.44465400  1
  O  O3  1  0.91201400  0.65583000  0.05437500  1
  O  O4  1  0.90361700  0.24305600  0.44187100  1
  O  O5  1  0.19212300  0.91743300  0.72347300  1
  O  O6  1  0.23469100  0.12225200  0.27212700  1
  O  O7  1  0.52104500  0.79808600  0.57491300  1
  O  O8  1  0.61436000  0.34754100  0.94465400  1
  O  O9  1  0.08798600  0.65583000  0.55437500  1
  O  O10  1  0.09638300  0.24305600  0.94187100  1
  O  O11  1  0.80787700  0.91743300  0.22347300  1
loop_
_geom_bond_atom_site_label_1
_geom_bond_atom_site_label_2
_geom_bond_distance
_geom_bond_site_symmetry_2
La0 O2 2.406217 1_555
La0 O11 2.432156 1_455
La0 O6 2.447958 1_565
La0 O3 2.576477 1_455
La0 O9 2.611733 1_555
La0 O1 2.616534 1_555
La0 O4 2.746072 1_455
La0 O10 2.776547 1_564
La1 O8 2.406217 1_555
La1 O5 2.432156 1_655
La1 O0 2.447958 1_565
La1 O9 2.576477 1_655
La1 O3 2.611733 1_556
La1 O7 2.616534 1_555
La1 O10 2.746072 1_655
La1 O4 2.776547 1_565
Cr0 O7 1.757135 1_555
Cr0 O6 1.895751 1_565
Cr0 O5 1.902305 1_555
Cr0 O2 1.957384 1_565
Cr0 O9 2.059481 1_555
Cr1 O1 1.757135 1_555
Cr1 O0 1.895751 1_564
Cr1 O11 1.902305 1_555
Cr1 O8 1.957384 1_564
Cr1 O3 2.059481 1_555
Bi0 O8 2.149596 1_555
Bi0 O10 2.221004 1_555
Bi0 O6 2.288549 1_556
Bi0 O5 2.506288 1_555
Bi0 O1 2.531472 1_556
Bi1 O2 2.149596 1_555
Bi1 O4 2.221004 1_555
Bi1 O0 2.288549 1_555
Bi1 O11 2.506288 1_555
Bi1 O7 2.531472 1_555
O0 Zn1 2.503073 1_655
O3 Zn0 1.966251 1_555
O4 Zn0 1.962319 1_555
O5 Zn1 1.936298 1_565
O6 Zn0 2.503073 1_455
O9 Zn1 1.966251 1_555
O10 Zn1 1.962319 1_555
O11 Zn0 1.936298 1_565
