# generated using pymatgen
data_MgV4O10
_symmetry_space_group_name_H-M   'P 1'
_cell_length_a   3.53866200
_cell_length_b   4.95915003
_cell_length_c   11.57591014
_cell_angle_alpha   90.01546339
_cell_angle_beta   89.99983514
_cell_angle_gamma   89.99694140
_symmetry_Int_Tables_number   1
_chemical_formula_structural   MgV4O10
_chemical_formula_sum   'Mg1 V4 O10'
_cell_volume   203.14281234
_cell_formula_units_Z   1
loop_
 _symmetry_equiv_pos_site_id
 _symmetry_equiv_pos_as_xyz
  1  'x, y, z'
loop_
 _atom_site_type_symbol
 _atom_site_label
 _atom_site_symmetry_multiplicity
 _atom_site_fract_x
 _atom_site_fract_y
 _atom_site_fract_z
 _atom_site_occupancy
  Mg  Mg0  1  0.25004600  0.18947800  0.74985600  1
  V  V0  1  0.25000100  0.41100300  0.10147500  1
  V  V1  1  0.74999500  0.60535700  0.89924800  1
  V  V2  1  0.74999100  0.60545900  0.60081000  1
  V  V3  1  0.25000100  0.41118800  0.39847700  1
  O  O0  1  0.75001900  0.41797100  0.74998300  1
  O  O1  1  0.25000000  0.52611700  0.24999800  1
  O  O2  1  0.74999600  0.53059200  0.06999900  1
  O  O3  1  0.25000700  0.45151700  0.92297900  1
  O  O4  1  0.74999700  0.53077700  0.43005100  1
  O  O5  1  0.25000500  0.45165200  0.57705000  1
  O  O6  1  0.25001300  0.08768200  0.38855300  1
  O  O7  1  0.74995400  0.93492900  0.63452800  1
  O  O8  1  0.74996900  0.93478100  0.86562800  1
  O  O9  1  0.25001000  0.08750800  0.11138600  1
loop_
_geom_bond_atom_site_label_1
_geom_bond_atom_site_label_2
_geom_bond_distance
_geom_bond_site_symmetry_2
Mg0 O0 2.101046 1_555
Mg0 O0 2.101105 1_455
Mg0 O5 2.386078 1_555
Mg0 O3 2.388203 1_555
Mg0 O7 2.550301 1_545
Mg0 O7 2.550851 1_445
Mg0 O8 2.553757 1_545
Mg0 O8 2.554223 1_445
O0 V2 1.961439 1_555
O0 V1 1.961695 1_555
O1 V3 1.810960 1_555
O1 V0 1.811440 1_555
O2 V0 1.901337 1_655
O2 V0 1.901361 1_555
O2 V1 2.011171 1_554
O3 V1 1.946315 1_555
O3 V1 1.946319 1_455
O3 V0 2.076053 1_556
O4 V3 1.901488 1_655
O4 V3 1.901523 1_555
O4 V2 2.010989 1_555
O5 V2 1.946235 1_555
O5 V2 1.946249 1_455
O5 V3 2.076808 1_555
O6 V3 1.608392 1_555
O7 V2 1.679763 1_555
O8 V1 1.679482 1_555
O9 V0 1.608388 1_555
