# generated using pymatgen
data_Li17Cr6(Si2O7)6
_symmetry_space_group_name_H-M   'P 1'
_cell_length_a   8.60204014
_cell_length_b   8.60731316
_cell_length_c   13.05717548
_cell_angle_alpha   90.05998705
_cell_angle_beta   89.98033569
_cell_angle_gamma   59.99158223
_symmetry_Int_Tables_number   1
_chemical_formula_structural   Li17Cr6(Si2O7)6
_chemical_formula_sum   'Li17 Cr6 Si12 O42'
_cell_volume   837.16611485
_cell_formula_units_Z   1
loop_
 _symmetry_equiv_pos_site_id
 _symmetry_equiv_pos_as_xyz
  1  'x, y, z'
loop_
 _atom_site_type_symbol
 _atom_site_label
 _atom_site_symmetry_multiplicity
 _atom_site_fract_x
 _atom_site_fract_y
 _atom_site_fract_z
 _atom_site_occupancy
  Li  Li0  1  0.99880200  0.00639200  0.95280800  1
  Li  Li1  1  0.99904200  0.00321800  0.45369900  1
  Li  Li2  1  0.97224000  0.33415900  0.89784300  1
  Li  Li3  1  0.97651900  0.33350800  0.56743900  1
  Li  Li4  1  0.66710800  0.30332800  0.39932500  1
  Li  Li5  1  0.67509100  0.29897500  0.06746300  1
  Li  Li6  1  0.30602200  0.02605000  0.39834800  1
  Li  Li7  1  0.30263800  0.02221600  0.06901700  1
  Li  Li8  1  0.33291500  0.33448600  0.71014800  1
  Li  Li9  1  0.66851400  0.66482500  0.73272800  1
  Li  Li10  1  0.66725800  0.66434300  0.27614900  1
  Li  Li11  1  0.69737300  0.97187500  0.89996700  1
  Li  Li12  1  0.69114900  0.97842700  0.56637500  1
  Li  Li13  1  0.32904500  0.69343800  0.56558000  1
  Li  Li14  1  0.32897900  0.69880600  0.90032200  1
  Li  Li15  1  0.02984800  0.66438600  0.39882300  1
  Li  Li16  1  0.02566900  0.67056300  0.06800300  1
  Cr  Cr0  1  0.99900400  0.00195800  0.72884800  1
  Cr  Cr1  1  0.00062800  0.99722800  0.23058100  1
  Cr  Cr2  1  0.33368600  0.33193000  0.01501500  1
  Cr  Cr3  1  0.33295500  0.33285300  0.45529300  1
  Cr  Cr4  1  0.66640900  0.66644000  0.95659300  1
  Cr  Cr5  1  0.66668400  0.66645800  0.51102000  1
  Si  Si0  1  0.97453600  0.35249700  0.34695200  1
  Si  Si1  1  0.97157100  0.35372200  0.12025200  1
  Si  Si2  1  0.64728900  0.32822700  0.62119300  1
  Si  Si3  1  0.63993800  0.32983800  0.84666200  1
  Si  Si4  1  0.32925900  0.03162000  0.84672700  1
  Si  Si5  1  0.32623900  0.02639000  0.62104700  1
  Si  Si6  1  0.67255400  0.97122500  0.34724700  1
  Si  Si7  1  0.67312000  0.96879200  0.12054800  1
  Si  Si8  1  0.35557900  0.66963200  0.34671800  1
  Si  Si9  1  0.35671600  0.67061400  0.12048800  1
  Si  Si10  1  0.02997700  0.64243300  0.84678700  1
  Si  Si11  1  0.02388700  0.64993100  0.62147900  1
  O  O0  1  0.80092500  0.06144700  0.34340800  1
  O  O1  1  0.79565500  0.06453000  0.12780400  1
  O  O2  1  0.85880100  0.20214500  0.84457200  1
  O  O3  1  0.86661200  0.20750400  0.62784800  1
  O  O4  1  0.87596300  0.43887900  0.23330800  1
  O  O5  1  0.81069900  0.43020200  0.03417700  1
  O  O6  1  0.80384700  0.43482900  0.42801900  1
  O  O7  1  0.46523600  0.11084100  0.37260500  1
  O  O8  1  0.46231800  0.11451000  0.09346900  1
  O  O9  1  0.55992800  0.24405000  0.93078400  1
  O  O10  1  0.56779700  0.24253300  0.53857600  1
  O  O11  1  0.87951000  0.58086700  0.85977800  1
  O  O12  1  0.87814200  0.58223800  0.60743900  1
  O  O13  1  0.56175100  0.30922200  0.73344600  1
  O  O14  1  0.30979000  0.12957100  0.73349600  1
  O  O15  1  0.94201700  0.86080900  0.84591200  1
  O  O16  1  0.92609300  0.86904900  0.62834900  1
  O  O17  1  0.24481900  0.19925700  0.93001200  1
  O  O18  1  0.24001500  0.19234000  0.53912100  1
  O  O19  1  0.57636800  0.54172400  0.86143700  1
  O  O20  1  0.57822100  0.54151400  0.60594000  1
  O  O21  1  0.76320100  0.79851700  0.42644000  1
  O  O22  1  0.76060700  0.80647100  0.03548200  1
  O  O23  1  0.42349300  0.46227500  0.37121700  1
  O  O24  1  0.42266500  0.45964200  0.09315800  1
  O  O25  1  0.06598200  0.13517700  0.12590100  1
  O  O26  1  0.06464200  0.13395500  0.34303000  1
  O  O27  1  0.67984100  0.87508600  0.23342000  1
  O  O28  1  0.44432800  0.67714800  0.23304300  1
  O  O29  1  0.11480200  0.42050600  0.36948300  1
  O  O30  1  0.43853300  0.75968200  0.42597500  1
  O  O31  1  0.11825000  0.41858500  0.09559600  1
  O  O32  1  0.43126000  0.75827400  0.03549700  1
  O  O33  1  0.54032100  0.88210100  0.86228300  1
  O  O34  1  0.53899200  0.88149200  0.60448800  1
  O  O35  1  0.19442200  0.55897700  0.93176100  1
  O  O36  1  0.18739600  0.56971700  0.53760300  1
  O  O37  1  0.12970700  0.56439200  0.73346800  1
  O  O38  1  0.13848900  0.79205400  0.12838800  1
  O  O39  1  0.13708600  0.79867100  0.34316400  1
  O  O40  1  0.20478200  0.92871300  0.62789600  1
  O  O41  1  0.19880200  0.94396300  0.84596300  1
loop_
_geom_bond_atom_site_label_1
_geom_bond_atom_site_label_2
_geom_bond_distance
_geom_bond_site_symmetry_2
Li0 O2 2.064714 1_555
Li0 O41 2.065654 1_645
Li0 O15 2.089497 1_545
Li1 O26 2.076250 1_655
Li1 O0 2.092420 1_555
Li1 O39 2.120176 1_645
Li2 O11 1.923730 1_555
Li2 O2 1.958328 1_555
Li2 O17 2.073861 1_655
Li2 O5 2.151607 1_556
Li3 O3 1.928511 1_555
Li3 O12 1.938434 1_555
Li3 O18 1.998576 1_655
Li3 O6 2.233883 1_555
Li4 O23 1.879297 1_555
Li4 O0 1.947230 1_555
Li4 O6 2.033747 1_555
Li4 O10 2.181197 1_555
Li5 O1 1.918065 1_555
Li5 O24 1.932571 1_555
Li5 O5 2.035688 1_555
Li5 O9 2.204020 1_554
Li6 O7 1.876520 1_555
Li6 O26 1.941412 1_555
Li6 O30 2.018395 1_545
Li6 O18 2.220478 1_555
Li7 O25 1.912805 1_555
Li7 O8 1.926379 1_555
Li7 O32 2.015016 1_545
Li7 O17 2.260988 1_554
Li8 O13 1.893948 1_555
Li8 O14 1.896157 1_555
Li8 O37 1.898048 1_555
Li9 O12 2.268604 1_555
Li9 O11 2.293701 1_555
Li9 O20 2.300486 1_555
Li9 O19 2.327701 1_555
Li9 O34 2.335067 1_555
Li9 O33 2.346144 1_555
Li10 O28 1.948279 1_555
Li10 O27 1.952384 1_555
Li10 O4 1.952996 1_555
Li11 O33 1.925654 1_555
Li11 O15 1.956009 1_555
Li11 O9 2.067654 1_565
Li11 O22 2.164490 1_556
Li12 O16 1.930062 1_555
Li12 O34 1.936403 1_555
Li12 O10 2.003637 1_565
Li12 O21 2.270221 1_555
Li13 O40 1.932969 1_555
Li13 O20 1.944373 1_555
Li13 O36 2.012341 1_555
Li13 O30 2.252343 1_555
Li14 O19 1.932430 1_555
Li14 O41 1.962289 1_555
Li14 O35 2.085883 1_555
Li14 O32 2.144986 1_556
Li15 O29 1.884398 1_555
Li15 O39 1.944953 1_555
Li15 O21 2.018366 1_455
Li15 O36 2.164356 1_555
Li16 O38 1.915963 1_555
Li16 O31 1.934454 1_555
Li16 O22 2.020217 1_455
Li16 O35 2.189604 1_554
Cr0 O16 2.034483 1_545
Cr0 O40 2.036832 1_645
Cr0 O3 2.038813 1_555
Cr0 O2 2.149741 1_555
Cr0 O15 2.156800 1_545
Cr0 O41 2.164877 1_645
Cr1 O38 2.050547 1_555
Cr1 O1 2.055943 1_465
Cr1 O25 2.065105 1_565
Cr1 O39 2.111741 1_555
Cr1 O0 2.115100 1_465
Cr1 O26 2.118759 1_565
Cr2 O24 1.917041 1_555
Cr2 O8 1.925984 1_555
Cr2 O31 1.926682 1_555
Cr2 O17 1.997853 1_554
Cr2 O9 2.023255 1_554
Cr2 O35 2.024741 1_554
Cr3 O23 1.980509 1_555
Cr3 O7 1.982923 1_555
Cr3 O29 1.983213 1_555
Cr3 O18 2.066226 1_555
Cr3 O10 2.073691 1_555
Cr3 O36 2.078574 1_555
Cr4 O19 2.031131 1_555
Cr4 O33 2.032329 1_555
Cr4 O22 2.035978 1_556
Cr4 O11 2.036355 1_555
Cr4 O32 2.043376 1_556
Cr4 O5 2.045023 1_556
Cr5 O34 2.020514 1_555
Cr5 O20 2.022971 1_555
Cr5 O12 2.025755 1_555
Cr5 O21 2.036401 1_555
Cr5 O30 2.038822 1_555
Cr5 O6 2.045280 1_555
O0 Si6 1.637906 1_545
O1 Si7 1.633330 1_545
O2 Si3 1.638090 1_555
O3 Si2 1.638916 1_555
O4 Si1 1.669343 1_555
O4 Si0 1.687079 1_555
O5 Si1 1.644048 1_555
O6 Si0 1.653799 1_555
O7 Si6 1.609113 1_545
O8 Si7 1.647037 1_545
O9 Si3 1.653758 1_555
O10 Si2 1.636655 1_555
O11 Si10 1.634306 1_655
O12 Si11 1.635685 1_655
O13 Si3 1.669928 1_555
O13 Si2 1.684226 1_555
O14 Si4 1.669221 1_555
O14 Si5 1.684043 1_555
O15 Si10 1.638027 1_655
O16 Si11 1.638717 1_655
O17 Si4 1.655292 1_555
O18 Si5 1.636688 1_555
O19 Si3 1.632182 1_555
O20 Si2 1.634861 1_555
O21 Si6 1.652700 1_555
O22 Si7 1.642116 1_555
O23 Si8 1.608561 1_555
O24 Si9 1.647652 1_555
O25 Si1 1.635767 1_455
O26 Si0 1.638041 1_455
O27 Si7 1.667884 1_555
O27 Si6 1.686157 1_555
O28 Si9 1.665531 1_555
O28 Si8 1.684902 1_555
O29 Si0 1.609780 1_455
O30 Si8 1.653167 1_555
O31 Si1 1.646822 1_455
O32 Si9 1.642318 1_555
O33 Si4 1.630166 1_565
O34 Si5 1.633284 1_565
O35 Si10 1.653598 1_555
O36 Si11 1.637195 1_555
O37 Si10 1.672456 1_555
O37 Si11 1.685727 1_555
O38 Si9 1.632196 1_555
O39 Si8 1.637180 1_555
O40 Si5 1.638626 1_565
O41 Si4 1.635719 1_565
