# generated using pymatgen
data_UMnAl
_symmetry_space_group_name_H-M   'P 1'
_cell_length_a   5.14466399
_cell_length_b   5.14466399
_cell_length_c   5.14466399
_cell_angle_alpha   119.93561319
_cell_angle_beta   115.06748964
_cell_angle_gamma   94.43269669
_symmetry_Int_Tables_number   1
_chemical_formula_structural   UMnAl
_chemical_formula_sum   'U2 Mn2 Al2'
_cell_volume   99.39310999
_cell_formula_units_Z   2
loop_
 _symmetry_equiv_pos_site_id
 _symmetry_equiv_pos_as_xyz
  1  'x, y, z'
loop_
 _atom_site_type_symbol
 _atom_site_label
 _atom_site_symmetry_multiplicity
 _atom_site_fract_x
 _atom_site_fract_y
 _atom_site_fract_z
 _atom_site_occupancy
  U  U0  1  0.41160900  0.16160900  0.25000000  1
  U  U1  1  0.58839100  0.83839100  0.75000000  1
  Mn  Mn0  1  0.50000000  0.50000000  0.00000000  1
  Mn  Mn1  1  0.00000000  0.50000000  0.50000000  1
  Al  Al0  1  0.00000000  0.50000000  0.00000000  1
  Al  Al1  1  0.00000000  0.00000000  0.50000000  1
loop_
_geom_bond_atom_site_label_1
_geom_bond_atom_site_label_2
_geom_bond_distance
_geom_bond_site_symmetry_2
U0 U1 2.855913 1_555
U0 U1 2.855913 1_544
Mn0 U1 2.738566 1_554
Mn0 U0 2.738566 1_555
Mn0 Mn1 2.761670 1_655
Mn0 Mn1 2.761670 1_554
Mn0 U0 3.132437 1_565
Mn0 U1 3.132437 1_544
Mn0 U0 3.132437 1_554
Mn0 U1 3.132437 1_555
Mn1 U1 2.738566 1_555
Mn1 U0 2.738566 1_455
Mn1 U0 3.132437 1_566
Mn1 U1 3.132437 1_455
Mn1 U0 3.132437 1_555
Mn1 U1 3.132437 1_444
Al0 Mn0 2.572332 1_455
Al0 Mn0 2.572332 1_555
Al0 Mn1 2.572332 1_554
Al0 Mn1 2.572332 1_555
Al0 Al1 2.574835 1_554
Al0 Al1 2.574835 1_565
Al0 U0 3.109000 1_454
Al0 U1 3.109000 1_454
Al0 U0 3.109000 1_555
Al0 U1 3.109000 1_555
Al0 U0 3.151614 1_565
Al0 U1 3.151614 1_444
Al1 Mn0 2.572332 1_556
Al1 Mn0 2.572332 1_445
Al1 Mn1 2.572332 1_555
Al1 Mn1 2.572332 1_545
Al1 U0 3.109000 1_455
Al1 U1 3.109000 1_444
Al1 U0 3.109000 1_556
Al1 U1 3.109000 1_545
Al1 U1 3.151614 1_445
Al1 U0 3.151614 1_555
