# generated using pymatgen
data_Ba(GaO2)2
_symmetry_space_group_name_H-M   'P 1'
_cell_length_a   10.86038672
_cell_length_b   10.86038672
_cell_length_c   9.00193200
_cell_angle_alpha   90.00000000
_cell_angle_beta   90.00000000
_cell_angle_gamma   120.00000437
_symmetry_Int_Tables_number   1
_chemical_formula_structural   Ba(GaO2)2
_chemical_formula_sum   'Ba8 Ga16 O32'
_cell_volume   919.51098179
_cell_formula_units_Z   8
loop_
 _symmetry_equiv_pos_site_id
 _symmetry_equiv_pos_as_xyz
  1  'x, y, z'
loop_
 _atom_site_type_symbol
 _atom_site_label
 _atom_site_symmetry_multiplicity
 _atom_site_fract_x
 _atom_site_fract_y
 _atom_site_fract_z
 _atom_site_occupancy
  Ba  Ba0  1  0.49575400  0.51592100  0.22458200  1
  Ba  Ba1  1  0.02016700  0.50424600  0.22458200  1
  Ba  Ba2  1  0.48407900  0.97983300  0.22458200  1
  Ba  Ba3  1  0.50424600  0.48407900  0.72458200  1
  Ba  Ba4  1  0.97983300  0.49575400  0.72458200  1
  Ba  Ba5  1  0.51592100  0.02016700  0.72458200  1
  Ba  Ba6  1  0.00000000  0.00000000  0.23669200  1
  Ba  Ba7  1  0.00000000  0.00000000  0.73669200  1
  Ga  Ga0  1  0.84671200  0.17322600  0.02735800  1
  Ga  Ga1  1  0.32651400  0.15328800  0.02735800  1
  Ga  Ga2  1  0.82677400  0.67348600  0.02735800  1
  Ga  Ga3  1  0.15328800  0.82677400  0.52735800  1
  Ga  Ga4  1  0.67348600  0.84671200  0.52735800  1
  Ga  Ga5  1  0.17322600  0.32651400  0.52735800  1
  Ga  Ga6  1  0.84442200  0.17402000  0.41618000  1
  Ga  Ga7  1  0.32959900  0.15557800  0.41618000  1
  Ga  Ga8  1  0.82598000  0.67040100  0.41618000  1
  Ga  Ga9  1  0.15557800  0.82598000  0.91618000  1
  Ga  Ga10  1  0.67040100  0.84442200  0.91618000  1
  Ga  Ga11  1  0.17402000  0.32959900  0.91618000  1
  Ga  Ga12  1  0.66666700  0.33333300  0.94214800  1
  Ga  Ga13  1  0.33333300  0.66666700  0.44214800  1
  Ga  Ga14  1  0.66666700  0.33333300  0.52170300  1
  Ga  Ga15  1  0.33333300  0.66666700  0.02170300  1
  O  O0  1  0.67738400  0.67690800  0.92475200  1
  O  O1  1  0.99952300  0.32261600  0.92475200  1
  O  O2  1  0.32309200  0.00047700  0.92475200  1
  O  O3  1  0.32261600  0.32309200  0.42475200  1
  O  O4  1  0.00047700  0.67738400  0.42475200  1
  O  O5  1  0.67690800  0.99952300  0.42475200  1
  O  O6  1  0.33162600  0.50063300  0.97296400  1
  O  O7  1  0.16900700  0.66837400  0.97296400  1
  O  O8  1  0.49936700  0.83099300  0.97296400  1
  O  O9  1  0.66837400  0.49936700  0.47296400  1
  O  O10  1  0.83099300  0.33162600  0.47296400  1
  O  O11  1  0.50063300  0.16900700  0.47296400  1
  O  O12  1  0.16664800  0.17139100  0.00294200  1
  O  O13  1  0.00474300  0.83335200  0.00294200  1
  O  O14  1  0.82860900  0.99525700  0.00294200  1
  O  O15  1  0.83335200  0.82860900  0.50294200  1
  O  O16  1  0.99525700  0.16664800  0.50294200  1
  O  O17  1  0.17139100  0.00474300  0.50294200  1
  O  O18  1  0.91202900  0.22082900  0.22149100  1
  O  O19  1  0.30880000  0.08797100  0.22149100  1
  O  O20  1  0.77917100  0.69120000  0.22149100  1
  O  O21  1  0.08797100  0.77917100  0.72149100  1
  O  O22  1  0.69120000  0.91202900  0.72149100  1
  O  O23  1  0.22082900  0.30880000  0.72149100  1
  O  O24  1  0.66666700  0.33333300  0.73249200  1
  O  O25  1  0.33333300  0.66666700  0.23249200  1
  O  O26  1  0.67533000  0.17174900  0.99505500  1
  O  O27  1  0.49641900  0.32467000  0.99505500  1
  O  O28  1  0.82825100  0.50358100  0.99505500  1
  O  O29  1  0.32467000  0.82825100  0.49505500  1
  O  O30  1  0.50358100  0.67533000  0.49505500  1
  O  O31  1  0.17174900  0.49641900  0.49505500  1
loop_
_geom_bond_atom_site_label_1
_geom_bond_atom_site_label_2
_geom_bond_distance
_geom_bond_site_symmetry_2
Ba0 O3 2.688950 1_555
Ba0 O20 2.690603 1_555
Ba0 O6 2.835373 1_554
Ba0 O27 2.932296 1_554
Ba0 O25 2.946994 1_555
Ba0 O30 2.964021 1_555
Ba0 O9 2.980481 1_555
Ba0 O0 3.283890 1_554
Ba1 O4 2.688945 1_555
Ba1 O18 2.690603 1_455
Ba1 O7 2.835373 1_554
Ba1 O28 2.932296 1_454
Ba1 O25 2.946985 1_555
Ba1 O31 2.964021 1_555
Ba1 O10 2.980481 1_455
Ba1 O1 3.283888 1_454
Ba2 O5 2.688953 1_555
Ba2 O19 2.690603 1_565
Ba2 O8 2.835373 1_554
Ba2 O26 2.932295 1_564
Ba2 O25 2.946985 1_555
Ba2 O29 2.964020 1_555
Ba2 O11 2.980481 1_565
Ba2 O2 3.283894 1_564
Ba3 O0 2.688950 1_555
Ba3 O23 2.690603 1_555
Ba3 O9 2.835373 1_555
Ba3 O30 2.932296 1_555
Ba3 O24 2.946994 1_555
Ba3 O27 2.964021 1_555
Ba3 O6 2.980481 1_555
Ba3 O3 3.283890 1_555
Ba4 O1 2.688945 1_555
Ba4 O21 2.690603 1_655
Ba4 O10 2.835373 1_555
Ba4 O31 2.932296 1_655
Ba4 O24 2.946985 1_555
Ba4 O28 2.964021 1_555
Ba4 O7 2.980481 1_655
Ba4 O4 3.283888 1_655
Ba5 O2 2.688953 1_555
Ba5 O22 2.690603 1_545
Ba5 O11 2.835373 1_555
Ba5 O29 2.932295 1_545
Ba5 O24 2.946985 1_555
Ba5 O26 2.964020 1_555
Ba5 O8 2.980481 1_545
Ba5 O5 3.283894 1_545
Ba6 O12 2.792695 1_555
Ba6 O14 2.792695 1_445
Ba6 O13 2.792695 1_545
Ba6 O20 2.995767 1_445
Ba6 O19 2.995767 1_555
Ba6 O18 2.995767 1_455
Ba6 O15 3.019265 1_445
Ba6 O17 3.019265 1_555
Ba6 O16 3.019265 1_455
Ba7 O15 2.792695 1_445
Ba7 O17 2.792695 1_555
Ba7 O16 2.792695 1_455
Ba7 O23 2.995767 1_555
Ba7 O22 2.995767 1_445
Ba7 O21 2.995767 1_545
Ba7 O12 3.019265 1_556
Ba7 O14 3.019265 1_446
Ba7 O13 3.019265 1_546
Ga0 O14 1.855458 1_545
Ga0 O18 1.859503 1_555
Ga0 O26 1.875981 1_554
Ga0 O1 1.883370 1_554
Ga1 O12 1.855458 1_555
Ga1 O19 1.859503 1_555
Ga1 O27 1.875981 1_554
Ga1 O2 1.883365 1_554
Ga2 O13 1.855458 1_655
Ga2 O20 1.859503 1_555
Ga2 O28 1.875981 1_554
Ga2 O0 1.883375 1_554
Ga3 O17 1.855458 1_565
Ga3 O21 1.859503 1_555
Ga3 O29 1.875981 1_555
Ga3 O4 1.883370 1_555
Ga4 O15 1.855458 1_555
Ga4 O22 1.859503 1_555
Ga4 O30 1.875981 1_555
Ga4 O5 1.883365 1_555
Ga5 O16 1.855458 1_455
Ga5 O23 1.859503 1_555
Ga5 O31 1.875981 1_555
Ga5 O3 1.883375 1_555
Ga6 O16 1.852302 1_555
Ga6 O5 1.859948 1_545
Ga6 O10 1.860641 1_555
Ga6 O18 1.869707 1_555
Ga7 O17 1.852307 1_555
Ga7 O3 1.859948 1_555
Ga7 O11 1.860630 1_555
Ga7 O19 1.869707 1_555
Ga8 O15 1.852312 1_555
Ga8 O4 1.859948 1_655
Ga8 O9 1.860635 1_555
Ga8 O20 1.869710 1_555
Ga9 O13 1.852302 1_556
Ga9 O2 1.859948 1_565
Ga9 O7 1.860641 1_555
Ga9 O21 1.869707 1_555
Ga10 O14 1.852307 1_556
Ga10 O0 1.859948 1_555
Ga10 O8 1.860630 1_555
Ga10 O22 1.869707 1_555
Ga11 O12 1.852312 1_556
Ga11 O1 1.859948 1_455
Ga11 O6 1.860635 1_555
Ga11 O23 1.869710 1_555
Ga12 O26 1.865565 1_555
Ga12 O28 1.865571 1_555
Ga12 O27 1.865576 1_555
Ga12 O24 1.887309 1_555
Ga13 O29 1.865565 1_555
Ga13 O31 1.865571 1_555
Ga13 O30 1.865576 1_555
Ga13 O25 1.887309 1_555
Ga14 O10 1.846857 1_555
Ga14 O11 1.846862 1_555
Ga14 O9 1.846867 1_555
Ga14 O24 1.897508 1_555
Ga15 O7 1.846857 1_554
Ga15 O8 1.846862 1_554
Ga15 O6 1.846867 1_554
Ga15 O25 1.897508 1_555
