# generated using pymatgen
data_CeSi2Ir
_symmetry_space_group_name_H-M   'P 1'
_cell_length_a   8.64992742
_cell_length_b   8.64992742
_cell_length_c   4.19958091
_cell_angle_alpha   90.00000000
_cell_angle_beta   90.00000000
_cell_angle_gamma   151.80161000
_symmetry_Int_Tables_number   1
_chemical_formula_structural   CeSi2Ir
_chemical_formula_sum   'Ce2 Si4 Ir2'
_cell_volume   148.47611293
_cell_formula_units_Z   2
loop_
 _symmetry_equiv_pos_site_id
 _symmetry_equiv_pos_as_xyz
  1  'x, y, z'
loop_
 _atom_site_type_symbol
 _atom_site_label
 _atom_site_symmetry_multiplicity
 _atom_site_fract_x
 _atom_site_fract_y
 _atom_site_fract_z
 _atom_site_occupancy
  Ce  Ce0  1  0.89374102  0.10625898  0.75000000  1
  Ce  Ce1  1  0.10625898  0.89374102  0.25000000  1
  Si  Si0  1  0.53685024  0.46314976  0.75000000  1
  Si  Si1  1  0.46314976  0.53685024  0.25000000  1
  Si  Si2  1  0.25005965  0.74994035  0.75000000  1
  Si  Si3  1  0.74994035  0.25005965  0.25000000  1
  Ir  Ir0  1  0.67762431  0.32237569  0.75000000  1
  Ir  Ir1  1  0.32237569  0.67762431  0.25000000  1
loop_
_geom_bond_atom_site_label_1
_geom_bond_atom_site_label_2
_geom_bond_distance
_geom_bond_site_symmetry_2
Ce0 Si1 3.194589 1_656
Ce0 Si1 3.194589 1_545
Ce0 Si1 3.194589 1_655
Ce0 Si1 3.194589 1_546
Ce0 Si0 3.194639 1_545
Ce0 Si0 3.194639 1_655
Ce0 Si3 3.198542 1_556
Ce0 Si3 3.198542 1_555
Ce0 Si2 3.201860 1_545
Ce0 Si2 3.201860 1_655
Ce0 Ir1 3.206703 1_546
Ce0 Ir1 3.206703 1_545
Ce0 Ir1 3.206703 1_656
Ce0 Ir1 3.206703 1_655
Ce1 Si0 3.194589 1_565
Ce1 Si0 3.194589 1_564
Ce1 Si0 3.194589 1_455
Ce1 Si0 3.194589 1_454
Ce1 Si1 3.194639 1_455
Ce1 Si1 3.194639 1_565
Ce1 Si2 3.198542 1_555
Ce1 Si2 3.198542 1_554
Ce1 Si3 3.201860 1_455
Ce1 Si3 3.201860 1_565
Ce1 Ir0 3.206703 1_564
Ce1 Ir0 3.206703 1_455
Ce1 Ir0 3.206703 1_565
Ce1 Ir0 3.206703 1_454
Si0 Si1 2.436862 1_555
Si0 Si1 2.436862 1_556
Ir0 Si0 2.362006 1_555
Ir0 Si3 2.425157 1_556
Ir0 Si3 2.425157 1_555
Ir0 Si2 2.432518 1_545
Ir0 Si2 2.432518 1_655
Ir1 Si1 2.362006 1_555
Ir1 Si2 2.425157 1_554
Ir1 Si2 2.425157 1_555
Ir1 Si3 2.432518 1_565
Ir1 Si3 2.432518 1_455
