# generated using pymatgen
data_BaEuZr2O6
_symmetry_space_group_name_H-M   'P 1'
_cell_length_a   4.22341495
_cell_length_b   4.22341495
_cell_length_c   8.44659589
_cell_angle_alpha   90.00000000
_cell_angle_beta   90.00000000
_cell_angle_gamma   90.00000000
_symmetry_Int_Tables_number   1
_chemical_formula_structural   BaEuZr2O6
_chemical_formula_sum   'Ba1 Eu1 Zr2 O6'
_cell_volume   150.66390604
_cell_formula_units_Z   1
loop_
 _symmetry_equiv_pos_site_id
 _symmetry_equiv_pos_as_xyz
  1  'x, y, z'
loop_
 _atom_site_type_symbol
 _atom_site_label
 _atom_site_symmetry_multiplicity
 _atom_site_fract_x
 _atom_site_fract_y
 _atom_site_fract_z
 _atom_site_occupancy
  Ba  Ba0  1  0.50000000  0.50000000  0.50000000  1
  Eu  Eu0  1  0.50000000  0.50000000  -0.00000000  1
  Zr  Zr0  1  -0.00000000  0.00000000  0.75361290  1
  Zr  Zr1  1  0.00000000  -0.00000000  0.24638710  1
  O  O0  1  -0.00000000  0.50000000  0.75754843  1
  O  O1  1  0.00000000  0.50000000  0.24245157  1
  O  O2  1  0.50000000  0.00000000  0.75754843  1
  O  O3  1  0.50000000  -0.00000000  0.24245157  1
  O  O4  1  -0.00000000  0.00000000  -0.00000000  1
  O  O5  1  -0.00000000  0.00000000  0.50000000  1
loop_
_geom_bond_atom_site_label_1
_geom_bond_atom_site_label_2
_geom_bond_distance
_geom_bond_site_symmetry_2
Ba0 O5 2.986405 1_555
Ba0 O5 2.986405 1_565
Ba0 O5 2.986405 1_655
Ba0 O5 2.986405 1_665
Ba0 O1 3.031783 1_655
Ba0 O1 3.031783 1_555
Ba0 O3 3.031783 1_555
Ba0 O3 3.031783 1_565
Ba0 O2 3.031783 1_555
Ba0 O2 3.031783 1_565
Ba0 O0 3.031783 1_555
Ba0 O0 3.031783 1_655
Eu0 O2 2.941626 1_564
Eu0 O0 2.941626 1_654
Eu0 O2 2.941626 1_554
Eu0 O0 2.941626 1_554
Eu0 O3 2.941626 1_555
Eu0 O3 2.941626 1_565
Eu0 O1 2.941626 1_555
Eu0 O1 2.941626 1_655
Eu0 O4 2.986405 1_665
Eu0 O4 2.986405 1_555
Eu0 O4 2.986405 1_655
Eu0 O4 2.986405 1_565
O0 Zr0 2.111969 1_555
O0 Zr0 2.111969 1_565
O1 Zr1 2.111969 1_555
O1 Zr1 2.111969 1_565
O2 Zr0 2.111969 1_555
O2 Zr0 2.111969 1_655
O3 Zr1 2.111969 1_555
O3 Zr1 2.111969 1_655
O4 Zr1 2.081132 1_555
O4 Zr0 2.081132 1_554
O5 Zr0 2.142166 1_555
O5 Zr1 2.142166 1_555
