# generated using pymatgen
data_LiMn2(P2O7)2
_symmetry_space_group_name_H-M   'P 1'
_cell_length_a   5.13158076
_cell_length_b   6.25195125
_cell_length_c   9.68333025
_cell_angle_alpha   110.75804202
_cell_angle_beta   102.25394767
_cell_angle_gamma   102.87430672
_symmetry_Int_Tables_number   1
_chemical_formula_structural   LiMn2(P2O7)2
_chemical_formula_sum   'Li1 Mn2 P4 O14'
_cell_volume   268.35531276
_cell_formula_units_Z   1
loop_
 _symmetry_equiv_pos_site_id
 _symmetry_equiv_pos_as_xyz
  1  'x, y, z'
loop_
 _atom_site_type_symbol
 _atom_site_label
 _atom_site_symmetry_multiplicity
 _atom_site_fract_x
 _atom_site_fract_y
 _atom_site_fract_z
 _atom_site_occupancy
  Li  Li0  1  0.19865200  0.69435700  0.04020700  1
  Mn  Mn0  1  0.08929900  0.60165300  0.36894000  1
  Mn  Mn1  1  0.91324100  0.40365100  0.64020600  1
  P  P0  1  0.24858100  0.14391000  0.37888700  1
  P  P1  1  0.59393500  0.69890300  0.85772300  1
  P  P2  1  0.40248000  0.30325200  0.14132200  1
  P  P3  1  0.74648000  0.86196000  0.62838200  1
  O  O0  1  0.06623600  0.89167700  0.34639200  1
  O  O1  1  0.07024200  0.31545000  0.41224100  1
  O  O2  1  0.30849000  0.51508000  0.74575000  1
  O  O3  1  0.22278300  0.47187900  0.15980900  1
  O  O4  1  0.33573300  0.14279900  0.96957000  1
  O  O5  1  0.47360300  0.75674800  0.49288400  1
  O  O6  1  0.67756400  0.89424700  0.78561200  1
  O  O7  1  0.29379500  0.11109500  0.21407900  1
  O  O8  1  0.53122000  0.24254400  0.50371100  1
  O  O9  1  0.58162900  0.83633100  0.01931600  1
  O  O10  1  0.82742500  0.58094500  0.85832600  1
  O  O11  1  0.71151900  0.43970800  0.23105300  1
  O  O12  1  0.92930200  0.69188200  0.59770900  1
  O  O13  1  0.92779000  0.11026300  0.65649000  1
loop_
_geom_bond_atom_site_label_1
_geom_bond_atom_site_label_2
_geom_bond_distance
_geom_bond_site_symmetry_2
Li0 O9 2.051776 1_555
Li0 O10 2.079007 1_454
Li0 O3 2.109276 1_555
Li0 O7 2.415796 1_565
Mn0 O5 1.894207 1_555
Mn0 O11 1.906406 1_455
Mn0 O0 1.927361 1_555
Mn0 O1 1.964259 1_555
Mn0 O3 2.213657 1_555
Mn0 O12 2.447916 1_455
Mn1 O2 1.905090 1_655
Mn1 O13 1.912054 1_555
Mn1 O8 1.918610 1_555
Mn1 O12 1.974137 1_555
Mn1 O10 2.199198 1_555
Mn1 O1 2.432308 1_655
O0 P0 1.525475 1_565
O1 P0 1.552196 1_555
O2 P1 1.527865 1_555
O3 P2 1.537309 1_555
O4 P2 1.520555 1_556
O5 P3 1.520816 1_555
O6 P3 1.589457 1_555
O6 P1 1.631388 1_555
O7 P0 1.609067 1_555
O7 P2 1.648894 1_555
O8 P0 1.507908 1_555
O9 P1 1.517828 1_554
O10 P1 1.540570 1_555
O11 P2 1.511446 1_555
O12 P3 1.561403 1_555
O13 P3 1.516238 1_545
