# generated using pymatgen
data_Sr5Ca3Fe2(CoO4)6
_symmetry_space_group_name_H-M   'P 1'
_cell_length_a   7.73377400
_cell_length_b   7.67944000
_cell_length_c   7.72361044
_cell_angle_alpha   89.98066800
_cell_angle_beta   90.00000000
_cell_angle_gamma   90.00000000
_symmetry_Int_Tables_number   1
_chemical_formula_structural   Sr5Ca3Fe2(CoO4)6
_chemical_formula_sum   'Sr5 Ca3 Fe2 Co6 O24'
_cell_volume   458.71333400
_cell_formula_units_Z   1
loop_
 _symmetry_equiv_pos_site_id
 _symmetry_equiv_pos_as_xyz
  1  'x, y, z'
loop_
 _atom_site_type_symbol
 _atom_site_label
 _atom_site_symmetry_multiplicity
 _atom_site_fract_x
 _atom_site_fract_y
 _atom_site_fract_z
 _atom_site_occupancy
  Sr  Sr0  1  0.50000000  0.25316500  0.24754200  1
  Sr  Sr1  1  0.00000000  0.25317100  0.24749000  1
  Sr  Sr2  1  0.50000000  0.25323900  0.75285200  1
  Sr  Sr3  1  0.00000000  0.25289500  0.75264100  1
  Sr  Sr4  1  0.50000000  0.74727800  0.75300700  1
  Ca  Ca0  1  0.50000000  0.74356800  0.24146300  1
  Ca  Ca1  1  0.00000000  0.74424700  0.24064600  1
  Ca  Ca2  1  0.00000000  0.74391000  0.75987300  1
  Fe  Fe0  1  0.24949600  0.99800300  0.00081700  1
  Fe  Fe1  1  0.75050400  0.99800300  0.00081700  1
  Co  Co0  1  0.24925600  0.50127400  0.00062000  1
  Co  Co1  1  0.75074400  0.50127400  0.00062000  1
  Co  Co2  1  0.24891500  0.99558100  0.49930200  1
  Co  Co3  1  0.75108500  0.99558100  0.49930200  1
  Co  Co4  1  0.24927000  0.50204100  0.49879400  1
  Co  Co5  1  0.75073000  0.50204100  0.49879400  1
  O  O0  1  0.24942900  0.99243800  0.25549200  1
  O  O1  1  0.75057100  0.99243800  0.25549200  1
  O  O2  1  0.24829700  0.50455400  0.23562400  1
  O  O3  1  0.75170300  0.50455400  0.23562400  1
  O  O4  1  0.24670700  0.99502000  0.74493100  1
  O  O5  1  0.75329300  0.99502000  0.74493100  1
  O  O6  1  0.24726600  0.50350400  0.76511100  1
  O  O7  1  0.75273400  0.50350400  0.76511100  1
  O  O8  1  0.24888000  0.25084300  0.00084700  1
  O  O9  1  0.75112000  0.25084300  0.00084700  1
  O  O10  1  0.24683200  0.74872500  0.00244400  1
  O  O11  1  0.75316800  0.74872500  0.00244400  1
  O  O12  1  0.24915700  0.26233200  0.49973000  1
  O  O13  1  0.75084300  0.26233200  0.49973000  1
  O  O14  1  0.24859800  0.73903100  0.49811200  1
  O  O15  1  0.75140200  0.73903100  0.49811200  1
  O  O16  1  0.50000000  0.99504700  0.00296400  1
  O  O17  1  0.00000000  0.99402600  0.00160700  1
  O  O18  1  0.50000000  0.50996300  0.00481100  1
  O  O19  1  0.00000000  0.51631000  0.00173200  1
  O  O20  1  0.50000000  0.99719300  0.49799900  1
  O  O21  1  0.00000000  0.99528400  0.49938900  1
  O  O22  1  0.50000000  0.50622500  0.49256800  1
  O  O23  1  0.00000000  0.50778500  0.49976900  1
loop_
_geom_bond_atom_site_label_1
_geom_bond_atom_site_label_2
_geom_bond_distance
_geom_bond_site_symmetry_2
Ca0 O18 2.561517 1_555
Ca0 O22 2.661038 1_555
Ca0 O16 2.668415 1_555
Ca0 O2 2.675899 1_555
Ca0 O3 2.675899 1_555
Ca0 O11 2.691303 1_555
Ca0 O10 2.691303 1_555
Ca0 O1 2.723930 1_555
Ca0 O0 2.723930 1_555
Ca0 O15 2.776825 1_555
Ca0 O14 2.776825 1_555
Ca0 O20 2.778851 1_555
Ca1 O19 2.543862 1_555
Ca1 O10 2.651413 1_555
Ca1 O11 2.651413 1_455
Ca1 O3 2.660302 1_455
Ca1 O2 2.660302 1_555
Ca1 O17 2.661875 1_555
Ca1 O23 2.701941 1_555
Ca1 O0 2.714251 1_555
Ca1 O1 2.714251 1_455
Ca1 O14 2.766287 1_555
Ca1 O15 2.766287 1_455
Ca1 O21 2.777198 1_555
Ca2 O19 2.557784 1_556
Ca2 O6 2.658358 1_555
Ca2 O7 2.658358 1_455
Ca2 O10 2.674990 1_556
Ca2 O11 2.674990 1_456
Ca2 O17 2.679107 1_556
Ca2 O23 2.706731 1_555
Ca2 O4 2.715181 1_555
Ca2 O5 2.715181 1_455
Ca2 O21 2.787744 1_555
Ca2 O14 2.790212 1_555
Ca2 O15 2.790212 1_455
Fe0 O10 1.914463 1_555
Fe0 O17 1.929797 1_555
Fe0 O16 1.937545 1_555
Fe0 O8 1.941676 1_565
Fe0 O0 1.967460 1_555
Fe0 O4 1.976622 1_554
Fe1 O11 1.914463 1_555
Fe1 O17 1.929797 1_655
Fe1 O16 1.937545 1_555
Fe1 O9 1.941676 1_565
Fe1 O1 1.967460 1_555
Fe1 O5 1.976622 1_554
Co0 O2 1.815278 1_555
Co0 O6 1.819120 1_554
Co0 O10 1.900435 1_555
Co0 O8 1.923172 1_555
Co0 O19 1.931164 1_555
Co0 O18 1.940615 1_555
Co1 O3 1.815278 1_555
Co1 O7 1.819120 1_554
Co1 O11 1.900435 1_555
Co1 O9 1.923172 1_555
Co1 O19 1.931164 1_655
Co1 O18 1.940615 1_555
Co2 O0 1.883260 1_555
Co2 O4 1.897223 1_555
Co2 O21 1.925054 1_555
Co2 O20 1.941900 1_555
Co2 O14 1.970186 1_555
Co2 O12 2.048503 1_565
Co3 O1 1.883260 1_555
Co3 O5 1.897223 1_555
Co3 O21 1.925054 1_655
Co3 O20 1.941900 1_555
Co3 O15 1.970186 1_555
Co3 O13 2.048503 1_565
Co4 O14 1.819964 1_555
Co4 O12 1.840843 1_555
Co4 O23 1.928317 1_555
Co4 O22 1.939951 1_555
Co4 O2 2.032722 1_555
Co4 O6 2.057022 1_555
Co5 O15 1.819964 1_555
Co5 O13 1.840843 1_555
Co5 O23 1.928317 1_655
Co5 O22 1.939951 1_555
Co5 O3 2.032722 1_555
Co5 O7 2.057022 1_555
O0 Sr1 2.781011 1_565
O0 Sr0 2.787103 1_565
O1 Sr1 2.781011 1_665
O1 Sr0 2.787103 1_565
O2 Sr1 2.724424 1_555
O2 Sr0 2.743099 1_555
O3 Sr1 2.724424 1_655
O3 Sr0 2.743099 1_555
O4 Sr4 2.731433 1_555
O4 Sr3 2.750587 1_565
O4 Sr2 2.788074 1_565
O5 Sr4 2.731433 1_555
O5 Sr3 2.750587 1_665
O5 Sr2 2.788074 1_565
O6 Sr4 2.708062 1_555
O6 Sr3 2.714799 1_555
O6 Sr2 2.742842 1_555
O7 Sr4 2.708062 1_555
O7 Sr3 2.714799 1_655
O7 Sr2 2.742842 1_555
O8 Sr1 2.708146 1_555
O8 Sr3 2.716630 1_554
O8 Sr0 2.720767 1_555
O8 Sr2 2.727803 1_554
O9 Sr1 2.708146 1_655
O9 Sr3 2.716630 1_654
O9 Sr0 2.720767 1_555
O9 Sr2 2.727803 1_554
O10 Sr4 2.746870 1_554
O11 Sr4 2.746870 1_554
O12 Sr1 2.741090 1_555
O12 Sr3 2.744797 1_555
O12 Sr0 2.749989 1_555
O12 Sr2 2.755055 1_555
O13 Sr1 2.741090 1_655
O13 Sr3 2.744797 1_655
O13 Sr0 2.749989 1_555
O13 Sr2 2.755055 1_555
O14 Sr4 2.767700 1_555
O15 Sr4 2.767700 1_555
O16 Sr4 2.711079 1_554
O16 Sr0 2.738625 1_565
O16 Sr2 2.767764 1_564
O17 Sr1 2.751291 1_565
O17 Sr3 2.765330 1_564
O18 Sr4 2.664828 1_554
O18 Sr0 2.720527 1_555
O18 Sr2 2.770638 1_554
O19 Sr1 2.771970 1_555
O19 Sr3 2.792130 1_554
O20 Sr4 2.749556 1_555
O20 Sr0 2.757449 1_565
O20 Sr2 2.782705 1_565
O21 Sr1 2.775741 1_565
O21 Sr3 2.782504 1_565
O22 Sr0 2.713048 1_555
O22 Sr4 2.734141 1_555
O22 Sr2 2.795217 1_555
O23 Sr1 2.760872 1_555
O23 Sr3 2.764674 1_555
