# generated using pymatgen
data_ErCo5Si3
_symmetry_space_group_name_H-M   'P 1'
_cell_length_a   14.62697841
_cell_length_b   14.62697841
_cell_length_c   3.66220400
_cell_angle_alpha   90.00000000
_cell_angle_beta   90.00000000
_cell_angle_gamma   120.00000185
_symmetry_Int_Tables_number   1
_chemical_formula_structural   ErCo5Si3
_chemical_formula_sum   'Er6 Co30 Si18'
_cell_volume   678.55084690
_cell_formula_units_Z   6
loop_
 _symmetry_equiv_pos_site_id
 _symmetry_equiv_pos_as_xyz
  1  'x, y, z'
loop_
 _atom_site_type_symbol
 _atom_site_label
 _atom_site_symmetry_multiplicity
 _atom_site_fract_x
 _atom_site_fract_y
 _atom_site_fract_z
 _atom_site_occupancy
  Er  Er0  1  0.29405700  0.89946600  0.75000000  1
  Er  Er1  1  0.10053400  0.39459200  0.75000000  1
  Er  Er2  1  0.60540800  0.70594300  0.75000000  1
  Er  Er3  1  0.70594300  0.10053400  0.25000000  1
  Er  Er4  1  0.89946600  0.60540800  0.25000000  1
  Er  Er5  1  0.39459200  0.29405700  0.25000000  1
  Co  Co0  1  0.42775700  0.77491400  0.75000000  1
  Co  Co1  1  0.22508600  0.65284300  0.75000000  1
  Co  Co2  1  0.34715700  0.57224300  0.75000000  1
  Co  Co3  1  0.57224300  0.22508600  0.25000000  1
  Co  Co4  1  0.77491400  0.34715700  0.25000000  1
  Co  Co5  1  0.65284300  0.42775700  0.25000000  1
  Co  Co6  1  0.53367400  0.07420400  0.75000000  1
  Co  Co7  1  0.92579600  0.45947000  0.75000000  1
  Co  Co8  1  0.54053000  0.46632600  0.75000000  1
  Co  Co9  1  0.46632600  0.92579600  0.25000000  1
  Co  Co10  1  0.07420400  0.54053000  0.25000000  1
  Co  Co11  1  0.45947000  0.53367400  0.25000000  1
  Co  Co12  1  0.04921300  0.78120700  0.75000000  1
  Co  Co13  1  0.21879300  0.26800600  0.75000000  1
  Co  Co14  1  0.73199400  0.95078700  0.75000000  1
  Co  Co15  1  0.95078700  0.21879300  0.25000000  1
  Co  Co16  1  0.78120700  0.73199400  0.25000000  1
  Co  Co17  1  0.26800600  0.04921300  0.25000000  1
  Co  Co18  1  0.73479500  0.58645700  0.75000000  1
  Co  Co19  1  0.41354300  0.14833800  0.75000000  1
  Co  Co20  1  0.85166200  0.26520500  0.75000000  1
  Co  Co21  1  0.26520500  0.41354300  0.25000000  1
  Co  Co22  1  0.58645700  0.85166200  0.25000000  1
  Co  Co23  1  0.14833800  0.73479500  0.25000000  1
  Co  Co24  1  0.10032100  0.97150400  0.75000000  1
  Co  Co25  1  0.02849600  0.12881700  0.75000000  1
  Co  Co26  1  0.87118300  0.89967900  0.75000000  1
  Co  Co27  1  0.89967900  0.02849600  0.25000000  1
  Co  Co28  1  0.97150400  0.87118300  0.25000000  1
  Co  Co29  1  0.12881700  0.10032100  0.25000000  1
  Si  Si0  1  0.68178300  0.23856900  0.75000000  1
  Si  Si1  1  0.76143100  0.44321400  0.75000000  1
  Si  Si2  1  0.55678600  0.31821700  0.75000000  1
  Si  Si3  1  0.31821700  0.76143100  0.25000000  1
  Si  Si4  1  0.23856900  0.55678600  0.25000000  1
  Si  Si5  1  0.44321400  0.68178300  0.25000000  1
  Si  Si6  1  0.88262100  0.75161100  0.75000000  1
  Si  Si7  1  0.24838900  0.13101000  0.75000000  1
  Si  Si8  1  0.86899000  0.11737900  0.75000000  1
  Si  Si9  1  0.11737900  0.24838900  0.25000000  1
  Si  Si10  1  0.75161100  0.86899000  0.25000000  1
  Si  Si11  1  0.13101000  0.88262100  0.25000000  1
  Si  Si12  1  0.06230500  0.63030500  0.75000000  1
  Si  Si13  1  0.36969500  0.43200000  0.75000000  1
  Si  Si14  1  0.56800000  0.93769500  0.75000000  1
  Si  Si15  1  0.93769500  0.36969500  0.25000000  1
  Si  Si16  1  0.63030500  0.56800000  0.25000000  1
  Si  Si17  1  0.43200000  0.06230500  0.25000000  1
loop_
_geom_bond_atom_site_label_1
_geom_bond_atom_site_label_2
_geom_bond_distance
_geom_bond_site_symmetry_2
Er0 Si3 2.875382 1_556
Er0 Si3 2.875382 1_555
Er0 Si17 2.879472 1_566
Er0 Si17 2.879472 1_565
Er0 Si11 2.917825 1_555
Er0 Si11 2.917825 1_556
Er1 Si4 2.875375 1_555
Er1 Si4 2.875375 1_556
Er1 Si15 2.879468 1_455
Er1 Si15 2.879468 1_456
Er1 Si9 2.917837 1_555
Er1 Si9 2.917837 1_556
Er2 Si5 2.875371 1_556
Er2 Si5 2.875371 1_555
Er2 Si16 2.879479 1_555
Er2 Si16 2.879479 1_556
Er2 Si10 2.917830 1_555
Er2 Si10 2.917830 1_556
Er3 Si0 2.875382 1_555
Er3 Si0 2.875382 1_554
Er3 Si14 2.879472 1_544
Er3 Si14 2.879472 1_545
Er3 Si8 2.917825 1_554
Er3 Si8 2.917825 1_555
Er4 Si1 2.875375 1_554
Er4 Si1 2.875375 1_555
Er4 Si12 2.879468 1_655
Er4 Si12 2.879468 1_654
Er4 Si6 2.917837 1_555
Er4 Si6 2.917837 1_554
Er5 Si2 2.875371 1_555
Er5 Si2 2.875371 1_554
Er5 Si13 2.879479 1_555
Er5 Si13 2.879479 1_554
Er5 Si7 2.917830 1_554
Er5 Si7 2.917830 1_555
Co0 Si14 2.234477 1_555
Co0 Si5 2.359596 1_556
Co0 Si5 2.359596 1_555
Co0 Si3 2.375503 1_556
Co0 Si3 2.375503 1_555
Co0 Co9 2.701254 1_555
Co0 Co9 2.701254 1_556
Co0 Co22 2.719506 1_555
Co0 Co22 2.719506 1_556
Co1 Si12 2.234477 1_555
Co1 Si3 2.359596 1_555
Co1 Si3 2.359596 1_556
Co1 Si4 2.375503 1_555
Co1 Si4 2.375503 1_556
Co1 Co10 2.701254 1_556
Co1 Co10 2.701254 1_555
Co1 Co23 2.719506 1_556
Co1 Co23 2.719506 1_555
Co2 Si13 2.234477 1_555
Co2 Si4 2.359596 1_555
Co2 Si4 2.359596 1_556
Co2 Si5 2.375503 1_556
Co2 Si5 2.375503 1_555
Co2 Co21 2.719506 1_555
Co2 Co21 2.719506 1_556
Co3 Si17 2.234477 1_555
Co3 Si2 2.359596 1_555
Co3 Si2 2.359596 1_554
Co3 Si0 2.375503 1_555
Co3 Si0 2.375503 1_554
Co3 Co6 2.701254 1_555
Co3 Co6 2.701254 1_554
Co4 Si15 2.234477 1_555
Co4 Si0 2.359596 1_555
Co4 Si0 2.359596 1_554
Co4 Si1 2.375503 1_554
Co4 Si1 2.375503 1_555
Co4 Co7 2.701254 1_554
Co4 Co7 2.701254 1_555
Co5 Si16 2.234477 1_555
Co5 Si1 2.359596 1_554
Co5 Si1 2.359596 1_555
Co5 Si2 2.375503 1_555
Co5 Si2 2.375503 1_554
Co5 Co8 2.701254 1_555
Co5 Co8 2.701254 1_554
Co6 Si14 2.289428 1_545
Co6 Si0 2.294534 1_555
Co6 Si17 2.310000 1_555
Co6 Si17 2.310000 1_556
Co6 Co9 2.626241 1_545
Co6 Co9 2.626241 1_546
Co6 Er3 2.979948 1_555
Co6 Er3 2.979948 1_556
Co6 Er0 3.139846 1_545
Co7 Si12 2.289428 1_655
Co7 Si1 2.294534 1_555
Co7 Si15 2.310000 1_556
Co7 Si15 2.310000 1_555
Co7 Er4 2.979936 1_555
Co7 Er4 2.979936 1_556
Co7 Er1 3.139836 1_655
Co8 Si13 2.289428 1_555
Co8 Si2 2.294534 1_555
Co8 Si16 2.310000 1_555
Co8 Si16 2.310000 1_556
Co8 Er5 2.979943 1_555
Co8 Er5 2.979943 1_556
Co8 Er2 3.139850 1_555
Co9 Si17 2.289428 1_565
Co9 Si3 2.294534 1_555
Co9 Si14 2.310000 1_554
Co9 Si14 2.310000 1_555
Co9 Er0 2.979948 1_555
Co9 Er0 2.979948 1_554
Co9 Er3 3.139846 1_565
Co10 Si15 2.289428 1_455
Co10 Si4 2.294534 1_555
Co10 Si12 2.310000 1_554
Co10 Si12 2.310000 1_555
Co10 Co23 2.483706 1_555
Co10 Co7 2.626241 1_455
Co10 Co7 2.626241 1_454
Co10 Er1 2.979936 1_555
Co10 Er1 2.979936 1_554
Co10 Er4 3.139836 1_455
Co11 Si16 2.289428 1_555
Co11 Si5 2.294534 1_555
Co11 Si13 2.310000 1_555
Co11 Si13 2.310000 1_554
Co11 Co21 2.483706 1_555
Co11 Co8 2.626241 1_554
Co11 Co8 2.626241 1_555
Co11 Co2 2.701254 1_555
Co11 Co2 2.701254 1_554
Co11 Er2 2.979943 1_555
Co11 Er2 2.979943 1_554
Co11 Er5 3.139850 1_555
Co12 Si6 2.251717 1_455
Co12 Si11 2.282553 1_555
Co12 Si11 2.282553 1_556
Co12 Si12 2.308952 1_555
Co12 Co24 2.495145 1_555
Co12 Co23 2.626841 1_556
Co12 Co23 2.626841 1_555
Co12 Er4 3.021658 1_456
Co12 Er4 3.021658 1_455
Co13 Si7 2.251717 1_555
Co13 Si9 2.282553 1_555
Co13 Si9 2.282553 1_556
Co13 Si13 2.308952 1_555
Co13 Co25 2.495145 1_555
Co13 Co21 2.626841 1_555
Co13 Co21 2.626841 1_556
Co13 Er5 3.021662 1_555
Co13 Er5 3.021662 1_556
Co14 Si8 2.251717 1_565
Co14 Si10 2.282553 1_555
Co14 Si10 2.282553 1_556
Co14 Si14 2.308952 1_555
Co14 Co26 2.495145 1_555
Co14 Co22 2.626841 1_556
Co14 Co22 2.626841 1_555
Co14 Er3 3.021651 1_566
Co14 Er3 3.021651 1_565
Co15 Si9 2.251717 1_655
Co15 Si8 2.282553 1_555
Co15 Si8 2.282553 1_554
Co15 Si15 2.308952 1_555
Co15 Co27 2.495145 1_555
Co15 Co20 2.626841 1_555
Co15 Co20 2.626841 1_554
Co15 Er1 3.021658 1_655
Co15 Er1 3.021658 1_654
Co16 Si10 2.251717 1_555
Co16 Si6 2.282553 1_555
Co16 Si6 2.282553 1_554
Co16 Si16 2.308952 1_555
Co16 Co28 2.495145 1_555
Co16 Co18 2.626841 1_555
Co16 Co18 2.626841 1_554
Co16 Er2 3.021662 1_555
Co16 Er2 3.021662 1_554
Co17 Si11 2.251717 1_545
Co17 Si7 2.282553 1_554
Co17 Si7 2.282553 1_555
Co17 Si17 2.308952 1_555
Co17 Co29 2.495145 1_555
Co17 Co19 2.626841 1_555
Co17 Co19 2.626841 1_554
Co17 Er0 3.021651 1_544
Co17 Er0 3.021651 1_545
Co18 Si6 2.299476 1_555
Co18 Si16 2.312818 1_555
Co18 Si16 2.312818 1_556
Co18 Si1 2.314737 1_555
Co18 Co8 2.483706 1_555
Co18 Co5 2.719506 1_556
Co18 Co5 2.719506 1_555
Co18 Er4 2.926371 1_556
Co18 Er4 2.926371 1_555
Co18 Er2 3.153389 1_555
Co19 Si7 2.299476 1_555
Co19 Si17 2.312818 1_556
Co19 Si17 2.312818 1_555
Co19 Si2 2.314737 1_555
Co19 Co6 2.483707 1_555
Co19 Co3 2.719506 1_556
Co19 Co3 2.719506 1_555
Co19 Er5 2.926360 1_555
Co19 Er5 2.926360 1_556
Co19 Er0 3.153376 1_545
Co20 Si8 2.299476 1_555
Co20 Si15 2.312818 1_555
Co20 Si15 2.312818 1_556
Co20 Si0 2.314737 1_555
Co20 Co7 2.483706 1_555
Co20 Co4 2.719506 1_556
Co20 Co4 2.719506 1_555
Co20 Er3 2.926367 1_556
Co20 Er3 2.926367 1_555
Co20 Er1 3.153377 1_655
Co21 Si9 2.299476 1_555
Co21 Si13 2.312818 1_554
Co21 Si13 2.312818 1_555
Co21 Si4 2.314737 1_555
Co21 Er1 2.926371 1_555
Co21 Er1 2.926371 1_554
Co21 Er5 3.153389 1_555
Co22 Si10 2.299476 1_555
Co22 Si14 2.312818 1_555
Co22 Si14 2.312818 1_554
Co22 Si5 2.314737 1_555
Co22 Co9 2.483707 1_555
Co22 Er2 2.926360 1_555
Co22 Er2 2.926360 1_554
Co22 Er3 3.153376 1_565
Co23 Si11 2.299476 1_555
Co23 Si12 2.312818 1_554
Co23 Si12 2.312818 1_555
Co23 Si3 2.314737 1_555
Co23 Er0 2.926367 1_555
Co23 Er0 2.926367 1_554
Co23 Er4 3.153377 1_455
Co24 Si7 2.254100 1_565
Co24 Si11 2.414179 1_555
Co24 Si11 2.414179 1_556
Co24 Co28 2.508293 1_455
Co24 Co28 2.508293 1_456
Co24 Co29 2.508293 1_565
Co24 Co29 2.508293 1_566
Co25 Si8 2.254101 1_455
Co25 Si9 2.414179 1_556
Co25 Si9 2.414179 1_555
Co25 Co27 2.508293 1_455
Co25 Co27 2.508293 1_456
Co25 Co29 2.508293 1_556
Co25 Co29 2.508293 1_555
Co26 Si6 2.254101 1_555
Co26 Si10 2.414179 1_555
Co26 Si10 2.414179 1_556
Co26 Co27 2.508293 1_565
Co26 Co27 2.508293 1_566
Co26 Co28 2.508293 1_556
Co26 Co28 2.508293 1_555
Co27 Si10 2.254100 1_545
Co27 Si8 2.414179 1_554
Co27 Si8 2.414179 1_555
Co28 Si11 2.254101 1_655
Co28 Si6 2.414179 1_554
Co28 Si6 2.414179 1_555
Co29 Si9 2.254101 1_555
Co29 Si7 2.414179 1_554
Co29 Si7 2.414179 1_555
Si0 Si1 2.613437 1_555
Si0 Si2 2.613437 1_555
Si1 Si2 2.613437 1_555
Si3 Si4 2.613437 1_555
Si3 Si5 2.613437 1_555
Si4 Si5 2.613437 1_555
