# generated using pymatgen
data_Na3Y(PO4)2
_symmetry_space_group_name_H-M   'P 1'
_cell_length_a   5.33506858
_cell_length_b   13.96928820
_cell_length_c   18.61023983
_cell_angle_alpha   90.00000000
_cell_angle_beta   90.00000000
_cell_angle_gamma   90.00000000
_symmetry_Int_Tables_number   1
_chemical_formula_structural   Na3Y(PO4)2
_chemical_formula_sum   'Na24 Y8 P16 O64'
_cell_volume   1386.96740137
_cell_formula_units_Z   8
loop_
 _symmetry_equiv_pos_site_id
 _symmetry_equiv_pos_as_xyz
  1  'x, y, z'
loop_
 _atom_site_type_symbol
 _atom_site_label
 _atom_site_symmetry_multiplicity
 _atom_site_fract_x
 _atom_site_fract_y
 _atom_site_fract_z
 _atom_site_occupancy
  Na  Na0  1  0.99127296  0.21702742  0.99214751  1
  Na  Na1  1  0.00872704  0.78297258  0.49214751  1
  Na  Na2  1  0.00872704  0.71702742  0.99214751  1
  Na  Na3  1  0.99127296  0.28297258  0.49214751  1
  Na  Na4  1  0.99273704  0.95207882  0.64912355  1
  Na  Na5  1  0.00726296  0.04792118  0.14912355  1
  Na  Na6  1  0.00726296  0.45207882  0.64912355  1
  Na  Na7  1  0.99273704  0.54792118  0.14912355  1
  Na  Na8  1  0.99719004  0.86137400  0.82775993  1
  Na  Na9  1  0.00280996  0.13862600  0.32775993  1
  Na  Na10  1  0.00280996  0.36137400  0.82775993  1
  Na  Na11  1  0.99719004  0.63862600  0.32775993  1
  Na  Na12  1  0.48005588  0.79712790  0.72906229  1
  Na  Na13  1  0.51994412  0.20287210  0.22906229  1
  Na  Na14  1  0.51994412  0.29712790  0.72906229  1
  Na  Na15  1  0.48005588  0.70287210  0.22906229  1
  Na  Na16  1  0.53806397  0.96882544  0.88801449  1
  Na  Na17  1  0.46193603  0.03117456  0.38801449  1
  Na  Na18  1  0.46193603  0.46882544  0.88801449  1
  Na  Na19  1  0.53806397  0.53117456  0.38801449  1
  Na  Na20  1  0.50037226  0.88814229  0.54952497  1
  Na  Na21  1  0.49962774  0.11185771  0.04952497  1
  Na  Na22  1  0.49962774  0.38814229  0.54952497  1
  Na  Na23  1  0.50037226  0.61185771  0.04952497  1
  Y  Y0  1  0.92897369  0.61116217  0.80433071  1
  Y  Y1  1  0.07102631  0.38883783  0.30433071  1
  Y  Y2  1  0.07102631  0.11116217  0.80433071  1
  Y  Y3  1  0.92897369  0.88883783  0.30433071  1
  Y  Y4  1  0.55599058  0.63849466  0.57273513  1
  Y  Y5  1  0.44400942  0.36150534  0.07273513  1
  Y  Y6  1  0.44400942  0.13849466  0.57273513  1
  Y  Y7  1  0.55599058  0.86150534  0.07273513  1
  P  P0  1  0.96921504  0.47542158  0.98115209  1
  P  P1  1  0.03078496  0.52457842  0.48115209  1
  P  P2  1  0.03078496  0.97542158  0.98115209  1
  P  P3  1  0.96921504  0.02457842  0.48115209  1
  P  P4  1  0.99240701  0.22268934  0.65270055  1
  P  P5  1  0.00759299  0.77731066  0.15270055  1
  P  P6  1  0.00759299  0.72268934  0.65270055  1
  P  P7  1  0.99240701  0.27731066  0.15270055  1
  P  P8  1  0.48039973  0.52662792  0.72479890  1
  P  P9  1  0.51960027  0.47337208  0.22479890  1
  P  P10  1  0.51960027  0.02662792  0.72479890  1
  P  P11  1  0.48039973  0.97337208  0.22479890  1
  P  P12  1  0.46163059  0.72644088  0.89613751  1
  P  P13  1  0.53836941  0.27355912  0.39613751  1
  P  P14  1  0.53836941  0.22644088  0.89613751  1
  P  P15  1  0.46163059  0.77355912  0.39613751  1
  O  O0  1  0.57353341  0.80828517  0.85058037  1
  O  O1  1  0.42646659  0.19171483  0.35058037  1
  O  O2  1  0.42646659  0.30828517  0.85058037  1
  O  O3  1  0.57353341  0.69171483  0.35058037  1
  O  O4  1  0.69803696  0.47242505  0.76359977  1
  O  O5  1  0.30196304  0.52757495  0.26359977  1
  O  O6  1  0.30196304  0.97242505  0.76359977  1
  O  O7  1  0.69803696  0.02757495  0.26359977  1
  O  O8  1  0.87886754  0.88135209  0.99411959  1
  O  O9  1  0.12113246  0.11864791  0.49411959  1
  O  O10  1  0.12113246  0.38135209  0.99411959  1
  O  O11  1  0.87886754  0.61864791  0.49411959  1
  O  O12  1  0.79246853  0.77582520  0.61185513  1
  O  O13  1  0.20753147  0.22417480  0.11185513  1
  O  O14  1  0.20753147  0.27582520  0.61185513  1
  O  O15  1  0.79246853  0.72417480  0.11185513  1
  O  O16  1  0.68653451  0.45921090  0.00058396  1
  O  O17  1  0.31346549  0.54078910  0.50058396  1
  O  O18  1  0.31346549  0.95921090  0.00058396  1
  O  O19  1  0.68653451  0.04078910  0.50058396  1
  O  O20  1  0.91979586  0.44288561  0.52703586  1
  O  O21  1  0.08020414  0.55711439  0.02703586  1
  O  O22  1  0.08020414  0.94288561  0.52703586  1
  O  O23  1  0.91979586  0.05711439  0.02703586  1
  O  O24  1  0.77218615  0.99986293  0.76142365  1
  O  O25  1  0.22781385  0.00013707  0.26142365  1
  O  O26  1  0.22781385  0.49986293  0.76142365  1
  O  O27  1  0.77218615  0.50013707  0.26142365  1
  O  O28  1  0.61465608  0.63242677  0.88470597  1
  O  O29  1  0.38534392  0.36757323  0.38470597  1
  O  O30  1  0.38534392  0.13242677  0.88470597  1
  O  O31  1  0.61465608  0.86757323  0.38470597  1
  O  O32  1  0.53540670  0.63491128  0.73074963  1
  O  O33  1  0.46459330  0.36508872  0.23074963  1
  O  O34  1  0.46459330  0.13491128  0.73074963  1
  O  O35  1  0.53540670  0.86508872  0.23074963  1
  O  O36  1  0.95374648  0.61437913  0.64778471  1
  O  O37  1  0.04625352  0.38562087  0.14778471  1
  O  O38  1  0.04625352  0.11437913  0.64778471  1
  O  O39  1  0.95374648  0.88562087  0.14778471  1
  O  O40  1  0.81907042  0.20893252  0.87434651  1
  O  O41  1  0.18092958  0.79106748  0.37434651  1
  O  O42  1  0.18092958  0.70893252  0.87434651  1
  O  O43  1  0.81907042  0.29106748  0.37434651  1
  O  O44  1  0.99184448  0.25364643  0.73313471  1
  O  O45  1  0.00815552  0.74635357  0.23313471  1
  O  O46  1  0.00815552  0.75364643  0.73313471  1
  O  O47  1  0.99184448  0.24635357  0.23313471  1
  O  O48  1  0.52658258  0.99744172  0.64401355  1
  O  O49  1  0.47341742  0.00255828  0.14401355  1
  O  O50  1  0.47341742  0.49744172  0.64401355  1
  O  O51  1  0.52658258  0.50255828  0.14401355  1
  O  O52  1  0.00702313  0.99801087  0.89923022  1
  O  O53  1  0.99297687  0.00198913  0.39923022  1
  O  O54  1  0.99297687  0.49801087  0.89923022  1
  O  O55  1  0.00702313  0.50198913  0.39923022  1
  O  O56  1  0.26245931  0.74949365  0.61779913  1
  O  O57  1  0.73754069  0.25050635  0.11779913  1
  O  O58  1  0.73754069  0.24949365  0.61779913  1
  O  O59  1  0.26245931  0.75050635  0.11779913  1
  O  O60  1  0.46831259  0.74940827  0.97814962  1
  O  O61  1  0.53168741  0.25059173  0.47814962  1
  O  O62  1  0.53168741  0.24940827  0.97814962  1
  O  O63  1  0.46831259  0.75059173  0.47814962  1
loop_
_geom_bond_atom_site_label_1
_geom_bond_atom_site_label_2
_geom_bond_distance
_geom_bond_site_symmetry_2
Na0 O23 2.357363 1_556
Na0 O40 2.379710 1_555
Na0 O10 2.398050 1_655
Na0 O62 2.506868 1_555
Na0 O13 2.510807 1_656
Na0 O57 2.742137 1_556
Na0 O62 2.930020 1_655
Na1 O22 2.357363 1_555
Na1 O41 2.379710 1_555
Na1 O11 2.398050 1_455
Na1 O63 2.506868 1_555
Na1 O12 2.510807 1_455
Na1 O56 2.742137 1_555
Na1 O63 2.930020 1_455
Na2 O21 2.357363 1_556
Na2 O42 2.379710 1_555
Na2 O8 2.398050 1_455
Na2 O60 2.506868 1_555
Na2 O15 2.510807 1_456
Na2 O59 2.742137 1_556
Na2 O60 2.930020 1_455
Na3 O20 2.357363 1_555
Na3 O43 2.379710 1_555
Na3 O9 2.398050 1_655
Na3 O61 2.506868 1_555
Na3 O14 2.510807 1_655
Na3 O58 2.742137 1_555
Na3 O61 2.930020 1_655
Na4 O38 2.285263 1_665
Na4 O22 2.323059 1_655
Na4 O24 2.489558 1_555
Na4 O48 2.568191 1_555
Na4 O6 2.709458 1_655
Na4 O12 2.772137 1_555
Na4 O48 2.919296 1_655
Na5 O39 2.285263 1_445
Na5 O23 2.323059 1_455
Na5 O25 2.489558 1_555
Na5 O49 2.568191 1_555
Na5 O7 2.709458 1_455
Na5 O13 2.772137 1_555
Na5 O49 2.919296 1_455
Na6 O36 2.285263 1_455
Na6 O20 2.323059 1_455
Na6 O26 2.489558 1_555
Na6 O50 2.568191 1_555
Na6 O4 2.709458 1_455
Na6 O14 2.772137 1_555
Na6 O50 2.919296 1_455
Na7 O37 2.285263 1_655
Na7 O21 2.323059 1_655
Na7 O27 2.489558 1_555
Na7 O51 2.568191 1_555
Na7 O5 2.709458 1_655
Na7 O15 2.772137 1_555
Na7 O51 2.919296 1_655
Na8 O46 2.317152 1_655
Na8 O52 2.327031 1_655
Na8 O0 2.416408 1_555
Na8 O42 2.499470 1_655
Na8 O6 2.544817 1_655
Na8 O24 2.589924 1_555
Na9 O47 2.317152 1_455
Na9 O53 2.327031 1_455
Na9 O1 2.416408 1_555
Na9 O43 2.499470 1_455
Na9 O7 2.544817 1_455
Na9 O25 2.589924 1_555
Na10 O44 2.317152 1_455
Na10 O54 2.327031 1_455
Na10 O2 2.416408 1_555
Na10 O40 2.499470 1_455
Na10 O4 2.544817 1_455
Na10 O26 2.589924 1_555
Na11 O45 2.317152 1_655
Na11 O55 2.327031 1_655
Na11 O3 2.416408 1_555
Na11 O41 2.499470 1_655
Na11 O5 2.544817 1_655
Na11 O27 2.589924 1_555
Na12 O32 2.285426 1_555
Na12 O0 2.321055 1_555
Na12 O56 2.465355 1_555
Na12 O46 2.590965 1_555
Na12 O6 2.704144 1_555
Na12 O12 2.761241 1_555
Na12 O46 2.883175 1_655
Na13 O33 2.285426 1_555
Na13 O1 2.321055 1_555
Na13 O57 2.465355 1_555
Na13 O47 2.590965 1_555
Na13 O7 2.704144 1_555
Na13 O13 2.761241 1_555
Na13 O47 2.883175 1_455
Na14 O34 2.285426 1_555
Na14 O2 2.321055 1_555
Na14 O58 2.465355 1_555
Na14 O44 2.590965 1_555
Na14 O4 2.704144 1_555
Na14 O14 2.761241 1_555
Na14 O44 2.883175 1_455
Na15 O35 2.285426 1_555
Na15 O3 2.321055 1_555
Na15 O59 2.465355 1_555
Na15 O45 2.590965 1_555
Na15 O5 2.704144 1_555
Na15 O15 2.761241 1_555
Na15 O45 2.883175 1_655
Na16 O0 2.355959 1_555
Na16 O18 2.417154 1_556
Na16 O30 2.427070 1_565
Na16 O52 2.543509 1_655
Na16 O6 2.636319 1_555
Na16 O24 2.701542 1_555
Na16 O52 2.869924 1_555
Na16 O8 2.949277 1_555
Na17 O1 2.355959 1_555
Na17 O19 2.417154 1_555
Na17 O31 2.427070 1_545
Na17 O53 2.543509 1_455
Na17 O7 2.636319 1_555
Na17 O25 2.701542 1_555
Na17 O53 2.869924 1_555
Na17 O9 2.949277 1_555
Na18 O2 2.355959 1_555
Na18 O16 2.417154 1_556
Na18 O28 2.427070 1_555
Na18 O54 2.543509 1_455
Na18 O4 2.636319 1_555
Na18 O26 2.701542 1_555
Na18 O54 2.869924 1_555
Na18 O10 2.949277 1_555
Na19 O3 2.355959 1_555
Na19 O17 2.417154 1_555
Na19 O29 2.427070 1_555
Na19 O55 2.543509 1_655
Na19 O5 2.636319 1_555
Na19 O27 2.701542 1_555
Na19 O55 2.869924 1_555
Na19 O11 2.949277 1_555
Na20 O48 2.333012 1_555
Na20 O63 2.342171 1_555
Na20 O22 2.405173 1_555
Na20 O12 2.497148 1_555
Na20 O19 2.522494 1_565
Na20 O56 2.641359 1_555
Na21 O49 2.333012 1_555
Na21 O62 2.342171 1_554
Na21 O23 2.405173 1_555
Na21 O13 2.497148 1_555
Na21 O18 2.522494 1_545
Na21 O57 2.641359 1_555
Na22 O50 2.333012 1_555
Na22 O61 2.342171 1_555
Na22 O20 2.405173 1_555
Na22 O14 2.497148 1_555
Na22 O17 2.522494 1_555
Na22 O58 2.641359 1_555
Na23 O51 2.333012 1_555
Na23 O60 2.342171 1_554
Na23 O21 2.405173 1_555
Na23 O15 2.497148 1_555
Na23 O16 2.522494 1_555
Na23 O59 2.641359 1_555
O0 P12 1.543497 1_555
O1 P13 1.543497 1_555
O2 P14 1.543497 1_555
O3 P15 1.543497 1_555
O4 P8 1.562981 1_555
O4 Y0 2.418395 1_555
O5 P9 1.562981 1_555
O5 Y1 2.418395 1_555
O6 P10 1.562981 1_565
O6 Y2 2.418395 1_565
O7 P11 1.562981 1_545
O7 Y3 2.418395 1_545
O8 P2 1.562674 1_655
O8 Y7 2.276981 1_556
O9 P3 1.562674 1_455
O9 Y6 2.276981 1_555
O10 P0 1.562674 1_455
O10 Y5 2.276981 1_556
O11 P1 1.562674 1_655
O11 Y4 2.276981 1_555
O12 P6 1.563971 1_655
O12 Y4 2.408740 1_555
O13 P7 1.563971 1_455
O13 Y5 2.408740 1_555
O14 P4 1.563971 1_455
O14 Y6 2.408740 1_555
O15 P5 1.563971 1_655
O15 Y7 2.408740 1_555
O16 P0 1.567317 1_554
O16 Y5 2.310847 1_555
O17 P1 1.567317 1_555
O17 Y4 2.310847 1_555
O18 P2 1.567317 1_554
O18 Y7 2.310847 1_555
O19 P3 1.567317 1_555
O19 Y6 2.310847 1_555
O20 P1 1.543405 1_655
O21 P0 1.543405 1_454
O22 P3 1.543405 1_465
O23 P2 1.543405 1_644
O24 P10 1.555728 1_565
O24 Y2 2.365762 1_665
O25 P11 1.555728 1_545
O25 Y3 2.365762 1_445
O26 P8 1.555728 1_555
O26 Y0 2.365762 1_455
O27 P9 1.555728 1_555
O27 Y1 2.365762 1_655
O28 P12 1.560947 1_555
O28 Y0 2.266645 1_555
O29 P13 1.560947 1_555
O29 Y1 2.266645 1_555
O30 P14 1.560947 1_555
O30 Y2 2.266645 1_555
O31 P15 1.560947 1_555
O31 Y3 2.266645 1_555
O32 P8 1.544821 1_555
O32 Y0 2.528633 1_555
O33 P9 1.544821 1_555
O33 Y1 2.528633 1_555
O34 P10 1.544821 1_555
O34 Y2 2.528633 1_555
O35 P11 1.544821 1_555
O35 Y3 2.528633 1_555
O36 P6 1.542762 1_655
O36 Y4 2.562684 1_555
O36 Y0 2.916701 1_555
O37 P7 1.542762 1_455
O37 Y5 2.562684 1_555
O37 Y1 2.916701 1_555
O38 P4 1.542762 1_455
O38 Y6 2.562684 1_555
O38 Y2 2.916701 1_555
O39 P5 1.542762 1_655
O39 Y7 2.562684 1_555
O39 Y3 2.916701 1_555
O40 P14 1.570656 1_555
O40 Y2 2.317343 1_655
O41 P15 1.570656 1_555
O41 Y3 2.317343 1_455
O42 P12 1.570656 1_555
O42 Y0 2.317343 1_455
O43 P13 1.570656 1_555
O43 Y1 2.317343 1_655
O44 P4 1.558117 1_555
O44 Y2 2.428111 1_655
O45 P5 1.558117 1_555
O45 Y3 2.428111 1_455
O46 P6 1.558117 1_555
O46 Y0 2.428111 1_455
O47 P7 1.558117 1_555
O47 Y1 2.428111 1_655
O48 P10 1.558182 1_565
O48 Y6 2.415824 1_565
O49 P11 1.558182 1_545
O49 Y7 2.415824 1_545
O50 P8 1.558182 1_555
O50 Y4 2.415824 1_555
O51 P9 1.558182 1_555
O51 Y5 2.415824 1_555
O52 P2 1.562053 1_555
O52 Y2 2.394608 1_565
O53 P3 1.562053 1_555
O53 Y3 2.394608 1_545
O54 P0 1.562053 1_555
O54 Y0 2.394608 1_555
O55 P1 1.562053 1_555
O55 Y1 2.394608 1_555
O56 P6 1.552723 1_555
O56 Y4 2.357968 1_555
O57 P7 1.552723 1_555
O57 Y5 2.357968 1_555
O58 P4 1.552723 1_555
O58 Y6 2.357968 1_555
O59 P5 1.552723 1_555
O59 Y7 2.357968 1_555
O60 P12 1.560030 1_555
O60 Y7 2.401960 1_556
O61 P13 1.560030 1_555
O61 Y6 2.401960 1_555
O62 P14 1.560030 1_555
O62 Y5 2.401960 1_556
O63 P15 1.560030 1_555
O63 Y4 2.401960 1_555
