# generated using pymatgen
data_Mn2ZnO4
_symmetry_space_group_name_H-M   'P 1'
_cell_length_a   5.91320100
_cell_length_b   6.19658571
_cell_length_c   14.90796886
_cell_angle_alpha   93.92440199
_cell_angle_beta   89.79919875
_cell_angle_gamma   118.43324043
_symmetry_Int_Tables_number   1
_chemical_formula_structural   Mn2ZnO4
_chemical_formula_sum   'Mn12 Zn6 O24'
_cell_volume   478.96986196
_cell_formula_units_Z   6
loop_
 _symmetry_equiv_pos_site_id
 _symmetry_equiv_pos_as_xyz
  1  'x, y, z'
loop_
 _atom_site_type_symbol
 _atom_site_label
 _atom_site_symmetry_multiplicity
 _atom_site_fract_x
 _atom_site_fract_y
 _atom_site_fract_z
 _atom_site_occupancy
  Mn  Mn0  1  0.66664900  0.33408900  0.16612200  1
  Mn  Mn1  1  0.66646300  0.83341100  0.16698300  1
  Mn  Mn2  1  0.00401400  0.00654300  0.50077200  1
  Mn  Mn3  1  0.16698300  0.83261300  0.16680000  1
  Mn  Mn4  1  0.00525800  0.51085400  0.49954600  1
  Mn  Mn5  1  0.16549400  0.33114500  0.66638100  1
  Mn  Mn6  1  0.16940200  0.34220400  0.28797200  1
  Mn  Mn7  1  0.32979600  0.66066800  0.83113400  1
  Mn  Mn8  1  0.50567200  0.51073100  0.49976200  1
  Mn  Mn9  1  0.32714300  0.15550600  0.83418700  1
  Mn  Mn10  1  0.82778100  0.15534200  0.83395400  1
  Mn  Mn11  1  0.82974600  0.66302600  0.95382800  1
  Zn  Zn0  1  0.16348100  0.32214900  0.04655100  1
  Zn  Zn1  1  0.50552000  0.00639900  0.38072600  1
  Zn  Zn2  1  0.83903600  0.67568900  0.33532300  1
  Zn  Zn3  1  0.82996900  0.65994200  0.70934700  1
  Zn  Zn4  1  0.49516900  0.99231000  0.99952600  1
  Zn  Zn5  1  0.50118900  0.00266000  0.62288000  1
  O  O0  1  0.34342000  0.68909100  0.09195300  1
  O  O1  1  0.50361300  0.98981500  0.24275500  1
  O  O2  1  0.34580000  0.15141200  0.09402100  1
  O  O3  1  0.80356900  0.13721900  0.09577400  1
  O  O4  1  0.68451400  0.36839200  0.42250100  1
  O  O5  1  0.53341400  0.53385900  0.23602400  1
  O  O6  1  0.82786100  0.65599500  0.57485000  1
  O  O7  1  0.98574300  0.51862600  0.23788900  1
  O  O8  1  0.83153900  0.68143200  0.09130900  1
  O  O9  1  0.69035000  0.84002800  0.42543500  1
  O  O10  1  0.15243600  0.84071900  0.42457500  1
  O  O11  1  0.98827200  0.97365700  0.24014200  1
  O  O12  1  0.00986200  0.01947900  0.75697500  1
  O  O13  1  0.86481300  0.17777400  0.58253400  1
  O  O14  1  0.31370300  0.17803100  0.58201200  1
  O  O15  1  0.15513400  0.31145000  0.90964200  1
  O  O16  1  0.17907200  0.35633800  0.42684300  1
  O  O17  1  0.01538400  0.48203300  0.75267600  1
  O  O18  1  0.46639500  0.48402300  0.75160800  1
  O  O19  1  0.32116700  0.64410600  0.57828500  1
  O  O20  1  0.18714900  0.83079900  0.90733200  1
  O  O21  1  0.64474900  0.83348800  0.90577300  1
  O  O22  1  0.50461800  0.00994200  0.75837500  1
  O  O23  1  0.64865200  0.29700500  0.90892100  1
loop_
_geom_bond_atom_site_label_1
_geom_bond_atom_site_label_2
_geom_bond_distance
_geom_bond_site_symmetry_2
Mn0 O7 1.950535 1_555
Mn0 O2 1.959309 1_555
Mn0 O5 1.996354 1_555
Mn0 O3 2.000765 1_555
Mn0 O8 2.269296 1_555
Mn0 O1 2.270034 1_545
Mn1 O8 1.958234 1_555
Mn1 O1 1.968212 1_555
Mn1 O11 1.968728 1_555
Mn1 O0 1.987746 1_555
Mn1 O5 1.997250 1_555
Mn1 O3 2.035296 1_565
Mn2 O9 1.949290 1_445
Mn2 O10 1.951537 1_545
Mn2 O14 1.983889 1_555
Mn2 O13 1.984114 1_455
Mn2 O16 2.273061 1_555
Mn2 O6 2.277874 1_445
Mn3 O11 1.953632 1_455
Mn3 O0 1.965720 1_555
Mn3 O8 2.044617 1_455
Mn3 O1 2.052254 1_555
Mn3 O7 2.084684 1_455
Mn3 O2 2.119891 1_565
Mn4 O6 1.980276 1_455
Mn4 O16 1.983713 1_555
Mn4 O19 1.990756 1_555
Mn4 O4 1.994448 1_455
Mn4 O10 2.190106 1_555
Mn4 O13 2.278224 1_455
Mn5 O13 1.967433 1_455
Mn5 O14 1.967480 1_555
Mn5 O18 1.980808 1_555
Mn5 O17 1.983632 1_555
Mn5 O19 2.230078 1_555
Mn5 O12 2.248686 1_555
Mn6 O7 2.044503 1_455
Mn6 O16 2.065977 1_555
Mn6 O5 2.079242 1_555
Mn6 O11 2.079480 1_445
Mn7 O20 1.946653 1_555
Mn7 O21 1.950798 1_555
Mn7 O18 1.978322 1_555
Mn7 O17 1.981967 1_555
Mn7 O22 2.261046 1_565
Mn7 O15 2.308498 1_555
Mn8 O6 1.984177 1_555
Mn8 O16 1.984857 1_555
Mn8 O19 1.990222 1_555
Mn8 O4 1.990882 1_555
Mn8 O9 2.182455 1_555
Mn8 O14 2.269368 1_555
Mn9 O23 1.979444 1_555
Mn9 O12 1.982873 1_555
Mn9 O22 1.986419 1_555
Mn9 O15 2.003202 1_555
Mn9 O20 2.151897 1_545
Mn9 O18 2.253290 1_555
Mn10 O23 1.970896 1_555
Mn10 O12 1.976683 1_655
Mn10 O22 1.992369 1_555
Mn10 O15 2.009646 1_655
Mn10 O21 2.126969 1_545
Mn10 O17 2.232645 1_655
Mn11 O20 2.005951 1_655
Mn11 O21 2.008743 1_555
Mn11 O8 2.044708 1_556
Mn11 O23 2.055101 1_555
O0 Zn0 2.061768 1_555
O0 Zn4 2.230321 1_554
O1 Zn1 2.052198 1_565
O2 Zn0 1.994096 1_555
O2 Zn4 2.089741 1_544
O3 Zn0 2.040287 1_655
O3 Zn4 2.115038 1_544
O4 Zn1 2.022933 1_555
O4 Zn2 2.196244 1_555
O5 Zn2 2.134949 1_555
O6 Zn3 2.003562 1_555
O7 Zn2 2.100320 1_555
O9 Zn1 1.968173 1_565
O9 Zn2 2.066829 1_555
O10 Zn1 1.970175 1_565
O10 Zn2 2.068060 1_455
O11 Zn2 2.235969 1_555
O12 Zn3 2.032539 1_445
O13 Zn5 2.005237 1_555
O14 Zn5 2.005947 1_555
O15 Zn0 2.037578 1_556
O17 Zn3 2.021911 1_455
O18 Zn3 2.014955 1_555
O19 Zn5 2.015474 1_565
O20 Zn4 2.074010 1_555
O21 Zn4 2.082391 1_555
O22 Zn5 2.017326 1_555
O23 Zn4 2.218491 1_545
