# generated using pymatgen
data_Gd2MgS4
_symmetry_space_group_name_H-M   'P 1'
_cell_length_a   7.94738906
_cell_length_b   7.94739052
_cell_length_c   7.94738834
_cell_angle_alpha   60.00000300
_cell_angle_beta   59.99999694
_cell_angle_gamma   60.00001207
_symmetry_Int_Tables_number   1
_chemical_formula_structural   Gd2MgS4
_chemical_formula_sum   'Gd4 Mg2 S8'
_cell_volume   354.94290955
_cell_formula_units_Z   2
loop_
 _symmetry_equiv_pos_site_id
 _symmetry_equiv_pos_as_xyz
  1  'x, y, z'
loop_
 _atom_site_type_symbol
 _atom_site_label
 _atom_site_symmetry_multiplicity
 _atom_site_fract_x
 _atom_site_fract_y
 _atom_site_fract_z
 _atom_site_occupancy
  Gd  Gd0  1  0.12500000  0.62500000  0.12500000  1
  Gd  Gd1  1  0.12500000  0.12500000  0.62500000  1
  Gd  Gd2  1  0.62500000  0.12500000  0.12500000  1
  Gd  Gd3  1  0.12500000  0.12500000  0.12500000  1
  Mg  Mg0  1  0.50000000  0.50000000  0.50000000  1
  Mg  Mg1  1  0.75000000  0.75000000  0.75000000  1
  S  S0  1  0.87890479  0.87890579  0.87890479  1
  S  S1  1  0.36328563  0.87890579  0.87890479  1
  S  S2  1  0.87890579  0.36328463  0.87890479  1
  S  S3  1  0.87890479  0.87890579  0.36328563  1
  S  S4  1  0.37109521  0.37109421  0.88671437  1
  S  S5  1  0.37109421  0.88671537  0.37109521  1
  S  S6  1  0.88671437  0.37109421  0.37109521  1
  S  S7  1  0.37109521  0.37109421  0.37109521  1
loop_
_geom_bond_atom_site_label_1
_geom_bond_atom_site_label_2
_geom_bond_distance
_geom_bond_site_symmetry_2
Gd0 S0 2.766636 1_454
Gd0 S7 2.766636 1_555
Gd0 S1 2.766641 1_554
Gd0 S6 2.766641 1_455
Gd0 S4 2.766641 1_554
Gd0 S3 2.766641 1_455
Gd1 S7 2.766630 1_555
Gd1 S0 2.766630 1_445
Gd1 S2 2.766630 1_455
Gd1 S5 2.766630 1_545
Gd1 S1 2.766636 1_545
Gd1 S6 2.766636 1_455
Gd2 S7 2.766630 1_555
Gd2 S0 2.766630 1_544
Gd2 S2 2.766636 1_554
Gd2 S5 2.766636 1_545
Gd2 S4 2.766636 1_554
Gd2 S3 2.766636 1_545
Gd3 S4 2.766630 1_554
Gd3 S3 2.766630 1_445
Gd3 S6 2.766630 1_455
Gd3 S1 2.766630 1_544
Gd3 S2 2.766630 1_454
Gd3 S5 2.766630 1_545
Mg0 S4 2.509395 1_555
Mg0 S6 2.509396 1_555
Mg0 S7 2.509402 1_555
Mg0 S5 2.509403 1_555
Mg1 S3 2.509395 1_555
Mg1 S1 2.509396 1_555
Mg1 S0 2.509402 1_555
Mg1 S2 2.509403 1_555
