# generated using pymatgen
data_MnTl3
_symmetry_space_group_name_H-M   'P 1'
_cell_length_a   5.91684062
_cell_length_b   5.91684062
_cell_length_c   5.91684062
_cell_angle_alpha   134.42546042
_cell_angle_beta   134.42546042
_cell_angle_gamma   66.42422703
_symmetry_Int_Tables_number   1
_chemical_formula_structural   MnTl3
_chemical_formula_sum   'Mn1 Tl3'
_cell_volume   103.99004513
_cell_formula_units_Z   1
loop_
 _symmetry_equiv_pos_site_id
 _symmetry_equiv_pos_as_xyz
  1  'x, y, z'
loop_
 _atom_site_type_symbol
 _atom_site_label
 _atom_site_symmetry_multiplicity
 _atom_site_fract_x
 _atom_site_fract_y
 _atom_site_fract_z
 _atom_site_occupancy
  Mn  Mn0  1  0.00000000  0.00000000  0.00000000  1
  Tl  Tl0  1  0.75000000  0.25000000  0.50000000  1
  Tl  Tl1  1  0.25000000  0.75000000  0.50000000  1
  Tl  Tl2  1  0.50000000  0.50000000  0.00000000  1
loop_
_geom_bond_atom_site_label_1
_geom_bond_atom_site_label_2
_geom_bond_distance
_geom_bond_site_symmetry_2
Mn0 Tl2 3.240891 1_444
Mn0 Tl2 3.240891 1_455
Mn0 Tl2 3.240891 1_545
Mn0 Tl2 3.240891 1_556
Mn0 Tl0 3.373143 1_455
Mn0 Tl0 3.373143 1_454
Mn0 Tl1 3.373143 1_544
Mn0 Tl1 3.373143 1_555
Mn0 Tl0 3.373143 1_444
Mn0 Tl1 3.373143 1_545
Mn0 Tl1 3.373143 1_444
Mn0 Tl0 3.373143 1_555
Tl0 Tl1 3.240891 1_544
Tl0 Tl1 3.240891 1_645
Tl0 Tl1 3.240891 1_555
Tl0 Tl1 3.240891 1_656
Tl0 Tl2 3.373143 1_545
Tl0 Tl2 3.373143 1_556
Tl0 Tl2 3.373143 1_555
Tl0 Tl2 3.373143 1_656
Tl1 Tl2 3.373143 1_556
Tl1 Tl2 3.373143 1_566
Tl1 Tl2 3.373143 1_555
Tl1 Tl2 3.373143 1_455
