# generated using pymatgen
data_CeSe2
_symmetry_space_group_name_H-M   'P 1'
_cell_length_a   8.72743521
_cell_length_b   19.29961748
_cell_length_c   19.16624197
_cell_angle_alpha   90.00000000
_cell_angle_beta   90.00000000
_cell_angle_gamma   90.00000000
_symmetry_Int_Tables_number   1
_chemical_formula_structural   CeSe2
_chemical_formula_sum   'Ce16 Se32'
_cell_volume   3228.28822080
_cell_formula_units_Z   16
loop_
 _symmetry_equiv_pos_site_id
 _symmetry_equiv_pos_as_xyz
  1  'x, y, z'
loop_
 _atom_site_type_symbol
 _atom_site_label
 _atom_site_symmetry_multiplicity
 _atom_site_fract_x
 _atom_site_fract_y
 _atom_site_fract_z
 _atom_site_occupancy
  Ce  Ce0  1  0.02898556  0.29921309  0.59786156  1
  Ce  Ce1  1  0.02898556  0.70078691  0.40213844  1
  Ce  Ce2  1  0.97101444  0.79921309  0.90213844  1
  Ce  Ce3  1  0.97101444  0.20078691  0.09786156  1
  Ce  Ce4  1  0.26004696  0.84522639  0.57663538  1
  Ce  Ce5  1  0.26004696  0.15477361  0.42336462  1
  Ce  Ce6  1  0.73995304  0.34522639  0.92336462  1
  Ce  Ce7  1  0.73995304  0.65477361  0.07663538  1
  Ce  Ce8  1  0.52799173  0.59729922  0.29947796  1
  Ce  Ce9  1  0.52799173  0.40270078  0.70052204  1
  Ce  Ce10  1  0.47200827  0.09729922  0.20052204  1
  Ce  Ce11  1  0.47200827  0.90270078  0.79947796  1
  Ce  Ce12  1  0.23634064  0.07634358  0.65530469  1
  Ce  Ce13  1  0.23634064  0.92365642  0.34469531  1
  Ce  Ce14  1  0.76365936  0.57634358  0.84469531  1
  Ce  Ce15  1  0.76365936  0.42365642  0.15530469  1
  Se  Se0  1  0.74893959  0.36098322  0.60999188  1
  Se  Se1  1  0.74893959  0.63901678  0.39000812  1
  Se  Se2  1  0.25106041  0.86098322  0.89000812  1
  Se  Se3  1  0.25106041  0.13901678  0.10999188  1
  Se  Se4  1  0.24816042  0.60894580  0.36167992  1
  Se  Se5  1  0.24816042  0.39105420  0.63832008  1
  Se  Se6  1  0.75183958  0.10894580  0.13832008  1
  Se  Se7  1  0.75183958  0.89105420  0.86167992  1
  Se  Se8  1  0.54305435  0.67917898  0.18370932  1
  Se  Se9  1  0.54305435  0.32082102  0.81629068  1
  Se  Se10  1  0.45694565  0.17917898  0.31629068  1
  Se  Se11  1  0.45694565  0.82082102  0.68370932  1
  Se  Se12  1  0.04075680  0.18377987  0.67931990  1
  Se  Se13  1  0.04075680  0.81622013  0.32068010  1
  Se  Se14  1  0.95924320  0.68377987  0.82068010  1
  Se  Se15  1  0.95924320  0.31622013  0.17931990  1
  Se  Se16  1  0.91890315  0.76404444  0.03765891  1
  Se  Se17  1  0.91890315  0.23595556  0.96234109  1
  Se  Se18  1  0.08109685  0.26404444  0.46234109  1
  Se  Se19  1  0.08109685  0.73595556  0.53765891  1
  Se  Se20  1  0.41830047  0.03710067  0.76391710  1
  Se  Se21  1  0.41830047  0.96289933  0.23608290  1
  Se  Se22  1  0.58169953  0.53710067  0.73608290  1
  Se  Se23  1  0.58169953  0.46289933  0.26391710  1
  Se  Se24  1  0.90902652  0.54397150  0.12025535  1
  Se  Se25  1  0.90902652  0.45602850  0.87974465  1
  Se  Se26  1  0.09097348  0.04397150  0.37974465  1
  Se  Se27  1  0.09097348  0.95602850  0.62025535  1
  Se  Se28  1  0.40574185  0.12006678  0.54432906  1
  Se  Se29  1  0.40574185  0.87993322  0.45567094  1
  Se  Se30  1  0.59425815  0.62006678  0.95567094  1
  Se  Se31  1  0.59425815  0.37993322  0.04432906  1
loop_
_geom_bond_atom_site_label_1
_geom_bond_atom_site_label_2
_geom_bond_distance
_geom_bond_site_symmetry_2
Ce0 Se5 2.720660 1_555
Ce0 Se12 2.722357 1_555
Ce0 Se18 2.722887 1_555
Ce0 Se0 2.729248 1_455
Ce1 Se4 2.720660 1_555
Ce1 Se13 2.722357 1_555
Ce1 Se19 2.722887 1_555
Ce1 Se1 2.729248 1_455
Ce2 Se7 2.720660 1_555
Ce2 Se14 2.722357 1_555
Ce2 Se16 2.722887 1_556
Ce2 Se2 2.729248 1_655
Ce3 Se6 2.720660 1_555
Ce3 Se15 2.722357 1_555
Ce3 Se17 2.722887 1_554
Ce3 Se3 2.729248 1_655
Ce4 Se11 2.717788 1_555
Ce4 Se29 2.727751 1_555
Ce4 Se19 2.728479 1_555
Ce4 Se27 2.729322 1_555
Ce5 Se10 2.717788 1_555
Ce5 Se28 2.727751 1_555
Ce5 Se18 2.728479 1_555
Ce5 Se26 2.729322 1_555
Ce6 Se9 2.717788 1_555
Ce6 Se31 2.727751 1_556
Ce6 Se17 2.728479 1_555
Ce6 Se25 2.729322 1_555
Ce7 Se8 2.717788 1_555
Ce7 Se30 2.727751 1_554
Ce7 Se16 2.728479 1_555
Ce7 Se24 2.729322 1_555
Ce8 Se1 2.716112 1_555
Ce8 Se23 2.722570 1_555
Ce8 Se4 2.726940 1_555
Ce8 Se8 2.727226 1_555
Ce9 Se0 2.716112 1_555
Ce9 Se22 2.722570 1_555
Ce9 Se5 2.726940 1_555
Ce9 Se9 2.727226 1_555
Ce10 Se3 2.716112 1_555
Ce10 Se21 2.722570 1_545
Ce10 Se6 2.726940 1_555
Ce10 Se10 2.727226 1_555
Ce11 Se2 2.716112 1_555
Ce11 Se20 2.722570 1_565
Ce11 Se7 2.726940 1_555
Ce11 Se11 2.727226 1_555
Ce12 Se28 2.724319 1_555
Ce12 Se12 2.724856 1_555
Ce12 Se20 2.725607 1_555
Ce12 Se27 2.729958 1_545
Ce13 Se29 2.724319 1_555
Ce13 Se13 2.724856 1_555
Ce13 Se21 2.725607 1_555
Ce13 Se26 2.729958 1_565
Ce14 Se30 2.724319 1_555
Ce14 Se14 2.724856 1_555
Ce14 Se22 2.725607 1_555
Ce14 Se25 2.729958 1_555
Ce15 Se31 2.724319 1_555
Ce15 Se15 2.724856 1_555
Ce15 Se23 2.725607 1_555
Ce15 Se24 2.729958 1_555
