# generated using pymatgen
data_NaMg30CO32
_symmetry_space_group_name_H-M   'P 1'
_cell_length_a   8.52651100
_cell_length_b   8.52651100
_cell_length_c   8.45826200
_cell_angle_alpha   90.00000000
_cell_angle_beta   90.00000000
_cell_angle_gamma   90.00000000
_symmetry_Int_Tables_number   1
_chemical_formula_structural   NaMg30CO32
_chemical_formula_sum   'Na1 Mg30 C1 O32'
_cell_volume   614.92740297
_cell_formula_units_Z   1
loop_
 _symmetry_equiv_pos_site_id
 _symmetry_equiv_pos_as_xyz
  1  'x, y, z'
loop_
 _atom_site_type_symbol
 _atom_site_label
 _atom_site_symmetry_multiplicity
 _atom_site_fract_x
 _atom_site_fract_y
 _atom_site_fract_z
 _atom_site_occupancy
  Na  Na0  1  0.00000000  0.00000000  0.00000000  1
  Mg  Mg0  1  0.50000000  0.00000000  0.00000000  1
  Mg  Mg1  1  0.50000000  0.00000000  0.50000000  1
  Mg  Mg2  1  0.00000000  0.50000000  0.00000000  1
  Mg  Mg3  1  0.00000000  0.50000000  0.50000000  1
  Mg  Mg4  1  0.50000000  0.50000000  0.00000000  1
  Mg  Mg5  1  0.50000000  0.50000000  0.50000000  1
  Mg  Mg6  1  0.25105100  0.00000000  0.25050500  1
  Mg  Mg7  1  0.25105100  0.00000000  0.74949500  1
  Mg  Mg8  1  0.74894900  0.00000000  0.25050500  1
  Mg  Mg9  1  0.74894900  0.00000000  0.74949500  1
  Mg  Mg10  1  0.24997000  0.50000000  0.24946800  1
  Mg  Mg11  1  0.24997000  0.50000000  0.75053200  1
  Mg  Mg12  1  0.75003000  0.50000000  0.24946800  1
  Mg  Mg13  1  0.75003000  0.50000000  0.75053200  1
  Mg  Mg14  1  0.00000000  0.25105100  0.25050500  1
  Mg  Mg15  1  0.00000000  0.25105100  0.74949500  1
  Mg  Mg16  1  0.50000000  0.24997000  0.24946800  1
  Mg  Mg17  1  0.50000000  0.24997000  0.75053200  1
  Mg  Mg18  1  0.00000000  0.74894900  0.25050500  1
  Mg  Mg19  1  0.00000000  0.74894900  0.74949500  1
  Mg  Mg20  1  0.50000000  0.75003000  0.24946800  1
  Mg  Mg21  1  0.50000000  0.75003000  0.75053200  1
  Mg  Mg22  1  0.24867600  0.24867600  0.00000000  1
  Mg  Mg23  1  0.24782600  0.24782600  0.50000000  1
  Mg  Mg24  1  0.75132400  0.24867600  0.00000000  1
  Mg  Mg25  1  0.75217400  0.24782600  0.50000000  1
  Mg  Mg26  1  0.24867600  0.75132400  0.00000000  1
  Mg  Mg27  1  0.24782600  0.75217400  0.50000000  1
  Mg  Mg28  1  0.75132400  0.75132400  0.00000000  1
  Mg  Mg29  1  0.75217400  0.75217400  0.50000000  1
  C  C0  1  0.00000000  0.00000000  0.50000000  1
  O  O0  1  0.00000000  0.26016000  0.00000000  1
  O  O1  1  0.00000000  0.24543400  0.50000000  1
  O  O2  1  0.50000000  0.25155700  0.00000000  1
  O  O3  1  0.50000000  0.24851100  0.50000000  1
  O  O4  1  0.00000000  0.73984000  0.00000000  1
  O  O5  1  0.00000000  0.75456600  0.50000000  1
  O  O6  1  0.50000000  0.74844300  0.00000000  1
  O  O7  1  0.50000000  0.75148900  0.50000000  1
  O  O8  1  0.24879100  0.24879100  0.25076300  1
  O  O9  1  0.24879100  0.24879100  0.74923700  1
  O  O10  1  0.75120900  0.24879100  0.25076300  1
  O  O11  1  0.75120900  0.24879100  0.74923700  1
  O  O12  1  0.24879100  0.75120900  0.25076300  1
  O  O13  1  0.24879100  0.75120900  0.74923700  1
  O  O14  1  0.75120900  0.75120900  0.25076300  1
  O  O15  1  0.75120900  0.75120900  0.74923700  1
  O  O16  1  0.00000000  0.00000000  0.28702900  1
  O  O17  1  0.00000000  0.00000000  0.71297100  1
  O  O18  1  0.50000000  0.00000000  0.25416400  1
  O  O19  1  0.50000000  0.00000000  0.74583600  1
  O  O20  1  0.00000000  0.50000000  0.25416400  1
  O  O21  1  0.00000000  0.50000000  0.74583600  1
  O  O22  1  0.50000000  0.50000000  0.25145400  1
  O  O23  1  0.50000000  0.50000000  0.74854600  1
  O  O24  1  0.26016000  0.00000000  0.00000000  1
  O  O25  1  0.24543400  0.00000000  0.50000000  1
  O  O26  1  0.73984000  0.00000000  0.00000000  1
  O  O27  1  0.75456600  0.00000000  0.50000000  1
  O  O28  1  0.25155700  0.50000000  0.00000000  1
  O  O29  1  0.24851100  0.50000000  0.50000000  1
  O  O30  1  0.74844300  0.50000000  0.00000000  1
  O  O31  1  0.75148900  0.50000000  0.50000000  1
loop_
_geom_bond_atom_site_label_1
_geom_bond_atom_site_label_2
_geom_bond_distance
_geom_bond_site_symmetry_2
Na0 O26 2.218257 1_455
Na0 O4 2.218257 1_545
Na0 O0 2.218257 1_555
Na0 O24 2.218257 1_555
Na0 O16 2.427766 1_555
Na0 O17 2.427766 1_554
Mg0 O24 2.044998 1_555
Mg0 O26 2.044998 1_555
Mg0 O2 2.144904 1_555
Mg0 O6 2.144904 1_545
Mg0 O18 2.149786 1_555
Mg0 O19 2.149786 1_554
Mg1 O19 2.079345 1_555
Mg1 O18 2.079345 1_555
Mg1 O3 2.118932 1_555
Mg1 O7 2.118932 1_545
Mg1 O27 2.170560 1_555
Mg1 O25 2.170560 1_555
Mg2 O0 2.044998 1_555
Mg2 O4 2.044998 1_555
Mg2 O28 2.144904 1_555
Mg2 O30 2.144904 1_455
Mg2 O20 2.149786 1_555
Mg2 O21 2.149786 1_554
Mg3 O21 2.079345 1_555
Mg3 O20 2.079345 1_555
Mg3 O29 2.118932 1_555
Mg3 O31 2.118932 1_455
Mg3 O5 2.170560 1_555
Mg3 O1 2.170560 1_555
Mg4 O6 2.118352 1_555
Mg4 O30 2.118352 1_555
Mg4 O2 2.118352 1_555
Mg4 O28 2.118352 1_555
Mg4 O22 2.126864 1_555
Mg4 O23 2.126864 1_554
Mg5 O23 2.102267 1_555
Mg5 O22 2.102267 1_555
Mg5 O7 2.144324 1_555
Mg5 O31 2.144324 1_555
Mg5 O29 2.144324 1_555
Mg5 O3 2.144324 1_555
Mg6 O25 2.110837 1_555
Mg6 O24 2.120260 1_555
Mg6 O8 2.121408 1_555
Mg6 O12 2.121408 1_545
Mg6 O18 2.122892 1_555
Mg6 O16 2.162767 1_555
Mg7 O25 2.110837 1_555
Mg7 O24 2.120260 1_556
Mg7 O9 2.121408 1_555
Mg7 O13 2.121408 1_545
Mg7 O19 2.122892 1_555
Mg7 O17 2.162767 1_555
Mg8 O27 2.110837 1_555
Mg8 O26 2.120260 1_555
Mg8 O10 2.121408 1_555
Mg8 O14 2.121408 1_545
Mg8 O18 2.122892 1_555
Mg8 O16 2.162767 1_655
Mg9 O27 2.110837 1_555
Mg9 O26 2.120260 1_556
Mg9 O11 2.121408 1_555
Mg9 O15 2.121408 1_545
Mg9 O19 2.122892 1_555
Mg9 O17 2.162767 1_655
Mg10 O28 2.110109 1_555
Mg10 O29 2.119102 1_555
Mg10 O20 2.131742 1_555
Mg10 O22 2.131950 1_555
Mg10 O12 2.141988 1_555
Mg10 O8 2.141988 1_555
Mg11 O28 2.110109 1_556
Mg11 O29 2.119102 1_555
Mg11 O21 2.131742 1_555
Mg11 O23 2.131950 1_555
Mg11 O13 2.141988 1_555
Mg11 O9 2.141988 1_555
Mg12 O30 2.110109 1_555
Mg12 O31 2.119102 1_555
Mg12 O20 2.131742 1_655
Mg12 O22 2.131950 1_555
Mg12 O14 2.141988 1_555
Mg12 O10 2.141988 1_555
Mg13 O30 2.110109 1_556
Mg13 O31 2.119102 1_555
Mg13 O21 2.131742 1_655
Mg13 O23 2.131950 1_555
Mg13 O15 2.141988 1_555
Mg13 O11 2.141988 1_555
Mg14 O1 2.110837 1_555
Mg14 O0 2.120260 1_555
Mg14 O8 2.121408 1_555
Mg14 O10 2.121408 1_455
Mg14 O20 2.122892 1_555
Mg14 O16 2.162767 1_555
Mg15 O1 2.110837 1_555
Mg15 O0 2.120260 1_556
Mg15 O9 2.121408 1_555
Mg15 O11 2.121408 1_455
Mg15 O21 2.122892 1_555
Mg15 O17 2.162767 1_555
Mg16 O2 2.110109 1_555
Mg16 O3 2.119102 1_555
Mg16 O18 2.131742 1_555
Mg16 O22 2.131950 1_555
Mg16 O10 2.141988 1_555
Mg16 O8 2.141988 1_555
Mg17 O2 2.110109 1_556
Mg17 O3 2.119102 1_555
Mg17 O19 2.131742 1_555
Mg17 O23 2.131950 1_555
Mg17 O11 2.141988 1_555
Mg17 O9 2.141988 1_555
Mg18 O5 2.110837 1_555
Mg18 O4 2.120260 1_555
Mg18 O12 2.121408 1_555
Mg18 O14 2.121408 1_455
Mg18 O20 2.122892 1_555
Mg18 O16 2.162767 1_565
Mg19 O5 2.110837 1_555
Mg19 O4 2.120260 1_556
Mg19 O13 2.121408 1_555
Mg19 O15 2.121408 1_455
Mg19 O21 2.122892 1_555
Mg19 O17 2.162767 1_565
Mg20 O6 2.110109 1_555
Mg20 O7 2.119102 1_555
Mg20 O18 2.131742 1_565
Mg20 O22 2.131950 1_555
Mg20 O14 2.141988 1_555
Mg20 O12 2.141988 1_555
Mg21 O6 2.110109 1_556
Mg21 O7 2.119102 1_555
Mg21 O19 2.131742 1_565
Mg21 O23 2.131950 1_555
Mg21 O15 2.141988 1_555
Mg21 O13 2.141988 1_555
Mg22 O8 2.121020 1_555
Mg22 O9 2.121020 1_554
Mg22 O0 2.122598 1_555
Mg22 O24 2.122598 1_555
Mg22 O2 2.143058 1_555
Mg22 O28 2.143058 1_555
Mg23 O9 2.108144 1_555
Mg23 O8 2.108144 1_555
Mg23 O1 2.113190 1_555
Mg23 O25 2.113190 1_555
Mg23 O29 2.150172 1_555
Mg23 O3 2.150172 1_555
Mg24 O10 2.121020 1_555
Mg24 O11 2.121020 1_554
Mg24 O26 2.122598 1_555
Mg24 O0 2.122598 1_655
Mg24 O2 2.143058 1_555
Mg24 O30 2.143058 1_555
Mg25 O11 2.108144 1_555
Mg25 O10 2.108144 1_555
Mg25 O27 2.113190 1_555
Mg25 O1 2.113190 1_655
Mg25 O31 2.150172 1_555
Mg25 O3 2.150172 1_555
Mg26 O12 2.121020 1_555
Mg26 O13 2.121020 1_554
Mg26 O4 2.122598 1_555
Mg26 O24 2.122598 1_565
Mg26 O28 2.143058 1_555
Mg26 O6 2.143058 1_555
Mg27 O13 2.108144 1_555
Mg27 O12 2.108144 1_555
Mg27 O5 2.113190 1_555
Mg27 O25 2.113190 1_565
Mg27 O7 2.150172 1_555
Mg27 O29 2.150172 1_555
Mg28 O14 2.121020 1_555
Mg28 O15 2.121020 1_554
Mg28 O4 2.122598 1_655
Mg28 O26 2.122598 1_565
Mg28 O6 2.143058 1_555
Mg28 O30 2.143058 1_555
Mg29 O15 2.108144 1_555
Mg29 O14 2.108144 1_555
Mg29 O27 2.113190 1_565
Mg29 O5 2.113190 1_655
Mg29 O7 2.150172 1_555
Mg29 O31 2.150172 1_555
C0 O17 1.801365 1_555
C0 O16 1.801365 1_555
C0 O25 2.092696 1_555
C0 O1 2.092696 1_555
C0 O5 2.092696 1_545
C0 O27 2.092696 1_455
