# generated using pymatgen
data_V6H2Pb4Se3O26
_symmetry_space_group_name_H-M   'P 1'
_cell_length_a   7.23889900
_cell_length_b   7.39455774
_cell_length_c   21.97576794
_cell_angle_alpha   89.59607567
_cell_angle_beta   97.83481999
_cell_angle_gamma   94.36350478
_symmetry_Int_Tables_number   1
_chemical_formula_structural   V6H2Pb4Se3O26
_chemical_formula_sum   'V12 H4 Pb8 Se6 O52'
_cell_volume   1161.96369344
_cell_formula_units_Z   2
loop_
 _symmetry_equiv_pos_site_id
 _symmetry_equiv_pos_as_xyz
  1  'x, y, z'
loop_
 _atom_site_type_symbol
 _atom_site_label
 _atom_site_symmetry_multiplicity
 _atom_site_fract_x
 _atom_site_fract_y
 _atom_site_fract_z
 _atom_site_occupancy
  V  V0  1  0.92141000  0.70165600  0.30461700  1
  V  V1  1  0.07859000  0.29834400  0.69538300  1
  V  V2  1  0.12966800  0.69751000  0.18991100  1
  V  V3  1  0.87033200  0.30249000  0.81008900  1
  V  V4  1  0.87781500  0.32276900  0.39093100  1
  V  V5  1  0.12218500  0.67723100  0.60906900  1
  V  V6  1  0.95922700  0.32821100  0.10557800  1
  V  V7  1  0.04077300  0.67178900  0.89442200  1
  V  V8  1  0.42310200  0.63712500  0.30954100  1
  V  V9  1  0.57689800  0.36287500  0.69045900  1
  V  V10  1  0.61966100  0.64039700  0.18750100  1
  V  V11  1  0.38033900  0.35960300  0.81249900  1
  H  H0  1  0.63701200  0.18637900  0.26071000  1
  H  H1  1  0.36298800  0.81362100  0.73929000  1
  H  H2  1  0.41884500  0.13265900  0.24994100  1
  H  H3  1  0.58115500  0.86734100  0.75005900  1
  Pb  Pb0  1  0.46366100  0.11716700  0.11866200  1
  Pb  Pb1  1  0.53633900  0.88283300  0.88133800  1
  Pb  Pb2  1  0.35928000  0.11461200  0.38918800  1
  Pb  Pb3  1  0.64072000  0.88538800  0.61081200  1
  Pb  Pb4  1  0.16154900  0.16562700  0.95204200  1
  Pb  Pb5  1  0.83845100  0.83437300  0.04795800  1
  Pb  Pb6  1  0.80308800  0.82399800  0.44674000  1
  Pb  Pb7  1  0.19691200  0.17600200  0.55326000  1
  Se  Se0  1  0.67114500  0.31562700  0.97543800  1
  Se  Se1  1  0.32885500  0.68437300  0.02456200  1
  Se  Se2  1  0.30289000  0.67289900  0.47575000  1
  Se  Se3  1  0.69711000  0.32710100  0.52425000  1
  Se  Se4  1  0.00203300  0.18212100  0.24887500  1
  Se  Se5  1  0.99796700  0.81787900  0.75112500  1
  O  O0  1  0.48244100  0.79913900  0.36550600  1
  O  O1  1  0.51755900  0.20086100  0.63449400  1
  O  O2  1  0.80776000  0.13888900  0.11070300  1
  O  O3  1  0.19224000  0.86111100  0.88929700  1
  O  O4  1  0.47686600  0.24882600  0.01039600  1
  O  O5  1  0.52313400  0.75117400  0.98960400  1
  O  O6  1  0.58960700  0.79694800  0.12913100  1
  O  O7  1  0.41039300  0.20305200  0.87086900  1
  O  O8  1  0.78002700  0.11769600  0.97180300  1
  O  O9  1  0.21997300  0.88230400  0.02819700  1
  O  O10  1  0.52907400  0.74525600  0.50681500  1
  O  O11  1  0.47092600  0.25474400  0.49318500  1
  O  O12  1  0.21387500  0.56084900  0.53915100  1
  O  O13  1  0.78612500  0.43915100  0.46084900  1
  O  O14  1  0.17243900  0.91148500  0.17092100  1
  O  O15  1  0.82756100  0.08851500  0.82907900  1
  O  O16  1  0.13414500  0.25124300  0.07277800  1
  O  O17  1  0.86585500  0.74875700  0.92722200  1
  O  O18  1  0.70484400  0.15307900  0.38652900  1
  O  O19  1  0.29515600  0.84692100  0.61347100  1
  O  O20  1  0.62613500  0.43814900  0.15552600  1
  O  O21  1  0.37386500  0.56185100  0.84447400  1
  O  O22  1  0.92820900  0.91366300  0.32826900  1
  O  O23  1  0.07179100  0.08633700  0.67173100  1
  O  O24  1  0.07102200  0.23900200  0.42828100  1
  O  O25  1  0.92897800  0.76099800  0.57171900  1
  O  O26  1  0.18984400  0.87068500  0.47028400  1
  O  O27  1  0.81015600  0.12931500  0.52971600  1
  O  O28  1  0.88350600  0.70541800  0.21362300  1
  O  O29  1  0.11649400  0.29458200  0.78637700  1
  O  O30  1  0.65981000  0.64124200  0.27980300  1
  O  O31  1  0.34019000  0.35875800  0.72019700  1
  O  O32  1  0.91604500  0.32315800  0.30222100  1
  O  O33  1  0.08395500  0.67684200  0.69777900  1
  O  O34  1  0.04795500  0.35085600  0.19373200  1
  O  O35  1  0.95204500  0.64914400  0.80626800  1
  O  O36  1  0.81289000  0.43689200  0.03745400  1
  O  O37  1  0.18711000  0.56310800  0.96254600  1
  O  O38  1  0.22272900  0.15497100  0.28132900  1
  O  O39  1  0.77727100  0.84502900  0.71867100  1
  O  O40  1  0.92193000  0.58583100  0.37600900  1
  O  O41  1  0.07807000  0.41416900  0.62399100  1
  O  O42  1  0.04582200  0.59734600  0.11767300  1
  O  O43  1  0.95417800  0.40265400  0.88232700  1
  O  O44  1  0.16491300  0.68256100  0.28508000  1
  O  O45  1  0.83508700  0.31743900  0.71492000  1
  O  O46  1  0.37505600  0.62614500  0.21238400  1
  O  O47  1  0.62494400  0.37385500  0.78761600  1
  O  O48  1  0.41888800  0.44128800  0.34649500  1
  O  O49  1  0.58111200  0.55871200  0.65350500  1
  O  O50  1  0.54050000  0.10574500  0.23665700  1
  O  O51  1  0.45950000  0.89425500  0.76334300  1
loop_
_geom_bond_atom_site_label_1
_geom_bond_atom_site_label_2
_geom_bond_distance
_geom_bond_site_symmetry_2
H0 O50 0.981525 1_555
H1 O51 0.981525 1_555
H2 O50 0.998974 1_555
H2 O38 1.680084 1_555
H3 O51 0.998974 1_555
H3 O39 1.680084 1_555
O0 V8 1.711957 1_555
O0 Pb2 2.639637 1_565
O0 Pb6 2.723657 1_555
O1 V9 1.711957 1_555
O1 Pb3 2.639637 1_545
O1 Pb7 2.723657 1_555
O2 V6 1.724132 1_555
O2 Pb0 2.513656 1_555
O2 Pb5 2.687841 1_545
O3 V7 1.724132 1_555
O3 Pb1 2.513656 1_555
O3 Pb4 2.687841 1_565
O4 Se0 1.730763 1_554
O4 Pb4 2.496481 1_554
O4 Pb0 2.575436 1_555
O5 Se1 1.730763 1_556
O5 Pb5 2.496481 1_556
O5 Pb1 2.575436 1_555
O6 V10 1.724563 1_555
O6 Pb0 2.598967 1_565
O6 Pb5 2.701259 1_555
O7 V11 1.724563 1_555
O7 Pb1 2.598967 1_545
O7 Pb4 2.701259 1_555
O8 Se0 1.721666 1_555
O8 Pb5 2.694686 1_546
O8 Pb4 2.849141 1_655
O9 Se1 1.721666 1_555
O9 Pb4 2.694686 1_564
O9 Pb5 2.849141 1_455
O10 Se2 1.732124 1_555
O10 Pb3 2.520400 1_555
O10 Pb6 2.558088 1_555
O11 Se3 1.732124 1_555
O11 Pb2 2.520400 1_555
O11 Pb7 2.558088 1_555
O12 Se2 1.786119 1_555
O12 V5 1.981314 1_555
O12 Pb7 2.855592 1_555
O13 Se3 1.786119 1_555
O13 V4 1.981314 1_555
O13 Pb6 2.855592 1_555
O14 V2 1.650729 1_555
O15 V3 1.650729 1_555
O16 V6 1.676622 1_455
O16 Pb0 2.716526 1_555
O16 Pb4 2.768804 1_554
O17 V7 1.676622 1_655
O17 Pb1 2.716526 1_555
O17 Pb5 2.768804 1_556
O18 V4 1.697425 1_555
O18 Pb2 2.504633 1_555
O18 Pb6 2.852972 1_545
O19 V5 1.697425 1_555
O19 Pb3 2.504633 1_555
O19 Pb7 2.852972 1_565
O20 V10 1.663440 1_555
O20 Pb0 2.648722 1_555
O21 V11 1.663440 1_555
O21 Pb1 2.648722 1_555
O22 V0 1.650162 1_555
O22 Pb6 2.926656 1_555
O23 V1 1.650162 1_555
O23 Pb7 2.926656 1_555
O24 V4 1.680823 1_455
O24 Pb2 2.594270 1_555
O24 Pb7 2.820460 1_555
O25 V5 1.680823 1_655
O25 Pb3 2.594270 1_555
O25 Pb6 2.820460 1_555
O26 Se2 1.725096 1_555
O26 Pb6 2.772301 1_455
O26 Pb7 2.905133 1_565
O27 Se3 1.725096 1_555
O27 Pb7 2.772301 1_655
O27 Pb6 2.905133 1_545
O28 V2 1.928655 1_655
O28 V10 1.942637 1_555
O28 V0 1.981288 1_555
O29 V3 1.928655 1_455
O29 V11 1.942637 1_555
O29 V1 1.981288 1_555
O30 V8 1.913423 1_555
O30 V0 1.917338 1_555
O30 V10 2.009508 1_555
O31 V9 1.913423 1_555
O31 V1 1.917338 1_555
O31 V11 2.009508 1_555
O32 Se4 1.778878 1_655
O32 V4 2.005970 1_555
O33 Se5 1.778878 1_455
O33 V5 2.005970 1_555
O34 Se4 1.777973 1_555
O34 V6 1.960229 1_455
O35 Se5 1.777973 1_555
O35 V7 1.960229 1_655
O36 Se0 1.791714 1_554
O36 V6 1.920796 1_555
O37 Se1 1.791714 1_556
O37 V7 1.920796 1_555
O38 Se4 1.684464 1_555
O38 Pb2 2.465875 1_555
O39 Se5 1.684464 1_555
O39 Pb3 2.465875 1_555
O40 V0 1.781832 1_555
O40 V4 1.979508 1_555
O40 Pb6 2.625162 1_555
O41 V1 1.781832 1_555
O41 V5 1.979508 1_555
O41 Pb7 2.625162 1_555
O42 V2 1.767080 1_555
O42 V6 2.048518 1_455
O42 Pb5 2.721773 1_455
O43 V3 1.767080 1_555
O43 V7 2.048518 1_655
O43 Pb4 2.721773 1_655
O44 V0 1.885846 1_455
O44 V8 1.927203 1_555
O44 V2 2.075301 1_555
O45 V1 1.885846 1_655
O45 V9 1.927203 1_555
O45 V3 2.075301 1_555
O46 V2 1.891442 1_555
O46 V10 1.918376 1_555
O46 V8 2.117050 1_555
O47 V3 1.891442 1_555
O47 V11 1.918376 1_555
O47 V9 2.117050 1_555
O48 V8 1.655582 1_555
O48 Pb2 2.611796 1_555
O49 V9 1.655582 1_555
O49 Pb3 2.611796 1_555
O50 Pb0 2.578986 1_555
O51 Pb1 2.578986 1_555
