# generated using pymatgen
data_YHfMg14
_symmetry_space_group_name_H-M   'P 1'
_cell_length_a   6.50476001
_cell_length_b   6.42611090
_cell_length_c   10.33841144
_cell_angle_alpha   90.00000000
_cell_angle_beta   90.00000000
_cell_angle_gamma   119.60083784
_symmetry_Int_Tables_number   1
_chemical_formula_structural   YHfMg14
_chemical_formula_sum   'Y1 Hf1 Mg14'
_cell_volume   375.74806444
_cell_formula_units_Z   1
loop_
 _symmetry_equiv_pos_site_id
 _symmetry_equiv_pos_as_xyz
  1  'x, y, z'
loop_
 _atom_site_type_symbol
 _atom_site_label
 _atom_site_symmetry_multiplicity
 _atom_site_fract_x
 _atom_site_fract_y
 _atom_site_fract_z
 _atom_site_occupancy
  Y  Y0  1  0.16792562  0.33396231  0.12500000  1
  Hf  Hf0  1  0.17116420  0.83558160  0.12500000  1
  Mg  Mg0  1  0.16630679  0.33315289  0.62500000  1
  Mg  Mg1  1  0.16580161  0.83290030  0.62500000  1
  Mg  Mg2  1  0.66491303  0.33198188  0.12500000  1
  Mg  Mg3  1  0.66671800  0.33374177  0.62500000  1
  Mg  Mg4  1  0.66491303  0.83293015  0.12500000  1
  Mg  Mg5  1  0.66671800  0.83297523  0.62500000  1
  Mg  Mg6  1  0.33340828  0.16329081  0.37716259  1
  Mg  Mg7  1  0.33340828  0.16329081  0.87283741  1
  Mg  Mg8  1  0.33340828  0.67011847  0.37716259  1
  Mg  Mg9  1  0.33340828  0.67011847  0.87283741  1
  Mg  Mg10  1  0.83071907  0.16536003  0.37773087  1
  Mg  Mg11  1  0.83071907  0.16536003  0.87226913  1
  Mg  Mg12  1  0.83523424  0.66761762  0.37310076  1
  Mg  Mg13  1  0.83523424  0.66761762  0.87689924  1
loop_
_geom_bond_atom_site_label_1
_geom_bond_atom_site_label_2
_geom_bond_distance
_geom_bond_site_symmetry_2
Hf0 Mg9 3.185778 1_554
Hf0 Mg8 3.185778 1_555
Hf0 Mg7 3.185784 1_564
Hf0 Mg6 3.185784 1_565
Hf0 Mg12 3.192004 1_455
Hf0 Mg13 3.192004 1_454
Hf0 Y0 3.213108 1_555
Hf0 Y0 3.213108 1_565
Hf0 Mg2 3.220168 1_565
Hf0 Mg4 3.220168 1_555
Hf0 Mg2 3.284659 1_455
Hf0 Mg4 3.284660 1_455
Mg0 Mg6 3.179651 1_555
Mg0 Mg7 3.179651 1_555
Mg0 Mg8 3.179658 1_555
Mg0 Mg9 3.179658 1_555
Mg0 Mg10 3.183945 1_455
Mg0 Mg11 3.183945 1_455
Mg0 Mg1 3.213057 1_545
Mg0 Mg1 3.213057 1_555
Mg0 Mg5 3.251576 1_445
Mg0 Mg3 3.251576 1_455
Mg0 Mg5 3.253187 1_555
Mg0 Mg3 3.253187 1_555
Mg1 Mg8 3.158262 1_555
Mg1 Mg9 3.158262 1_555
Mg1 Mg6 3.158268 1_565
Mg1 Mg7 3.158268 1_565
Mg1 Mg12 3.205863 1_455
Mg1 Mg13 3.205863 1_455
Mg1 Mg3 3.246657 1_455
Mg1 Mg5 3.246657 1_455
Mg1 Mg3 3.258103 1_565
Mg1 Mg5 3.258103 1_555
Mg2 Mg4 3.206962 1_545
Mg2 Mg7 3.211223 1_554
Mg2 Mg6 3.211223 1_555
Mg2 Mg4 3.219149 1_555
Mg2 Y0 3.239089 1_555
Mg2 Y0 3.265709 1_655
Mg3 Mg6 3.181106 1_555
Mg3 Mg7 3.181106 1_555
Mg3 Mg5 3.208130 1_555
Mg3 Mg5 3.217981 1_545
Mg4 Mg9 3.211223 1_554
Mg4 Mg8 3.211223 1_555
Mg4 Y0 3.239089 1_555
Mg4 Y0 3.265708 1_665
Mg5 Mg8 3.181106 1_555
Mg5 Mg9 3.181106 1_555
Mg6 Mg8 3.169180 1_545
Mg6 Y0 3.213114 1_555
Mg6 Mg8 3.256931 1_555
Mg7 Mg9 3.169180 1_545
Mg7 Y0 3.213114 1_556
Mg7 Mg9 3.256931 1_555
Mg8 Y0 3.213121 1_555
Mg9 Y0 3.213121 1_556
Mg10 Mg3 3.159782 1_555
Mg10 Mg5 3.159789 1_545
Mg10 Mg2 3.205846 1_555
Mg10 Mg4 3.205852 1_545
Mg10 Mg12 3.213513 1_545
Mg10 Mg12 3.213513 1_555
Mg10 Mg8 3.228345 1_545
Mg10 Mg6 3.228345 1_555
Mg10 Y0 3.234846 1_655
Mg10 Mg8 3.276466 1_655
Mg10 Mg6 3.276466 1_655
Mg11 Mg3 3.159782 1_555
Mg11 Mg5 3.159789 1_545
Mg11 Mg2 3.205846 1_556
Mg11 Mg4 3.205852 1_546
Mg11 Mg13 3.213513 1_545
Mg11 Mg13 3.213513 1_555
Mg11 Mg9 3.228345 1_545
Mg11 Mg7 3.228345 1_555
Mg11 Y0 3.234846 1_656
Mg11 Mg9 3.276466 1_655
Mg11 Mg7 3.276466 1_655
Mg12 Mg4 3.177692 1_555
Mg12 Mg2 3.177698 1_555
Mg12 Mg5 3.203662 1_555
Mg12 Mg3 3.203668 1_555
Mg12 Mg6 3.232867 1_665
Mg12 Mg8 3.232867 1_655
Mg12 Mg6 3.272495 1_555
Mg12 Mg8 3.272495 1_555
Mg13 Mg4 3.177692 1_556
Mg13 Mg2 3.177698 1_556
Mg13 Mg5 3.203662 1_555
Mg13 Mg3 3.203668 1_555
Mg13 Mg7 3.232867 1_665
Mg13 Mg9 3.232867 1_655
Mg13 Mg7 3.272495 1_555
Mg13 Mg9 3.272495 1_555
