# generated using pymatgen
data_K2CuSb
_symmetry_space_group_name_H-M   'P 1'
_cell_length_a   6.22115320
_cell_length_b   6.59851002
_cell_length_c   6.59851079
_cell_angle_alpha   106.43596244
_cell_angle_beta   90.00000000
_cell_angle_gamma   90.00000000
_symmetry_Int_Tables_number   1
_chemical_formula_structural   K2CuSb
_chemical_formula_sum   'K4 Cu2 Sb2'
_cell_volume   259.80239973
_cell_formula_units_Z   2
loop_
 _symmetry_equiv_pos_site_id
 _symmetry_equiv_pos_as_xyz
  1  'x, y, z'
loop_
 _atom_site_type_symbol
 _atom_site_label
 _atom_site_symmetry_multiplicity
 _atom_site_fract_x
 _atom_site_fract_y
 _atom_site_fract_z
 _atom_site_occupancy
  K  K0  1  0.25000000  0.01107995  0.67505300  1
  K  K1  1  0.75000000  0.98892005  0.32494700  1
  K  K2  1  0.75000000  0.32494700  0.98892005  1
  K  K3  1  0.25000000  0.67505300  0.01107995  1
  Cu  Cu0  1  0.50000000  0.50000000  0.50000000  1
  Cu  Cu1  1  -0.00000000  0.50000000  0.50000000  1
  Sb  Sb0  1  0.25000000  0.25233967  0.25233967  1
  Sb  Sb1  1  0.75000000  0.74766033  0.74766033  1
loop_
_geom_bond_atom_site_label_1
_geom_bond_atom_site_label_2
_geom_bond_distance
_geom_bond_site_symmetry_2
K0 Sb0 3.581503 1_555
K0 Sb1 3.660291 1_545
K0 Sb1 3.660291 1_445
K0 Sb0 3.689575 1_556
K1 Sb1 3.581503 1_555
K1 Sb0 3.660291 1_665
K1 Sb0 3.660291 1_565
K1 Sb1 3.689575 1_554
K2 Sb1 3.581503 1_555
K2 Sb0 3.660291 1_656
K2 Sb0 3.660291 1_556
K2 Sb1 3.689574 1_545
K3 Sb0 3.581503 1_555
K3 Sb1 3.660291 1_454
K3 Sb1 3.660291 1_554
K3 Sb0 3.689574 1_565
Cu0 Sb0 2.499765 1_555
Cu0 Sb1 2.499765 1_555
Cu0 K1 3.594671 1_545
Cu0 K0 3.594671 1_565
Cu0 K2 3.594671 1_554
Cu0 K3 3.594671 1_556
Cu1 Sb0 2.499765 1_555
Cu1 Sb1 2.499765 1_455
Cu1 K1 3.594671 1_445
Cu1 K0 3.594671 1_565
Cu1 K2 3.594671 1_454
Cu1 K3 3.594671 1_556
