# generated using pymatgen
data_Pr3Rh4Pb13
_symmetry_space_group_name_H-M   'P 1'
_cell_length_a   10.09211572
_cell_length_b   10.09211572
_cell_length_c   10.09211572
_cell_angle_alpha   90.00000000
_cell_angle_beta   90.00000000
_cell_angle_gamma   90.00000000
_symmetry_Int_Tables_number   1
_chemical_formula_structural   Pr3Rh4Pb13
_chemical_formula_sum   'Pr6 Rh8 Pb26'
_cell_volume   1027.89005681
_cell_formula_units_Z   2
loop_
 _symmetry_equiv_pos_site_id
 _symmetry_equiv_pos_as_xyz
  1  'x, y, z'
loop_
 _atom_site_type_symbol
 _atom_site_label
 _atom_site_symmetry_multiplicity
 _atom_site_fract_x
 _atom_site_fract_y
 _atom_site_fract_z
 _atom_site_occupancy
  Pr  Pr0  1  -0.00000000  0.50000000  0.75000000  1
  Pr  Pr1  1  0.50000000  0.25000000  -0.00000000  1
  Pr  Pr2  1  0.75000000  0.00000000  0.50000000  1
  Pr  Pr3  1  -0.00000000  0.50000000  0.25000000  1
  Pr  Pr4  1  0.50000000  0.75000000  -0.00000000  1
  Pr  Pr5  1  0.25000000  0.00000000  0.50000000  1
  Rh  Rh0  1  0.75000000  0.25000000  0.75000000  1
  Rh  Rh1  1  0.25000000  0.75000000  0.25000000  1
  Rh  Rh2  1  0.75000000  0.75000000  0.25000000  1
  Rh  Rh3  1  0.25000000  0.25000000  0.75000000  1
  Rh  Rh4  1  0.25000000  0.75000000  0.75000000  1
  Rh  Rh5  1  0.75000000  0.25000000  0.25000000  1
  Rh  Rh6  1  0.25000000  0.25000000  0.25000000  1
  Rh  Rh7  1  0.75000000  0.75000000  0.75000000  1
  Pb  Pb0  1  0.50000000  0.50000000  0.50000000  1
  Pb  Pb1  1  -0.00000000  0.00000000  -0.00000000  1
  Pb  Pb2  1  0.80643813  0.34499118  0.50000000  1
  Pb  Pb3  1  0.65500882  0.50000000  0.80643813  1
  Pb  Pb4  1  0.50000000  0.19356187  0.65500882  1
  Pb  Pb5  1  0.19356187  0.65500882  0.50000000  1
  Pb  Pb6  1  0.34499118  0.50000000  0.19356187  1
  Pb  Pb7  1  0.50000000  0.80643813  0.34499118  1
  Pb  Pb8  1  0.80643813  0.65500882  0.50000000  1
  Pb  Pb9  1  0.65500882  0.50000000  0.19356187  1
  Pb  Pb10  1  0.19356187  0.34499118  0.50000000  1
  Pb  Pb11  1  0.34499118  0.50000000  0.80643813  1
  Pb  Pb12  1  0.50000000  0.80643813  0.65500882  1
  Pb  Pb13  1  0.50000000  0.19356187  0.34499118  1
  Pb  Pb14  1  0.30643813  0.00000000  0.84499118  1
  Pb  Pb15  1  0.15500882  0.30643813  -0.00000000  1
  Pb  Pb16  1  0.00000000  0.15500882  0.69356187  1
  Pb  Pb17  1  0.69356187  0.00000000  0.15500882  1
  Pb  Pb18  1  0.84499118  0.69356187  -0.00000000  1
  Pb  Pb19  1  -0.00000000  0.84499118  0.30643813  1
  Pb  Pb20  1  0.30643813  0.00000000  0.15500882  1
  Pb  Pb21  1  0.15500882  0.69356187  -0.00000000  1
  Pb  Pb22  1  0.69356187  0.00000000  0.84499118  1
  Pb  Pb23  1  0.84499118  0.30643813  -0.00000000  1
  Pb  Pb24  1  0.00000000  0.15500882  0.30643813  1
  Pb  Pb25  1  -0.00000000  0.84499118  0.69356187  1
loop_
_geom_bond_atom_site_label_1
_geom_bond_atom_site_label_2
_geom_bond_distance
_geom_bond_site_symmetry_2
Pr0 Rh7 3.568102 1_455
Pr0 Rh0 3.568102 1_455
Pr0 Rh4 3.568102 1_555
Pr0 Rh3 3.568102 1_555
Pr1 Rh6 3.568102 1_555
Pr1 Rh3 3.568102 1_554
Pr1 Rh0 3.568102 1_554
Pr1 Rh5 3.568102 1_555
Pr2 Rh7 3.568102 1_545
Pr2 Rh5 3.568102 1_555
Pr2 Rh2 3.568102 1_545
Pr2 Rh0 3.568102 1_555
Pr3 Rh6 3.568102 1_555
Pr3 Rh2 3.568102 1_455
Pr3 Rh1 3.568102 1_555
Pr3 Rh5 3.568102 1_455
Pr4 Rh2 3.568102 1_555
Pr4 Rh1 3.568102 1_555
Pr4 Rh4 3.568102 1_554
Pr4 Rh7 3.568102 1_554
Pr5 Rh1 3.568102 1_545
Pr5 Rh4 3.568102 1_545
Pr5 Rh6 3.568102 1_555
Pr5 Rh3 3.568102 1_555
Pb0 Pb13 3.465757 1_555
Pb0 Pb6 3.465757 1_555
Pb0 Pb10 3.465757 1_555
Pb0 Pb7 3.465757 1_555
Pb0 Pb2 3.465757 1_555
Pb0 Pb11 3.465757 1_555
Pb0 Pb12 3.465757 1_555
Pb0 Pb4 3.465757 1_555
Pb0 Pb5 3.465757 1_555
Pb0 Pb8 3.465757 1_555
Pb0 Pb9 3.465757 1_555
Pb0 Pb3 3.465757 1_555
Pb1 Pb21 3.465757 1_545
Pb1 Pb15 3.465757 1_555
Pb1 Pb16 3.465757 1_554
Pb1 Pb17 3.465757 1_455
Pb1 Pb20 3.465757 1_555
Pb1 Pb24 3.465757 1_555
Pb1 Pb23 3.465757 1_455
Pb1 Pb18 3.465757 1_445
Pb1 Pb22 3.465757 1_454
Pb1 Pb25 3.465757 1_544
Pb1 Pb19 3.465757 1_545
Pb1 Pb14 3.465757 1_554
Pb2 Rh0 2.758465 1_555
Pb2 Rh5 2.758465 1_555
Pb2 Pb8 3.128734 1_555
Pb2 Pb24 3.362745 1_655
Pb2 Pr2 3.527973 1_555
Pb2 Pr3 3.553714 1_655
Pb2 Pr0 3.553714 1_655
Pb3 Rh0 2.758465 1_555
Pb3 Rh7 2.758465 1_555
Pb3 Pr0 3.527973 1_655
Pb3 Pr4 3.553714 1_556
Pb3 Pr1 3.553714 1_556
Pb4 Rh0 2.758465 1_555
Pb4 Rh3 2.758465 1_555
Pb4 Pr1 3.527973 1_556
Pb4 Pr2 3.553714 1_555
Pb4 Pr5 3.553714 1_555
Pb5 Rh4 2.758465 1_555
Pb5 Rh1 2.758465 1_555
Pb5 Pr5 3.527973 1_565
Pb5 Pr3 3.553714 1_555
Pb5 Pr0 3.553714 1_555
Pb6 Rh1 2.758465 1_555
Pb6 Rh6 2.758465 1_555
Pb6 Pb9 3.128734 1_555
Pb6 Pr3 3.527973 1_555
Pb6 Pr4 3.553714 1_555
Pb6 Pr1 3.553714 1_555
Pb7 Rh1 2.758465 1_555
Pb7 Rh2 2.758465 1_555
Pb7 Pr4 3.527973 1_555
Pb7 Pr2 3.553714 1_565
Pb7 Pr5 3.553714 1_565
Pb8 Rh7 2.758465 1_555
Pb8 Rh2 2.758465 1_555
Pb8 Pr2 3.527973 1_565
Pb8 Pr3 3.553714 1_655
Pb8 Pr0 3.553714 1_655
Pb9 Rh2 2.758465 1_555
Pb9 Rh5 2.758465 1_555
Pb9 Pr3 3.527973 1_655
Pb9 Pr1 3.553714 1_555
Pb9 Pr4 3.553714 1_555
Pb10 Rh3 2.758465 1_555
Pb10 Rh6 2.758465 1_555
Pb10 Pb5 3.128734 1_555
Pb10 Pb16 3.362745 1_555
Pb10 Pb24 3.362745 1_555
Pb10 Pr5 3.527973 1_555
Pb10 Pr0 3.553714 1_555
Pb10 Pr3 3.553714 1_555
Pb11 Rh4 2.758465 1_555
Pb11 Rh3 2.758465 1_555
Pb11 Pb3 3.128734 1_555
Pb11 Pb15 3.362745 1_556
Pb11 Pb21 3.362745 1_556
Pb11 Pr0 3.527973 1_555
Pb11 Pr4 3.553714 1_556
Pb11 Pr1 3.553714 1_556
Pb12 Rh4 2.758465 1_555
Pb12 Rh7 2.758465 1_555
Pb12 Pb7 3.128734 1_555
Pb12 Pb22 3.362745 1_565
Pb12 Pb14 3.362745 1_565
Pb12 Pr4 3.527973 1_556
Pb12 Pr2 3.553714 1_565
Pb12 Pr5 3.553714 1_565
Pb13 Rh5 2.758465 1_555
Pb13 Rh6 2.758465 1_555
Pb13 Pb4 3.128734 1_555
Pb13 Pb17 3.362745 1_555
Pb13 Pb20 3.362745 1_555
Pb13 Pr1 3.527973 1_555
Pb13 Pr2 3.553714 1_555
Pb13 Pr5 3.553714 1_555
Pb14 Rh3 2.758465 1_555
Pb14 Rh4 2.758465 1_545
Pb14 Pb20 3.128734 1_556
Pb14 Pb4 3.362745 1_555
Pb14 Pr5 3.527973 1_555
Pb14 Pr4 3.553714 1_546
Pb14 Pr1 3.553714 1_556
Pb15 Rh6 2.758465 1_555
Pb15 Rh3 2.758465 1_554
Pb15 Pb23 3.128734 1_455
Pb15 Pb6 3.362745 1_555
Pb15 Pr1 3.527973 1_555
Pb15 Pr0 3.553714 1_554
Pb15 Pr3 3.553714 1_555
Pb16 Rh3 2.758465 1_555
Pb16 Rh0 2.758465 1_455
Pb16 Pb25 3.128734 1_545
Pb16 Pb2 3.362745 1_455
Pb16 Pr0 3.527973 1_555
Pb16 Pr2 3.553714 1_455
Pb16 Pr5 3.553714 1_555
Pb17 Rh2 2.758465 1_545
Pb17 Rh5 2.758465 1_555
Pb17 Pb22 3.128734 1_554
Pb17 Pb7 3.362745 1_545
Pb17 Pr2 3.527973 1_555
Pb17 Pr4 3.553714 1_545
Pb17 Pr1 3.553714 1_555
Pb18 Rh7 2.758465 1_554
Pb18 Rh2 2.758465 1_555
Pb18 Pb21 3.128734 1_655
Pb18 Pb3 3.362745 1_554
Pb18 Pb9 3.362745 1_555
Pb18 Pr4 3.527973 1_555
Pb18 Pr3 3.553714 1_655
Pb18 Pr0 3.553714 1_654
Pb19 Rh2 2.758465 1_455
Pb19 Rh1 2.758465 1_555
Pb19 Pb24 3.128734 1_565
Pb19 Pb8 3.362745 1_455
Pb19 Pb5 3.362745 1_555
Pb19 Pr3 3.527973 1_555
Pb19 Pr5 3.553714 1_565
Pb19 Pr2 3.553714 1_465
Pb20 Rh1 2.758465 1_545
Pb20 Rh6 2.758465 1_555
Pb20 Pb7 3.362745 1_545
Pb20 Pr5 3.527973 1_555
Pb20 Pr4 3.553714 1_545
Pb20 Pr1 3.553714 1_555
Pb21 Rh4 2.758465 1_554
Pb21 Rh1 2.758465 1_555
Pb21 Pb6 3.362745 1_555
Pb21 Pr4 3.527973 1_555
Pb21 Pr0 3.553714 1_554
Pb21 Pr3 3.553714 1_555
Pb22 Rh0 2.758465 1_555
Pb22 Rh7 2.758465 1_545
Pb22 Pb4 3.362745 1_555
Pb22 Pr2 3.527973 1_555
Pb22 Pr4 3.553714 1_546
Pb22 Pr1 3.553714 1_556
Pb23 Rh0 2.758465 1_554
Pb23 Rh5 2.758465 1_555
Pb23 Pb3 3.362745 1_554
Pb23 Pb9 3.362745 1_555
Pb23 Pr1 3.527973 1_555
Pb23 Pr3 3.553714 1_655
Pb23 Pr0 3.553714 1_654
Pb24 Rh5 2.758465 1_455
Pb24 Rh6 2.758465 1_555
Pb24 Pr3 3.527973 1_555
Pb24 Pr2 3.553714 1_455
Pb24 Pr5 3.553714 1_555
Pb25 Rh4 2.758465 1_555
Pb25 Rh7 2.758465 1_455
Pb25 Pb8 3.362745 1_455
Pb25 Pb5 3.362745 1_555
Pb25 Pr0 3.527973 1_555
Pb25 Pr5 3.553714 1_565
Pb25 Pr2 3.553714 1_465
