# generated using pymatgen
data_Na2HgMoF6
_symmetry_space_group_name_H-M   'P 1'
_cell_length_a   6.80526300
_cell_length_b   6.80526356
_cell_length_c   6.80526321
_cell_angle_alpha   59.99999968
_cell_angle_beta   59.99999617
_cell_angle_gamma   59.99999788
_symmetry_Int_Tables_number   1
_chemical_formula_structural   Na2HgMoF6
_chemical_formula_sum   'Na2 Hg1 Mo1 F6'
_cell_volume   222.85366082
_cell_formula_units_Z   1
loop_
 _symmetry_equiv_pos_site_id
 _symmetry_equiv_pos_as_xyz
  1  'x, y, z'
loop_
 _atom_site_type_symbol
 _atom_site_label
 _atom_site_symmetry_multiplicity
 _atom_site_fract_x
 _atom_site_fract_y
 _atom_site_fract_z
 _atom_site_occupancy
  Na  Na0  1  0.25000000  0.25000000  0.25000000  1
  Na  Na1  1  0.75000000  0.75000000  0.75000000  1
  Hg  Hg0  1  0.50000000  0.50000000  0.50000000  1
  Mo  Mo0  1  0.00000000  0.00000000  0.00000000  1
  F  F0  1  0.20572100  0.79427900  0.20572100  1
  F  F1  1  0.79427900  0.79427900  0.20572100  1
  F  F2  1  0.79427900  0.20572100  0.79427900  1
  F  F3  1  0.79427900  0.20572100  0.20572100  1
  F  F4  1  0.20572100  0.79427900  0.79427900  1
  F  F5  1  0.20572100  0.20572100  0.79427900  1
loop_
_geom_bond_atom_site_label_1
_geom_bond_atom_site_label_2
_geom_bond_distance
_geom_bond_site_symmetry_2
F0 Mo0 1.979879 1_565
F1 Mo0 1.979879 1_665
F2 Mo0 1.979879 1_656
F3 Mo0 1.979879 1_655
F4 Mo0 1.979879 1_566
F5 Mo0 1.979879 1_556
