# generated using pymatgen
data_V4(OF3)3
_symmetry_space_group_name_H-M   'P 1'
_cell_length_a   5.05938110
_cell_length_b   5.28993476
_cell_length_c   7.35959103
_cell_angle_alpha   93.30863970
_cell_angle_beta   90.50691917
_cell_angle_gamma   90.70528816
_symmetry_Int_Tables_number   1
_chemical_formula_structural   V4(OF3)3
_chemical_formula_sum   'V4 O3 F9'
_cell_volume   196.61835664
_cell_formula_units_Z   1
loop_
 _symmetry_equiv_pos_site_id
 _symmetry_equiv_pos_as_xyz
  1  'x, y, z'
loop_
 _atom_site_type_symbol
 _atom_site_label
 _atom_site_symmetry_multiplicity
 _atom_site_fract_x
 _atom_site_fract_y
 _atom_site_fract_z
 _atom_site_occupancy
  V  V0  1  0.50280258  0.49556951  0.49832697  1
  V  V1  1  0.52483388  0.53699503  0.00615550  1
  V  V2  1  0.98201130  0.96924201  0.49372674  1
  V  V3  1  0.03546153  0.02858286  0.99266822  1
  O  O0  1  0.28896773  0.21260096  0.95582422  1
  O  O1  1  0.70882557  0.79122172  0.04408916  1
  O  O2  1  0.79357640  0.70548599  0.46217587  1
  F  F0  1  0.11398241  0.98455098  0.24843756  1
  F  F1  1  0.18934751  0.28592105  0.54602872  1
  F  F2  1  0.20230904  0.70442483  0.93652082  1
  F  F3  1  0.30127781  0.79512003  0.55914946  1
  F  F4  1  0.38428606  0.50896176  0.24958773  1
  F  F5  1  0.60524500  0.48061520  0.75072040  1
  F  F6  1  0.69083349  0.19297540  0.43877058  1
  F  F7  1  0.79097447  0.29408714  0.06707413  1
  F  F8  1  0.88526525  0.01364254  0.75074392  1
loop_
_geom_bond_atom_site_label_1
_geom_bond_atom_site_label_2
_geom_bond_distance
_geom_bond_site_symmetry_2
O0 V3 1.634634 1_555
O0 V1 2.091504 1_556
O1 V1 1.635338 1_555
O1 V3 2.113208 1_664
O2 V2 1.683891 1_555
O2 V0 1.862505 1_555
F0 V2 1.935999 1_455
F0 V3 1.948077 1_564
F1 V0 1.969701 1_555
F1 V2 1.982434 1_445
F2 V1 1.944983 1_556
F2 V3 1.945200 1_565
F3 V0 1.927920 1_555
F3 V2 1.939965 1_455
F4 V0 1.926739 1_555
F4 V1 1.946263 1_555
F5 V0 1.930331 1_555
F5 V1 1.933980 1_556
F6 V0 1.903486 1_555
F6 V2 1.955053 1_545
F7 V1 1.940010 1_555
F7 V3 1.941267 1_654
F8 V3 1.926677 1_655
F8 V2 1.959748 1_545
