# generated using pymatgen
data_MoW(SeS)2
_symmetry_space_group_name_H-M   'P 1'
_cell_length_a   3.25364679
_cell_length_b   3.25364679
_cell_length_c   36.87740200
_cell_angle_alpha   90.00000000
_cell_angle_beta   90.00000000
_cell_angle_gamma   120.00001601
_symmetry_Int_Tables_number   1
_chemical_formula_structural   MoW(SeS)2
_chemical_formula_sum   'Mo2 W2 Se4 S4'
_cell_volume   338.08950405
_cell_formula_units_Z   2
loop_
 _symmetry_equiv_pos_site_id
 _symmetry_equiv_pos_as_xyz
  1  'x, y, z'
loop_
 _atom_site_type_symbol
 _atom_site_label
 _atom_site_symmetry_multiplicity
 _atom_site_fract_x
 _atom_site_fract_y
 _atom_site_fract_z
 _atom_site_occupancy
  Mo  Mo0  1  0.00000000  0.00000000  0.09390700  1
  Mo  Mo1  1  0.33333300  0.66666700  0.28179600  1
  W  W0  1  0.00000000  0.00000000  0.46966400  1
  W  W1  1  0.33333300  0.66666700  0.65754100  1
  Se  Se0  1  0.33333300  0.66666700  0.04788000  1
  Se  Se1  1  0.33333300  0.66666700  0.42332500  1
  Se  Se2  1  0.33333300  0.66666700  0.13995600  1
  Se  Se3  1  0.33333300  0.66666700  0.51600500  1
  S  S0  1  0.00000000  0.00000000  0.32368800  1
  S  S1  1  0.00000000  0.00000000  0.69955000  1
  S  S2  1  0.00000000  0.00000000  0.23990100  1
  S  S3  1  0.00000000  0.00000000  0.61553600  1
loop_
_geom_bond_atom_site_label_1
_geom_bond_atom_site_label_2
_geom_bond_distance
_geom_bond_site_symmetry_2
Mo0 Se0 2.531749 1_545
Mo0 Se0 2.531750 1_445
Mo0 Se0 2.531750 1_555
Mo0 Se2 2.532293 1_545
Mo0 Se2 2.532294 1_445
Mo0 Se2 2.532294 1_555
Mo1 S0 2.432149 1_565
Mo1 S0 2.432151 1_555
Mo1 S0 2.432151 1_665
Mo1 S2 2.432220 1_565
Mo1 S2 2.432221 1_555
Mo1 S2 2.432221 1_665
Se1 W0 2.539477 1_565
Se1 W0 2.539478 1_555
Se1 W0 2.539478 1_665
Se3 W0 2.539526 1_565
Se3 W0 2.539528 1_665
Se3 W0 2.539528 1_555
S1 W1 2.434892 1_545
S1 W1 2.434894 1_445
S1 W1 2.434894 1_555
S3 W1 2.434798 1_545
S3 W1 2.434800 1_555
S3 W1 2.434800 1_445
