# generated using pymatgen
data_Np2SO10
_symmetry_space_group_name_H-M   'P 1'
_cell_length_a   5.54978600
_cell_length_b   13.76194200
_cell_length_c   13.89854465
_cell_angle_alpha   88.20505179
_cell_angle_beta   90.00000000
_cell_angle_gamma   90.00000000
_symmetry_Int_Tables_number   1
_chemical_formula_structural   Np2SO10
_chemical_formula_sum   'Np8 S4 O40'
_cell_volume   1060.99206930
_cell_formula_units_Z   4
loop_
 _symmetry_equiv_pos_site_id
 _symmetry_equiv_pos_as_xyz
  1  'x, y, z'
loop_
 _atom_site_type_symbol
 _atom_site_label
 _atom_site_symmetry_multiplicity
 _atom_site_fract_x
 _atom_site_fract_y
 _atom_site_fract_z
 _atom_site_occupancy
  Np  Np0  1  0.17929200  0.33439200  0.35894900  1
  Np  Np1  1  0.17929200  0.16560800  0.64105100  1
  Np  Np2  1  0.82070800  0.66560800  0.64105100  1
  Np  Np3  1  0.82070800  0.83439200  0.35894900  1
  Np  Np4  1  0.66827300  0.34214400  0.14499800  1
  Np  Np5  1  0.66827300  0.15785600  0.85500200  1
  Np  Np6  1  0.33172700  0.65785600  0.85500200  1
  Np  Np7  1  0.33172700  0.84214400  0.14499800  1
  S  S0  1  0.39764800  0.11491500  0.24366600  1
  S  S1  1  0.39764800  0.38508500  0.75633400  1
  S  S2  1  0.60235200  0.88508500  0.75633400  1
  S  S3  1  0.60235200  0.61491500  0.24366600  1
  O  O0  1  0.21564800  0.06568600  0.16359000  1
  O  O1  1  0.21564800  0.43431400  0.83641000  1
  O  O2  1  0.78435200  0.93431400  0.83641000  1
  O  O3  1  0.78435200  0.56568600  0.16359000  1
  O  O4  1  0.50465100  0.03850100  0.30169100  1
  O  O5  1  0.50465100  0.46149900  0.69830900  1
  O  O6  1  0.49534900  0.96149900  0.69830900  1
  O  O7  1  0.49534900  0.53850100  0.30169100  1
  O  O8  1  0.21198300  0.17303000  0.29179800  1
  O  O9  1  0.21198300  0.32697000  0.70820200  1
  O  O10  1  0.78801700  0.82697000  0.70820200  1
  O  O11  1  0.78801700  0.67303000  0.29179800  1
  O  O12  1  0.57773500  0.17414300  0.18871600  1
  O  O13  1  0.57773500  0.32585700  0.81128400  1
  O  O14  1  0.42226500  0.82585700  0.81128400  1
  O  O15  1  0.42226500  0.67414300  0.18871600  1
  O  O16  1  0.34304000  0.35423600  0.47191700  1
  O  O17  1  0.34304000  0.14576400  0.52808300  1
  O  O18  1  0.65696000  0.64576400  0.52808300  1
  O  O19  1  0.65696000  0.85423600  0.47191700  1
  O  O20  1  0.64922000  0.49570000  0.10823200  1
  O  O21  1  0.64922000  0.00430000  0.89176800  1
  O  O22  1  0.35078000  0.50430000  0.89176800  1
  O  O23  1  0.35078000  0.99570000  0.10823200  1
  O  O24  1  0.45830400  0.34500700  0.27942700  1
  O  O25  1  0.45830400  0.15499300  0.72057300  1
  O  O26  1  0.54169600  0.65499300  0.72057300  1
  O  O27  1  0.54169600  0.84500700  0.27942700  1
  O  O28  1  0.89095400  0.31947500  0.41592700  1
  O  O29  1  0.89095400  0.18052500  0.58407300  1
  O  O30  1  0.10904600  0.68052500  0.58407300  1
  O  O31  1  0.10904600  0.81947500  0.41592700  1
  O  O32  1  0.40935500  0.33456000  0.06911000  1
  O  O33  1  0.40935500  0.16544000  0.93089000  1
  O  O34  1  0.59064500  0.66544000  0.93089000  1
  O  O35  1  0.59064500  0.83456000  0.06911000  1
  O  O36  1  0.95069900  0.35335500  0.21819900  1
  O  O37  1  0.95069900  0.14664500  0.78180100  1
  O  O38  1  0.04930100  0.64664500  0.78180100  1
  O  O39  1  0.04930100  0.85335500  0.21819900  1
loop_
_geom_bond_atom_site_label_1
_geom_bond_atom_site_label_2
_geom_bond_distance
_geom_bond_site_symmetry_2
Np0 O28 1.794371 1_455
Np0 O16 1.841869 1_555
Np0 O24 1.905387 1_555
Np0 O36 2.339310 1_455
Np0 O8 2.442357 1_555
Np1 O29 1.794371 1_455
Np1 O17 1.841869 1_555
Np1 O25 1.905387 1_555
Np1 O37 2.339310 1_455
Np1 O9 2.442357 1_555
Np2 O30 1.794371 1_655
Np2 O18 1.841869 1_555
Np2 O26 1.905387 1_555
Np2 O38 2.339310 1_655
Np2 O10 2.442357 1_555
Np3 O31 1.794371 1_655
Np3 O19 1.841869 1_555
Np3 O27 1.905387 1_555
Np3 O39 2.339310 1_655
Np3 O11 2.442357 1_555
Np4 O32 1.787469 1_555
Np4 O36 1.877623 1_555
Np4 O20 2.161107 1_555
Np4 O24 2.203371 1_555
Np4 O12 2.424686 1_555
Np5 O33 1.787469 1_555
Np5 O37 1.877623 1_555
Np5 O21 2.161107 1_555
Np5 O25 2.203371 1_555
Np5 O13 2.424686 1_555
Np6 O34 1.787469 1_555
Np6 O38 1.877623 1_555
Np6 O22 2.161107 1_555
Np6 O26 2.203371 1_555
Np6 O14 2.424686 1_555
Np7 O35 1.787469 1_555
Np7 O39 1.877623 1_555
Np7 O23 2.161107 1_555
Np7 O27 2.203371 1_555
Np7 O15 2.424686 1_555
O0 O23 1.458927 1_545
O0 S0 1.662853 1_555
O1 O22 1.458927 1_555
O1 S1 1.662853 1_555
O2 O21 1.458927 1_565
O2 S2 1.662853 1_555
O3 S3 1.662853 1_555
O4 S0 1.433798 1_555
O5 S1 1.433798 1_555
O6 S2 1.433798 1_555
O7 S3 1.433798 1_555
O8 S0 1.477294 1_555
O9 S1 1.477294 1_555
O10 S2 1.477294 1_555
O11 S3 1.477294 1_555
O12 S0 1.485780 1_555
O13 S1 1.485780 1_555
O14 S2 1.485780 1_555
O15 S3 1.485780 1_555
O20 O3 1.458927 1_555
