# generated using pymatgen
data_Dy2FeSi4
_symmetry_space_group_name_H-M   'P 1'
_cell_length_a   4.04881500
_cell_length_b   4.03835900
_cell_length_c   8.12623087
_cell_angle_alpha   75.61261079
_cell_angle_beta   90.00000000
_cell_angle_gamma   90.00000000
_symmetry_Int_Tables_number   1
_chemical_formula_structural   Dy2FeSi4
_chemical_formula_sum   'Dy2 Fe1 Si4'
_cell_volume   128.70145608
_cell_formula_units_Z   1
loop_
 _symmetry_equiv_pos_site_id
 _symmetry_equiv_pos_as_xyz
  1  'x, y, z'
loop_
 _atom_site_type_symbol
 _atom_site_label
 _atom_site_symmetry_multiplicity
 _atom_site_fract_x
 _atom_site_fract_y
 _atom_site_fract_z
 _atom_site_occupancy
  Dy  Dy0  1  0.25000000  0.60733100  0.78533900  1
  Dy  Dy1  1  0.75000000  0.38948200  0.22103600  1
  Fe  Fe0  1  0.25000000  0.24809400  0.50381200  1
  Si  Si0  1  0.25000000  0.80563900  0.38872200  1
  Si  Si1  1  0.75000000  0.19581600  0.60836800  1
  Si  Si2  1  0.25000000  0.96157500  0.07685000  1
  Si  Si3  1  0.75000000  0.04206300  0.91587300  1
loop_
_geom_bond_atom_site_label_1
_geom_bond_atom_site_label_2
_geom_bond_distance
_geom_bond_site_symmetry_2
Dy0 Fe0 2.997958 1_565
Dy0 Fe0 2.997961 1_555
Dy0 Si3 3.038258 1_465
Dy0 Si3 3.038258 1_565
Dy0 Si3 3.038264 1_555
Dy0 Si3 3.038264 1_455
Dy0 Si2 3.056506 1_556
Dy0 Si2 3.056509 1_546
Dy0 Si0 3.121921 1_555
Dy0 Si1 3.180529 1_565
Dy0 Si1 3.180529 1_465
Dy0 Si1 3.180532 1_555
Dy0 Si1 3.180532 1_455
Dy1 Fe0 3.008749 1_655
Dy1 Fe0 3.008749 1_555
Dy1 Si1 3.048835 1_555
Dy1 Si2 3.076265 1_645
Dy1 Si2 3.076265 1_545
Dy1 Si2 3.076265 1_655
Dy1 Si2 3.076265 1_555
Dy1 Si3 3.137982 1_564
Dy1 Si3 3.137985 1_554
Dy1 Si0 3.149206 1_555
Dy1 Si0 3.149206 1_655
Dy1 Si0 3.149206 1_645
Dy1 Si0 3.149206 1_545
Fe0 Si1 2.185304 1_455
Fe0 Si1 2.185304 1_555
Fe0 Si0 2.213091 1_545
Fe0 Si0 2.213091 1_555
Si0 Si2 2.454861 1_555
Si1 Si3 2.420487 1_555
Si2 Si3 2.388262 1_564
Si2 Si3 2.388262 1_464
