# generated using pymatgen
data_ZnFeO2
_symmetry_space_group_name_H-M   'P 1'
_cell_length_a   3.09294900
_cell_length_b   8.03014116
_cell_length_c   8.39060324
_cell_angle_alpha   90.09408498
_cell_angle_beta   94.50987633
_cell_angle_gamma   90.72291082
_symmetry_Int_Tables_number   1
_chemical_formula_structural   ZnFeO2
_chemical_formula_sum   'Zn4 Fe4 O8'
_cell_volume   207.73338001
_cell_formula_units_Z   4
loop_
 _symmetry_equiv_pos_site_id
 _symmetry_equiv_pos_as_xyz
  1  'x, y, z'
loop_
 _atom_site_type_symbol
 _atom_site_label
 _atom_site_symmetry_multiplicity
 _atom_site_fract_x
 _atom_site_fract_y
 _atom_site_fract_z
 _atom_site_occupancy
  Zn  Zn0  1  0.84248200  0.57978000  0.23340200  1
  Zn  Zn1  1  0.15751800  0.42022000  0.76659800  1
  Zn  Zn2  1  0.26159200  0.24682600  0.39428100  1
  Zn  Zn3  1  0.73840800  0.75317400  0.60571900  1
  Fe  Fe0  1  0.47815200  0.75661700  0.92695500  1
  Fe  Fe1  1  0.21703500  0.91269900  0.28107600  1
  Fe  Fe2  1  0.78296500  0.08730100  0.71892400  1
  Fe  Fe3  1  0.52184800  0.24338300  0.07304500  1
  O  O0  1  0.98909500  0.23966200  0.92221100  1
  O  O1  1  0.25432700  0.89304000  0.72228000  1
  O  O2  1  0.74567300  0.10696000  0.27772000  1
  O  O3  1  0.01090500  0.76033800  0.07778900  1
  O  O4  1  0.66719500  0.57633000  0.76336000  1
  O  O5  1  0.71068400  0.76595600  0.38049300  1
  O  O6  1  0.33280500  0.42367000  0.23664000  1
  O  O7  1  0.28931600  0.23404400  0.61950700  1
loop_
_geom_bond_atom_site_label_1
_geom_bond_atom_site_label_2
_geom_bond_distance
_geom_bond_site_symmetry_2
Fe0 O3 1.994924 1_556
Fe0 O3 1.997112 1_656
Fe0 O4 2.112592 1_555
Fe0 O1 2.113526 1_555
Fe1 O5 2.064929 1_555
Fe1 O2 2.147268 1_465
Fe1 O3 2.148310 1_555
Fe1 O5 2.167768 1_455
Fe1 O2 2.247361 1_565
Fe2 O7 2.064929 1_555
Fe2 O1 2.147268 1_645
Fe2 O0 2.148310 1_555
Fe2 O7 2.167768 1_655
Fe2 O1 2.247361 1_545
Fe3 O0 1.994924 1_554
Fe3 O0 1.997112 1_454
Fe3 O6 2.112592 1_555
Fe3 O2 2.113526 1_555
O0 Zn1 2.042677 1_655
O1 Zn3 2.114238 1_455
O1 Zn3 2.174580 1_555
O2 Zn2 2.114238 1_655
O2 Zn2 2.174580 1_555
O3 Zn0 2.042677 1_455
O4 Zn3 1.964379 1_555
O4 Zn1 1.978314 1_655
O4 Zn1 2.003559 1_555
O5 Zn3 1.887999 1_555
O5 Zn0 2.003223 1_555
O6 Zn2 1.964379 1_555
O6 Zn0 1.978314 1_455
O6 Zn0 2.003559 1_555
O7 Zn2 1.887999 1_555
O7 Zn1 2.003223 1_555
