# generated using pymatgen
data_KUSiO7
_symmetry_space_group_name_H-M   'P 1'
_cell_length_a   7.03474200
_cell_length_b   6.76485600
_cell_length_c   7.00694064
_cell_angle_alpha   75.75576643
_cell_angle_beta   90.00000000
_cell_angle_gamma   90.00000000
_symmetry_Int_Tables_number   1
_chemical_formula_structural   KUSiO7
_chemical_formula_sum   'K2 U2 Si2 O14'
_cell_volume   323.20161544
_cell_formula_units_Z   2
loop_
 _symmetry_equiv_pos_site_id
 _symmetry_equiv_pos_as_xyz
  1  'x, y, z'
loop_
 _atom_site_type_symbol
 _atom_site_label
 _atom_site_symmetry_multiplicity
 _atom_site_fract_x
 _atom_site_fract_y
 _atom_site_fract_z
 _atom_site_occupancy
  K  K0  1  0.05289400  0.77879400  0.55961700  1
  K  K1  1  0.55289400  0.22120600  0.44038300  1
  U  U0  1  0.74270900  0.86488000  0.02342300  1
  U  U1  1  0.24270900  0.13512000  0.97657700  1
  Si  Si0  1  0.74119600  0.35215500  0.92797100  1
  Si  Si1  1  0.24119600  0.64784500  0.07202900  1
  O  O0  1  0.75777800  0.84427800  0.28903200  1
  O  O1  1  0.25777800  0.15572200  0.71096800  1
  O  O2  1  0.23377000  0.08760600  0.24577000  1
  O  O3  1  0.73377000  0.91239400  0.75423000  1
  O  O4  1  0.42271600  0.80492700  0.04210900  1
  O  O5  1  0.92271600  0.19507300  0.95789100  1
  O  O6  1  0.56758800  0.18608100  0.99583900  1
  O  O7  1  0.06758800  0.81391900  0.00416100  1
  O  O8  1  0.75523500  0.51686700  0.06456100  1
  O  O9  1  0.25523500  0.48313300  0.93543900  1
  O  O10  1  0.22087200  0.52410200  0.30693800  1
  O  O11  1  0.72087200  0.47589800  0.69306200  1
  O  O12  1  0.96624200  0.39374800  0.33334700  1
  O  O13  1  0.46624200  0.60625200  0.66665300  1
loop_
_geom_bond_atom_site_label_1
_geom_bond_atom_site_label_2
_geom_bond_distance
_geom_bond_site_symmetry_2
K0 O0 2.772666 1_455
K0 O3 2.884903 1_455
K0 O2 2.925495 1_565
K0 O10 3.000138 1_555
K0 O11 3.096043 1_455
K0 O13 3.154264 1_555
K0 O7 3.183385 1_556
K0 O9 3.220121 1_555
K0 O1 3.321835 1_565
K1 O1 2.772666 1_555
K1 O2 2.884903 1_555
K1 O3 2.925495 1_545
K1 O11 3.000138 1_555
K1 O10 3.096043 1_555
K1 O12 3.154264 1_555
K1 O6 3.183385 1_554
K1 O8 3.220121 1_555
K1 O0 3.321835 1_545
O0 U0 1.834866 1_555
O1 U1 1.834866 1_555
O2 U1 1.834867 1_554
O3 U0 1.834867 1_556
O4 Si1 1.641374 1_555
O4 U0 2.285346 1_555
O4 U1 2.509796 1_564
O5 Si0 1.641374 1_555
O5 U1 2.285346 1_655
O5 U0 2.509796 1_546
O6 Si0 1.648317 1_555
O6 U1 2.320172 1_555
O6 U0 2.463684 1_546
O7 Si1 1.648317 1_555
O7 U0 2.320172 1_455
O7 U1 2.463684 1_564
O8 Si0 1.640766 1_554
O8 U0 2.302049 1_555
O9 Si1 1.640766 1_556
O9 U1 2.302049 1_555
O10 Si1 1.659040 1_555
O10 O12 1.984983 1_455
O11 Si0 1.659040 1_555
O11 O13 1.984983 1_555
