# generated using pymatgen
data_Ba(ErSe2)2
_symmetry_space_group_name_H-M   'P 1'
_cell_length_a   4.16515094
_cell_length_b   12.77787874
_cell_length_c   15.03645584
_cell_angle_alpha   90.00000000
_cell_angle_beta   90.00000000
_cell_angle_gamma   90.00000000
_symmetry_Int_Tables_number   1
_chemical_formula_structural   Ba(ErSe2)2
_chemical_formula_sum   'Ba4 Er8 Se16'
_cell_volume   800.26714987
_cell_formula_units_Z   4
loop_
 _symmetry_equiv_pos_site_id
 _symmetry_equiv_pos_as_xyz
  1  'x, y, z'
loop_
 _atom_site_type_symbol
 _atom_site_label
 _atom_site_symmetry_multiplicity
 _atom_site_fract_x
 _atom_site_fract_y
 _atom_site_fract_z
 _atom_site_occupancy
  Ba  Ba0  1  0.25000000  0.75887860  0.33579586  1
  Ba  Ba1  1  0.25000000  0.25887860  0.16420414  1
  Ba  Ba2  1  0.75000000  0.24112140  0.66420414  1
  Ba  Ba3  1  0.75000000  0.74112140  0.83579586  1
  Er  Er0  1  0.25000000  0.43603908  0.39111625  1
  Er  Er1  1  0.25000000  0.93603908  0.10888375  1
  Er  Er2  1  0.75000000  0.56396092  0.60888375  1
  Er  Er3  1  0.75000000  0.06396092  0.89111625  1
  Er  Er4  1  0.25000000  0.42117385  0.90010105  1
  Er  Er5  1  0.25000000  0.92117385  0.59989895  1
  Er  Er6  1  0.75000000  0.57882615  0.09989895  1
  Er  Er7  1  0.75000000  0.07882615  0.40010105  1
  Se  Se0  1  0.25000000  0.20668121  0.84032432  1
  Se  Se1  1  0.25000000  0.70668121  0.65967568  1
  Se  Se2  1  0.75000000  0.79331879  0.15967568  1
  Se  Se3  1  0.75000000  0.29331879  0.34032432  1
  Se  Se4  1  0.25000000  0.12394823  0.52431796  1
  Se  Se5  1  0.25000000  0.62394823  0.97568204  1
  Se  Se6  1  0.75000000  0.87605177  0.47568204  1
  Se  Se7  1  0.75000000  0.37605177  0.02431796  1
  Se  Se8  1  0.25000000  0.52372450  0.21649141  1
  Se  Se9  1  0.25000000  0.02372450  0.28350859  1
  Se  Se10  1  0.75000000  0.47627550  0.78350859  1
  Se  Se11  1  0.75000000  0.97627550  0.71649141  1
  Se  Se12  1  0.25000000  0.41628278  0.57596719  1
  Se  Se13  1  0.25000000  0.91628278  0.92403281  1
  Se  Se14  1  0.75000000  0.58371722  0.42403281  1
  Se  Se15  1  0.75000000  0.08371722  0.07596719  1
loop_
_geom_bond_atom_site_label_1
_geom_bond_atom_site_label_2
_geom_bond_distance
_geom_bond_site_symmetry_2
Ba0 Se6 3.317086 1_455
Ba0 Se6 3.317086 1_555
Ba0 Se14 3.332708 1_455
Ba0 Se14 3.332708 1_555
Ba0 Se2 3.397627 1_555
Ba0 Se2 3.397627 1_455
Ba0 Se9 3.474296 1_565
Ba0 Se8 3.499540 1_555
Ba1 Se7 3.317086 1_455
Ba1 Se7 3.317086 1_555
Ba1 Se15 3.332708 1_555
Ba1 Se15 3.332708 1_455
Ba1 Se3 3.397627 1_555
Ba1 Se3 3.397627 1_455
Ba1 Se8 3.474296 1_555
Ba1 Se9 3.499540 1_555
Ba2 Se4 3.317086 1_655
Ba2 Se4 3.317086 1_555
Ba2 Se12 3.332708 1_555
Ba2 Se12 3.332708 1_655
Ba2 Se0 3.397627 1_555
Ba2 Se0 3.397627 1_655
Ba2 Se11 3.474296 1_545
Ba2 Se10 3.499540 1_555
Ba3 Se5 3.317086 1_655
Ba3 Se5 3.317086 1_555
Ba3 Se13 3.332708 1_655
Ba3 Se13 3.332708 1_555
Ba3 Se1 3.397627 1_655
Ba3 Se1 3.397627 1_555
Ba3 Se10 3.474296 1_555
Ba3 Se11 3.499540 1_555
Er0 Se12 2.790943 1_555
Er0 Se14 2.853579 1_555
Er0 Se14 2.853579 1_455
Er0 Se8 2.854799 1_555
Er0 Se3 2.871611 1_555
Er0 Se3 2.871611 1_455
Er1 Se13 2.790943 1_554
Er1 Se15 2.853579 1_465
Er1 Se15 2.853579 1_565
Er1 Se9 2.854799 1_565
Er1 Se2 2.871611 1_455
Er1 Se2 2.871611 1_555
Er2 Se14 2.790943 1_555
Er2 Se12 2.853579 1_555
Er2 Se12 2.853579 1_655
Er2 Se10 2.854799 1_555
Er2 Se1 2.871611 1_655
Er2 Se1 2.871611 1_555
Er3 Se15 2.790943 1_556
Er3 Se13 2.853579 1_645
Er3 Se13 2.853579 1_545
Er3 Se11 2.854799 1_545
Er3 Se0 2.871611 1_655
Er3 Se0 2.871611 1_555
Er4 Se10 2.811822 1_455
Er4 Se10 2.811822 1_555
Er4 Se5 2.829308 1_555
Er4 Se7 2.856249 1_556
Er4 Se7 2.856249 1_456
Er4 Se0 2.884383 1_555
Er5 Se11 2.811822 1_555
Er5 Se11 2.811822 1_455
Er5 Se4 2.829308 1_565
Er5 Se6 2.856249 1_555
Er5 Se6 2.856249 1_455
Er5 Se1 2.884383 1_555
Er6 Se8 2.811822 1_555
Er6 Se8 2.811822 1_655
Er6 Se7 2.829308 1_555
Er6 Se5 2.856249 1_554
Er6 Se5 2.856249 1_654
Er6 Se2 2.884383 1_555
Er7 Se9 2.811822 1_655
Er7 Se9 2.811822 1_555
Er7 Se6 2.829308 1_545
Er7 Se4 2.856249 1_555
Er7 Se4 2.856249 1_655
Er7 Se3 2.884383 1_555
