# generated using pymatgen
data_RbAgSe4
_symmetry_space_group_name_H-M   'P 1'
_cell_length_a   5.82104943
_cell_length_b   9.03619191
_cell_length_c   13.53565247
_cell_angle_alpha   90.00000000
_cell_angle_beta   90.00000000
_cell_angle_gamma   90.00000000
_symmetry_Int_Tables_number   1
_chemical_formula_structural   RbAgSe4
_chemical_formula_sum   'Rb4 Ag4 Se16'
_cell_volume   711.97694105
_cell_formula_units_Z   4
loop_
 _symmetry_equiv_pos_site_id
 _symmetry_equiv_pos_as_xyz
  1  'x, y, z'
loop_
 _atom_site_type_symbol
 _atom_site_label
 _atom_site_symmetry_multiplicity
 _atom_site_fract_x
 _atom_site_fract_y
 _atom_site_fract_z
 _atom_site_occupancy
  Rb  Rb0  1  0.16999503  0.44230474  0.16081778  1
  Rb  Rb1  1  0.66999503  0.05769526  0.83918222  1
  Rb  Rb2  1  0.83000497  0.94230474  0.33918222  1
  Rb  Rb3  1  0.33000497  0.55769526  0.66081778  1
  Ag  Ag0  1  0.96456771  0.86636065  0.06446936  1
  Ag  Ag1  1  0.46456771  0.63363935  0.93553064  1
  Ag  Ag2  1  0.03543229  0.36636065  0.43553064  1
  Ag  Ag3  1  0.53543229  0.13363935  0.56446936  1
  Se  Se0  1  0.87159641  0.31244357  0.61302043  1
  Se  Se1  1  0.37159641  0.18755643  0.38697957  1
  Se  Se2  1  0.12840359  0.81244357  0.88697957  1
  Se  Se3  1  0.62840359  0.68755643  0.11302043  1
  Se  Se4  1  0.13371074  0.13531737  0.67858903  1
  Se  Se5  1  0.63371074  0.36468263  0.32141097  1
  Se  Se6  1  0.86628926  0.63531737  0.82141097  1
  Se  Se7  1  0.36628926  0.86468263  0.17858903  1
  Se  Se8  1  0.81198964  0.13367402  0.10445840  1
  Se  Se9  1  0.31198964  0.36632598  0.89554160  1
  Se  Se10  1  0.18801036  0.63367402  0.39554160  1
  Se  Se11  1  0.68801036  0.86632598  0.60445840  1
  Se  Se12  1  0.42063376  0.07917579  0.07730110  1
  Se  Se13  1  0.92063376  0.42082421  0.92269890  1
  Se  Se14  1  0.57936624  0.57917579  0.42269890  1
  Se  Se15  1  0.07936624  0.92082421  0.57730110  1
loop_
_geom_bond_atom_site_label_1
_geom_bond_atom_site_label_2
_geom_bond_distance
_geom_bond_site_symmetry_2
Rb0 Se3 3.528500 1_555
Rb0 Se5 3.536011 1_555
Rb0 Se13 3.540197 1_454
Rb0 Se8 3.564062 1_455
Rb0 Se10 3.618773 1_555
Rb0 Se9 3.748011 1_554
Rb0 Se12 3.764770 1_555
Rb0 Se5 3.868118 1_455
Rb0 Se3 3.907548 1_455
Rb0 Se7 3.991314 1_555
Rb0 Se1 4.005922 1_555
Rb1 Se2 3.528500 1_645
Rb1 Se4 3.536011 1_655
Rb1 Se12 3.540197 1_556
Rb1 Se9 3.564062 1_555
Rb1 Se11 3.618773 1_545
Rb1 Se8 3.748011 1_556
Rb1 Se13 3.764770 1_555
Rb1 Se4 3.868118 1_555
Rb1 Se2 3.907548 1_545
Rb1 Se6 3.991314 1_545
Rb1 Se0 4.005922 1_555
Rb2 Se1 3.528500 1_565
Rb2 Se7 3.536011 1_555
Rb2 Se15 3.540197 1_655
Rb2 Se10 3.564062 1_655
Rb2 Se8 3.618773 1_565
Rb2 Se11 3.748011 1_555
Rb2 Se14 3.764770 1_555
Rb2 Se7 3.868118 1_655
Rb2 Se1 3.907548 1_665
Rb2 Se5 3.991314 1_565
Rb2 Se3 4.005922 1_555
Rb3 Se0 3.528500 1_455
Rb3 Se6 3.536011 1_455
Rb3 Se14 3.540197 1_555
Rb3 Se11 3.564062 1_555
Rb3 Se9 3.618773 1_555
Rb3 Se10 3.748011 1_555
Rb3 Se15 3.764770 1_555
Rb3 Se6 3.868118 1_555
Rb3 Se0 3.907548 1_555
Rb3 Se4 3.991314 1_555
Rb3 Se2 4.005922 1_555
Ag0 Se3 2.621367 1_555
Ag0 Se8 2.629911 1_565
Ag0 Se2 2.630328 1_654
Ag0 Se7 2.802603 1_655
Ag0 Se12 3.282700 1_665
Ag0 Rb2 3.861492 1_555
Ag0 Rb1 3.902356 1_564
Ag0 Rb0 4.220640 1_655
Ag1 Se2 2.621367 1_555
Ag1 Se9 2.629911 1_555
Ag1 Se3 2.630328 1_556
Ag1 Se6 2.802603 1_555
Ag1 Se13 3.282700 1_555
Ag1 Rb3 3.861492 1_555
Ag1 Rb0 3.902356 1_556
Ag1 Rb1 4.220640 1_565
Ag2 Se1 2.621367 1_555
Ag2 Se10 2.629911 1_555
Ag2 Se0 2.630328 1_455
Ag2 Se5 2.802603 1_455
Ag2 Se14 3.282700 1_455
Ag2 Rb0 3.861492 1_555
Ag2 Rb3 3.902356 1_555
Ag2 Rb2 4.220640 1_445
Ag3 Se0 2.621367 1_555
Ag3 Se11 2.629911 1_545
Ag3 Se1 2.630328 1_555
Ag3 Se4 2.802603 1_555
Ag3 Se15 3.282700 1_545
Ag3 Rb1 3.861492 1_555
Ag3 Rb2 3.902356 1_545
Ag3 Rb3 4.220640 1_555
Se0 Se4 2.382737 1_655
Se1 Se5 2.382737 1_555
Se2 Se6 2.382737 1_455
Se3 Se7 2.382737 1_555
Se10 Se14 2.359531 1_555
Se11 Se15 2.359531 1_655
Se12 Se8 2.359531 1_555
Se12 Se7 2.395064 1_545
Se13 Se9 2.359531 1_655
Se13 Se6 2.395064 1_555
Se14 Se5 2.395064 1_555
Se15 Se4 2.395064 1_565
