# generated using pymatgen
data_MnZnSe2
_symmetry_space_group_name_H-M   'P 1'
_cell_length_a   4.08490211
_cell_length_b   4.08490211
_cell_length_c   6.71876933
_cell_angle_alpha   90.00000000
_cell_angle_beta   90.00000000
_cell_angle_gamma   120.00000441
_symmetry_Int_Tables_number   1
_chemical_formula_structural   MnZnSe2
_chemical_formula_sum   'Mn1 Zn1 Se2'
_cell_volume   97.09204561
_cell_formula_units_Z   1
loop_
 _symmetry_equiv_pos_site_id
 _symmetry_equiv_pos_as_xyz
  1  'x, y, z'
loop_
 _atom_site_type_symbol
 _atom_site_label
 _atom_site_symmetry_multiplicity
 _atom_site_fract_x
 _atom_site_fract_y
 _atom_site_fract_z
 _atom_site_occupancy
  Mn  Mn0  1  0.33333300  0.66666700  0.49721351  1
  Zn  Zn0  1  0.66666700  0.33333300  -0.00071847  1
  Se  Se0  1  0.33333300  0.66666700  0.11773997  1
  Se  Se1  1  0.66666700  0.33333300  0.63376399  1
loop_
_geom_bond_atom_site_label_1
_geom_bond_atom_site_label_2
_geom_bond_distance
_geom_bond_site_symmetry_2
Mn0 Se1 2.530582 1_455
Mn0 Se1 2.530582 1_565
Mn0 Se1 2.530589 1_555
Mn0 Se0 2.549595 1_555
Se0 Zn0 2.489092 1_565
Se0 Zn0 2.489092 1_455
Se0 Zn0 2.489099 1_555
Se1 Zn0 2.455828 1_556
