# generated using pymatgen
data_Lu5Ga3
_symmetry_space_group_name_H-M   'P 1'
_cell_length_a   8.37428130
_cell_length_b   8.37428130
_cell_length_c   6.27029276
_cell_angle_alpha   90.00000000
_cell_angle_beta   90.00000000
_cell_angle_gamma   120.00000837
_symmetry_Int_Tables_number   1
_chemical_formula_structural   Lu5Ga3
_chemical_formula_sum   'Lu10 Ga6'
_cell_volume   380.81452414
_cell_formula_units_Z   2
loop_
 _symmetry_equiv_pos_site_id
 _symmetry_equiv_pos_as_xyz
  1  'x, y, z'
loop_
 _atom_site_type_symbol
 _atom_site_label
 _atom_site_symmetry_multiplicity
 _atom_site_fract_x
 _atom_site_fract_y
 _atom_site_fract_z
 _atom_site_occupancy
  Lu  Lu0  1  0.66666700  0.33333300  0.00000000  1
  Lu  Lu1  1  0.33333300  0.66666700  0.00000000  1
  Lu  Lu2  1  0.33333300  0.66666700  0.50000000  1
  Lu  Lu3  1  0.66666700  0.33333300  0.50000000  1
  Lu  Lu4  1  0.75646947  0.75646947  0.75000000  1
  Lu  Lu5  1  0.24353053  1.00000000  0.75000000  1
  Lu  Lu6  1  1.00000000  0.24353053  0.75000000  1
  Lu  Lu7  1  0.24353053  0.24353053  0.25000000  1
  Lu  Lu8  1  0.75646947  0.00000000  0.25000000  1
  Lu  Lu9  1  0.00000000  0.75646947  0.25000000  1
  Ga  Ga0  1  0.39967216  0.39967216  0.75000000  1
  Ga  Ga1  1  0.60032784  1.00000000  0.75000000  1
  Ga  Ga2  1  1.00000000  0.60032784  0.75000000  1
  Ga  Ga3  1  0.60032784  0.60032784  0.25000000  1
  Ga  Ga4  1  0.39967216  0.00000000  0.25000000  1
  Ga  Ga5  1  0.00000000  0.39967216  0.25000000  1
loop_
_geom_bond_atom_site_label_1
_geom_bond_atom_site_label_2
_geom_bond_distance
_geom_bond_site_symmetry_2
Ga0 Lu5 2.921563 1_545
Ga0 Lu6 2.921563 1_455
Ga0 Lu4 2.987921 1_555
Ga0 Lu1 3.001208 1_556
Ga0 Lu2 3.001208 1_555
Ga0 Lu3 3.001208 1_555
Ga0 Lu0 3.001208 1_556
Ga0 Lu7 3.396894 1_555
Ga0 Lu7 3.396894 1_556
Ga1 Lu6 2.921563 1_565
Ga1 Lu4 2.921563 1_555
Ga1 Lu5 2.987921 1_555
Ga1 Lu0 3.001201 1_566
Ga1 Lu3 3.001201 1_565
Ga1 Lu2 3.001203 1_555
Ga1 Lu1 3.001203 1_556
Ga1 Lu8 3.396895 1_566
Ga1 Lu8 3.396895 1_565
Ga2 Lu5 2.921563 1_655
Ga2 Lu4 2.921563 1_555
Ga2 Lu6 2.987921 1_555
Ga2 Lu1 3.001201 1_656
Ga2 Lu2 3.001201 1_655
Ga2 Lu0 3.001203 1_556
Ga2 Lu3 3.001203 1_555
Ga2 Lu9 3.396895 1_656
Ga2 Lu9 3.396895 1_655
Ga3 Lu8 2.921563 1_565
Ga3 Lu9 2.921563 1_655
Ga3 Lu7 2.987921 1_555
Ga3 Lu2 3.001208 1_555
Ga3 Lu3 3.001208 1_555
Ga3 Lu0 3.001208 1_555
Ga3 Lu1 3.001208 1_555
Ga3 Lu4 3.396894 1_554
Ga3 Lu4 3.396894 1_555
Ga4 Lu9 2.921563 1_545
Ga4 Lu7 2.921563 1_555
Ga4 Lu8 2.987921 1_555
Ga4 Lu1 3.001201 1_545
Ga4 Lu2 3.001201 1_545
Ga4 Lu3 3.001203 1_555
Ga4 Lu0 3.001203 1_555
Ga4 Lu5 3.396895 1_544
Ga4 Lu5 3.396895 1_545
Ga5 Lu8 2.921563 1_455
Ga5 Lu7 2.921563 1_555
Ga5 Lu9 2.987921 1_555
Ga5 Lu3 3.001201 1_455
Ga5 Lu0 3.001201 1_455
Ga5 Lu2 3.001203 1_555
Ga5 Lu1 3.001203 1_555
Ga5 Lu6 3.396895 1_455
Ga5 Lu6 3.396895 1_454
