# generated using pymatgen
data_Ga3Cu3SiSe8
_symmetry_space_group_name_H-M   'P 1'
_cell_length_a   5.67901800
_cell_length_b   5.67901800
_cell_length_c   10.76999900
_cell_angle_alpha   90.00000000
_cell_angle_beta   90.00000000
_cell_angle_gamma   90.00000000
_symmetry_Int_Tables_number   1
_chemical_formula_structural   Ga3Cu3SiSe8
_chemical_formula_sum   'Ga3 Cu3 Si1 Se8'
_cell_volume   347.34588118
_cell_formula_units_Z   1
loop_
 _symmetry_equiv_pos_site_id
 _symmetry_equiv_pos_as_xyz
  1  'x, y, z'
loop_
 _atom_site_type_symbol
 _atom_site_label
 _atom_site_symmetry_multiplicity
 _atom_site_fract_x
 _atom_site_fract_y
 _atom_site_fract_z
 _atom_site_occupancy
  Ga  Ga0  1  0.50000000  0.00000000  0.25885800  1
  Ga  Ga1  1  0.00000000  0.50000000  0.74114200  1
  Ga  Ga2  1  0.50000000  0.50000000  0.00000000  1
  Cu  Cu0  1  0.00000000  0.50000000  0.25721700  1
  Cu  Cu1  1  0.50000000  0.00000000  0.74278300  1
  Cu  Cu2  1  0.00000000  0.00000000  0.00000000  1
  Si  Si0  1  0.00000000  0.00000000  0.50000000  1
  Se  Se0  1  0.75499500  0.24966900  0.38935300  1
  Se  Se1  1  0.25085100  0.75377000  0.87097500  1
  Se  Se2  1  0.24500500  0.75033100  0.38935300  1
  Se  Se3  1  0.74914900  0.24623000  0.87097500  1
  Se  Se4  1  0.24623000  0.25085100  0.12902500  1
  Se  Se5  1  0.75033100  0.75499500  0.61064700  1
  Se  Se6  1  0.75377000  0.74914900  0.12902500  1
  Se  Se7  1  0.24966900  0.24500500  0.61064700  1
loop_
_geom_bond_atom_site_label_1
_geom_bond_atom_site_label_2
_geom_bond_distance
_geom_bond_site_symmetry_2
Ga0 Se4 2.462042 1_555
Ga0 Se6 2.462042 1_545
Ga0 Se2 2.466305 1_545
Ga0 Se0 2.466305 1_555
Ga1 Se3 2.462042 1_455
Ga1 Se1 2.462042 1_555
Ga1 Se7 2.466305 1_555
Ga1 Se5 2.466305 1_455
Ga2 Se4 2.451519 1_555
Ga2 Se6 2.451519 1_555
Ga2 Se3 2.451519 1_554
Ga2 Se1 2.451519 1_554
Cu0 Se6 2.421467 1_455
Cu0 Se4 2.421467 1_555
Cu0 Se0 2.445860 1_455
Cu0 Se2 2.445860 1_555
Cu1 Se3 2.421467 1_555
Cu1 Se1 2.421467 1_545
Cu1 Se7 2.445860 1_555
Cu1 Se5 2.445860 1_545
Cu2 Se6 2.432242 1_445
Cu2 Se4 2.432242 1_555
Cu2 Se1 2.432242 1_544
Cu2 Se3 2.432242 1_454
Se0 Si0 2.316550 1_655
Se2 Si0 2.316550 1_565
Se5 Si0 2.316550 1_665
Se7 Si0 2.316550 1_555
