# generated using pymatgen
data_Zr2As3S
_symmetry_space_group_name_H-M   'P 1'
_cell_length_a   3.78065900
_cell_length_b   3.78065900
_cell_length_c   8.02628700
_cell_angle_alpha   90.00000000
_cell_angle_beta   90.00000000
_cell_angle_gamma   90.00000000
_symmetry_Int_Tables_number   1
_chemical_formula_structural   Zr2As3S
_chemical_formula_sum   'Zr2 As3 S1'
_cell_volume   114.72278994
_cell_formula_units_Z   1
loop_
 _symmetry_equiv_pos_site_id
 _symmetry_equiv_pos_as_xyz
  1  'x, y, z'
loop_
 _atom_site_type_symbol
 _atom_site_label
 _atom_site_symmetry_multiplicity
 _atom_site_fract_x
 _atom_site_fract_y
 _atom_site_fract_z
 _atom_site_occupancy
  Zr  Zr0  1  0.50000000  0.50000000  0.72860100  1
  Zr  Zr1  1  0.00000000  0.00000000  0.27023900  1
  As  As0  1  0.50000000  0.00000000  0.99856100  1
  As  As1  1  0.00000000  0.50000000  0.99856100  1
  As  As2  1  0.50000000  0.50000000  0.37888700  1
  S  S0  1  0.00000000  0.00000000  0.62515000  1
loop_
_geom_bond_atom_site_label_1
_geom_bond_atom_site_label_2
_geom_bond_distance
_geom_bond_site_symmetry_2
As0 As1 2.673330 1_555
As0 As1 2.673330 1_545
As0 As1 2.673330 1_645
As0 As1 2.673330 1_655
As0 Zr0 2.875459 1_545
As0 Zr0 2.875459 1_555
As0 Zr1 2.885864 1_556
As0 Zr1 2.885864 1_656
As1 Zr0 2.875459 1_455
As1 Zr0 2.875459 1_555
As1 Zr1 2.885864 1_556
As1 Zr1 2.885864 1_566
As2 Zr0 2.806905 1_555
As2 Zr1 2.811965 1_565
As2 Zr1 2.811965 1_655
As2 Zr1 2.811965 1_665
As2 Zr1 2.811965 1_555
S0 Zr0 2.799310 1_445
S0 Zr0 2.799310 1_545
S0 Zr0 2.799310 1_455
S0 Zr0 2.799310 1_555
S0 Zr1 2.848618 1_555
