# generated using pymatgen
data_ZrSn
_symmetry_space_group_name_H-M   'P 1'
_cell_length_a   5.29434000
_cell_length_b   5.39524600
_cell_length_c   6.53684300
_cell_angle_alpha   90.00000000
_cell_angle_beta   90.00000000
_cell_angle_gamma   90.00000000
_symmetry_Int_Tables_number   1
_chemical_formula_structural   ZrSn
_chemical_formula_sum   'Zr4 Sn4'
_cell_volume   186.72012688
_cell_formula_units_Z   4
loop_
 _symmetry_equiv_pos_site_id
 _symmetry_equiv_pos_as_xyz
  1  'x, y, z'
loop_
 _atom_site_type_symbol
 _atom_site_label
 _atom_site_symmetry_multiplicity
 _atom_site_fract_x
 _atom_site_fract_y
 _atom_site_fract_z
 _atom_site_occupancy
  Zr  Zr0  1  0.00000000  0.53268200  0.24127100  1
  Zr  Zr1  1  0.00000000  0.03746300  0.50000000  1
  Zr  Zr2  1  0.00000000  0.53268200  0.75872900  1
  Zr  Zr3  1  0.50000000  0.62924200  0.50000000  1
  Sn  Sn0  1  0.00000000  0.03321100  0.00000000  1
  Sn  Sn1  1  0.50000000  0.62917900  0.00000000  1
  Sn  Sn2  1  0.50000000  0.13610500  0.26343300  1
  Sn  Sn3  1  0.50000000  0.13610500  0.73656700  1
loop_
_geom_bond_atom_site_label_1
_geom_bond_atom_site_label_2
_geom_bond_distance
_geom_bond_site_symmetry_2
Zr0 Zr2 3.154301 1_554
Zr0 Zr1 3.162130 1_555
Zr0 Zr3 3.184228 1_455
Zr0 Zr3 3.184228 1_555
Zr0 Zr1 3.205839 1_565
Zr0 Zr2 3.382542 1_555
Zr1 Zr2 3.162130 1_555
Zr1 Zr2 3.205839 1_545
Zr2 Zr3 3.184228 1_455
Zr2 Zr3 3.184228 1_555
Sn0 Zr0 3.122368 1_555
Sn0 Zr2 3.122368 1_554
Sn0 Zr0 3.127296 1_545
Sn0 Zr2 3.127296 1_544
Sn0 Zr1 3.268502 1_554
Sn0 Zr1 3.268502 1_555
Sn1 Zr0 3.125054 1_555
Sn1 Zr0 3.125054 1_655
Sn1 Zr2 3.125054 1_554
Sn1 Zr2 3.125054 1_654
Sn1 Zr3 3.268422 1_555
Sn1 Zr3 3.268422 1_554
Sn2 Zr3 3.077357 1_555
Sn2 Zr1 3.111607 1_555
Sn2 Zr1 3.111607 1_655
Sn2 Zr3 3.141603 1_545
Sn2 Zr0 3.406834 1_555
Sn2 Zr0 3.406834 1_655
Sn3 Zr3 3.077357 1_555
Sn3 Zr1 3.111607 1_555
Sn3 Zr1 3.111607 1_655
Sn3 Zr3 3.141603 1_545
Sn3 Zr2 3.406834 1_655
Sn3 Zr2 3.406834 1_555
