# generated using pymatgen
data_RbAlCu(PO4)2
_symmetry_space_group_name_H-M   'P 1'
_cell_length_a   14.21725300
_cell_length_b   5.12947500
_cell_length_c   9.46424466
_cell_angle_alpha   79.79166085
_cell_angle_beta   90.00000000
_cell_angle_gamma   90.00000000
_symmetry_Int_Tables_number   1
_chemical_formula_structural   RbAlCu(PO4)2
_chemical_formula_sum   'Rb4 Al4 Cu4 P8 O32'
_cell_volume   679.27340732
_cell_formula_units_Z   4
loop_
 _symmetry_equiv_pos_site_id
 _symmetry_equiv_pos_as_xyz
  1  'x, y, z'
loop_
 _atom_site_type_symbol
 _atom_site_label
 _atom_site_symmetry_multiplicity
 _atom_site_fract_x
 _atom_site_fract_y
 _atom_site_fract_z
 _atom_site_occupancy
  Rb  Rb0  1  0.17400100  0.78653600  0.78695200  1
  Rb  Rb1  1  0.67400100  0.21346400  0.71304800  1
  Rb  Rb2  1  0.82599900  0.21346400  0.21304800  1
  Rb  Rb3  1  0.32599900  0.78653600  0.28695200  1
  Al  Al0  1  0.37031400  0.24565800  0.61108400  1
  Al  Al1  1  0.87031400  0.75434200  0.88891600  1
  Al  Al2  1  0.62968600  0.75434200  0.38891600  1
  Al  Al3  1  0.12968600  0.24565800  0.11108400  1
  Cu  Cu0  1  0.45779500  0.76046500  0.95044100  1
  Cu  Cu1  1  0.95779500  0.23953500  0.54955900  1
  Cu  Cu2  1  0.54220500  0.23953500  0.04955900  1
  Cu  Cu3  1  0.04220500  0.76046500  0.45044100  1
  P  P0  1  0.32813300  0.27311700  0.95050900  1
  P  P1  1  0.82813300  0.72688300  0.54949100  1
  P  P2  1  0.67186700  0.72688300  0.04949100  1
  P  P3  1  0.17186700  0.27311700  0.45050900  1
  P  P4  1  0.48751400  0.72088000  0.66447800  1
  P  P5  1  0.98751400  0.27912000  0.83552200  1
  P  P6  1  0.51248600  0.27912000  0.33552200  1
  P  P7  1  0.01248600  0.72088000  0.16447800  1
  O  O0  1  0.42205400  0.23020600  0.42481900  1
  O  O1  1  0.92205400  0.76979400  0.07518100  1
  O  O2  1  0.57794600  0.76979400  0.57518100  1
  O  O3  1  0.07794600  0.23020600  0.92481900  1
  O  O4  1  0.40949200  0.58701000  0.58765500  1
  O  O5  1  0.90949200  0.41299000  0.91234500  1
  O  O6  1  0.59050800  0.41299000  0.41234500  1
  O  O7  1  0.09050800  0.58701000  0.08765500  1
  O  O8  1  0.33984200  0.56479700  0.97011900  1
  O  O9  1  0.83984200  0.43520300  0.52988100  1
  O  O10  1  0.66015800  0.43520300  0.02988100  1
  O  O11  1  0.16015800  0.56479700  0.47011900  1
  O  O12  1  0.31149700  0.25093100  0.79227100  1
  O  O13  1  0.81149700  0.74906900  0.70772900  1
  O  O14  1  0.68850300  0.74906900  0.20772900  1
  O  O15  1  0.18850300  0.25093100  0.29227100  1
  O  O16  1  0.51039200  0.54870000  0.81275700  1
  O  O17  1  0.01039200  0.45130000  0.68724300  1
  O  O18  1  0.48960800  0.45130000  0.18724300  1
  O  O19  1  0.98960800  0.54870000  0.31275700  1
  O  O20  1  0.44902900  0.98904900  0.69619500  1
  O  O21  1  0.94902900  0.01095100  0.80380500  1
  O  O22  1  0.55097100  0.01095100  0.30380500  1
  O  O23  1  0.05097100  0.98904900  0.19619500  1
  O  O24  1  0.41404200  0.09513400  0.01548600  1
  O  O25  1  0.91404200  0.90486600  0.48451400  1
  O  O26  1  0.58595800  0.90486600  0.98451400  1
  O  O27  1  0.08595800  0.09513400  0.51548600  1
  O  O28  1  0.25840800  0.15834700  0.54102900  1
  O  O29  1  0.75840800  0.84165300  0.95897100  1
  O  O30  1  0.74159200  0.84165300  0.45897100  1
  O  O31  1  0.24159200  0.15834700  0.04102900  1
loop_
_geom_bond_atom_site_label_1
_geom_bond_atom_site_label_2
_geom_bond_distance
_geom_bond_site_symmetry_2
Al0 O20 1.804994 1_545
Al0 O28 1.810163 1_555
Al0 O4 1.813188 1_555
Al0 O12 1.912318 1_555
Al0 O0 1.924730 1_555
Al1 O21 1.804994 1_565
Al1 O29 1.810163 1_555
Al1 O5 1.813188 1_555
Al1 O13 1.912318 1_555
Al1 O1 1.924730 1_556
Al2 O22 1.804994 1_565
Al2 O30 1.810163 1_555
Al2 O6 1.813188 1_555
Al2 O14 1.912318 1_555
Al2 O2 1.924730 1_555
Al3 O23 1.804994 1_545
Al3 O31 1.810163 1_555
Al3 O7 1.813188 1_555
Al3 O15 1.912318 1_555
Al3 O3 1.924730 1_554
Cu0 O8 1.946281 1_555
Cu0 O16 1.984648 1_555
Cu0 O26 2.014308 1_555
Cu0 O24 2.021750 1_566
Cu0 O20 2.486021 1_555
Cu0 O18 2.546071 1_556
Cu1 O9 1.946281 1_555
Cu1 O17 1.984648 1_655
Cu1 O27 2.014308 1_655
Cu1 O25 2.021750 1_545
Cu1 O21 2.486021 1_555
Cu1 O19 2.546071 1_555
Cu2 O10 1.946281 1_555
Cu2 O18 1.984648 1_555
Cu2 O24 2.014308 1_555
Cu2 O26 2.021750 1_544
Cu2 O22 2.486021 1_555
Cu2 O16 2.546071 1_554
Cu3 O11 1.946281 1_555
Cu3 O19 1.984648 1_455
Cu3 O25 2.014308 1_455
Cu3 O27 2.021750 1_565
Cu3 O23 2.486021 1_555
Cu3 O17 2.546071 1_555
O0 P6 1.534615 1_555
O0 Rb3 3.130379 1_545
O0 Rb3 3.223533 1_555
O1 P7 1.534615 1_655
O1 Rb2 3.130379 1_565
O1 Rb2 3.223533 1_555
O2 P4 1.534615 1_555
O2 Rb1 3.130379 1_565
O2 Rb1 3.223533 1_555
O3 P5 1.534615 1_455
O3 Rb0 3.130379 1_545
O3 Rb0 3.223533 1_555
O4 P4 1.551641 1_555
O4 Rb3 3.086004 1_555
O5 P5 1.551641 1_555
O5 Rb2 3.086004 1_556
O6 P6 1.551641 1_555
O6 Rb1 3.086004 1_555
O7 P7 1.551641 1_555
O7 Rb0 3.086004 1_554
O8 P0 1.548901 1_555
O8 Rb0 3.026415 1_555
O8 Rb3 3.396004 1_556
O9 P1 1.548901 1_555
O9 Rb1 3.026415 1_555
O9 Rb2 3.396004 1_555
O10 P2 1.548901 1_555
O10 Rb2 3.026415 1_555
O10 Rb1 3.396004 1_554
O11 P3 1.548901 1_555
O11 Rb3 3.026415 1_555
O11 Rb0 3.396004 1_555
O12 P0 1.540168 1_555
O12 Rb0 3.088811 1_545
O12 Rb0 3.364947 1_555
O13 P1 1.540168 1_555
O13 Rb1 3.088811 1_565
O13 Rb1 3.364947 1_555
O14 P2 1.540168 1_555
O14 Rb2 3.088811 1_565
O14 Rb2 3.364947 1_555
O15 P3 1.540168 1_555
O15 Rb3 3.088811 1_545
O15 Rb3 3.364947 1_555
O16 P4 1.554314 1_555
O16 Rb1 3.135805 1_555
O17 P5 1.554314 1_455
O17 Rb0 3.135805 1_555
O18 P6 1.554314 1_555
O18 Rb3 3.135805 1_555
O19 P7 1.554314 1_655
O19 Rb2 3.135805 1_555
O20 P4 1.558211 1_555
O20 Rb1 3.412612 1_565
O21 P5 1.558211 1_555
O21 Rb0 3.412612 1_645
O22 P6 1.558211 1_555
O22 Rb3 3.412612 1_545
O23 P7 1.558211 1_555
O23 Rb2 3.412612 1_465
O24 P0 1.582548 1_554
O24 Rb3 3.038402 1_545
O25 P1 1.582548 1_555
O25 Rb2 3.038402 1_565
O26 P2 1.582548 1_556
O26 Rb1 3.038402 1_565
O27 P3 1.582548 1_555
O27 Rb0 3.038402 1_545
O28 P3 1.554212 1_555
O28 Rb0 2.986839 1_545
O28 Rb3 3.459587 1_545
O29 P2 1.554212 1_556
O29 Rb1 2.986839 1_565
O29 Rb2 3.459587 1_566
O30 P1 1.554212 1_555
O30 Rb2 2.986839 1_565
O30 Rb1 3.459587 1_565
O31 P0 1.554212 1_554
O31 Rb3 2.986839 1_545
O31 Rb0 3.459587 1_544
