# generated using pymatgen
data_Sr3Ca5Mn7FeO20
_symmetry_space_group_name_H-M   'P 1'
_cell_length_a   10.99155136
_cell_length_b   11.15685942
_cell_length_c   17.47781824
_cell_angle_alpha   108.56469500
_cell_angle_beta   108.32062850
_cell_angle_gamma   90.08701515
_symmetry_Int_Tables_number   1
_chemical_formula_structural   Sr3Ca5Mn7FeO20
_chemical_formula_sum   'Sr12 Ca20 Mn28 Fe4 O80'
_cell_volume   1916.47946001
_cell_formula_units_Z   4
loop_
 _symmetry_equiv_pos_site_id
 _symmetry_equiv_pos_as_xyz
  1  'x, y, z'
loop_
 _atom_site_type_symbol
 _atom_site_label
 _atom_site_symmetry_multiplicity
 _atom_site_fract_x
 _atom_site_fract_y
 _atom_site_fract_z
 _atom_site_occupancy
  Sr  Sr0  1  0.30933300  0.55960000  0.60956900  1
  Sr  Sr1  1  0.80614800  0.05765300  0.60789400  1
  Sr  Sr2  1  0.80852700  0.55884900  0.61021700  1
  Sr  Sr3  1  0.19663500  0.43858500  0.38697100  1
  Sr  Sr4  1  0.20053700  0.44216400  0.89250700  1
  Sr  Sr5  1  0.69582600  0.93696800  0.38616700  1
  Sr  Sr6  1  0.05946400  0.29919200  0.60890100  1
  Sr  Sr7  1  0.05885000  0.80130600  0.60973200  1
  Sr  Sr8  1  0.55908400  0.30037200  0.61051600  1
  Sr  Sr9  1  0.45014000  0.20051600  0.88999700  1
  Sr  Sr10  1  0.94644500  0.19751600  0.38630700  1
  Sr  Sr11  1  0.94907500  0.20030200  0.89128700  1
  Ca  Ca0  1  0.30631700  0.06458300  0.10841900  1
  Ca  Ca1  1  0.30672000  0.05968700  0.60361200  1
  Ca  Ca2  1  0.30506500  0.56721800  0.10891400  1
  Ca  Ca3  1  0.80330600  0.06222000  0.10491500  1
  Ca  Ca4  1  0.80744300  0.56268500  0.10839900  1
  Ca  Ca5  1  0.20191000  0.93593600  0.39187200  1
  Ca  Ca6  1  0.20051400  0.93932800  0.89687400  1
  Ca  Ca7  1  0.70008300  0.43721600  0.39211000  1
  Ca  Ca8  1  0.70100700  0.43809700  0.89666900  1
  Ca  Ca9  1  0.69997300  0.93744700  0.89428300  1
  Ca  Ca10  1  0.05579700  0.29197800  0.10707600  1
  Ca  Ca11  1  0.05545700  0.79320200  0.10705800  1
  Ca  Ca12  1  0.55612600  0.29403400  0.10804400  1
  Ca  Ca13  1  0.55553900  0.79216900  0.10590400  1
  Ca  Ca14  1  0.55853200  0.79445900  0.60516300  1
  Ca  Ca15  1  0.45129500  0.20581900  0.39222000  1
  Ca  Ca16  1  0.44799500  0.70606900  0.39285300  1
  Ca  Ca17  1  0.45132700  0.70926100  0.89608400  1
  Ca  Ca18  1  0.95037100  0.70477100  0.39219900  1
  Ca  Ca19  1  0.94993000  0.70969500  0.89752700  1
  Mn  Mn0  1  0.00496700  0.99830900  0.49786900  1
  Mn  Mn1  1  0.00257000  0.49990000  0.49727800  1
  Mn  Mn2  1  0.50317300  0.99869400  0.49831900  1
  Mn  Mn3  1  0.50765800  0.50155300  0.00279900  1
  Mn  Mn4  1  0.50299300  0.49883600  0.49629900  1
  Mn  Mn5  1  0.25827900  0.25217700  0.00350100  1
  Mn  Mn6  1  0.25410500  0.24683100  0.49685900  1
  Mn  Mn7  1  0.25769700  0.75320800  0.00243700  1
  Mn  Mn8  1  0.25512000  0.75112700  0.49820200  1
  Mn  Mn9  1  0.75698000  0.25188700  0.00296000  1
  Mn  Mn10  1  0.75216800  0.24900400  0.49700900  1
  Mn  Mn11  1  0.75189300  0.74626100  0.49587300  1
  Mn  Mn12  1  0.11057900  0.09038900  0.24618600  1
  Mn  Mn13  1  0.11650000  0.09106500  0.75249000  1
  Mn  Mn14  1  0.11049700  0.59953000  0.24824200  1
  Mn  Mn15  1  0.11424400  0.60361600  0.75472700  1
  Mn  Mn16  1  0.60410500  0.09670900  0.24593000  1
  Mn  Mn17  1  0.60797300  0.09226600  0.74932700  1
  Mn  Mn18  1  0.60589000  0.59157400  0.24815800  1
  Mn  Mn19  1  0.61343400  0.60542700  0.75497100  1
  Mn  Mn20  1  0.35911800  0.40427900  0.24708600  1
  Mn  Mn21  1  0.36791300  0.40608500  0.75286900  1
  Mn  Mn22  1  0.35506700  0.90209900  0.24865200  1
  Mn  Mn23  1  0.36499300  0.90135500  0.75061700  1
  Mn  Mn24  1  0.85321300  0.40746400  0.24774600  1
  Mn  Mn25  1  0.86023500  0.41140000  0.75636400  1
  Mn  Mn26  1  0.86038000  0.89789000  0.24450700  1
  Mn  Mn27  1  0.85704900  0.89904400  0.75149100  1
  Fe  Fe0  1  0.00723900  0.00040100  0.00264100  1
  Fe  Fe1  1  0.00745200  0.50281400  0.00389600  1
  Fe  Fe2  1  0.50647100  0.00151300  0.00215200  1
  Fe  Fe3  1  0.75621900  0.74962500  0.00119500  1
  O  O0  1  0.12833300  0.11815500  0.49180600  1
  O  O1  1  0.13037600  0.12310600  0.99475100  1
  O  O2  1  0.12195000  0.62483700  0.48976500  1
  O  O3  1  0.12629500  0.62835100  0.99156800  1
  O  O4  1  0.61984600  0.12151100  0.48856000  1
  O  O5  1  0.63052800  0.12297000  0.99401000  1
  O  O6  1  0.62175100  0.61872100  0.48741300  1
  O  O7  1  0.62399500  0.61897000  0.99098000  1
  O  O8  1  0.13990400  0.38033000  0.01626100  1
  O  O9  1  0.13077300  0.37617300  0.50385300  1
  O  O10  1  0.13712600  0.87980900  0.01128800  1
  O  O11  1  0.13409400  0.87809200  0.50277900  1
  O  O12  1  0.64043600  0.38018600  0.01515300  1
  O  O13  1  0.62894900  0.37544800  0.50058900  1
  O  O14  1  0.63430300  0.87864000  0.01309200  1
  O  O15  1  0.62661200  0.87147100  0.50374000  1
  O  O16  1  0.37173200  0.11599400  0.48804600  1
  O  O17  1  0.37315600  0.12010100  0.99171200  1
  O  O18  1  0.37862300  0.62542300  0.49231000  1
  O  O19  1  0.37812600  0.62787100  0.99453400  1
  O  O20  1  0.87533600  0.12091300  0.49408000  1
  O  O21  1  0.87474800  0.11904600  0.99415100  1
  O  O22  1  0.87175200  0.61778400  0.48743400  1
  O  O23  1  0.87219100  0.61574300  0.98725500  1
  O  O24  1  0.38806200  0.38621500  0.01624100  1
  O  O25  1  0.38172000  0.37554400  0.50215500  1
  O  O26  1  0.38406500  0.88343000  0.01259900  1
  O  O27  1  0.38418200  0.88164700  0.51075000  1
  O  O28  1  0.88549800  0.38130000  0.01448200  1
  O  O29  1  0.87776200  0.37828900  0.50167000  1
  O  O30  1  0.88787800  0.88271000  0.01415200  1
  O  O31  1  0.88086200  0.87349400  0.50134800  1
  O  O32  1  0.08831000  0.09304100  0.13468800  1
  O  O33  1  0.08169800  0.07638300  0.63601700  1
  O  O34  1  0.08066300  0.59894300  0.13077300  1
  O  O35  1  0.07061200  0.58395600  0.63655300  1
  O  O36  1  0.57600300  0.09567900  0.13250200  1
  O  O37  1  0.57564800  0.08180800  0.63136700  1
  O  O38  1  0.58126300  0.59405400  0.13566400  1
  O  O39  1  0.57482900  0.58705200  0.63718200  1
  O  O40  1  0.43724700  0.40952400  0.36079200  1
  O  O41  1  0.44702100  0.41427400  0.86959000  1
  O  O42  1  0.43523100  0.90701400  0.36444100  1
  O  O43  1  0.45375100  0.91241600  0.86756000  1
  O  O44  1  0.93592100  0.41448700  0.36035400  1
  O  O45  1  0.94645100  0.41188300  0.86915900  1
  O  O46  1  0.93970800  0.91212100  0.36050000  1
  O  O47  1  0.94567700  0.91075400  0.86833000  1
  O  O48  1  0.33687100  0.29049100  0.13604200  1
  O  O49  1  0.32827100  0.29797700  0.63555000  1
  O  O50  1  0.32909300  0.79261600  0.13267000  1
  O  O51  1  0.32277100  0.79825000  0.63332700  1
  O  O52  1  0.82907500  0.29265500  0.13546600  1
  O  O53  1  0.82259000  0.31059700  0.63946600  1
  O  O54  1  0.83144300  0.78381800  0.13246600  1
  O  O55  1  0.81787600  0.80084600  0.63417200  1
  O  O56  1  0.18845200  0.19437600  0.36106600  1
  O  O57  1  0.19205400  0.20468300  0.86708200  1
  O  O58  1  0.19902700  0.70702700  0.36889800  1
  O  O59  1  0.20363000  0.71253400  0.87110100  1
  O  O60  1  0.68592400  0.19864400  0.36118200  1
  O  O61  1  0.69044200  0.20920400  0.86827500  1
  O  O62  1  0.69002700  0.69597600  0.36157200  1
  O  O63  1  0.69892200  0.71550600  0.86898200  1
  O  O64  1  0.42621100  0.07148000  0.24935300  1
  O  O65  1  0.42294900  0.06574300  0.74283100  1
  O  O66  1  0.42658200  0.57649600  0.24914800  1
  O  O67  1  0.43889200  0.57999700  0.75914500  1
  O  O68  1  0.92864100  0.06299400  0.23878600  1
  O  O69  1  0.93686600  0.05916700  0.74987700  1
  O  O70  1  0.92323400  0.57091700  0.24942200  1
  O  O71  1  0.93743300  0.57864800  0.76138800  1
  O  O72  1  0.17927500  0.42424200  0.24032200  1
  O  O73  1  0.18953500  0.44009200  0.75131700  1
  O  O74  1  0.17311900  0.92062900  0.24758500  1
  O  O75  1  0.18889500  0.92776600  0.76014400  1
  O  O76  1  0.67027900  0.42089400  0.24823100  1
  O  O77  1  0.68434800  0.43768100  0.76029500  1
  O  O78  1  0.68005200  0.92963200  0.24002700  1
  O  O79  1  0.67727700  0.92152600  0.75189500  1
loop_
_geom_bond_atom_site_label_1
_geom_bond_atom_site_label_2
_geom_bond_distance
_geom_bond_site_symmetry_2
Ca0 O64 2.376618 1_555
Ca0 O48 2.412278 1_555
Ca0 O10 2.522959 1_545
Ca0 O26 2.523797 1_545
Ca0 O1 2.554897 1_554
Ca0 O32 2.579666 1_555
Ca0 O17 2.613299 1_554
Ca0 O36 2.864247 1_555
Ca1 O65 2.344812 1_555
Ca1 O27 2.475045 1_545
Ca1 O49 2.530947 1_555
Ca1 O11 2.534449 1_545
Ca1 O0 2.548617 1_555
Ca1 O16 2.588246 1_555
Ca1 O33 2.699586 1_555
Ca1 O37 2.837936 1_555
Ca2 O66 2.362625 1_555
Ca2 O50 2.414587 1_555
Ca2 O8 2.501177 1_555
Ca2 O24 2.526971 1_555
Ca2 O34 2.619915 1_555
Ca2 O3 2.625624 1_554
Ca2 O19 2.639748 1_554
Ca2 O38 2.922394 1_555
Ca3 O68 2.309363 1_555
Ca3 O52 2.450228 1_555
Ca3 O14 2.498508 1_545
Ca3 O30 2.510253 1_545
Ca3 O5 2.519821 1_554
Ca3 O21 2.549913 1_554
Ca3 O36 2.694334 1_555
Ca3 O32 3.010053 1_655
Ca4 O70 2.363632 1_555
Ca4 O54 2.366603 1_555
Ca4 O12 2.483227 1_555
Ca4 O28 2.510227 1_555
Ca4 O7 2.625781 1_554
Ca4 O23 2.661604 1_554
Ca4 O38 2.677935 1_555
Ca4 O34 2.914196 1_655
Ca5 O74 2.390145 1_555
Ca5 O58 2.454271 1_555
Ca5 O16 2.492236 1_565
Ca5 O11 2.536338 1_555
Ca5 O0 2.543579 1_565
Ca5 O27 2.624070 1_555
Ca5 O42 2.754618 1_555
Ca5 O46 2.754753 1_455
Ca6 O75 2.314219 1_555
Ca6 O59 2.427086 1_555
Ca6 O17 2.509660 1_565
Ca6 O1 2.515011 1_565
Ca6 O10 2.577839 1_556
Ca6 O26 2.606130 1_556
Ca6 O47 2.685876 1_455
Ca7 O76 2.377917 1_555
Ca7 O22 2.503916 1_555
Ca7 O29 2.523397 1_555
Ca7 O6 2.525005 1_555
Ca7 O60 2.535910 1_555
Ca7 O13 2.538354 1_555
Ca7 O40 2.763461 1_555
Ca7 O44 2.812271 1_555
Ca8 O77 2.330943 1_555
Ca8 O61 2.436634 1_555
Ca8 O23 2.468399 1_555
Ca8 O7 2.504024 1_555
Ca8 O12 2.620398 1_556
Ca8 O28 2.638814 1_556
Ca8 O41 2.678664 1_555
Ca8 O45 2.885001 1_555
Ca9 O79 2.369634 1_555
Ca9 O63 2.372034 1_555
Ca9 O5 2.539484 1_565
Ca9 O21 2.543699 1_565
Ca9 O43 2.596251 1_555
Ca9 O14 2.659285 1_556
Ca9 O30 2.669485 1_556
Ca9 O47 2.876563 1_555
Ca10 O72 2.293847 1_555
Ca10 O32 2.421338 1_555
Ca10 O28 2.498828 1_455
Ca10 O8 2.502325 1_555
Ca10 O21 2.583114 1_454
Ca10 O1 2.595584 1_554
Ca10 O52 2.689145 1_455
Ca10 O48 2.970427 1_555
Ca11 O34 2.333983 1_555
Ca11 O74 2.345273 1_555
Ca11 O30 2.486878 1_455
Ca11 O10 2.552077 1_555
Ca11 O3 2.586860 1_554
Ca11 O54 2.643317 1_455
Ca11 O23 2.656789 1_454
Ca11 O50 2.898637 1_555
Ca12 O76 2.331225 1_555
Ca12 O36 2.381815 1_555
Ca12 O24 2.497555 1_555
Ca12 O12 2.520973 1_555
Ca12 O48 2.608123 1_555
Ca12 O17 2.617152 1_554
Ca12 O5 2.625058 1_554
Ca12 O52 2.886454 1_555
Ca13 O78 2.325469 1_555
Ca13 O38 2.424377 1_555
Ca13 O14 2.487658 1_555
Ca13 O19 2.506498 1_554
Ca13 O26 2.525721 1_555
Ca13 O7 2.611095 1_554
Ca13 O50 2.672923 1_555
Ca13 O54 2.926475 1_555
Ca14 O79 2.421839 1_555
Ca14 O15 2.498458 1_555
Ca14 O27 2.526142 1_555
Ca14 O39 2.542189 1_555
Ca14 O18 2.554514 1_555
Ca14 O6 2.626093 1_555
Ca14 O55 2.730529 1_555
Ca14 O51 2.783584 1_555
Ca15 O64 2.395900 1_555
Ca15 O4 2.490964 1_555
Ca15 O40 2.496682 1_555
Ca15 O13 2.522556 1_555
Ca15 O25 2.544367 1_555
Ca15 O16 2.561457 1_555
Ca15 O56 2.761352 1_555
Ca15 O60 2.793581 1_555
Ca16 O66 2.401867 1_555
Ca16 O42 2.441004 1_555
Ca16 O18 2.497944 1_555
Ca16 O15 2.517055 1_555
Ca16 O6 2.524980 1_555
Ca16 O27 2.630174 1_555
Ca16 O58 2.635665 1_555
Ca16 O62 2.874874 1_555
Ca17 O67 2.328685 1_555
Ca17 O43 2.472706 1_555
Ca17 O19 2.509138 1_555
Ca17 O7 2.541339 1_555
Ca17 O14 2.596185 1_556
Ca17 O59 2.620591 1_555
Ca17 O26 2.626921 1_556
Ca17 O63 2.909708 1_555
Ca18 O70 2.388330 1_555
Ca18 O2 2.492299 1_655
Ca18 O22 2.527745 1_555
Ca18 O31 2.529925 1_555
Ca18 O46 2.539389 1_555
Ca18 O11 2.589856 1_655
Ca18 O62 2.736338 1_555
Ca18 O58 2.888334 1_655
Ca19 O71 2.323117 1_555
Ca19 O47 2.451262 1_555
Ca19 O23 2.484896 1_555
Ca19 O3 2.497023 1_655
Ca19 O30 2.592057 1_556
Ca19 O10 2.608147 1_656
Ca19 O63 2.649681 1_555
Ca19 O59 2.968015 1_655
Mn0 O0 1.952644 1_565
Mn0 O11 1.955308 1_555
Mn0 O31 1.975842 1_455
Mn0 O20 1.977356 1_465
Mn0 O46 2.156087 1_455
Mn0 O33 2.162945 1_565
Mn1 O22 1.954797 1_455
Mn1 O29 1.963564 1_455
Mn1 O2 1.975176 1_555
Mn1 O9 1.977256 1_555
Mn1 O44 2.148362 1_455
Mn1 O35 2.182665 1_555
Mn2 O27 1.953773 1_555
Mn2 O16 1.955631 1_565
Mn2 O4 1.957619 1_565
Mn2 O15 1.968562 1_555
Mn2 O37 2.088552 1_565
Mn2 O42 2.110497 1_555
Mn3 O7 1.930596 1_554
Mn3 O24 1.954642 1_555
Mn3 O12 2.001039 1_555
Mn3 O19 2.010110 1_554
Mn3 O41 2.095679 1_554
Mn3 O38 2.098221 1_555
Mn4 O6 1.942022 1_555
Mn4 O13 1.955421 1_555
Mn4 O25 1.961962 1_555
Mn4 O18 1.968979 1_555
Mn4 O40 2.131533 1_555
Mn4 O39 2.210749 1_555
Mn5 O8 1.942159 1_555
Mn5 O17 1.945263 1_554
Mn5 O1 1.947292 1_554
Mn5 O24 1.975521 1_555
Mn5 O48 2.098943 1_555
Mn5 O57 2.144483 1_554
Mn6 O16 1.952920 1_555
Mn6 O0 1.953561 1_555
Mn6 O25 1.966191 1_555
Mn6 O9 1.983132 1_555
Mn6 O56 2.129245 1_555
Mn6 O49 2.177513 1_555
Mn7 O3 1.927565 1_554
Mn7 O19 1.929838 1_554
Mn7 O26 1.935487 1_555
Mn7 O10 1.941844 1_555
Mn7 O50 2.056438 1_555
Mn7 O59 2.075226 1_554
Mn8 O27 1.943138 1_555
Mn8 O11 1.945001 1_555
Mn8 O18 1.954990 1_555
Mn8 O2 1.968582 1_555
Mn8 O58 2.035849 1_555
Mn8 O51 2.123931 1_555
Mn9 O12 1.928282 1_555
Mn9 O5 1.933653 1_554
Mn9 O28 1.936629 1_555
Mn9 O21 1.970208 1_554
Mn9 O52 2.091107 1_555
Mn9 O61 2.122686 1_554
Mn10 O13 1.957352 1_555
Mn10 O29 1.959932 1_555
Mn10 O20 1.969920 1_555
Mn10 O4 1.971138 1_555
Mn10 O60 2.131736 1_555
Mn10 O53 2.228896 1_555
Mn11 O22 1.950719 1_555
Mn11 O6 1.954414 1_555
Mn11 O31 1.963623 1_555
Mn11 O15 1.967019 1_555
Mn11 O62 2.108026 1_555
Mn11 O55 2.167671 1_555
Mn12 O56 1.882385 1_555
Mn12 O32 1.896114 1_555
Mn12 O68 1.979808 1_455
Mn12 O74 2.020693 1_545
Mn13 O33 1.901352 1_555
Mn13 O57 1.908501 1_555
Mn13 O69 1.989483 1_455
Mn13 O75 2.015712 1_545
Mn14 O34 1.972556 1_555
Mn14 O58 1.981993 1_555
Mn14 O72 2.076821 1_555
Mn14 O70 2.089943 1_455
Mn15 O35 1.905931 1_555
Mn15 O59 1.935258 1_555
Mn15 O73 1.995811 1_555
Mn15 O71 2.007313 1_455
Mn16 O60 1.886559 1_555
Mn16 O36 1.904274 1_555
Mn16 O64 1.997178 1_555
Mn16 O78 2.029435 1_545
Mn17 O37 1.943343 1_555
Mn17 O61 1.982540 1_555
Mn17 O65 2.016932 1_555
Mn17 O79 2.061158 1_545
Mn18 O62 1.874920 1_555
Mn18 O38 1.907841 1_555
Mn18 O66 1.983740 1_555
Mn18 O76 2.032767 1_555
Mn19 O63 1.903429 1_555
Mn19 O39 1.908434 1_555
Mn19 O67 1.966196 1_555
Mn19 O77 2.046586 1_555
Mn20 O40 1.882357 1_555
Mn20 O48 1.889449 1_555
Mn20 O72 1.960185 1_555
Mn20 O66 2.043950 1_555
Mn21 O41 1.921470 1_555
Mn21 O49 1.926405 1_555
Mn21 O73 1.991035 1_555
Mn21 O67 2.047336 1_555
Mn22 O42 1.919135 1_555
Mn22 O50 1.934213 1_555
Mn22 O74 2.005721 1_555
Mn22 O64 2.039016 1_565
Mn23 O51 1.907815 1_555
Mn23 O43 1.931325 1_555
Mn23 O65 1.999486 1_565
Mn23 O75 2.008525 1_555
Mn24 O44 1.866261 1_555
Mn24 O52 1.906105 1_555
Mn24 O70 1.966304 1_555
Mn24 O76 2.019003 1_555
Mn25 O45 1.898227 1_555
Mn25 O53 1.901152 1_555
Mn25 O77 1.975001 1_555
Mn25 O71 2.013341 1_555
Mn26 O54 1.890994 1_555
Mn26 O46 1.891767 1_555
Mn26 O78 1.995602 1_555
Mn26 O68 2.031331 1_565
Mn27 O55 1.898223 1_555
Mn27 O47 1.927511 1_555
Mn27 O79 1.994137 1_555
Mn27 O69 2.001208 1_565
Fe0 O30 1.953143 1_445
Fe0 O10 1.967459 1_545
Fe0 O21 1.972320 1_454
Fe0 O1 1.989214 1_554
Fe0 O32 2.091439 1_555
Fe0 O47 2.114980 1_444
Fe1 O23 1.962031 1_454
Fe1 O28 1.994782 1_455
Fe1 O8 2.007469 1_555
Fe1 O34 2.019014 1_555
Fe1 O3 2.019403 1_554
Fe1 O45 2.123307 1_454
Fe2 O26 1.970125 1_545
Fe2 O14 1.973309 1_545
Fe2 O17 1.980542 1_554
Fe2 O5 1.988718 1_554
Fe2 O36 2.063269 1_555
Fe2 O43 2.123655 1_544
Fe3 O23 1.970964 1_554
Fe3 O14 1.975168 1_555
Fe3 O30 1.980780 1_555
Fe3 O7 1.983357 1_554
Fe3 O54 2.083808 1_555
Fe3 O63 2.098945 1_554
O0 Sr10 2.628360 1_455
O0 Sr6 2.680955 1_555
O1 Sr11 2.591223 1_455
O2 Sr3 2.602865 1_555
O2 Sr7 2.653966 1_555
O2 Sr0 2.723973 1_555
O3 Sr4 2.565514 1_555
O4 Sr5 2.595747 1_545
O4 Sr8 2.676220 1_555
O4 Sr1 2.704919 1_555
O5 Sr9 2.593320 1_555
O6 Sr2 2.722975 1_555
O8 Sr4 2.730091 1_554
O8 Sr11 2.741938 1_454
O9 Sr6 2.574811 1_555
O9 Sr0 2.598903 1_555
O9 Sr3 2.648789 1_555
O9 Sr10 2.657466 1_455
O11 Sr7 2.627110 1_555
O12 Sr9 2.738061 1_554
O13 Sr2 2.620657 1_555
O13 Sr8 2.633047 1_555
O15 Sr1 2.616149 1_565
O15 Sr5 2.696798 1_555
O16 Sr8 2.732452 1_555
O17 Sr9 2.576887 1_555
O18 Sr3 2.639043 1_555
O18 Sr0 2.693962 1_555
O19 Sr4 2.594175 1_555
O20 Sr10 2.614958 1_555
O20 Sr5 2.616413 1_545
O20 Sr1 2.622372 1_555
O20 Sr6 2.640515 1_655
O21 Sr11 2.584656 1_555
O22 Sr2 2.712040 1_555
O22 Sr7 2.725326 1_655
O24 Sr4 2.715908 1_554
O24 Sr9 2.768837 1_554
O25 Sr8 2.605011 1_555
O25 Sr0 2.619848 1_555
O25 Sr3 2.649038 1_555
O28 Sr11 2.717344 1_554
O29 Sr2 2.591380 1_555
O29 Sr6 2.642980 1_655
O29 Sr10 2.659934 1_555
O31 Sr7 2.590536 1_655
O31 Sr1 2.625631 1_565
O31 Sr5 2.651182 1_555
O33 Sr6 2.672634 1_555
O33 Sr1 2.907782 1_455
O33 Sr7 2.953002 1_545
O35 Sr7 2.608350 1_555
O35 Sr2 2.769609 1_455
O35 Sr0 2.807085 1_555
O35 Sr6 3.053892 1_555
O37 Sr8 2.576367 1_555
O37 Sr1 2.691643 1_555
O39 Sr2 2.754715 1_555
O39 Sr0 2.803650 1_555
O39 Sr8 3.078256 1_555
O40 Sr3 2.824499 1_555
O41 Sr9 2.519955 1_555
O41 Sr4 2.864027 1_555
O42 Sr5 2.773599 1_555
O43 Sr9 3.113613 1_565
O44 Sr10 2.597314 1_555
O44 Sr3 2.753287 1_655
O45 Sr11 2.509434 1_555
O45 Sr4 2.696899 1_655
O46 Sr5 2.853595 1_555
O46 Sr10 3.067782 1_565
O47 Sr11 3.124586 1_565
O49 Sr8 2.708057 1_555
O49 Sr6 2.843557 1_555
O49 Sr0 3.091254 1_555
O51 Sr0 2.557313 1_555
O51 Sr7 2.800649 1_555
O53 Sr1 2.691721 1_555
O53 Sr8 2.774661 1_555
O53 Sr6 2.812915 1_655
O53 Sr2 2.968120 1_555
O55 Sr2 2.593796 1_555
O55 Sr7 2.812582 1_655
O55 Sr1 3.039492 1_565
O56 Sr3 2.612416 1_555
O56 Sr10 2.828392 1_455
O57 Sr4 2.539633 1_555
O57 Sr9 2.740038 1_555
O57 Sr11 2.834988 1_455
O58 Sr3 3.110898 1_555
O60 Sr10 2.757879 1_555
O60 Sr5 3.083632 1_545
O61 Sr11 2.749638 1_555
O61 Sr9 2.789807 1_555
O62 Sr5 2.581537 1_555
O65 Sr9 2.453333 1_555
O67 Sr0 2.488744 1_555
O68 Sr10 2.481243 1_555
O69 Sr11 2.432844 1_555
O69 Sr1 2.440184 1_555
O71 Sr2 2.512206 1_555
O72 Sr3 2.462275 1_555
O73 Sr4 2.425022 1_555
O73 Sr6 2.444447 1_555
O75 Sr7 2.492901 1_555
O77 Sr8 2.503909 1_555
O78 Sr5 2.479753 1_555
