# generated using pymatgen
data_TbDyAl4
_symmetry_space_group_name_H-M   'P 1'
_cell_length_a   5.54302158
_cell_length_b   5.54302158
_cell_length_c   5.54302004
_cell_angle_alpha   59.99999080
_cell_angle_beta   59.99999080
_cell_angle_gamma   60.00000000
_symmetry_Int_Tables_number   1
_chemical_formula_structural   TbDyAl4
_chemical_formula_sum   'Tb1 Dy1 Al4'
_cell_volume   120.42718367
_cell_formula_units_Z   1
loop_
 _symmetry_equiv_pos_site_id
 _symmetry_equiv_pos_as_xyz
  1  'x, y, z'
loop_
 _atom_site_type_symbol
 _atom_site_label
 _atom_site_symmetry_multiplicity
 _atom_site_fract_x
 _atom_site_fract_y
 _atom_site_fract_z
 _atom_site_occupancy
  Tb  Tb0  1  0.99999791  0.99999791  0.00000627  1
  Dy  Dy0  1  0.25000706  0.25000706  0.24997881  1
  Al  Al0  1  0.12504710  0.62498244  0.62498802  1
  Al  Al1  1  0.62498244  0.12504710  0.62498802  1
  Al  Al2  1  0.62498304  0.62498304  0.12505087  1
  Al  Al3  1  0.62498244  0.62498244  0.62498802  1
loop_
_geom_bond_atom_site_label_1
_geom_bond_atom_site_label_2
_geom_bond_distance
_geom_bond_site_symmetry_2
Dy0 Tb0 3.394352 1_445
Dy0 Tb0 3.394352 1_545
Dy0 Tb0 3.394352 1_455
Dy0 Tb0 3.394516 1_446
Al0 Al1 2.771152 1_555
Al0 Al3 2.771152 1_555
Al0 Al2 2.771158 1_555
Al0 Al2 2.771862 1_456
Al0 Al1 2.771869 1_465
Al0 Al3 2.771869 1_455
Al0 Dy0 3.249745 1_556
Al0 Dy0 3.249906 1_565
Al0 Dy0 3.249906 1_555
Al0 Tb0 3.249913 1_455
Al0 Tb0 3.249927 1_446
Al0 Tb0 3.249927 1_456
Al1 Al3 2.771152 1_555
Al1 Al2 2.771158 1_555
Al1 Al2 2.771862 1_546
Al1 Al3 2.771869 1_545
Al1 Dy0 3.249745 1_556
Al1 Dy0 3.249906 1_655
Al1 Dy0 3.249906 1_555
Al1 Tb0 3.249913 1_545
Al1 Tb0 3.249927 1_446
Al1 Tb0 3.249927 1_546
Al2 Al3 2.771158 1_555
Al2 Al3 2.771862 1_554
Al2 Dy0 3.249828 1_655
Al2 Dy0 3.249828 1_565
Al2 Dy0 3.249828 1_555
Al2 Tb0 3.249920 1_545
Al2 Tb0 3.249920 1_455
Al2 Tb0 3.249920 1_555
Al3 Dy0 3.249745 1_556
Al3 Dy0 3.249906 1_655
Al3 Dy0 3.249906 1_565
Al3 Tb0 3.249913 1_555
Al3 Tb0 3.249927 1_546
Al3 Tb0 3.249927 1_456
