# generated using pymatgen
data_Li9Mn2Co5O16
_symmetry_space_group_name_H-M   'P 1'
_cell_length_a   2.93960700
_cell_length_b   9.80623444
_cell_length_c   10.23859725
_cell_angle_alpha   78.30394176
_cell_angle_beta   89.57358207
_cell_angle_gamma   89.00742374
_symmetry_Int_Tables_number   1
_chemical_formula_structural   Li9Mn2Co5O16
_chemical_formula_sum   'Li9 Mn2 Co5 O16'
_cell_volume   288.96885783
_cell_formula_units_Z   1
loop_
 _symmetry_equiv_pos_site_id
 _symmetry_equiv_pos_as_xyz
  1  'x, y, z'
loop_
 _atom_site_type_symbol
 _atom_site_label
 _atom_site_symmetry_multiplicity
 _atom_site_fract_x
 _atom_site_fract_y
 _atom_site_fract_z
 _atom_site_occupancy
  Li  Li0  1  0.98812300  0.74028700  0.87828800  1
  Li  Li1  1  0.48538500  0.49121500  0.50025700  1
  Li  Li2  1  0.00834400  0.25750700  0.11440000  1
  Li  Li3  1  0.51470400  0.01410000  0.75218100  1
  Li  Li4  1  0.49687000  0.49421900  0.99864000  1
  Li  Li5  1  0.00144700  0.25150500  0.63483500  1
  Li  Li6  1  0.50288900  0.00388600  0.24850900  1
  Li  Li7  1  0.99912600  0.75075400  0.37217500  1
  Li  Li8  1  0.49687300  0.24568300  0.87086200  1
  Mn  Mn0  1  0.01483100  0.00447200  0.99666100  1
  Mn  Mn1  1  0.50043200  0.74774000  0.62758200  1
  Co  Co0  1  0.98934500  0.50239200  0.24974700  1
  Co  Co1  1  0.00184700  0.00472900  0.49653600  1
  Co  Co2  1  0.49976400  0.75116700  0.12894300  1
  Co  Co3  1  0.99544400  0.48053700  0.76442300  1
  Co  Co4  1  0.49910100  0.25080600  0.36877500  1
  O  O0  1  0.52010900  0.88061600  0.95539100  1
  O  O1  1  0.00631900  0.64089000  0.57332900  1
  O  O2  1  0.49380000  0.37545500  0.19540400  1
  O  O3  1  0.00727100  0.10895100  0.82592200  1
  O  O4  1  0.94982100  0.62920800  0.07443400  1
  O  O5  1  0.49776600  0.38682200  0.68857500  1
  O  O6  1  0.00599900  0.12853500  0.31562900  1
  O  O7  1  0.50119500  0.87477600  0.45229000  1
  O  O8  1  0.49780800  0.62754300  0.79841600  1
  O  O9  1  0.99299500  0.37808200  0.42369200  1
  O  O10  1  0.50771400  0.10749200  0.05385000  1
  O  O11  1  0.99364100  0.85996200  0.67946100  1
  O  O12  1  0.99956200  0.38371500  0.93146500  1
  O  O13  1  0.50458400  0.12626600  0.55093100  1
  O  O14  1  0.04170600  0.87338600  0.17657500  1
  O  O15  1  0.48518300  0.62730200  0.30182700  1
loop_
_geom_bond_atom_site_label_1
_geom_bond_atom_site_label_2
_geom_bond_distance
_geom_bond_site_symmetry_2
Li0 O4 2.084768 1_556
Li0 O8 2.099491 1_555
Li0 O8 2.104011 1_655
Li0 O11 2.133819 1_555
Li0 O0 2.183641 1_555
Li0 O0 2.344308 1_655
Li1 O5 1.991582 1_555
Li1 O9 2.085603 1_555
Li1 O9 2.089379 1_455
Li1 O15 2.192994 1_555
Li1 O1 2.248367 1_555
Li1 O1 2.366255 1_655
Li2 O12 2.024914 1_454
Li2 O2 2.127400 1_555
Li2 O2 2.150140 1_455
Li2 O6 2.188164 1_555
Li2 O10 2.232643 1_555
Li2 O10 2.274320 1_455
Li3 O3 1.969619 1_655
Li3 O3 1.969796 1_555
Li3 O13 2.130103 1_555
Li3 O0 2.222181 1_545
Li3 O11 2.277745 1_545
Li3 O11 2.395551 1_445
Li4 O12 2.015565 1_555
Li4 O12 2.038733 1_455
Li4 O2 2.112779 1_556
Li4 O4 2.149489 1_556
Li4 O8 2.196646 1_555
Li4 O4 2.294485 1_456
Li5 O5 2.114619 1_455
Li5 O5 2.137104 1_555
Li5 O3 2.161716 1_555
Li5 O13 2.186251 1_555
Li5 O13 2.210914 1_455
Li5 O9 2.264182 1_455
Li6 O10 2.045415 1_555
Li6 O6 2.088942 1_555
Li6 O14 2.115448 1_545
Li6 O6 2.138220 1_655
Li6 O7 2.210259 1_545
Li6 O14 2.232357 1_645
Li7 O15 2.074639 1_655
Li7 O14 2.120743 1_655
Li7 O1 2.122044 1_655
Li7 O7 2.149267 1_555
Li7 O15 2.167927 1_555
Li7 O7 2.194279 1_655
Li8 O10 2.077878 1_556
Li8 O5 2.086059 1_555
Li8 O3 2.099472 1_555
Li8 O3 2.104946 1_655
Li8 O12 2.147739 1_455
Li8 O12 2.196419 1_555
Mn0 O3 1.838415 1_555
Mn0 O10 1.939163 1_456
Mn0 O10 1.940583 1_556
Mn0 O0 1.999027 1_545
Mn0 O0 2.011735 1_445
Mn0 O14 2.022490 1_546
Mn1 O8 1.900775 1_555
Mn1 O1 1.946180 1_655
Mn1 O1 1.953687 1_555
Mn1 O7 1.966354 1_555
Mn1 O11 1.970027 1_455
Mn1 O11 1.974578 1_555
Co0 O9 1.943584 1_555
Co0 O4 1.968494 1_555
Co0 O15 2.042375 1_555
Co0 O15 2.060933 1_655
Co0 O2 2.064606 1_655
Co0 O2 2.082480 1_555
Co1 O6 1.998333 1_555
Co1 O13 2.015931 1_455
Co1 O7 2.035495 1_545
Co1 O13 2.063257 1_555
Co1 O7 2.074636 1_445
Co1 O11 2.108594 1_445
Co2 O14 1.912757 1_555
Co2 O4 1.922732 1_555
Co2 O15 1.933750 1_555
Co2 O0 1.964426 1_554
Co2 O14 2.127653 1_655
Co2 O4 2.169393 1_455
Co3 O12 1.779945 1_555
Co3 O5 1.962987 1_655
Co3 O5 1.985135 1_555
Co3 O8 2.112343 1_555
Co3 O8 2.159837 1_655
Co3 O1 2.248360 1_655
Co4 O2 1.940438 1_555
Co4 O13 2.011557 1_555
Co4 O6 2.035836 1_655
Co4 O6 2.042385 1_555
Co4 O9 2.072451 1_455
Co4 O9 2.083564 1_555
