# generated using pymatgen
data_KMg6Zr
_symmetry_space_group_name_H-M   'P 1'
_cell_length_a   6.67701727
_cell_length_b   6.67701727
_cell_length_c   4.70208900
_cell_angle_alpha   90.00000000
_cell_angle_beta   90.00000000
_cell_angle_gamma   90.12228874
_symmetry_Int_Tables_number   1
_chemical_formula_structural   KMg6Zr
_chemical_formula_sum   'K1 Mg6 Zr1'
_cell_volume   209.63068561
_cell_formula_units_Z   1
loop_
 _symmetry_equiv_pos_site_id
 _symmetry_equiv_pos_as_xyz
  1  'x, y, z'
loop_
 _atom_site_type_symbol
 _atom_site_label
 _atom_site_symmetry_multiplicity
 _atom_site_fract_x
 _atom_site_fract_y
 _atom_site_fract_z
 _atom_site_occupancy
  K  K0  1  0.13054000  0.86946000  0.00000000  1
  Mg  Mg0  1  0.63052200  0.87985300  0.00000000  1
  Mg  Mg1  1  0.12014700  0.36947800  0.00000000  1
  Mg  Mg2  1  0.84845400  0.60253200  0.50000000  1
  Mg  Mg3  1  0.39746800  0.15154600  0.50000000  1
  Mg  Mg4  1  0.84979500  0.15020500  0.50000000  1
  Mg  Mg5  1  0.40016400  0.59983600  0.50000000  1
  Zr  Zr0  1  0.62291100  0.37708900  0.00000000  1
loop_
_geom_bond_atom_site_label_1
_geom_bond_atom_site_label_2
_geom_bond_distance
_geom_bond_site_symmetry_2
K0 Mg0 3.338962 1_555
K0 Mg1 3.338962 1_555
K0 Mg1 3.339498 1_565
K0 Mg0 3.339498 1_455
K0 Mg5 3.467462 1_554
K0 Mg5 3.467462 1_555
K0 Mg3 3.498165 1_564
K0 Mg2 3.498165 1_455
K0 Mg3 3.498165 1_565
K0 Mg2 3.498165 1_454
K0 Mg4 3.545448 1_465
K0 Mg4 3.545448 1_464
Mg0 Mg4 3.304275 1_565
Mg0 Mg4 3.304275 1_564
Mg0 Zr0 3.320551 1_565
Mg0 Mg2 3.329420 1_555
Mg0 Mg2 3.329420 1_554
Mg0 Mg3 3.354382 1_564
Mg0 Mg3 3.354382 1_565
Mg0 Zr0 3.357240 1_555
Mg0 Mg5 3.372921 1_554
Mg0 Mg5 3.372921 1_555
Mg1 Mg4 3.304275 1_455
Mg1 Mg4 3.304275 1_454
Mg1 Zr0 3.320551 1_455
Mg1 Mg3 3.329420 1_554
Mg1 Mg3 3.329420 1_555
Mg1 Mg2 3.354382 1_455
Mg1 Mg2 3.354382 1_454
Mg1 Zr0 3.357240 1_555
Mg1 Mg5 3.372921 1_554
Mg1 Mg5 3.372921 1_555
Mg2 Mg5 2.993256 1_555
Mg2 Mg4 3.020228 1_555
Mg2 Zr0 3.170413 1_555
Mg2 Zr0 3.170413 1_556
Mg3 Mg5 2.993256 1_555
Mg3 Mg4 3.020228 1_555
Mg3 Zr0 3.170413 1_555
Mg3 Zr0 3.170413 1_556
Mg4 Zr0 3.182311 1_555
Mg4 Zr0 3.182311 1_556
Mg5 Zr0 3.156088 1_555
Mg5 Zr0 3.156088 1_556
