# generated using pymatgen
data_ThSiPt
_symmetry_space_group_name_H-M   'P 1'
_cell_length_a   4.26067600
_cell_length_b   3.94854200
_cell_length_c   8.20838694
_cell_angle_alpha   76.08284753
_cell_angle_beta   74.95771330
_cell_angle_gamma   90.00000000
_symmetry_Int_Tables_number   1
_chemical_formula_structural   ThSiPt
_chemical_formula_sum   'Th2 Si2 Pt2'
_cell_volume   129.15939125
_cell_formula_units_Z   2
loop_
 _symmetry_equiv_pos_site_id
 _symmetry_equiv_pos_as_xyz
  1  'x, y, z'
loop_
 _atom_site_type_symbol
 _atom_site_label
 _atom_site_symmetry_multiplicity
 _atom_site_fract_x
 _atom_site_fract_y
 _atom_site_fract_z
 _atom_site_occupancy
  Th  Th0  1  0.75244200  0.25244200  0.49511500  1
  Th  Th1  1  0.99755800  0.99755800  0.00488500  1
  Si  Si0  1  0.33509300  0.83509300  0.32981500  1
  Si  Si1  1  0.41490700  0.41490700  0.17018500  1
  Pt  Pt0  1  0.18041600  0.68041600  0.63916800  1
  Pt  Pt1  1  0.56958400  0.56958400  0.86083200  1
loop_
_geom_bond_atom_site_label_1
_geom_bond_atom_site_label_2
_geom_bond_distance
_geom_bond_site_symmetry_2
Si0 Si1 2.323718 1_565
Si0 Si1 2.323724 1_555
Si0 Th0 3.169633 1_565
Si0 Th0 3.169638 1_555
Si0 Th0 3.169639 1_465
Si0 Th0 3.169644 1_455
Si0 Th1 3.280451 1_555
Si0 Th1 3.280451 1_455
Si1 Th1 3.169633 1_445
Si1 Th1 3.169638 1_455
Si1 Th1 3.169639 1_545
Si1 Th1 3.169644 1_555
Si1 Th0 3.280451 1_455
Si1 Th0 3.280451 1_555
Pt0 Si0 2.375008 1_555
Pt0 Pt1 2.726615 1_455
Pt0 Pt1 2.726615 1_555
Pt0 Th0 3.107922 1_565
Pt0 Th0 3.107925 1_555
Pt0 Th0 3.107925 1_465
Pt0 Th0 3.107928 1_455
Pt0 Th1 3.432362 1_446
Pt0 Th1 3.432363 1_456
Pt1 Si1 2.375008 1_556
Pt1 Th1 3.107922 1_446
Pt1 Th1 3.107925 1_456
Pt1 Th1 3.107925 1_546
Pt1 Th1 3.107928 1_556
Pt1 Th0 3.432362 1_565
Pt1 Th0 3.432363 1_555
