# generated using pymatgen
data_Li2CrNiO4
_symmetry_space_group_name_H-M   'P 1'
_cell_length_a   2.93937500
_cell_length_b   5.09343600
_cell_length_c   5.09980573
_cell_angle_alpha   70.64068640
_cell_angle_beta   90.00000000
_cell_angle_gamma   90.00000000
_symmetry_Int_Tables_number   1
_chemical_formula_structural   Li2CrNiO4
_chemical_formula_sum   'Li2 Cr1 Ni1 O4'
_cell_volume   72.03477230
_cell_formula_units_Z   1
loop_
 _symmetry_equiv_pos_site_id
 _symmetry_equiv_pos_as_xyz
  1  'x, y, z'
loop_
 _atom_site_type_symbol
 _atom_site_label
 _atom_site_symmetry_multiplicity
 _atom_site_fract_x
 _atom_site_fract_y
 _atom_site_fract_z
 _atom_site_occupancy
  Li  Li0  1  0.00000000  0.00000000  0.00000000  1
  Li  Li1  1  0.50000000  0.00000000  0.50000000  1
  Cr  Cr0  1  0.00000000  0.50000000  0.50000000  1
  Ni  Ni0  1  0.50000000  0.50000000  0.00000000  1
  O  O0  1  0.00000000  0.28013700  0.24818900  1
  O  O1  1  0.50000000  0.26738200  0.73069800  1
  O  O2  1  0.00000000  0.71986300  0.75181100  1
  O  O3  1  0.50000000  0.73261800  0.26930200  1
loop_
_geom_bond_atom_site_label_1
_geom_bond_atom_site_label_2
_geom_bond_distance
_geom_bond_site_symmetry_2
Li0 O3 2.158907 1_545
Li0 O1 2.158907 1_454
Li0 O3 2.158907 1_445
Li0 O1 2.158907 1_554
Li0 O2 2.198934 1_544
Li0 O0 2.198934 1_555
Li1 O1 2.073940 1_555
Li1 O3 2.073940 1_545
Li1 O2 2.151796 1_645
Li1 O2 2.151796 1_545
Li1 O0 2.151796 1_655
Li1 O0 2.151796 1_555
Cr0 O0 1.963838 1_555
Cr0 O2 1.963838 1_555
Cr0 O1 2.005942 1_455
Cr0 O1 2.005942 1_555
Cr0 O3 2.005942 1_455
Cr0 O3 2.005942 1_555
Ni0 O2 2.019003 1_554
Ni0 O0 2.019003 1_555
Ni0 O2 2.019003 1_654
Ni0 O0 2.019003 1_655
Ni0 O3 2.090174 1_555
Ni0 O1 2.090174 1_554
