# generated using pymatgen
data_RbBaMg6
_symmetry_space_group_name_H-M   'P 1'
_cell_length_a   5.24205000
_cell_length_b   7.10076700
_cell_length_c   14.25796400
_cell_angle_alpha   90.00000000
_cell_angle_beta   90.00000000
_cell_angle_gamma   90.00000000
_symmetry_Int_Tables_number   1
_chemical_formula_structural   RbBaMg6
_chemical_formula_sum   'Rb2 Ba2 Mg12'
_cell_volume   530.71814364
_cell_formula_units_Z   2
loop_
 _symmetry_equiv_pos_site_id
 _symmetry_equiv_pos_as_xyz
  1  'x, y, z'
loop_
 _atom_site_type_symbol
 _atom_site_label
 _atom_site_symmetry_multiplicity
 _atom_site_fract_x
 _atom_site_fract_y
 _atom_site_fract_z
 _atom_site_occupancy
  Rb  Rb0  1  0.50000000  0.50000000  0.67794600  1
  Rb  Rb1  1  0.50000000  0.00000000  0.17794600  1
  Ba  Ba0  1  0.50000000  0.00000000  0.67342600  1
  Ba  Ba1  1  0.50000000  0.50000000  0.17342600  1
  Mg  Mg0  1  0.50000000  0.75662100  0.92248600  1
  Mg  Mg1  1  0.50000000  0.24337900  0.92248600  1
  Mg  Mg2  1  0.00000000  0.24302000  0.54109100  1
  Mg  Mg3  1  0.00000000  0.75698000  0.54109100  1
  Mg  Mg4  1  0.00000000  0.50000000  0.86288900  1
  Mg  Mg5  1  0.00000000  0.00000000  0.85858100  1
  Mg  Mg6  1  0.50000000  0.25662100  0.42248600  1
  Mg  Mg7  1  0.50000000  0.74337900  0.42248600  1
  Mg  Mg8  1  0.00000000  0.74302000  0.04109100  1
  Mg  Mg9  1  0.00000000  0.25698000  0.04109100  1
  Mg  Mg10  1  0.00000000  0.00000000  0.36288900  1
  Mg  Mg11  1  0.00000000  0.50000000  0.35858100  1
loop_
_geom_bond_atom_site_label_1
_geom_bond_atom_site_label_2
_geom_bond_distance
_geom_bond_site_symmetry_2
Ba0 Rb0 3.550968 1_555
Ba0 Rb0 3.550968 1_545
Ba0 Mg3 3.661650 1_645
Ba0 Mg3 3.661650 1_545
Ba0 Mg2 3.661650 1_655
Ba0 Mg2 3.661650 1_555
Ba0 Mg5 3.720083 1_655
Ba0 Mg5 3.720083 1_555
Ba0 Mg1 3.949282 1_555
Ba0 Mg0 3.949282 1_545
Ba0 Mg7 4.015191 1_545
Ba0 Mg6 4.015191 1_555
Ba1 Rb1 3.550968 1_555
Ba1 Rb1 3.550968 1_565
Ba1 Mg8 3.661650 1_555
Ba1 Mg9 3.661650 1_655
Ba1 Mg8 3.661650 1_655
Ba1 Mg9 3.661650 1_555
Ba1 Mg11 3.720083 1_555
Ba1 Mg11 3.720083 1_655
Ba1 Mg7 3.949282 1_555
Ba1 Mg6 3.949282 1_555
Ba1 Mg0 4.015191 1_554
Ba1 Mg1 4.015191 1_554
Mg0 Mg8 3.120706 1_656
Mg0 Mg8 3.120706 1_556
Mg0 Mg5 3.269033 1_565
Mg0 Mg5 3.269033 1_665
Mg0 Mg4 3.303370 1_555
Mg0 Mg4 3.303370 1_655
Mg0 Rb0 3.934096 1_555
Mg0 Rb1 4.031530 1_566
Mg1 Mg9 3.120706 1_556
Mg1 Mg9 3.120706 1_656
Mg1 Mg5 3.269033 1_655
Mg1 Mg5 3.269033 1_555
Mg1 Mg4 3.303370 1_655
Mg1 Mg4 3.303370 1_555
Mg1 Rb0 3.934096 1_555
Mg1 Rb1 4.031530 1_556
Mg2 Mg6 3.120706 1_455
Mg2 Mg6 3.120706 1_555
Mg2 Mg3 3.451257 1_545
Mg2 Rb0 3.742589 1_455
Mg2 Rb0 3.742589 1_555
Mg3 Mg7 3.120706 1_555
Mg3 Mg7 3.120706 1_455
Mg3 Rb0 3.742589 1_555
Mg3 Rb0 3.742589 1_455
Mg4 Mg9 3.071392 1_556
Mg4 Mg8 3.071392 1_556
Mg4 Mg5 3.550915 1_565
Mg4 Mg5 3.550915 1_555
Mg4 Rb0 3.717939 1_455
Mg4 Rb0 3.717939 1_555
Mg5 Mg9 3.178252 1_556
Mg5 Mg8 3.178252 1_546
Mg6 Rb1 3.934096 1_555
Mg6 Rb0 4.031530 1_555
Mg7 Rb1 3.934096 1_565
Mg7 Rb0 4.031530 1_555
Mg8 Mg9 3.451257 1_555
Mg8 Rb1 3.742589 1_565
Mg8 Rb1 3.742589 1_465
Mg9 Rb1 3.742589 1_455
Mg9 Rb1 3.742589 1_555
Mg10 Mg3 3.071392 1_545
Mg10 Mg2 3.071392 1_555
Mg10 Mg6 3.303370 1_555
Mg10 Mg7 3.303370 1_445
Mg10 Mg7 3.303370 1_545
Mg10 Mg6 3.303370 1_455
Mg10 Mg11 3.550915 1_545
Mg10 Mg11 3.550915 1_555
Mg10 Rb1 3.717939 1_555
Mg10 Rb1 3.717939 1_455
Mg11 Mg2 3.178252 1_555
Mg11 Mg3 3.178252 1_555
Mg11 Mg6 3.269033 1_455
Mg11 Mg7 3.269033 1_455
Mg11 Mg6 3.269033 1_555
Mg11 Mg7 3.269033 1_555
