# generated using pymatgen
data_Nb3Si
_symmetry_space_group_name_H-M   'P 1'
_cell_length_a   5.81501542
_cell_length_b   5.81501542
_cell_length_c   17.09391200
_cell_angle_alpha   90.00000000
_cell_angle_beta   90.00000000
_cell_angle_gamma   107.12246721
_symmetry_Int_Tables_number   1
_chemical_formula_structural   Nb3Si
_chemical_formula_sum   'Nb24 Si8'
_cell_volume   552.40122233
_cell_formula_units_Z   8
loop_
 _symmetry_equiv_pos_site_id
 _symmetry_equiv_pos_as_xyz
  1  'x, y, z'
loop_
 _atom_site_type_symbol
 _atom_site_label
 _atom_site_symmetry_multiplicity
 _atom_site_fract_x
 _atom_site_fract_y
 _atom_site_fract_z
 _atom_site_occupancy
  Nb  Nb0_0  1  0.25000000  0.25000000  0.38633050  1
  Nb  Nb0_1  1  0.25000000  0.25000000  0.88633050  1
  Nb  Nb0_2  1  0.25000000  0.75000000  0.38633050  1
  Nb  Nb0_3  1  0.25000000  0.75000000  0.88633050  1
  Nb  Nb0_4  1  0.75000000  0.25000000  0.38633050  1
  Nb  Nb0_5  1  0.75000000  0.25000000  0.88633050  1
  Nb  Nb0_6  1  0.75000000  0.75000000  0.38633050  1
  Nb  Nb0_7  1  0.75000000  0.75000000  0.88633050  1
  Nb  Nb1_0  1  0.00000000  0.00000000  0.25000000  1
  Nb  Nb1_1  1  0.00000000  0.00000000  0.75000000  1
  Nb  Nb1_2  1  0.00000000  0.50000000  0.25000000  1
  Nb  Nb1_3  1  0.00000000  0.50000000  0.75000000  1
  Nb  Nb1_4  1  0.50000000  0.00000000  0.25000000  1
  Nb  Nb1_5  1  0.50000000  0.00000000  0.75000000  1
  Nb  Nb1_6  1  0.50000000  0.50000000  0.25000000  1
  Nb  Nb1_7  1  0.50000000  0.50000000  0.75000000  1
  Nb  Nb2_0  1  0.25000000  0.25000000  0.11366950  1
  Nb  Nb2_1  1  0.25000000  0.25000000  0.61366950  1
  Nb  Nb2_2  1  0.25000000  0.75000000  0.11366950  1
  Nb  Nb2_3  1  0.25000000  0.75000000  0.61366950  1
  Nb  Nb2_4  1  0.75000000  0.25000000  0.11366950  1
  Nb  Nb2_5  1  0.75000000  0.25000000  0.61366950  1
  Nb  Nb2_6  1  0.75000000  0.75000000  0.11366950  1
  Nb  Nb2_7  1  0.75000000  0.75000000  0.61366950  1
  Si  Si0_0  1  0.00000000  0.00000000  0.00000000  1
  Si  Si0_1  1  0.00000000  0.00000000  0.50000000  1
  Si  Si0_2  1  0.00000000  0.50000000  0.00000000  1
  Si  Si0_3  1  0.00000000  0.50000000  0.50000000  1
  Si  Si0_4  1  0.50000000  0.00000000  0.00000000  1
  Si  Si0_5  1  0.50000000  0.00000000  0.50000000  1
  Si  Si0_6  1  0.50000000  0.50000000  0.00000000  1
  Si  Si0_7  1  0.50000000  0.50000000  0.50000000  1
loop_
_geom_bond_atom_site_label_1
_geom_bond_atom_site_label_2
_geom_bond_distance
_geom_bond_site_symmetry_2
Nb0_0 Si0_1 2.599584 1_555
Nb0_0 Si0_7 2.599584 1_555
Nb0_0 Nb1_0 2.900557 1_555
Nb0_0 Nb1_6 2.900557 1_555
Nb0_1 Si0_6 2.599584 1_556
Nb0_1 Si0_0 2.599584 1_556
Nb0_1 Nb1_7 2.900557 1_555
Nb0_1 Nb1_1 2.900557 1_555
Nb0_2 Si0_5 2.599584 1_565
Nb0_2 Si0_3 2.599584 1_555
Nb0_2 Nb1_4 2.900557 1_565
Nb0_2 Nb1_2 2.900557 1_555
Nb0_3 Si0_2 2.599584 1_556
Nb0_3 Si0_4 2.599584 1_566
Nb0_3 Nb1_5 2.900557 1_565
Nb0_3 Nb1_3 2.900557 1_555
Nb0_4 Si0_5 2.599584 1_555
Nb0_4 Si0_3 2.599584 1_655
Nb0_4 Nb1_4 2.900557 1_555
Nb0_4 Nb1_2 2.900557 1_655
Nb0_5 Si0_2 2.599584 1_656
Nb0_5 Si0_4 2.599584 1_556
Nb0_5 Nb1_5 2.900557 1_555
Nb0_5 Nb1_3 2.900557 1_655
Nb0_6 Si0_1 2.599584 1_665
Nb0_6 Si0_7 2.599584 1_555
Nb0_6 Nb1_0 2.900557 1_665
Nb0_6 Nb1_6 2.900557 1_555
Nb0_7 Si0_0 2.599584 1_666
Nb0_7 Si0_6 2.599584 1_556
Nb0_7 Nb1_1 2.900557 1_665
Nb0_7 Nb1_7 2.900557 1_555
Nb1_0 Nb2_6 2.900557 1_445
Nb1_0 Nb2_0 2.900557 1_555
Nb1_0 Nb1_2 2.907508 1_545
Nb1_0 Nb1_4 2.907508 1_455
Nb1_0 Nb1_4 2.907508 1_555
Nb1_0 Nb1_2 2.907508 1_555
Nb1_1 Nb2_1 2.900557 1_555
Nb1_1 Nb2_7 2.900557 1_445
Nb1_1 Nb1_5 2.907508 1_555
Nb1_1 Nb1_3 2.907508 1_555
Nb1_1 Nb1_5 2.907508 1_455
Nb1_1 Nb1_3 2.907508 1_545
Nb1_2 Nb2_4 2.900557 1_455
Nb1_2 Nb2_2 2.900557 1_555
Nb1_2 Nb1_6 2.907508 1_555
Nb1_2 Nb1_6 2.907508 1_455
Nb1_3 Nb2_5 2.900557 1_455
Nb1_3 Nb2_3 2.900557 1_555
Nb1_3 Nb1_7 2.907508 1_455
Nb1_3 Nb1_7 2.907508 1_555
Nb1_4 Nb2_2 2.900557 1_545
Nb1_4 Nb2_4 2.900557 1_555
Nb1_4 Nb1_6 2.907508 1_555
Nb1_4 Nb1_6 2.907508 1_545
Nb1_5 Nb2_5 2.900557 1_555
Nb1_5 Nb2_3 2.900557 1_545
Nb1_5 Nb1_7 2.907508 1_545
Nb1_5 Nb1_7 2.907508 1_555
Nb1_6 Nb2_0 2.900557 1_555
Nb1_6 Nb2_6 2.900557 1_555
Nb1_7 Nb2_1 2.900557 1_555
Nb1_7 Nb2_7 2.900557 1_555
Nb2_0 Si0_6 2.599584 1_555
Nb2_0 Si0_0 2.599584 1_555
Nb2_1 Si0_1 2.599584 1_555
Nb2_1 Si0_7 2.599584 1_555
Nb2_2 Si0_4 2.599584 1_565
Nb2_2 Si0_2 2.599584 1_555
Nb2_3 Si0_3 2.599584 1_555
Nb2_3 Si0_5 2.599584 1_565
Nb2_4 Si0_2 2.599584 1_655
Nb2_4 Si0_4 2.599584 1_555
Nb2_5 Si0_3 2.599584 1_655
Nb2_5 Si0_5 2.599584 1_555
Nb2_6 Si0_0 2.599584 1_665
Nb2_6 Si0_6 2.599584 1_555
Nb2_7 Si0_1 2.599584 1_665
Nb2_7 Si0_7 2.599584 1_555
