# generated using pymatgen
data_Sr2AlGaNi2O7
_symmetry_space_group_name_H-M   'P 1'
_cell_length_a   11.70444322
_cell_length_b   11.70444322
_cell_length_c   5.64540121
_cell_angle_alpha   83.53736627
_cell_angle_beta   83.53736627
_cell_angle_gamma   25.54936303
_symmetry_Int_Tables_number   1
_chemical_formula_structural   Sr2AlGaNi2O7
_chemical_formula_sum   'Sr4 Al2 Ga2 Ni4 O14'
_cell_volume   331.32365538
_cell_formula_units_Z   2
loop_
 _symmetry_equiv_pos_site_id
 _symmetry_equiv_pos_as_xyz
  1  'x, y, z'
loop_
 _atom_site_type_symbol
 _atom_site_label
 _atom_site_symmetry_multiplicity
 _atom_site_fract_x
 _atom_site_fract_y
 _atom_site_fract_z
 _atom_site_occupancy
  Sr  Sr0  1  0.84467800  0.34985300  0.25261500  1
  Sr  Sr1  1  0.15528500  0.63968500  0.74641000  1
  Sr  Sr2  1  0.34985300  0.84467800  0.75261500  1
  Sr  Sr3  1  0.63968500  0.15528500  0.24641000  1
  Al  Al0  1  0.49899000  0.99578800  0.49970000  1
  Al  Al1  1  0.99578800  0.49899000  0.99970000  1
  Ga  Ga0  1  0.30113100  0.68979200  0.20655900  1
  Ga  Ga1  1  0.68979200  0.30113100  0.70655900  1
  Ni  Ni0  1  0.07210400  0.53639700  0.36479600  1
  Ni  Ni1  1  0.45823800  0.92221800  0.13749000  1
  Ni  Ni2  1  0.53639700  0.07210400  0.86479600  1
  Ni  Ni3  1  0.92221800  0.45823800  0.63749000  1
  O  O0  1  0.28169100  0.15398000  0.82586500  1
  O  O1  1  0.36532400  0.62204500  0.87488800  1
  O  O2  1  0.15398000  0.28169100  0.32586500  1
  O  O3  1  0.72431200  0.11417000  0.80929100  1
  O  O4  1  0.41496200  0.22198300  0.52941200  1
  O  O5  1  0.22198300  0.41496200  0.02941200  1
  O  O6  1  0.62204500  0.36532400  0.37488800  1
  O  O7  1  0.71159100  0.84087900  0.17684100  1
  O  O8  1  0.84087900  0.71159100  0.67684100  1
  O  O9  1  0.11417000  0.72431200  0.30929100  1
  O  O10  1  0.28357500  0.86492800  0.21146700  1
  O  O11  1  0.86492800  0.28357500  0.71146700  1
  O  O12  1  0.77115700  0.58074200  0.97174200  1
  O  O13  1  0.58074200  0.77115700  0.47174200  1
loop_
_geom_bond_atom_site_label_1
_geom_bond_atom_site_label_2
_geom_bond_distance
_geom_bond_site_symmetry_2
Al0 O4 1.835496 1_565
Al0 O13 1.836571 1_555
Al0 O8 2.052138 1_555
Al0 O2 2.058467 1_565
Al0 O7 2.093657 1_555
Al0 O0 2.122106 1_565
Al1 O5 1.835496 1_656
Al1 O12 1.836571 1_555
Al1 O7 2.052138 1_556
Al1 O0 2.058467 1_655
Al1 O8 2.093657 1_555
Al1 O2 2.122106 1_656
Ga0 O9 1.860062 1_555
Ga0 O10 1.869869 1_555
Ga0 O1 1.908329 1_554
Ga0 O6 1.919803 1_555
Ga1 O3 1.860062 1_555
Ga1 O11 1.869869 1_555
Ga1 O6 1.908329 1_555
Ga1 O1 1.919803 1_555
Ni0 O4 1.983004 1_555
Ni0 O5 2.010336 1_555
Ni0 O8 2.087739 1_455
Ni0 O7 2.157220 1_455
Ni0 O2 2.190698 1_555
Ni1 O12 1.980036 1_554
Ni1 O13 2.006555 1_555
Ni1 O0 2.086366 1_564
Ni1 O2 2.152585 1_565
Ni1 O7 2.180744 1_555
Ni1 O10 2.649842 1_555
Ni2 O5 1.983004 1_556
Ni2 O4 2.010336 1_555
Ni2 O7 2.087739 1_546
Ni2 O8 2.157220 1_545
Ni2 O0 2.190698 1_555
Ni3 O13 1.980036 1_555
Ni3 O12 2.006555 1_555
Ni3 O2 2.086366 1_655
Ni3 O0 2.152585 1_655
Ni3 O8 2.180744 1_555
Ni3 O11 2.649842 1_555
O0 Sr2 2.994091 1_545
O1 Sr1 2.462556 1_555
O1 Sr2 2.463989 1_555
O2 Sr0 2.994091 1_455
O3 Sr1 2.429984 1_645
O3 Sr3 2.481790 1_556
O4 Sr3 2.389537 1_555
O5 Sr1 2.389537 1_554
O6 Sr3 2.462556 1_555
O6 Sr0 2.463989 1_555
O9 Sr3 2.429984 1_465
O9 Sr1 2.481790 1_555
O10 Sr0 2.464671 1_465
O10 Sr2 2.592727 1_554
O10 Sr0 2.848785 1_555
O10 Sr2 3.166969 1_555
O11 Sr2 2.464671 1_645
O11 Sr0 2.592727 1_555
O11 Sr2 2.848785 1_555
O11 Sr0 3.166969 1_556
O12 Sr0 2.388350 1_556
O12 Sr2 2.900874 1_555
O13 Sr2 2.388350 1_555
O13 Sr0 2.900874 1_555
