# generated using pymatgen
data_Mg4Si3
_symmetry_space_group_name_H-M   'P 1'
_cell_length_a   6.31275000
_cell_length_b   7.08365448
_cell_length_c   7.60790932
_cell_angle_alpha   115.29411422
_cell_angle_beta   105.07366995
_cell_angle_gamma   97.72853675
_symmetry_Int_Tables_number   1
_chemical_formula_structural   Mg4Si3
_chemical_formula_sum   'Mg8 Si6'
_cell_volume   285.01073333
_cell_formula_units_Z   2
loop_
 _symmetry_equiv_pos_site_id
 _symmetry_equiv_pos_as_xyz
  1  'x, y, z'
loop_
 _atom_site_type_symbol
 _atom_site_label
 _atom_site_symmetry_multiplicity
 _atom_site_fract_x
 _atom_site_fract_y
 _atom_site_fract_z
 _atom_site_occupancy
  Mg  Mg0  1  0.78298400  0.38248800  0.45883200  1
  Mg  Mg1  1  0.91652500  0.15475600  0.15404400  1
  Mg  Mg2  1  0.03070800  0.58243400  0.78630500  1
  Mg  Mg3  1  0.57104300  0.90707900  0.45806100  1
  Mg  Mg4  1  0.26704800  0.19081800  0.54099300  1
  Mg  Mg5  1  0.22593300  0.68278900  0.17364700  1
  Mg  Mg6  1  0.56368500  0.60252300  0.94361200  1
  Mg  Mg7  1  0.33301700  0.15200700  0.94866900  1
  Si  Si0  1  0.68863700  0.80597100  0.19836600  1
  Si  Si1  1  0.62968800  0.40353600  0.73867000  1
  Si  Si2  1  0.67436200  0.02027900  0.84520300  1
  Si  Si3  1  0.33724000  0.30876300  0.19394200  1
  Si  Si4  1  0.25395700  0.58933200  0.55506700  1
  Si  Si5  1  0.97516700  0.96707600  0.75465000  1
loop_
_geom_bond_atom_site_label_1
_geom_bond_atom_site_label_2
_geom_bond_distance
_geom_bond_site_symmetry_2
Mg0 Mg2 2.240773 1_655
Mg0 Si1 2.516032 1_555
Mg0 Mg1 2.622182 1_555
Mg0 Si3 2.829812 1_555
Mg0 Si4 2.881297 1_655
Mg1 Si2 2.143043 1_554
Mg1 Si3 2.618083 1_655
Mg1 Si0 2.880234 1_545
Mg1 Si4 3.186307 1_655
Mg2 Si1 2.532485 1_455
Mg2 Si4 2.535342 1_555
Mg2 Mg5 2.606429 1_556
Mg2 Si5 2.894565 1_455
Mg3 Si0 2.159678 1_555
Mg3 Mg5 2.373182 1_555
Mg3 Si2 2.566200 1_565
Mg3 Si4 3.254784 1_555
Mg4 Si1 2.262301 1_555
Mg4 Si4 2.792188 1_555
Mg4 Mg5 3.406714 1_545
Mg5 Si0 2.866562 1_555
Mg5 Si3 2.886367 1_555
Mg5 Mg6 3.057559 1_554
Mg5 Si4 3.208760 1_555
Mg6 Si0 1.722724 1_556
Mg6 Si1 1.791454 1_555
Mg6 Si4 3.046044 1_555
Mg7 Si3 1.706245 1_556
Mg7 Si5 2.194405 1_445
Mg7 Si2 2.632292 1_555
Si2 Si5 2.207606 1_545
Si3 Si4 2.853228 1_555
