# generated using pymatgen
data_Rb8Nd(AsS4)4
_symmetry_space_group_name_H-M   'P 1'
_cell_length_a   11.90737262
_cell_length_b   11.90737262
_cell_length_c   11.90737262
_cell_angle_alpha   134.09338741
_cell_angle_beta   128.47208557
_cell_angle_gamma   71.46020817
_symmetry_Int_Tables_number   1
_chemical_formula_structural   Rb8Nd(AsS4)4
_chemical_formula_sum   'Rb8 Nd1 As4 S16'
_cell_volume   929.27027698
_cell_formula_units_Z   1
loop_
 _symmetry_equiv_pos_site_id
 _symmetry_equiv_pos_as_xyz
  1  'x, y, z'
loop_
 _atom_site_type_symbol
 _atom_site_label
 _atom_site_symmetry_multiplicity
 _atom_site_fract_x
 _atom_site_fract_y
 _atom_site_fract_z
 _atom_site_occupancy
  Rb  Rb0  1  0.25329000  0.75329000  0.50000000  1
  Rb  Rb1  1  0.74671000  0.24671000  0.50000000  1
  Rb  Rb2  1  0.21270900  0.21270900  0.00000000  1
  Rb  Rb3  1  0.78729100  0.78729100  0.00000000  1
  Rb  Rb4  1  0.84193900  0.71339100  0.39528500  1
  Rb  Rb5  1  0.68189300  0.28660900  0.12854700  1
  Rb  Rb6  1  0.15806100  0.55334600  0.87145300  1
  Rb  Rb7  1  0.31810700  0.44665400  0.60471500  1
  Nd  Nd0  1  0.50000000  0.00000000  0.50000000  1
  As  As0  1  0.14391300  0.08107300  0.47149000  1
  As  As1  1  0.39041700  0.91892700  0.06284000  1
  As  As2  1  0.85608700  0.32757700  0.93716000  1
  As  As3  1  0.60958300  0.67242300  0.52851000  1
  S  S0  1  0.36649500  0.22323700  0.71932200  1
  S  S1  1  0.49608500  0.77676300  0.14325800  1
  S  S2  1  0.63350500  0.35282700  0.85674200  1
  S  S3  1  0.50391500  0.64717300  0.28067800  1
  S  S4  1  0.17007700  0.78561900  0.79364600  1
  S  S5  1  0.00802700  0.21438100  0.38445700  1
  S  S6  1  0.82992300  0.62357000  0.61554300  1
  S  S7  1  0.99197300  0.37643000  0.20635400  1
  S  S8  1  0.03086000  0.02250900  0.52000500  1
  S  S9  1  0.49749600  0.97749100  0.00835100  1
  S  S10  1  0.96914000  0.48914500  0.99164900  1
  S  S11  1  0.50250400  0.51085500  0.47999500  1
  S  S12  1  0.60433000  0.92265700  0.73858900  1
  S  S13  1  0.81593300  0.07734300  0.68167400  1
  S  S14  1  0.39567000  0.13425900  0.31832600  1
  S  S15  1  0.18406800  0.86574100  0.26141100  1
loop_
_geom_bond_atom_site_label_1
_geom_bond_atom_site_label_2
_geom_bond_distance
_geom_bond_site_symmetry_2
Rb0 S8 3.416294 1_565
Rb0 S11 3.416294 1_555
Rb0 S15 3.495972 1_555
Rb0 S12 3.495972 1_555
Rb0 S9 3.573473 1_556
Rb0 S10 3.573473 1_454
Rb1 S10 3.416294 1_555
Rb1 S9 3.416294 1_545
Rb1 S14 3.495967 1_555
Rb1 S13 3.495978 1_555
Rb1 S11 3.573473 1_555
Rb1 S8 3.573473 1_655
Rb2 S11 3.491441 1_555
Rb2 S8 3.491441 1_554
Rb2 S10 3.644444 1_454
Rb2 S9 3.644444 1_545
Rb2 S14 3.653037 1_555
Rb2 S13 3.653039 1_454
Rb2 S4 3.854542 1_544
Rb2 S7 3.854544 1_455
Rb3 S9 3.491441 1_555
Rb3 S10 3.491441 1_554
Rb3 S8 3.644444 1_665
Rb3 S11 3.644444 1_554
Rb3 S15 3.653047 1_655
Rb3 S12 3.653047 1_554
Rb3 S6 3.854536 1_554
Rb3 S5 3.854544 1_665
Rb4 S13 3.224873 1_565
Rb4 S4 3.450378 1_655
Rb4 S7 3.497443 1_555
Rb4 S1 3.511799 1_555
Rb4 S3 3.517208 1_555
Rb4 S6 3.537062 1_555
Rb4 S8 3.783603 1_665
Rb4 S2 3.791162 1_554
Rb5 S12 3.224873 1_544
Rb5 S5 3.450384 1_655
Rb5 S6 3.497449 1_555
Rb5 S0 3.511789 1_554
Rb5 S2 3.517202 1_554
Rb5 S7 3.537059 1_555
Rb5 S9 3.783603 1_545
Rb5 S3 3.791157 1_555
Rb6 S15 3.224867 1_556
Rb6 S6 3.450384 1_455
Rb6 S5 3.497449 1_555
Rb6 S3 3.511794 1_556
Rb6 S1 3.517212 1_556
Rb6 S4 3.537070 1_555
Rb6 S10 3.783592 1_455
Rb6 S0 3.791164 1_555
Rb7 S14 3.224873 1_555
Rb7 S7 3.450378 1_455
Rb7 S4 3.497443 1_555
Rb7 S2 3.511794 1_555
Rb7 S0 3.517212 1_555
Rb7 S5 3.537065 1_555
Rb7 S11 3.783592 1_555
Rb7 S1 3.791164 1_556
Nd0 S12 2.997450 1_545
Nd0 S15 2.997450 1_545
Nd0 S13 2.997457 1_555
Nd0 S14 2.997460 1_555
Nd0 S3 3.038222 1_545
Nd0 S1 3.038222 1_545
Nd0 S2 3.038222 1_555
Nd0 S0 3.038222 1_555
As0 S8 2.181141 1_555
As0 S0 2.183544 1_555
As0 S5 2.186619 1_555
As0 S15 2.200674 1_545
As1 S9 2.181141 1_555
As1 S1 2.183544 1_555
As1 S4 2.186612 1_554
As1 S14 2.200668 1_565
As2 S10 2.181141 1_555
As2 S2 2.183544 1_555
As2 S7 2.186619 1_556
As2 S13 2.200673 1_555
As3 S11 2.181141 1_555
As3 S3 2.183544 1_555
As3 S6 2.186609 1_555
As3 S12 2.200674 1_555
