# generated using pymatgen
data_NdGa2Ni3
_symmetry_space_group_name_H-M   'P 1'
_cell_length_a   8.82351273
_cell_length_b   8.82327498
_cell_length_c   4.08924005
_cell_angle_alpha   90.00000000
_cell_angle_beta   90.00000000
_cell_angle_gamma   119.99649204
_symmetry_Int_Tables_number   1
_chemical_formula_structural   NdGa2Ni3
_chemical_formula_sum   'Nd3 Ga6 Ni9'
_cell_volume   275.71469809
_cell_formula_units_Z   3
loop_
 _symmetry_equiv_pos_site_id
 _symmetry_equiv_pos_as_xyz
  1  'x, y, z'
loop_
 _atom_site_type_symbol
 _atom_site_label
 _atom_site_symmetry_multiplicity
 _atom_site_fract_x
 _atom_site_fract_y
 _atom_site_fract_z
 _atom_site_occupancy
  Nd  Nd0  1  0.33331378  0.66667288  0.50000000  1
  Nd  Nd1  1  0.66664717  0.33331473  0.50000000  1
  Nd  Nd2  1  1.00002821  1.00002055  0.00000000  1
  Ga  Ga0  1  0.47460527  -0.00000006  0.00000000  1
  Ga  Ga1  1  0.00001935  0.47464990  0.00000000  1
  Ga  Ga2  1  0.52532811  0.52531286  -0.00000000  1
  Ga  Ga3  1  0.72722285  0.00001442  0.50000000  1
  Ga  Ga4  1  0.00005392  0.72725549  0.50000000  1
  Ga  Ga5  1  0.27276251  0.27272791  0.50000000  1
  Ni  Ni0  1  0.20269219  0.37204656  0.00000000  1
  Ni  Ni1  1  0.62790744  0.83061699  0.00000000  1
  Ni  Ni2  1  0.16941688  0.79740008  -0.00000000  1
  Ni  Ni3  1  0.83064866  0.62796677  0.00000000  1
  Ni  Ni4  1  0.79729068  0.16938384  0.00000000  1
  Ni  Ni5  1  0.37202808  0.20261045  0.00000000  1
  Ni  Ni6  1  0.28812066  0.99999978  0.50000000  1
  Ni  Ni7  1  0.00000606  0.28810350  0.50000000  1
  Ni  Ni8  1  0.71190819  0.71190033  0.50000000  1
loop_
_geom_bond_atom_site_label_1
_geom_bond_atom_site_label_2
_geom_bond_distance
_geom_bond_site_symmetry_2
Nd0 Ni1 3.044652 1_555
Nd0 Ni1 3.044652 1_556
Nd0 Ni2 3.044685 1_555
Nd0 Ni2 3.044685 1_556
Nd0 Ni0 3.044797 1_556
Nd0 Ni0 3.044797 1_555
Nd0 Ni6 3.159327 1_555
Nd0 Ni7 3.159727 1_555
Nd0 Ni8 3.159983 1_555
Nd1 Ni4 3.044423 1_555
Nd1 Ni4 3.044423 1_556
Nd1 Ni5 3.044767 1_556
Nd1 Ni5 3.044767 1_555
Nd1 Ni3 3.044952 1_556
Nd1 Ni3 3.044952 1_555
Nd1 Ni6 3.159550 1_545
Nd1 Ni8 3.159692 1_555
Nd1 Ni7 3.159774 1_655
Nd2 Ni2 2.846351 1_655
Nd2 Ni5 2.846468 1_665
Nd2 Ni0 2.846624 1_665
Nd2 Ni3 2.846811 1_555
Nd2 Ni4 2.847092 1_565
Nd2 Ni1 2.847408 1_555
Nd2 Ni7 3.262192 1_664
Nd2 Ni7 3.262192 1_665
Nd2 Ni6 3.262305 1_654
Nd2 Ni6 3.262305 1_655
Nd2 Ni8 3.262503 1_555
Nd2 Ni8 3.262503 1_554
Ga0 Ni5 2.373366 1_555
Ga0 Ni2 2.373534 1_545
Ga0 Ni1 2.466703 1_545
Ga0 Ni4 2.466875 1_555
Ga0 Ni6 2.624495 1_544
Ga0 Ni6 2.624495 1_545
Ga0 Nd1 3.273832 1_554
Ga0 Nd1 3.273832 1_555
Ga0 Nd0 3.273871 1_545
Ga0 Nd0 3.273871 1_544
Ga1 Ni0 2.374087 1_555
Ga1 Ni4 2.374219 1_455
Ga1 Ni3 2.466723 1_455
Ga1 Ni2 2.467301 1_555
Ga1 Ni7 2.624772 1_554
Ga1 Ni7 2.624772 1_555
Ga1 Nd0 3.273754 1_554
Ga1 Nd0 3.273754 1_555
Ga1 Nd1 3.274185 1_454
Ga1 Nd1 3.274185 1_455
Ga2 Ni1 2.374400 1_555
Ga2 Ni3 2.374488 1_555
Ga2 Ni0 2.466493 1_555
Ga2 Ni5 2.466932 1_555
Ga2 Ni8 2.625085 1_554
Ga2 Ni8 2.625085 1_555
Ga2 Nd1 3.273723 1_554
Ga2 Nd1 3.273723 1_555
Ga2 Nd0 3.274066 1_555
Ga2 Nd0 3.274066 1_554
Ga3 Ni4 2.423243 1_555
Ga3 Ni4 2.423243 1_556
Ga3 Ni1 2.423368 1_546
Ga3 Ni1 2.423368 1_545
Ga3 Ni7 2.477288 1_655
Ga3 Ni8 2.477318 1_545
Ga3 Nd2 3.158240 1_546
Ga3 Nd2 3.158240 1_545
Ga3 Nd1 3.241242 1_555
Ga3 Nd0 3.241799 1_545
Ga4 Ni2 2.423200 1_555
Ga4 Ni2 2.423200 1_556
Ga4 Ni3 2.423401 1_456
Ga4 Ni3 2.423401 1_455
Ga4 Ni6 2.477032 1_555
Ga4 Ni8 2.477503 1_455
Ga4 Nd2 3.158026 1_455
Ga4 Nd2 3.158026 1_456
Ga4 Nd0 3.240996 1_555
Ga4 Nd1 3.242157 1_455
Ga5 Ni5 2.423259 1_556
Ga5 Ni5 2.423259 1_555
Ga5 Ni0 2.423302 1_555
Ga5 Ni0 2.423302 1_556
Ga5 Ni6 2.476887 1_545
Ga5 Ni7 2.477282 1_555
Ga5 Nd2 3.157765 1_446
Ga5 Nd2 3.157765 1_445
Ga5 Nd1 3.241421 1_555
Ga5 Nd0 3.241966 1_555
Ni0 Ni7 2.569626 1_555
Ni0 Ni7 2.569626 1_554
Ni0 Ni5 2.588607 1_555
Ni1 Ni8 2.569688 1_554
Ni1 Ni8 2.569688 1_555
Ni1 Ni4 2.588670 1_565
Ni2 Ni6 2.569217 1_554
Ni2 Ni6 2.569217 1_555
Ni2 Ni3 2.588750 1_455
Ni3 Ni8 2.569518 1_554
Ni3 Ni8 2.569518 1_555
Ni4 Ni7 2.569749 1_655
Ni4 Ni7 2.569749 1_654
Ni5 Ni6 2.569250 1_544
Ni5 Ni6 2.569250 1_545
