# generated using pymatgen
data_NaYMg6O8
_symmetry_space_group_name_H-M   'P 1'
_cell_length_a   8.92973975
_cell_length_b   4.40948723
_cell_length_c   4.40948723
_cell_angle_alpha   90.00000000
_cell_angle_beta   90.00000000
_cell_angle_gamma   90.00000000
_symmetry_Int_Tables_number   1
_chemical_formula_structural   NaYMg6O8
_chemical_formula_sum   'Na1 Y1 Mg6 O8'
_cell_volume   173.62608806
_cell_formula_units_Z   1
loop_
 _symmetry_equiv_pos_site_id
 _symmetry_equiv_pos_as_xyz
  1  'x, y, z'
loop_
 _atom_site_type_symbol
 _atom_site_label
 _atom_site_symmetry_multiplicity
 _atom_site_fract_x
 _atom_site_fract_y
 _atom_site_fract_z
 _atom_site_occupancy
  Na  Na0  1  0.50000000  -0.00000000  -0.00000000  1
  Y  Y0  1  -0.00000000  -0.00000000  -0.00000000  1
  Mg  Mg0  1  -0.00000000  0.50000000  0.50000000  1
  Mg  Mg1  1  0.50000000  0.50000000  0.50000000  1
  Mg  Mg2  1  0.27289060  0.00000000  0.50000000  1
  Mg  Mg3  1  0.72710940  -0.00000000  0.50000000  1
  Mg  Mg4  1  0.27289060  0.50000000  0.00000000  1
  Mg  Mg5  1  0.72710940  0.50000000  -0.00000000  1
  O  O0  1  0.24712944  -0.00000000  -0.00000000  1
  O  O1  1  0.75287056  0.00000000  0.00000000  1
  O  O2  1  0.24751663  0.50000000  0.50000000  1
  O  O3  1  0.75248337  0.50000000  0.50000000  1
  O  O4  1  -0.00000000  -0.00000000  0.50000000  1
  O  O5  1  0.50000000  -0.00000000  0.50000000  1
  O  O6  1  0.00000000  0.50000000  -0.00000000  1
  O  O7  1  0.50000000  0.50000000  -0.00000000  1
loop_
_geom_bond_atom_site_label_1
_geom_bond_atom_site_label_2
_geom_bond_distance
_geom_bond_site_symmetry_2
Na0 O7 2.204744 1_555
Na0 O5 2.204744 1_554
Na0 O5 2.204744 1_555
Na0 O7 2.204744 1_545
Na0 O0 2.258068 1_555
Na0 O1 2.258068 1_555
Mg0 O6 2.204744 1_556
Mg0 O6 2.204744 1_555
Mg0 O4 2.204744 1_555
Mg0 O4 2.204744 1_565
Mg0 O2 2.210259 1_555
Mg0 O3 2.210259 1_455
Mg1 O7 2.204744 1_555
Mg1 O7 2.204744 1_556
Mg1 O5 2.204744 1_555
Mg1 O5 2.204744 1_565
Mg1 O2 2.254611 1_555
Mg1 O3 2.254611 1_555
Mg2 O5 2.028028 1_555
Mg2 O2 2.216356 1_545
Mg2 O2 2.216356 1_555
Mg2 O0 2.216712 1_555
Mg2 O0 2.216712 1_556
Mg2 O4 2.436842 1_555
Mg3 O5 2.028028 1_555
Mg3 O3 2.216356 1_545
Mg3 O3 2.216356 1_555
Mg3 O1 2.216712 1_555
Mg3 O1 2.216712 1_556
Mg3 O4 2.436842 1_655
Mg4 O7 2.028028 1_555
Mg4 O2 2.216356 1_554
Mg4 O2 2.216356 1_555
Mg4 O0 2.216712 1_565
Mg4 O0 2.216712 1_555
Mg4 O6 2.436842 1_555
Mg5 O7 2.028028 1_555
Mg5 O3 2.216356 1_554
Mg5 O3 2.216356 1_555
Mg5 O1 2.216712 1_565
Mg5 O1 2.216712 1_555
Mg5 O6 2.436842 1_655
O0 Y0 2.206802 1_555
O1 Y0 2.206802 1_655
O4 Y0 2.204744 1_556
O4 Y0 2.204744 1_555
O6 Y0 2.204744 1_565
O6 Y0 2.204744 1_555
