# generated using pymatgen
data_Fe7Se3
_symmetry_space_group_name_H-M   'P 1'
_cell_length_a   5.96302431
_cell_length_b   7.83898629
_cell_length_c   14.23802245
_cell_angle_alpha   89.96905778
_cell_angle_beta   59.02702615
_cell_angle_gamma   89.99017149
_symmetry_Int_Tables_number   1
_chemical_formula_structural   Fe7Se3
_chemical_formula_sum   'Fe28 Se12'
_cell_volume   570.64328376
_cell_formula_units_Z   4
loop_
 _symmetry_equiv_pos_site_id
 _symmetry_equiv_pos_as_xyz
  1  'x, y, z'
loop_
 _atom_site_type_symbol
 _atom_site_label
 _atom_site_symmetry_multiplicity
 _atom_site_fract_x
 _atom_site_fract_y
 _atom_site_fract_z
 _atom_site_occupancy
  Fe  Fe0  1  0.72446800  0.49873800  0.19580400  1
  Fe  Fe1  1  0.16514000  0.40930500  0.01257700  1
  Fe  Fe2  1  0.44636300  0.24995600  0.31710300  1
  Fe  Fe3  1  0.18279500  0.08856900  0.49734600  1
  Fe  Fe4  1  0.80514300  0.50360400  0.68994000  1
  Fe  Fe5  1  0.53285800  0.24970200  0.82307400  1
  Fe  Fe6  1  0.46714200  0.75029800  0.17692600  1
  Fe  Fe7  1  0.05292100  0.75011300  0.58992900  1
  Fe  Fe8  1  0.27562700  0.99813800  0.80420900  1
  Fe  Fe9  1  0.55363700  0.75004400  0.68289700  1
  Fe  Fe10  1  0.27553200  0.50126200  0.80419600  1
  Fe  Fe11  1  0.94707900  0.24988700  0.41007100  1
  Fe  Fe12  1  0.07029200  0.25013500  0.69437600  1
  Fe  Fe13  1  0.80546500  0.99673000  0.68998200  1
  Fe  Fe14  1  0.19485700  0.49639600  0.31006000  1
  Fe  Fe15  1  0.92970800  0.74986500  0.30562400  1
  Fe  Fe16  1  0.81720500  0.91143100  0.50265400  1
  Fe  Fe17  1  0.19453500  0.00327000  0.31001800  1
  Fe  Fe18  1  0.81706200  0.58829300  0.50251500  1
  Fe  Fe19  1  0.83486000  0.59069500  0.98742300  1
  Fe  Fe20  1  0.16555100  0.08921700  0.01247500  1
  Fe  Fe21  1  0.01374100  0.74977700  0.78853200  1
  Fe  Fe22  1  0.25291900  0.74976000  0.90970100  1
  Fe  Fe23  1  0.98625900  0.25022300  0.21146800  1
  Fe  Fe24  1  0.72437300  0.00186200  0.19579100  1
  Fe  Fe25  1  0.83444900  0.91078300  0.98752500  1
  Fe  Fe26  1  0.18293800  0.41170700  0.49748500  1
  Fe  Fe27  1  0.74708100  0.25024000  0.09029900  1
  Se  Se0  1  0.98030200  0.75046200  0.11150200  1
  Se  Se1  1  0.24403700  0.75012200  0.39133500  1
  Se  Se2  1  0.59446500  0.54002500  0.88009100  1
  Se  Se3  1  0.69729400  0.46783200  0.37050300  1
  Se  Se4  1  0.40553500  0.45997500  0.11990900  1
  Se  Se5  1  0.75596300  0.24987800  0.60866500  1
  Se  Se6  1  0.30270600  0.53216800  0.62949700  1
  Se  Se7  1  0.69813500  0.03190600  0.37032400  1
  Se  Se8  1  0.59494100  0.95916500  0.87998800  1
  Se  Se9  1  0.40505900  0.04083500  0.12001200  1
  Se  Se10  1  0.01969800  0.24953800  0.88849800  1
  Se  Se11  1  0.30186500  0.96809400  0.62967600  1
loop_
_geom_bond_atom_site_label_1
_geom_bond_atom_site_label_2
_geom_bond_distance
_geom_bond_site_symmetry_2
Fe0 Se0 2.403234 1_555
Fe0 Se3 2.420014 1_555
Fe0 Se4 2.644364 1_555
Fe1 Se2 2.488092 1_554
Fe1 Se4 2.608376 1_555
Fe1 Se10 2.649807 1_554
Fe1 Se0 2.959036 1_455
Fe2 Se3 2.628166 1_555
Fe2 Se7 2.630306 1_555
Fe3 Se11 2.514095 1_545
Fe3 Se5 2.537339 1_455
Fe3 Se7 2.681693 1_555
Fe3 Se1 2.981124 1_545
Fe4 Se2 2.342984 1_555
Fe4 Se5 2.394373 1_555
Fe4 Se6 2.639254 1_655
Fe5 Se2 2.506525 1_555
Fe5 Se8 2.507443 1_545
Fe5 Se5 2.628509 1_555
Fe5 Se10 2.701369 1_555
Fe6 Se4 2.506525 1_555
Fe6 Se9 2.507443 1_565
Fe6 Se1 2.628509 1_555
Fe6 Se0 2.701369 1_555
Fe7 Se1 2.444849 1_555
Fe7 Se11 2.512030 1_555
Fe7 Se6 2.513275 1_555
Fe8 Se10 2.401965 1_565
Fe8 Se11 2.419842 1_555
Fe8 Se8 2.645170 1_555
Fe9 Se6 2.628166 1_555
Fe9 Se11 2.630306 1_555
Fe10 Se10 2.403234 1_555
Fe10 Se6 2.420014 1_555
Fe10 Se2 2.644364 1_555
Fe11 Se5 2.444849 1_555
Fe11 Se7 2.512030 1_555
Fe11 Se3 2.513275 1_555
Fe12 Se11 2.517029 1_545
Fe12 Se6 2.518539 1_555
Fe12 Se10 2.621447 1_555
Fe12 Se5 2.712340 1_455
Fe13 Se8 2.342024 1_555
Fe13 Se5 2.390530 1_565
Fe13 Se11 2.633155 1_655
Fe14 Se4 2.342984 1_555
Fe14 Se1 2.394373 1_555
Fe14 Se3 2.639254 1_455
Fe15 Se7 2.517029 1_565
Fe15 Se3 2.518539 1_555
Fe15 Se0 2.621447 1_555
Fe15 Se1 2.712340 1_655
Fe16 Se7 2.514095 1_565
Fe16 Se1 2.537339 1_655
Fe16 Se11 2.681693 1_555
Fe16 Se5 2.981124 1_565
Fe17 Se9 2.342024 1_555
Fe17 Se1 2.390530 1_545
Fe17 Se7 2.633155 1_455
Fe18 Se3 2.513642 1_555
Fe18 Se1 2.539323 1_655
Fe18 Se6 2.676114 1_555
Fe18 Se5 2.980557 1_555
Fe19 Se4 2.488092 1_556
Fe19 Se2 2.608376 1_555
Fe19 Se0 2.649807 1_556
Fe19 Se10 2.959036 1_655
Fe20 Se8 2.486667 1_544
Fe20 Se9 2.603420 1_555
Fe20 Se10 2.651250 1_554
Fe20 Se0 2.941724 1_445
Fe21 Se6 2.644519 1_555
Fe21 Se11 2.644525 1_555
Fe21 Se8 2.698182 1_455
Fe21 Se2 2.701515 1_455
Fe22 Se0 2.467939 1_456
Fe22 Se2 2.478832 1_555
Fe22 Se8 2.478993 1_555
Fe23 Se3 2.644519 1_555
Fe23 Se7 2.644525 1_555
Fe23 Se9 2.698182 1_655
Fe23 Se4 2.701515 1_655
Fe24 Se0 2.401965 1_545
Fe24 Se7 2.419842 1_555
Fe24 Se9 2.645170 1_555
Fe25 Se9 2.486667 1_566
Fe25 Se8 2.603420 1_555
Fe25 Se0 2.651250 1_556
Fe25 Se10 2.941724 1_665
Fe26 Se6 2.513642 1_555
Fe26 Se5 2.539323 1_455
Fe26 Se3 2.676114 1_555
Fe26 Se1 2.980557 1_555
Fe27 Se10 2.467939 1_654
Fe27 Se4 2.478832 1_555
Fe27 Se9 2.478993 1_555
