# generated using pymatgen
data_Mg6NbBi
_symmetry_space_group_name_H-M   'P 1'
_cell_length_a   5.28416700
_cell_length_b   6.09227800
_cell_length_c   11.06816000
_cell_angle_alpha   90.00000000
_cell_angle_beta   90.00000000
_cell_angle_gamma   90.00000000
_symmetry_Int_Tables_number   1
_chemical_formula_structural   Mg6NbBi
_chemical_formula_sum   'Mg12 Nb2 Bi2'
_cell_volume   356.31300658
_cell_formula_units_Z   2
loop_
 _symmetry_equiv_pos_site_id
 _symmetry_equiv_pos_as_xyz
  1  'x, y, z'
loop_
 _atom_site_type_symbol
 _atom_site_label
 _atom_site_symmetry_multiplicity
 _atom_site_fract_x
 _atom_site_fract_y
 _atom_site_fract_z
 _atom_site_occupancy
  Mg  Mg0  1  0.50000000  0.24803800  0.41687900  1
  Mg  Mg1  1  0.50000000  0.75196200  0.41687900  1
  Mg  Mg2  1  0.00000000  0.76303300  0.08300600  1
  Mg  Mg3  1  0.00000000  0.23696700  0.08300600  1
  Mg  Mg4  1  0.00000000  0.00000000  0.32748800  1
  Mg  Mg5  1  0.00000000  0.50000000  0.33755800  1
  Mg  Mg6  1  0.50000000  0.74803800  0.91687900  1
  Mg  Mg7  1  0.50000000  0.25196200  0.91687900  1
  Mg  Mg8  1  0.00000000  0.26303300  0.58300600  1
  Mg  Mg9  1  0.00000000  0.73696700  0.58300600  1
  Mg  Mg10  1  0.00000000  0.50000000  0.82748800  1
  Mg  Mg11  1  0.00000000  0.00000000  0.83755800  1
  Nb  Nb0  1  0.50000000  0.00000000  0.16697100  1
  Nb  Nb1  1  0.50000000  0.50000000  0.66697100  1
  Bi  Bi0  1  0.50000000  0.50000000  0.16820900  1
  Bi  Bi1  1  0.50000000  0.00000000  0.66820900  1
loop_
_geom_bond_atom_site_label_1
_geom_bond_atom_site_label_2
_geom_bond_distance
_geom_bond_site_symmetry_2
Mg0 Mg1 3.022233 1_545
Mg0 Mg1 3.070045 1_555
Mg0 Nb0 3.151880 1_555
Mg0 Nb1 3.165192 1_555
Mg0 Mg5 3.179257 1_655
Mg0 Mg5 3.179257 1_555
Mg0 Mg4 3.200465 1_655
Mg0 Mg4 3.200465 1_555
Mg0 Mg8 3.220224 1_555
Mg0 Mg8 3.220224 1_655
Mg1 Nb0 3.151880 1_565
Mg1 Nb1 3.165192 1_555
Mg1 Mg5 3.179257 1_555
Mg1 Mg5 3.179257 1_655
Mg1 Mg4 3.200465 1_665
Mg1 Mg4 3.200465 1_565
Mg1 Mg9 3.220224 1_555
Mg1 Mg9 3.220224 1_655
Mg2 Mg3 2.887338 1_565
Mg2 Mg4 3.066991 1_565
Mg2 Nb0 3.150945 1_465
Mg2 Nb0 3.150945 1_565
Mg2 Mg3 3.204940 1_555
Mg2 Mg6 3.220224 1_454
Mg2 Mg6 3.220224 1_554
Mg2 Mg5 3.241262 1_555
Mg3 Mg4 3.066991 1_555
Mg3 Nb0 3.150945 1_455
Mg3 Nb0 3.150945 1_555
Mg3 Mg7 3.220224 1_454
Mg3 Mg7 3.220224 1_554
Mg3 Mg5 3.241262 1_555
Mg4 Mg5 3.048177 1_545
Mg4 Mg5 3.048177 1_555
Mg4 Nb0 3.183867 1_555
Mg4 Nb0 3.183867 1_455
Mg4 Mg8 3.250560 1_555
Mg4 Mg9 3.250560 1_545
Mg5 Mg9 3.076428 1_555
Mg5 Mg8 3.076428 1_555
Mg6 Mg7 3.022233 1_555
Mg6 Mg7 3.070045 1_565
Mg6 Nb1 3.151880 1_555
Mg6 Nb0 3.165192 1_566
Mg7 Nb1 3.151880 1_555
Mg7 Nb0 3.165192 1_556
Mg8 Mg9 2.887338 1_555
Mg8 Nb1 3.150945 1_455
Mg8 Nb1 3.150945 1_555
Mg8 Mg9 3.204940 1_545
Mg9 Nb1 3.150945 1_455
Mg9 Nb1 3.150945 1_555
Mg10 Mg11 3.048177 1_565
Mg10 Mg11 3.048177 1_555
Mg10 Mg9 3.066991 1_555
Mg10 Mg8 3.066991 1_555
Mg10 Nb1 3.183867 1_555
Mg10 Nb1 3.183867 1_455
Mg10 Mg6 3.200465 1_555
Mg10 Mg6 3.200465 1_455
Mg10 Mg7 3.200465 1_555
Mg10 Mg7 3.200465 1_455
Mg10 Mg2 3.250560 1_556
Mg10 Mg3 3.250560 1_556
Mg11 Mg3 3.076428 1_556
Mg11 Mg2 3.076428 1_546
Mg11 Mg7 3.179257 1_455
Mg11 Mg7 3.179257 1_555
Mg11 Mg6 3.179257 1_545
Mg11 Mg6 3.179257 1_445
Mg11 Mg8 3.241262 1_555
Mg11 Mg9 3.241262 1_545
Bi0 Nb0 3.046170 1_565
Bi0 Nb0 3.046170 1_555
Bi0 Mg1 3.151437 1_555
Bi0 Mg0 3.151437 1_555
Bi0 Mg6 3.165701 1_554
Bi0 Mg7 3.165701 1_554
Bi0 Mg2 3.230765 1_655
Bi0 Mg2 3.230765 1_555
Bi0 Mg3 3.230765 1_655
Bi0 Mg3 3.230765 1_555
Bi0 Mg5 3.239431 1_655
Bi0 Mg5 3.239431 1_555
Bi1 Nb1 3.046170 1_545
Bi1 Nb1 3.046170 1_555
Bi1 Mg7 3.151437 1_555
Bi1 Mg6 3.151437 1_545
Bi1 Mg0 3.165701 1_555
Bi1 Mg1 3.165701 1_545
Bi1 Mg8 3.230765 1_555
Bi1 Mg8 3.230765 1_655
Bi1 Mg9 3.230765 1_645
Bi1 Mg9 3.230765 1_545
Bi1 Mg11 3.239431 1_555
Bi1 Mg11 3.239431 1_655
