# generated using pymatgen
data_CsSmI3
_symmetry_space_group_name_H-M   'P 1'
_cell_length_a   8.55511557
_cell_length_b   8.55511557
_cell_length_c   12.01708400
_cell_angle_alpha   90.00000000
_cell_angle_beta   90.00000000
_cell_angle_gamma   148.66192598
_symmetry_Int_Tables_number   1
_chemical_formula_structural   CsSmI3
_chemical_formula_sum   'Cs2 Sm2 I6'
_cell_volume   457.43215492
_cell_formula_units_Z   2
loop_
 _symmetry_equiv_pos_site_id
 _symmetry_equiv_pos_as_xyz
  1  'x, y, z'
loop_
 _atom_site_type_symbol
 _atom_site_label
 _atom_site_symmetry_multiplicity
 _atom_site_fract_x
 _atom_site_fract_y
 _atom_site_fract_z
 _atom_site_occupancy
  Cs  Cs0  1  0.24443500  0.75556500  0.25000000  1
  Cs  Cs1  1  0.75556500  0.24443500  0.75000000  1
  Sm  Sm0  1  0.00000000  0.00000000  0.00000000  1
  Sm  Sm1  1  0.00000000  0.00000000  0.50000000  1
  I  I0  1  0.62848400  0.37151600  0.04535500  1
  I  I1  1  0.37151600  0.62848400  0.95464500  1
  I  I2  1  0.37151600  0.62848400  0.54535500  1
  I  I3  1  0.62848400  0.37151600  0.45464500  1
  I  I4  1  0.93728300  0.06271700  0.25000000  1
  I  I5  1  0.06271700  0.93728300  0.75000000  1
loop_
_geom_bond_atom_site_label_1
_geom_bond_atom_site_label_2
_geom_bond_distance
_geom_bond_site_symmetry_2
Cs0 I3 3.877564 1_565
Cs0 I0 3.877564 1_455
Cs0 I3 3.877564 1_455
Cs0 I0 3.877564 1_565
Cs0 I4 3.928406 1_565
Cs0 I4 3.928406 1_455
Cs0 I2 4.120759 1_555
Cs0 I1 4.120759 1_554
Cs1 I2 3.877564 1_655
Cs1 I2 3.877564 1_545
Cs1 I1 3.877564 1_655
Cs1 I1 3.877564 1_545
Cs1 I5 3.928406 1_655
Cs1 I5 3.928406 1_545
Cs1 I0 4.120759 1_556
Cs1 I3 4.120759 1_555
I0 Sm0 3.180594 1_555
I0 Sm0 3.180594 1_665
I1 Sm0 3.180594 1_666
I1 Sm0 3.180594 1_556
I2 Sm1 3.180594 1_555
I2 Sm1 3.180594 1_665
I3 Sm1 3.180594 1_555
I3 Sm1 3.180594 1_665
I4 Sm0 3.176979 1_655
I4 Sm1 3.176979 1_655
I5 Sm1 3.176979 1_565
I5 Sm0 3.176979 1_566
