# generated using pymatgen
data_Tb3TlF10
_symmetry_space_group_name_H-M   'P 1'
_cell_length_a   8.22452351
_cell_length_b   8.22453062
_cell_length_c   13.41733371
_cell_angle_alpha   89.99992488
_cell_angle_beta   90.00018157
_cell_angle_gamma   120.00018516
_symmetry_Int_Tables_number   1
_chemical_formula_structural   Tb3TlF10
_chemical_formula_sum   'Tb12 Tl4 F40'
_cell_volume   785.99161216
_cell_formula_units_Z   4
loop_
 _symmetry_equiv_pos_site_id
 _symmetry_equiv_pos_as_xyz
  1  'x, y, z'
loop_
 _atom_site_type_symbol
 _atom_site_label
 _atom_site_symmetry_multiplicity
 _atom_site_fract_x
 _atom_site_fract_y
 _atom_site_fract_z
 _atom_site_occupancy
  Tb  Tb0  1  0.17382040  0.34763893  0.72588308  1
  Tb  Tb1  1  0.17381997  0.82618057  0.72588381  1
  Tb  Tb2  1  0.82617631  0.65235666  0.22588792  1
  Tb  Tb3  1  0.65236080  0.82617963  0.72588388  1
  Tb  Tb4  1  0.82617747  0.17382235  0.22588812  1
  Tb  Tb5  1  0.34764363  0.17382325  0.22588841  1
  Tb  Tb6  1  0.50593359  0.01185940  0.98561293  1
  Tb  Tb7  1  0.50593008  0.49406662  0.98561335  1
  Tb  Tb8  1  0.49407307  0.98814569  0.48563412  1
  Tb  Tb9  1  0.98814328  0.49407335  0.98561253  1
  Tb  Tb10  1  0.49407329  0.50592743  0.48563390  1
  Tb  Tb11  1  0.01185367  0.50592663  0.48563406  1
  Tl  Tl0  1  0.66666591  0.33333363  0.73240998  1
  Tl  Tl1  1  0.33333396  0.66666592  0.23241135  1
  Tl  Tl2  1  0.00000014  0.00000015  0.97955121  1
  Tl  Tl3  1  0.00000041  0.00000009  0.47954189  1
  F  F0  1  0.18364064  0.36728056  0.54961730  1
  F  F1  1  0.18364033  0.81635883  0.54961791  1
  F  F2  1  0.81635392  0.63271198  0.04959598  1
  F  F3  1  0.63271875  0.81635936  0.54961823  1
  F  F4  1  0.81635582  0.18364354  0.04959509  1
  F  F5  1  0.36728891  0.18364564  0.04959604  1
  F  F6  1  0.66666829  0.33333393  0.94214304  1
  F  F7  1  0.33333354  0.66666614  0.44219305  1
  F  F8  1  0.66666720  0.33333377  0.27587005  1
  F  F9  1  0.33333369  0.66666630  0.77584309  1
  F  F10  1  0.77810021  0.55619927  0.52217229  1
  F  F11  1  0.77809797  0.22189626  0.52217083  1
  F  F12  1  0.22189585  0.44379211  0.02216652  1
  F  F13  1  0.44379967  0.22190036  0.52217155  1
  F  F14  1  0.22190050  0.77810964  0.02216382  1
  F  F15  1  0.55620902  0.77809924  0.02216301  1
  F  F16  1  0.88997668  0.77995272  0.69145129  1
  F  F17  1  0.88997561  0.11002383  0.69145174  1
  F  F18  1  0.11002056  0.22004219  0.19144205  1
  F  F19  1  0.22004794  0.11002369  0.69145093  1
  F  F20  1  0.11002170  0.88997846  0.19144227  1
  F  F21  1  0.77995851  0.88998004  0.19144178  1
  F  F22  1  0.66171898  0.66389751  0.85498590  1
  F  F23  1  0.00218404  0.33828518  0.85498617  1
  F  F24  1  0.33827178  0.33608175  0.35500883  1
  F  F25  1  0.00218108  0.66389917  0.85498639  1
  F  F26  1  0.33610164  0.99782018  0.85498621  1
  F  F27  1  0.99780608  0.66172378  0.35500816  1
  F  F28  1  0.33610255  0.33828234  0.85498593  1
  F  F29  1  0.99780938  0.33608117  0.35500857  1
  F  F30  1  0.66391872  0.00219057  0.35500841  1
  F  F31  1  0.66391864  0.66172764  0.35500845  1
  F  F32  1  0.66171536  0.99781650  0.85498653  1
  F  F33  1  0.33827646  0.00219550  0.35500837  1
  F  F34  1  0.47898374  0.95796656  0.66025099  1
  F  F35  1  0.47898313  0.52101642  0.66025057  1
  F  F36  1  0.52104154  0.04208403  0.16024487  1
  F  F37  1  0.04203397  0.52101653  0.66025059  1
  F  F38  1  0.52103808  0.47896504  0.16024781  1
  F  F39  1  0.95790555  0.47895598  0.16023983  1
loop_
_geom_bond_atom_site_label_1
_geom_bond_atom_site_label_2
_geom_bond_distance
_geom_bond_site_symmetry_2
F0 Tb0 2.369151 1_555
F0 Tb10 2.375823 1_555
F0 Tb11 2.375827 1_555
F0 Tl3 2.779840 1_555
F1 Tb1 2.369153 1_555
F1 Tb11 2.375821 1_555
F1 Tb8 2.375826 1_555
F1 Tl3 2.779851 1_565
F2 Tb2 2.369503 1_555
F2 Tb7 2.375755 1_554
F2 Tb9 2.375802 1_554
F2 Tl2 2.779753 1_664
F3 Tb3 2.369149 1_555
F3 Tb10 2.375823 1_555
F3 Tb8 2.375825 1_555
F3 Tl3 2.779853 1_665
F4 Tb4 2.369516 1_555
F4 Tb6 2.375745 1_554
F4 Tb9 2.375801 1_554
F4 Tl2 2.779754 1_654
F5 Tb5 2.369509 1_555
F5 Tb7 2.375742 1_554
F5 Tb6 2.375817 1_554
F5 Tl2 2.779752 1_554
F6 Tb7 2.362846 1_555
F6 Tb9 2.362861 1_555
F6 Tb6 2.362863 1_555
F7 Tb10 2.362798 1_555
F7 Tb8 2.362802 1_555
F7 Tb11 2.362804 1_555
F8 Tb4 2.369179 1_555
F8 Tb5 2.369180 1_555
F8 Tb2 2.369181 1_555
F9 Tb3 2.369123 1_555
F9 Tb0 2.369128 1_555
F9 Tb1 2.369133 1_555
F10 Tb11 2.214104 1_655
F10 Tb10 2.214107 1_555
F11 Tb8 2.214076 1_545
F11 Tb11 2.214121 1_655
F12 Tb9 2.214184 1_454
F12 Tb7 2.214204 1_554
F13 Tb10 2.214104 1_555
F13 Tb8 2.214115 1_545
F14 Tb6 2.214160 1_564
F14 Tb9 2.214197 1_454
F15 Tb7 2.214170 1_554
F15 Tb6 2.214205 1_564
F16 Tb1 2.218149 1_655
F16 Tb3 2.218153 1_555
F17 Tb0 2.218148 1_655
F17 Tb3 2.218149 1_545
F18 Tb5 2.218206 1_555
F18 Tb4 2.218211 1_455
F19 Tb0 2.218151 1_555
F19 Tb1 2.218151 1_545
F20 Tb5 2.218211 1_565
F20 Tb2 2.218213 1_455
F21 Tb2 2.218204 1_555
F21 Tb4 2.218209 1_565
F22 Tb7 2.207912 1_555
F22 Tb3 2.211467 1_555
F23 Tb9 2.207896 1_455
F23 Tb0 2.211473 1_555
F24 Tb10 2.207952 1_555
F24 Tb5 2.211581 1_555
F25 Tb9 2.207881 1_455
F25 Tb1 2.211468 1_555
F26 Tb6 2.207912 1_565
F26 Tb1 2.211465 1_555
F27 Tb11 2.207951 1_655
F27 Tb2 2.211581 1_555
F28 Tb7 2.207888 1_555
F28 Tb0 2.211469 1_555
F29 Tb11 2.207960 1_655
F29 Tb4 2.211580 1_555
F30 Tb8 2.207964 1_545
F30 Tb4 2.211582 1_555
F31 Tb10 2.207956 1_555
F31 Tb2 2.211577 1_555
F32 Tb6 2.207871 1_565
F32 Tb3 2.211467 1_555
F33 Tb8 2.207951 1_545
F33 Tb5 2.211571 1_555
F34 Tb1 2.351416 1_555
F34 Tb3 2.351419 1_555
F34 Tb8 2.352733 1_555
F35 Tb0 2.351407 1_555
F35 Tb3 2.351413 1_555
F35 Tb10 2.352731 1_555
F36 Tb4 2.351301 1_555
F36 Tb5 2.351320 1_555
F36 Tb6 2.352964 1_554
F37 Tb0 2.351418 1_555
F37 Tb1 2.351420 1_555
F37 Tb11 2.352729 1_555
F38 Tb2 2.351295 1_555
F38 Tb5 2.351326 1_555
F38 Tb7 2.352987 1_554
F39 Tb2 2.351300 1_555
F39 Tb4 2.351321 1_555
F39 Tb9 2.352911 1_554
