# generated using pymatgen
data_Na2Al3As9O28
_symmetry_space_group_name_H-M   'P 1'
_cell_length_a   7.63168139
_cell_length_b   9.05199306
_cell_length_c   9.60497161
_cell_angle_alpha   63.72228864
_cell_angle_beta   75.82439805
_cell_angle_gamma   100.84282206
_symmetry_Int_Tables_number   1
_chemical_formula_structural   Na2Al3As9O28
_chemical_formula_sum   'Na2 Al3 As9 O28'
_cell_volume   542.24853326
_cell_formula_units_Z   1
loop_
 _symmetry_equiv_pos_site_id
 _symmetry_equiv_pos_as_xyz
  1  'x, y, z'
loop_
 _atom_site_type_symbol
 _atom_site_label
 _atom_site_symmetry_multiplicity
 _atom_site_fract_x
 _atom_site_fract_y
 _atom_site_fract_z
 _atom_site_occupancy
  Na  Na0  1  0.51111100  0.98851900  0.03212600  1
  Na  Na1  1  0.48888900  0.51148100  0.46787400  1
  Al  Al0  1  0.00377400  0.99726800  0.00272300  1
  Al  Al1  1  0.99622600  0.50273200  0.49727700  1
  Al  Al2  1  0.50000000  0.25000000  0.25000000  1
  As  As0  1  0.73144700  0.46267500  0.84148800  1
  As  As1  1  0.73733800  0.97231500  0.34000400  1
  As  As2  1  0.26855300  0.03732500  0.65851200  1
  As  As3  1  0.26266200  0.52768500  0.15999600  1
  As  As4  1  0.13049900  0.92361100  0.32225900  1
  As  As5  1  0.12424800  0.42445900  0.81969100  1
  As  As6  1  0.86950100  0.57638900  0.17774100  1
  As  As7  1  0.87575200  0.07554100  0.68030900  1
  As  As8  1  0.50000000  0.75000000  0.75000000  1
  O  O0  1  0.68995300  0.15619400  0.29684800  1
  O  O1  1  0.69326800  0.66207800  0.79251600  1
  O  O2  1  0.31004700  0.34380600  0.20315200  1
  O  O3  1  0.30673200  0.83792200  0.70748400  1
  O  O4  1  0.04631900  0.71642300  0.48520600  1
  O  O5  1  0.04907400  0.21961100  0.98337500  1
  O  O6  1  0.95368100  0.78357700  0.01479400  1
  O  O7  1  0.95092600  0.28038900  0.51662500  1
  O  O8  1  0.95895200  0.52919300  0.85872300  1
  O  O9  1  0.95939100  0.02343900  0.36423800  1
  O  O10  1  0.04104800  0.97080700  0.64127700  1
  O  O11  1  0.04060900  0.47656100  0.13576200  1
  O  O12  1  0.34104900  0.02498800  0.32113100  1
  O  O13  1  0.34106100  0.52544300  0.82576800  1
  O  O14  1  0.65895100  0.47501200  0.17886900  1
  O  O15  1  0.65893900  0.97455700  0.67423200  1
  O  O16  1  0.76433800  0.40989400  0.69092400  1
  O  O17  1  0.75761900  0.90652800  0.19698600  1
  O  O18  1  0.23566200  0.09010600  0.80907600  1
  O  O19  1  0.24238100  0.59347200  0.30301400  1
  O  O20  1  0.58128300  0.28264900  0.02460800  1
  O  O21  1  0.58082400  0.78036800  0.53165300  1
  O  O22  1  0.41871700  0.21735100  0.47539200  1
  O  O23  1  0.41917600  0.71963200  0.96834700  1
  O  O24  1  0.16203100  0.94467800  0.13149000  1
  O  O25  1  0.16353800  0.44711500  0.62848300  1
  O  O26  1  0.83796900  0.55532200  0.36851000  1
  O  O27  1  0.83646200  0.05288500  0.87151700  1
loop_
_geom_bond_atom_site_label_1
_geom_bond_atom_site_label_2
_geom_bond_distance
_geom_bond_site_symmetry_2
Na0 O27 2.380797 1_564
Na0 O24 2.487401 1_555
Na0 O20 2.579748 1_565
Na0 O17 2.746120 1_555
Na0 O23 2.771276 1_554
Na0 O12 2.950758 1_565
Na1 O25 2.380797 1_555
Na1 O26 2.487401 1_555
Na1 O22 2.579748 1_555
Na1 O19 2.746120 1_555
Na1 O21 2.771276 1_555
Na1 O14 2.950758 1_555
Al0 O6 1.844646 1_455
Al0 O5 1.892188 1_564
Al0 O24 1.908304 1_555
Al0 O18 1.934380 1_564
Al0 O27 1.985009 1_464
Al0 O17 2.007704 1_455
Al1 O4 1.844646 1_655
Al1 O7 1.892188 1_555
Al1 O26 1.908304 1_555
Al1 O16 1.934380 1_555
Al1 O25 1.985009 1_655
Al1 O19 2.007704 1_655
Al2 O0 1.862610 1_555
Al2 O2 1.862610 1_555
Al2 O14 1.875958 1_555
Al2 O12 1.875958 1_555
Al2 O22 1.966120 1_555
Al2 O20 1.966120 1_555
As0 O20 1.683669 1_556
As0 O16 1.691678 1_555
As0 O1 1.754248 1_555
As0 O8 1.800059 1_555
As1 O0 1.661936 1_565
As1 O17 1.708933 1_555
As1 O9 1.770216 1_565
As1 O21 1.773251 1_555
As2 O22 1.683669 1_555
As2 O18 1.691678 1_555
As2 O3 1.754248 1_545
As2 O10 1.800059 1_545
As3 O2 1.661936 1_555
As3 O19 1.708933 1_555
As3 O11 1.770216 1_555
As3 O23 1.773251 1_554
As4 O4 1.683691 1_555
As4 O12 1.688814 1_565
As4 O24 1.705604 1_555
As4 O9 1.786912 1_465
As5 O5 1.678074 1_555
As5 O25 1.696621 1_555
As5 O13 1.761348 1_555
As5 O8 1.778687 1_455
As6 O6 1.683691 1_555
As6 O14 1.688814 1_555
As6 O26 1.705604 1_555
As6 O11 1.786912 1_655
As7 O7 1.678074 1_555
As7 O27 1.696621 1_555
As7 O15 1.761348 1_545
As7 O10 1.778687 1_645
As8 O3 1.850557 1_555
As8 O1 1.850557 1_555
As8 O15 1.860894 1_555
As8 O13 1.860894 1_555
As8 O23 1.909581 1_555
As8 O21 1.909581 1_555
