# generated using pymatgen
data_K2SrV4O12
_symmetry_space_group_name_H-M   'P 1'
_cell_length_a   10.92285105
_cell_length_b   10.92285105
_cell_length_c   5.35927632
_cell_angle_alpha   90.00000000
_cell_angle_beta   90.00000000
_cell_angle_gamma   90.00000000
_symmetry_Int_Tables_number   1
_chemical_formula_structural   K2SrV4O12
_chemical_formula_sum   'K4 Sr2 V8 O24'
_cell_volume   639.40815702
_cell_formula_units_Z   2
loop_
 _symmetry_equiv_pos_site_id
 _symmetry_equiv_pos_as_xyz
  1  'x, y, z'
loop_
 _atom_site_type_symbol
 _atom_site_label
 _atom_site_symmetry_multiplicity
 _atom_site_fract_x
 _atom_site_fract_y
 _atom_site_fract_z
 _atom_site_occupancy
  K  K0  1  0.75000000  0.75000000  0.50000000  1
  K  K1  1  0.75000000  0.25000000  0.50000000  1
  K  K2  1  0.25000000  0.75000000  0.50000000  1
  K  K3  1  0.25000000  0.25000000  0.50000000  1
  Sr  Sr0  1  0.50000000  0.50000000  0.50000000  1
  Sr  Sr1  1  0.00000000  -0.00000000  0.50000000  1
  V  V0  1  0.72006419  -0.00000000  0.00000000  1
  V  V1  1  0.00000000  0.27993581  0.00000000  1
  V  V2  1  0.27993581  -0.00000000  0.00000000  1
  V  V3  1  0.50000000  0.77993581  0.00000000  1
  V  V4  1  0.77993581  0.50000000  0.00000000  1
  V  V5  1  0.22006419  0.50000000  0.00000000  1
  V  V6  1  0.50000000  0.22006419  0.00000000  1
  V  V7  1  0.00000000  0.72006419  0.00000000  1
  O  O0  1  0.45440795  0.30553172  0.23758750  1
  O  O1  1  0.54559205  0.69446828  0.23758750  1
  O  O2  1  0.69446828  0.45440795  0.23758750  1
  O  O3  1  0.30553172  0.54559205  0.23758750  1
  O  O4  1  0.30553172  0.45440795  0.76241250  1
  O  O5  1  0.45440795  0.69446828  0.76241250  1
  O  O6  1  0.54559205  0.30553172  0.76241250  1
  O  O7  1  0.69446828  0.54559205  0.76241250  1
  O  O8  1  0.04559205  0.19446828  0.76241250  1
  O  O9  1  0.95440795  0.80553172  0.76241250  1
  O  O10  1  0.80553172  0.04559205  0.76241250  1
  O  O11  1  0.19446828  0.95440795  0.76241250  1
  O  O12  1  0.19446828  0.04559205  0.23758750  1
  O  O13  1  0.04559205  0.80553172  0.23758750  1
  O  O14  1  0.12445937  0.37554063  0.10388363  1
  O  O15  1  0.37554063  0.87554063  0.10388363  1
  O  O16  1  0.62445937  0.12445937  0.10388363  1
  O  O17  1  0.87554063  0.62445937  0.10388363  1
  O  O18  1  0.87554063  0.37554063  0.89611637  1
  O  O19  1  0.12445937  0.62445937  0.89611637  1
  O  O20  1  0.37554063  0.12445937  0.89611637  1
  O  O21  1  0.62445937  0.87554063  0.89611637  1
  O  O22  1  0.80553172  0.95440795  0.23758750  1
  O  O23  1  0.95440795  0.19446828  0.23758750  1
loop_
_geom_bond_atom_site_label_1
_geom_bond_atom_site_label_2
_geom_bond_distance
_geom_bond_site_symmetry_2
K0 O22 2.707535 1_555
K0 O1 2.707535 1_555
K0 O9 2.707535 1_555
K0 O7 2.707535 1_555
K0 O17 2.875310 1_555
K0 O21 2.875310 1_555
K1 O2 2.707535 1_555
K1 O6 2.707535 1_555
K1 O23 2.707535 1_555
K1 O10 2.707535 1_555
K1 O16 2.875310 1_555
K1 O18 2.875310 1_555
K2 O5 2.707535 1_555
K2 O13 2.707535 1_555
K2 O3 2.707535 1_555
K2 O11 2.707535 1_555
K2 O19 2.875310 1_555
K2 O15 2.875310 1_555
K3 O4 2.707535 1_555
K3 O0 2.707535 1_555
K3 O8 2.707535 1_555
K3 O12 2.707535 1_555
K3 O20 2.875310 1_555
K3 O14 2.875310 1_555
O0 V6 1.655536 1_555
O0 Sr0 2.595727 1_555
O1 V3 1.655536 1_555
O1 Sr0 2.595727 1_555
O2 V4 1.655536 1_555
O2 Sr0 2.595727 1_555
O3 V5 1.655536 1_555
O3 Sr0 2.595727 1_555
O4 V5 1.655536 1_556
O4 Sr0 2.595727 1_555
O5 V3 1.655536 1_556
O5 Sr0 2.595727 1_555
O6 V6 1.655536 1_556
O6 Sr0 2.595727 1_555
O7 V4 1.655536 1_556
O7 Sr0 2.595727 1_555
O8 V1 1.655536 1_556
O8 Sr1 2.595727 1_555
O9 V7 1.655536 1_656
O9 Sr1 2.595727 1_665
O10 V0 1.655536 1_556
O10 Sr1 2.595727 1_655
O11 V2 1.655536 1_566
O11 Sr1 2.595727 1_565
O12 V2 1.655536 1_555
O12 Sr1 2.595727 1_555
O13 V7 1.655536 1_555
O13 Sr1 2.595727 1_565
O14 V1 1.802383 1_555
O14 V5 1.802383 1_555
O15 V2 1.802383 1_565
O15 V3 1.802383 1_555
O16 V6 1.802383 1_555
O16 V0 1.802383 1_555
O17 V7 1.802383 1_655
O17 V4 1.802383 1_555
O18 V1 1.802383 1_656
O18 V4 1.802383 1_556
O19 V5 1.802383 1_556
O19 V7 1.802383 1_556
O20 V2 1.802383 1_556
O20 V6 1.802383 1_556
O21 V0 1.802383 1_566
O21 V3 1.802383 1_556
O22 V0 1.655536 1_565
O22 Sr1 2.595727 1_665
O23 V1 1.655536 1_655
O23 Sr1 2.595727 1_655
