# generated using pymatgen
data_Nd2GeO5
_symmetry_space_group_name_H-M   'P 1'
_cell_length_a   7.26451338
_cell_length_b   7.00874917
_cell_length_c   9.49265930
_cell_angle_alpha   73.69611753
_cell_angle_beta   90.00000000
_cell_angle_gamma   90.00000000
_symmetry_Int_Tables_number   1
_chemical_formula_structural   Nd2GeO5
_chemical_formula_sum   'Nd8 Ge4 O20'
_cell_volume   463.88408522
_cell_formula_units_Z   4
loop_
 _symmetry_equiv_pos_site_id
 _symmetry_equiv_pos_as_xyz
  1  'x, y, z'
loop_
 _atom_site_type_symbol
 _atom_site_label
 _atom_site_symmetry_multiplicity
 _atom_site_fract_x
 _atom_site_fract_y
 _atom_site_fract_z
 _atom_site_occupancy
  Nd  Nd0  1  0.63678574  0.06379598  0.12508292  1
  Nd  Nd1  1  0.13678574  0.43620402  0.87491708  1
  Nd  Nd2  1  0.36321426  0.93620402  0.87491708  1
  Nd  Nd3  1  0.86321426  0.56379598  0.12508292  1
  Nd  Nd4  1  0.12695740  0.26706536  0.52519535  1
  Nd  Nd5  1  0.62695740  0.23293464  0.47480465  1
  Nd  Nd6  1  0.87304260  0.73293464  0.47480465  1
  Nd  Nd7  1  0.37304260  0.76706536  0.52519535  1
  Ge  Ge0  1  0.08934751  0.03075284  0.19958009  1
  Ge  Ge1  1  0.58934751  0.46924716  0.80041991  1
  Ge  Ge2  1  0.91065249  0.96924716  0.80041991  1
  Ge  Ge3  1  0.41065249  0.53075284  0.19958009  1
  O  O0  1  0.91821874  0.84275109  0.21156478  1
  O  O1  1  0.41821874  0.65724891  0.78843522  1
  O  O2  1  0.08178126  0.15724891  0.78843522  1
  O  O3  1  0.58178126  0.34275109  0.21156478  1
  O  O4  1  0.94829517  0.23290116  0.11333279  1
  O  O5  1  0.44829517  0.26709884  0.88666721  1
  O  O6  1  0.05170483  0.76709884  0.88666721  1
  O  O7  1  0.55170483  0.73290116  0.11333279  1
  O  O8  1  0.13295746  0.99256150  0.38979422  1
  O  O9  1  0.63295746  0.50743850  0.61020578  1
  O  O10  1  0.86704254  0.00743850  0.61020578  1
  O  O11  1  0.36704254  0.49256150  0.38979422  1
  O  O12  1  0.28844353  0.01066027  0.10726232  1
  O  O13  1  0.78844353  0.48933973  0.89273768  1
  O  O14  1  0.71155647  0.98933973  0.89273768  1
  O  O15  1  0.21155647  0.51066027  0.10726232  1
  O  O16  1  0.88272992  0.44230950  0.38641073  1
  O  O17  1  0.38272992  0.05769050  0.61358927  1
  O  O18  1  0.11727008  0.55769050  0.61358927  1
  O  O19  1  0.61727008  0.94230950  0.38641073  1
loop_
_geom_bond_atom_site_label_1
_geom_bond_atom_site_label_2
_geom_bond_distance
_geom_bond_site_symmetry_2
Nd0 O3 2.357394 1_555
Nd0 O19 2.390190 1_545
Nd0 O7 2.432733 1_545
Nd0 O14 2.465389 1_544
Nd0 O4 2.542432 1_555
Nd0 O0 2.557322 1_545
Nd0 O12 2.570272 1_555
Nd0 O5 2.686400 1_554
Nd1 O2 2.357394 1_555
Nd1 O18 2.390190 1_555
Nd1 O6 2.432733 1_555
Nd1 O15 2.465389 1_556
Nd1 O5 2.542432 1_555
Nd1 O1 2.557322 1_555
Nd1 O13 2.570272 1_455
Nd1 O4 2.686400 1_456
Nd2 O1 2.357394 1_555
Nd2 O17 2.390190 1_565
Nd2 O5 2.432733 1_565
Nd2 O12 2.465389 1_566
Nd2 O6 2.542432 1_555
Nd2 O2 2.557322 1_565
Nd2 O14 2.570272 1_555
Nd2 O7 2.686400 1_556
Nd3 O0 2.357394 1_555
Nd3 O16 2.390190 1_555
Nd3 O4 2.432733 1_555
Nd3 O13 2.465389 1_554
Nd3 O7 2.542432 1_555
Nd3 O3 2.557322 1_555
Nd3 O15 2.570272 1_655
Nd3 O6 2.686400 1_654
Nd4 O16 2.341678 1_455
Nd4 O17 2.370349 1_555
Nd4 O18 2.411991 1_555
Nd4 O2 2.421668 1_555
Nd4 O11 2.459918 1_555
Nd4 O10 2.589022 1_455
Nd4 O8 2.596894 1_545
Nd5 O17 2.341678 1_555
Nd5 O16 2.370349 1_555
Nd5 O19 2.411991 1_545
Nd5 O3 2.421668 1_555
Nd5 O10 2.459918 1_555
Nd5 O11 2.589022 1_555
Nd5 O9 2.596894 1_555
Nd6 O18 2.341678 1_655
Nd6 O19 2.370349 1_555
Nd6 O16 2.411991 1_555
Nd6 O0 2.421668 1_555
Nd6 O9 2.459918 1_555
Nd6 O8 2.589022 1_655
Nd6 O10 2.596894 1_565
Nd7 O19 2.341678 1_555
Nd7 O18 2.370349 1_555
Nd7 O17 2.411991 1_565
Nd7 O1 2.421668 1_555
Nd7 O8 2.459918 1_555
Nd7 O9 2.589022 1_555
Nd7 O11 2.596894 1_555
Ge0 O12 1.717260 1_555
Ge0 O4 1.753945 1_455
Ge0 O8 1.777913 1_545
Ge0 O0 1.791776 1_445
Ge1 O13 1.717260 1_555
Ge1 O5 1.753945 1_555
Ge1 O9 1.777913 1_555
Ge1 O1 1.791776 1_555
Ge2 O14 1.717260 1_555
Ge2 O6 1.753945 1_655
Ge2 O10 1.777913 1_565
Ge2 O2 1.791776 1_665
Ge3 O15 1.717260 1_555
Ge3 O7 1.753945 1_555
Ge3 O11 1.777913 1_555
Ge3 O3 1.791776 1_555
