# generated using pymatgen
data_Ho(CuS)3
_symmetry_space_group_name_H-M   'P 1'
_cell_length_a   7.39536358
_cell_length_b   7.39536357
_cell_length_c   7.39536413
_cell_angle_alpha   53.34020029
_cell_angle_beta   53.34020029
_cell_angle_gamma   53.34019344
_symmetry_Int_Tables_number   1
_chemical_formula_structural   Ho(CuS)3
_chemical_formula_sum   'Ho2 Cu6 S6'
_cell_volume   241.40541429
_cell_formula_units_Z   2
loop_
 _symmetry_equiv_pos_site_id
 _symmetry_equiv_pos_as_xyz
  1  'x, y, z'
loop_
 _atom_site_type_symbol
 _atom_site_label
 _atom_site_symmetry_multiplicity
 _atom_site_fract_x
 _atom_site_fract_y
 _atom_site_fract_z
 _atom_site_occupancy
  Ho  Ho0  1  0.83350653  0.83350653  0.83350653  1
  Ho  Ho1  1  0.16649347  0.16649347  0.16649347  1
  Cu  Cu0  1  0.28182537  0.96401073  0.62386768  1
  Cu  Cu1  1  0.62386768  0.28182537  0.96401073  1
  Cu  Cu2  1  0.96401073  0.62386768  0.28182537  1
  Cu  Cu3  1  0.03598927  0.37613232  0.71817463  1
  Cu  Cu4  1  0.37613232  0.71817463  0.03598927  1
  Cu  Cu5  1  0.71817463  0.03598927  0.37613232  1
  S  S0  1  0.08410987  0.74788933  0.41745526  1
  S  S1  1  0.74788933  0.41745526  0.08410987  1
  S  S2  1  0.41745526  0.08410987  0.74788933  1
  S  S3  1  0.58254474  0.91589013  0.25211067  1
  S  S4  1  0.25211067  0.58254474  0.91589013  1
  S  S5  1  0.91589013  0.25211067  0.58254474  1
loop_
_geom_bond_atom_site_label_1
_geom_bond_atom_site_label_2
_geom_bond_distance
_geom_bond_site_symmetry_2
Ho0 S2 2.723683 1_565
Ho0 S1 2.723683 1_556
Ho0 S0 2.723683 1_655
Ho0 S4 2.727708 1_655
Ho0 S5 2.727708 1_565
Ho0 S3 2.727708 1_556
Ho1 S3 2.723683 1_545
Ho1 S4 2.723683 1_554
Ho1 S5 2.723683 1_455
Ho1 S1 2.727708 1_455
Ho1 S0 2.727708 1_545
Ho1 S2 2.727708 1_554
Cu0 S5 2.298124 1_465
Cu0 S3 2.356515 1_555
Cu0 S4 2.359905 1_555
Cu0 S2 2.402350 1_565
Cu1 S3 2.298124 1_546
Cu1 S4 2.356515 1_555
Cu1 S5 2.359905 1_555
Cu1 S1 2.402350 1_556
Cu2 S4 2.298124 1_654
Cu2 S5 2.356515 1_555
Cu2 S3 2.359904 1_555
Cu2 S0 2.402350 1_655
Cu3 S1 2.298124 1_456
Cu3 S0 2.356515 1_555
Cu3 S2 2.359904 1_555
Cu3 S5 2.402350 1_455
Cu4 S2 2.298124 1_564
Cu4 S1 2.356515 1_555
Cu4 S0 2.359905 1_555
Cu4 S4 2.402350 1_554
Cu5 S0 2.298124 1_645
Cu5 S2 2.356515 1_555
Cu5 S1 2.359905 1_555
Cu5 S3 2.402350 1_545
