# generated using pymatgen
data_TmNiO3
_symmetry_space_group_name_H-M   'P 1'
_cell_length_a   5.53103500
_cell_length_b   5.15877200
_cell_length_c   9.01167326
_cell_angle_alpha   55.34947931
_cell_angle_beta   90.00000000
_cell_angle_gamma   90.00000000
_symmetry_Int_Tables_number   1
_chemical_formula_structural   TmNiO3
_chemical_formula_sum   'Tm4 Ni4 O12'
_cell_volume   211.52687155
_cell_formula_units_Z   4
loop_
 _symmetry_equiv_pos_site_id
 _symmetry_equiv_pos_as_xyz
  1  'x, y, z'
loop_
 _atom_site_type_symbol
 _atom_site_label
 _atom_site_symmetry_multiplicity
 _atom_site_fract_x
 _atom_site_fract_y
 _atom_site_fract_z
 _atom_site_occupancy
  Tm  Tm0  1  0.57786600  0.72788500  0.75083700  1
  Tm  Tm1  1  0.92213400  0.72788500  0.25083700  1
  Tm  Tm2  1  0.42213400  0.27211500  0.24916300  1
  Tm  Tm3  1  0.07786600  0.27211500  0.74916300  1
  Ni  Ni0  1  0.50000000  0.50000000  0.50000000  1
  Ni  Ni1  1  0.00000000  0.50000000  0.00000000  1
  Ni  Ni2  1  0.50000000  0.00000000  0.00000000  1
  Ni  Ni3  1  0.00000000  0.00000000  0.50000000  1
  O  O0  1  0.96222600  0.86806300  0.74413900  1
  O  O1  1  0.53777400  0.86806300  0.24413900  1
  O  O2  1  0.03777400  0.13193700  0.25586100  1
  O  O3  1  0.46222600  0.13193700  0.75586100  1
  O  O4  1  0.81304600  0.64325300  0.55416000  1
  O  O5  1  0.68695400  0.64325300  0.05416000  1
  O  O6  1  0.18695400  0.35674700  0.44584000  1
  O  O7  1  0.31304600  0.35674700  0.94584000  1
  O  O8  1  0.70165000  0.24117200  0.44228600  1
  O  O9  1  0.79835000  0.24117200  0.94228600  1
  O  O10  1  0.29835000  0.75882800  0.55771400  1
  O  O11  1  0.20165000  0.75882800  0.05771400  1
loop_
_geom_bond_atom_site_label_1
_geom_bond_atom_site_label_2
_geom_bond_distance
_geom_bond_site_symmetry_2
Ni0 O1 1.996726 1_555
Ni0 O3 1.996726 1_555
Ni0 O10 2.021637 1_555
Ni0 O8 2.021637 1_555
Ni0 O4 2.047556 1_555
Ni0 O6 2.047556 1_555
Ni1 O0 1.996726 1_454
Ni1 O2 1.996726 1_555
Ni1 O11 2.021637 1_555
Ni1 O9 2.021637 1_454
Ni1 O7 2.047556 1_554
Ni1 O5 2.047556 1_455
Ni2 O1 1.909067 1_545
Ni2 O3 1.909067 1_554
Ni2 O5 1.916517 1_545
Ni2 O7 1.916517 1_554
Ni2 O9 1.950821 1_554
Ni2 O11 1.950821 1_545
Ni3 O0 1.909067 1_445
Ni3 O2 1.909067 1_555
Ni3 O6 1.916517 1_555
Ni3 O4 1.916517 1_445
Ni3 O8 1.950821 1_455
Ni3 O10 1.950821 1_545
O0 Tm3 2.205275 1_665
O0 Tm0 2.235271 1_555
O1 Tm2 2.205275 1_565
O1 Tm1 2.235271 1_555
O2 Tm1 2.205275 1_445
O2 Tm2 2.235271 1_555
O3 Tm0 2.205275 1_545
O3 Tm3 2.235271 1_555
O4 Tm3 2.252405 1_655
O4 Tm0 2.429809 1_555
O4 Tm1 2.582505 1_555
O5 Tm2 2.252405 1_555
O5 Tm1 2.429809 1_555
O5 Tm0 2.582505 1_554
O6 Tm1 2.252405 1_455
O6 Tm2 2.429809 1_555
O6 Tm3 2.582505 1_555
O7 Tm0 2.252405 1_555
O7 Tm3 2.429809 1_555
O7 Tm2 2.582505 1_556
O8 Tm2 2.264638 1_555
O8 Tm1 2.417050 1_555
O8 Tm0 2.615217 1_545
O9 Tm3 2.264638 1_655
O9 Tm0 2.417050 1_555
O9 Tm1 2.615217 1_546
O10 Tm0 2.264638 1_555
O10 Tm3 2.417050 1_555
O10 Tm2 2.615217 1_565
O11 Tm1 2.264638 1_455
O11 Tm2 2.417050 1_555
O11 Tm3 2.615217 1_564
