# generated using pymatgen
data_Rb4MgV4Cu2(PO6)4
_symmetry_space_group_name_H-M   'P 1'
_cell_length_a   5.36933933
_cell_length_b   9.47897862
_cell_length_c   11.89799208
_cell_angle_alpha   90.05548884
_cell_angle_beta   89.74788663
_cell_angle_gamma   95.37269420
_symmetry_Int_Tables_number   1
_chemical_formula_structural   Rb4MgV4Cu2(PO6)4
_chemical_formula_sum   'Rb4 Mg1 V4 Cu2 P4 O24'
_cell_volume   602.89212275
_cell_formula_units_Z   1
loop_
 _symmetry_equiv_pos_site_id
 _symmetry_equiv_pos_as_xyz
  1  'x, y, z'
loop_
 _atom_site_type_symbol
 _atom_site_label
 _atom_site_symmetry_multiplicity
 _atom_site_fract_x
 _atom_site_fract_y
 _atom_site_fract_z
 _atom_site_occupancy
  Rb  Rb0  1  0.46858800  0.07130900  0.41013900  1
  Rb  Rb1  1  0.57732900  0.86972100  0.65501500  1
  Rb  Rb2  1  0.53542000  0.39542000  0.84554900  1
  Rb  Rb3  1  0.43364100  0.63716200  0.12992700  1
  Mg  Mg0  1  0.33515300  0.26554200  0.19274600  1
  V  V0  1  0.05009100  0.74304800  0.88539400  1
  V  V1  1  0.91750800  0.24236000  0.08933000  1
  V  V2  1  0.94174100  0.74939600  0.39016200  1
  V  V3  1  0.05990800  0.24905400  0.60939500  1
  Cu  Cu0  1  0.49735900  0.99724500  0.99501500  1
  Cu  Cu1  1  0.49373000  0.49563100  0.50112200  1
  P  P0  1  0.02043600  0.08242000  0.85775900  1
  P  P1  1  0.99284600  0.92097400  0.13705800  1
  P  P2  1  0.96158700  0.41168700  0.36724800  1
  P  P3  1  0.02088600  0.58198900  0.63491100  1
  O  O0  1  0.09877600  0.08137000  0.16013500  1
  O  O1  1  0.04300000  0.31157100  0.27387800  1
  O  O2  1  0.11627100  0.85955900  0.47158500  1
  O  O3  1  0.64024400  0.31042800  0.12491500  1
  O  O4  1  0.90710400  0.12388600  0.53193100  1
  O  O5  1  0.88184400  0.62182200  0.96091600  1
  O  O6  1  0.83826000  0.13115300  0.95211000  1
  O  O7  1  0.94062700  0.42653000  0.67253500  1
  O  O8  1  0.95414900  0.68051200  0.73347900  1
  O  O9  1  0.84719500  0.61819400  0.53409500  1
  O  O10  1  0.67726300  0.38219200  0.39051600  1
  O  O11  1  0.12972100  0.38203600  0.47068000  1
  O  O12  1  0.05190100  0.83210300  0.24092400  1
  O  O13  1  0.14799100  0.86929100  0.03584100  1
  O  O14  1  0.64891700  0.79179500  0.38619500  1
  O  O15  1  0.29735500  0.10385000  0.88977300  1
  O  O16  1  0.17549300  0.35026200  0.05228300  1
  O  O17  1  0.71056900  0.91618300  0.11369700  1
  O  O18  1  0.36228500  0.22433200  0.61571300  1
  O  O19  1  0.34822200  0.70927800  0.88040500  1
  O  O20  1  0.93304600  0.92397600  0.83393000  1
  O  O21  1  0.30188400  0.60523800  0.60705000  1
  O  O22  1  0.03297700  0.56749600  0.32775700  1
  O  O23  1  0.95868400  0.17231800  0.75555200  1
loop_
_geom_bond_atom_site_label_1
_geom_bond_atom_site_label_2
_geom_bond_distance
_geom_bond_site_symmetry_2
Mg0 O3 1.836944 1_555
Mg0 O1 1.922741 1_555
Mg0 O16 2.077726 1_555
Mg0 O0 2.096942 1_555
Cu0 O15 1.989922 1_565
Cu0 O17 2.018909 1_556
Cu0 O6 2.186343 1_565
Cu0 O13 2.189286 1_556
Cu1 O21 1.978740 1_555
Cu1 O10 2.010837 1_555
Cu1 O9 2.167559 1_555
Cu1 O11 2.173016 1_555
O0 P1 1.596591 1_445
O0 V1 2.067264 1_455
O1 P2 1.548285 1_455
O1 V1 2.373434 1_455
O2 V2 1.652238 1_455
O2 Rb0 2.724227 1_565
O2 Rb1 3.302018 1_555
O3 V1 1.727908 1_555
O3 Rb3 3.386541 1_555
O3 Rb2 3.481476 1_554
O4 V3 1.659084 1_655
O4 Rb0 2.775060 1_555
O4 Rb1 3.204592 1_545
O5 V0 1.656618 1_655
O5 Rb2 3.036244 1_555
O5 Rb3 3.143041 1_556
O6 P0 1.582513 1_655
O6 V1 1.968896 1_556
O6 Rb2 3.363558 1_555
O7 P3 1.561484 1_655
O7 V3 1.999935 1_655
O7 Rb2 2.983239 1_555
O8 P3 1.559739 1_655
O8 V0 1.957726 1_655
O8 Rb1 2.980146 1_555
O9 P3 1.580167 1_655
O9 V2 2.148336 1_555
O9 Rb1 3.236657 1_555
O10 P2 1.549811 1_555
O10 Rb0 3.061792 1_555
O11 P2 1.570480 1_455
O11 V3 2.088893 1_555
O12 P1 1.546891 1_455
O12 V2 2.005982 1_455
O12 Rb3 3.168687 1_555
O13 P1 1.565464 1_455
O13 V0 2.190615 1_554
O13 Rb3 3.016441 1_555
O14 V2 1.659762 1_555
O14 Rb0 2.918060 1_565
O14 Rb1 3.310743 1_555
O14 Rb3 3.533621 1_555
O15 P0 1.531474 1_555
O15 Rb2 2.980708 1_555
O16 V1 1.699823 1_455
O16 Rb3 3.077488 1_555
O16 Rb2 3.126270 1_554
O17 P1 1.538596 1_555
O17 Rb3 2.916397 1_555
O18 V3 1.663997 1_555
O18 Rb0 2.923720 1_555
O18 Rb2 3.271644 1_555
O19 V0 1.662387 1_555
O19 Rb3 3.092912 1_556
O19 Rb2 3.253790 1_555
O19 Rb1 3.262850 1_555
O20 P0 1.557111 1_665
O20 V0 1.979499 1_655
O20 Rb1 2.879871 1_555
O21 P3 1.538936 1_555
O21 Rb1 2.847543 1_555
O22 P2 1.562917 1_455
O22 V2 1.979073 1_455
O22 Rb3 3.208872 1_555
O23 P0 1.540567 1_655
O23 V3 1.941291 1_655
O23 Rb2 3.414386 1_555
