# generated using pymatgen
data_CaLa2Ti2Mn2O12
_symmetry_space_group_name_H-M   'P 1'
_cell_length_a   5.42445429
_cell_length_b   9.44914870
_cell_length_c   9.42944416
_cell_angle_alpha   70.31827475
_cell_angle_beta   89.78269656
_cell_angle_gamma   90.30635594
_symmetry_Int_Tables_number   1
_chemical_formula_structural   CaLa2Ti2Mn2O12
_chemical_formula_sum   'Ca2 La4 Ti4 Mn4 O24'
_cell_volume   455.06901739
_cell_formula_units_Z   2
loop_
 _symmetry_equiv_pos_site_id
 _symmetry_equiv_pos_as_xyz
  1  'x, y, z'
loop_
 _atom_site_type_symbol
 _atom_site_label
 _atom_site_symmetry_multiplicity
 _atom_site_fract_x
 _atom_site_fract_y
 _atom_site_fract_z
 _atom_site_occupancy
  Ca  Ca0  1  0.49876400  0.38988200  0.86074200  1
  Ca  Ca1  1  0.49872800  0.88988500  0.36072700  1
  La  La0  1  0.00581600  0.13783200  0.11197700  1
  La  La1  1  0.00580400  0.63783000  0.61194500  1
  La  La2  1  0.50648100  0.61525800  0.13520700  1
  La  La3  1  0.50648000  0.11526000  0.63521500  1
  Ti  Ti0  1  0.00034100  0.74789800  0.23912900  1
  Ti  Ti1  1  0.00033900  0.24790400  0.73913300  1
  Ti  Ti2  1  0.50460400  0.75663700  0.75830000  1
  Ti  Ti3  1  0.50460500  0.25662800  0.25829300  1
  Mn  Mn0  1  0.00122900  0.00112700  0.49761400  1
  Mn  Mn1  1  0.50199100  0.00136800  0.99922500  1
  Mn  Mn2  1  0.00124100  0.50112900  0.99761000  1
  Mn  Mn3  1  0.50197900  0.50135800  0.49923000  1
  O  O0  1  0.05332900  0.63024800  0.11693600  1
  O  O1  1  0.05333000  0.13024600  0.61693400  1
  O  O2  1  0.23332500  0.40613400  0.63304100  1
  O  O3  1  0.23332500  0.90613400  0.13304100  1
  O  O4  1  0.22815300  0.61391800  0.84535200  1
  O  O5  1  0.22816000  0.11391400  0.34535200  1
  O  O6  1  0.28463300  0.15587400  0.87618000  1
  O  O7  1  0.28467900  0.65587500  0.37622000  1
  O  O8  1  0.27572800  0.37582500  0.09138100  1
  O  O9  1  0.27574200  0.87581900  0.59138500  1
  O  O10  1  0.45025000  0.37698200  0.37591900  1
  O  O11  1  0.45024900  0.87698100  0.87591600  1
  O  O12  1  0.55740400  0.62078000  0.62461700  1
  O  O13  1  0.55740100  0.12077700  0.12461600  1
  O  O14  1  0.71588800  0.61389500  0.90232600  1
  O  O15  1  0.71588700  0.11389200  0.40232900  1
  O  O16  1  0.71195100  0.85115800  0.13213200  1
  O  O17  1  0.71194900  0.35115700  0.63213200  1
  O  O18  1  0.77037700  0.37827200  0.14587500  1
  O  O19  1  0.77036500  0.87826500  0.64588300  1
  O  O20  1  0.76827700  0.60293200  0.37242500  1
  O  O21  1  0.76825700  0.10292600  0.87243200  1
  O  O22  1  0.94156000  0.37241100  0.88216800  1
  O  O23  1  0.94156300  0.87240900  0.38216200  1
loop_
_geom_bond_atom_site_label_1
_geom_bond_atom_site_label_2
_geom_bond_distance
_geom_bond_site_symmetry_2
Ca0 O22 2.413043 1_555
Ca0 O8 2.448441 1_556
Ca0 O6 2.452368 1_555
Ca0 O4 2.546611 1_555
Ca0 O2 2.551571 1_555
Ca0 O12 2.556138 1_555
Ca0 O14 2.560741 1_555
Ca0 O17 2.575853 1_555
Ca1 O23 2.413262 1_555
Ca1 O9 2.448443 1_555
Ca1 O7 2.452049 1_555
Ca1 O5 2.546453 1_565
Ca1 O3 2.551350 1_555
Ca1 O13 2.556050 1_565
Ca1 O15 2.560852 1_565
Ca1 O16 2.575829 1_555
La0 O13 2.436688 1_455
La0 O5 2.456910 1_555
La0 O3 2.468516 1_545
La0 O22 2.551277 1_454
La0 O8 2.628130 1_555
La0 O6 2.641321 1_554
La0 O21 2.718601 1_454
La0 O18 2.722516 1_455
La0 O23 2.929555 1_445
La0 O13 2.997907 1_555
La0 O16 3.085389 1_445
La0 O15 3.093024 1_455
La1 O12 2.436612 1_455
La1 O4 2.457197 1_555
La1 O2 2.468468 1_555
La1 O23 2.551129 1_455
La1 O9 2.628250 1_555
La1 O7 2.640939 1_555
La1 O20 2.718282 1_455
La1 O19 2.722624 1_455
La1 O22 2.929737 1_455
La1 O12 2.997994 1_555
La1 O17 3.085282 1_455
La1 O14 3.093234 1_455
La2 O0 2.466274 1_555
La2 O14 2.472430 1_554
La2 O16 2.478190 1_555
La2 O10 2.619025 1_555
La2 O20 2.623748 1_555
La2 O18 2.637700 1_555
La2 O7 2.707655 1_555
La2 O8 2.731227 1_555
La2 O11 2.850924 1_554
La2 O0 2.970552 1_655
La2 O3 3.123509 1_555
La2 O4 3.131169 1_554
La3 O1 2.466267 1_555
La3 O15 2.472486 1_555
La3 O17 2.478140 1_555
La3 O11 2.618982 1_545
La3 O21 2.623666 1_555
La3 O19 2.637739 1_545
La3 O6 2.707350 1_555
La3 O9 2.731273 1_545
La3 O10 2.850944 1_555
La3 O1 2.970566 1_655
La3 O2 3.123468 1_555
La3 O5 3.131231 1_555
Mn0 O5 1.911637 1_555
Mn0 O23 1.913007 1_445
Mn0 O15 1.929174 1_455
Mn0 O9 1.929975 1_545
Mn0 O19 1.936130 1_445
Mn0 O1 1.938480 1_555
Mn1 O21 1.906757 1_555
Mn1 O13 1.912882 1_556
Mn1 O16 1.926721 1_546
Mn1 O11 1.931754 1_545
Mn1 O3 1.932110 1_546
Mn1 O6 1.937929 1_555
Mn2 O4 1.911556 1_555
Mn2 O22 1.912946 1_455
Mn2 O14 1.929223 1_455
Mn2 O8 1.929848 1_556
Mn2 O18 1.936094 1_456
Mn2 O0 1.938515 1_556
Mn3 O20 1.906983 1_555
Mn3 O12 1.912962 1_555
Mn3 O17 1.926690 1_555
Mn3 O10 1.931674 1_555
Mn3 O2 1.932015 1_555
Mn3 O7 1.937679 1_555
O0 Ti0 1.873440 1_555
O1 Ti1 1.873550 1_555
O2 Ti1 1.948375 1_555
O3 Ti0 1.948392 1_555
O4 Ti2 1.991136 1_555
O5 Ti3 1.991098 1_555
O6 Ti1 2.019130 1_555
O7 Ti0 2.019505 1_555
O8 Ti3 2.030471 1_555
O9 Ti2 2.030395 1_555
O10 Ti3 1.860434 1_555
O11 Ti2 1.860282 1_555
O12 Ti2 2.100051 1_555
O13 Ti3 2.099956 1_555
O14 Ti2 1.942074 1_555
O15 Ti3 1.942085 1_555
O16 Ti0 1.944830 1_655
O17 Ti1 1.944822 1_655
O18 Ti3 1.916570 1_555
O19 Ti2 1.916460 1_555
O20 Ti0 1.962304 1_655
O21 Ti1 1.962432 1_655
O22 Ti1 2.091522 1_655
O23 Ti0 2.091535 1_655
