# generated using pymatgen
data_Nd2Ir2O7
_symmetry_space_group_name_H-M   'P 1'
_cell_length_a   7.36125459
_cell_length_b   7.36123286
_cell_length_c   7.36096380
_cell_angle_alpha   59.99770842
_cell_angle_beta   59.99779222
_cell_angle_gamma   59.99902057
_symmetry_Int_Tables_number   1
_chemical_formula_structural   Nd2Ir2O7
_chemical_formula_sum   'Nd4 Ir4 O14'
_cell_volume   282.03570653
_cell_formula_units_Z   2
loop_
 _symmetry_equiv_pos_site_id
 _symmetry_equiv_pos_as_xyz
  1  'x, y, z'
loop_
 _atom_site_type_symbol
 _atom_site_label
 _atom_site_symmetry_multiplicity
 _atom_site_fract_x
 _atom_site_fract_y
 _atom_site_fract_z
 _atom_site_occupancy
  Nd  Nd0  1  0.62499837  0.12499253  0.12500583  1
  Nd  Nd1  1  0.12499800  0.62500428  0.12500080  1
  Nd  Nd2  1  0.12500461  0.12499450  0.62499647  1
  Nd  Nd3  1  0.12500301  0.12499201  0.12500632  1
  Ir  Ir0  1  0.12500259  0.62501078  0.62499084  1
  Ir  Ir1  1  0.62500264  0.12499668  0.62499707  1
  Ir  Ir2  1  0.62499214  0.62500936  0.12500375  1
  Ir  Ir3  1  0.62499929  0.62501122  0.62498916  1
  O  O0  1  0.70727898  0.70728611  0.29270444  1
  O  O1  1  0.29273442  0.29270786  0.70728029  1
  O  O2  1  0.70727821  0.29271189  0.70728236  1
  O  O3  1  0.29273242  0.70728299  0.29270625  1
  O  O4  1  0.29271829  0.70728341  0.70728195  1
  O  O5  1  0.70727811  0.29271430  0.29273849  1
  O  O6  1  0.54271968  0.54271411  0.95730132  1
  O  O7  1  0.95727075  0.95728647  0.54271545  1
  O  O8  1  0.54272723  0.95729038  0.54270735  1
  O  O9  1  0.95725579  0.54271342  0.95731416  1
  O  O10  1  0.95727880  0.54272484  0.54270847  1
  O  O11  1  0.54272501  0.95727899  0.95726650  1
  O  O12  1  0.25000082  0.24999842  0.24999840  1
  O  O13  1  1.00000083  0.99999545  0.00000431  1
loop_
_geom_bond_atom_site_label_1
_geom_bond_atom_site_label_2
_geom_bond_distance
_geom_bond_site_symmetry_2
Nd0 O12 2.253859 1_555
Nd0 O13 2.253888 1_545
Nd0 O8 2.536521 1_545
Nd0 O2 2.536651 1_554
Nd0 O0 2.536658 1_545
Nd0 O6 2.536755 1_554
Nd0 O11 2.536840 1_544
Nd0 O5 2.536883 1_555
Nd1 O13 2.253812 1_455
Nd1 O12 2.253900 1_555
Nd1 O10 2.536554 1_455
Nd1 O4 2.536624 1_554
Nd1 O0 2.536746 1_455
Nd1 O6 2.536755 1_554
Nd1 O9 2.536784 1_454
Nd1 O3 2.536788 1_555
Nd2 O12 2.253743 1_555
Nd2 O13 2.253802 1_446
Nd2 O4 2.536701 1_545
Nd2 O8 2.536779 1_545
Nd2 O2 2.536805 1_455
Nd2 O10 2.536819 1_455
Nd2 O7 2.536830 1_445
Nd2 O1 2.536853 1_555
Nd3 O12 2.253892 1_555
Nd3 O13 2.253918 1_445
Nd3 O7 2.536563 1_445
Nd3 O1 2.536661 1_554
Nd3 O3 2.536669 1_545
Nd3 O9 2.536744 1_454
Nd3 O11 2.536769 1_544
Nd3 O5 2.536786 1_455
Ir0 O3 2.029786 1_555
Ir0 O7 2.029841 1_455
Ir0 O4 2.029888 1_555
Ir0 O10 2.029968 1_455
Ir0 O1 2.029992 1_555
Ir0 O9 2.030020 1_455
Ir1 O5 2.029627 1_555
Ir1 O11 2.029687 1_545
Ir1 O7 2.029781 1_545
Ir1 O1 2.029782 1_555
Ir1 O8 2.029832 1_545
Ir1 O2 2.029868 1_555
Ir2 O3 2.029704 1_555
Ir2 O9 2.029711 1_554
Ir2 O0 2.029765 1_555
Ir2 O11 2.029791 1_554
Ir2 O6 2.029799 1_554
Ir2 O5 2.029929 1_555
Ir3 O0 2.029795 1_555
Ir3 O10 2.029856 1_555
Ir3 O8 2.029860 1_555
Ir3 O4 2.029868 1_555
Ir3 O6 2.029953 1_555
Ir3 O2 2.029974 1_555
