# generated using pymatgen
data_TbGd(PO4)2
_symmetry_space_group_name_H-M   'P 1'
_cell_length_a   5.82996324
_cell_length_b   5.82996324
_cell_length_c   5.82996324
_cell_angle_alpha   105.97685019
_cell_angle_beta   105.97685019
_cell_angle_gamma   116.71174436
_symmetry_Int_Tables_number   1
_chemical_formula_structural   TbGd(PO4)2
_chemical_formula_sum   'Tb1 Gd1 P2 O8'
_cell_volume   150.68816094
_cell_formula_units_Z   1
loop_
 _symmetry_equiv_pos_site_id
 _symmetry_equiv_pos_as_xyz
  1  'x, y, z'
loop_
 _atom_site_type_symbol
 _atom_site_label
 _atom_site_symmetry_multiplicity
 _atom_site_fract_x
 _atom_site_fract_y
 _atom_site_fract_z
 _atom_site_occupancy
  Tb  Tb0  1  0.25000000  0.75000000  0.50000000  1
  Gd  Gd0  1  0.00000000  0.00000000  0.00000000  1
  P  P0  1  0.75000000  0.25000000  0.50000000  1
  P  P1  1  0.50000000  0.50000000  0.00000000  1
  O  O0  1  0.90893300  0.58178400  0.67285100  1
  O  O1  1  0.48285700  0.65729500  0.82556200  1
  O  O2  1  0.83173300  0.65729500  0.17443800  1
  O  O3  1  0.90893300  0.23608200  0.32714900  1
  O  O4  1  0.34270500  0.16826700  0.82556200  1
  O  O5  1  0.76391800  0.09106700  0.67285100  1
  O  O6  1  0.41821600  0.09106700  0.32714900  1
  O  O7  1  0.34270500  0.51714300  0.17443800  1
loop_
_geom_bond_atom_site_label_1
_geom_bond_atom_site_label_2
_geom_bond_distance
_geom_bond_site_symmetry_2
Gd0 O3 2.362868 1_455
Gd0 O6 2.362868 1_555
Gd0 O5 2.362868 1_454
Gd0 O0 2.362868 1_444
Gd0 O2 2.427777 1_445
Gd0 O4 2.427777 1_554
Gd0 O1 2.427777 1_444
Gd0 O7 2.427777 1_555
O0 P0 1.554735 1_555
O0 Tb0 2.413511 1_655
O1 P1 1.557232 1_556
O1 Tb0 2.354438 1_555
O2 P1 1.557232 1_555
O2 Tb0 2.354438 1_655
O3 P0 1.554735 1_555
O3 Tb0 2.413511 1_655
O4 P1 1.557232 1_556
O4 Tb0 2.354438 1_545
O5 P0 1.554735 1_555
O5 Tb0 2.413511 1_545
O6 P0 1.554735 1_555
O6 Tb0 2.413511 1_545
O7 P1 1.557232 1_555
O7 Tb0 2.354438 1_555
