# generated using pymatgen
data_Eu9(Ni13P6)2
_symmetry_space_group_name_H-M   'P 1'
_cell_length_a   3.83934916
_cell_length_b   14.38872820
_cell_length_c   14.38872820
_cell_angle_alpha   120.00000093
_cell_angle_beta   90.00000000
_cell_angle_gamma   90.00000000
_symmetry_Int_Tables_number   1
_chemical_formula_structural   Eu9(Ni13P6)2
_chemical_formula_sum   'Eu9 Ni26 P12'
_cell_volume   688.38762640
_cell_formula_units_Z   1
loop_
 _symmetry_equiv_pos_site_id
 _symmetry_equiv_pos_as_xyz
  1  'x, y, z'
loop_
 _atom_site_type_symbol
 _atom_site_label
 _atom_site_symmetry_multiplicity
 _atom_site_fract_x
 _atom_site_fract_y
 _atom_site_fract_z
 _atom_site_occupancy
  Eu  Eu0  1  0.50000000  0.81157694  0.62315387  1
  Eu  Eu1  1  0.50000000  0.81157694  0.18842306  1
  Eu  Eu2  1  0.50000000  0.37684613  0.18842306  1
  Eu  Eu3  1  0.50000000  0.09064369  0.18128738  1
  Eu  Eu4  1  0.50000000  0.09064369  0.90935631  1
  Eu  Eu5  1  0.50000000  0.81871262  0.90935631  1
  Eu  Eu6  1  0.00000000  0.42442412  0.84884823  1
  Eu  Eu7  1  -0.00000000  0.42442412  0.57557588  1
  Eu  Eu8  1  0.00000000  0.15115177  0.57557588  1
  Ni  Ni0  1  -0.00000000  0.19076066  0.38152132  1
  Ni  Ni1  1  0.00000000  0.19076066  0.80923934  1
  Ni  Ni2  1  -0.00000000  0.61847868  0.80923934  1
  Ni  Ni3  1  0.50000000  0.60104065  0.20208130  1
  Ni  Ni4  1  0.50000000  0.60104065  0.39895935  1
  Ni  Ni5  1  0.50000000  0.79791870  0.39895935  1
  Ni  Ni6  1  0.00000000  0.72187615  0.44375230  1
  Ni  Ni7  1  -0.00000000  0.72187615  0.27812385  1
  Ni  Ni8  1  0.00000000  0.55624770  0.27812385  1
  Ni  Ni9  1  0.00000000  0.90461926  0.80923852  1
  Ni  Ni10  1  -0.00000000  0.90461926  0.09538074  1
  Ni  Ni11  1  0.00000000  0.19076148  0.09538074  1
  Ni  Ni12  1  0.50000000  0.62168438  0.67417229  1
  Ni  Ni13  1  0.50000000  0.05248791  0.37831562  1
  Ni  Ni14  1  0.50000000  0.05248791  0.67417229  1
  Ni  Ni15  1  0.50000000  0.32582771  0.94751209  1
  Ni  Ni16  1  0.50000000  0.32582771  0.37831562  1
  Ni  Ni17  1  0.50000000  0.62168438  0.94751209  1
  Ni  Ni18  1  0.00000000  0.92405091  0.37776241  1
  Ni  Ni19  1  0.00000000  0.45371150  0.07594909  1
  Ni  Ni20  1  -0.00000000  0.45371150  0.37776241  1
  Ni  Ni21  1  -0.00000000  0.62223759  0.54628850  1
  Ni  Ni22  1  0.00000000  0.62223759  0.07594909  1
  Ni  Ni23  1  0.00000000  0.92405091  0.54628850  1
  Ni  Ni24  1  0.50000000  0.33333300  0.66666700  1
  Ni  Ni25  1  0.00000000  0.00000000  -0.00000000  1
  P  P0  1  0.50000000  0.51455260  0.02910521  1
  P  P1  1  0.50000000  0.51455260  0.48544740  1
  P  P2  1  0.50000000  0.97089479  0.48544740  1
  P  P3  1  -0.00000000  0.00350785  0.27843290  1
  P  P4  1  0.00000000  0.27492505  0.99649215  1
  P  P5  1  0.00000000  0.27492505  0.27843290  1
  P  P6  1  0.00000000  0.72156710  0.72507495  1
  P  P7  1  -0.00000000  0.72156710  0.99649215  1
  P  P8  1  0.00000000  0.00350785  0.72507495  1
  P  P9  1  0.50000000  0.24073773  0.48147546  1
  P  P10  1  0.50000000  0.24073773  0.75926227  1
  P  P11  1  0.50000000  0.51852454  0.75926227  1
loop_
_geom_bond_atom_site_label_1
_geom_bond_atom_site_label_2
_geom_bond_distance
_geom_bond_site_symmetry_2
Eu0 Ni6 2.946645 1_655
Eu0 Ni6 2.946645 1_555
Eu0 Ni9 3.010314 1_655
Eu0 Ni9 3.010314 1_555
Eu0 Ni23 3.052434 1_555
Eu0 Ni23 3.052434 1_655
Eu0 Ni21 3.052434 1_555
Eu0 Ni21 3.052434 1_655
Eu0 P8 3.067979 1_565
Eu0 P8 3.067979 1_665
Eu0 P6 3.067979 1_555
Eu0 P6 3.067979 1_655
Eu0 Ni5 3.132239 1_555
Eu0 Ni4 3.132239 1_555
Eu0 Ni14 3.163887 1_565
Eu0 Ni12 3.163887 1_555
Eu1 Ni7 2.946645 1_555
Eu1 Ni7 2.946645 1_655
Eu1 Ni10 3.010314 1_655
Eu1 Ni10 3.010314 1_555
Eu1 Ni18 3.052434 1_555
Eu1 Ni18 3.052434 1_655
Eu1 Ni22 3.052434 1_655
Eu1 Ni22 3.052434 1_555
Eu1 P7 3.067979 1_554
Eu1 P7 3.067979 1_654
Eu1 P3 3.067979 1_565
Eu1 P3 3.067979 1_665
Eu1 Ni3 3.132239 1_555
Eu1 Ni5 3.132239 1_555
Eu1 Ni13 3.163887 1_565
Eu1 Ni17 3.163887 1_554
Eu2 Ni8 2.946645 1_655
Eu2 Ni8 2.946645 1_555
Eu2 Ni11 3.010314 1_555
Eu2 Ni11 3.010314 1_655
Eu2 Ni19 3.052434 1_555
Eu2 Ni19 3.052434 1_655
Eu2 Ni20 3.052434 1_655
Eu2 Ni20 3.052434 1_555
Eu2 P4 3.067979 1_654
Eu2 P4 3.067979 1_554
Eu2 P5 3.067979 1_655
Eu2 P5 3.067979 1_555
Eu2 Ni3 3.132239 1_555
Eu2 Ni4 3.132239 1_555
Eu2 Ni15 3.163887 1_554
Eu2 Ni16 3.163887 1_555
Eu3 Ni25 2.964513 1_555
Eu3 Ni25 2.964513 1_655
Eu3 P5 2.993906 1_655
Eu3 P5 2.993906 1_555
Eu3 P3 2.993906 1_555
Eu3 P3 2.993906 1_655
Eu3 Ni10 3.011472 1_645
Eu3 Ni10 3.011472 1_545
Eu3 Ni11 3.011472 1_555
Eu3 Ni11 3.011472 1_655
Eu3 Ni16 3.145633 1_555
Eu3 Ni13 3.145633 1_555
Eu3 Ni0 3.148135 1_555
Eu3 Ni0 3.148135 1_655
Eu4 Ni25 2.964513 1_556
Eu4 Ni25 2.964513 1_656
Eu4 P4 2.993906 1_555
Eu4 P4 2.993906 1_655
Eu4 P8 2.993906 1_655
Eu4 P8 2.993906 1_555
Eu4 Ni11 3.011472 1_556
Eu4 Ni11 3.011472 1_656
Eu4 Ni9 3.011472 1_645
Eu4 Ni9 3.011472 1_545
Eu4 Ni15 3.145633 1_555
Eu4 Ni14 3.145633 1_555
Eu4 Ni1 3.148135 1_555
Eu4 Ni1 3.148135 1_655
Eu5 Ni25 2.964513 1_566
Eu5 Ni25 2.964513 1_666
Eu5 P6 2.993906 1_655
Eu5 P6 2.993906 1_555
Eu5 P7 2.993906 1_655
Eu5 P7 2.993906 1_555
Eu5 Ni10 3.011472 1_556
Eu5 Ni10 3.011472 1_656
Eu5 Ni9 3.011472 1_655
Eu5 Ni9 3.011472 1_555
Eu5 Ni12 3.145633 1_555
Eu5 Ni17 3.145633 1_555
Eu5 Ni2 3.148135 1_555
Eu5 Ni2 3.148135 1_655
Eu6 P0 2.954740 1_556
Eu6 P0 2.954740 1_456
Eu6 Ni24 2.973009 1_455
Eu6 Ni24 2.973009 1_555
Eu6 P11 2.987532 1_455
Eu6 P11 2.987532 1_555
Eu6 P10 2.987532 1_455
Eu6 P10 2.987532 1_555
Eu6 Ni22 3.078696 1_556
Eu6 Ni19 3.078696 1_556
Eu6 Ni2 3.116491 1_555
Eu6 Ni1 3.116491 1_555
Eu6 Ni17 3.118848 1_455
Eu6 Ni17 3.118848 1_555
Eu6 Ni15 3.118848 1_555
Eu6 Ni15 3.118848 1_455
Eu7 P1 2.954740 1_555
Eu7 P1 2.954740 1_455
Eu7 Ni24 2.973018 1_455
Eu7 Ni24 2.973018 1_555
Eu7 P11 2.987532 1_555
Eu7 P11 2.987532 1_455
Eu7 P9 2.987532 1_555
Eu7 P9 2.987532 1_455
Eu7 Ni21 3.078696 1_555
Eu7 Ni20 3.078696 1_555
Eu7 Ni2 3.116491 1_555
Eu7 Ni0 3.116491 1_555
Eu7 Ni12 3.118848 1_455
Eu7 Ni12 3.118848 1_555
Eu7 Ni16 3.118848 1_555
Eu7 Ni16 3.118848 1_455
Eu8 P2 2.954740 1_545
Eu8 P2 2.954740 1_445
Eu8 Ni24 2.973009 1_455
Eu8 Ni24 2.973009 1_555
Eu8 P9 2.987532 1_555
Eu8 P9 2.987532 1_455
Eu8 P10 2.987532 1_455
Eu8 P10 2.987532 1_555
Eu8 Ni18 3.078696 1_545
Eu8 Ni23 3.078696 1_545
Eu8 Ni0 3.116491 1_555
Eu8 Ni1 3.116491 1_555
Eu8 Ni13 3.118848 1_555
Eu8 Ni13 3.118848 1_455
Eu8 Ni14 3.118848 1_455
Eu8 Ni14 3.118848 1_555
Ni0 P9 2.288338 1_555
Ni0 P9 2.288338 1_455
Ni0 P3 2.337327 1_555
Ni0 P5 2.337327 1_555
Ni1 P10 2.288338 1_555
Ni1 P10 2.288338 1_455
Ni1 P8 2.337327 1_555
Ni1 P4 2.337327 1_555
Ni2 P11 2.288338 1_455
Ni2 P11 2.288338 1_555
Ni2 P7 2.337327 1_555
Ni2 P6 2.337327 1_555
Ni3 P0 2.155456 1_555
Ni3 Ni7 2.450086 1_655
Ni3 Ni7 2.450086 1_555
Ni3 Ni8 2.450086 1_655
Ni3 Ni8 2.450086 1_555
Ni4 P1 2.155456 1_555
Ni4 Ni6 2.450086 1_555
Ni4 Ni6 2.450086 1_655
Ni4 Ni8 2.450086 1_555
Ni4 Ni8 2.450086 1_655
Ni5 P2 2.155456 1_555
Ni5 Ni7 2.450086 1_655
Ni5 Ni7 2.450086 1_555
Ni5 Ni6 2.450086 1_555
Ni5 Ni6 2.450086 1_655
Ni6 Ni8 2.383183 1_555
Ni6 Ni7 2.383183 1_555
Ni7 Ni8 2.383183 1_555
Ni9 P6 2.283472 1_555
Ni9 P8 2.283472 1_565
Ni10 P3 2.283472 1_565
Ni10 P7 2.283472 1_554
Ni10 Ni25 2.377080 1_565
Ni11 P5 2.283472 1_555
Ni11 P4 2.283472 1_554
Ni11 Ni25 2.377080 1_555
Ni12 P6 2.287896 1_555
Ni12 P6 2.287896 1_655
Ni12 P11 2.349381 1_555
Ni12 P1 2.358868 1_555
Ni13 P3 2.287896 1_555
Ni13 P3 2.287896 1_655
Ni13 P9 2.349381 1_555
Ni13 P2 2.358868 1_545
Ni14 P8 2.287896 1_655
Ni14 P8 2.287896 1_555
Ni14 P10 2.349381 1_555
Ni14 P2 2.358868 1_545
Ni15 P4 2.287896 1_655
Ni15 P4 2.287896 1_555
Ni15 P10 2.349381 1_555
Ni15 P0 2.358868 1_556
Ni16 P5 2.287896 1_555
Ni16 P5 2.287896 1_655
Ni16 P9 2.349381 1_555
Ni16 P1 2.358868 1_555
Ni17 P7 2.287896 1_655
Ni17 P7 2.287896 1_555
Ni17 P11 2.349381 1_555
Ni17 P0 2.358868 1_556
Ni18 P3 2.232441 1_565
Ni18 P2 2.344331 1_455
Ni18 P2 2.344331 1_555
Ni18 Ni7 2.519387 1_555
Ni19 P4 2.232441 1_554
Ni19 P0 2.344331 1_555
Ni19 P0 2.344331 1_455
Ni19 Ni8 2.519387 1_555
Ni20 P5 2.232441 1_555
Ni20 P1 2.344331 1_555
Ni20 P1 2.344331 1_455
Ni20 Ni8 2.519387 1_555
Ni21 P6 2.232441 1_555
Ni21 P1 2.344331 1_455
Ni21 P1 2.344331 1_555
Ni21 Ni6 2.519387 1_555
Ni22 P7 2.232441 1_554
Ni22 P0 2.344331 1_455
Ni22 P0 2.344331 1_555
Ni22 Ni7 2.519387 1_555
Ni23 P8 2.232441 1_565
Ni23 P2 2.344331 1_455
Ni23 P2 2.344331 1_555
Ni23 Ni6 2.519387 1_555
Ni24 P10 2.307660 1_555
Ni24 P9 2.307673 1_555
Ni24 P11 2.307673 1_555
Ni25 Ni9 2.377080 1_544
