# generated using pymatgen
data_AlFe3Se2ClO8
_symmetry_space_group_name_H-M   'P 1'
_cell_length_a   5.57054100
_cell_length_b   8.29611151
_cell_length_c   9.92966320
_cell_angle_alpha   90.64379968
_cell_angle_beta   91.24093027
_cell_angle_gamma   90.12740139
_symmetry_Int_Tables_number   1
_chemical_formula_structural   AlFe3Se2ClO8
_chemical_formula_sum   'Al2 Fe6 Se4 Cl2 O16'
_cell_volume   458.74977767
_cell_formula_units_Z   2
loop_
 _symmetry_equiv_pos_site_id
 _symmetry_equiv_pos_as_xyz
  1  'x, y, z'
loop_
 _atom_site_type_symbol
 _atom_site_label
 _atom_site_symmetry_multiplicity
 _atom_site_fract_x
 _atom_site_fract_y
 _atom_site_fract_z
 _atom_site_occupancy
  Al  Al0  1  0.74636300  0.15701600  0.75184600  1
  Al  Al1  1  0.25363700  0.84298400  0.24815400  1
  Fe  Fe0  1  0.50000000  0.00000000  0.00000000  1
  Fe  Fe1  1  0.50000000  0.00000000  0.50000000  1
  Fe  Fe2  1  0.00000000  0.00000000  0.00000000  1
  Fe  Fe3  1  0.23727800  0.22755000  0.24983900  1
  Fe  Fe4  1  0.76272200  0.77245000  0.75016100  1
  Fe  Fe5  1  0.00000000  0.00000000  0.50000000  1
  Se  Se0  1  0.24831000  0.36236000  0.91500100  1
  Se  Se1  1  0.75169000  0.63764000  0.08499900  1
  Se  Se2  1  0.25287100  0.36239400  0.58410800  1
  Se  Se3  1  0.74712900  0.63760600  0.41589200  1
  Cl  Cl0  1  0.75796600  0.17805800  0.24689000  1
  Cl  Cl1  1  0.24203400  0.82194200  0.75311000  1
  O  O0  1  0.74511100  0.97891200  0.86923600  1
  O  O1  1  0.75102100  0.61581300  0.91441000  1
  O  O2  1  0.25264100  0.38525300  0.41481600  1
  O  O3  1  0.49102800  0.22789100  0.89016200  1
  O  O4  1  0.49948100  0.77172500  0.38854900  1
  O  O5  1  0.98925100  0.77216000  0.39242500  1
  O  O6  1  0.25488900  0.02108800  0.13076400  1
  O  O7  1  0.00047100  0.22856100  0.88637100  1
  O  O8  1  0.01074900  0.22784000  0.60757500  1
  O  O9  1  0.99952900  0.77143900  0.11362900  1
  O  O10  1  0.75305200  0.97834600  0.63159300  1
  O  O11  1  0.24694800  0.02165400  0.36840700  1
  O  O12  1  0.50897200  0.77210900  0.10983800  1
  O  O13  1  0.50051900  0.22827500  0.61145100  1
  O  O14  1  0.24897900  0.38418700  0.08559000  1
  O  O15  1  0.74735900  0.61474700  0.58518400  1
loop_
_geom_bond_atom_site_label_1
_geom_bond_atom_site_label_2
_geom_bond_distance
_geom_bond_site_symmetry_2
Al0 O0 1.892353 1_545
Al0 O10 1.893860 1_545
Al0 O7 2.009196 1_655
Al0 O13 2.026782 1_555
Al0 O3 2.079740 1_555
Al0 O8 2.161707 1_655
Al1 O6 1.892353 1_565
Al1 O11 1.893860 1_565
Al1 O9 2.009196 1_455
Al1 O4 2.026782 1_555
Al1 O12 2.079740 1_555
Al1 O5 2.161707 1_455
Fe0 O0 1.911446 1_544
Fe0 O6 1.911446 1_555
Fe0 O3 2.193359 1_554
Fe0 O12 2.193359 1_545
Fe1 O10 1.911378 1_545
Fe1 O11 1.911378 1_555
Fe1 O13 2.182642 1_555
Fe1 O4 2.182642 1_545
Fe2 O6 1.909588 1_555
Fe2 O0 1.909588 1_444
Fe2 O9 2.217363 1_445
Fe2 O7 2.217363 1_554
Fe3 O6 2.074051 1_555
Fe3 O2 2.085158 1_555
Fe3 O11 2.085573 1_555
Fe3 O14 2.098738 1_555
Fe4 O0 2.074051 1_555
Fe4 O15 2.085158 1_555
Fe4 O10 2.085573 1_555
Fe4 O1 2.098738 1_555
Fe5 O11 1.927192 1_555
Fe5 O10 1.927192 1_445
Fe5 O8 2.160731 1_555
Fe5 O5 2.160731 1_445
Cl0 Fe3 2.699992 1_655
Cl0 Fe3 2.931063 1_555
Cl1 Fe4 2.699992 1_455
Cl1 Fe4 2.931063 1_555
O1 Se1 1.701441 1_556
O2 Se2 1.693765 1_555
O3 Se0 1.774371 1_555
O4 Se3 1.792274 1_555
O5 Se3 1.769819 1_555
O7 Se0 1.785521 1_555
O8 Se2 1.769819 1_555
O9 Se1 1.785521 1_555
O12 Se1 1.774371 1_555
O13 Se2 1.792274 1_555
O14 Se0 1.701441 1_554
O15 Se3 1.693765 1_555
