# generated using pymatgen
data_CaLaFeSbO6
_symmetry_space_group_name_H-M   'P 1'
_cell_length_a   5.54297721
_cell_length_b   7.98555788
_cell_length_c   5.68600181
_cell_angle_alpha   90.40379921
_cell_angle_beta   88.19859915
_cell_angle_gamma   89.50352168
_symmetry_Int_Tables_number   1
_chemical_formula_structural   CaLaFeSbO6
_chemical_formula_sum   'Ca2 La2 Fe2 Sb2 O12'
_cell_volume   251.54327515
_cell_formula_units_Z   2
loop_
 _symmetry_equiv_pos_site_id
 _symmetry_equiv_pos_as_xyz
  1  'x, y, z'
loop_
 _atom_site_type_symbol
 _atom_site_label
 _atom_site_symmetry_multiplicity
 _atom_site_fract_x
 _atom_site_fract_y
 _atom_site_fract_z
 _atom_site_occupancy
  Ca  Ca0  1  0.51057457  0.25335776  0.55282958  1
  Ca  Ca1  1  0.02003484  0.74948765  0.94769390  1
  La  La0  1  0.98165551  0.24914882  0.04505175  1
  La  La1  1  0.49517724  0.74902190  0.45489932  1
  Fe  Fe0  1  0.49943145  0.50119636  0.00043848  1
  Fe  Fe1  1  0.99800071  0.99983764  0.49916649  1
  Sb  Sb0  1  0.00249874  0.49835992  0.50205401  1
  Sb  Sb1  1  0.49741603  0.99947520  0.99819009  1
  O  O0  1  0.60014629  0.76145401  0.02866513  1
  O  O1  1  0.09845704  0.25952830  0.47332123  1
  O  O2  1  0.20365817  0.95223179  0.20115594  1
  O  O3  1  0.71580933  0.45213827  0.30940460  1
  O  O4  1  0.19896681  0.54946927  0.20835608  1
  O  O5  1  0.68747309  0.05628359  0.27978490  1
  O  O6  1  0.91308106  0.73879213  0.53299655  1
  O  O7  1  0.40631006  0.23972597  0.96530234  1
  O  O8  1  0.28504933  0.54534426  0.69698304  1
  O  O9  1  0.78642582  0.04684369  0.79028153  1
  O  O10  1  0.30116321  0.94528858  0.72214954  1
  O  O11  1  0.79867371  0.45301389  0.79127651  1
loop_
_geom_bond_atom_site_label_1
_geom_bond_atom_site_label_2
_geom_bond_distance
_geom_bond_site_symmetry_2
Ca0 O1 2.342732 1_555
Ca0 O5 2.385710 1_555
Ca0 O3 2.385992 1_555
Ca0 O7 2.401221 1_555
Ca0 O9 2.645368 1_555
Ca0 O11 2.660860 1_555
Ca0 O8 2.743971 1_555
Ca0 O10 2.887731 1_545
Ca1 O0 2.359280 1_456
Ca1 O2 2.412904 1_556
Ca1 O4 2.414531 1_556
Ca1 O6 2.450450 1_455
Ca1 O10 2.542156 1_555
Ca1 O8 2.577145 1_555
Ca1 O11 2.826820 1_455
Ca1 O9 2.857602 1_465
La0 O7 2.383535 1_654
La0 O11 2.420269 1_554
La0 O9 2.444451 1_554
La0 O1 2.540305 1_655
La0 O5 2.597710 1_555
La0 O3 2.615984 1_555
La0 O2 2.823430 1_645
La0 O4 2.855456 1_655
La1 O6 2.373104 1_555
La1 O10 2.399284 1_555
La1 O8 2.420817 1_555
La1 O0 2.477462 1_555
La1 O4 2.712728 1_555
La1 O2 2.731326 1_555
La1 O3 2.767513 1_555
La1 O5 2.856748 1_565
Fe0 O11 2.042595 1_554
Fe0 O4 2.044185 1_555
Fe0 O8 2.154942 1_554
Fe0 O0 2.162821 1_555
Fe0 O7 2.164559 1_554
Fe0 O3 2.193693 1_555
Fe1 O9 2.029231 1_565
Fe1 O2 2.043839 1_655
Fe1 O6 2.149666 1_555
Fe1 O1 2.156701 1_665
Fe1 O10 2.179483 1_655
Fe1 O5 2.202579 1_565
O0 Sb1 1.989761 1_554
O1 Sb0 1.979796 1_555
O2 Sb1 2.006034 1_554
O3 Sb0 1.993825 1_655
O4 Sb0 2.011044 1_555
O5 Sb1 1.995843 1_544
O6 Sb0 1.983991 1_655
O7 Sb1 1.991225 1_545
O8 Sb0 1.983835 1_555
O9 Sb1 2.001167 1_545
O10 Sb1 1.984962 1_555
O11 Sb0 2.002670 1_655
