# generated using pymatgen
data_DyWO5
_symmetry_space_group_name_H-M   'P 1'
_cell_length_a   5.30479570
_cell_length_b   6.58880579
_cell_length_c   12.72170900
_cell_angle_alpha   90.00000000
_cell_angle_beta   90.00000000
_cell_angle_gamma   109.02631164
_symmetry_Int_Tables_number   1
_chemical_formula_structural   DyWO5
_chemical_formula_sum   'Dy4 W4 O20'
_cell_volume   420.36075985
_cell_formula_units_Z   4
loop_
 _symmetry_equiv_pos_site_id
 _symmetry_equiv_pos_as_xyz
  1  'x, y, z'
loop_
 _atom_site_type_symbol
 _atom_site_label
 _atom_site_symmetry_multiplicity
 _atom_site_fract_x
 _atom_site_fract_y
 _atom_site_fract_z
 _atom_site_occupancy
  Dy  Dy0  1  0.14606000  0.78407700  0.44429600  1
  Dy  Dy1  1  0.85394000  0.21592300  0.55570400  1
  Dy  Dy2  1  0.35394000  0.71592300  0.94429600  1
  Dy  Dy3  1  0.64606000  0.28407700  0.05570400  1
  W  W0  1  0.95484800  0.84640600  0.13924800  1
  W  W1  1  0.04515200  0.15359400  0.86075200  1
  W  W2  1  0.54515200  0.65359400  0.63924800  1
  W  W3  1  0.45484800  0.34640600  0.36075200  1
  O  O0  1  0.04499700  0.56378300  0.08856200  1
  O  O1  1  0.95500300  0.43621700  0.91143800  1
  O  O2  1  0.45500300  0.93621700  0.58856200  1
  O  O3  1  0.54499700  0.06378300  0.41143800  1
  O  O4  1  0.85320500  0.84341200  0.57080200  1
  O  O5  1  0.14679500  0.15658800  0.42919800  1
  O  O6  1  0.64679500  0.65658800  0.07080200  1
  O  O7  1  0.35320500  0.34341200  0.92919800  1
  O  O8  1  0.27137500  0.97241100  0.06465400  1
  O  O9  1  0.72862500  0.02758900  0.93534600  1
  O  O10  1  0.22862500  0.52758900  0.56465400  1
  O  O11  1  0.77137500  0.47241100  0.43534600  1
  O  O12  1  0.99867000  0.79271900  0.27520300  1
  O  O13  1  0.00133000  0.20728100  0.72479700  1
  O  O14  1  0.50133000  0.70728100  0.77520300  1
  O  O15  1  0.49867000  0.29271900  0.22479700  1
  O  O16  1  0.15780200  0.92244700  0.85161700  1
  O  O17  1  0.84219800  0.07755300  0.14838300  1
  O  O18  1  0.34219800  0.57755300  0.35161700  1
  O  O19  1  0.65780200  0.42244700  0.64838300  1
loop_
_geom_bond_atom_site_label_1
_geom_bond_atom_site_label_2
_geom_bond_distance
_geom_bond_site_symmetry_2
Dy0 O18 2.290733 1_555
Dy0 O12 2.295877 1_455
Dy0 O3 2.346665 1_565
Dy0 O11 2.349317 1_455
Dy0 O4 2.356351 1_455
Dy0 O10 2.423802 1_555
Dy0 O2 2.447038 1_555
Dy0 O5 2.460642 1_565
Dy1 O19 2.290733 1_555
Dy1 O13 2.295877 1_655
Dy1 O2 2.346665 1_545
Dy1 O10 2.349317 1_655
Dy1 O5 2.356351 1_655
Dy1 O11 2.423802 1_555
Dy1 O3 2.447038 1_555
Dy1 O4 2.460642 1_545
Dy2 O16 2.290733 1_555
Dy2 O14 2.295877 1_555
Dy2 O1 2.346665 1_455
Dy2 O9 2.349317 1_565
Dy2 O6 2.356351 1_556
Dy2 O8 2.423802 1_556
Dy2 O0 2.447038 1_556
Dy2 O7 2.460642 1_555
Dy3 O17 2.290733 1_555
Dy3 O15 2.295877 1_555
Dy3 O0 2.346665 1_655
Dy3 O8 2.349317 1_545
Dy3 O7 2.356351 1_554
Dy3 O9 2.423802 1_554
Dy3 O1 2.447038 1_554
Dy3 O6 2.460642 1_555
O0 W0 2.166264 1_455
O1 W1 2.166264 1_655
O2 W2 2.166264 1_555
O3 W3 2.166264 1_555
O4 W2 1.913190 1_555
O5 W3 1.913190 1_555
O6 W0 1.913190 1_555
O7 W1 1.913190 1_555
O8 W0 1.870908 1_455
O9 W1 1.870908 1_655
O10 W2 1.870908 1_555
O11 W3 1.870908 1_555
O12 W0 1.795614 1_555
O13 W1 1.795614 1_555
O14 W2 1.795614 1_555
O15 W3 1.795614 1_555
O16 W1 1.812039 1_565
O17 W0 1.812039 1_545
O18 W3 1.812039 1_555
O19 W2 1.812039 1_555
