# generated using pymatgen
data_Mn(VSi3)2
_symmetry_space_group_name_H-M   'P 1'
_cell_length_a   4.49767843
_cell_length_b   4.49767843
_cell_length_c   6.35550100
_cell_angle_alpha   90.00000000
_cell_angle_beta   90.00000000
_cell_angle_gamma   120.55490611
_symmetry_Int_Tables_number   1
_chemical_formula_structural   Mn(VSi3)2
_chemical_formula_sum   'Mn1 V2 Si6'
_cell_volume   110.71375086
_cell_formula_units_Z   1
loop_
 _symmetry_equiv_pos_site_id
 _symmetry_equiv_pos_as_xyz
  1  'x, y, z'
loop_
 _atom_site_type_symbol
 _atom_site_label
 _atom_site_symmetry_multiplicity
 _atom_site_fract_x
 _atom_site_fract_y
 _atom_site_fract_z
 _atom_site_occupancy
  Mn  Mn0  1  0.50000000  0.50000000  0.00000000  1
  V  V0  1  0.50000000  0.00000000  0.66994400  1
  V  V1  1  0.00000000  0.50000000  0.33005600  1
  Si  Si0  1  0.16498800  0.83501200  0.00000000  1
  Si  Si1  1  0.16548000  0.32897700  0.66761100  1
  Si  Si2  1  0.67102300  0.83452000  0.33238900  1
  Si  Si3  1  0.83501200  0.16498800  0.00000000  1
  Si  Si4  1  0.83452000  0.67102300  0.66761100  1
  Si  Si5  1  0.32897700  0.16548000  0.33238900  1
loop_
_geom_bond_atom_site_label_1
_geom_bond_atom_site_label_2
_geom_bond_distance
_geom_bond_site_symmetry_2
Mn0 Si5 2.478177 1_555
Mn0 Si2 2.478177 1_555
Mn0 Si1 2.478177 1_554
Mn0 Si4 2.478177 1_554
Mn0 Si3 2.575629 1_565
Mn0 Si0 2.575629 1_545
Mn0 Si0 2.575629 1_655
Mn0 Si3 2.575629 1_455
Mn0 Si3 2.617079 1_555
Mn0 Si0 2.617079 1_555
Si0 V0 2.466664 1_564
Si0 V1 2.466664 1_555
Si0 Si5 2.470070 1_565
Si0 Si4 2.470070 1_454
Si0 Si3 2.577738 1_465
Si0 Si3 2.595539 1_565
Si0 Si3 2.595539 1_455
Si1 Si3 2.470070 1_456
Si1 Si5 2.484017 1_555
Si1 V1 2.515979 1_555
Si1 Si4 2.548398 1_445
Si1 V0 2.577882 1_455
Si1 Si4 2.591301 1_555
Si1 V0 2.591657 1_555
Si1 V0 2.599179 1_565
Si1 Si4 2.628843 1_455
Si2 Si3 2.470070 1_565
Si2 Si4 2.484017 1_555
Si2 V0 2.515979 1_565
Si2 Si5 2.548398 1_665
Si2 V1 2.577882 1_665
Si2 Si5 2.591301 1_555
Si2 V1 2.591657 1_655
Si2 V1 2.599179 1_555
Si2 Si5 2.628843 1_565
Si3 V0 2.466664 1_554
Si3 V1 2.466664 1_655
Si4 V1 2.515979 1_655
Si4 V0 2.577882 1_665
Si4 V0 2.591657 1_565
Si4 V0 2.599179 1_555
Si5 V0 2.515979 1_555
Si5 V1 2.577882 1_545
Si5 V1 2.591657 1_555
Si5 V1 2.599179 1_655
