# generated using pymatgen
data_YCuO3
_symmetry_space_group_name_H-M   'P 1'
_cell_length_a   5.26202800
_cell_length_b   5.66639000
_cell_length_c   7.49422900
_cell_angle_alpha   90.00000000
_cell_angle_beta   90.00000000
_cell_angle_gamma   90.00000000
_symmetry_Int_Tables_number   1
_chemical_formula_structural   YCuO3
_chemical_formula_sum   'Y4 Cu4 O12'
_cell_volume   223.45319910
_cell_formula_units_Z   4
loop_
 _symmetry_equiv_pos_site_id
 _symmetry_equiv_pos_as_xyz
  1  'x, y, z'
loop_
 _atom_site_type_symbol
 _atom_site_label
 _atom_site_symmetry_multiplicity
 _atom_site_fract_x
 _atom_site_fract_y
 _atom_site_fract_z
 _atom_site_occupancy
  Y  Y0  1  0.52034000  0.42441700  0.25000000  1
  Y  Y1  1  0.02034000  0.07558300  0.75000000  1
  Y  Y2  1  0.97966000  0.92441700  0.25000000  1
  Y  Y3  1  0.47966000  0.57558300  0.75000000  1
  Cu  Cu0  1  0.50000000  0.00000000  0.00000000  1
  Cu  Cu1  1  0.00000000  0.50000000  0.00000000  1
  Cu  Cu2  1  0.00000000  0.50000000  0.50000000  1
  Cu  Cu3  1  0.50000000  0.00000000  0.50000000  1
  O  O0  1  0.19908500  0.80538000  0.94852200  1
  O  O1  1  0.69908500  0.69462000  0.05147800  1
  O  O2  1  0.30091500  0.30538000  0.55147800  1
  O  O3  1  0.80091500  0.19462000  0.44852200  1
  O  O4  1  0.80091500  0.19462000  0.05147800  1
  O  O5  1  0.30091500  0.30538000  0.94852200  1
  O  O6  1  0.69908500  0.69462000  0.44852200  1
  O  O7  1  0.19908500  0.80538000  0.55147800  1
  O  O8  1  0.60331400  0.96890100  0.75000000  1
  O  O9  1  0.10331400  0.53109900  0.25000000  1
  O  O10  1  0.89668600  0.46890100  0.75000000  1
  O  O11  1  0.39668600  0.03109900  0.25000000  1
loop_
_geom_bond_atom_site_label_1
_geom_bond_atom_site_label_2
_geom_bond_distance
_geom_bond_site_symmetry_2
Cu0 O8 1.958779 1_544
Cu0 O11 1.958779 1_555
Cu0 O0 1.967794 1_544
Cu0 O4 1.967794 1_555
Cu0 O1 2.059265 1_545
Cu0 O5 2.059265 1_554
Cu1 O9 1.958779 1_555
Cu1 O10 1.958779 1_454
Cu1 O5 1.967794 1_554
Cu1 O1 1.967794 1_455
Cu1 O4 2.059265 1_455
Cu1 O0 2.059265 1_554
Cu2 O9 1.958779 1_555
Cu2 O10 1.958779 1_455
Cu2 O2 1.967794 1_555
Cu2 O6 1.967794 1_455
Cu2 O3 2.059265 1_455
Cu2 O7 2.059265 1_555
Cu3 O8 1.958779 1_545
Cu3 O11 1.958779 1_555
Cu3 O7 1.967794 1_545
Cu3 O3 1.967794 1_555
Cu3 O6 2.059265 1_545
Cu3 O2 2.059265 1_555
O0 Y1 2.332875 1_565
O0 Y3 2.467531 1_555
O0 Y2 2.625405 1_456
O1 Y0 2.332875 1_555
O1 Y2 2.467531 1_555
O1 Y3 2.625405 1_554
O2 Y3 2.332875 1_555
O2 Y1 2.467531 1_555
O2 Y0 2.625405 1_555
O3 Y2 2.332875 1_545
O3 Y0 2.467531 1_555
O3 Y1 2.625405 1_655
O4 Y2 2.332875 1_545
O4 Y0 2.467531 1_555
O4 Y1 2.625405 1_654
O5 Y3 2.332875 1_555
O5 Y1 2.467531 1_555
O5 Y0 2.625405 1_556
O6 Y0 2.332875 1_555
O6 Y2 2.467531 1_555
O6 Y3 2.625405 1_555
O7 Y1 2.332875 1_565
O7 Y3 2.467531 1_555
O7 Y2 2.625405 1_455
O8 Y1 2.276143 1_665
O8 Y3 2.321733 1_555
O9 Y0 2.276143 1_555
O9 Y2 2.321733 1_455
O10 Y3 2.276143 1_555
O10 Y1 2.321733 1_655
O11 Y2 2.276143 1_445
O11 Y0 2.321733 1_555
