# generated using pymatgen
data_Nd2Mg
_symmetry_space_group_name_H-M   'P 1'
_cell_length_a   13.87182498
_cell_length_b   13.87182498
_cell_length_c   15.51196498
_cell_angle_alpha   74.13042302
_cell_angle_beta   74.13042302
_cell_angle_gamma   32.14706180
_symmetry_Int_Tables_number   1
_chemical_formula_structural   Nd2Mg
_chemical_formula_sum   'Nd32 Mg16'
_cell_volume   1522.59560099
_cell_formula_units_Z   16
loop_
 _symmetry_equiv_pos_site_id
 _symmetry_equiv_pos_as_xyz
  1  'x, y, z'
loop_
 _atom_site_type_symbol
 _atom_site_label
 _atom_site_symmetry_multiplicity
 _atom_site_fract_x
 _atom_site_fract_y
 _atom_site_fract_z
 _atom_site_occupancy
  Nd  Nd0_0  1  0.42550817  0.42550818  0.28248252  1
  Nd  Nd0_1  1  0.42550817  0.42550817  0.78248252  1
  Nd  Nd0_2  1  0.42550817  0.92550818  0.28248252  1
  Nd  Nd0_3  1  0.42550817  0.92550817  0.78248252  1
  Nd  Nd0_4  1  0.92550817  0.42550818  0.28248252  1
  Nd  Nd0_5  1  0.92550817  0.42550817  0.78248252  1
  Nd  Nd0_6  1  0.92550817  0.92550817  0.28248252  1
  Nd  Nd0_7  1  0.92550817  0.92550818  0.78248252  1
  Nd  Nd1_0  1  0.07449182  0.07449183  0.21751748  1
  Nd  Nd1_1  1  0.07449182  0.07449183  0.71751747  1
  Nd  Nd1_2  1  0.07449182  0.57449182  0.21751748  1
  Nd  Nd1_3  1  0.07449182  0.57449182  0.71751747  1
  Nd  Nd1_4  1  0.57449182  0.07449183  0.21751748  1
  Nd  Nd1_5  1  0.57449183  0.07449183  0.71751747  1
  Nd  Nd1_6  1  0.57449182  0.57449183  0.21751747  1
  Nd  Nd1_7  1  0.57449182  0.57449183  0.71751748  1
  Nd  Nd2_0  1  0.41840405  0.41840405  0.04537122  1
  Nd  Nd2_1  1  0.41840405  0.41840405  0.54537122  1
  Nd  Nd2_2  1  0.41840405  0.91840406  0.04537122  1
  Nd  Nd2_3  1  0.41840405  0.91840405  0.54537122  1
  Nd  Nd2_4  1  0.91840405  0.41840406  0.04537122  1
  Nd  Nd2_5  1  0.91840405  0.41840405  0.54537122  1
  Nd  Nd2_6  1  0.91840405  0.91840405  0.04537122  1
  Nd  Nd2_7  1  0.91840405  0.91840405  0.54537122  1
  Nd  Nd3_0  1  0.08159595  0.08159595  0.45462878  1
  Nd  Nd3_1  1  0.08159594  0.08159594  0.95462878  1
  Nd  Nd3_2  1  0.08159594  0.58159595  0.45462878  1
  Nd  Nd3_3  1  0.08159594  0.58159595  0.95462878  1
  Nd  Nd3_4  1  0.58159595  0.08159595  0.45462878  1
  Nd  Nd3_5  1  0.58159595  0.08159595  0.95462878  1
  Nd  Nd3_6  1  0.58159595  0.58159595  0.45462878  1
  Nd  Nd3_7  1  0.58159594  0.58159595  0.95462878  1
  Mg  Mg0_0  1  0.24596489  0.24596489  0.38500819  1
  Mg  Mg0_1  1  0.24596488  0.24596489  0.88500819  1
  Mg  Mg0_2  1  0.24596488  0.74596489  0.38500819  1
  Mg  Mg0_3  1  0.24596488  0.74596488  0.88500819  1
  Mg  Mg0_4  1  0.74596489  0.24596489  0.38500819  1
  Mg  Mg0_5  1  0.74596489  0.24596489  0.88500819  1
  Mg  Mg0_6  1  0.74596488  0.74596489  0.38500819  1
  Mg  Mg0_7  1  0.74596488  0.74596489  0.88500819  1
  Mg  Mg1_0  1  0.25403511  0.25403511  0.11499181  1
  Mg  Mg1_1  1  0.25403511  0.25403512  0.61499181  1
  Mg  Mg1_2  1  0.25403511  0.75403511  0.11499181  1
  Mg  Mg1_3  1  0.25403511  0.75403511  0.61499181  1
  Mg  Mg1_4  1  0.75403511  0.25403512  0.11499181  1
  Mg  Mg1_5  1  0.75403511  0.25403511  0.61499181  1
  Mg  Mg1_6  1  0.75403511  0.75403511  0.11499181  1
  Mg  Mg1_7  1  0.75403511  0.75403511  0.61499181  1
loop_
_geom_bond_atom_site_label_1
_geom_bond_atom_site_label_2
_geom_bond_distance
_geom_bond_site_symmetry_2
Nd0_0 Nd3_4 3.644374 1_555
Nd0_0 Nd3_2 3.644374 1_555
Nd0_0 Nd1_4 3.674250 1_555
Nd0_0 Nd1_2 3.674250 1_555
Nd0_0 Nd2_0 3.736371 1_555
Nd0_0 Nd1_6 3.809521 1_555
Nd0_0 Nd0_6 3.840703 1_545
Nd0_0 Nd0_6 3.840703 1_455
Nd0_0 Nd2_1 4.028119 1_555
Nd0_1 Nd3_5 3.644374 1_555
Nd0_1 Nd3_3 3.644374 1_555
Nd0_1 Nd1_5 3.674250 1_555
Nd0_1 Nd1_3 3.674250 1_555
Nd0_1 Nd2_1 3.736371 1_555
Nd0_1 Nd1_7 3.809521 1_555
Nd0_1 Nd0_7 3.840703 1_545
Nd0_1 Nd0_7 3.840703 1_455
Nd0_1 Nd2_0 4.028119 1_556
Nd0_2 Nd3_0 3.644374 1_565
Nd0_2 Nd3_6 3.644374 1_555
Nd0_2 Nd1_6 3.674250 1_555
Nd0_2 Nd1_0 3.674250 1_565
Nd0_2 Nd2_2 3.736371 1_555
Nd0_2 Nd1_4 3.809521 1_565
Nd0_2 Nd0_4 3.840703 1_465
Nd0_2 Nd0_4 3.840703 1_555
Nd0_2 Nd2_3 4.028119 1_555
Nd0_3 Nd3_7 3.644374 1_555
Nd0_3 Nd3_1 3.644374 1_565
Nd0_3 Nd1_7 3.674250 1_555
Nd0_3 Nd1_1 3.674250 1_565
Nd0_3 Nd2_3 3.736371 1_555
Nd0_3 Nd1_5 3.809521 1_565
Nd0_3 Nd0_5 3.840703 1_555
Nd0_3 Nd0_5 3.840703 1_465
Nd0_3 Nd2_2 4.028119 1_556
Nd0_4 Nd3_6 3.644374 1_555
Nd0_4 Nd3_0 3.644374 1_655
Nd0_4 Nd1_6 3.674250 1_555
Nd0_4 Nd1_0 3.674250 1_655
Nd0_4 Nd2_4 3.736371 1_555
Nd0_4 Nd1_2 3.809521 1_655
Nd0_4 Nd2_5 4.028119 1_555
Nd0_5 Nd3_7 3.644374 1_555
Nd0_5 Nd3_1 3.644374 1_655
Nd0_5 Nd1_7 3.674250 1_555
Nd0_5 Nd1_1 3.674250 1_655
Nd0_5 Nd2_5 3.736371 1_555
Nd0_5 Nd1_3 3.809521 1_655
Nd0_5 Nd2_4 4.028119 1_556
Nd0_6 Nd3_4 3.644374 1_565
Nd0_6 Nd3_2 3.644374 1_655
Nd0_6 Nd1_4 3.674250 1_565
Nd0_6 Nd1_2 3.674250 1_655
Nd0_6 Nd2_6 3.736371 1_555
Nd0_6 Nd1_0 3.809521 1_665
Nd0_6 Nd2_7 4.028119 1_555
Nd0_7 Nd3_5 3.644374 1_565
Nd0_7 Nd3_3 3.644374 1_655
Nd0_7 Nd1_5 3.674250 1_565
Nd0_7 Nd1_3 3.674250 1_655
Nd0_7 Nd2_7 3.736371 1_555
Nd0_7 Nd1_1 3.809521 1_665
Nd0_7 Nd2_6 4.028119 1_556
Nd1_0 Nd2_2 3.644374 1_545
Nd1_0 Nd2_4 3.644374 1_455
Nd1_0 Nd3_0 3.736371 1_555
Nd1_0 Nd1_6 3.840703 1_545
Nd1_0 Nd1_6 3.840703 1_455
Nd1_0 Nd3_1 4.028119 1_554
Nd1_1 Nd2_3 3.644374 1_545
Nd1_1 Nd2_5 3.644374 1_455
Nd1_1 Nd3_1 3.736371 1_555
Nd1_1 Nd1_7 3.840703 1_545
Nd1_1 Nd1_7 3.840703 1_455
Nd1_1 Nd3_0 4.028119 1_555
Nd1_2 Nd2_6 3.644374 1_455
Nd1_2 Nd2_0 3.644374 1_555
Nd1_2 Nd3_2 3.736371 1_555
Nd1_2 Nd1_4 3.840703 1_465
Nd1_2 Nd1_4 3.840703 1_555
Nd1_2 Nd3_3 4.028119 1_554
Nd1_3 Nd2_7 3.644374 1_455
Nd1_3 Nd2_1 3.644374 1_555
Nd1_3 Nd3_3 3.736371 1_555
Nd1_3 Nd1_5 3.840703 1_465
Nd1_3 Nd1_5 3.840703 1_555
Nd1_3 Nd3_2 4.028119 1_555
Nd1_4 Nd2_6 3.644374 1_545
Nd1_4 Nd2_0 3.644374 1_555
Nd1_4 Nd3_4 3.736371 1_555
Nd1_4 Nd3_5 4.028119 1_554
Nd1_5 Nd2_7 3.644374 1_545
Nd1_5 Nd2_1 3.644374 1_555
Nd1_5 Nd3_5 3.736371 1_555
Nd1_5 Nd3_4 4.028119 1_555
Nd1_6 Nd2_2 3.644374 1_555
Nd1_6 Nd2_4 3.644374 1_555
Nd1_6 Nd3_6 3.736371 1_555
Nd1_6 Nd3_7 4.028119 1_554
Nd1_7 Nd2_3 3.644374 1_555
Nd1_7 Nd2_5 3.644374 1_555
Nd1_7 Nd3_7 3.736371 1_555
Nd1_7 Nd3_6 4.028119 1_555
Nd2_0 Nd3_5 3.588689 1_554
Nd2_0 Nd3_3 3.588689 1_554
Nd2_1 Nd3_4 3.588689 1_555
Nd2_1 Nd3_2 3.588689 1_555
Nd2_2 Nd3_1 3.588689 1_564
Nd2_2 Nd3_7 3.588689 1_554
Nd2_3 Nd3_6 3.588689 1_555
Nd2_3 Nd3_0 3.588689 1_565
Nd2_4 Nd3_1 3.588689 1_654
Nd2_4 Nd3_7 3.588689 1_554
Nd2_5 Nd3_6 3.588689 1_555
Nd2_5 Nd3_0 3.588689 1_655
Nd2_6 Nd3_5 3.588689 1_564
Nd2_6 Nd3_3 3.588689 1_654
Nd2_7 Nd3_4 3.588689 1_565
Nd2_7 Nd3_2 3.588689 1_655
Mg0_0 Nd2_5 3.350166 1_455
Mg0_0 Nd2_3 3.350166 1_545
Mg0_0 Nd0_4 3.383084 1_455
Mg0_0 Nd0_2 3.383084 1_545
Mg0_0 Nd3_2 3.386529 1_555
Mg0_0 Nd3_4 3.386529 1_555
Mg0_0 Nd1_2 3.424161 1_555
Mg0_0 Nd1_4 3.424161 1_555
Mg0_1 Nd2_4 3.350166 1_456
Mg0_1 Nd2_2 3.350166 1_546
Mg0_1 Nd0_5 3.383084 1_455
Mg0_1 Nd0_3 3.383084 1_545
Mg0_1 Nd3_3 3.386529 1_555
Mg0_1 Nd3_5 3.386529 1_555
Mg0_1 Nd1_3 3.424161 1_555
Mg0_1 Nd1_5 3.424161 1_555
Mg0_2 Nd2_1 3.350166 1_555
Mg0_2 Nd2_7 3.350166 1_455
Mg0_2 Nd0_0 3.383084 1_555
Mg0_2 Nd0_6 3.383084 1_455
Mg0_2 Nd3_0 3.386529 1_565
Mg0_2 Nd3_6 3.386529 1_555
Mg0_2 Nd1_0 3.424161 1_565
Mg0_2 Nd1_6 3.424161 1_555
Mg0_3 Nd2_0 3.350166 1_556
Mg0_3 Nd2_6 3.350166 1_456
Mg0_3 Nd0_7 3.383084 1_455
Mg0_3 Nd0_1 3.383084 1_555
Mg0_3 Nd3_1 3.386529 1_565
Mg0_3 Nd3_7 3.386529 1_555
Mg0_3 Nd1_7 3.424161 1_555
Mg0_3 Nd1_1 3.424161 1_565
Mg0_4 Nd2_1 3.350166 1_555
Mg0_4 Nd2_7 3.350166 1_545
Mg0_4 Nd0_0 3.383084 1_555
Mg0_4 Nd0_6 3.383084 1_545
Mg0_4 Nd3_6 3.386529 1_555
Mg0_4 Nd3_0 3.386529 1_655
Mg0_4 Nd1_0 3.424161 1_655
Mg0_4 Nd1_6 3.424161 1_555
Mg0_5 Nd2_6 3.350166 1_546
Mg0_5 Nd2_0 3.350166 1_556
Mg0_5 Nd0_7 3.383084 1_545
Mg0_5 Nd0_1 3.383084 1_555
Mg0_5 Nd3_1 3.386529 1_655
Mg0_5 Nd3_7 3.386529 1_555
Mg0_5 Nd1_7 3.424161 1_555
Mg0_5 Nd1_1 3.424161 1_655
Mg0_6 Nd2_5 3.350166 1_555
Mg0_6 Nd2_3 3.350166 1_555
Mg0_6 Nd0_4 3.383084 1_555
Mg0_6 Nd0_2 3.383084 1_555
Mg0_6 Nd3_2 3.386529 1_655
Mg0_6 Nd3_4 3.386529 1_565
Mg0_6 Nd1_4 3.424161 1_565
Mg0_6 Nd1_2 3.424161 1_655
Mg0_7 Nd2_2 3.350166 1_556
Mg0_7 Nd2_4 3.350166 1_556
Mg0_7 Nd0_5 3.383084 1_555
Mg0_7 Nd0_3 3.383084 1_555
Mg0_7 Nd3_3 3.386529 1_655
Mg0_7 Nd3_5 3.386529 1_565
Mg0_7 Nd1_5 3.424161 1_565
Mg0_7 Nd1_3 3.424161 1_655
Mg1_0 Nd3_3 3.350166 1_554
Mg1_0 Nd3_5 3.350166 1_554
Mg1_0 Nd1_2 3.383084 1_555
Mg1_0 Nd1_4 3.383084 1_555
Mg1_0 Nd2_4 3.386529 1_455
Mg1_0 Nd2_2 3.386529 1_545
Mg1_0 Nd0_4 3.424161 1_455
Mg1_0 Nd0_2 3.424161 1_545
Mg1_1 Nd3_2 3.350166 1_555
Mg1_1 Nd3_4 3.350166 1_555
Mg1_1 Nd1_3 3.383084 1_555
Mg1_1 Nd1_5 3.383084 1_555
Mg1_1 Nd2_5 3.386529 1_455
Mg1_1 Nd2_3 3.386529 1_545
Mg1_1 Nd0_3 3.424161 1_545
Mg1_1 Nd0_5 3.424161 1_455
Mg1_2 Nd3_1 3.350166 1_564
Mg1_2 Nd3_7 3.350166 1_554
Mg1_2 Nd1_0 3.383084 1_565
Mg1_2 Nd1_6 3.383084 1_555
Mg1_2 Nd2_0 3.386529 1_555
Mg1_2 Nd2_6 3.386529 1_455
Mg1_2 Nd0_0 3.424161 1_555
Mg1_2 Nd0_6 3.424161 1_455
Mg1_3 Nd3_6 3.350166 1_555
Mg1_3 Nd3_0 3.350166 1_565
Mg1_3 Nd1_1 3.383084 1_565
Mg1_3 Nd1_7 3.383084 1_555
Mg1_3 Nd2_1 3.386529 1_555
Mg1_3 Nd2_7 3.386529 1_455
Mg1_3 Nd0_7 3.424161 1_455
Mg1_3 Nd0_1 3.424161 1_555
Mg1_4 Nd3_1 3.350166 1_654
Mg1_4 Nd3_7 3.350166 1_554
Mg1_4 Nd1_6 3.383084 1_555
Mg1_4 Nd1_0 3.383084 1_655
Mg1_4 Nd2_6 3.386529 1_545
Mg1_4 Nd2_0 3.386529 1_555
Mg1_4 Nd0_0 3.424161 1_555
Mg1_4 Nd0_6 3.424161 1_545
Mg1_5 Nd3_6 3.350166 1_555
Mg1_5 Nd3_0 3.350166 1_655
Mg1_5 Nd1_1 3.383084 1_655
Mg1_5 Nd1_7 3.383084 1_555
Mg1_5 Nd2_7 3.386529 1_545
Mg1_5 Nd2_1 3.386529 1_555
Mg1_5 Nd0_7 3.424161 1_545
Mg1_5 Nd0_1 3.424161 1_555
Mg1_6 Nd3_3 3.350166 1_654
Mg1_6 Nd3_5 3.350166 1_564
Mg1_6 Nd1_4 3.383084 1_565
Mg1_6 Nd1_2 3.383084 1_655
Mg1_6 Nd2_4 3.386529 1_555
Mg1_6 Nd2_2 3.386529 1_555
Mg1_6 Nd0_4 3.424161 1_555
Mg1_6 Nd0_2 3.424161 1_555
Mg1_7 Nd3_2 3.350166 1_655
Mg1_7 Nd3_4 3.350166 1_565
Mg1_7 Nd1_3 3.383084 1_655
Mg1_7 Nd1_5 3.383084 1_565
Mg1_7 Nd2_5 3.386529 1_555
Mg1_7 Nd2_3 3.386529 1_555
Mg1_7 Nd0_5 3.424161 1_555
Mg1_7 Nd0_3 3.424161 1_555
