# generated using pymatgen
data_CsMgCoF6
_symmetry_space_group_name_H-M   'P 1'
_cell_length_a   7.39053023
_cell_length_b   7.39053023
_cell_length_c   7.39053023
_cell_angle_alpha   120.90217694
_cell_angle_beta   119.22422809
_cell_angle_gamma   89.89671897
_symmetry_Int_Tables_number   1
_chemical_formula_structural   CsMgCoF6
_chemical_formula_sum   'Cs2 Mg2 Co2 F12'
_cell_volume   285.08821768
_cell_formula_units_Z   2
loop_
 _symmetry_equiv_pos_site_id
 _symmetry_equiv_pos_as_xyz
  1  'x, y, z'
loop_
 _atom_site_type_symbol
 _atom_site_label
 _atom_site_symmetry_multiplicity
 _atom_site_fract_x
 _atom_site_fract_y
 _atom_site_fract_z
 _atom_site_occupancy
  Cs  Cs0  1  0.37021200  0.62021200  0.75000000  1
  Cs  Cs1  1  0.62978800  0.37978800  0.25000000  1
  Mg  Mg0  1  0.00000000  0.00000000  0.50000000  1
  Mg  Mg1  1  0.00000000  0.50000000  0.00000000  1
  Co  Co0  1  0.00000000  0.00000000  0.00000000  1
  Co  Co1  1  0.50000000  0.00000000  0.50000000  1
  F  F0  1  0.31717800  0.06717800  0.25000000  1
  F  F1  1  0.92964300  0.67964300  0.25000000  1
  F  F2  1  0.32399100  0.69349300  0.26132800  1
  F  F3  1  0.93216500  0.06266300  0.23867200  1
  F  F4  1  0.32399100  0.06266300  0.63049700  1
  F  F5  1  0.93216500  0.69349300  0.86950300  1
  F  F6  1  0.68282200  0.93282200  0.75000000  1
  F  F7  1  0.07035700  0.32035700  0.75000000  1
  F  F8  1  0.67600900  0.30650700  0.73867200  1
  F  F9  1  0.06783500  0.93733700  0.76132800  1
  F  F10  1  0.67600900  0.93733700  0.36950300  1
  F  F11  1  0.06783500  0.30650700  0.13049700  1
loop_
_geom_bond_atom_site_label_1
_geom_bond_atom_site_label_2
_geom_bond_distance
_geom_bond_site_symmetry_2
Cs0 F7 3.136844 1_555
Cs0 F8 3.233621 1_555
Cs0 F9 3.233621 1_555
Cs0 F10 3.233626 1_556
Cs0 F11 3.233626 1_555
Cs0 F6 3.270277 1_555
Cs1 F1 3.136844 1_555
Cs1 F3 3.233621 1_555
Cs1 F2 3.233621 1_555
Cs1 F4 3.233626 1_554
Cs1 F5 3.233626 1_555
Cs1 F0 3.270277 1_555
Co0 F9 1.897575 1_544
Co0 F3 1.897575 1_455
Co0 F11 1.897577 1_555
Co0 F5 1.897577 1_444
Co0 F0 1.996995 1_555
Co0 F6 1.996995 1_444
Co1 F4 1.897570 1_555
Co1 F10 1.897570 1_545
Co1 F8 1.897575 1_555
Co1 F2 1.897575 1_545
Co1 F0 1.996995 1_555
Co1 F6 1.996995 1_545
F1 Mg1 1.965399 1_655
F1 Mg0 1.965399 1_665
F2 Mg1 2.041654 1_555
F3 Mg0 2.041654 1_655
F4 Mg0 2.041655 1_555
F5 Mg1 2.041649 1_656
F7 Mg1 1.965399 1_556
F7 Mg0 1.965399 1_555
F8 Mg1 2.041654 1_656
F9 Mg0 2.041654 1_565
F10 Mg0 2.041655 1_665
F11 Mg1 2.041649 1_555
