# generated using pymatgen
data_Sr2FeOsO6
_symmetry_space_group_name_H-M   'P 1'
_cell_length_a   5.63300566
_cell_length_b   5.63296677
_cell_length_c   9.75299868
_cell_angle_alpha   73.21427317
_cell_angle_beta   89.99992941
_cell_angle_gamma   120.00033635
_symmetry_Int_Tables_number   1
_chemical_formula_structural   Sr2FeOsO6
_chemical_formula_sum   'Sr4 Fe2 Os2 O12'
_cell_volume   252.66548047
_cell_formula_units_Z   2
loop_
 _symmetry_equiv_pos_site_id
 _symmetry_equiv_pos_as_xyz
  1  'x, y, z'
loop_
 _atom_site_type_symbol
 _atom_site_label
 _atom_site_symmetry_multiplicity
 _atom_site_fract_x
 _atom_site_fract_y
 _atom_site_fract_z
 _atom_site_occupancy
  Sr  Sr0  1  0.62380400  0.24761000  0.12853500  1
  Sr  Sr1  1  0.12631600  0.25263100  0.62102100  1
  Sr  Sr2  1  0.87619600  0.75239100  0.37146400  1
  Sr  Sr3  1  0.37368400  0.74736800  0.87897800  1
  Fe  Fe0  1  0.00129200  0.00258500  0.99611200  1
  Fe  Fe1  1  0.49870500  0.99740900  0.50389900  1
  Os  Os0  1  0.75000000  0.49999900  0.75000200  1
  Os  Os1  1  0.25000000  0.50000100  0.24999900  1
  O  O0  1  0.12685600  0.25371100  0.12467900  1
  O  O1  1  0.62690900  0.25381700  0.62666000  1
  O  O2  1  0.37314400  0.25149200  0.37529300  1
  O  O3  1  0.87309900  0.25353200  0.87330600  1
  O  O4  1  0.62164700  0.74850500  0.12470500  1
  O  O5  1  0.11956300  0.74646700  0.62669100  1
  O  O6  1  0.37314800  0.74629600  0.37532100  1
  O  O7  1  0.87309500  0.74619100  0.87333800  1
  O  O8  1  0.12685900  0.74850500  0.12470600  1
  O  O9  1  0.62690400  0.74646700  0.62669200  1
  O  O10  1  0.87834800  0.25149200  0.37529300  1
  O  O11  1  0.38043100  0.25353200  0.87330600  1
loop_
_geom_bond_atom_site_label_1
_geom_bond_atom_site_label_2
_geom_bond_distance
_geom_bond_site_symmetry_2
Fe0 O11 1.999257 1_555
Fe0 O3 1.999266 1_455
Fe0 O7 1.999268 1_445
Fe0 O4 2.024146 1_446
Fe0 O8 2.024163 1_546
Fe0 O0 2.024249 1_556
Fe1 O5 1.999215 1_555
Fe1 O9 1.999220 1_555
Fe1 O1 1.999222 1_565
Fe1 O10 2.024190 1_565
Fe1 O2 2.024200 1_565
Fe1 O6 2.024285 1_555
O0 Os1 1.979095 1_555
O0 Sr3 2.773618 1_554
O0 Sr2 2.801463 1_445
O0 Sr0 2.816770 1_555
O0 Sr0 2.816787 1_455
O1 Os0 1.962877 1_555
O1 Sr1 2.817083 1_655
O1 Sr1 2.817083 1_555
O1 Sr2 2.841286 1_555
O1 Sr3 2.846893 1_545
O2 Os1 1.979148 1_555
O2 Sr1 2.773918 1_555
O2 Sr0 2.801298 1_555
O2 Sr2 2.816405 1_445
O2 Sr2 2.817092 1_555
O3 Os0 1.962880 1_555
O3 Sr3 2.816798 1_545
O3 Sr3 2.817324 1_655
O3 Sr0 2.841594 1_556
O3 Sr1 2.846619 1_655
O4 Os1 1.979119 1_555
O4 Sr3 2.773901 1_554
O4 Sr2 2.801329 1_555
O4 Sr0 2.816424 1_565
O4 Sr0 2.817082 1_555
O5 Os0 1.962891 1_455
O5 Sr1 2.816797 1_565
O5 Sr1 2.817334 1_555
O5 Sr2 2.841564 1_455
O5 Sr3 2.846648 1_555
O6 Os1 1.979131 1_555
O6 Sr1 2.773635 1_555
O6 Sr0 2.801451 1_565
O6 Sr2 2.816776 1_455
O6 Sr2 2.816781 1_555
O7 Os0 1.962869 1_555
O7 Sr3 2.817080 1_555
O7 Sr3 2.817086 1_655
O7 Sr0 2.841311 1_556
O7 Sr1 2.846862 1_665
O8 Os1 1.979113 1_555
O8 Sr3 2.773904 1_554
O8 Sr2 2.801318 1_455
O8 Sr0 2.816408 1_565
O8 Sr0 2.817089 1_455
O9 Os0 1.962896 1_555
O9 Sr1 2.816793 1_665
O9 Sr1 2.817330 1_555
O9 Sr2 2.841572 1_555
O9 Sr3 2.846636 1_555
O10 Os1 1.979139 1_655
O10 Sr1 2.773924 1_655
O10 Sr0 2.801306 1_555
O10 Sr2 2.816413 1_545
O10 Sr2 2.817093 1_555
O11 Os0 1.962887 1_555
O11 Sr3 2.816809 1_545
O11 Sr3 2.817323 1_555
O11 Sr0 2.841597 1_556
O11 Sr1 2.846614 1_555
