# generated using pymatgen
data_Ca5CdN4
_symmetry_space_group_name_H-M   'P 1'
_cell_length_a   8.14303700
_cell_length_b   7.59063000
_cell_length_c   5.92195000
_cell_angle_alpha   90.00000000
_cell_angle_beta   90.00000000
_cell_angle_gamma   90.00000000
_symmetry_Int_Tables_number   1
_chemical_formula_structural   Ca5CdN4
_chemical_formula_sum   'Ca10 Cd2 N8'
_cell_volume   366.04035421
_cell_formula_units_Z   2
loop_
 _symmetry_equiv_pos_site_id
 _symmetry_equiv_pos_as_xyz
  1  'x, y, z'
loop_
 _atom_site_type_symbol
 _atom_site_label
 _atom_site_symmetry_multiplicity
 _atom_site_fract_x
 _atom_site_fract_y
 _atom_site_fract_z
 _atom_site_occupancy
  Ca  Ca0  1  0.55075300  0.50326300  0.24675700  1
  Ca  Ca1  1  0.94924700  0.50326300  0.24675700  1
  Ca  Ca2  1  0.55075300  0.99673700  0.24675700  1
  Ca  Ca3  1  0.94924700  0.99673700  0.24675700  1
  Ca  Ca4  1  0.44924700  0.49673700  0.75324300  1
  Ca  Ca5  1  0.05075300  0.49673700  0.75324300  1
  Ca  Ca6  1  0.44924700  0.00326300  0.75324300  1
  Ca  Ca7  1  0.05075300  0.00326300  0.75324300  1
  Ca  Ca8  1  0.75000000  0.75000000  0.71186900  1
  Ca  Ca9  1  0.25000000  0.25000000  0.28813100  1
  Cd  Cd0  1  0.75000000  0.25000000  0.71456400  1
  Cd  Cd1  1  0.25000000  0.75000000  0.28543600  1
  N  N0  1  0.75000000  0.99870000  0.94506100  1
  N  N1  1  0.75000000  0.50130000  0.94506100  1
  N  N2  1  0.25000000  0.00130000  0.05493900  1
  N  N3  1  0.25000000  0.49870000  0.05493900  1
  N  N4  1  0.50383800  0.75000000  0.49964200  1
  N  N5  1  0.99616200  0.75000000  0.49964200  1
  N  N6  1  0.49616200  0.25000000  0.50035800  1
  N  N7  1  0.00383800  0.25000000  0.50035800  1
loop_
_geom_bond_atom_site_label_1
_geom_bond_atom_site_label_2
_geom_bond_distance
_geom_bond_site_symmetry_2
Ca0 N1 2.413440 1_554
Ca0 N4 2.428247 1_555
Ca0 N6 2.479672 1_555
Ca0 N3 2.699882 1_555
Ca1 N1 2.413440 1_554
Ca1 N5 2.428247 1_555
Ca1 N7 2.479672 1_655
Ca1 N3 2.699882 1_655
Ca2 N0 2.413440 1_554
Ca2 N4 2.428247 1_555
Ca2 N6 2.479672 1_565
Ca2 N2 2.699882 1_565
Ca3 N0 2.413440 1_554
Ca3 N5 2.428247 1_555
Ca3 N7 2.479672 1_665
Ca3 N2 2.699882 1_665
Ca4 N3 2.413440 1_556
Ca4 N6 2.428247 1_555
Ca4 N4 2.479672 1_555
Ca4 N1 2.699882 1_555
Ca5 N3 2.413440 1_556
Ca5 N7 2.428247 1_555
Ca5 N5 2.479672 1_455
Ca5 N1 2.699882 1_455
Ca6 N2 2.413440 1_556
Ca6 N6 2.428247 1_555
Ca6 N4 2.479672 1_545
Ca6 N0 2.699882 1_545
Ca7 N2 2.413440 1_556
Ca7 N7 2.428247 1_555
Ca7 N5 2.479672 1_445
Ca7 N0 2.699882 1_445
Ca8 N0 2.338969 1_555
Ca8 N1 2.338969 1_555
Ca8 N5 2.365922 1_555
Ca8 N4 2.365922 1_555
Ca9 N3 2.338969 1_555
Ca9 N2 2.338969 1_555
Ca9 N6 2.365922 1_555
Ca9 N7 2.365922 1_555
Cd0 N0 2.345603 1_545
Cd0 N1 2.345603 1_555
Cd0 N7 2.425217 1_655
Cd0 N6 2.425217 1_555
Cd1 N3 2.345603 1_555
Cd1 N2 2.345603 1_565
Cd1 N4 2.425217 1_555
Cd1 N5 2.425217 1_455
