# generated using pymatgen
data_Sm3Ni7P5
_symmetry_space_group_name_H-M   'P 1'
_cell_length_a   3.88778400
_cell_length_b   16.44594100
_cell_length_c   16.44785515
_cell_angle_alpha   60.02020063
_cell_angle_beta   90.00000000
_cell_angle_gamma   90.00000000
_symmetry_Int_Tables_number   1
_chemical_formula_structural   Sm3Ni7P5
_chemical_formula_sum   'Sm12 Ni28 P20'
_cell_volume   910.93864594
_cell_formula_units_Z   4
loop_
 _symmetry_equiv_pos_site_id
 _symmetry_equiv_pos_as_xyz
  1  'x, y, z'
loop_
 _atom_site_type_symbol
 _atom_site_label
 _atom_site_symmetry_multiplicity
 _atom_site_fract_x
 _atom_site_fract_y
 _atom_site_fract_z
 _atom_site_occupancy
  Sm  Sm0  1  0.00000000  0.12048600  0.64574500  1
  Sm  Sm1  1  0.00000000  0.64539200  0.23378500  1
  Sm  Sm2  1  0.00000000  0.23602100  0.12130900  1
  Sm  Sm3  1  0.50000000  0.87807600  0.35692900  1
  Sm  Sm4  1  0.50000000  0.35556800  0.76524400  1
  Sm  Sm5  1  0.50000000  0.76582000  0.87946600  1
  Sm  Sm6  1  0.00000000  0.38350600  0.44032600  1
  Sm  Sm7  1  0.00000000  0.44052900  0.17610100  1
  Sm  Sm8  1  0.00000000  0.17561500  0.38373000  1
  Sm  Sm9  1  0.50000000  0.61688000  0.55883700  1
  Sm  Sm10  1  0.50000000  0.55898200  0.82431400  1
  Sm  Sm11  1  0.50000000  0.82433800  0.61663600  1
  Ni  Ni0  1  0.00000000  0.98631200  0.56636900  1
  Ni  Ni1  1  0.00000000  0.56664400  0.44697600  1
  Ni  Ni2  1  0.00000000  0.44678300  0.98605800  1
  Ni  Ni3  1  0.50000000  0.01437300  0.43241600  1
  Ni  Ni4  1  0.50000000  0.43222300  0.55354700  1
  Ni  Ni5  1  0.50000000  0.55353400  0.01468900  1
  Ni  Ni6  1  0.00000000  0.93261600  0.82372800  1
  Ni  Ni7  1  0.00000000  0.82289600  0.24373000  1
  Ni  Ni8  1  0.00000000  0.25053600  0.92652700  1
  Ni  Ni9  1  0.50000000  0.07376100  0.17709800  1
  Ni  Ni10  1  0.50000000  0.17737200  0.75011000  1
  Ni  Ni11  1  0.50000000  0.74973300  0.07321000  1
  Ni  Ni12  1  0.00000000  0.71591400  0.77356100  1
  Ni  Ni13  1  0.00000000  0.77354600  0.51030600  1
  Ni  Ni14  1  0.00000000  0.51074000  0.71567500  1
  Ni  Ni15  1  0.50000000  0.28448700  0.22618100  1
  Ni  Ni16  1  0.50000000  0.22622300  0.48990400  1
  Ni  Ni17  1  0.50000000  0.48976000  0.28395300  1
  Ni  Ni18  1  0.00000000  0.30177800  0.65541300  1
  Ni  Ni19  1  0.00000000  0.65654100  0.04264800  1
  Ni  Ni20  1  0.00000000  0.04178600  0.30242400  1
  Ni  Ni21  1  0.50000000  0.69718700  0.34598700  1
  Ni  Ni22  1  0.50000000  0.34437800  0.95783900  1
  Ni  Ni23  1  0.50000000  0.95693600  0.69713300  1
  Ni  Ni24  1  0.00000000  0.08733000  0.05894400  1
  Ni  Ni25  1  0.50000000  0.94087900  0.14839100  1
  Ni  Ni26  1  0.50000000  0.14831100  0.91162600  1
  Ni  Ni27  1  0.50000000  0.90779700  0.93856400  1
  P  P0  1  0.00000000  0.66679300  0.66654200  1
  P  P1  1  0.50000000  0.33325500  0.33333700  1
  P  P2  1  0.00000000  0.60876000  0.92786200  1
  P  P3  1  0.00000000  0.92768900  0.46351500  1
  P  P4  1  0.00000000  0.46370500  0.60871700  1
  P  P5  1  0.50000000  0.39196200  0.07181200  1
  P  P6  1  0.50000000  0.07179900  0.53718500  1
  P  P7  1  0.50000000  0.53709700  0.39094200  1
  P  P8  1  0.00000000  0.81893700  0.98175400  1
  P  P9  1  0.00000000  0.97678000  0.20483300  1
  P  P10  1  0.00000000  0.19968000  0.81727000  1
  P  P11  1  0.50000000  0.18326200  0.02187500  1
  P  P12  1  0.50000000  0.02111600  0.79409400  1
  P  P13  1  0.50000000  0.79388600  0.18507800  1
  P  P14  1  0.00000000  0.87111800  0.72249600  1
  P  P15  1  0.00000000  0.72247700  0.40658600  1
  P  P16  1  0.00000000  0.40761900  0.87044200  1
  P  P17  1  0.50000000  0.12989800  0.27776500  1
  P  P18  1  0.50000000  0.27759500  0.59308500  1
  P  P19  1  0.50000000  0.59298300  0.12938400  1
loop_
_geom_bond_atom_site_label_1
_geom_bond_atom_site_label_2
_geom_bond_distance
_geom_bond_site_symmetry_2
Ni0 P6 2.304621 1_565
Ni0 P6 2.304621 1_465
Ni0 P14 2.306831 1_555
Ni0 P3 2.328405 1_555
Ni0 Sm11 3.058945 1_555
Ni0 Sm11 3.058945 1_455
Ni0 Sm8 3.061039 1_565
Ni0 Sm0 3.074538 1_565
Ni1 P15 2.303880 1_555
Ni1 P7 2.304742 1_555
Ni1 P7 2.304742 1_455
Ni1 P4 2.332859 1_555
Ni1 Sm9 3.060320 1_455
Ni1 Sm9 3.060320 1_555
Ni1 Sm6 3.067996 1_555
Ni1 Sm1 3.071570 1_555
Ni2 P16 2.292409 1_555
Ni2 P5 2.304368 1_456
Ni2 P5 2.304368 1_556
Ni2 P2 2.337544 1_555
Ni2 Sm2 3.042545 1_556
Ni2 Sm10 3.058603 1_555
Ni2 Sm10 3.058603 1_455
Ni2 Sm7 3.075695 1_556
Ni3 P17 2.291322 1_555
Ni3 P3 2.311694 1_545
Ni3 P3 2.311694 1_645
Ni3 P6 2.342628 1_555
Ni3 Sm8 3.054454 1_655
Ni3 Sm8 3.054454 1_555
Ni3 Sm3 3.057355 1_545
Ni3 Sm11 3.079709 1_545
Ni4 P18 2.288456 1_555
Ni4 P4 2.310788 1_655
Ni4 P4 2.310788 1_555
Ni4 P7 2.348979 1_555
Ni4 Sm4 3.053920 1_555
Ni4 Sm6 3.062628 1_555
Ni4 Sm6 3.062628 1_655
Ni4 Sm9 3.081258 1_555
Ni5 P19 2.280987 1_555
Ni5 P2 2.312327 1_554
Ni5 P2 2.312327 1_654
Ni5 P5 2.334188 1_555
Ni5 Sm7 3.057780 1_555
Ni5 Sm7 3.057780 1_655
Ni5 Sm5 3.061910 1_554
Ni5 Sm10 3.087465 1_554
Ni6 P8 2.322641 1_555
Ni6 P12 2.329310 1_465
Ni6 P12 2.329310 1_565
Ni6 P14 2.340575 1_555
Ni6 Sm0 3.012766 1_565
Ni6 Sm5 3.103321 1_455
Ni6 Sm5 3.103321 1_555
Ni7 P9 2.279466 1_555
Ni7 P13 2.323135 1_555
Ni7 P13 2.323135 1_455
Ni7 P15 2.341250 1_555
Ni7 Sm1 3.004300 1_555
Ni7 Sm3 3.123692 1_555
Ni7 Sm3 3.123692 1_455
Ni8 P16 2.267852 1_555
Ni8 P10 2.330444 1_555
Ni8 P11 2.393371 1_456
Ni8 P11 2.393371 1_556
Ni8 Sm4 3.036469 1_555
Ni8 Sm4 3.036469 1_455
Ni8 Sm2 3.091386 1_556
Ni9 P17 2.263090 1_555
Ni9 P11 2.272969 1_555
Ni9 P9 2.409050 1_545
Ni9 P9 2.409050 1_645
Ni9 Sm2 3.048697 1_655
Ni9 Sm2 3.048697 1_555
Ni9 Sm3 3.097191 1_545
Ni10 P18 2.265574 1_555
Ni10 P12 2.295468 1_555
Ni10 P10 2.353414 1_655
Ni10 P10 2.353414 1_555
Ni10 Sm0 3.034067 1_655
Ni10 Sm0 3.034067 1_555
Ni10 Sm4 3.062585 1_555
Ni11 P19 2.262491 1_555
Ni11 P13 2.290874 1_555
Ni11 P8 2.371886 1_654
Ni11 P8 2.371886 1_554
Ni11 Sm1 3.028112 1_655
Ni11 Sm1 3.028112 1_555
Ni11 Sm5 3.063056 1_554
Ni12 P2 2.253186 1_555
Ni12 P14 2.253451 1_555
Ni12 P0 2.274236 1_555
Ni12 Sm5 2.985867 1_455
Ni12 Sm5 2.985867 1_555
Ni12 Sm10 2.997237 1_455
Ni12 Sm10 2.997237 1_555
Ni12 Sm11 3.003441 1_555
Ni12 Sm11 3.003441 1_455
Ni13 P15 2.246701 1_555
Ni13 P3 2.251415 1_555
Ni13 P0 2.275322 1_555
Ni13 Sm3 2.960402 1_555
Ni13 Sm3 2.960402 1_455
Ni13 Sm11 2.999189 1_555
Ni13 Sm11 2.999189 1_455
Ni13 Sm9 2.999824 1_455
Ni13 Sm9 2.999824 1_555
Ni14 P16 2.245368 1_555
Ni14 P4 2.247941 1_555
Ni14 P0 2.273088 1_555
Ni14 Sm4 2.979352 1_555
Ni14 Sm4 2.979352 1_455
Ni14 Sm9 2.996684 1_555
Ni14 Sm9 2.996684 1_455
Ni14 Sm10 3.002986 1_555
Ni14 Sm10 3.002986 1_455
Ni15 P17 2.242259 1_555
Ni15 P5 2.255170 1_555
Ni15 P1 2.272077 1_555
Ni15 Sm2 2.960308 1_655
Ni15 Sm2 2.960308 1_555
Ni15 Sm7 2.988366 1_555
Ni15 Sm7 2.988366 1_655
Ni15 Sm8 3.010432 1_655
Ni15 Sm8 3.010432 1_555
Ni16 P18 2.242075 1_555
Ni16 P6 2.254058 1_555
Ni16 P1 2.280323 1_555
Ni16 Sm0 2.986347 1_555
Ni16 Sm0 2.986347 1_655
Ni16 Sm8 2.995613 1_555
Ni16 Sm8 2.995613 1_655
Ni16 Sm6 3.004415 1_555
Ni16 Sm6 3.004415 1_655
Ni17 P19 2.243225 1_555
Ni17 P7 2.252082 1_555
Ni17 P1 2.279299 1_555
Ni17 Sm1 2.983288 1_555
Ni17 Sm1 2.983288 1_655
Ni17 Sm6 2.992622 1_655
Ni17 Sm6 2.992622 1_555
Ni17 Sm7 3.002745 1_555
Ni17 Sm7 3.002745 1_655
Ni18 P18 2.322782 1_555
Ni18 P18 2.322782 1_455
Ni18 P10 2.332234 1_555
Ni18 P4 2.374362 1_555
Ni18 Sm0 3.064075 1_555
Ni18 Sm4 3.069488 1_555
Ni18 Sm4 3.069488 1_455
Ni18 Sm6 3.093530 1_555
Ni19 P19 2.327286 1_555
Ni19 P19 2.327286 1_455
Ni19 P8 2.337254 1_554
Ni19 P2 2.380052 1_554
Ni19 Sm1 3.056301 1_555
Ni19 Sm5 3.064594 1_454
Ni19 Sm5 3.064594 1_554
Ni19 Sm7 3.105708 1_555
Ni20 P9 2.331201 1_545
Ni20 P17 2.335742 1_555
Ni20 P17 2.335742 1_455
Ni20 P3 2.360641 1_545
Ni20 Sm3 3.069045 1_545
Ni20 Sm3 3.069045 1_445
Ni20 Sm2 3.093238 1_555
Ni20 Sm8 3.094203 1_555
Ni21 P13 2.308086 1_555
Ni21 P15 2.315052 1_555
Ni21 P15 2.315052 1_655
Ni21 P7 2.352226 1_555
Ni21 Sm9 3.062656 1_555
Ni21 Sm3 3.068783 1_555
Ni21 Sm1 3.079151 1_655
Ni21 Sm1 3.079151 1_555
Ni22 P11 2.311097 1_556
Ni22 P16 2.330807 1_655
Ni22 P16 2.330807 1_555
Ni22 P5 2.364885 1_556
Ni22 Sm2 3.065151 1_656
Ni22 Sm2 3.065151 1_556
Ni22 Sm4 3.079944 1_555
Ni22 Sm10 3.087597 1_555
Ni23 P12 2.310791 1_565
Ni23 P14 2.314360 1_655
Ni23 P14 2.314360 1_555
Ni23 P6 2.350090 1_565
Ni23 Sm11 3.064950 1_555
Ni23 Sm5 3.074505 1_555
Ni23 Sm0 3.075020 1_565
Ni23 Sm0 3.075020 1_665
Ni24 P9 2.168733 1_545
Ni24 P11 2.382903 1_455
Ni24 P11 2.382903 1_555
Ni24 Sm2 3.088504 1_555
Ni25 P13 2.179514 1_555
Ni25 P9 2.353070 1_555
Ni25 P9 2.353070 1_655
Ni25 Sm3 3.048143 1_555
Ni26 P11 2.158786 1_556
Ni26 P10 2.364461 1_655
Ni26 P10 2.364461 1_555
Ni26 Sm4 3.035354 1_555
Ni27 P12 2.166532 1_565
Ni27 P8 2.319806 1_555
Ni27 P8 2.319806 1_655
Ni27 Sm5 2.943652 1_555
P0 Sm11 3.006687 1_455
P0 Sm11 3.006687 1_555
P0 Sm9 3.007341 1_455
P0 Sm9 3.007341 1_555
P0 Sm10 3.009690 1_555
P0 Sm10 3.009690 1_455
P1 Sm6 3.001963 1_555
P1 Sm6 3.001963 1_655
P1 Sm7 3.003292 1_555
P1 Sm7 3.003292 1_655
P1 Sm8 3.006567 1_555
P1 Sm8 3.006567 1_655
P2 Sm10 2.956858 1_555
P2 Sm10 2.956858 1_455
P2 Sm5 3.004895 1_455
P2 Sm5 3.004895 1_555
P3 Sm11 2.955081 1_455
P3 Sm11 2.955081 1_555
P3 Sm3 2.991222 1_455
P3 Sm3 2.991222 1_555
P4 Sm9 2.955037 1_555
P4 Sm9 2.955037 1_455
P4 Sm4 2.998984 1_455
P4 Sm4 2.998984 1_555
P5 Sm7 2.954368 1_555
P5 Sm7 2.954368 1_655
P5 Sm2 2.988653 1_555
P5 Sm2 2.988653 1_655
P6 Sm8 2.959330 1_555
P6 Sm8 2.959330 1_655
P6 Sm0 3.006157 1_555
P6 Sm0 3.006157 1_655
P7 Sm6 2.961152 1_555
P7 Sm6 2.961152 1_655
P7 Sm1 3.005243 1_555
P7 Sm1 3.005243 1_655
P8 Sm5 2.973407 1_455
P8 Sm5 2.973407 1_555
P9 Sm3 2.934897 1_555
P9 Sm3 2.934897 1_455
P10 Sm4 2.981807 1_455
P10 Sm4 2.981807 1_555
P11 Sm2 2.936757 1_555
P11 Sm2 2.936757 1_655
P12 Sm0 2.901382 1_655
P12 Sm0 2.901382 1_555
P13 Sm1 2.903314 1_555
P13 Sm1 2.903314 1_655
P14 Sm11 2.956520 1_455
P14 Sm11 2.956520 1_555
P14 Sm5 2.995849 1_555
P14 Sm5 2.995849 1_455
P15 Sm9 2.952867 1_455
P15 Sm9 2.952867 1_555
P15 Sm3 2.984187 1_455
P15 Sm3 2.984187 1_555
P16 Sm10 2.943383 1_555
P16 Sm10 2.943383 1_455
P16 Sm4 2.997605 1_455
P16 Sm4 2.997605 1_555
P17 Sm8 2.948103 1_655
P17 Sm8 2.948103 1_555
P17 Sm2 2.993065 1_555
P17 Sm2 2.993065 1_655
P18 Sm6 2.958350 1_555
P18 Sm6 2.958350 1_655
P18 Sm0 2.994727 1_655
P18 Sm0 2.994727 1_555
P19 Sm7 2.954669 1_555
P19 Sm7 2.954669 1_655
P19 Sm1 2.991563 1_555
P19 Sm1 2.991563 1_655
