# generated using pymatgen
data_Rb2U3(O5F4)2
_symmetry_space_group_name_H-M   'P 1'
_cell_length_a   8.42297035
_cell_length_b   8.42297035
_cell_length_c   13.44393500
_cell_angle_alpha   90.00000000
_cell_angle_beta   90.00000000
_cell_angle_gamma   119.36371137
_symmetry_Int_Tables_number   1
_chemical_formula_structural   Rb2U3(O5F4)2
_chemical_formula_sum   'Rb4 U6 O20 F16'
_cell_volume   831.25941098
_cell_formula_units_Z   2
loop_
 _symmetry_equiv_pos_site_id
 _symmetry_equiv_pos_as_xyz
  1  'x, y, z'
loop_
 _atom_site_type_symbol
 _atom_site_label
 _atom_site_symmetry_multiplicity
 _atom_site_fract_x
 _atom_site_fract_y
 _atom_site_fract_z
 _atom_site_occupancy
  Rb  Rb0  1  0.93692400  0.94569000  0.25000000  1
  Rb  Rb1  1  0.94569000  0.93692400  0.75000000  1
  Rb  Rb2  1  0.50019000  0.25177500  0.25000000  1
  Rb  Rb3  1  0.25177500  0.50019000  0.75000000  1
  U  U0  1  0.80035800  0.20878600  0.52346700  1
  U  U1  1  0.20878600  0.80035800  0.47653300  1
  U  U2  1  0.80035800  0.20878600  0.97653300  1
  U  U3  1  0.20878600  0.80035800  0.02346700  1
  U  U4  1  0.61216500  0.61216500  0.50000000  1
  U  U5  1  0.61216500  0.61216500  0.00000000  1
  O  O0  1  0.90980500  0.21385700  0.40620800  1
  O  O1  1  0.21385700  0.90980500  0.59379200  1
  O  O2  1  0.90980500  0.21385700  0.09379200  1
  O  O3  1  0.21385700  0.90980500  0.90620800  1
  O  O4  1  0.67414400  0.19185100  0.63518200  1
  O  O5  1  0.19185100  0.67414400  0.36481800  1
  O  O6  1  0.67414400  0.19185100  0.86481800  1
  O  O7  1  0.19185100  0.67414400  0.13518200  1
  O  O8  1  0.56822500  0.64670700  0.37204900  1
  O  O9  1  0.64670700  0.56822500  0.62795100  1
  O  O10  1  0.56822500  0.64670700  0.12795100  1
  O  O11  1  0.64670700  0.56822500  0.87204900  1
  O  O12  1  0.32496900  0.32496900  0.50000000  1
  O  O13  1  0.32496900  0.32496900  0.00000000  1
  O  O14  1  0.20411500  0.38071300  0.25000000  1
  O  O15  1  0.38071300  0.20411500  0.75000000  1
  O  O16  1  0.90652000  0.56065200  0.25000000  1
  O  O17  1  0.56065200  0.90652000  0.75000000  1
  O  O18  1  0.58331000  0.94376100  0.25000000  1
  O  O19  1  0.94376100  0.58331000  0.75000000  1
  F  F0  1  0.65310200  0.37193800  0.45160600  1
  F  F1  1  0.37193800  0.65310200  0.54839400  1
  F  F2  1  0.65310200  0.37193800  0.04839400  1
  F  F3  1  0.37193800  0.65310200  0.95160600  1
  F  F4  1  0.51992700  0.99558300  0.45311500  1
  F  F5  1  0.99558300  0.51992700  0.54688500  1
  F  F6  1  0.51992700  0.99558300  0.04688500  1
  F  F7  1  0.99558300  0.51992700  0.95311500  1
  F  F8  1  0.02152800  0.22935300  0.61712800  1
  F  F9  1  0.22935300  0.02152800  0.38287200  1
  F  F10  1  0.02152800  0.22935300  0.88287200  1
  F  F11  1  0.22935300  0.02152800  0.11712800  1
  F  F12  1  0.74691800  0.90975800  0.54958000  1
  F  F13  1  0.90975800  0.74691800  0.45042000  1
  F  F14  1  0.74691800  0.90975800  0.95042000  1
  F  F15  1  0.90975800  0.74691800  0.04958000  1
loop_
_geom_bond_atom_site_label_1
_geom_bond_atom_site_label_2
_geom_bond_distance
_geom_bond_site_symmetry_2
O0 U0 1.816083 1_555
O0 Rb0 3.173388 1_545
O1 U1 1.816083 1_555
O1 Rb1 3.173388 1_455
O2 U2 1.816083 1_554
O2 Rb0 3.173388 1_545
O3 U3 1.816083 1_556
O3 Rb1 3.173388 1_455
O4 U0 1.804848 1_555
O5 U1 1.804848 1_555
O6 U2 1.804848 1_555
O7 U3 1.804848 1_555
O8 U4 1.812787 1_555
O8 Rb0 3.317948 1_555
O9 U4 1.812787 1_555
O9 Rb1 3.317948 1_555
O10 U5 1.812787 1_555
O10 Rb0 3.317948 1_555
O11 U5 1.812787 1_556
O11 Rb1 3.317948 1_555
O12 U4 2.442271 1_555
O13 U5 2.442271 1_555
O14 Rb2 3.170933 1_555
O14 Rb0 3.225510 1_445
O15 Rb3 3.170933 1_555
O15 Rb1 3.225510 1_445
O16 Rb2 3.122468 1_555
O16 Rb0 3.125567 1_555
O17 Rb3 3.122468 1_555
O17 Rb1 3.125567 1_555
O18 Rb0 2.970547 1_555
O18 Rb2 3.000395 1_565
O19 Rb1 2.970547 1_555
O19 Rb3 3.000395 1_655
F0 U4 2.306657 1_555
F0 U0 2.455985 1_555
F0 Rb2 2.958207 1_555
F1 U4 2.306657 1_555
F1 U1 2.455985 1_555
F1 Rb3 2.958207 1_555
F2 U5 2.306657 1_555
F2 U2 2.455985 1_554
F2 Rb2 2.958207 1_555
F3 U5 2.306657 1_556
F3 U3 2.455985 1_556
F3 Rb3 2.958207 1_555
F4 U1 2.333455 1_555
F4 U0 2.353476 1_565
F5 U0 2.333455 1_555
F5 U1 2.353476 1_655
F6 U3 2.333455 1_555
F6 U2 2.353476 1_564
F7 U2 2.333455 1_555
F7 U3 2.353476 1_656
F8 U0 2.183909 1_455
F8 Rb3 2.795958 1_555
F8 Rb1 2.850074 1_445
F9 U1 2.183909 1_545
F9 Rb2 2.795958 1_555
F9 Rb0 2.850074 1_445
F10 U2 2.183909 1_455
F10 Rb3 2.795958 1_555
F10 Rb1 2.850074 1_445
F11 U3 2.183909 1_545
F11 Rb2 2.795958 1_555
F11 Rb0 2.850074 1_445
F12 U4 2.285941 1_555
F12 U0 2.357514 1_565
F12 Rb1 3.120855 1_555
F13 U4 2.285941 1_555
F13 U1 2.357514 1_655
F13 Rb0 3.120855 1_555
F14 U5 2.285941 1_556
F14 U2 2.357514 1_565
F14 Rb1 3.120855 1_555
F15 U5 2.285941 1_555
F15 U3 2.357514 1_655
F15 Rb0 3.120855 1_555
