# generated using pymatgen
data_Mg3V
_symmetry_space_group_name_H-M   'P 1'
_cell_length_a   6.18649043
_cell_length_b   6.18649043
_cell_length_c   4.95231000
_cell_angle_alpha   90.00000000
_cell_angle_beta   90.00000000
_cell_angle_gamma   120.00000463
_symmetry_Int_Tables_number   1
_chemical_formula_structural   Mg3V
_chemical_formula_sum   'Mg6 V2'
_cell_volume   164.14479850
_cell_formula_units_Z   2
loop_
 _symmetry_equiv_pos_site_id
 _symmetry_equiv_pos_as_xyz
  1  'x, y, z'
loop_
 _atom_site_type_symbol
 _atom_site_label
 _atom_site_symmetry_multiplicity
 _atom_site_fract_x
 _atom_site_fract_y
 _atom_site_fract_z
 _atom_site_occupancy
  Mg  Mg0  1  0.17113900  0.34227800  0.25000000  1
  Mg  Mg1  1  0.17113900  0.82886100  0.25000000  1
  Mg  Mg2  1  0.65772200  0.82886100  0.25000000  1
  Mg  Mg3  1  0.34227800  0.17113900  0.75000000  1
  Mg  Mg4  1  0.82886100  0.17113900  0.75000000  1
  Mg  Mg5  1  0.82886100  0.65772200  0.75000000  1
  V  V0  1  0.66666700  0.33333300  0.25000000  1
  V  V1  1  0.33333300  0.66666700  0.75000000  1
loop_
_geom_bond_atom_site_label_1
_geom_bond_atom_site_label_2
_geom_bond_distance
_geom_bond_site_symmetry_2
Mg0 Mg2 3.010241 1_555
Mg0 Mg1 3.010241 1_555
Mg0 V1 3.025205 1_554
Mg0 V1 3.025205 1_555
Mg0 Mg4 3.081265 1_455
Mg0 Mg4 3.081265 1_454
Mg0 Mg3 3.081265 1_555
Mg0 Mg3 3.081265 1_554
Mg0 V0 3.093613 1_455
Mg0 V0 3.093620 1_555
Mg0 Mg2 3.176249 1_445
Mg0 Mg1 3.176249 1_545
Mg1 Mg2 3.010241 1_555
Mg1 V1 3.025202 1_554
Mg1 V1 3.025202 1_555
Mg1 Mg3 3.081265 1_564
Mg1 Mg3 3.081265 1_565
Mg1 Mg5 3.081265 1_455
Mg1 Mg5 3.081265 1_454
Mg1 V0 3.093616 1_455
Mg1 V0 3.093616 1_565
Mg1 Mg2 3.176249 1_455
Mg2 V1 3.025205 1_554
Mg2 V1 3.025205 1_555
Mg2 Mg4 3.081265 1_564
Mg2 Mg4 3.081265 1_565
Mg2 Mg5 3.081265 1_554
Mg2 Mg5 3.081265 1_555
Mg2 V0 3.093613 1_565
Mg2 V0 3.093620 1_555
Mg3 Mg5 3.010241 1_555
Mg3 Mg4 3.010241 1_555
Mg3 V0 3.025205 1_556
Mg3 V0 3.025205 1_555
Mg3 V1 3.093613 1_545
Mg3 V1 3.093620 1_555
Mg3 Mg5 3.176249 1_445
Mg3 Mg4 3.176249 1_455
Mg4 Mg5 3.010241 1_555
Mg4 V0 3.025202 1_556
Mg4 V0 3.025202 1_555
Mg4 V1 3.093616 1_545
Mg4 V1 3.093616 1_655
Mg4 Mg5 3.176249 1_545
Mg5 V0 3.025205 1_556
Mg5 V0 3.025205 1_555
Mg5 V1 3.093613 1_655
Mg5 V1 3.093620 1_555
