# generated using pymatgen
data_Mg(InSe2)2
_symmetry_space_group_name_H-M   'P 1'
_cell_length_a   13.24754007
_cell_length_b   8.01659415
_cell_length_c   13.55332222
_cell_angle_alpha   90.00000000
_cell_angle_beta   90.00000000
_cell_angle_gamma   90.00000000
_symmetry_Int_Tables_number   1
_chemical_formula_structural   Mg(InSe2)2
_chemical_formula_sum   'Mg8 In16 Se32'
_cell_volume   1439.36488295
_cell_formula_units_Z   8
loop_
 _symmetry_equiv_pos_site_id
 _symmetry_equiv_pos_as_xyz
  1  'x, y, z'
loop_
 _atom_site_type_symbol
 _atom_site_label
 _atom_site_symmetry_multiplicity
 _atom_site_fract_x
 _atom_site_fract_y
 _atom_site_fract_z
 _atom_site_occupancy
  Mg  Mg0  1  0.10231924  0.35256909  0.70663865  1
  Mg  Mg1  1  0.89768076  0.64743091  0.20663865  1
  Mg  Mg2  1  0.39768076  0.35256909  0.20663865  1
  Mg  Mg3  1  0.60231924  0.64743091  0.70663865  1
  Mg  Mg4  1  0.12436231  0.87098982  0.31952469  1
  Mg  Mg5  1  0.87563769  0.12901018  0.81952469  1
  Mg  Mg6  1  0.37563769  0.87098982  0.81952469  1
  Mg  Mg7  1  0.62436231  0.12901018  0.31952469  1
  In  In0  1  0.08890801  0.86219385  0.68217068  1
  In  In1  1  0.91109199  0.13780615  0.18217068  1
  In  In2  1  0.41109199  0.86219385  0.18217068  1
  In  In3  1  0.58890801  0.13780615  0.68217068  1
  In  In4  1  0.12520265  0.36716266  0.33295498  1
  In  In5  1  0.87479735  0.63283734  0.83295498  1
  In  In6  1  0.37479735  0.36716266  0.83295498  1
  In  In7  1  0.62520265  0.63283734  0.33295498  1
  In  In8  1  0.16262691  0.61371174  0.94212270  1
  In  In9  1  0.83737309  0.38628826  0.44212270  1
  In  In10  1  0.33737309  0.61371174  0.44212270  1
  In  In11  1  0.66262691  0.38628826  0.94212270  1
  In  In12  1  0.16238833  0.11822883  0.95514855  1
  In  In13  1  0.83761167  0.88177117  0.45514855  1
  In  In14  1  0.33761167  0.11822883  0.45514855  1
  In  In15  1  0.66238833  0.88177117  0.95514855  1
  Se  Se0  1  0.03242758  0.86513475  0.88219403  1
  Se  Se1  1  0.96757242  0.13486525  0.38219403  1
  Se  Se2  1  0.46757242  0.86513475  0.38219403  1
  Se  Se3  1  0.53242758  0.13486525  0.88219403  1
  Se  Se4  1  0.02676683  0.40640174  0.16152796  1
  Se  Se5  1  0.97323317  0.59359826  0.66152796  1
  Se  Se6  1  0.47323317  0.40640174  0.66152796  1
  Se  Se7  1  0.52676683  0.59359826  0.16152796  1
  Se  Se8  1  0.02632098  0.35594781  0.89975815  1
  Se  Se9  1  0.97367902  0.64405219  0.39975815  1
  Se  Se10  1  0.47367902  0.35594781  0.39975815  1
  Se  Se11  1  0.52632098  0.64405219  0.89975815  1
  Se  Se12  1  0.02632415  0.87892752  0.14907329  1
  Se  Se13  1  0.97367585  0.12107248  0.64907329  1
  Se  Se14  1  0.47367585  0.87892752  0.64907329  1
  Se  Se15  1  0.52632415  0.12107248  0.14907329  1
  Se  Se16  1  0.21215529  0.86593665  0.51143617  1
  Se  Se17  1  0.78784471  0.13406335  0.01143617  1
  Se  Se18  1  0.28784471  0.86593665  0.01143617  1
  Se  Se19  1  0.71215529  0.13406335  0.51143617  1
  Se  Se20  1  0.21292490  0.37219964  0.51833211  1
  Se  Se21  1  0.78707510  0.62780036  0.01833211  1
  Se  Se22  1  0.28707510  0.37219964  0.01833211  1
  Se  Se23  1  0.71292490  0.62780036  0.51833211  1
  Se  Se24  1  0.24530884  0.12196679  0.77178392  1
  Se  Se25  1  0.75469116  0.87803321  0.27178392  1
  Se  Se26  1  0.25469116  0.12196679  0.27178392  1
  Se  Se27  1  0.74530884  0.87803321  0.77178392  1
  Se  Se28  1  0.24788084  0.61930599  0.76433514  1
  Se  Se29  1  0.75211916  0.38069401  0.26433514  1
  Se  Se30  1  0.25211916  0.61930599  0.26433514  1
  Se  Se31  1  0.74788084  0.38069401  0.76433514  1
loop_
_geom_bond_atom_site_label_1
_geom_bond_atom_site_label_2
_geom_bond_distance
_geom_bond_site_symmetry_2
Mg0 Se13 2.637629 1_455
Mg0 Se5 2.651732 1_455
Mg0 Se24 2.790212 1_555
Mg0 Se8 2.804496 1_555
Mg0 Se20 2.947092 1_555
Mg0 Se28 2.983685 1_555
Mg1 Se12 2.637629 1_655
Mg1 Se4 2.651732 1_655
Mg1 Se25 2.790212 1_555
Mg1 Se9 2.804496 1_555
Mg1 Se21 2.947092 1_555
Mg1 Se29 2.983685 1_555
Mg2 Se15 2.637629 1_555
Mg2 Se7 2.651732 1_555
Mg2 Se26 2.790212 1_555
Mg2 Se10 2.804496 1_555
Mg2 Se22 2.947092 1_555
Mg2 Se30 2.983685 1_555
Mg3 Se14 2.637629 1_555
Mg3 Se6 2.651732 1_555
Mg3 Se27 2.790212 1_555
Mg3 Se11 2.804496 1_555
Mg3 Se23 2.947092 1_555
Mg3 Se31 2.983685 1_555
Mg4 Se12 2.650997 1_555
Mg4 Se26 2.729041 1_565
Mg4 Se30 2.737671 1_555
Mg4 Se16 2.849510 1_555
Mg4 Se9 2.911526 1_455
Mg4 Se1 3.083918 1_465
Mg5 Se13 2.650997 1_555
Mg5 Se27 2.729041 1_545
Mg5 Se31 2.737671 1_555
Mg5 Se17 2.849510 1_556
Mg5 Se8 2.911526 1_655
Mg5 Se0 3.083918 1_645
Mg6 Se14 2.650997 1_555
Mg6 Se24 2.729041 1_565
Mg6 Se28 2.737671 1_555
Mg6 Se18 2.849510 1_556
Mg6 Se11 2.911526 1_555
Mg6 Se3 3.083918 1_565
Mg7 Se15 2.650997 1_555
Mg7 Se25 2.729041 1_545
Mg7 Se29 2.737671 1_555
Mg7 Se19 2.849510 1_555
Mg7 Se10 2.911526 1_555
Mg7 Se2 3.083918 1_545
In0 Se13 2.615058 1_465
In0 Se5 2.657614 1_455
In0 Se0 2.812440 1_555
In0 Se16 2.832203 1_555
In0 Se28 3.076795 1_555
In0 Se24 3.178806 1_565
In1 Se12 2.615058 1_645
In1 Se4 2.657614 1_655
In1 Se1 2.812440 1_555
In1 Se17 2.832203 1_555
In1 Se29 3.076795 1_555
In1 Se25 3.178806 1_545
In2 Se15 2.615058 1_565
In2 Se7 2.657614 1_555
In2 Se2 2.812440 1_555
In2 Se18 2.832203 1_555
In2 Se30 3.076795 1_555
In2 Se26 3.178806 1_565
In3 Se14 2.615058 1_545
In3 Se6 2.657614 1_555
In3 Se3 2.812440 1_555
In3 Se19 2.832203 1_555
In3 Se31 3.076795 1_555
In3 Se27 3.178806 1_545
In4 Se4 2.682846 1_555
In4 Se26 2.737461 1_555
In4 Se20 2.768511 1_555
In4 Se30 2.788836 1_555
In4 Se1 2.876440 1_455
In4 Se9 3.126690 1_455
In5 Se5 2.682846 1_555
In5 Se27 2.737461 1_555
In5 Se21 2.768511 1_556
In5 Se31 2.788836 1_555
In5 Se0 2.876440 1_655
In5 Se8 3.126690 1_655
In6 Se6 2.682846 1_555
In6 Se24 2.737461 1_555
In6 Se22 2.768511 1_556
In6 Se28 2.788836 1_555
In6 Se3 2.876440 1_555
In6 Se11 3.126690 1_555
In7 Se7 2.682846 1_555
In7 Se25 2.737461 1_555
In7 Se23 2.768511 1_555
In7 Se29 2.788836 1_555
In7 Se2 2.876440 1_555
In7 Se10 3.126690 1_555
In8 Se28 2.661540 1_555
In8 Se22 2.744695 1_556
In8 Se0 2.774382 1_555
In8 Se18 2.778967 1_556
In8 Se8 2.803616 1_555
In9 Se29 2.661540 1_555
In9 Se23 2.744695 1_555
In9 Se1 2.774382 1_555
In9 Se19 2.778967 1_555
In9 Se9 2.803616 1_555
In10 Se30 2.661540 1_555
In10 Se20 2.744695 1_555
In10 Se2 2.774382 1_555
In10 Se16 2.778967 1_555
In10 Se10 2.803616 1_555
In11 Se31 2.661540 1_555
In11 Se21 2.744695 1_556
In11 Se3 2.774382 1_555
In11 Se17 2.778967 1_556
In11 Se11 2.803616 1_555
In12 Se24 2.717315 1_555
In12 Se18 2.726683 1_546
In12 Se8 2.728457 1_555
In12 Se22 2.758073 1_556
In12 Se0 2.838739 1_545
In13 Se25 2.717315 1_555
In13 Se19 2.726683 1_565
In13 Se9 2.728457 1_555
In13 Se23 2.758073 1_555
In13 Se1 2.838739 1_565
In14 Se26 2.717315 1_555
In14 Se16 2.726683 1_545
In14 Se10 2.728457 1_555
In14 Se20 2.758073 1_555
In14 Se2 2.838739 1_545
In15 Se27 2.717315 1_555
In15 Se17 2.726683 1_566
In15 Se11 2.728457 1_555
In15 Se21 2.758073 1_556
In15 Se3 2.838739 1_565
