# generated using pymatgen
data_TbAlGe
_symmetry_space_group_name_H-M   'P 1'
_cell_length_a   5.71748417
_cell_length_b   5.71748417
_cell_length_c   6.02364800
_cell_angle_alpha   90.00000000
_cell_angle_beta   90.00000000
_cell_angle_gamma   139.05374883
_symmetry_Int_Tables_number   1
_chemical_formula_structural   TbAlGe
_chemical_formula_sum   'Tb2 Al2 Ge2'
_cell_volume   129.04563797
_cell_formula_units_Z   2
loop_
 _symmetry_equiv_pos_site_id
 _symmetry_equiv_pos_as_xyz
  1  'x, y, z'
loop_
 _atom_site_type_symbol
 _atom_site_label
 _atom_site_symmetry_multiplicity
 _atom_site_fract_x
 _atom_site_fract_y
 _atom_site_fract_z
 _atom_site_occupancy
  Tb  Tb0  1  0.68508300  0.31491700  0.25000000  1
  Tb  Tb1  1  0.31491700  0.68508300  0.75000000  1
  Al  Al0  1  0.40137400  0.59862600  0.25000000  1
  Al  Al1  1  0.59862600  0.40137400  0.75000000  1
  Ge  Ge0  1  0.00000000  0.00000000  0.50000000  1
  Ge  Ge1  1  0.00000000  0.00000000  0.00000000  1
loop_
_geom_bond_atom_site_label_1
_geom_bond_atom_site_label_2
_geom_bond_distance
_geom_bond_site_symmetry_2
Al0 Ge0 2.717212 1_665
Al0 Ge1 2.717212 1_555
Al0 Ge0 2.717212 1_555
Al0 Ge1 2.717212 1_665
Al0 Tb0 3.039288 1_555
Al0 Tb0 3.060708 1_565
Al0 Tb0 3.060708 1_455
Al0 Tb1 3.151017 1_554
Al0 Tb1 3.151017 1_555
Al1 Ge1 2.717212 1_666
Al1 Ge0 2.717212 1_665
Al1 Ge0 2.717212 1_555
Al1 Ge1 2.717212 1_556
Al1 Tb1 3.039288 1_555
Al1 Tb1 3.060708 1_655
Al1 Tb1 3.060708 1_545
Al1 Tb0 3.151017 1_555
Al1 Tb0 3.151017 1_556
Ge0 Tb1 3.193461 1_555
Ge0 Tb1 3.193461 1_445
Ge0 Tb0 3.193461 1_555
Ge0 Tb0 3.193461 1_445
Ge1 Tb0 3.193461 1_555
Ge1 Tb0 3.193461 1_445
Ge1 Tb1 3.193461 1_444
Ge1 Tb1 3.193461 1_554
