# generated using pymatgen
data_BH17C5N2
_symmetry_space_group_name_H-M   'P 1'
_cell_length_a   6.48212042
_cell_length_b   8.16935690
_cell_length_c   10.42920186
_cell_angle_alpha   69.45708304
_cell_angle_beta   77.32942652
_cell_angle_gamma   73.90736265
_symmetry_Int_Tables_number   1
_chemical_formula_structural   BH17C5N2
_chemical_formula_sum   'B2 H34 C10 N4'
_cell_volume   492.29639688
_cell_formula_units_Z   2
loop_
 _symmetry_equiv_pos_site_id
 _symmetry_equiv_pos_as_xyz
  1  'x, y, z'
loop_
 _atom_site_type_symbol
 _atom_site_label
 _atom_site_symmetry_multiplicity
 _atom_site_fract_x
 _atom_site_fract_y
 _atom_site_fract_z
 _atom_site_occupancy
  B  B0  1  0.02480500  0.69966800  0.23333300  1
  B  B1  1  0.97519500  0.30033200  0.76666700  1
  H  H0  1  0.72110100  0.96189300  0.10539900  1
  H  H1  1  0.27889900  0.03810700  0.89460100  1
  H  H2  1  0.90971000  0.05364800  0.14647100  1
  H  H3  1  0.09029000  0.94635200  0.85352900  1
  H  H4  1  0.74927500  0.94911700  0.46022100  1
  H  H5  1  0.25072500  0.05088300  0.53977900  1
  H  H6  1  0.93802500  0.73596400  0.49120000  1
  H  H7  1  0.06197500  0.26403600  0.50880000  1
  H  H8  1  0.02316200  0.93184000  0.37222900  1
  H  H9  1  0.97683800  0.06816000  0.62777100  1
  H  H10  1  0.58754600  0.71084300  0.27435000  1
  H  H11  1  0.41245400  0.28915700  0.72565000  1
  H  H12  1  0.69007200  0.61433400  0.43687400  1
  H  H13  1  0.30992800  0.38566600  0.56312600  1
  H  H14  1  0.49983600  0.82680900  0.40160400  1
  H  H15  1  0.50016400  0.17319100  0.59839600  1
  H  H16  1  0.70716700  0.37139400  0.11141700  1
  H  H17  1  0.29283300  0.62860600  0.88858300  1
  H  H18  1  0.50634500  0.38676600  0.25672700  1
  H  H19  1  0.49365500  0.61323400  0.74327300  1
  H  H20  1  0.77585100  0.26335000  0.28225200  1
  H  H21  1  0.22414900  0.73665000  0.71774800  1
  H  H22  1  0.34322100  0.06183800  0.16172200  1
  H  H23  1  0.65677900  0.93816200  0.83827800  1
  H  H24  1  0.26212000  0.27125800  0.19684500  1
  H  H25  1  0.73788000  0.72874200  0.80315500  1
  H  H26  1  0.43151700  0.25474300  0.04058000  1
  H  H27  1  0.56848300  0.74525700  0.95942000  1
  H  H28  1  0.07091300  0.56259800  0.32860200  1
  H  H29  1  0.92908700  0.43740200  0.67139800  1
  H  H30  1  0.17374600  0.77844800  0.18869100  1
  H  H31  1  0.82625400  0.22155200  0.81130900  1
  H  H32  1  0.96220200  0.67175700  0.14212400  1
  H  H33  1  0.03779800  0.32824300  0.85787600  1
  C  C0  1  0.75973500  0.00341700  0.18515600  1
  C  C1  1  0.24026500  0.99658300  0.81484400  1
  C  C2  1  0.88682400  0.86484800  0.41365600  1
  C  C3  1  0.11317600  0.13515200  0.58634400  1
  C  C4  1  0.63636800  0.73989200  0.35683200  1
  C  C5  1  0.36363200  0.26010800  0.64316800  1
  C  C6  1  0.64698300  0.29713700  0.21843100  1
  C  C7  1  0.35301700  0.70286300  0.78156900  1
  C  C8  1  0.39600500  0.18272800  0.15227500  1
  C  C9  1  0.60399500  0.81727200  0.84772500  1
  N  N0  1  0.82241900  0.82920100  0.29933600  1
  N  N1  1  0.17758100  0.17079900  0.70066400  1
  N  N2  1  0.58297900  0.13513600  0.22580700  1
  N  N3  1  0.41702100  0.86486400  0.77419300  1
loop_
_geom_bond_atom_site_label_1
_geom_bond_atom_site_label_2
_geom_bond_distance
_geom_bond_site_symmetry_2
B0 H28 1.222426 1_555
B0 H32 1.222446 1_455
B0 H30 1.224764 1_555
B0 N0 1.630989 1_455
B1 H29 1.222426 1_555
B1 H33 1.222446 1_655
B1 H31 1.224764 1_555
B1 N1 1.630989 1_655
C0 H0 1.098268 1_545
C0 H2 1.099617 1_555
C0 N2 1.440130 1_555
C0 N0 1.520178 1_545
C1 H1 1.098268 1_565
C1 H3 1.099617 1_555
C1 N3 1.440130 1_555
C1 N1 1.520178 1_565
C2 H6 1.095080 1_555
C2 H8 1.096312 1_655
C2 H4 1.099607 1_555
C2 N0 1.486615 1_555
C3 H7 1.095080 1_555
C3 H9 1.096312 1_455
C3 H5 1.099607 1_555
C3 N1 1.486615 1_555
C4 H12 1.094873 1_555
C4 H10 1.095802 1_555
C4 H14 1.099311 1_555
C4 N0 1.486552 1_555
C5 H13 1.094873 1_555
C5 H11 1.095802 1_555
C5 H15 1.099311 1_555
C5 N1 1.486552 1_555
C6 H18 1.096441 1_555
C6 H20 1.097340 1_555
C6 H16 1.109433 1_555
C6 N2 1.465774 1_555
C7 H19 1.096441 1_555
C7 H21 1.097340 1_555
C7 H17 1.109433 1_555
C7 N3 1.465774 1_555
C8 H24 1.096956 1_555
C8 H22 1.098348 1_555
C8 H26 1.110200 1_555
C8 N2 1.464730 1_555
C9 H25 1.096956 1_555
C9 H23 1.098348 1_555
C9 H27 1.110200 1_555
C9 N3 1.464730 1_555
