# generated using pymatgen
data_Na5Ni2P2(CO7)2
_symmetry_space_group_name_H-M   'P 1'
_cell_length_a   6.66115600
_cell_length_b   8.85330900
_cell_length_c   10.40868405
_cell_angle_alpha   88.49763542
_cell_angle_beta   90.00000000
_cell_angle_gamma   90.00000000
_symmetry_Int_Tables_number   1
_chemical_formula_structural   Na5Ni2P2(CO7)2
_chemical_formula_sum   'Na10 Ni4 P4 C4 O28'
_cell_volume   613.62315013
_cell_formula_units_Z   2
loop_
 _symmetry_equiv_pos_site_id
 _symmetry_equiv_pos_as_xyz
  1  'x, y, z'
loop_
 _atom_site_type_symbol
 _atom_site_label
 _atom_site_symmetry_multiplicity
 _atom_site_fract_x
 _atom_site_fract_y
 _atom_site_fract_z
 _atom_site_occupancy
  Na  Na0  1  0.75000000  0.91448500  0.61040700  1
  Na  Na1  1  0.99296700  0.74325300  0.88120500  1
  Na  Na2  1  0.50703300  0.74325300  0.88120500  1
  Na  Na3  1  0.98780900  0.72889900  0.36563400  1
  Na  Na4  1  0.51219100  0.72889900  0.36563400  1
  Na  Na5  1  0.48780900  0.27110100  0.63436600  1
  Na  Na6  1  0.01219100  0.27110100  0.63436600  1
  Na  Na7  1  0.49296700  0.25674700  0.11879500  1
  Na  Na8  1  0.00703300  0.25674700  0.11879500  1
  Na  Na9  1  0.25000000  0.08551500  0.38959300  1
  Ni  Ni0  1  0.25000000  0.65394700  0.60976700  1
  Ni  Ni1  1  0.25000000  0.65199300  0.11060600  1
  Ni  Ni2  1  0.75000000  0.34800700  0.88939400  1
  Ni  Ni3  1  0.75000000  0.34605300  0.39023300  1
  P  P0  1  0.75000000  0.58234400  0.64146900  1
  P  P1  1  0.75000000  0.58022400  0.14095900  1
  P  P2  1  0.25000000  0.41977600  0.85904100  1
  P  P3  1  0.25000000  0.41765600  0.35853100  1
  C  C0  1  0.25000000  0.93666800  0.64160800  1
  C  C1  1  0.25000000  0.93405900  0.14433700  1
  C  C2  1  0.75000000  0.06594100  0.85566300  1
  C  C3  1  0.75000000  0.06333200  0.35839200  1
  O  O0  1  0.75000000  0.92385400  0.83839300  1
  O  O1  1  0.75000000  0.92012000  0.34850500  1
  O  O2  1  0.25000000  0.87563600  0.52779100  1
  O  O3  1  0.25000000  0.87357400  0.03288700  1
  O  O4  1  0.25000000  0.84130400  0.73899200  1
  O  O5  1  0.25000000  0.83883200  0.24293900  1
  O  O6  1  0.93565600  0.68146500  0.60512900  1
  O  O7  1  0.56434400  0.68146500  0.60512900  1
  O  O8  1  0.93778600  0.67563300  0.10452900  1
  O  O9  1  0.56221400  0.67563300  0.10452900  1
  O  O10  1  0.25000000  0.57255800  0.92856700  1
  O  O11  1  0.25000000  0.56957100  0.42861200  1
  O  O12  1  0.75000000  0.54818400  0.79014200  1
  O  O13  1  0.75000000  0.54693800  0.28981200  1
  O  O14  1  0.25000000  0.45306200  0.71018800  1
  O  O15  1  0.25000000  0.45181600  0.20985800  1
  O  O16  1  0.75000000  0.43042900  0.57138800  1
  O  O17  1  0.75000000  0.42744200  0.07143300  1
  O  O18  1  0.43778600  0.32436700  0.89547100  1
  O  O19  1  0.06221400  0.32436700  0.89547100  1
  O  O20  1  0.43565600  0.31853500  0.39487100  1
  O  O21  1  0.06434400  0.31853500  0.39487100  1
  O  O22  1  0.75000000  0.16116800  0.75706100  1
  O  O23  1  0.75000000  0.15869600  0.26100800  1
  O  O24  1  0.75000000  0.12642600  0.96711300  1
  O  O25  1  0.75000000  0.12436400  0.47220900  1
  O  O26  1  0.25000000  0.07988000  0.65149500  1
  O  O27  1  0.25000000  0.07614600  0.16160700  1
loop_
_geom_bond_atom_site_label_1
_geom_bond_atom_site_label_2
_geom_bond_distance
_geom_bond_site_symmetry_2
Na0 O25 2.319835 1_565
Na0 O0 2.376656 1_555
Na0 O6 2.407137 1_555
Na0 O7 2.407137 1_555
Na0 O22 2.697151 1_565
Na0 O1 2.725204 1_555
Na1 O0 2.310216 1_555
Na1 O10 2.327906 1_655
Na1 O4 2.410131 1_655
Na1 O8 2.413270 1_556
Na1 O12 2.566349 1_555
Na1 O3 2.617396 1_656
Na2 O0 2.310216 1_555
Na2 O10 2.327906 1_555
Na2 O4 2.410131 1_555
Na2 O9 2.413270 1_556
Na2 O12 2.566349 1_555
Na2 O3 2.617396 1_556
Na3 O1 2.321922 1_555
Na3 O11 2.328347 1_655
Na3 O5 2.358663 1_655
Na3 O13 2.407076 1_555
Na3 O6 2.540933 1_555
Na3 O2 2.775196 1_655
Na3 O8 2.790491 1_555
Na4 O1 2.321922 1_555
Na4 O11 2.328347 1_555
Na4 O5 2.358663 1_555
Na4 O13 2.407076 1_555
Na4 O7 2.540933 1_555
Na4 O2 2.775196 1_555
Na4 O9 2.790491 1_555
Na5 O26 2.321922 1_555
Na5 O16 2.328347 1_555
Na5 O22 2.358663 1_555
Na5 O14 2.407076 1_555
Na5 O20 2.540933 1_555
Na5 O25 2.775196 1_555
Na5 O18 2.790491 1_555
Na6 O26 2.321922 1_555
Na6 O16 2.328347 1_455
Na6 O22 2.358663 1_455
Na6 O14 2.407076 1_555
Na6 O21 2.540933 1_555
Na6 O25 2.775196 1_455
Na6 O19 2.790491 1_555
Na7 O27 2.310216 1_555
Na7 O17 2.327906 1_555
Na7 O23 2.410131 1_555
Na7 O18 2.413270 1_554
Na7 O15 2.566349 1_555
Na7 O24 2.617396 1_554
Na8 O27 2.310216 1_555
Na8 O17 2.327906 1_455
Na8 O23 2.410131 1_455
Na8 O19 2.413270 1_554
Na8 O15 2.566349 1_555
Na8 O24 2.617396 1_454
Na9 O2 2.319835 1_545
Na9 O27 2.376656 1_555
Na9 O21 2.407137 1_555
Na9 O20 2.407137 1_555
Na9 O5 2.697151 1_545
Na9 O26 2.725204 1_555
Ni0 O14 2.039147 1_555
Ni0 O11 2.046292 1_555
Ni0 O7 2.108426 1_555
Ni0 O6 2.108426 1_455
Ni0 O2 2.119519 1_555
Ni0 O4 2.162768 1_555
Ni1 O15 2.027819 1_555
Ni1 O10 2.038300 1_554
Ni1 O8 2.091002 1_455
Ni1 O9 2.091002 1_555
Ni1 O3 2.102274 1_555
Ni1 O5 2.180121 1_555
Ni2 O12 2.027819 1_555
Ni2 O17 2.038300 1_556
Ni2 O19 2.091002 1_655
Ni2 O18 2.091002 1_555
Ni2 O24 2.102274 1_555
Ni2 O22 2.180121 1_555
Ni3 O13 2.039147 1_555
Ni3 O16 2.046292 1_555
Ni3 O21 2.108426 1_655
Ni3 O20 2.108426 1_555
Ni3 O25 2.119519 1_555
Ni3 O23 2.162768 1_555
C0 O26 1.274756 1_565
C0 O4 1.302079 1_555
C0 O2 1.314917 1_555
C1 O27 1.275376 1_565
C1 O3 1.290363 1_555
C1 O5 1.311003 1_555
C2 O0 1.275376 1_545
C2 O24 1.290363 1_555
C2 O22 1.311003 1_555
C3 O1 1.274756 1_545
C3 O23 1.302079 1_555
C3 O25 1.314917 1_555
O6 P0 1.557288 1_555
O7 P0 1.557288 1_555
O8 P1 1.550859 1_555
O9 P1 1.550859 1_555
O10 P2 1.550687 1_555
O11 P3 1.546750 1_555
O12 P0 1.568964 1_555
O13 P1 1.569532 1_555
O14 P2 1.569532 1_555
O15 P3 1.568964 1_555
O16 P0 1.546750 1_555
O17 P1 1.550687 1_555
O18 P2 1.550859 1_555
O19 P2 1.550859 1_555
O20 P3 1.557288 1_555
O21 P3 1.557288 1_555
