# generated using pymatgen
data_KBa2Zn3B9O19
_symmetry_space_group_name_H-M   'P 1'
_cell_length_a   7.13315600
_cell_length_b   7.21949185
_cell_length_c   19.04357664
_cell_angle_alpha   94.25633686
_cell_angle_beta   89.34693063
_cell_angle_gamma   119.49129340
_symmetry_Int_Tables_number   1
_chemical_formula_structural   KBa2Zn3B9O19
_chemical_formula_sum   'K2 Ba4 Zn6 B18 O38'
_cell_volume   850.92115458
_cell_formula_units_Z   2
loop_
 _symmetry_equiv_pos_site_id
 _symmetry_equiv_pos_as_xyz
  1  'x, y, z'
loop_
 _atom_site_type_symbol
 _atom_site_label
 _atom_site_symmetry_multiplicity
 _atom_site_fract_x
 _atom_site_fract_y
 _atom_site_fract_z
 _atom_site_occupancy
  K  K0  1  0.84519100  0.00946300  0.08074300  1
  K  K1  1  0.15480900  0.99053700  0.91925700  1
  Ba  Ba0  1  0.36044500  0.90422700  0.22341200  1
  Ba  Ba1  1  0.63955500  0.09577300  0.77658800  1
  Ba  Ba2  1  0.28380000  0.61847700  0.42769900  1
  Ba  Ba3  1  0.71620000  0.38152300  0.57230100  1
  Zn  Zn0  1  0.63418400  0.29671600  0.37682200  1
  Zn  Zn1  1  0.36581600  0.70328400  0.62317800  1
  Zn  Zn2  1  0.70105100  0.59950400  0.24192800  1
  Zn  Zn3  1  0.29894900  0.40049600  0.75807200  1
  Zn  Zn4  1  0.17118000  0.64478100  0.04984800  1
  Zn  Zn5  1  0.82882000  0.35521900  0.95015200  1
  B  B0  1  0.46405700  0.50657200  0.10333100  1
  B  B1  1  0.53594300  0.49342800  0.89666900  1
  B  B2  1  0.99175000  0.06327700  0.24693700  1
  B  B3  1  0.00825000  0.93672300  0.75306300  1
  B  B4  1  0.24969600  0.43965000  0.26921200  1
  B  B5  1  0.75030400  0.56035000  0.73078800  1
  B  B6  1  0.16289900  0.99720500  0.40043300  1
  B  B7  1  0.83710100  0.00279500  0.59956700  1
  B  B8  1  0.74907300  0.38691600  0.11776200  1
  B  B9  1  0.25092700  0.61308400  0.88223800  1
  B  B10  1  0.78808300  0.73517200  0.42727900  1
  B  B11  1  0.21191700  0.26482800  0.57272100  1
  B  B12  1  0.86870200  0.33549900  0.24335100  1
  B  B13  1  0.13129800  0.66450100  0.75664900  1
  B  B14  1  0.36025300  0.12822500  0.08322600  1
  B  B15  1  0.63974700  0.87177500  0.91677400  1
  B  B16  1  0.89633300  0.11639200  0.42719000  1
  B  B17  1  0.10366700  0.88360800  0.57281000  1
  O  O0  1  0.35653200  0.02537400  0.38304600  1
  O  O1  1  0.64346800  0.97462600  0.61695400  1
  O  O2  1  0.19195900  0.93053300  0.07025000  1
  O  O3  1  0.80804100  0.06946700  0.92975000  1
  O  O4  1  0.74014700  0.90355400  0.43440800  1
  O  O5  1  0.25985300  0.09644600  0.56559200  1
  O  O6  1  0.68894600  0.34100700  0.27906500  1
  O  O7  1  0.31105400  0.65899300  0.72093500  1
  O  O8  1  0.33175000  0.30313200  0.06926400  1
  O  O9  1  0.66825000  0.69686800  0.93073600  1
  O  O10  1  0.85956800  0.42929000  0.05306200  1
  O  O11  1  0.14043200  0.57071000  0.94693800  1
  O  O12  1  0.96915800  0.86982700  0.25476900  1
  O  O13  1  0.03084200  0.13017300  0.74523100  1
  O  O14  1  0.63045000  0.53569300  0.43435700  1
  O  O15  1  0.36955000  0.46430700  0.56564300  1
  O  O16  1  0.65644700  0.54279900  0.13585500  1
  O  O17  1  0.34355300  0.45720100  0.86414500  1
  O  O18  1  0.85426500  0.27763600  0.43731700  1
  O  O19  1  0.14573500  0.72236400  0.56268300  1
  O  O20  1  0.10738400  0.15990900  0.41027300  1
  O  O21  1  0.89261600  0.84009100  0.58972700  1
  O  O22  1  0.89781700  0.41931000  0.17514400  1
  O  O23  1  0.10218300  0.58069000  0.82485600  1
  O  O24  1  0.00239300  0.79004100  0.41535800  1
  O  O25  1  0.99760700  0.20995900  0.58464200  1
  O  O26  1  0.45020800  0.60729200  0.28404600  1
  O  O27  1  0.54979200  0.39270800  0.71595400  1
  O  O28  1  0.41040500  0.66195100  0.10705400  1
  O  O29  1  0.58959500  0.33804900  0.89294600  1
  O  O30  1  0.55310300  0.16646700  0.11419300  1
  O  O31  1  0.44689700  0.83353300  0.88580700  1
  O  O32  1  0.07856700  0.47402800  0.28511600  1
  O  O33  1  0.92143300  0.52597200  0.71488400  1
  O  O34  1  0.82459900  0.10579500  0.23983900  1
  O  O35  1  0.17540100  0.89420500  0.76016100  1
  O  O36  1  0.20778100  0.23456100  0.24496300  1
  O  O37  1  0.79221900  0.76543900  0.75503700  1
loop_
_geom_bond_atom_site_label_1
_geom_bond_atom_site_label_2
_geom_bond_distance
_geom_bond_site_symmetry_2
K0 O2 2.800483 1_645
K0 O30 2.866946 1_555
K0 O28 2.941813 1_545
K0 O3 2.973445 1_554
K0 O8 3.065146 1_655
K0 O10 3.066737 1_555
K0 O34 3.076092 1_555
K0 O16 3.208035 1_545
K1 O3 2.800483 1_465
K1 O31 2.866946 1_555
K1 O29 2.941813 1_565
K1 O2 2.973445 1_556
K1 O9 3.065146 1_455
K1 O11 3.066737 1_555
K1 O35 3.076092 1_555
K1 O17 3.208035 1_565
Ba0 O12 2.740456 1_455
Ba0 O30 2.785082 1_565
Ba0 O26 2.841575 1_555
Ba0 O28 2.849015 1_555
Ba0 O34 2.896503 1_565
Ba0 O6 2.973712 1_565
Ba0 O32 3.067419 1_555
Ba0 O36 3.072997 1_565
Ba0 O0 3.103995 1_565
Ba0 O2 3.220992 1_555
Ba1 O13 2.740456 1_655
Ba1 O31 2.785082 1_545
Ba1 O27 2.841575 1_555
Ba1 O29 2.849015 1_555
Ba1 O35 2.896503 1_545
Ba1 O7 2.973712 1_545
Ba1 O33 3.067419 1_555
Ba1 O37 3.072997 1_545
Ba1 O1 3.103995 1_545
Ba1 O3 3.220992 1_555
Ba2 O14 2.821525 1_555
Ba2 O18 2.847320 1_455
Ba2 O24 2.849670 1_555
Ba2 O4 2.867511 1_555
Ba2 O20 2.898021 1_555
Ba2 O0 2.912367 1_565
Ba2 O19 2.919530 1_555
Ba2 O32 2.961529 1_555
Ba2 O26 2.981100 1_555
Ba2 O15 3.107213 1_555
Ba3 O15 2.821525 1_555
Ba3 O19 2.847320 1_655
Ba3 O25 2.849670 1_555
Ba3 O5 2.867511 1_555
Ba3 O21 2.898021 1_555
Ba3 O1 2.912367 1_545
Ba3 O18 2.919530 1_555
Ba3 O33 2.961529 1_555
Ba3 O27 2.981100 1_555
Ba3 O14 3.107213 1_555
B0 O28 1.349109 1_555
B0 O8 1.405883 1_555
B0 O16 1.406167 1_555
B1 O29 1.349109 1_555
B1 O9 1.405883 1_555
B1 O17 1.406167 1_555
B2 O12 1.344437 1_545
B2 O34 1.379960 1_555
B2 O36 1.426389 1_655
B3 O13 1.344437 1_565
B3 O35 1.379960 1_555
B3 O37 1.426389 1_455
B4 O26 1.358089 1_555
B4 O32 1.386406 1_555
B4 O36 1.400257 1_555
B5 O27 1.358089 1_555
B5 O33 1.386406 1_555
B5 O37 1.400257 1_555
B6 O0 1.334824 1_565
B6 O20 1.412560 1_565
B6 O24 1.413582 1_555
B7 O1 1.334824 1_545
B7 O21 1.412560 1_545
B7 O25 1.413582 1_555
B8 O10 1.424549 1_555
B8 O22 1.455593 1_555
B8 O30 1.512383 1_555
B8 O16 1.578333 1_555
B9 O11 1.424549 1_555
B9 O23 1.455593 1_555
B9 O31 1.512383 1_555
B9 O17 1.578333 1_555
B10 O14 1.336971 1_555
B10 O24 1.398074 1_655
B10 O4 1.413087 1_555
B11 O15 1.336971 1_555
B11 O25 1.398074 1_455
B11 O5 1.413087 1_555
B12 O22 1.443325 1_555
B12 O6 1.461014 1_555
B12 O32 1.519475 1_655
B12 O34 1.524437 1_555
B13 O23 1.443325 1_555
B13 O7 1.461014 1_555
B13 O33 1.519475 1_455
B13 O35 1.524437 1_555
B14 O2 1.344122 1_545
B14 O30 1.391668 1_555
B14 O8 1.417883 1_555
B15 O3 1.344122 1_565
B15 O31 1.391668 1_555
B15 O9 1.417883 1_555
B16 O18 1.338528 1_555
B16 O4 1.401266 1_545
B16 O20 1.416753 1_655
B17 O19 1.338528 1_555
B17 O5 1.401266 1_565
B17 O21 1.416753 1_455
O0 Zn0 1.995800 1_555
O1 Zn1 1.995800 1_555
O2 Zn4 2.002524 1_555
O3 Zn5 2.002524 1_555
O6 Zn0 1.915555 1_555
O6 Zn2 2.006551 1_555
O7 Zn1 1.915555 1_555
O7 Zn3 2.006551 1_555
O10 Zn5 1.978267 1_554
O10 Zn4 1.992760 1_655
O11 Zn4 1.978267 1_556
O11 Zn5 1.992760 1_455
O12 Zn2 1.947054 1_555
O13 Zn3 1.947054 1_555
O14 Zn0 1.985402 1_555
O15 Zn1 1.985402 1_555
O16 Zn2 2.028033 1_555
O17 Zn3 2.028033 1_555
O18 Zn0 2.021971 1_555
O19 Zn1 2.021971 1_555
O26 Zn2 1.976799 1_555
O27 Zn3 1.976799 1_555
O28 Zn4 1.981954 1_555
O29 Zn5 1.981954 1_555
