# generated using pymatgen
data_BaNaTl2
_symmetry_space_group_name_H-M   'P 1'
_cell_length_a   5.82142345
_cell_length_b   5.82142345
_cell_length_c   5.82142345
_cell_angle_alpha   60.00000000
_cell_angle_beta   60.00000000
_cell_angle_gamma   60.00000000
_symmetry_Int_Tables_number   1
_chemical_formula_structural   BaNaTl2
_chemical_formula_sum   'Ba1 Na1 Tl2'
_cell_volume   139.49947587
_cell_formula_units_Z   1
loop_
 _symmetry_equiv_pos_site_id
 _symmetry_equiv_pos_as_xyz
  1  'x, y, z'
loop_
 _atom_site_type_symbol
 _atom_site_label
 _atom_site_symmetry_multiplicity
 _atom_site_fract_x
 _atom_site_fract_y
 _atom_site_fract_z
 _atom_site_occupancy
  Ba  Ba0  1  0.50000000  0.50000000  0.50000000  1
  Na  Na0  1  0.00000000  0.00000000  0.00000000  1
  Tl  Tl0  1  0.75000000  0.75000000  0.75000000  1
  Tl  Tl1  1  0.25000000  0.25000000  0.25000000  1
loop_
_geom_bond_atom_site_label_1
_geom_bond_atom_site_label_2
_geom_bond_distance
_geom_bond_site_symmetry_2
Ba0 Tl0 3.564879 1_554
Ba0 Tl0 3.564879 1_555
Ba0 Tl0 3.564879 1_545
Ba0 Tl1 3.564879 1_555
Ba0 Tl1 3.564879 1_655
Ba0 Tl1 3.564879 1_556
Ba0 Tl1 3.564879 1_565
Ba0 Tl0 3.564879 1_455
Na0 Tl0 3.564879 1_544
Na0 Tl0 3.564879 1_454
Na0 Tl1 3.564879 1_555
Na0 Tl1 3.564879 1_455
Na0 Tl1 3.564879 1_554
Na0 Tl0 3.564879 1_445
Na0 Tl0 3.564879 1_444
Na0 Tl1 3.564879 1_545
