# generated using pymatgen
data_Li9Mn2Co5O16
_symmetry_space_group_name_H-M   'P 1'
_cell_length_a   11.33844900
_cell_length_b   5.18403600
_cell_length_c   5.19138351
_cell_angle_alpha   67.85599579
_cell_angle_beta   90.00000000
_cell_angle_gamma   90.00000000
_symmetry_Int_Tables_number   1
_chemical_formula_structural   Li9Mn2Co5O16
_chemical_formula_sum   'Li9 Mn2 Co5 O16'
_cell_volume   282.63635829
_cell_formula_units_Z   1
loop_
 _symmetry_equiv_pos_site_id
 _symmetry_equiv_pos_as_xyz
  1  'x, y, z'
loop_
 _atom_site_type_symbol
 _atom_site_label
 _atom_site_symmetry_multiplicity
 _atom_site_fract_x
 _atom_site_fract_y
 _atom_site_fract_z
 _atom_site_occupancy
  Li  Li0  1  0.24997100  0.50000000  0.00000000  1
  Li  Li1  1  0.37481500  0.50000000  0.50000000  1
  Li  Li2  1  0.50000000  0.50000000  0.00000000  1
  Li  Li3  1  0.62518500  0.50000000  0.50000000  1
  Li  Li4  1  0.75002900  0.50000000  0.00000000  1
  Li  Li5  1  0.87777100  0.50000000  0.50000000  1
  Li  Li6  1  0.00000000  0.50000000  0.00000000  1
  Li  Li7  1  0.12222900  0.50000000  0.50000000  1
  Li  Li8  1  0.00000000  0.00000000  0.50000000  1
  Mn  Mn0  1  0.12592800  0.00000000  0.00000000  1
  Mn  Mn1  1  0.87407200  0.00000000  0.00000000  1
  Co  Co0  1  0.25046800  0.00000000  0.50000000  1
  Co  Co1  1  0.37540000  0.00000000  0.00000000  1
  Co  Co2  1  0.50000000  0.00000000  0.50000000  1
  Co  Co3  1  0.62460000  0.00000000  0.00000000  1
  Co  Co4  1  0.74953200  0.00000000  0.50000000  1
  O  O0  1  0.25060200  0.23316800  0.77200200  1
  O  O1  1  0.37595400  0.22480200  0.27248800  1
  O  O2  1  0.50000000  0.22720700  0.77787700  1
  O  O3  1  0.62404600  0.22480200  0.27248800  1
  O  O4  1  0.74939800  0.23316800  0.77200200  1
  O  O5  1  0.86750500  0.21164000  0.24337900  1
  O  O6  1  0.00000000  0.23566100  0.78083100  1
  O  O7  1  0.13249500  0.21164000  0.24337900  1
  O  O8  1  0.25060200  0.76683200  0.22799800  1
  O  O9  1  0.37595400  0.77519800  0.72751200  1
  O  O10  1  0.50000000  0.77279300  0.22212300  1
  O  O11  1  0.62404600  0.77519800  0.72751200  1
  O  O12  1  0.74939800  0.76683200  0.22799800  1
  O  O13  1  0.86750500  0.78836000  0.75662100  1
  O  O14  1  0.00000000  0.76433900  0.21916900  1
  O  O15  1  0.13249500  0.78836000  0.75662100  1
loop_
_geom_bond_atom_site_label_1
_geom_bond_atom_site_label_2
_geom_bond_distance
_geom_bond_site_symmetry_2
Li0 O7 2.044836 1_555
Li0 O15 2.044836 1_554
Li0 O8 2.132777 1_555
Li0 O0 2.132777 1_554
Li0 O9 2.134347 1_554
Li0 O1 2.134347 1_555
Li1 O0 2.101997 1_555
Li1 O8 2.101997 1_555
Li1 O2 2.134867 1_555
Li1 O10 2.134867 1_555
Li1 O9 2.168118 1_555
Li1 O1 2.168118 1_555
Li2 O1 2.119711 1_555
Li2 O9 2.119711 1_554
Li2 O3 2.119711 1_555
Li2 O11 2.119711 1_554
Li2 O10 2.135163 1_555
Li2 O2 2.135163 1_554
Li3 O4 2.101997 1_555
Li3 O12 2.101997 1_555
Li3 O2 2.134867 1_555
Li3 O10 2.134867 1_555
Li3 O11 2.168118 1_555
Li3 O3 2.168118 1_555
Li4 O5 2.044836 1_555
Li4 O13 2.044836 1_554
Li4 O12 2.132777 1_555
Li4 O4 2.132777 1_554
Li4 O11 2.134347 1_554
Li4 O3 2.134347 1_555
Li5 O14 2.101879 1_655
Li5 O6 2.101879 1_655
Li5 O4 2.133888 1_555
Li5 O12 2.133888 1_555
Li5 O13 2.350386 1_555
Li5 O5 2.350386 1_555
Li6 O14 2.085141 1_555
Li6 O6 2.085141 1_554
Li6 O7 2.159632 1_555
Li6 O5 2.159632 1_455
Li6 O13 2.159632 1_454
Li6 O15 2.159632 1_554
Li7 O6 2.101879 1_555
Li7 O14 2.101879 1_555
Li7 O0 2.133888 1_555
Li7 O8 2.133888 1_555
Li7 O15 2.350386 1_555
Li7 O7 2.350386 1_555
Li8 O15 2.033106 1_545
Li8 O13 2.033106 1_445
Li8 O5 2.033106 1_455
Li8 O7 2.033106 1_555
Li8 O6 2.227257 1_555
Li8 O14 2.227257 1_545
Mn0 O6 1.943672 1_554
Mn0 O14 1.943672 1_545
Mn0 O8 1.944677 1_545
Mn0 O0 1.944677 1_554
Mn0 O7 1.962314 1_555
Mn0 O15 1.962314 1_544
Mn1 O6 1.943672 1_654
Mn1 O14 1.943672 1_645
Mn1 O12 1.944677 1_545
Mn1 O4 1.944677 1_554
Mn1 O5 1.962314 1_555
Mn1 O13 1.962314 1_544
Co0 O15 1.914656 1_545
Co0 O7 1.914656 1_555
Co0 O9 1.933874 1_545
Co0 O1 1.933874 1_555
Co0 O0 2.177556 1_555
Co0 O8 2.177556 1_545
Co1 O10 1.920686 1_545
Co1 O2 1.920686 1_554
Co1 O8 1.945700 1_545
Co1 O0 1.945700 1_554
Co1 O1 2.145228 1_555
Co1 O9 2.145228 1_544
Co2 O11 1.921893 1_545
Co2 O3 1.921893 1_555
Co2 O9 1.921893 1_545
Co2 O1 1.921893 1_555
Co2 O2 2.179277 1_555
Co2 O10 2.179277 1_545
Co3 O10 1.920686 1_545
Co3 O2 1.920686 1_554
Co3 O12 1.945700 1_545
Co3 O4 1.945700 1_554
Co3 O3 2.145228 1_555
Co3 O11 2.145228 1_544
Co4 O13 1.914656 1_545
Co4 O5 1.914656 1_555
Co4 O11 1.933874 1_545
Co4 O3 1.933874 1_555
Co4 O4 2.177556 1_555
Co4 O12 2.177556 1_545
