# generated using pymatgen
data_Li2TiCr3O8
_symmetry_space_group_name_H-M   'P 1'
_cell_length_a   5.96105903
_cell_length_b   10.25923922
_cell_length_c   5.98159425
_cell_angle_alpha   106.49025142
_cell_angle_beta   59.19733115
_cell_angle_gamma   90.28326933
_symmetry_Int_Tables_number   1
_chemical_formula_structural   Li2TiCr3O8
_chemical_formula_sum   'Li4 Ti2 Cr6 O16'
_cell_volume   296.87273291
_cell_formula_units_Z   2
loop_
 _symmetry_equiv_pos_site_id
 _symmetry_equiv_pos_as_xyz
  1  'x, y, z'
loop_
 _atom_site_type_symbol
 _atom_site_label
 _atom_site_symmetry_multiplicity
 _atom_site_fract_x
 _atom_site_fract_y
 _atom_site_fract_z
 _atom_site_occupancy
  Li  Li0  1  0.93227100  0.18719900  0.12648000  1
  Li  Li1  1  0.43252000  0.68713100  0.12637200  1
  Li  Li2  1  0.56775100  0.31297100  0.87356500  1
  Li  Li3  1  0.06767200  0.81288700  0.87364300  1
  Ti  Ti0  1  0.75002500  0.74990300  0.50018500  1
  Ti  Ti1  1  0.24993600  0.24995000  0.49992600  1
  Cr  Cr0  1  0.99966500  0.99998000  0.50012900  1
  Cr  Cr1  1  0.49960500  0.00009600  0.50046400  1
  Cr  Cr2  1  0.00021600  0.49996800  0.99971400  1
  Cr  Cr3  1  0.50016000  0.49994300  0.49980000  1
  Cr  Cr4  1  0.00043900  0.49990800  0.49953200  1
  Cr  Cr5  1  0.49980900  0.99998800  0.00024700  1
  O  O0  1  0.85326500  0.39639700  0.27553700  1
  O  O1  1  0.35257600  0.89649600  0.27626100  1
  O  O2  1  0.64676400  0.10362100  0.72450400  1
  O  O3  1  0.14728100  0.60356400  0.72382900  1
  O  O4  1  0.63865500  0.62099400  0.71430500  1
  O  O5  1  0.13797100  0.12118100  0.71458500  1
  O  O6  1  0.63560400  0.61944500  0.27168100  1
  O  O7  1  0.13519000  0.11952000  0.27193900  1
  O  O8  1  0.08984800  0.62217600  0.26298300  1
  O  O9  1  0.58951000  0.12219800  0.26347200  1
  O  O10  1  0.41029500  0.87779400  0.73696200  1
  O  O11  1  0.91055000  0.37781800  0.73644300  1
  O  O12  1  0.86432400  0.88045900  0.72833700  1
  O  O13  1  0.36483500  0.38052700  0.72788700  1
  O  O14  1  0.86134700  0.87898500  0.28586900  1
  O  O15  1  0.36191600  0.37890100  0.28535100  1
loop_
_geom_bond_atom_site_label_1
_geom_bond_atom_site_label_2
_geom_bond_distance
_geom_bond_site_symmetry_2
Li0 O9 1.967974 1_555
Li0 O5 1.999831 1_654
Li0 O0 2.028936 1_555
Li0 O7 2.032598 1_655
Li1 O8 1.967369 1_555
Li1 O4 2.000626 1_554
Li1 O1 2.030712 1_555
Li1 O6 2.032690 1_555
Li2 O11 1.967433 1_555
Li2 O15 1.999290 1_556
Li2 O2 2.030394 1_555
Li2 O13 2.033083 1_555
Li3 O10 1.966898 1_555
Li3 O14 2.001393 1_456
Li3 O3 2.030274 1_555
Li3 O12 2.033415 1_455
Cr0 O1 1.917237 1_655
Cr0 O2 1.917714 1_565
Cr0 O12 1.957127 1_555
Cr0 O7 1.957273 1_665
Cr0 O14 2.008040 1_555
Cr0 O5 2.009696 1_665
Cr1 O2 2.019954 1_555
Cr1 O1 2.020333 1_545
Cr1 O10 2.022051 1_545
Cr1 O9 2.022218 1_555
Cr1 O5 2.031306 1_555
Cr1 O14 2.031657 1_545
Cr2 O11 2.017710 1_455
Cr2 O8 2.017804 1_556
Cr2 O0 2.030830 1_456
Cr2 O3 2.031306 1_555
Cr2 O13 2.035986 1_555
Cr2 O6 2.036167 1_456
Cr3 O3 1.917583 1_555
Cr3 O0 1.918277 1_555
Cr3 O13 1.955755 1_555
Cr3 O6 1.956645 1_555
Cr3 O15 2.008687 1_555
Cr3 O4 2.010051 1_555
Cr4 O0 2.019777 1_455
Cr4 O3 2.020081 1_555
Cr4 O11 2.021767 1_455
Cr4 O8 2.021934 1_555
Cr4 O15 2.030231 1_555
Cr4 O4 2.031639 1_455
Cr5 O10 2.017353 1_554
Cr5 O9 2.017890 1_565
Cr5 O2 2.030955 1_564
Cr5 O1 2.031088 1_555
Cr5 O12 2.035960 1_554
Cr5 O7 2.036276 1_565
O4 Ti0 1.977940 1_555
O5 Ti1 1.978869 1_555
O6 Ti0 2.007975 1_555
O7 Ti1 2.007110 1_555
O8 Ti0 1.964902 1_455
O9 Ti1 1.964018 1_555
O10 Ti0 1.965310 1_555
O11 Ti1 1.963831 1_655
O12 Ti0 2.006552 1_555
O13 Ti1 2.008345 1_555
O14 Ti0 1.980230 1_555
O15 Ti1 1.980122 1_555
