# generated using pymatgen
data_Sr3MgCo2S2O5
_symmetry_space_group_name_H-M   'P 1'
_cell_length_a   14.28573206
_cell_length_b   14.28573206
_cell_length_c   14.28573206
_cell_angle_alpha   164.42671175
_cell_angle_beta   164.42671175
_cell_angle_gamma   22.09283533
_symmetry_Int_Tables_number   1
_chemical_formula_structural   Sr3MgCo2S2O5
_chemical_formula_sum   'Sr3 Mg1 Co2 S2 O5'
_cell_volume   210.09974939
_cell_formula_units_Z   1
loop_
 _symmetry_equiv_pos_site_id
 _symmetry_equiv_pos_as_xyz
  1  'x, y, z'
loop_
 _atom_site_type_symbol
 _atom_site_label
 _atom_site_symmetry_multiplicity
 _atom_site_fract_x
 _atom_site_fract_y
 _atom_site_fract_z
 _atom_site_occupancy
  Sr  Sr0  1  0.50000000  0.50000000  0.00000000  1
  Sr  Sr1  1  0.63704000  0.63704000  0.00000000  1
  Sr  Sr2  1  0.36296000  0.36296000  0.00000000  1
  Mg  Mg0  1  0.75000000  0.25000000  0.50000000  1
  Co  Co0  1  0.06918900  0.06918900  0.00000000  1
  Co  Co1  1  0.93081100  0.93081100  0.00000000  1
  S  S0  1  0.19347500  0.19347500  0.00000000  1
  S  S1  1  0.80652500  0.80652500  0.00000000  1
  O  O0  1  0.07717500  0.57717500  0.50000000  1
  O  O1  1  0.57807800  0.07807800  0.50000000  1
  O  O2  1  0.92192200  0.42192200  0.50000000  1
  O  O3  1  0.42282500  0.92282500  0.50000000  1
  O  O4  1  0.00000000  0.00000000  0.00000000  1
loop_
_geom_bond_atom_site_label_1
_geom_bond_atom_site_label_2
_geom_bond_distance
_geom_bond_site_symmetry_2
Mg0 S0 2.501725 1_555
Mg0 S0 2.501725 1_656
Mg0 S1 2.501725 1_556
Mg0 S1 2.501725 1_545
Co0 O4 1.940205 1_555
Co0 O0 1.948410 1_544
Co0 O0 1.948410 1_555
Co0 O1 1.951482 1_555
Co0 O1 1.951482 1_454
Co1 O4 1.940205 1_665
Co1 O3 1.948410 1_655
Co1 O3 1.948410 1_554
Co1 O2 1.951482 1_565
Co1 O2 1.951482 1_554
S0 Sr1 3.161769 1_556
S0 Sr1 3.161769 1_455
S0 Sr1 3.161769 1_545
S0 Sr1 3.161769 1_444
S1 Sr2 3.161769 1_666
S1 Sr2 3.161769 1_565
S1 Sr2 3.161769 1_655
S1 Sr2 3.161769 1_554
O0 Sr1 2.562092 1_556
O0 Sr1 2.562092 1_455
O0 Sr0 2.903393 1_455
O0 Sr0 2.903393 1_556
O1 Sr1 2.545573 1_545
O1 Sr1 2.545573 1_556
O1 Sr0 2.922316 1_556
O1 Sr0 2.922316 1_545
O2 Sr2 2.545573 1_555
O2 Sr2 2.545573 1_656
O2 Sr0 2.922316 1_555
O2 Sr0 2.922316 1_656
O3 Sr2 2.562092 1_566
O3 Sr2 2.562092 1_555
O3 Sr0 2.903393 1_566
O3 Sr0 2.903393 1_555
O4 Sr0 2.737206 1_444
O4 Sr0 2.737206 1_556
O4 Sr0 2.737206 1_545
O4 Sr0 2.737206 1_455
