# generated using pymatgen
data_Nb2CuS4
_symmetry_space_group_name_H-M   'P 1'
_cell_length_a   3.36787300
_cell_length_b   11.45804600
_cell_length_c   13.18772600
_cell_angle_alpha   90.00000000
_cell_angle_beta   90.00000000
_cell_angle_gamma   90.00000000
_symmetry_Int_Tables_number   1
_chemical_formula_structural   Nb2CuS4
_chemical_formula_sum   'Nb8 Cu4 S16'
_cell_volume   508.90437320
_cell_formula_units_Z   4
loop_
 _symmetry_equiv_pos_site_id
 _symmetry_equiv_pos_as_xyz
  1  'x, y, z'
loop_
 _atom_site_type_symbol
 _atom_site_label
 _atom_site_symmetry_multiplicity
 _atom_site_fract_x
 _atom_site_fract_y
 _atom_site_fract_z
 _atom_site_occupancy
  Nb  Nb0  1  0.25000000  0.06524800  0.57815800  1
  Nb  Nb1  1  0.25000000  0.56524800  0.92184200  1
  Nb  Nb2  1  0.75000000  0.93475200  0.42184200  1
  Nb  Nb3  1  0.75000000  0.43475200  0.07815800  1
  Nb  Nb4  1  0.25000000  0.04223600  0.09218100  1
  Nb  Nb5  1  0.25000000  0.54223600  0.40781900  1
  Nb  Nb6  1  0.75000000  0.95776400  0.90781900  1
  Nb  Nb7  1  0.75000000  0.45776400  0.59218100  1
  Cu  Cu0  1  0.25000000  0.18147400  0.26476400  1
  Cu  Cu1  1  0.25000000  0.68147400  0.23523600  1
  Cu  Cu2  1  0.75000000  0.81852600  0.73523600  1
  Cu  Cu3  1  0.75000000  0.31852600  0.76476400  1
  S  S0  1  0.25000000  0.35810600  0.96133100  1
  S  S1  1  0.25000000  0.85810600  0.53866900  1
  S  S2  1  0.75000000  0.64189400  0.03866900  1
  S  S3  1  0.75000000  0.14189400  0.46133100  1
  S  S4  1  0.25000000  0.28925900  0.64667300  1
  S  S5  1  0.25000000  0.78925900  0.85332700  1
  S  S6  1  0.75000000  0.71074100  0.35332700  1
  S  S7  1  0.75000000  0.21074100  0.14667300  1
  S  S8  1  0.25000000  0.11069600  0.91885900  1
  S  S9  1  0.25000000  0.61069600  0.58114100  1
  S  S10  1  0.75000000  0.88930400  0.08114100  1
  S  S11  1  0.75000000  0.38930400  0.41885900  1
  S  S12  1  0.25000000  0.98085400  0.28488000  1
  S  S13  1  0.25000000  0.48085400  0.21512000  1
  S  S14  1  0.75000000  0.01914600  0.71512000  1
  S  S15  1  0.75000000  0.51914600  0.78488000  1
loop_
_geom_bond_atom_site_label_1
_geom_bond_atom_site_label_2
_geom_bond_distance
_geom_bond_site_symmetry_2
Nb0 S1 2.429904 1_545
Nb0 S3 2.445527 1_455
Nb0 S3 2.445527 1_555
Nb0 S14 2.525292 1_555
Nb0 S14 2.525292 1_455
Nb0 S4 2.721123 1_555
Nb1 S0 2.429904 1_555
Nb1 S2 2.445527 1_456
Nb1 S2 2.445527 1_556
Nb1 S15 2.525292 1_455
Nb1 S15 2.525292 1_555
Nb1 S5 2.721123 1_555
Nb2 S3 2.429904 1_565
Nb2 S1 2.445527 1_555
Nb2 S1 2.445527 1_655
Nb2 S12 2.525292 1_655
Nb2 S12 2.525292 1_555
Nb2 S6 2.721123 1_555
Nb3 S2 2.429904 1_555
Nb3 S0 2.445527 1_554
Nb3 S0 2.445527 1_654
Nb3 S13 2.525292 1_555
Nb3 S13 2.525292 1_655
Nb3 S7 2.721123 1_555
Nb4 S8 2.416576 1_554
Nb4 S10 2.434625 1_445
Nb4 S10 2.434625 1_545
Nb4 S12 2.636791 1_545
Nb4 S7 2.660792 1_455
Nb4 S7 2.660792 1_555
Nb5 S9 2.416576 1_555
Nb5 S11 2.434625 1_555
Nb5 S11 2.434625 1_455
Nb5 S13 2.636791 1_555
Nb5 S6 2.660792 1_455
Nb5 S6 2.660792 1_555
Nb6 S10 2.416576 1_556
Nb6 S8 2.434625 1_565
Nb6 S8 2.434625 1_665
Nb6 S14 2.636791 1_565
Nb6 S5 2.660792 1_555
Nb6 S5 2.660792 1_655
Nb7 S11 2.416576 1_555
Nb7 S9 2.434625 1_555
Nb7 S9 2.434625 1_655
Nb7 S15 2.636791 1_555
Nb7 S4 2.660792 1_555
Nb7 S4 2.660792 1_655
Cu0 S12 2.313970 1_545
Cu0 S7 2.318068 1_455
Cu0 S7 2.318068 1_555
Cu1 S13 2.313970 1_555
Cu1 S6 2.318068 1_555
Cu1 S6 2.318068 1_455
Cu2 S14 2.313970 1_565
Cu2 S5 2.318068 1_655
Cu2 S5 2.318068 1_555
Cu3 S15 2.313970 1_555
Cu3 S4 2.318068 1_655
Cu3 S4 2.318068 1_555
