# generated using pymatgen
data_Sr2LiPr2Fe2(RuO6)2
_symmetry_space_group_name_H-M   'P 1'
_cell_length_a   5.90849179
_cell_length_b   5.51983072
_cell_length_c   7.93845393
_cell_angle_alpha   91.19815283
_cell_angle_beta   88.44891937
_cell_angle_gamma   92.26201616
_symmetry_Int_Tables_number   1
_chemical_formula_structural   Sr2LiPr2Fe2(RuO6)2
_chemical_formula_sum   'Sr2 Li1 Pr2 Fe2 Ru2 O12'
_cell_volume   258.55617781
_cell_formula_units_Z   1
loop_
 _symmetry_equiv_pos_site_id
 _symmetry_equiv_pos_as_xyz
  1  'x, y, z'
loop_
 _atom_site_type_symbol
 _atom_site_label
 _atom_site_symmetry_multiplicity
 _atom_site_fract_x
 _atom_site_fract_y
 _atom_site_fract_z
 _atom_site_occupancy
  Sr  Sr0  1  0.55185500  0.51093900  0.75490100  1
  Sr  Sr1  1  0.90362900  0.03384100  0.22055700  1
  Li  Li0  1  0.21538400  0.86753300  0.36164300  1
  Pr  Pr0  1  0.07134400  0.98496300  0.74746600  1
  Pr  Pr1  1  0.43622200  0.45165000  0.25021300  1
  Fe  Fe0  1  0.99606000  0.51025400  0.99645900  1
  Fe  Fe1  1  0.54866900  0.98514700  0.51513200  1
  Ru  Ru0  1  0.00084800  0.48965400  0.50069400  1
  Ru  Ru1  1  0.49399100  0.99720800  0.99692900  1
  O  O0  1  0.98085200  0.40800400  0.74654800  1
  O  O1  1  0.48240600  0.06821800  0.74894500  1
  O  O2  1  0.03934500  0.59198800  0.25379700  1
  O  O3  1  0.50123300  0.89974200  0.25453100  1
  O  O4  1  0.19505500  0.19295300  0.44939600  1
  O  O5  1  0.70156800  0.30431100  0.04072200  1
  O  O6  1  0.79012300  0.80219200  0.95216500  1
  O  O7  1  0.30070800  0.69928200  0.54374400  1
  O  O8  1  0.81457200  0.79479300  0.54454300  1
  O  O9  1  0.27534200  0.71701400  0.95374300  1
  O  O10  1  0.21319300  0.21429500  0.03336900  1
  O  O11  1  0.70188500  0.29744700  0.45117200  1
loop_
_geom_bond_atom_site_label_1
_geom_bond_atom_site_label_2
_geom_bond_distance
_geom_bond_site_symmetry_2
Li0 O7 1.827290 1_555
Li0 O3 1.874034 1_555
Li0 O4 1.920011 1_565
Li0 O2 1.999254 1_555
Li0 Sr1 2.403800 1_465
Fe0 O9 1.994413 1_655
Fe0 O0 2.054588 1_555
Fe0 O5 2.066590 1_556
Fe0 O6 2.098236 1_555
Fe0 O2 2.103065 1_656
Fe0 O10 2.146244 1_656
Fe1 O1 1.935959 1_565
Fe1 O8 1.946090 1_555
Fe1 O11 1.984312 1_565
Fe1 O7 2.121880 1_555
Fe1 O3 2.135596 1_555
Fe1 O4 2.495310 1_565
O0 Ru0 2.011546 1_655
O0 Pr0 2.416230 1_645
O0 Sr0 2.618220 1_555
O1 Ru1 2.018769 1_545
O1 Pr0 2.454261 1_545
O1 Sr0 2.461618 1_555
O2 Ru0 2.055324 1_555
O2 Pr1 2.497699 1_555
O2 Sr1 2.617993 1_465
O2 Sr1 3.160202 1_455
O3 Ru1 2.127370 1_554
O3 Sr1 2.471460 1_565
O3 Pr1 2.487681 1_555
O4 Ru0 2.063945 1_555
O4 Pr1 2.526174 1_555
O4 Sr1 2.649459 1_455
O4 Pr0 2.721222 1_545
O5 Ru1 2.081575 1_544
O5 Pr1 2.405834 1_555
O5 Sr1 2.452430 1_555
O5 Sr0 2.743741 1_554
O6 Ru1 2.108431 1_555
O6 Pr0 2.491859 1_655
O6 Sr1 2.553431 1_566
O6 Sr0 2.618048 1_555
O7 Ru0 2.109290 1_555
O7 Sr0 2.534154 1_555
O7 Pr0 2.623367 1_555
O7 Pr1 2.791310 1_555
O8 Ru0 2.066520 1_655
O8 Pr0 2.436071 1_655
O8 Sr0 2.725837 1_555
O8 Sr1 2.940534 1_565
O9 Ru1 2.005648 1_555
O9 Sr0 2.527208 1_555
O9 Pr0 2.582764 1_555
O9 Pr1 2.993879 1_556
O10 Ru1 2.094901 1_544
O10 Pr1 2.511665 1_555
O10 Sr1 2.513305 1_455
O10 Pr0 2.712039 1_544
O11 Ru0 2.067031 1_655
O11 Pr1 2.455843 1_555
O11 Sr1 2.607107 1_555
O11 Sr0 2.799291 1_555
