# generated using pymatgen
data_Te2MoWS2
_symmetry_space_group_name_H-M   'P 1'
_cell_length_a   3.35863145
_cell_length_b   3.35863145
_cell_length_c   38.28926200
_cell_angle_alpha   90.00000000
_cell_angle_beta   90.00000000
_cell_angle_gamma   119.99998919
_symmetry_Int_Tables_number   1
_chemical_formula_structural   Te2MoWS2
_chemical_formula_sum   'Te4 Mo2 W2 S4'
_cell_volume   374.05233979
_cell_formula_units_Z   2
loop_
 _symmetry_equiv_pos_site_id
 _symmetry_equiv_pos_as_xyz
  1  'x, y, z'
loop_
 _atom_site_type_symbol
 _atom_site_label
 _atom_site_symmetry_multiplicity
 _atom_site_fract_x
 _atom_site_fract_y
 _atom_site_fract_z
 _atom_site_occupancy
  Te  Te0  1  0.00000000  0.00000000  0.70718300  1
  Te  Te1  1  0.33333300  0.66666700  0.04454100  1
  Te  Te2  1  0.33333300  0.66666700  0.14331900  1
  Te  Te3  1  0.00000000  0.00000000  0.60789300  1
  Mo  Mo0  1  0.00000000  0.00000000  0.09390400  1
  Mo  Mo1  1  0.33333300  0.66666700  0.28179900  1
  W  W0  1  0.00000000  0.00000000  0.46965500  1
  W  W1  1  0.33333300  0.66666700  0.65756600  1
  S  S0  1  0.00000000  0.00000000  0.32129400  1
  S  S1  1  0.33333300  0.66666700  0.42998400  1
  S  S2  1  0.33333300  0.66666700  0.50931200  1
  S  S3  1  0.00000000  0.00000000  0.24229700  1
loop_
_geom_bond_atom_site_label_1
_geom_bond_atom_site_label_2
_geom_bond_distance
_geom_bond_site_symmetry_2
Te0 W1 2.714657 1_545
Te0 W1 2.714659 1_445
Te0 W1 2.714659 1_555
Te3 W1 2.716158 1_545
Te3 W1 2.716160 1_555
Te3 W1 2.716160 1_445
Mo0 Te1 2.707859 1_545
Mo0 Te1 2.707862 1_555
Mo0 Te1 2.707862 1_445
Mo0 Te2 2.709250 1_545
Mo0 Te2 2.709252 1_555
Mo0 Te2 2.709252 1_445
Mo1 S0 2.459061 1_565
Mo1 S0 2.459063 1_665
Mo1 S0 2.459063 1_555
Mo1 S3 2.459226 1_565
Mo1 S3 2.459228 1_665
Mo1 S3 2.459228 1_555
S1 W0 2.463211 1_565
S1 W0 2.463213 1_665
S1 W0 2.463213 1_555
S2 W0 2.462880 1_565
S2 W0 2.462883 1_555
S2 W0 2.462883 1_665
