# generated using pymatgen
data_Ba(LuTe2)2
_symmetry_space_group_name_H-M   'P 1'
_cell_length_a   4.41601956
_cell_length_b   13.67245931
_cell_length_c   16.03230819
_cell_angle_alpha   90.00000000
_cell_angle_beta   90.00000000
_cell_angle_gamma   90.00000000
_symmetry_Int_Tables_number   1
_chemical_formula_structural   Ba(LuTe2)2
_chemical_formula_sum   'Ba4 Lu8 Te16'
_cell_volume   967.99626292
_cell_formula_units_Z   4
loop_
 _symmetry_equiv_pos_site_id
 _symmetry_equiv_pos_as_xyz
  1  'x, y, z'
loop_
 _atom_site_type_symbol
 _atom_site_label
 _atom_site_symmetry_multiplicity
 _atom_site_fract_x
 _atom_site_fract_y
 _atom_site_fract_z
 _atom_site_occupancy
  Ba  Ba0  1  0.25000000  0.23864136  0.33047098  1
  Ba  Ba1  1  0.25000000  0.73864136  0.16952902  1
  Ba  Ba2  1  0.75000000  0.76135864  0.66952902  1
  Ba  Ba3  1  0.75000000  0.26135864  0.83047098  1
  Lu  Lu0  1  0.25000000  0.08118434  0.59692774  1
  Lu  Lu1  1  0.25000000  0.58118434  0.90307226  1
  Lu  Lu2  1  0.75000000  0.91881566  0.40307226  1
  Lu  Lu3  1  0.75000000  0.41881566  0.09692774  1
  Lu  Lu4  1  0.25000000  0.55763513  0.38977667  1
  Lu  Lu5  1  0.25000000  0.05763513  0.11022333  1
  Lu  Lu6  1  0.75000000  0.44236487  0.61022333  1
  Lu  Lu7  1  0.75000000  0.94236487  0.88977667  1
  Te  Te0  1  0.25000000  0.08866672  0.92535255  1
  Te  Te1  1  0.25000000  0.58866672  0.57464745  1
  Te  Te2  1  0.75000000  0.91133328  0.07464745  1
  Te  Te3  1  0.75000000  0.41133328  0.42535255  1
  Te  Te4  1  0.25000000  0.29616865  0.65536758  1
  Te  Te5  1  0.25000000  0.79616865  0.84463242  1
  Te  Te6  1  0.75000000  0.70383135  0.34463242  1
  Te  Te7  1  0.75000000  0.20383135  0.15536758  1
  Te  Te8  1  0.25000000  0.37631009  0.97277036  1
  Te  Te9  1  0.25000000  0.87631009  0.52722964  1
  Te  Te10  1  0.75000000  0.62368991  0.02722964  1
  Te  Te11  1  0.75000000  0.12368991  0.47277036  1
  Te  Te12  1  0.25000000  0.47215624  0.21571873  1
  Te  Te13  1  0.25000000  0.97215624  0.28428127  1
  Te  Te14  1  0.75000000  0.52784376  0.78428127  1
  Te  Te15  1  0.75000000  0.02784376  0.71571873  1
loop_
_geom_bond_atom_site_label_1
_geom_bond_atom_site_label_2
_geom_bond_distance
_geom_bond_site_symmetry_2
Ba0 Te11 3.542623 1_555
Ba0 Te11 3.542623 1_455
Ba0 Te3 3.572698 1_555
Ba0 Te3 3.572698 1_455
Ba0 Te7 3.603169 1_455
Ba0 Te7 3.603169 1_555
Ba0 Te12 3.684852 1_555
Ba0 Te13 3.718000 1_545
Ba1 Te10 3.542623 1_455
Ba1 Te10 3.542623 1_555
Ba1 Te2 3.572698 1_455
Ba1 Te2 3.572698 1_555
Ba1 Te6 3.603169 1_455
Ba1 Te6 3.603169 1_555
Ba1 Te13 3.684852 1_555
Ba1 Te12 3.718000 1_555
Ba2 Te9 3.542623 1_555
Ba2 Te9 3.542623 1_655
Ba2 Te1 3.572698 1_555
Ba2 Te1 3.572698 1_655
Ba2 Te5 3.603169 1_555
Ba2 Te5 3.603169 1_655
Ba2 Te14 3.684852 1_555
Ba2 Te15 3.718000 1_565
Ba3 Te8 3.542623 1_655
Ba3 Te8 3.542623 1_555
Ba3 Te0 3.572698 1_655
Ba3 Te0 3.572698 1_555
Ba3 Te4 3.603169 1_555
Ba3 Te4 3.603169 1_655
Ba3 Te15 3.684852 1_555
Ba3 Te14 3.718000 1_555
Lu0 Te15 3.005708 1_455
Lu0 Te15 3.005708 1_555
Lu0 Te9 3.015790 1_545
Lu0 Te11 3.029069 1_455
Lu0 Te11 3.029069 1_555
Lu0 Te4 3.085076 1_555
Lu1 Te14 3.005708 1_555
Lu1 Te14 3.005708 1_455
Lu1 Te8 3.015790 1_555
Lu1 Te10 3.029069 1_556
Lu1 Te10 3.029069 1_456
Lu1 Te5 3.085076 1_555
Lu2 Te13 3.005708 1_655
Lu2 Te13 3.005708 1_555
Lu2 Te11 3.015790 1_565
Lu2 Te9 3.029069 1_555
Lu2 Te9 3.029069 1_655
Lu2 Te6 3.085076 1_555
Lu3 Te12 3.005708 1_555
Lu3 Te12 3.005708 1_655
Lu3 Te10 3.015790 1_555
Lu3 Te8 3.029069 1_554
Lu3 Te8 3.029069 1_654
Lu3 Te7 3.085076 1_555
Lu4 Te1 2.994119 1_555
Lu4 Te12 3.025400 1_555
Lu4 Te3 3.033454 1_455
Lu4 Te3 3.033454 1_555
Lu4 Te6 3.065060 1_555
Lu4 Te6 3.065060 1_455
Lu5 Te0 2.994119 1_554
Lu5 Te13 3.025400 1_545
Lu5 Te2 3.033454 1_445
Lu5 Te2 3.033454 1_545
Lu5 Te7 3.065060 1_455
Lu5 Te7 3.065060 1_555
Lu6 Te3 2.994119 1_555
Lu6 Te14 3.025400 1_555
Lu6 Te1 3.033454 1_555
Lu6 Te1 3.033454 1_655
Lu6 Te4 3.065060 1_555
Lu6 Te4 3.065060 1_655
Lu7 Te2 2.994119 1_556
Lu7 Te15 3.025400 1_565
Lu7 Te0 3.033454 1_565
Lu7 Te0 3.033454 1_665
Lu7 Te5 3.065060 1_555
Lu7 Te5 3.065060 1_655
