# generated using pymatgen
data_Ba4Cu3IO12
_symmetry_space_group_name_H-M   'P 1'
_cell_length_a   7.08143603
_cell_length_b   7.08143603
_cell_length_c   7.08143603
_cell_angle_alpha   109.47122063
_cell_angle_beta   109.47122063
_cell_angle_gamma   109.47122063
_symmetry_Int_Tables_number   1
_chemical_formula_structural   Ba4Cu3IO12
_chemical_formula_sum   'Ba4 Cu3 I1 O12'
_cell_volume   273.36450237
_cell_formula_units_Z   1
loop_
 _symmetry_equiv_pos_site_id
 _symmetry_equiv_pos_as_xyz
  1  'x, y, z'
loop_
 _atom_site_type_symbol
 _atom_site_label
 _atom_site_symmetry_multiplicity
 _atom_site_fract_x
 _atom_site_fract_y
 _atom_site_fract_z
 _atom_site_occupancy
  Ba  Ba0  1  0.50000000  0.50000000  0.50000000  1
  Ba  Ba1  1  0.00000000  0.50000000  0.00000000  1
  Ba  Ba2  1  0.50000000  0.00000000  0.00000000  1
  Ba  Ba3  1  0.00000000  0.00000000  0.50000000  1
  Cu  Cu0  1  0.50000000  0.50000000  0.00000000  1
  Cu  Cu1  1  0.00000000  0.50000000  0.50000000  1
  Cu  Cu2  1  0.50000000  0.00000000  0.50000000  1
  I  I0  1  0.00000000  0.00000000  0.00000000  1
  O  O0  1  0.25000000  0.50000000  0.75000000  1
  O  O1  1  0.23427900  0.23427900  0.00000000  1
  O  O2  1  0.00000000  0.76572100  0.76572100  1
  O  O3  1  0.00000000  0.23427900  0.23427900  1
  O  O4  1  0.23427900  0.00000000  0.23427900  1
  O  O5  1  0.76572100  0.76572100  0.00000000  1
  O  O6  1  0.76572100  0.00000000  0.76572100  1
  O  O7  1  0.75000000  0.50000000  0.25000000  1
  O  O8  1  0.50000000  0.75000000  0.25000000  1
  O  O9  1  0.50000000  0.25000000  0.75000000  1
  O  O10  1  0.75000000  0.25000000  0.50000000  1
  O  O11  1  0.25000000  0.75000000  0.50000000  1
loop_
_geom_bond_atom_site_label_1
_geom_bond_atom_site_label_2
_geom_bond_distance
_geom_bond_site_symmetry_2
Ba0 O10 2.890984 1_555
Ba0 O9 2.890984 1_555
Ba0 O0 2.890984 1_555
Ba0 O7 2.890984 1_555
Ba0 O8 2.890984 1_555
Ba0 O11 2.890984 1_555
Ba0 O6 2.893841 1_565
Ba0 O4 2.893841 1_555
Ba0 O1 2.893841 1_555
Ba0 O5 2.893841 1_556
Ba0 O2 2.893841 1_655
Ba0 O3 2.893841 1_555
Ba1 O9 2.890984 1_454
Ba1 O0 2.890984 1_554
Ba1 O7 2.890984 1_455
Ba1 O8 2.890984 1_555
Ba1 O10 2.890984 1_454
Ba1 O11 2.890984 1_555
Ba1 O5 2.893841 1_455
Ba1 O1 2.893841 1_555
Ba1 O2 2.893841 1_554
Ba1 O6 2.893841 1_454
Ba1 O4 2.893841 1_565
Ba1 O3 2.893841 1_555
Ba2 O10 2.890984 1_555
Ba2 O11 2.890984 1_544
Ba2 O8 2.890984 1_545
Ba2 O7 2.890984 1_555
Ba2 O0 2.890984 1_544
Ba2 O9 2.890984 1_554
Ba2 O6 2.893841 1_554
Ba2 O5 2.893841 1_545
Ba2 O1 2.893841 1_555
Ba2 O4 2.893841 1_555
Ba2 O2 2.893841 1_544
Ba2 O3 2.893841 1_655
Ba3 O8 2.890984 1_445
Ba3 O9 2.890984 1_555
Ba3 O11 2.890984 1_545
Ba3 O0 2.890984 1_555
Ba3 O7 2.890984 1_445
Ba3 O10 2.890984 1_455
Ba3 O5 2.893841 1_445
Ba3 O1 2.893841 1_556
Ba3 O4 2.893841 1_555
Ba3 O6 2.893841 1_455
Ba3 O3 2.893841 1_555
Ba3 O2 2.893841 1_545
Cu0 O0 2.044234 1_554
Cu0 O7 2.044234 1_555
Cu0 O8 2.044234 1_555
Cu0 O9 2.044234 1_554
Cu0 O1 2.172784 1_555
Cu0 O5 2.172784 1_555
Cu1 O10 2.044234 1_455
Cu1 O11 2.044234 1_555
Cu1 O0 2.044234 1_555
Cu1 O7 2.044234 1_455
Cu1 O2 2.172784 1_555
Cu1 O3 2.172784 1_555
Cu2 O10 2.044234 1_555
Cu2 O9 2.044234 1_555
Cu2 O11 2.044234 1_545
Cu2 O8 2.044234 1_545
Cu2 O4 2.172784 1_555
Cu2 O6 2.172784 1_555
I0 O3 1.915685 1_555
I0 O4 1.915685 1_555
I0 O1 1.915685 1_555
I0 O2 1.915685 1_544
I0 O5 1.915685 1_445
I0 O6 1.915685 1_454
