# generated using pymatgen
data_CsY(BH4)4
_symmetry_space_group_name_H-M   'P 1'
_cell_length_a   10.88884846
_cell_length_b   10.88884846
_cell_length_c   10.88884846
_cell_angle_alpha   138.76102376
_cell_angle_beta   138.76102376
_cell_angle_gamma   59.73943168
_symmetry_Int_Tables_number   1
_chemical_formula_structural   CsY(BH4)4
_chemical_formula_sum   'Cs2 Y2 B8 H32'
_cell_volume   555.37358812
_cell_formula_units_Z   2
loop_
 _symmetry_equiv_pos_site_id
 _symmetry_equiv_pos_as_xyz
  1  'x, y, z'
loop_
 _atom_site_type_symbol
 _atom_site_label
 _atom_site_symmetry_multiplicity
 _atom_site_fract_x
 _atom_site_fract_y
 _atom_site_fract_z
 _atom_site_occupancy
  Cs  Cs0  1  0.75000000  0.25000000  0.50000000  1
  Cs  Cs1  1  0.00000000  0.00000000  0.00000000  1
  Y  Y0  1  0.25000000  0.75000000  0.50000000  1
  Y  Y1  1  0.50000000  0.50000000  0.00000000  1
  B  B0  1  0.06301300  0.92762100  0.63363200  1
  B  B1  1  0.29398900  0.42938100  0.36636800  1
  B  B2  1  0.45601100  0.82061900  0.13363200  1
  B  B3  1  0.68698700  0.32237900  0.86636800  1
  B  B4  1  0.07237900  0.70601100  0.13539200  1
  B  B5  1  0.57061900  0.93698700  0.86460800  1
  B  B6  1  0.17938100  0.31301300  0.63539200  1
  B  B7  1  0.67762100  0.54398900  0.36460800  1
  H  H0  1  0.95951600  0.83088300  0.40955100  1
  H  H1  1  0.42133100  0.54996500  0.59044900  1
  H  H2  1  0.32866900  0.70003500  0.90955100  1
  H  H3  1  0.79048400  0.41911700  0.09044900  1
  H  H4  1  0.16911700  0.57866900  0.12863300  1
  H  H5  1  0.45003500  0.04048400  0.87136700  1
  H  H6  1  0.29996500  0.20951600  0.62863300  1
  H  H7  1  0.58088300  0.67133100  0.37136700  1
  H  H8  1  0.15138800  0.81986800  0.67711200  1
  H  H9  1  0.14275700  0.47427600  0.32288800  1
  H  H10  1  0.60724300  0.77572400  0.17711200  1
  H  H11  1  0.59861200  0.43013200  0.82288800  1
  H  H12  1  0.18013200  0.85724300  0.33152000  1
  H  H13  1  0.52572400  0.84861200  0.66848000  1
  H  H14  1  0.22427600  0.40138800  0.83152000  1
  H  H15  1  0.56986800  0.39275700  0.16848000  1
  H  H16  1  0.17868500  0.03573300  0.74229400  1
  H  H17  1  0.29344000  0.43639100  0.25770600  1
  H  H18  1  0.45656000  0.81360900  0.24229400  1
  H  H19  1  0.57131500  0.21426700  0.75770600  1
  H  H20  1  0.96426700  0.70656000  0.14295200  1
  H  H21  1  0.56360900  0.82131500  0.85704800  1
  H  H22  1  0.18639100  0.42868500  0.64295200  1
  H  H23  1  0.78573300  0.54344000  0.35704800  1
  H  H24  1  0.97292900  0.01404200  0.69763200  1
  H  H25  1  0.31641100  0.27529700  0.30236800  1
  H  H26  1  0.43358900  0.97470300  0.19763200  1
  H  H27  1  0.77707100  0.23595800  0.80236800  1
  H  H28  1  0.98595800  0.68358900  0.95888700  1
  H  H29  1  0.72470300  0.02707100  0.04111300  1
  H  H30  1  0.02529700  0.22292900  0.45888700  1
  H  H31  1  0.76404200  0.56641100  0.54111300  1
loop_
_geom_bond_atom_site_label_1
_geom_bond_atom_site_label_2
_geom_bond_distance
_geom_bond_site_symmetry_2
Cs0 H30 3.194137 1_655
Cs0 H27 3.194137 1_555
Cs0 H26 3.194146 1_545
Cs0 H31 3.194148 1_555
Cs0 H25 3.361256 1_555
Cs0 H28 3.361259 1_555
Cs0 H29 3.361266 1_555
Cs0 H24 3.361266 1_555
Cs1 H24 3.194137 1_454
Cs1 H29 3.194137 1_455
Cs1 H25 3.194146 1_555
Cs1 H28 3.194148 1_444
Cs1 H26 3.361256 1_545
Cs1 H31 3.361259 1_444
Cs1 H30 3.361266 1_555
Cs1 H27 3.361266 1_454
B0 H24 1.202017 1_465
B0 H0 1.236412 1_455
B0 H16 1.237152 1_565
B0 H8 1.240609 1_555
B1 H25 1.202016 1_555
B1 H1 1.236410 1_555
B1 H17 1.237160 1_555
B1 H9 1.240599 1_555
B2 H26 1.202016 1_555
B2 H2 1.236410 1_554
B2 H18 1.237160 1_555
B2 H10 1.240599 1_555
B3 H27 1.202017 1_555
B3 H3 1.236412 1_556
B3 H19 1.237152 1_555
B3 H11 1.240609 1_555
B4 H28 1.202011 1_454
B4 H4 1.236405 1_555
B4 H20 1.237157 1_455
B4 H12 1.240603 1_555
B5 H29 1.202017 1_566
B5 H5 1.236412 1_565
B5 H21 1.237152 1_555
B5 H13 1.240609 1_555
B6 H30 1.202017 1_555
B6 H6 1.236412 1_555
B6 H22 1.237152 1_555
B6 H14 1.240609 1_555
B7 H31 1.202011 1_555
B7 H7 1.236405 1_555
B7 H23 1.237157 1_555
B7 H15 1.240603 1_555
H0 Y0 2.358438 1_655
H1 Y0 2.358438 1_555
H2 Y1 2.358438 1_556
H3 Y1 2.358438 1_555
H4 Y0 2.358442 1_555
H5 Y0 2.358438 1_545
H6 Y1 2.358438 1_556
H7 Y1 2.358442 1_555
H8 Y0 2.352770 1_555
H9 Y0 2.352764 1_555
H10 Y1 2.352764 1_555
H11 Y1 2.352770 1_556
H12 Y0 2.352760 1_555
H13 Y0 2.352770 1_555
H14 Y1 2.352770 1_556
H15 Y1 2.352760 1_555
H16 Y0 2.354752 1_545
H17 Y0 2.354755 1_555
H18 Y1 2.354755 1_555
H19 Y1 2.354752 1_556
H20 Y0 2.354747 1_655
H21 Y0 2.354752 1_555
H22 Y1 2.354752 1_556
H23 Y1 2.354747 1_555
