# generated using pymatgen
data_Cs3PuH4O7
_symmetry_space_group_name_H-M   'P 1'
_cell_length_a   6.96118312
_cell_length_b   12.05309700
_cell_length_c   12.55244266
_cell_angle_alpha   90.00000000
_cell_angle_beta   90.45350421
_cell_angle_gamma   90.00000000
_symmetry_Int_Tables_number   1
_chemical_formula_structural   Cs3PuH4O7
_chemical_formula_sum   'Cs12 Pu4 H16 O28'
_cell_volume   1053.16484041
_cell_formula_units_Z   4
loop_
 _symmetry_equiv_pos_site_id
 _symmetry_equiv_pos_as_xyz
  1  'x, y, z'
loop_
 _atom_site_type_symbol
 _atom_site_label
 _atom_site_symmetry_multiplicity
 _atom_site_fract_x
 _atom_site_fract_y
 _atom_site_fract_z
 _atom_site_occupancy
  Cs  Cs0  1  0.79491200  0.12047300  0.55094500  1
  Cs  Cs1  1  0.29491200  0.37952700  0.05094500  1
  Cs  Cs2  1  0.20508800  0.87952700  0.44905500  1
  Cs  Cs3  1  0.70508800  0.62047300  0.94905500  1
  Cs  Cs4  1  0.77367200  0.27896300  0.25471000  1
  Cs  Cs5  1  0.27367200  0.22103700  0.75471000  1
  Cs  Cs6  1  0.22632800  0.72103700  0.74529000  1
  Cs  Cs7  1  0.72632800  0.77896300  0.24529000  1
  Cs  Cs8  1  0.82320300  0.96286500  0.86527100  1
  Cs  Cs9  1  0.32320300  0.53713500  0.36527100  1
  Cs  Cs10  1  0.17679700  0.03713500  0.13472900  1
  Cs  Cs11  1  0.67679700  0.46286500  0.63472900  1
  Pu  Pu0  1  0.78923100  0.29373000  0.90688600  1
  Pu  Pu1  1  0.28923100  0.20627000  0.40688600  1
  Pu  Pu2  1  0.21076900  0.70627000  0.09311400  1
  Pu  Pu3  1  0.71076900  0.79373000  0.59311400  1
  H  H0  1  0.04764900  0.47002000  0.86513900  1
  H  H1  1  0.54764900  0.02998000  0.36513900  1
  H  H2  1  0.95235100  0.52998000  0.13486100  1
  H  H3  1  0.45235100  0.97002000  0.63486100  1
  H  H4  1  0.49605500  0.12872000  0.95079600  1
  H  H5  1  0.99605500  0.37128000  0.45079600  1
  H  H6  1  0.50394500  0.87128000  0.04920400  1
  H  H7  1  0.00394500  0.62872000  0.54920400  1
  H  H8  1  0.12124700  0.45467300  0.70440400  1
  H  H9  1  0.62124700  0.04532700  0.20440400  1
  H  H10  1  0.87875300  0.54532700  0.29559600  1
  H  H11  1  0.37875300  0.95467300  0.79559600  1
  H  H12  1  0.15296800  0.42010100  0.58263200  1
  H  H13  1  0.65296800  0.07989900  0.08263200  1
  H  H14  1  0.84703200  0.57989900  0.41736800  1
  H  H15  1  0.34703200  0.92010100  0.91736800  1
  O  O0  1  0.76789600  0.20759500  0.77961800  1
  O  O1  1  0.26789600  0.29240500  0.27961800  1
  O  O2  1  0.23210400  0.79240500  0.22038200  1
  O  O3  1  0.73210400  0.70759500  0.72038200  1
  O  O4  1  0.57605000  0.38167600  0.86134200  1
  O  O5  1  0.07605000  0.11832400  0.36134200  1
  O  O6  1  0.42395000  0.61832400  0.13865800  1
  O  O7  1  0.92395000  0.88167600  0.63865800  1
  O  O8  1  0.81065100  0.38313300  0.03207900  1
  O  O9  1  0.31065100  0.11686700  0.53207900  1
  O  O10  1  0.18934900  0.61686700  0.96792100  1
  O  O11  1  0.68934900  0.88313300  0.46792100  1
  O  O12  1  0.00055600  0.20599600  0.95205700  1
  O  O13  1  0.50055600  0.29400400  0.45205700  1
  O  O14  1  0.99944400  0.79400400  0.04794300  1
  O  O15  1  0.49944400  0.70599600  0.54794300  1
  O  O16  1  0.00085500  0.41420700  0.81514900  1
  O  O17  1  0.50085500  0.08579300  0.31514900  1
  O  O18  1  0.99914500  0.58579300  0.18485100  1
  O  O19  1  0.49914500  0.91420700  0.68485100  1
  O  O20  1  0.57917500  0.17169500  0.99780800  1
  O  O21  1  0.07917500  0.32830500  0.49780800  1
  O  O22  1  0.42082500  0.82830500  0.00219200  1
  O  O23  1  0.92082500  0.67169500  0.50219200  1
  O  O24  1  0.19004700  0.47830600  0.63754400  1
  O  O25  1  0.69004700  0.02169400  0.13754400  1
  O  O26  1  0.80995300  0.52169400  0.36245600  1
  O  O27  1  0.30995300  0.97830600  0.86245600  1
loop_
_geom_bond_atom_site_label_1
_geom_bond_atom_site_label_2
_geom_bond_distance
_geom_bond_site_symmetry_2
Cs0 O0 3.063629 1_555
Cs0 H1 3.086829 1_555
Cs0 O5 3.093343 1_655
Cs0 O11 3.130089 1_545
Cs0 O13 3.173946 1_555
Cs0 H3 3.181867 1_545
Cs0 O7 3.207448 1_545
Cs0 O21 3.264442 1_655
Cs0 O9 3.377747 1_555
Cs0 O9 3.600088 1_655
Cs1 O1 3.063629 1_555
Cs1 H0 3.086829 1_554
Cs1 O4 3.093343 1_554
Cs1 O10 3.130089 1_554
Cs1 O12 3.173946 1_554
Cs1 H2 3.181867 1_455
Cs1 O6 3.207448 1_555
Cs1 O20 3.264442 1_554
Cs1 O8 3.377747 1_455
Cs1 O8 3.600088 1_555
Cs2 O2 3.063629 1_555
Cs2 H3 3.086829 1_555
Cs2 O7 3.093343 1_455
Cs2 O9 3.130089 1_565
Cs2 O15 3.173946 1_555
Cs2 H1 3.181867 1_565
Cs2 O5 3.207448 1_565
Cs2 O23 3.264442 1_455
Cs2 O11 3.377747 1_555
Cs2 O11 3.600088 1_455
Cs3 O3 3.063629 1_555
Cs3 H2 3.086829 1_556
Cs3 O6 3.093343 1_556
Cs3 O8 3.130089 1_556
Cs3 O14 3.173946 1_556
Cs3 H0 3.181867 1_655
Cs3 O4 3.207448 1_555
Cs3 O22 3.264442 1_556
Cs3 O10 3.377747 1_655
Cs3 O10 3.600088 1_555
Cs4 H9 3.073117 1_555
Cs4 O8 3.076311 1_555
Cs4 O17 3.102584 1_555
Cs4 H5 3.103633 1_555
Cs4 O13 3.139821 1_555
Cs4 O5 3.150629 1_655
Cs4 O26 3.232191 1_555
Cs4 O1 3.455896 1_655
Cs4 O1 3.540827 1_555
Cs5 H8 3.073117 1_555
Cs5 O9 3.076311 1_555
Cs5 O16 3.102584 1_555
Cs5 H4 3.103633 1_555
Cs5 O12 3.139821 1_555
Cs5 O4 3.150629 1_555
Cs5 O27 3.232191 1_545
Cs5 O0 3.455896 1_555
Cs5 O0 3.540827 1_455
Cs6 H11 3.073117 1_555
Cs6 O10 3.076311 1_555
Cs6 O19 3.102584 1_555
Cs6 H7 3.103633 1_555
Cs6 O15 3.139821 1_555
Cs6 O7 3.150629 1_455
Cs6 O24 3.232191 1_555
Cs6 O3 3.455896 1_455
Cs6 O3 3.540827 1_555
Cs7 H10 3.073117 1_555
Cs7 O11 3.076311 1_555
Cs7 O18 3.102584 1_555
Cs7 H6 3.103633 1_555
Cs7 O14 3.139821 1_555
Cs7 O6 3.150629 1_555
Cs7 O25 3.232191 1_565
Cs7 O2 3.455896 1_555
Cs7 O2 3.540827 1_655
Cs8 O7 3.093944 1_555
Cs8 O0 3.162069 1_565
Cs8 H11 3.209989 1_555
Cs8 H4 3.220829 1_565
Cs8 O19 3.237400 1_555
Cs8 O14 3.295575 1_556
Cs8 H13 3.299936 1_566
Cs8 O12 3.358181 1_665
Cs8 O27 3.393927 1_655
Cs8 H6 3.401397 1_556
Cs8 O3 3.627433 1_555
Cs9 O6 3.093944 1_555
Cs9 O1 3.162069 1_555
Cs9 H10 3.209989 1_455
Cs9 H5 3.220829 1_455
Cs9 O18 3.237400 1_455
Cs9 O15 3.295575 1_555
Cs9 H12 3.299936 1_555
Cs9 O13 3.358181 1_555
Cs9 O26 3.393927 1_555
Cs9 H7 3.401397 1_555
Cs9 O2 3.627433 1_555
Cs10 O5 3.093944 1_555
Cs10 O2 3.162069 1_545
Cs10 H9 3.209989 1_555
Cs10 H6 3.220829 1_545
Cs10 O17 3.237400 1_555
Cs10 O12 3.295575 1_554
Cs10 H15 3.299936 1_544
Cs10 O14 3.358181 1_445
Cs10 O25 3.393927 1_455
Cs10 H4 3.401397 1_554
Cs10 O1 3.627433 1_555
Cs11 O4 3.093944 1_555
Cs11 O3 3.162069 1_555
Cs11 H8 3.209989 1_655
Cs11 H7 3.220829 1_655
Cs11 O16 3.237400 1_655
Cs11 O13 3.295575 1_555
Cs11 H14 3.299936 1_555
Cs11 O15 3.358181 1_555
Cs11 O24 3.393927 1_555
Cs11 H5 3.401397 1_555
Cs11 O0 3.627433 1_555
H0 O16 0.974256 1_555
H1 O17 0.974256 1_555
H2 O18 0.974256 1_555
H3 O19 0.974256 1_555
H4 O20 0.972589 1_555
H5 O21 0.972589 1_655
H6 O22 0.972589 1_555
H7 O23 0.972589 1_455
H8 O24 1.010558 1_555
H9 O25 1.010558 1_555
H10 O26 1.010558 1_555
H11 O27 1.010558 1_555
H12 O24 1.015424 1_555
H12 O21 1.616503 1_555
H13 O25 1.015424 1_555
H13 O20 1.616503 1_554
H14 O26 1.015424 1_555
H14 O23 1.616503 1_555
H15 O27 1.015424 1_555
H15 O22 1.616503 1_556
O0 Pu0 1.910034 1_555
O1 Pu1 1.910034 1_555
O2 Pu2 1.910034 1_555
O3 Pu3 1.910034 1_555
O4 Pu0 1.907689 1_555
O5 Pu1 1.907689 1_555
O6 Pu2 1.907689 1_555
O7 Pu3 1.907689 1_555
O8 Pu0 1.910302 1_554
O9 Pu1 1.910302 1_555
O10 Pu2 1.910302 1_556
O11 Pu3 1.910302 1_555
O12 Pu0 1.894883 1_455
O13 Pu1 1.894883 1_555
O14 Pu2 1.894883 1_655
O15 Pu3 1.894883 1_555
O16 Pu0 2.373120 1_455
O17 Pu1 2.373120 1_555
O18 Pu2 2.373120 1_655
O19 Pu3 2.373120 1_555
O20 Pu0 2.372900 1_555
O21 Pu1 2.372900 1_555
O22 Pu2 2.372900 1_555
O23 Pu3 2.372900 1_555
