# generated using pymatgen
data_VZnF4
_symmetry_space_group_name_H-M   'P 1'
_cell_length_a   5.20146200
_cell_length_b   5.68482759
_cell_length_c   5.87162565
_cell_angle_alpha   109.58808508
_cell_angle_beta   104.30881412
_cell_angle_gamma   89.77054727
_symmetry_Int_Tables_number   1
_chemical_formula_structural   VZnF4
_chemical_formula_sum   'V2 Zn2 F8'
_cell_volume   157.90585420
_cell_formula_units_Z   2
loop_
 _symmetry_equiv_pos_site_id
 _symmetry_equiv_pos_as_xyz
  1  'x, y, z'
loop_
 _atom_site_type_symbol
 _atom_site_label
 _atom_site_symmetry_multiplicity
 _atom_site_fract_x
 _atom_site_fract_y
 _atom_site_fract_z
 _atom_site_occupancy
  V  V0  1  0.50000000  0.00000000  0.00000000  1
  V  V1  1  0.00000000  0.50000000  0.00000000  1
  Zn  Zn0  1  0.69691100  0.66617500  0.44079300  1
  Zn  Zn1  1  0.30308900  0.33382500  0.55920700  1
  F  F0  1  0.69671800  0.95770100  0.72286800  1
  F  F1  1  0.78685100  0.33787700  0.19480700  1
  F  F2  1  0.30328200  0.04229900  0.27713200  1
  F  F3  1  0.78058700  0.79195000  0.18344900  1
  F  F4  1  0.21314900  0.66212300  0.80519300  1
  F  F5  1  0.70712400  0.44876400  0.67074100  1
  F  F6  1  0.21941300  0.20805000  0.81655100  1
  F  F7  1  0.29287600  0.55123600  0.32925900  1
loop_
_geom_bond_atom_site_label_1
_geom_bond_atom_site_label_2
_geom_bond_distance
_geom_bond_site_symmetry_2
F0 Zn0 1.910510 1_555
F0 V0 2.076369 1_566
F1 Zn0 2.075495 1_555
F1 V1 2.174591 1_655
F1 V0 2.220392 1_555
F2 Zn1 1.910510 1_555
F2 V0 2.076369 1_555
F3 Zn0 2.008946 1_555
F3 V1 2.147341 1_655
F3 V0 2.180010 1_565
F4 Zn1 2.075495 1_555
F4 V1 2.174591 1_556
F4 V0 2.220392 1_566
F5 V1 2.076859 1_656
F5 Zn1 2.077550 1_555
F5 Zn0 2.106243 1_555
F6 Zn1 2.008946 1_555
F6 V1 2.147341 1_556
F6 V0 2.180010 1_556
F7 V1 2.076859 1_555
F7 Zn0 2.077550 1_555
F7 Zn1 2.106243 1_555
