# generated using pymatgen
data_Ce5CuSn3
_symmetry_space_group_name_H-M   'P 1'
_cell_length_a   6.44920600
_cell_length_b   9.47945402
_cell_length_c   9.47739576
_cell_angle_alpha   120.00718914
_cell_angle_beta   90.00000000
_cell_angle_gamma   90.00000000
_symmetry_Int_Tables_number   1
_chemical_formula_structural   Ce5CuSn3
_chemical_formula_sum   'Ce10 Cu2 Sn6'
_cell_volume   501.73887953
_cell_formula_units_Z   2
loop_
 _symmetry_equiv_pos_site_id
 _symmetry_equiv_pos_as_xyz
  1  'x, y, z'
loop_
 _atom_site_type_symbol
 _atom_site_label
 _atom_site_symmetry_multiplicity
 _atom_site_fract_x
 _atom_site_fract_y
 _atom_site_fract_z
 _atom_site_occupancy
  Ce  Ce0  1  0.74986700  0.26470700  0.00000000  1
  Ce  Ce1  1  0.75008300  0.73526000  0.73524700  1
  Ce  Ce2  1  0.75008300  0.00001200  0.26475300  1
  Ce  Ce3  1  0.24986700  0.73529300  0.00000000  1
  Ce  Ce4  1  0.25008300  0.26474000  0.26475300  1
  Ce  Ce5  1  0.25008300  0.99998800  0.73524700  1
  Ce  Ce6  1  0.50002000  0.33330500  0.66656600  1
  Ce  Ce7  1  0.50002000  0.66673900  0.33343400  1
  Ce  Ce8  1  0.00002000  0.66669500  0.33343400  1
  Ce  Ce9  1  0.00002000  0.33326100  0.66656600  1
  Cu  Cu0  1  0.49984600  0.99995800  0.00000000  1
  Cu  Cu1  1  0.99984600  0.00004200  0.00000000  1
  Sn  Sn0  1  0.75012100  0.61551600  0.00000000  1
  Sn  Sn1  1  0.74998000  0.38446500  0.38437100  1
  Sn  Sn2  1  0.74998000  0.00009500  0.61562900  1
  Sn  Sn3  1  0.25012100  0.38448400  0.00000000  1
  Sn  Sn4  1  0.24998000  0.61553500  0.61562900  1
  Sn  Sn5  1  0.24998000  0.99990500  0.38437100  1
loop_
_geom_bond_atom_site_label_1
_geom_bond_atom_site_label_2
_geom_bond_distance
_geom_bond_site_symmetry_2
Ce0 Cu1 2.982207 1_555
Ce0 Cu0 2.983023 1_545
Ce0 Sn2 3.228408 1_554
Ce0 Sn1 3.228410 1_555
Ce0 Sn0 3.325478 1_555
Ce0 Sn3 3.417116 1_555
Ce0 Sn3 3.420206 1_655
Ce1 Cu1 2.981813 1_566
Ce1 Cu0 2.983130 1_556
Ce1 Sn0 3.230046 1_556
Ce1 Sn2 3.230240 1_565
Ce1 Sn1 3.325007 1_555
Ce1 Sn4 3.417621 1_655
Ce1 Sn4 3.418874 1_555
Ce2 Cu1 2.981817 1_555
Ce2 Cu0 2.983135 1_545
Ce2 Sn0 3.230038 1_545
Ce2 Sn1 3.230239 1_555
Ce2 Sn2 3.324997 1_555
Ce2 Sn5 3.417621 1_645
Ce2 Sn5 3.418874 1_545
Ce3 Cu0 2.982207 1_555
Ce3 Cu1 2.983023 1_465
Ce3 Sn5 3.228408 1_555
Ce3 Sn4 3.228410 1_554
Ce3 Sn3 3.325478 1_555
Ce3 Sn0 3.417116 1_455
Ce3 Sn0 3.420206 1_555
Ce4 Cu0 2.981813 1_545
Ce4 Cu1 2.983130 1_455
Ce4 Sn3 3.230046 1_555
Ce4 Sn5 3.230240 1_545
Ce4 Sn4 3.325007 1_555
Ce4 Sn1 3.417621 1_555
Ce4 Sn1 3.418874 1_455
Ce5 Cu0 2.981817 1_556
Ce5 Cu1 2.983135 1_466
Ce5 Sn3 3.230038 1_566
Ce5 Sn4 3.230239 1_555
Ce5 Sn5 3.324997 1_555
Ce5 Sn2 3.417621 1_565
Ce5 Sn2 3.418874 1_465
Ce6 Sn4 3.359005 1_555
Ce6 Sn2 3.359111 1_555
Ce6 Sn1 3.359168 1_555
Ce6 Sn3 3.359387 1_556
Ce6 Sn5 3.359646 1_545
Ce6 Sn0 3.359876 1_556
Ce7 Sn5 3.358996 1_555
Ce7 Sn1 3.359119 1_555
Ce7 Sn2 3.359173 1_565
Ce7 Sn3 3.359387 1_555
Ce7 Sn4 3.359642 1_555
Ce7 Sn0 3.359877 1_555
Ce8 Sn1 3.359005 1_455
Ce8 Sn5 3.359111 1_555
Ce8 Sn4 3.359168 1_555
Ce8 Sn0 3.359387 1_455
Ce8 Sn2 3.359646 1_465
Ce8 Sn3 3.359876 1_555
Ce9 Sn2 3.358996 1_455
Ce9 Sn4 3.359119 1_555
Ce9 Sn5 3.359173 1_545
Ce9 Sn0 3.359387 1_456
Ce9 Sn1 3.359642 1_455
Ce9 Sn3 3.359877 1_556
