# generated using pymatgen
data_MgAl6FeSi2(BO9)2
_symmetry_space_group_name_H-M   'P 1'
_cell_length_a   5.82950900
_cell_length_b   10.44397300
_cell_length_c   11.16754000
_cell_angle_alpha   90.00000000
_cell_angle_beta   90.00000000
_cell_angle_gamma   90.00000000
_symmetry_Int_Tables_number   1
_chemical_formula_structural   MgAl6FeSi2(BO9)2
_chemical_formula_sum   'Mg2 Al12 Fe2 Si4 B4 O36'
_cell_volume   679.91595772
_cell_formula_units_Z   2
loop_
 _symmetry_equiv_pos_site_id
 _symmetry_equiv_pos_as_xyz
  1  'x, y, z'
loop_
 _atom_site_type_symbol
 _atom_site_label
 _atom_site_symmetry_multiplicity
 _atom_site_fract_x
 _atom_site_fract_y
 _atom_site_fract_z
 _atom_site_occupancy
  Mg  Mg0  1  0.00000000  0.15719300  0.71925200  1
  Mg  Mg1  1  0.00000000  0.84280700  0.21925200  1
  Al  Al0  1  0.74994900  0.25006500  0.50091400  1
  Al  Al1  1  0.25005100  0.74993500  0.00091400  1
  Al  Al2  1  0.25005100  0.25006500  0.50091400  1
  Al  Al3  1  0.74994900  0.74993500  0.00091400  1
  Al  Al4  1  0.75002000  0.74994400  0.49925100  1
  Al  Al5  1  0.24998000  0.25005600  0.99925100  1
  Al  Al6  1  0.24998000  0.74994400  0.49925100  1
  Al  Al7  1  0.75002000  0.25005600  0.99925100  1
  Al  Al8  1  0.00000000  0.02327200  0.94798600  1
  Al  Al9  1  0.00000000  0.97672800  0.44798600  1
  Al  Al10  1  0.50000000  0.47635100  0.05221700  1
  Al  Al11  1  0.50000000  0.52364900  0.55221700  1
  Fe  Fe0  1  0.50000000  0.34309300  0.28163500  1
  Fe  Fe1  1  0.50000000  0.65690700  0.78163500  1
  Si  Si0  1  0.00000000  0.81663700  0.76317200  1
  Si  Si1  1  0.00000000  0.18336300  0.26317200  1
  Si  Si2  1  0.50000000  0.68553600  0.23574800  1
  Si  Si3  1  0.50000000  0.31446400  0.73574800  1
  B  B0  1  0.50000000  0.99894200  0.50015700  1
  B  B1  1  0.50000000  0.00105800  0.00015700  1
  B  B2  1  0.00000000  0.50098000  0.49981400  1
  B  B3  1  0.00000000  0.49902000  0.99981400  1
  O  O0  1  0.00000000  0.13160700  0.52214500  1
  O  O1  1  0.00000000  0.86839300  0.02214500  1
  O  O2  1  0.50000000  0.36767800  0.48048400  1
  O  O3  1  0.50000000  0.63232200  0.98048400  1
  O  O4  1  0.72819600  0.25575400  0.67087100  1
  O  O5  1  0.27180400  0.74424600  0.17087100  1
  O  O6  1  0.22495600  0.24268400  0.33053000  1
  O  O7  1  0.77504400  0.75731600  0.83053000  1
  O  O8  1  0.77504400  0.24268400  0.33053000  1
  O  O9  1  0.22495600  0.75731600  0.83053000  1
  O  O10  1  0.27180400  0.25575400  0.67087100  1
  O  O11  1  0.72819600  0.74424600  0.17087100  1
  O  O12  1  0.50000000  0.70320200  0.59636400  1
  O  O13  1  0.50000000  0.29679800  0.09636400  1
  O  O14  1  0.00000000  0.79750000  0.40072400  1
  O  O15  1  0.00000000  0.20250000  0.90072400  1
  O  O16  1  0.00000000  0.77631500  0.62067000  1
  O  O17  1  0.00000000  0.22368500  0.12067000  1
  O  O18  1  0.50000000  0.72395500  0.37884400  1
  O  O19  1  0.50000000  0.27604500  0.87884400  1
  O  O20  1  0.70437800  0.06908600  0.00095800  1
  O  O21  1  0.29562200  0.93091400  0.50095800  1
  O  O22  1  0.20406000  0.43080700  0.99910100  1
  O  O23  1  0.79594000  0.56919300  0.49910100  1
  O  O24  1  0.79594000  0.43080700  0.99910100  1
  O  O25  1  0.20406000  0.56919300  0.49910100  1
  O  O26  1  0.29562200  0.06908600  0.00095800  1
  O  O27  1  0.70437800  0.93091400  0.50095800  1
  O  O28  1  0.50000000  0.12851400  0.49608600  1
  O  O29  1  0.50000000  0.87148600  0.99608600  1
  O  O30  1  0.00000000  0.37148800  0.50363600  1
  O  O31  1  0.00000000  0.62851200  0.00363600  1
  O  O32  1  0.00000000  0.97474900  0.78889900  1
  O  O33  1  0.00000000  0.02525100  0.28889900  1
  O  O34  1  0.50000000  0.52802000  0.20891800  1
  O  O35  1  0.50000000  0.47198000  0.70891800  1
loop_
_geom_bond_atom_site_label_1
_geom_bond_atom_site_label_2
_geom_bond_distance
_geom_bond_site_symmetry_2
Mg0 O10 1.965225 1_555
Mg0 O4 1.965225 1_455
Mg0 O32 2.058070 1_545
Mg0 O15 2.081104 1_555
Mg0 O0 2.217361 1_555
Mg1 O5 1.965225 1_555
Mg1 O11 1.965225 1_455
Mg1 O33 2.058070 1_565
Mg1 O14 2.081104 1_555
Mg1 O1 2.217361 1_555
Al0 O4 1.903161 1_555
Al0 O8 1.909942 1_555
Al0 O2 1.919368 1_555
Al0 O0 1.926558 1_655
Al0 O30 1.932334 1_655
Al0 O28 1.933276 1_555
Al1 O5 1.903161 1_555
Al1 O9 1.909942 1_554
Al1 O3 1.919368 1_554
Al1 O1 1.926558 1_555
Al1 O31 1.932334 1_555
Al1 O29 1.933276 1_554
Al2 O10 1.903161 1_555
Al2 O6 1.909942 1_555
Al2 O2 1.919368 1_555
Al2 O0 1.926558 1_555
Al2 O30 1.932334 1_555
Al2 O28 1.933276 1_555
Al3 O11 1.903161 1_555
Al3 O7 1.909942 1_554
Al3 O3 1.919368 1_554
Al3 O1 1.926558 1_655
Al3 O31 1.932334 1_655
Al3 O29 1.933276 1_554
Al4 O12 1.881162 1_555
Al4 O14 1.892343 1_655
Al4 O23 1.906645 1_555
Al4 O27 1.908777 1_555
Al4 O18 2.001511 1_555
Al4 O16 2.009495 1_655
Al5 O13 1.881162 1_556
Al5 O15 1.892343 1_555
Al5 O22 1.906645 1_555
Al5 O26 1.908777 1_556
Al5 O19 2.001511 1_555
Al5 O17 2.009495 1_556
Al6 O12 1.881162 1_555
Al6 O14 1.892343 1_555
Al6 O25 1.906645 1_555
Al6 O21 1.908777 1_555
Al6 O18 2.001511 1_555
Al6 O16 2.009495 1_555
Al7 O13 1.881162 1_556
Al7 O15 1.892343 1_655
Al7 O24 1.906645 1_555
Al7 O20 1.908777 1_556
Al7 O19 2.001511 1_555
Al7 O17 2.009495 1_656
Al8 O1 1.817236 1_546
Al8 O32 1.847475 1_545
Al8 O26 1.883817 1_556
Al8 O20 1.883817 1_456
Al8 O15 1.944840 1_555
Al9 O0 1.817236 1_565
Al9 O33 1.847475 1_565
Al9 O21 1.883817 1_555
Al9 O27 1.883817 1_455
Al9 O14 1.944840 1_555
Al10 O3 1.815277 1_554
Al10 O34 1.831277 1_555
Al10 O22 1.885304 1_554
Al10 O24 1.885304 1_554
Al10 O13 1.938972 1_555
Al11 O2 1.815277 1_555
Al11 O35 1.831277 1_555
Al11 O25 1.885304 1_555
Al11 O23 1.885304 1_555
Al11 O12 1.938972 1_555
Fe0 O8 1.992150 1_555
Fe0 O6 1.992150 1_555
Fe0 O34 2.095151 1_555
Fe0 O13 2.124765 1_555
Fe0 O2 2.235449 1_555
Fe1 O7 1.992150 1_555
Fe1 O9 1.992150 1_555
Fe1 O35 2.095151 1_555
Fe1 O12 2.124765 1_555
Fe1 O3 2.235449 1_555
B0 O28 1.354010 1_565
B0 O27 1.387211 1_555
B0 O21 1.387211 1_555
B1 O29 1.354010 1_544
B1 O20 1.387211 1_555
B1 O26 1.387211 1_555
B2 O30 1.353084 1_555
B2 O23 1.386605 1_455
B2 O25 1.386605 1_555
B3 O31 1.353084 1_556
B3 O24 1.386605 1_455
B3 O22 1.386605 1_555
O4 Si3 1.634171 1_555
O5 Si2 1.634171 1_555
O6 Si1 1.633831 1_555
O7 Si0 1.633831 1_655
O8 Si1 1.633831 1_655
O9 Si0 1.633831 1_555
O10 Si3 1.634171 1_555
O11 Si2 1.634171 1_555
O16 Si0 1.646174 1_555
O17 Si1 1.646174 1_555
O18 Si2 1.647635 1_555
O19 Si3 1.647635 1_555
O32 Si0 1.676125 1_555
O33 Si1 1.676125 1_555
O34 Si2 1.672156 1_555
O35 Si3 1.672156 1_555
