# generated using pymatgen
data_AlCu6SClO19
_symmetry_space_group_name_H-M   'P 1'
_cell_length_a   7.86872187
_cell_length_b   7.86872187
_cell_length_c   14.28969800
_cell_angle_alpha   90.00000000
_cell_angle_beta   90.00000000
_cell_angle_gamma   119.99999893
_symmetry_Int_Tables_number   1
_chemical_formula_structural   AlCu6SClO19
_chemical_formula_sum   'Al2 Cu12 S2 Cl2 O38'
_cell_volume   766.23516080
_cell_formula_units_Z   2
loop_
 _symmetry_equiv_pos_site_id
 _symmetry_equiv_pos_as_xyz
  1  'x, y, z'
loop_
 _atom_site_type_symbol
 _atom_site_label
 _atom_site_symmetry_multiplicity
 _atom_site_fract_x
 _atom_site_fract_y
 _atom_site_fract_z
 _atom_site_occupancy
  Al  Al0  1  0.66666700  0.33333300  0.38409900  1
  Al  Al1  1  0.33333300  0.66666700  0.88409900  1
  Cu  Cu0  1  0.75776500  0.80073000  0.88995100  1
  Cu  Cu1  1  0.04296500  0.24223500  0.88995100  1
  Cu  Cu2  1  0.95703500  0.19927000  0.38995100  1
  Cu  Cu3  1  0.19927000  0.95703500  0.88995100  1
  Cu  Cu4  1  0.80073000  0.75776500  0.38995100  1
  Cu  Cu5  1  0.24223500  0.04296500  0.38995100  1
  Cu  Cu6  1  0.62347300  0.09066800  0.87688200  1
  Cu  Cu7  1  0.46719400  0.37652700  0.87688200  1
  Cu  Cu8  1  0.53280600  0.90933200  0.37688200  1
  Cu  Cu9  1  0.90933200  0.53280600  0.87688200  1
  Cu  Cu10  1  0.09066800  0.62347300  0.37688200  1
  Cu  Cu11  1  0.37652700  0.46719400  0.37688200  1
  S  S0  1  0.00000000  0.00000000  0.60208100  1
  S  S1  1  0.00000000  0.00000000  0.10208100  1
  Cl  Cl0  1  0.66666700  0.33333300  0.74937600  1
  Cl  Cl1  1  0.33333300  0.66666700  0.24937600  1
  O  O0  1  0.84684100  0.29464900  0.93835700  1
  O  O1  1  0.44780700  0.15315900  0.93835700  1
  O  O2  1  0.55219300  0.70535100  0.43835700  1
  O  O3  1  0.70535100  0.55219300  0.93835700  1
  O  O4  1  0.29464900  0.84684100  0.43835700  1
  O  O5  1  0.15315900  0.44780700  0.43835700  1
  O  O6  1  0.82081400  0.03755000  0.82988900  1
  O  O7  1  0.21673600  0.17918600  0.82988900  1
  O  O8  1  0.78326400  0.96245000  0.32988900  1
  O  O9  1  0.96245000  0.78326400  0.82988900  1
  O  O10  1  0.03755000  0.82081400  0.32988900  1
  O  O11  1  0.17918600  0.21673600  0.32988900  1
  O  O12  1  0.84207400  0.03648900  0.63272300  1
  O  O13  1  0.19441500  0.15792600  0.63272300  1
  O  O14  1  0.80558500  0.96351100  0.13272300  1
  O  O15  1  0.96351100  0.80558500  0.63272300  1
  O  O16  1  0.03648900  0.84207400  0.13272300  1
  O  O17  1  0.15792600  0.19441500  0.13272300  1
  O  O18  1  0.42015800  0.63498300  0.62625600  1
  O  O19  1  0.21482500  0.57984200  0.62625600  1
  O  O20  1  0.78517500  0.36501700  0.12625600  1
  O  O21  1  0.36501700  0.78517500  0.62625600  1
  O  O22  1  0.63498300  0.42015800  0.12625600  1
  O  O23  1  0.57984200  0.21482500  0.12625600  1
  O  O24  1  0.49578700  0.59705400  0.81506800  1
  O  O25  1  0.10126700  0.50421300  0.81506800  1
  O  O26  1  0.89873300  0.40294600  0.31506800  1
  O  O27  1  0.40294600  0.89873300  0.81506800  1
  O  O28  1  0.59705400  0.49578700  0.31506800  1
  O  O29  1  0.50421300  0.10126700  0.31506800  1
  O  O30  1  0.00000000  0.00000000  0.99291800  1
  O  O31  1  0.00000000  0.00000000  0.49291800  1
  O  O32  1  0.56736900  0.83137200  0.95214900  1
  O  O33  1  0.26400300  0.43263100  0.95214900  1
  O  O34  1  0.73599700  0.16862800  0.45214900  1
  O  O35  1  0.16862800  0.73599700  0.95214900  1
  O  O36  1  0.83137200  0.56736900  0.45214900  1
  O  O37  1  0.43263100  0.26400300  0.45214900  1
loop_
_geom_bond_atom_site_label_1
_geom_bond_atom_site_label_2
_geom_bond_distance
_geom_bond_site_symmetry_2
Al0 O26 1.899302 1_555
Al0 O29 1.899303 1_555
Al0 O28 1.899308 1_555
Al0 O34 1.905227 1_555
Al0 O36 1.905232 1_555
Al0 O37 1.905234 1_555
Al1 O27 1.899302 1_555
Al1 O25 1.899303 1_555
Al1 O24 1.899308 1_555
Al1 O35 1.905227 1_555
Al1 O32 1.905232 1_555
Al1 O33 1.905234 1_555
Cu0 O32 1.858450 1_555
Cu0 O6 1.879037 1_565
Cu0 O9 1.889690 1_555
Cu0 O3 1.914842 1_555
Cu0 O24 2.158536 1_555
Cu0 O30 2.295202 1_665
Cu1 O33 1.858450 1_555
Cu1 O7 1.879037 1_555
Cu1 O6 1.889690 1_455
Cu1 O0 1.914849 1_455
Cu1 O25 2.158536 1_555
Cu1 O30 2.295202 1_555
Cu2 O34 1.858450 1_555
Cu2 O8 1.879037 1_545
Cu2 O11 1.889690 1_655
Cu2 O5 1.914844 1_655
Cu2 O26 2.158536 1_555
Cu2 O31 2.295202 1_655
Cu3 O35 1.858450 1_555
Cu3 O9 1.879037 1_455
Cu3 O7 1.889690 1_565
Cu3 O1 1.914844 1_565
Cu3 O27 2.158536 1_555
Cu3 O30 2.295202 1_565
Cu4 O36 1.858450 1_555
Cu4 O10 1.879037 1_655
Cu4 O8 1.889690 1_555
Cu4 O2 1.914842 1_555
Cu4 O28 2.158536 1_555
Cu4 O31 2.295202 1_665
Cu5 O37 1.858450 1_555
Cu5 O11 1.879037 1_555
Cu5 O10 1.889690 1_545
Cu5 O4 1.914849 1_545
Cu5 O29 2.158536 1_555
Cu5 O31 2.295202 1_555
Cu6 O27 1.857844 1_545
Cu6 O1 1.898378 1_555
Cu6 O0 1.901596 1_555
Cu6 O6 1.919875 1_555
Cu6 O32 2.147996 1_545
Cu7 O24 1.857841 1_555
Cu7 O3 1.898378 1_555
Cu7 O1 1.901596 1_555
Cu7 O7 1.919870 1_555
Cu7 O33 2.147989 1_555
Cu8 O29 1.857848 1_565
Cu8 O4 1.898378 1_555
Cu8 O2 1.901596 1_555
Cu8 O8 1.919868 1_555
Cu8 O34 2.147994 1_565
Cu9 O25 1.857848 1_655
Cu9 O0 1.898378 1_555
Cu9 O3 1.901596 1_555
Cu9 O9 1.919868 1_555
Cu9 O35 2.147994 1_655
Cu10 O26 1.857844 1_455
Cu10 O5 1.898378 1_555
Cu10 O4 1.901596 1_555
Cu10 O10 1.919875 1_555
Cu10 O36 2.147996 1_455
Cu11 O28 1.857841 1_555
Cu11 O2 1.898378 1_555
Cu11 O5 1.901596 1_555
Cu11 O11 1.919870 1_555
Cu11 O37 2.147989 1_555
Cl0 Cu6 2.536207 1_555
Cl0 Cu9 2.536210 1_555
Cl0 Cu7 2.536217 1_555
Cl1 Cu10 2.536207 1_555
Cl1 Cu8 2.536210 1_555
Cl1 Cu11 2.536217 1_555
O12 S0 1.474858 1_655
O13 S0 1.474858 1_555
O14 S1 1.474858 1_665
O15 S0 1.474858 1_665
O16 S1 1.474858 1_565
O17 S1 1.474858 1_555
O18 O21 1.448356 1_555
O18 O19 1.448356 1_555
O19 O21 1.448356 1_555
O20 O22 1.448356 1_555
O20 O23 1.448356 1_555
O22 O23 1.448356 1_555
O30 S1 1.559906 1_556
O31 S0 1.559906 1_555
