# generated using pymatgen
data_Si2N3
_symmetry_space_group_name_H-M   'P 1'
_cell_length_a   4.94681200
_cell_length_b   5.38461468
_cell_length_c   5.38461468
_cell_angle_alpha   118.16474800
_cell_angle_beta   90.00000000
_cell_angle_gamma   90.00000000
_symmetry_Int_Tables_number   1
_chemical_formula_structural   Si2N3
_chemical_formula_sum   'Si4 N6'
_cell_volume   126.44547939
_cell_formula_units_Z   2
loop_
 _symmetry_equiv_pos_site_id
 _symmetry_equiv_pos_as_xyz
  1  'x, y, z'
loop_
 _atom_site_type_symbol
 _atom_site_label
 _atom_site_symmetry_multiplicity
 _atom_site_fract_x
 _atom_site_fract_y
 _atom_site_fract_z
 _atom_site_occupancy
  Si  Si0  1  0.50632900  0.02383700  0.66926100  1
  Si  Si1  1  0.50632900  0.66926100  0.02383700  1
  Si  Si2  1  0.00632900  0.97616300  0.33073900  1
  Si  Si3  1  0.00632900  0.33073900  0.97616300  1
  N  N0  1  0.16638900  0.10381600  0.65757400  1
  N  N1  1  0.16638900  0.65757400  0.10381600  1
  N  N2  1  0.66638900  0.89618400  0.34242600  1
  N  N3  1  0.66638900  0.34242600  0.89618400  1
  N  N4  1  0.02456400  0.22271600  0.22271600  1
  N  N5  1  0.52456400  0.77728400  0.77728400  1
loop_
_geom_bond_atom_site_label_1
_geom_bond_atom_site_label_2
_geom_bond_distance
_geom_bond_site_symmetry_2
N0 Si0 1.744377 1_555
N0 Si2 1.747747 1_545
N0 Si3 1.756142 1_555
N1 Si1 1.744377 1_555
N1 Si3 1.747747 1_554
N1 Si2 1.756142 1_555
N2 Si2 1.744377 1_655
N2 Si0 1.747747 1_565
N2 Si1 1.756142 1_555
N3 Si3 1.744377 1_655
N3 Si1 1.747747 1_556
N3 Si0 1.756142 1_555
N4 Si3 1.684622 1_554
N4 Si2 1.684622 1_545
N5 Si1 1.684622 1_556
N5 Si0 1.684622 1_565
