# generated using pymatgen
data_K3Na(WO4)2
_symmetry_space_group_name_H-M   'P 1'
_cell_length_a   6.21333916
_cell_length_b   6.21333916
_cell_length_c   15.62695708
_cell_angle_alpha   89.73252746
_cell_angle_beta   89.73252746
_cell_angle_gamma   59.57788138
_symmetry_Int_Tables_number   1
_chemical_formula_structural   K3Na(WO4)2
_chemical_formula_sum   'K6 Na2 W4 O16'
_cell_volume   520.21855389
_cell_formula_units_Z   2
loop_
 _symmetry_equiv_pos_site_id
 _symmetry_equiv_pos_as_xyz
  1  'x, y, z'
loop_
 _atom_site_type_symbol
 _atom_site_label
 _atom_site_symmetry_multiplicity
 _atom_site_fract_x
 _atom_site_fract_y
 _atom_site_fract_z
 _atom_site_occupancy
  K  K0  1  0.93846900  0.06153100  0.75000000  1
  K  K1  1  0.06153100  0.93846900  0.25000000  1
  K  K2  1  0.64793400  0.69484500  0.91123100  1
  K  K3  1  0.30515500  0.35206600  0.58876900  1
  K  K4  1  0.35206600  0.30515500  0.08876900  1
  K  K5  1  0.69484500  0.64793400  0.41123100  1
  Na  Na0  1  0.00000000  0.00000000  0.50000000  1
  Na  Na1  1  0.00000000  0.00000000  0.00000000  1
  W  W0  1  0.63798500  0.68340500  0.63625100  1
  W  W1  1  0.31659500  0.36201500  0.86374900  1
  W  W2  1  0.36201500  0.31659500  0.36374900  1
  W  W3  1  0.68340500  0.63798500  0.13625100  1
  O  O0  1  0.76935300  0.85821600  0.58943000  1
  O  O1  1  0.14178400  0.23064700  0.91057000  1
  O  O2  1  0.23064700  0.14178400  0.41057000  1
  O  O3  1  0.85821600  0.76935300  0.08943000  1
  O  O4  1  0.30328900  0.85578800  0.62282400  1
  O  O5  1  0.14421200  0.69671100  0.87717600  1
  O  O6  1  0.69671100  0.14421200  0.37717600  1
  O  O7  1  0.85578800  0.30328900  0.12282400  1
  O  O8  1  0.76315300  0.39597400  0.57661300  1
  O  O9  1  0.60402600  0.23684700  0.92338700  1
  O  O10  1  0.23684700  0.60402600  0.42338700  1
  O  O11  1  0.39597400  0.76315300  0.07661300  1
  O  O12  1  0.60624500  0.73026300  0.24597800  1
  O  O13  1  0.26973700  0.39375500  0.25402200  1
  O  O14  1  0.39375500  0.26973700  0.75402200  1
  O  O15  1  0.73026300  0.60624500  0.74597800  1
loop_
_geom_bond_atom_site_label_1
_geom_bond_atom_site_label_2
_geom_bond_distance
_geom_bond_site_symmetry_2
K0 O5 2.787302 1_645
K0 O4 2.787302 1_645
K0 O15 2.949058 1_555
K0 O14 2.949058 1_555
K0 O0 3.224078 1_545
K0 O1 3.224078 1_655
K0 O9 3.244801 1_555
K0 O8 3.244801 1_555
K1 O6 2.787302 1_465
K1 O7 2.787302 1_465
K1 O12 2.949058 1_555
K1 O13 2.949058 1_555
K1 O3 3.224078 1_455
K1 O2 3.224078 1_565
K1 O10 3.244801 1_555
K1 O11 3.244801 1_555
K2 O15 2.636147 1_555
K2 O11 2.934237 1_556
K2 O1 2.961663 1_655
K2 O9 2.998201 1_555
K2 O5 3.132477 1_655
K2 O5 3.171389 1_555
K2 O3 3.214742 1_556
K2 O1 3.220311 1_565
K2 O9 3.244468 1_565
K3 O14 2.636147 1_555
K3 O10 2.934237 1_555
K3 O0 2.961663 1_545
K3 O8 2.998201 1_555
K3 O4 3.132477 1_545
K3 O4 3.171389 1_555
K3 O2 3.214742 1_555
K3 O0 3.220311 1_455
K3 O8 3.244468 1_455
K4 O13 2.636147 1_555
K4 O9 2.934237 1_554
K4 O3 2.961663 1_455
K4 O11 2.998201 1_555
K4 O7 3.132477 1_455
K4 O7 3.171389 1_555
K4 O1 3.214742 1_554
K4 O3 3.220311 1_545
K4 O11 3.244468 1_545
K5 O12 2.636147 1_555
K5 O8 2.934237 1_555
K5 O2 2.961663 1_565
K5 O10 2.998201 1_555
K5 O6 3.132477 1_565
K5 O6 3.171389 1_555
K5 O0 3.214742 1_555
K5 O2 3.220311 1_655
K5 O10 3.244468 1_655
Na0 O8 2.448772 1_455
Na0 O10 2.448772 1_545
Na0 O2 2.455858 1_555
Na0 O0 2.455858 1_445
Na0 O4 2.519055 1_545
Na0 O6 2.519055 1_455
Na1 O11 2.448772 1_545
Na1 O9 2.448772 1_454
Na1 O1 2.455858 1_554
Na1 O3 2.455858 1_445
Na1 O7 2.519055 1_455
Na1 O5 2.519055 1_544
O0 W0 1.807256 1_555
O1 W1 1.807256 1_555
O2 W2 1.807256 1_555
O3 W3 1.807256 1_555
O4 W0 1.806130 1_555
O5 W1 1.806130 1_555
O6 W2 1.806130 1_555
O7 W3 1.806130 1_555
O8 W0 1.806935 1_555
O9 W1 1.806935 1_555
O10 W2 1.806935 1_555
O11 W3 1.806935 1_555
O12 W3 1.794965 1_555
O13 W2 1.794965 1_555
O14 W1 1.794965 1_555
O15 W0 1.794965 1_555
