# generated using pymatgen
data_SrCaEuSbO6
_symmetry_space_group_name_H-M   'P 1'
_cell_length_a   5.81650321
_cell_length_b   5.81650321
_cell_length_c   8.46269898
_cell_angle_alpha   90.00000000
_cell_angle_beta   90.00000000
_cell_angle_gamma   90.00000000
_symmetry_Int_Tables_number   1
_chemical_formula_structural   SrCaEuSbO6
_chemical_formula_sum   'Sr2 Ca2 Eu2 Sb2 O12'
_cell_volume   286.30757426
_cell_formula_units_Z   2
loop_
 _symmetry_equiv_pos_site_id
 _symmetry_equiv_pos_as_xyz
  1  'x, y, z'
loop_
 _atom_site_type_symbol
 _atom_site_label
 _atom_site_symmetry_multiplicity
 _atom_site_fract_x
 _atom_site_fract_y
 _atom_site_fract_z
 _atom_site_occupancy
  Sr  Sr0  1  -0.00000000  0.50000000  0.25000000  1
  Sr  Sr1  1  0.50000000  0.00000000  0.75000000  1
  Ca  Ca0  1  -0.00000000  0.00000000  -0.00000000  1
  Ca  Ca1  1  0.50000000  0.50000000  0.50000000  1
  Eu  Eu0  1  0.50000000  0.00000000  0.25000000  1
  Eu  Eu1  1  -0.00000000  0.50000000  0.75000000  1
  Sb  Sb0  1  -0.00000000  0.00000000  0.50000000  1
  Sb  Sb1  1  0.50000000  0.50000000  0.00000000  1
  O  O0  1  -0.00000000  0.00000000  0.26371635  1
  O  O1  1  0.50000000  0.50000000  0.23628365  1
  O  O2  1  -0.00000000  0.00000000  0.73628365  1
  O  O3  1  0.50000000  0.50000000  0.76371635  1
  O  O4  1  0.34415159  0.19236840  0.01307812  1
  O  O5  1  0.65584841  0.80763160  0.01307812  1
  O  O6  1  0.80763160  0.34415159  0.98692188  1
  O  O7  1  0.19236840  0.65584841  0.98692188  1
  O  O8  1  0.84415159  0.30763160  0.51307812  1
  O  O9  1  0.15584841  0.69236840  0.51307812  1
  O  O10  1  0.30763160  0.15584841  0.48692188  1
  O  O11  1  0.69236840  0.84415159  0.48692188  1
loop_
_geom_bond_atom_site_label_1
_geom_bond_atom_site_label_2
_geom_bond_distance
_geom_bond_site_symmetry_2
Ca0 O0 2.231752 1_555
Ca0 O2 2.231752 1_554
Ca0 O7 2.295920 1_544
Ca0 O6 2.295920 1_454
Ca0 O5 2.295920 1_445
Ca0 O4 2.295920 1_555
Ca1 O1 2.231752 1_555
Ca1 O3 2.231752 1_555
Ca1 O8 2.295920 1_555
Ca1 O11 2.295920 1_555
Ca1 O9 2.295920 1_555
Ca1 O10 2.295920 1_555
Eu0 O10 2.468544 1_555
Eu0 O11 2.468544 1_545
Eu0 O5 2.468544 1_545
Eu0 O4 2.468544 1_555
Eu0 O1 2.910567 1_545
Eu0 O0 2.910567 1_555
Eu0 O0 2.910567 1_655
Eu0 O1 2.910567 1_555
Eu1 O6 2.468544 1_455
Eu1 O9 2.468544 1_555
Eu1 O7 2.468544 1_555
Eu1 O8 2.468544 1_455
Eu1 O3 2.910567 1_455
Eu1 O2 2.910567 1_555
Eu1 O3 2.910567 1_555
Eu1 O2 2.910567 1_565
O0 Sb0 1.999597 1_555
O0 Sr0 2.910567 1_555
O0 Sr0 2.910567 1_545
O1 Sb1 1.999597 1_555
O1 Sr0 2.910567 1_555
O1 Sr0 2.910567 1_655
O2 Sb0 1.999597 1_555
O2 Sr1 2.910567 1_455
O2 Sr1 2.910567 1_555
O3 Sb1 1.999597 1_556
O3 Sr1 2.910567 1_565
O3 Sr1 2.910567 1_555
O4 Sb1 2.008909 1_555
O4 Sr1 2.651477 1_554
O5 Sb1 2.008909 1_555
O5 Sr1 2.651477 1_564
O6 Sb1 2.008909 1_556
O6 Sr0 2.651477 1_656
O7 Sb1 2.008909 1_556
O7 Sr0 2.651477 1_556
O8 Sb0 2.008909 1_655
O8 Sr0 2.651477 1_655
O9 Sb0 2.008909 1_565
O9 Sr0 2.651477 1_555
O10 Sb0 2.008909 1_555
O10 Sr1 2.651477 1_555
O11 Sb0 2.008909 1_665
O11 Sr1 2.651477 1_565
