# generated using pymatgen
data_Ba3Ce
_symmetry_space_group_name_H-M   'P 1'
_cell_length_a   7.41578882
_cell_length_b   7.41578882
_cell_length_c   7.41578882
_cell_angle_alpha   131.03614004
_cell_angle_beta   131.03614004
_cell_angle_gamma   71.75566640
_symmetry_Int_Tables_number   1
_chemical_formula_structural   Ba3Ce
_chemical_formula_sum   'Ba3 Ce1'
_cell_volume   226.99356283
_cell_formula_units_Z   1
loop_
 _symmetry_equiv_pos_site_id
 _symmetry_equiv_pos_as_xyz
  1  'x, y, z'
loop_
 _atom_site_type_symbol
 _atom_site_label
 _atom_site_symmetry_multiplicity
 _atom_site_fract_x
 _atom_site_fract_y
 _atom_site_fract_z
 _atom_site_occupancy
  Ba  Ba0  1  0.75000000  0.25000000  0.50000000  1
  Ba  Ba1  1  0.25000000  0.75000000  0.50000000  1
  Ba  Ba2  1  0.50000000  0.50000000  0.00000000  1
  Ce  Ce0  1  0.00000000  -0.00000000  0.00000000  1
loop_
_geom_bond_atom_site_label_1
_geom_bond_atom_site_label_2
_geom_bond_distance
_geom_bond_site_symmetry_2
Ba0 Ba2 4.297744 1_545
Ba0 Ba2 4.297744 1_656
Ba0 Ce0 4.297744 1_666
Ba0 Ba2 4.297744 1_556
Ba0 Ce0 4.297744 1_656
Ba0 Ce0 4.297744 1_655
Ba0 Ce0 4.297744 1_555
Ba0 Ba2 4.297744 1_555
Ba0 Ba1 4.346089 1_555
Ba0 Ba1 4.346089 1_645
Ba0 Ba1 4.346089 1_544
Ba0 Ba1 4.346089 1_656
Ba1 Ce0 4.297744 1_565
Ba1 Ce0 4.297744 1_666
Ba1 Ba2 4.297744 1_566
Ba1 Ba2 4.297744 1_455
Ba1 Ba2 4.297744 1_556
Ba1 Ce0 4.297744 1_555
Ba1 Ba2 4.297744 1_555
Ba1 Ce0 4.297744 1_566
Ba2 Ce0 4.346089 1_666
Ba2 Ce0 4.346089 1_655
Ba2 Ce0 4.346089 1_554
Ba2 Ce0 4.346089 1_565
