# generated using pymatgen
data_BaNd2MnS5
_symmetry_space_group_name_H-M   'P 1'
_cell_length_a   8.87166106
_cell_length_b   8.87166106
_cell_length_c   8.87166106
_cell_angle_alpha   126.95044279
_cell_angle_beta   126.95044279
_cell_angle_gamma   78.33154977
_symmetry_Int_Tables_number   1
_chemical_formula_structural   BaNd2MnS5
_chemical_formula_sum   'Ba2 Nd4 Mn2 S10'
_cell_volume   431.88163689
_cell_formula_units_Z   2
loop_
 _symmetry_equiv_pos_site_id
 _symmetry_equiv_pos_as_xyz
  1  'x, y, z'
loop_
 _atom_site_type_symbol
 _atom_site_label
 _atom_site_symmetry_multiplicity
 _atom_site_fract_x
 _atom_site_fract_y
 _atom_site_fract_z
 _atom_site_occupancy
  Ba  Ba0  1  0.25000000  0.25000000  0.00000000  1
  Ba  Ba1  1  0.75000000  0.75000000  0.00000000  1
  Nd  Nd0  1  0.33811400  0.16188600  0.50000000  1
  Nd  Nd1  1  0.16188600  0.66188600  0.82377200  1
  Nd  Nd2  1  0.83811400  0.33811400  0.17622800  1
  Nd  Nd3  1  0.66188600  0.83811400  0.50000000  1
  Mn  Mn0  1  0.75000000  0.25000000  0.50000000  1
  Mn  Mn1  1  0.25000000  0.75000000  0.50000000  1
  S  S0  1  0.48305400  0.98305400  0.19980800  1
  S  S1  1  0.21675400  0.71675400  0.19980800  1
  S  S2  1  0.51694600  0.01694600  0.80019200  1
  S  S3  1  0.01694600  0.21675400  0.50000000  1
  S  S4  1  0.71675400  0.51694600  0.50000000  1
  S  S5  1  0.98305400  0.78324600  0.50000000  1
  S  S6  1  0.28324600  0.48305400  0.50000000  1
  S  S7  1  0.78324600  0.28324600  0.80019200  1
  S  S8  1  0.50000000  0.50000000  0.00000000  1
  S  S9  1  0.00000000  0.00000000  0.00000000  1
loop_
_geom_bond_atom_site_label_1
_geom_bond_atom_site_label_2
_geom_bond_distance
_geom_bond_site_symmetry_2
Ba0 S5 3.418460 1_444
Ba0 S3 3.418460 1_554
Ba0 S6 3.418460 1_555
Ba0 S0 3.418460 1_545
Ba0 S7 3.418460 1_454
Ba0 S4 3.418460 1_555
Ba0 S1 3.418460 1_555
Ba0 S2 3.418460 1_554
Ba0 S9 3.439196 1_555
Ba0 S8 3.439196 1_555
Ba1 S1 3.418460 1_655
Ba1 S3 3.418460 1_665
Ba1 S2 3.418460 1_564
Ba1 S0 3.418460 1_555
Ba1 S6 3.418460 1_554
Ba1 S4 3.418460 1_554
Ba1 S5 3.418460 1_555
Ba1 S7 3.418460 1_554
Ba1 S8 3.439196 1_555
Ba1 S9 3.439196 1_665
Nd0 S6 2.791846 1_555
Nd0 S3 2.791846 1_555
Nd0 S9 2.970438 1_555
Nd0 S8 2.970438 1_556
Nd0 S7 3.078191 1_555
Nd0 S0 3.078191 1_545
Nd0 S1 3.078191 1_545
Nd0 S2 3.078191 1_555
Nd1 S1 2.791846 1_556
Nd1 S0 2.791846 1_556
Nd1 S9 2.970438 1_566
Nd1 S8 2.970438 1_556
Nd1 S6 3.078191 1_555
Nd1 S5 3.078191 1_455
Nd1 S3 3.078191 1_555
Nd1 S4 3.078191 1_455
Nd2 S7 2.791846 1_554
Nd2 S2 2.791846 1_554
Nd2 S9 2.970438 1_655
Nd2 S8 2.970438 1_555
Nd2 S5 3.078191 1_555
Nd2 S4 3.078191 1_555
Nd2 S3 3.078191 1_655
Nd2 S6 3.078191 1_655
Nd3 S4 2.791846 1_555
Nd3 S5 2.791846 1_555
Nd3 S8 2.970438 1_555
Nd3 S9 2.970438 1_666
Nd3 S1 3.078191 1_555
Nd3 S0 3.078191 1_555
Nd3 S2 3.078191 1_565
Nd3 S7 3.078191 1_565
Mn0 S3 2.326602 1_655
Mn0 S0 2.326602 1_545
Mn0 S4 2.326602 1_555
Mn0 S7 2.326602 1_555
Mn1 S2 2.326602 1_565
Mn1 S6 2.326602 1_555
Mn1 S1 2.326602 1_555
Mn1 S5 2.326602 1_455
