# generated using pymatgen
data_LaMg6Cd
_symmetry_space_group_name_H-M   'P 1'
_cell_length_a   5.16713800
_cell_length_b   6.74445800
_cell_length_c   11.67312500
_cell_angle_alpha   90.00000000
_cell_angle_beta   90.00000000
_cell_angle_gamma   90.00000000
_symmetry_Int_Tables_number   1
_chemical_formula_structural   LaMg6Cd
_chemical_formula_sum   'La2 Mg12 Cd2'
_cell_volume   406.80309756
_cell_formula_units_Z   2
loop_
 _symmetry_equiv_pos_site_id
 _symmetry_equiv_pos_as_xyz
  1  'x, y, z'
loop_
 _atom_site_type_symbol
 _atom_site_label
 _atom_site_symmetry_multiplicity
 _atom_site_fract_x
 _atom_site_fract_y
 _atom_site_fract_z
 _atom_site_occupancy
  La  La0  1  0.00000000  0.50000000  0.33097000  1
  La  La1  1  0.00000000  0.00000000  0.83097000  1
  Mg  Mg0  1  0.00000000  0.25491400  0.08056200  1
  Mg  Mg1  1  0.00000000  0.74508600  0.08056200  1
  Mg  Mg2  1  0.00000000  0.50000000  0.83726100  1
  Mg  Mg3  1  0.50000000  0.26227400  0.92180900  1
  Mg  Mg4  1  0.50000000  0.73772600  0.92180900  1
  Mg  Mg5  1  0.50000000  0.50000000  0.66710700  1
  Mg  Mg6  1  0.00000000  0.75491400  0.58056200  1
  Mg  Mg7  1  0.00000000  0.24508600  0.58056200  1
  Mg  Mg8  1  0.00000000  0.00000000  0.33726100  1
  Mg  Mg9  1  0.50000000  0.76227400  0.42180900  1
  Mg  Mg10  1  0.50000000  0.23772600  0.42180900  1
  Mg  Mg11  1  0.50000000  0.00000000  0.16710700  1
  Cd  Cd0  1  0.50000000  0.50000000  0.15992100  1
  Cd  Cd1  1  0.50000000  0.00000000  0.65992100  1
loop_
_geom_bond_atom_site_label_1
_geom_bond_atom_site_label_2
_geom_bond_distance
_geom_bond_site_symmetry_2
La0 Mg9 3.305785 1_555
La0 Mg10 3.305785 1_455
La0 Mg10 3.305785 1_555
La0 Mg9 3.305785 1_455
La0 Mg1 3.358050 1_555
La0 Mg0 3.358050 1_555
La0 Mg8 3.373028 1_565
La0 Mg8 3.373028 1_555
La0 Mg6 3.382962 1_555
La0 Mg7 3.382962 1_555
La1 Mg4 3.305785 1_445
La1 Mg3 3.305785 1_555
La1 Mg4 3.305785 1_545
La1 Mg3 3.305785 1_455
La1 Mg6 3.358050 1_545
La1 Mg7 3.358050 1_555
La1 Mg2 3.373028 1_555
La1 Mg2 3.373028 1_545
La1 Mg0 3.382962 1_556
La1 Mg1 3.382962 1_546
Mg0 Mg3 3.179848 1_554
Mg0 Mg3 3.179848 1_454
Mg0 Mg11 3.263630 1_455
Mg0 Mg11 3.263630 1_555
Mg0 Mg2 3.286090 1_554
Mg0 Mg1 3.305944 1_555
Mg0 Mg1 3.438514 1_545
Mg0 Mg8 3.454668 1_555
Mg1 Mg4 3.179848 1_454
Mg1 Mg4 3.179848 1_554
Mg1 Mg11 3.263630 1_565
Mg1 Mg11 3.263630 1_465
Mg1 Mg2 3.286090 1_554
Mg1 Mg8 3.454668 1_565
Mg2 Mg3 3.196804 1_455
Mg2 Mg4 3.196804 1_455
Mg2 Mg3 3.196804 1_555
Mg2 Mg4 3.196804 1_555
Mg2 Mg5 3.258824 1_555
Mg2 Mg5 3.258824 1_455
Mg2 Mg7 3.454668 1_555
Mg2 Mg6 3.454668 1_555
Mg3 Mg5 3.377929 1_555
Mg4 Mg5 3.377929 1_555
Mg5 Mg6 3.263630 1_655
Mg5 Mg7 3.263630 1_555
Mg5 Mg7 3.263630 1_655
Mg5 Mg6 3.263630 1_555
Mg5 Mg9 3.365712 1_555
Mg6 Mg9 3.179848 1_455
Mg6 Mg9 3.179848 1_555
Mg6 Mg8 3.286090 1_565
Mg6 Mg7 3.305944 1_565
Mg6 Mg7 3.438514 1_555
Mg7 Mg8 3.286090 1_555
Mg8 Mg9 3.196804 1_445
Mg8 Mg9 3.196804 1_545
Mg10 Mg7 3.179848 1_655
Mg10 Mg7 3.179848 1_555
Mg10 Mg8 3.196804 1_555
Mg10 Mg8 3.196804 1_655
Mg10 Mg5 3.365712 1_555
Mg10 Mg11 3.377929 1_555
Mg11 Mg8 3.258824 1_555
Mg11 Mg8 3.258824 1_655
Mg11 Mg4 3.365712 1_544
Mg11 Mg3 3.365712 1_554
Mg11 Mg9 3.377929 1_545
Cd0 Mg1 3.203951 1_555
Cd0 Mg1 3.203951 1_655
Cd0 Mg0 3.203951 1_555
Cd0 Mg0 3.203951 1_655
Cd0 Mg4 3.208794 1_554
Cd0 Mg3 3.208794 1_554
Cd0 La0 3.265202 1_555
Cd0 La0 3.265202 1_655
Cd0 Mg11 3.373272 1_555
Cd0 Mg11 3.373272 1_565
Cd0 Mg9 3.531934 1_555
Cd0 Mg10 3.531934 1_555
Cd1 Mg7 3.203951 1_655
Cd1 Mg6 3.203951 1_645
Cd1 Mg6 3.203951 1_545
Cd1 Mg7 3.203951 1_555
Cd1 Mg9 3.208794 1_545
Cd1 Mg10 3.208794 1_555
Cd1 La1 3.265202 1_555
Cd1 La1 3.265202 1_655
Cd1 Mg5 3.373272 1_545
Cd1 Mg5 3.373272 1_555
Cd1 Mg3 3.531934 1_555
Cd1 Mg4 3.531934 1_545
