# generated using pymatgen
data_TmBiTe3
_symmetry_space_group_name_H-M   'P 1'
_cell_length_a   10.97105291
_cell_length_b   10.97105291
_cell_length_c   10.97105297
_cell_angle_alpha   23.05205677
_cell_angle_beta   23.05205677
_cell_angle_gamma   23.05205870
_symmetry_Int_Tables_number   1
_chemical_formula_structural   TmBiTe3
_chemical_formula_sum   'Tm1 Bi1 Te3'
_cell_volume   177.70710128
_cell_formula_units_Z   1
loop_
 _symmetry_equiv_pos_site_id
 _symmetry_equiv_pos_as_xyz
  1  'x, y, z'
loop_
 _atom_site_type_symbol
 _atom_site_label
 _atom_site_symmetry_multiplicity
 _atom_site_fract_x
 _atom_site_fract_y
 _atom_site_fract_z
 _atom_site_occupancy
  Tm  Tm0  1  0.39735500  0.39735500  0.39735500  1
  Bi  Bi0  1  0.60244000  0.60244000  0.60244000  1
  Te  Te0  1  0.00441900  0.00441900  0.00441900  1
  Te  Te1  1  0.21556600  0.21556600  0.21556600  1
  Te  Te2  1  0.78022100  0.78022100  0.78022100  1
loop_
_geom_bond_atom_site_label_1
_geom_bond_atom_site_label_2
_geom_bond_distance
_geom_bond_site_symmetry_2
Bi0 Te1 3.057357 1_556
Bi0 Te1 3.057358 1_565
Bi0 Te1 3.057358 1_655
Bi0 Te0 3.352659 1_665
Bi0 Te0 3.352659 1_566
Bi0 Te0 3.352659 1_656
Te0 Tm0 3.170311 1_554
Te0 Tm0 3.170311 1_455
Te0 Tm0 3.170311 1_545
Te2 Tm0 2.987262 1_556
Te2 Tm0 2.987263 1_655
Te2 Tm0 2.987263 1_565
