# generated using pymatgen
data_Mn6HO12
_symmetry_space_group_name_H-M   'P 1'
_cell_length_a   5.39553602
_cell_length_b   5.39553602
_cell_length_c   13.64714289
_cell_angle_alpha   87.64468074
_cell_angle_beta   87.64468074
_cell_angle_gamma   64.62545723
_symmetry_Int_Tables_number   1
_chemical_formula_structural   Mn6HO12
_chemical_formula_sum   'Mn12 H2 O24'
_cell_volume   358.53983750
_cell_formula_units_Z   2
loop_
 _symmetry_equiv_pos_site_id
 _symmetry_equiv_pos_as_xyz
  1  'x, y, z'
loop_
 _atom_site_type_symbol
 _atom_site_label
 _atom_site_symmetry_multiplicity
 _atom_site_fract_x
 _atom_site_fract_y
 _atom_site_fract_z
 _atom_site_occupancy
  Mn  Mn0  1  0.74601440  0.49864848  0.50239415  1
  Mn  Mn1  1  0.25176507  0.99904735  0.50081934  1
  Mn  Mn2  1  0.48032278  0.23107874  0.15593762  1
  Mn  Mn3  1  0.98811949  0.73809700  0.15976746  1
  Mn  Mn4  1  0.51894803  0.25724709  0.84470944  1
  Mn  Mn5  1  0.00808824  0.76928875  0.84483075  1
  Mn  Mn6  1  0.49864848  0.74601440  0.00239415  1
  Mn  Mn7  1  0.99904735  0.25176507  0.00081934  1
  Mn  Mn8  1  0.73809700  0.98811949  0.65976746  1
  Mn  Mn9  1  0.23107874  0.48032278  0.65593762  1
  Mn  Mn10  1  0.76928875  0.00808824  0.34483075  1
  Mn  Mn11  1  0.25724709  0.51894803  0.34470944  1
  H  H0  1  0.71628770  0.47455286  0.25683407  1
  H  H1  1  0.47455286  0.71628770  0.75683407  1
  O  O0  1  0.66646100  0.41235535  0.93374644  1
  O  O1  1  0.16320443  0.91637776  0.93424015  1
  O  O2  1  0.33300437  0.08377973  0.06887122  1
  O  O3  1  0.83493482  0.58464065  0.06923854  1
  O  O4  1  0.41235535  0.66646100  0.43374644  1
  O  O5  1  0.91637776  0.16320443  0.43424015  1
  O  O6  1  0.58464065  0.83493482  0.56923854  1
  O  O7  1  0.08377973  0.33300437  0.56887122  1
  O  O8  1  0.16549662  0.41540670  0.90476399  1
  O  O9  1  0.66155018  0.91086731  0.90460523  1
  O  O10  1  0.33523523  0.58161983  0.09731684  1
  O  O11  1  0.83382365  0.08771924  0.09632221  1
  O  O12  1  0.41540670  0.16549662  0.40476399  1
  O  O13  1  0.91086731  0.66155018  0.40460523  1
  O  O14  1  0.58161983  0.33523523  0.59731684  1
  O  O15  1  0.08771924  0.83382365  0.59632221  1
  O  O16  1  0.36431215  0.61306355  0.76866081  1
  O  O17  1  0.85696442  0.10730358  0.77155505  1
  O  O18  1  0.14167408  0.39563581  0.23238899  1
  O  O19  1  0.64632307  0.89189247  0.23295372  1
  O  O20  1  0.61306355  0.36431215  0.26866081  1
  O  O21  1  0.10730358  0.85696442  0.27155505  1
  O  O22  1  0.39563581  0.14167408  0.73238899  1
  O  O23  1  0.89189247  0.64632307  0.73295372  1
loop_
_geom_bond_atom_site_label_1
_geom_bond_atom_site_label_2
_geom_bond_distance
_geom_bond_site_symmetry_2
Mn0 O6 1.897165 1_555
Mn0 O4 1.900085 1_555
Mn0 O7 1.901667 1_655
Mn0 O5 1.904729 1_555
Mn0 O14 1.929831 1_555
Mn0 O13 1.954677 1_555
Mn1 O4 1.883083 1_555
Mn1 O5 1.892091 1_465
Mn1 O6 1.894340 1_555
Mn1 O7 1.897208 1_565
Mn1 O15 1.939794 1_555
Mn1 O12 1.947370 1_565
Mn2 O2 1.836289 1_555
Mn2 O10 1.867670 1_555
Mn2 O11 1.886225 1_555
Mn2 O18 1.935078 1_555
Mn2 O19 1.941796 1_545
Mn2 O20 2.004735 1_555
Mn3 O10 1.876050 1_655
Mn3 O11 1.892164 1_565
Mn3 O3 1.910384 1_555
Mn3 O21 1.914888 1_655
Mn3 O18 1.920360 1_655
Mn3 O19 1.921530 1_555
Mn4 O9 1.856517 1_545
Mn4 O0 1.882629 1_555
Mn4 O8 1.889714 1_555
Mn4 O17 1.905134 1_555
Mn4 O22 1.923314 1_555
Mn4 O16 1.998381 1_555
Mn5 O9 1.856525 1_455
Mn5 O1 1.884662 1_555
Mn5 O8 1.890747 1_555
Mn5 O17 1.906199 1_465
Mn5 O23 1.919062 1_455
Mn5 O16 2.001124 1_555
Mn6 O3 1.897165 1_555
Mn6 O0 1.900085 1_554
Mn6 O2 1.901667 1_565
Mn6 O1 1.904729 1_554
Mn6 O10 1.929831 1_555
Mn6 O9 1.954677 1_554
Mn7 O0 1.883083 1_554
Mn7 O1 1.892091 1_644
Mn7 O3 1.894340 1_555
Mn7 O2 1.897208 1_655
Mn7 O11 1.939794 1_555
Mn7 O8 1.947370 1_654
Mn8 O14 1.876050 1_565
Mn8 O15 1.892164 1_655
Mn8 O6 1.910384 1_555
Mn8 O17 1.914888 1_565
Mn8 O22 1.920360 1_565
Mn8 O23 1.921530 1_555
Mn9 O7 1.836289 1_555
Mn9 O14 1.867670 1_555
Mn9 O15 1.886225 1_555
Mn9 O22 1.935078 1_555
Mn9 O23 1.941796 1_455
Mn9 O16 2.004735 1_555
Mn10 O13 1.856525 1_545
Mn10 O5 1.884662 1_555
Mn10 O12 1.890747 1_555
Mn10 O21 1.906199 1_645
Mn10 O19 1.919062 1_545
Mn10 O20 2.001124 1_555
Mn11 O13 1.856517 1_455
Mn11 O4 1.882629 1_555
Mn11 O12 1.889714 1_555
Mn11 O21 1.905134 1_555
Mn11 O18 1.923314 1_555
Mn11 O20 1.998381 1_555
H0 O20 0.979126 1_555
H1 O16 0.979126 1_555
