# generated using pymatgen
data_ErMoC2
_symmetry_space_group_name_H-M   'P 1'
_cell_length_a   3.36321900
_cell_length_b   5.67741900
_cell_length_c   10.76234700
_cell_angle_alpha   90.00000000
_cell_angle_beta   90.00000000
_cell_angle_gamma   90.00000000
_symmetry_Int_Tables_number   1
_chemical_formula_structural   ErMoC2
_chemical_formula_sum   'Er4 Mo4 C8'
_cell_volume   205.50059571
_cell_formula_units_Z   4
loop_
 _symmetry_equiv_pos_site_id
 _symmetry_equiv_pos_as_xyz
  1  'x, y, z'
loop_
 _atom_site_type_symbol
 _atom_site_label
 _atom_site_symmetry_multiplicity
 _atom_site_fract_x
 _atom_site_fract_y
 _atom_site_fract_z
 _atom_site_occupancy
  Er  Er0  1  0.25000000  0.08525700  0.86254200  1
  Er  Er1  1  0.25000000  0.58525700  0.63745800  1
  Er  Er2  1  0.75000000  0.91474300  0.13745800  1
  Er  Er3  1  0.75000000  0.41474300  0.36254200  1
  Mo  Mo0  1  0.25000000  0.40116200  0.10927700  1
  Mo  Mo1  1  0.25000000  0.90116200  0.39072300  1
  Mo  Mo2  1  0.75000000  0.59883800  0.89072300  1
  Mo  Mo3  1  0.75000000  0.09883800  0.60927700  1
  C  C0  1  0.25000000  0.15916700  0.24691100  1
  C  C1  1  0.25000000  0.65916700  0.25308900  1
  C  C2  1  0.75000000  0.84083300  0.75308900  1
  C  C3  1  0.75000000  0.34083300  0.74691100  1
  C  C4  1  0.25000000  0.72763400  0.98650800  1
  C  C5  1  0.25000000  0.22763400  0.51349200  1
  C  C6  1  0.75000000  0.27236600  0.01349200  1
  C  C7  1  0.75000000  0.77236600  0.48650800  1
loop_
_geom_bond_atom_site_label_1
_geom_bond_atom_site_label_2
_geom_bond_distance
_geom_bond_site_symmetry_2
C0 Mo0 2.020338 1_555
C0 Mo1 2.131007 1_545
C0 Er2 2.478131 1_545
C0 Er2 2.478131 1_445
C0 Er3 2.545963 1_555
C0 Er3 2.545963 1_455
C1 Mo1 2.020338 1_555
C1 Mo0 2.131007 1_555
C1 Er3 2.478131 1_555
C1 Er3 2.478131 1_455
C1 Er2 2.545963 1_455
C1 Er2 2.545963 1_555
C2 Mo2 2.020338 1_555
C2 Mo3 2.131007 1_565
C2 Er0 2.478131 1_565
C2 Er0 2.478131 1_665
C2 Er1 2.545963 1_555
C2 Er1 2.545963 1_655
C3 Mo3 2.020338 1_555
C3 Mo2 2.131007 1_555
C3 Er1 2.478131 1_655
C3 Er1 2.478131 1_555
C3 Er0 2.545963 1_555
C3 Er0 2.545963 1_655
C4 Mo2 2.103616 1_555
C4 Mo2 2.103616 1_455
C4 Mo0 2.276251 1_556
C4 Er0 2.429490 1_565
C4 Er2 2.568177 1_556
C4 Er2 2.568177 1_456
C5 Mo3 2.103616 1_555
C5 Mo3 2.103616 1_455
C5 Mo1 2.276251 1_545
C5 Er1 2.429490 1_555
C5 Er3 2.568177 1_555
C5 Er3 2.568177 1_455
C6 Mo0 2.103616 1_555
C6 Mo0 2.103616 1_655
C6 Mo2 2.276251 1_554
C6 Er2 2.429490 1_545
C6 Er0 2.568177 1_654
C6 Er0 2.568177 1_554
C7 Mo1 2.103616 1_555
C7 Mo1 2.103616 1_655
C7 Mo3 2.276251 1_565
C7 Er3 2.429490 1_555
C7 Er1 2.568177 1_655
C7 Er1 2.568177 1_555
