# generated using pymatgen
data_MgTaBiO5
_symmetry_space_group_name_H-M   'P 1'
_cell_length_a   5.25515300
_cell_length_b   10.43415100
_cell_length_c   16.21018000
_cell_angle_alpha   90.00000000
_cell_angle_beta   90.00000000
_cell_angle_gamma   90.00000000
_symmetry_Int_Tables_number   1
_chemical_formula_structural   MgTaBiO5
_chemical_formula_sum   'Mg8 Ta8 Bi8 O40'
_cell_volume   888.85377142
_cell_formula_units_Z   8
loop_
 _symmetry_equiv_pos_site_id
 _symmetry_equiv_pos_as_xyz
  1  'x, y, z'
loop_
 _atom_site_type_symbol
 _atom_site_label
 _atom_site_symmetry_multiplicity
 _atom_site_fract_x
 _atom_site_fract_y
 _atom_site_fract_z
 _atom_site_occupancy
  Mg  Mg0  1  0.52227000  0.37408800  0.55361600  1
  Mg  Mg1  1  0.02227000  0.12591200  0.55361600  1
  Mg  Mg2  1  0.02227000  0.62591200  0.94638400  1
  Mg  Mg3  1  0.97773000  0.37408800  0.05361600  1
  Mg  Mg4  1  0.47773000  0.12591200  0.05361600  1
  Mg  Mg5  1  0.97773000  0.87408800  0.44638400  1
  Mg  Mg6  1  0.47773000  0.62591200  0.44638400  1
  Mg  Mg7  1  0.52227000  0.87408800  0.94638400  1
  Ta  Ta0  1  0.99956300  0.37629800  0.41714400  1
  Ta  Ta1  1  0.50043700  0.87629800  0.58285600  1
  Ta  Ta2  1  0.00043700  0.62370200  0.58285600  1
  Ta  Ta3  1  0.49956300  0.12370200  0.41714400  1
  Ta  Ta4  1  0.00043700  0.12370200  0.91714400  1
  Ta  Ta5  1  0.99956300  0.87629800  0.08285600  1
  Ta  Ta6  1  0.50043700  0.37629800  0.91714400  1
  Ta  Ta7  1  0.49956300  0.62370200  0.08285600  1
  Bi  Bi0  1  0.99506000  0.85904300  0.77657000  1
  Bi  Bi1  1  0.00494000  0.14095700  0.22343000  1
  Bi  Bi2  1  0.50494000  0.35904300  0.22343000  1
  Bi  Bi3  1  0.00494000  0.64095700  0.27657000  1
  Bi  Bi4  1  0.49506000  0.14095700  0.72343000  1
  Bi  Bi5  1  0.49506000  0.64095700  0.77657000  1
  Bi  Bi6  1  0.50494000  0.85904300  0.27657000  1
  Bi  Bi7  1  0.99506000  0.35904300  0.72343000  1
  O  O0  1  0.88567500  0.31526000  0.31412600  1
  O  O1  1  0.26507400  0.02366100  0.96031100  1
  O  O2  1  0.23492600  0.52366100  0.03968900  1
  O  O3  1  0.33199500  0.79479100  0.84571800  1
  O  O4  1  0.16800500  0.29479100  0.15428200  1
  O  O5  1  0.88567500  0.81526000  0.18587400  1
  O  O6  1  0.16800500  0.79479100  0.34571800  1
  O  O7  1  0.61432500  0.81526000  0.68587400  1
  O  O8  1  0.26507400  0.52366100  0.53968900  1
  O  O9  1  0.11432500  0.68474000  0.68587400  1
  O  O10  1  0.61432500  0.31526000  0.81412600  1
  O  O11  1  0.75067400  0.22510600  0.47680600  1
  O  O12  1  0.76507400  0.97633900  0.53968900  1
  O  O13  1  0.66800500  0.70520900  0.34571800  1
  O  O14  1  0.20586300  0.01373800  0.12616000  1
  O  O15  1  0.76507400  0.47633900  0.96031100  1
  O  O16  1  0.11432500  0.18474000  0.81412600  1
  O  O17  1  0.83199500  0.20520900  0.65428200  1
  O  O18  1  0.25067400  0.77489400  0.02319400  1
  O  O19  1  0.23492600  0.02366100  0.46031100  1
  O  O20  1  0.24932600  0.77489400  0.52319400  1
  O  O21  1  0.79413700  0.98626200  0.87384000  1
  O  O22  1  0.66800500  0.20520900  0.15428200  1
  O  O23  1  0.70586300  0.98626200  0.37384000  1
  O  O24  1  0.24932600  0.27489400  0.97680600  1
  O  O25  1  0.25067400  0.27489400  0.47680600  1
  O  O26  1  0.73492600  0.47633900  0.46031100  1
  O  O27  1  0.73492600  0.97633900  0.03968900  1
  O  O28  1  0.70586300  0.48626200  0.12616000  1
  O  O29  1  0.74932600  0.72510600  0.52319400  1
  O  O30  1  0.74932600  0.22510600  0.97680600  1
  O  O31  1  0.75067400  0.72510600  0.02319400  1
  O  O32  1  0.79413700  0.48626200  0.62616000  1
  O  O33  1  0.83199500  0.70520900  0.84571800  1
  O  O34  1  0.33199500  0.29479100  0.65428200  1
  O  O35  1  0.20586300  0.51373800  0.37384000  1
  O  O36  1  0.29413700  0.51373800  0.87384000  1
  O  O37  1  0.38567500  0.18474000  0.31412600  1
  O  O38  1  0.29413700  0.01373800  0.62616000  1
  O  O39  1  0.38567500  0.68474000  0.18587400  1
loop_
_geom_bond_atom_site_label_1
_geom_bond_atom_site_label_2
_geom_bond_distance
_geom_bond_site_symmetry_2
Mg0 O8 2.076893 1_555
Mg0 O34 2.085006 1_555
Mg0 O25 2.158389 1_555
Mg0 O26 2.162130 1_555
Mg0 O32 2.189517 1_555
Mg0 O11 2.325397 1_555
Mg1 O12 2.076893 1_445
Mg1 O17 2.085006 1_455
Mg1 O11 2.158389 1_455
Mg1 O19 2.162130 1_555
Mg1 O38 2.189517 1_555
Mg1 O25 2.325397 1_555
Mg2 O15 2.076893 1_455
Mg2 O33 2.085006 1_455
Mg2 O31 2.158389 1_456
Mg2 O2 2.162130 1_556
Mg2 O36 2.189517 1_555
Mg2 O18 2.325397 1_556
Mg3 O2 2.076893 1_655
Mg3 O4 2.085006 1_655
Mg3 O24 2.158389 1_654
Mg3 O15 2.162130 1_554
Mg3 O28 2.189517 1_555
Mg3 O30 2.325397 1_554
Mg4 O27 2.076893 1_545
Mg4 O22 2.085006 1_555
Mg4 O30 2.158389 1_554
Mg4 O1 2.162130 1_554
Mg4 O14 2.189517 1_555
Mg4 O24 2.325397 1_554
Mg5 O19 2.076893 1_665
Mg5 O6 2.085006 1_655
Mg5 O20 2.158389 1_655
Mg5 O12 2.162130 1_555
Mg5 O23 2.189517 1_555
Mg5 O29 2.325397 1_555
Mg6 O26 2.076893 1_555
Mg6 O13 2.085006 1_555
Mg6 O29 2.158389 1_555
Mg6 O8 2.162130 1_555
Mg6 O35 2.189517 1_555
Mg6 O20 2.325397 1_555
Mg7 O1 2.076893 1_565
Mg7 O3 2.085006 1_555
Mg7 O18 2.158389 1_556
Mg7 O27 2.162130 1_556
Mg7 O21 2.189517 1_555
Mg7 O31 2.325397 1_556
Bi0 O33 2.137097 1_555
Bi0 O3 2.200241 1_655
Bi0 O21 2.315841 1_555
Bi0 O9 2.421155 1_655
Bi0 O7 2.524573 1_555
Bi1 O4 2.137097 1_555
Bi1 O22 2.200241 1_455
Bi1 O14 2.315841 1_555
Bi1 O0 2.421155 1_455
Bi1 O37 2.524573 1_555
Bi2 O22 2.137097 1_555
Bi2 O4 2.200241 1_555
Bi2 O28 2.315841 1_555
Bi2 O37 2.421155 1_555
Bi2 O0 2.524573 1_555
Bi3 O6 2.137097 1_555
Bi3 O13 2.200241 1_455
Bi3 O35 2.315841 1_555
Bi3 O5 2.421155 1_455
Bi3 O39 2.524573 1_555
Bi4 O34 2.137097 1_555
Bi4 O17 2.200241 1_555
Bi4 O38 2.315841 1_555
Bi4 O10 2.421155 1_555
Bi4 O16 2.524573 1_555
Bi5 O3 2.137097 1_555
Bi5 O33 2.200241 1_555
Bi5 O36 2.315841 1_555
Bi5 O7 2.421155 1_555
Bi5 O9 2.524573 1_555
Bi6 O13 2.137097 1_555
Bi6 O6 2.200241 1_555
Bi6 O23 2.315841 1_555
Bi6 O39 2.421155 1_555
Bi6 O5 2.524573 1_555
Bi7 O17 2.137097 1_555
Bi7 O34 2.200241 1_655
Bi7 O32 2.315841 1_555
Bi7 O16 2.421155 1_655
Bi7 O10 2.524573 1_555
O0 Ta0 1.884812 1_555
O1 Ta4 1.874385 1_555
O2 Ta7 1.874385 1_555
O5 Ta5 1.884812 1_555
O7 Ta1 1.884812 1_555
O8 Ta2 1.874385 1_555
O9 Ta2 1.884812 1_555
O10 Ta6 1.884812 1_555
O11 Ta3 1.948399 1_555
O11 Ta0 2.266004 1_555
O12 Ta1 1.874385 1_555
O14 Ta5 1.929940 1_445
O15 Ta6 1.874385 1_555
O16 Ta4 1.884812 1_555
O18 Ta5 1.948399 1_455
O18 Ta7 2.266004 1_555
O19 Ta3 1.874385 1_555
O20 Ta1 1.948399 1_555
O20 Ta2 2.266004 1_555
O21 Ta4 1.929940 1_665
O23 Ta3 1.929940 1_565
O24 Ta6 1.948399 1_555
O24 Ta4 2.266004 1_555
O25 Ta0 1.948399 1_455
O25 Ta3 2.266004 1_555
O26 Ta0 1.874385 1_555
O27 Ta5 1.874385 1_555
O28 Ta7 1.929940 1_555
O29 Ta2 1.948399 1_655
O29 Ta1 2.266004 1_555
O30 Ta4 1.948399 1_655
O30 Ta6 2.266004 1_555
O31 Ta7 1.948399 1_555
O31 Ta5 2.266004 1_555
O32 Ta2 1.929940 1_655
O35 Ta0 1.929940 1_455
O36 Ta6 1.929940 1_555
O37 Ta3 1.884812 1_555
O38 Ta1 1.929940 1_545
O39 Ta7 1.884812 1_555
