# generated using pymatgen
data_CuBP4H24C8(SF)4
_symmetry_space_group_name_H-M   'P 1'
_cell_length_a   12.85783000
_cell_length_b   15.70873800
_cell_length_c   12.58887926
_cell_angle_alpha   90.00000000
_cell_angle_beta   99.46024587
_cell_angle_gamma   90.00000000
_symmetry_Int_Tables_number   1
_chemical_formula_structural   CuBP4H24C8(SF)4
_chemical_formula_sum   'Cu4 B4 P16 H96 C32 S16 F16'
_cell_volume   2508.12429533
_cell_formula_units_Z   4
loop_
 _symmetry_equiv_pos_site_id
 _symmetry_equiv_pos_as_xyz
  1  'x, y, z'
loop_
 _atom_site_type_symbol
 _atom_site_label
 _atom_site_symmetry_multiplicity
 _atom_site_fract_x
 _atom_site_fract_y
 _atom_site_fract_z
 _atom_site_occupancy
  Cu  Cu0  1  0.21515200  0.11829500  0.48102200  1
  Cu  Cu1  1  0.78484800  0.61829500  0.01897800  1
  Cu  Cu2  1  0.78484800  0.88170500  0.51897800  1
  Cu  Cu3  1  0.21515200  0.38170500  0.98102200  1
  B  B0  1  0.28225900  0.87221500  0.02240900  1
  B  B1  1  0.71774100  0.37221500  0.47759100  1
  B  B2  1  0.71774100  0.12778500  0.97759100  1
  B  B3  1  0.28225900  0.62778500  0.52240900  1
  P  P0  1  0.36433000  0.08392700  0.72086000  1
  P  P1  1  0.63567000  0.58392700  0.77914000  1
  P  P2  1  0.63567000  0.91607300  0.27914000  1
  P  P3  1  0.36433000  0.41607300  0.22086000  1
  P  P4  1  0.46012000  0.15588500  0.61532600  1
  P  P5  1  0.53988000  0.65588500  0.88467400  1
  P  P6  1  0.53988000  0.84411500  0.38467400  1
  P  P7  1  0.46012000  0.34411500  0.11532600  1
  P  P8  1  0.00488100  0.18572800  0.30995200  1
  P  P9  1  0.99511900  0.68572800  0.19004800  1
  P  P10  1  0.99511900  0.81427200  0.69004800  1
  P  P11  1  0.00488100  0.31427200  0.80995200  1
  P  P12  1  0.07877100  0.06928900  0.25020100  1
  P  P13  1  0.92122900  0.56928900  0.24979900  1
  P  P14  1  0.92122900  0.93071100  0.74979900  1
  P  P15  1  0.07877100  0.43071100  0.75020100  1
  H  H0  1  0.37786300  0.18245500  0.86935500  1
  H  H1  1  0.62213700  0.68245500  0.63064500  1
  H  H2  1  0.62213700  0.81754500  0.13064500  1
  H  H3  1  0.37786300  0.31754500  0.36935500  1
  H  H4  1  0.36161500  0.07381500  0.90796100  1
  H  H5  1  0.63838500  0.57381500  0.59203900  1
  H  H6  1  0.63838500  0.92618500  0.09203900  1
  H  H7  1  0.36161500  0.42618500  0.40796100  1
  H  H8  1  0.48816900  0.10984600  0.88426600  1
  H  H9  1  0.51183100  0.60984600  0.61573400  1
  H  H10  1  0.51183100  0.89015400  0.11573400  1
  H  H11  1  0.48816900  0.39015400  0.38426600  1
  H  H12  1  0.38174900  0.95102800  0.63070500  1
  H  H13  1  0.61825100  0.45102800  0.86929500  1
  H  H14  1  0.61825100  0.04897200  0.36929500  1
  H  H15  1  0.38174900  0.54897200  0.13070500  1
  H  H16  1  0.49240200  0.96815600  0.73520800  1
  H  H17  1  0.50759800  0.46815600  0.76479200  1
  H  H18  1  0.50759800  0.03184400  0.26479200  1
  H  H19  1  0.49240200  0.53184400  0.23520800  1
  H  H20  1  0.36771500  0.93774700  0.76980100  1
  H  H21  1  0.63228500  0.43774700  0.73019900  1
  H  H22  1  0.63228500  0.06225300  0.23019900  1
  H  H23  1  0.36771500  0.56225300  0.26980100  1
  H  H24  1  0.60560000  0.05677800  0.62754800  1
  H  H25  1  0.39440000  0.55677800  0.87245200  1
  H  H26  1  0.39440000  0.94322200  0.37245200  1
  H  H27  1  0.60560000  0.44322200  0.12754800  1
  H  H28  1  0.64064700  0.16335000  0.59726600  1
  H  H29  1  0.35935300  0.66335000  0.90273400  1
  H  H30  1  0.35935300  0.83665000  0.40273400  1
  H  H31  1  0.64064700  0.33665000  0.09726600  1
  H  H32  1  0.62725200  0.13591800  0.73270500  1
  H  H33  1  0.37274800  0.63591800  0.76729500  1
  H  H34  1  0.37274800  0.86408200  0.26729500  1
  H  H35  1  0.62725200  0.36408200  0.23270500  1
  H  H36  1  0.37448700  0.28917600  0.63543400  1
  H  H37  1  0.62551300  0.78917600  0.86456600  1
  H  H38  1  0.62551300  0.71082400  0.36456600  1
  H  H39  1  0.37448700  0.21082400  0.13543400  1
  H  H40  1  0.48288000  0.27376000  0.74379100  1
  H  H41  1  0.51712000  0.77376000  0.75620900  1
  H  H42  1  0.51712000  0.72624000  0.25620900  1
  H  H43  1  0.48288000  0.22624000  0.24379100  1
  H  H44  1  0.50769700  0.30196700  0.61208400  1
  H  H45  1  0.49230300  0.80196700  0.88791600  1
  H  H46  1  0.49230300  0.69803300  0.38791600  1
  H  H47  1  0.50769700  0.19803300  0.11208400  1
  H  H48  1  0.01612300  0.27288500  0.15395000  1
  H  H49  1  0.98387700  0.77288500  0.34605000  1
  H  H50  1  0.98387700  0.72711500  0.84605000  1
  H  H51  1  0.01612300  0.22711500  0.65395000  1
  H  H52  1  0.89249300  0.21630600  0.14139200  1
  H  H53  1  0.10750700  0.71630600  0.35860800  1
  H  H54  1  0.10750700  0.78369400  0.85860800  1
  H  H55  1  0.89249300  0.28369400  0.64139200  1
  H  H56  1  0.91567300  0.30781400  0.22683300  1
  H  H57  1  0.08432700  0.80781400  0.27316700  1
  H  H58  1  0.08432700  0.69218600  0.77316700  1
  H  H59  1  0.91567300  0.19218600  0.72683300  1
  H  H60  1  0.92136800  0.10407600  0.43304600  1
  H  H61  1  0.07863200  0.60407600  0.06695400  1
  H  H62  1  0.07863200  0.89592400  0.56695400  1
  H  H63  1  0.92136800  0.39592400  0.93304600  1
  H  H64  1  0.85405200  0.20264100  0.39398000  1
  H  H65  1  0.14594800  0.70264100  0.10602000  1
  H  H66  1  0.14594800  0.79735900  0.60602000  1
  H  H67  1  0.85405200  0.29735900  0.89398000  1
  H  H68  1  0.83738900  0.11279600  0.30444900  1
  H  H69  1  0.16261100  0.61279600  0.19555100  1
  H  H70  1  0.16261100  0.88720400  0.69555100  1
  H  H71  1  0.83738900  0.38720400  0.80444900  1
  H  H72  1  0.92122300  0.98561300  0.19770400  1
  H  H73  1  0.07877700  0.48561300  0.30229600  1
  H  H74  1  0.07877700  0.01438700  0.80229600  1
  H  H75  1  0.92122300  0.51438700  0.69770400  1
  H  H76  1  0.94724900  0.05438300  0.09073300  1
  H  H77  1  0.05275100  0.55438300  0.40926700  1
  H  H78  1  0.05275100  0.94561700  0.90926700  1
  H  H79  1  0.94724900  0.44561700  0.59073300  1
  H  H80  1  0.02480800  0.95982500  0.12343300  1
  H  H81  1  0.97519200  0.45982500  0.37656700  1
  H  H82  1  0.97519200  0.04017500  0.87656700  1
  H  H83  1  0.02480800  0.54017500  0.62343300  1
  H  H84  1  0.22591600  0.15512700  0.22492200  1
  H  H85  1  0.77408400  0.65512700  0.27507800  1
  H  H86  1  0.77408400  0.84487300  0.77507800  1
  H  H87  1  0.22591600  0.34487300  0.72492200  1
  H  H88  1  0.22049800  0.05570900  0.15237500  1
  H  H89  1  0.77950200  0.55570900  0.34762500  1
  H  H90  1  0.77950200  0.94429100  0.84762500  1
  H  H91  1  0.22049800  0.44429100  0.65237500  1
  H  H92  1  0.13751600  0.14317100  0.09957300  1
  H  H93  1  0.86248400  0.64317100  0.40042700  1
  H  H94  1  0.86248400  0.85682900  0.90042700  1
  H  H95  1  0.13751600  0.35682900  0.59957300  1
  C  C0  1  0.40281500  0.11635800  0.85930400  1
  C  C1  1  0.59718500  0.61635800  0.64069600  1
  C  C2  1  0.59718500  0.88364200  0.14069600  1
  C  C3  1  0.40281500  0.38364200  0.35930400  1
  C  C4  1  0.40665400  0.97439900  0.71324200  1
  C  C5  1  0.59334600  0.47439900  0.78675800  1
  C  C6  1  0.59334600  0.02560100  0.28675800  1
  C  C7  1  0.40665400  0.52560100  0.21324200  1
  C  C8  1  0.59683000  0.12406300  0.64711900  1
  C  C9  1  0.40317000  0.62406300  0.85288100  1
  C  C10  1  0.40317000  0.87593700  0.35288100  1
  C  C11  1  0.59683000  0.37593700  0.14711900  1
  C  C12  1  0.45543000  0.26616100  0.65670000  1
  C  C13  1  0.54457000  0.76616100  0.84330000  1
  C  C14  1  0.54457000  0.73383900  0.34330000  1
  C  C15  1  0.45543000  0.23383900  0.15670000  1
  C  C16  1  0.95269000  0.25190700  0.19606400  1
  C  C17  1  0.04731000  0.75190700  0.30393600  1
  C  C18  1  0.04731000  0.74809300  0.80393600  1
  C  C19  1  0.95269000  0.24809300  0.69606400  1
  C  C20  1  0.89302800  0.14682600  0.36559300  1
  C  C21  1  0.10697200  0.64682600  0.13440700  1
  C  C22  1  0.10697200  0.85317400  0.63440700  1
  C  C23  1  0.89302800  0.35317400  0.86559300  1
  C  C24  1  0.98257700  0.01186600  0.15635400  1
  C  C25  1  0.01742300  0.51186600  0.34364600  1
  C  C26  1  0.01742300  0.98813400  0.84364600  1
  C  C27  1  0.98257700  0.48813400  0.65635400  1
  C  C28  1  0.17485700  0.11048700  0.17344700  1
  C  C29  1  0.82514300  0.61048700  0.32655300  1
  C  C30  1  0.82514300  0.88951300  0.82655300  1
  C  C31  1  0.17485700  0.38951300  0.67344700  1
  S  S0  1  0.21350800  0.10533200  0.66412800  1
  S  S1  1  0.78649200  0.60533200  0.83587200  1
  S  S2  1  0.78649200  0.89466800  0.33587200  1
  S  S3  1  0.21350800  0.39466800  0.16412800  1
  S  S4  1  0.39396600  0.13279500  0.46423900  1
  S  S5  1  0.60603400  0.63279500  0.03576100  1
  S  S6  1  0.60603400  0.86720500  0.53576100  1
  S  S7  1  0.39396600  0.36720500  0.96423900  1
  S  S8  1  0.11794600  0.23955300  0.41490500  1
  S  S9  1  0.88205400  0.73955300  0.08509500  1
  S  S10  1  0.88205400  0.76044700  0.58509500  1
  S  S11  1  0.11794600  0.26044700  0.91490500  1
  S  S12  1  0.14007700  0.00312500  0.37974200  1
  S  S13  1  0.85992300  0.50312500  0.12025800  1
  S  S14  1  0.85992300  0.99687500  0.62025800  1
  S  S15  1  0.14007700  0.49687500  0.87974200  1
  F  F0  1  0.27537700  0.87306300  0.90828400  1
  F  F1  1  0.72462300  0.37306300  0.59171600  1
  F  F2  1  0.72462300  0.12693700  0.09171600  1
  F  F3  1  0.27537700  0.62693700  0.40828400  1
  F  F4  1  0.17907100  0.86943100  0.04918600  1
  F  F5  1  0.82092900  0.36943100  0.45081400  1
  F  F6  1  0.82092900  0.13056900  0.95081400  1
  F  F7  1  0.17907100  0.63056900  0.54918600  1
  F  F8  1  0.33460500  0.94724800  0.06651400  1
  F  F9  1  0.66539500  0.44724800  0.43348600  1
  F  F10  1  0.66539500  0.05275200  0.93348600  1
  F  F11  1  0.33460500  0.55275200  0.56651400  1
  F  F12  1  0.34003700  0.79954200  0.06527300  1
  F  F13  1  0.65996300  0.29954200  0.43472700  1
  F  F14  1  0.65996300  0.20045800  0.93472700  1
  F  F15  1  0.34003700  0.70045800  0.56527300  1
loop_
_geom_bond_atom_site_label_1
_geom_bond_atom_site_label_2
_geom_bond_distance
_geom_bond_site_symmetry_2
Cu0 S0 2.317631 1_555
Cu0 S12 2.329371 1_555
Cu0 S8 2.353988 1_555
Cu0 S4 2.354218 1_555
Cu1 S1 2.317631 1_554
Cu1 S13 2.329371 1_555
Cu1 S9 2.353988 1_555
Cu1 S5 2.354218 1_555
Cu2 S2 2.317631 1_555
Cu2 S14 2.329371 1_555
Cu2 S10 2.353988 1_555
Cu2 S6 2.354218 1_555
Cu3 S3 2.317631 1_556
Cu3 S15 2.329371 1_555
Cu3 S11 2.353988 1_555
Cu3 S7 2.354218 1_555
B0 F12 1.419350 1_555
B0 F4 1.422285 1_555
B0 F8 1.423978 1_555
B0 F0 1.424900 1_554
B1 F13 1.419350 1_555
B1 F5 1.422285 1_555
B1 F9 1.423978 1_555
B1 F1 1.424900 1_555
B2 F14 1.419350 1_555
B2 F6 1.422285 1_555
B2 F10 1.423978 1_555
B2 F2 1.424900 1_556
B3 F15 1.419350 1_555
B3 F7 1.422285 1_555
B3 F11 1.423978 1_555
B3 F3 1.424900 1_555
P0 S0 1.982048 1_555
P1 S1 1.982048 1_555
P2 S2 1.982048 1_555
P3 S3 1.982048 1_555
P4 S4 1.985173 1_555
P5 S5 1.985173 1_556
P6 S6 1.985173 1_555
P7 S7 1.985173 1_554
P8 S8 1.985604 1_555
P9 S9 1.985604 1_555
P10 S10 1.985604 1_555
P11 S11 1.985604 1_555
P12 S12 1.984558 1_555
P13 S13 1.984558 1_555
P14 S14 1.984558 1_555
P15 S15 1.984558 1_555
C0 H8 1.095572 1_555
C0 H4 1.099599 1_555
C0 H0 1.100161 1_555
C0 P0 1.805115 1_555
C1 H9 1.095572 1_555
C1 H5 1.099599 1_555
C1 H1 1.100161 1_555
C1 P1 1.805115 1_555
C2 H10 1.095572 1_555
C2 H6 1.099599 1_555
C2 H2 1.100161 1_555
C2 P2 1.805115 1_555
C3 H11 1.095572 1_555
C3 H7 1.099599 1_555
C3 H3 1.100161 1_555
C3 P3 1.805115 1_555
C4 H16 1.096103 1_555
C4 H20 1.098325 1_555
C4 H12 1.098896 1_555
C4 P0 1.811845 1_565
C5 H17 1.096103 1_555
C5 H21 1.098325 1_555
C5 H13 1.098896 1_555
C5 P1 1.811845 1_555
C6 H18 1.096103 1_555
C6 H22 1.098325 1_555
C6 H14 1.098896 1_555
C6 P2 1.811845 1_545
C7 H19 1.096103 1_555
C7 H23 1.098325 1_555
C7 H15 1.098896 1_555
C7 P3 1.811845 1_555
C8 H24 1.095317 1_555
C8 H28 1.099267 1_555
C8 H32 1.100002 1_555
C8 P4 1.807939 1_555
C9 H25 1.095317 1_555
C9 H29 1.099267 1_555
C9 H33 1.100002 1_555
C9 P5 1.807939 1_555
C10 H26 1.095317 1_555
C10 H30 1.099267 1_555
C10 H34 1.100002 1_555
C10 P6 1.807939 1_555
C11 H27 1.095317 1_555
C11 H31 1.099267 1_555
C11 H35 1.100002 1_555
C11 P7 1.807939 1_555
C12 H36 1.092681 1_555
C12 H44 1.098889 1_555
C12 H40 1.101663 1_555
C12 P4 1.812761 1_555
C13 H37 1.092681 1_555
C13 H45 1.098889 1_555
C13 H41 1.101663 1_555
C13 P5 1.812761 1_555
C14 H38 1.092681 1_555
C14 H46 1.098889 1_555
C14 H42 1.101663 1_555
C14 P6 1.812761 1_555
C15 H39 1.092681 1_555
C15 H47 1.098889 1_555
C15 H43 1.101663 1_555
C15 P7 1.812761 1_555
C16 H48 1.094093 1_655
C16 H56 1.099301 1_555
C16 H52 1.100191 1_555
C16 P8 1.808413 1_655
C17 H49 1.094093 1_455
C17 H57 1.099301 1_555
C17 H53 1.100191 1_555
C17 P9 1.808413 1_455
C18 H50 1.094093 1_455
C18 H58 1.099301 1_555
C18 H54 1.100191 1_555
C18 P10 1.808413 1_455
C19 H51 1.094093 1_655
C19 H59 1.099301 1_555
C19 H55 1.100191 1_555
C19 P11 1.808413 1_655
C20 H60 1.096864 1_555
C20 H64 1.098397 1_555
C20 H68 1.099558 1_555
C20 P8 1.806550 1_655
C21 H61 1.096864 1_555
C21 H65 1.098397 1_555
C21 H69 1.099558 1_555
C21 P9 1.806550 1_455
C22 H62 1.096864 1_555
C22 H66 1.098397 1_555
C22 H70 1.099558 1_555
C22 P10 1.806550 1_455
C23 H63 1.096864 1_555
C23 H67 1.098397 1_555
C23 H71 1.099558 1_555
C23 P11 1.806550 1_655
C24 H72 1.094701 1_545
C24 H80 1.099494 1_645
C24 H76 1.100677 1_555
C24 P12 1.805240 1_655
C25 H73 1.094701 1_555
C25 H81 1.099494 1_455
C25 H77 1.100677 1_555
C25 P13 1.805240 1_455
C26 H74 1.094701 1_565
C26 H82 1.099494 1_465
C26 H78 1.100677 1_555
C26 P14 1.805240 1_455
C27 H75 1.094701 1_555
C27 H83 1.099494 1_655
C27 H79 1.100677 1_555
C27 P15 1.805240 1_655
C28 H84 1.096727 1_555
C28 H88 1.098353 1_555
C28 H92 1.101012 1_555
C28 P12 1.808656 1_555
C29 H85 1.096727 1_555
C29 H89 1.098353 1_555
C29 H93 1.101012 1_555
C29 P13 1.808656 1_555
C30 H86 1.096727 1_555
C30 H90 1.098353 1_555
C30 H94 1.101012 1_555
C30 P14 1.808656 1_555
C31 H87 1.096727 1_555
C31 H91 1.098353 1_555
C31 H95 1.101012 1_555
C31 P15 1.808656 1_555
