# generated using pymatgen
data_Li7Mn2(CoO4)3
_symmetry_space_group_name_H-M   'P 1'
_cell_length_a   7.82319053
_cell_length_b   7.82319053
_cell_length_c   11.81171542
_cell_angle_alpha   55.69679521
_cell_angle_beta   55.69679521
_cell_angle_gamma   21.26865032
_symmetry_Int_Tables_number   1
_chemical_formula_structural   Li7Mn2(CoO4)3
_chemical_formula_sum   'Li7 Mn2 Co3 O12'
_cell_volume   214.83260839
_cell_formula_units_Z   1
loop_
 _symmetry_equiv_pos_site_id
 _symmetry_equiv_pos_as_xyz
  1  'x, y, z'
loop_
 _atom_site_type_symbol
 _atom_site_label
 _atom_site_symmetry_multiplicity
 _atom_site_fract_x
 _atom_site_fract_y
 _atom_site_fract_z
 _atom_site_occupancy
  Li  Li0  1  0.33623300  0.33623300  0.23795500  1
  Li  Li1  1  0.66364800  0.66364800  0.76045100  1
  Li  Li2  1  0.01389100  0.01389100  0.23518200  1
  Li  Li3  1  0.32287700  0.32287700  0.77126100  1
  Li  Li4  1  0.99206600  0.99206600  0.75680100  1
  Li  Li5  1  0.67118400  0.67118400  0.24215900  1
  Li  Li6  1  0.66696800  0.66696800  0.99800300  1
  Mn  Mn0  1  0.00584700  0.00584700  0.99534100  1
  Mn  Mn1  1  0.33610900  0.33610900  0.49560400  1
  Co  Co0  1  0.00057800  0.00057800  0.50464800  1
  Co  Co1  1  0.31758300  0.31758300  0.00889300  1
  Co  Co2  1  0.66593800  0.66593800  0.49828800  1
  O  O0  1  0.49917600  0.49917600  0.88825900  1
  O  O1  1  0.83904900  0.83904900  0.38377500  1
  O  O2  1  0.15364600  0.15364600  0.88269200  1
  O  O3  1  0.48932500  0.48932500  0.39039000  1
  O  O4  1  0.16303300  0.16303300  0.38764200  1
  O  O5  1  0.83376000  0.83376000  0.88587000  1
  O  O6  1  0.18018400  0.18018400  0.60041900  1
  O  O7  1  0.49923100  0.49923100  0.11101200  1
  O  O8  1  0.83233000  0.83233000  0.60915600  1
  O  O9  1  0.17437700  0.17437700  0.12518200  1
  O  O10  1  0.84467300  0.84467300  0.10824700  1
  O  O11  1  0.49829600  0.49829600  0.62277100  1
loop_
_geom_bond_atom_site_label_1
_geom_bond_atom_site_label_2
_geom_bond_distance
_geom_bond_site_symmetry_2
Li0 O10 2.054337 1_545
Li0 O10 2.054337 1_455
Li0 O7 2.054439 1_555
Li0 O4 2.195275 1_555
Li0 O1 2.266775 1_455
Li0 O1 2.266775 1_545
Li1 O2 1.984438 1_565
Li1 O2 1.984438 1_655
Li1 O0 2.072919 1_555
Li1 O8 2.146129 1_555
Li1 O6 2.273922 1_655
Li1 O6 2.273922 1_565
Li2 O9 2.025169 1_555
Li2 O7 2.159943 1_545
Li2 O7 2.159943 1_455
Li2 O3 2.189429 1_455
Li2 O3 2.189429 1_545
Li2 O1 2.213028 1_445
Li3 O5 2.050527 1_455
Li3 O5 2.050527 1_545
Li3 O2 2.139282 1_555
Li3 O11 2.219666 1_555
Li3 O8 2.335036 1_455
Li3 O8 2.335036 1_545
Li4 O5 1.998531 1_555
Li4 O11 2.103752 1_655
Li4 O11 2.103752 1_565
Li4 O0 2.168391 1_655
Li4 O0 2.168391 1_565
Li4 O6 2.377441 1_665
Li5 O9 1.979381 1_565
Li5 O9 1.979381 1_655
Li5 O10 2.186285 1_555
Li5 O4 2.192226 1_655
Li5 O4 2.192226 1_565
Li5 O3 2.295844 1_555
Li6 O2 2.073961 1_565
Li6 O2 2.073961 1_655
Li6 O5 2.106382 1_555
Li6 O7 2.118121 1_556
Li6 O9 2.133102 1_566
Li6 O9 2.133102 1_656
Mn0 O2 1.862218 1_555
Mn0 O7 1.949843 1_546
Mn0 O7 1.949843 1_456
Mn0 O0 1.960447 1_545
Mn0 O0 1.960447 1_455
Mn0 O10 2.032409 1_446
Mn1 O3 1.933298 1_555
Mn1 O1 1.939733 1_545
Mn1 O1 1.939733 1_455
Mn1 O8 1.948634 1_545
Mn1 O8 1.948634 1_455
Mn1 O6 1.969155 1_555
Co0 O11 1.993994 1_545
Co0 O11 1.993994 1_455
Co0 O4 2.047281 1_555
Co0 O3 2.050219 1_455
Co0 O3 2.050219 1_545
Co0 O8 2.134236 1_445
Co1 O9 1.807553 1_555
Co1 O5 1.960384 1_454
Co1 O5 1.960384 1_544
Co1 O10 2.048328 1_455
Co1 O10 2.048328 1_545
Co1 O0 2.294554 1_554
Co2 O4 1.965003 1_655
Co2 O4 1.965003 1_565
Co2 O6 1.972456 1_655
Co2 O6 1.972456 1_565
Co2 O11 2.112021 1_555
Co2 O1 2.187827 1_555
