# generated using pymatgen
data_Li4MnCo2O7
_symmetry_space_group_name_H-M   'P 1'
_cell_length_a   4.99567200
_cell_length_b   5.05542344
_cell_length_c   10.70176960
_cell_angle_alpha   84.02205258
_cell_angle_beta   80.68774357
_cell_angle_gamma   73.59673475
_symmetry_Int_Tables_number   1
_chemical_formula_structural   Li4MnCo2O7
_chemical_formula_sum   'Li8 Mn2 Co4 O14'
_cell_volume   255.36982103
_cell_formula_units_Z   2
loop_
 _symmetry_equiv_pos_site_id
 _symmetry_equiv_pos_as_xyz
  1  'x, y, z'
loop_
 _atom_site_type_symbol
 _atom_site_label
 _atom_site_symmetry_multiplicity
 _atom_site_fract_x
 _atom_site_fract_y
 _atom_site_fract_z
 _atom_site_occupancy
  Li  Li0  1  0.78635200  0.49871800  0.42695800  1
  Li  Li1  1  0.35915900  0.49650400  0.28473300  1
  Li  Li2  1  0.93453300  0.50143800  0.13918700  1
  Li  Li3  1  0.50000000  0.50000000  0.00000000  1
  Li  Li4  1  0.06546700  0.49856200  0.86081300  1
  Li  Li5  1  0.64084100  0.50349600  0.71526700  1
  Li  Li6  1  0.21364800  0.50128200  0.57304200  1
  Li  Li7  1  0.00000000  0.00000000  0.00000000  1
  Mn  Mn0  1  0.71060600  0.00158300  0.57420400  1
  Mn  Mn1  1  0.28939400  0.99841700  0.42579600  1
  Co  Co0  1  0.85975800  0.99861100  0.28191700  1
  Co  Co1  1  0.43218000  0.99114600  0.13467700  1
  Co  Co2  1  0.56782000  0.00885400  0.86532300  1
  Co  Co3  1  0.14024200  0.00138900  0.71808300  1
  O  O0  1  0.47150900  0.76455200  0.56308000  1
  O  O1  1  0.03689500  0.76949700  0.41817900  1
  O  O2  1  0.61993400  0.76858500  0.27595800  1
  O  O3  1  0.20732200  0.77220000  0.14239600  1
  O  O4  1  0.72879600  0.76763700  0.99503200  1
  O  O5  1  0.33770600  0.78269000  0.84706700  1
  O  O6  1  0.90418100  0.76935000  0.71104300  1
  O  O7  1  0.09581900  0.23065000  0.28895700  1
  O  O8  1  0.66229400  0.21731000  0.15293300  1
  O  O9  1  0.27120400  0.23236300  0.00496800  1
  O  O10  1  0.79267800  0.22780000  0.85760400  1
  O  O11  1  0.38006600  0.23141500  0.72404200  1
  O  O12  1  0.96310500  0.23050300  0.58182100  1
  O  O13  1  0.52849100  0.23544800  0.43692000  1
loop_
_geom_bond_atom_site_label_1
_geom_bond_atom_site_label_2
_geom_bond_distance
_geom_bond_site_symmetry_2
Li0 O13 2.082436 1_555
Li0 O1 2.086180 1_655
Li0 O2 2.121035 1_555
Li0 O12 2.166619 1_555
Li0 O0 2.207822 1_555
Li0 O7 2.214140 1_655
Li1 O3 2.042759 1_555
Li1 O13 2.116016 1_555
Li1 O7 2.122689 1_555
Li1 O2 2.131545 1_555
Li1 O8 2.188870 1_555
Li1 O1 2.224317 1_555
Li2 O7 2.104794 1_655
Li2 O4 2.132342 1_554
Li2 O3 2.193274 1_655
Li2 O2 2.214691 1_555
Li2 O8 2.220149 1_555
Li2 O9 2.252848 1_655
Li3 O4 1.994669 1_554
Li3 O9 1.994669 1_555
Li3 O8 2.160137 1_555
Li3 O5 2.160137 1_554
Li3 O3 2.221034 1_555
Li3 O10 2.221034 1_554
Li4 O6 2.104794 1_455
Li4 O9 2.132342 1_556
Li4 O10 2.193274 1_455
Li4 O11 2.214691 1_555
Li4 O5 2.220149 1_555
Li4 O4 2.252848 1_455
Li5 O10 2.042759 1_555
Li5 O0 2.116016 1_555
Li5 O6 2.122689 1_555
Li5 O11 2.131545 1_555
Li5 O5 2.188870 1_555
Li5 O12 2.224317 1_555
Li6 O0 2.082436 1_555
Li6 O12 2.086180 1_455
Li6 O11 2.121035 1_555
Li6 O1 2.166619 1_555
Li6 O13 2.207822 1_555
Li6 O6 2.214140 1_455
Li7 O9 2.038024 1_555
Li7 O4 2.038024 1_444
Li7 O3 2.047626 1_545
Li7 O10 2.047626 1_454
Li7 O8 2.272857 1_455
Li7 O5 2.272857 1_544
Mn0 O0 1.939306 1_545
Mn0 O12 1.953076 1_555
Mn0 O13 1.961448 1_555
Mn0 O6 1.979145 1_545
Mn0 O11 2.257332 1_555
Mn0 O1 2.295371 1_645
Mn1 O13 1.939306 1_565
Mn1 O1 1.953076 1_555
Mn1 O0 1.961448 1_555
Mn1 O7 1.979145 1_565
Mn1 O2 2.257332 1_555
Mn1 O12 2.295371 1_465
Co0 O7 1.897609 1_665
Co0 O8 1.899392 1_565
Co0 O2 1.902317 1_555
Co0 O1 1.933405 1_655
Co0 O3 2.224593 1_655
Co0 O13 2.308694 1_565
Co1 O3 1.773972 1_555
Co1 O9 1.874955 1_565
Co1 O8 1.878433 1_565
Co1 O2 1.985017 1_555
Co1 O4 2.096486 1_554
Co1 O7 2.320571 1_565
Co2 O10 1.773972 1_555
Co2 O4 1.874955 1_545
Co2 O5 1.878433 1_545
Co2 O11 1.985017 1_555
Co2 O9 2.096486 1_556
Co2 O6 2.320571 1_545
Co3 O6 1.897609 1_445
Co3 O5 1.899392 1_545
Co3 O11 1.902317 1_555
Co3 O12 1.933405 1_455
Co3 O10 2.224593 1_455
Co3 O0 2.308694 1_545
