# generated using pymatgen
data_BaCaHf4O12
_symmetry_space_group_name_H-M   'P 1'
_cell_length_a   5.83960168
_cell_length_b   5.83960168
_cell_length_c   8.20673078
_cell_angle_alpha   90.00000000
_cell_angle_beta   90.00000000
_cell_angle_gamma   89.95896141
_symmetry_Int_Tables_number   1
_chemical_formula_structural   BaCaHf4O12
_chemical_formula_sum   'Ba1 Ca1 Hf4 O12'
_cell_volume   279.85722633
_cell_formula_units_Z   1
loop_
 _symmetry_equiv_pos_site_id
 _symmetry_equiv_pos_as_xyz
  1  'x, y, z'
loop_
 _atom_site_type_symbol
 _atom_site_label
 _atom_site_symmetry_multiplicity
 _atom_site_fract_x
 _atom_site_fract_y
 _atom_site_fract_z
 _atom_site_occupancy
  Ba  Ba0  1  0.51627922  0.48372078  0.50000000  1
  Ca  Ca0  1  0.97671679  0.02328321  0.00000000  1
  Hf  Hf0  1  0.49097825  0.99286540  0.24460496  1
  Hf  Hf1  1  0.49097825  0.99286540  0.75539504  1
  Hf  Hf2  1  0.00713460  0.50902175  0.75539504  1
  Hf  Hf3  1  0.00713460  0.50902175  0.24460496  1
  O  O0  1  0.27225772  0.27223426  0.24890947  1
  O  O1  1  0.72776574  0.72774228  0.24890947  1
  O  O2  1  0.72776574  0.72774228  0.75109053  1
  O  O3  1  0.27225772  0.27223426  0.75109053  1
  O  O4  1  0.21231091  0.78768909  0.20049842  1
  O  O5  1  0.76587341  0.23412659  0.25923253  1
  O  O6  1  0.76587341  0.23412659  0.74076747  1
  O  O7  1  0.21231091  0.78768909  0.79950158  1
  O  O8  1  0.56861468  0.01722872  0.00000000  1
  O  O9  1  0.48738117  0.98160439  0.50000000  1
  O  O10  1  0.98277128  0.43138532  0.00000000  1
  O  O11  1  0.01839561  0.51261883  0.50000000  1
loop_
_geom_bond_atom_site_label_1
_geom_bond_atom_site_label_2
_geom_bond_distance
_geom_bond_site_symmetry_2
Ba0 O3 2.793660 1_555
Ba0 O1 2.793660 1_555
Ba0 O0 2.793660 1_555
Ba0 O2 2.793660 1_555
Ba0 O6 2.854818 1_555
Ba0 O5 2.854818 1_555
Ba0 O11 2.912215 1_555
Ba0 O9 2.912215 1_555
Ba0 O11 2.937132 1_655
Ba0 O9 2.937132 1_545
Ca0 O8 2.383441 1_555
Ca0 O10 2.383441 1_555
Ca0 O4 2.547600 1_645
Ca0 O7 2.547600 1_644
Ca0 O5 2.748780 1_555
Ca0 O6 2.748780 1_554
Ca0 O1 3.044395 1_545
Ca0 O2 3.044395 1_544
Ca0 O3 3.044395 1_654
Ca0 O0 3.044395 1_655
Hf0 O4 2.053655 1_555
Hf0 O8 2.062900 1_565
Hf0 O0 2.071493 1_565
Hf0 O1 2.075362 1_555
Hf0 O9 2.097095 1_555
Hf0 O5 2.139972 1_565
Hf1 O7 2.053655 1_555
Hf1 O8 2.062900 1_566
Hf1 O3 2.071493 1_565
Hf1 O2 2.075362 1_555
Hf1 O9 2.097095 1_555
Hf1 O6 2.139972 1_565
Hf2 O7 2.053655 1_555
Hf2 O10 2.062900 1_456
Hf2 O2 2.071493 1_455
Hf2 O3 2.075362 1_555
Hf2 O11 2.097095 1_555
Hf2 O6 2.139972 1_455
Hf3 O4 2.053655 1_555
Hf3 O10 2.062900 1_455
Hf3 O1 2.071493 1_455
Hf3 O0 2.075362 1_555
Hf3 O11 2.097095 1_555
Hf3 O5 2.139972 1_455
