# generated using pymatgen
data_Rb2NaCeBr6
_symmetry_space_group_name_H-M   'P 1'
_cell_length_a   8.20749730
_cell_length_b   8.20749730
_cell_length_c   8.20749730
_cell_angle_alpha   60.00000000
_cell_angle_beta   60.00000000
_cell_angle_gamma   60.00000000
_symmetry_Int_Tables_number   1
_chemical_formula_structural   Rb2NaCeBr6
_chemical_formula_sum   'Rb2 Na1 Ce1 Br6'
_cell_volume   390.94642704
_cell_formula_units_Z   1
loop_
 _symmetry_equiv_pos_site_id
 _symmetry_equiv_pos_as_xyz
  1  'x, y, z'
loop_
 _atom_site_type_symbol
 _atom_site_label
 _atom_site_symmetry_multiplicity
 _atom_site_fract_x
 _atom_site_fract_y
 _atom_site_fract_z
 _atom_site_occupancy
  Rb  Rb0  1  0.75000000  0.75000000  0.75000000  1
  Rb  Rb1  1  0.25000000  0.25000000  0.25000000  1
  Na  Na0  1  0.50000000  0.50000000  0.50000000  1
  Ce  Ce0  1  0.00000000  0.00000000  0.00000000  1
  Br  Br0  1  0.75076500  0.24923500  0.24923500  1
  Br  Br1  1  0.24923500  0.24923500  0.75076500  1
  Br  Br2  1  0.24923500  0.75076500  0.75076500  1
  Br  Br3  1  0.24923500  0.75076500  0.24923500  1
  Br  Br4  1  0.75076500  0.24923500  0.75076500  1
  Br  Br5  1  0.75076500  0.75076500  0.24923500  1
loop_
_geom_bond_atom_site_label_1
_geom_bond_atom_site_label_2
_geom_bond_distance
_geom_bond_site_symmetry_2
Br0 Ce0 2.892909 1_655
Br0 Na0 2.910668 1_555
Br0 Rb1 4.103758 1_655
Br0 Rb0 4.103758 1_545
Br0 Rb0 4.103758 1_554
Br0 Rb1 4.103758 1_555
Br1 Ce0 2.892909 1_556
Br1 Na0 2.910668 1_555
Br1 Rb1 4.103758 1_555
Br1 Rb0 4.103758 1_545
Br1 Rb1 4.103758 1_556
Br1 Rb0 4.103758 1_455
Br2 Ce0 2.892909 1_566
Br2 Na0 2.910668 1_555
Br2 Rb1 4.103758 1_565
Br2 Rb1 4.103758 1_556
Br2 Rb0 4.103758 1_455
Br2 Rb0 4.103758 1_555
Br3 Ce0 2.892909 1_565
Br3 Na0 2.910668 1_555
Br3 Rb1 4.103758 1_555
Br3 Rb1 4.103758 1_565
Br3 Rb0 4.103758 1_455
Br3 Rb0 4.103758 1_554
Br4 Ce0 2.892909 1_656
Br4 Na0 2.910668 1_555
Br4 Rb0 4.103758 1_545
Br4 Rb1 4.103758 1_556
Br4 Rb1 4.103758 1_655
Br4 Rb0 4.103758 1_555
Br5 Ce0 2.892909 1_665
Br5 Na0 2.910668 1_555
Br5 Rb1 4.103758 1_565
Br5 Rb1 4.103758 1_655
Br5 Rb0 4.103758 1_555
Br5 Rb0 4.103758 1_554
