# generated using pymatgen
data_Mg14ZnCo
_symmetry_space_group_name_H-M   'P 1'
_cell_length_a   6.26521914
_cell_length_b   6.32533125
_cell_length_c   9.76827165
_cell_angle_alpha   90.00000000
_cell_angle_beta   90.00000000
_cell_angle_gamma   120.31790197
_symmetry_Int_Tables_number   1
_chemical_formula_structural   Mg14ZnCo
_chemical_formula_sum   'Mg14 Zn1 Co1'
_cell_volume   334.17022620
_cell_formula_units_Z   1
loop_
 _symmetry_equiv_pos_site_id
 _symmetry_equiv_pos_as_xyz
  1  'x, y, z'
loop_
 _atom_site_type_symbol
 _atom_site_label
 _atom_site_symmetry_multiplicity
 _atom_site_fract_x
 _atom_site_fract_y
 _atom_site_fract_z
 _atom_site_occupancy
  Mg  Mg0  1  0.17278708  0.33639304  0.62500000  1
  Mg  Mg1  1  0.17126014  0.83562957  0.62500000  1
  Mg  Mg2  1  0.69996339  0.35142284  0.12500000  1
  Mg  Mg3  1  0.66305587  0.33404456  0.62500000  1
  Mg  Mg4  1  0.69996339  0.84853955  0.12500000  1
  Mg  Mg5  1  0.66305587  0.82901031  0.62500000  1
  Mg  Mg6  1  0.32025762  0.15257762  0.34765961  1
  Mg  Mg7  1  0.32025762  0.15257762  0.90234039  1
  Mg  Mg8  1  0.32025762  0.66768100  0.34765961  1
  Mg  Mg9  1  0.32025762  0.66768100  0.90234039  1
  Mg  Mg10  1  0.83159611  0.16579855  0.37691832  1
  Mg  Mg11  1  0.83159611  0.16579855  0.87308168  1
  Mg  Mg12  1  0.84034029  0.67017065  0.36742972  1
  Mg  Mg13  1  0.84034029  0.67017065  0.88257028  1
  Zn  Zn0  1  0.15688478  0.32844189  0.12500000  1
  Co  Co0  1  0.14812621  0.82406260  0.12500000  1
loop_
_geom_bond_atom_site_label_1
_geom_bond_atom_site_label_2
_geom_bond_distance
_geom_bond_site_symmetry_2
Mg0 Mg11 3.045918 1_455
Mg0 Mg10 3.045918 1_455
Mg0 Mg5 3.079167 1_555
Mg0 Mg3 3.079167 1_555
Mg0 Mg1 3.162676 1_545
Mg0 Mg1 3.162676 1_555
Mg0 Mg5 3.186105 1_445
Mg0 Mg3 3.186105 1_455
Mg0 Mg6 3.260290 1_555
Mg0 Mg7 3.260290 1_555
Mg0 Mg9 3.260296 1_555
Mg0 Mg8 3.260296 1_555
Mg1 Mg12 3.087637 1_455
Mg1 Mg13 3.087637 1_455
Mg1 Mg3 3.102554 1_565
Mg1 Mg5 3.102554 1_555
Mg1 Mg3 3.163082 1_455
Mg1 Mg5 3.163082 1_455
Mg1 Mg8 3.215679 1_555
Mg1 Mg9 3.215679 1_555
Mg1 Mg7 3.215685 1_565
Mg1 Mg6 3.215685 1_565
Mg2 Zn0 2.938771 1_655
Mg2 Zn0 3.331492 1_555
Mg3 Mg5 3.130822 1_555
Mg3 Mg5 3.194509 1_545
Mg3 Mg6 3.283401 1_555
Mg3 Mg7 3.283401 1_555
Mg4 Zn0 2.938771 1_665
Mg4 Zn0 3.331492 1_555
Mg5 Mg8 3.283401 1_555
Mg5 Mg9 3.283401 1_555
Mg6 Zn0 2.857496 1_555
Mg7 Zn0 2.857496 1_556
Mg8 Zn0 2.857503 1_555
Mg9 Zn0 2.857503 1_556
Mg10 Mg2 3.015280 1_555
Mg10 Mg4 3.015287 1_545
Mg10 Zn0 3.025003 1_655
Mg10 Mg3 3.042139 1_555
Mg10 Mg5 3.042146 1_545
Mg10 Mg8 3.117753 1_655
Mg10 Mg6 3.117753 1_655
Mg10 Mg12 3.164377 1_545
Mg10 Mg12 3.164377 1_555
Mg10 Mg8 3.175146 1_545
Mg10 Mg6 3.175147 1_555
Mg11 Mg2 3.015280 1_556
Mg11 Mg4 3.015287 1_546
Mg11 Zn0 3.025003 1_656
Mg11 Mg3 3.042139 1_555
Mg11 Mg5 3.042146 1_545
Mg11 Mg9 3.117753 1_655
Mg11 Mg7 3.117753 1_655
Mg11 Mg13 3.164377 1_545
Mg11 Mg13 3.164377 1_555
Mg11 Mg9 3.175146 1_545
Mg11 Mg7 3.175147 1_555
Mg12 Mg5 3.114509 1_555
Mg12 Mg3 3.114516 1_555
Mg13 Mg5 3.114509 1_555
Mg13 Mg3 3.114516 1_555
Co0 Mg8 2.819414 1_555
Co0 Mg9 2.819414 1_554
Co0 Mg7 2.819421 1_564
Co0 Mg6 2.819421 1_565
Co0 Mg2 2.889086 1_455
Co0 Mg4 2.889086 1_455
Co0 Mg13 2.894642 1_454
Co0 Mg12 2.894642 1_455
Co0 Zn0 3.163020 1_555
Co0 Zn0 3.163020 1_565
Co0 Mg2 3.381867 1_565
Co0 Mg4 3.381868 1_555
