# generated using pymatgen
data_Na3NbHO2F7
_symmetry_space_group_name_H-M   'P 1'
_cell_length_a   6.82393775
_cell_length_b   14.32045572
_cell_length_c   15.24663438
_cell_angle_alpha   90.00000000
_cell_angle_beta   90.00000000
_cell_angle_gamma   90.00000000
_symmetry_Int_Tables_number   1
_chemical_formula_structural   Na3NbHO2F7
_chemical_formula_sum   'Na24 Nb8 H8 O16 F56'
_cell_volume   1489.93005559
_cell_formula_units_Z   8
loop_
 _symmetry_equiv_pos_site_id
 _symmetry_equiv_pos_as_xyz
  1  'x, y, z'
loop_
 _atom_site_type_symbol
 _atom_site_label
 _atom_site_symmetry_multiplicity
 _atom_site_fract_x
 _atom_site_fract_y
 _atom_site_fract_z
 _atom_site_occupancy
  Na  Na0  1  0.80177958  0.15765689  0.26525224  1
  Na  Na1  1  0.69822042  0.65765689  0.23474776  1
  Na  Na2  1  0.30177958  0.84234311  0.23474776  1
  Na  Na3  1  0.19822042  0.34234311  0.26525224  1
  Na  Na4  1  0.19822042  0.84234311  0.73474776  1
  Na  Na5  1  0.30177958  0.34234311  0.76525224  1
  Na  Na6  1  0.69822042  0.15765689  0.76525224  1
  Na  Na7  1  0.80177958  0.65765689  0.73474776  1
  Na  Na8  1  0.73773602  0.43308872  0.37312378  1
  Na  Na9  1  0.76226398  0.93308872  0.12687622  1
  Na  Na10  1  0.23773602  0.56691128  0.12687622  1
  Na  Na11  1  0.26226398  0.06691128  0.37312378  1
  Na  Na12  1  0.26226398  0.56691128  0.62687622  1
  Na  Na13  1  0.23773602  0.06691128  0.87312378  1
  Na  Na14  1  0.76226398  0.43308872  0.87312378  1
  Na  Na15  1  0.73773602  0.93308872  0.62687622  1
  Na  Na16  1  0.72133456  0.13853751  0.50160833  1
  Na  Na17  1  0.77866544  0.63853751  0.99839167  1
  Na  Na18  1  0.22133456  0.86146249  0.99839167  1
  Na  Na19  1  0.27866544  0.36146249  0.50160833  1
  Na  Na20  1  0.27866544  0.86146249  0.49839167  1
  Na  Na21  1  0.22133456  0.36146249  0.00160833  1
  Na  Na22  1  0.77866544  0.13853751  0.00160833  1
  Na  Na23  1  0.72133456  0.63853751  0.49839167  1
  Nb  Nb0  1  0.74866410  0.39622376  0.13148543  1
  Nb  Nb1  1  0.75133590  0.89622376  0.36851457  1
  Nb  Nb2  1  0.24866410  0.60377624  0.36851457  1
  Nb  Nb3  1  0.25133590  0.10377624  0.13148543  1
  Nb  Nb4  1  0.25133590  0.60377624  0.86851457  1
  Nb  Nb5  1  0.24866410  0.10377624  0.63148543  1
  Nb  Nb6  1  0.75133590  0.39622376  0.63148543  1
  Nb  Nb7  1  0.74866410  0.89622376  0.86851457  1
  H  H0  1  0.50000000  0.25000000  0.37781938  1
  H  H1  1  0.00000000  0.75000000  0.12218062  1
  H  H2  1  0.50000000  0.75000000  0.62218062  1
  H  H3  1  0.00000000  0.25000000  0.87781938  1
  H  H4  1  0.00000000  0.25000000  0.40220141  1
  H  H5  1  0.50000000  0.75000000  0.09779859  1
  H  H6  1  0.00000000  0.75000000  0.59779859  1
  H  H7  1  0.50000000  0.25000000  0.90220141  1
  O  O0  1  0.47294310  0.42505609  0.10010512  1
  O  O1  1  0.02705690  0.92505609  0.39989488  1
  O  O2  1  0.97294310  0.57494391  0.39989488  1
  O  O3  1  0.52705690  0.07494391  0.10010512  1
  O  O4  1  0.52705690  0.57494391  0.89989488  1
  O  O5  1  0.97294310  0.07494391  0.60010512  1
  O  O6  1  0.02705690  0.42505609  0.60010512  1
  O  O7  1  0.47294310  0.92505609  0.89989488  1
  O  O8  1  0.48779198  0.35739914  0.17255738  1
  O  O9  1  0.01220802  0.85739914  0.32744262  1
  O  O10  1  0.98779198  0.64260086  0.32744262  1
  O  O11  1  0.51220802  0.14260086  0.17255738  1
  O  O12  1  0.51220802  0.64260086  0.82744262  1
  O  O13  1  0.98779198  0.14260086  0.67255738  1
  O  O14  1  0.01220802  0.35739914  0.67255738  1
  O  O15  1  0.48779198  0.85739914  0.82744262  1
  F  F0  1  0.82518729  0.31542650  0.23546419  1
  F  F1  1  0.67481271  0.81542650  0.26453581  1
  F  F2  1  0.32518729  0.68457350  0.26453581  1
  F  F3  1  0.17481271  0.18457350  0.23546419  1
  F  F4  1  0.17481271  0.68457350  0.76453581  1
  F  F5  1  0.32518729  0.18457350  0.73546419  1
  F  F6  1  0.67481271  0.31542650  0.73546419  1
  F  F7  1  0.82518729  0.81542650  0.76453581  1
  F  F8  1  0.78893559  0.47997714  0.02624643  1
  F  F9  1  0.71106441  0.97997714  0.47375357  1
  F  F10  1  0.28893559  0.52002286  0.47375357  1
  F  F11  1  0.21106441  0.02002286  0.02624643  1
  F  F12  1  0.21106441  0.52002286  0.97375357  1
  F  F13  1  0.28893559  0.02002286  0.52624643  1
  F  F14  1  0.71106441  0.47997714  0.52624643  1
  F  F15  1  0.78893559  0.97997714  0.97375357  1
  F  F16  1  0.78906354  0.28969013  0.05314771  1
  F  F17  1  0.71093646  0.78969013  0.44685229  1
  F  F18  1  0.28906354  0.71030987  0.44685229  1
  F  F19  1  0.21093646  0.21030987  0.05314771  1
  F  F20  1  0.21093646  0.71030987  0.94685229  1
  F  F21  1  0.28906354  0.21030987  0.55314771  1
  F  F22  1  0.71093646  0.28969013  0.55314771  1
  F  F23  1  0.78906354  0.78969013  0.94685229  1
  F  F24  1  0.76003371  0.50070659  0.21694837  1
  F  F25  1  0.73996629  0.00070659  0.28305163  1
  F  F26  1  0.26003371  0.49929341  0.28305163  1
  F  F27  1  0.23996629  0.99929341  0.21694837  1
  F  F28  1  0.23996629  0.49929341  0.78305163  1
  F  F29  1  0.26003371  0.99929341  0.71694837  1
  F  F30  1  0.73996629  0.50070659  0.71694837  1
  F  F31  1  0.76003371  0.00070659  0.78305163  1
  F  F32  1  0.04897266  0.41025822  0.13162680  1
  F  F33  1  0.45102734  0.91025822  0.36837320  1
  F  F34  1  0.54897266  0.58974178  0.36837320  1
  F  F35  1  0.95102734  0.08974178  0.13162680  1
  F  F36  1  0.95102734  0.58974178  0.86837320  1
  F  F37  1  0.54897266  0.08974178  0.63162680  1
  F  F38  1  0.45102734  0.41025822  0.63162680  1
  F  F39  1  0.04897266  0.91025822  0.86837320  1
  F  F40  1  0.53129139  0.17092715  0.37836998  1
  F  F41  1  0.96870861  0.67092715  0.12163002  1
  F  F42  1  0.03129139  0.82907285  0.12163002  1
  F  F43  1  0.46870861  0.32907285  0.37836998  1
  F  F44  1  0.46870861  0.82907285  0.62163002  1
  F  F45  1  0.03129139  0.32907285  0.87836998  1
  F  F46  1  0.96870861  0.17092715  0.87836998  1
  F  F47  1  0.53129139  0.67092715  0.62163002  1
  F  F48  1  0.97572089  0.17019665  0.40051156  1
  F  F49  1  0.52427911  0.67019665  0.09948844  1
  F  F50  1  0.47572089  0.82980335  0.09948844  1
  F  F51  1  0.02427911  0.32980335  0.40051156  1
  F  F52  1  0.02427911  0.82980335  0.59948844  1
  F  F53  1  0.47572089  0.32980335  0.90051156  1
  F  F54  1  0.52427911  0.17019665  0.90051156  1
  F  F55  1  0.97572089  0.67019665  0.59948844  1
loop_
_geom_bond_atom_site_label_1
_geom_bond_atom_site_label_2
_geom_bond_distance
_geom_bond_site_symmetry_2
Na0 O11 2.438957 1_555
Na1 O10 2.438957 1_555
Na2 O9 2.438957 1_555
Na3 O8 2.438957 1_555
Na4 O15 2.438957 1_555
Na5 O14 2.438957 1_555
Na6 O13 2.438957 1_555
Na7 O12 2.438957 1_555
Na8 O2 2.620966 1_555
Na9 O3 2.620966 1_565
Na10 O0 2.620966 1_555
Na11 O1 2.620966 1_545
Na12 O6 2.620966 1_555
Na13 O7 2.620966 1_545
Na14 O4 2.620966 1_555
Na15 O5 2.620966 1_565
Na16 O5 2.456124 1_555
Na17 O4 2.456124 1_555
Na18 O7 2.456124 1_555
Na19 O6 2.456124 1_555
Na20 O1 2.456124 1_555
Na21 O0 2.456124 1_555
Na22 O3 2.456124 1_555
Na23 O2 2.456124 1_555
Nb0 O8 1.967303 1_555
Nb0 O0 1.984803 1_555
Nb1 O9 1.967303 1_655
Nb1 O1 1.984803 1_655
Nb2 O10 1.967303 1_455
Nb2 O2 1.984803 1_455
Nb3 O11 1.967303 1_555
Nb3 O3 1.984803 1_555
Nb4 O12 1.967303 1_555
Nb4 O4 1.984803 1_555
Nb5 O13 1.967303 1_455
Nb5 O5 1.984803 1_455
Nb6 O14 1.967303 1_655
Nb6 O6 1.984803 1_655
Nb7 O15 1.967303 1_555
Nb7 O7 1.984803 1_555
O0 O8 1.472838 1_555
O1 O9 1.472838 1_555
O10 O2 1.472838 1_555
O11 O3 1.472838 1_555
O12 O4 1.472838 1_555
O13 O5 1.472838 1_555
O14 O6 1.472838 1_555
O15 O7 1.472838 1_555
F0 Nb0 2.030939 1_555
F0 Na0 2.310058 1_555
F0 Na3 2.614325 1_655
F0 Na8 2.756887 1_555
F1 Nb1 2.030939 1_555
F1 Na1 2.310058 1_555
F1 Na2 2.614325 1_555
F1 Na9 2.756887 1_555
F2 Nb2 2.030939 1_555
F2 Na2 2.310058 1_555
F2 Na1 2.614325 1_555
F2 Na10 2.756887 1_555
F3 Nb3 2.030939 1_555
F3 Na3 2.310058 1_555
F3 Na0 2.614325 1_455
F3 Na11 2.756887 1_555
F4 Nb4 2.030939 1_555
F4 Na4 2.310058 1_555
F4 Na7 2.614325 1_455
F4 Na12 2.756887 1_555
F5 Nb5 2.030939 1_555
F5 Na5 2.310058 1_555
F5 Na6 2.614325 1_555
F5 Na13 2.756887 1_555
F6 Nb6 2.030939 1_555
F6 Na6 2.310058 1_555
F6 Na5 2.614325 1_555
F6 Na14 2.756887 1_555
F7 Nb7 2.030939 1_555
F7 Na7 2.310058 1_555
F7 Na4 2.614325 1_655
F7 Na15 2.756887 1_555
F8 Nb0 2.022028 1_555
F8 Na17 2.311094 1_554
F8 Na14 2.436056 1_554
F9 Nb1 2.022028 1_555
F9 Na16 2.311094 1_565
F9 Na15 2.436056 1_555
F10 Nb2 2.022028 1_555
F10 Na19 2.311094 1_555
F10 Na12 2.436056 1_555
F11 Nb3 2.022028 1_555
F11 Na18 2.311094 1_544
F11 Na13 2.436056 1_554
F12 Nb4 2.022028 1_555
F12 Na21 2.311094 1_556
F12 Na10 2.436056 1_556
F13 Nb5 2.022028 1_555
F13 Na20 2.311094 1_545
F13 Na11 2.436056 1_555
F14 Nb6 2.022028 1_555
F14 Na23 2.311094 1_555
F14 Na8 2.436056 1_555
F15 Nb7 2.022028 1_555
F15 Na22 2.311094 1_566
F15 Na9 2.436056 1_556
F16 Nb0 1.957051 1_555
F16 Na22 2.303888 1_555
F17 Nb1 1.957051 1_555
F17 Na23 2.303888 1_555
F18 Nb2 1.957051 1_555
F18 Na20 2.303888 1_555
F19 Nb3 1.957051 1_555
F19 Na21 2.303888 1_555
F20 Nb4 1.957051 1_555
F20 Na18 2.303888 1_555
F21 Nb5 1.957051 1_555
F21 Na19 2.303888 1_555
F22 Nb6 1.957051 1_555
F22 Na16 2.303888 1_555
F23 Nb7 1.957051 1_555
F23 Na17 2.303888 1_555
F24 Nb0 1.985605 1_555
F24 Na1 2.302884 1_555
F24 Na8 2.575008 1_555
F25 Nb1 1.985605 1_545
F25 Na0 2.302884 1_555
F25 Na9 2.575008 1_545
F26 Nb2 1.985605 1_555
F26 Na3 2.302884 1_555
F26 Na10 2.575008 1_555
F27 Nb3 1.985605 1_565
F27 Na2 2.302884 1_555
F27 Na11 2.575008 1_565
F28 Nb4 1.985605 1_555
F28 Na5 2.302884 1_555
F28 Na12 2.575008 1_555
F29 Nb5 1.985605 1_565
F29 Na4 2.302884 1_555
F29 Na13 2.575008 1_565
F30 Nb6 1.985605 1_555
F30 Na7 2.302884 1_555
F30 Na14 2.575008 1_555
F31 Nb7 1.985605 1_545
F31 Na6 2.302884 1_555
F31 Na15 2.575008 1_545
F32 Nb0 2.059120 1_455
F32 Na21 2.408608 1_555
F32 Na3 2.476672 1_555
F32 Na10 2.587868 1_555
F33 Nb1 2.059120 1_555
F33 Na20 2.408608 1_555
F33 Na2 2.476672 1_555
F33 Na11 2.587868 1_565
F34 Nb2 2.059120 1_555
F34 Na23 2.408608 1_555
F34 Na1 2.476672 1_555
F34 Na8 2.587868 1_555
F35 Nb3 2.059120 1_655
F35 Na22 2.408608 1_555
F35 Na0 2.476672 1_555
F35 Na9 2.587868 1_545
F36 Nb4 2.059120 1_655
F36 Na17 2.408608 1_555
F36 Na7 2.476672 1_555
F36 Na14 2.587868 1_555
F37 Nb5 2.059120 1_555
F37 Na16 2.408608 1_555
F37 Na6 2.476672 1_555
F37 Na15 2.587868 1_545
F38 Nb6 2.059120 1_555
F38 Na19 2.408608 1_555
F38 Na5 2.476672 1_555
F38 Na12 2.587868 1_555
F39 Nb7 2.059120 1_455
F39 Na18 2.408608 1_555
F39 Na4 2.476672 1_555
F39 Na13 2.587868 1_565
F40 H0 1.152347 1_555
F40 Na16 2.329694 1_555
F40 Na11 2.365466 1_555
F40 Na0 2.533286 1_555
F41 H1 1.152347 1_655
F41 Na17 2.329694 1_554
F41 Na10 2.365466 1_655
F41 Na1 2.533286 1_555
F42 H1 1.152347 1_555
F42 Na18 2.329694 1_554
F42 Na9 2.365466 1_455
F42 Na2 2.533286 1_555
F43 H0 1.152347 1_555
F43 Na19 2.329694 1_555
F43 Na8 2.365466 1_555
F43 Na3 2.533286 1_555
F44 H2 1.152347 1_555
F44 Na20 2.329694 1_555
F44 Na15 2.365466 1_555
F44 Na4 2.533286 1_555
F45 H3 1.152347 1_555
F45 Na21 2.329694 1_556
F45 Na14 2.365466 1_455
F45 Na5 2.533286 1_555
F46 H3 1.152347 1_655
F46 Na22 2.329694 1_556
F46 Na13 2.365466 1_655
F46 Na6 2.533286 1_555
F47 H2 1.152347 1_555
F47 Na23 2.329694 1_555
F47 Na12 2.365466 1_555
F47 Na7 2.533286 1_555
F48 H4 1.155055 1_655
F48 Na16 2.365338 1_555
F48 Na0 2.386211 1_555
F48 Na11 2.487064 1_655
F49 H5 1.155055 1_555
F49 Na17 2.365338 1_554
F49 Na1 2.386211 1_555
F49 Na10 2.487064 1_555
F50 H5 1.155055 1_555
F50 Na18 2.365338 1_554
F50 Na2 2.386211 1_555
F50 Na9 2.487064 1_555
F51 H4 1.155055 1_555
F51 Na19 2.365338 1_555
F51 Na3 2.386211 1_555
F51 Na8 2.487064 1_455
F52 H6 1.155055 1_555
F52 Na20 2.365338 1_555
F52 Na4 2.386211 1_555
F52 Na15 2.487064 1_455
F53 H7 1.155055 1_555
F53 Na21 2.365338 1_556
F53 Na5 2.386211 1_555
F53 Na14 2.487064 1_555
F54 H7 1.155055 1_555
F54 Na22 2.365338 1_556
F54 Na6 2.386211 1_555
F54 Na13 2.487064 1_555
F55 H6 1.155055 1_655
F55 Na23 2.365338 1_555
F55 Na7 2.386211 1_555
F55 Na12 2.487064 1_655
