# generated using pymatgen
data_CsSc(SO4)2
_symmetry_space_group_name_H-M   'P 1'
_cell_length_a   5.24677437
_cell_length_b   5.24677437
_cell_length_c   8.87164000
_cell_angle_alpha   90.00000000
_cell_angle_beta   90.00000000
_cell_angle_gamma   120.00000467
_symmetry_Int_Tables_number   1
_chemical_formula_structural   CsSc(SO4)2
_chemical_formula_sum   'Cs1 Sc1 S2 O8'
_cell_volume   211.50434737
_cell_formula_units_Z   1
loop_
 _symmetry_equiv_pos_site_id
 _symmetry_equiv_pos_as_xyz
  1  'x, y, z'
loop_
 _atom_site_type_symbol
 _atom_site_label
 _atom_site_symmetry_multiplicity
 _atom_site_fract_x
 _atom_site_fract_y
 _atom_site_fract_z
 _atom_site_occupancy
  Cs  Cs0  1  0.00000000  0.00000000  0.50000000  1
  Sc  Sc0  1  0.00000000  0.00000000  0.00000000  1
  S  S0  1  0.33333300  0.66666700  0.20245900  1
  S  S1  1  0.66666700  0.33333300  0.79754100  1
  O  O0  1  0.13768200  0.36235300  0.14419000  1
  O  O1  1  0.63764700  0.77532800  0.14419000  1
  O  O2  1  0.36235300  0.13768200  0.85581000  1
  O  O3  1  0.22467200  0.86231800  0.14419000  1
  O  O4  1  0.77532800  0.63764700  0.85581000  1
  O  O5  1  0.86231800  0.22467200  0.85581000  1
  O  O6  1  0.33333300  0.66666700  0.36683800  1
  O  O7  1  0.66666700  0.33333300  0.63316200  1
loop_
_geom_bond_atom_site_label_1
_geom_bond_atom_site_label_2
_geom_bond_distance
_geom_bond_site_symmetry_2
Cs0 O6 3.251434 1_545
Cs0 O7 3.251434 1_455
Cs0 O6 3.251438 1_555
Cs0 O7 3.251438 1_555
Cs0 O7 3.251438 1_445
Cs0 O6 3.251438 1_445
Cs0 O0 3.567519 1_555
Cs0 O2 3.567519 1_555
Cs0 O4 3.567519 1_445
Cs0 O1 3.567519 1_445
Cs0 O3 3.567521 1_545
Cs0 O5 3.567521 1_455
O0 S0 1.493758 1_555
O0 Sc0 2.097454 1_555
O1 S0 1.493760 1_555
O1 Sc0 2.097454 1_665
O2 S1 1.493758 1_555
O2 Sc0 2.097454 1_556
O3 S0 1.493751 1_555
O3 Sc0 2.097458 1_565
O4 S1 1.493760 1_555
O4 Sc0 2.097454 1_666
O5 S1 1.493751 1_555
O5 Sc0 2.097458 1_656
O6 S0 1.458311 1_555
O7 S1 1.458311 1_555
