# generated using pymatgen
data_Zn7Cd2(PO4)6
_symmetry_space_group_name_H-M   'P 1'
_cell_length_a   5.99759402
_cell_length_b   27.33589316
_cell_length_c   11.59541324
_cell_angle_alpha   90.58364990
_cell_angle_beta   90.12236756
_cell_angle_gamma   86.17748865
_symmetry_Int_Tables_number   1
_chemical_formula_structural   Zn7Cd2(PO4)6
_chemical_formula_sum   'Zn28 Cd8 P24 O96'
_cell_volume   1896.73360845
_cell_formula_units_Z   4
loop_
 _symmetry_equiv_pos_site_id
 _symmetry_equiv_pos_as_xyz
  1  'x, y, z'
loop_
 _atom_site_type_symbol
 _atom_site_label
 _atom_site_symmetry_multiplicity
 _atom_site_fract_x
 _atom_site_fract_y
 _atom_site_fract_z
 _atom_site_occupancy
  Zn  Zn0  1  0.49585947  0.12416217  0.30319252  1
  Zn  Zn1  1  0.16612451  0.45729360  0.30237639  1
  Zn  Zn2  1  0.83320822  0.79092351  0.30217096  1
  Zn  Zn3  1  0.66836071  0.20925943  0.80568098  1
  Zn  Zn4  1  0.33435393  0.54297047  0.80589427  1
  Zn  Zn5  1  0.00430355  0.87602095  0.80367854  1
  Zn  Zn6  1  0.16834012  0.20976169  0.69730375  1
  Zn  Zn7  1  0.83475326  0.54346286  0.69746584  1
  Zn  Zn8  1  0.50113815  0.87699625  0.69641872  1
  Zn  Zn9  1  0.99732417  0.12255146  0.19606327  1
  Zn  Zn10  1  0.66947315  0.45645851  0.19347510  1
  Zn  Zn11  1  0.33654982  0.79029536  0.19299936  1
  Zn  Zn12  1  0.59186481  0.22799248  0.44821230  1
  Zn  Zn13  1  0.25872763  0.56206218  0.44674930  1
  Zn  Zn14  1  0.92590129  0.89613259  0.44865580  1
  Zn  Zn15  1  0.57364440  0.10381066  0.94969209  1
  Zn  Zn16  1  0.24101011  0.43687422  0.94902065  1
  Zn  Zn17  1  0.90741717  0.77027485  0.94881367  1
  Zn  Zn18  1  0.07464286  0.09999930  0.55306470  1
  Zn  Zn19  1  0.74076943  0.43564837  0.54788566  1
  Zn  Zn20  1  0.40794921  0.76890190  0.54772033  1
  Zn  Zn21  1  0.09248757  0.23141534  0.05850897  1
  Zn  Zn22  1  0.75811855  0.56522602  0.05851101  1
  Zn  Zn23  1  0.42485970  0.90094561  0.05258908  1
  Zn  Zn24  1  0.54740151  0.31262882  0.11699406  1
  Zn  Zn25  1  0.21389632  0.64600720  0.11706184  1
  Zn  Zn26  1  0.87838429  0.97939162  0.11716509  1
  Zn  Zn27  1  0.62427506  0.01949177  0.61745760  1
  Cd  Cd0  1  0.32687191  0.35109373  0.62198336  1
  Cd  Cd1  1  0.99354291  0.68445003  0.62197042  1
  Cd  Cd2  1  0.15123216  0.01854325  0.88004534  1
  Cd  Cd3  1  0.82395398  0.35171529  0.88013110  1
  Cd  Cd4  1  0.49033496  0.68526259  0.88025743  1
  Cd  Cd5  1  0.00969834  0.31479677  0.37689102  1
  Cd  Cd6  1  0.67636086  0.64843945  0.37684946  1
  Cd  Cd7  1  0.34823968  0.98147572  0.37913197  1
  P  P0  1  0.85950120  0.03519486  0.36270026  1
  P  P1  1  0.52542717  0.36917276  0.35662088  1
  P  P2  1  0.19206635  0.70268633  0.35624796  1
  P  P3  1  0.30173967  0.29700933  0.87079607  1
  P  P4  1  0.96811146  0.63068994  0.87096235  1
  P  P5  1  0.63992841  0.96506529  0.86287218  1
  P  P6  1  0.80448622  0.29643802  0.63573476  1
  P  P7  1  0.47118887  0.62992226  0.63575837  1
  P  P8  1  0.13837911  0.96495765  0.63617220  1
  P  P9  1  0.36137454  0.03520100  0.13598136  1
  P  P10  1  0.03064190  0.36838825  0.13560170  1
  P  P11  1  0.69728965  0.70187840  0.13557332  1
  P  P12  1  0.60408526  0.20320440  0.09274638  1
  P  P13  1  0.26971727  0.53684293  0.09225088  1
  P  P14  1  0.93656682  0.87074990  0.09057326  1
  P  P15  1  0.56274799  0.12958504  0.59166166  1
  P  P16  1  0.22777855  0.46439871  0.59009224  1
  P  P17  1  0.89504042  0.79761317  0.58926243  1
  P  P18  1  0.06157763  0.13162868  0.91043525  1
  P  P19  1  0.72831375  0.46518721  0.90974780  1
  P  P20  1  0.39469589  0.79889843  0.90986185  1
  P  P21  1  0.10435878  0.20141530  0.41093853  1
  P  P22  1  0.77116824  0.53530719  0.40956881  1
  P  P23  1  0.43775505  0.86875892  0.40962326  1
  O  O0  1  0.57696763  0.15221612  0.46746705  1
  O  O1  1  0.24518061  0.48639215  0.46537069  1
  O  O2  1  0.91220466  0.81986185  0.46485037  1
  O  O3  1  0.58847069  0.18093540  0.96707033  1
  O  O4  1  0.25465117  0.51435821  0.96665001  1
  O  O5  1  0.92240551  0.84751852  0.96604838  1
  O  O6  1  0.08695185  0.17901061  0.53537871  1
  O  O7  1  0.75277697  0.51321276  0.53433641  1
  O  O8  1  0.41940666  0.84648076  0.53426744  1
  O  O9  1  0.07946372  0.15394687  0.03616764  1
  O  O10  1  0.74595033  0.48745984  0.03564125  1
  O  O11  1  0.41231774  0.82160495  0.03524438  1
  O  O12  1  0.65909940  0.02661477  0.44316145  1
  O  O13  1  0.31547036  0.36099688  0.42895250  1
  O  O14  1  0.98226706  0.69449976  0.42866030  1
  O  O15  1  0.51032326  0.30490371  0.94672875  1
  O  O16  1  0.17672843  0.63851350  0.94684452  1
  O  O17  1  0.84113419  0.97376548  0.94328146  1
  O  O18  1  0.02114983  0.30448866  0.56847371  1
  O  O19  1  0.68795768  0.63788522  0.56850321  1
  O  O20  1  0.35985024  0.97399240  0.57130552  1
  O  O21  1  0.13885061  0.02605224  0.07153629  1
  O  O22  1  0.80806100  0.35987749  0.07035474  1
  O  O23  1  0.47463425  0.69338336  0.07043897  1
  O  O24  1  0.28214627  0.23963134  0.40543968  1
  O  O25  1  0.94881036  0.57345660  0.40431894  1
  O  O26  1  0.61559191  0.90687138  0.40504798  1
  O  O27  1  0.88309291  0.09356465  0.90454663  1
  O  O28  1  0.55078135  0.42681349  0.90359156  1
  O  O29  1  0.21752543  0.76041717  0.90386398  1
  O  O30  1  0.38663405  0.09059088  0.59660399  1
  O  O31  1  0.05034793  0.42599651  0.59481348  1
  O  O32  1  0.71751213  0.75919351  0.59404480  1
  O  O33  1  0.78041474  0.24214979  0.09999675  1
  O  O34  1  0.44615117  0.57576774  0.09937081  1
  O  O35  1  0.11328842  0.90980645  0.09635253  1
  O  O36  1  0.38463738  0.23193495  0.12900611  1
  O  O37  1  0.05053597  0.56574409  0.12815077  1
  O  O38  1  0.71702748  0.90040160  0.12424627  1
  O  O39  1  0.78349448  0.10087505  0.62563298  1
  O  O40  1  0.45107586  0.43645663  0.62478380  1
  O  O41  1  0.11817540  0.76955272  0.62405113  1
  O  O42  1  0.28278505  0.10314990  0.87412096  1
  O  O43  1  0.95008114  0.43705512  0.87340880  1
  O  O44  1  0.61633882  0.77072382  0.87341418  1
  O  O45  1  0.88245040  0.22961577  0.37471108  1
  O  O46  1  0.54940516  0.56339219  0.37316303  1
  O  O47  1  0.21651488  0.89700776  0.37355832  1
  O  O48  1  0.66397105  0.15991675  0.17629410  1
  O  O49  1  0.32942140  0.49380957  0.17602350  1
  O  O50  1  0.99461027  0.82838358  0.17648862  1
  O  O51  1  0.50264447  0.17264872  0.67799157  1
  O  O52  1  0.16853806  0.50748407  0.67628229  1
  O  O53  1  0.83622280  0.84052502  0.67557535  1
  O  O54  1  0.00334954  0.17435409  0.82501732  1
  O  O55  1  0.66914084  0.50797518  0.82494255  1
  O  O56  1  0.33537050  0.84163107  0.82463352  1
  O  O57  1  0.16338405  0.15866814  0.32407930  1
  O  O58  1  0.83070370  0.49211672  0.32387775  1
  O  O59  1  0.49732911  0.82564911  0.32365680  1
  O  O60  1  0.78878482  0.08068888  0.28587018  1
  O  O61  1  0.46323803  0.41471966  0.27908495  1
  O  O62  1  0.13038284  0.74829354  0.27858020  1
  O  O63  1  0.37483948  0.25415841  0.78409888  1
  O  O64  1  0.04111838  0.58786176  0.78431656  1
  O  O65  1  0.71089511  0.91930864  0.78515886  1
  O  O66  1  0.86914330  0.25346494  0.72082574  1
  O  O67  1  0.53571862  0.58696915  0.72089103  1
  O  O68  1  0.20428657  0.92104780  0.71926033  1
  O  O69  1  0.29470249  0.07930028  0.22020698  1
  O  O70  1  0.96475955  0.41219943  0.22088793  1
  O  O71  1  0.63173906  0.74574473  0.22081677  1
  O  O72  1  0.06923016  0.04669221  0.43498650  1
  O  O73  1  0.72704649  0.38016151  0.43587917  1
  O  O74  1  0.39384965  0.71353744  0.43552366  1
  O  O75  1  0.09799255  0.28282188  0.94180762  1
  O  O76  1  0.76407053  0.61649686  0.94170400  1
  O  O77  1  0.43081457  0.95368330  0.93479253  1
  O  O78  1  0.60816953  0.28287045  0.55709788  1
  O  O79  1  0.27495415  0.61639005  0.55703086  1
  O  O80  1  0.94729648  0.95097568  0.55559254  1
  O  O81  1  0.55059655  0.04944716  0.05566786  1
  O  O82  1  0.22014623  0.38277246  0.05567228  1
  O  O83  1  0.88676484  0.71623652  0.05556369  1
  O  O84  1  0.60444151  0.32390691  0.28194049  1
  O  O85  1  0.27082145  0.65732354  0.28184101  1
  O  O86  1  0.92805844  0.99028106  0.28500861  1
  O  O87  1  0.57188413  0.00964421  0.78581892  1
  O  O88  1  0.22039563  0.34362301  0.80369318  1
  O  O89  1  0.88696126  0.67731178  0.80383987  1
  O  O90  1  0.04711325  0.01138480  0.70187867  1
  O  O91  1  0.71274418  0.34326177  0.70170607  1
  O  O92  1  0.37950337  0.67672255  0.70177428  1
  O  O93  1  0.12071479  0.32194350  0.19932371  1
  O  O94  1  0.78726064  0.65540858  0.19920268  1
  O  O95  1  0.45246908  0.98911293  0.20095448  1
loop_
_geom_bond_atom_site_label_1
_geom_bond_atom_site_label_2
_geom_bond_distance
_geom_bond_site_symmetry_2
Cd0 O88 2.218303 1_555
Cd0 O13 2.257664 1_555
Cd0 O18 2.379203 1_555
Cd0 O91 2.487011 1_555
Cd0 O40 2.496232 1_555
Cd0 O78 2.539241 1_555
Cd0 O31 2.569114 1_555
Cd1 O89 2.219172 1_555
Cd1 O14 2.261379 1_555
Cd1 O19 2.377774 1_555
Cd1 O92 2.487771 1_655
Cd1 O41 2.490363 1_655
Cd1 O79 2.536779 1_655
Cd1 O32 2.565224 1_555
Cd2 O90 2.167672 1_555
Cd2 O21 2.228741 1_556
Cd2 O17 2.413003 1_445
Cd2 O77 2.445456 1_545
Cd2 O42 2.494604 1_555
Cd2 O27 2.534369 1_455
Cd2 O87 2.746360 1_555
Cd3 O91 2.187142 1_555
Cd3 O22 2.216329 1_556
Cd3 O15 2.473732 1_555
Cd3 O43 2.501939 1_555
Cd3 O75 2.523725 1_655
Cd3 O88 2.534330 1_655
Cd3 O28 2.552385 1_555
Cd4 O92 2.187353 1_555
Cd4 O23 2.215700 1_556
Cd4 O16 2.472602 1_555
Cd4 O44 2.504890 1_555
Cd4 O76 2.519398 1_555
Cd4 O89 2.535202 1_555
Cd4 O29 2.552446 1_555
Cd5 O93 2.179962 1_555
Cd5 O18 2.242457 1_555
Cd5 O13 2.368779 1_555
Cd5 O73 2.471944 1_455
Cd5 O45 2.498129 1_455
Cd5 O24 2.562300 1_555
Cd5 O84 2.663700 1_455
Cd6 O94 2.180040 1_555
Cd6 O19 2.244201 1_555
Cd6 O14 2.366489 1_555
Cd6 O74 2.465508 1_555
Cd6 O46 2.494064 1_555
Cd6 O25 2.556837 1_555
Cd6 O85 2.665291 1_555
Cd7 O95 2.175914 1_555
Cd7 O20 2.240286 1_555
Cd7 O12 2.414945 1_565
Cd7 O72 2.445655 1_565
Cd7 O47 2.489941 1_555
Cd7 O26 2.528814 1_555
Cd7 O86 2.740913 1_455
O0 P15 1.577831 1_555
O0 Zn12 2.093507 1_555
O0 Zn0 2.114035 1_555
O1 P16 1.578151 1_555
O1 Zn13 2.088907 1_555
O1 Zn1 2.108414 1_555
O2 P17 1.577488 1_555
O2 Zn14 2.102336 1_555
O2 Zn2 2.103392 1_555
O3 P12 1.578578 1_556
O3 Zn3 2.100935 1_555
O3 Zn15 2.123581 1_555
O4 P13 1.579758 1_556
O4 Zn4 2.097193 1_555
O4 Zn16 2.132842 1_555
O5 P14 1.575877 1_556
O5 Zn5 2.116110 1_655
O5 Zn17 2.126779 1_555
O6 P21 1.579630 1_555
O6 Zn6 2.118696 1_555
O6 Zn18 2.177793 1_555
O7 P22 1.580300 1_555
O7 Zn7 2.126466 1_555
O7 Zn19 2.133706 1_555
O8 P23 1.580957 1_555
O8 Zn8 2.118950 1_555
O8 Zn20 2.133679 1_555
O9 P18 1.580879 1_554
O9 Zn9 2.123547 1_455
O9 Zn21 2.137412 1_555
O10 P19 1.581984 1_554
O10 Zn10 2.089261 1_555
O10 Zn22 2.145653 1_555
O11 P20 1.581096 1_554
O11 Zn11 2.091035 1_555
O11 Zn23 2.182386 1_555
O12 P0 1.554648 1_555
O12 Zn27 2.044839 1_555
O13 P1 1.544319 1_555
O14 P2 1.544110 1_655
O15 P3 1.553775 1_555
O15 Zn24 1.996944 1_556
O16 P4 1.553248 1_455
O16 Zn25 1.995815 1_556
O17 P5 1.552766 1_555
O17 Zn26 2.033514 1_556
O18 P6 1.546369 1_455
O19 P7 1.546386 1_555
O20 P8 1.562975 1_555
O20 Zn27 2.143426 1_565
O21 P9 1.561591 1_555
O21 Zn26 2.151787 1_445
O22 P10 1.562728 1_655
O22 Zn24 2.166038 1_555
O23 P11 1.562400 1_555
O23 Zn25 2.168603 1_555
O24 P21 1.543554 1_555
O24 Zn12 1.928274 1_555
O25 P22 1.541454 1_555
O25 Zn13 1.927714 1_655
O26 P23 1.541230 1_555
O26 Zn14 1.931773 1_555
O27 P18 1.542728 1_655
O27 Zn15 1.931028 1_555
O28 P19 1.544751 1_555
O28 Zn16 1.933378 1_555
O29 P20 1.545222 1_555
O29 Zn17 1.933383 1_455
O30 P15 1.551393 1_555
O30 Zn18 1.938258 1_555
O30 Zn27 2.346498 1_555
O31 P16 1.545246 1_555
O31 Zn19 1.935571 1_455
O32 P17 1.546054 1_555
O32 Zn20 1.933648 1_555
O33 P12 1.551382 1_555
O33 Zn21 1.936100 1_655
O33 Zn24 2.310447 1_555
O34 P13 1.551358 1_555
O34 Zn22 1.933254 1_555
O34 Zn25 2.303402 1_555
O35 P14 1.554630 1_455
O35 Zn23 1.936320 1_555
O35 Zn26 2.301341 1_455
O36 P12 1.543917 1_555
O36 Zn21 1.932762 1_555
O36 Zn24 2.476293 1_555
O37 P13 1.543593 1_555
O37 Zn22 1.930054 1_455
O37 Zn25 2.466435 1_555
O38 P14 1.548102 1_555
O38 Zn23 1.936939 1_555
O38 Zn26 2.426576 1_555
O39 P15 1.545790 1_555
O39 Zn18 1.938581 1_655
O39 Zn27 2.479653 1_555
O40 P16 1.551254 1_555
O40 Zn19 1.953314 1_555
O41 P17 1.552161 1_455
O41 Zn20 1.950968 1_555
O42 P18 1.549685 1_555
O42 Zn15 1.951581 1_555
O43 P19 1.548366 1_555
O43 Zn16 1.950821 1_655
O44 P20 1.548596 1_555
O44 Zn17 1.950150 1_555
O45 P21 1.552249 1_655
O45 Zn12 1.945038 1_555
O46 P22 1.550705 1_555
O46 Zn13 1.945287 1_555
O47 P23 1.549020 1_555
O47 Zn14 1.951742 1_455
O48 P12 1.559787 1_555
O48 Zn0 2.074618 1_555
O48 Zn9 2.196277 1_555
O49 P13 1.556033 1_555
O49 Zn1 2.066018 1_555
O49 Zn10 2.228849 1_555
O50 P14 1.556652 1_555
O50 Zn2 2.068354 1_555
O50 Zn11 2.245935 1_655
O51 P15 1.561641 1_555
O51 Zn3 2.068276 1_555
O51 Zn6 2.196720 1_555
O52 P16 1.560114 1_555
O52 Zn4 2.069127 1_555
O52 Zn7 2.184015 1_455
O53 P17 1.557092 1_555
O53 Zn5 2.063694 1_655
O53 Zn8 2.195744 1_555
O54 P18 1.560368 1_555
O54 Zn6 2.066938 1_555
O54 Zn3 2.178103 1_455
O55 P19 1.558076 1_555
O55 Zn7 2.067979 1_555
O55 Zn4 2.177602 1_555
O56 P20 1.560254 1_555
O56 Zn8 2.072936 1_555
O56 Zn5 2.153863 1_555
O57 P21 1.558066 1_555
O57 Zn9 2.065196 1_455
O57 Zn0 2.161308 1_555
O58 P22 1.558886 1_555
O58 Zn10 2.064215 1_555
O58 Zn1 2.181123 1_655
O59 P23 1.559323 1_555
O59 Zn11 2.060904 1_555
O59 Zn2 2.182566 1_555
O60 P0 1.571867 1_555
O60 Zn9 2.044250 1_555
O60 Zn0 2.063342 1_555
O61 P1 1.567505 1_555
O61 Zn10 2.008400 1_555
O61 Zn1 2.078920 1_555
O62 P2 1.569133 1_555
O62 Zn11 2.012388 1_555
O62 Zn2 2.080429 1_455
O63 P3 1.576180 1_555
O63 Zn6 2.046914 1_555
O63 Zn3 2.093895 1_555
O64 P4 1.575230 1_455
O64 Zn7 2.046745 1_455
O64 Zn4 2.092404 1_555
O65 P5 1.570148 1_555
O65 Zn8 2.035564 1_555
O65 Zn5 2.066145 1_655
O66 P6 1.570053 1_555
O66 Zn3 2.025284 1_555
O66 Zn6 2.105072 1_655
O67 P7 1.569808 1_555
O67 Zn4 2.024734 1_555
O67 Zn7 2.101400 1_555
O68 P8 1.576039 1_555
O68 Zn5 2.034248 1_555
O68 Zn8 2.097544 1_555
O69 P9 1.574906 1_555
O69 Zn0 2.013367 1_555
O69 Zn9 2.093024 1_455
O70 P10 1.575705 1_655
O70 Zn1 2.010171 1_655
O70 Zn10 2.102621 1_555
O71 P11 1.576109 1_555
O71 Zn2 2.011353 1_555
O71 Zn11 2.107048 1_555
O72 P0 1.557695 1_455
O72 Zn18 1.991121 1_555
O73 P1 1.560498 1_555
O73 Zn19 1.992546 1_555
O74 P2 1.560498 1_555
O74 Zn20 1.991642 1_555
O75 P3 1.547795 1_555
O75 Zn21 1.962669 1_556
O76 P4 1.547591 1_555
O76 Zn22 1.961018 1_556
O77 P5 1.557890 1_555
O77 Zn23 1.998112 1_556
O78 P6 1.549860 1_555
O78 Zn12 1.958192 1_555
O79 P7 1.549820 1_555
O79 Zn13 1.957108 1_555
O80 P8 1.542418 1_655
O80 Zn14 1.946448 1_555
O81 P9 1.541977 1_555
O81 Zn15 1.950096 1_554
O82 P10 1.541719 1_555
O82 Zn16 1.948027 1_554
O83 P11 1.541929 1_555
O83 Zn17 1.947280 1_554
O84 P1 1.551548 1_555
O84 Zn24 1.967094 1_555
O85 P2 1.551459 1_555
O85 Zn25 1.965253 1_555
O86 P0 1.549116 1_565
O86 Zn26 1.990645 1_555
O87 P5 1.550529 1_545
O87 Zn27 2.001740 1_555
O88 P3 1.550089 1_555
O89 P4 1.550085 1_555
O90 P8 1.542804 1_545
O91 P6 1.553768 1_555
O92 P7 1.553407 1_555
O93 P10 1.541315 1_555
O94 P11 1.541164 1_555
O95 P9 1.542446 1_565
