# generated using pymatgen
data_Ca3Co3(AsO4)4
_symmetry_space_group_name_H-M   'P 1'
_cell_length_a   5.16980000
_cell_length_b   9.24605000
_cell_length_c   17.27190107
_cell_angle_alpha   62.99223712
_cell_angle_beta   90.00000000
_cell_angle_gamma   90.00000000
_symmetry_Int_Tables_number   1
_chemical_formula_structural   Ca3Co3(AsO4)4
_chemical_formula_sum   'Ca6 Co6 As8 O32'
_cell_volume   735.56493759
_cell_formula_units_Z   2
loop_
 _symmetry_equiv_pos_site_id
 _symmetry_equiv_pos_as_xyz
  1  'x, y, z'
loop_
 _atom_site_type_symbol
 _atom_site_label
 _atom_site_symmetry_multiplicity
 _atom_site_fract_x
 _atom_site_fract_y
 _atom_site_fract_z
 _atom_site_occupancy
  Ca  Ca0  1  0.53737900  0.30959000  0.23146400  1
  Ca  Ca1  1  0.03737900  0.69041000  0.26853600  1
  Ca  Ca2  1  0.46262100  0.69041000  0.76853600  1
  Ca  Ca3  1  0.96262100  0.30959000  0.73146400  1
  Ca  Ca4  1  0.50000000  0.00000000  0.50000000  1
  Ca  Ca5  1  0.00000000  0.00000000  0.00000000  1
  Co  Co0  1  0.47672900  0.20065000  0.62192800  1
  Co  Co1  1  0.52327100  0.79935000  0.37807200  1
  Co  Co2  1  0.97672900  0.79935000  0.87807200  1
  Co  Co3  1  0.02327100  0.20065000  0.12192800  1
  Co  Co4  1  0.00000000  0.50000000  0.50000000  1
  Co  Co5  1  0.50000000  0.50000000  0.00000000  1
  As  As0  1  0.00887400  0.03824600  0.34226800  1
  As  As1  1  0.49025800  0.43591100  0.40422400  1
  As  As2  1  0.99025800  0.56408900  0.09577600  1
  As  As3  1  0.00974200  0.43591100  0.90422400  1
  As  As4  1  0.99112600  0.96175400  0.65773200  1
  As  As5  1  0.50974200  0.56408900  0.59577600  1
  As  As6  1  0.49112600  0.03824600  0.84226800  1
  As  As7  1  0.50887400  0.96175400  0.15773200  1
  O  O0  1  0.44618800  0.81199300  0.26275300  1
  O  O1  1  0.94705400  0.74758300  0.00629700  1
  O  O2  1  0.38400400  0.43676500  0.31148200  1
  O  O3  1  0.40429200  0.14735400  0.14849800  1
  O  O4  1  0.61599600  0.56323500  0.68851800  1
  O  O5  1  0.05381200  0.81199300  0.76275300  1
  O  O6  1  0.88400400  0.56323500  0.18851800  1
  O  O7  1  0.69906100  0.51136600  0.89607800  1
  O  O8  1  0.65523900  0.10152500  0.90583700  1
  O  O9  1  0.55381200  0.18800700  0.73724700  1
  O  O10  1  0.09570800  0.14735400  0.64849800  1
  O  O11  1  0.30093900  0.48863400  0.10392200  1
  O  O12  1  0.29877400  0.57860900  0.41933900  1
  O  O13  1  0.34476100  0.89847500  0.09416300  1
  O  O14  1  0.65759900  0.97135100  0.64205700  1
  O  O15  1  0.15759900  0.02864900  0.85794300  1
  O  O16  1  0.79877400  0.42139100  0.08066100  1
  O  O17  1  0.11599600  0.43676500  0.81148200  1
  O  O18  1  0.15523900  0.89847500  0.59416300  1
  O  O19  1  0.19906100  0.48863400  0.60392200  1
  O  O20  1  0.84240100  0.97135100  0.14205700  1
  O  O21  1  0.34240100  0.02864900  0.35794300  1
  O  O22  1  0.05294600  0.25241700  0.99370300  1
  O  O23  1  0.44705400  0.25241700  0.49370300  1
  O  O24  1  0.70122600  0.42139100  0.58066100  1
  O  O25  1  0.94618800  0.18800700  0.23724700  1
  O  O26  1  0.59570800  0.85264600  0.85150200  1
  O  O27  1  0.84476100  0.10152500  0.40583700  1
  O  O28  1  0.55294600  0.74758300  0.50629700  1
  O  O29  1  0.80093900  0.51136600  0.39607800  1
  O  O30  1  0.20122600  0.57860900  0.91933900  1
  O  O31  1  0.90429200  0.85264600  0.35150200  1
loop_
_geom_bond_atom_site_label_1
_geom_bond_atom_site_label_2
_geom_bond_distance
_geom_bond_site_symmetry_2
Ca0 O2 2.323241 1_555
Ca0 O25 2.374543 1_555
Ca0 O11 2.403185 1_555
Ca0 O3 2.594071 1_555
Ca0 O16 2.689536 1_555
Ca0 O21 2.716984 1_555
Ca0 O6 2.771553 1_555
Ca1 O6 2.323241 1_455
Ca1 O0 2.374543 1_555
Ca1 O29 2.403185 1_455
Ca1 O31 2.594071 1_455
Ca1 O12 2.689536 1_555
Ca1 O20 2.716984 1_455
Ca1 O2 2.771553 1_555
Ca2 O4 2.323241 1_555
Ca2 O5 2.374543 1_555
Ca2 O7 2.403185 1_555
Ca2 O26 2.594071 1_555
Ca2 O30 2.689536 1_555
Ca2 O14 2.716984 1_555
Ca2 O17 2.771553 1_555
Ca3 O17 2.323241 1_655
Ca3 O9 2.374543 1_555
Ca3 O19 2.403185 1_655
Ca3 O10 2.594071 1_655
Ca3 O24 2.689536 1_555
Ca3 O15 2.716984 1_655
Ca3 O4 2.771553 1_555
Ca4 O28 2.302850 1_545
Ca4 O23 2.302850 1_555
Ca4 O27 2.305742 1_555
Ca4 O18 2.305742 1_545
Ca4 O14 2.482707 1_545
Ca4 O21 2.482707 1_555
Ca5 O1 2.302850 1_445
Ca5 O22 2.302850 1_554
Ca5 O8 2.305742 1_454
Ca5 O13 2.305742 1_545
Ca5 O20 2.482707 1_445
Ca5 O15 2.482707 1_554
Co0 O9 1.981965 1_555
Co0 O10 2.031789 1_555
Co0 O23 2.048104 1_555
Co0 O24 2.167815 1_555
Co0 O14 2.195595 1_545
Co1 O0 1.981965 1_555
Co1 O31 2.031789 1_555
Co1 O28 2.048104 1_555
Co1 O12 2.167815 1_555
Co1 O21 2.195595 1_565
Co2 O5 1.981965 1_655
Co2 O26 2.031789 1_555
Co2 O1 2.048104 1_556
Co2 O30 2.167815 1_655
Co2 O15 2.195595 1_665
Co3 O25 1.981965 1_455
Co3 O3 2.031789 1_555
Co3 O22 2.048104 1_554
Co3 O16 2.167815 1_455
Co3 O20 2.195595 1_445
Co4 O24 1.983767 1_455
Co4 O12 1.983767 1_555
Co4 O19 2.029916 1_555
Co4 O29 2.029916 1_455
Co5 O16 1.983767 1_555
Co5 O30 1.983767 1_554
Co5 O11 2.029916 1_555
Co5 O7 2.029916 1_554
As0 O27 1.688521 1_455
As0 O31 1.736108 1_445
As0 O25 1.741117 1_455
As0 O21 1.741394 1_555
As1 O2 1.690024 1_555
As1 O23 1.713304 1_555
As1 O29 1.731220 1_555
As1 O12 1.761180 1_555
As2 O6 1.690024 1_555
As2 O1 1.713304 1_555
As2 O11 1.731220 1_655
As2 O16 1.761180 1_555
As3 O17 1.690024 1_555
As3 O22 1.713304 1_555
As3 O7 1.731220 1_455
As3 O30 1.761180 1_555
As4 O18 1.688521 1_655
As4 O10 1.736108 1_665
As4 O5 1.741117 1_655
As4 O14 1.741394 1_555
As5 O4 1.690024 1_555
As5 O28 1.713304 1_555
As5 O19 1.731220 1_555
As5 O24 1.761180 1_555
As6 O8 1.688521 1_555
As6 O26 1.736108 1_545
As6 O9 1.741117 1_555
As6 O15 1.741394 1_555
As7 O13 1.688521 1_555
As7 O3 1.736108 1_565
As7 O0 1.741117 1_555
As7 O20 1.741394 1_555
