# generated using pymatgen
data_PrEu3
_symmetry_space_group_name_H-M   'P 1'
_cell_length_a   7.75304258
_cell_length_b   7.75304258
_cell_length_c   6.25977200
_cell_angle_alpha   90.00000000
_cell_angle_beta   90.00000000
_cell_angle_gamma   120.00000496
_symmetry_Int_Tables_number   1
_chemical_formula_structural   PrEu3
_chemical_formula_sum   'Pr2 Eu6'
_cell_volume   325.86180859
_cell_formula_units_Z   2
loop_
 _symmetry_equiv_pos_site_id
 _symmetry_equiv_pos_as_xyz
  1  'x, y, z'
loop_
 _atom_site_type_symbol
 _atom_site_label
 _atom_site_symmetry_multiplicity
 _atom_site_fract_x
 _atom_site_fract_y
 _atom_site_fract_z
 _atom_site_occupancy
  Pr  Pr0  1  0.33333300  0.66666700  0.75000000  1
  Pr  Pr1  1  0.66666700  0.33333300  0.25000000  1
  Eu  Eu0  1  0.16933600  0.33867300  0.25000000  1
  Eu  Eu1  1  0.66132700  0.83066400  0.25000000  1
  Eu  Eu2  1  0.16933600  0.83066400  0.25000000  1
  Eu  Eu3  1  0.83066400  0.66132700  0.75000000  1
  Eu  Eu4  1  0.33867300  0.16933600  0.75000000  1
  Eu  Eu5  1  0.83066400  0.16933600  0.75000000  1
loop_
_geom_bond_atom_site_label_1
_geom_bond_atom_site_label_2
_geom_bond_distance
_geom_bond_site_symmetry_2
Eu0 Eu1 3.814427 1_555
Eu0 Eu2 3.814427 1_555
Eu0 Pr0 3.827027 1_555
Eu0 Pr0 3.827027 1_554
Eu0 Eu5 3.868729 1_454
Eu0 Eu5 3.868729 1_455
Eu0 Eu4 3.868737 1_555
Eu0 Eu4 3.868737 1_554
Eu0 Pr1 3.876679 1_455
Eu0 Pr1 3.876695 1_555
Eu0 Eu1 3.938615 1_445
Eu0 Eu2 3.938615 1_545
Eu1 Eu2 3.814427 1_555
Eu1 Pr0 3.827027 1_555
Eu1 Pr0 3.827027 1_554
Eu1 Eu5 3.868729 1_565
Eu1 Eu5 3.868729 1_564
Eu1 Eu3 3.868737 1_555
Eu1 Eu3 3.868737 1_554
Eu1 Pr1 3.876679 1_565
Eu1 Pr1 3.876695 1_555
Eu1 Eu2 3.938615 1_655
Eu2 Pr0 3.827027 1_555
Eu2 Pr0 3.827027 1_554
Eu2 Eu4 3.868729 1_564
Eu2 Eu3 3.868729 1_455
Eu2 Eu3 3.868729 1_454
Eu2 Eu4 3.868729 1_565
Eu2 Pr1 3.876687 1_455
Eu2 Pr1 3.876687 1_565
Eu3 Eu4 3.814427 1_555
Eu3 Eu5 3.814427 1_555
Eu3 Pr1 3.827027 1_556
Eu3 Pr1 3.827027 1_555
Eu3 Pr0 3.876679 1_655
Eu3 Pr0 3.876695 1_555
Eu3 Eu4 3.938615 1_665
Eu3 Eu5 3.938615 1_565
Eu4 Eu5 3.814427 1_555
Eu4 Pr1 3.827027 1_556
Eu4 Pr1 3.827027 1_555
Eu4 Pr0 3.876679 1_545
Eu4 Pr0 3.876695 1_555
Eu4 Eu5 3.938615 1_455
Eu5 Pr1 3.827027 1_556
Eu5 Pr1 3.827027 1_555
Eu5 Pr0 3.876687 1_545
Eu5 Pr0 3.876687 1_655
