# generated using pymatgen
data_YbCo5P3
_symmetry_space_group_name_H-M   'P 1'
_cell_length_a   3.61160099
_cell_length_b   10.13427564
_cell_length_c   11.59775105
_cell_angle_alpha   90.00000000
_cell_angle_beta   90.00000000
_cell_angle_gamma   90.00000000
_symmetry_Int_Tables_number   1
_chemical_formula_structural   YbCo5P3
_chemical_formula_sum   'Yb4 Co20 P12'
_cell_volume   424.48882204
_cell_formula_units_Z   4
loop_
 _symmetry_equiv_pos_site_id
 _symmetry_equiv_pos_as_xyz
  1  'x, y, z'
loop_
 _atom_site_type_symbol
 _atom_site_label
 _atom_site_symmetry_multiplicity
 _atom_site_fract_x
 _atom_site_fract_y
 _atom_site_fract_z
 _atom_site_occupancy
  Yb  Yb0  1  0.25000000  0.58145752  0.70172741  1
  Yb  Yb1  1  0.25000000  0.91854248  0.20172741  1
  Yb  Yb2  1  0.75000000  0.41854248  0.29827259  1
  Yb  Yb3  1  0.75000000  0.08145752  0.79827259  1
  Co  Co0  1  0.25000000  0.71230436  0.98968794  1
  Co  Co1  1  0.25000000  0.78769564  0.48968794  1
  Co  Co2  1  0.75000000  0.28769564  0.01031206  1
  Co  Co3  1  0.75000000  0.21230436  0.51031206  1
  Co  Co4  1  0.25000000  0.40590232  0.48647867  1
  Co  Co5  1  0.25000000  0.09409768  0.98647867  1
  Co  Co6  1  0.75000000  0.59409768  0.51352133  1
  Co  Co7  1  0.75000000  0.90590232  0.01352133  1
  Co  Co8  1  0.25000000  0.22202603  0.17535457  1
  Co  Co9  1  0.25000000  0.27797397  0.67535457  1
  Co  Co10  1  0.75000000  0.77797397  0.82464543  1
  Co  Co11  1  0.75000000  0.72202603  0.32464543  1
  Co  Co12  1  0.25000000  0.88258646  0.69924168  1
  Co  Co13  1  0.25000000  0.61741354  0.19924168  1
  Co  Co14  1  0.75000000  0.11741354  0.30075832  1
  Co  Co15  1  0.75000000  0.38258646  0.80075832  1
  Co  Co16  1  0.25000000  0.46615037  0.93270336  1
  Co  Co17  1  0.25000000  0.03384963  0.43270336  1
  Co  Co18  1  0.75000000  0.53384963  0.06729664  1
  Co  Co19  1  0.75000000  0.96615037  0.56729664  1
  P  P0  1  0.25000000  0.42023510  0.11452092  1
  P  P1  1  0.25000000  0.07976490  0.61452092  1
  P  P2  1  0.75000000  0.57976490  0.88547908  1
  P  P3  1  0.75000000  0.92023510  0.38547908  1
  P  P4  1  0.25000000  0.26890010  0.86664178  1
  P  P5  1  0.25000000  0.23109990  0.36664178  1
  P  P6  1  0.75000000  0.73109990  0.13335822  1
  P  P7  1  0.75000000  0.76890010  0.63335822  1
  P  P8  1  0.25000000  0.60061774  0.39182607  1
  P  P9  1  0.25000000  0.89938226  0.89182607  1
  P  P10  1  0.75000000  0.39938226  0.60817393  1
  P  P11  1  0.75000000  0.10061774  0.10817393  1
loop_
_geom_bond_atom_site_label_1
_geom_bond_atom_site_label_2
_geom_bond_distance
_geom_bond_site_symmetry_2
Co0 P9 2.209662 1_555
Co0 P6 2.464466 1_456
Co0 P6 2.464466 1_556
Co0 P2 2.554558 1_455
Co0 P2 2.554558 1_555
Co0 Yb1 3.227380 1_556
Co1 P8 2.209662 1_555
Co1 P7 2.464466 1_455
Co1 P7 2.464466 1_555
Co1 P3 2.554558 1_555
Co1 P3 2.554558 1_455
Co1 Yb0 3.227380 1_555
Co2 P11 2.209662 1_555
Co2 P4 2.464466 1_654
Co2 P4 2.464466 1_554
Co2 P0 2.554558 1_555
Co2 P0 2.554558 1_655
Co2 Yb3 3.227380 1_554
Co3 P10 2.209662 1_555
Co3 P5 2.464466 1_655
Co3 P5 2.464466 1_555
Co3 P1 2.554558 1_655
Co3 P1 2.554558 1_555
Co3 Yb2 3.227380 1_555
Co4 P5 2.251632 1_555
Co4 P8 2.258093 1_555
Co4 P10 2.292882 1_455
Co4 P10 2.292882 1_555
Co4 Yb2 2.835806 1_455
Co4 Yb2 2.835806 1_555
Co4 Yb0 3.065502 1_555
Co5 P4 2.251632 1_555
Co5 P9 2.258093 1_545
Co5 P11 2.292882 1_456
Co5 P11 2.292882 1_556
Co5 Yb3 2.835806 1_555
Co5 Yb3 2.835806 1_455
Co5 Yb1 3.065502 1_546
Co6 P7 2.251632 1_555
Co6 P10 2.258093 1_555
Co6 P8 2.292882 1_555
Co6 P8 2.292882 1_655
Co6 Yb0 2.835806 1_555
Co6 Yb0 2.835806 1_655
Co6 Yb2 3.065502 1_555
Co7 P6 2.251632 1_555
Co7 P11 2.258093 1_565
Co7 P9 2.292882 1_554
Co7 P9 2.292882 1_654
Co7 Yb1 2.835806 1_655
Co7 Yb1 2.835806 1_555
Co7 Yb3 3.065502 1_564
Co8 P0 2.129008 1_555
Co8 P5 2.220407 1_555
Co8 P11 2.319877 1_455
Co8 P11 2.319877 1_555
Co8 Yb2 3.042935 1_455
Co8 Yb2 3.042935 1_555
Co8 Yb1 3.090758 1_545
Co9 P1 2.129008 1_555
Co9 P4 2.220407 1_555
Co9 P10 2.319877 1_555
Co9 P10 2.319877 1_455
Co9 Yb3 3.042935 1_455
Co9 Yb3 3.042935 1_555
Co9 Yb0 3.090758 1_555
Co10 P2 2.129008 1_555
Co10 P7 2.220407 1_555
Co10 P9 2.319877 1_555
Co10 P9 2.319877 1_655
Co10 Yb0 3.042935 1_555
Co10 Yb0 3.042935 1_655
Co10 Yb3 3.090758 1_565
Co11 P3 2.129008 1_555
Co11 P6 2.220407 1_555
Co11 P8 2.319877 1_655
Co11 P8 2.319877 1_555
Co11 Yb1 3.042935 1_555
Co11 Yb1 3.042935 1_655
Co11 Yb2 3.090758 1_555
Co12 P1 2.226767 1_565
Co12 P9 2.240022 1_555
Co12 P7 2.274240 1_455
Co12 P7 2.274240 1_555
Co12 Yb3 2.939718 1_565
Co12 Yb3 2.939718 1_465
Co12 Yb0 3.051860 1_555
Co13 P0 2.226767 1_555
Co13 P8 2.240022 1_555
Co13 P6 2.274240 1_555
Co13 P6 2.274240 1_455
Co13 Yb2 2.939718 1_455
Co13 Yb2 2.939718 1_555
Co13 Yb1 3.051860 1_555
Co14 P3 2.226767 1_545
Co14 P11 2.240022 1_555
Co14 P5 2.274240 1_655
Co14 P5 2.274240 1_555
Co14 Yb1 2.939718 1_645
Co14 Yb1 2.939718 1_545
Co14 Yb2 3.051860 1_555
Co15 P2 2.226767 1_555
Co15 P10 2.240022 1_555
Co15 P4 2.274240 1_555
Co15 P4 2.274240 1_655
Co15 Yb0 2.939718 1_655
Co15 Yb0 2.939718 1_555
Co15 Yb3 3.051860 1_555
Co16 P4 2.140786 1_555
Co16 P0 2.159405 1_556
Co16 P2 2.210568 1_555
Co16 P2 2.210568 1_455
Co16 Yb0 2.922584 1_555
Co17 P5 2.140786 1_555
Co17 P1 2.159405 1_555
Co17 P3 2.210568 1_445
Co17 P3 2.210568 1_545
Co17 Yb1 2.922584 1_545
Co18 P6 2.140786 1_555
Co18 P2 2.159405 1_554
Co18 P0 2.210568 1_555
Co18 P0 2.210568 1_655
Co18 Yb2 2.922584 1_555
Co19 P7 2.140786 1_555
Co19 P3 2.159405 1_555
Co19 P1 2.210568 1_565
Co19 P1 2.210568 1_665
Co19 Yb3 2.922584 1_565
P0 Yb2 2.793353 1_555
P0 Yb2 2.793353 1_455
P1 Yb3 2.793353 1_555
P1 Yb3 2.793353 1_455
P2 Yb0 2.793353 1_555
P2 Yb0 2.793353 1_655
P3 Yb1 2.793353 1_655
P3 Yb1 2.793353 1_555
P4 Yb3 2.738268 1_555
P4 Yb3 2.738268 1_455
P5 Yb2 2.738268 1_455
P5 Yb2 2.738268 1_555
P6 Yb1 2.738268 1_555
P6 Yb1 2.738268 1_655
P7 Yb0 2.738268 1_555
P7 Yb0 2.738268 1_655
P8 Yb2 2.800523 1_455
P8 Yb2 2.800523 1_555
P9 Yb3 2.800523 1_465
P9 Yb3 2.800523 1_565
P10 Yb0 2.800523 1_655
P10 Yb0 2.800523 1_555
P11 Yb1 2.800523 1_645
P11 Yb1 2.800523 1_545
