# generated using pymatgen
data_Ga5CuSe8
_symmetry_space_group_name_H-M   'P 1'
_cell_length_a   5.47384903
_cell_length_b   5.47384903
_cell_length_c   11.19477737
_cell_angle_alpha   90.00000000
_cell_angle_beta   90.00000000
_cell_angle_gamma   90.00000000
_symmetry_Int_Tables_number   1
_chemical_formula_structural   Ga5CuSe8
_chemical_formula_sum   'Ga5 Cu1 Se8'
_cell_volume   335.42937409
_cell_formula_units_Z   1
loop_
 _symmetry_equiv_pos_site_id
 _symmetry_equiv_pos_as_xyz
  1  'x, y, z'
loop_
 _atom_site_type_symbol
 _atom_site_label
 _atom_site_symmetry_multiplicity
 _atom_site_fract_x
 _atom_site_fract_y
 _atom_site_fract_z
 _atom_site_occupancy
  Ga  Ga0  1  -0.00000000  0.50000000  0.25485053  1
  Ga  Ga1  1  0.50000000  0.00000000  0.74514947  1
  Ga  Ga2  1  -0.00000000  0.50000000  0.74514947  1
  Ga  Ga3  1  0.50000000  0.00000000  0.25485053  1
  Ga  Ga4  1  -0.00000000  0.00000000  -0.00000000  1
  Cu  Cu0  1  0.50000000  0.50000000  0.50000000  1
  Se  Se0  1  0.26454473  0.26454473  0.11677023  1
  Se  Se1  1  0.73545527  0.73545527  0.11677023  1
  Se  Se2  1  0.26454473  0.73545527  0.88322977  1
  Se  Se3  1  0.73545527  0.26454473  0.88322977  1
  Se  Se4  1  0.24112575  0.24112575  0.61950542  1
  Se  Se5  1  0.75887425  0.75887425  0.61950542  1
  Se  Se6  1  0.24112575  0.75887425  0.38049458  1
  Se  Se7  1  0.75887425  0.24112575  0.38049458  1
loop_
_geom_bond_atom_site_label_1
_geom_bond_atom_site_label_2
_geom_bond_distance
_geom_bond_site_symmetry_2
Ga0 Se7 2.393429 1_455
Ga0 Se6 2.393429 1_555
Ga0 Se0 2.479412 1_555
Ga0 Se1 2.479412 1_455
Ga1 Se5 2.393429 1_545
Ga1 Se4 2.393429 1_555
Ga1 Se2 2.479412 1_545
Ga1 Se3 2.479412 1_555
Ga2 Se4 2.393429 1_555
Ga2 Se5 2.393429 1_455
Ga2 Se2 2.479412 1_555
Ga2 Se3 2.479412 1_455
Ga3 Se6 2.393429 1_545
Ga3 Se7 2.393429 1_555
Ga3 Se1 2.479412 1_545
Ga3 Se0 2.479412 1_555
Ga4 Se2 2.429542 1_544
Ga4 Se3 2.429542 1_454
Ga4 Se0 2.429542 1_555
Ga4 Se1 2.429542 1_445
Cu0 Se5 2.409523 1_555
Cu0 Se4 2.409523 1_555
Cu0 Se6 2.409523 1_555
Cu0 Se7 2.409523 1_555
