# generated using pymatgen
data_Nd5P12Ru19
_symmetry_space_group_name_H-M   'P 1'
_cell_length_a   12.62692714
_cell_length_b   12.62692714
_cell_length_c   4.01418200
_cell_angle_alpha   90.00000000
_cell_angle_beta   90.00000000
_cell_angle_gamma   120.00000595
_symmetry_Int_Tables_number   1
_chemical_formula_structural   Nd5P12Ru19
_chemical_formula_sum   'Nd5 P12 Ru19'
_cell_volume   554.27209390
_cell_formula_units_Z   1
loop_
 _symmetry_equiv_pos_site_id
 _symmetry_equiv_pos_as_xyz
  1  'x, y, z'
loop_
 _atom_site_type_symbol
 _atom_site_label
 _atom_site_symmetry_multiplicity
 _atom_site_fract_x
 _atom_site_fract_y
 _atom_site_fract_z
 _atom_site_occupancy
  Nd  Nd0  1  0.00000000  0.18430800  0.50000000  1
  Nd  Nd1  1  0.81569200  0.81569200  0.50000000  1
  Nd  Nd2  1  0.18430800  0.00000000  0.50000000  1
  Nd  Nd3  1  0.66666700  0.33333300  0.00000000  1
  Nd  Nd4  1  0.33333300  0.66666700  0.00000000  1
  P  P0  1  0.00000000  0.81326500  0.00000000  1
  P  P1  1  0.18673500  0.18673500  0.00000000  1
  P  P2  1  0.81326500  0.00000000  0.00000000  1
  P  P3  1  0.69358200  0.16992300  0.50000000  1
  P  P4  1  0.83007700  0.52365900  0.50000000  1
  P  P5  1  0.47634100  0.30641800  0.50000000  1
  P  P6  1  0.16992300  0.69358200  0.50000000  1
  P  P7  1  0.52365900  0.83007700  0.50000000  1
  P  P8  1  0.30641800  0.47634100  0.50000000  1
  P  P9  1  0.00000000  0.37426800  0.00000000  1
  P  P10  1  0.62573200  0.62573200  0.00000000  1
  P  P11  1  0.37426800  0.00000000  0.00000000  1
  Ru  Ru0  1  0.00000000  0.55478400  0.00000000  1
  Ru  Ru1  1  0.44521600  0.44521600  0.00000000  1
  Ru  Ru2  1  0.55478400  0.00000000  0.00000000  1
  Ru  Ru3  1  0.00000000  0.71556600  0.50000000  1
  Ru  Ru4  1  0.28443400  0.28443400  0.50000000  1
  Ru  Ru5  1  0.71556600  0.00000000  0.50000000  1
  Ru  Ru6  1  0.80625900  0.18417900  0.00000000  1
  Ru  Ru7  1  0.81582100  0.62208000  0.00000000  1
  Ru  Ru8  1  0.37792000  0.19374100  0.00000000  1
  Ru  Ru9  1  0.18417900  0.80625900  0.00000000  1
  Ru  Ru10  1  0.62208000  0.81582100  0.00000000  1
  Ru  Ru11  1  0.19374100  0.37792000  0.00000000  1
  Ru  Ru12  1  0.87519100  0.36579100  0.50000000  1
  Ru  Ru13  1  0.63420900  0.50940000  0.50000000  1
  Ru  Ru14  1  0.49060000  0.12480900  0.50000000  1
  Ru  Ru15  1  0.36579100  0.87519100  0.50000000  1
  Ru  Ru16  1  0.50940000  0.63420900  0.50000000  1
  Ru  Ru17  1  0.12480900  0.49060000  0.50000000  1
  Ru  Ru18  1  0.00000000  0.00000000  0.00000000  1
loop_
_geom_bond_atom_site_label_1
_geom_bond_atom_site_label_2
_geom_bond_distance
_geom_bond_site_symmetry_2
Nd0 Ru18 3.073187 1_556
Nd0 Ru18 3.073187 1_555
Nd0 P2 3.084921 1_456
Nd0 P2 3.084921 1_455
Nd0 P1 3.084921 1_556
Nd0 P1 3.084921 1_555
Nd0 P9 3.127579 1_556
Nd0 P9 3.127579 1_555
Nd0 Ru5 3.155435 1_455
Nd0 Ru4 3.155435 1_555
Nd0 Ru11 3.163712 1_556
Nd0 Ru11 3.163712 1_555
Nd0 Ru6 3.163713 1_456
Nd0 Ru6 3.163713 1_455
Nd0 Ru17 3.368434 1_555
Nd0 Ru12 3.368434 1_455
Nd1 Ru18 3.073187 1_666
Nd1 Ru18 3.073187 1_665
Nd1 P2 3.084921 1_566
Nd1 P0 3.084921 1_656
Nd1 P0 3.084921 1_655
Nd1 P2 3.084921 1_565
Nd1 P10 3.127579 1_556
Nd1 P10 3.127579 1_555
Nd1 Ru5 3.155436 1_565
Nd1 Ru3 3.155436 1_655
Nd1 Ru10 3.163713 1_556
Nd1 Ru10 3.163713 1_555
Nd1 Ru7 3.163713 1_555
Nd1 Ru7 3.163713 1_556
Nd1 Ru13 3.368434 1_555
Nd1 Ru16 3.368434 1_555
Nd2 Ru18 3.073187 1_556
Nd2 Ru18 3.073187 1_555
Nd2 P0 3.084921 1_545
Nd2 P0 3.084921 1_546
Nd2 P1 3.084921 1_556
Nd2 P1 3.084921 1_555
Nd2 P11 3.127579 1_556
Nd2 P11 3.127579 1_555
Nd2 Ru3 3.155435 1_545
Nd2 Ru4 3.155435 1_555
Nd2 Ru8 3.163712 1_556
Nd2 Ru8 3.163712 1_555
Nd2 Ru9 3.163713 1_546
Nd2 Ru9 3.163713 1_545
Nd2 Ru14 3.368434 1_555
Nd2 Ru15 3.368434 1_545
Nd3 P3 3.017058 1_555
Nd3 P3 3.017058 1_554
Nd3 P4 3.017063 1_554
Nd3 P4 3.017063 1_555
Nd3 P5 3.017067 1_555
Nd3 P5 3.017067 1_554
Nd3 Ru6 3.158084 1_555
Nd3 Ru7 3.158094 1_555
Nd3 Ru8 3.158095 1_555
Nd3 Ru12 3.170180 1_555
Nd3 Ru12 3.170180 1_554
Nd3 Ru14 3.170183 1_555
Nd3 Ru14 3.170183 1_554
Nd3 Ru13 3.170189 1_554
Nd3 Ru13 3.170189 1_555
Nd4 P6 3.017058 1_555
Nd4 P6 3.017058 1_554
Nd4 P7 3.017063 1_555
Nd4 P7 3.017063 1_554
Nd4 P8 3.017067 1_554
Nd4 P8 3.017067 1_555
Nd4 Ru9 3.158084 1_555
Nd4 Ru10 3.158094 1_555
Nd4 Ru11 3.158095 1_555
Nd4 Ru15 3.170180 1_555
Nd4 Ru15 3.170180 1_554
Nd4 Ru17 3.170183 1_555
Nd4 Ru17 3.170183 1_554
Nd4 Ru16 3.170189 1_554
Nd4 Ru16 3.170189 1_555
P0 Ru3 2.355903 1_555
P0 Ru3 2.355903 1_554
P0 Ru18 2.357889 1_565
P0 Ru7 2.371085 1_455
P0 Ru9 2.371085 1_555
P1 Ru4 2.355903 1_555
P1 Ru4 2.355903 1_554
P1 Ru18 2.357889 1_555
P1 Ru11 2.371085 1_555
P1 Ru8 2.371085 1_555
P2 Ru5 2.355903 1_554
P2 Ru5 2.355903 1_555
P2 Ru18 2.357889 1_655
P2 Ru10 2.371085 1_545
P2 Ru6 2.371085 1_555
P3 Ru5 2.297015 1_555
P3 Ru14 2.331015 1_555
P3 Ru12 2.388283 1_555
P3 Ru6 2.414325 1_556
P3 Ru6 2.414325 1_555
P3 Ru2 2.818376 1_556
P3 Ru2 2.818376 1_555
P4 Ru3 2.297015 1_655
P4 Ru12 2.331015 1_555
P4 Ru13 2.388283 1_555
P4 Ru7 2.414325 1_555
P4 Ru7 2.414325 1_556
P4 Ru0 2.818376 1_656
P4 Ru0 2.818376 1_655
P5 Ru4 2.297015 1_555
P5 Ru13 2.331015 1_555
P5 Ru14 2.388283 1_555
P5 Ru8 2.414325 1_555
P5 Ru8 2.414325 1_556
P5 Ru1 2.818376 1_556
P5 Ru1 2.818376 1_555
P6 Ru3 2.297015 1_555
P6 Ru17 2.331015 1_555
P6 Ru15 2.388283 1_555
P6 Ru9 2.414325 1_555
P6 Ru9 2.414325 1_556
P6 Ru0 2.818376 1_555
P6 Ru0 2.818376 1_556
P7 Ru5 2.297015 1_565
P7 Ru15 2.331015 1_555
P7 Ru16 2.388283 1_555
P7 Ru10 2.414325 1_555
P7 Ru10 2.414325 1_556
P7 Ru2 2.818376 1_566
P7 Ru2 2.818376 1_565
P8 Ru4 2.297015 1_555
P8 Ru16 2.331015 1_555
P8 Ru17 2.388283 1_555
P8 Ru11 2.414325 1_556
P8 Ru11 2.414325 1_555
P8 Ru1 2.818376 1_556
P8 Ru1 2.818376 1_555
P9 Ru0 2.279362 1_555
P9 Ru6 2.423626 1_455
P9 Ru11 2.423626 1_555
P9 Ru17 2.520876 1_555
P9 Ru17 2.520876 1_554
P9 Ru12 2.520876 1_455
P9 Ru12 2.520876 1_454
P10 Ru1 2.279362 1_555
P10 Ru7 2.423626 1_555
P10 Ru10 2.423626 1_555
P10 Ru13 2.520876 1_555
P10 Ru16 2.520876 1_555
P10 Ru16 2.520876 1_554
P10 Ru13 2.520876 1_554
P11 Ru2 2.279362 1_555
P11 Ru9 2.423626 1_545
P11 Ru8 2.423626 1_555
P11 Ru14 2.520876 1_554
P11 Ru14 2.520876 1_555
P11 Ru15 2.520876 1_544
P11 Ru15 2.520876 1_545
Ru0 Ru9 2.847229 1_555
Ru0 Ru7 2.847230 1_455
Ru0 Ru12 2.906217 1_454
Ru0 Ru12 2.906217 1_455
Ru0 Ru17 2.906217 1_554
Ru0 Ru17 2.906217 1_555
Ru1 Ru11 2.847230 1_555
Ru1 Ru8 2.847230 1_555
Ru1 Ru16 2.906217 1_555
Ru1 Ru13 2.906217 1_554
Ru1 Ru16 2.906217 1_554
Ru1 Ru13 2.906217 1_555
Ru2 Ru6 2.847229 1_555
Ru3 Ru7 2.843429 1_455
Ru3 Ru7 2.843429 1_456
Ru3 Ru9 2.843429 1_555
Ru3 Ru9 2.843429 1_556
Ru4 Ru8 2.843429 1_555
Ru4 Ru8 2.843429 1_556
Ru5 Ru6 2.843429 1_555
Ru5 Ru6 2.843429 1_556
Ru10 Ru16 2.837037 1_555
Ru10 Ru16 2.837037 1_554
Ru10 Ru5 2.843429 1_564
Ru10 Ru5 2.843429 1_565
Ru10 Ru2 2.847230 1_565
Ru11 Ru17 2.837037 1_555
Ru11 Ru17 2.837037 1_554
Ru11 Ru4 2.843429 1_554
Ru11 Ru4 2.843429 1_555
Ru12 Ru17 2.729632 1_655
Ru12 Ru6 2.837037 1_555
Ru12 Ru6 2.837037 1_556
Ru13 Ru16 2.729633 1_555
Ru13 Ru7 2.837037 1_555
Ru13 Ru7 2.837037 1_556
Ru14 Ru15 2.729632 1_545
Ru14 Ru8 2.837037 1_555
Ru14 Ru8 2.837037 1_556
Ru14 Ru2 2.906217 1_555
Ru14 Ru2 2.906217 1_556
Ru15 Ru9 2.837037 1_555
Ru15 Ru9 2.837037 1_556
Ru15 Ru2 2.906217 1_565
Ru15 Ru2 2.906217 1_566
