# generated using pymatgen
data_IO3
_symmetry_space_group_name_H-M   'P 1'
_cell_length_a   4.74705600
_cell_length_b   5.21108900
_cell_length_c   8.72626500
_cell_angle_alpha   90.00000000
_cell_angle_beta   90.00000000
_cell_angle_gamma   90.00000000
_symmetry_Int_Tables_number   1
_chemical_formula_structural   IO3
_chemical_formula_sum   'I4 O12'
_cell_volume   215.86450835
_cell_formula_units_Z   4
loop_
 _symmetry_equiv_pos_site_id
 _symmetry_equiv_pos_as_xyz
  1  'x, y, z'
loop_
 _atom_site_type_symbol
 _atom_site_label
 _atom_site_symmetry_multiplicity
 _atom_site_fract_x
 _atom_site_fract_y
 _atom_site_fract_z
 _atom_site_occupancy
  I  I0  1  0.76147300  0.31621800  0.33747900  1
  I  I1  1  0.73852700  0.68378200  0.83747900  1
  I  I2  1  0.26147300  0.18378200  0.66252100  1
  I  I3  1  0.23852700  0.81621800  0.16252100  1
  O  O0  1  0.99551500  0.95383700  0.31048500  1
  O  O1  1  0.50448500  0.04616300  0.81048500  1
  O  O2  1  0.49551500  0.54616300  0.68951500  1
  O  O3  1  0.00448500  0.45383700  0.18951500  1
  O  O4  1  0.52107600  0.59440100  0.34848800  1
  O  O5  1  0.97892400  0.40559900  0.84848800  1
  O  O6  1  0.02107600  0.90559900  0.65151200  1
  O  O7  1  0.47892400  0.09440100  0.15151200  1
  O  O8  1  0.51833800  0.59777400  0.00992300  1
  O  O9  1  0.98166200  0.40222600  0.50992300  1
  O  O10  1  0.01833800  0.90222600  0.99007700  1
  O  O11  1  0.48166200  0.09777400  0.49007700  1
loop_
_geom_bond_atom_site_label_1
_geom_bond_atom_site_label_2
_geom_bond_distance
_geom_bond_site_symmetry_2
I0 O4 1.847420 1_555
I0 O3 1.874086 1_655
I0 O9 1.886220 1_555
I0 O11 2.198479 1_555
I0 O0 2.203607 1_545
I0 O7 2.401794 1_555
I1 O5 1.847420 1_555
I1 O2 1.874086 1_555
I1 O8 1.886220 1_556
I1 O10 2.198479 1_655
I1 O1 2.203607 1_565
I1 O6 2.401794 1_655
I2 O6 1.847420 1_545
I2 O1 1.874086 1_555
I2 O11 1.886220 1_555
I2 O9 2.198479 1_455
I2 O2 2.203607 1_555
I2 O5 2.401794 1_455
I3 O7 1.847420 1_565
I3 O0 1.874086 1_455
I3 O10 1.886220 1_554
I3 O8 2.198479 1_555
I3 O3 2.203607 1_555
I3 O4 2.401794 1_555
