# generated using pymatgen
data_K5Na3Ta6Nb2O20
_symmetry_space_group_name_H-M   'P 1'
_cell_length_a   11.43191406
_cell_length_b   11.47067185
_cell_length_c   17.80011152
_cell_angle_alpha   108.98381124
_cell_angle_beta   108.83193075
_cell_angle_gamma   90.14004798
_symmetry_Int_Tables_number   1
_chemical_formula_structural   K5Na3Ta6Nb2O20
_chemical_formula_sum   'K20 Na12 Ta24 Nb8 O80'
_cell_volume   2073.94309467
_cell_formula_units_Z   4
loop_
 _symmetry_equiv_pos_site_id
 _symmetry_equiv_pos_as_xyz
  1  'x, y, z'
loop_
 _atom_site_type_symbol
 _atom_site_label
 _atom_site_symmetry_multiplicity
 _atom_site_fract_x
 _atom_site_fract_y
 _atom_site_fract_z
 _atom_site_occupancy
  K  K0  1  0.30769200  0.06287000  0.12055400  1
  K  K1  1  0.30851900  0.56212300  0.12196800  1
  K  K2  1  0.80902700  0.05755100  0.11998200  1
  K  K3  1  0.80830700  0.55670700  0.12083700  1
  K  K4  1  0.81448900  0.57300100  0.62541100  1
  K  K5  1  0.18859200  0.94257100  0.38073300  1
  K  K6  1  0.19117500  0.92704800  0.87755000  1
  K  K7  1  0.69198700  0.44015900  0.38121600  1
  K  K8  1  0.68291900  0.42496900  0.87913300  1
  K  K9  1  0.68786000  0.93765300  0.37868500  1
  K  K10  1  0.69112900  0.92156100  0.87709200  1
  K  K11  1  0.05793300  0.31042200  0.12123200  1
  K  K12  1  0.05831200  0.81116600  0.12062600  1
  K  K13  1  0.55823100  0.30957000  0.12120300  1
  K  K14  1  0.55938100  0.80884400  0.12242200  1
  K  K15  1  0.43882600  0.19190300  0.38006900  1
  K  K16  1  0.43975300  0.69279400  0.37982400  1
  K  K17  1  0.44255500  0.70427900  0.89014100  1
  K  K18  1  0.94120100  0.68884400  0.38142500  1
  K  K19  1  0.93716900  0.69498600  0.87518600  1
  Na  Na0  1  0.29777600  0.07330800  0.60609000  1
  Na  Na1  1  0.30298100  0.56789100  0.60321600  1
  Na  Na2  1  0.79927300  0.06781000  0.60365600  1
  Na  Na3  1  0.19213200  0.43350000  0.38405900  1
  Na  Na4  1  0.19421700  0.43434600  0.89571800  1
  Na  Na5  1  0.04621600  0.28437700  0.60497100  1
  Na  Na6  1  0.06067400  0.79672200  0.61355700  1
  Na  Na7  1  0.55412400  0.29421900  0.60715700  1
  Na  Na8  1  0.56004900  0.79194400  0.61343000  1
  Na  Na9  1  0.44137600  0.20641400  0.89538300  1
  Na  Na10  1  0.94427400  0.19976200  0.38426200  1
  Na  Na11  1  0.94374400  0.20904200  0.89687400  1
  Ta  Ta0  1  0.99657400  0.99879100  0.99627300  1
  Ta  Ta1  1  0.00146300  0.00053100  0.50255000  1
  Ta  Ta2  1  0.99728700  0.49829100  0.99805700  1
  Ta  Ta3  1  0.00493600  0.50310900  0.50529600  1
  Ta  Ta4  1  0.49825500  0.99876500  0.99746000  1
  Ta  Ta5  1  0.50187200  0.00305700  0.50477000  1
  Ta  Ta6  1  0.49627600  0.49876800  0.99814000  1
  Ta  Ta7  1  0.50231000  0.50090400  0.50252200  1
  Ta  Ta8  1  0.24650600  0.24675200  0.99712400  1
  Ta  Ta9  1  0.25150400  0.25501700  0.50362800  1
  Ta  Ta10  1  0.24631400  0.74726700  0.99738100  1
  Ta  Ta11  1  0.25429400  0.75244000  0.50334300  1
  Ta  Ta12  1  0.74706400  0.24597900  0.99897400  1
  Ta  Ta13  1  0.75330500  0.25155400  0.50117500  1
  Ta  Ta14  1  0.74828200  0.74510900  0.99893500  1
  Ta  Ta15  1  0.75349900  0.75484400  0.50521600  1
  Ta  Ta16  1  0.11518900  0.12345200  0.25128000  1
  Ta  Ta17  1  0.11972000  0.61682600  0.25142200  1
  Ta  Ta18  1  0.62983900  0.11465800  0.25024700  1
  Ta  Ta19  1  0.62984800  0.61060300  0.25156700  1
  Ta  Ta20  1  0.36968600  0.38717100  0.25106500  1
  Ta  Ta21  1  0.36874900  0.89221200  0.25088700  1
  Ta  Ta22  1  0.88068000  0.37671000  0.25311200  1
  Ta  Ta23  1  0.87637100  0.88119900  0.25132300  1
  Nb  Nb0  1  0.09005600  0.08329300  0.74764100  1
  Nb  Nb1  1  0.14505800  0.56480600  0.74953300  1
  Nb  Nb2  1  0.58982600  0.07976700  0.74813800  1
  Nb  Nb3  1  0.58924000  0.57818500  0.74657700  1
  Nb  Nb4  1  0.34456500  0.42497800  0.74809900  1
  Nb  Nb5  1  0.38314500  0.92775600  0.74712500  1
  Nb  Nb6  1  0.86448200  0.39128900  0.74822800  1
  Nb  Nb7  1  0.88527900  0.93439100  0.74866000  1
  O  O0  1  0.12428600  0.12738200  0.50200400  1
  O  O1  1  0.11840900  0.12389500  0.99579800  1
  O  O2  1  0.12971600  0.62555600  0.50174000  1
  O  O3  1  0.12046000  0.61945400  0.99300200  1
  O  O4  1  0.62558000  0.12553200  0.50162800  1
  O  O5  1  0.61856600  0.12303600  0.99531700  1
  O  O6  1  0.62632800  0.62836900  0.50341500  1
  O  O7  1  0.62194800  0.62262600  0.99900100  1
  O  O8  1  0.12233100  0.37259800  0.99786200  1
  O  O9  1  0.12911100  0.37946400  0.50733500  1
  O  O10  1  0.12370600  0.87306700  0.99830800  1
  O  O11  1  0.13254100  0.88201900  0.51388200  1
  O  O12  1  0.61820800  0.37082700  0.99742400  1
  O  O13  1  0.62960900  0.37732000  0.50767100  1
  O  O14  1  0.62545800  0.87497100  0.00116200  1
  O  O15  1  0.62884600  0.88205900  0.50996600  1
  O  O16  1  0.37467700  0.12850400  0.50240200  1
  O  O17  1  0.37039600  0.12245600  0.99342500  1
  O  O18  1  0.37461200  0.62313300  0.49833800  1
  O  O19  1  0.36934800  0.62086200  0.99796600  1
  O  O20  1  0.87469200  0.12314900  0.49432900  1
  O  O21  1  0.86945500  0.12140500  0.99405200  1
  O  O22  1  0.88063300  0.62798600  0.50330900  1
  O  O23  1  0.87192600  0.62015700  0.99631800  1
  O  O24  1  0.36836900  0.37063400  0.99395700  1
  O  O25  1  0.37673500  0.37987100  0.50661500  1
  O  O26  1  0.37528500  0.87629000  0.00170100  1
  O  O27  1  0.37931200  0.88045300  0.50831500  1
  O  O28  1  0.87233300  0.37057700  0.99978000  1
  O  O29  1  0.88312300  0.37814200  0.50849300  1
  O  O30  1  0.87364500  0.87088000  0.99791700  1
  O  O31  1  0.87671600  0.88046900  0.50579400  1
  O  O32  1  0.06061600  0.07097500  0.12719900  1
  O  O33  1  0.05656900  0.08024800  0.63092500  1
  O  O34  1  0.06368300  0.56970100  0.12810000  1
  O  O35  1  0.08351000  0.57841300  0.63524300  1
  O  O36  1  0.56320300  0.07080600  0.12664100  1
  O  O37  1  0.56029300  0.08315100  0.63298400  1
  O  O38  1  0.56012500  0.56542400  0.12654300  1
  O  O39  1  0.56184100  0.56900800  0.62982300  1
  O  O40  1  0.43683000  0.42831200  0.37430600  1
  O  O41  1  0.42956200  0.43817300  0.86724600  1
  O  O42  1  0.43532200  0.93358800  0.37536200  1
  O  O43  1  0.43771300  0.92998400  0.86579900  1
  O  O44  1  0.94046600  0.42733000  0.37675700  1
  O  O45  1  0.93172800  0.42105900  0.87078200  1
  O  O46  1  0.94066700  0.92501800  0.37535400  1
  O  O47  1  0.93683700  0.93411400  0.86727900  1
  O  O48  1  0.30993000  0.30864300  0.12587300  1
  O  O49  1  0.31538200  0.30985000  0.63244500  1
  O  O50  1  0.30933300  0.80962600  0.12728200  1
  O  O51  1  0.33260200  0.80118400  0.63377000  1
  O  O52  1  0.81113200  0.30351600  0.12696500  1
  O  O53  1  0.82285600  0.29380400  0.62696300  1
  O  O54  1  0.81374600  0.80470000  0.12768300  1
  O  O55  1  0.82632700  0.81414100  0.63136300  1
  O  O56  1  0.18490400  0.20049300  0.37598400  1
  O  O57  1  0.17638700  0.18294900  0.86668400  1
  O  O58  1  0.18625700  0.69857800  0.37648300  1
  O  O59  1  0.19403900  0.68518400  0.86758700  1
  O  O60  1  0.68706900  0.19681400  0.37353700  1
  O  O61  1  0.67644800  0.18038200  0.86676100  1
  O  O62  1  0.68648300  0.69363400  0.37488000  1
  O  O63  1  0.67580900  0.67303700  0.86802300  1
  O  O64  1  0.50035800  0.00047100  0.25087100  1
  O  O65  1  0.41405000  0.09943300  0.74770700  1
  O  O66  1  0.49906300  0.49741800  0.25051700  1
  O  O67  1  0.41498800  0.57973900  0.73835800  1
  O  O68  1  0.99555800  0.00684300  0.25409600  1
  O  O69  1  0.91596700  0.10690900  0.74890600  1
  O  O70  1  0.99803000  0.50027600  0.25257200  1
  O  O71  1  0.97562000  0.51773500  0.74958300  1
  O  O72  1  0.24259600  0.49583000  0.25503500  1
  O  O73  1  0.16909600  0.39113200  0.74877200  1
  O  O74  1  0.24416700  0.00358600  0.25240700  1
  O  O75  1  0.20554800  0.95475900  0.73907600  1
  O  O76  1  0.75341200  0.49864700  0.25154500  1
  O  O77  1  0.70045700  0.44211500  0.73875400  1
  O  O78  1  0.75386800  0.00192800  0.25248200  1
  O  O79  1  0.70183200  0.95137400  0.73905800  1
loop_
_geom_bond_atom_site_label_1
_geom_bond_atom_site_label_2
_geom_bond_distance
_geom_bond_site_symmetry_2
K0 O26 2.787644 1_545
K0 O48 2.789593 1_555
K0 O10 2.799928 1_544
K0 O1 2.832003 1_554
K0 O17 2.855321 1_554
K0 O32 2.865404 1_555
K0 O36 2.887925 1_555
K0 O64 2.921271 1_555
K0 O74 2.938458 1_555
K0 O50 2.945873 1_545
K1 O19 2.786698 1_554
K1 O50 2.809571 1_555
K1 O8 2.820288 1_554
K1 O34 2.836513 1_555
K1 O3 2.850825 1_554
K1 O38 2.850900 1_555
K1 O24 2.870961 1_554
K1 O66 2.902863 1_555
K1 O48 2.930895 1_555
K1 O72 3.012960 1_555
K2 O14 2.737625 1_545
K2 O52 2.783130 1_555
K2 O30 2.805100 1_544
K2 O32 2.838812 1_655
K2 O21 2.846702 1_554
K2 O36 2.853072 1_555
K2 O5 2.863990 1_554
K2 O68 2.864868 1_555
K2 O78 2.881752 1_555
K2 O54 2.947628 1_545
K3 O28 2.787486 1_554
K3 O54 2.807035 1_555
K3 O7 2.811710 1_554
K3 O12 2.818276 1_554
K3 O23 2.838828 1_554
K3 O76 2.863421 1_555
K3 O38 2.872422 1_555
K3 O34 2.881616 1_655
K3 O70 2.886640 1_555
K3 O52 2.941432 1_555
K4 O71 2.639917 1_555
K4 O55 2.734732 1_555
K4 O6 2.763027 1_555
K4 O22 2.764755 1_555
K4 O13 2.820311 1_555
K4 O29 2.824734 1_555
K4 O39 2.915199 1_555
K4 O35 3.022787 1_655
K5 O58 2.774904 1_555
K5 O0 2.783707 1_565
K5 O16 2.786197 1_565
K5 O46 2.809305 1_455
K5 O74 2.843581 1_565
K5 O42 2.853878 1_555
K5 O27 2.877938 1_555
K5 O68 2.893486 1_465
K5 O11 2.925662 1_555
K5 O56 2.987121 1_565
K6 O75 2.640924 1_555
K6 O59 2.722791 1_555
K6 O26 2.737309 1_556
K6 O10 2.744560 1_555
K6 O17 2.778065 1_565
K6 O47 2.856847 1_455
K6 O1 2.875443 1_565
K6 O43 2.893610 1_555
K6 O57 3.005495 1_565
K7 O60 2.749439 1_555
K7 O22 2.814434 1_555
K7 O6 2.821759 1_555
K7 O13 2.860769 1_555
K7 O44 2.870001 1_555
K7 O29 2.876365 1_555
K7 O40 2.880566 1_555
K7 O76 2.884846 1_555
K7 O66 2.897705 1_555
K7 O62 2.946194 1_555
K8 O77 2.639254 1_555
K8 O12 2.687119 1_555
K8 O61 2.740753 1_555
K8 O28 2.750670 1_555
K8 O7 2.828307 1_555
K8 O23 2.839144 1_555
K8 O41 2.843227 1_555
K8 O45 2.895472 1_555
K8 O63 2.915388 1_555
K9 O20 2.759773 1_565
K9 O62 2.777650 1_555
K9 O4 2.808106 1_565
K9 O31 2.833643 1_555
K9 O64 2.866308 1_565
K9 O42 2.868397 1_555
K9 O15 2.882310 1_555
K9 O78 2.885937 1_565
K9 O46 2.912747 1_555
K9 O60 3.003756 1_565
K10 O79 2.628575 1_555
K10 O30 2.690598 1_555
K10 O14 2.750054 1_556
K10 O63 2.804165 1_555
K10 O21 2.806651 1_565
K10 O43 2.842635 1_555
K10 O47 2.876173 1_555
K10 O5 2.903426 1_565
K10 O61 3.035419 1_565
K11 O28 2.769122 1_454
K11 O32 2.782847 1_555
K11 O8 2.816585 1_554
K11 O1 2.817214 1_554
K11 O72 2.844074 1_555
K11 O21 2.846599 1_454
K11 O48 2.855528 1_555
K11 O52 2.857809 1_455
K11 O70 2.899249 1_455
K11 O34 2.936302 1_555
K12 O30 2.774948 1_454
K12 O10 2.803138 1_554
K12 O34 2.815735 1_555
K12 O23 2.831237 1_454
K12 O50 2.833965 1_555
K12 O54 2.840753 1_455
K12 O74 2.877396 1_565
K12 O3 2.881110 1_554
K12 O32 2.943918 1_565
K12 O68 2.972510 1_465
K13 O36 2.771863 1_555
K13 O12 2.792570 1_554
K13 O5 2.821476 1_554
K13 O17 2.835350 1_554
K13 O66 2.860796 1_555
K13 O52 2.861508 1_555
K13 O24 2.863154 1_554
K13 O48 2.866563 1_555
K13 O76 2.902736 1_555
K13 O38 2.905086 1_555
K14 O26 2.795577 1_555
K14 O7 2.805269 1_554
K14 O14 2.814216 1_555
K14 O38 2.816869 1_555
K14 O19 2.835312 1_554
K14 O64 2.871936 1_565
K14 O54 2.880028 1_555
K14 O50 2.887561 1_555
K14 O78 2.919808 1_565
K14 O36 2.981154 1_565
K15 O40 2.746728 1_555
K15 O16 2.804807 1_555
K15 O4 2.813698 1_555
K15 O13 2.841756 1_555
K15 O25 2.847192 1_555
K15 O60 2.878685 1_555
K15 O74 2.881023 1_555
K15 O56 2.882902 1_555
K15 O64 2.893412 1_555
K15 O42 2.936666 1_545
K16 O18 2.784113 1_555
K16 O42 2.789034 1_555
K16 O6 2.823347 1_555
K16 O62 2.850310 1_555
K16 O27 2.857707 1_555
K16 O15 2.867872 1_555
K16 O58 2.880671 1_555
K16 O66 2.904977 1_555
K16 O72 2.931963 1_555
K16 O40 3.003022 1_555
K17 O67 2.525197 1_555
K17 O26 2.621440 1_556
K17 O14 2.627908 1_556
K17 O7 2.731755 1_555
K17 O59 2.735676 1_555
K17 O19 2.743635 1_555
K17 O43 2.758390 1_555
K17 O63 2.825685 1_555
K17 O41 2.941898 1_555
K18 O46 2.746074 1_555
K18 O22 2.761610 1_555
K18 O2 2.792397 1_655
K18 O58 2.834138 1_655
K18 O70 2.846471 1_555
K18 O31 2.858569 1_555
K18 O76 2.864388 1_555
K18 O62 2.877807 1_555
K18 O11 2.915718 1_655
K18 O44 2.973665 1_555
K19 O71 2.647080 1_555
K19 O30 2.744893 1_555
K19 O10 2.751748 1_655
K19 O47 2.791867 1_555
K19 O3 2.809505 1_655
K19 O23 2.860289 1_555
K19 O63 2.955733 1_555
K19 O59 2.983657 1_655
K19 O45 3.117470 1_555
Na0 O65 2.356796 1_555
Na0 O0 2.476362 1_555
Na0 O16 2.526900 1_555
Na0 O11 2.590702 1_545
Na0 O49 2.594379 1_555
Na0 O27 2.709997 1_545
Na0 O37 2.878201 1_555
Na0 O33 2.927536 1_555
Na1 O67 2.289671 1_555
Na1 O2 2.469314 1_555
Na1 O18 2.512209 1_555
Na1 O51 2.549778 1_555
Na1 O25 2.617469 1_555
Na1 O9 2.631388 1_555
Na1 O35 2.741282 1_555
Na1 O39 2.841263 1_555
Na2 O69 2.383569 1_555
Na2 O4 2.477922 1_555
Na2 O53 2.487873 1_555
Na2 O15 2.585964 1_545
Na2 O20 2.611042 1_555
Na2 O31 2.646807 1_545
Na2 O33 2.817603 1_655
Na2 O37 2.937795 1_555
Na3 O56 2.629140 1_555
Na3 O25 2.738312 1_555
Na3 O18 2.753317 1_555
Na3 O9 2.760729 1_555
Na3 O2 2.778592 1_555
Na3 O72 2.835525 1_555
Na3 O44 2.837389 1_455
Na3 O40 2.857718 1_555
Na3 O70 2.968196 1_455
Na4 O73 2.416744 1_555
Na4 O24 2.479230 1_555
Na4 O8 2.506470 1_555
Na4 O3 2.603322 1_555
Na4 O19 2.644128 1_555
Na4 O57 2.753877 1_555
Na4 O45 2.884204 1_455
Na4 O41 2.896798 1_555
Na5 O73 2.378184 1_555
Na5 O20 2.502673 1_455
Na5 O0 2.513026 1_555
Na5 O33 2.525842 1_555
Na5 O29 2.593575 1_455
Na5 O53 2.702604 1_455
Na5 O9 2.720213 1_555
Na5 O49 2.953662 1_555
Na6 O75 2.445893 1_555
Na6 O22 2.595253 1_455
Na6 O11 2.616616 1_555
Na6 O2 2.630340 1_555
Na6 O35 2.656118 1_555
Na6 O31 2.762124 1_455
Na6 O55 2.797713 1_455
Na7 O77 2.456509 1_555
Na7 O16 2.550286 1_555
Na7 O4 2.563874 1_555
Na7 O37 2.604237 1_555
Na7 O13 2.621071 1_555
Na7 O25 2.662937 1_555
Na7 O49 2.902883 1_555
Na8 O79 2.440706 1_555
Na8 O6 2.550262 1_555
Na8 O18 2.652504 1_555
Na8 O39 2.665866 1_555
Na8 O15 2.692297 1_555
Na8 O51 2.736285 1_555
Na8 O27 2.747912 1_555
Na8 O55 2.957886 1_555
Na9 O65 2.425406 1_555
Na9 O24 2.475155 1_555
Na9 O12 2.514890 1_555
Na9 O17 2.575912 1_555
Na9 O5 2.640497 1_555
Na9 O41 2.856689 1_555
Na9 O61 2.891240 1_555
Na9 O57 2.901337 1_555
Na10 O44 2.656574 1_555
Na10 O20 2.714113 1_555
Na10 O9 2.750535 1_655
Na10 O29 2.761625 1_555
Na10 O0 2.769964 1_655
Na10 O56 2.802034 1_655
Na10 O68 2.855965 1_555
Na10 O60 2.883773 1_555
Na10 O78 2.933663 1_555
Na11 O69 2.420989 1_555
Na11 O28 2.493915 1_555
Na11 O8 2.517351 1_655
Na11 O21 2.607577 1_555
Na11 O45 2.616179 1_555
Na11 O1 2.626814 1_655
Na11 O57 2.876373 1_655
Na11 O61 2.925022 1_555
Na11 O47 3.019947 1_545
Nb0 O57 1.959410 1_555
Nb0 O33 1.975674 1_555
Nb0 O75 1.983284 1_545
Nb0 O69 2.015506 1_455
Nb1 O35 1.985229 1_555
Nb1 O59 1.996186 1_555
Nb1 O73 2.007962 1_555
Nb1 O71 2.009929 1_455
Nb2 O79 1.955152 1_545
Nb2 O61 1.957067 1_555
Nb2 O37 1.980415 1_555
Nb2 O65 2.020458 1_555
Nb3 O67 1.950294 1_555
Nb3 O39 1.966090 1_555
Nb3 O63 1.979826 1_555
Nb3 O77 2.013615 1_555
Nb4 O49 1.969524 1_555
Nb4 O41 1.981167 1_555
Nb4 O67 2.028046 1_555
Nb4 O73 2.046808 1_555
Nb5 O51 1.962226 1_555
Nb5 O43 1.991520 1_555
Nb5 O65 1.995956 1_565
Nb5 O75 2.020553 1_555
Nb6 O71 1.914934 1_555
Nb6 O77 1.936382 1_555
Nb6 O45 1.974291 1_555
Nb6 O53 1.974848 1_555
Nb7 O55 1.982288 1_555
Nb7 O47 2.001624 1_555
Nb7 O69 2.007264 1_565
Nb7 O79 2.063361 1_555
O0 Ta1 2.024065 1_555
O0 Ta9 2.048009 1_555
O1 Ta0 2.001252 1_445
O1 Ta8 2.019147 1_555
O2 Ta11 2.020889 1_555
O2 Ta3 2.029269 1_555
O3 Ta10 2.017046 1_555
O3 Ta2 2.018921 1_455
O4 Ta5 2.017244 1_555
O4 Ta13 2.055864 1_555
O5 Ta4 1.996189 1_545
O5 Ta12 2.004825 1_555
O6 Ta7 2.026886 1_555
O6 Ta15 2.036814 1_555
O7 Ta6 2.011066 1_555
O7 Ta14 2.012957 1_555
O8 Ta8 2.027027 1_555
O8 Ta2 2.032787 1_455
O9 Ta9 2.001972 1_555
O9 Ta3 2.009498 1_555
O10 Ta10 2.014072 1_555
O10 Ta0 2.050264 1_455
O11 Ta1 2.031584 1_565
O11 Ta11 2.044267 1_555
O12 Ta6 2.026382 1_555
O12 Ta12 2.057028 1_555
O13 Ta13 2.025132 1_555
O13 Ta7 2.035752 1_555
O14 Ta4 2.035798 1_554
O14 Ta14 2.049334 1_554
O15 Ta5 2.012115 1_565
O15 Ta15 2.043258 1_555
O16 Ta9 2.024452 1_555
O16 Ta5 2.048625 1_555
O17 Ta8 2.012965 1_555
O17 Ta4 2.040430 1_545
O18 Ta11 2.025574 1_555
O18 Ta7 2.027350 1_555
O19 Ta6 2.019097 1_555
O19 Ta10 2.022643 1_555
O20 Ta1 2.026556 1_655
O20 Ta13 2.027886 1_555
O21 Ta12 2.003668 1_555
O21 Ta0 2.024997 1_545
O22 Ta3 2.020607 1_655
O22 Ta15 2.059365 1_555
O23 Ta2 2.004537 1_555
O23 Ta14 2.015786 1_555
O24 Ta8 2.014048 1_555
O24 Ta6 2.037622 1_555
O25 Ta9 1.998691 1_555
O25 Ta7 2.029087 1_555
O26 Ta4 2.020752 1_554
O26 Ta10 2.052356 1_554
O27 Ta11 2.007523 1_555
O27 Ta5 2.012474 1_565
O28 Ta12 2.014220 1_555
O28 Ta2 2.057877 1_555
O29 Ta13 2.017295 1_555
O29 Ta3 2.022800 1_655
O30 Ta14 2.039412 1_555
O30 Ta0 2.042772 1_555
O31 Ta1 2.007248 1_665
O31 Ta15 2.007945 1_555
O32 Ta16 1.968081 1_555
O32 Ta0 2.071932 1_444
O33 Ta1 2.040353 1_555
O34 Ta17 1.959516 1_555
O34 Ta2 2.057758 1_454
O35 Ta3 2.063550 1_555
O36 Ta18 1.967296 1_555
O36 Ta4 2.044531 1_544
O37 Ta5 2.036539 1_555
O38 Ta19 1.989712 1_555
O38 Ta6 2.030907 1_554
O39 Ta7 2.014499 1_555
O40 Ta20 1.965159 1_555
O40 Ta7 2.029787 1_555
O41 Ta6 2.071219 1_555
O42 Ta21 1.984718 1_555
O42 Ta5 2.047255 1_565
O43 Ta4 2.083522 1_555
O44 Ta22 1.960543 1_555
O44 Ta3 2.036672 1_655
O45 Ta2 2.018386 1_555
O46 Ta23 1.973758 1_555
O46 Ta1 2.016120 1_665
O47 Ta0 2.041035 1_555
O48 Ta20 1.988018 1_555
O48 Ta8 2.036674 1_554
O49 Ta9 2.040829 1_555
O50 Ta21 1.968656 1_555
O50 Ta10 2.055036 1_554
O51 Ta11 2.077306 1_555
O52 Ta22 1.999163 1_555
O52 Ta12 2.025979 1_554
O53 Ta13 2.005787 1_555
O54 Ta23 1.961986 1_555
O54 Ta14 2.037259 1_554
O55 Ta15 1.998608 1_555
O56 Ta16 1.980307 1_555
O56 Ta9 2.022261 1_555
O57 Ta8 2.063778 1_555
O58 Ta17 1.989645 1_555
O58 Ta11 2.010444 1_555
O59 Ta10 2.058671 1_555
O60 Ta18 1.963877 1_555
O60 Ta13 2.021974 1_555
O61 Ta12 2.091605 1_555
O62 Ta19 1.965619 1_555
O62 Ta15 2.062141 1_555
O63 Ta14 2.072884 1_555
O64 Ta21 1.948614 1_545
O64 Ta18 1.979228 1_555
O66 Ta20 1.948087 1_555
O66 Ta19 1.969271 1_555
O68 Ta16 1.934150 1_655
O68 Ta23 1.958764 1_545
O70 Ta17 1.936526 1_655
O70 Ta22 1.953633 1_555
O72 Ta20 1.920204 1_555
O72 Ta17 1.978106 1_555
O74 Ta21 1.916373 1_545
O74 Ta16 2.018336 1_555
O76 Ta19 1.911402 1_555
O76 Ta22 2.020656 1_555
O78 Ta18 1.920960 1_555
O78 Ta23 1.972056 1_545
