# generated using pymatgen
data_Li3Fe2(SiO4)2
_symmetry_space_group_name_H-M   'P 1'
_cell_length_a   10.68895100
_cell_length_b   8.27068900
_cell_length_c   8.32796395
_cell_angle_alpha   75.19185958
_cell_angle_beta   90.00000000
_cell_angle_gamma   90.00000000
_symmetry_Int_Tables_number   1
_chemical_formula_structural   Li3Fe2(SiO4)2
_chemical_formula_sum   'Li12 Fe8 Si8 O32'
_cell_volume   711.78110316
_cell_formula_units_Z   4
loop_
 _symmetry_equiv_pos_site_id
 _symmetry_equiv_pos_as_xyz
  1  'x, y, z'
loop_
 _atom_site_type_symbol
 _atom_site_label
 _atom_site_symmetry_multiplicity
 _atom_site_fract_x
 _atom_site_fract_y
 _atom_site_fract_z
 _atom_site_occupancy
  Li  Li0  1  0.65353900  0.64441900  0.85357000  1
  Li  Li1  1  0.34197600  0.83693100  0.66598600  1
  Li  Li2  1  0.92450500  0.47693100  0.76913300  1
  Li  Li3  1  0.42450500  0.02306900  0.23086700  1
  Li  Li4  1  0.84197600  0.66306900  0.33401400  1
  Li  Li5  1  0.84646100  0.14441900  0.85357000  1
  Li  Li6  1  0.15353900  0.85558100  0.14643000  1
  Li  Li7  1  0.15802400  0.33693100  0.66598600  1
  Li  Li8  1  0.57549500  0.97693100  0.76913300  1
  Li  Li9  1  0.07549500  0.52306900  0.23086700  1
  Li  Li10  1  0.65802400  0.16306900  0.33401400  1
  Li  Li11  1  0.34646100  0.35558100  0.14643000  1
  Fe  Fe0  1  0.16237000  0.60125500  0.90548700  1
  Fe  Fe1  1  0.83680700  0.90798800  0.58840000  1
  Fe  Fe2  1  0.33680700  0.59201200  0.41160000  1
  Fe  Fe3  1  0.33763000  0.10125500  0.90548700  1
  Fe  Fe4  1  0.66237000  0.89874500  0.09451300  1
  Fe  Fe5  1  0.66319300  0.40798800  0.58840000  1
  Fe  Fe6  1  0.16319300  0.09201200  0.41160000  1
  Fe  Fe7  1  0.83763000  0.39874500  0.09451300  1
  Si  Si0  1  0.90773600  0.77440700  0.96129800  1
  Si  Si1  1  0.08783700  0.71621200  0.52953600  1
  Si  Si2  1  0.58783700  0.78378800  0.47046400  1
  Si  Si3  1  0.59226400  0.27440700  0.96129800  1
  Si  Si4  1  0.40773600  0.72559300  0.03870200  1
  Si  Si5  1  0.41216300  0.21621200  0.52953600  1
  Si  Si6  1  0.91216300  0.28378800  0.47046400  1
  Si  Si7  1  0.09226400  0.22559300  0.03870200  1
  O  O0  1  0.05262500  0.72840300  0.02318700  1
  O  O1  1  0.89615700  0.93628400  0.79275200  1
  O  O2  1  0.33455800  0.68492600  0.88237000  1
  O  O3  1  0.84122600  0.61805500  0.90199400  1
  O  O4  1  0.16718100  0.87728400  0.56035600  1
  O  O5  1  0.65974000  0.84107300  0.62575500  1
  O  O6  1  0.09560700  0.55446400  0.69126300  1
  O  O7  1  0.93881700  0.76452700  0.49341500  1
  O  O8  1  0.43881700  0.73547300  0.50658500  1
  O  O9  1  0.44737500  0.22840300  0.02318700  1
  O  O10  1  0.59560700  0.94553600  0.30873700  1
  O  O11  1  0.60384300  0.43628400  0.79275200  1
  O  O12  1  0.15974000  0.65892700  0.37424500  1
  O  O13  1  0.16544200  0.18492600  0.88237000  1
  O  O14  1  0.66718100  0.62271600  0.43964400  1
  O  O15  1  0.65877400  0.11805500  0.90199400  1
  O  O16  1  0.34122600  0.88194500  0.09800600  1
  O  O17  1  0.33281900  0.37728400  0.56035600  1
  O  O18  1  0.83455800  0.81507400  0.11763000  1
  O  O19  1  0.84026000  0.34107300  0.62575500  1
  O  O20  1  0.39615700  0.56371600  0.20724800  1
  O  O21  1  0.40439300  0.05446400  0.69126300  1
  O  O22  1  0.55262500  0.77159700  0.97681300  1
  O  O23  1  0.56118300  0.26452700  0.49341500  1
  O  O24  1  0.06118300  0.23547300  0.50658500  1
  O  O25  1  0.90439300  0.44553600  0.30873700  1
  O  O26  1  0.34026000  0.15892700  0.37424500  1
  O  O27  1  0.83281900  0.12271600  0.43964400  1
  O  O28  1  0.15877400  0.38194500  0.09800600  1
  O  O29  1  0.66544200  0.31507400  0.11763000  1
  O  O30  1  0.10384300  0.06371600  0.20724800  1
  O  O31  1  0.94737500  0.27159700  0.97681300  1
loop_
_geom_bond_atom_site_label_1
_geom_bond_atom_site_label_2
_geom_bond_distance
_geom_bond_site_symmetry_2
Li0 O22 1.968546 1_555
Li0 O11 1.986874 1_555
Li0 O3 2.046942 1_555
Li0 O5 2.161465 1_555
Li1 O2 1.917316 1_555
Li1 O21 1.979889 1_565
Li1 O8 2.026635 1_555
Li1 O4 2.055719 1_555
Li2 O6 1.990996 1_655
Li2 O3 2.009761 1_555
Li2 O19 2.045731 1_555
Li2 O31 2.105651 1_555
Li3 O10 1.990996 1_545
Li3 O16 2.009761 1_545
Li3 O26 2.045731 1_555
Li3 O9 2.105651 1_555
Li4 O18 1.917316 1_555
Li4 O25 1.979889 1_555
Li4 O7 2.026635 1_555
Li4 O14 2.055719 1_555
Li5 O31 1.968546 1_555
Li5 O1 1.986874 1_545
Li5 O15 2.046942 1_555
Li5 O19 2.161465 1_555
Li6 O0 1.968546 1_555
Li6 O30 1.986874 1_565
Li6 O16 2.046942 1_555
Li6 O12 2.161465 1_555
Li7 O13 1.917316 1_555
Li7 O6 1.979889 1_555
Li7 O24 2.026635 1_555
Li7 O17 2.055719 1_555
Li8 O21 1.990996 1_565
Li8 O15 2.009761 1_565
Li8 O5 2.045731 1_555
Li8 O22 2.105651 1_555
Li9 O25 1.990996 1_455
Li9 O28 2.009761 1_555
Li9 O12 2.045731 1_555
Li9 O0 2.105651 1_555
Li10 O29 1.917316 1_555
Li10 O10 1.979889 1_545
Li10 O23 2.026635 1_555
Li10 O27 2.055719 1_555
Li11 O9 1.968546 1_555
Li11 O20 1.986874 1_555
Li11 O28 2.046942 1_555
Li11 O26 2.161465 1_555
Fe0 O2 1.958398 1_555
Fe0 O0 1.992393 1_556
Fe0 O6 2.048116 1_555
Fe0 O28 2.091774 1_556
Fe1 O1 1.886014 1_555
Fe1 O27 1.888359 1_565
Fe1 O7 1.924126 1_555
Fe1 O5 1.974139 1_555
Fe2 O20 1.886014 1_555
Fe2 O17 1.888359 1_555
Fe2 O8 1.924126 1_555
Fe2 O12 1.974139 1_555
Fe3 O13 1.958398 1_555
Fe3 O9 1.992393 1_556
Fe3 O21 2.048116 1_555
Fe3 O16 2.091774 1_546
Fe4 O18 1.958398 1_555
Fe4 O22 1.992393 1_554
Fe4 O10 2.048116 1_555
Fe4 O15 2.091774 1_564
Fe5 O11 1.886014 1_555
Fe5 O14 1.888359 1_555
Fe5 O23 1.924126 1_555
Fe5 O19 1.974139 1_555
Fe6 O30 1.886014 1_555
Fe6 O4 1.888359 1_545
Fe6 O24 1.924126 1_555
Fe6 O26 1.974139 1_555
Fe7 O29 1.958398 1_555
Fe7 O31 1.992393 1_554
Fe7 O25 2.048116 1_555
Fe7 O3 2.091774 1_554
O0 Si0 1.645807 1_454
O1 Si0 1.678513 1_555
O2 Si4 1.625980 1_556
O3 Si0 1.657708 1_555
O4 Si1 1.653673 1_555
O5 Si2 1.673586 1_555
O6 Si1 1.639979 1_555
O7 Si1 1.651045 1_655
O8 Si2 1.651045 1_555
O9 Si3 1.645807 1_554
O10 Si2 1.639979 1_555
O11 Si3 1.678513 1_555
O12 Si1 1.673586 1_555
O13 Si7 1.625980 1_556
O14 Si2 1.653673 1_555
O15 Si3 1.657708 1_555
O16 Si4 1.657708 1_555
O17 Si5 1.653673 1_555
O18 Si0 1.625980 1_554
O19 Si6 1.673586 1_555
O20 Si4 1.678513 1_555
O21 Si5 1.639979 1_555
O22 Si4 1.645807 1_556
O23 Si5 1.651045 1_555
O24 Si6 1.651045 1_455
O25 Si6 1.639979 1_555
O26 Si5 1.673586 1_555
O27 Si6 1.653673 1_555
O28 Si7 1.657708 1_555
O29 Si3 1.625980 1_554
O30 Si7 1.678513 1_555
O31 Si7 1.645807 1_656
