# generated using pymatgen
data_ErTlS2O9
_symmetry_space_group_name_H-M   'P 1'
_cell_length_a   8.48510100
_cell_length_b   10.41837148
_cell_length_c   10.14363446
_cell_angle_alpha   119.70872152
_cell_angle_beta   90.00000000
_cell_angle_gamma   90.00000000
_symmetry_Int_Tables_number   1
_chemical_formula_structural   ErTlS2O9
_chemical_formula_sum   'Er4 Tl4 S8 O36'
_cell_volume   778.84011657
_cell_formula_units_Z   4
loop_
 _symmetry_equiv_pos_site_id
 _symmetry_equiv_pos_as_xyz
  1  'x, y, z'
loop_
 _atom_site_type_symbol
 _atom_site_label
 _atom_site_symmetry_multiplicity
 _atom_site_fract_x
 _atom_site_fract_y
 _atom_site_fract_z
 _atom_site_occupancy
  Er  Er0  1  0.36248400  0.96181100  0.71648400  1
  Er  Er1  1  0.63751600  0.03818900  0.28351600  1
  Er  Er2  1  0.86248400  0.53818900  0.78351600  1
  Er  Er3  1  0.13751600  0.46181100  0.21648400  1
  Tl  Tl0  1  0.33239000  0.68747400  0.96629800  1
  Tl  Tl1  1  0.66761000  0.31252600  0.03370200  1
  Tl  Tl2  1  0.83239000  0.81252600  0.53370200  1
  Tl  Tl3  1  0.16761000  0.18747400  0.46629800  1
  S  S0  1  0.12984300  0.31726600  0.87419700  1
  S  S1  1  0.87015700  0.68273400  0.12580300  1
  S  S2  1  0.62984300  0.18273400  0.62580300  1
  S  S3  1  0.37015700  0.81726600  0.37419700  1
  S  S4  1  0.19982000  0.60164300  0.59850900  1
  S  S5  1  0.80018000  0.39835700  0.40149100  1
  S  S6  1  0.69982000  0.89835700  0.90149100  1
  S  S7  1  0.30018000  0.10164300  0.09850900  1
  O  O0  1  0.78439500  0.04043800  0.96560900  1
  O  O1  1  0.21560500  0.95956200  0.03439100  1
  O  O2  1  0.28439500  0.45956200  0.53439100  1
  O  O3  1  0.71560500  0.54043800  0.46560900  1
  O  O4  1  0.20577600  0.17645000  0.76214300  1
  O  O5  1  0.79422400  0.82355000  0.23785700  1
  O  O6  1  0.70577600  0.32355000  0.73785700  1
  O  O7  1  0.29422400  0.67645000  0.26214300  1
  O  O8  1  0.31139100  0.72855100  0.67548400  1
  O  O9  1  0.68860900  0.27144900  0.32451600  1
  O  O10  1  0.81139100  0.77144900  0.82451600  1
  O  O11  1  0.18860900  0.22855100  0.17548400  1
  O  O12  1  0.38268100  0.11343100  0.97426400  1
  O  O13  1  0.61731900  0.88656900  0.02573600  1
  O  O14  1  0.88268100  0.38656900  0.52573600  1
  O  O15  1  0.11731900  0.61343100  0.47426400  1
  O  O16  1  0.09314200  0.94566300  0.76843500  1
  O  O17  1  0.90685800  0.05433700  0.23156500  1
  O  O18  1  0.59314200  0.55433700  0.73156500  1
  O  O19  1  0.40685800  0.44566300  0.26843500  1
  O  O20  1  0.25013800  0.42207800  0.98406500  1
  O  O21  1  0.74986200  0.57792200  0.01593500  1
  O  O22  1  0.75013800  0.07792200  0.51593500  1
  O  O23  1  0.24986200  0.92207800  0.48406500  1
  O  O24  1  0.01135900  0.29805300  0.97093500  1
  O  O25  1  0.98864100  0.70194700  0.02906500  1
  O  O26  1  0.51135900  0.20194700  0.52906500  1
  O  O27  1  0.48864100  0.79805300  0.47093500  1
  O  O28  1  0.05644700  0.38293300  0.78741600  1
  O  O29  1  0.94355300  0.61706700  0.21258400  1
  O  O30  1  0.55644700  0.11706700  0.71258400  1
  O  O31  1  0.44355300  0.88293300  0.28741600  1
  O  O32  1  0.58500600  0.88371500  0.78428500  1
  O  O33  1  0.41499400  0.11628500  0.21571500  1
  O  O34  1  0.08500600  0.61628500  0.71571500  1
  O  O35  1  0.91499400  0.38371500  0.28428500  1
loop_
_geom_bond_atom_site_label_1
_geom_bond_atom_site_label_2
_geom_bond_distance
_geom_bond_site_symmetry_2
Er0 O32 2.292300 1_555
Er0 O8 2.294549 1_555
Er0 O12 2.295187 1_565
Er0 O30 2.321635 1_565
Er0 O16 2.370001 1_555
Er0 O23 2.382305 1_555
Er0 O4 2.440604 1_565
Er0 O27 2.459373 1_555
Er1 O33 2.292300 1_555
Er1 O9 2.294549 1_555
Er1 O13 2.295187 1_545
Er1 O31 2.321635 1_545
Er1 O17 2.370001 1_555
Er1 O22 2.382305 1_555
Er1 O5 2.440604 1_545
Er1 O26 2.459373 1_555
Er2 O34 2.292300 1_655
Er2 O10 2.294549 1_555
Er2 O14 2.295187 1_555
Er2 O28 2.321635 1_655
Er2 O18 2.370001 1_555
Er2 O21 2.382305 1_556
Er2 O6 2.440604 1_555
Er2 O25 2.459373 1_556
Er3 O35 2.292300 1_455
Er3 O11 2.294549 1_555
Er3 O15 2.295187 1_555
Er3 O29 2.321635 1_455
Er3 O19 2.370001 1_555
Er3 O20 2.382305 1_554
Er3 O7 2.440604 1_555
Er3 O24 2.459373 1_554
O0 S6 1.474752 1_545
O0 Tl1 2.748441 1_556
O1 S7 1.474752 1_565
O1 Tl0 2.748441 1_554
O2 S4 1.474752 1_555
O2 Tl3 2.748441 1_555
O3 S5 1.474752 1_555
O3 Tl2 2.748441 1_555
O4 S0 1.485444 1_555
O5 S1 1.485444 1_555
O6 S2 1.485444 1_555
O7 S3 1.485444 1_555
O8 S4 1.493576 1_555
O9 S5 1.493576 1_555
O10 S6 1.493576 1_555
O11 S7 1.493576 1_555
O12 S7 1.498961 1_556
O13 S6 1.498961 1_554
O14 S5 1.498961 1_555
O15 S4 1.498961 1_555
O20 S0 1.506670 1_555
O21 S1 1.506670 1_555
O22 S2 1.506670 1_555
O23 S3 1.506670 1_555
O24 S0 1.486062 1_555
O25 S1 1.486062 1_555
O26 S2 1.486062 1_555
O27 S3 1.486062 1_555
O28 S0 1.492550 1_555
O29 S1 1.492550 1_555
O30 S2 1.492550 1_555
O31 S3 1.492550 1_555
O32 S6 1.485282 1_555
O33 S7 1.485282 1_555
O34 S4 1.485282 1_555
O35 S5 1.485282 1_555
