# generated using pymatgen
data_DyGePd
_symmetry_space_group_name_H-M   'P 1'
_cell_length_a   4.33396721
_cell_length_b   7.49487529
_cell_length_c   11.30925580
_cell_angle_alpha   109.35135955
_cell_angle_beta   101.04684513
_cell_angle_gamma   90.00000000
_symmetry_Int_Tables_number   1
_chemical_formula_structural   DyGePd
_chemical_formula_sum   'Dy6 Ge6 Pd6'
_cell_volume   339.37676573
_cell_formula_units_Z   6
loop_
 _symmetry_equiv_pos_site_id
 _symmetry_equiv_pos_as_xyz
  1  'x, y, z'
loop_
 _atom_site_type_symbol
 _atom_site_label
 _atom_site_symmetry_multiplicity
 _atom_site_fract_x
 _atom_site_fract_y
 _atom_site_fract_z
 _atom_site_occupancy
  Dy  Dy0  1  -0.00000000  0.53454761  -0.00000000  1
  Dy  Dy1  1  0.66648242  0.20350169  0.33296584  1
  Dy  Dy2  1  0.33351758  0.87053585  0.66703416  1
  Dy  Dy3  1  0.50000000  0.95083129  0.00000000  1
  Dy  Dy4  1  0.83220341  0.28997462  0.66440683  1
  Dy  Dy5  1  0.16779659  0.62556779  0.33559317  1
  Ge  Ge0  1  0.93543480  0.08947579  0.87086861  1
  Ge  Ge1  1  0.06456520  0.21860718  0.12913139  1
  Ge  Ge2  1  0.76693867  0.60472485  0.53387834  1
  Ge  Ge3  1  0.23306133  0.07084751  0.46612166  1
  Ge  Ge4  1  0.59453610  0.74987916  0.18907221  1
  Ge  Ge5  1  0.40546390  0.56080696  0.81092779  1
  Pd  Pd0  1  0.89582113  0.72352435  0.79164225  1
  Pd  Pd1  1  0.10417887  0.93188210  0.20835775  1
  Pd  Pd2  1  0.73395911  0.90025940  0.46791823  1
  Pd  Pd3  1  0.26604089  0.43234117  0.53208177  1
  Pd  Pd4  1  0.57242217  0.39601800  0.14484434  1
  Pd  Pd5  1  0.42757783  0.25117366  0.85515566  1
loop_
_geom_bond_atom_site_label_1
_geom_bond_atom_site_label_2
_geom_bond_distance
_geom_bond_site_symmetry_2
Dy0 Ge4 3.068837 1_555
Dy0 Ge4 3.068837 1_455
Dy0 Ge5 3.068837 1_454
Dy0 Ge5 3.068837 1_554
Dy0 Pd5 3.079891 1_554
Dy0 Pd5 3.079891 1_454
Dy0 Pd4 3.079891 1_455
Dy0 Pd4 3.079891 1_555
Dy0 Pd1 3.092975 1_555
Dy0 Pd0 3.092976 1_454
Dy0 Ge0 3.154879 1_454
Dy0 Ge1 3.154879 1_555
Dy1 Pd4 2.911434 1_555
Dy1 Pd1 2.975210 1_545
Dy1 Pd1 2.975213 1_645
Dy1 Ge3 2.976737 1_555
Dy1 Ge3 2.976744 1_655
Dy1 Ge2 3.080228 1_555
Dy1 Pd2 3.115773 1_545
Dy1 Pd3 3.156352 1_555
Dy1 Pd3 3.156355 1_655
Dy1 Ge1 3.162358 1_555
Dy1 Ge1 3.162358 1_655
Dy1 Ge4 3.231610 1_545
Dy2 Pd5 2.911433 1_565
Dy2 Pd0 2.975210 1_555
Dy2 Pd0 2.975213 1_455
Dy2 Ge2 2.976741 1_555
Dy2 Ge2 2.976747 1_455
Dy2 Ge3 3.080234 1_565
Dy2 Pd3 3.115773 1_555
Dy2 Pd2 3.156352 1_555
Dy2 Pd2 3.156355 1_455
Dy2 Ge0 3.162358 1_565
Dy2 Ge0 3.162358 1_465
Dy2 Ge5 3.231610 1_555
Dy3 Ge5 2.967651 1_554
Dy3 Ge4 2.967651 1_555
Dy3 Ge1 2.972487 1_665
Dy3 Ge0 2.972487 1_464
Dy3 Ge1 2.972490 1_565
Dy3 Ge0 2.972490 1_564
Dy3 Pd4 3.177360 1_565
Dy3 Pd5 3.177360 1_564
Dy3 Pd0 3.207241 1_454
Dy3 Pd0 3.207241 1_554
Dy3 Pd1 3.207241 1_655
Dy3 Pd1 3.207241 1_555
Dy4 Pd2 2.997772 1_545
Dy4 Pd3 3.008298 1_555
Dy4 Pd3 3.008298 1_655
Dy4 Ge5 3.038422 1_555
Dy4 Ge5 3.038422 1_655
Dy4 Pd0 3.074810 1_555
Dy4 Pd5 3.111095 1_555
Dy4 Pd5 3.111095 1_655
Dy4 Ge3 3.129911 1_555
Dy4 Ge3 3.129914 1_655
Dy4 Ge0 3.136110 1_555
Dy4 Ge2 3.157825 1_555
Dy5 Pd3 2.997772 1_555
Dy5 Pd2 3.008298 1_555
Dy5 Pd2 3.008298 1_455
Dy5 Ge4 3.038422 1_555
Dy5 Ge4 3.038422 1_455
Dy5 Pd1 3.074810 1_555
Dy5 Pd4 3.111095 1_555
Dy5 Pd4 3.111095 1_455
Dy5 Ge2 3.129913 1_555
Dy5 Ge2 3.129916 1_455
Dy5 Ge1 3.136110 1_555
Dy5 Ge3 3.157832 1_565
Ge0 Pd5 2.517472 1_655
Ge0 Pd5 2.517475 1_555
Ge0 Pd0 2.582137 1_545
Ge0 Ge1 2.698323 1_656
Ge1 Pd4 2.517472 1_455
Ge1 Pd4 2.517475 1_555
Ge1 Pd1 2.582137 1_545
Ge2 Pd3 2.519535 1_555
Ge2 Pd3 2.519539 1_655
Ge2 Pd2 2.556802 1_555
Ge2 Pd0 2.694171 1_555
Ge3 Pd2 2.519539 1_545
Ge3 Pd2 2.519543 1_445
Ge3 Pd3 2.556795 1_555
Ge3 Pd1 2.694171 1_545
Ge4 Pd4 2.528979 1_555
Ge4 Pd1 2.530852 1_555
Ge4 Pd1 2.530852 1_655
Ge4 Pd2 2.914533 1_555
Ge5 Pd5 2.528979 1_555
Ge5 Pd0 2.530852 1_555
Ge5 Pd0 2.530852 1_455
Ge5 Pd3 2.914533 1_555
Pd4 Pd5 3.026660 1_554
