# generated using pymatgen
data_ZrVNi
_symmetry_space_group_name_H-M   'P 1'
_cell_length_a   5.01279083
_cell_length_b   5.01279083
_cell_length_c   8.38835600
_cell_angle_alpha   90.00000000
_cell_angle_beta   90.00000000
_cell_angle_gamma   119.12597200
_symmetry_Int_Tables_number   1
_chemical_formula_structural   ZrVNi
_chemical_formula_sum   'Zr4 V4 Ni4'
_cell_volume   184.13002953
_cell_formula_units_Z   4
loop_
 _symmetry_equiv_pos_site_id
 _symmetry_equiv_pos_as_xyz
  1  'x, y, z'
loop_
 _atom_site_type_symbol
 _atom_site_label
 _atom_site_symmetry_multiplicity
 _atom_site_fract_x
 _atom_site_fract_y
 _atom_site_fract_z
 _atom_site_occupancy
  Zr  Zr0  1  0.67404900  0.32595100  0.31859000  1
  Zr  Zr1  1  0.33774400  0.66225600  0.19365500  1
  Zr  Zr2  1  0.33774400  0.66225600  0.80634500  1
  Zr  Zr3  1  0.67404900  0.32595100  0.68141000  1
  V  V0  1  0.15509700  0.84490300  0.50000000  1
  V  V1  1  0.34086300  0.16743100  0.00000000  1
  V  V2  1  0.83256900  0.65913700  0.00000000  1
  V  V3  1  0.82646200  0.17353800  0.00000000  1
  Ni  Ni0  1  0.00299400  0.99700600  0.25481700  1
  Ni  Ni1  1  0.00299400  0.99700600  0.74518300  1
  Ni  Ni2  1  0.65443200  0.83875600  0.50000000  1
  Ni  Ni3  1  0.16124400  0.34556800  0.50000000  1
loop_
_geom_bond_atom_site_label_1
_geom_bond_atom_site_label_2
_geom_bond_distance
_geom_bond_site_symmetry_2
Zr0 Zr3 3.043463 1_555
Zr0 Zr1 3.090132 1_555
Zr0 Zr1 3.090171 1_545
Zr0 Zr1 3.090171 1_655
Zr1 Zr2 3.248894 1_554
Zr2 Zr3 3.090132 1_555
Zr2 Zr3 3.090171 1_565
Zr2 Zr3 3.090171 1_455
V0 Zr3 2.965001 1_455
V0 Zr3 2.965001 1_565
V0 Zr0 2.965001 1_565
V0 Zr0 2.965001 1_455
V0 Zr1 3.015971 1_555
V0 Zr2 3.015971 1_555
V1 V3 2.419454 1_555
V1 V2 2.497310 1_555
V1 V2 2.581558 1_445
V1 V3 2.593623 1_455
V1 Zr2 2.971444 1_554
V1 Zr1 2.971444 1_555
V1 Zr1 3.002209 1_545
V1 Zr2 3.002209 1_544
V1 Zr3 3.044829 1_554
V1 Zr0 3.044829 1_555
V2 V3 2.419454 1_555
V2 V3 2.593623 1_565
V2 Zr2 2.971444 1_554
V2 Zr1 2.971444 1_555
V2 Zr2 3.002209 1_654
V2 Zr1 3.002209 1_655
V2 Zr3 3.044829 1_554
V2 Zr0 3.044829 1_555
V3 Zr0 2.979536 1_555
V3 Zr3 2.979536 1_554
V3 Zr2 3.016134 1_654
V3 Zr1 3.016134 1_655
V3 Zr2 3.016134 1_544
V3 Zr1 3.016134 1_545
Ni0 V0 2.441015 1_555
Ni0 Ni2 2.561814 1_455
Ni0 Ni3 2.561814 1_565
Ni0 V1 2.599754 1_565
Ni0 V2 2.599754 1_455
Ni0 V3 2.626280 1_465
Ni0 Zr0 2.893260 1_465
Ni0 Zr1 2.938685 1_555
Ni0 Zr1 2.958428 1_565
Ni0 Zr1 2.958428 1_455
Ni0 Zr0 2.986823 1_565
Ni0 Zr0 2.986823 1_455
Ni1 V0 2.441015 1_555
Ni1 Ni2 2.561814 1_455
Ni1 Ni3 2.561814 1_565
Ni1 V2 2.599754 1_456
Ni1 V1 2.599754 1_566
Ni1 V3 2.626280 1_466
Ni1 Zr3 2.893260 1_465
Ni1 Zr2 2.938685 1_555
Ni1 Zr2 2.958428 1_565
Ni1 Zr2 2.958428 1_455
Ni1 Zr3 2.986823 1_565
Ni1 Zr3 2.986823 1_455
Ni2 V0 2.494876 1_655
Ni2 Ni3 2.504837 1_555
Ni2 V0 2.518204 1_555
Ni2 Ni3 2.574031 1_665
Ni2 Zr0 2.838296 1_565
Ni2 Zr3 2.838296 1_565
Ni2 Zr2 2.922185 1_555
Ni2 Zr1 2.922185 1_555
Ni2 Zr3 3.029738 1_555
Ni2 Zr0 3.029738 1_555
Ni3 V0 2.494876 1_545
Ni3 V0 2.518204 1_555
Ni3 Zr0 2.838296 1_455
Ni3 Zr3 2.838296 1_455
Ni3 Zr2 2.922185 1_555
Ni3 Zr1 2.922185 1_555
Ni3 Zr3 3.029738 1_555
Ni3 Zr0 3.029738 1_555
