# generated using pymatgen
data_Ho(Fe2Ge)2
_symmetry_space_group_name_H-M   'P 1'
_cell_length_a   7.26186800
_cell_length_b   7.26186800
_cell_length_c   3.85694800
_cell_angle_alpha   90.00000000
_cell_angle_beta   90.00000000
_cell_angle_gamma   90.00000000
_symmetry_Int_Tables_number   1
_chemical_formula_structural   Ho(Fe2Ge)2
_chemical_formula_sum   'Ho2 Fe8 Ge4'
_cell_volume   203.39509925
_cell_formula_units_Z   2
loop_
 _symmetry_equiv_pos_site_id
 _symmetry_equiv_pos_as_xyz
  1  'x, y, z'
loop_
 _atom_site_type_symbol
 _atom_site_label
 _atom_site_symmetry_multiplicity
 _atom_site_fract_x
 _atom_site_fract_y
 _atom_site_fract_z
 _atom_site_occupancy
  Ho  Ho0  1  0.00000000  0.00000000  0.00000000  1
  Ho  Ho1  1  0.50000000  0.50000000  0.50000000  1
  Fe  Fe0  1  0.58958800  0.14791400  0.00000000  1
  Fe  Fe1  1  0.41041200  0.85208600  0.00000000  1
  Fe  Fe2  1  0.64791400  0.91041200  0.50000000  1
  Fe  Fe3  1  0.08958800  0.35208600  0.50000000  1
  Fe  Fe4  1  0.35208600  0.08958800  0.50000000  1
  Fe  Fe5  1  0.91041200  0.64791400  0.50000000  1
  Fe  Fe6  1  0.14791400  0.58958800  0.00000000  1
  Fe  Fe7  1  0.85208600  0.41041200  0.00000000  1
  Ge  Ge0  1  0.28343300  0.28343300  0.00000000  1
  Ge  Ge1  1  0.71656700  0.71656700  0.00000000  1
  Ge  Ge2  1  0.78343300  0.21656700  0.50000000  1
  Ge  Ge3  1  0.21656700  0.78343300  0.50000000  1
loop_
_geom_bond_atom_site_label_1
_geom_bond_atom_site_label_2
_geom_bond_distance
_geom_bond_site_symmetry_2
Fe0 Ge0 2.431330 1_555
Fe0 Ge2 2.439081 1_555
Fe0 Ge2 2.439081 1_554
Fe0 Ho0 3.168011 1_655
Fe0 Ho1 3.267950 1_555
Fe0 Ho1 3.267950 1_554
Fe1 Ge1 2.431330 1_555
Fe1 Ge3 2.439081 1_554
Fe1 Ge3 2.439081 1_555
Fe1 Ho0 3.168011 1_565
Fe1 Ho1 3.267950 1_555
Fe1 Ho1 3.267950 1_554
Fe2 Ge2 2.431330 1_565
Fe2 Ge1 2.439081 1_555
Fe2 Ge1 2.439081 1_556
Fe2 Ho1 3.168011 1_555
Fe2 Ho0 3.267950 1_666
Fe2 Ho0 3.267950 1_665
Fe3 Ge2 2.431330 1_455
Fe3 Ge0 2.439081 1_555
Fe3 Ge0 2.439081 1_556
Fe3 Ho1 3.168011 1_555
Fe3 Ho0 3.267950 1_555
Fe3 Ho0 3.267950 1_556
Fe4 Ge3 2.431330 1_545
Fe4 Ge0 2.439081 1_555
Fe4 Ge0 2.439081 1_556
Fe4 Ho1 3.168011 1_555
Fe4 Ho0 3.267950 1_555
Fe4 Ho0 3.267950 1_556
Fe5 Ge3 2.431330 1_655
Fe5 Ge1 2.439081 1_555
Fe5 Ge1 2.439081 1_556
Fe5 Ho1 3.168011 1_555
Fe5 Ho0 3.267950 1_666
Fe5 Ho0 3.267950 1_665
Fe6 Ge0 2.431330 1_555
Fe6 Ge3 2.439081 1_554
Fe6 Ge3 2.439081 1_555
Fe6 Ho0 3.168011 1_565
Fe6 Ho1 3.267950 1_555
Fe6 Ho1 3.267950 1_554
Fe7 Ge1 2.431330 1_555
Fe7 Ge2 2.439081 1_555
Fe7 Ge2 2.439081 1_554
Fe7 Ho0 3.168011 1_655
Fe7 Ho1 3.267950 1_555
Fe7 Ho1 3.267950 1_554
Ge0 Ho0 2.910809 1_555
Ge0 Ho1 2.943750 1_555
Ge0 Ho1 2.943750 1_554
Ge1 Ho0 2.910809 1_665
Ge1 Ho1 2.943750 1_555
Ge1 Ho1 2.943750 1_554
Ge2 Ho1 2.910809 1_555
Ge2 Ho0 2.943750 1_655
Ge2 Ho0 2.943750 1_656
Ge3 Ho1 2.910809 1_555
Ge3 Ho0 2.943750 1_565
Ge3 Ho0 2.943750 1_566
