# generated using pymatgen
data_SrGe2
_symmetry_space_group_name_H-M   'P 1'
_cell_length_a   6.59112885
_cell_length_b   8.77931336
_cell_length_c   11.24404698
_cell_angle_alpha   89.99998248
_cell_angle_beta   90.00001978
_cell_angle_gamma   90.00000681
_symmetry_Int_Tables_number   1
_chemical_formula_structural   SrGe2
_chemical_formula_sum   'Sr8 Ge16'
_cell_volume   650.64336268
_cell_formula_units_Z   8
loop_
 _symmetry_equiv_pos_site_id
 _symmetry_equiv_pos_as_xyz
  1  'x, y, z'
loop_
 _atom_site_type_symbol
 _atom_site_label
 _atom_site_symmetry_multiplicity
 _atom_site_fract_x
 _atom_site_fract_y
 _atom_site_fract_z
 _atom_site_occupancy
  Sr  Sr0  1  0.25000000  0.34809285  0.40660659  1
  Sr  Sr1  1  0.74999900  0.65190715  0.59339341  1
  Sr  Sr2  1  0.25000000  0.84809285  0.09339341  1
  Sr  Sr3  1  0.75000000  0.15190715  0.90660659  1
  Sr  Sr4  1  0.25000000  0.51475718  0.80417253  1
  Sr  Sr5  1  0.75000000  0.48524282  0.19582747  1
  Sr  Sr6  1  0.25000000  0.01475718  0.69582747  1
  Sr  Sr7  1  0.75000000  0.98524282  0.30417253  1
  Ge  Ge0  1  0.94242608  0.30441390  0.64881080  1
  Ge  Ge1  1  0.44242608  0.69558610  0.35118920  1
  Ge  Ge2  1  0.55757492  0.80441390  0.85118920  1
  Ge  Ge3  1  0.05757492  0.19558610  0.14881080  1
  Ge  Ge4  1  0.05757492  0.69558610  0.35118920  1
  Ge  Ge5  1  0.55757492  0.30441390  0.64881080  1
  Ge  Ge6  1  0.44242608  0.19558610  0.14881080  1
  Ge  Ge7  1  0.94242508  0.80441390  0.85118920  1
  Ge  Ge8  1  0.74999900  0.56429285  0.91002893  1
  Ge  Ge9  1  0.24999900  0.43570815  0.08997107  1
  Ge  Ge10  1  0.74999900  0.06429285  0.58997107  1
  Ge  Ge11  1  0.24999900  0.93570815  0.41002893  1
  Ge  Ge12  1  0.75000000  0.80070048  0.04611551  1
  Ge  Ge13  1  0.25000000  0.19930052  0.95388449  1
  Ge  Ge14  1  0.75000000  0.30070048  0.45388449  1
  Ge  Ge15  1  0.25000000  0.69929952  0.54611551  1
loop_
_geom_bond_atom_site_label_1
_geom_bond_atom_site_label_2
_geom_bond_distance
_geom_bond_site_symmetry_2
Ge0 Ge14 2.532484 1_555
Ge0 Ge5 2.536604 1_555
Ge0 Ge10 2.547627 1_555
Ge0 Sr4 3.251401 1_655
Ge0 Sr6 3.294851 1_655
Ge0 Sr1 3.362139 1_555
Ge0 Sr0 3.416650 1_655
Ge0 Sr3 3.435628 1_555
Ge1 Ge15 2.532484 1_555
Ge1 Ge4 2.536604 1_555
Ge1 Ge11 2.547634 1_555
Ge1 Sr5 3.251402 1_555
Ge1 Sr7 3.294851 1_555
Ge1 Sr0 3.362136 1_555
Ge1 Sr1 3.416645 1_555
Ge1 Sr2 3.435627 1_555
Ge2 Ge7 2.536597 1_555
Ge2 Ge8 2.547617 1_555
Ge2 Sr6 3.251405 1_565
Ge2 Sr4 3.294855 1_555
Ge2 Sr3 3.362134 1_565
Ge2 Sr2 3.416654 1_556
Ge2 Sr1 3.435624 1_555
Ge3 Ge6 2.536604 1_555
Ge3 Ge9 2.547624 1_555
Ge3 Sr7 3.251405 1_445
Ge3 Sr5 3.294855 1_455
Ge3 Sr2 3.362134 1_545
Ge3 Sr3 3.416653 1_454
Ge3 Sr0 3.435625 1_555
Ge4 Sr5 3.251405 1_455
Ge4 Sr7 3.294855 1_455
Ge4 Sr0 3.362134 1_555
Ge4 Sr1 3.416658 1_455
Ge4 Sr2 3.435625 1_555
Ge5 Sr4 3.251406 1_555
Ge5 Sr6 3.294855 1_555
Ge5 Sr1 3.362131 1_555
Ge5 Sr0 3.416653 1_555
Ge5 Sr3 3.435625 1_555
Ge6 Ge9 2.547634 1_555
Ge6 Sr7 3.251401 1_545
Ge6 Sr5 3.294851 1_555
Ge6 Sr2 3.362136 1_545
Ge6 Sr3 3.416650 1_554
Ge6 Sr0 3.435629 1_555
Ge7 Ge8 2.547623 1_555
Ge7 Sr6 3.251405 1_665
Ge7 Sr4 3.294855 1_655
Ge7 Sr3 3.362134 1_565
Ge7 Sr2 3.416653 1_656
Ge7 Sr1 3.435628 1_555
Ge8 Sr5 3.287618 1_556
Ge8 Sr4 3.530798 1_555
Ge8 Sr4 3.530811 1_655
Ge8 Sr3 3.620668 1_555
Ge8 Sr1 3.642409 1_555
Ge9 Sr4 3.287616 1_554
Ge9 Sr5 3.530798 1_455
Ge9 Sr5 3.530809 1_555
Ge9 Sr2 3.620659 1_555
Ge9 Sr0 3.642411 1_555
Ge10 Ge5 2.547617 1_555
Ge10 Ge14 2.578582 1_555
Ge10 Sr7 3.287618 1_545
Ge10 Sr6 3.530798 1_555
Ge10 Sr6 3.530810 1_655
Ge10 Sr1 3.620668 1_545
Ge10 Sr3 3.642409 1_555
Ge11 Ge4 2.547624 1_555
Ge11 Ge15 2.578589 1_555
Ge11 Sr6 3.287616 1_565
Ge11 Sr7 3.530797 1_455
Ge11 Sr7 3.530810 1_555
Ge11 Sr0 3.620659 1_565
Ge11 Sr2 3.642411 1_555
Ge12 Ge2 2.532480 1_554
Ge12 Ge7 2.532481 1_554
Ge12 Ge8 2.578583 1_554
Ge12 Sr5 3.240967 1_555
Ge12 Sr7 3.323284 1_555
Ge12 Sr2 3.363994 1_655
Ge12 Sr2 3.363994 1_555
Ge12 Sr3 3.459438 1_564
Ge13 Ge3 2.532481 1_556
Ge13 Ge6 2.532484 1_556
Ge13 Ge9 2.578583 1_556
Ge13 Sr4 3.240959 1_555
Ge13 Sr6 3.323289 1_555
Ge13 Sr3 3.363995 1_455
Ge13 Sr3 3.363995 1_555
Ge13 Sr2 3.459446 1_546
Ge14 Ge5 2.532481 1_555
Ge14 Sr7 3.240968 1_545
Ge14 Sr5 3.323283 1_555
Ge14 Sr0 3.363994 1_555
Ge14 Sr0 3.363994 1_655
Ge14 Sr1 3.459439 1_555
Ge15 Ge4 2.532480 1_555
Ge15 Sr6 3.240968 1_565
Ge15 Sr4 3.323283 1_555
Ge15 Sr1 3.363987 1_555
Ge15 Sr1 3.364000 1_455
Ge15 Sr0 3.459439 1_555
