# generated using pymatgen
data_Mg14NiC
_symmetry_space_group_name_H-M   'P 1'
_cell_length_a   6.23623079
_cell_length_b   7.00568420
_cell_length_c   9.20442543
_cell_angle_alpha   90.00000000
_cell_angle_beta   90.00000000
_cell_angle_gamma   124.17291008
_symmetry_Int_Tables_number   1
_chemical_formula_structural   Mg14NiC
_chemical_formula_sum   'Mg14 Ni1 C1'
_cell_volume   332.70299972
_cell_formula_units_Z   1
loop_
 _symmetry_equiv_pos_site_id
 _symmetry_equiv_pos_as_xyz
  1  'x, y, z'
loop_
 _atom_site_type_symbol
 _atom_site_label
 _atom_site_symmetry_multiplicity
 _atom_site_fract_x
 _atom_site_fract_y
 _atom_site_fract_z
 _atom_site_occupancy
  Mg  Mg0  1  0.22145705  0.36072803  0.62500000  1
  Mg  Mg1  1  0.16316767  0.83158333  0.62500000  1
  Mg  Mg2  1  0.80943859  0.43060770  0.12500000  1
  Mg  Mg3  1  0.67171002  0.30453333  0.62500000  1
  Mg  Mg4  1  0.80943859  0.87882989  0.12500000  1
  Mg  Mg5  1  0.67171002  0.86717569  0.62500000  1
  Mg  Mg6  1  0.29533938  0.10595502  0.29942016  1
  Mg  Mg7  1  0.29533938  0.10595502  0.95057984  1
  Mg  Mg8  1  0.29533938  0.68938536  0.29942016  1
  Mg  Mg9  1  0.29533938  0.68938536  0.95057984  1
  Mg  Mg10  1  0.85253221  0.17626660  0.36176512  1
  Mg  Mg11  1  0.85253221  0.17626660  0.88823488  1
  Mg  Mg12  1  0.73152885  0.61576492  0.38698158  1
  Mg  Mg13  1  0.73152885  0.61576492  0.86301842  1
  Ni  Ni0  1  0.18239638  0.34119769  0.12500000  1
  C  C0  1  0.12120206  0.81060053  0.12500000  1
loop_
_geom_bond_atom_site_label_1
_geom_bond_atom_site_label_2
_geom_bond_distance
_geom_bond_site_symmetry_2
Mg0 Mg5 3.046471 1_555
Mg0 Mg3 3.046471 1_555
Mg0 Mg11 3.081199 1_455
Mg0 Mg10 3.081199 1_455
Mg0 Mg5 3.223717 1_445
Mg0 Mg3 3.223718 1_455
Mg0 Mg12 3.424279 1_555
Mg0 Mg13 3.424279 1_555
Mg0 Mg1 3.515729 1_555
Mg0 Mg1 3.515729 1_545
Mg1 Mg3 3.038342 1_565
Mg1 Mg5 3.038342 1_555
Mg1 Mg12 3.124013 1_455
Mg1 Mg13 3.124013 1_455
Mg1 Mg3 3.211533 1_455
Mg1 Mg5 3.211533 1_455
Mg1 Mg8 3.402189 1_555
Mg1 Mg9 3.402189 1_555
Mg1 Mg6 3.402195 1_565
Mg1 Mg7 3.402195 1_565
Mg2 Ni0 2.727370 1_655
Mg3 Mg5 3.063990 1_545
Mg4 Ni0 2.727370 1_665
Mg6 Ni0 2.663370 1_555
Mg7 Ni0 2.663370 1_556
Mg8 Ni0 2.663381 1_555
Mg9 Ni0 2.663381 1_556
Mg10 Ni0 2.765121 1_655
Mg10 Mg3 3.014625 1_555
Mg10 Mg5 3.014632 1_545
Mg11 Ni0 2.765121 1_656
Mg11 Mg3 3.014625 1_555
Mg11 Mg5 3.014632 1_545
Mg12 Mg4 2.905413 1_555
Mg12 Mg2 2.905421 1_555
Mg12 Mg5 2.962967 1_555
Mg12 Mg3 2.962976 1_555
Mg12 Mg6 3.144997 1_555
Mg12 Mg8 3.144997 1_555
Mg13 Mg4 2.905413 1_556
Mg13 Mg2 2.905421 1_556
Mg13 Mg5 2.962967 1_555
Mg13 Mg3 2.962976 1_555
Mg13 Mg7 3.144997 1_555
Mg13 Mg9 3.144997 1_555
C0 Mg2 2.247776 1_455
C0 Mg4 2.247776 1_455
C0 Mg9 2.348159 1_554
C0 Mg8 2.348159 1_555
C0 Mg7 2.348167 1_564
C0 Mg6 2.348167 1_565
