# generated using pymatgen
data_BaSrYb4O8
_symmetry_space_group_name_H-M   'P 1'
_cell_length_a   3.49784300
_cell_length_b   10.08495000
_cell_length_c   12.04739500
_cell_angle_alpha   90.00000000
_cell_angle_beta   90.00000000
_cell_angle_gamma   90.00000000
_symmetry_Int_Tables_number   1
_chemical_formula_structural   BaSrYb4O8
_chemical_formula_sum   'Ba2 Sr2 Yb8 O16'
_cell_volume   424.97874688
_cell_formula_units_Z   2
loop_
 _symmetry_equiv_pos_site_id
 _symmetry_equiv_pos_as_xyz
  1  'x, y, z'
loop_
 _atom_site_type_symbol
 _atom_site_label
 _atom_site_symmetry_multiplicity
 _atom_site_fract_x
 _atom_site_fract_y
 _atom_site_fract_z
 _atom_site_occupancy
  Ba  Ba0  1  0.75000000  0.74705100  0.15463200  1
  Ba  Ba1  1  0.75000000  0.24705100  0.34536800  1
  Sr  Sr0  1  0.25000000  0.25396300  0.84125700  1
  Sr  Sr1  1  0.25000000  0.75396300  0.65874300  1
  Yb  Yb0  1  0.75000000  0.08103200  0.10278100  1
  Yb  Yb1  1  0.75000000  0.58103200  0.39721900  1
  Yb  Yb2  1  0.25000000  0.92366000  0.88986400  1
  Yb  Yb3  1  0.25000000  0.42366000  0.61013600  1
  Yb  Yb4  1  0.75000000  0.07700000  0.61258900  1
  Yb  Yb5  1  0.75000000  0.57700000  0.88741100  1
  Yb  Yb6  1  0.25000000  0.91944900  0.39647200  1
  Yb  Yb7  1  0.25000000  0.41944900  0.10352800  1
  O  O0  1  0.75000000  0.08307500  0.91270600  1
  O  O1  1  0.75000000  0.58307500  0.58729400  1
  O  O2  1  0.25000000  0.92919100  0.07549800  1
  O  O3  1  0.25000000  0.42919100  0.42450200  1
  O  O4  1  0.75000000  0.37204000  0.97404500  1
  O  O5  1  0.75000000  0.87204000  0.52595500  1
  O  O6  1  0.25000000  0.61799500  0.01488900  1
  O  O7  1  0.25000000  0.11799500  0.48511100  1
  O  O8  1  0.75000000  0.28758300  0.67810400  1
  O  O9  1  0.75000000  0.78758300  0.82189600  1
  O  O10  1  0.25000000  0.71279500  0.33302600  1
  O  O11  1  0.25000000  0.21279500  0.16697400  1
  O  O12  1  0.75000000  0.98310700  0.27766000  1
  O  O13  1  0.75000000  0.48310700  0.22234000  1
  O  O14  1  0.25000000  0.01206100  0.72145900  1
  O  O15  1  0.25000000  0.51206100  0.77854100  1
loop_
_geom_bond_atom_site_label_1
_geom_bond_atom_site_label_2
_geom_bond_distance
_geom_bond_site_symmetry_2
Ba0 O2 2.709561 1_655
Ba0 O2 2.709561 1_555
Ba0 O6 2.754450 1_655
Ba0 O6 2.754450 1_555
Ba0 O13 2.784041 1_555
Ba0 O10 2.792322 1_555
Ba0 O10 2.792322 1_655
Ba0 O12 2.804307 1_555
Ba1 O3 2.709561 1_555
Ba1 O3 2.709561 1_655
Ba1 O7 2.754450 1_555
Ba1 O7 2.754450 1_655
Ba1 O12 2.784041 1_545
Ba1 O11 2.792322 1_655
Ba1 O11 2.792322 1_555
Ba1 O13 2.804307 1_555
O0 Yb0 2.290001 1_556
O0 Yb2 2.391470 1_645
O0 Yb2 2.391470 1_545
O0 Sr0 2.601875 1_555
O0 Sr0 2.601875 1_655
O1 Yb1 2.290001 1_555
O1 Yb3 2.391470 1_555
O1 Yb3 2.391470 1_655
O1 Sr1 2.601875 1_555
O1 Sr1 2.601875 1_655
O2 Yb2 2.237102 1_554
O2 Yb0 2.347695 1_465
O2 Yb0 2.347695 1_565
O3 Yb3 2.237102 1_555
O3 Yb1 2.347695 1_455
O3 Yb1 2.347695 1_555
O4 Yb5 2.315572 1_555
O4 Yb7 2.391801 1_656
O4 Yb7 2.391801 1_556
O4 Sr0 2.652533 1_655
O4 Sr0 2.652533 1_555
O5 Yb4 2.315572 1_565
O5 Yb6 2.391801 1_655
O5 Yb6 2.391801 1_555
O5 Sr1 2.652533 1_555
O5 Sr1 2.652533 1_655
O6 Yb7 2.269285 1_555
O6 Yb5 2.363951 1_454
O6 Yb5 2.363951 1_554
O7 Yb6 2.269285 1_545
O7 Yb4 2.363951 1_555
O7 Yb4 2.363951 1_455
O8 Yb4 2.265646 1_555
O8 Yb3 2.369074 1_555
O8 Yb3 2.369074 1_655
O8 Sr0 2.652762 1_555
O8 Sr0 2.652762 1_655
O9 Yb5 2.265646 1_555
O9 Yb2 2.369074 1_655
O9 Yb2 2.369074 1_555
O9 Sr1 2.652762 1_555
O9 Sr1 2.652762 1_655
O10 Yb6 2.219842 1_555
O10 Yb1 2.328644 1_555
O10 Yb1 2.328644 1_455
O11 Yb7 2.219842 1_555
O11 Yb0 2.328644 1_455
O11 Yb0 2.328644 1_555
O12 Yb0 2.326811 1_565
O12 Yb6 2.349406 1_655
O12 Yb6 2.349406 1_555
O13 Yb1 2.326811 1_555
O13 Yb7 2.349406 1_555
O13 Yb7 2.349406 1_655
O14 Yb2 2.216079 1_545
O14 Yb4 2.282087 1_455
O14 Yb4 2.282087 1_555
O14 Sr1 2.710349 1_545
O14 Sr0 2.834516 1_555
O15 Yb3 2.216079 1_555
O15 Yb5 2.282087 1_555
O15 Yb5 2.282087 1_455
O15 Sr0 2.710349 1_555
O15 Sr1 2.834516 1_555
