# generated using pymatgen
data_YbBiRh2
_symmetry_space_group_name_H-M   'P 1'
_cell_length_a   4.71568357
_cell_length_b   4.71568357
_cell_length_c   4.71568357
_cell_angle_alpha   60.00000000
_cell_angle_beta   60.00000000
_cell_angle_gamma   60.00000000
_symmetry_Int_Tables_number   1
_chemical_formula_structural   YbBiRh2
_chemical_formula_sum   'Yb1 Bi1 Rh2'
_cell_volume   74.15133389
_cell_formula_units_Z   1
loop_
 _symmetry_equiv_pos_site_id
 _symmetry_equiv_pos_as_xyz
  1  'x, y, z'
loop_
 _atom_site_type_symbol
 _atom_site_label
 _atom_site_symmetry_multiplicity
 _atom_site_fract_x
 _atom_site_fract_y
 _atom_site_fract_z
 _atom_site_occupancy
  Yb  Yb0  1  0.00000000  0.00000000  0.00000000  1
  Bi  Bi0  1  0.50000000  0.50000000  0.50000000  1
  Rh  Rh0  1  0.25000000  0.25000000  0.25000000  1
  Rh  Rh1  1  0.75000000  0.75000000  0.75000000  1
loop_
_geom_bond_atom_site_label_1
_geom_bond_atom_site_label_2
_geom_bond_distance
_geom_bond_site_symmetry_2
Bi0 Rh0 2.887755 1_655
Bi0 Rh1 2.887755 1_455
Bi0 Rh1 2.887755 1_545
Bi0 Rh0 2.887755 1_555
Bi0 Rh0 2.887755 1_556
Bi0 Rh0 2.887755 1_565
Bi0 Rh1 2.887755 1_554
Bi0 Rh1 2.887755 1_555
Bi0 Yb0 3.334492 1_556
Bi0 Yb0 3.334492 1_566
Bi0 Yb0 3.334492 1_655
Bi0 Yb0 3.334492 1_565
Bi0 Yb0 3.334492 1_665
Bi0 Yb0 3.334492 1_656
Rh0 Yb0 2.887755 1_655
Rh0 Yb0 2.887755 1_565
Rh0 Yb0 2.887755 1_555
Rh0 Yb0 2.887755 1_556
Rh1 Yb0 2.887755 1_566
Rh1 Yb0 2.887755 1_666
Rh1 Yb0 2.887755 1_656
Rh1 Yb0 2.887755 1_665
