# generated using pymatgen
data_Sr3(Cd2Ga)2
_symmetry_space_group_name_H-M   'P 1'
_cell_length_a   4.96632400
_cell_length_b   6.32835324
_cell_length_c   17.80579760
_cell_angle_alpha   83.97099686
_cell_angle_beta   98.01648452
_cell_angle_gamma   113.10308224
_symmetry_Int_Tables_number   1
_chemical_formula_structural   Sr3(Cd2Ga)2
_chemical_formula_sum   'Sr6 Cd8 Ga4'
_cell_volume   508.92340807
_cell_formula_units_Z   2
loop_
 _symmetry_equiv_pos_site_id
 _symmetry_equiv_pos_as_xyz
  1  'x, y, z'
loop_
 _atom_site_type_symbol
 _atom_site_label
 _atom_site_symmetry_multiplicity
 _atom_site_fract_x
 _atom_site_fract_y
 _atom_site_fract_z
 _atom_site_occupancy
  Sr  Sr0  1  0.55613100  0.70740800  0.90485300  1
  Sr  Sr1  1  0.21890800  0.70437700  0.23343900  1
  Sr  Sr2  1  0.88738000  0.70615800  0.56860200  1
  Sr  Sr3  1  0.77953700  0.29387700  0.76519700  1
  Sr  Sr4  1  0.44477100  0.29263900  0.09690400  1
  Sr  Sr5  1  0.11297400  0.29530000  0.43064900  1
  Cd  Cd0  1  0.79906400  0.72544300  0.37268300  1
  Cd  Cd1  1  0.46640200  0.72550800  0.70729600  1
  Cd  Cd2  1  0.92125300  0.10844900  0.23405800  1
  Cd  Cd3  1  0.58820000  0.10868600  0.56771300  1
  Cd  Cd4  1  0.25427900  0.10385100  0.90470700  1
  Cd  Cd5  1  0.53601400  0.27365700  0.29837000  1
  Cd  Cd6  1  0.20246000  0.27283300  0.63208700  1
  Cd  Cd7  1  0.87562700  0.28528900  0.96596400  1
  Ga  Ga0  1  0.73706200  0.88281100  0.09131200  1
  Ga  Ga1  1  0.40928200  0.89210700  0.42645700  1
  Ga  Ga2  1  0.07570500  0.89091000  0.76050000  1
  Ga  Ga3  1  0.13495200  0.73069600  0.03920700  1
loop_
_geom_bond_atom_site_label_1
_geom_bond_atom_site_label_2
_geom_bond_distance
_geom_bond_site_symmetry_2
Sr0 Sr3 4.097350 1_565
Sr0 Sr3 4.321841 1_555
Sr0 Sr3 4.321844 1_455
Sr1 Sr5 4.104381 1_555
Sr2 Sr5 4.093277 1_665
Sr2 Sr3 4.105548 1_555
Sr2 Sr5 4.294707 1_655
Sr2 Sr5 4.294710 1_555
Cd0 Ga1 2.847415 1_655
Cd0 Ga1 2.847424 1_555
Cd0 Cd5 3.002189 1_555
Cd0 Cd2 3.215965 1_565
Cd0 Sr2 3.450025 1_555
Cd0 Sr1 3.498855 1_655
Cd0 Sr1 3.498862 1_555
Cd0 Sr5 3.524461 1_665
Cd0 Sr5 3.632750 1_655
Cd0 Sr5 3.632761 1_555
Cd1 Ga2 2.841268 1_555
Cd1 Ga2 2.841268 1_655
Cd1 Cd6 3.014528 1_555
Cd1 Cd3 3.228827 1_565
Cd1 Sr0 3.479057 1_555
Cd1 Sr2 3.491319 1_555
Cd1 Sr2 3.491319 1_455
Cd1 Sr3 3.515779 1_565
Cd1 Sr3 3.638318 1_555
Cd1 Sr3 3.638318 1_455
Cd2 Ga0 2.902556 1_545
Cd2 Cd5 2.914980 1_555
Cd2 Cd5 2.914989 1_655
Cd2 Sr1 3.420685 1_545
Cd2 Sr1 3.420688 1_645
Cd2 Sr1 3.468205 1_655
Cd2 Sr4 3.588479 1_555
Cd2 Sr4 3.588479 1_655
Cd2 Sr5 3.689760 1_655
Cd3 Ga1 2.852933 1_545
Cd3 Cd6 2.913264 1_655
Cd3 Cd6 2.913268 1_555
Cd3 Sr2 3.413520 1_545
Cd3 Sr2 3.413525 1_445
Cd3 Sr2 3.478679 1_555
Cd3 Sr5 3.591150 1_655
Cd3 Sr5 3.591157 1_555
Cd3 Sr3 3.701483 1_555
Cd4 Ga2 2.889544 1_545
Cd4 Cd7 2.928145 1_455
Cd4 Cd7 2.928150 1_555
Cd4 Ga3 3.126137 1_546
Cd4 Sr0 3.389773 1_445
Cd4 Sr0 3.389776 1_545
Cd4 Sr0 3.513341 1_555
Cd4 Sr4 3.619779 1_556
Cd4 Sr3 3.624868 1_455
Cd4 Sr3 3.624868 1_555
Cd5 Ga1 3.078771 1_545
Cd5 Sr5 3.413810 1_655
Cd5 Sr5 3.413817 1_555
Cd5 Sr4 3.547821 1_555
Cd5 Sr1 3.565142 1_545
Cd5 Sr1 3.666803 1_655
Cd5 Sr1 3.666806 1_555
Cd6 Ga2 3.084237 1_545
Cd6 Sr3 3.423612 1_455
Cd6 Sr3 3.423612 1_555
Cd6 Sr2 3.541334 1_445
Cd6 Sr5 3.546895 1_555
Cd6 Sr2 3.670038 1_455
Cd6 Sr2 3.670038 1_555
Cd7 Ga3 2.959623 1_656
Cd7 Ga0 3.130667 1_546
Cd7 Sr4 3.392483 1_656
Cd7 Sr4 3.392490 1_556
Cd7 Sr3 3.537474 1_555
Cd7 Sr0 3.588337 1_545
Cd7 Sr0 3.615502 1_555
Cd7 Sr0 3.615502 1_655
Ga0 Ga3 2.807841 1_655
Ga0 Ga3 2.807841 1_555
Ga0 Sr4 3.431252 1_555
Ga0 Sr4 3.448559 1_665
Ga0 Sr4 3.448565 1_565
Ga0 Sr0 3.495941 1_554
Ga0 Sr1 3.638284 1_655
Ga0 Sr1 3.638287 1_555
Ga1 Sr5 3.420339 1_665
Ga1 Sr5 3.420342 1_565
Ga1 Sr5 3.470609 1_555
Ga1 Sr1 3.631400 1_555
Ga1 Sr2 3.649568 1_555
Ga1 Sr2 3.649568 1_455
Ga2 Sr3 3.419977 1_465
Ga2 Sr3 3.419978 1_565
Ga2 Sr3 3.471633 1_455
Ga2 Sr2 3.606466 1_455
Ga2 Sr0 3.672154 1_455
Ga2 Sr0 3.672157 1_555
Ga3 Sr1 3.419620 1_555
Ga3 Sr0 3.439716 1_554
Ga3 Sr0 3.439716 1_454
Ga3 Sr4 3.478758 1_565
Ga3 Sr4 3.662806 1_555
Ga3 Sr4 3.662813 1_455
