# generated using pymatgen
data_SrMg
_symmetry_space_group_name_H-M   'P 1'
_cell_length_a   19.46076947
_cell_length_b   19.46076947
_cell_length_c   12.01225000
_cell_angle_alpha   90.00000000
_cell_angle_beta   90.00000000
_cell_angle_gamma   156.42026283
_symmetry_Int_Tables_number   1
_chemical_formula_structural   SrMg
_chemical_formula_sum   'Sr24 Mg24'
_cell_volume   1819.83259470
_cell_formula_units_Z   24
loop_
 _symmetry_equiv_pos_site_id
 _symmetry_equiv_pos_as_xyz
  1  'x, y, z'
loop_
 _atom_site_type_symbol
 _atom_site_label
 _atom_site_symmetry_multiplicity
 _atom_site_fract_x
 _atom_site_fract_y
 _atom_site_fract_z
 _atom_site_occupancy
  Sr  Sr0_0  1  0.49017600  0.00982400  0.00000000  1
  Sr  Sr0_1  1  0.49017600  0.00982400  0.50000000  1
  Sr  Sr0_2  1  0.49017600  0.50982400  0.00000000  1
  Sr  Sr0_3  1  0.49017600  0.50982400  0.50000000  1
  Sr  Sr0_4  1  0.99017600  0.00982400  0.00000000  1
  Sr  Sr0_5  1  0.99017600  0.00982400  0.50000000  1
  Sr  Sr0_6  1  0.99017600  0.50982400  0.00000000  1
  Sr  Sr0_7  1  0.99017600  0.50982400  0.50000000  1
  Sr  Sr1_0  1  0.34206750  0.15793250  0.00000000  1
  Sr  Sr1_1  1  0.34206750  0.15793250  0.50000000  1
  Sr  Sr1_2  1  0.34206750  0.65793250  0.00000000  1
  Sr  Sr1_3  1  0.34206750  0.65793250  0.50000000  1
  Sr  Sr1_4  1  0.84206750  0.15793250  0.00000000  1
  Sr  Sr1_5  1  0.84206750  0.15793250  0.50000000  1
  Sr  Sr1_6  1  0.84206750  0.65793250  0.00000000  1
  Sr  Sr1_7  1  0.84206750  0.65793250  0.50000000  1
  Sr  Sr2_0  1  0.05493350  0.44506650  0.25000000  1
  Sr  Sr2_1  1  0.05493350  0.44506650  0.75000000  1
  Sr  Sr2_2  1  0.05493350  0.94506650  0.25000000  1
  Sr  Sr2_3  1  0.05493350  0.94506650  0.75000000  1
  Sr  Sr2_4  1  0.55493350  0.44506650  0.25000000  1
  Sr  Sr2_5  1  0.55493350  0.44506650  0.75000000  1
  Sr  Sr2_6  1  0.55493350  0.94506650  0.25000000  1
  Sr  Sr2_7  1  0.55493350  0.94506650  0.75000000  1
  Mg  Mg0_0  1  0.16675000  0.33325000  0.00000000  1
  Mg  Mg0_1  1  0.16675000  0.33325000  0.50000000  1
  Mg  Mg0_2  1  0.16675000  0.83325000  0.00000000  1
  Mg  Mg0_3  1  0.16675000  0.83325000  0.50000000  1
  Mg  Mg0_4  1  0.66675000  0.33325000  0.00000000  1
  Mg  Mg0_5  1  0.66675000  0.33325000  0.50000000  1
  Mg  Mg0_6  1  0.66675000  0.83325000  0.00000000  1
  Mg  Mg0_7  1  0.66675000  0.83325000  0.50000000  1
  Mg  Mg1_0  1  0.21634000  0.28366000  0.25000000  1
  Mg  Mg1_1  1  0.21634000  0.28366000  0.75000000  1
  Mg  Mg1_2  1  0.21634000  0.78366000  0.25000000  1
  Mg  Mg1_3  1  0.21634000  0.78366000  0.75000000  1
  Mg  Mg1_4  1  0.71634000  0.28366000  0.25000000  1
  Mg  Mg1_5  1  0.71634000  0.28366000  0.75000000  1
  Mg  Mg1_6  1  0.71634000  0.78366000  0.25000000  1
  Mg  Mg1_7  1  0.71634000  0.78366000  0.75000000  1
  Mg  Mg2_0  1  0.39640000  0.10360000  0.25000000  1
  Mg  Mg2_1  1  0.39640000  0.10360000  0.75000000  1
  Mg  Mg2_2  1  0.39640000  0.60360000  0.25000000  1
  Mg  Mg2_3  1  0.39640000  0.60360000  0.75000000  1
  Mg  Mg2_4  1  0.89640000  0.10360000  0.25000000  1
  Mg  Mg2_5  1  0.89640000  0.10360000  0.75000000  1
  Mg  Mg2_6  1  0.89640000  0.60360000  0.25000000  1
  Mg  Mg2_7  1  0.89640000  0.60360000  0.75000000  1
loop_
_geom_bond_atom_site_label_1
_geom_bond_atom_site_label_2
_geom_bond_distance
_geom_bond_site_symmetry_2
Sr0_0 Sr2_6 3.886631 1_545
Sr0_0 Sr2_7 3.886631 1_544
Sr0_1 Sr2_7 3.886631 1_545
Sr0_1 Sr2_6 3.886631 1_545
Sr0_2 Sr2_4 3.886631 1_555
Sr0_2 Sr2_5 3.886631 1_554
Sr0_3 Sr2_5 3.886631 1_555
Sr0_3 Sr2_4 3.886631 1_555
Sr0_4 Sr2_2 3.886631 1_645
Sr0_4 Sr2_3 3.886631 1_644
Sr0_5 Sr2_2 3.886631 1_645
Sr0_5 Sr2_3 3.886631 1_645
Sr0_6 Sr2_0 3.886631 1_655
Sr0_6 Sr2_1 3.886631 1_654
Sr0_7 Sr2_0 3.886631 1_655
Sr0_7 Sr2_1 3.886631 1_655
Sr1_0 Sr2_2 3.869471 1_545
Sr1_0 Sr2_3 3.869471 1_544
Sr1_0 Sr2_5 3.869471 1_554
Sr1_0 Sr2_4 3.869471 1_555
Sr1_1 Sr2_3 3.869471 1_545
Sr1_1 Sr2_2 3.869471 1_545
Sr1_1 Sr2_5 3.869471 1_555
Sr1_1 Sr2_4 3.869471 1_555
Sr1_2 Sr2_0 3.869471 1_555
Sr1_2 Sr2_1 3.869471 1_554
Sr1_2 Sr2_7 3.869471 1_554
Sr1_2 Sr2_6 3.869471 1_555
Sr1_3 Sr2_0 3.869471 1_555
Sr1_3 Sr2_1 3.869471 1_555
Sr1_3 Sr2_7 3.869471 1_555
Sr1_3 Sr2_6 3.869471 1_555
Sr1_4 Sr2_1 3.869471 1_654
Sr1_4 Sr2_0 3.869471 1_655
Sr1_4 Sr2_6 3.869471 1_545
Sr1_4 Sr2_7 3.869471 1_544
Sr1_5 Sr2_1 3.869471 1_655
Sr1_5 Sr2_0 3.869471 1_655
Sr1_5 Sr2_6 3.869471 1_545
Sr1_5 Sr2_7 3.869471 1_545
Sr1_6 Sr2_3 3.869471 1_654
Sr1_6 Sr2_2 3.869471 1_655
Sr1_6 Sr2_5 3.869471 1_554
Sr1_6 Sr2_4 3.869471 1_555
Sr1_7 Sr2_3 3.869471 1_655
Sr1_7 Sr2_2 3.869471 1_655
Sr1_7 Sr2_5 3.869471 1_555
Sr1_7 Sr2_4 3.869471 1_555
Sr2_0 Sr2_6 3.976282 1_445
Sr2_0 Sr2_6 3.976282 1_555
Sr2_1 Sr2_7 3.976282 1_445
Sr2_1 Sr2_7 3.976282 1_555
Sr2_2 Sr2_4 3.976282 1_455
Sr2_2 Sr2_4 3.976282 1_565
Sr2_3 Sr2_5 3.976282 1_565
Sr2_3 Sr2_5 3.976282 1_455
Mg0_0 Sr0_4 3.432063 1_455
Mg0_0 Sr0_2 3.432063 1_555
Mg0_0 Sr1_2 3.471197 1_555
Mg0_0 Sr1_4 3.471197 1_455
Mg0_1 Sr0_5 3.432063 1_455
Mg0_1 Sr0_3 3.432063 1_555
Mg0_1 Sr1_3 3.471197 1_555
Mg0_1 Sr1_5 3.471197 1_455
Mg0_2 Sr0_6 3.432063 1_455
Mg0_2 Sr0_0 3.432063 1_565
Mg0_2 Sr1_0 3.471197 1_565
Mg0_2 Sr1_6 3.471197 1_455
Mg0_3 Sr0_7 3.432063 1_455
Mg0_3 Sr0_1 3.432063 1_565
Mg0_3 Sr1_1 3.471197 1_565
Mg0_3 Sr1_7 3.471197 1_455
Mg0_4 Sr0_6 3.432063 1_555
Mg0_4 Sr0_0 3.432063 1_555
Mg0_4 Sr1_6 3.471197 1_555
Mg0_4 Sr1_0 3.471197 1_555
Mg0_5 Sr0_7 3.432063 1_555
Mg0_5 Sr0_1 3.432063 1_555
Mg0_5 Sr1_7 3.471197 1_555
Mg0_5 Sr1_1 3.471197 1_555
Mg0_6 Sr0_4 3.432063 1_565
Mg0_6 Sr0_2 3.432063 1_555
Mg0_6 Sr1_4 3.471197 1_565
Mg0_6 Sr1_2 3.471197 1_555
Mg0_7 Sr0_5 3.432063 1_565
Mg0_7 Sr0_3 3.432063 1_555
Mg0_7 Sr1_5 3.471197 1_565
Mg0_7 Sr1_3 3.471197 1_555
Mg1_0 Mg2_4 3.324690 1_455
Mg1_0 Mg2_2 3.324690 1_555
Mg1_0 Sr0_2 3.714276 1_555
Mg1_0 Sr0_4 3.714276 1_455
Mg1_0 Sr0_3 3.714276 1_555
Mg1_0 Sr0_5 3.714276 1_455
Mg1_0 Sr2_4 3.917445 1_555
Mg1_0 Sr2_2 3.917445 1_545
Mg1_1 Mg2_5 3.324690 1_455
Mg1_1 Mg2_3 3.324690 1_555
Mg1_1 Sr0_2 3.714276 1_556
Mg1_1 Sr0_4 3.714276 1_456
Mg1_1 Sr0_3 3.714276 1_555
Mg1_1 Sr0_5 3.714276 1_455
Mg1_1 Sr2_5 3.917445 1_555
Mg1_1 Sr2_3 3.917445 1_545
Mg1_2 Mg2_6 3.324690 1_455
Mg1_2 Mg2_0 3.324690 1_565
Mg1_2 Sr0_6 3.714276 1_455
Mg1_2 Sr0_7 3.714276 1_455
Mg1_2 Sr0_0 3.714276 1_565
Mg1_2 Sr0_1 3.714276 1_565
Mg1_2 Sr2_6 3.917445 1_555
Mg1_2 Sr2_0 3.917445 1_555
Mg1_3 Mg2_7 3.324690 1_455
Mg1_3 Mg2_1 3.324690 1_565
Mg1_3 Sr0_7 3.714276 1_455
Mg1_3 Sr0_6 3.714276 1_456
Mg1_3 Sr0_0 3.714276 1_566
Mg1_3 Sr0_1 3.714276 1_565
Mg1_3 Sr2_7 3.917445 1_555
Mg1_3 Sr2_1 3.917445 1_555
Mg1_4 Mg2_0 3.324690 1_555
Mg1_4 Mg2_6 3.324690 1_555
Mg1_4 Sr0_0 3.714276 1_555
Mg1_4 Sr0_1 3.714276 1_555
Mg1_4 Sr0_7 3.714276 1_555
Mg1_4 Sr0_6 3.714276 1_555
Mg1_4 Sr2_0 3.917445 1_655
Mg1_4 Sr2_6 3.917445 1_545
Mg1_5 Mg2_1 3.324690 1_555
Mg1_5 Mg2_7 3.324690 1_555
Mg1_5 Sr0_0 3.714276 1_556
Mg1_5 Sr0_1 3.714276 1_555
Mg1_5 Sr0_7 3.714276 1_555
Mg1_5 Sr0_6 3.714276 1_556
Mg1_5 Sr2_1 3.917445 1_655
Mg1_5 Sr2_7 3.917445 1_545
Mg1_6 Mg2_2 3.324690 1_555
Mg1_6 Mg2_4 3.324690 1_565
Mg1_6 Sr0_4 3.714276 1_565
Mg1_6 Sr0_5 3.714276 1_565
Mg1_6 Sr0_3 3.714276 1_555
Mg1_6 Sr0_2 3.714276 1_555
Mg1_6 Sr2_2 3.917445 1_655
Mg1_6 Sr2_4 3.917445 1_555
Mg1_7 Mg2_3 3.324690 1_555
Mg1_7 Mg2_5 3.324690 1_565
Mg1_7 Sr0_4 3.714276 1_566
Mg1_7 Sr0_5 3.714276 1_565
Mg1_7 Sr0_3 3.714276 1_555
Mg1_7 Sr0_2 3.714276 1_556
Mg1_7 Sr2_3 3.917445 1_655
Mg1_7 Sr2_5 3.917445 1_555
Mg2_0 Sr1_1 3.647419 1_555
Mg2_0 Sr1_0 3.647419 1_555
Mg2_0 Sr2_2 4.012147 1_545
Mg2_0 Sr2_4 4.012147 1_555
Mg2_1 Sr1_1 3.647419 1_555
Mg2_1 Sr1_0 3.647419 1_556
Mg2_1 Sr2_5 4.012147 1_555
Mg2_1 Sr2_3 4.012147 1_545
Mg2_2 Sr1_3 3.647419 1_555
Mg2_2 Sr1_2 3.647419 1_555
Mg2_2 Sr2_6 4.012147 1_555
Mg2_2 Sr2_0 4.012147 1_555
Mg2_3 Sr1_3 3.647419 1_555
Mg2_3 Sr1_2 3.647419 1_556
Mg2_3 Sr2_1 4.012147 1_555
Mg2_3 Sr2_7 4.012147 1_555
Mg2_4 Sr1_5 3.647419 1_555
Mg2_4 Sr1_4 3.647419 1_555
Mg2_4 Sr2_0 4.012147 1_655
Mg2_4 Sr2_6 4.012147 1_545
Mg2_5 Sr1_5 3.647419 1_555
Mg2_5 Sr1_4 3.647419 1_556
Mg2_5 Sr2_1 4.012147 1_655
Mg2_5 Sr2_7 4.012147 1_545
Mg2_6 Sr1_6 3.647419 1_555
Mg2_6 Sr1_7 3.647419 1_555
Mg2_6 Sr2_2 4.012147 1_655
Mg2_6 Sr2_4 4.012147 1_555
Mg2_7 Sr1_6 3.647419 1_556
Mg2_7 Sr1_7 3.647419 1_555
Mg2_7 Sr2_3 4.012147 1_655
Mg2_7 Sr2_5 4.012147 1_555
