# generated using pymatgen
data_TbAl8Ni3
_symmetry_space_group_name_H-M   'P 1'
_cell_length_a   7.70736916
_cell_length_b   7.70736916
_cell_length_c   6.69751900
_cell_angle_alpha   90.00000000
_cell_angle_beta   90.00000000
_cell_angle_gamma   150.40356395
_symmetry_Int_Tables_number   1
_chemical_formula_structural   TbAl8Ni3
_chemical_formula_sum   'Tb1 Al8 Ni3'
_cell_volume   196.49638179
_cell_formula_units_Z   1
loop_
 _symmetry_equiv_pos_site_id
 _symmetry_equiv_pos_as_xyz
  1  'x, y, z'
loop_
 _atom_site_type_symbol
 _atom_site_label
 _atom_site_symmetry_multiplicity
 _atom_site_fract_x
 _atom_site_fract_y
 _atom_site_fract_z
 _atom_site_occupancy
  Tb  Tb0  1  0.12408900  0.87591100  0.00000000  1
  Al  Al0  1  0.06607900  0.93392100  0.50000000  1
  Al  Al1  1  0.92599300  0.07400700  0.00000000  1
  Al  Al2  1  0.69034700  0.30965300  0.30763300  1
  Al  Al3  1  0.31946200  0.68053800  0.20984900  1
  Al  Al4  1  0.69034700  0.30965300  0.69236700  1
  Al  Al5  1  0.31946200  0.68053800  0.79015100  1
  Al  Al6  1  0.49439500  0.50560500  0.27104700  1
  Al  Al7  1  0.49439500  0.50560500  0.72895300  1
  Ni  Ni0  1  0.22735300  0.77264700  0.50000000  1
  Ni  Ni1  1  0.76977100  0.23022900  0.00000000  1
  Ni  Ni2  1  0.87830800  0.12169200  0.50000000  1
loop_
_geom_bond_atom_site_label_1
_geom_bond_atom_site_label_2
_geom_bond_distance
_geom_bond_site_symmetry_2
Al0 Ni0 2.403539 1_555
Al0 Al7 2.714413 1_455
Al0 Al6 2.714413 1_565
Al0 Al7 2.714413 1_565
Al0 Al6 2.714413 1_455
Al0 Ni2 2.798436 1_465
Al0 Tb0 3.458560 1_556
Al0 Tb0 3.458560 1_555
Al1 Ni1 2.328247 1_555
Al1 Al7 2.865313 1_654
Al1 Al6 2.865313 1_655
Al1 Al7 2.865313 1_544
Al1 Al6 2.865313 1_545
Al1 Al5 2.893335 1_654
Al1 Al3 2.893335 1_655
Al1 Al5 2.893335 1_544
Al1 Al3 2.893335 1_545
Al1 Tb0 2.952314 1_645
Al2 Ni1 2.376191 1_555
Al2 Ni0 2.416489 1_655
Al2 Ni0 2.416489 1_545
Al2 Al3 2.829664 1_545
Al2 Al3 2.829664 1_655
Al2 Al6 2.930623 1_555
Al2 Tb0 3.015888 1_655
Al2 Tb0 3.015888 1_545
Al2 Ni2 3.083347 1_555
Al3 Ni0 2.379244 1_555
Al3 Ni1 2.529644 1_565
Al3 Ni1 2.529644 1_455
Al3 Al6 2.639128 1_555
Al3 Al5 2.810935 1_554
Al3 Ni2 2.901869 1_455
Al3 Ni2 2.901869 1_565
Al3 Tb0 3.233191 1_555
Al4 Ni1 2.376191 1_556
Al4 Ni0 2.416489 1_655
Al4 Ni0 2.416489 1_545
Al4 Al5 2.829664 1_545
Al4 Al5 2.829664 1_655
Al4 Al7 2.930623 1_555
Al4 Tb0 3.015888 1_656
Al4 Tb0 3.015888 1_546
Al4 Ni2 3.083347 1_555
Al5 Ni0 2.379244 1_555
Al5 Ni1 2.529644 1_456
Al5 Ni1 2.529644 1_566
Al5 Al7 2.639128 1_555
Al5 Ni2 2.901869 1_565
Al5 Ni2 2.901869 1_455
Al5 Tb0 3.233191 1_556
Al6 Ni2 3.036433 1_565
Al6 Ni2 3.036433 1_455
Al6 Al7 3.066834 1_555
Al6 Tb0 3.302551 1_545
Al6 Tb0 3.302551 1_655
Al7 Ni2 3.036433 1_565
Al7 Ni2 3.036433 1_455
Al7 Tb0 3.302551 1_546
Al7 Tb0 3.302551 1_656
Ni0 Ni2 2.989431 1_455
Ni0 Ni2 2.989431 1_565
Ni1 Tb0 2.930747 1_655
Ni1 Tb0 2.930747 1_545
