# generated using pymatgen
data_BaEuInBiO6
_symmetry_space_group_name_H-M   'P 1'
_cell_length_a   6.05683525
_cell_length_b   6.05465948
_cell_length_c   8.54326782
_cell_angle_alpha   89.97708503
_cell_angle_beta   90.03557508
_cell_angle_gamma   89.62965518
_symmetry_Int_Tables_number   1
_chemical_formula_structural   BaEuInBiO6
_chemical_formula_sum   'Ba2 Eu2 In2 Bi2 O12'
_cell_volume   313.29272726
_cell_formula_units_Z   2
loop_
 _symmetry_equiv_pos_site_id
 _symmetry_equiv_pos_as_xyz
  1  'x, y, z'
loop_
 _atom_site_type_symbol
 _atom_site_label
 _atom_site_symmetry_multiplicity
 _atom_site_fract_x
 _atom_site_fract_y
 _atom_site_fract_z
 _atom_site_occupancy
  Ba  Ba0  1  0.99345435  0.02455967  0.25022730  1
  Ba  Ba1  1  0.00654565  0.97544033  0.74977270  1
  Eu  Eu0  1  0.50489854  0.53244939  0.24974338  1
  Eu  Eu1  1  0.49510146  0.46755061  0.75025662  1
  In  In0  1  0.50000000  -0.00000000  -0.00000000  1
  In  In1  1  0.00000000  0.50000000  0.50000000  1
  Bi  Bi0  1  0.00000000  0.50000000  -0.00000000  1
  Bi  Bi1  1  0.50000000  -0.00000000  0.50000000  1
  O  O0  1  0.22476723  0.22393736  0.96065256  1
  O  O1  1  0.29922331  0.70392036  0.54009293  1
  O  O2  1  0.77523277  0.77606264  0.03934744  1
  O  O3  1  0.70077669  0.29607964  0.45990707  1
  O  O4  1  0.29502293  0.70136291  0.95943932  1
  O  O5  1  0.22481441  0.22490946  0.53925436  1
  O  O6  1  0.70497707  0.29863709  0.04056068  1
  O  O7  1  0.77518559  0.77509054  0.46074564  1
  O  O8  1  0.44045078  0.97497821  0.25098953  1
  O  O9  1  0.08946258  0.49371040  0.24957847  1
  O  O10  1  0.55954922  0.02502179  0.74901047  1
  O  O11  1  0.91053742  0.50628960  0.75042153  1
loop_
_geom_bond_atom_site_label_1
_geom_bond_atom_site_label_2
_geom_bond_distance
_geom_bond_site_symmetry_2
Ba0 O2 2.698404 1_545
Ba0 O7 2.700082 1_545
Ba0 O8 2.722050 1_645
Ba0 O9 2.903143 1_655
Ba0 O6 2.995240 1_555
Ba0 O3 3.003770 1_555
Ba0 O5 3.090689 1_655
Ba0 O0 3.092595 1_654
Ba0 O9 3.262599 1_645
Ba0 O8 3.364820 1_545
Ba1 O0 2.698404 1_565
Ba1 O5 2.700082 1_565
Ba1 O10 2.722050 1_465
Ba1 O11 2.903143 1_455
Ba1 O4 2.995240 1_555
Ba1 O1 3.003770 1_555
Ba1 O7 3.090689 1_455
Ba1 O2 3.092595 1_456
Ba1 O11 3.262599 1_465
Ba1 O10 3.364820 1_565
Eu0 O9 2.528644 1_555
Eu0 O6 2.578549 1_555
Eu0 O3 2.579306 1_555
Eu0 O8 2.705175 1_555
Eu0 O7 2.849108 1_555
Eu0 O2 2.849604 1_555
Eu0 O1 2.961748 1_555
Eu0 O4 2.964830 1_554
Eu1 O11 2.528644 1_555
Eu1 O4 2.578549 1_555
Eu1 O1 2.579306 1_555
Eu1 O10 2.705175 1_555
Eu1 O5 2.849108 1_555
Eu1 O0 2.849604 1_555
Eu1 O3 2.961748 1_555
Eu1 O6 2.964830 1_556
In0 O2 2.167974 1_545
In0 O0 2.167974 1_554
In0 O8 2.179988 1_545
In0 O10 2.179988 1_554
In0 O6 2.227063 1_555
In0 O4 2.227063 1_544
In1 O5 2.170350 1_555
In1 O7 2.170350 1_455
In1 O9 2.207580 1_555
In1 O11 2.207580 1_455
In1 O3 2.225943 1_455
In1 O1 2.225943 1_555
Bi0 O2 2.175258 1_455
Bi0 O0 2.175258 1_554
Bi0 O6 2.197296 1_455
Bi0 O4 2.197296 1_554
Bi0 O9 2.199918 1_555
Bi0 O11 2.199918 1_454
Bi1 O8 2.163037 1_545
Bi1 O10 2.163037 1_555
Bi1 O5 2.171777 1_555
Bi1 O7 2.171777 1_545
Bi1 O1 2.199544 1_545
Bi1 O3 2.199544 1_555
