# generated using pymatgen
data_MnCrTe2
_symmetry_space_group_name_H-M   'P 1'
_cell_length_a   4.17529292
_cell_length_b   4.17529292
_cell_length_c   5.90038400
_cell_angle_alpha   90.00000000
_cell_angle_beta   90.00000000
_cell_angle_gamma   120.00001454
_symmetry_Int_Tables_number   1
_chemical_formula_structural   MnCrTe2
_chemical_formula_sum   'Mn1 Cr1 Te2'
_cell_volume   89.08093000
_cell_formula_units_Z   1
loop_
 _symmetry_equiv_pos_site_id
 _symmetry_equiv_pos_as_xyz
  1  'x, y, z'
loop_
 _atom_site_type_symbol
 _atom_site_label
 _atom_site_symmetry_multiplicity
 _atom_site_fract_x
 _atom_site_fract_y
 _atom_site_fract_z
 _atom_site_occupancy
  Mn  Mn0  1  0.00000000  0.00000000  0.00000000  1
  Cr  Cr0  1  0.00000000  0.00000000  0.50000000  1
  Te  Te0  1  0.33333300  0.66666700  0.25542300  1
  Te  Te1  1  0.66666700  0.33333300  0.74457700  1
loop_
_geom_bond_atom_site_label_1
_geom_bond_atom_site_label_2
_geom_bond_distance
_geom_bond_site_symmetry_2
Mn0 Te0 2.842946 1_545
Mn0 Te1 2.842946 1_454
Mn0 Te0 2.842949 1_555
Mn0 Te0 2.842949 1_445
Mn0 Te1 2.842949 1_444
Mn0 Te1 2.842949 1_554
Cr0 Te1 2.809545 1_455
Cr0 Te0 2.809545 1_545
Cr0 Te1 2.809548 1_555
Cr0 Te1 2.809548 1_445
Cr0 Te0 2.809548 1_445
Cr0 Te0 2.809548 1_555
Cr0 Mn0 2.950192 1_556
Cr0 Mn0 2.950192 1_555
