# generated using pymatgen
data_NaGaGeO4
_symmetry_space_group_name_H-M   'P 1'
_cell_length_a   8.46701600
_cell_length_b   8.97357600
_cell_length_c   18.20131948
_cell_angle_alpha   60.65550948
_cell_angle_beta   90.00000000
_cell_angle_gamma   90.00000000
_symmetry_Int_Tables_number   1
_chemical_formula_structural   NaGaGeO4
_chemical_formula_sum   'Na12 Ga12 Ge12 O48'
_cell_volume   1205.48098622
_cell_formula_units_Z   12
loop_
 _symmetry_equiv_pos_site_id
 _symmetry_equiv_pos_as_xyz
  1  'x, y, z'
loop_
 _atom_site_type_symbol
 _atom_site_label
 _atom_site_symmetry_multiplicity
 _atom_site_fract_x
 _atom_site_fract_y
 _atom_site_fract_z
 _atom_site_occupancy
  Na  Na0  1  0.02228400  0.78956300  0.93261800  1
  Na  Na1  1  0.97771600  0.21043700  0.06738200  1
  Na  Na2  1  0.52228500  0.21043700  0.56738200  1
  Na  Na3  1  0.47771600  0.78956300  0.43261800  1
  Na  Na4  1  0.97221700  0.49642000  0.75288700  1
  Na  Na5  1  0.02778300  0.50358000  0.24711300  1
  Na  Na6  1  0.47221700  0.50358000  0.74711300  1
  Na  Na7  1  0.52778300  0.49642000  0.25288700  1
  Na  Na8  1  0.45047500  0.85121000  0.90807900  1
  Na  Na9  1  0.54952500  0.14879000  0.09192100  1
  Na  Na10  1  0.95047500  0.14879000  0.59192100  1
  Na  Na11  1  0.04952500  0.85121000  0.40807900  1
  Ga  Ga0  1  0.28071100  0.46814700  0.92073600  1
  Ga  Ga1  1  0.71928900  0.53185300  0.07926400  1
  Ga  Ga2  1  0.78071100  0.53185300  0.57926400  1
  Ga  Ga3  1  0.21928900  0.46814700  0.42073600  1
  Ga  Ga4  1  0.27676800  0.84580800  0.59145000  1
  Ga  Ga5  1  0.72323200  0.15419200  0.40855000  1
  Ga  Ga6  1  0.77676800  0.15419200  0.90855000  1
  Ga  Ga7  1  0.22323200  0.84580800  0.09145000  1
  Ga  Ga8  1  0.78114100  0.81586200  0.76598300  1
  Ga  Ga9  1  0.21885900  0.18413800  0.23401700  1
  Ga  Ga10  1  0.28114100  0.18413800  0.73401700  1
  Ga  Ga11  1  0.71885900  0.81586200  0.26598300  1
  Ge  Ge0  1  0.16824900  0.81349500  0.76248200  1
  Ge  Ge1  1  0.83175100  0.18650500  0.23751800  1
  Ge  Ge2  1  0.66824900  0.18650500  0.73751800  1
  Ge  Ge3  1  0.33175100  0.81349500  0.26248200  1
  Ge  Ge4  1  0.16806900  0.52190400  0.57782800  1
  Ge  Ge5  1  0.83193100  0.47809600  0.42217200  1
  Ge  Ge6  1  0.66806900  0.47809600  0.92217200  1
  Ge  Ge7  1  0.33193100  0.52190400  0.07782800  1
  Ge  Ge8  1  0.66214000  0.85131200  0.59206500  1
  Ge  Ge9  1  0.33786000  0.14868800  0.40793500  1
  Ge  Ge10  1  0.16214000  0.14868800  0.90793500  1
  Ge  Ge11  1  0.83786000  0.85131200  0.09206500  1
  O  O0  1  0.27466600  0.61853400  0.80494800  1
  O  O1  1  0.72533400  0.38146600  0.19505200  1
  O  O2  1  0.77466600  0.38146600  0.69505200  1
  O  O3  1  0.22533400  0.61853400  0.30494800  1
  O  O4  1  0.14250800  0.28667900  0.95127400  1
  O  O5  1  0.85749200  0.71332100  0.04872600  1
  O  O6  1  0.64250800  0.71332100  0.54872600  1
  O  O7  1  0.35749200  0.28667900  0.45127400  1
  O  O8  1  0.98143100  0.62370500  0.54949700  1
  O  O9  1  0.01856900  0.37629500  0.45050300  1
  O  O10  1  0.48143100  0.37629500  0.95050300  1
  O  O11  1  0.51856900  0.62370500  0.04949700  1
  O  O12  1  0.98136300  0.75538800  0.81261000  1
  O  O13  1  0.01863700  0.24461200  0.18739000  1
  O  O14  1  0.48136300  0.24461200  0.68739000  1
  O  O15  1  0.51863700  0.75538800  0.31261000  1
  O  O16  1  0.25785400  0.94959900  0.79513500  1
  O  O17  1  0.74214600  0.05040100  0.20486500  1
  O  O18  1  0.75785400  0.05040100  0.70486500  1
  O  O19  1  0.24214600  0.94959900  0.29513500  1
  O  O20  1  0.26655900  0.61007400  0.63377100  1
  O  O21  1  0.73344100  0.38992600  0.36622900  1
  O  O22  1  0.76655900  0.38992600  0.86622900  1
  O  O23  1  0.23344100  0.61007400  0.13377100  1
  O  O24  1  0.23212400  0.58050400  0.98111800  1
  O  O25  1  0.76787600  0.41949600  0.01888200  1
  O  O26  1  0.73212400  0.41949600  0.51888200  1
  O  O27  1  0.26787600  0.58050400  0.48111800  1
  O  O28  1  0.76231600  0.73676600  0.68916500  1
  O  O29  1  0.23768400  0.26323400  0.31083500  1
  O  O30  1  0.26231600  0.26323400  0.81083500  1
  O  O31  1  0.73768400  0.73676600  0.18916500  1
  O  O32  1  0.14233300  0.90914600  0.65220900  1
  O  O33  1  0.85766700  0.09085400  0.34779100  1
  O  O34  1  0.64233300  0.09085400  0.84779100  1
  O  O35  1  0.35766700  0.90914600  0.15220900  1
  O  O36  1  0.25869300  0.95264000  0.97601100  1
  O  O37  1  0.74130700  0.04736000  0.02398900  1
  O  O38  1  0.75869300  0.04736000  0.52398900  1
  O  O39  1  0.24130700  0.95264000  0.47601100  1
  O  O40  1  0.47359000  0.90869700  0.61216600  1
  O  O41  1  0.52641000  0.09130300  0.38783400  1
  O  O42  1  0.97359000  0.09130300  0.88783400  1
  O  O43  1  0.02641000  0.90869700  0.11216600  1
  O  O44  1  0.14797400  0.29777300  0.64197300  1
  O  O45  1  0.85202600  0.70222700  0.35802700  1
  O  O46  1  0.64797400  0.70222700  0.85802700  1
  O  O47  1  0.35202600  0.29777300  0.14197300  1
loop_
_geom_bond_atom_site_label_1
_geom_bond_atom_site_label_2
_geom_bond_distance
_geom_bond_site_symmetry_2
Na0 O5 2.337507 1_456
Na0 O12 2.375253 1_455
Na0 O24 2.415006 1_555
Na0 O42 2.450052 1_465
Na0 O36 2.811552 1_555
Na0 O16 2.963168 1_555
Na1 O4 2.337507 1_654
Na1 O13 2.375253 1_655
Na1 O25 2.415006 1_555
Na1 O43 2.450052 1_645
Na1 O37 2.811552 1_555
Na1 O17 2.963168 1_555
Na2 O7 2.337512 1_555
Na2 O14 2.375254 1_555
Na2 O26 2.415000 1_555
Na2 O40 2.450054 1_545
Na2 O38 2.811546 1_555
Na2 O18 2.963162 1_555
Na3 O6 2.337507 1_555
Na3 O15 2.375253 1_555
Na3 O27 2.415006 1_555
Na3 O41 2.450052 1_565
Na3 O39 2.811552 1_555
Na3 O19 2.963168 1_555
Na4 O2 2.456486 1_555
Na4 O22 2.503798 1_555
Na4 O28 2.589141 1_555
Na5 O3 2.456486 1_555
Na5 O23 2.503798 1_555
Na5 O29 2.589141 1_555
Na6 O0 2.456486 1_555
Na6 O20 2.503798 1_555
Na6 O30 2.589141 1_555
Na7 O1 2.456486 1_555
Na7 O21 2.503798 1_555
Na7 O31 2.589141 1_555
Na8 O16 2.426218 1_555
Na8 O11 2.444442 1_556
Na8 O36 2.469228 1_555
Na8 O34 2.480858 1_565
Na8 O46 2.570476 1_555
Na8 O24 2.814452 1_555
Na9 O17 2.426218 1_555
Na9 O10 2.444442 1_554
Na9 O37 2.469228 1_555
Na9 O35 2.480858 1_545
Na9 O47 2.570476 1_555
Na9 O25 2.814452 1_555
Na10 O18 2.426218 1_555
Na10 O9 2.444442 1_655
Na10 O38 2.469228 1_555
Na10 O32 2.480858 1_645
Na10 O44 2.570476 1_655
Na10 O26 2.814452 1_555
Na11 O19 2.426218 1_555
Na11 O8 2.444442 1_455
Na11 O39 2.469228 1_555
Na11 O33 2.480858 1_465
Na11 O45 2.570476 1_455
Na11 O27 2.814452 1_555
Ga0 O10 1.850276 1_555
Ga0 O4 1.855492 1_555
Ga0 O0 1.864883 1_555
Ga0 O24 1.865403 1_555
Ga1 O11 1.850276 1_555
Ga1 O5 1.855492 1_555
Ga1 O1 1.864883 1_555
Ga1 O25 1.865403 1_555
Ga2 O8 1.850276 1_555
Ga2 O6 1.855492 1_555
Ga2 O2 1.864883 1_555
Ga2 O26 1.865403 1_555
Ga3 O9 1.850276 1_555
Ga3 O7 1.855492 1_555
Ga3 O3 1.864883 1_555
Ga3 O27 1.865403 1_555
Ga4 O40 1.856453 1_555
Ga4 O39 1.857348 1_555
Ga4 O32 1.859502 1_555
Ga4 O20 1.865094 1_555
Ga5 O41 1.856453 1_555
Ga5 O38 1.857348 1_555
Ga5 O33 1.859502 1_555
Ga5 O21 1.865094 1_555
Ga6 O42 1.856453 1_555
Ga6 O37 1.857348 1_556
Ga6 O34 1.859502 1_555
Ga6 O22 1.865094 1_555
Ga7 O43 1.856453 1_555
Ga7 O36 1.857348 1_554
Ga7 O35 1.859502 1_555
Ga7 O23 1.865094 1_555
Ga8 O18 1.846946 1_565
Ga8 O12 1.854003 1_555
Ga8 O46 1.855654 1_555
Ga8 O28 1.859243 1_555
Ga9 O19 1.846946 1_545
Ga9 O13 1.854003 1_555
Ga9 O47 1.855654 1_555
Ga9 O29 1.859243 1_555
Ga10 O16 1.846946 1_545
Ga10 O14 1.854003 1_555
Ga10 O44 1.855654 1_555
Ga10 O30 1.859243 1_555
Ga11 O17 1.846946 1_565
Ga11 O15 1.854003 1_555
Ga11 O45 1.855654 1_555
Ga11 O31 1.859243 1_555
Ge0 O32 1.767731 1_555
Ge0 O16 1.769731 1_555
Ge0 O12 1.772554 1_455
Ge0 O0 1.773321 1_555
Ge1 O33 1.767731 1_555
Ge1 O17 1.769731 1_555
Ge1 O13 1.772554 1_655
Ge1 O1 1.773321 1_555
Ge2 O34 1.767731 1_555
Ge2 O18 1.769731 1_555
Ge2 O14 1.772554 1_555
Ge2 O2 1.773321 1_555
Ge3 O35 1.767731 1_555
Ge3 O19 1.769731 1_555
Ge3 O15 1.772554 1_555
Ge3 O3 1.773321 1_555
Ge4 O44 1.770793 1_555
Ge4 O8 1.770866 1_455
Ge4 O20 1.774213 1_555
Ge4 O27 1.783791 1_555
Ge5 O45 1.770793 1_555
Ge5 O9 1.770866 1_655
Ge5 O21 1.774213 1_555
Ge5 O26 1.783791 1_555
Ge6 O46 1.770793 1_555
Ge6 O10 1.770866 1_555
Ge6 O22 1.774213 1_555
Ge6 O25 1.783791 1_556
Ge7 O47 1.770793 1_555
Ge7 O11 1.770866 1_555
Ge7 O23 1.774213 1_555
Ge7 O24 1.783791 1_554
Ge8 O28 1.766064 1_555
Ge8 O40 1.769846 1_555
Ge8 O6 1.772163 1_555
Ge8 O38 1.778229 1_565
Ge9 O29 1.766064 1_555
Ge9 O41 1.769846 1_555
Ge9 O7 1.772163 1_555
Ge9 O39 1.778229 1_545
Ge10 O30 1.766064 1_555
Ge10 O42 1.769846 1_455
Ge10 O4 1.772163 1_555
Ge10 O36 1.778229 1_545
Ge11 O31 1.766064 1_555
Ge11 O43 1.769846 1_655
Ge11 O5 1.772163 1_555
Ge11 O37 1.778229 1_565
