# generated using pymatgen
data_Zn2NCl
_symmetry_space_group_name_H-M   'P 1'
_cell_length_a   5.92856457
_cell_length_b   6.12541829
_cell_length_c   7.33315260
_cell_angle_alpha   90.00000000
_cell_angle_beta   90.00000000
_cell_angle_gamma   90.00000000
_symmetry_Int_Tables_number   1
_chemical_formula_structural   Zn2NCl
_chemical_formula_sum   'Zn8 N4 Cl4'
_cell_volume   266.30298092
_cell_formula_units_Z   4
loop_
 _symmetry_equiv_pos_site_id
 _symmetry_equiv_pos_as_xyz
  1  'x, y, z'
loop_
 _atom_site_type_symbol
 _atom_site_label
 _atom_site_symmetry_multiplicity
 _atom_site_fract_x
 _atom_site_fract_y
 _atom_site_fract_z
 _atom_site_occupancy
  Zn  Zn0  1  0.84989243  0.38033086  0.32498141  1
  Zn  Zn1  1  0.34989243  0.61966914  0.67501859  1
  Zn  Zn2  1  0.34989243  0.11966914  0.82498141  1
  Zn  Zn3  1  0.84989243  0.88033086  0.17501859  1
  Zn  Zn4  1  0.70064629  0.47107129  0.94939243  1
  Zn  Zn5  1  0.20064629  0.52892871  0.05060757  1
  Zn  Zn6  1  0.20064629  0.02892871  0.44939243  1
  Zn  Zn7  1  0.70064629  0.97107129  0.55060757  1
  N  N0  1  0.90193011  0.57838113  0.12708890  1
  N  N1  1  0.40193011  0.42161887  0.87291110  1
  N  N2  1  0.40193011  0.92161887  0.62708890  1
  N  N3  1  0.90193011  0.07838113  0.37291110  1
  Cl  Cl0  1  0.40341117  0.41671797  0.37882448  1
  Cl  Cl1  1  0.90341117  0.58328203  0.62117552  1
  Cl  Cl2  1  0.90341117  0.08328203  0.87882448  1
  Cl  Cl3  1  0.40341117  0.91671797  0.12117552  1
loop_
_geom_bond_atom_site_label_1
_geom_bond_atom_site_label_2
_geom_bond_distance
_geom_bond_site_symmetry_2
N0 Zn5 1.882180 1_655
N0 Zn4 1.885231 1_554
N0 Zn3 1.907778 1_555
N0 Zn0 1.916455 1_555
N1 Zn4 1.882180 1_555
N1 Zn5 1.885231 1_556
N1 Zn2 1.907778 1_555
N1 Zn1 1.916455 1_555
N2 Zn7 1.882180 1_555
N2 Zn6 1.885231 1_565
N2 Zn1 1.907778 1_555
N2 Zn2 1.916455 1_565
N3 Zn6 1.882180 1_655
N3 Zn7 1.885231 1_545
N3 Zn0 1.907778 1_555
N3 Zn3 1.916455 1_545
Cl0 Zn1 2.522670 1_555
Cl0 Zn0 2.685544 1_555
Cl0 Zn6 2.712054 1_555
Cl0 Zn5 2.776776 1_555
Cl1 Zn0 2.522670 1_555
Cl1 Zn1 2.685544 1_655
Cl1 Zn7 2.712054 1_555
Cl1 Zn4 2.776776 1_555
Cl2 Zn3 2.522670 1_546
Cl2 Zn2 2.685544 1_655
Cl2 Zn4 2.712054 1_555
Cl2 Zn7 2.776776 1_545
Cl3 Zn2 2.522670 1_564
Cl3 Zn3 2.685544 1_555
Cl3 Zn5 2.712054 1_555
Cl3 Zn6 2.776776 1_565
