# generated using pymatgen
data_Ba2TiS4
_symmetry_space_group_name_H-M   'P 1'
_cell_length_a   6.89765161
_cell_length_b   9.13600131
_cell_length_c   12.51315810
_cell_angle_alpha   90.00000000
_cell_angle_beta   90.00000000
_cell_angle_gamma   90.00000000
_symmetry_Int_Tables_number   1
_chemical_formula_structural   Ba2TiS4
_chemical_formula_sum   'Ba8 Ti4 S16'
_cell_volume   788.54111020
_cell_formula_units_Z   4
loop_
 _symmetry_equiv_pos_site_id
 _symmetry_equiv_pos_as_xyz
  1  'x, y, z'
loop_
 _atom_site_type_symbol
 _atom_site_label
 _atom_site_symmetry_multiplicity
 _atom_site_fract_x
 _atom_site_fract_y
 _atom_site_fract_z
 _atom_site_occupancy
  Ba  Ba0  1  0.25000000  0.13218096  0.07871662  1
  Ba  Ba1  1  0.75000000  0.86781904  0.92128338  1
  Ba  Ba2  1  0.25000000  0.63218096  0.42128338  1
  Ba  Ba3  1  0.75000000  0.36781904  0.57871662  1
  Ba  Ba4  1  0.25000000  0.47678266  0.82569425  1
  Ba  Ba5  1  0.75000000  0.52321734  0.17430575  1
  Ba  Ba6  1  0.25000000  0.97678266  0.67430575  1
  Ba  Ba7  1  0.75000000  0.02321734  0.32569425  1
  Ti  Ti0  1  0.25000000  0.22731495  0.42621583  1
  Ti  Ti1  1  0.75000000  0.77268505  0.57378417  1
  Ti  Ti2  1  0.25000000  0.72731495  0.07378417  1
  Ti  Ti3  1  0.75000000  0.27268505  0.92621583  1
  S  S0  1  0.25000000  0.30799428  0.59665505  1
  S  S1  1  0.75000000  0.69200572  0.40334495  1
  S  S2  1  0.25000000  0.80799428  0.90334495  1
  S  S3  1  0.75000000  0.19200572  0.09665505  1
  S  S4  1  0.99198582  0.83100692  0.14983460  1
  S  S5  1  0.49198582  0.16899308  0.85016540  1
  S  S6  1  0.50801418  0.33100692  0.35016540  1
  S  S7  1  0.00801418  0.66899308  0.64983460  1
  S  S8  1  0.00801418  0.16899308  0.85016540  1
  S  S9  1  0.50801418  0.83100692  0.14983460  1
  S  S10  1  0.49198582  0.66899308  0.64983460  1
  S  S11  1  0.99198582  0.33100692  0.35016540  1
  S  S12  1  0.75000000  0.01816997  0.59099297  1
  S  S13  1  0.25000000  0.98183003  0.40900703  1
  S  S14  1  0.75000000  0.51816997  0.90900703  1
  S  S15  1  0.25000000  0.48183003  0.09099297  1
loop_
_geom_bond_atom_site_label_1
_geom_bond_atom_site_label_2
_geom_bond_distance
_geom_bond_site_symmetry_2
Ba0 S15 3.198086 1_555
Ba0 S8 3.328383 1_554
Ba0 S5 3.328383 1_554
Ba0 S9 3.395606 1_545
Ba0 S4 3.395606 1_445
Ba0 S3 3.499073 1_455
Ba0 S3 3.499073 1_555
Ba0 S2 3.686151 1_544
Ba1 S14 3.198086 1_555
Ba1 S9 3.328383 1_556
Ba1 S4 3.328383 1_556
Ba1 S5 3.395606 1_565
Ba1 S8 3.395606 1_665
Ba1 S2 3.499073 1_655
Ba1 S2 3.499073 1_555
Ba1 S3 3.686151 1_566
Ba2 S13 3.198086 1_555
Ba2 S10 3.328383 1_555
Ba2 S7 3.328383 1_555
Ba2 S6 3.395606 1_555
Ba2 S11 3.395606 1_455
Ba2 S1 3.499073 1_555
Ba2 S1 3.499073 1_455
Ba2 S0 3.686151 1_555
Ba3 S12 3.198086 1_555
Ba3 S11 3.328383 1_555
Ba3 S6 3.328383 1_555
Ba3 S10 3.395606 1_555
Ba3 S7 3.395606 1_655
Ba3 S0 3.499073 1_655
Ba3 S0 3.499073 1_555
Ba3 S1 3.686151 1_555
Ba4 S2 3.178126 1_555
Ba4 S0 3.254520 1_555
Ba4 S7 3.272939 1_555
Ba4 S10 3.272939 1_555
Ba4 S5 3.284346 1_555
Ba4 S8 3.284346 1_555
Ba4 S15 3.320045 1_556
Ba4 S14 3.622732 1_455
Ba4 S14 3.622732 1_555
Ba5 S3 3.178126 1_555
Ba5 S1 3.254520 1_555
Ba5 S11 3.272939 1_555
Ba5 S6 3.272939 1_555
Ba5 S9 3.284346 1_555
Ba5 S4 3.284346 1_555
Ba5 S14 3.320045 1_554
Ba5 S15 3.622732 1_655
Ba5 S15 3.622732 1_555
Ba6 S0 3.178126 1_565
Ba6 S2 3.254520 1_555
Ba6 S5 3.272939 1_565
Ba6 S8 3.272939 1_565
Ba6 S10 3.284346 1_555
Ba6 S7 3.284346 1_555
Ba6 S13 3.320045 1_555
Ba6 S12 3.622732 1_565
Ba6 S12 3.622732 1_465
Ba7 S1 3.178126 1_545
Ba7 S3 3.254520 1_555
Ba7 S4 3.272939 1_545
Ba7 S9 3.272939 1_545
Ba7 S11 3.284346 1_555
Ba7 S6 3.284346 1_555
Ba7 S12 3.320045 1_555
Ba7 S13 3.622732 1_645
Ba7 S13 3.622732 1_545
S0 Ti0 2.256512 1_555
S1 Ti1 2.256512 1_555
S2 Ti2 2.256512 1_556
S3 Ti3 2.256512 1_554
S4 Ti2 2.229426 1_655
S5 Ti3 2.229426 1_555
S6 Ti0 2.229426 1_555
S7 Ti1 2.229426 1_455
S8 Ti3 2.229426 1_455
S9 Ti2 2.229426 1_555
S10 Ti1 2.229426 1_555
S11 Ti0 2.229426 1_655
S12 Ti1 2.253065 1_545
S13 Ti0 2.253065 1_565
S14 Ti3 2.253065 1_555
S15 Ti2 2.253065 1_555
