# generated using pymatgen
data_CsTmSiS4
_symmetry_space_group_name_H-M   'P 1'
_cell_length_a   6.36107700
_cell_length_b   6.71532800
_cell_length_c   18.00699800
_cell_angle_alpha   90.00000000
_cell_angle_beta   90.00000000
_cell_angle_gamma   90.00000000
_symmetry_Int_Tables_number   1
_chemical_formula_structural   CsTmSiS4
_chemical_formula_sum   'Cs4 Tm4 Si4 S16'
_cell_volume   769.19986438
_cell_formula_units_Z   4
loop_
 _symmetry_equiv_pos_site_id
 _symmetry_equiv_pos_as_xyz
  1  'x, y, z'
loop_
 _atom_site_type_symbol
 _atom_site_label
 _atom_site_symmetry_multiplicity
 _atom_site_fract_x
 _atom_site_fract_y
 _atom_site_fract_z
 _atom_site_occupancy
  Cs  Cs0  1  0.50242900  0.49349300  0.96748600  1
  Cs  Cs1  1  0.99757100  0.50650600  0.46748600  1
  Cs  Cs2  1  0.00242900  0.00650700  0.03251400  1
  Cs  Cs3  1  0.49757100  0.99349400  0.53251400  1
  Tm  Tm0  1  0.29215100  0.47875000  0.22872600  1
  Tm  Tm1  1  0.20784900  0.52125000  0.72872600  1
  Tm  Tm2  1  0.79215100  0.02125000  0.77127400  1
  Tm  Tm3  1  0.70784900  0.97875000  0.27127400  1
  Si  Si0  1  0.79159700  0.51791600  0.17065900  1
  Si  Si1  1  0.70840300  0.48208400  0.67065900  1
  Si  Si2  1  0.29159700  0.98208400  0.82934100  1
  Si  Si3  1  0.20840300  0.01791600  0.32934100  1
  S  S0  1  0.05622500  0.51107400  0.09964900  1
  S  S1  1  0.44377500  0.48892600  0.59964900  1
  S  S2  1  0.55622500  0.98892600  0.90035100  1
  S  S3  1  0.94377500  0.01107400  0.40035100  1
  S  S4  1  0.60044400  0.41907600  0.77998400  1
  S  S5  1  0.89955600  0.58092400  0.27998400  1
  S  S6  1  0.10044400  0.08092400  0.22001600  1
  S  S7  1  0.39955600  0.91907600  0.72001600  1
  S  S8  1  0.56646900  0.74847700  0.15015500  1
  S  S9  1  0.93353100  0.25152300  0.65015500  1
  S  S10  1  0.06646900  0.75152300  0.84984500  1
  S  S11  1  0.43353100  0.24847700  0.34984500  1
  S  S12  1  0.60245400  0.25429100  0.16020700  1
  S  S13  1  0.89754600  0.74570900  0.66020700  1
  S  S14  1  0.10245400  0.24570900  0.83979300  1
  S  S15  1  0.39754600  0.75429100  0.33979300  1
loop_
_geom_bond_atom_site_label_1
_geom_bond_atom_site_label_2
_geom_bond_distance
_geom_bond_site_symmetry_2
Cs0 S4 3.469609 1_555
Cs0 S2 3.556323 1_555
Cs0 S2 3.613771 1_545
Cs0 S0 3.705918 1_556
Cs0 S8 3.730623 1_556
Cs0 S14 3.811711 1_555
Cs0 S12 3.876631 1_556
Cs0 S10 3.896203 1_555
Cs1 S5 3.469610 1_555
Cs1 S3 3.556317 1_555
Cs1 S3 3.613777 1_565
Cs1 S1 3.705918 1_655
Cs1 S9 3.730620 1_555
Cs1 S15 3.811714 1_655
Cs1 S13 3.876634 1_555
Cs1 S11 3.896200 1_655
Cs2 S6 3.469609 1_555
Cs2 S0 3.556323 1_545
Cs2 S0 3.613771 1_555
Cs2 S2 3.705918 1_444
Cs2 S10 3.730623 1_544
Cs2 S12 3.811711 1_455
Cs2 S14 3.876631 1_554
Cs2 S8 3.896203 1_445
Cs3 S7 3.469610 1_555
Cs3 S1 3.556317 1_565
Cs3 S1 3.613777 1_555
Cs3 S3 3.705918 1_565
Cs3 S11 3.730620 1_565
Cs3 S13 3.811714 1_555
Cs3 S15 3.876634 1_555
Cs3 S9 3.896200 1_565
S0 Si0 2.114400 1_455
S0 Tm0 2.775188 1_555
S1 Si1 2.114400 1_555
S1 Tm1 2.775188 1_555
S2 Si2 2.114400 1_555
S2 Tm2 2.775188 1_565
S3 Si3 2.114400 1_655
S3 Tm3 2.775188 1_545
S4 Si1 2.127459 1_555
S4 Tm1 2.749428 1_555
S4 Tm2 2.940880 1_555
S5 Si0 2.127459 1_555
S5 Tm0 2.749428 1_655
S5 Tm3 2.940880 1_555
S6 Si3 2.127459 1_555
S6 Tm3 2.749428 1_445
S6 Tm0 2.940880 1_555
S7 Si2 2.127459 1_555
S7 Tm2 2.749428 1_565
S7 Tm1 2.940880 1_555
S8 Si0 2.141102 1_555
S8 Tm3 2.820768 1_555
S8 Tm0 2.885731 1_555
S9 Si1 2.141102 1_555
S9 Tm2 2.820768 1_555
S9 Tm1 2.885731 1_655
S10 Si2 2.141102 1_555
S10 Tm1 2.820768 1_555
S10 Tm2 2.885731 1_465
S11 Si3 2.141102 1_555
S11 Tm0 2.820768 1_555
S11 Tm3 2.885731 1_545
S12 Si0 2.148735 1_555
S12 Tm0 2.773165 1_555
S12 Tm3 2.805921 1_545
S13 Si1 2.148735 1_555
S13 Tm1 2.773165 1_655
S13 Tm2 2.805921 1_565
S14 Si2 2.148735 1_545
S14 Tm2 2.773165 1_455
S14 Tm1 2.805921 1_555
S15 Si3 2.148735 1_565
S15 Tm3 2.773165 1_555
S15 Tm0 2.805921 1_555
