# generated using pymatgen
data_LiGaO10
_symmetry_space_group_name_H-M   'P 1'
_cell_length_a   5.75527574
_cell_length_b   5.75527574
_cell_length_c   23.61801949
_cell_angle_alpha   86.27082966
_cell_angle_beta   86.27082966
_cell_angle_gamma   62.42636865
_symmetry_Int_Tables_number   1
_chemical_formula_structural   LiGaO10
_chemical_formula_sum   'Li4 Ga4 O40'
_cell_volume   691.43949165
_cell_formula_units_Z   4
loop_
 _symmetry_equiv_pos_site_id
 _symmetry_equiv_pos_as_xyz
  1  'x, y, z'
loop_
 _atom_site_type_symbol
 _atom_site_label
 _atom_site_symmetry_multiplicity
 _atom_site_fract_x
 _atom_site_fract_y
 _atom_site_fract_z
 _atom_site_occupancy
  Li  Li0  1  0.35142400  0.26828400  0.38535700  1
  Li  Li1  1  0.26828400  0.35142400  0.88535700  1
  Li  Li2  1  0.37883100  0.39113500  0.62306500  1
  Li  Li3  1  0.39113500  0.37883100  0.12306500  1
  Ga  Ga0  1  0.98582700  0.10470800  0.46038500  1
  Ga  Ga1  1  0.10470800  0.98582700  0.96038500  1
  Ga  Ga2  1  0.94382300  0.96417800  0.20672800  1
  Ga  Ga3  1  0.96417800  0.94382300  0.70672800  1
  O  O0  1  0.60755700  0.68329100  0.56635800  1
  O  O1  1  0.68329100  0.60755700  0.06635800  1
  O  O2  1  0.73059000  0.63223700  0.52032600  1
  O  O3  1  0.63223700  0.73059000  0.02032600  1
  O  O4  1  0.95635100  0.95132400  0.58984300  1
  O  O5  1  0.95132400  0.95635100  0.08984300  1
  O  O6  1  0.01143700  0.28442000  0.20021400  1
  O  O7  1  0.54499000  0.15761700  0.23129100  1
  O  O8  1  0.20234400  0.70469200  0.23817600  1
  O  O9  1  0.28442000  0.01143700  0.70021400  1
  O  O10  1  0.15761700  0.54499000  0.73129100  1
  O  O11  1  0.70469200  0.20234400  0.73817600  1
  O  O12  1  0.31767600  0.11798800  0.46457800  1
  O  O13  1  0.60917500  0.28838300  0.48157500  1
  O  O14  1  0.09226900  0.72718500  0.45561300  1
  O  O15  1  0.11798800  0.31767600  0.96457800  1
  O  O16  1  0.28838300  0.60917500  0.98157500  1
  O  O17  1  0.72718500  0.09226900  0.95561300  1
  O  O18  1  0.45326400  0.18577100  0.50981600  1
  O  O19  1  0.18577100  0.45326400  0.00981600  1
  O  O20  1  0.30522700  0.09390900  0.64827500  1
  O  O21  1  0.77167800  0.17289400  0.60854700  1
  O  O22  1  0.05766800  0.75021200  0.63672300  1
  O  O23  1  0.09390900  0.30522700  0.14827500  1
  O  O24  1  0.17289400  0.77167800  0.10854700  1
  O  O25  1  0.75021200  0.05766800  0.13672300  1
  O  O26  1  0.68746300  0.62704500  0.28759900  1
  O  O27  1  0.62704500  0.68746300  0.78759900  1
  O  O28  1  0.94894000  0.08742000  0.34193000  1
  O  O29  1  0.08742000  0.94894000  0.84193000  1
  O  O30  1  0.01877000  0.23003400  0.38522800  1
  O  O31  1  0.75280000  0.04910500  0.35886400  1
  O  O32  1  0.22782800  0.64550500  0.40737600  1
  O  O33  1  0.23003400  0.01877000  0.88522800  1
  O  O34  1  0.04910500  0.75280000  0.85886400  1
  O  O35  1  0.64550500  0.22782800  0.90737600  1
  O  O36  1  0.60645300  0.67762700  0.33713800  1
  O  O37  1  0.67762700  0.60645300  0.83713800  1
  O  O38  1  0.41652000  0.22613300  0.27809400  1
  O  O39  1  0.22613300  0.41652000  0.77809400  1
loop_
_geom_bond_atom_site_label_1
_geom_bond_atom_site_label_2
_geom_bond_distance
_geom_bond_site_symmetry_2
Li0 O30 2.026046 1_555
Li0 O32 2.039311 1_555
Li0 O12 2.045600 1_555
Li0 O31 2.129778 1_555
Li0 O38 2.547423 1_555
Li1 O33 2.026046 1_555
Li1 O35 2.039311 1_555
Li1 O15 2.045600 1_555
Li1 O34 2.129778 1_555
Li1 O39 2.547423 1_555
Li2 O20 1.991413 1_555
Li2 O21 2.033026 1_555
Li2 O22 2.064991 1_555
Li3 O23 1.991413 1_555
Li3 O24 2.033026 1_555
Li3 O25 2.064991 1_555
Ga0 O30 1.903501 1_655
Ga0 O12 1.955511 1_655
Ga0 O13 1.968063 1_555
Ga0 O14 1.974704 1_645
Ga1 O33 1.903501 1_565
Ga1 O15 1.955511 1_565
Ga1 O16 1.968063 1_555
Ga1 O17 1.974704 1_465
Ga2 O8 1.714080 1_655
Ga2 O25 1.957979 1_565
Ga2 O6 2.047279 1_665
Ga2 O7 2.095192 1_565
Ga3 O11 1.714080 1_565
Ga3 O22 1.957979 1_655
Ga3 O9 2.047279 1_665
Ga3 O10 2.095192 1_655
O0 O2 1.232273 1_555
O1 O3 1.232273 1_555
O10 O39 1.266705 1_555
O12 O18 1.532048 1_555
O13 O18 1.400108 1_555
O14 O32 1.319885 1_555
O15 O19 1.532048 1_556
O16 O19 1.400108 1_556
O17 O35 1.319885 1_555
O20 O9 1.304679 1_555
O21 O4 1.307048 1_545
O22 O4 1.482595 1_455
O23 O6 1.304679 1_555
O24 O5 1.307048 1_455
O25 O5 1.482595 1_545
O26 O36 1.232374 1_555
O27 O37 1.232374 1_555
O28 O31 1.281839 1_555
O28 O30 1.532632 1_655
O29 O34 1.281839 1_555
O29 O33 1.532632 1_565
O38 O7 1.266705 1_555
