# generated using pymatgen
data_Ba5Tm2ZrAl2O13
_symmetry_space_group_name_H-M   'P 1'
_cell_length_a   6.00699365
_cell_length_b   6.00699365
_cell_length_c   25.06399500
_cell_angle_alpha   90.00000000
_cell_angle_beta   90.00000000
_cell_angle_gamma   119.99999614
_symmetry_Int_Tables_number   1
_chemical_formula_structural   Ba5Tm2ZrAl2O13
_chemical_formula_sum   'Ba10 Tm4 Zr2 Al4 O26'
_cell_volume   783.24077684
_cell_formula_units_Z   2
loop_
 _symmetry_equiv_pos_site_id
 _symmetry_equiv_pos_as_xyz
  1  'x, y, z'
loop_
 _atom_site_type_symbol
 _atom_site_label
 _atom_site_symmetry_multiplicity
 _atom_site_fract_x
 _atom_site_fract_y
 _atom_site_fract_z
 _atom_site_occupancy
  Ba  Ba0  1  0.33333300  0.66666700  0.54260900  1
  Ba  Ba1  1  0.66666700  0.33333300  0.45739100  1
  Ba  Ba2  1  0.66666700  0.33333300  0.04260900  1
  Ba  Ba3  1  0.33333300  0.66666700  0.95739100  1
  Ba  Ba4  1  0.00000000  0.00000000  0.13842400  1
  Ba  Ba5  1  0.00000000  0.00000000  0.86157600  1
  Ba  Ba6  1  0.00000000  0.00000000  0.63842400  1
  Ba  Ba7  1  0.00000000  0.00000000  0.36157600  1
  Ba  Ba8  1  0.33333300  0.66666700  0.25000000  1
  Ba  Ba9  1  0.66666700  0.33333300  0.75000000  1
  Tm  Tm0  1  0.33333300  0.66666700  0.10376900  1
  Tm  Tm1  1  0.66666700  0.33333300  0.89623100  1
  Tm  Tm2  1  0.66666700  0.33333300  0.60376900  1
  Tm  Tm3  1  0.33333300  0.66666700  0.39623100  1
  Zr  Zr0  1  0.00000000  0.00000000  0.00000000  1
  Zr  Zr1  1  0.00000000  0.00000000  0.50000000  1
  Al  Al0  1  0.33333300  0.66666700  0.68081100  1
  Al  Al1  1  0.66666700  0.33333300  0.31918900  1
  Al  Al2  1  0.66666700  0.33333300  0.18081100  1
  Al  Al3  1  0.33333300  0.66666700  0.81918900  1
  O  O0  1  0.50454200  0.00908400  0.15805700  1
  O  O1  1  0.49545800  0.99091600  0.84194300  1
  O  O2  1  0.99091600  0.49545800  0.15805700  1
  O  O3  1  0.49545800  0.99091600  0.65805700  1
  O  O4  1  0.00908400  0.50454200  0.84194300  1
  O  O5  1  0.50454200  0.00908400  0.34194300  1
  O  O6  1  0.50454200  0.49545800  0.15805700  1
  O  O7  1  0.00908400  0.50454200  0.65805700  1
  O  O8  1  0.49545800  0.50454200  0.84194300  1
  O  O9  1  0.99091600  0.49545800  0.34194300  1
  O  O10  1  0.49545800  0.50454200  0.65805700  1
  O  O11  1  0.50454200  0.49545800  0.34194300  1
  O  O12  1  0.16320900  0.32641900  0.05104500  1
  O  O13  1  0.83679100  0.67358100  0.94895500  1
  O  O14  1  0.67358100  0.83679100  0.05104500  1
  O  O15  1  0.83679100  0.67358100  0.55104500  1
  O  O16  1  0.32641900  0.16320900  0.94895500  1
  O  O17  1  0.16320900  0.32641900  0.44895500  1
  O  O18  1  0.16320900  0.83679100  0.05104500  1
  O  O19  1  0.32641900  0.16320900  0.55104500  1
  O  O20  1  0.83679100  0.16320900  0.94895500  1
  O  O21  1  0.67358100  0.83679100  0.44895500  1
  O  O22  1  0.83679100  0.16320900  0.55104500  1
  O  O23  1  0.16320900  0.83679100  0.44895500  1
  O  O24  1  0.33333300  0.66666700  0.75000000  1
  O  O25  1  0.66666700  0.33333300  0.25000000  1
loop_
_geom_bond_atom_site_label_1
_geom_bond_atom_site_label_2
_geom_bond_distance
_geom_bond_site_symmetry_2
Ba0 O23 2.939909 1_555
Ba0 O21 2.939909 1_555
Ba0 O17 2.939909 1_555
Ba0 O15 3.011139 1_455
Ba0 O19 3.011139 1_565
Ba0 O22 3.011145 1_565
Ba0 O22 3.011145 1_455
Ba0 O19 3.011151 1_555
Ba0 O15 3.011151 1_555
Ba0 O3 3.349356 1_555
Ba0 O7 3.349356 1_555
Ba0 O10 3.349358 1_555
Ba1 O22 2.939909 1_555
Ba1 O15 2.939909 1_555
Ba1 O19 2.939909 1_555
Ba1 O21 3.011139 1_545
Ba1 O17 3.011139 1_655
Ba1 O23 3.011145 1_655
Ba1 O23 3.011145 1_545
Ba1 O17 3.011151 1_555
Ba1 O21 3.011151 1_555
Ba1 O9 3.349356 1_555
Ba1 O5 3.349356 1_555
Ba1 O11 3.349358 1_555
Ba2 O20 2.939909 1_554
Ba2 O13 2.939909 1_554
Ba2 O16 2.939909 1_554
Ba2 O14 3.011139 1_545
Ba2 O12 3.011139 1_655
Ba2 O18 3.011145 1_655
Ba2 O18 3.011145 1_545
Ba2 O12 3.011151 1_555
Ba2 O14 3.011151 1_555
Ba2 O2 3.349356 1_555
Ba2 O0 3.349356 1_555
Ba2 O6 3.349358 1_555
Ba3 O18 2.939909 1_556
Ba3 O14 2.939909 1_556
Ba3 O12 2.939909 1_556
Ba3 O13 3.011139 1_455
Ba3 O16 3.011139 1_565
Ba3 O20 3.011145 1_565
Ba3 O20 3.011145 1_455
Ba3 O16 3.011151 1_555
Ba3 O13 3.011151 1_555
Ba3 O1 3.349356 1_555
Ba3 O4 3.349356 1_555
Ba3 O8 3.349358 1_555
Ba4 O18 2.771267 1_545
Ba4 O12 2.771270 1_555
Ba4 O14 2.771270 1_445
Ba4 O2 3.043907 1_455
Ba4 O0 3.043907 1_455
Ba4 O0 3.043907 1_555
Ba4 O2 3.043907 1_445
Ba4 O6 3.043907 1_555
Ba4 O6 3.043907 1_445
Ba5 O20 2.771267 1_455
Ba5 O16 2.771270 1_555
Ba5 O13 2.771270 1_445
Ba5 O1 3.043907 1_545
Ba5 O4 3.043907 1_545
Ba5 O4 3.043907 1_555
Ba5 O1 3.043907 1_445
Ba5 O8 3.043907 1_555
Ba5 O8 3.043907 1_445
Ba6 O22 2.771267 1_455
Ba6 O19 2.771270 1_555
Ba6 O15 2.771270 1_445
Ba6 O3 3.043907 1_545
Ba6 O7 3.043907 1_545
Ba6 O7 3.043907 1_555
Ba6 O3 3.043907 1_445
Ba6 O10 3.043907 1_555
Ba6 O10 3.043907 1_445
Ba7 O23 2.771267 1_545
Ba7 O17 2.771270 1_555
Ba7 O21 2.771270 1_445
Ba7 O9 3.043907 1_455
Ba7 O5 3.043907 1_455
Ba7 O5 3.043907 1_555
Ba7 O9 3.043907 1_445
Ba7 O11 3.043907 1_555
Ba7 O11 3.043907 1_445
Ba8 O5 2.912670 1_565
Ba8 O0 2.912670 1_565
Ba8 O2 2.912670 1_455
Ba8 O9 2.912670 1_455
Ba8 O6 2.912674 1_555
Ba8 O11 2.912674 1_555
Ba9 O7 2.912670 1_655
Ba9 O4 2.912670 1_655
Ba9 O1 2.912670 1_545
Ba9 O3 2.912670 1_545
Ba9 O10 2.912674 1_555
Ba9 O8 2.912674 1_555
Al0 O24 1.734153 1_555
Al0 O3 1.780613 1_555
Al0 O7 1.780613 1_555
Al0 O10 1.780617 1_555
Al1 O25 1.734153 1_555
Al1 O9 1.780613 1_555
Al1 O5 1.780613 1_555
Al1 O11 1.780617 1_555
Al2 O25 1.734153 1_555
Al2 O2 1.780613 1_555
Al2 O0 1.780613 1_555
Al2 O6 1.780617 1_555
Al3 O24 1.734153 1_555
Al3 O1 1.780613 1_555
Al3 O4 1.780613 1_555
Al3 O8 1.780617 1_555
O0 Tm0 2.241551 1_545
O1 Tm1 2.241551 1_565
O2 Tm0 2.241551 1_655
O3 Tm2 2.241551 1_565
O4 Tm1 2.241551 1_455
O5 Tm3 2.241551 1_545
O6 Tm0 2.241555 1_555
O7 Tm2 2.241551 1_455
O8 Tm1 2.241555 1_555
O9 Tm3 2.241551 1_655
O10 Tm2 2.241555 1_555
O11 Tm3 2.241555 1_555
O12 Zr0 2.126120 1_555
O12 Tm0 2.208923 1_555
O13 Zr0 2.126120 1_666
O13 Tm1 2.208923 1_555
O14 Zr0 2.126120 1_665
O14 Tm0 2.208923 1_555
O15 Zr1 2.126120 1_665
O15 Tm2 2.208923 1_555
O16 Zr0 2.126120 1_556
O16 Tm1 2.208923 1_555
O17 Zr1 2.126120 1_555
O17 Tm3 2.208923 1_555
O18 Zr0 2.126116 1_565
O18 Tm0 2.208923 1_555
O19 Zr1 2.126120 1_555
O19 Tm2 2.208923 1_555
O20 Zr0 2.126116 1_656
O20 Tm1 2.208923 1_555
O21 Zr1 2.126120 1_665
O21 Tm3 2.208923 1_555
O22 Zr1 2.126116 1_655
O22 Tm2 2.208923 1_555
O23 Zr1 2.126116 1_565
O23 Tm3 2.208923 1_555
