# generated using pymatgen
data_Li3Ti2Cu3O10
_symmetry_space_group_name_H-M   'P 1'
_cell_length_a   5.13238300
_cell_length_b   5.31639119
_cell_length_c   7.72914554
_cell_angle_alpha   108.38343655
_cell_angle_beta   98.14914350
_cell_angle_gamma   104.26350817
_symmetry_Int_Tables_number   1
_chemical_formula_structural   Li3Ti2Cu3O10
_chemical_formula_sum   'Li3 Ti2 Cu3 O10'
_cell_volume   188.36091072
_cell_formula_units_Z   1
loop_
 _symmetry_equiv_pos_site_id
 _symmetry_equiv_pos_as_xyz
  1  'x, y, z'
loop_
 _atom_site_type_symbol
 _atom_site_label
 _atom_site_symmetry_multiplicity
 _atom_site_fract_x
 _atom_site_fract_y
 _atom_site_fract_z
 _atom_site_occupancy
  Li  Li0  1  0.20752600  0.52532200  0.38501600  1
  Li  Li1  1  0.50000000  0.00000000  0.50000000  1
  Li  Li2  1  0.79247400  0.47467800  0.61498400  1
  Ti  Ti0  1  0.12338000  0.00880500  0.68963100  1
  Ti  Ti1  1  0.87662000  0.99119500  0.31036900  1
  Cu  Cu0  1  0.00000000  0.50000000  0.00000000  1
  Cu  Cu1  1  0.70353200  0.96707400  0.90843600  1
  Cu  Cu2  1  0.29646800  0.03292600  0.09156400  1
  O  O0  1  0.04725300  0.20771500  0.84370300  1
  O  O1  1  0.31523700  0.78325500  0.95201100  1
  O  O2  1  0.10025800  0.78336000  0.53180100  1
  O  O3  1  0.20207300  0.26616700  0.21213700  1
  O  O4  1  0.47072500  0.18843300  0.66386100  1
  O  O5  1  0.52927500  0.81156700  0.33613900  1
  O  O6  1  0.79792700  0.73383300  0.78786300  1
  O  O7  1  0.89974200  0.21664000  0.46819900  1
  O  O8  1  0.68476300  0.21674500  0.04798900  1
  O  O9  1  0.95274700  0.79228500  0.15629700  1
loop_
_geom_bond_atom_site_label_1
_geom_bond_atom_site_label_2
_geom_bond_distance
_geom_bond_site_symmetry_2
Li0 O3 1.579138 1_555
Li0 O2 1.743476 1_555
Li0 O5 2.118171 1_555
Li0 O7 2.297357 1_455
Li1 O4 1.399295 1_555
Li1 O5 1.399295 1_545
Li2 O6 1.579138 1_555
Li2 O7 1.743476 1_555
Li2 O4 2.118171 1_555
Li2 O2 2.297357 1_655
Cu0 O9 1.737101 1_455
Cu0 O0 1.737101 1_554
Cu0 O8 2.084422 1_455
Cu0 O1 2.084422 1_554
Cu1 O8 1.457387 1_566
Cu1 O6 1.528377 1_555
Cu1 O0 2.130956 1_665
Cu2 O1 1.457387 1_544
Cu2 O3 1.528377 1_555
Cu2 O9 2.130956 1_445
O0 Ti0 1.493399 1_555
O2 Ti0 1.380361 1_565
O4 Ti0 1.873882 1_555
O5 Ti1 1.873882 1_555
O7 Ti1 1.380361 1_545
O9 Ti1 1.493399 1_555
