# generated using pymatgen
data_Yb4Al
_symmetry_space_group_name_H-M   'P 1'
_cell_length_a   7.70922586
_cell_length_b   7.70922586
_cell_length_c   7.70922586
_cell_angle_alpha   60.00000000
_cell_angle_beta   60.00000000
_cell_angle_gamma   60.00000000
_symmetry_Int_Tables_number   1
_chemical_formula_structural   Yb4Al
_chemical_formula_sum   'Yb8 Al2'
_cell_volume   323.97933645
_cell_formula_units_Z   2
loop_
 _symmetry_equiv_pos_site_id
 _symmetry_equiv_pos_as_xyz
  1  'x, y, z'
loop_
 _atom_site_type_symbol
 _atom_site_label
 _atom_site_symmetry_multiplicity
 _atom_site_fract_x
 _atom_site_fract_y
 _atom_site_fract_z
 _atom_site_occupancy
  Yb  Yb0  1  0.60557068  0.60557068  0.60557068  1
  Yb  Yb1  1  0.18328796  0.60557068  0.60557068  1
  Yb  Yb2  1  0.60557068  0.18328796  0.60557068  1
  Yb  Yb3  1  0.56671204  0.14442932  0.14442932  1
  Yb  Yb4  1  0.14442932  0.14442932  0.14442932  1
  Yb  Yb5  1  0.60557068  0.60557068  0.18328796  1
  Yb  Yb6  1  0.14442932  0.56671204  0.14442932  1
  Yb  Yb7  1  0.14442932  0.14442932  0.56671204  1
  Al  Al0  1  0.00000000  0.00000000  0.00000000  1
  Al  Al1  1  0.75000000  0.75000000  0.75000000  1
loop_
_geom_bond_atom_site_label_1
_geom_bond_atom_site_label_2
_geom_bond_distance
_geom_bond_site_symmetry_2
Yb0 Yb5 3.255473 1_555
Yb0 Yb2 3.255473 1_555
Yb0 Yb1 3.255473 1_555
Yb0 Yb7 3.877825 1_565
Yb0 Yb7 3.877825 1_655
Yb0 Yb3 3.877825 1_565
Yb0 Yb6 3.877825 1_655
Yb0 Yb3 3.877825 1_556
Yb0 Yb6 3.877825 1_556
Yb1 Yb5 3.255473 1_555
Yb1 Yb2 3.255473 1_555
Yb1 Yb7 3.877825 1_565
Yb1 Yb6 3.877825 1_556
Yb1 Yb4 3.877825 1_565
Yb1 Yb4 3.877825 1_556
Yb1 Yb6 3.877825 1_555
Yb1 Yb7 3.877825 1_555
Yb2 Yb5 3.255473 1_555
Yb2 Yb7 3.877825 1_655
Yb2 Yb3 3.877825 1_556
Yb2 Yb4 3.877825 1_655
Yb2 Yb4 3.877825 1_556
Yb2 Yb3 3.877825 1_555
Yb2 Yb7 3.877825 1_555
Yb3 Yb6 3.255473 1_555
Yb3 Yb7 3.255473 1_555
Yb3 Yb4 3.255473 1_555
Yb3 Yb5 3.877825 1_545
Yb3 Yb5 3.877825 1_555
Yb4 Yb6 3.255473 1_555
Yb4 Yb7 3.255473 1_555
Yb4 Yb5 3.877825 1_455
Yb4 Yb5 3.877825 1_545
Yb5 Yb6 3.877825 1_655
Yb5 Yb6 3.877825 1_555
Yb6 Yb7 3.255473 1_555
Al0 Yb4 2.727356 1_555
Al0 Yb3 2.727356 1_455
Al0 Yb6 2.727356 1_545
Al0 Yb7 2.727356 1_554
Al1 Yb0 2.727356 1_555
Al1 Yb2 2.727356 1_565
Al1 Yb1 2.727356 1_655
Al1 Yb5 2.727356 1_556
