# generated using pymatgen
data_Ba8Sn4S15
_symmetry_space_group_name_H-M   'P 1'
_cell_length_a   8.66957269
_cell_length_b   25.74745536
_cell_length_c   29.13099517
_cell_angle_alpha   90.00000000
_cell_angle_beta   90.00000000
_cell_angle_gamma   90.00000000
_symmetry_Int_Tables_number   1
_chemical_formula_structural   Ba8Sn4S15
_chemical_formula_sum   'Ba64 Sn32 S120'
_cell_volume   6502.60430690
_cell_formula_units_Z   8
loop_
 _symmetry_equiv_pos_site_id
 _symmetry_equiv_pos_as_xyz
  1  'x, y, z'
loop_
 _atom_site_type_symbol
 _atom_site_label
 _atom_site_symmetry_multiplicity
 _atom_site_fract_x
 _atom_site_fract_y
 _atom_site_fract_z
 _atom_site_occupancy
  Ba  Ba0  1  0.06660232  0.72826618  0.47974663  1
  Ba  Ba1  1  0.93339768  0.22826618  0.52025337  1
  Ba  Ba2  1  0.06660232  0.22826618  0.02025337  1
  Ba  Ba3  1  0.93339768  0.72826618  0.97974663  1
  Ba  Ba4  1  0.94566437  0.99945503  0.13074051  1
  Ba  Ba5  1  0.05433563  0.49945503  0.86925949  1
  Ba  Ba6  1  0.94566437  0.49945503  0.36925949  1
  Ba  Ba7  1  0.05433563  0.99945503  0.63074051  1
  Ba  Ba8  1  0.79378174  0.81860330  0.11816820  1
  Ba  Ba9  1  0.20621826  0.31860330  0.88183180  1
  Ba  Ba10  1  0.79378174  0.31860330  0.38183180  1
  Ba  Ba11  1  0.20621826  0.81860330  0.61816820  1
  Ba  Ba12  1  0.55404023  0.89826037  0.48085413  1
  Ba  Ba13  1  0.44595977  0.39826037  0.51914587  1
  Ba  Ba14  1  0.55404023  0.39826037  0.01914587  1
  Ba  Ba15  1  0.44595977  0.89826037  0.98085413  1
  Ba  Ba16  1  0.08476480  0.54973041  0.22591632  1
  Ba  Ba17  1  0.91523520  0.04973041  0.77408368  1
  Ba  Ba18  1  0.08476480  0.04973041  0.27408368  1
  Ba  Ba19  1  0.91523520  0.54973041  0.72591632  1
  Ba  Ba20  1  0.94971291  0.71771255  0.25292553  1
  Ba  Ba21  1  0.05028709  0.21771255  0.74707447  1
  Ba  Ba22  1  0.94971291  0.21771255  0.24707447  1
  Ba  Ba23  1  0.05028709  0.71771255  0.75292553  1
  Ba  Ba24  1  0.42280219  0.63222480  0.12511431  1
  Ba  Ba25  1  0.57719781  0.13222480  0.87488569  1
  Ba  Ba26  1  0.42280219  0.13222480  0.37488569  1
  Ba  Ba27  1  0.57719781  0.63222480  0.62511431  1
  Ba  Ba28  1  0.90974002  0.84599959  0.36826573  1
  Ba  Ba29  1  0.09025998  0.34599959  0.63173427  1
  Ba  Ba30  1  0.90974002  0.34599959  0.13173427  1
  Ba  Ba31  1  0.09025998  0.84599959  0.86826573  1
  Ba  Ba32  1  0.44828306  0.91586559  0.25712878  1
  Ba  Ba33  1  0.55171694  0.41586559  0.74287122  1
  Ba  Ba34  1  0.44828306  0.41586559  0.24287122  1
  Ba  Ba35  1  0.55171694  0.91586559  0.75712878  1
  Ba  Ba36  1  0.29133092  0.81814006  0.12708417  1
  Ba  Ba37  1  0.70866908  0.31814006  0.87291583  1
  Ba  Ba38  1  0.29133092  0.31814006  0.37291583  1
  Ba  Ba39  1  0.70866908  0.81814006  0.62708417  1
  Ba  Ba40  1  0.56496256  0.08467320  0.22320485  1
  Ba  Ba41  1  0.43503744  0.58467320  0.77679515  1
  Ba  Ba42  1  0.56496256  0.58467320  0.27679515  1
  Ba  Ba43  1  0.43503744  0.08467320  0.72320485  1
  Ba  Ba44  1  0.39566081  0.78564069  0.36279262  1
  Ba  Ba45  1  0.60433919  0.28564069  0.63720738  1
  Ba  Ba46  1  0.39566081  0.28564069  0.13720738  1
  Ba  Ba47  1  0.60433919  0.78564069  0.86279262  1
  Ba  Ba48  1  0.35409282  0.57763469  0.47661954  1
  Ba  Ba49  1  0.64590718  0.07763469  0.52338046  1
  Ba  Ba50  1  0.35409282  0.07763469  0.02338046  1
  Ba  Ba51  1  0.64590718  0.57763469  0.97661954  1
  Ba  Ba52  1  0.74649201  0.66459446  0.39326033  1
  Ba  Ba53  1  0.25350799  0.16459446  0.60673967  1
  Ba  Ba54  1  0.74649201  0.16459446  0.10673967  1
  Ba  Ba55  1  0.25350799  0.66459446  0.89326033  1
  Ba  Ba56  1  0.15306941  0.04005948  0.48619313  1
  Ba  Ba57  1  0.84693059  0.54005948  0.51380687  1
  Ba  Ba58  1  0.15306941  0.54005948  0.01380687  1
  Ba  Ba59  1  0.84693059  0.04005948  0.98619313  1
  Ba  Ba60  1  0.75204528  0.00329569  0.36148744  1
  Ba  Ba61  1  0.24795472  0.50329569  0.63851256  1
  Ba  Ba62  1  0.75204528  0.50329569  0.13851256  1
  Ba  Ba63  1  0.24795472  0.00329569  0.86148744  1
  Sn  Sn0  1  0.42807002  0.97810560  0.12557542  1
  Sn  Sn1  1  0.57192998  0.47810560  0.87442458  1
  Sn  Sn2  1  0.42807002  0.47810560  0.37442458  1
  Sn  Sn3  1  0.57192998  0.97810560  0.62557542  1
  Sn  Sn4  1  0.56744096  0.73491962  0.49354577  1
  Sn  Sn5  1  0.43255904  0.23491962  0.50645423  1
  Sn  Sn6  1  0.56744096  0.23491962  0.00645423  1
  Sn  Sn7  1  0.43255904  0.73491962  0.99354577  1
  Sn  Sn8  1  0.92049375  0.90217690  0.24279802  1
  Sn  Sn9  1  0.07950625  0.40217690  0.75720198  1
  Sn  Sn10  1  0.92049375  0.40217690  0.25720198  1
  Sn  Sn11  1  0.07950625  0.90217690  0.74279802  1
  Sn  Sn12  1  0.43209940  0.73021835  0.23770056  1
  Sn  Sn13  1  0.56790060  0.23021835  0.76229944  1
  Sn  Sn14  1  0.43209940  0.23021835  0.26229944  1
  Sn  Sn15  1  0.56790060  0.73021835  0.73770056  1
  Sn  Sn16  1  0.91218533  0.65007368  0.12241179  1
  Sn  Sn17  1  0.08781467  0.15007368  0.87758821  1
  Sn  Sn18  1  0.91218533  0.15007368  0.37758821  1
  Sn  Sn19  1  0.08781467  0.65007368  0.62241179  1
  Sn  Sn20  1  0.06045566  0.88751105  0.49584096  1
  Sn  Sn21  1  0.93954434  0.38751105  0.50415904  1
  Sn  Sn22  1  0.06045566  0.38751105  0.00415904  1
  Sn  Sn23  1  0.93954434  0.88751105  0.99584096  1
  Sn  Sn24  1  0.16435884  0.63739310  0.35722348  1
  Sn  Sn25  1  0.83564116  0.13739310  0.64277652  1
  Sn  Sn26  1  0.16435884  0.13739310  0.14277652  1
  Sn  Sn27  1  0.83564116  0.63739310  0.85722348  1
  Sn  Sn28  1  0.32838788  0.96777372  0.38064055  1
  Sn  Sn29  1  0.67161212  0.46777372  0.61935945  1
  Sn  Sn30  1  0.32838788  0.46777372  0.11935945  1
  Sn  Sn31  1  0.67161212  0.96777372  0.88064055  1
  S  S0  1  0.28596031  0.01063842  0.19120932  1
  S  S1  1  0.71403969  0.51063842  0.80879068  1
  S  S2  1  0.28596031  0.51063842  0.30879068  1
  S  S3  1  0.71403969  0.01063842  0.69120932  1
  S  S4  1  0.60341582  0.04967260  0.10604014  1
  S  S5  1  0.39658418  0.54967260  0.89395986  1
  S  S6  1  0.60341582  0.54967260  0.39395986  1
  S  S7  1  0.39658418  0.04967260  0.60604014  1
  S  S8  1  0.25786228  0.96317172  0.06248601  1
  S  S9  1  0.74213772  0.46317172  0.93751399  1
  S  S10  1  0.25786228  0.46317172  0.43751399  1
  S  S11  1  0.74213772  0.96317172  0.56248601  1
  S  S12  1  0.55091717  0.90044230  0.15312715  1
  S  S13  1  0.44908283  0.40044230  0.84687285  1
  S  S14  1  0.55091717  0.40044230  0.34687285  1
  S  S15  1  0.44908283  0.90044230  0.65312715  1
  S  S16  1  0.71025016  0.78292484  0.43496645  1
  S  S17  1  0.28974984  0.28292484  0.56503355  1
  S  S18  1  0.71025016  0.28292484  0.06503355  1
  S  S19  1  0.28974984  0.78292484  0.93496645  1
  S  S20  1  0.46800128  0.79941568  0.54424680  1
  S  S21  1  0.53199872  0.29941568  0.45575320  1
  S  S22  1  0.46800128  0.29941568  0.95575320  1
  S  S23  1  0.53199872  0.79941568  0.04424680  1
  S  S24  1  0.39641728  0.69236702  0.43859880  1
  S  S25  1  0.60358272  0.19236702  0.56140120  1
  S  S26  1  0.39641728  0.19236702  0.06140120  1
  S  S27  1  0.60358272  0.69236702  0.93859880  1
  S  S28  1  0.76229025  0.82989473  0.26407746  1
  S  S29  1  0.23770975  0.32989473  0.73592254  1
  S  S30  1  0.76229025  0.32989473  0.23592254  1
  S  S31  1  0.23770975  0.82989473  0.76407746  1
  S  S32  1  0.09132914  0.92637311  0.30617375  1
  S  S33  1  0.90867086  0.42637311  0.69382625  1
  S  S34  1  0.09132914  0.42637311  0.19382625  1
  S  S35  1  0.90867086  0.92637311  0.80617375  1
  S  S36  1  0.03738184  0.88991176  0.16885365  1
  S  S37  1  0.96261816  0.38991176  0.83114635  1
  S  S38  1  0.03738184  0.38991176  0.33114635  1
  S  S39  1  0.96261816  0.88991176  0.66885365  1
  S  S40  1  0.77575713  0.98367037  0.24160005  1
  S  S41  1  0.22424287  0.48367037  0.75839995  1
  S  S42  1  0.77575713  0.48367037  0.25839995  1
  S  S43  1  0.22424287  0.98367037  0.74160005  1
  S  S44  1  0.26704275  0.80192345  0.25651236  1
  S  S45  1  0.73295725  0.30192345  0.74348764  1
  S  S46  1  0.26704275  0.30192345  0.24348764  1
  S  S47  1  0.73295725  0.80192345  0.75651236  1
  S  S48  1  0.28014623  0.65134737  0.23314672  1
  S  S49  1  0.71985377  0.15134737  0.76685328  1
  S  S50  1  0.28014623  0.15134737  0.26685328  1
  S  S51  1  0.71985377  0.65134737  0.73314672  1
  S  S52  1  0.54922551  0.74110910  0.16389861  1
  S  S53  1  0.45077449  0.24110910  0.83610139  1
  S  S54  1  0.54922551  0.24110910  0.33610139  1
  S  S55  1  0.45077449  0.74110910  0.66389861  1
  S  S56  1  0.60502741  0.70873030  0.30101817  1
  S  S57  1  0.39497259  0.20873030  0.69898183  1
  S  S58  1  0.60502741  0.20873030  0.19898183  1
  S  S59  1  0.39497259  0.70873030  0.80101817  1
  S  S60  1  0.74305135  0.66030666  0.05788614  1
  S  S61  1  0.25694865  0.16030666  0.94211386  1
  S  S62  1  0.74305135  0.16030666  0.44211386  1
  S  S63  1  0.25694865  0.66030666  0.55788614  1
  S  S64  1  0.77111111  0.61704819  0.18871280  1
  S  S65  1  0.22888889  0.11704819  0.81128720  1
  S  S66  1  0.77111111  0.11704819  0.31128720  1
  S  S67  1  0.22888889  0.61704819  0.68871280  1
  S  S68  1  0.04101436  0.72872103  0.14471337  1
  S  S69  1  0.95898564  0.22872103  0.85528663  1
  S  S70  1  0.04101436  0.22872103  0.35528663  1
  S  S71  1  0.95898564  0.72872103  0.64471337  1
  S  S72  1  0.07951346  0.57409177  0.11471920  1
  S  S73  1  0.92048654  0.07409177  0.88528080  1
  S  S74  1  0.07951346  0.07409177  0.38528080  1
  S  S75  1  0.92048654  0.57409177  0.61471920  1
  S  S76  1  0.89601870  0.94395459  0.45025070  1
  S  S77  1  0.10398130  0.44395459  0.54974930  1
  S  S78  1  0.89601870  0.44395459  0.04974930  1
  S  S79  1  0.10398130  0.94395459  0.95025070  1
  S  S80  1  0.94093534  0.82138570  0.54208449  1
  S  S81  1  0.05906466  0.32138570  0.45791551  1
  S  S82  1  0.94093534  0.32138570  0.95791551  1
  S  S83  1  0.05906466  0.82138570  0.04208449  1
  S  S84  1  0.20657698  0.83978883  0.43890819  1
  S  S85  1  0.79342302  0.33978883  0.56109181  1
  S  S86  1  0.20657698  0.33978883  0.06109181  1
  S  S87  1  0.79342302  0.83978883  0.93890819  1
  S  S88  1  0.23432765  0.93791974  0.54213494  1
  S  S89  1  0.76567235  0.43791974  0.45786506  1
  S  S90  1  0.23432765  0.43791974  0.95786506  1
  S  S91  1  0.76567235  0.93791974  0.04213494  1
  S  S92  1  0.04847837  0.73076642  0.36327669  1
  S  S93  1  0.95152163  0.23076642  0.63672331  1
  S  S94  1  0.04847837  0.23076642  0.13672331  1
  S  S95  1  0.95152163  0.73076642  0.86327669  1
  S  S96  1  0.92709728  0.60739195  0.31123594  1
  S  S97  1  0.07290272  0.10739195  0.68876406  1
  S  S98  1  0.92709728  0.10739195  0.18876406  1
  S  S99  1  0.07290272  0.60739195  0.81123594  1
  S  S100  1  0.02840810  0.60318038  0.43553737  1
  S  S101  1  0.97159190  0.10318038  0.56446263  1
  S  S102  1  0.02840810  0.10318038  0.06446263  1
  S  S103  1  0.97159190  0.60318038  0.93553737  1
  S  S104  1  0.55061070  0.90012513  0.36580369  1
  S  S105  1  0.44938930  0.40012513  0.63419631  1
  S  S106  1  0.55061070  0.40012513  0.13419631  1
  S  S107  1  0.44938930  0.90012513  0.86580369  1
  S  S108  1  0.42697058  0.02508309  0.31483423  1
  S  S109  1  0.57302942  0.52508309  0.68516577  1
  S  S110  1  0.42697058  0.52508309  0.18516577  1
  S  S111  1  0.57302942  0.02508309  0.81483423  1
  S  S112  1  0.49163376  0.02298397  0.44077001  1
  S  S113  1  0.50836624  0.52298397  0.55922999  1
  S  S114  1  0.49163376  0.52298397  0.05922999  1
  S  S115  1  0.50836624  0.02298397  0.94077001  1
  S  S116  1  0.73533117  0.66742170  0.52191258  1
  S  S117  1  0.26466883  0.16742170  0.47808742  1
  S  S118  1  0.73533117  0.16742170  0.97808742  1
  S  S119  1  0.26466883  0.66742170  0.02191258  1
loop_
_geom_bond_atom_site_label_1
_geom_bond_atom_site_label_2
_geom_bond_distance
_geom_bond_site_symmetry_2
Ba0 S80 3.198926 1_455
Ba0 S24 3.235288 1_555
Ba0 S63 3.311561 1_555
Ba0 S84 3.336617 1_555
Ba0 S92 3.397132 1_555
Ba0 S100 3.484359 1_555
Ba0 S116 3.494464 1_455
Ba0 S16 3.636863 1_455
Ba1 S81 3.198926 1_655
Ba1 S25 3.235288 1_555
Ba1 S62 3.311561 1_555
Ba1 S85 3.336617 1_555
Ba1 S93 3.397132 1_555
Ba1 S101 3.484359 1_555
Ba1 S117 3.494464 1_655
Ba1 S17 3.636863 1_655
Ba2 S82 3.198926 1_454
Ba2 S26 3.235288 1_555
Ba2 S61 3.311561 1_554
Ba2 S86 3.336617 1_555
Ba2 S94 3.397132 1_555
Ba2 S102 3.484359 1_555
Ba2 S118 3.494464 1_454
Ba2 S18 3.636863 1_455
Ba3 S83 3.198926 1_656
Ba3 S27 3.235288 1_555
Ba3 S60 3.311561 1_556
Ba3 S87 3.336617 1_555
Ba3 S95 3.397132 1_555
Ba3 S103 3.484359 1_555
Ba3 S119 3.494464 1_656
Ba3 S19 3.636863 1_655
Ba4 S36 3.133683 1_655
Ba4 S98 3.256743 1_565
Ba4 S4 3.315645 1_565
Ba4 S102 3.372655 1_665
Ba4 S91 3.407007 1_555
Ba4 S0 3.448138 1_665
Ba4 S8 3.485967 1_655
Ba4 S40 3.572717 1_555
Ba5 S37 3.133683 1_455
Ba5 S99 3.256743 1_555
Ba5 S5 3.315645 1_555
Ba5 S103 3.372655 1_455
Ba5 S90 3.407007 1_555
Ba5 S1 3.448138 1_455
Ba5 S9 3.485967 1_455
Ba5 S41 3.572717 1_555
Ba6 S38 3.133683 1_655
Ba6 S96 3.256743 1_555
Ba6 S6 3.315645 1_555
Ba6 S100 3.372655 1_655
Ba6 S89 3.407007 1_555
Ba6 S2 3.448138 1_655
Ba6 S10 3.485967 1_655
Ba6 S42 3.572717 1_555
Ba7 S39 3.133683 1_455
Ba7 S97 3.256743 1_565
Ba7 S7 3.315645 1_565
Ba7 S101 3.372655 1_465
Ba7 S88 3.407007 1_555
Ba7 S3 3.448138 1_465
Ba7 S11 3.485967 1_455
Ba7 S43 3.572717 1_555
Ba8 S12 3.148086 1_555
Ba8 S36 3.164048 1_655
Ba8 S23 3.167343 1_555
Ba8 S83 3.194844 1_655
Ba8 S52 3.201727 1_555
Ba8 S68 3.247745 1_655
Ba8 S91 3.795134 1_555
Ba9 S13 3.148086 1_555
Ba9 S37 3.164048 1_455
Ba9 S22 3.167343 1_555
Ba9 S82 3.194844 1_455
Ba9 S53 3.201727 1_555
Ba9 S69 3.247745 1_455
Ba9 S90 3.795134 1_555
Ba10 S14 3.148086 1_555
Ba10 S38 3.164048 1_655
Ba10 S21 3.167343 1_555
Ba10 S81 3.194844 1_655
Ba10 S54 3.201727 1_555
Ba10 S70 3.247745 1_655
Ba10 S89 3.795134 1_555
Ba11 S15 3.148086 1_555
Ba11 S39 3.164048 1_455
Ba11 S20 3.167343 1_555
Ba11 S80 3.194844 1_455
Ba11 S55 3.201727 1_555
Ba11 S71 3.247745 1_455
Ba11 S88 3.795134 1_555
Ba12 S20 3.231670 1_555
Ba12 S76 3.311955 1_555
Ba12 S11 3.332789 1_555
Ba12 S104 3.352010 1_555
Ba12 S88 3.451413 1_555
Ba12 S112 3.459591 1_565
Ba12 S16 3.526963 1_555
Ba12 S84 3.582446 1_555
Ba13 S21 3.231670 1_555
Ba13 S77 3.311955 1_555
Ba13 S10 3.332789 1_555
Ba13 S105 3.352010 1_555
Ba13 S89 3.451413 1_555
Ba13 S113 3.459591 1_555
Ba13 S17 3.526963 1_555
Ba13 S85 3.582446 1_555
Ba14 S22 3.231670 1_554
Ba14 S78 3.311955 1_555
Ba14 S9 3.332789 1_554
Ba14 S106 3.352010 1_555
Ba14 S90 3.451413 1_554
Ba14 S114 3.459591 1_555
Ba14 S18 3.526963 1_555
Ba14 S86 3.582446 1_555
Ba15 S23 3.231670 1_556
Ba15 S79 3.311955 1_555
Ba15 S8 3.332789 1_556
Ba15 S107 3.352010 1_555
Ba15 S91 3.451413 1_556
Ba15 S115 3.459591 1_565
Ba15 S19 3.526963 1_555
Ba15 S87 3.582446 1_555
Ba16 S48 3.123941 1_555
Ba16 S2 3.143885 1_555
Ba16 S96 3.201567 1_455
Ba16 S110 3.257869 1_555
Ba16 S72 3.299767 1_555
Ba16 S34 3.311338 1_555
Ba16 S42 3.311387 1_455
Ba16 S64 3.401919 1_455
Ba17 S49 3.123941 1_555
Ba17 S3 3.143885 1_555
Ba17 S97 3.201567 1_655
Ba17 S111 3.257869 1_555
Ba17 S73 3.299767 1_555
Ba17 S35 3.311338 1_545
Ba17 S43 3.311387 1_645
Ba17 S65 3.401919 1_655
Ba18 S50 3.123941 1_555
Ba18 S0 3.143885 1_555
Ba18 S98 3.201567 1_455
Ba18 S108 3.257869 1_555
Ba18 S74 3.299767 1_555
Ba18 S32 3.311338 1_545
Ba18 S40 3.311387 1_445
Ba18 S66 3.401919 1_455
Ba19 S51 3.123941 1_555
Ba19 S1 3.143885 1_555
Ba19 S99 3.201567 1_655
Ba19 S109 3.257869 1_555
Ba19 S75 3.299767 1_555
Ba19 S33 3.311338 1_555
Ba19 S41 3.311387 1_655
Ba19 S67 3.401919 1_655
Ba20 S68 3.262522 1_655
Ba20 S56 3.308480 1_555
Ba20 S96 3.315436 1_555
Ba20 S28 3.329961 1_555
Ba20 S92 3.343657 1_655
Ba20 S48 3.385018 1_655
Ba20 S44 3.504384 1_655
Ba20 S64 3.551663 1_555
Ba21 S69 3.262522 1_455
Ba21 S57 3.308480 1_555
Ba21 S97 3.315436 1_555
Ba21 S29 3.329961 1_555
Ba21 S93 3.343657 1_455
Ba21 S49 3.385018 1_455
Ba21 S45 3.504384 1_455
Ba21 S65 3.551663 1_555
Ba22 S70 3.262522 1_655
Ba22 S58 3.308480 1_555
Ba22 S98 3.315436 1_555
Ba22 S30 3.329961 1_555
Ba22 S94 3.343657 1_655
Ba22 S50 3.385018 1_655
Ba22 S46 3.504384 1_655
Ba22 S66 3.551663 1_555
Ba23 S71 3.262522 1_455
Ba23 S59 3.308480 1_555
Ba23 S99 3.315436 1_555
Ba23 S31 3.329961 1_555
Ba23 S95 3.343657 1_455
Ba23 S51 3.385018 1_455
Ba23 S47 3.504384 1_455
Ba23 S67 3.551663 1_555
Ba24 S52 3.215179 1_555
Ba24 S110 3.266739 1_555
Ba24 S72 3.345088 1_555
Ba24 S48 3.417044 1_555
Ba24 S119 3.426224 1_555
Ba24 S114 3.457000 1_555
Ba24 S60 3.473720 1_555
Ba24 S64 3.564220 1_555
Ba25 S53 3.215179 1_555
Ba25 S111 3.266739 1_555
Ba25 S73 3.345088 1_555
Ba25 S49 3.417044 1_555
Ba25 S118 3.426224 1_555
Ba25 S115 3.457000 1_555
Ba25 S61 3.473720 1_555
Ba25 S65 3.564220 1_555
Ba26 S54 3.215179 1_555
Ba26 S108 3.266739 1_555
Ba26 S74 3.345088 1_555
Ba26 S50 3.417044 1_555
Ba26 S117 3.426224 1_555
Ba26 S112 3.457000 1_555
Ba26 S62 3.473720 1_555
Ba26 S66 3.564220 1_555
Ba27 S55 3.215179 1_555
Ba27 S109 3.266739 1_555
Ba27 S75 3.345088 1_555
Ba27 S51 3.417044 1_555
Ba27 S116 3.426224 1_555
Ba27 S113 3.457000 1_555
Ba27 S63 3.473720 1_555
Ba27 S67 3.564220 1_555
Ba28 S16 3.066601 1_555
Ba28 S32 3.167437 1_655
Ba28 S92 3.204795 1_655
Ba28 S84 3.298955 1_655
Ba28 S28 3.319328 1_555
Ba28 S104 3.411908 1_555
Ba28 S76 3.475499 1_555
Ba29 S17 3.066601 1_555
Ba29 S33 3.167437 1_455
Ba29 S93 3.204795 1_455
Ba29 S85 3.298955 1_455
Ba29 S29 3.319328 1_555
Ba29 S105 3.411908 1_555
Ba29 S77 3.475499 1_555
Ba30 S18 3.066601 1_555
Ba30 S34 3.167437 1_655
Ba30 S94 3.204795 1_655
Ba30 S86 3.298955 1_655
Ba30 S30 3.319328 1_555
Ba30 S106 3.411908 1_555
Ba30 S78 3.475499 1_555
Ba31 S19 3.066601 1_555
Ba31 S35 3.167437 1_455
Ba31 S95 3.204795 1_455
Ba31 S87 3.298955 1_455
Ba31 S31 3.319328 1_555
Ba31 S107 3.411908 1_555
Ba31 S79 3.475499 1_555
Ba32 S12 3.182505 1_555
Ba32 S108 3.281419 1_565
Ba32 S104 3.312643 1_555
Ba32 S44 3.328054 1_555
Ba32 S40 3.363439 1_555
Ba32 S0 3.409154 1_565
Ba32 S32 3.419246 1_555
Ba32 S28 3.514492 1_555
Ba33 S13 3.182505 1_555
Ba33 S109 3.281419 1_555
Ba33 S105 3.312643 1_555
Ba33 S45 3.328054 1_555
Ba33 S41 3.363439 1_555
Ba33 S1 3.409154 1_555
Ba33 S33 3.419246 1_555
Ba33 S29 3.514492 1_555
Ba34 S14 3.182505 1_555
Ba34 S110 3.281419 1_555
Ba34 S106 3.312643 1_555
Ba34 S46 3.328054 1_555
Ba34 S42 3.363439 1_555
Ba34 S2 3.409154 1_555
Ba34 S34 3.419246 1_555
Ba34 S30 3.514492 1_555
Ba35 S15 3.182505 1_555
Ba35 S111 3.281419 1_565
Ba35 S107 3.312643 1_555
Ba35 S47 3.328054 1_555
Ba35 S43 3.363439 1_555
Ba35 S3 3.409154 1_565
Ba35 S35 3.419246 1_555
Ba35 S31 3.514492 1_555
Ba36 S36 3.121317 1_555
Ba36 S52 3.175338 1_555
Ba36 S12 3.182890 1_555
Ba36 S83 3.192642 1_555
Ba36 S68 3.205289 1_555
Ba36 S23 3.226310 1_555
Ba36 S44 3.799261 1_555
Ba37 S37 3.121317 1_555
Ba37 S53 3.175338 1_555
Ba37 S13 3.182890 1_555
Ba37 S82 3.192642 1_555
Ba37 S69 3.205289 1_555
Ba37 S22 3.226310 1_555
Ba37 S45 3.799261 1_555
Ba38 S38 3.121317 1_555
Ba38 S54 3.175338 1_555
Ba38 S14 3.182890 1_555
Ba38 S81 3.192642 1_555
Ba38 S70 3.205289 1_555
Ba38 S21 3.226310 1_555
Ba38 S46 3.799261 1_555
Ba39 S39 3.121317 1_555
Ba39 S55 3.175338 1_555
Ba39 S15 3.182890 1_555
Ba39 S80 3.192642 1_555
Ba39 S71 3.205289 1_555
Ba39 S20 3.226310 1_555
Ba39 S47 3.799261 1_555
Ba40 S0 3.217624 1_555
Ba40 S40 3.223329 1_545
Ba40 S66 3.236198 1_555
Ba40 S50 3.265106 1_555
Ba40 S58 3.289559 1_555
Ba40 S108 3.303057 1_555
Ba40 S98 3.347471 1_555
Ba40 S4 3.545797 1_555
Ba41 S1 3.217624 1_555
Ba41 S41 3.223329 1_555
Ba41 S67 3.236198 1_555
Ba41 S51 3.265106 1_555
Ba41 S59 3.289559 1_555
Ba41 S109 3.303057 1_555
Ba41 S99 3.347471 1_555
Ba41 S5 3.545797 1_555
Ba42 S2 3.217624 1_555
Ba42 S42 3.223329 1_555
Ba42 S64 3.236198 1_555
Ba42 S48 3.265106 1_555
Ba42 S56 3.289559 1_555
Ba42 S110 3.303057 1_555
Ba42 S96 3.347471 1_555
Ba42 S6 3.545797 1_555
Ba43 S3 3.217624 1_555
Ba43 S43 3.223329 1_545
Ba43 S65 3.236198 1_555
Ba43 S49 3.265106 1_555
Ba43 S57 3.289559 1_555
Ba43 S111 3.303057 1_555
Ba43 S97 3.347471 1_555
Ba43 S7 3.545797 1_555
Ba44 S84 3.089899 1_555
Ba44 S56 3.233329 1_555
Ba44 S104 3.240543 1_555
Ba44 S24 3.262539 1_555
Ba44 S44 3.317326 1_555
Ba44 S92 3.325064 1_555
Ba44 S16 3.444393 1_555
Ba45 S85 3.089899 1_555
Ba45 S57 3.233329 1_555
Ba45 S105 3.240543 1_555
Ba45 S25 3.262539 1_555
Ba45 S45 3.317326 1_555
Ba45 S93 3.325064 1_555
Ba45 S17 3.444393 1_555
Ba46 S86 3.089899 1_555
Ba46 S58 3.233329 1_555
Ba46 S106 3.240543 1_555
Ba46 S26 3.262539 1_555
Ba46 S46 3.317326 1_555
Ba46 S94 3.325064 1_555
Ba46 S18 3.444393 1_555
Ba47 S87 3.089899 1_555
Ba47 S59 3.233329 1_555
Ba47 S107 3.240543 1_555
Ba47 S27 3.262539 1_555
Ba47 S47 3.317326 1_555
Ba47 S95 3.325064 1_555
Ba47 S19 3.444393 1_555
Ba48 S113 3.091958 1_555
Ba48 S100 3.136444 1_555
Ba48 S24 3.176143 1_555
Ba48 S10 3.267925 1_555
Ba48 S63 3.293126 1_555
Ba48 S6 3.314933 1_555
Ba49 S112 3.091958 1_555
Ba49 S101 3.136444 1_555
Ba49 S25 3.176143 1_555
Ba49 S11 3.267925 1_545
Ba49 S62 3.293126 1_555
Ba49 S7 3.314933 1_555
Ba50 S115 3.091958 1_554
Ba50 S102 3.136444 1_555
Ba50 S26 3.176143 1_555
Ba50 S8 3.267925 1_545
Ba50 S61 3.293126 1_554
Ba50 S4 3.314933 1_555
Ba51 S114 3.091958 1_556
Ba51 S103 3.136444 1_555
Ba51 S27 3.176143 1_555
Ba51 S9 3.267925 1_555
Ba51 S60 3.293126 1_556
Ba51 S5 3.314933 1_555
Ba52 S100 3.160811 1_655
Ba52 S56 3.164816 1_555
Ba52 S6 3.208487 1_555
Ba52 S96 3.214081 1_555
Ba52 S92 3.243474 1_655
Ba52 S16 3.295030 1_555
Ba52 S24 3.386287 1_555
Ba52 S116 3.749724 1_555
Ba53 S101 3.160811 1_455
Ba53 S57 3.164816 1_555
Ba53 S7 3.208487 1_555
Ba53 S97 3.214081 1_555
Ba53 S93 3.243474 1_455
Ba53 S17 3.295030 1_555
Ba53 S25 3.386287 1_555
Ba53 S117 3.749724 1_555
Ba54 S102 3.160811 1_655
Ba54 S58 3.164816 1_555
Ba54 S4 3.208487 1_555
Ba54 S98 3.214081 1_555
Ba54 S94 3.243474 1_655
Ba54 S18 3.295030 1_555
Ba54 S26 3.386287 1_555
Ba54 S118 3.749724 1_554
Ba55 S103 3.160811 1_455
Ba55 S59 3.164816 1_555
Ba55 S5 3.208487 1_555
Ba55 S99 3.214081 1_555
Ba55 S95 3.243474 1_455
Ba55 S19 3.295030 1_555
Ba55 S27 3.386287 1_555
Ba55 S119 3.749724 1_556
Ba56 S74 3.133076 1_555
Ba56 S88 3.173021 1_545
Ba56 S101 3.211755 1_455
Ba56 S112 3.249562 1_555
Ba56 S117 3.427149 1_555
Ba56 S76 3.490777 1_445
Ba57 S75 3.133076 1_555
Ba57 S89 3.173021 1_555
Ba57 S100 3.211755 1_655
Ba57 S113 3.249562 1_555
Ba57 S116 3.427149 1_555
Ba57 S77 3.490777 1_655
Ba58 S72 3.133076 1_555
Ba58 S90 3.173021 1_554
Ba58 S103 3.211755 1_454
Ba58 S114 3.249562 1_555
Ba58 S119 3.427149 1_555
Ba58 S78 3.490777 1_455
Ba59 S73 3.133076 1_555
Ba59 S91 3.173021 1_546
Ba59 S102 3.211755 1_656
Ba59 S115 3.249562 1_555
Ba59 S118 3.427149 1_555
Ba59 S79 3.490777 1_645
Ba60 S108 3.178726 1_555
Ba60 S104 3.181494 1_545
Ba60 S76 3.252470 1_545
Ba60 S112 3.269273 1_555
Ba60 S66 3.277800 1_555
Ba60 S74 3.444280 1_655
Ba60 S40 3.534787 1_545
Ba61 S109 3.178726 1_555
Ba61 S105 3.181494 1_555
Ba61 S77 3.252470 1_555
Ba61 S113 3.269273 1_555
Ba61 S67 3.277800 1_555
Ba61 S75 3.444280 1_455
Ba61 S41 3.534787 1_555
Ba62 S110 3.178726 1_555
Ba62 S106 3.181494 1_555
Ba62 S78 3.252470 1_555
Ba62 S114 3.269273 1_555
Ba62 S64 3.277800 1_555
Ba62 S72 3.444280 1_655
Ba62 S42 3.534787 1_555
Ba63 S111 3.178726 1_555
Ba63 S107 3.181494 1_545
Ba63 S79 3.252470 1_545
Ba63 S115 3.269273 1_555
Ba63 S65 3.277800 1_555
Ba63 S73 3.444280 1_455
Ba63 S43 3.534787 1_545
S0 Sn0 2.423882 1_545
S1 Sn1 2.423882 1_555
S2 Sn2 2.423882 1_555
S3 Sn3 2.423882 1_545
S4 Sn0 2.455648 1_545
S5 Sn1 2.455648 1_555
S6 Sn2 2.455648 1_555
S7 Sn3 2.455648 1_545
S8 Sn0 2.388105 1_555
S9 Sn1 2.388105 1_555
S10 Sn2 2.388105 1_555
S11 Sn3 2.388105 1_555
S12 Sn0 2.403540 1_555
S13 Sn1 2.403540 1_555
S14 Sn2 2.403540 1_555
S15 Sn3 2.403540 1_555
S16 Sn4 2.443902 1_555
S17 Sn5 2.443902 1_555
S18 Sn6 2.443902 1_555
S19 Sn7 2.443902 1_555
S20 Sn4 2.383754 1_555
S21 Sn5 2.383754 1_555
S22 Sn6 2.383754 1_556
S23 Sn7 2.383754 1_554
S24 Sn4 2.441496 1_555
S25 Sn5 2.441496 1_555
S26 Sn6 2.441496 1_555
S27 Sn7 2.441496 1_555
S28 Sn8 2.393545 1_555
S29 Sn9 2.393545 1_555
S30 Sn10 2.393545 1_555
S31 Sn11 2.393545 1_555
S32 Sn8 2.447475 1_455
S33 Sn9 2.447475 1_655
S34 Sn10 2.447475 1_455
S35 Sn11 2.447475 1_655
S36 Sn8 2.401391 1_455
S37 Sn9 2.401391 1_655
S38 Sn10 2.401391 1_455
S39 Sn11 2.401391 1_655
S40 Sn8 2.445077 1_555
S41 Sn9 2.445077 1_555
S42 Sn10 2.445077 1_555
S43 Sn11 2.445077 1_555
S44 Sn12 2.399277 1_555
S45 Sn13 2.399277 1_555
S46 Sn14 2.399277 1_555
S47 Sn15 2.399277 1_555
S48 Sn12 2.424234 1_555
S49 Sn13 2.424234 1_555
S50 Sn14 2.424234 1_555
S51 Sn15 2.424234 1_555
S52 Sn12 2.394140 1_555
S53 Sn13 2.394140 1_555
S54 Sn14 2.394140 1_555
S55 Sn15 2.394140 1_555
S56 Sn12 2.440478 1_555
S57 Sn13 2.440478 1_555
S58 Sn14 2.440478 1_555
S59 Sn15 2.440478 1_555
S60 Sn16 2.398493 1_555
S61 Sn17 2.398493 1_555
S62 Sn18 2.398493 1_555
S63 Sn19 2.398493 1_555
S64 Sn16 2.439112 1_555
S65 Sn17 2.439112 1_555
S66 Sn18 2.439112 1_555
S67 Sn19 2.439112 1_555
S68 Sn16 2.402086 1_455
S69 Sn17 2.402086 1_655
S70 Sn18 2.402086 1_455
S71 Sn19 2.402086 1_655
S72 Sn16 2.445795 1_455
S73 Sn17 2.445795 1_655
S74 Sn18 2.445795 1_455
S75 Sn19 2.445795 1_655
S76 Sn20 2.430672 1_655
S77 Sn21 2.430672 1_455
S78 Sn22 2.430672 1_655
S79 Sn23 2.430672 1_455
S80 Sn20 2.405646 1_655
S81 Sn21 2.405646 1_455
S82 Sn22 2.405646 1_656
S83 Sn23 2.405646 1_454
S84 Sn20 2.421822 1_555
S85 Sn21 2.421822 1_555
S86 Sn22 2.421822 1_555
S87 Sn23 2.421822 1_555
S88 Sn20 2.403221 1_555
S89 Sn21 2.403221 1_555
S90 Sn22 2.403221 1_556
S91 Sn23 2.403221 1_554
S92 Sn24 2.611552 1_555
S93 Sn25 2.611552 1_555
S94 Sn26 2.611552 1_555
S95 Sn27 2.611552 1_555
S96 Sn24 2.573412 1_655
S97 Sn25 2.573412 1_455
S98 Sn26 2.573412 1_655
S99 Sn27 2.573412 1_455
S100 Sn24 2.714730 1_555
S101 Sn25 2.714730 1_555
S102 Sn26 2.714730 1_555
S103 Sn27 2.714730 1_555
S104 Sn28 2.632926 1_555
S105 Sn29 2.632926 1_555
S106 Sn30 2.632926 1_555
S107 Sn31 2.632926 1_555
S108 Sn28 2.565672 1_545
S109 Sn29 2.565672 1_555
S110 Sn30 2.565672 1_555
S111 Sn31 2.565672 1_545
S112 Sn28 2.663069 1_545
S113 Sn29 2.663069 1_555
S114 Sn30 2.663069 1_555
S115 Sn31 2.663069 1_545
S116 Sn4 2.412829 1_555
S117 Sn5 2.412829 1_555
S118 Sn6 2.412829 1_556
S119 Sn7 2.412829 1_554
