# generated using pymatgen
data_LuZnSn
_symmetry_space_group_name_H-M   'P 1'
_cell_length_a   4.40008757
_cell_length_b   4.40008757
_cell_length_c   15.75205196
_cell_angle_alpha   90.00000000
_cell_angle_beta   90.00000000
_cell_angle_gamma   120.00000287
_symmetry_Int_Tables_number   1
_chemical_formula_structural   LuZnSn
_chemical_formula_sum   'Lu4 Zn4 Sn4'
_cell_volume   264.11337484
_cell_formula_units_Z   4
loop_
 _symmetry_equiv_pos_site_id
 _symmetry_equiv_pos_as_xyz
  1  'x, y, z'
loop_
 _atom_site_type_symbol
 _atom_site_label
 _atom_site_symmetry_multiplicity
 _atom_site_fract_x
 _atom_site_fract_y
 _atom_site_fract_z
 _atom_site_occupancy
  Lu  Lu0  1  -0.00000000  0.00000000  0.25000865  1
  Lu  Lu1  1  0.00000000  -0.00000000  0.75000865  1
  Lu  Lu2  1  0.00000000  0.00000000  0.99999691  1
  Lu  Lu3  1  0.00000000  0.00000000  0.49999691  1
  Zn  Zn0  1  0.33333300  0.66666700  0.16420094  1
  Zn  Zn1  1  0.66666700  0.33333300  0.83580213  1
  Zn  Zn2  1  0.66666700  0.33333300  0.66420094  1
  Zn  Zn3  1  0.33333300  0.66666700  0.33580213  1
  Sn  Sn0  1  0.33333300  0.66666700  0.61247140  1
  Sn  Sn1  1  0.66666700  0.33333300  0.38751897  1
  Sn  Sn2  1  0.66666700  0.33333300  0.11247140  1
  Sn  Sn3  1  0.33333300  0.66666700  0.88751897  1
loop_
_geom_bond_atom_site_label_1
_geom_bond_atom_site_label_2
_geom_bond_distance
_geom_bond_site_symmetry_2
Lu0 Zn3 2.877485 1_545
Lu0 Zn3 2.877489 1_445
Lu0 Zn3 2.877489 1_555
Lu0 Zn0 2.877591 1_545
Lu0 Zn0 2.877594 1_555
Lu0 Zn0 2.877594 1_445
Lu0 Sn1 3.338478 1_455
Lu0 Sn1 3.338481 1_445
Lu0 Sn1 3.338481 1_555
Lu0 Sn2 3.338753 1_455
Lu0 Sn2 3.338756 1_445
Lu0 Sn2 3.338756 1_555
Lu1 Zn1 2.877485 1_455
Lu1 Zn1 2.877489 1_445
Lu1 Zn1 2.877489 1_555
Lu1 Zn2 2.877591 1_455
Lu1 Zn2 2.877594 1_445
Lu1 Zn2 2.877594 1_555
Lu1 Sn3 3.338478 1_545
Lu1 Sn3 3.338481 1_445
Lu1 Sn3 3.338481 1_555
Lu1 Sn0 3.338753 1_545
Lu1 Sn0 3.338756 1_555
Lu1 Sn0 3.338756 1_445
Lu2 Sn2 3.097178 1_456
Lu2 Sn2 3.097181 1_446
Lu2 Sn2 3.097181 1_556
Lu2 Sn3 3.097209 1_545
Lu2 Sn3 3.097212 1_445
Lu2 Sn3 3.097212 1_555
Lu3 Sn0 3.097178 1_545
Lu3 Sn0 3.097181 1_555
Lu3 Sn0 3.097181 1_445
Lu3 Sn1 3.097209 1_455
Lu3 Sn1 3.097212 1_445
Lu3 Sn1 3.097212 1_555
Sn0 Zn2 2.667874 1_455
Sn0 Zn2 2.667874 1_565
Sn0 Zn2 2.667881 1_555
Sn1 Zn3 2.667813 1_545
Sn1 Zn3 2.667813 1_655
Sn1 Zn3 2.667820 1_555
Sn2 Zn0 2.667874 1_545
Sn2 Zn0 2.667874 1_655
Sn2 Zn0 2.667881 1_555
Sn3 Zn1 2.667813 1_455
Sn3 Zn1 2.667813 1_565
Sn3 Zn1 2.667820 1_555
