# generated using pymatgen
data_Li4Co3O7
_symmetry_space_group_name_H-M   'P 1'
_cell_length_a   5.10103700
_cell_length_b   5.14855302
_cell_length_c   10.01526742
_cell_angle_alpha   99.28825914
_cell_angle_beta   101.60609043
_cell_angle_gamma   99.61306182
_symmetry_Int_Tables_number   1
_chemical_formula_structural   Li4Co3O7
_chemical_formula_sum   'Li8 Co6 O14'
_cell_volume   248.80293544
_cell_formula_units_Z   2
loop_
 _symmetry_equiv_pos_site_id
 _symmetry_equiv_pos_as_xyz
  1  'x, y, z'
loop_
 _atom_site_type_symbol
 _atom_site_label
 _atom_site_symmetry_multiplicity
 _atom_site_fract_x
 _atom_site_fract_y
 _atom_site_fract_z
 _atom_site_occupancy
  Li  Li0  1  0.28334300  0.08312800  0.57010400  1
  Li  Li1  1  0.84980600  0.21301000  0.71450100  1
  Li  Li2  1  0.43073500  0.36586100  0.85874000  1
  Li  Li3  1  0.15019400  0.78699000  0.28549900  1
  Li  Li4  1  0.71665700  0.91687200  0.42989600  1
  Li  Li5  1  0.00000000  0.50000000  0.00000000  1
  Li  Li6  1  0.56926500  0.63413900  0.14126000  1
  Li  Li7  1  0.00000000  0.50000000  0.50000000  1
  Co  Co0  1  0.56507000  0.63698800  0.63883600  1
  Co  Co1  1  0.43493000  0.36301200  0.36116400  1
  Co  Co2  1  0.14149200  0.77899500  0.77715900  1
  Co  Co3  1  0.71530200  0.92564800  0.93058400  1
  Co  Co4  1  0.28469800  0.07435200  0.06941600  1
  Co  Co5  1  0.85850800  0.22100500  0.22284100  1
  O  O0  1  0.38031200  0.68734100  0.46904900  1
  O  O1  1  0.91180900  0.84479800  0.61766500  1
  O  O2  1  0.50499500  0.96515700  0.74622700  1
  O  O3  1  0.22121200  0.41655400  0.19206300  1
  O  O4  1  0.75103900  0.54639200  0.32270300  1
  O  O5  1  0.07869400  0.13824800  0.90099700  1
  O  O6  1  0.64940200  0.26866000  0.04008800  1
  O  O7  1  0.24896100  0.45360800  0.67729700  1
  O  O8  1  0.77878800  0.58344600  0.80793700  1
  O  O9  1  0.35059800  0.73134000  0.95991200  1
  O  O10  1  0.08819100  0.15520200  0.38233500  1
  O  O11  1  0.61968800  0.31265900  0.53095100  1
  O  O12  1  0.92130600  0.86175200  0.09900300  1
  O  O13  1  0.49500500  0.03484300  0.25377300  1
loop_
_geom_bond_atom_site_label_1
_geom_bond_atom_site_label_2
_geom_bond_distance
_geom_bond_site_symmetry_2
Li0 O11 2.058415 1_555
Li0 O10 2.064112 1_555
Li0 O7 2.085206 1_555
Li0 O2 2.128717 1_545
Li0 O1 2.258228 1_445
Li0 O0 2.300800 1_545
Li1 O1 2.089186 1_545
Li1 O2 2.104563 1_545
Li1 O8 2.106044 1_555
Li1 O5 2.122447 1_655
Li1 O11 2.158196 1_555
Li1 O7 2.330427 1_655
Li2 O7 2.023121 1_555
Li2 O6 2.111416 1_556
Li2 O5 2.130787 1_555
Li2 O9 2.131349 1_555
Li2 O8 2.132883 1_555
Li2 O2 2.313387 1_545
Li3 O10 2.089186 1_565
Li3 O13 2.104563 1_565
Li3 O3 2.106044 1_555
Li3 O12 2.122447 1_455
Li3 O0 2.158196 1_555
Li3 O4 2.330427 1_455
Li4 O0 2.058415 1_555
Li4 O1 2.064112 1_555
Li4 O4 2.085206 1_555
Li4 O13 2.128717 1_565
Li4 O10 2.258228 1_665
Li4 O11 2.300800 1_565
Li5 O5 2.104024 1_554
Li5 O12 2.104024 1_455
Li5 O6 2.123700 1_455
Li5 O9 2.123700 1_554
Li5 O8 2.171015 1_454
Li5 O3 2.171015 1_555
Li6 O4 2.023121 1_555
Li6 O9 2.111416 1_554
Li6 O12 2.130787 1_555
Li6 O6 2.131349 1_555
Li6 O3 2.132883 1_555
Li6 O13 2.313387 1_565
Li7 O4 2.038074 1_455
Li7 O7 2.038074 1_555
Li7 O0 2.122143 1_555
Li7 O11 2.122143 1_455
Li7 O10 2.132422 1_555
Li7 O1 2.132422 1_455
Co0 O0 1.850967 1_555
Co0 O7 1.870490 1_555
Co0 O8 1.908121 1_555
Co0 O11 1.930674 1_555
Co0 O2 1.955603 1_555
Co0 O1 1.977418 1_555
Co1 O11 1.850967 1_555
Co1 O4 1.870490 1_555
Co1 O3 1.908121 1_555
Co1 O0 1.930674 1_555
Co1 O13 1.955603 1_555
Co1 O10 1.977418 1_555
Co2 O1 1.895604 1_455
Co2 O9 1.998713 1_555
Co2 O7 2.023322 1_555
Co2 O2 2.046032 1_555
Co2 O8 2.058954 1_455
Co2 O5 2.163158 1_565
Co3 O12 1.907623 1_556
Co3 O2 1.999627 1_555
Co3 O6 2.038626 1_566
Co3 O9 2.059415 1_555
Co3 O8 2.090412 1_555
Co3 O5 2.090475 1_665
Co4 O5 1.907623 1_554
Co4 O13 1.999627 1_555
Co4 O9 2.038626 1_544
Co4 O6 2.059415 1_555
Co4 O3 2.090412 1_555
Co4 O12 2.090475 1_445
Co5 O10 1.895604 1_655
Co5 O6 1.998713 1_555
Co5 O4 2.023322 1_555
Co5 O13 2.046032 1_555
Co5 O3 2.058954 1_655
Co5 O12 2.163158 1_545
