# generated using pymatgen
data_Cu2SnSe3
_symmetry_space_group_name_H-M   'P 1'
_cell_length_a   7.06876793
_cell_length_b   7.06876793
_cell_length_c   26.82925441
_cell_angle_alpha   87.55456123
_cell_angle_beta   87.55456123
_cell_angle_gamma   120.00724340
_symmetry_Int_Tables_number   1
_chemical_formula_structural   Cu2SnSe3
_chemical_formula_sum   'Cu16 Sn8 Se24'
_cell_volume   1156.66482417
_cell_formula_units_Z   8
loop_
 _symmetry_equiv_pos_site_id
 _symmetry_equiv_pos_as_xyz
  1  'x, y, z'
loop_
 _atom_site_type_symbol
 _atom_site_label
 _atom_site_symmetry_multiplicity
 _atom_site_fract_x
 _atom_site_fract_y
 _atom_site_fract_z
 _atom_site_occupancy
  Cu  Cu0  1  0.68261400  0.85492600  0.98546400  1
  Cu  Cu1  1  0.85492600  0.68261400  0.48546400  1
  Cu  Cu2  1  0.02518900  0.51708700  0.98534500  1
  Cu  Cu3  1  0.51708700  0.02518900  0.48534500  1
  Cu  Cu4  1  0.37361500  0.88343400  0.86046900  1
  Cu  Cu5  1  0.88343400  0.37361500  0.36046900  1
  Cu  Cu6  1  0.06244000  0.22539800  0.85995200  1
  Cu  Cu7  1  0.22539800  0.06244000  0.35995200  1
  Cu  Cu8  1  0.10014500  0.91864100  0.73545900  1
  Cu  Cu9  1  0.91864100  0.10014500  0.23545900  1
  Cu  Cu10  1  0.41965700  0.58355100  0.73532400  1
  Cu  Cu11  1  0.58355100  0.41965700  0.23532400  1
  Cu  Cu12  1  0.12660800  0.63512600  0.60976900  1
  Cu  Cu13  1  0.63512600  0.12660800  0.10976900  1
  Cu  Cu14  1  0.47248500  0.29267600  0.61037300  1
  Cu  Cu15  1  0.29267600  0.47248500  0.11037300  1
  Sn  Sn0  1  0.33043400  0.16635600  0.98076900  1
  Sn  Sn1  1  0.16635600  0.33043400  0.48076900  1
  Sn  Sn2  1  0.71701700  0.56959300  0.85632500  1
  Sn  Sn3  1  0.56959300  0.71701700  0.35632500  1
  Sn  Sn4  1  0.75857200  0.27390400  0.73075800  1
  Sn  Sn5  1  0.27390400  0.75857200  0.23075800  1
  Sn  Sn6  1  0.78527400  0.95181800  0.60626800  1
  Sn  Sn7  1  0.95181800  0.78527400  0.10626800  1
  Se  Se0  1  0.16442500  0.32911200  0.58135200  1
  Se  Se1  1  0.32911200  0.16442500  0.08135200  1
  Se  Se2  1  0.71062900  0.54370800  0.95684100  1
  Se  Se3  1  0.54370800  0.71062900  0.45684100  1
  Se  Se4  1  0.76943300  0.91262000  0.70684500  1
  Se  Se5  1  0.91262000  0.76943300  0.20684500  1
  Se  Se6  1  0.12856500  0.62403200  0.70009000  1
  Se  Se7  1  0.62403200  0.12856500  0.20009000  1
  Se  Se8  1  0.40929700  0.26680500  0.70086000  1
  Se  Se9  1  0.26680500  0.40929700  0.20086000  1
  Se  Se10  1  0.72676600  0.20848000  0.83132500  1
  Se  Se11  1  0.20848000  0.72676600  0.33132500  1
  Se  Se12  1  0.08328100  0.92288200  0.82571500  1
  Se  Se13  1  0.92288200  0.08328100  0.32571500  1
  Se  Se14  1  0.36068600  0.83583900  0.95075600  1
  Se  Se15  1  0.83583900  0.36068600  0.45075600  1
  Se  Se16  1  0.45048700  0.97270400  0.57550200  1
  Se  Se17  1  0.97270400  0.45048700  0.07550200  1
  Se  Se18  1  0.37162300  0.56953100  0.82565200  1
  Se  Se19  1  0.56953100  0.37162300  0.32565200  1
  Se  Se20  1  0.99874600  0.19341000  0.95042700  1
  Se  Se21  1  0.19341000  0.99874600  0.45042700  1
  Se  Se22  1  0.80691700  0.61786400  0.57573100  1
  Se  Se23  1  0.61786400  0.80691700  0.07573100  1
loop_
_geom_bond_atom_site_label_1
_geom_bond_atom_site_label_2
_geom_bond_distance
_geom_bond_site_symmetry_2
Cu0 Se23 2.422740 1_556
Cu0 Se20 2.425497 1_565
Cu0 Se14 2.438910 1_555
Cu0 Se2 2.456738 1_555
Cu1 Se22 2.422740 1_555
Cu1 Se21 2.425497 1_655
Cu1 Se15 2.438910 1_555
Cu1 Se3 2.456738 1_555
Cu2 Se14 2.418950 1_555
Cu2 Se17 2.421081 1_456
Cu2 Se20 2.432612 1_455
Cu2 Se2 2.473007 1_455
Cu3 Se15 2.418950 1_555
Cu3 Se16 2.421081 1_545
Cu3 Se21 2.432612 1_545
Cu3 Se3 2.473007 1_545
Cu4 Se14 2.422818 1_555
Cu4 Se12 2.423353 1_555
Cu4 Se18 2.437840 1_555
Cu4 Se10 2.462824 1_565
Cu5 Se15 2.422818 1_555
Cu5 Se13 2.423353 1_555
Cu5 Se19 2.437840 1_555
Cu5 Se11 2.462824 1_655
Cu6 Se18 2.420868 1_555
Cu6 Se20 2.429829 1_455
Cu6 Se12 2.430933 1_545
Cu6 Se10 2.472632 1_455
Cu7 Se19 2.420868 1_555
Cu7 Se21 2.429829 1_545
Cu7 Se13 2.430933 1_455
Cu7 Se11 2.472632 1_545
Cu8 Se6 2.418376 1_555
Cu8 Se12 2.421552 1_555
Cu8 Se8 2.438599 1_565
Cu8 Se4 2.472356 1_455
Cu9 Se7 2.418376 1_555
Cu9 Se13 2.421552 1_555
Cu9 Se9 2.438599 1_655
Cu9 Se5 2.472356 1_545
Cu10 Se18 2.423585 1_555
Cu10 Se8 2.427326 1_555
Cu10 Se6 2.437475 1_555
Cu10 Se4 2.458123 1_555
Cu11 Se19 2.423585 1_555
Cu11 Se9 2.427326 1_555
Cu11 Se7 2.437475 1_555
Cu11 Se5 2.458123 1_555
Cu12 Se22 2.421870 1_455
Cu12 Se6 2.422021 1_555
Cu12 Se16 2.439208 1_555
Cu12 Se0 2.456344 1_555
Cu13 Se23 2.421870 1_545
Cu13 Se7 2.422021 1_555
Cu13 Se17 2.439208 1_555
Cu13 Se1 2.456344 1_555
Cu14 Se16 2.420008 1_545
Cu14 Se8 2.431984 1_555
Cu14 Se22 2.435408 1_555
Cu14 Se0 2.470443 1_555
Cu15 Se17 2.420008 1_455
Cu15 Se9 2.431984 1_555
Cu15 Se23 2.435408 1_555
Cu15 Se1 2.470443 1_555
Se0 Sn1 2.697613 1_555
Se0 Sn6 2.699696 1_445
Se1 Sn0 2.697613 1_554
Se1 Sn7 2.699696 1_445
Se2 Sn2 2.692085 1_555
Se2 Sn0 2.699315 1_555
Se3 Sn3 2.692085 1_555
Se3 Sn1 2.699315 1_555
Se4 Sn6 2.692598 1_555
Se4 Sn4 2.696533 1_565
Se5 Sn7 2.692598 1_555
Se5 Sn5 2.696533 1_655
Se6 Sn4 2.609773 1_455
Se7 Sn5 2.609773 1_545
Se8 Sn4 2.605791 1_555
Se9 Sn5 2.605791 1_555
Se10 Sn4 2.698541 1_555
Se10 Sn2 2.699746 1_555
Se11 Sn5 2.698541 1_555
Se11 Sn3 2.699746 1_555
Se12 Sn2 2.605882 1_455
Se13 Sn3 2.605882 1_545
Se14 Sn0 2.607338 1_565
Se15 Sn1 2.607338 1_655
Se16 Sn6 2.609476 1_555
Se17 Sn7 2.609476 1_555
Se18 Sn2 2.609331 1_555
Se19 Sn3 2.609331 1_555
Se20 Sn0 2.606645 1_655
Se21 Sn1 2.606645 1_565
Se22 Sn6 2.604390 1_555
Se23 Sn7 2.604390 1_555
