# generated using pymatgen
data_Mg14BiBO16
_symmetry_space_group_name_H-M   'P 1'
_cell_length_a   4.41270200
_cell_length_b   8.58088700
_cell_length_c   8.77657500
_cell_angle_alpha   90.00000000
_cell_angle_beta   90.00000000
_cell_angle_gamma   90.00000000
_symmetry_Int_Tables_number   1
_chemical_formula_structural   Mg14BiBO16
_chemical_formula_sum   'Mg14 Bi1 B1 O16'
_cell_volume   332.32411038
_cell_formula_units_Z   1
loop_
 _symmetry_equiv_pos_site_id
 _symmetry_equiv_pos_as_xyz
  1  'x, y, z'
loop_
 _atom_site_type_symbol
 _atom_site_label
 _atom_site_symmetry_multiplicity
 _atom_site_fract_x
 _atom_site_fract_y
 _atom_site_fract_z
 _atom_site_occupancy
  Mg  Mg0  1  0.00000000  0.00000000  0.50000000  1
  Mg  Mg1  1  0.00000000  0.50000000  0.50000000  1
  Mg  Mg2  1  0.50000000  0.76715600  0.00000000  1
  Mg  Mg3  1  0.50000000  0.23284400  0.00000000  1
  Mg  Mg4  1  0.50000000  0.75339600  0.50000000  1
  Mg  Mg5  1  0.50000000  0.24660400  0.50000000  1
  Mg  Mg6  1  0.50000000  0.00000000  0.75097300  1
  Mg  Mg7  1  0.50000000  0.50000000  0.73813300  1
  Mg  Mg8  1  0.50000000  0.00000000  0.24902700  1
  Mg  Mg9  1  0.50000000  0.50000000  0.26186700  1
  Mg  Mg10  1  0.00000000  0.75931100  0.74124800  1
  Mg  Mg11  1  0.00000000  0.24068900  0.74124800  1
  Mg  Mg12  1  0.00000000  0.75931100  0.25875200  1
  Mg  Mg13  1  0.00000000  0.24068900  0.25875200  1
  Bi  Bi0  1  0.00000000  0.50000000  0.00000000  1
  B  B0  1  0.00000000  0.00000000  0.00000000  1
  O  O0  1  0.00000000  0.00000000  0.72802300  1
  O  O1  1  0.00000000  0.50000000  0.72770400  1
  O  O2  1  0.00000000  0.00000000  0.27197700  1
  O  O3  1  0.00000000  0.50000000  0.27229600  1
  O  O4  1  0.50000000  0.74863300  0.75317100  1
  O  O5  1  0.50000000  0.25136700  0.75317100  1
  O  O6  1  0.50000000  0.74863300  0.24682900  1
  O  O7  1  0.50000000  0.25136700  0.24682900  1
  O  O8  1  0.50000000  0.00000000  0.00000000  1
  O  O9  1  0.50000000  0.50000000  0.00000000  1
  O  O10  1  0.50000000  0.00000000  0.50000000  1
  O  O11  1  0.50000000  0.50000000  0.50000000  1
  O  O12  1  0.00000000  0.84500800  0.00000000  1
  O  O13  1  0.00000000  0.15499200  0.00000000  1
  O  O14  1  0.00000000  0.74896000  0.50000000  1
  O  O15  1  0.00000000  0.25104000  0.50000000  1
loop_
_geom_bond_atom_site_label_1
_geom_bond_atom_site_label_2
_geom_bond_distance
_geom_bond_site_symmetry_2
Mg0 O0 2.001261 1_555
Mg0 O2 2.001261 1_555
Mg0 O14 2.154146 1_545
Mg0 O15 2.154146 1_555
Mg0 O10 2.206351 1_455
Mg0 O10 2.206351 1_555
Mg1 O1 1.998461 1_555
Mg1 O3 1.998461 1_555
Mg1 O15 2.136298 1_555
Mg1 O14 2.136298 1_555
Mg1 O11 2.206351 1_455
Mg1 O11 2.206351 1_555
Mg2 O8 1.998008 1_565
Mg2 O6 2.172136 1_555
Mg2 O4 2.172136 1_554
Mg2 O9 2.292435 1_555
Mg2 O12 2.305268 1_655
Mg2 O12 2.305268 1_555
Mg3 O8 1.998008 1_555
Mg3 O7 2.172136 1_555
Mg3 O5 2.172136 1_554
Mg3 O9 2.292435 1_555
Mg3 O13 2.305268 1_655
Mg3 O13 2.305268 1_555
Mg4 O10 2.116081 1_565
Mg4 O11 2.174362 1_555
Mg4 O14 2.206679 1_555
Mg4 O14 2.206679 1_655
Mg4 O4 2.222350 1_555
Mg4 O6 2.222350 1_555
Mg5 O10 2.116081 1_555
Mg5 O11 2.174362 1_555
Mg5 O15 2.206679 1_655
Mg5 O15 2.206679 1_555
Mg5 O5 2.222350 1_555
Mg5 O7 2.222350 1_555
Mg6 O5 2.157038 1_555
Mg6 O4 2.157038 1_545
Mg6 O8 2.185604 1_556
Mg6 O10 2.202683 1_555
Mg6 O0 2.215526 1_555
Mg6 O0 2.215526 1_655
Mg7 O11 2.089992 1_555
Mg7 O5 2.137570 1_555
Mg7 O4 2.137570 1_555
Mg7 O1 2.208249 1_655
Mg7 O1 2.208249 1_555
Mg7 O9 2.298295 1_556
Mg8 O6 2.157038 1_545
Mg8 O7 2.157038 1_555
Mg8 O8 2.185604 1_555
Mg8 O10 2.202683 1_555
Mg8 O2 2.215526 1_555
Mg8 O2 2.215526 1_655
Mg9 O11 2.089992 1_555
Mg9 O6 2.137570 1_555
Mg9 O7 2.137570 1_555
Mg9 O3 2.208249 1_655
Mg9 O3 2.208249 1_555
Mg9 O9 2.298295 1_555
Mg10 O0 2.068584 1_565
Mg10 O14 2.119193 1_555
Mg10 O4 2.210731 1_555
Mg10 O4 2.210731 1_455
Mg10 O1 2.228291 1_555
Mg10 O12 2.387047 1_556
Mg11 O0 2.068584 1_555
Mg11 O15 2.119193 1_555
Mg11 O5 2.210731 1_455
Mg11 O5 2.210731 1_555
Mg11 O1 2.228291 1_555
Mg11 O13 2.387047 1_556
Mg12 O2 2.068584 1_565
Mg12 O14 2.119193 1_555
Mg12 O6 2.210731 1_555
Mg12 O6 2.210731 1_455
Mg12 O3 2.228291 1_555
Mg12 O12 2.387047 1_555
Mg13 O2 2.068584 1_555
Mg13 O15 2.119193 1_555
Mg13 O7 2.210731 1_555
Mg13 O7 2.210731 1_455
Mg13 O3 2.228291 1_555
Mg13 O13 2.387047 1_555
Bi0 O9 2.206351 1_555
Bi0 O9 2.206351 1_455
Bi0 O3 2.389826 1_555
Bi0 O1 2.389826 1_554
B0 O13 1.329969 1_555
B0 O12 1.329969 1_545
B0 O8 2.206351 1_555
B0 O8 2.206351 1_455
