# generated using pymatgen
data_Mg14VZn
_symmetry_space_group_name_H-M   'P 1'
_cell_length_a   6.27351213
_cell_length_b   6.27059227
_cell_length_c   10.17103883
_cell_angle_alpha   90.00000000
_cell_angle_beta   90.00000000
_cell_angle_gamma   119.98461025
_symmetry_Int_Tables_number   1
_chemical_formula_structural   Mg14VZn
_chemical_formula_sum   'Mg14 V1 Zn1'
_cell_volume   346.56330517
_cell_formula_units_Z   1
loop_
 _symmetry_equiv_pos_site_id
 _symmetry_equiv_pos_as_xyz
  1  'x, y, z'
loop_
 _atom_site_type_symbol
 _atom_site_label
 _atom_site_symmetry_multiplicity
 _atom_site_fract_x
 _atom_site_fract_y
 _atom_site_fract_z
 _atom_site_occupancy
  Mg  Mg0  1  0.16805981  0.33402940  0.62500000  1
  Mg  Mg1  1  0.16807807  0.83403853  0.62500000  1
  Mg  Mg2  1  0.66806931  0.33695214  0.12500000  1
  Mg  Mg3  1  0.66550308  0.33294714  0.62500000  1
  Mg  Mg4  1  0.66806931  0.83111617  0.12500000  1
  Mg  Mg5  1  0.66550308  0.83255494  0.62500000  1
  Mg  Mg6  1  0.32788827  0.16273322  0.36498478  1
  Mg  Mg7  1  0.32788827  0.16273322  0.88501522  1
  Mg  Mg8  1  0.32788827  0.66515605  0.36498478  1
  Mg  Mg9  1  0.32788827  0.66515605  0.88501522  1
  Mg  Mg10  1  0.83640361  0.16820230  0.37204737  1
  Mg  Mg11  1  0.83640361  0.16820230  0.87795263  1
  Mg  Mg12  1  0.83829243  0.66914672  0.37184619  1
  Mg  Mg13  1  0.83829243  0.66914672  0.87815381  1
  V  V0  1  0.16561851  0.83280875  0.12500000  1
  Zn  Zn0  1  0.17015368  0.33507634  0.12500000  1
loop_
_geom_bond_atom_site_label_1
_geom_bond_atom_site_label_2
_geom_bond_distance
_geom_bond_site_symmetry_2
Mg0 Mg5 3.124113 1_555
Mg0 Mg3 3.124114 1_555
Mg0 Mg1 3.135296 1_555
Mg0 Mg1 3.135296 1_545
Mg0 Mg10 3.141192 1_455
Mg0 Mg11 3.141192 1_455
Mg0 Mg5 3.149409 1_445
Mg0 Mg3 3.149410 1_455
Mg0 Mg7 3.198388 1_555
Mg0 Mg6 3.198388 1_555
Mg0 Mg9 3.198394 1_555
Mg0 Mg8 3.198394 1_555
Mg1 Mg3 3.125261 1_565
Mg1 Mg5 3.125262 1_555
Mg1 Mg12 3.137051 1_455
Mg1 Mg13 3.137051 1_455
Mg1 Mg3 3.148271 1_455
Mg1 Mg5 3.148271 1_455
Mg1 Mg9 3.190906 1_555
Mg1 Mg8 3.190906 1_555
Mg1 Mg6 3.190912 1_565
Mg1 Mg7 3.190912 1_565
Mg2 Mg6 3.061957 1_555
Mg2 Mg7 3.061957 1_554
Mg2 Mg4 3.098701 1_555
Mg2 V0 3.116090 1_655
Mg2 Zn0 3.117818 1_555
Mg2 Zn0 3.155727 1_655
Mg2 V0 3.157449 1_545
Mg2 Mg4 3.171891 1_545
Mg3 Mg5 3.132837 1_555
Mg3 Mg5 3.137755 1_545
Mg3 Mg7 3.218649 1_555
Mg3 Mg6 3.218649 1_555
Mg4 Mg9 3.061957 1_554
Mg4 Mg8 3.061957 1_555
Mg4 V0 3.116090 1_655
Mg4 Zn0 3.117818 1_555
Mg4 Zn0 3.155727 1_665
Mg4 V0 3.157449 1_555
Mg5 Mg8 3.218649 1_555
Mg5 Mg9 3.218649 1_555
Mg6 V0 3.028074 1_545
Mg6 Zn0 3.028857 1_555
Mg6 Mg8 3.120104 1_545
Mg6 Mg8 3.150489 1_555
Mg7 V0 3.028074 1_546
Mg7 Zn0 3.028857 1_556
Mg7 Mg9 3.120104 1_545
Mg7 Mg9 3.150489 1_555
Mg8 V0 3.028068 1_555
Mg8 Zn0 3.028864 1_555
Mg9 V0 3.028068 1_556
Mg9 Zn0 3.028864 1_556
Mg10 Zn0 3.098835 1_655
Mg10 Mg8 3.101448 1_655
Mg10 Mg6 3.101448 1_655
Mg10 Mg2 3.108970 1_555
Mg10 Mg4 3.108976 1_545
Mg10 Mg12 3.135314 1_545
Mg10 Mg12 3.135314 1_555
Mg10 Mg3 3.153253 1_555
Mg10 Mg5 3.153259 1_545
Mg10 Mg8 3.173990 1_545
Mg10 Mg6 3.173990 1_555
Mg11 Zn0 3.098835 1_656
Mg11 Mg9 3.101448 1_655
Mg11 Mg7 3.101448 1_655
Mg11 Mg2 3.108970 1_556
Mg11 Mg4 3.108976 1_546
Mg11 Mg13 3.135314 1_545
Mg11 Mg13 3.135314 1_555
Mg11 Mg3 3.153253 1_555
Mg11 Mg5 3.153259 1_545
Mg11 Mg9 3.173990 1_545
Mg11 Mg7 3.173990 1_555
Mg12 V0 3.076866 1_655
Mg12 Mg6 3.084857 1_665
Mg12 Mg8 3.084857 1_655
Mg12 Mg4 3.091854 1_555
Mg12 Mg2 3.091860 1_555
Mg12 Mg5 3.156738 1_555
Mg12 Mg3 3.156744 1_555
Mg12 Mg6 3.190357 1_555
Mg12 Mg8 3.190358 1_555
Mg13 V0 3.076866 1_656
Mg13 Mg7 3.084857 1_665
Mg13 Mg9 3.084857 1_655
Mg13 Mg4 3.091854 1_556
Mg13 Mg2 3.091860 1_556
Mg13 Mg5 3.156738 1_555
Mg13 Mg3 3.156744 1_555
Mg13 Mg7 3.190357 1_555
Mg13 Mg9 3.190358 1_555
V0 Zn0 3.135393 1_555
V0 Zn0 3.135393 1_565
