# generated using pymatgen
data_Mg6VCd
_symmetry_space_group_name_H-M   'P 1'
_cell_length_a   5.01660300
_cell_length_b   6.27481000
_cell_length_c   10.84999000
_cell_angle_alpha   90.00000000
_cell_angle_beta   90.00000000
_cell_angle_gamma   90.00000000
_symmetry_Int_Tables_number   1
_chemical_formula_structural   Mg6VCd
_chemical_formula_sum   'Mg12 V2 Cd2'
_cell_volume   341.53848799
_cell_formula_units_Z   2
loop_
 _symmetry_equiv_pos_site_id
 _symmetry_equiv_pos_as_xyz
  1  'x, y, z'
loop_
 _atom_site_type_symbol
 _atom_site_label
 _atom_site_symmetry_multiplicity
 _atom_site_fract_x
 _atom_site_fract_y
 _atom_site_fract_z
 _atom_site_occupancy
  Mg  Mg0  1  0.00000000  0.25210300  0.08265200  1
  Mg  Mg1  1  0.00000000  0.74789700  0.08265200  1
  Mg  Mg2  1  0.00000000  0.50000000  0.83453500  1
  Mg  Mg3  1  0.50000000  0.24175300  0.91324700  1
  Mg  Mg4  1  0.50000000  0.75824700  0.91324700  1
  Mg  Mg5  1  0.50000000  0.50000000  0.66739600  1
  Mg  Mg6  1  0.00000000  0.75210300  0.58265200  1
  Mg  Mg7  1  0.00000000  0.24789700  0.58265200  1
  Mg  Mg8  1  0.00000000  0.00000000  0.33453500  1
  Mg  Mg9  1  0.50000000  0.74175300  0.41324700  1
  Mg  Mg10  1  0.50000000  0.25824700  0.41324700  1
  Mg  Mg11  1  0.50000000  0.00000000  0.16739600  1
  V  V0  1  0.00000000  0.50000000  0.33467500  1
  V  V1  1  0.00000000  0.00000000  0.83467500  1
  Cd  Cd0  1  0.50000000  0.50000000  0.17159500  1
  Cd  Cd1  1  0.50000000  0.00000000  0.67159500  1
loop_
_geom_bond_atom_site_label_1
_geom_bond_atom_site_label_2
_geom_bond_distance
_geom_bond_site_symmetry_2
Mg0 Mg11 3.104739 1_455
Mg0 Mg11 3.104739 1_555
Mg0 Mg2 3.109152 1_554
Mg0 Mg3 3.110337 1_554
Mg0 Mg3 3.110337 1_454
Mg0 Mg1 3.111013 1_555
Mg0 V1 3.121130 1_554
Mg0 V0 3.145918 1_555
Mg0 Mg8 3.157736 1_555
Mg0 Mg1 3.163797 1_545
Mg1 Mg11 3.104739 1_565
Mg1 Mg11 3.104739 1_465
Mg1 Mg2 3.109152 1_554
Mg1 Mg4 3.110337 1_554
Mg1 Mg4 3.110337 1_454
Mg1 V1 3.121130 1_564
Mg1 V0 3.145918 1_555
Mg1 Mg8 3.157736 1_565
Mg2 Mg5 3.095190 1_455
Mg2 Mg5 3.095190 1_555
Mg2 Mg3 3.105929 1_555
Mg2 Mg4 3.105929 1_555
Mg2 Mg3 3.105929 1_455
Mg2 Mg4 3.105929 1_455
Mg2 V1 3.137405 1_565
Mg2 V1 3.137405 1_555
Mg2 Mg6 3.157736 1_555
Mg2 Mg7 3.157736 1_555
Mg3 Mg4 3.033908 1_545
Mg3 V1 3.052784 1_655
Mg3 V1 3.052784 1_555
Mg3 Mg5 3.121108 1_555
Mg3 Mg4 3.240902 1_555
Mg4 V1 3.052784 1_565
Mg4 V1 3.052784 1_665
Mg4 Mg5 3.121108 1_555
Mg5 Mg6 3.104739 1_555
Mg5 Mg6 3.104739 1_655
Mg5 Mg7 3.104739 1_655
Mg5 Mg7 3.104739 1_555
Mg5 Mg9 3.147226 1_555
Mg6 Mg8 3.109152 1_565
Mg6 Mg9 3.110337 1_455
Mg6 Mg9 3.110337 1_555
Mg6 Mg7 3.111013 1_565
Mg6 V0 3.121130 1_555
Mg6 V1 3.145918 1_565
Mg6 Mg7 3.163797 1_555
Mg7 Mg8 3.109152 1_555
Mg7 V0 3.121130 1_555
Mg7 V1 3.145918 1_555
Mg8 Mg9 3.105929 1_445
Mg8 Mg9 3.105929 1_545
Mg8 V0 3.137405 1_545
Mg8 V0 3.137405 1_555
Mg9 V0 3.052784 1_555
Mg9 V0 3.052784 1_655
Mg10 Mg9 3.033908 1_555
Mg10 V0 3.052784 1_555
Mg10 V0 3.052784 1_655
Mg10 Mg8 3.105929 1_555
Mg10 Mg8 3.105929 1_655
Mg10 Mg7 3.110337 1_655
Mg10 Mg7 3.110337 1_555
Mg10 Mg11 3.121108 1_555
Mg10 Mg5 3.147226 1_555
Mg10 Mg9 3.240902 1_545
Mg11 Mg8 3.095190 1_555
Mg11 Mg8 3.095190 1_655
Mg11 Mg9 3.121108 1_545
Mg11 Mg4 3.147226 1_544
Mg11 Mg3 3.147226 1_554
Cd0 Mg10 3.029129 1_555
Cd0 Mg9 3.029129 1_555
Cd0 V0 3.069595 1_655
Cd0 V0 3.069595 1_555
Cd0 Mg1 3.105231 1_655
Cd0 Mg1 3.105231 1_555
Cd0 Mg0 3.105231 1_655
Cd0 Mg0 3.105231 1_555
Cd0 Mg11 3.137736 1_555
Cd0 Mg11 3.137736 1_565
Cd0 Mg3 3.237759 1_554
Cd0 Mg4 3.237759 1_554
Cd1 Mg3 3.029129 1_555
Cd1 Mg4 3.029129 1_545
Cd1 V1 3.069595 1_655
Cd1 V1 3.069595 1_555
Cd1 Mg7 3.105231 1_655
Cd1 Mg7 3.105231 1_555
Cd1 Mg6 3.105231 1_645
Cd1 Mg6 3.105231 1_545
Cd1 Mg5 3.137736 1_545
Cd1 Mg5 3.137736 1_555
Cd1 Mg10 3.237759 1_555
Cd1 Mg9 3.237759 1_545
