# generated using pymatgen
data_Te2MoWSe2
_symmetry_space_group_name_H-M   'P 1'
_cell_length_a   3.43835631
_cell_length_b   3.43835631
_cell_length_c   39.16074500
_cell_angle_alpha   90.00000000
_cell_angle_beta   90.00000000
_cell_angle_gamma   120.00000594
_symmetry_Int_Tables_number   1
_chemical_formula_structural   Te2MoWSe2
_chemical_formula_sum   'Te4 Mo2 W2 Se4'
_cell_volume   400.94362281
_cell_formula_units_Z   2
loop_
 _symmetry_equiv_pos_site_id
 _symmetry_equiv_pos_as_xyz
  1  'x, y, z'
loop_
 _atom_site_type_symbol
 _atom_site_label
 _atom_site_symmetry_multiplicity
 _atom_site_fract_x
 _atom_site_fract_y
 _atom_site_fract_z
 _atom_site_occupancy
  Te  Te0  1  0.00000000  0.00000000  0.32913500  1
  Te  Te1  1  0.33333300  0.66666700  0.42203700  1
  Te  Te2  1  0.33333300  0.66666700  0.51736400  1
  Te  Te3  1  0.00000000  0.00000000  0.23438300  1
  Mo  Mo0  1  0.00000000  0.00000000  0.09392500  1
  Mo  Mo1  1  0.33333300  0.66666700  0.28175200  1
  W  W0  1  0.00000000  0.00000000  0.46968400  1
  W  W1  1  0.33333300  0.66666700  0.65753300  1
  Se  Se0  1  0.00000000  0.00000000  0.69945800  1
  Se  Se1  1  0.33333300  0.66666700  0.05213300  1
  Se  Se2  1  0.33333300  0.66666700  0.13571500  1
  Se  Se3  1  0.00000000  0.00000000  0.61563000  1
loop_
_geom_bond_atom_site_label_1
_geom_bond_atom_site_label_2
_geom_bond_distance
_geom_bond_site_symmetry_2
Te1 W0 2.724392 1_565
Te1 W0 2.724394 1_665
Te1 W0 2.724394 1_555
Te2 W0 2.725277 1_565
Te2 W0 2.725279 1_665
Te2 W0 2.725279 1_555
Mo0 Se2 2.572738 1_545
Mo0 Se2 2.572740 1_555
Mo0 Se2 2.572740 1_445
Mo0 Se1 2.572788 1_545
Mo0 Se1 2.572790 1_445
Mo0 Se1 2.572790 1_555
Mo1 Te3 2.716947 1_565
Mo1 Te3 2.716949 1_665
Mo1 Te3 2.716949 1_555
Mo1 Te0 2.717322 1_565
Mo1 Te0 2.717324 1_555
Mo1 Te0 2.717324 1_665
Se0 W1 2.576104 1_545
Se0 W1 2.576106 1_445
Se0 W1 2.576106 1_555
Se3 W1 2.575555 1_545
Se3 W1 2.575557 1_555
Se3 W1 2.575557 1_445
