# generated using pymatgen
data_Mg3MnTe4
_symmetry_space_group_name_H-M   'P 1'
_cell_length_a   4.56791572
_cell_length_b   4.56791366
_cell_length_c   12.80434728
_cell_angle_alpha   90.00000000
_cell_angle_beta   90.00000000
_cell_angle_gamma   90.00000000
_symmetry_Int_Tables_number   1
_chemical_formula_structural   Mg3MnTe4
_chemical_formula_sum   'Mg3 Mn1 Te4'
_cell_volume   267.17352074
_cell_formula_units_Z   1
loop_
 _symmetry_equiv_pos_site_id
 _symmetry_equiv_pos_as_xyz
  1  'x, y, z'
loop_
 _atom_site_type_symbol
 _atom_site_label
 _atom_site_symmetry_multiplicity
 _atom_site_fract_x
 _atom_site_fract_y
 _atom_site_fract_z
 _atom_site_occupancy
  Mg  Mg0  1  0.00000000  0.00000000  0.75397913  1
  Mg  Mg1  1  0.50000000  0.50000000  0.50000000  1
  Mg  Mg2  1  0.00000000  -0.00000000  0.24601987  1
  Mn  Mn0  1  0.50000000  0.50000000  -0.00000000  1
  Te  Te0  1  0.00000000  0.50000000  0.37271854  1
  Te  Te1  1  0.50000000  0.00000000  0.11987138  1
  Te  Te2  1  0.00000000  0.50000000  0.88012962  1
  Te  Te3  1  0.50000000  0.00000000  0.62728146  1
loop_
_geom_bond_atom_site_label_1
_geom_bond_atom_site_label_2
_geom_bond_distance
_geom_bond_site_symmetry_2
Mg0 Te2 2.797422 1_555
Mg0 Te2 2.797422 1_545
Mg0 Te3 2.801474 1_555
Mg0 Te3 2.801474 1_455
Mg1 Te3 2.805809 1_555
Mg1 Te3 2.805809 1_565
Mg1 Te0 2.805810 1_655
Mg1 Te0 2.805810 1_555
Mg2 Te1 2.797408 1_555
Mg2 Te1 2.797408 1_455
Mg2 Te0 2.801481 1_555
Mg2 Te0 2.801481 1_545
Mn0 Te2 2.751775 1_554
Mn0 Te2 2.751775 1_654
Mn0 Te1 2.751781 1_565
Mn0 Te1 2.751781 1_555
