# generated using pymatgen
data_CaMg
_symmetry_space_group_name_H-M   'P 1'
_cell_length_a   5.49388508
_cell_length_b   5.50539761
_cell_length_c   12.42891444
_cell_angle_alpha   90.00000000
_cell_angle_beta   90.00000000
_cell_angle_gamma   90.00000000
_symmetry_Int_Tables_number   1
_chemical_formula_structural   CaMg
_chemical_formula_sum   'Ca6 Mg6'
_cell_volume   375.92521697
_cell_formula_units_Z   6
loop_
 _symmetry_equiv_pos_site_id
 _symmetry_equiv_pos_as_xyz
  1  'x, y, z'
loop_
 _atom_site_type_symbol
 _atom_site_label
 _atom_site_symmetry_multiplicity
 _atom_site_fract_x
 _atom_site_fract_y
 _atom_site_fract_z
 _atom_site_occupancy
  Ca  Ca0  1  -0.00000000  0.50000000  0.17939627  1
  Ca  Ca1  1  0.50000000  0.50000000  0.37791129  1
  Ca  Ca2  1  0.50000000  -0.00000000  0.18915353  1
  Ca  Ca3  1  0.00000000  0.00000000  0.67939627  1
  Ca  Ca4  1  0.50000000  0.00000000  0.87791129  1
  Ca  Ca5  1  0.50000000  0.50000000  0.68915353  1
  Mg  Mg0  1  -0.00000000  0.50000000  0.51605335  1
  Mg  Mg1  1  -0.00000000  0.00000000  0.38115059  1
  Mg  Mg2  1  0.50000000  0.50000000  0.02300198  1
  Mg  Mg3  1  0.00000000  0.00000000  0.01605335  1
  Mg  Mg4  1  0.00000000  0.50000000  0.88115059  1
  Mg  Mg5  1  0.50000000  0.00000000  0.52300198  1
loop_
_geom_bond_atom_site_label_1
_geom_bond_atom_site_label_2
_geom_bond_distance
_geom_bond_site_symmetry_2
Ca0 Mg2 3.365129 1_555
Ca0 Mg2 3.365129 1_455
Ca0 Mg3 3.420375 1_565
Ca0 Mg3 3.420375 1_555
Ca0 Ca1 3.692342 1_555
Ca0 Ca1 3.692342 1_455
Ca0 Mg4 3.706870 1_554
Ca0 Mg1 3.723620 1_565
Ca0 Mg1 3.723620 1_555
Ca0 Ca2 3.890726 1_465
Ca0 Ca2 3.890726 1_565
Ca0 Ca2 3.890726 1_455
Ca0 Ca2 3.890726 1_555
Ca1 Mg0 3.239387 1_655
Ca1 Mg0 3.239387 1_555
Ca1 Mg5 3.290792 1_555
Ca1 Mg5 3.290792 1_565
Ca1 Mg1 3.889044 1_565
Ca1 Mg1 3.889044 1_665
Ca1 Mg1 3.889044 1_555
Ca1 Mg1 3.889044 1_655
Ca2 Mg2 3.441209 1_555
Ca2 Mg2 3.441209 1_545
Ca2 Mg3 3.489186 1_555
Ca2 Mg3 3.489186 1_655
Ca2 Mg1 3.638708 1_555
Ca2 Mg1 3.638708 1_655
Ca3 Mg5 3.365129 1_455
Ca3 Mg5 3.365129 1_555
Ca3 Mg0 3.420375 1_555
Ca3 Mg0 3.420375 1_545
Ca3 Ca4 3.692342 1_455
Ca3 Ca4 3.692342 1_555
Ca3 Mg1 3.706870 1_555
Ca3 Mg4 3.723620 1_555
Ca3 Mg4 3.723620 1_545
Ca3 Ca5 3.890726 1_555
Ca3 Ca5 3.890726 1_445
Ca3 Ca5 3.890726 1_455
Ca3 Ca5 3.890726 1_545
Ca4 Mg3 3.239387 1_656
Ca4 Mg3 3.239387 1_556
Ca4 Mg2 3.290792 1_546
Ca4 Mg2 3.290792 1_556
Ca4 Mg4 3.889044 1_645
Ca4 Mg4 3.889044 1_545
Ca4 Mg4 3.889044 1_555
Ca4 Mg4 3.889044 1_655
Ca5 Mg5 3.441209 1_555
Ca5 Mg5 3.441209 1_565
Ca5 Mg0 3.489186 1_555
Ca5 Mg0 3.489186 1_655
Ca5 Mg4 3.638708 1_555
Ca5 Mg4 3.638708 1_655
Mg0 Mg1 3.223144 1_555
Mg0 Mg1 3.223144 1_565
Mg1 Mg5 3.264057 1_455
Mg1 Mg5 3.264057 1_555
Mg2 Mg4 3.264057 1_554
Mg2 Mg4 3.264057 1_654
Mg3 Mg4 3.223144 1_544
Mg3 Mg4 3.223144 1_554
