# generated using pymatgen
data_BaAl2(SiO4)2
_symmetry_space_group_name_H-M   'P 1'
_cell_length_a   5.34500962
_cell_length_b   5.34500962
_cell_length_c   7.96328900
_cell_angle_alpha   90.00000000
_cell_angle_beta   90.00000000
_cell_angle_gamma   119.99999525
_symmetry_Int_Tables_number   1
_chemical_formula_structural   BaAl2(SiO4)2
_chemical_formula_sum   'Ba1 Al2 Si2 O8'
_cell_volume   197.02444438
_cell_formula_units_Z   1
loop_
 _symmetry_equiv_pos_site_id
 _symmetry_equiv_pos_as_xyz
  1  'x, y, z'
loop_
 _atom_site_type_symbol
 _atom_site_label
 _atom_site_symmetry_multiplicity
 _atom_site_fract_x
 _atom_site_fract_y
 _atom_site_fract_z
 _atom_site_occupancy
  Ba  Ba0  1  0.00000000  0.00000000  0.00000000  1
  Al  Al0  1  0.66666700  0.33333300  0.70306700  1
  Al  Al1  1  0.33333300  0.66666700  0.29693300  1
  Si  Si0  1  0.66666700  0.33333300  0.28647200  1
  Si  Si1  1  0.33333300  0.66666700  0.71352800  1
  O  O0  1  0.66666700  0.33333300  0.48741400  1
  O  O1  1  0.33333300  0.66666700  0.51258600  1
  O  O2  1  0.56237200  0.98877100  0.79042900  1
  O  O3  1  0.42640000  0.43762800  0.79042900  1
  O  O4  1  0.01122900  0.57360000  0.79042900  1
  O  O5  1  0.43762800  0.01122900  0.20957100  1
  O  O6  1  0.57360000  0.56237200  0.20957100  1
  O  O7  1  0.98877100  0.42640000  0.20957100  1
loop_
_geom_bond_atom_site_label_1
_geom_bond_atom_site_label_2
_geom_bond_distance
_geom_bond_site_symmetry_2
Ba0 O5 2.849537 1_555
Ba0 O2 2.849537 1_444
Ba0 O3 2.849539 1_554
Ba0 O6 2.849539 1_445
Ba0 O4 2.849541 1_544
Ba0 O7 2.849541 1_455
Al0 O0 1.717307 1_555
Al0 O3 1.777608 1_555
Al0 O2 1.777608 1_545
Al0 O4 1.777608 1_655
Al1 O1 1.717307 1_555
Al1 O6 1.777608 1_555
Al1 O5 1.777608 1_565
Al1 O7 1.777608 1_455
O0 Si0 1.600159 1_555
O1 Si1 1.600159 1_555
O2 Si1 1.652309 1_555
O3 Si1 1.652316 1_555
O4 Si1 1.652307 1_555
O5 Si0 1.652309 1_555
O6 Si0 1.652316 1_555
O7 Si0 1.652307 1_555
