# generated using pymatgen
data_Na2Ca2(SiO3)3
_symmetry_space_group_name_H-M   'P 1'
_cell_length_a   10.59884748
_cell_length_b   10.59884748
_cell_length_c   13.30743668
_cell_angle_alpha   89.71984346
_cell_angle_beta   89.71984346
_cell_angle_gamma   59.79703769
_symmetry_Int_Tables_number   1
_chemical_formula_structural   Na2Ca2(SiO3)3
_chemical_formula_sum   'Na12 Ca12 Si18 O54'
_cell_volume   1291.94363648
_cell_formula_units_Z   6
loop_
 _symmetry_equiv_pos_site_id
 _symmetry_equiv_pos_as_xyz
  1  'x, y, z'
loop_
 _atom_site_type_symbol
 _atom_site_label
 _atom_site_symmetry_multiplicity
 _atom_site_fract_x
 _atom_site_fract_y
 _atom_site_fract_z
 _atom_site_occupancy
  Na  Na0  1  0.16360200  0.33856500  0.00227900  1
  Na  Na1  1  0.50215300  0.16703700  0.66703600  1
  Na  Na2  1  0.34514900  0.49039800  0.33706200  1
  Na  Na3  1  0.83296300  0.49784700  0.33296400  1
  Na  Na4  1  0.66143500  0.83639800  0.99772100  1
  Na  Na5  1  0.50960200  0.65485100  0.66293800  1
  Na  Na6  1  0.31379900  0.97522400  0.05945500  1
  Na  Na7  1  0.71348900  0.31265500  0.72269300  1
  Na  Na8  1  0.68734500  0.28651100  0.27730700  1
  Na  Na9  1  0.02477600  0.68620100  0.94054500  1
  Na  Na10  1  0.15466700  0.37262900  0.51063100  1
  Na  Na11  1  0.62737100  0.84533300  0.48936900  1
  Ca  Ca0  1  0.30333600  0.00020300  0.33254700  1
  Ca  Ca1  1  0.70076900  0.29923100  0.00000000  1
  Ca  Ca2  1  0.99979700  0.69666400  0.66745300  1
  Ca  Ca3  1  0.82350600  0.00002000  0.83271700  1
  Ca  Ca4  1  0.18386300  0.81613700  0.50000000  1
  Ca  Ca5  1  0.99998000  0.17649400  0.16728300  1
  Ca  Ca6  1  0.97512500  0.69805300  0.40963000  1
  Ca  Ca7  1  0.30194700  0.02487500  0.59037000  1
  Ca  Ca8  1  0.46863500  0.15126300  0.18034300  1
  Ca  Ca9  1  0.38100100  0.46898200  0.84628100  1
  Ca  Ca10  1  0.84873700  0.53136500  0.81965700  1
  Ca  Ca11  1  0.53101800  0.61899900  0.15371900  1
  Si  Si0  1  0.04438200  0.15261800  0.88942800  1
  Si  Si1  1  0.80207900  0.04311900  0.55267500  1
  Si  Si2  1  0.14985800  0.80231100  0.22260600  1
  Si  Si3  1  0.95688100  0.19792100  0.44732500  1
  Si  Si4  1  0.84738200  0.95561800  0.11057200  1
  Si  Si5  1  0.19768900  0.85014200  0.77739400  1
  Si  Si6  1  0.17651100  0.32178300  0.77028100  1
  Si  Si7  1  0.49663400  0.17376400  0.43938200  1
  Si  Si8  1  0.32475100  0.50077200  0.10323700  1
  Si  Si9  1  0.82623600  0.50336600  0.56061800  1
  Si  Si10  1  0.67821700  0.82348900  0.22971900  1
  Si  Si11  1  0.49922800  0.67524900  0.89676300  1
  Si  Si12  1  0.47472300  0.14896600  0.90548000  1
  Si  Si13  1  0.37332800  0.47628300  0.56976200  1
  Si  Si14  1  0.14567000  0.38174200  0.23806900  1
  Si  Si15  1  0.52371700  0.62667200  0.43023800  1
  Si  Si16  1  0.85103400  0.52527700  0.09452000  1
  Si  Si17  1  0.61825800  0.85433000  0.76193100  1
  O  O0  1  0.05687500  0.28606200  0.82802000  1
  O  O1  1  0.65580400  0.05904600  0.49306000  1
  O  O2  1  0.28369300  0.65728400  0.16071700  1
  O  O3  1  0.94095400  0.34419600  0.50694000  1
  O  O4  1  0.71393800  0.94312500  0.17198000  1
  O  O5  1  0.34271600  0.71630700  0.83928300  1
  O  O6  1  0.57446800  0.22467600  0.89291600  1
  O  O7  1  0.19894700  0.58724500  0.55611200  1
  O  O8  1  0.22320300  0.20509000  0.22999500  1
  O  O9  1  0.41275500  0.80105300  0.44388800  1
  O  O10  1  0.77532400  0.42553200  0.10708400  1
  O  O11  1  0.79491000  0.77679700  0.77000500  1
  O  O12  1  0.23626400  0.24074800  0.66503700  1
  O  O13  1  0.51351200  0.22764400  0.32923500  1
  O  O14  1  0.25232200  0.51807100  0.99484500  1
  O  O15  1  0.77235600  0.48648800  0.67076500  1
  O  O16  1  0.75925200  0.76373600  0.33496300  1
  O  O17  1  0.48192900  0.74767800  0.00515500  1
  O  O18  1  0.31899000  0.26768300  0.84851200  1
  O  O19  1  0.41484400  0.32075900  0.51400500  1
  O  O20  1  0.26688500  0.41382000  0.17920700  1
  O  O21  1  0.67924100  0.58515600  0.48599500  1
  O  O22  1  0.73231700  0.68101000  0.15148800  1
  O  O23  1  0.58618000  0.73311500  0.82079300  1
  O  O24  1  0.16817900  0.00154900  0.83310500  1
  O  O25  1  0.83356400  0.16643600  0.50000000  1
  O  O26  1  0.99845100  0.83182100  0.16689500  1
  O  O27  1  0.88039200  0.18151700  0.87202000  1
  O  O28  1  0.93776700  0.87770000  0.53238400  1
  O  O29  1  0.18254900  0.93540600  0.20751000  1
  O  O30  1  0.12230000  0.06223300  0.46761600  1
  O  O31  1  0.81848300  0.11960800  0.12798000  1
  O  O32  1  0.06459400  0.81745100  0.79249000  1
  O  O33  1  0.55644800  0.99991200  0.83562900  1
  O  O34  1  0.44709300  0.55290700  0.50000000  1
  O  O35  1  0.00008800  0.44355200  0.16437100  1
  O  O36  1  0.43987500  0.11107100  0.01540600  1
  O  O37  1  0.44422400  0.44206600  0.68070900  1
  O  O38  1  0.10177900  0.46378700  0.34403000  1
  O  O39  1  0.55793400  0.55577600  0.31929100  1
  O  O40  1  0.88892900  0.56012500  0.98459400  1
  O  O41  1  0.53621300  0.89822100  0.65597000  1
  O  O42  1  0.08810400  0.15917100  0.00492500  1
  O  O43  1  0.75680100  0.08243400  0.66979800  1
  O  O44  1  0.15030600  0.75050200  0.33815700  1
  O  O45  1  0.91756600  0.24319900  0.33020200  1
  O  O46  1  0.84082900  0.91189600  0.99507500  1
  O  O47  1  0.24949800  0.84969400  0.66184300  1
  O  O48  1  0.09157600  0.49899600  0.77604500  1
  O  O49  1  0.39951000  0.09503500  0.45069800  1
  O  O50  1  0.50147100  0.40872000  0.11113500  1
  O  O51  1  0.90496500  0.60049000  0.54930200  1
  O  O52  1  0.50100400  0.90842400  0.22395500  1
  O  O53  1  0.59128000  0.49852900  0.88886500  1
loop_
_geom_bond_atom_site_label_1
_geom_bond_atom_site_label_2
_geom_bond_distance
_geom_bond_site_symmetry_2
Na0 O42 2.405537 1_555
Na0 O18 2.490204 1_554
Na0 O14 2.512165 1_554
Na0 O35 2.634599 1_555
Na0 O40 2.677318 1_454
Na0 O36 2.704765 1_555
Na0 O0 2.763751 1_554
Na0 O20 2.880980 1_555
Na1 O43 2.378137 1_555
Na1 O19 2.475286 1_555
Na1 O12 2.517583 1_555
Na1 O37 2.666576 1_555
Na1 O41 2.690418 1_545
Na1 O1 2.726872 1_555
Na1 O33 2.729547 1_545
Na1 O18 2.938460 1_555
Na2 O13 2.439628 1_555
Na2 O44 2.477288 1_555
Na2 O20 2.543748 1_555
Na2 O34 2.658018 1_555
Na2 O39 2.681019 1_555
Na2 O38 2.733323 1_555
Na2 O2 2.806259 1_555
Na2 O19 2.821723 1_555
Na3 O45 2.378137 1_555
Na3 O21 2.475286 1_555
Na3 O16 2.517583 1_555
Na3 O39 2.666576 1_555
Na3 O38 2.690418 1_655
Na3 O3 2.726872 1_555
Na3 O35 2.729547 1_655
Na3 O22 2.938460 1_555
Na4 O46 2.405537 1_555
Na4 O22 2.490204 1_556
Na4 O17 2.512165 1_556
Na4 O33 2.634599 1_555
Na4 O36 2.677318 1_566
Na4 O40 2.704765 1_555
Na4 O4 2.763751 1_556
Na4 O23 2.880980 1_555
Na5 O15 2.439628 1_555
Na5 O47 2.477288 1_555
Na5 O23 2.543748 1_555
Na5 O34 2.658018 1_555
Na5 O37 2.681019 1_555
Na5 O41 2.733323 1_555
Na5 O5 2.806259 1_555
Na5 O21 2.821723 1_555
Na6 O17 2.279140 1_555
Na6 O42 2.315304 1_565
Na6 O36 2.474296 1_565
Na6 O29 2.559457 1_555
Na6 O52 2.800734 1_555
Na7 O15 2.324061 1_555
Na7 O43 2.355168 1_555
Na7 O37 2.531377 1_555
Na7 O27 2.558030 1_555
Na7 O53 2.809979 1_555
Na8 O13 2.324061 1_555
Na8 O45 2.355168 1_555
Na8 O39 2.531377 1_555
Na8 O31 2.558030 1_555
Na8 O50 2.809979 1_555
Na9 O14 2.279140 1_555
Na9 O46 2.315304 1_455
Na9 O40 2.474296 1_455
Na9 O32 2.559457 1_555
Na9 O48 2.800734 1_555
Na10 O38 2.368382 1_555
Na10 O12 2.386789 1_555
Na10 O3 2.431457 1_455
Na10 O19 2.526687 1_555
Na10 O51 2.582570 1_455
Na10 O7 2.617457 1_555
Na10 O49 2.889222 1_555
Na11 O41 2.368382 1_555
Na11 O16 2.386789 1_555
Na11 O1 2.431457 1_565
Na11 O21 2.526687 1_555
Na11 O49 2.582570 1_565
Na11 O9 2.617457 1_555
Na11 O51 2.889222 1_555
Ca0 O52 2.314613 1_545
Ca0 O8 2.329411 1_555
Ca0 O9 2.349236 1_545
Ca0 O49 2.362906 1_555
Ca0 O29 2.407451 1_545
Ca0 O30 2.460337 1_555
Ca1 O50 2.348563 1_555
Ca1 O53 2.348563 1_554
Ca1 O6 2.353931 1_554
Ca1 O10 2.353931 1_555
Ca1 O27 2.383444 1_554
Ca1 O31 2.383444 1_555
Ca2 O48 2.314613 1_655
Ca2 O11 2.329411 1_555
Ca2 O7 2.349236 1_655
Ca2 O51 2.362906 1_555
Ca2 O32 2.407451 1_655
Ca2 O28 2.460337 1_555
Ca3 O43 2.310484 1_555
Ca3 O46 2.320723 1_545
Ca3 O27 2.348913 1_555
Ca3 O32 2.362663 1_645
Ca3 O6 2.636840 1_555
Ca3 O11 2.670032 1_545
Ca3 O33 2.831159 1_545
Ca4 O47 2.349469 1_555
Ca4 O44 2.349469 1_555
Ca4 O28 2.386267 1_455
Ca4 O30 2.386267 1_565
Ca4 O9 2.462070 1_555
Ca4 O7 2.462070 1_555
Ca4 O34 2.781371 1_555
Ca5 O45 2.310484 1_555
Ca5 O42 2.320723 1_655
Ca5 O31 2.348913 1_555
Ca5 O29 2.362663 1_645
Ca5 O10 2.636840 1_555
Ca5 O8 2.670032 1_655
Ca5 O35 2.831159 1_655
Ca6 O16 2.262694 1_555
Ca6 O38 2.320634 1_655
Ca6 O44 2.382664 1_655
Ca6 O28 2.390858 1_555
Ca6 O51 2.412105 1_555
Ca6 O7 2.833083 1_655
Ca7 O12 2.262694 1_555
Ca7 O41 2.320634 1_545
Ca7 O47 2.382664 1_545
Ca7 O30 2.390858 1_555
Ca7 O49 2.412105 1_555
Ca7 O9 2.833083 1_545
Ca8 O13 2.284680 1_555
Ca8 O36 2.288723 1_555
Ca8 O4 2.422286 1_545
Ca8 O8 2.454084 1_555
Ca8 O52 2.485550 1_545
Ca8 O20 2.515857 1_555
Ca9 O37 2.276946 1_555
Ca9 O14 2.304145 1_555
Ca9 O6 2.439103 1_555
Ca9 O5 2.443897 1_555
Ca9 O53 2.470363 1_555
Ca9 O18 2.528809 1_555
Ca10 O15 2.284680 1_555
Ca10 O40 2.288723 1_555
Ca10 O0 2.422286 1_655
Ca10 O11 2.454084 1_555
Ca10 O48 2.485550 1_655
Ca10 O23 2.515857 1_555
Ca11 O39 2.276946 1_555
Ca11 O17 2.304145 1_555
Ca11 O10 2.439103 1_555
Ca11 O2 2.443897 1_555
Ca11 O50 2.470363 1_555
Ca11 O22 2.528809 1_555
O0 Si6 1.676957 1_555
O0 Si0 1.691679 1_555
O1 Si7 1.665578 1_555
O1 Si1 1.675958 1_555
O2 Si8 1.676033 1_555
O2 Si2 1.691257 1_555
O3 Si9 1.665578 1_555
O3 Si3 1.675958 1_555
O4 Si10 1.676957 1_555
O4 Si4 1.691679 1_555
O5 Si11 1.676033 1_555
O5 Si5 1.691257 1_555
O6 Si12 1.624801 1_555
O7 Si13 1.626755 1_555
O8 Si14 1.626486 1_555
O9 Si15 1.626755 1_555
O10 Si16 1.624801 1_555
O11 Si17 1.626486 1_555
O12 Si6 1.598766 1_555
O13 Si7 1.612031 1_555
O14 Si8 1.603162 1_556
O15 Si9 1.612031 1_555
O16 Si10 1.598766 1_555
O17 Si11 1.603162 1_554
O18 Si12 1.672031 1_555
O18 Si6 1.682663 1_555
O19 Si13 1.655385 1_555
O19 Si7 1.677128 1_555
O20 Si8 1.673633 1_555
O20 Si14 1.675333 1_555
O21 Si15 1.655385 1_555
O21 Si9 1.677128 1_555
O22 Si16 1.672031 1_555
O22 Si10 1.682663 1_555
O23 Si11 1.673633 1_555
O23 Si17 1.675333 1_555
O24 Si5 1.651369 1_545
O24 Si0 1.653920 1_555
O25 Si3 1.654871 1_555
O25 Si1 1.654871 1_555
O26 Si2 1.651369 1_655
O26 Si4 1.653920 1_555
O27 Si0 1.623606 1_655
O28 Si1 1.636765 1_565
O29 Si2 1.624398 1_555
O30 Si3 1.636765 1_455
O31 Si4 1.623606 1_545
O32 Si5 1.624398 1_555
O33 Si12 1.655230 1_565
O33 Si17 1.662330 1_555
O34 Si15 1.660421 1_555
O34 Si13 1.660421 1_555
O35 Si16 1.655230 1_455
O35 Si14 1.662330 1_555
O36 Si12 1.604943 1_554
O37 Si13 1.614744 1_555
O38 Si14 1.599827 1_555
O39 Si15 1.614744 1_555
O40 Si16 1.604943 1_556
O41 Si17 1.599827 1_555
O42 Si0 1.619331 1_554
O43 Si1 1.622045 1_555
O44 Si2 1.629486 1_555
O45 Si3 1.622045 1_555
O46 Si4 1.619331 1_556
O47 Si5 1.629486 1_555
O48 Si6 1.625929 1_555
O49 Si7 1.624845 1_555
O50 Si8 1.622799 1_555
O51 Si9 1.624845 1_555
O52 Si10 1.625929 1_555
O53 Si11 1.622799 1_555
