# generated using pymatgen
data_Hf3TaCo8
_symmetry_space_group_name_H-M   'P 1'
_cell_length_a   8.38580270
_cell_length_b   8.38580270
_cell_length_c   8.38580327
_cell_angle_alpha   33.52988283
_cell_angle_beta   33.52988283
_cell_angle_gamma   33.52988280
_symmetry_Int_Tables_number   1
_chemical_formula_structural   Hf3TaCo8
_chemical_formula_sum   'Hf3 Ta1 Co8'
_cell_volume   160.25822926
_cell_formula_units_Z   1
loop_
 _symmetry_equiv_pos_site_id
 _symmetry_equiv_pos_as_xyz
  1  'x, y, z'
loop_
 _atom_site_type_symbol
 _atom_site_label
 _atom_site_symmetry_multiplicity
 _atom_site_fract_x
 _atom_site_fract_y
 _atom_site_fract_z
 _atom_site_occupancy
  Hf  Hf0  1  0.62510000  0.62510000  0.62510000  1
  Hf  Hf1  1  0.00130500  0.00130500  0.00130500  1
  Hf  Hf2  1  0.49880500  0.49880500  0.49880500  1
  Ta  Ta0  1  0.12469300  0.12469300  0.12469300  1
  Co  Co0  1  0.56249000  0.06545500  0.56249000  1
  Co  Co1  1  0.06211000  0.56030200  0.06211000  1
  Co  Co2  1  0.06545500  0.56249000  0.56249000  1
  Co  Co3  1  0.56030200  0.06211000  0.06211000  1
  Co  Co4  1  0.81262500  0.81262500  0.81262500  1
  Co  Co5  1  0.31251600  0.31251600  0.31251600  1
  Co  Co6  1  0.56249000  0.56249000  0.06545500  1
  Co  Co7  1  0.06211000  0.06211000  0.56030200  1
loop_
_geom_bond_atom_site_label_1
_geom_bond_atom_site_label_2
_geom_bond_distance
_geom_bond_site_symmetry_2
Hf0 Hf1 2.972427 1_665
Hf0 Hf1 2.972427 1_566
Hf0 Hf1 2.972427 1_656
Hf0 Hf2 2.995842 1_555
Hf1 Ta0 2.926885 1_555
Hf2 Ta0 2.955809 1_556
Hf2 Ta0 2.955809 1_565
Hf2 Ta0 2.955809 1_655
Co0 Co2 2.404507 1_555
Co0 Co6 2.404507 1_555
Co0 Co4 2.408609 1_545
Co0 Co2 2.433195 1_645
Co0 Co6 2.433195 1_546
Co0 Co5 2.434240 1_555
Co0 Hf2 2.789378 1_555
Co0 Ta0 2.821245 1_655
Co0 Ta0 2.821245 1_556
Co0 Hf1 2.833016 1_556
Co0 Hf1 2.833017 1_655
Co0 Hf0 2.860490 1_545
Co1 Co4 2.401631 1_454
Co1 Co3 2.410104 1_555
Co1 Co7 2.410105 1_555
Co1 Co3 2.427598 1_465
Co1 Co7 2.427598 1_564
Co1 Co5 2.436987 1_555
Co1 Ta0 2.821633 1_555
Co1 Hf2 2.839561 1_455
Co1 Hf2 2.839562 1_554
Co1 Hf0 2.850680 1_554
Co1 Hf0 2.850681 1_455
Co1 Hf1 2.888296 1_565
Co2 Co6 2.404507 1_555
Co2 Co4 2.408609 1_455
Co2 Co6 2.433195 1_456
Co2 Co5 2.434240 1_555
Co2 Hf2 2.789378 1_555
Co2 Ta0 2.821245 1_565
Co2 Ta0 2.821245 1_556
Co2 Hf1 2.833016 1_556
Co2 Hf1 2.833017 1_565
Co2 Hf0 2.860490 1_455
Co3 Co4 2.401631 1_544
Co3 Co7 2.410105 1_555
Co3 Co7 2.427598 1_654
Co3 Co5 2.436987 1_555
Co3 Ta0 2.821633 1_555
Co3 Hf2 2.839561 1_545
Co3 Hf2 2.839562 1_554
Co3 Hf0 2.850680 1_554
Co3 Hf0 2.850681 1_545
Co3 Hf1 2.888296 1_655
Co4 Co7 2.401631 1_665
Co4 Co6 2.408609 1_556
Co4 Hf2 2.831144 1_655
Co4 Hf2 2.831144 1_565
Co4 Hf2 2.831144 1_556
Co4 Ta0 2.838234 1_566
Co4 Ta0 2.838234 1_656
Co4 Ta0 2.838235 1_665
Co5 Co6 2.434240 1_555
Co5 Co7 2.436986 1_555
Co5 Hf0 2.836085 1_545
Co5 Hf0 2.836085 1_455
Co5 Hf0 2.836085 1_554
Co5 Hf1 2.841918 1_565
Co5 Hf1 2.841918 1_655
Co5 Hf1 2.841918 1_556
Co6 Hf2 2.789378 1_555
Co6 Ta0 2.821245 1_565
Co6 Ta0 2.821245 1_655
Co6 Hf1 2.833016 1_655
Co6 Hf1 2.833016 1_565
Co6 Hf0 2.860490 1_554
Co7 Ta0 2.821633 1_555
Co7 Hf2 2.839561 1_545
Co7 Hf2 2.839561 1_455
Co7 Hf0 2.850681 1_455
Co7 Hf0 2.850681 1_545
Co7 Hf1 2.888296 1_556
