# generated using pymatgen
data_Sc2ZnSe4
_symmetry_space_group_name_H-M   'P 1'
_cell_length_a   7.78693632
_cell_length_b   7.78693600
_cell_length_c   7.78693855
_cell_angle_alpha   60.00044908
_cell_angle_beta   60.00045614
_cell_angle_gamma   60.00049831
_symmetry_Int_Tables_number   1
_chemical_formula_structural   Sc2ZnSe4
_chemical_formula_sum   'Sc4 Zn2 Se8'
_cell_volume   333.87936918
_cell_formula_units_Z   2
loop_
 _symmetry_equiv_pos_site_id
 _symmetry_equiv_pos_as_xyz
  1  'x, y, z'
loop_
 _atom_site_type_symbol
 _atom_site_label
 _atom_site_symmetry_multiplicity
 _atom_site_fract_x
 _atom_site_fract_y
 _atom_site_fract_z
 _atom_site_occupancy
  Sc  Sc0  1  0.12500415  0.62499860  0.62499860  1
  Sc  Sc1  1  0.62499861  0.12500420  0.62499860  1
  Sc  Sc2  1  0.62499858  0.62499862  0.12500421  1
  Sc  Sc3  1  0.62499859  0.62499860  0.62499860  1
  Zn  Zn0  1  0.25000079  0.25000081  0.25000083  1
  Zn  Zn1  1  -0.00000081  -0.00000076  -0.00000082  1
  Se  Se0  1  0.86193965  0.37935236  0.37935244  1
  Se  Se1  1  0.37935236  0.86193964  0.37935249  1
  Se  Se2  1  0.37935249  0.37935243  0.86193960  1
  Se  Se3  1  0.37935212  0.37935204  0.37935196  1
  Se  Se4  1  0.38839373  0.87053650  0.87053648  1
  Se  Se5  1  0.87053652  0.38839364  0.87053644  1
  Se  Se6  1  0.87053645  0.87053637  0.38839370  1
  Se  Se7  1  0.87053677  0.87053694  0.87053688  1
loop_
_geom_bond_atom_site_label_1
_geom_bond_atom_site_label_2
_geom_bond_distance
_geom_bond_site_symmetry_2
Sc0 Se5 2.704844 1_455
Sc0 Se6 2.704846 1_455
Sc0 Se7 2.704869 1_455
Sc0 Se1 2.705992 1_555
Sc0 Se2 2.705994 1_555
Sc0 Se3 2.706016 1_555
Sc1 Se4 2.704844 1_545
Sc1 Se6 2.704847 1_545
Sc1 Se7 2.704868 1_545
Sc1 Se0 2.705992 1_555
Sc1 Se2 2.705994 1_555
Sc1 Se3 2.706016 1_555
Sc2 Se4 2.704846 1_554
Sc2 Se5 2.704847 1_554
Sc2 Se7 2.704866 1_554
Sc2 Se0 2.705994 1_555
Sc2 Se1 2.705994 1_555
Sc2 Se3 2.706013 1_555
Sc3 Se6 2.704861 1_555
Sc3 Se5 2.704863 1_555
Sc3 Se4 2.704864 1_555
Sc3 Se2 2.706008 1_555
Sc3 Se1 2.706011 1_555
Sc3 Se0 2.706011 1_555
Se0 Zn0 2.467310 1_655
Se1 Zn0 2.467310 1_565
Se2 Zn0 2.467310 1_556
Se3 Zn0 2.467240 1_555
Se4 Zn1 2.469430 1_566
Se5 Zn1 2.469429 1_656
Se6 Zn1 2.469430 1_665
Se7 Zn1 2.469359 1_666
