# generated using pymatgen
data_Sr2La2Mg(RuO4)3
_symmetry_space_group_name_H-M   'P 1'
_cell_length_a   5.63960500
_cell_length_b   5.65412220
_cell_length_c   7.92038369
_cell_angle_alpha   89.97472317
_cell_angle_beta   89.85919073
_cell_angle_gamma   89.98472889
_symmetry_Int_Tables_number   1
_chemical_formula_structural   Sr2La2Mg(RuO4)3
_chemical_formula_sum   'Sr2 La2 Mg1 Ru3 O12'
_cell_volume   252.55660388
_cell_formula_units_Z   1
loop_
 _symmetry_equiv_pos_site_id
 _symmetry_equiv_pos_as_xyz
  1  'x, y, z'
loop_
 _atom_site_type_symbol
 _atom_site_label
 _atom_site_symmetry_multiplicity
 _atom_site_fract_x
 _atom_site_fract_y
 _atom_site_fract_z
 _atom_site_occupancy
  Sr  Sr0  1  0.47541900  0.49574600  0.24379900  1
  Sr  Sr1  1  0.02633100  0.99107400  0.75638800  1
  La  La0  1  0.96868000  0.01596900  0.24003900  1
  La  La1  1  0.52753900  0.51034000  0.75914500  1
  Mg  Mg0  1  0.49803700  0.00031400  0.99980400  1
  Ru  Ru0  1  0.00050600  0.50126300  0.50053400  1
  Ru  Ru1  1  0.50091600  0.00124800  0.49945700  1
  Ru  Ru2  1  0.00027200  0.49926800  0.99910300  1
  O  O0  1  0.51795000  0.93309100  0.25744600  1
  O  O1  1  0.00899800  0.58819600  0.24897800  1
  O  O2  1  0.48972100  0.08617600  0.74344500  1
  O  O3  1  0.98453900  0.42545500  0.75046400  1
  O  O4  1  0.27596900  0.71534800  0.95718000  1
  O  O5  1  0.76906500  0.76960000  0.54859100  1
  O  O6  1  0.73060100  0.27197300  0.45189600  1
  O  O7  1  0.21806200  0.22501800  0.04197400  1
  O  O8  1  0.73540300  0.27070600  0.04006700  1
  O  O9  1  0.21873800  0.21907300  0.45179000  1
  O  O10  1  0.28278100  0.71761600  0.54789300  1
  O  O11  1  0.77047400  0.76252500  0.96200500  1
loop_
_geom_bond_atom_site_label_1
_geom_bond_atom_site_label_2
_geom_bond_distance
_geom_bond_site_symmetry_2
La0 O7 2.413398 1_655
La0 O1 2.430301 1_645
La0 O9 2.476798 1_655
La0 O8 2.514179 1_555
La0 O0 2.588225 1_545
La0 O6 2.589139 1_555
La1 O4 2.409667 1_555
La1 O2 2.411087 1_555
La1 O10 2.467221 1_555
La1 O11 2.550621 1_555
La1 O5 2.602505 1_555
La1 O3 2.622223 1_555
Mg0 O7 2.053175 1_556
Mg0 O8 2.057819 1_556
Mg0 O11 2.062743 1_545
Mg0 O4 2.069329 1_545
Mg0 O0 2.078856 1_546
Mg0 O2 2.088120 1_555
O0 Ru1 1.957463 1_565
O0 Sr0 2.486895 1_555
O1 Ru2 2.042907 1_554
O1 Ru0 2.052392 1_555
O1 Sr0 2.681947 1_555
O1 Sr0 3.054754 1_455
O2 Ru1 1.992297 1_555
O2 Sr1 2.669937 1_545
O2 Sr1 3.075477 1_645
O3 Ru2 2.015406 1_655
O3 Ru0 2.027020 1_655
O3 Sr1 2.467700 1_645
O4 Ru2 2.004619 1_555
O4 Sr1 2.636166 1_555
O4 Sr0 2.823075 1_556
O5 Ru0 2.036531 1_655
O5 Ru1 2.038439 1_565
O5 Sr1 2.529119 1_655
O6 Ru0 2.037273 1_655
O6 Ru1 2.039858 1_555
O6 Sr0 2.529299 1_555
O7 Ru2 2.007227 1_554
O7 Sr0 2.649475 1_555
O7 Sr1 2.837374 1_544
O8 Ru2 2.001234 1_654
O8 Sr0 2.522257 1_555
O9 Ru1 2.047770 1_555
O9 Ru0 2.051018 1_555
O9 Sr0 2.691410 1_555
O9 Sr1 2.940197 1_545
O10 Ru0 2.043457 1_555
O10 Ru1 2.056834 1_565
O10 Sr1 2.683031 1_555
O10 Sr0 2.923036 1_555
O11 Ru2 1.995476 1_655
O11 Sr1 2.528193 1_655
