# generated using pymatgen
data_DyClO
_symmetry_space_group_name_H-M   'P 1'
_cell_length_a   3.79391300
_cell_length_b   4.19082500
_cell_length_c   9.47154200
_cell_angle_alpha   90.00000000
_cell_angle_beta   90.00000000
_cell_angle_gamma   90.00000000
_symmetry_Int_Tables_number   1
_chemical_formula_structural   DyClO
_chemical_formula_sum   'Dy2 Cl2 O2'
_cell_volume   150.59397022
_cell_formula_units_Z   2
loop_
 _symmetry_equiv_pos_site_id
 _symmetry_equiv_pos_as_xyz
  1  'x, y, z'
loop_
 _atom_site_type_symbol
 _atom_site_label
 _atom_site_symmetry_multiplicity
 _atom_site_fract_x
 _atom_site_fract_y
 _atom_site_fract_z
 _atom_site_occupancy
  Dy  Dy0  1  0.50000000  0.00000000  0.11255700  1
  Dy  Dy1  1  0.00000000  0.50000000  0.88744300  1
  Cl  Cl0  1  0.00000000  0.00000000  0.31393800  1
  Cl  Cl1  1  0.50000000  0.50000000  0.68606200  1
  O  O0  1  0.00000000  0.00000000  0.97336500  1
  O  O1  1  0.50000000  0.50000000  0.02663500  1
loop_
_geom_bond_atom_site_label_1
_geom_bond_atom_site_label_2
_geom_bond_distance
_geom_bond_site_symmetry_2
Dy0 O1 2.247898 1_545
Dy0 O1 2.247898 1_555
Dy0 O0 2.310092 1_554
Dy0 O0 2.310092 1_654
Dy1 O0 2.247898 1_565
Dy1 O0 2.247898 1_555
Dy1 O1 2.310092 1_456
Dy1 O1 2.310092 1_556
Cl0 Dy0 2.690088 1_455
Cl0 Dy0 2.690088 1_555
Cl1 Dy1 2.690088 1_555
Cl1 Dy1 2.690088 1_655
