# generated using pymatgen
data_Ni3(TeO4)2
_symmetry_space_group_name_H-M   'P 1'
_cell_length_a   12.86630500
_cell_length_b   4.95808700
_cell_length_c   12.87709884
_cell_angle_alpha   90.00000000
_cell_angle_beta   119.95557127
_cell_angle_gamma   90.00000000
_symmetry_Int_Tables_number   1
_chemical_formula_structural   Ni3(TeO4)2
_chemical_formula_sum   'Ni12 Te8 O32'
_cell_volume   711.72283999
_cell_formula_units_Z   4
loop_
 _symmetry_equiv_pos_site_id
 _symmetry_equiv_pos_as_xyz
  1  'x, y, z'
loop_
 _atom_site_type_symbol
 _atom_site_label
 _atom_site_symmetry_multiplicity
 _atom_site_fract_x
 _atom_site_fract_y
 _atom_site_fract_z
 _atom_site_occupancy
  Ni  Ni0  1  0.07201300  0.46707400  0.43072400  1
  Ni  Ni1  1  0.35873000  0.46914000  0.92845400  1
  Ni  Ni2  1  0.56890500  0.46639000  0.64029900  1
  Ni  Ni3  1  0.56995000  0.46725000  0.92841500  1
  Ni  Ni4  1  0.07154000  0.46660800  0.64020800  1
  Ni  Ni5  1  0.35834300  0.46684300  0.43085700  1
  Ni  Ni6  1  0.92798700  0.96707400  0.56927600  1
  Ni  Ni7  1  0.64127000  0.96914000  0.07154600  1
  Ni  Ni8  1  0.43109500  0.96639000  0.35970100  1
  Ni  Ni9  1  0.43005000  0.96725000  0.07158500  1
  Ni  Ni10  1  0.92846000  0.96660800  0.35979200  1
  Ni  Ni11  1  0.64165700  0.96684300  0.56914300  1
  Te  Te0  1  0.27389100  0.53816500  0.13798300  1
  Te  Te1  1  0.86258100  0.53202500  0.72458200  1
  Te  Te2  1  0.86356000  0.53744900  0.13889200  1
  Te  Te3  1  0.72610900  0.03816500  0.86201700  1
  Te  Te4  1  0.13741900  0.03202500  0.27541800  1
  Te  Te5  1  0.13644000  0.03744900  0.86110800  1
  Te  Te6  1  0.33311800  0.35264300  0.66662000  1
  Te  Te7  1  0.66688200  0.85264300  0.33338000  1
  O  O0  1  0.41051900  0.77092300  0.20558800  1
  O  O1  1  0.79368900  0.76471600  0.58748500  1
  O  O2  1  0.79406200  0.76959700  0.20618400  1
  O  O3  1  0.58948100  0.27092300  0.79441200  1
  O  O4  1  0.20631100  0.26471600  0.41251500  1
  O  O5  1  0.20593800  0.26959700  0.79381600  1
  O  O6  1  0.27147100  0.79269000  0.32319500  1
  O  O7  1  0.05142200  0.79305400  0.72964600  1
  O  O8  1  0.67998600  0.79580200  0.94866300  1
  O  O9  1  0.67953400  0.79450000  0.73057000  1
  O  O10  1  0.26935500  0.79507200  0.94830000  1
  O  O11  1  0.05144700  0.79189700  0.32316700  1
  O  O12  1  0.72852900  0.29269000  0.67680500  1
  O  O13  1  0.94857800  0.29305400  0.27035400  1
  O  O14  1  0.32001400  0.29580200  0.05133700  1
  O  O15  1  0.32046600  0.29450000  0.26943000  1
  O  O16  1  0.73064500  0.29507200  0.05170000  1
  O  O17  1  0.94855300  0.29189700  0.67683300  1
  O  O18  1  0.80568800  0.07904400  0.40288900  1
  O  O19  1  0.59698400  0.07802100  0.19424400  1
  O  O20  1  0.59716400  0.07845800  0.40272000  1
  O  O21  1  0.19431200  0.57904400  0.59711100  1
  O  O22  1  0.40301600  0.57802100  0.80575600  1
  O  O23  1  0.40283600  0.57845800  0.59728000  1
  O  O24  1  0.95649400  0.66249200  0.47821700  1
  O  O25  1  0.52149400  0.66359400  0.04279400  1
  O  O26  1  0.52150800  0.66244100  0.47849900  1
  O  O27  1  0.04350600  0.16249200  0.52178300  1
  O  O28  1  0.47850600  0.16359400  0.95720600  1
  O  O29  1  0.47849200  0.16244100  0.52150100  1
  O  O30  1  0.03394700  0.63711300  0.04800700  1
  O  O31  1  0.96605300  0.13711300  0.95199300  1
loop_
_geom_bond_atom_site_label_1
_geom_bond_atom_site_label_2
_geom_bond_distance
_geom_bond_site_symmetry_2
Ni0 O21 2.001992 1_555
Ni0 O11 2.053295 1_555
Ni0 O27 2.054141 1_555
Ni0 O13 2.063011 1_455
Ni0 O24 2.104672 1_455
Ni0 O4 2.109960 1_555
Ni1 O22 2.002885 1_555
Ni1 O28 2.058441 1_555
Ni1 O14 2.068293 1_556
Ni1 O10 2.071852 1_555
Ni1 O25 2.098499 1_556
Ni1 O5 2.108458 1_555
Ni2 O23 1.999755 1_555
Ni2 O29 2.046297 1_555
Ni2 O12 2.053411 1_555
Ni2 O9 2.090784 1_555
Ni2 O26 2.094971 1_555
Ni2 O3 2.103094 1_555
Ni3 O22 2.005408 1_555
Ni3 O28 2.055241 1_555
Ni3 O16 2.060561 1_556
Ni3 O8 2.087418 1_555
Ni3 O3 2.102688 1_555
Ni3 O25 2.103032 1_556
Ni4 O21 1.997353 1_555
Ni4 O27 2.044478 1_555
Ni4 O17 2.054758 1_455
Ni4 O7 2.076253 1_555
Ni4 O24 2.098102 1_455
Ni4 O5 2.107381 1_555
Ni5 O23 2.000360 1_555
Ni5 O29 2.056217 1_555
Ni5 O6 2.057651 1_555
Ni5 O15 2.068096 1_555
Ni5 O4 2.103572 1_555
Ni5 O26 2.106624 1_555
Ni6 O18 2.001992 1_565
Ni6 O17 2.053295 1_565
Ni6 O24 2.054141 1_555
Ni6 O7 2.063011 1_655
Ni6 O27 2.104672 1_665
Ni6 O1 2.109960 1_555
Ni7 O19 2.002885 1_565
Ni7 O25 2.058441 1_555
Ni7 O8 2.068293 1_554
Ni7 O16 2.071852 1_565
Ni7 O28 2.098499 1_564
Ni7 O2 2.108458 1_555
Ni8 O20 1.999755 1_565
Ni8 O26 2.046297 1_555
Ni8 O6 2.053411 1_555
Ni8 O15 2.090784 1_565
Ni8 O29 2.094971 1_565
Ni8 O0 2.103094 1_555
Ni9 O19 2.005408 1_565
Ni9 O25 2.055241 1_555
Ni9 O10 2.060561 1_554
Ni9 O14 2.087418 1_565
Ni9 O0 2.102688 1_555
Ni9 O28 2.103032 1_564
Ni10 O18 1.997353 1_565
Ni10 O24 2.044478 1_555
Ni10 O11 2.054758 1_655
Ni10 O13 2.076253 1_565
Ni10 O27 2.098102 1_665
Ni10 O2 2.107381 1_555
Ni11 O20 2.000360 1_565
Ni11 O26 2.056217 1_555
Ni11 O12 2.057651 1_565
Ni11 O9 2.068096 1_555
Ni11 O1 2.103572 1_555
Ni11 O29 2.106624 1_565
O0 Te0 1.910909 1_555
O1 Te1 1.915895 1_555
O2 Te2 1.910247 1_555
O3 Te3 1.910909 1_555
O4 Te4 1.915895 1_555
O5 Te5 1.910247 1_555
O6 Te4 1.923984 1_565
O7 Te5 1.918675 1_565
O8 Te3 1.924128 1_565
O9 Te3 1.915923 1_565
O10 Te5 1.926602 1_565
O11 Te4 1.923097 1_565
O12 Te1 1.923984 1_555
O13 Te2 1.918675 1_555
O14 Te0 1.924128 1_555
O15 Te0 1.915923 1_555
O16 Te2 1.926602 1_555
O17 Te1 1.923097 1_555
O18 Te7 1.911629 1_545
O19 Te7 1.912698 1_545
O20 Te7 1.911882 1_545
O21 Te6 1.911629 1_555
O22 Te6 1.912698 1_555
O23 Te6 1.911882 1_555
O30 Te0 2.746226 1_555
O31 Te3 2.746226 1_555
