# generated using pymatgen
data_PrP3O14
_symmetry_space_group_name_H-M   'P 1'
_cell_length_a   6.93400100
_cell_length_b   13.10505700
_cell_length_c   13.71030400
_cell_angle_alpha   90.00000000
_cell_angle_beta   90.00000000
_cell_angle_gamma   90.00000000
_symmetry_Int_Tables_number   1
_chemical_formula_structural   PrP3O14
_chemical_formula_sum   'Pr4 P12 O56'
_cell_volume   1245.86188271
_cell_formula_units_Z   4
loop_
 _symmetry_equiv_pos_site_id
 _symmetry_equiv_pos_as_xyz
  1  'x, y, z'
loop_
 _atom_site_type_symbol
 _atom_site_label
 _atom_site_symmetry_multiplicity
 _atom_site_fract_x
 _atom_site_fract_y
 _atom_site_fract_z
 _atom_site_occupancy
  Pr  Pr0  1  0.18012300  0.27457200  0.19285700  1
  Pr  Pr1  1  0.18012300  0.72542800  0.80714300  1
  Pr  Pr2  1  0.81987700  0.22542800  0.69285700  1
  Pr  Pr3  1  0.81987700  0.77457200  0.30714300  1
  P  P0  1  0.06213200  0.02310500  0.31335300  1
  P  P1  1  0.06213200  0.97689500  0.68664700  1
  P  P2  1  0.93786800  0.47689500  0.81335300  1
  P  P3  1  0.93786800  0.52310500  0.18664700  1
  P  P4  1  0.06206200  0.19575900  0.45259100  1
  P  P5  1  0.06206200  0.80424100  0.54740900  1
  P  P6  1  0.93793800  0.30424100  0.95259100  1
  P  P7  1  0.93793800  0.69575900  0.04740900  1
  P  P8  1  0.30072000  0.15456100  0.62733400  1
  P  P9  1  0.30072000  0.84543900  0.37266600  1
  P  P10  1  0.69928000  0.34543900  0.12733400  1
  P  P11  1  0.69928000  0.65456100  0.87266600  1
  O  O0  1  0.09468800  0.27068600  0.02071200  1
  O  O1  1  0.09468800  0.72931400  0.97928800  1
  O  O2  1  0.90531200  0.22931400  0.52071200  1
  O  O3  1  0.90531200  0.77068600  0.47928800  1
  O  O4  1  0.39154800  0.17308000  0.30311000  1
  O  O5  1  0.39154800  0.82692000  0.69689000  1
  O  O6  1  0.60845200  0.32692000  0.80311000  1
  O  O7  1  0.60845200  0.67308000  0.19689000  1
  O  O8  1  0.16900100  0.22143100  0.68594200  1
  O  O9  1  0.16900100  0.77856900  0.31405800  1
  O  O10  1  0.83099900  0.27856900  0.18594200  1
  O  O11  1  0.83099900  0.72143100  0.81405800  1
  O  O12  1  0.38474400  0.55407000  0.39230300  1
  O  O13  1  0.38474400  0.44593000  0.60769700  1
  O  O14  1  0.61525600  0.94593000  0.89230300  1
  O  O15  1  0.61525600  0.05407000  0.10769700  1
  O  O16  1  0.35624800  0.07893100  0.88540500  1
  O  O17  1  0.35624800  0.92106900  0.11459500  1
  O  O18  1  0.64375200  0.42106900  0.38540500  1
  O  O19  1  0.64375200  0.57893100  0.61459500  1
  O  O20  1  0.25153000  0.03515400  0.64754000  1
  O  O21  1  0.25153000  0.96484600  0.35246000  1
  O  O22  1  0.74847000  0.46484600  0.14754000  1
  O  O23  1  0.74847000  0.53515400  0.85246000  1
  O  O24  1  0.12054400  0.26618600  0.37053100  1
  O  O25  1  0.12054400  0.73381400  0.62946900  1
  O  O26  1  0.87945600  0.23381400  0.87053100  1
  O  O27  1  0.87945600  0.76618600  0.12946900  1
  O  O28  1  0.48600800  0.33445800  0.13881200  1
  O  O29  1  0.48600800  0.66554200  0.86118800  1
  O  O30  1  0.51399200  0.16554200  0.63881200  1
  O  O31  1  0.51399200  0.83445800  0.36118800  1
  O  O32  1  0.12403800  0.09445100  0.23224500  1
  O  O33  1  0.12403800  0.90554900  0.76775500  1
  O  O34  1  0.87596200  0.40554900  0.73224500  1
  O  O35  1  0.87596200  0.59445100  0.26775500  1
  O  O36  1  0.25584000  0.16642100  0.51189300  1
  O  O37  1  0.25584000  0.83357900  0.48810700  1
  O  O38  1  0.74416000  0.33357900  0.01189300  1
  O  O39  1  0.74416000  0.66642100  0.98810700  1
  O  O40  1  0.00415100  0.58664600  0.09167000  1
  O  O41  1  0.00415100  0.41335400  0.90833000  1
  O  O42  1  0.99584900  0.91335400  0.59167000  1
  O  O43  1  0.99584900  0.08664600  0.40833000  1
  O  O44  1  0.09796700  0.45034900  0.20978900  1
  O  O45  1  0.09796700  0.54965100  0.79021100  1
  O  O46  1  0.90203300  0.04965100  0.70978900  1
  O  O47  1  0.90203300  0.95034900  0.29021100  1
  O  O48  1  0.44485500  0.07920000  0.10023300  1
  O  O49  1  0.44485500  0.92080000  0.89976700  1
  O  O50  1  0.55514500  0.42080000  0.60023300  1
  O  O51  1  0.55514500  0.57920000  0.39976700  1
  O  O52  1  0.47336300  0.39505900  0.38075800  1
  O  O53  1  0.47336300  0.60494100  0.61924200  1
  O  O54  1  0.52663700  0.10494100  0.88075800  1
  O  O55  1  0.52663700  0.89505900  0.11924200  1
loop_
_geom_bond_atom_site_label_1
_geom_bond_atom_site_label_2
_geom_bond_distance
_geom_bond_site_symmetry_2
O0 P6 1.499004 1_454
O0 Pr0 2.433905 1_555
O1 P7 1.499004 1_456
O1 Pr1 2.433905 1_555
O2 P4 1.499004 1_655
O2 Pr2 2.433905 1_555
O3 P5 1.499004 1_655
O3 Pr3 2.433905 1_555
O4 Pr0 2.490625 1_555
O5 Pr1 2.490625 1_555
O6 Pr2 2.490625 1_555
O7 Pr3 2.490625 1_555
O8 P8 1.499273 1_555
O8 Pr2 2.423248 1_455
O9 P9 1.499273 1_555
O9 Pr3 2.423248 1_455
O10 P10 1.499273 1_555
O10 Pr0 2.423248 1_655
O11 P11 1.499273 1_555
O11 Pr1 2.423248 1_655
O12 O51 1.230860 1_555
O13 O50 1.230860 1_555
O14 O49 1.230860 1_555
O15 O48 1.230860 1_555
O16 O54 1.231315 1_555
O17 O55 1.231315 1_555
O18 O52 1.231315 1_555
O19 O53 1.231315 1_555
O20 P1 1.610935 1_545
O20 P8 1.625360 1_555
O21 P0 1.610935 1_565
O21 P9 1.625360 1_555
O22 P3 1.610935 1_555
O22 P10 1.625360 1_555
O23 P2 1.610935 1_555
O23 P11 1.625360 1_555
O24 P4 1.510647 1_555
O24 Pr0 2.473190 1_555
O25 P5 1.510647 1_555
O25 Pr1 2.473190 1_555
O26 P6 1.510647 1_555
O26 Pr2 2.473190 1_555
O27 P7 1.510647 1_555
O27 Pr3 2.473190 1_555
O28 P10 1.494124 1_555
O28 Pr0 2.379840 1_555
O29 P11 1.494124 1_555
O29 Pr1 2.379840 1_555
O30 P8 1.494124 1_555
O30 Pr2 2.379840 1_555
O31 P9 1.494124 1_555
O31 Pr3 2.379840 1_555
O32 P0 1.514943 1_555
O32 Pr0 2.452509 1_555
O33 P1 1.514943 1_555
O33 Pr1 2.452509 1_555
O34 P2 1.514943 1_555
O34 Pr2 2.452509 1_555
O35 P3 1.514943 1_555
O35 Pr3 2.452509 1_555
O36 P4 1.616875 1_555
O36 P8 1.620506 1_555
O37 P5 1.616875 1_555
O37 P9 1.620506 1_555
O38 P6 1.616875 1_554
O38 P10 1.620506 1_555
O39 P7 1.616875 1_556
O39 P11 1.620506 1_555
O40 P3 1.612536 1_455
O40 P7 1.619797 1_455
O41 P2 1.612536 1_455
O41 P6 1.619797 1_455
O42 P1 1.612536 1_655
O42 P5 1.619797 1_655
O43 P0 1.612536 1_655
O43 P4 1.619797 1_655
O44 P3 1.497384 1_455
O44 Pr0 2.384290 1_555
O45 P2 1.497384 1_455
O45 Pr1 2.384290 1_555
O46 P1 1.497384 1_645
O46 Pr2 2.384290 1_555
O47 P0 1.497384 1_665
O47 Pr3 2.384290 1_555
