# generated using pymatgen
data_Li3(FeO3)2
_symmetry_space_group_name_H-M   'P 1'
_cell_length_a   5.04209028
_cell_length_b   6.53269156
_cell_length_c   6.53226805
_cell_angle_alpha   84.35884550
_cell_angle_beta   97.24991789
_cell_angle_gamma   97.27649105
_symmetry_Int_Tables_number   1
_chemical_formula_structural   Li3(FeO3)2
_chemical_formula_sum   'Li6 Fe4 O12'
_cell_volume   210.98137093
_cell_formula_units_Z   2
loop_
 _symmetry_equiv_pos_site_id
 _symmetry_equiv_pos_as_xyz
  1  'x, y, z'
loop_
 _atom_site_type_symbol
 _atom_site_label
 _atom_site_symmetry_multiplicity
 _atom_site_fract_x
 _atom_site_fract_y
 _atom_site_fract_z
 _atom_site_occupancy
  Li  Li0  1  0.74975600  0.75218100  0.24763000  1
  Li  Li1  1  0.25019800  0.25234400  0.74783300  1
  Li  Li2  1  0.24253500  0.90000400  0.10043900  1
  Li  Li3  1  0.75743100  0.39958900  0.60005400  1
  Li  Li4  1  0.74302000  0.10058600  0.89976000  1
  Li  Li5  1  0.25703000  0.60026100  0.39944100  1
  Fe  Fe0  1  0.00017300  0.82903700  0.67089900  1
  Fe  Fe1  1  0.00005300  0.16507300  0.33484700  1
  Fe  Fe2  1  0.49995700  0.33438000  0.16562800  1
  Fe  Fe3  1  0.49998700  0.67050700  0.82948900  1
  O  O0  1  0.58815500  0.37289200  0.89191700  1
  O  O1  1  0.08810500  0.89118500  0.37344900  1
  O  O2  1  0.91187400  0.12652500  0.60878400  1
  O  O3  1  0.41184300  0.60811400  0.12709200  1
  O  O4  1  0.65508600  0.07704900  0.19885100  1
  O  O5  1  0.16712300  0.56980700  0.69318500  1
  O  O6  1  0.83276400  0.80680800  0.93005500  1
  O  O7  1  0.34488500  0.30117900  0.42294400  1
  O  O8  1  0.84500900  0.42204600  0.30167500  1
  O  O9  1  0.33286800  0.92937700  0.80732700  1
  O  O10  1  0.66718600  0.69269800  0.57071600  1
  O  O11  1  0.15496300  0.19835800  0.07798400  1
loop_
_geom_bond_atom_site_label_1
_geom_bond_atom_site_label_2
_geom_bond_distance
_geom_bond_site_symmetry_2
Li0 O3 1.951799 1_555
Li0 O1 1.952149 1_655
Li0 O6 2.154478 1_554
Li0 O10 2.190440 1_555
Li0 O4 2.217805 1_565
Li0 O8 2.253093 1_555
Li1 O0 1.952090 1_555
Li1 O2 1.952199 1_455
Li1 O5 2.154220 1_555
Li1 O9 2.190186 1_545
Li1 O7 2.217599 1_555
Li1 O11 2.252771 1_556
Li2 O9 2.008988 1_554
Li2 O1 2.027057 1_555
Li2 O11 2.039790 1_565
Li2 O3 2.169012 1_555
Li2 O6 2.261056 1_454
Li2 O4 2.297187 1_565
Li3 O10 2.009167 1_555
Li3 O2 2.027910 1_555
Li3 O8 2.039626 1_555
Li3 O0 2.168263 1_555
Li3 O5 2.260017 1_655
Li3 O7 2.297533 1_555
Li4 O6 2.012414 1_545
Li4 O0 2.025005 1_555
Li4 O4 2.044416 1_556
Li4 O2 2.162155 1_555
Li4 O9 2.263609 1_545
Li4 O11 2.297236 1_656
Li5 O5 2.012107 1_555
Li5 O3 2.024696 1_555
Li5 O7 2.044572 1_555
Li5 O1 2.162489 1_555
Li5 O10 2.264000 1_555
Li5 O8 2.297324 1_455
Fe0 O9 1.869973 1_555
Fe0 O10 1.870532 1_455
Fe0 O5 1.969602 1_555
Fe0 O6 1.969946 1_455
Fe0 O1 2.038010 1_555
Fe0 O2 2.039166 1_465
Fe1 O1 1.883159 1_545
Fe1 O2 1.883348 1_455
Fe1 O7 1.897676 1_555
Fe1 O4 1.897967 1_455
Fe1 O11 1.920605 1_555
Fe1 O8 1.922073 1_455
Fe2 O0 1.881951 1_554
Fe2 O3 1.882288 1_555
Fe2 O11 1.897446 1_555
Fe2 O8 1.897902 1_555
Fe2 O7 1.923733 1_555
Fe2 O4 1.924418 1_555
Fe3 O6 1.870305 1_555
Fe3 O5 1.870995 1_555
Fe3 O10 1.967136 1_555
Fe3 O9 1.967972 1_555
Fe3 O3 2.039430 1_556
Fe3 O0 2.039916 1_555
