# generated using pymatgen
data_MnSiNi2
_symmetry_space_group_name_H-M   'P 1'
_cell_length_a   2.77376400
_cell_length_b   2.77376400
_cell_length_c   6.14278400
_cell_angle_alpha   90.00000000
_cell_angle_beta   90.00000000
_cell_angle_gamma   90.00000000
_symmetry_Int_Tables_number   1
_chemical_formula_structural   MnSiNi2
_chemical_formula_sum   'Mn1 Si1 Ni2'
_cell_volume   47.26114715
_cell_formula_units_Z   1
loop_
 _symmetry_equiv_pos_site_id
 _symmetry_equiv_pos_as_xyz
  1  'x, y, z'
loop_
 _atom_site_type_symbol
 _atom_site_label
 _atom_site_symmetry_multiplicity
 _atom_site_fract_x
 _atom_site_fract_y
 _atom_site_fract_z
 _atom_site_occupancy
  Mn  Mn0  1  0.50000000  0.50000000  0.00000000  1
  Si  Si0  1  0.50000000  0.50000000  0.50000000  1
  Ni  Ni0  1  0.00000000  0.00000000  0.28323500  1
  Ni  Ni1  1  0.00000000  0.00000000  0.71676500  1
loop_
_geom_bond_atom_site_label_1
_geom_bond_atom_site_label_2
_geom_bond_distance
_geom_bond_site_symmetry_2
Mn0 Ni0 2.621825 1_555
Mn0 Ni0 2.621825 1_565
Mn0 Ni1 2.621825 1_564
Mn0 Ni0 2.621825 1_655
Mn0 Ni1 2.621825 1_654
Mn0 Ni0 2.621825 1_665
Mn0 Ni1 2.621825 1_554
Mn0 Ni1 2.621825 1_664
Ni0 Si0 2.370629 1_455
Ni0 Si0 2.370629 1_545
Ni0 Si0 2.370629 1_555
Ni0 Si0 2.370629 1_445
Ni1 Si0 2.370629 1_455
Ni1 Si0 2.370629 1_545
Ni1 Si0 2.370629 1_555
Ni1 Si0 2.370629 1_445
