# generated using pymatgen
data_Sr5Ti4FeO15
_symmetry_space_group_name_H-M   'P 1'
_cell_length_a   8.80349436
_cell_length_b   8.80292857
_cell_length_c   8.87382934
_cell_angle_alpha   89.33999085
_cell_angle_beta   113.92679808
_cell_angle_gamma   101.85111966
_symmetry_Int_Tables_number   1
_chemical_formula_structural   Sr5Ti4FeO15
_chemical_formula_sum   'Sr10 Ti8 Fe2 O30'
_cell_volume   613.21190747
_cell_formula_units_Z   2
loop_
 _symmetry_equiv_pos_site_id
 _symmetry_equiv_pos_as_xyz
  1  'x, y, z'
loop_
 _atom_site_type_symbol
 _atom_site_label
 _atom_site_symmetry_multiplicity
 _atom_site_fract_x
 _atom_site_fract_y
 _atom_site_fract_z
 _atom_site_occupancy
  Sr  Sr0  1  0.99995500  0.40003100  0.79999600  1
  Sr  Sr1  1  0.50003300  0.89998900  0.80002500  1
  Sr  Sr2  1  0.00083200  0.20073000  0.40326000  1
  Sr  Sr3  1  0.50083200  0.70071300  0.40327800  1
  Sr  Sr4  1  0.49916600  0.09925800  0.19672600  1
  Sr  Sr5  1  0.99915800  0.59928500  0.19668500  1
  Sr  Sr6  1  0.50021900  0.30257800  0.60547700  1
  Sr  Sr7  1  0.00019400  0.80252400  0.60548500  1
  Sr  Sr8  1  0.49981900  0.49747600  0.99452800  1
  Sr  Sr9  1  0.99978900  0.99741100  0.99453600  1
  Ti  Ti0  1  0.75343500  0.24909900  0.00471300  1
  Ti  Ti1  1  0.25349400  0.74911500  0.00476900  1
  Ti  Ti2  1  0.74656400  0.05090400  0.59527300  1
  Ti  Ti3  1  0.24649900  0.55088200  0.59522800  1
  Ti  Ti4  1  0.75238900  0.84664300  0.19788300  1
  Ti  Ti5  1  0.25233100  0.34661900  0.19783300  1
  Ti  Ti6  1  0.74760800  0.45335600  0.40210800  1
  Ti  Ti7  1  0.24767700  0.95337200  0.40217000  1
  Fe  Fe0  1  0.74998300  0.65001400  0.79998100  1
  Fe  Fe1  1  0.24998800  0.15000200  0.79998000  1
  O  O0  1  0.75000500  0.15000000  0.80001000  1
  O  O1  1  0.25000600  0.64999800  0.80000900  1
  O  O2  1  0.25000700  0.14999100  0.30000600  1
  O  O3  1  0.75000600  0.64999900  0.30000000  1
  O  O4  1  0.50003600  0.39998900  0.29998000  1
  O  O5  1  0.99997600  0.90000000  0.30002600  1
  O  O6  1  0.75285000  0.94940400  0.40424300  1
  O  O7  1  0.25289400  0.44941400  0.40425000  1
  O  O8  1  0.74715900  0.35059100  0.19576200  1
  O  O9  1  0.24712000  0.85057400  0.19575700  1
  O  O10  1  0.75169400  0.54523100  0.59398800  1
  O  O11  1  0.25169900  0.04522900  0.59395300  1
  O  O12  1  0.24830700  0.25477300  0.00606300  1
  O  O13  1  0.74829900  0.75477400  0.00600500  1
  O  O14  1  0.75196400  0.24688000  0.49868100  1
  O  O15  1  0.25198300  0.74689600  0.49872900  1
  O  O16  1  0.74804300  0.05312400  0.10133100  1
  O  O17  1  0.24802500  0.55310600  0.10127600  1
  O  O18  1  0.50253000  0.99752300  0.49863900  1
  O  O19  1  0.00251200  0.49749700  0.49861800  1
  O  O20  1  0.49749200  0.80250200  0.10139100  1
  O  O21  1  0.99746900  0.30247400  0.10136600  1
  O  O22  1  0.25133900  0.34618300  0.70283500  1
  O  O23  1  0.75131500  0.84620000  0.70279500  1
  O  O24  1  0.74866900  0.45381100  0.89719200  1
  O  O25  1  0.24865800  0.95382300  0.89717100  1
  O  O26  1  0.00554600  0.10022800  0.70291700  1
  O  O27  1  0.50556400  0.60022900  0.70293100  1
  O  O28  1  0.99441800  0.69977900  0.89705500  1
  O  O29  1  0.49445300  0.19977600  0.89708900  1
loop_
_geom_bond_atom_site_label_1
_geom_bond_atom_site_label_2
_geom_bond_distance
_geom_bond_site_symmetry_2
Fe0 O27 1.918850 1_555
Fe0 O28 1.918974 1_555
Fe0 O23 1.921466 1_555
Fe0 O24 1.921697 1_555
Fe0 O10 2.063811 1_555
Fe0 O13 2.063856 1_556
Fe1 O26 1.919030 1_555
Fe1 O29 1.919209 1_555
Fe1 O22 1.921267 1_555
Fe1 O25 1.921431 1_545
Fe1 O11 2.064041 1_555
Fe1 O12 2.064356 1_556
O0 Ti0 2.010670 1_556
O0 Ti2 2.010888 1_555
O0 Sr0 2.774396 1_555
O0 Sr1 2.774409 1_545
O0 Sr6 2.774912 1_555
O0 Sr9 2.774944 1_545
O1 Ti1 2.010971 1_556
O1 Ti3 2.011062 1_555
O1 Sr1 2.774518 1_555
O1 Sr0 2.774526 1_455
O1 Sr8 2.774712 1_555
O1 Sr7 2.774742 1_555
O2 Ti7 1.944844 1_545
O2 Ti5 1.944950 1_555
O2 Sr4 2.809471 1_555
O2 Sr2 2.809472 1_555
O2 Sr9 2.833627 1_444
O2 Sr6 2.833637 1_555
O3 Ti6 1.944812 1_555
O3 Ti4 1.944854 1_555
O3 Sr3 2.809530 1_555
O3 Sr5 2.809559 1_555
O3 Sr8 2.833395 1_554
O3 Sr7 2.833478 1_655
O4 Ti6 1.944048 1_555
O4 Ti5 1.945084 1_555
O4 Sr4 2.808864 1_555
O4 Sr3 2.809148 1_555
O4 Sr8 2.833075 1_554
O4 Sr6 2.833357 1_555
O5 Ti4 1.944164 1_555
O5 Ti7 1.945052 1_655
O5 Sr2 2.808836 1_665
O5 Sr5 2.809139 1_555
O5 Sr7 2.833103 1_655
O5 Sr9 2.833287 1_554
O6 Ti2 1.950971 1_565
O6 Ti4 2.049938 1_555
O6 Sr7 2.747974 1_655
O6 Sr2 2.773435 1_665
O6 Sr3 2.775807 1_555
O6 Sr4 2.817282 1_565
O7 Ti3 1.950885 1_555
O7 Ti5 2.050122 1_555
O7 Sr6 2.747584 1_555
O7 Sr3 2.773011 1_555
O7 Sr2 2.775946 1_555
O7 Sr5 2.817800 1_455
O8 Ti0 1.951045 1_555
O8 Ti6 2.049890 1_555
O8 Sr8 2.747957 1_554
O8 Sr4 2.773482 1_555
O8 Sr5 2.775834 1_555
O8 Sr2 2.817205 1_655
O9 Ti1 1.950838 1_555
O9 Ti7 2.050126 1_555
O9 Sr9 2.747606 1_454
O9 Sr5 2.772965 1_455
O9 Sr4 2.775915 1_565
O9 Sr3 2.817486 1_555
O10 Ti6 1.877424 1_555
O10 Sr0 2.757735 1_555
O10 Sr6 2.776691 1_555
O10 Sr7 2.777647 1_655
O10 Sr3 2.787689 1_555
O11 Ti7 1.876822 1_545
O11 Sr1 2.758542 1_545
O11 Sr7 2.777275 1_545
O11 Sr6 2.778011 1_555
O11 Sr2 2.787784 1_555
O12 Ti5 1.876668 1_555
O12 Sr0 2.758723 1_454
O12 Sr8 2.777314 1_554
O12 Sr9 2.778068 1_444
O12 Sr4 2.787743 1_555
O13 Ti4 1.877369 1_555
O13 Sr1 2.757761 1_554
O13 Sr9 2.776630 1_554
O13 Sr8 2.777618 1_554
O13 Sr5 2.787637 1_555
O14 Ti2 1.917925 1_555
O14 Ti6 2.001401 1_555
O14 Sr2 2.749618 1_655
O14 Sr0 2.805767 1_555
O14 Sr4 2.806533 1_555
O14 Sr6 2.865463 1_555
O15 Ti3 1.917870 1_555
O15 Ti7 2.001336 1_555
O15 Sr3 2.749719 1_555
O15 Sr1 2.805641 1_555
O15 Sr5 2.807081 1_455
O15 Sr7 2.865393 1_555
O16 Ti0 1.918019 1_555
O16 Ti4 2.001362 1_545
O16 Sr4 2.749503 1_555
O16 Sr1 2.805718 1_544
O16 Sr2 2.806317 1_655
O16 Sr9 2.865510 1_544
O17 Ti1 1.917860 1_555
O17 Ti5 2.001417 1_555
O17 Sr5 2.749623 1_455
O17 Sr0 2.805549 1_454
O17 Sr3 2.806783 1_555
O17 Sr8 2.865395 1_554
O18 Ti2 1.916215 1_565
O18 Ti7 2.002301 1_555
O18 Sr3 2.750936 1_555
O18 Sr4 2.805688 1_565
O18 Sr1 2.806663 1_555
O18 Sr6 2.864826 1_565
O19 Ti3 1.915848 1_555
O19 Ti6 2.002702 1_455
O19 Sr2 2.750617 1_555
O19 Sr5 2.806028 1_455
O19 Sr0 2.806595 1_455
O19 Sr7 2.864703 1_555
O20 Ti1 1.915934 1_555
O20 Ti4 2.002650 1_555
O20 Sr4 2.750477 1_565
O20 Sr3 2.805682 1_555
O20 Sr1 2.806501 1_554
O20 Sr8 2.864708 1_554
O21 Ti0 1.916213 1_555
O21 Ti5 2.002375 1_655
O21 Sr5 2.750852 1_555
O21 Sr2 2.805555 1_655
O21 Sr0 2.806555 1_554
O21 Sr9 2.864894 1_544
O22 Ti3 2.029666 1_555
O22 Sr8 2.747516 1_555
O22 Sr6 2.753681 1_555
O22 Sr2 2.780853 1_555
O22 Sr0 2.802445 1_455
O23 Ti2 2.029354 1_565
O23 Sr9 2.747526 1_555
O23 Sr7 2.753592 1_655
O23 Sr3 2.780550 1_555
O23 Sr1 2.801805 1_555
O24 Ti0 2.029414 1_556
O24 Sr6 2.747380 1_555
O24 Sr8 2.753467 1_555
O24 Sr5 2.780395 1_556
O24 Sr0 2.801622 1_555
O25 Ti1 2.029699 1_556
O25 Sr7 2.747451 1_555
O25 Sr9 2.753582 1_455
O25 Sr4 2.780693 1_566
O25 Sr1 2.802245 1_555
O26 Ti2 2.033602 1_455
O26 Sr9 2.748078 1_445
O26 Sr7 2.754284 1_545
O26 Sr2 2.779685 1_555
O26 Sr0 2.801740 1_455
O27 Ti3 2.034257 1_555
O27 Sr8 2.747681 1_555
O27 Sr6 2.753921 1_555
O27 Sr3 2.779553 1_555
O27 Sr1 2.801247 1_555
O28 Ti1 2.034345 1_656
O28 Sr7 2.747523 1_655
O28 Sr9 2.753768 1_555
O28 Sr5 2.779366 1_556
O28 Sr0 2.801064 1_555
O29 Ti0 2.033599 1_556
O29 Sr6 2.748004 1_555
O29 Sr8 2.754233 1_555
O29 Sr4 2.779563 1_556
O29 Sr1 2.801531 1_545
