# generated using pymatgen
data_CNO2
_symmetry_space_group_name_H-M   'P 1'
_cell_length_a   7.75376404
_cell_length_b   7.75376404
_cell_length_c   13.90055112
_cell_angle_alpha   83.40010668
_cell_angle_beta   83.40010668
_cell_angle_gamma   69.20060309
_symmetry_Int_Tables_number   1
_chemical_formula_structural   CNO2
_chemical_formula_sum   'C16 N16 O32'
_cell_volume   773.59566236
_cell_formula_units_Z   16
loop_
 _symmetry_equiv_pos_site_id
 _symmetry_equiv_pos_as_xyz
  1  'x, y, z'
loop_
 _atom_site_type_symbol
 _atom_site_label
 _atom_site_symmetry_multiplicity
 _atom_site_fract_x
 _atom_site_fract_y
 _atom_site_fract_z
 _atom_site_occupancy
  C  C0  1  0.76044400  0.05272200  0.31039200  1
  C  C1  1  0.23955600  0.94727800  0.68960800  1
  C  C2  1  0.94727800  0.23955600  0.18960800  1
  C  C3  1  0.05272200  0.76044400  0.81039200  1
  C  C4  1  0.71962800  0.26713400  0.30693600  1
  C  C5  1  0.28037200  0.73286600  0.69306400  1
  C  C6  1  0.73286600  0.28037200  0.19306400  1
  C  C7  1  0.26713400  0.71962800  0.80693600  1
  C  C8  1  0.76943800  0.06696200  0.19670600  1
  C  C9  1  0.23056200  0.93303800  0.80329400  1
  C  C10  1  0.93303800  0.23056200  0.30329400  1
  C  C11  1  0.06696200  0.76943800  0.69670600  1
  C  C12  1  0.97377100  0.01611500  0.30676600  1
  C  C13  1  0.02622900  0.98388500  0.69323400  1
  C  C14  1  0.98388500  0.02622900  0.19323400  1
  C  C15  1  0.01611500  0.97377100  0.80676600  1
  N  N0  1  0.57604900  0.40638800  0.36745000  1
  N  N1  1  0.42395100  0.59361200  0.63255000  1
  N  N2  1  0.59361200  0.42395100  0.13255000  1
  N  N3  1  0.40638800  0.57604900  0.86745000  1
  N  N4  1  0.65519200  0.95054300  0.37592200  1
  N  N5  1  0.34480800  0.04945700  0.62407800  1
  N  N6  1  0.04945700  0.34480800  0.12407800  1
  N  N7  1  0.95054300  0.65519200  0.87592200  1
  N  N8  1  0.13726200  0.89799000  0.13229100  1
  N  N9  1  0.86273800  0.10201000  0.86770900  1
  N  N10  1  0.10201000  0.86273800  0.36770900  1
  N  N11  1  0.89799000  0.13726200  0.63229100  1
  N  N12  1  0.67990100  0.97242600  0.14043200  1
  N  N13  1  0.32009900  0.02757400  0.85956800  1
  N  N14  1  0.02757400  0.32009900  0.35956800  1
  N  N15  1  0.97242600  0.67990100  0.64043200  1
  O  O0  1  0.50052100  0.97499000  0.35171800  1
  O  O1  1  0.49947900  0.02501000  0.64828200  1
  O  O2  1  0.02501000  0.49947900  0.14828200  1
  O  O3  1  0.97499000  0.50052100  0.85171800  1
  O  O4  1  0.83965800  0.09467800  0.56375300  1
  O  O5  1  0.16034200  0.90532200  0.43624700  1
  O  O6  1  0.90532200  0.16034200  0.93624700  1
  O  O7  1  0.09467800  0.83965800  0.06375300  1
  O  O8  1  0.29258900  0.86900700  0.15733900  1
  O  O9  1  0.70741100  0.13099300  0.84266100  1
  O  O10  1  0.13099300  0.70741100  0.34266100  1
  O  O11  1  0.86900700  0.29258900  0.65733900  1
  O  O12  1  0.73094200  0.85709800  0.44653800  1
  O  O13  1  0.26905900  0.14290200  0.55346200  1
  O  O14  1  0.14290200  0.26905800  0.05346200  1
  O  O15  1  0.85709800  0.73094200  0.94653800  1
  O  O16  1  0.59514800  0.06252300  0.07163900  1
  O  O17  1  0.40485200  0.93747700  0.92836100  1
  O  O18  1  0.93747700  0.40485200  0.42836100  1
  O  O19  1  0.06252300  0.59514800  0.57163900  1
  O  O20  1  0.43219800  0.44473100  0.16150700  1
  O  O21  1  0.56780200  0.55526900  0.83849300  1
  O  O22  1  0.55526900  0.56780200  0.33849300  1
  O  O23  1  0.44473100  0.43219800  0.66150700  1
  O  O24  1  0.70429700  0.81085600  0.17021400  1
  O  O25  1  0.29570300  0.18914400  0.82978600  1
  O  O26  1  0.18914400  0.29570300  0.32978600  1
  O  O27  1  0.81085600  0.70429700  0.67021400  1
  O  O28  1  0.49826300  0.34743200  0.43816700  1
  O  O29  1  0.50173700  0.65256800  0.56183300  1
  O  O30  1  0.65256800  0.50173700  0.06183300  1
  O  O31  1  0.34743200  0.49826300  0.93816700  1
loop_
_geom_bond_atom_site_label_1
_geom_bond_atom_site_label_2
_geom_bond_distance
_geom_bond_site_symmetry_2
C0 N4 1.498624 1_545
C0 C8 1.566660 1_555
C0 C12 1.571560 1_555
C0 C4 1.574117 1_555
C1 N5 1.498624 1_565
C1 C9 1.566660 1_555
C1 C13 1.571560 1_555
C1 C5 1.574117 1_555
C2 N6 1.498624 1_655
C2 C6 1.574117 1_555
C3 N7 1.498624 1_455
C3 C7 1.574117 1_555
C4 N0 1.500878 1_555
C4 C6 1.568241 1_555
C5 N1 1.500878 1_555
C5 C7 1.568241 1_555
C6 N2 1.500878 1_555
C6 C8 1.572230 1_555
C7 N3 1.500878 1_555
C7 C9 1.572230 1_555
C8 N12 1.499745 1_545
C9 N13 1.499745 1_565
C10 N14 1.499745 1_655
C10 C2 1.566660 1_555
C10 C4 1.572230 1_555
C10 C12 1.574478 1_555
C11 N15 1.499745 1_455
C11 C3 1.566660 1_555
C11 C5 1.572230 1_555
C11 C13 1.574478 1_555
C12 N10 1.497630 1_645
C12 C14 1.565359 1_555
C13 N11 1.497630 1_465
C13 C15 1.565359 1_555
C14 N8 1.497630 1_645
C14 C2 1.571560 1_555
C14 C8 1.574478 1_555
C15 N9 1.497630 1_465
C15 C3 1.571560 1_555
C15 C9 1.574478 1_555
N0 O28 1.222811 1_555
N0 O22 1.228938 1_555
N1 O29 1.222811 1_555
N1 O23 1.228938 1_555
N2 O30 1.222811 1_555
N2 O20 1.228938 1_555
N3 O31 1.222811 1_555
N3 O21 1.228938 1_555
N4 O12 1.224868 1_555
N4 O0 1.226397 1_555
N5 O13 1.224865 1_555
N5 O1 1.226397 1_555
N6 O14 1.224868 1_555
N6 O2 1.226397 1_555
N7 O15 1.224868 1_555
N7 O3 1.226397 1_555
N8 O7 1.224208 1_555
N8 O8 1.228180 1_555
N9 O6 1.224208 1_555
N9 O9 1.228180 1_555
N10 O5 1.224208 1_555
N10 O10 1.228180 1_555
N11 O4 1.224208 1_555
N11 O11 1.228180 1_555
N12 O16 1.224406 1_565
N12 O24 1.227639 1_555
N13 O17 1.224406 1_545
N13 O25 1.227639 1_555
N14 O18 1.224406 1_455
N14 O26 1.227639 1_555
N15 O19 1.224406 1_655
N15 O27 1.227639 1_555
