# generated using pymatgen
data_U2Re3Si5
_symmetry_space_group_name_H-M   'P 1'
_cell_length_a   10.96495900
_cell_length_b   10.96495900
_cell_length_c   5.48095200
_cell_angle_alpha   90.00000000
_cell_angle_beta   90.00000000
_cell_angle_gamma   90.00000000
_symmetry_Int_Tables_number   1
_chemical_formula_structural   U2Re3Si5
_chemical_formula_sum   'U8 Re12 Si20'
_cell_volume   658.97664505
_cell_formula_units_Z   4
loop_
 _symmetry_equiv_pos_site_id
 _symmetry_equiv_pos_as_xyz
  1  'x, y, z'
loop_
 _atom_site_type_symbol
 _atom_site_label
 _atom_site_symmetry_multiplicity
 _atom_site_fract_x
 _atom_site_fract_y
 _atom_site_fract_z
 _atom_site_occupancy
  U  U0  1  0.57093700  0.73648000  0.50000000  1
  U  U1  1  0.42906300  0.26352000  0.50000000  1
  U  U2  1  0.07093700  0.76352000  0.00000000  1
  U  U3  1  0.92906300  0.23648000  0.00000000  1
  U  U4  1  0.26352000  0.57093700  0.50000000  1
  U  U5  1  0.73648000  0.42906300  0.50000000  1
  U  U6  1  0.23648000  0.07093700  0.00000000  1
  U  U7  1  0.76352000  0.92906300  0.00000000  1
  Re  Re0  1  0.87425900  0.85957400  0.50000000  1
  Re  Re1  1  0.12574100  0.14042600  0.50000000  1
  Re  Re2  1  0.37425900  0.64042600  0.00000000  1
  Re  Re3  1  0.62574100  0.35957400  0.00000000  1
  Re  Re4  1  0.14042600  0.87425900  0.50000000  1
  Re  Re5  1  0.85957400  0.12574100  0.50000000  1
  Re  Re6  1  0.35957400  0.37425900  0.00000000  1
  Re  Re7  1  0.64042600  0.62574100  0.00000000  1
  Re  Re8  1  0.50000000  0.00000000  0.25000000  1
  Re  Re9  1  0.00000000  0.50000000  0.75000000  1
  Re  Re10  1  0.00000000  0.50000000  0.25000000  1
  Re  Re11  1  0.50000000  0.00000000  0.75000000  1
  Si  Si0  1  0.67646400  0.17646400  0.25000000  1
  Si  Si1  1  0.32353600  0.82353600  0.25000000  1
  Si  Si2  1  0.17646400  0.32353600  0.75000000  1
  Si  Si3  1  0.82353600  0.67646400  0.75000000  1
  Si  Si4  1  0.82353600  0.67646400  0.25000000  1
  Si  Si5  1  0.17646400  0.32353600  0.25000000  1
  Si  Si6  1  0.67646400  0.17646400  0.75000000  1
  Si  Si7  1  0.32353600  0.82353600  0.75000000  1
  Si  Si8  1  0.50000000  0.50000000  0.26831700  1
  Si  Si9  1  0.00000000  0.00000000  0.76831700  1
  Si  Si10  1  0.50000000  0.50000000  0.73168300  1
  Si  Si11  1  0.00000000  0.00000000  0.23168300  1
  Si  Si12  1  0.68464600  0.97668500  0.50000000  1
  Si  Si13  1  0.31535400  0.02331500  0.50000000  1
  Si  Si14  1  0.18464600  0.52331500  0.00000000  1
  Si  Si15  1  0.81535400  0.47668500  0.00000000  1
  Si  Si16  1  0.02331500  0.68464600  0.50000000  1
  Si  Si17  1  0.97668500  0.31535400  0.50000000  1
  Si  Si18  1  0.47668500  0.18464600  0.00000000  1
  Si  Si19  1  0.52331500  0.81535400  0.00000000  1
loop_
_geom_bond_atom_site_label_1
_geom_bond_atom_site_label_2
_geom_bond_distance
_geom_bond_site_symmetry_2
Re0 Si12 2.443688 1_555
Re0 Si3 2.493616 1_555
Re0 Si4 2.493616 1_555
Re0 Si16 2.519973 1_655
Re0 Si9 2.536646 1_665
Re0 Si11 2.536646 1_665
Re0 U7 3.092760 1_555
Re0 U7 3.092760 1_556
Re1 Si13 2.443688 1_555
Re1 Si2 2.493616 1_555
Re1 Si5 2.493616 1_555
Re1 Si17 2.519973 1_455
Re1 Si9 2.536646 1_555
Re1 Si11 2.536646 1_555
Re1 U6 3.092760 1_555
Re1 U6 3.092760 1_556
Re2 Si14 2.443688 1_555
Re2 Si1 2.493616 1_555
Re2 Si7 2.493616 1_554
Re2 Si19 2.519973 1_555
Re2 Si8 2.536646 1_555
Re2 Si10 2.536646 1_554
Re2 U4 3.092760 1_554
Re2 U4 3.092760 1_555
Re3 Si15 2.443688 1_555
Re3 Si6 2.493616 1_554
Re3 Si0 2.493616 1_555
Re3 Si18 2.519973 1_555
Re3 Si8 2.536646 1_555
Re3 Si10 2.536646 1_554
Re3 U5 3.092760 1_554
Re3 U5 3.092760 1_555
Re4 Si16 2.443688 1_555
Re4 Si1 2.493616 1_555
Re4 Si7 2.493616 1_555
Re4 Si13 2.519973 1_565
Re4 Si9 2.536646 1_565
Re4 Si11 2.536646 1_565
Re4 U2 3.092760 1_555
Re4 U2 3.092760 1_556
Re5 Si17 2.443688 1_555
Re5 Si0 2.493616 1_555
Re5 Si6 2.493616 1_555
Re5 Si12 2.519973 1_545
Re5 Si9 2.536646 1_655
Re5 Si11 2.536646 1_655
Re5 U3 3.092760 1_555
Re5 U3 3.092760 1_556
Re6 Si18 2.443688 1_555
Re6 Si5 2.493616 1_555
Re6 Si2 2.493616 1_554
Re6 Si14 2.519973 1_555
Re6 Si8 2.536646 1_555
Re6 Si10 2.536646 1_554
Re6 U1 3.092760 1_554
Re6 U1 3.092760 1_555
Re7 Si19 2.443688 1_555
Re7 Si4 2.493616 1_555
Re7 Si3 2.493616 1_554
Re7 Si15 2.519973 1_555
Re7 Si8 2.536646 1_555
Re7 Si10 2.536646 1_554
Re7 U0 3.092760 1_555
Re7 U0 3.092760 1_554
Re8 Si12 2.458060 1_545
Re8 Si18 2.458060 1_555
Re8 Si19 2.458060 1_545
Re8 Si13 2.458060 1_555
Re8 Si0 2.736391 1_555
Re8 Si1 2.736391 1_545
Re8 U6 3.291153 1_555
Re8 U0 3.291153 1_545
Re8 U7 3.291153 1_545
Re8 U1 3.291153 1_555
Re9 Si16 2.458060 1_555
Re9 Si14 2.458060 1_556
Re9 Si15 2.458060 1_456
Re9 Si17 2.458060 1_455
Re9 Si2 2.736391 1_555
Re9 Si3 2.736391 1_455
Re9 U3 3.291153 1_456
Re9 U4 3.291153 1_555
Re9 U2 3.291153 1_556
Re9 U5 3.291153 1_455
Re10 Si16 2.458060 1_555
Re10 Si14 2.458060 1_555
Re10 Si17 2.458060 1_455
Re10 Si15 2.458060 1_455
Re10 Si5 2.736391 1_555
Re10 Si4 2.736391 1_455
Re10 Re9 2.740476 1_554
Re10 Re9 2.740476 1_555
Re10 U3 3.291153 1_455
Re10 U4 3.291153 1_555
Re10 U2 3.291153 1_555
Re10 U5 3.291153 1_455
Re11 Si12 2.458060 1_545
Re11 Si18 2.458060 1_556
Re11 Si13 2.458060 1_555
Re11 Si19 2.458060 1_546
Re11 Si6 2.736391 1_555
Re11 Si7 2.736391 1_545
Re11 Re8 2.740476 1_555
Re11 Re8 2.740476 1_556
Re11 U6 3.291153 1_556
Re11 U0 3.291153 1_545
Re11 U7 3.291153 1_546
Re11 U1 3.291153 1_555
Si0 Si12 2.585380 1_545
Si0 Si18 2.585380 1_555
Si0 Si6 2.740476 1_554
Si0 Si6 2.740476 1_555
Si0 U5 3.159440 1_555
Si0 U3 3.159440 1_555
Si0 U7 3.185548 1_545
Si0 U1 3.185548 1_555
Si1 Si19 2.585380 1_555
Si1 Si13 2.585380 1_565
Si1 Si7 2.740476 1_555
Si1 Si7 2.740476 1_554
Si1 U4 3.159440 1_555
Si1 U2 3.159440 1_555
Si1 U0 3.185548 1_555
Si1 U6 3.185548 1_565
Si2 Si5 2.740476 1_555
Si2 Si5 2.740476 1_556
Si2 U1 3.159440 1_555
Si2 U6 3.159440 1_556
Si2 U3 3.185548 1_456
Si2 U4 3.185548 1_555
Si3 Si4 2.740476 1_555
Si3 Si4 2.740476 1_556
Si3 U0 3.159440 1_555
Si3 U7 3.159440 1_556
Si3 U5 3.185548 1_555
Si3 U2 3.185548 1_656
Si4 U0 3.159440 1_555
Si4 U7 3.159440 1_555
Si4 U5 3.185548 1_555
Si4 U2 3.185548 1_655
Si5 U1 3.159440 1_555
Si5 U6 3.159440 1_555
Si5 U3 3.185548 1_455
Si5 U4 3.185548 1_555
Si6 U5 3.159440 1_555
Si6 U3 3.159440 1_556
Si6 U7 3.185548 1_546
Si6 U1 3.185548 1_555
Si7 U4 3.159440 1_555
Si7 U2 3.159440 1_556
Si7 U0 3.185548 1_555
Si7 U6 3.185548 1_566
Si8 U4 2.990171 1_555
Si8 U0 2.990171 1_555
Si8 U1 2.990171 1_555
Si8 U5 2.990171 1_555
Si9 U2 2.990171 1_546
Si9 U7 2.990171 1_446
Si9 U6 2.990171 1_556
Si9 U3 2.990171 1_456
Si10 Si8 2.539687 1_555
Si10 U4 2.990171 1_555
Si10 U0 2.990171 1_555
Si10 U1 2.990171 1_555
Si10 U5 2.990171 1_555
Si11 Si9 2.539687 1_554
Si11 U2 2.990171 1_545
Si11 U7 2.990171 1_445
Si11 U3 2.990171 1_455
Si11 U6 2.990171 1_555
Si12 Si6 2.585380 1_565
Si12 U0 2.914043 1_555
Si12 U7 2.920760 1_555
Si12 U7 2.920760 1_556
Si13 Si7 2.585380 1_545
Si13 U1 2.914043 1_555
Si13 U6 2.920760 1_555
Si13 U6 2.920760 1_556
Si14 Si5 2.585380 1_555
Si14 Si2 2.585380 1_554
Si14 U2 2.914043 1_555
Si14 U4 2.920760 1_555
Si14 U4 2.920760 1_554
Si15 Si3 2.585380 1_554
Si15 Si4 2.585380 1_555
Si15 U3 2.914043 1_555
Si15 U5 2.920760 1_554
Si15 U5 2.920760 1_555
Si16 Si3 2.585380 1_455
Si16 Si4 2.585380 1_455
Si16 U4 2.914043 1_555
Si16 U2 2.920760 1_555
Si16 U2 2.920760 1_556
Si17 Si5 2.585380 1_655
Si17 Si2 2.585380 1_655
Si17 U5 2.914043 1_555
Si17 U3 2.920760 1_555
Si17 U3 2.920760 1_556
Si18 Si6 2.585380 1_554
Si18 U6 2.914043 1_555
Si18 U1 2.920760 1_554
Si18 U1 2.920760 1_555
Si19 Si7 2.585380 1_554
Si19 U7 2.914043 1_555
Si19 U0 2.920760 1_555
Si19 U0 2.920760 1_554
