# generated using pymatgen
data_Na(MoSe)3
_symmetry_space_group_name_H-M   'P 1'
_cell_length_a   8.77882209
_cell_length_b   8.77717935
_cell_length_c   4.48533995
_cell_angle_alpha   90.00000000
_cell_angle_beta   90.00000000
_cell_angle_gamma   120.02338483
_symmetry_Int_Tables_number   1
_chemical_formula_structural   Na(MoSe)3
_chemical_formula_sum   'Na2 Mo6 Se6'
_cell_volume   299.23668190
_cell_formula_units_Z   2
loop_
 _symmetry_equiv_pos_site_id
 _symmetry_equiv_pos_as_xyz
  1  'x, y, z'
loop_
 _atom_site_type_symbol
 _atom_site_label
 _atom_site_symmetry_multiplicity
 _atom_site_fract_x
 _atom_site_fract_y
 _atom_site_fract_z
 _atom_site_occupancy
  Na  Na0  1  0.33330615  0.66667230  0.25000100  1
  Na  Na1  1  0.66669385  0.33332770  0.75000000  1
  Mo  Mo0  1  0.14766593  0.19118847  0.25000100  1
  Mo  Mo1  1  0.85233407  0.80881153  0.75000000  1
  Mo  Mo2  1  0.80882362  0.95643706  0.25000100  1
  Mo  Mo3  1  0.04349344  0.85237212  0.25000100  1
  Mo  Mo4  1  0.95650656  0.14762788  0.75000000  1
  Mo  Mo5  1  0.19117638  0.04356094  0.75000000  1
  Se  Se0  1  0.91362333  0.29504190  0.25000100  1
  Se  Se1  1  0.08637667  0.70496010  0.75000000  1
  Se  Se2  1  0.70498943  0.61850978  0.25000100  1
  Se  Se3  1  0.38154228  0.08664718  0.25000100  1
  Se  Se4  1  0.61845872  0.91335282  0.75000000  1
  Se  Se5  1  0.29501057  0.38149122  0.75000000  1
loop_
_geom_bond_atom_site_label_1
_geom_bond_atom_site_label_2
_geom_bond_distance
_geom_bond_site_symmetry_2
Na0 Se4 3.249632 1_555
Na0 Se4 3.249638 1_554
Na0 Se5 3.250523 1_555
Na0 Se5 3.250530 1_554
Na0 Se1 3.251251 1_555
Na0 Se1 3.251257 1_554
Na0 Se0 3.491094 1_455
Na0 Se3 3.493609 1_565
Na0 Se2 3.493681 1_555
Na1 Se3 3.249628 1_555
Na1 Se3 3.249635 1_556
Na1 Se2 3.250530 1_555
Na1 Se2 3.250536 1_556
Na1 Se0 3.251243 1_555
Na1 Se0 3.251249 1_556
Na1 Se1 3.491101 1_655
Na1 Se4 3.493612 1_545
Na1 Se5 3.493687 1_555
Mo0 Se0 2.631835 1_455
Mo0 Se3 2.634896 1_555
Mo0 Se5 2.707506 1_555
Mo0 Se5 2.707513 1_554
Mo0 Na0 3.642394 1_555
Mo1 Se1 2.631822 1_655
Mo1 Se4 2.634887 1_555
Mo1 Se2 2.707502 1_555
Mo1 Se2 2.707510 1_556
Mo1 Na1 3.642394 1_555
Mo2 Se2 2.631114 1_555
Mo2 Se0 2.634951 1_565
Mo2 Se4 2.707947 1_555
Mo2 Se4 2.707954 1_554
Mo2 Na0 3.642833 1_555
Mo3 Se3 2.632238 1_565
Mo3 Se2 2.634402 1_455
Mo3 Se1 2.707912 1_555
Mo3 Se1 2.707920 1_554
Mo3 Na0 3.644100 1_555
Mo4 Se4 2.632231 1_545
Mo4 Se5 2.634404 1_655
Mo4 Se0 2.707922 1_555
Mo4 Se0 2.707929 1_556
Mo4 Na1 3.644100 1_555
Mo5 Se5 2.631140 1_555
Mo5 Se1 2.634918 1_545
Mo5 Se3 2.707949 1_555
Mo5 Se3 2.707956 1_556
Mo5 Na1 3.642835 1_555
