# generated using pymatgen
data_Ce5Si4
_symmetry_space_group_name_H-M   'P 1'
_cell_length_a   7.81720100
_cell_length_b   7.81720100
_cell_length_c   14.62739100
_cell_angle_alpha   90.00000000
_cell_angle_beta   90.00000000
_cell_angle_gamma   90.00000000
_symmetry_Int_Tables_number   1
_chemical_formula_structural   Ce5Si4
_chemical_formula_sum   'Ce20 Si16'
_cell_volume   893.85984605
_cell_formula_units_Z   4
loop_
 _symmetry_equiv_pos_site_id
 _symmetry_equiv_pos_as_xyz
  1  'x, y, z'
loop_
 _atom_site_type_symbol
 _atom_site_label
 _atom_site_symmetry_multiplicity
 _atom_site_fract_x
 _atom_site_fract_y
 _atom_site_fract_z
 _atom_site_occupancy
  Ce  Ce0  1  0.17860200  0.82139800  0.75000000  1
  Ce  Ce1  1  0.82139800  0.17860200  0.25000000  1
  Ce  Ce2  1  0.32139800  0.32139800  0.50000000  1
  Ce  Ce3  1  0.67860200  0.67860200  0.00000000  1
  Ce  Ce4  1  0.13985000  0.50375900  0.29274200  1
  Ce  Ce5  1  0.86015000  0.49624100  0.79274200  1
  Ce  Ce6  1  0.00375900  0.36015000  0.04274200  1
  Ce  Ce7  1  0.99624100  0.63985000  0.54274200  1
  Ce  Ce8  1  0.49624100  0.86015000  0.20725800  1
  Ce  Ce9  1  0.50375900  0.13985000  0.70725800  1
  Ce  Ce10  1  0.36015000  0.00375900  0.95725800  1
  Ce  Ce11  1  0.63985000  0.99624100  0.45725800  1
  Ce  Ce12  1  0.13282300  0.99592200  0.37473400  1
  Ce  Ce13  1  0.86717700  0.00407800  0.87473400  1
  Ce  Ce14  1  0.49592200  0.36717700  0.12473400  1
  Ce  Ce15  1  0.50407800  0.63282300  0.62473400  1
  Ce  Ce16  1  0.00407800  0.86717700  0.12526600  1
  Ce  Ce17  1  0.99592200  0.13282300  0.62526600  1
  Ce  Ce18  1  0.36717700  0.49592200  0.87526600  1
  Ce  Ce19  1  0.63282300  0.50407800  0.37526600  1
  Si  Si0  1  0.34360500  0.70811400  0.43954000  1
  Si  Si1  1  0.65639500  0.29188600  0.93954000  1
  Si  Si2  1  0.20811400  0.15639500  0.18954000  1
  Si  Si3  1  0.79188600  0.84360500  0.68954000  1
  Si  Si4  1  0.29188600  0.65639500  0.06046000  1
  Si  Si5  1  0.70811400  0.34360500  0.56046000  1
  Si  Si6  1  0.15639500  0.20811400  0.81046000  1
  Si  Si7  1  0.84360500  0.79188600  0.31046000  1
  Si  Si8  1  0.29826900  0.93526000  0.55898100  1
  Si  Si9  1  0.70173100  0.06474000  0.05898100  1
  Si  Si10  1  0.43526000  0.20173100  0.30898100  1
  Si  Si11  1  0.56474000  0.79826900  0.80898100  1
  Si  Si12  1  0.06474000  0.70173100  0.94101900  1
  Si  Si13  1  0.93526000  0.29826900  0.44101900  1
  Si  Si14  1  0.20173100  0.43526000  0.69101900  1
  Si  Si15  1  0.79826900  0.56474000  0.19101900  1
loop_
_geom_bond_atom_site_label_1
_geom_bond_atom_site_label_2
_geom_bond_distance
_geom_bond_site_symmetry_2
Ce0 Si12 3.078048 1_555
Ce0 Si8 3.078048 1_555
Ce0 Si14 3.144592 1_555
Ce0 Si11 3.144592 1_555
Ce0 Si3 3.154521 1_455
Ce0 Si6 3.154521 1_565
Ce1 Si9 3.078048 1_555
Ce1 Si13 3.078048 1_555
Ce1 Si10 3.144592 1_555
Ce1 Si15 3.144592 1_555
Ce1 Si7 3.154521 1_545
Ce1 Si2 3.154521 1_655
Ce2 Si14 3.078048 1_555
Ce2 Si10 3.078048 1_555
Ce2 Si8 3.144592 1_545
Ce2 Si13 3.144592 1_455
Ce2 Si0 3.154521 1_555
Ce2 Si5 3.154521 1_555
Ce3 Si15 3.078048 1_555
Ce3 Si11 3.078048 1_554
Ce3 Si9 3.144592 1_565
Ce3 Si12 3.144592 1_654
Ce3 Si1 3.154521 1_554
Ce3 Si4 3.154521 1_555
Ce4 Si15 3.093739 1_455
Ce4 Si0 3.114438 1_555
Ce4 Si13 3.137254 1_455
Ce4 Si2 3.152310 1_555
Ce4 Si7 3.240863 1_455
Ce4 Si10 3.311130 1_555
Ce4 Si4 3.792155 1_555
Ce5 Si14 3.093739 1_655
Ce5 Si1 3.114438 1_555
Ce5 Si12 3.137254 1_655
Ce5 Si3 3.152310 1_555
Ce5 Si6 3.240863 1_655
Ce5 Si11 3.311130 1_555
Ce5 Si5 3.792155 1_555
Ce6 Si12 3.093739 1_554
Ce6 Si2 3.114438 1_555
Ce6 Si15 3.137254 1_455
Ce6 Si1 3.152310 1_454
Ce6 Si4 3.240863 1_555
Ce6 Si9 3.311130 1_455
Ce6 Si6 3.792155 1_554
Ce7 Si13 3.093739 1_555
Ce7 Si3 3.114438 1_555
Ce7 Si14 3.137254 1_655
Ce7 Si0 3.152310 1_655
Ce7 Si5 3.240863 1_555
Ce7 Si8 3.311130 1_655
Ce7 Si7 3.792155 1_555
Ce8 Si10 3.093739 1_565
Ce8 Si4 3.114438 1_555
Ce8 Si9 3.137254 1_565
Ce8 Si7 3.152310 1_555
Ce8 Si2 3.240863 1_565
Ce8 Si15 3.311130 1_555
Ce8 Si0 3.792155 1_555
Ce9 Si11 3.093739 1_545
Ce9 Si5 3.114438 1_555
Ce9 Si8 3.137254 1_545
Ce9 Si6 3.152310 1_555
Ce9 Si3 3.240863 1_545
Ce9 Si14 3.311130 1_555
Ce9 Si1 3.792155 1_555
Ce10 Si9 3.093739 1_556
Ce10 Si6 3.114438 1_555
Ce10 Si11 3.137254 1_545
Ce10 Si4 3.152310 1_546
Ce10 Si1 3.240863 1_555
Ce10 Si12 3.311130 1_545
Ce10 Si2 3.792155 1_556
Ce11 Si8 3.093739 1_555
Ce11 Si7 3.114438 1_555
Ce11 Si10 3.137254 1_565
Ce11 Si5 3.152310 1_565
Ce11 Si0 3.240863 1_555
Ce11 Si13 3.311130 1_565
Ce11 Si3 3.792155 1_555
Ce12 Si7 2.922234 1_455
Ce12 Si0 2.945409 1_555
Ce12 Si13 2.985194 1_465
Ce12 Si10 3.017108 1_565
Ce12 Si8 3.026693 1_555
Ce12 Si2 3.042732 1_565
Ce13 Si6 2.922234 1_655
Ce13 Si1 2.945409 1_555
Ce13 Si12 2.985194 1_645
Ce13 Si11 3.017108 1_545
Ce13 Si9 3.026693 1_556
Ce13 Si3 3.042732 1_545
Ce14 Si4 2.922234 1_555
Ce14 Si2 2.945409 1_555
Ce14 Si15 2.985194 1_555
Ce14 Si9 3.017108 1_555
Ce14 Si10 3.026693 1_555
Ce14 Si1 3.042732 1_554
Ce15 Si5 2.922234 1_555
Ce15 Si3 2.945409 1_555
Ce15 Si14 2.985194 1_555
Ce15 Si8 3.017108 1_555
Ce15 Si11 3.026693 1_555
Ce15 Si0 3.042732 1_555
Ce16 Si2 2.922234 1_565
Ce16 Si4 2.945409 1_555
Ce16 Si9 2.985194 1_465
Ce16 Si15 3.017108 1_455
Ce16 Si12 3.026693 1_554
Ce16 Si7 3.042732 1_455
Ce17 Si3 2.922234 1_545
Ce17 Si5 2.945409 1_555
Ce17 Si8 2.985194 1_645
Ce17 Si14 3.017108 1_655
Ce17 Si13 3.026693 1_555
Ce17 Si6 3.042732 1_655
Ce18 Si1 2.922234 1_555
Ce18 Si6 2.945409 1_555
Ce18 Si11 2.985194 1_555
Ce18 Si12 3.017108 1_555
Ce18 Si14 3.026693 1_555
Ce18 Si4 3.042732 1_556
Ce19 Si0 2.922234 1_555
Ce19 Si7 2.945409 1_555
Ce19 Si10 2.985194 1_555
Ce19 Si13 3.017108 1_555
Ce19 Si15 3.026693 1_555
Ce19 Si5 3.042732 1_555
Si0 Si8 2.516130 1_555
Si1 Si9 2.516130 1_556
Si10 Si2 2.516130 1_555
Si11 Si3 2.516130 1_555
Si12 Si4 2.516130 1_556
Si13 Si5 2.516130 1_555
Si14 Si6 2.516130 1_555
Si15 Si7 2.516130 1_555
