# generated using pymatgen
data_CsNa2H3(SO4)3
_symmetry_space_group_name_H-M   'P 1'
_cell_length_a   10.71621691
_cell_length_b   10.71621691
_cell_length_c   10.71621691
_cell_angle_alpha   90.00000000
_cell_angle_beta   90.00000000
_cell_angle_gamma   90.00000000
_symmetry_Int_Tables_number   1
_chemical_formula_structural   CsNa2H3(SO4)3
_chemical_formula_sum   'Cs4 Na8 H12 S12 O48'
_cell_volume   1230.62146826
_cell_formula_units_Z   4
loop_
 _symmetry_equiv_pos_site_id
 _symmetry_equiv_pos_as_xyz
  1  'x, y, z'
loop_
 _atom_site_type_symbol
 _atom_site_label
 _atom_site_symmetry_multiplicity
 _atom_site_fract_x
 _atom_site_fract_y
 _atom_site_fract_z
 _atom_site_occupancy
  Cs  Cs0  1  0.05199660  0.94800340  0.44800340  1
  Cs  Cs1  1  0.55199660  0.55199660  0.55199660  1
  Cs  Cs2  1  0.44800340  0.05199660  0.94800340  1
  Cs  Cs3  1  0.94800340  0.44800340  0.05199660  1
  Na  Na0  1  0.82764669  0.82764669  0.82764669  1
  Na  Na1  1  0.17235331  0.32764669  0.67235331  1
  Na  Na2  1  0.32764669  0.67235331  0.17235331  1
  Na  Na3  1  0.67235331  0.17235331  0.32764669  1
  Na  Na4  1  0.40066142  0.90066142  0.59933858  1
  Na  Na5  1  0.90066142  0.59933858  0.40066142  1
  Na  Na6  1  0.59933858  0.40066142  0.90066142  1
  Na  Na7  1  0.09933858  0.09933858  0.09933858  1
  H  H0  1  0.14096770  0.82768580  0.99870174  1
  H  H1  1  0.00129826  0.64096770  0.67231420  1
  H  H2  1  0.32768580  0.50129826  0.85903230  1
  H  H3  1  0.64096770  0.67231420  0.00129826  1
  H  H4  1  0.50129826  0.85903230  0.32768580  1
  H  H5  1  0.82768580  0.99870174  0.14096770  1
  H  H6  1  0.85903230  0.32768580  0.50129826  1
  H  H7  1  0.99870174  0.14096770  0.82768580  1
  H  H8  1  0.67231420  0.00129826  0.64096770  1
  H  H9  1  0.35903230  0.17231420  0.49870174  1
  H  H10  1  0.49870174  0.35903230  0.17231420  1
  H  H11  1  0.17231420  0.49870174  0.35903230  1
  S  S0  1  0.98454644  0.78693023  0.12181895  1
  S  S1  1  0.87818105  0.48454644  0.71306977  1
  S  S2  1  0.28693023  0.37818105  0.01545356  1
  S  S3  1  0.48454644  0.71306977  0.87818105  1
  S  S4  1  0.37818105  0.01545356  0.28693023  1
  S  S5  1  0.78693023  0.12181895  0.98454644  1
  S  S6  1  0.01545356  0.28693023  0.37818105  1
  S  S7  1  0.12181895  0.98454644  0.78693023  1
  S  S8  1  0.71306977  0.87818105  0.48454644  1
  S  S9  1  0.51545356  0.21306977  0.62181895  1
  S  S10  1  0.62181895  0.51545356  0.21306977  1
  S  S11  1  0.21306977  0.62181895  0.51545356  1
  O  O0  1  0.12469617  0.76888418  0.06978758  1
  O  O1  1  0.93021242  0.62469617  0.73111582  1
  O  O2  1  0.26888418  0.43021242  0.87530383  1
  O  O3  1  0.62469617  0.73111582  0.93021242  1
  O  O4  1  0.43021242  0.87530383  0.26888418  1
  O  O5  1  0.76888418  0.06978758  0.12469617  1
  O  O6  1  0.87530383  0.26888418  0.43021242  1
  O  O7  1  0.06978758  0.12469617  0.76888418  1
  O  O8  1  0.73111582  0.93021242  0.62469617  1
  O  O9  1  0.37530383  0.23111582  0.56978758  1
  O  O10  1  0.56978758  0.37530383  0.23111582  1
  O  O11  1  0.23111582  0.56978758  0.37530383  1
  O  O12  1  0.97082246  0.91966916  0.15766699  1
  O  O13  1  0.84233301  0.47082246  0.58033084  1
  O  O14  1  0.41966916  0.34233301  0.02917754  1
  O  O15  1  0.47082246  0.58033084  0.84233301  1
  O  O16  1  0.34233301  0.02917754  0.41966916  1
  O  O17  1  0.91966916  0.15766699  0.97082246  1
  O  O18  1  0.02917754  0.41966916  0.34233301  1
  O  O19  1  0.15766699  0.97082246  0.91966916  1
  O  O20  1  0.58033084  0.84233301  0.47082246  1
  O  O21  1  0.52917754  0.08033084  0.65766699  1
  O  O22  1  0.65766699  0.52917754  0.08033084  1
  O  O23  1  0.08033084  0.65766699  0.52917754  1
  O  O24  1  0.98423569  0.70302932  0.22870373  1
  O  O25  1  0.77129627  0.48423569  0.79697068  1
  O  O26  1  0.20302932  0.27129627  0.01576431  1
  O  O27  1  0.48423569  0.79697068  0.77129627  1
  O  O28  1  0.27129627  0.01576431  0.20302932  1
  O  O29  1  0.70302932  0.22870373  0.98423569  1
  O  O30  1  0.01576431  0.20302932  0.27129627  1
  O  O31  1  0.22870373  0.98423569  0.70302932  1
  O  O32  1  0.79697068  0.77129627  0.48423569  1
  O  O33  1  0.51576431  0.29697068  0.72870373  1
  O  O34  1  0.72870373  0.51576431  0.29697068  1
  O  O35  1  0.29697068  0.72870373  0.51576431  1
  O  O36  1  0.89963891  0.75142855  0.02147071  1
  O  O37  1  0.97852929  0.39963891  0.74857145  1
  O  O38  1  0.25142855  0.47852929  0.10036109  1
  O  O39  1  0.39963891  0.74857145  0.97852929  1
  O  O40  1  0.47852929  0.10036109  0.25142855  1
  O  O41  1  0.75142855  0.02147071  0.89963891  1
  O  O42  1  0.10036109  0.25142855  0.47852929  1
  O  O43  1  0.02147071  0.89963891  0.75142855  1
  O  O44  1  0.74857145  0.97852929  0.39963891  1
  O  O45  1  0.60036109  0.24857145  0.52147071  1
  O  O46  1  0.52147071  0.60036109  0.24857145  1
  O  O47  1  0.24857145  0.52147071  0.60036109  1
loop_
_geom_bond_atom_site_label_1
_geom_bond_atom_site_label_2
_geom_bond_distance
_geom_bond_site_symmetry_2
Cs0 O12 3.244861 1_455
Cs0 O16 3.244861 1_565
Cs0 O23 3.244861 1_555
Cs0 O42 3.308827 1_565
Cs0 O44 3.308827 1_455
Cs0 O43 3.308827 1_555
Cs0 O30 3.347449 1_565
Cs0 O31 3.347449 1_555
Cs0 O32 3.347449 1_455
Cs0 O28 3.597461 1_565
Cs0 O35 3.597461 1_555
Cs0 O24 3.597461 1_455
Cs1 O15 3.244861 1_555
Cs1 O13 3.244861 1_555
Cs1 O20 3.244861 1_555
Cs1 O46 3.308827 1_555
Cs1 O47 3.308827 1_555
Cs1 O45 3.308827 1_555
Cs1 O34 3.347449 1_555
Cs1 O33 3.347449 1_555
Cs1 O35 3.347449 1_555
Cs1 O27 3.597461 1_555
Cs1 O32 3.597461 1_555
Cs1 O25 3.597461 1_555
Cs2 O14 3.244861 1_556
Cs2 O19 3.244861 1_545
Cs2 O21 3.244861 1_555
Cs2 O40 3.308827 1_556
Cs2 O41 3.308827 1_555
Cs2 O39 3.308827 1_545
Cs2 O29 3.347449 1_555
Cs2 O28 3.347449 1_556
Cs2 O27 3.347449 1_545
Cs2 O26 3.597461 1_556
Cs2 O33 3.597461 1_555
Cs2 O31 3.597461 1_545
Cs3 O18 3.244861 1_655
Cs3 O17 3.244861 1_554
Cs3 O22 3.244861 1_555
Cs3 O38 3.308827 1_655
Cs3 O37 3.308827 1_554
Cs3 O36 3.308827 1_555
Cs3 O24 3.347449 1_555
Cs3 O26 3.347449 1_655
Cs3 O25 3.347449 1_554
Cs3 O30 3.597461 1_655
Cs3 O34 3.597461 1_555
Cs3 O29 3.597461 1_554
Na0 O41 2.361457 1_565
Na0 O36 2.361457 1_556
Na0 O43 2.361457 1_655
Na0 O3 2.647293 1_555
Na0 O8 2.647293 1_555
Na0 O1 2.647293 1_555
Na1 O47 2.361457 1_555
Na1 O42 2.361457 1_555
Na1 O37 2.361457 1_455
Na1 O2 2.647293 1_555
Na1 O9 2.647293 1_555
Na1 O7 2.647293 1_555
Na2 O46 2.361457 1_555
Na2 O39 2.361457 1_554
Na2 O38 2.361457 1_555
Na2 O4 2.647293 1_555
Na2 O11 2.647293 1_555
Na2 O0 2.647293 1_555
Na3 O45 2.361457 1_555
Na3 O40 2.361457 1_555
Na3 O44 2.361457 1_545
Na3 O6 2.647293 1_555
Na3 O10 2.647293 1_555
Na3 O5 2.647293 1_555
Na4 O31 2.330768 1_555
Na4 O35 2.330768 1_555
Na4 O27 2.330768 1_555
Na4 O21 2.448361 1_565
Na4 O16 2.448361 1_565
Na4 O20 2.448361 1_555
Na5 O24 2.330768 1_555
Na5 O34 2.330768 1_555
Na5 O32 2.330768 1_555
Na5 O23 2.448361 1_655
Na5 O13 2.448361 1_555
Na5 O18 2.448361 1_655
Na6 O29 2.330768 1_555
Na6 O33 2.330768 1_555
Na6 O25 2.330768 1_555
Na6 O22 2.448361 1_556
Na6 O14 2.448361 1_556
Na6 O15 2.448361 1_555
Na7 O28 2.330768 1_555
Na7 O26 2.330768 1_555
Na7 O30 2.330768 1_555
Na7 O12 2.448361 1_445
Na7 O19 2.448361 1_544
Na7 O17 2.448361 1_454
H0 O0 1.003875 1_556
H0 O19 1.761282 1_555
H1 O1 1.003875 1_455
H1 O23 1.761282 1_555
H2 O2 1.003875 1_555
H2 O15 1.761282 1_555
H3 O3 1.003875 1_554
H3 O22 1.761282 1_555
H4 O4 1.003875 1_555
H4 O20 1.761282 1_555
H5 O5 1.003875 1_565
H5 O12 1.761282 1_555
H6 O6 1.003875 1_555
H6 O13 1.761282 1_555
H7 O7 1.003875 1_655
H7 O17 1.761282 1_555
H8 O8 1.003875 1_545
H8 O21 1.761282 1_555
H9 O9 1.003875 1_555
H9 O16 1.761282 1_555
H10 O10 1.003875 1_555
H10 O14 1.761282 1_555
H11 O11 1.003875 1_555
H11 O18 1.761282 1_555
O0 S0 1.613667 1_455
O1 S1 1.613667 1_555
O2 S2 1.613667 1_556
O3 S3 1.613667 1_555
O4 S4 1.613667 1_565
O5 S5 1.613667 1_554
O6 S6 1.613667 1_655
O7 S7 1.613667 1_545
O8 S8 1.613667 1_555
O9 S9 1.613667 1_555
O10 S10 1.613667 1_555
O11 S11 1.613667 1_555
O12 S0 1.480741 1_555
O13 S1 1.480741 1_555
O14 S2 1.480741 1_555
O15 S3 1.480741 1_555
O16 S4 1.480741 1_555
O17 S5 1.480741 1_555
O18 S6 1.480741 1_555
O19 S7 1.480741 1_555
O20 S8 1.480741 1_555
O21 S9 1.480741 1_555
O22 S10 1.480741 1_555
O23 S11 1.480741 1_555
O24 S0 1.456137 1_555
O25 S1 1.456137 1_555
O26 S2 1.456137 1_555
O27 S3 1.456137 1_555
O28 S4 1.456137 1_555
O29 S5 1.456137 1_555
O30 S6 1.456137 1_555
O31 S7 1.456137 1_555
O32 S8 1.456137 1_555
O33 S9 1.456137 1_555
O34 S10 1.456137 1_555
O35 S11 1.456137 1_555
O36 S0 1.459115 1_555
O37 S1 1.459115 1_555
O38 S2 1.459115 1_555
O39 S3 1.459115 1_555
O40 S4 1.459115 1_555
O41 S5 1.459115 1_555
O42 S6 1.459115 1_555
O43 S7 1.459115 1_555
O44 S8 1.459115 1_555
O45 S9 1.459115 1_555
O46 S10 1.459115 1_555
O47 S11 1.459115 1_555
