# generated using pymatgen
data_HfNi
_symmetry_space_group_name_H-M   'P 1'
_cell_length_a   3.20186012
_cell_length_b   4.03489344
_cell_length_c   5.17100329
_cell_angle_alpha   90.00000000
_cell_angle_beta   71.96502597
_cell_angle_gamma   90.00000000
_symmetry_Int_Tables_number   1
_chemical_formula_structural   HfNi
_chemical_formula_sum   'Hf2 Ni2'
_cell_volume   63.52275695
_cell_formula_units_Z   2
loop_
 _symmetry_equiv_pos_site_id
 _symmetry_equiv_pos_as_xyz
  1  'x, y, z'
loop_
 _atom_site_type_symbol
 _atom_site_label
 _atom_site_symmetry_multiplicity
 _atom_site_fract_x
 _atom_site_fract_y
 _atom_site_fract_z
 _atom_site_occupancy
  Hf  Hf0  1  0.13898660  0.75000000  0.72202780  1
  Hf  Hf1  1  0.86101340  0.25000000  0.27797220  1
  Ni  Ni0  1  0.41574549  0.75000000  0.16850802  1
  Ni  Ni1  1  0.58425451  0.25000000  0.83149198  1
loop_
_geom_bond_atom_site_label_1
_geom_bond_atom_site_label_2
_geom_bond_distance
_geom_bond_site_symmetry_2
Hf0 Ni1 2.631114 1_565
Hf0 Ni1 2.631114 1_555
Hf0 Ni1 2.631114 1_455
Hf0 Ni1 2.631114 1_465
Hf0 Ni0 2.717054 1_556
Hf0 Ni0 2.717058 1_456
Hf0 Ni0 2.721624 1_555
Hf1 Ni0 2.631114 1_555
Hf1 Ni0 2.631114 1_545
Hf1 Ni0 2.631114 1_655
Hf1 Ni0 2.631114 1_645
Hf1 Ni1 2.717054 1_554
Hf1 Ni1 2.717058 1_654
Hf1 Ni1 2.721624 1_555
Ni0 Ni1 2.610753 1_564
Ni0 Ni1 2.610753 1_554
