# generated using pymatgen
data_Dy12Ni6Pb
_symmetry_space_group_name_H-M   'P 1'
_cell_length_a   8.37248145
_cell_length_b   8.37248145
_cell_length_c   8.37248145
_cell_angle_alpha   109.47122063
_cell_angle_beta   109.47122063
_cell_angle_gamma   109.47122063
_symmetry_Int_Tables_number   1
_chemical_formula_structural   Dy12Ni6Pb
_chemical_formula_sum   'Dy12 Ni6 Pb1'
_cell_volume   451.79424186
_cell_formula_units_Z   1
loop_
 _symmetry_equiv_pos_site_id
 _symmetry_equiv_pos_as_xyz
  1  'x, y, z'
loop_
 _atom_site_type_symbol
 _atom_site_label
 _atom_site_symmetry_multiplicity
 _atom_site_fract_x
 _atom_site_fract_y
 _atom_site_fract_z
 _atom_site_occupancy
  Dy  Dy0  1  0.81178075  0.69420977  0.50599052  1
  Dy  Dy1  1  0.18821925  0.30579023  0.49400948  1
  Dy  Dy2  1  0.18821925  0.69420977  0.88242902  1
  Dy  Dy3  1  0.81178075  0.30579023  0.11757098  1
  Dy  Dy4  1  0.69420977  0.50599052  0.81178075  1
  Dy  Dy5  1  0.30579023  0.49400948  0.18821925  1
  Dy  Dy6  1  0.69420977  0.88242902  0.18821925  1
  Dy  Dy7  1  0.30579023  0.11757098  0.81178075  1
  Dy  Dy8  1  0.50599052  0.81178075  0.69420977  1
  Dy  Dy9  1  0.49400948  0.18821925  0.30579023  1
  Dy  Dy10  1  0.11757098  0.81178075  0.30579023  1
  Dy  Dy11  1  0.88242902  0.18821925  0.69420977  1
  Ni  Ni0  1  0.87677069  0.37677069  0.50000000  1
  Ni  Ni1  1  0.12322931  0.62322931  0.50000000  1
  Ni  Ni2  1  0.37677069  0.50000000  0.87677069  1
  Ni  Ni3  1  0.62322931  0.50000000  0.12322931  1
  Ni  Ni4  1  0.50000000  0.87677069  0.37677069  1
  Ni  Ni5  1  0.50000000  0.12322931  0.62322931  1
  Pb  Pb0  1  0.00000000  -0.00000000  -0.00000000  1
loop_
_geom_bond_atom_site_label_1
_geom_bond_atom_site_label_2
_geom_bond_distance
_geom_bond_site_symmetry_2
Dy0 Ni3 2.616881 1_555
Dy0 Ni1 2.873268 1_655
Dy0 Ni0 2.873268 1_555
Dy0 Pb0 3.471423 1_666
Dy0 Ni4 3.492917 1_555
Dy1 Ni2 2.616881 1_555
Dy1 Ni1 2.873268 1_555
Dy1 Ni0 2.873268 1_455
Dy1 Pb0 3.471423 1_555
Dy1 Ni5 3.492917 1_555
Dy2 Ni2 2.616881 1_555
Dy2 Ni1 2.873268 1_555
Dy2 Ni0 2.873268 1_455
Dy2 Pb0 3.471423 1_566
Dy2 Ni4 3.492917 1_556
Dy3 Ni3 2.616881 1_555
Dy3 Ni0 2.873268 1_555
Dy3 Ni1 2.873268 1_655
Dy3 Pb0 3.471423 1_655
Dy3 Ni5 3.492917 1_554
Dy4 Ni5 2.616881 1_555
Dy4 Ni3 2.873268 1_556
Dy4 Ni2 2.873268 1_555
Dy4 Pb0 3.471423 1_666
Dy4 Ni0 3.492917 1_555
Dy5 Ni4 2.616881 1_555
Dy5 Ni3 2.873268 1_555
Dy5 Ni2 2.873268 1_554
Dy5 Pb0 3.471423 1_555
Dy5 Ni1 3.492917 1_555
Dy6 Ni4 2.616881 1_555
Dy6 Ni3 2.873268 1_555
Dy6 Ni2 2.873268 1_554
Dy6 Pb0 3.471423 1_665
Dy6 Ni0 3.492917 1_565
Dy7 Ni5 2.616881 1_555
Dy7 Ni3 2.873268 1_556
Dy7 Ni2 2.873268 1_555
Dy7 Pb0 3.471423 1_556
Dy7 Ni1 3.492917 1_545
Dy8 Ni1 2.616881 1_555
Dy8 Ni5 2.873268 1_565
Dy8 Ni4 2.873268 1_555
Dy8 Pb0 3.471423 1_666
Dy8 Ni2 3.492917 1_555
Dy9 Ni0 2.616881 1_555
Dy9 Ni5 2.873268 1_555
Dy9 Ni4 2.873268 1_545
Dy9 Pb0 3.471423 1_555
Dy9 Ni3 3.492917 1_555
Dy10 Ni1 2.616881 1_555
Dy10 Ni5 2.873268 1_565
Dy10 Ni4 2.873268 1_555
Dy10 Pb0 3.471423 1_565
Dy10 Ni3 3.492917 1_455
Dy11 Ni0 2.616881 1_555
Dy11 Ni5 2.873268 1_555
Dy11 Ni4 2.873268 1_545
Dy11 Pb0 3.471423 1_656
Dy11 Ni2 3.492917 1_655
Ni0 Ni1 2.382690 1_655
Ni2 Ni3 2.382690 1_556
Ni4 Ni5 2.382690 1_565
