# generated using pymatgen
data_CsTb2Ag3Te5
_symmetry_space_group_name_H-M   'P 1'
_cell_length_a   8.56760595
_cell_length_b   8.56760595
_cell_length_c   18.69965500
_cell_angle_alpha   90.00000000
_cell_angle_beta   90.00000000
_cell_angle_gamma   148.89347420
_symmetry_Int_Tables_number   1
_chemical_formula_structural   CsTb2Ag3Te5
_chemical_formula_sum   'Cs2 Tb4 Ag6 Te10'
_cell_volume   709.14149502
_cell_formula_units_Z   2
loop_
 _symmetry_equiv_pos_site_id
 _symmetry_equiv_pos_as_xyz
  1  'x, y, z'
loop_
 _atom_site_type_symbol
 _atom_site_label
 _atom_site_symmetry_multiplicity
 _atom_site_fract_x
 _atom_site_fract_y
 _atom_site_fract_z
 _atom_site_occupancy
  Cs  Cs0  1  0.55803200  0.44196800  0.25000000  1
  Cs  Cs1  1  0.44196800  0.55803200  0.75000000  1
  Tb  Tb0  1  0.69182100  0.30817900  0.90594100  1
  Tb  Tb1  1  0.30817900  0.69182100  0.09405900  1
  Tb  Tb2  1  0.69182100  0.30817900  0.59405900  1
  Tb  Tb3  1  0.30817900  0.69182100  0.40594100  1
  Ag  Ag0  1  0.84129700  0.15870300  0.25000000  1
  Ag  Ag1  1  0.15870300  0.84129700  0.75000000  1
  Ag  Ag2  1  0.08331600  0.91668400  0.46565700  1
  Ag  Ag3  1  0.91668400  0.08331600  0.53434300  1
  Ag  Ag4  1  0.08331600  0.91668400  0.03434300  1
  Ag  Ag5  1  0.91668400  0.08331600  0.96565700  1
  Te  Te0  1  0.06440900  0.93559100  0.88177600  1
  Te  Te1  1  0.93559100  0.06440900  0.11822400  1
  Te  Te2  1  0.06440900  0.93559100  0.61822400  1
  Te  Te3  1  0.93559100  0.06440900  0.38177600  1
  Te  Te4  1  0.67710400  0.32289600  0.42842700  1
  Te  Te5  1  0.32289600  0.67710400  0.57157300  1
  Te  Te6  1  0.67710400  0.32289600  0.07157300  1
  Te  Te7  1  0.32289600  0.67710400  0.92842700  1
  Te  Te8  1  0.24576600  0.75423400  0.25000000  1
  Te  Te9  1  0.75423400  0.24576600  0.75000000  1
loop_
_geom_bond_atom_site_label_1
_geom_bond_atom_site_label_2
_geom_bond_distance
_geom_bond_site_symmetry_2
Cs0 Te8 3.857673 1_545
Cs0 Te8 3.857673 1_655
Cs0 Te6 3.872469 1_555
Cs0 Te4 3.872469 1_555
Cs0 Te1 3.928727 1_455
Cs0 Te3 3.928727 1_455
Cs0 Te1 3.928727 1_565
Cs0 Te3 3.928727 1_565
Cs1 Te9 3.857673 1_565
Cs1 Te9 3.857673 1_455
Cs1 Te7 3.872469 1_555
Cs1 Te5 3.872469 1_555
Cs1 Te0 3.928727 1_545
Cs1 Te2 3.928727 1_545
Cs1 Te0 3.928727 1_655
Cs1 Te2 3.928727 1_655
Tb0 Te9 3.092704 1_555
Tb0 Te6 3.106775 1_556
Tb0 Te0 3.147290 1_545
Tb0 Te0 3.147290 1_655
Tb0 Te7 3.183719 1_655
Tb0 Te7 3.183719 1_545
Tb1 Te8 3.092704 1_555
Tb1 Te7 3.106775 1_554
Tb1 Te1 3.147290 1_565
Tb1 Te1 3.147290 1_455
Tb1 Te6 3.183719 1_565
Tb1 Te6 3.183719 1_455
Tb2 Te9 3.092704 1_555
Tb2 Te4 3.106775 1_555
Tb2 Te2 3.147290 1_655
Tb2 Te2 3.147290 1_545
Tb2 Te5 3.183719 1_655
Tb2 Te5 3.183719 1_545
Tb3 Te8 3.092704 1_555
Tb3 Te5 3.106775 1_555
Tb3 Te3 3.147290 1_565
Tb3 Te3 3.147290 1_455
Tb3 Te4 3.183719 1_565
Tb3 Te4 3.183719 1_455
Ag0 Te8 2.786462 1_655
Ag0 Te8 2.786462 1_545
Ag0 Te3 2.914628 1_555
Ag0 Te1 2.914628 1_555
Ag1 Te9 2.786462 1_455
Ag1 Te9 2.786462 1_565
Ag1 Te2 2.914628 1_555
Ag1 Te0 2.914628 1_555
Ag2 Te4 2.856418 1_565
Ag2 Te4 2.856418 1_455
Ag2 Te2 2.869972 1_555
Ag2 Te3 2.899507 1_465
Ag3 Te5 2.856418 1_655
Ag3 Te5 2.856418 1_545
Ag3 Te3 2.869972 1_555
Ag3 Te2 2.899507 1_645
Ag4 Te6 2.856418 1_565
Ag4 Te6 2.856418 1_455
Ag4 Te0 2.869972 1_554
Ag4 Te1 2.899507 1_465
Ag5 Te7 2.856418 1_655
Ag5 Te7 2.856418 1_545
Ag5 Te1 2.869972 1_556
Ag5 Te0 2.899507 1_645
