# generated using pymatgen
data_Ni15Mo17P12
_symmetry_space_group_name_H-M   'P 1'
_cell_length_a   7.03780200
_cell_length_b   7.05802033
_cell_length_c   13.33494658
_cell_angle_alpha   98.52020682
_cell_angle_beta   92.95361430
_cell_angle_gamma   119.70458546
_symmetry_Int_Tables_number   1
_chemical_formula_structural   Ni15Mo17P12
_chemical_formula_sum   'Ni15 Mo17 P12'
_cell_volume   562.94246181
_cell_formula_units_Z   1
loop_
 _symmetry_equiv_pos_site_id
 _symmetry_equiv_pos_as_xyz
  1  'x, y, z'
loop_
 _atom_site_type_symbol
 _atom_site_label
 _atom_site_symmetry_multiplicity
 _atom_site_fract_x
 _atom_site_fract_y
 _atom_site_fract_z
 _atom_site_occupancy
  Ni  Ni0  1  0.78119800  0.16864700  0.74884000  1
  Ni  Ni1  1  0.77992400  0.66681700  0.24931000  1
  Ni  Ni2  1  0.22007600  0.33318300  0.75069000  1
  Ni  Ni3  1  0.21880200  0.83135300  0.25116000  1
  Ni  Ni4  1  0.36497800  0.03394800  0.74948200  1
  Ni  Ni5  1  0.36451700  0.53314800  0.24891600  1
  Ni  Ni6  1  0.63548300  0.46685200  0.75108400  1
  Ni  Ni7  1  0.63502200  0.96605200  0.25051800  1
  Ni  Ni8  1  0.50053900  0.74855800  0.74900500  1
  Ni  Ni9  1  0.49946100  0.25144200  0.25099500  1
  Ni  Ni10  1  0.64430100  0.29624100  0.91561900  1
  Ni  Ni11  1  0.64375000  0.79550100  0.41534200  1
  Ni  Ni12  1  0.35625000  0.20449900  0.58465800  1
  Ni  Ni13  1  0.35569900  0.70375900  0.08438100  1
  Ni  Ni14  1  0.00000000  0.50000000  0.50000000  1
  Mo  Mo0  1  0.94162500  0.91503300  0.77779300  1
  Mo  Mo1  1  0.94174200  0.41312400  0.28567500  1
  Mo  Mo2  1  0.05825800  0.58687600  0.71432500  1
  Mo  Mo3  1  0.05837500  0.08496700  0.22220700  1
  Mo  Mo4  1  0.70328600  0.63134300  0.57893800  1
  Mo  Mo5  1  0.69862800  0.13358000  0.08149500  1
  Mo  Mo6  1  0.30137200  0.86642000  0.91850500  1
  Mo  Mo7  1  0.29671400  0.36865700  0.42106200  1
  Mo  Mo8  1  0.43154100  0.85154800  0.57055300  1
  Mo  Mo9  1  0.44110000  0.35784300  0.07217900  1
  Mo  Mo10  1  0.55890000  0.64215700  0.92782100  1
  Mo  Mo11  1  0.56845900  0.14845200  0.42944700  1
  Mo  Mo12  1  0.07569000  0.39128100  0.92391600  1
  Mo  Mo13  1  0.07521100  0.88405900  0.42475100  1
  Mo  Mo14  1  0.92478900  0.11594100  0.57524900  1
  Mo  Mo15  1  0.92431000  0.60871900  0.07608400  1
  Mo  Mo16  1  0.00000000  0.00000000  0.00000000  1
  P  P0  1  0.70193600  0.01532700  0.88874500  1
  P  P1  1  0.70819400  0.51733700  0.39290600  1
  P  P2  1  0.29180600  0.48266300  0.60709400  1
  P  P3  1  0.29806400  0.98467300  0.11125500  1
  P  P4  1  0.29868600  0.21553900  0.88355700  1
  P  P5  1  0.29897000  0.71644800  0.38613600  1
  P  P6  1  0.70103000  0.28355200  0.61386400  1
  P  P7  1  0.70131400  0.78446100  0.11644300  1
  P  P8  1  0.09696300  0.88133100  0.61507300  1
  P  P9  1  0.09715400  0.38231000  0.11835800  1
  P  P10  1  0.90284600  0.61769000  0.88164200  1
  P  P11  1  0.90303700  0.11866900  0.38492700  1
loop_
_geom_bond_atom_site_label_1
_geom_bond_atom_site_label_2
_geom_bond_distance
_geom_bond_site_symmetry_2
Ni0 P6 2.235408 1_555
Ni0 P0 2.251660 1_555
Ni1 P7 2.219210 1_555
Ni1 P1 2.281441 1_555
Ni2 P4 2.219210 1_555
Ni2 P2 2.281441 1_555
Ni3 P5 2.235408 1_555
Ni3 P3 2.251660 1_555
Ni4 P8 2.235294 1_545
Ni4 P4 2.248656 1_555
Ni5 P9 2.198385 1_555
Ni5 P5 2.282935 1_555
Ni6 P10 2.198385 1_555
Ni6 P6 2.282935 1_555
Ni7 P11 2.235294 1_565
Ni7 P7 2.248656 1_555
Ni8 P0 2.251622 1_565
Ni8 P2 2.278160 1_555
Ni9 P3 2.251622 1_545
Ni9 P1 2.278160 1_555
Ni10 P0 2.196706 1_555
Ni10 P4 2.207090 1_555
Ni10 P10 2.227514 1_555
Ni11 P5 2.201662 1_555
Ni11 P1 2.207287 1_555
Ni11 P11 2.218652 1_565
Ni12 P6 2.201662 1_555
Ni12 P2 2.207287 1_555
Ni12 P8 2.218652 1_545
Ni13 P3 2.196706 1_555
Ni13 P7 2.207090 1_555
Ni13 P9 2.227514 1_555
Ni14 P1 2.504113 1_455
Ni14 P2 2.504113 1_555
Ni14 P6 2.626293 1_455
Ni14 P5 2.626293 1_555
Ni14 P11 2.629120 1_455
Ni14 P8 2.629120 1_555
Mo0 P4 2.503724 1_665
Mo0 P8 2.511832 1_655
Mo0 P0 2.581858 1_565
Mo0 P10 2.594039 1_555
Mo0 Ni0 2.605912 1_565
Mo0 Ni8 2.700586 1_555
Mo0 Ni2 2.708942 1_665
Mo0 Ni4 2.730516 1_665
Mo0 Ni6 2.758232 1_555
Mo0 Mo16 2.900400 1_666
Mo1 P5 2.483448 1_655
Mo1 P1 2.532990 1_555
Mo1 P11 2.536980 1_555
Mo1 P9 2.562255 1_655
Mo1 Ni1 2.638101 1_555
Mo1 Ni9 2.716598 1_555
Mo1 Ni3 2.741927 1_655
Mo1 Ni7 2.746479 1_545
Mo1 Ni5 2.754321 1_655
Mo1 Ni14 2.796985 1_655
Mo1 Mo5 2.969181 1_555
Mo2 P6 2.483448 1_455
Mo2 P2 2.532990 1_555
Mo2 P8 2.536980 1_555
Mo2 P10 2.562255 1_455
Mo2 Ni2 2.638101 1_555
Mo2 Ni8 2.716598 1_555
Mo2 Ni0 2.741927 1_455
Mo2 Ni4 2.746479 1_565
Mo2 Ni6 2.754321 1_455
Mo2 Ni14 2.796985 1_555
Mo2 Mo6 2.969181 1_555
Mo3 P7 2.503724 1_445
Mo3 P11 2.511832 1_455
Mo3 P3 2.581858 1_545
Mo3 P9 2.594039 1_555
Mo3 Ni3 2.605912 1_545
Mo3 Ni9 2.700586 1_555
Mo3 Ni1 2.708942 1_445
Mo3 Ni7 2.730516 1_445
Mo3 Ni5 2.758232 1_555
Mo4 P8 2.405697 1_655
Mo4 P1 2.499512 1_555
Mo4 P6 2.558064 1_555
Mo4 P2 2.616400 1_555
Mo4 Ni6 2.683043 1_555
Mo4 Ni11 2.722686 1_555
Mo4 Ni12 2.800398 1_555
Mo4 Ni14 2.860757 1_655
Mo4 Ni8 2.968331 1_555
Mo5 P9 2.431576 1_655
Mo5 P3 2.551839 1_545
Mo5 P7 2.583564 1_545
Mo5 P0 2.587160 1_554
Mo5 Ni7 2.654755 1_545
Mo5 Ni10 2.730807 1_554
Mo5 Ni13 2.795979 1_545
Mo5 Mo9 2.946859 1_555
Mo5 Ni9 2.947975 1_555
Mo5 Mo6 3.005120 1_544
Mo6 P10 2.431576 1_455
Mo6 P0 2.551839 1_565
Mo6 P4 2.583564 1_565
Mo6 P3 2.587160 1_556
Mo6 Ni4 2.654755 1_565
Mo6 Ni13 2.730807 1_556
Mo6 Ni10 2.795979 1_565
Mo6 Ni8 2.947975 1_555
Mo7 P11 2.405697 1_455
Mo7 P2 2.499512 1_555
Mo7 P5 2.558064 1_555
Mo7 P1 2.616400 1_555
Mo7 Ni5 2.683043 1_555
Mo7 Ni12 2.722686 1_555
Mo7 Ni11 2.800398 1_555
Mo7 Ni14 2.860757 1_555
Mo7 Ni9 2.968331 1_555
Mo8 P2 2.423024 1_555
Mo8 P5 2.452419 1_555
Mo8 P8 2.557118 1_555
Mo8 P6 2.619493 1_565
Mo8 Ni8 2.677726 1_555
Mo8 Ni11 2.707808 1_555
Mo8 Ni4 2.715240 1_565
Mo8 Ni12 2.775166 1_565
Mo8 Ni14 2.794834 1_555
Mo9 P3 2.460705 1_545
Mo9 P4 2.516715 1_554
Mo9 P7 2.581814 1_555
Mo9 P9 2.608606 1_555
Mo9 Ni9 2.674678 1_555
Mo9 Ni10 2.692156 1_554
Mo9 Ni5 2.702512 1_555
Mo9 Ni13 2.774024 1_555
Mo9 Ni1 2.959836 1_555
Mo10 P0 2.460705 1_565
Mo10 P7 2.516715 1_556
Mo10 P4 2.581814 1_555
Mo10 P10 2.608606 1_555
Mo10 Ni8 2.674678 1_555
Mo10 Ni13 2.692156 1_556
Mo10 Ni6 2.702512 1_555
Mo10 Ni10 2.774024 1_555
Mo10 Mo9 2.842557 1_556
Mo10 Mo16 2.853732 1_666
Mo10 Mo6 2.946859 1_555
Mo10 Mo12 2.947829 1_555
Mo10 Ni2 2.959836 1_555
Mo11 P1 2.423024 1_555
Mo11 P6 2.452419 1_555
Mo11 P11 2.557118 1_555
Mo11 P5 2.619493 1_545
Mo11 Ni9 2.677726 1_555
Mo11 Ni12 2.707808 1_555
Mo11 Ni7 2.715240 1_545
Mo11 Ni11 2.775166 1_545
Mo11 Ni14 2.794834 1_655
Mo12 P4 2.471787 1_555
Mo12 P10 2.544379 1_455
Mo12 P0 2.601304 1_455
Mo12 P9 2.601458 1_556
Mo12 Ni2 2.628844 1_555
Mo12 Ni13 2.680669 1_556
Mo12 Ni0 2.720643 1_455
Mo12 Ni10 2.757669 1_455
Mo12 Mo16 2.892738 1_556
Mo12 Mo6 2.928969 1_555
Mo13 P5 2.427737 1_555
Mo13 P8 2.538164 1_555
Mo13 P1 2.546971 1_455
Mo13 P11 2.583607 1_465
Mo13 Ni3 2.622314 1_555
Mo13 Ni12 2.697616 1_565
Mo13 Ni1 2.724172 1_455
Mo13 Ni11 2.771910 1_455
Mo13 Ni14 2.841422 1_555
Mo14 P6 2.427737 1_555
Mo14 P11 2.538164 1_555
Mo14 P2 2.546971 1_655
Mo14 P8 2.583607 1_645
Mo14 Ni0 2.622314 1_555
Mo14 Ni11 2.697616 1_545
Mo14 Ni2 2.724172 1_655
Mo14 Ni12 2.771910 1_655
Mo14 Ni14 2.841422 1_655
Mo15 P7 2.471787 1_555
Mo15 P9 2.544379 1_655
Mo15 P3 2.601304 1_655
Mo15 P10 2.601458 1_554
Mo15 Ni1 2.628844 1_555
Mo15 Ni10 2.680669 1_554
Mo15 Ni3 2.720643 1_655
Mo15 Ni13 2.757669 1_655
Mo15 Mo16 2.892738 1_665
Mo15 Mo5 2.928969 1_555
Mo15 Mo9 2.947829 1_555
Mo16 P3 2.562197 1_545
Mo16 P0 2.562197 1_454
Mo16 P4 2.647869 1_554
Mo16 P7 2.647869 1_445
Mo16 P9 2.652918 1_555
Mo16 P10 2.652918 1_444
Mo16 Mo9 2.853732 1_555
Mo16 Mo3 2.900400 1_555
Mo16 Mo6 2.912774 1_544
Mo16 Mo5 2.912774 1_455
