# generated using pymatgen
data_Mg2Si
_symmetry_space_group_name_H-M   'P 1'
_cell_length_a   7.89361900
_cell_length_b   4.67168300
_cell_length_c   6.13217767
_cell_angle_alpha   89.32094788
_cell_angle_beta   90.00000000
_cell_angle_gamma   90.00000000
_symmetry_Int_Tables_number   1
_chemical_formula_structural   Mg2Si
_chemical_formula_sum   'Mg8 Si4'
_cell_volume   226.11728050
_cell_formula_units_Z   4
loop_
 _symmetry_equiv_pos_site_id
 _symmetry_equiv_pos_as_xyz
  1  'x, y, z'
loop_
 _atom_site_type_symbol
 _atom_site_label
 _atom_site_symmetry_multiplicity
 _atom_site_fract_x
 _atom_site_fract_y
 _atom_site_fract_z
 _atom_site_occupancy
  Mg  Mg0  1  0.41437900  0.24154100  0.75618900  1
  Mg  Mg1  1  0.74757000  0.26056700  0.49865900  1
  Mg  Mg2  1  0.58562100  0.75845900  0.24381100  1
  Mg  Mg3  1  0.24757000  0.73943300  0.00134100  1
  Mg  Mg4  1  0.25243000  0.73943300  0.50134100  1
  Mg  Mg5  1  0.91437900  0.75845900  0.74381100  1
  Mg  Mg6  1  0.75243000  0.26056700  0.99865900  1
  Mg  Mg7  1  0.08562100  0.24154100  0.25618900  1
  Si  Si0  1  0.07847900  0.25544700  0.75393400  1
  Si  Si1  1  0.42152100  0.25544700  0.25393400  1
  Si  Si2  1  0.92152100  0.74455300  0.24606600  1
  Si  Si3  1  0.57847900  0.74455300  0.74606600  1
loop_
_geom_bond_atom_site_label_1
_geom_bond_atom_site_label_2
_geom_bond_distance
_geom_bond_site_symmetry_2
Mg0 Si0 2.652294 1_555
Mg0 Si3 2.660038 1_545
Mg0 Si3 2.683356 1_555
Mg0 Si1 3.054242 1_556
Mg0 Mg6 3.056537 1_555
Mg0 Mg4 3.066033 1_555
Mg0 Mg3 3.067964 1_546
Mg0 Mg1 3.068525 1_555
Mg0 Mg3 3.080074 1_556
Mg0 Si1 3.080348 1_555
Mg0 Mg4 3.108958 1_545
Mg1 Si1 2.979510 1_555
Mg1 Si0 3.045167 1_655
Mg1 Si3 3.045787 1_555
Mg1 Si2 3.051866 1_555
Mg1 Mg7 3.056537 1_655
Mg1 Mg2 3.066033 1_555
Mg1 Mg6 3.066329 1_555
Mg1 Mg6 3.066329 1_554
Mg1 Mg5 3.067964 1_545
Mg1 Mg5 3.080074 1_555
Mg1 Mg2 3.108958 1_545
Mg1 Si3 3.131744 1_545
Mg1 Si2 3.191301 1_545
Mg2 Si2 2.652294 1_555
Mg2 Si1 2.660038 1_565
Mg2 Si1 2.683356 1_555
Mg2 Si3 3.054242 1_554
Mg2 Mg3 3.056537 1_555
Mg2 Mg6 3.067964 1_564
Mg2 Mg4 3.068525 1_555
Mg2 Mg6 3.080074 1_554
Mg2 Si3 3.080348 1_555
Mg3 Si2 2.979510 1_455
Mg3 Si3 3.045167 1_554
Mg3 Si0 3.045787 1_554
Mg3 Si1 3.051866 1_555
Mg3 Mg7 3.066033 1_555
Mg3 Mg4 3.066329 1_554
Mg3 Mg4 3.066329 1_555
Mg3 Mg5 3.068525 1_454
Mg3 Mg7 3.108958 1_565
Mg3 Si0 3.131744 1_564
Mg3 Si1 3.191301 1_565
Mg4 Si3 2.979510 1_555
Mg4 Si2 3.045167 1_455
Mg4 Si1 3.045787 1_555
Mg4 Si0 3.051866 1_555
Mg4 Mg5 3.056537 1_455
Mg4 Mg7 3.067964 1_565
Mg4 Mg7 3.080074 1_555
Mg4 Si1 3.131744 1_565
Mg4 Si0 3.191301 1_565
Mg5 Si3 2.652294 1_555
Mg5 Si0 2.660038 1_665
Mg5 Si0 2.683356 1_655
Mg5 Si2 3.054242 1_555
Mg5 Mg6 3.066033 1_555
Mg5 Si2 3.080348 1_556
Mg5 Mg6 3.108958 1_565
Mg6 Si0 2.979510 1_655
Mg6 Si1 3.045167 1_556
Mg6 Si2 3.045787 1_556
Mg6 Si3 3.051866 1_555
Mg6 Mg7 3.068525 1_656
Mg6 Si2 3.131744 1_546
Mg6 Si3 3.191301 1_545
Mg7 Si1 2.652294 1_555
Mg7 Si2 2.660038 1_445
Mg7 Si2 2.683356 1_455
Mg7 Si0 3.054242 1_555
Mg7 Si0 3.080348 1_554
