# generated using pymatgen
data_Y2Cr2O7
_symmetry_space_group_name_H-M   'P 1'
_cell_length_a   7.11401551
_cell_length_b   7.11811301
_cell_length_c   7.14504004
_cell_angle_alpha   60.11112790
_cell_angle_beta   60.22831951
_cell_angle_gamma   60.01958540
_symmetry_Int_Tables_number   1
_chemical_formula_structural   Y2Cr2O7
_chemical_formula_sum   'Y4 Cr4 O14'
_cell_volume   256.53249997
_cell_formula_units_Z   2
loop_
 _symmetry_equiv_pos_site_id
 _symmetry_equiv_pos_as_xyz
  1  'x, y, z'
loop_
 _atom_site_type_symbol
 _atom_site_label
 _atom_site_symmetry_multiplicity
 _atom_site_fract_x
 _atom_site_fract_y
 _atom_site_fract_z
 _atom_site_occupancy
  Y  Y0  1  0.50008800  0.99995500  0.49997200  1
  Y  Y1  1  0.99998900  0.49996600  0.49997000  1
  Y  Y2  1  0.50004800  0.49990800  0.00003500  1
  Y  Y3  1  0.50013000  0.49988300  0.49999400  1
  Cr  Cr0  1  0.00002800  0.49997300  0.00009300  1
  Cr  Cr1  1  0.50007300  0.00009500  0.00003300  1
  Cr  Cr2  1  0.99981200  0.00014700  0.49986400  1
  Cr  Cr3  1  0.99972600  0.00018800  0.00011900  1
  O  O0  1  0.62477500  0.62418600  0.62734300  1
  O  O1  1  0.37525100  0.37571800  0.37272500  1
  O  O2  1  0.32591300  0.92891500  0.91410900  1
  O  O3  1  0.08193600  0.66481400  0.67819300  1
  O  O4  1  0.91837700  0.32794200  0.92401700  1
  O  O5  1  0.92636500  0.91311000  0.33383000  1
  O  O6  1  0.33444400  0.32309900  0.92255500  1
  O  O7  1  0.32675000  0.91798500  0.33319200  1
  O  O8  1  0.91810100  0.33526500  0.32173000  1
  O  O9  1  0.66549800  0.67691700  0.07744700  1
  O  O10  1  0.07373800  0.08687300  0.66613000  1
  O  O11  1  0.67407600  0.07099000  0.08588700  1
  O  O12  1  0.67321200  0.08191800  0.66690700  1
  O  O13  1  0.08167100  0.67215200  0.07585500  1
loop_
_geom_bond_atom_site_label_1
_geom_bond_atom_site_label_2
_geom_bond_distance
_geom_bond_site_symmetry_2
Cr0 O8 1.913905 1_455
Cr0 O3 1.915459 1_554
Cr0 O13 1.953790 1_555
Cr0 O4 1.954524 1_454
Cr0 O6 1.986117 1_554
Cr0 O9 1.986806 1_455
Cr1 O6 1.911234 1_554
Cr1 O9 1.911936 1_545
Cr1 O11 1.962185 1_555
Cr1 O2 1.965061 1_544
Cr1 O12 1.986340 1_554
Cr1 O7 1.986754 1_545
Cr2 O5 1.932818 1_545
Cr2 O10 1.935145 1_655
Cr2 O12 1.936112 1_555
Cr2 O7 1.937474 1_645
Cr2 O8 1.992759 1_555
Cr2 O3 1.994175 1_645
Cr3 O11 1.930698 1_555
Cr3 O2 1.933323 1_644
Cr3 O4 1.942236 1_554
Cr3 O13 1.943825 1_645
Cr3 O5 1.989066 1_545
Cr3 O10 1.990496 1_654
O0 Y2 2.179712 1_556
O0 Y1 2.183081 1_555
O0 Y0 2.184919 1_555
O0 Y3 2.187435 1_555
O1 Y2 2.179702 1_555
O1 Y1 2.183348 1_455
O1 Y0 2.184878 1_545
O1 Y3 2.187523 1_555
O2 Y0 2.457774 1_555
O2 Y2 2.518499 1_556
O3 Y3 2.467314 1_555
O3 Y1 2.499682 1_455
O4 Y2 2.463053 1_556
O4 Y1 2.506469 1_555
O5 Y1 2.435296 1_555
O5 Y0 2.504084 1_555
O6 Y2 2.470275 1_556
O6 Y3 2.500034 1_555
O7 Y3 2.460714 1_555
O7 Y0 2.480405 1_555
O8 Y3 2.465966 1_555
O8 Y1 2.498605 1_555
O9 Y2 2.470228 1_555
O9 Y3 2.499927 1_555
O10 Y1 2.434854 1_455
O10 Y0 2.504463 1_545
O11 Y0 2.457451 1_545
O11 Y2 2.518020 1_555
O12 Y3 2.459827 1_555
O12 Y0 2.480005 1_545
O13 Y2 2.463536 1_555
O13 Y1 2.506823 1_455
