# generated using pymatgen
data_SrCaCu(PO4)2
_symmetry_space_group_name_H-M   'P 1'
_cell_length_a   5.92619300
_cell_length_b   6.91526349
_cell_length_c   9.32770285
_cell_angle_alpha   108.65891517
_cell_angle_beta   102.55540792
_cell_angle_gamma   99.82218521
_symmetry_Int_Tables_number   1
_chemical_formula_structural   SrCaCu(PO4)2
_chemical_formula_sum   'Sr2 Ca2 Cu2 P4 O16'
_cell_volume   341.38154942
_cell_formula_units_Z   2
loop_
 _symmetry_equiv_pos_site_id
 _symmetry_equiv_pos_as_xyz
  1  'x, y, z'
loop_
 _atom_site_type_symbol
 _atom_site_label
 _atom_site_symmetry_multiplicity
 _atom_site_fract_x
 _atom_site_fract_y
 _atom_site_fract_z
 _atom_site_occupancy
  Sr  Sr0  1  0.27495900  0.81275000  0.06528700  1
  Sr  Sr1  1  0.72504100  0.18725000  0.93471300  1
  Ca  Ca0  1  0.99342100  0.41614000  0.66081800  1
  Ca  Ca1  1  0.00657900  0.58386000  0.33918200  1
  Cu  Cu0  1  0.66001500  0.84432000  0.54602900  1
  Cu  Cu1  1  0.33998500  0.15568000  0.45397100  1
  P  P0  1  0.39585100  0.41987100  0.23240500  1
  P  P1  1  0.60414900  0.58012900  0.76759500  1
  P  P2  1  0.84076200  0.03099000  0.29640000  1
  P  P3  1  0.15923800  0.96901000  0.70360000  1
  O  O0  1  0.83354200  0.56218700  0.87865100  1
  O  O1  1  0.61838700  0.45446400  0.17455100  1
  O  O2  1  0.65014100  0.79789800  0.74825200  1
  O  O3  1  0.95042900  0.08549200  0.68976800  1
  O  O4  1  0.38161300  0.54553600  0.82544900  1
  O  O5  1  0.04196200  0.73079700  0.60234500  1
  O  O6  1  0.95803800  0.26920300  0.39765500  1
  O  O7  1  0.27615300  0.00864800  0.87739800  1
  O  O8  1  0.34985900  0.20210200  0.25174800  1
  O  O9  1  0.72384700  0.99135200  0.12260200  1
  O  O10  1  0.16645800  0.43781300  0.12134900  1
  O  O11  1  0.41933300  0.59342700  0.39636300  1
  O  O12  1  0.58066700  0.40657300  0.60363700  1
  O  O13  1  0.64606200  0.94002200  0.36374100  1
  O  O14  1  0.04957100  0.91450800  0.31023200  1
  O  O15  1  0.35393800  0.05997800  0.63625900  1
loop_
_geom_bond_atom_site_label_1
_geom_bond_atom_site_label_2
_geom_bond_distance
_geom_bond_site_symmetry_2
Ca0 O6 2.282447 1_555
Ca0 O4 2.309474 1_655
Ca0 O3 2.364790 1_555
Ca0 O12 2.372142 1_555
Ca0 O5 2.393528 1_655
Ca0 O0 2.428302 1_555
Ca1 O5 2.282447 1_555
Ca1 O1 2.309474 1_455
Ca1 O14 2.364790 1_555
Ca1 O11 2.372142 1_555
Ca1 O6 2.393528 1_455
Ca1 O10 2.428302 1_555
Cu0 O11 1.932272 1_555
Cu0 O13 2.003376 1_555
Cu0 O2 2.023254 1_555
Cu0 O3 2.031692 1_565
Cu0 O5 2.523650 1_655
Cu1 O12 1.932272 1_555
Cu1 O15 2.003376 1_555
Cu1 O8 2.023254 1_555
Cu1 O14 2.031692 1_545
Cu1 O6 2.523650 1_455
O0 P1 1.569731 1_555
O0 Sr0 2.723875 1_656
O0 Sr1 2.802570 1_555
O1 P0 1.540141 1_555
O1 Sr1 2.680845 1_554
O2 P1 1.558802 1_555
O2 Sr1 2.594534 1_565
O3 P3 1.591826 1_645
O3 Sr1 2.849240 1_555
O4 P1 1.540141 1_555
O4 Sr0 2.680845 1_556
O5 P3 1.554718 1_555
O6 P2 1.554718 1_555
O7 P3 1.531601 1_545
O7 Sr0 2.535354 1_546
O7 Sr1 2.593471 1_555
O8 P0 1.558802 1_555
O8 Sr0 2.594534 1_545
O9 P2 1.531601 1_565
O9 Sr1 2.535354 1_564
O9 Sr0 2.593471 1_555
O10 P0 1.569731 1_555
O10 Sr1 2.723875 1_454
O10 Sr0 2.802570 1_555
O11 P0 1.573129 1_555
O12 P1 1.573129 1_555
O13 P2 1.562659 1_565
O13 Sr0 2.910545 1_555
O14 P2 1.591826 1_465
O14 Sr0 2.849240 1_555
O15 P3 1.562659 1_545
O15 Sr1 2.910545 1_555
