# generated using pymatgen
data_Be46Rh7
_symmetry_space_group_name_H-M   'P 1'
_cell_length_a   4.17665806
_cell_length_b   4.17665806
_cell_length_c   32.99751400
_cell_angle_alpha   90.00000000
_cell_angle_beta   90.00000000
_cell_angle_gamma   120.00000095
_symmetry_Int_Tables_number   1
_chemical_formula_structural   Be46Rh7
_chemical_formula_sum   'Be46 Rh7'
_cell_volume   498.50519898
_cell_formula_units_Z   1
loop_
 _symmetry_equiv_pos_site_id
 _symmetry_equiv_pos_as_xyz
  1  'x, y, z'
loop_
 _atom_site_type_symbol
 _atom_site_label
 _atom_site_symmetry_multiplicity
 _atom_site_fract_x
 _atom_site_fract_y
 _atom_site_fract_z
 _atom_site_occupancy
  Be  Be0  1  0.00000000  0.00000000  0.12521400  1
  Be  Be1  1  0.00000000  0.00000000  0.45856600  1
  Be  Be2  1  0.00000000  0.00000000  0.79197600  1
  Be  Be3  1  0.00000000  0.00000000  0.20782200  1
  Be  Be4  1  0.00000000  0.00000000  0.54113300  1
  Be  Be5  1  0.00000000  0.00000000  0.87518500  1
  Be  Be6  1  0.66666700  0.33333300  0.11380600  1
  Be  Be7  1  0.66666700  0.33333300  0.44743100  1
  Be  Be8  1  0.66666700  0.33333300  0.78114100  1
  Be  Be9  1  0.66666700  0.33333300  0.21904300  1
  Be  Be10  1  0.66666700  0.33333300  0.55251400  1
  Be  Be11  1  0.66666700  0.33333300  0.88620900  1
  Be  Be12  1  0.83503400  0.16496600  0.06056900  1
  Be  Be13  1  0.83361300  0.16638700  0.39368000  1
  Be  Be14  1  0.83608100  0.16391900  0.72935100  1
  Be  Be15  1  0.32993300  0.16496600  0.06056900  1
  Be  Be16  1  0.33277300  0.16638700  0.39368000  1
  Be  Be17  1  0.32783800  0.16391900  0.72935100  1
  Be  Be18  1  0.83503400  0.67006700  0.06056900  1
  Be  Be19  1  0.83361300  0.66722700  0.39368000  1
  Be  Be20  1  0.83608100  0.67216200  0.72935100  1
  Be  Be21  1  0.83382100  0.16617900  0.27300800  1
  Be  Be22  1  0.83510800  0.16489200  0.60404200  1
  Be  Be23  1  0.83496700  0.16503300  0.93947100  1
  Be  Be24  1  0.33235800  0.16617900  0.27300800  1
  Be  Be25  1  0.32978400  0.16489200  0.60404200  1
  Be  Be26  1  0.33006700  0.16503300  0.93947100  1
  Be  Be27  1  0.83382100  0.66764200  0.27300800  1
  Be  Be28  1  0.83510800  0.67021600  0.60404200  1
  Be  Be29  1  0.83496700  0.66993300  0.93947100  1
  Be  Be30  1  0.33333300  0.66666700  0.03303500  1
  Be  Be31  1  0.33333300  0.66666700  0.36543900  1
  Be  Be32  1  0.33333300  0.66666700  0.69915800  1
  Be  Be33  1  0.33333300  0.66666700  0.30119600  1
  Be  Be34  1  0.33333300  0.66666700  0.63430200  1
  Be  Be35  1  0.33333300  0.66666700  0.96666100  1
  Be  Be36  1  0.49698400  0.50301600  0.16656100  1
  Be  Be37  1  0.49715000  0.50285000  0.49997500  1
  Be  Be38  1  0.49716300  0.50283700  0.83338400  1
  Be  Be39  1  0.00603100  0.50301600  0.16656100  1
  Be  Be40  1  0.00570000  0.50285000  0.49997500  1
  Be  Be41  1  0.00567500  0.50283700  0.83338400  1
  Be  Be42  1  0.49698400  0.99396900  0.16656100  1
  Be  Be43  1  0.49715000  0.99430000  0.49997500  1
  Be  Be44  1  0.49716300  0.99432500  0.83338400  1
  Be  Be45  1  0.66666700  0.33333300  0.33330800  1
  Rh  Rh0  1  0.33333300  0.66666700  0.10321200  1
  Rh  Rh1  1  0.33333300  0.66666700  0.43626700  1
  Rh  Rh2  1  0.33333300  0.66666700  0.77044300  1
  Rh  Rh3  1  0.33333300  0.66666700  0.23031800  1
  Rh  Rh4  1  0.33333300  0.66666700  0.56295000  1
  Rh  Rh5  1  0.33333300  0.66666700  0.89669200  1
  Rh  Rh6  1  0.00000000  0.00000000  0.66685100  1
loop_
_geom_bond_atom_site_label_1
_geom_bond_atom_site_label_2
_geom_bond_distance
_geom_bond_site_symmetry_2
Be0 Be6 2.440598 1_455
Be0 Be6 2.440601 1_555
Be0 Be6 2.440601 1_445
Be0 Be12 2.444261 1_455
Be0 Be18 2.444262 1_445
Be0 Be15 2.444262 1_555
Be0 Be42 2.494600 1_545
Be0 Be39 2.494600 1_545
Be0 Be36 2.494602 1_445
Be0 Be36 2.494602 1_555
Be0 Be39 2.494604 1_555
Be0 Be42 2.494604 1_445
Be0 Rh0 2.518314 1_545
Be0 Rh0 2.518317 1_555
Be0 Rh0 2.518317 1_445
Be1 Be7 2.439224 1_455
Be1 Be7 2.439228 1_445
Be1 Be7 2.439228 1_555
Be1 Be19 2.456223 1_445
Be1 Be16 2.456223 1_555
Be1 Be13 2.456225 1_455
Be1 Be37 2.495711 1_555
Be1 Be37 2.495711 1_445
Be1 Be43 2.495712 1_445
Be1 Be40 2.495712 1_555
Be1 Be43 2.495712 1_545
Be1 Be40 2.495712 1_545
Be1 Rh1 2.521157 1_545
Be1 Rh1 2.521160 1_445
Be1 Rh1 2.521160 1_555
Be2 Be20 2.382533 1_445
Be2 Be8 2.437753 1_455
Be2 Be8 2.437756 1_555
Be2 Be8 2.437756 1_445
Be2 Be41 2.495691 1_555
Be2 Be44 2.495691 1_445
Be2 Be38 2.495693 1_555
Be2 Be38 2.495693 1_445
Be2 Be44 2.495694 1_545
Be2 Be41 2.495694 1_545
Be2 Rh2 2.513896 1_545
Be2 Rh2 2.513899 1_555
Be2 Rh2 2.513899 1_445
Be3 Be9 2.439653 1_455
Be3 Be9 2.439657 1_555
Be3 Be9 2.439657 1_445
Be3 Be42 2.493050 1_545
Be3 Be39 2.493050 1_545
Be3 Be36 2.493051 1_555
Be3 Be36 2.493051 1_445
Be3 Be39 2.493053 1_555
Be3 Be42 2.493053 1_445
Be3 Rh3 2.523062 1_545
Be3 Rh3 2.523065 1_445
Be3 Rh3 2.523065 1_555
Be4 Be40 2.491187 1_555
Be4 Be43 2.491187 1_445
Be4 Be43 2.491187 1_545
Be4 Be40 2.491187 1_545
Be4 Rh4 2.516561 1_545
Be4 Rh4 2.516564 1_445
Be4 Rh4 2.516564 1_555
Be5 Rh5 2.513654 1_545
Be5 Rh5 2.513657 1_445
Be5 Rh5 2.513657 1_555
Be6 Rh0 2.436599 1_545
Be6 Rh0 2.436599 1_655
Be6 Rh0 2.436606 1_555
Be7 Rh1 2.439369 1_545
Be7 Rh1 2.439369 1_655
Be7 Rh1 2.439376 1_555
Be8 Rh2 2.437094 1_655
Be8 Rh2 2.437094 1_545
Be8 Rh2 2.437101 1_555
Be9 Rh3 2.439924 1_655
Be9 Rh3 2.439924 1_545
Be9 Rh3 2.439932 1_555
Be10 Be22 2.091848 1_555
Be10 Be28 2.091850 1_555
Be10 Be25 2.091850 1_555
Be10 Be43 2.123537 1_545
Be10 Be40 2.123537 1_655
Be10 Be37 2.123539 1_555
Be10 Rh4 2.435857 1_545
Be10 Rh4 2.435857 1_655
Be10 Rh4 2.435864 1_555
Be10 Be4 2.440460 1_655
Be10 Be4 2.440464 1_555
Be10 Be4 2.440464 1_665
Be11 Be41 2.131197 1_655
Be11 Be44 2.131197 1_545
Be11 Be38 2.131197 1_555
Be11 Be29 2.138035 1_555
Be11 Be26 2.138035 1_555
Be11 Be23 2.138035 1_555
Be11 Rh5 2.436076 1_545
Be11 Rh5 2.436076 1_655
Be11 Rh5 2.436084 1_555
Be11 Be5 2.438675 1_655
Be11 Be5 2.438679 1_555
Be11 Be5 2.438679 1_665
Be12 Be18 2.067024 1_545
Be12 Be15 2.067024 1_655
Be12 Be15 2.109634 1_555
Be12 Be18 2.109634 1_555
Be12 Be6 2.137633 1_555
Be12 Be30 2.277441 1_545
Be12 Be30 2.277441 1_655
Be12 Rh0 2.518181 1_545
Be12 Rh0 2.518181 1_655
Be13 Be19 2.084821 1_545
Be13 Be16 2.084821 1_655
Be13 Be16 2.091837 1_555
Be13 Be19 2.091837 1_555
Be13 Be7 2.145790 1_555
Be13 Be31 2.286816 1_545
Be13 Be31 2.286816 1_655
Be13 Be45 2.329624 1_555
Be13 Rh1 2.517120 1_545
Be13 Rh1 2.517120 1_655
Be14 Be17 2.053901 1_655
Be14 Be20 2.053901 1_545
Be14 Be8 2.102976 1_555
Be14 Be20 2.122757 1_555
Be14 Be17 2.122757 1_555
Be14 Be32 2.313896 1_545
Be14 Be32 2.313896 1_655
Be14 Rh6 2.378957 1_655
Be14 Be2 2.382533 1_655
Be14 Rh2 2.489994 1_545
Be14 Rh2 2.489994 1_655
Be15 Be18 2.067024 1_445
Be15 Be18 2.109634 1_555
Be15 Be6 2.137633 1_555
Be15 Be30 2.277437 1_545
Be15 Be30 2.277445 1_555
Be15 Rh0 2.518178 1_545
Be15 Rh0 2.518185 1_555
Be16 Be19 2.084821 1_445
Be16 Be19 2.091837 1_555
Be16 Be7 2.145794 1_555
Be16 Be31 2.286816 1_555
Be16 Be31 2.286816 1_545
Be16 Be45 2.329628 1_555
Be16 Rh1 2.517120 1_555
Be16 Rh1 2.517120 1_545
Be17 Be20 2.053901 1_445
Be17 Be8 2.102978 1_555
Be17 Be20 2.122757 1_555
Be17 Be32 2.313894 1_545
Be17 Be32 2.313898 1_555
Be17 Rh6 2.378957 1_555
Be17 Be2 2.382533 1_555
Be17 Rh2 2.489992 1_545
Be17 Rh2 2.489996 1_555
Be18 Be6 2.137633 1_555
Be18 Be30 2.277437 1_655
Be18 Be30 2.277445 1_555
Be18 Rh0 2.518178 1_655
Be18 Rh0 2.518185 1_555
Be19 Be7 2.145794 1_555
Be19 Be31 2.286816 1_555
Be19 Be31 2.286816 1_655
Be19 Be45 2.329628 1_555
Be19 Rh1 2.517120 1_555
Be19 Rh1 2.517120 1_655
Be20 Be8 2.102978 1_555
Be20 Be32 2.313894 1_655
Be20 Be32 2.313898 1_555
Be20 Rh6 2.378957 1_665
Be20 Rh2 2.489992 1_655
Be20 Rh2 2.489996 1_555
Be21 Be27 2.082219 1_545
Be21 Be24 2.082219 1_655
Be21 Be24 2.094439 1_555
Be21 Be27 2.094439 1_555
Be21 Be9 2.152476 1_555
Be21 Be33 2.286106 1_545
Be21 Be33 2.286106 1_655
Be21 Be45 2.328374 1_555
Be21 Be3 2.464124 1_655
Be21 Rh3 2.519021 1_545
Be21 Rh3 2.519021 1_655
Be22 Be25 2.066093 1_655
Be22 Be28 2.066093 1_545
Be22 Be28 2.110566 1_555
Be22 Be25 2.110566 1_555
Be22 Be34 2.314799 1_545
Be22 Be34 2.314799 1_655
Be22 Rh6 2.391305 1_655
Be22 Be4 2.394165 1_655
Be22 Rh4 2.489948 1_545
Be22 Rh4 2.489948 1_655
Be23 Be29 2.067863 1_545
Be23 Be26 2.067863 1_655
Be23 Be26 2.108795 1_555
Be23 Be29 2.108795 1_555
Be23 Be35 2.272934 1_545
Be23 Be35 2.272934 1_655
Be23 Be5 2.434167 1_655
Be23 Rh5 2.520689 1_545
Be23 Rh5 2.520689 1_655
Be24 Be27 2.082219 1_445
Be24 Be27 2.094439 1_555
Be24 Be9 2.152478 1_555
Be24 Be33 2.286104 1_545
Be24 Be33 2.286108 1_555
Be24 Be45 2.328376 1_555
Be24 Be3 2.464124 1_555
Be24 Rh3 2.519019 1_545
Be24 Rh3 2.519022 1_555
Be25 Be28 2.066092 1_445
Be25 Be28 2.110566 1_555
Be25 Be34 2.314797 1_545
Be25 Be34 2.314801 1_555
Be25 Rh6 2.391305 1_555
Be25 Be4 2.394165 1_555
Be25 Rh4 2.489946 1_545
Be25 Rh4 2.489949 1_555
Be26 Be29 2.067863 1_445
Be26 Be29 2.108795 1_555
Be26 Be35 2.272930 1_545
Be26 Be35 2.272938 1_555
Be26 Be5 2.434169 1_555
Be26 Rh5 2.520686 1_545
Be26 Rh5 2.520693 1_555
Be27 Be9 2.152478 1_555
Be27 Be33 2.286104 1_655
Be27 Be33 2.286108 1_555
Be27 Be45 2.328376 1_555
Be27 Be3 2.464124 1_665
Be27 Rh3 2.519019 1_655
Be27 Rh3 2.519022 1_555
Be28 Be34 2.314797 1_655
Be28 Be34 2.314801 1_555
Be28 Rh6 2.391305 1_665
Be28 Be4 2.394165 1_665
Be28 Rh4 2.489946 1_655
Be28 Rh4 2.489949 1_555
Be29 Be35 2.272930 1_655
Be29 Be35 2.272938 1_555
Be29 Be5 2.434169 1_665
Be29 Rh5 2.520686 1_655
Be29 Rh5 2.520693 1_555
Be30 Be35 2.190177 1_554
Be30 Rh0 2.315667 1_555
Be31 Be33 2.119859 1_555
Be31 Rh1 2.337148 1_555
Be32 Be34 2.140087 1_555
Be32 Rh2 2.352228 1_555
Be32 Rh6 2.636527 1_565
Be32 Rh6 2.636531 1_555
Be32 Rh6 2.636531 1_665
Be33 Rh3 2.338798 1_555
Be34 Rh4 2.354439 1_555
Be34 Rh6 2.639766 1_565
Be34 Rh6 2.639770 1_665
Be34 Rh6 2.639770 1_555
Be35 Rh5 2.308803 1_555
Be36 Be39 2.050543 1_555
Be36 Be42 2.050543 1_555
Be36 Be9 2.122698 1_555
Be36 Be39 2.126115 1_655
Be36 Be42 2.126115 1_545
Be36 Be6 2.130054 1_555
Be36 Rh0 2.402328 1_555
Be36 Rh3 2.414051 1_555
Be37 Be43 2.052619 1_555
Be37 Be40 2.052619 1_555
Be37 Be7 2.123674 1_555
Be37 Be43 2.124039 1_545
Be37 Be40 2.124039 1_655
Be37 Rh4 2.392192 1_555
Be37 Rh1 2.413232 1_555
Be37 Be4 2.491187 1_555
Be37 Be4 2.491187 1_665
Be38 Be44 2.052777 1_555
Be38 Be41 2.052777 1_555
Be38 Be8 2.115518 1_555
Be38 Be41 2.123881 1_655
Be38 Be44 2.123881 1_545
Be38 Rh2 2.391264 1_555
Be38 Rh5 2.401789 1_555
Be38 Be5 2.502816 1_555
Be38 Be5 2.502816 1_665
Be39 Be42 2.050543 1_555
Be39 Be9 2.122694 1_455
Be39 Be42 2.126115 1_445
Be39 Be6 2.130050 1_455
Be39 Rh0 2.402328 1_555
Be39 Rh3 2.414051 1_555
Be40 Be43 2.052619 1_555
Be40 Be7 2.123672 1_455
Be40 Be43 2.124039 1_445
Be40 Rh4 2.392190 1_555
Be40 Rh1 2.413230 1_555
Be41 Be44 2.052777 1_555
Be41 Be8 2.115518 1_455
Be41 Be44 2.123881 1_445
Be41 Rh2 2.391260 1_555
Be41 Rh5 2.401786 1_555
Be41 Be5 2.502814 1_555
Be41 Be5 2.502818 1_565
Be42 Be9 2.122694 1_565
Be42 Be6 2.130050 1_565
Be42 Rh0 2.402328 1_555
Be42 Rh3 2.414051 1_555
Be43 Be7 2.123672 1_565
Be43 Rh4 2.392190 1_555
Be43 Rh1 2.413230 1_555
Be44 Be8 2.115518 1_565
Be44 Rh2 2.391260 1_555
Be44 Rh5 2.401786 1_555
Be44 Be5 2.502814 1_665
Be44 Be5 2.502818 1_565
