# generated using pymatgen
data_NaThTi2O6
_symmetry_space_group_name_H-M   'P 1'
_cell_length_a   3.92212900
_cell_length_b   3.92212900
_cell_length_c   7.80632500
_cell_angle_alpha   90.00000000
_cell_angle_beta   90.00000000
_cell_angle_gamma   90.00000000
_symmetry_Int_Tables_number   1
_chemical_formula_structural   NaThTi2O6
_chemical_formula_sum   'Na1 Th1 Ti2 O6'
_cell_volume   120.08544604
_cell_formula_units_Z   1
loop_
 _symmetry_equiv_pos_site_id
 _symmetry_equiv_pos_as_xyz
  1  'x, y, z'
loop_
 _atom_site_type_symbol
 _atom_site_label
 _atom_site_symmetry_multiplicity
 _atom_site_fract_x
 _atom_site_fract_y
 _atom_site_fract_z
 _atom_site_occupancy
  Na  Na0  1  0.50000000  0.50000000  0.00000000  1
  Th  Th0  1  0.50000000  0.50000000  0.50000000  1
  Ti  Ti0  1  0.00000000  0.00000000  0.24401100  1
  Ti  Ti1  1  0.00000000  0.00000000  0.75598900  1
  O  O0  1  0.00000000  0.50000000  0.28169500  1
  O  O1  1  0.00000000  0.50000000  0.71830500  1
  O  O2  1  0.50000000  0.00000000  0.28169500  1
  O  O3  1  0.50000000  0.00000000  0.71830500  1
  O  O4  1  0.00000000  0.00000000  0.00000000  1
  O  O5  1  0.00000000  0.00000000  0.50000000  1
loop_
_geom_bond_atom_site_label_1
_geom_bond_atom_site_label_2
_geom_bond_distance
_geom_bond_site_symmetry_2
Na0 O4 2.773364 1_555
Na0 O4 2.773364 1_655
Na0 O4 2.773364 1_565
Na0 O4 2.773364 1_665
Na0 O3 2.946419 1_564
Na0 O1 2.946419 1_654
Na0 O0 2.946419 1_555
Na0 O2 2.946419 1_565
Na0 O2 2.946419 1_555
Na0 O3 2.946419 1_554
Na0 O0 2.946419 1_655
Na0 O1 2.946419 1_554
O0 Ti0 1.983006 1_555
O0 Ti0 1.983006 1_565
O0 Th0 2.598064 1_555
O0 Th0 2.598064 1_455
O1 Ti1 1.983006 1_555
O1 Ti1 1.983006 1_565
O1 Th0 2.598064 1_455
O1 Th0 2.598064 1_555
O2 Ti0 1.983006 1_555
O2 Ti0 1.983006 1_655
O2 Th0 2.598064 1_555
O2 Th0 2.598064 1_545
O3 Ti1 1.983006 1_555
O3 Ti1 1.983006 1_655
O3 Th0 2.598064 1_555
O3 Th0 2.598064 1_545
O4 Ti0 1.904829 1_555
O4 Ti1 1.904829 1_554
O5 Ti1 1.998333 1_555
O5 Ti0 1.998333 1_555
O5 Th0 2.773364 1_555
O5 Th0 2.773364 1_545
O5 Th0 2.773364 1_455
O5 Th0 2.773364 1_445
