# generated using pymatgen
data_CsAgSe4
_symmetry_space_group_name_H-M   'P 1'
_cell_length_a   5.85201733
_cell_length_b   9.25367473
_cell_length_c   14.10842280
_cell_angle_alpha   90.00000000
_cell_angle_beta   90.00000000
_cell_angle_gamma   90.00000000
_symmetry_Int_Tables_number   1
_chemical_formula_structural   CsAgSe4
_chemical_formula_sum   'Cs4 Ag4 Se16'
_cell_volume   764.00869196
_cell_formula_units_Z   4
loop_
 _symmetry_equiv_pos_site_id
 _symmetry_equiv_pos_as_xyz
  1  'x, y, z'
loop_
 _atom_site_type_symbol
 _atom_site_label
 _atom_site_symmetry_multiplicity
 _atom_site_fract_x
 _atom_site_fract_y
 _atom_site_fract_z
 _atom_site_occupancy
  Cs  Cs0  1  0.33685981  0.55940953  0.66731126  1
  Cs  Cs1  1  0.83685981  0.94059047  0.33268874  1
  Cs  Cs2  1  0.66314019  0.05940953  0.83268874  1
  Cs  Cs3  1  0.16314019  0.44059047  0.16731126  1
  Ag  Ag0  1  0.54645695  0.12705257  0.55687885  1
  Ag  Ag1  1  0.04645695  0.37294743  0.44312115  1
  Ag  Ag2  1  0.45354305  0.62705257  0.94312115  1
  Ag  Ag3  1  0.95354305  0.87294743  0.05687885  1
  Se  Se0  1  0.87407985  0.30403806  0.60899510  1
  Se  Se1  1  0.37407985  0.19596194  0.39100490  1
  Se  Se2  1  0.12592015  0.80403806  0.89100490  1
  Se  Se3  1  0.62592015  0.69596194  0.10899510  1
  Se  Se4  1  0.14118193  0.13381271  0.66926312  1
  Se  Se5  1  0.64118193  0.36618729  0.33073688  1
  Se  Se6  1  0.85881807  0.63381271  0.83073688  1
  Se  Se7  1  0.35881807  0.86618729  0.16926312  1
  Se  Se8  1  0.79889515  0.13235506  0.09583938  1
  Se  Se9  1  0.29889515  0.36764494  0.90416062  1
  Se  Se10  1  0.20110485  0.63235506  0.40416062  1
  Se  Se11  1  0.70110485  0.86764494  0.59583938  1
  Se  Se12  1  0.41008286  0.07647441  0.07307417  1
  Se  Se13  1  0.91008286  0.42352559  0.92692583  1
  Se  Se14  1  0.58991714  0.57647441  0.42692583  1
  Se  Se15  1  0.08991714  0.92352559  0.57307417  1
loop_
_geom_bond_atom_site_label_1
_geom_bond_atom_site_label_2
_geom_bond_distance
_geom_bond_site_symmetry_2
Cs0 Se0 3.687221 1_455
Cs0 Se6 3.690019 1_455
Cs0 Se11 3.700816 1_555
Cs0 Se14 3.704050 1_555
Cs0 Se9 3.790040 1_555
Cs0 Se10 3.856226 1_555
Cs0 Se6 3.888471 1_555
Cs0 Se15 3.899866 1_555
Cs0 Se0 4.018070 1_555
Cs0 Se2 4.075329 1_555
Cs0 Se4 4.101526 1_555
Cs1 Se1 3.687221 1_565
Cs1 Se7 3.690019 1_555
Cs1 Se10 3.700816 1_655
Cs1 Se15 3.704050 1_655
Cs1 Se8 3.790040 1_565
Cs1 Se11 3.856226 1_555
Cs1 Se7 3.888471 1_655
Cs1 Se14 3.899866 1_555
Cs1 Se1 4.018070 1_665
Cs1 Se3 4.075329 1_555
Cs1 Se5 4.101526 1_565
Cs2 Se2 3.687221 1_645
Cs2 Se4 3.690019 1_655
Cs2 Se9 3.700816 1_555
Cs2 Se12 3.704050 1_556
Cs2 Se11 3.790040 1_545
Cs2 Se8 3.856226 1_556
Cs2 Se4 3.888471 1_555
Cs2 Se13 3.899866 1_555
Cs2 Se2 4.018070 1_545
Cs2 Se0 4.075329 1_555
Cs2 Se6 4.101526 1_545
Cs3 Se3 3.687221 1_555
Cs3 Se5 3.690019 1_555
Cs3 Se8 3.700816 1_455
Cs3 Se13 3.704050 1_454
Cs3 Se10 3.790040 1_555
Cs3 Se9 3.856226 1_554
Cs3 Se5 3.888471 1_455
Cs3 Se12 3.899866 1_555
Cs3 Se3 4.018070 1_455
Cs3 Se1 4.075329 1_555
Cs3 Se7 4.101526 1_555
Ag0 Se11 2.623632 1_545
Ag0 Se0 2.626553 1_555
Ag0 Se1 2.626943 1_555
Ag0 Se4 2.853555 1_555
Ag0 Se15 3.276762 1_545
Ag0 Cs1 3.983678 1_545
Ag0 Cs2 3.999980 1_555
Ag1 Se10 2.623632 1_555
Ag1 Se1 2.626553 1_555
Ag1 Se0 2.626943 1_455
Ag1 Se5 2.853555 1_455
Ag1 Se14 3.276762 1_455
Ag1 Cs0 3.983678 1_555
Ag1 Cs3 3.999980 1_555
Ag2 Se9 2.623632 1_555
Ag2 Se2 2.626553 1_555
Ag2 Se3 2.626943 1_556
Ag2 Se6 2.853555 1_555
Ag2 Se13 3.276762 1_555
Ag2 Cs3 3.983678 1_556
Ag2 Cs0 3.999980 1_555
Ag3 Se8 2.623632 1_565
Ag3 Se3 2.626553 1_555
Ag3 Se2 2.626943 1_654
Ag3 Se7 2.853555 1_655
Ag3 Se12 3.276762 1_665
Ag3 Cs2 3.983678 1_564
Ag3 Cs1 3.999980 1_555
Se0 Se4 2.376449 1_655
Se1 Se5 2.376449 1_555
Se2 Se6 2.376449 1_455
Se3 Se7 2.376449 1_555
Se10 Se14 2.355357 1_555
Se11 Se15 2.355357 1_655
Se12 Se8 2.355357 1_555
Se12 Se7 2.391295 1_545
Se13 Se9 2.355357 1_655
Se13 Se6 2.391295 1_555
Se14 Se5 2.391295 1_555
Se15 Se4 2.391295 1_565
