# generated using pymatgen
data_BaLi(B3O5)3
_symmetry_space_group_name_H-M   'P 1'
_cell_length_a   8.51287458
_cell_length_b   8.51287494
_cell_length_c   8.51287420
_cell_angle_alpha   80.37051976
_cell_angle_beta   80.37052316
_cell_angle_gamma   80.37051636
_symmetry_Int_Tables_number   1
_chemical_formula_structural   BaLi(B3O5)3
_chemical_formula_sum   'Ba2 Li2 B18 O30'
_cell_volume   593.46830109
_cell_formula_units_Z   2
loop_
 _symmetry_equiv_pos_site_id
 _symmetry_equiv_pos_as_xyz
  1  'x, y, z'
loop_
 _atom_site_type_symbol
 _atom_site_label
 _atom_site_symmetry_multiplicity
 _atom_site_fract_x
 _atom_site_fract_y
 _atom_site_fract_z
 _atom_site_occupancy
  Ba  Ba0  1  0.49847791  0.49847791  0.49847791  1
  Ba  Ba1  1  0.99847791  0.99847791  0.99847791  1
  Li  Li0  1  0.24432223  0.24432223  0.24432223  1
  Li  Li1  1  0.74432223  0.74432223  0.74432223  1
  B  B0  1  0.74648924  0.60863659  0.07890348  1
  B  B1  1  0.25024918  0.68022975  0.81931457  1
  B  B2  1  0.75024918  0.31931457  0.18022975  1
  B  B3  1  0.31931457  0.18022975  0.75024918  1
  B  B4  1  0.10863659  0.24648924  0.57890348  1
  B  B5  1  0.24648924  0.57890348  0.10863659  1
  B  B6  1  0.57890348  0.10863659  0.24648924  1
  B  B7  1  0.81931457  0.25024918  0.68022975  1
  B  B8  1  0.07890348  0.74648924  0.60863659  1
  B  B9  1  0.60863659  0.07890348  0.74648924  1
  B  B10  1  0.92079479  0.25327757  0.39138502  1
  B  B11  1  0.25327757  0.39138502  0.92079479  1
  B  B12  1  0.39138502  0.92079479  0.25327757  1
  B  B13  1  0.89138502  0.75327757  0.42079479  1
  B  B14  1  0.75327757  0.42079479  0.89138502  1
  B  B15  1  0.42079479  0.89138502  0.75327757  1
  B  B16  1  0.68022975  0.81931457  0.25024918  1
  B  B17  1  0.18022975  0.75024918  0.31931457  1
  O  O0  1  0.76098004  0.75857503  0.10066531  1
  O  O1  1  0.75857503  0.10066531  0.76098004  1
  O  O2  1  0.48839753  0.20267175  0.72641608  1
  O  O3  1  0.72641608  0.48839753  0.20267175  1
  O  O4  1  0.10066531  0.76098004  0.75857503  1
  O  O5  1  0.70267175  0.98839753  0.22641608  1
  O  O6  1  0.22641608  0.70267175  0.98839753  1
  O  O7  1  0.98839753  0.22641608  0.70267175  1
  O  O8  1  0.23867388  0.24112985  0.89997470  1
  O  O9  1  0.89997470  0.23867388  0.24112985  1
  O  O10  1  0.24112985  0.89997470  0.23867388  1
  O  O11  1  0.74112985  0.73867388  0.39997470  1
  O  O12  1  0.39997470  0.74112985  0.73867388  1
  O  O13  1  0.73867388  0.39997470  0.74112985  1
  O  O14  1  0.60066531  0.25857503  0.26098004  1
  O  O15  1  0.25857503  0.26098004  0.60066531  1
  O  O16  1  0.79682087  0.27408127  0.51114327  1
  O  O17  1  0.27408127  0.51114327  0.79682087  1
  O  O18  1  0.51114327  0.79682087  0.27408127  1
  O  O19  1  0.01114327  0.77408127  0.29682087  1
  O  O20  1  0.77408127  0.29682087  0.01114327  1
  O  O21  1  0.29682087  0.01114327  0.77408127  1
  O  O22  1  0.07839454  0.24947867  0.42151392  1
  O  O23  1  0.24947867  0.42151392  0.07839454  1
  O  O24  1  0.42151392  0.07839454  0.24947867  1
  O  O25  1  0.92151392  0.74947867  0.57839454  1
  O  O26  1  0.74947867  0.57839454  0.92151392  1
  O  O27  1  0.57839454  0.92151392  0.74947867  1
  O  O28  1  0.20267175  0.72641608  0.48839753  1
  O  O29  1  0.26098004  0.60066531  0.25857503  1
loop_
_geom_bond_atom_site_label_1
_geom_bond_atom_site_label_2
_geom_bond_distance
_geom_bond_site_symmetry_2
Ba0 O28 2.914715 1_555
Ba0 O3 2.914715 1_555
Ba0 O2 2.914715 1_555
Ba0 O16 2.917306 1_555
Ba0 O17 2.917306 1_555
Ba0 O18 2.917306 1_555
Ba0 O29 3.035428 1_555
Ba0 O14 3.035429 1_555
Ba0 O15 3.035429 1_555
Ba0 O13 3.067754 1_555
Ba0 O12 3.067755 1_555
Ba0 O11 3.067755 1_555
Ba1 O7 2.914715 1_565
Ba1 O6 2.914715 1_655
Ba1 O5 2.914715 1_556
Ba1 O19 2.917306 1_656
Ba1 O20 2.917306 1_566
Ba1 O21 2.917306 1_665
Ba1 O1 3.035428 1_565
Ba1 O4 3.035429 1_655
Ba1 O0 3.035429 1_556
Ba1 O10 3.067754 1_656
Ba1 O9 3.067755 1_566
Ba1 O8 3.067755 1_665
Li0 O24 1.887071 1_555
Li0 O23 1.887071 1_555
Li0 O22 1.887071 1_555
Li1 O27 1.887071 1_555
Li1 O26 1.887071 1_555
Li1 O25 1.887071 1_555
B0 O0 1.348400 1_555
B0 O3 1.350747 1_555
B0 O26 1.401389 1_554
B1 O6 1.459730 1_555
B1 O17 1.459880 1_555
B1 O4 1.473070 1_555
B1 O12 1.474416 1_555
B2 O3 1.459730 1_555
B2 O20 1.459880 1_555
B2 O14 1.473070 1_555
B2 O9 1.474415 1_555
B3 O2 1.459730 1_555
B3 O21 1.459880 1_555
B3 O15 1.473070 1_555
B3 O8 1.474415 1_555
B4 O15 1.348400 1_555
B4 O7 1.350747 1_455
B4 O22 1.401389 1_555
B5 O29 1.348400 1_555
B5 O6 1.350747 1_554
B5 O23 1.401389 1_555
B6 O14 1.348400 1_555
B6 O5 1.350747 1_545
B6 O24 1.401389 1_555
B7 O7 1.459730 1_555
B7 O16 1.459880 1_555
B7 O1 1.473070 1_555
B7 O13 1.474416 1_555
B8 O4 1.348400 1_555
B8 O28 1.350747 1_555
B8 O25 1.401389 1_455
B9 O1 1.348400 1_555
B9 O2 1.350747 1_555
B9 O27 1.401389 1_545
B10 O9 1.348848 1_555
B10 O16 1.349981 1_555
B10 O22 1.401650 1_655
B11 O8 1.348848 1_555
B11 O17 1.349981 1_555
B11 O23 1.401650 1_556
B12 O10 1.348848 1_555
B12 O18 1.349981 1_555
B12 O24 1.401650 1_565
B13 O11 1.348848 1_555
B13 O19 1.349981 1_655
B13 O25 1.401650 1_555
B14 O13 1.348848 1_555
B14 O20 1.349981 1_556
B14 O26 1.401650 1_555
B15 O12 1.348848 1_555
B15 O21 1.349981 1_565
B15 O27 1.401650 1_555
B16 O5 1.459730 1_555
B16 O18 1.459880 1_555
B16 O0 1.473070 1_555
B16 O11 1.474415 1_555
B17 O28 1.459730 1_555
B17 O19 1.459880 1_555
B17 O29 1.473070 1_555
B17 O10 1.474416 1_555
