# generated using pymatgen
data_CsV2S2O
_symmetry_space_group_name_H-M   'P 1'
_cell_length_a   4.10172800
_cell_length_b   4.10172800
_cell_length_c   7.59131100
_cell_angle_alpha   90.00000000
_cell_angle_beta   90.00000000
_cell_angle_gamma   90.00000000
_symmetry_Int_Tables_number   1
_chemical_formula_structural   CsV2S2O
_chemical_formula_sum   'Cs1 V2 S2 O1'
_cell_volume   127.71752642
_cell_formula_units_Z   1
loop_
 _symmetry_equiv_pos_site_id
 _symmetry_equiv_pos_as_xyz
  1  'x, y, z'
loop_
 _atom_site_type_symbol
 _atom_site_label
 _atom_site_symmetry_multiplicity
 _atom_site_fract_x
 _atom_site_fract_y
 _atom_site_fract_z
 _atom_site_occupancy
  Cs  Cs0  1  0.00000000  0.00000000  0.50000000  1
  V  V0  1  0.00000000  0.50000000  0.00000000  1
  V  V1  1  0.50000000  0.00000000  0.00000000  1
  S  S0  1  0.50000000  0.50000000  0.78815500  1
  S  S1  1  0.50000000  0.50000000  0.21184500  1
  O  O0  1  0.00000000  0.00000000  0.00000000  1
loop_
_geom_bond_atom_site_label_1
_geom_bond_atom_site_label_2
_geom_bond_distance
_geom_bond_site_symmetry_2
Cs0 S1 3.632785 1_545
Cs0 S1 3.632785 1_455
Cs0 S1 3.632785 1_555
Cs0 S1 3.632785 1_445
Cs0 S0 3.632785 1_545
Cs0 S0 3.632785 1_445
Cs0 S0 3.632785 1_455
Cs0 S0 3.632785 1_555
S0 V0 2.606202 1_556
S0 V1 2.606202 1_566
S0 V0 2.606202 1_656
S0 V1 2.606202 1_556
S1 V0 2.606202 1_655
S1 V0 2.606202 1_555
S1 V1 2.606202 1_565
S1 V1 2.606202 1_555
O0 V0 2.050864 1_545
O0 V1 2.050864 1_455
O0 V0 2.050864 1_555
O0 V1 2.050864 1_555
