# generated using pymatgen
data_K4Na4Nb3W5O24
_symmetry_space_group_name_H-M   'P 1'
_cell_length_a   8.02886400
_cell_length_b   8.03715700
_cell_length_c   8.04058600
_cell_angle_alpha   90.00000000
_cell_angle_beta   90.00000000
_cell_angle_gamma   90.00000000
_symmetry_Int_Tables_number   1
_chemical_formula_structural   K4Na4Nb3W5O24
_chemical_formula_sum   'K4 Na4 Nb3 W5 O24'
_cell_volume   518.85290775
_cell_formula_units_Z   1
loop_
 _symmetry_equiv_pos_site_id
 _symmetry_equiv_pos_as_xyz
  1  'x, y, z'
loop_
 _atom_site_type_symbol
 _atom_site_label
 _atom_site_symmetry_multiplicity
 _atom_site_fract_x
 _atom_site_fract_y
 _atom_site_fract_z
 _atom_site_occupancy
  K  K0  1  0.25058200  0.24945400  0.24981000  1
  K  K1  1  0.25058200  0.75054600  0.24981000  1
  K  K2  1  0.74941800  0.24945400  0.24981000  1
  K  K3  1  0.74941800  0.75054600  0.24981000  1
  Na  Na0  1  0.25070900  0.24939800  0.75016100  1
  Na  Na1  1  0.25070900  0.75060200  0.75016100  1
  Na  Na2  1  0.74929100  0.24939800  0.75016100  1
  Na  Na3  1  0.74929100  0.75060200  0.75016100  1
  Nb  Nb0  1  0.00000000  0.50000000  0.50208100  1
  Nb  Nb1  1  0.50000000  0.50000000  0.99851300  1
  Nb  Nb2  1  0.50000000  0.50000000  0.50147300  1
  W  W0  1  0.00000000  0.00000000  0.99899000  1
  W  W1  1  0.00000000  0.00000000  0.50146900  1
  W  W2  1  0.00000000  0.50000000  0.99879100  1
  W  W3  1  0.50000000  0.00000000  0.99844900  1
  W  W4  1  0.50000000  0.00000000  0.50140200  1
  O  O0  1  0.25666200  0.00000000  0.99723500  1
  O  O1  1  0.24990000  0.00000000  0.50289400  1
  O  O2  1  0.24516900  0.50000000  0.99725800  1
  O  O3  1  0.24887200  0.50000000  0.50282100  1
  O  O4  1  0.74333800  0.00000000  0.99723500  1
  O  O5  1  0.75010000  0.00000000  0.50289400  1
  O  O6  1  0.75483100  0.50000000  0.99725800  1
  O  O7  1  0.75112800  0.50000000  0.50282100  1
  O  O8  1  0.00000000  0.26124300  0.99709600  1
  O  O9  1  0.00000000  0.24674200  0.50272300  1
  O  O10  1  0.00000000  0.73875700  0.99709600  1
  O  O11  1  0.00000000  0.75325800  0.50272300  1
  O  O12  1  0.50000000  0.25377600  0.99708500  1
  O  O13  1  0.50000000  0.24552900  0.50269400  1
  O  O14  1  0.50000000  0.74622400  0.99708500  1
  O  O15  1  0.50000000  0.75447100  0.50269400  1
  O  O16  1  0.00000000  0.00000000  0.25087500  1
  O  O17  1  0.00000000  0.00000000  0.74963200  1
  O  O18  1  0.00000000  0.50000000  0.24632100  1
  O  O19  1  0.00000000  0.50000000  0.75247100  1
  O  O20  1  0.50000000  0.00000000  0.25127300  1
  O  O21  1  0.50000000  0.00000000  0.74887400  1
  O  O22  1  0.50000000  0.50000000  0.25168100  1
  O  O23  1  0.50000000  0.50000000  0.74821000  1
loop_
_geom_bond_atom_site_label_1
_geom_bond_atom_site_label_2
_geom_bond_distance
_geom_bond_site_symmetry_2
K0 O20 2.833716 1_555
K0 O22 2.839948 1_555
K0 O16 2.840316 1_555
K0 O18 2.846644 1_555
K0 O12 2.853181 1_554
K0 O13 2.854055 1_555
K0 O0 2.854184 1_554
K0 O1 2.856686 1_555
K0 O2 2.860138 1_554
K0 O9 2.860695 1_555
K0 O8 2.861044 1_554
K0 O3 2.862463 1_555
K1 O20 2.833716 1_565
K1 O22 2.839948 1_555
K1 O16 2.840316 1_565
K1 O18 2.846644 1_555
K1 O14 2.853181 1_554
K1 O15 2.854055 1_555
K1 O0 2.854184 1_564
K1 O1 2.856686 1_565
K1 O2 2.860138 1_554
K1 O11 2.860695 1_555
K1 O10 2.861044 1_554
K1 O3 2.862463 1_555
K2 O20 2.833716 1_555
K2 O22 2.839948 1_555
K2 O16 2.840316 1_655
K2 O18 2.846644 1_655
K2 O12 2.853181 1_554
K2 O13 2.854055 1_555
K2 O4 2.854184 1_554
K2 O5 2.856686 1_555
K2 O6 2.860138 1_554
K2 O9 2.860695 1_655
K2 O8 2.861044 1_654
K2 O7 2.862463 1_555
K3 O20 2.833716 1_565
K3 O22 2.839948 1_555
K3 O16 2.840316 1_665
K3 O18 2.846644 1_655
K3 O14 2.853181 1_554
K3 O15 2.854055 1_555
K3 O4 2.854184 1_564
K3 O5 2.856686 1_565
K3 O6 2.860138 1_554
K3 O11 2.860695 1_655
K3 O10 2.861044 1_654
K3 O7 2.862463 1_555
Na0 O12 2.819433 1_555
Na0 O13 2.822461 1_555
Na0 O0 2.822546 1_555
Na0 O1 2.823241 1_555
Na0 O8 2.828972 1_555
Na0 O2 2.829502 1_555
Na0 O9 2.830292 1_555
Na0 O3 2.830563 1_555
Na0 O21 2.832671 1_555
Na0 O23 2.839551 1_555
Na0 O17 2.840712 1_555
Na0 O19 2.847605 1_555
Na1 O14 2.819433 1_555
Na1 O15 2.822461 1_555
Na1 O0 2.822546 1_565
Na1 O1 2.823241 1_565
Na1 O10 2.828972 1_555
Na1 O2 2.829502 1_555
Na1 O11 2.830292 1_555
Na1 O3 2.830563 1_555
Na1 O21 2.832671 1_565
Na1 O23 2.839551 1_555
Na1 O17 2.840712 1_565
Na1 O19 2.847605 1_555
Na2 O12 2.819433 1_555
Na2 O13 2.822461 1_555
Na2 O4 2.822546 1_555
Na2 O5 2.823241 1_555
Na2 O8 2.828972 1_655
Na2 O6 2.829502 1_555
Na2 O9 2.830292 1_655
Na2 O7 2.830563 1_555
Na2 O21 2.832671 1_555
Na2 O23 2.839551 1_555
Na2 O17 2.840712 1_655
Na2 O19 2.847605 1_655
Na3 O14 2.819433 1_555
Na3 O15 2.822461 1_555
Na3 O4 2.822546 1_565
Na3 O5 2.823241 1_565
Na3 O10 2.828972 1_655
Na3 O6 2.829502 1_555
Na3 O11 2.830292 1_655
Na3 O7 2.830563 1_555
Na3 O21 2.832671 1_565
Na3 O23 2.839551 1_555
Na3 O17 2.840712 1_665
Na3 O19 2.847605 1_655
Nb0 O7 1.998168 1_455
Nb0 O3 1.998168 1_555
Nb0 O19 2.013282 1_555
Nb0 O11 2.035481 1_555
Nb0 O9 2.035481 1_555
Nb0 O18 2.056460 1_555
Nb1 O14 1.978974 1_555
Nb1 O12 1.978974 1_555
Nb1 O23 2.012583 1_555
Nb1 O22 2.035619 1_556
Nb1 O2 2.046028 1_555
Nb1 O6 2.046028 1_555
Nb2 O23 1.983910 1_555
Nb2 O22 2.008474 1_555
Nb2 O3 2.016302 1_555
Nb2 O7 2.016302 1_555
Nb2 O15 2.045247 1_555
Nb2 O13 2.045247 1_555
O0 W3 1.953752 1_555
O0 W0 2.060753 1_555
O1 W1 2.006446 1_555
O1 W4 2.008055 1_555
O2 W2 1.968467 1_555
O4 W3 1.953752 1_555
O4 W0 2.060753 1_655
O5 W1 2.006446 1_655
O5 W4 2.008055 1_555
O6 W2 1.968467 1_655
O8 W2 1.918976 1_555
O8 W0 2.099706 1_555
O9 W1 1.983130 1_555
O10 W2 1.918976 1_555
O10 W0 2.099706 1_565
O11 W1 1.983130 1_565
O12 W3 2.039667 1_555
O13 W4 1.973382 1_555
O14 W3 2.039667 1_565
O15 W4 1.973382 1_565
O16 W1 2.014923 1_555
O16 W0 2.025303 1_554
O17 W1 1.995376 1_555
O17 W0 2.004984 1_555
O18 W2 1.990286 1_554
O19 W2 1.980557 1_555
O20 W4 2.011184 1_555
O20 W3 2.032853 1_554
O21 W4 1.989820 1_555
O21 W3 2.006729 1_555
