# generated using pymatgen
data_Y3B7W
_symmetry_space_group_name_H-M   'P 1'
_cell_length_a   8.18351648
_cell_length_b   8.18351648
_cell_length_c   9.48781307
_cell_angle_alpha   90.00000000
_cell_angle_beta   90.00000000
_cell_angle_gamma   155.53543936
_symmetry_Int_Tables_number   1
_chemical_formula_structural   Y3B7W
_chemical_formula_sum   'Y6 B14 W2'
_cell_volume   263.13769868
_cell_formula_units_Z   2
loop_
 _symmetry_equiv_pos_site_id
 _symmetry_equiv_pos_as_xyz
  1  'x, y, z'
loop_
 _atom_site_type_symbol
 _atom_site_label
 _atom_site_symmetry_multiplicity
 _atom_site_fract_x
 _atom_site_fract_y
 _atom_site_fract_z
 _atom_site_occupancy
  Y  Y0  1  0.89335257  0.10664743  0.93972461  1
  Y  Y1  1  0.10664743  0.89335257  0.06027539  1
  Y  Y2  1  0.75610132  0.24389868  0.25000000  1
  Y  Y3  1  0.24389868  0.75610132  0.75000000  1
  Y  Y4  1  0.89335257  0.10664743  0.56027539  1
  Y  Y5  1  0.10664743  0.89335257  0.43972461  1
  B  B0  1  0.54384918  0.45615082  0.25000000  1
  B  B1  1  0.45615082  0.54384918  0.75000000  1
  B  B2  1  0.51976532  0.48023468  0.90761425  1
  B  B3  1  0.48023468  0.51976532  0.09238575  1
  B  B4  1  0.48023468  0.51976532  0.40761425  1
  B  B5  1  0.51976532  0.48023468  0.59238575  1
  B  B6  1  0.63454186  0.36545814  0.85271433  1
  B  B7  1  0.36545814  0.63454186  0.14728567  1
  B  B8  1  0.72753721  0.27246279  0.96624199  1
  B  B9  1  0.27246279  0.72753721  0.03375801  1
  B  B10  1  0.27246279  0.72753721  0.46624199  1
  B  B11  1  0.72753721  0.27246279  0.53375801  1
  B  B12  1  0.63454186  0.36545814  0.64728567  1
  B  B13  1  0.36545814  0.63454186  0.35271433  1
  W  W0  1  0.05375749  0.94624251  0.75000000  1
  W  W1  1  0.94624251  0.05375749  0.25000000  1
loop_
_geom_bond_atom_site_label_1
_geom_bond_atom_site_label_2
_geom_bond_distance
_geom_bond_site_symmetry_2
B0 B3 1.808772 1_555
B0 B4 1.808772 1_555
B0 W1 2.333217 1_565
B0 W1 2.333217 1_455
B0 Y1 2.693624 1_655
B0 Y5 2.693624 1_655
B0 Y1 2.693624 1_545
B0 Y5 2.693624 1_545
B1 B5 1.808772 1_555
B1 B2 1.808772 1_555
B1 W0 2.333217 1_655
B1 W0 2.333217 1_545
B1 Y4 2.693624 1_455
B1 Y4 2.693624 1_565
B1 Y0 2.693624 1_455
B1 Y0 2.693624 1_565
B2 B3 1.863625 1_556
B2 B6 1.908364 1_555
B2 W0 2.353350 1_655
B2 W0 2.353350 1_545
B2 Y1 2.652470 1_546
B2 Y1 2.652470 1_656
B2 Y0 2.681003 1_455
B2 Y0 2.681003 1_565
B3 B7 1.908364 1_555
B3 W1 2.353350 1_455
B3 W1 2.353350 1_565
B3 Y0 2.652470 1_564
B3 Y0 2.652470 1_454
B3 Y1 2.681003 1_655
B3 Y1 2.681003 1_545
B4 B5 1.863625 1_555
B4 W1 2.353350 1_455
B4 W1 2.353350 1_565
B4 Y4 2.652470 1_455
B4 Y4 2.652470 1_565
B4 Y5 2.681003 1_545
B4 Y5 2.681003 1_655
B5 W0 2.353350 1_545
B5 W0 2.353350 1_655
B5 Y5 2.652470 1_545
B5 Y5 2.652470 1_655
B5 Y4 2.681003 1_455
B5 Y4 2.681003 1_565
B6 B8 1.836538 1_555
B6 W0 2.371880 1_655
B6 W0 2.371880 1_545
B6 Y3 2.648739 1_545
B6 Y3 2.648739 1_655
B6 Y1 2.661501 1_546
B6 Y1 2.661501 1_656
B7 B9 1.836538 1_555
B7 W1 2.371880 1_455
B7 W1 2.371880 1_565
B7 Y2 2.648739 1_455
B7 Y2 2.648739 1_565
B7 Y0 2.661501 1_454
B7 Y0 2.661501 1_564
B8 B9 1.983203 1_546
B8 B9 1.983203 1_656
B8 Y0 2.664197 1_555
B8 Y3 2.698921 1_545
B8 Y3 2.698921 1_655
B8 Y2 2.730737 1_556
B8 Y1 2.746174 1_656
B8 Y1 2.746174 1_546
B9 Y1 2.664197 1_555
B9 Y2 2.698921 1_565
B9 Y2 2.698921 1_455
B9 Y3 2.730737 1_554
B9 Y0 2.746174 1_564
B9 Y0 2.746174 1_454
B10 B13 1.836538 1_555
B10 B11 1.983203 1_455
B10 B11 1.983203 1_565
B10 Y5 2.664197 1_555
B10 Y2 2.698921 1_565
B10 Y2 2.698921 1_455
B10 Y3 2.730737 1_555
B10 Y4 2.746174 1_565
B10 Y4 2.746174 1_455
B11 B12 1.836538 1_555
B11 Y4 2.664197 1_555
B11 Y3 2.698921 1_545
B11 Y3 2.698921 1_655
B11 Y2 2.730737 1_555
B11 Y5 2.746174 1_655
B11 Y5 2.746174 1_545
B12 B5 1.908364 1_555
B12 B6 1.949069 1_555
B12 W0 2.371880 1_655
B12 W0 2.371880 1_545
B12 Y3 2.648739 1_545
B12 Y3 2.648739 1_655
B12 Y5 2.661501 1_545
B12 Y5 2.661501 1_655
B13 B4 1.908364 1_555
B13 B7 1.949069 1_555
B13 W1 2.371880 1_455
B13 W1 2.371880 1_565
B13 Y2 2.648739 1_455
B13 Y2 2.648739 1_565
B13 Y4 2.661501 1_455
B13 Y4 2.661501 1_565
