# generated using pymatgen
data_H12C71F4
_symmetry_space_group_name_H-M   'P 1'
_cell_length_a   10.42338800
_cell_length_b   10.46906679
_cell_length_c   19.27921029
_cell_angle_alpha   105.20271846
_cell_angle_beta   99.52470778
_cell_angle_gamma   93.14222720
_symmetry_Int_Tables_number   1
_chemical_formula_structural   H12C71F4
_chemical_formula_sum   'H24 C142 F8'
_cell_volume   1991.50716158
_cell_formula_units_Z   2
loop_
 _symmetry_equiv_pos_site_id
 _symmetry_equiv_pos_as_xyz
  1  'x, y, z'
loop_
 _atom_site_type_symbol
 _atom_site_label
 _atom_site_symmetry_multiplicity
 _atom_site_fract_x
 _atom_site_fract_y
 _atom_site_fract_z
 _atom_site_occupancy
  H  H0  1  0.68629200  0.65484200  0.54362800  1
  H  H1  1  0.31370800  0.34515800  0.45637200  1
  H  H2  1  0.64597700  0.47211500  0.36742300  1
  H  H3  1  0.35402300  0.52788500  0.63257700  1
  H  H4  1  0.35898400  0.75438700  0.36477100  1
  H  H5  1  0.64101600  0.24561300  0.63522900  1
  H  H6  1  0.36463400  0.79430700  0.49596800  1
  H  H7  1  0.63536600  0.20569300  0.50403200  1
  H  H8  1  0.52372500  0.79855700  0.54903800  1
  H  H9  1  0.47627500  0.20144300  0.45096200  1
  H  H10  1  0.47903200  0.91526200  0.46200200  1
  H  H11  1  0.52096800  0.08473800  0.53799800  1
  H  H12  1  0.88603500  0.51896000  0.46572800  1
  H  H13  1  0.11396500  0.48104000  0.53427200  1
  H  H14  1  0.83755600  0.48890600  0.55189300  1
  H  H15  1  0.16244400  0.51109400  0.44810700  1
  H  H16  1  0.79481300  0.37448900  0.49834100  1
  H  H17  1  0.20518700  0.62551100  0.50165900  1
  H  H18  1  0.42175600  0.49457200  0.28187800  1
  H  H19  1  0.57824400  0.50542800  0.71812200  1
  H  H20  1  0.32027600  0.63183300  0.27333300  1
  H  H21  1  0.67972400  0.36816700  0.72666700  1
  H  H22  1  0.46889900  0.65840200  0.23995900  1
  H  H23  1  0.53110100  0.34159800  0.76004100  1
  C  C0  1  0.28431600  0.75397600  0.97846800  1
  C  C1  1  0.71568400  0.24602400  0.02153200  1
  C  C2  1  0.22769600  0.63044100  0.96005600  1
  C  C3  1  0.77230400  0.36955900  0.03994400  1
  C  C4  1  0.32509200  0.58555000  0.92750200  1
  C  C5  1  0.67490800  0.41445000  0.07249800  1
  C  C6  1  0.39752100  0.70231900  0.89466700  1
  C  C7  1  0.60247900  0.29768100  0.10533300  1
  C  C8  1  0.37782300  0.80513700  0.92845200  1
  C  C9  1  0.62217700  0.19486300  0.07154800  1
  C  C10  1  0.38903500  0.93841200  0.89277100  1
  C  C11  1  0.61096500  0.06158800  0.10722900  1
  C  C12  1  0.29820000  0.03917100  0.89512900  1
  C  C13  1  0.70180000  0.96082900  0.10487100  1
  C  C14  1  0.19535700  0.00406800  0.93288100  1
  C  C15  1  0.80464300  0.99593200  0.06711900  1
  C  C16  1  0.17846100  0.86780500  0.98027000  1
  C  C17  1  0.82153900  0.13219500  0.01973000  1
  C  C18  1  0.03956100  0.83213200  0.95903100  1
  C  C19  1  0.96043900  0.16786800  0.04096900  1
  C  C20  1  0.00050700  0.71113000  0.94516400  1
  C  C21  1  0.99949300  0.28887000  0.05483600  1
  C  C22  1  0.09377000  0.61014100  0.94374800  1
  C  C23  1  0.90623000  0.38985900  0.05625200  1
  C  C24  1  0.03129200  0.54571500  0.88736400  1
  C  C25  1  0.96870800  0.45428500  0.11263600  1
  C  C26  1  0.09857600  0.50111600  0.84226800  1
  C  C27  1  0.90142400  0.49888400  0.15773200  1
  C  C28  1  0.23955500  0.49627100  0.84947800  1
  C  C29  1  0.76044500  0.50372900  0.15052200  1
  C  C30  1  0.27228300  0.56692000  0.77903000  1
  C  C31  1  0.72771700  0.43308000  0.22097000  1
  C  C32  1  0.36286200  0.67119900  0.76707000  1
  C  C33  1  0.63713800  0.32880100  0.23293000  1
  C  C34  1  0.42356600  0.73675500  0.82325700  1
  C  C35  1  0.57643400  0.26324500  0.17674300  1
  C  C36  1  0.43898700  0.87659300  0.78690100  1
  C  C37  1  0.56101300  0.12340700  0.21309900  1
  C  C38  1  0.42246000  0.97490200  0.82081600  1
  C  C39  1  0.57754000  0.02509800  0.17918400  1
  C  C40  1  0.35533500  0.09779600  0.77850100  1
  C  C41  1  0.64466500  0.90220400  0.22149900  1
  C  C42  1  0.27767700  0.13621200  0.82408000  1
  C  C43  1  0.72232300  0.86378800  0.17592000  1
  C  C44  1  0.15441400  0.19395000  0.79253200  1
  C  C45  1  0.84558600  0.80605000  0.20746800  1
  C  C46  1  0.04629900  0.15324100  0.83049900  1
  C  C47  1  0.95370100  0.84675900  0.16950100  1
  C  C48  1  0.06672400  0.05745800  0.89844800  1
  C  C49  1  0.93327600  0.94254200  0.10155200  1
  C  C50  1  0.97121700  0.95255800  0.91477200  1
  C  C51  1  0.02878300  0.04744200  0.08522800  1
  C  C52  1  0.85812300  0.94841700  0.86305300  1
  C  C53  1  0.14187700  0.05158300  0.13694700  1
  C  C54  1  0.81244200  0.82194400  0.85170300  1
  C  C55  1  0.18755800  0.17805600  0.14829700  1
  C  C56  1  0.88429000  0.70647200  0.89136200  1
  C  C57  1  0.11571000  0.29352800  0.10863800  1
  C  C58  1  0.90291300  0.60640400  0.85572500  1
  C  C59  1  0.09708700  0.39359600  0.14427500  1
  C  C60  1  0.84805200  0.62521900  0.78171000  1
  C  C61  1  0.15194800  0.37478100  0.21829000  1
  C  C62  1  0.92263100  0.58866100  0.73454100  1
  C  C63  1  0.07736900  0.41133900  0.26545900  1
  C  C64  1  0.04566900  0.53179300  0.76435700  1
  C  C65  1  0.95433100  0.46820700  0.23564300  1
  C  C66  1  0.15258000  0.57266800  0.72544900  1
  C  C67  1  0.84742000  0.42733200  0.27455100  1
  C  C68  1  0.13294000  0.66968700  0.65855100  1
  C  C69  1  0.86706000  0.33031300  0.34144900  1
  C  C70  1  0.23073000  0.77213100  0.64353200  1
  C  C71  1  0.76927000  0.22786900  0.35646800  1
  C  C72  1  0.34184100  0.77355500  0.69709600  1
  C  C73  1  0.65815900  0.22644500  0.30290400  1
  C  C74  1  0.39029800  0.89927400  0.70927900  1
  C  C75  1  0.60970200  0.10072600  0.29072100  1
  C  C76  1  0.32629300  0.01827800  0.66814600  1
  C  C77  1  0.67370700  0.98172200  0.33185400  1
  C  C78  1  0.30812900  0.11940400  0.70359900  1
  C  C79  1  0.69187100  0.88059600  0.29640100  1
  C  C80  1  0.18031500  0.17903800  0.67109300  1
  C  C81  1  0.81968500  0.82096200  0.32890700  1
  C  C82  1  0.10468600  0.21528000  0.71487700  1
  C  C83  1  0.89531400  0.78472000  0.28512300  1
  C  C84  1  0.96524800  0.18728700  0.70516300  1
  C  C85  1  0.03475200  0.81271300  0.29483700  1
  C  C86  1  0.92910900  0.14864400  0.77680400  1
  C  C87  1  0.07089100  0.85135600  0.22319600  1
  C  C88  1  0.83631700  0.04837000  0.79286300  1
  C  C89  1  0.16368300  0.95163000  0.20713700  1
  C  C90  1  0.77541500  0.98298600  0.73788300  1
  C  C91  1  0.22458500  0.01701400  0.26211700  1
  C  C92  1  0.75958900  0.84311800  0.77442400  1
  C  C93  1  0.24041100  0.15688200  0.22557600  1
  C  C94  1  0.77685700  0.74627900  0.73993200  1
  C  C95  1  0.22314300  0.25372100  0.26006800  1
  C  C96  1  0.81053700  0.78555500  0.66757200  1
  C  C97  1  0.18946300  0.21444500  0.33242800  1
  C  C98  1  0.90090300  0.68763600  0.66433200  1
  C  C99  1  0.09909700  0.31236400  0.33566800  1
  C  C100  1  0.00487500  0.72799900  0.62689500  1
  C  C101  1  0.99512500  0.27200100  0.37310500  1
  C  C102  1  0.02325000  0.86745000  0.59141600  1
  C  C103  1  0.97675000  0.13255000  0.40858400  1
  C  C104  1  0.16297900  0.89486500  0.60147900  1
  C  C105  1  0.83702100  0.10513500  0.39852100  1
  C  C106  1  0.21012500  0.01587500  0.61358300  1
  C  C107  1  0.78987500  0.98412500  0.38641700  1
  C  C108  1  0.11933000  0.11458000  0.61576800  1
  C  C109  1  0.88067000  0.88542000  0.38423200  1
  C  C110  1  0.98495500  0.08777800  0.60636700  1
  C  C111  1  0.01504500  0.91222200  0.39363300  1
  C  C112  1  0.90659200  0.12440000  0.65207600  1
  C  C113  1  0.09340800  0.87560000  0.34792400  1
  C  C114  1  0.80986700  0.02056700  0.66866500  1
  C  C115  1  0.19013300  0.97943300  0.33133500  1
  C  C116  1  0.82773900  0.92016300  0.63280400  1
  C  C117  1  0.17226100  0.07983700  0.36719600  1
  C  C118  1  0.93597500  0.96176800  0.59423200  1
  C  C119  1  0.06402500  0.03823200  0.40576800  1
  C  C120  1  0.27291500  0.79393600  0.04483300  1
  C  C121  1  0.72708500  0.20606400  0.95516700  1
  C  C122  1  0.33353200  0.45146900  0.91813000  1
  C  C123  1  0.66646800  0.54853100  0.08187000  1
  C  C124  1  0.51791900  0.71655300  0.45778500  1
  C  C125  1  0.48208100  0.28344700  0.54221500  1
  C  C126  1  0.63327600  0.64444600  0.49103500  1
  C  C127  1  0.36672400  0.35555400  0.50896500  1
  C  C128  1  0.68111100  0.55632600  0.45904600  1
  C  C129  1  0.31888900  0.44367400  0.54095400  1
  C  C130  1  0.61029400  0.54133100  0.39259100  1
  C  C131  1  0.38970600  0.45866900  0.60740900  1
  C  C132  1  0.49450900  0.61204800  0.35763300  1
  C  C133  1  0.50549100  0.38795200  0.64236700  1
  C  C134  1  0.44955800  0.69932800  0.39116500  1
  C  C135  1  0.55044200  0.30067200  0.60883500  1
  C  C136  1  0.46886800  0.81082700  0.49313800  1
  C  C137  1  0.53113200  0.18917300  0.50686200  1
  C  C138  1  0.80616100  0.48073300  0.49580800  1
  C  C139  1  0.19383900  0.51926700  0.50419200  1
  C  C140  1  0.42211100  0.59804400  0.28481600  1
  C  C141  1  0.57788900  0.40195600  0.71518400  1
  F  F0  1  0.22525600  0.70361200  0.09967200  1
  F  F1  1  0.77474400  0.29638800  0.90032800  1
  F  F2  1  0.37326800  0.86253200  0.07458200  1
  F  F3  1  0.62673200  0.13746800  0.92541800  1
  F  F4  1  0.29176600  0.34895600  0.97083700  1
  F  F5  1  0.70823400  0.65104400  0.02916300  1
  F  F6  1  0.45497700  0.41720000  0.91052100  1
  F  F7  1  0.54502300  0.58280000  0.08947900  1
loop_
_geom_bond_atom_site_label_1
_geom_bond_atom_site_label_2
_geom_bond_distance
_geom_bond_site_symmetry_2
C0 C120 1.265388 1_556
C0 C2 1.324062 1_555
C0 C8 1.640527 1_555
C0 C16 1.665490 1_555
C1 C121 1.265388 1_554
C1 C3 1.324062 1_555
C1 C9 1.640527 1_555
C1 C17 1.665490 1_555
C2 C4 1.324336 1_555
C2 C22 1.371098 1_555
C3 C5 1.324336 1_555
C4 C6 1.711127 1_555
C5 C7 1.711127 1_555
C6 C8 1.151451 1_555
C7 C9 1.151451 1_555
C10 C12 1.452520 1_565
C10 C38 1.617110 1_555
C10 C8 1.716318 1_555
C11 C13 1.452520 1_545
C11 C39 1.617110 1_555
C11 C9 1.716318 1_555
C12 C14 1.472825 1_555
C12 C42 1.900220 1_555
C13 C15 1.472825 1_555
C13 C43 1.900220 1_555
C14 C48 1.591547 1_555
C14 C16 1.900005 1_545
C15 C49 1.591547 1_555
C15 C17 1.900005 1_565
C16 C18 1.437920 1_555
C17 C19 1.437920 1_555
C18 C20 1.253690 1_555
C18 C50 1.812885 1_455
C19 C21 1.253690 1_555
C19 C51 1.812885 1_655
C20 C56 1.448059 1_455
C20 C22 1.473050 1_555
C21 C57 1.448059 1_655
C21 C23 1.473050 1_555
C22 C24 1.180555 1_555
C23 C25 1.180555 1_555
C23 C3 1.371098 1_555
C24 C26 1.220875 1_555
C24 C58 1.610191 1_455
C25 C27 1.220875 1_555
C25 C59 1.610191 1_655
C26 C28 1.457920 1_555
C26 C64 1.631484 1_555
C27 C29 1.457920 1_555
C27 C65 1.631484 1_555
C28 C4 1.630544 1_555
C28 C30 1.777812 1_555
C29 C5 1.630544 1_555
C29 C31 1.777812 1_555
C30 C32 1.492466 1_555
C30 C66 1.497255 1_555
C31 C33 1.492466 1_555
C31 C67 1.497255 1_555
C32 C34 1.174922 1_555
C32 C72 1.924131 1_555
C33 C35 1.174922 1_555
C33 C73 1.924131 1_555
C34 C6 1.572362 1_555
C34 C36 1.791646 1_555
C35 C7 1.572362 1_555
C35 C37 1.791646 1_555
C36 C38 1.104642 1_555
C36 C74 1.581663 1_555
C36 C72 1.872731 1_555
C37 C39 1.104642 1_555
C37 C75 1.581663 1_555
C37 C73 1.872731 1_555
C38 C40 1.808490 1_565
C39 C41 1.808490 1_545
C40 C42 1.294169 1_555
C40 C78 1.525433 1_555
C41 C43 1.294169 1_555
C41 C79 1.525433 1_555
C42 C44 1.550938 1_555
C43 C45 1.550938 1_555
C44 C46 1.539912 1_555
C44 C82 1.578333 1_555
C45 C47 1.539912 1_555
C45 C83 1.578333 1_555
C46 C86 1.454302 1_455
C46 C48 1.840385 1_555
C47 C87 1.454302 1_655
C47 C49 1.840385 1_555
C48 C50 1.568831 1_445
C49 C51 1.568831 1_665
C50 C52 1.403013 1_555
C51 C53 1.403013 1_555
C52 C54 1.331229 1_555
C52 C92 1.870005 1_555
C52 C88 1.909125 1_565
C53 C55 1.331229 1_555
C53 C93 1.870005 1_555
C53 C89 1.909125 1_545
C54 C92 1.577130 1_555
C54 C56 1.732448 1_555
C55 C93 1.577130 1_555
C55 C57 1.732448 1_555
C56 C58 1.138491 1_555
C57 C59 1.138491 1_555
C58 C60 1.513837 1_555
C59 C61 1.513837 1_555
C60 C62 1.289101 1_555
C60 C94 1.801775 1_555
C61 C63 1.289101 1_555
C61 C95 1.801775 1_555
C62 C64 1.532590 1_655
C62 C98 1.901836 1_555
C63 C65 1.532590 1_455
C63 C99 1.901836 1_555
C64 C66 1.542834 1_555
C65 C67 1.542834 1_555
C66 C68 1.832879 1_555
C67 C69 1.832879 1_555
C68 C70 1.553629 1_555
C69 C71 1.553629 1_555
C70 C72 1.414983 1_555
C71 C73 1.414983 1_555
C72 C74 1.329769 1_555
C73 C75 1.329769 1_555
C74 C76 1.749378 1_565
C75 C77 1.749378 1_545
C76 C78 1.144178 1_555
C77 C79 1.144178 1_555
C78 C80 1.605454 1_555
C79 C81 1.605454 1_555
C80 C82 1.250188 1_555
C81 C83 1.250188 1_555
C82 C84 1.437990 1_455
C83 C85 1.437990 1_655
C84 C86 1.631490 1_555
C85 C87 1.631490 1_555
C86 C88 1.513811 1_555
C87 C89 1.513811 1_555
C88 C90 1.159402 1_545
C89 C91 1.159402 1_565
C90 C92 1.794616 1_555
C91 C93 1.794616 1_555
C92 C94 1.099295 1_555
C93 C95 1.099295 1_555
C94 C96 1.638768 1_555
C95 C97 1.638768 1_555
C96 C98 1.426089 1_555
C97 C99 1.426089 1_555
C100 C98 1.497532 1_455
C100 C68 1.594413 1_555
C100 C102 1.781111 1_555
C101 C99 1.497532 1_655
C101 C69 1.594413 1_555
C101 C103 1.781111 1_555
C102 C118 1.375576 1_455
C102 C104 1.439693 1_555
C103 C119 1.375576 1_655
C103 C105 1.439693 1_555
C104 C106 1.280483 1_565
C104 C70 1.806482 1_555
C105 C107 1.280483 1_545
C105 C71 1.806482 1_555
C106 C108 1.436251 1_555
C106 C76 1.461036 1_555
C107 C109 1.436251 1_555
C107 C77 1.461036 1_555
C108 C80 1.161129 1_555
C108 C110 1.385500 1_455
C109 C81 1.161129 1_555
C109 C111 1.385500 1_655
C110 C112 1.298495 1_555
C110 C118 1.334338 1_545
C111 C113 1.298495 1_555
C111 C119 1.334338 1_565
C112 C84 1.118095 1_555
C112 C114 1.571402 1_555
C113 C85 1.118095 1_555
C113 C115 1.571402 1_555
C114 C116 1.140408 1_545
C114 C90 1.575762 1_545
C115 C117 1.140408 1_565
C115 C91 1.575762 1_565
C116 C118 1.552151 1_555
C116 C96 1.724773 1_555
C117 C119 1.552151 1_555
C117 C97 1.724773 1_555
C120 F2 1.200793 1_555
C120 F0 1.704521 1_555
C120 C16 1.816438 1_554
C121 F3 1.200793 1_555
C121 F1 1.704521 1_555
C121 C17 1.816438 1_556
C122 F6 1.355100 1_555
C122 C4 1.377152 1_555
C122 C28 1.696531 1_555
C122 F4 1.743851 1_555
C123 F7 1.355100 1_555
C123 C5 1.377152 1_555
C123 C29 1.696531 1_555
C123 F5 1.743851 1_555
C124 C136 1.232025 1_555
C124 C134 1.323422 1_555
C124 C126 1.588961 1_555
C125 C137 1.232025 1_555
C125 C135 1.323422 1_555
C125 C127 1.588961 1_555
C126 H0 1.046619 1_555
C126 C128 1.154910 1_555
C127 H1 1.046619 1_555
C127 C129 1.154910 1_555
C128 C130 1.334097 1_555
C128 H0 1.675834 1_555
C128 C138 1.711463 1_555
C128 H2 1.722020 1_555
C129 C131 1.334097 1_555
C129 H1 1.675834 1_555
C129 C139 1.711463 1_555
C129 H3 1.722020 1_555
C130 H2 0.896509 1_555
C130 C132 1.596661 1_555
C131 H3 0.896509 1_555
C131 C133 1.596661 1_555
C132 C134 1.144442 1_555
C132 C140 1.446062 1_555
C132 H18 1.676259 1_555
C133 C135 1.144442 1_555
C133 C141 1.446062 1_555
C133 H19 1.676259 1_555
C134 H4 1.239757 1_555
C135 H5 1.239757 1_555
C136 H6 1.103302 1_555
C136 H8 1.175426 1_555
C136 H10 1.385461 1_555
C137 H7 1.103302 1_555
C137 H9 1.175426 1_555
C137 H11 1.385461 1_555
C138 H14 1.055874 1_555
C138 H16 1.126725 1_555
C138 H12 1.197747 1_555
C139 H15 1.055874 1_555
C139 H17 1.126725 1_555
C139 H13 1.197747 1_555
C140 H18 1.069568 1_555
C140 H20 1.142505 1_555
C140 H22 1.333199 1_555
C141 H19 1.069568 1_555
C141 H21 1.142505 1_555
C141 H23 1.333199 1_555
