# generated using pymatgen
data_CsLiSO4
_symmetry_space_group_name_H-M   'P 1'
_cell_length_a   5.61079500
_cell_length_b   10.20613300
_cell_length_c   10.99012000
_cell_angle_alpha   90.00000000
_cell_angle_beta   90.00000000
_cell_angle_gamma   90.00000000
_symmetry_Int_Tables_number   1
_chemical_formula_structural   CsLiSO4
_chemical_formula_sum   'Cs4 Li4 S4 O16'
_cell_volume   629.34394661
_cell_formula_units_Z   4
loop_
 _symmetry_equiv_pos_site_id
 _symmetry_equiv_pos_as_xyz
  1  'x, y, z'
loop_
 _atom_site_type_symbol
 _atom_site_label
 _atom_site_symmetry_multiplicity
 _atom_site_fract_x
 _atom_site_fract_y
 _atom_site_fract_z
 _atom_site_occupancy
  Cs  Cs0  1  0.75000000  0.96147000  0.36285300  1
  Cs  Cs1  1  0.25000000  0.53853000  0.86285300  1
  Cs  Cs2  1  0.75000000  0.46147000  0.13714700  1
  Cs  Cs3  1  0.25000000  0.03853000  0.63714700  1
  Li  Li0  1  0.75000000  0.13187700  0.03888800  1
  Li  Li1  1  0.25000000  0.36812300  0.53888800  1
  Li  Li2  1  0.75000000  0.63187700  0.46111200  1
  Li  Li3  1  0.25000000  0.86812300  0.96111200  1
  S  S0  1  0.25000000  0.18998600  0.93568300  1
  S  S1  1  0.75000000  0.31001400  0.43568300  1
  S  S2  1  0.25000000  0.68998600  0.56431700  1
  S  S3  1  0.75000000  0.81001400  0.06431700  1
  O  O0  1  0.25000000  0.04502500  0.91989100  1
  O  O1  1  0.53342600  0.26774900  0.50542100  1
  O  O2  1  0.96657400  0.26774900  0.50542100  1
  O  O3  1  0.75000000  0.24751700  0.31367800  1
  O  O4  1  0.25000000  0.25248300  0.81367800  1
  O  O5  1  0.03342600  0.23225100  0.00542100  1
  O  O6  1  0.46657400  0.23225100  0.00542100  1
  O  O7  1  0.75000000  0.45497500  0.41989100  1
  O  O8  1  0.25000000  0.54502500  0.58010900  1
  O  O9  1  0.53342600  0.76774900  0.99457900  1
  O  O10  1  0.96657400  0.76774900  0.99457900  1
  O  O11  1  0.75000000  0.74751700  0.18632200  1
  O  O12  1  0.25000000  0.75248300  0.68632200  1
  O  O13  1  0.03342600  0.73225100  0.49457900  1
  O  O14  1  0.46657400  0.73225100  0.49457900  1
  O  O15  1  0.75000000  0.95497500  0.08010900  1
loop_
_geom_bond_atom_site_label_1
_geom_bond_atom_site_label_2
_geom_bond_distance
_geom_bond_site_symmetry_2
Cs0 O11 2.920998 1_555
Cs0 O3 2.969035 1_565
Cs0 O15 3.108097 1_555
Cs0 O13 3.177680 1_655
Cs0 O14 3.177680 1_555
Cs1 O12 2.920998 1_555
Cs1 O4 2.969035 1_555
Cs1 O8 3.108097 1_555
Cs1 O9 3.177680 1_555
Cs1 O10 3.177680 1_455
Cs2 O3 2.920998 1_555
Cs2 O11 2.969035 1_555
Cs2 O7 3.108097 1_555
Cs2 O5 3.177680 1_655
Cs2 O6 3.177680 1_555
Cs3 O4 2.920998 1_555
Cs3 O12 2.969035 1_545
Cs3 O0 3.108097 1_555
Cs3 O2 3.177680 1_455
Cs3 O1 3.177680 1_555
Li0 O15 1.861453 1_545
Li0 O5 1.927075 1_655
Li0 O6 1.927075 1_555
Li1 O8 1.861453 1_555
Li1 O1 1.927075 1_555
Li1 O2 1.927075 1_455
Li2 O7 1.861453 1_555
Li2 O13 1.927075 1_655
Li2 O14 1.927075 1_555
Li3 O0 1.861453 1_565
Li3 O10 1.927075 1_455
Li3 O9 1.927075 1_555
O0 S0 1.489636 1_555
O1 S1 1.500027 1_555
O2 S1 1.500027 1_555
O3 S1 1.484835 1_555
O4 S0 1.484835 1_555
O5 S0 1.500027 1_554
O6 S0 1.500027 1_554
O7 S1 1.489636 1_555
O8 S2 1.489636 1_555
O9 S3 1.500027 1_556
O10 S3 1.500027 1_556
O11 S3 1.484835 1_555
O12 S2 1.484835 1_555
O13 S2 1.500027 1_555
O14 S2 1.500027 1_555
O15 S3 1.489636 1_555
