# generated using pymatgen
data_Rb3Pt
_symmetry_space_group_name_H-M   'P 1'
_cell_length_a   5.49879000
_cell_length_b   5.49879000
_cell_length_c   5.49879000
_cell_angle_alpha   90.00000000
_cell_angle_beta   90.00000000
_cell_angle_gamma   90.00000000
_symmetry_Int_Tables_number   1
_chemical_formula_structural   Rb3Pt
_chemical_formula_sum   'Rb3 Pt1'
_cell_volume   166.26521666
_cell_formula_units_Z   1
loop_
 _symmetry_equiv_pos_site_id
 _symmetry_equiv_pos_as_xyz
  1  'x, y, z'
loop_
 _atom_site_type_symbol
 _atom_site_label
 _atom_site_symmetry_multiplicity
 _atom_site_fract_x
 _atom_site_fract_y
 _atom_site_fract_z
 _atom_site_occupancy
  Rb  Rb0  1  0.00000000  0.00000000  0.50000000  1
  Rb  Rb1  1  0.00000000  0.50000000  0.00000000  1
  Rb  Rb2  1  0.50000000  0.00000000  0.00000000  1
  Pt  Pt0  1  0.50000000  0.50000000  0.50000000  1
loop_
_geom_bond_atom_site_label_1
_geom_bond_atom_site_label_2
_geom_bond_distance
_geom_bond_site_symmetry_2
Rb0 Rb2 3.888232 1_455
Rb0 Rb1 3.888232 1_556
Rb0 Rb2 3.888232 1_456
Rb0 Rb2 3.888232 1_556
Rb0 Rb1 3.888232 1_545
Rb0 Rb1 3.888232 1_546
Rb0 Rb1 3.888232 1_555
Rb0 Rb2 3.888232 1_555
Rb1 Rb2 3.888232 1_455
Rb1 Rb2 3.888232 1_465
Rb1 Rb2 3.888232 1_555
Rb1 Rb2 3.888232 1_565
Pt0 Rb1 3.888232 1_556
Pt0 Rb0 3.888232 1_565
Pt0 Rb2 3.888232 1_566
Pt0 Rb0 3.888232 1_655
Pt0 Rb2 3.888232 1_556
Pt0 Rb1 3.888232 1_656
Pt0 Rb1 3.888232 1_655
Pt0 Rb0 3.888232 1_665
Pt0 Rb2 3.888232 1_555
Pt0 Rb1 3.888232 1_555
Pt0 Rb0 3.888232 1_555
Pt0 Rb2 3.888232 1_565
