# generated using pymatgen
data_Tm12(MnC3)5
_symmetry_space_group_name_H-M   'P 1'
_cell_length_a   4.93960014
_cell_length_b   10.33209331
_cell_length_c   10.33206140
_cell_angle_alpha   120.01654332
_cell_angle_beta   89.99999792
_cell_angle_gamma   89.99999544
_symmetry_Int_Tables_number   1
_chemical_formula_structural   Tm12(MnC3)5
_chemical_formula_sum   'Tm12 Mn5 C15'
_cell_volume   456.58885075
_cell_formula_units_Z   1
loop_
 _symmetry_equiv_pos_site_id
 _symmetry_equiv_pos_as_xyz
  1  'x, y, z'
loop_
 _atom_site_type_symbol
 _atom_site_label
 _atom_site_symmetry_multiplicity
 _atom_site_fract_x
 _atom_site_fract_y
 _atom_site_fract_z
 _atom_site_occupancy
  Tm  Tm0  1  0.49999996  0.20731038  0.20730452  1
  Tm  Tm1  1  0.49999998  0.00082749  0.79329351  1
  Tm  Tm2  1  0.49999995  0.79328808  0.00083112  1
  Tm  Tm3  1  -0.00000002  0.73105134  0.18581826  1
  Tm  Tm4  1  0.00000004  0.45421700  0.26881936  1
  Tm  Tm5  1  -0.00000004  0.54591698  0.81440746  1
  Tm  Tm6  1  0.00000006  0.81440817  0.54591608  1
  Tm  Tm7  1  0.00000001  0.18582588  0.73105918  1
  Tm  Tm8  1  -0.00000001  0.26881661  0.45422367  1
  Tm  Tm9  1  0.49999996  0.56808184  0.56808100  1
  Tm  Tm10  1  0.50000001  0.00069814  0.43075559  1
  Tm  Tm11  1  0.50000001  0.43076527  0.00070779  1
  Mn  Mn0  1  -0.00000012  0.84593435  0.84593319  1
  Mn  Mn1  1  -0.00000015  -0.00090991  0.15360651  1
  Mn  Mn2  1  -0.00000014  0.15360671  0.99909279  1
  Mn  Mn3  1  0.50000002  0.66683225  0.33371678  1
  Mn  Mn4  1  0.49999998  0.33370915  0.66682605  1
  C  C0  1  -0.00000005  0.67139247  0.67139015  1
  C  C1  1  0.00000001  0.00032452  0.32853316  1
  C  C2  1  0.00000008  0.32853398  0.00032704  1
  C  C3  1  -0.00000011  0.20701873  0.20702169  1
  C  C4  1  -0.00000002  0.00073766  0.79136902  1
  C  C5  1  -0.00000015  0.79137215  0.00073441  1
  C  C6  1  0.00000000  0.54060345  0.54061438  1
  C  C7  1  0.00000006  0.00015769  0.45923748  1
  C  C8  1  0.00000072  0.45922507  0.00013295  1
  C  C9  1  0.49999998  0.72004329  0.19599353  1
  C  C10  1  0.50000003  0.47548179  0.28028228  1
  C  C11  1  0.49999996  0.52429428  0.80414565  1
  C  C12  1  0.50000001  0.80415334  0.52429968  1
  C  C13  1  0.50000003  0.19600262  0.72004641  1
  C  C14  1  0.49999997  0.28028125  0.47548532  1
loop_
_geom_bond_atom_site_label_1
_geom_bond_atom_site_label_2
_geom_bond_distance
_geom_bond_site_symmetry_2
C0 C6 1.350916 1_555
C0 Mn0 1.802935 1_555
C0 Tm6 2.404312 1_555
C0 Tm5 2.404338 1_555
C0 Tm9 2.690483 1_555
C0 Tm9 2.690483 1_455
C1 C7 1.351308 1_555
C1 Mn1 1.801006 1_555
C1 Tm8 2.403680 1_555
C1 Tm3 2.410437 1_545
C1 Tm10 2.685394 1_455
C1 Tm10 2.685394 1_555
C2 C8 1.351317 1_555
C2 Mn2 1.801019 1_554
C2 Tm4 2.403677 1_555
C2 Tm7 2.410381 1_554
C2 Tm11 2.685416 1_555
C2 Tm11 2.685417 1_455
C3 Mn1 1.932279 1_555
C3 Mn2 1.932283 1_554
C3 Tm4 2.302041 1_555
C3 Tm8 2.302070 1_555
C3 Tm0 2.469802 1_455
C3 Tm0 2.469802 1_555
C4 Mn2 1.925973 1_555
C4 Mn0 1.943758 1_545
C4 Tm7 2.288578 1_555
C4 Tm6 2.291946 1_545
C4 Tm1 2.469877 1_455
C4 Tm1 2.469877 1_555
C5 Mn1 1.925943 1_565
C5 Mn0 1.943719 1_554
C5 Tm3 2.288608 1_555
C5 Tm5 2.291958 1_554
C5 Tm2 2.469875 1_455
C5 Tm2 2.469876 1_555
C6 Tm8 2.484860 1_555
C6 Tm4 2.484941 1_555
C6 Tm9 2.486049 1_555
C6 Tm9 2.486050 1_455
C7 Tm7 2.485411 1_555
C7 Tm10 2.487606 1_555
C7 Tm10 2.487607 1_455
C7 Tm6 2.490967 1_545
C8 Tm3 2.485488 1_555
C8 Tm11 2.487598 1_555
C8 Tm11 2.487605 1_455
C8 Tm5 2.490830 1_554
C9 Mn3 1.763463 1_555
C9 Tm3 2.477068 1_555
C9 Tm3 2.477068 1_655
C9 Tm2 2.483029 1_555
C9 Tm11 2.640211 1_555
C9 Tm10 2.693491 1_565
C10 Mn3 1.766771 1_555
C10 Tm4 2.477131 1_555
C10 Tm4 2.477131 1_655
C10 Tm0 2.481023 1_555
C10 Tm9 2.628882 1_555
C10 Tm11 2.687400 1_555
C11 Mn4 1.759345 1_555
C11 Tm5 2.477371 1_555
C11 Tm5 2.477371 1_655
C11 Tm2 2.490637 1_556
C11 Tm11 2.649885 1_556
C11 Tm9 2.693990 1_555
C12 Mn3 1.759330 1_555
C12 Tm6 2.477366 1_555
C12 Tm6 2.477367 1_655
C12 Tm1 2.490603 1_565
C12 Tm10 2.649835 1_565
C12 Tm9 2.694027 1_555
C13 Mn4 1.763368 1_555
C13 Tm7 2.477072 1_655
C13 Tm7 2.477072 1_555
C13 Tm1 2.483177 1_555
C13 Tm10 2.640343 1_555
C13 Tm11 2.693533 1_556
C14 Mn4 1.766684 1_555
C14 Tm8 2.477129 1_555
C14 Tm8 2.477129 1_655
C14 Tm0 2.481126 1_555
C14 Tm9 2.628919 1_555
C14 Tm10 2.687448 1_555
