# generated using pymatgen
data_LiEr4(HCl)4
_symmetry_space_group_name_H-M   'P 1'
_cell_length_a   18.84170201
_cell_length_b   18.84170201
_cell_length_c   18.84170219
_cell_angle_alpha   11.25645753
_cell_angle_beta   11.25645753
_cell_angle_gamma   11.25645501
_symmetry_Int_Tables_number   1
_chemical_formula_structural   LiEr4(HCl)4
_chemical_formula_sum   'Li1 Er4 H4 Cl4'
_cell_volume   221.43640742
_cell_formula_units_Z   1
loop_
 _symmetry_equiv_pos_site_id
 _symmetry_equiv_pos_as_xyz
  1  'x, y, z'
loop_
 _atom_site_type_symbol
 _atom_site_label
 _atom_site_symmetry_multiplicity
 _atom_site_fract_x
 _atom_site_fract_y
 _atom_site_fract_z
 _atom_site_occupancy
  Li  Li0  1  0.00000000  0.00000000  0.00000000  1
  Er  Er0  1  0.39313300  0.39313300  0.39313300  1
  Er  Er1  1  0.89137600  0.89137600  0.89137600  1
  Er  Er2  1  0.10862400  0.10862400  0.10862400  1
  Er  Er3  1  0.60686700  0.60686700  0.60686700  1
  H  H0  1  0.43178400  0.43178400  0.43178400  1
  H  H1  1  0.93185700  0.93185700  0.93185700  1
  H  H2  1  0.06814300  0.06814300  0.06814300  1
  H  H3  1  0.56821600  0.56821600  0.56821600  1
  Cl  Cl0  1  0.80506600  0.80506600  0.80506600  1
  Cl  Cl1  1  0.30741000  0.30741000  0.30741000  1
  Cl  Cl2  1  0.69259000  0.69259000  0.69259000  1
  Cl  Cl3  1  0.19493400  0.19493400  0.19493400  1
loop_
_geom_bond_atom_site_label_1
_geom_bond_atom_site_label_2
_geom_bond_distance
_geom_bond_site_symmetry_2
Er0 H0 2.170698 1_555
Er0 H2 2.184576 1_655
Er0 H2 2.184576 1_565
Er0 H2 2.184577 1_556
Er1 H3 2.208903 1_565
Er1 H3 2.208903 1_655
Er1 H3 2.208904 1_556
Er1 H1 2.273473 1_555
Er2 H0 2.208903 1_545
Er2 H0 2.208903 1_455
Er2 H0 2.208904 1_554
Er2 H2 2.273473 1_555
Er3 H3 2.170698 1_555
Er3 H1 2.184576 1_455
Er3 H1 2.184576 1_545
Er3 H1 2.184577 1_554
Cl0 Er2 2.710933 1_566
Cl0 Er2 2.710933 1_656
Cl0 Er2 2.710933 1_665
Cl1 Li0 2.583106 1_655
Cl1 Li0 2.583106 1_565
Cl1 Li0 2.583106 1_556
Cl1 Er3 2.858757 1_455
Cl1 Er3 2.858757 1_545
Cl1 Er3 2.858757 1_554
Cl2 Li0 2.583106 1_566
Cl2 Li0 2.583106 1_656
Cl2 Li0 2.583106 1_665
Cl2 Er0 2.858757 1_655
Cl2 Er0 2.858757 1_565
Cl2 Er0 2.858757 1_556
Cl3 Er1 2.710933 1_544
Cl3 Er1 2.710933 1_454
Cl3 Er1 2.710933 1_445
