# generated using pymatgen
data_Te6Mo3WS2
_symmetry_space_group_name_H-M   'P 1'
_cell_length_a   3.45043803
_cell_length_b   3.45043803
_cell_length_c   39.34102900
_cell_angle_alpha   90.00000000
_cell_angle_beta   90.00000000
_cell_angle_gamma   120.00000063
_symmetry_Int_Tables_number   1
_chemical_formula_structural   Te6Mo3WS2
_chemical_formula_sum   'Te6 Mo3 W1 S2'
_cell_volume   405.62508810
_cell_formula_units_Z   1
loop_
 _symmetry_equiv_pos_site_id
 _symmetry_equiv_pos_as_xyz
  1  'x, y, z'
loop_
 _atom_site_type_symbol
 _atom_site_label
 _atom_site_symmetry_multiplicity
 _atom_site_fract_x
 _atom_site_fract_y
 _atom_site_fract_z
 _atom_site_occupancy
  Te  Te0  1  0.33333300  0.66666700  0.32888500  1
  Te  Te1  1  0.66666700  0.33333300  0.04680900  1
  Te  Te2  1  0.66666700  0.33333300  0.42261200  1
  Te  Te3  1  0.66666700  0.33333300  0.14097900  1
  Te  Te4  1  0.66666700  0.33333300  0.51679600  1
  Te  Te5  1  0.33333300  0.66666700  0.23474300  1
  Mo  Mo0  1  0.33333300  0.66666700  0.09385600  1
  Mo  Mo1  1  0.33333300  0.66666700  0.46970400  1
  Mo  Mo2  1  0.66666700  0.33333300  0.28177200  1
  W  W0  1  0.66666700  0.33333300  0.65753000  1
  S  S0  1  0.33333300  0.66666700  0.69547800  1
  S  S1  1  0.33333300  0.66666700  0.61958300  1
loop_
_geom_bond_atom_site_label_1
_geom_bond_atom_site_label_2
_geom_bond_distance
_geom_bond_site_symmetry_2
Mo0 Te1 2.719236 1_455
Mo0 Te1 2.719236 1_565
Mo0 Te1 2.719241 1_555
Mo0 Te3 2.721272 1_455
Mo0 Te3 2.721272 1_565
Mo0 Te3 2.721277 1_555
Mo1 Te2 2.720442 1_455
Mo1 Te2 2.720442 1_565
Mo1 Te4 2.720442 1_565
Mo1 Te4 2.720442 1_455
Mo1 Te2 2.720446 1_555
Mo1 Te4 2.720446 1_555
Mo2 Te5 2.718754 1_545
Mo2 Te5 2.718754 1_655
Mo2 Te5 2.718759 1_555
Mo2 Te0 2.721004 1_655
Mo2 Te0 2.721004 1_545
Mo2 Te0 2.721009 1_555
S0 W0 2.489436 1_455
S0 W0 2.489436 1_565
S0 W0 2.489440 1_555
S1 W0 2.489412 1_455
S1 W0 2.489412 1_565
S1 W0 2.489417 1_555
