# generated using pymatgen
data_Na3YbSi2O7
_symmetry_space_group_name_H-M   'P 1'
_cell_length_a   9.54446598
_cell_length_b   9.54446598
_cell_length_c   13.96612700
_cell_angle_alpha   90.00000000
_cell_angle_beta   90.00000000
_cell_angle_gamma   119.99999987
_symmetry_Int_Tables_number   1
_chemical_formula_structural   Na3YbSi2O7
_chemical_formula_sum   'Na18 Yb6 Si12 O42'
_cell_volume   1101.81806328
_cell_formula_units_Z   6
loop_
 _symmetry_equiv_pos_site_id
 _symmetry_equiv_pos_as_xyz
  1  'x, y, z'
loop_
 _atom_site_type_symbol
 _atom_site_label
 _atom_site_symmetry_multiplicity
 _atom_site_fract_x
 _atom_site_fract_y
 _atom_site_fract_z
 _atom_site_occupancy
  Na  Na0  1  0.00000000  0.00000000  0.50000000  1
  Na  Na1  1  0.00000000  0.00000000  0.00000000  1
  Na  Na2  1  0.33333300  0.66666700  0.25000000  1
  Na  Na3  1  0.66666700  0.33333300  0.75000000  1
  Na  Na4  1  0.33333300  0.66666700  0.75000000  1
  Na  Na5  1  0.66666700  0.33333300  0.25000000  1
  Na  Na6  1  0.33661800  0.31807200  0.58415600  1
  Na  Na7  1  0.68192800  0.01854600  0.58415600  1
  Na  Na8  1  0.98145400  0.66338200  0.58415600  1
  Na  Na9  1  0.66338200  0.68192800  0.08415600  1
  Na  Na10  1  0.31807200  0.98145400  0.08415600  1
  Na  Na11  1  0.01854600  0.33661800  0.08415600  1
  Na  Na12  1  0.66338200  0.68192800  0.41584400  1
  Na  Na13  1  0.31807200  0.98145400  0.41584400  1
  Na  Na14  1  0.01854600  0.33661800  0.41584400  1
  Na  Na15  1  0.33661800  0.31807200  0.91584400  1
  Na  Na16  1  0.68192800  0.01854600  0.91584400  1
  Na  Na17  1  0.98145400  0.66338200  0.91584400  1
  Yb  Yb0  1  0.00000000  0.00000000  0.75000000  1
  Yb  Yb1  1  0.00000000  0.00000000  0.25000000  1
  Yb  Yb2  1  0.33333300  0.66666700  0.48032500  1
  Yb  Yb3  1  0.66666700  0.33333300  0.98032500  1
  Yb  Yb4  1  0.66666700  0.33333300  0.51967500  1
  Yb  Yb5  1  0.33333300  0.66666700  0.01967500  1
  Si  Si0  1  0.32714600  0.98141500  0.64171500  1
  Si  Si1  1  0.01858500  0.34573200  0.64171500  1
  Si  Si2  1  0.65426800  0.67285400  0.64171500  1
  Si  Si3  1  0.67285400  0.01858500  0.14171500  1
  Si  Si4  1  0.98141500  0.65426800  0.14171500  1
  Si  Si5  1  0.34573200  0.32714600  0.14171500  1
  Si  Si6  1  0.67285400  0.01858500  0.35828500  1
  Si  Si7  1  0.98141500  0.65426800  0.35828500  1
  Si  Si8  1  0.34573200  0.32714600  0.35828500  1
  Si  Si9  1  0.32714600  0.98141500  0.85828500  1
  Si  Si10  1  0.01858500  0.34573200  0.85828500  1
  Si  Si11  1  0.65426800  0.67285400  0.85828500  1
  O  O0  1  0.26741600  0.83407300  0.56421600  1
  O  O1  1  0.16592700  0.43334300  0.56421600  1
  O  O2  1  0.56665700  0.73258400  0.56421600  1
  O  O3  1  0.73258400  0.16592700  0.06421600  1
  O  O4  1  0.83407300  0.56665700  0.06421600  1
  O  O5  1  0.43334300  0.26741600  0.06421600  1
  O  O6  1  0.73258400  0.16592700  0.43578400  1
  O  O7  1  0.83407300  0.56665700  0.43578400  1
  O  O8  1  0.43334300  0.26741600  0.43578400  1
  O  O9  1  0.26741600  0.83407300  0.93578400  1
  O  O10  1  0.16592700  0.43334300  0.93578400  1
  O  O11  1  0.56665700  0.73258400  0.93578400  1
  O  O12  1  0.20493800  0.05485500  0.63734200  1
  O  O13  1  0.94514500  0.15008300  0.63734200  1
  O  O14  1  0.84991700  0.79506200  0.63734200  1
  O  O15  1  0.79506200  0.94514500  0.13734200  1
  O  O16  1  0.05485500  0.84991700  0.13734200  1
  O  O17  1  0.15008300  0.20493800  0.13734200  1
  O  O18  1  0.79506200  0.94514500  0.36265800  1
  O  O19  1  0.05485500  0.84991700  0.36265800  1
  O  O20  1  0.15008300  0.20493800  0.36265800  1
  O  O21  1  0.20493800  0.05485500  0.86265800  1
  O  O22  1  0.94514500  0.15008300  0.86265800  1
  O  O23  1  0.84991700  0.79506200  0.86265800  1
  O  O24  1  0.51456600  0.12062800  0.62417400  1
  O  O25  1  0.87937200  0.39393900  0.62417400  1
  O  O26  1  0.60606100  0.48543400  0.62417400  1
  O  O27  1  0.48543400  0.87937200  0.12417400  1
  O  O28  1  0.12062800  0.60606100  0.12417400  1
  O  O29  1  0.39393900  0.51456600  0.12417400  1
  O  O30  1  0.48543400  0.87937200  0.37582600  1
  O  O31  1  0.12062800  0.60606100  0.37582600  1
  O  O32  1  0.39393900  0.51456600  0.37582600  1
  O  O33  1  0.51456600  0.12062800  0.87582600  1
  O  O34  1  0.87937200  0.39393900  0.87582600  1
  O  O35  1  0.60606100  0.48543400  0.87582600  1
  O  O36  1  0.30977800  0.89533900  0.75000000  1
  O  O37  1  0.10466100  0.41443900  0.75000000  1
  O  O38  1  0.58556100  0.69022200  0.75000000  1
  O  O39  1  0.69022200  0.10466100  0.25000000  1
  O  O40  1  0.89533900  0.58556100  0.25000000  1
  O  O41  1  0.41443900  0.30977800  0.25000000  1
loop_
_geom_bond_atom_site_label_1
_geom_bond_atom_site_label_2
_geom_bond_distance
_geom_bond_site_symmetry_2
Na0 O13 2.599094 1_455
Na0 O19 2.599094 1_545
Na0 O12 2.599094 1_555
Na0 O18 2.599094 1_445
Na0 O14 2.599094 1_445
Na0 O20 2.599094 1_555
Na1 O22 2.599094 1_454
Na1 O16 2.599094 1_545
Na1 O15 2.599094 1_445
Na1 O21 2.599094 1_554
Na1 O23 2.599094 1_444
Na1 O17 2.599094 1_555
Na2 O31 2.523866 1_555
Na2 O28 2.523866 1_555
Na2 O30 2.523870 1_555
Na2 O27 2.523870 1_555
Na2 O32 2.523879 1_555
Na2 O29 2.523879 1_555
Na3 O25 2.523866 1_555
Na3 O34 2.523866 1_555
Na3 O33 2.523870 1_555
Na3 O24 2.523870 1_555
Na3 O26 2.523879 1_555
Na3 O35 2.523879 1_555
Na4 O36 2.303206 1_555
Na4 O37 2.303212 1_555
Na4 O38 2.303216 1_555
Na5 O39 2.303206 1_555
Na5 O40 2.303212 1_555
Na5 O41 2.303216 1_555
Na6 O12 2.298992 1_555
Na6 O26 2.317242 1_555
Na6 O1 2.394689 1_555
Na6 O8 2.413777 1_555
Na7 O13 2.298992 1_555
Na7 O24 2.317249 1_555
Na7 O2 2.394689 1_545
Na7 O6 2.413777 1_555
Na8 O14 2.298992 1_555
Na8 O25 2.317241 1_555
Na8 O0 2.394689 1_655
Na8 O7 2.413777 1_555
Na9 O15 2.298992 1_555
Na9 O29 2.317242 1_555
Na9 O4 2.394689 1_555
Na9 O11 2.413777 1_554
Na10 O16 2.298992 1_555
Na10 O27 2.317249 1_555
Na10 O5 2.394689 1_565
Na10 O9 2.413777 1_554
Na11 O17 2.298992 1_555
Na11 O28 2.317241 1_555
Na11 O3 2.394689 1_455
Na11 O10 2.413777 1_554
Na12 O18 2.298992 1_555
Na12 O32 2.317242 1_555
Na12 O7 2.394689 1_555
Na12 O2 2.413777 1_555
Na13 O19 2.298992 1_555
Na13 O30 2.317249 1_555
Na13 O8 2.394689 1_565
Na13 O0 2.413777 1_555
Na14 O20 2.298992 1_555
Na14 O31 2.317241 1_555
Na14 O6 2.394689 1_455
Na14 O1 2.413777 1_555
Na15 O21 2.298992 1_555
Na15 O35 2.317242 1_555
Na15 O10 2.394689 1_555
Na15 O5 2.413777 1_556
Na16 O22 2.298992 1_555
Na16 O33 2.317249 1_555
Na16 O11 2.394689 1_545
Na16 O3 2.413777 1_556
Na17 O23 2.298992 1_555
Na17 O34 2.317241 1_555
Na17 O9 2.394689 1_655
Na17 O4 2.413777 1_556
O0 Si0 1.634769 1_555
O0 Yb2 2.307976 1_555
O1 Si1 1.634769 1_555
O1 Yb2 2.307982 1_555
O2 Si2 1.634763 1_555
O2 Yb2 2.307984 1_555
O3 Si3 1.634769 1_555
O3 Yb3 2.307976 1_554
O4 Si4 1.634769 1_555
O4 Yb3 2.307982 1_554
O5 Si5 1.634763 1_555
O5 Yb3 2.307984 1_554
O6 Si6 1.634769 1_555
O6 Yb4 2.307976 1_555
O7 Si7 1.634769 1_555
O7 Yb4 2.307982 1_555
O8 Si8 1.634763 1_555
O8 Yb4 2.307984 1_555
O9 Si9 1.634769 1_555
O9 Yb5 2.307976 1_556
O10 Si10 1.634769 1_555
O10 Yb5 2.307982 1_556
O11 Si11 1.634763 1_555
O11 Yb5 2.307984 1_556
O12 Si0 1.634979 1_545
O12 Yb0 2.356188 1_555
O13 Si1 1.634988 1_655
O13 Yb0 2.356188 1_655
O14 Si2 1.634987 1_555
O14 Yb0 2.356188 1_665
O15 Si3 1.634979 1_565
O15 Yb1 2.356188 1_665
O16 Si4 1.634988 1_455
O16 Yb1 2.356188 1_565
O17 Si5 1.634987 1_555
O17 Yb1 2.356188 1_555
O18 Si6 1.634979 1_565
O18 Yb1 2.356188 1_665
O19 Si7 1.634988 1_455
O19 Yb1 2.356188 1_565
O20 Si8 1.634987 1_555
O20 Yb1 2.356188 1_555
O21 Si9 1.634979 1_545
O21 Yb0 2.356188 1_555
O22 Si10 1.634988 1_655
O22 Yb0 2.356188 1_655
O23 Si11 1.634987 1_555
O23 Yb0 2.356188 1_665
O24 Si0 1.627437 1_545
O24 Yb4 2.326326 1_555
O25 Si1 1.627437 1_655
O25 Yb4 2.326322 1_555
O26 Si2 1.627437 1_555
O26 Yb4 2.326336 1_555
O27 Si3 1.627437 1_565
O27 Yb5 2.326326 1_555
O28 Si4 1.627437 1_455
O28 Yb5 2.326322 1_555
O29 Si5 1.627437 1_555
O29 Yb5 2.326336 1_555
O30 Si6 1.627437 1_565
O30 Yb2 2.326326 1_555
O31 Si7 1.627437 1_455
O31 Yb2 2.326322 1_555
O32 Si8 1.627437 1_555
O32 Yb2 2.326336 1_555
O33 Si9 1.627437 1_545
O33 Yb3 2.326326 1_555
O34 Si10 1.627437 1_655
O34 Yb3 2.326322 1_555
O35 Si11 1.627437 1_555
O35 Yb3 2.326336 1_555
O36 Si0 1.689187 1_555
O36 Si9 1.689187 1_555
O37 Si1 1.689186 1_555
O37 Si10 1.689186 1_555
O38 Si11 1.689183 1_555
O38 Si2 1.689183 1_555
O39 Si3 1.689187 1_555
O39 Si6 1.689187 1_555
O40 Si4 1.689186 1_555
O40 Si7 1.689186 1_555
O41 Si8 1.689183 1_555
O41 Si5 1.689183 1_555
