# generated using pymatgen
data_Li7Mn2(CoO4)3
_symmetry_space_group_name_H-M   'P 1'
_cell_length_a   2.94999300
_cell_length_b   7.77417113
_cell_length_c   10.15541096
_cell_angle_alpha   110.34609618
_cell_angle_beta   91.19971852
_cell_angle_gamma   98.10765065
_symmetry_Int_Tables_number   1
_chemical_formula_structural   Li7Mn2(CoO4)3
_chemical_formula_sum   'Li7 Mn2 Co3 O12'
_cell_volume   215.57302786
_cell_formula_units_Z   1
loop_
 _symmetry_equiv_pos_site_id
 _symmetry_equiv_pos_as_xyz
  1  'x, y, z'
loop_
 _atom_site_type_symbol
 _atom_site_label
 _atom_site_symmetry_multiplicity
 _atom_site_fract_x
 _atom_site_fract_y
 _atom_site_fract_z
 _atom_site_occupancy
  Li  Li0  1  0.16318200  0.33047400  0.91587800  1
  Li  Li1  1  0.83345200  0.66379600  0.57210300  1
  Li  Li2  1  0.48204300  0.99683400  0.25836500  1
  Li  Li3  1  0.84378100  0.67310100  0.08964700  1
  Li  Li4  1  0.50042300  0.00018000  0.74498800  1
  Li  Li5  1  0.17812600  0.34461500  0.41651200  1
  Li  Li6  1  0.31841600  0.66270700  0.34033800  1
  Mn  Mn0  1  0.00421100  0.99882000  0.00055100  1
  Mn  Mn1  1  0.67831400  0.34505900  0.17257700  1
  Co  Co0  1  0.66129400  0.32919800  0.65942200  1
  Co  Co1  1  0.33341400  0.66219200  0.83203800  1
  Co  Co2  1  0.99254600  0.98707700  0.49331700  1
  O  O0  1  0.62587000  0.16723300  0.96838200  1
  O  O1  1  0.24056400  0.49442000  0.63017300  1
  O  O2  1  0.92952400  0.85676600  0.31240300  1
  O  O3  1  0.22825800  0.48283100  0.13100900  1
  O  O4  1  0.91664100  0.82454400  0.80078600  1
  O  O5  1  0.61534300  0.15994800  0.46745700  1
  O  O6  1  0.73800200  0.50228700  0.86656800  1
  O  O7  1  0.39344400  0.84858900  0.53963200  1
  O  O8  1  0.11828300  0.18455100  0.19701700  1
  O  O9  1  0.38588700  0.83727400  0.04069400  1
  O  O10  1  0.08140600  0.16183700  0.68957600  1
  O  O11  1  0.73757700  0.48566700  0.36056500  1
loop_
_geom_bond_atom_site_label_1
_geom_bond_atom_site_label_2
_geom_bond_distance
_geom_bond_site_symmetry_2
Li0 O3 2.081281 1_556
Li0 O0 2.084658 1_455
Li0 O6 2.125902 1_455
Li0 O0 2.164833 1_555
Li0 O6 2.184519 1_555
Li0 O10 2.202511 1_555
Li1 O11 2.099539 1_555
Li1 O1 2.116685 1_655
Li1 O7 2.141128 1_655
Li1 O7 2.166780 1_555
Li1 O4 2.210614 1_555
Li1 O1 2.252608 1_555
Li2 O2 2.005023 1_555
Li2 O2 2.023838 1_455
Li2 O5 2.055117 1_565
Li2 O9 2.115035 1_555
Li2 O8 2.171476 1_565
Li2 O8 2.439099 1_665
Li3 O9 2.081434 1_655
Li3 O3 2.129837 1_655
Li3 O9 2.144788 1_555
Li3 O6 2.180513 1_554
Li3 O2 2.201870 1_555
Li3 O3 2.316880 1_555
Li4 O7 1.999033 1_545
Li4 O10 2.079629 1_555
Li4 O4 2.162141 1_545
Li4 O0 2.179646 1_555
Li4 O10 2.181316 1_655
Li4 O4 2.250980 1_445
Li5 O11 2.004635 1_455
Li5 O11 2.052082 1_555
Li5 O1 2.064917 1_555
Li5 O8 2.130977 1_555
Li5 O5 2.228265 1_455
Li5 O5 2.236762 1_555
Li6 O7 2.022548 1_555
Li6 O11 2.032608 1_555
Li6 O3 2.085567 1_555
Li6 O11 2.102051 1_455
Li6 O2 2.108272 1_455
Li6 O2 2.271199 1_555
Mn0 O9 1.935678 1_555
Mn0 O0 1.939316 1_464
Mn0 O4 1.996493 1_454
Mn0 O8 2.002605 1_565
Mn0 O9 2.193539 1_455
Mn0 O0 2.197574 1_564
Mn1 O11 1.830591 1_555
Mn1 O3 1.944249 1_555
Mn1 O3 1.951998 1_655
Mn1 O8 1.990453 1_655
Mn1 O8 1.999774 1_555
Mn1 O0 2.041572 1_554
Co0 O5 1.924850 1_555
Co0 O1 1.994512 1_555
Co0 O10 2.009613 1_655
Co0 O6 2.052562 1_555
Co0 O1 2.079823 1_655
Co0 O10 2.093844 1_555
Co1 O6 1.948581 1_555
Co1 O4 1.976181 1_455
Co1 O1 1.998794 1_555
Co1 O9 2.070733 1_556
Co1 O4 2.083945 1_555
Co1 O6 2.113415 1_455
Co2 O2 1.753471 1_555
Co2 O7 1.861988 1_655
Co2 O5 1.941218 1_565
Co2 O10 1.970189 1_665
Co2 O7 2.086649 1_555
Co2 O5 2.195396 1_665
