# generated using pymatgen
data_CaTiP2O7
_symmetry_space_group_name_H-M   'P 1'
_cell_length_a   6.24229000
_cell_length_b   6.68401984
_cell_length_c   7.25929927
_cell_angle_alpha   84.32999496
_cell_angle_beta   87.69389155
_cell_angle_gamma   68.03294538
_symmetry_Int_Tables_number   1
_chemical_formula_structural   CaTiP2O7
_chemical_formula_sum   'Ca2 Ti2 P4 O14'
_cell_volume   279.51831422
_cell_formula_units_Z   2
loop_
 _symmetry_equiv_pos_site_id
 _symmetry_equiv_pos_as_xyz
  1  'x, y, z'
loop_
 _atom_site_type_symbol
 _atom_site_label
 _atom_site_symmetry_multiplicity
 _atom_site_fract_x
 _atom_site_fract_y
 _atom_site_fract_z
 _atom_site_occupancy
  Ca  Ca0  1  0.29370700  0.71370900  0.63443300  1
  Ca  Ca1  1  0.70629300  0.28629100  0.36556700  1
  Ti  Ti0  1  0.26804900  0.12755400  0.17145800  1
  Ti  Ti1  1  0.73195100  0.87244600  0.82854200  1
  P  P0  1  0.16842900  0.65758800  0.12141500  1
  P  P1  1  0.83157100  0.34241200  0.87858500  1
  P  P2  1  0.23758300  0.21836500  0.61222300  1
  P  P3  1  0.76241700  0.78163500  0.38777700  1
  O  O0  1  0.08031500  0.73208000  0.92024200  1
  O  O1  1  0.91968500  0.26792000  0.07975800  1
  O  O2  1  0.24926800  0.81483600  0.20722100  1
  O  O3  1  0.75073200  0.18516400  0.79277900  1
  O  O4  1  0.33823700  0.42064800  0.14074300  1
  O  O5  1  0.66176300  0.57935200  0.85925700  1
  O  O6  1  0.63704300  0.63077600  0.45238500  1
  O  O7  1  0.36295700  0.36922400  0.54761500  1
  O  O8  1  0.10498400  0.16824500  0.45981200  1
  O  O9  1  0.89501600  0.83175500  0.54018800  1
  O  O10  1  0.05831300  0.35035300  0.76291700  1
  O  O11  1  0.60633600  0.99807400  0.28631500  1
  O  O12  1  0.39366400  0.00192600  0.71368500  1
  O  O13  1  0.94168700  0.64964700  0.23708300  1
loop_
_geom_bond_atom_site_label_1
_geom_bond_atom_site_label_2
_geom_bond_distance
_geom_bond_site_symmetry_2
Ca0 O7 2.325066 1_555
Ca0 O12 2.361927 1_565
Ca0 O6 2.382238 1_555
Ca0 O0 2.408254 1_555
Ca0 O9 2.417791 1_455
Ca0 O5 2.686485 1_555
Ca1 O6 2.325066 1_555
Ca1 O11 2.361927 1_545
Ca1 O7 2.382238 1_555
Ca1 O1 2.408254 1_555
Ca1 O8 2.417791 1_655
Ca1 O4 2.686485 1_555
O0 P0 1.548940 1_556
O0 Ti1 2.125772 1_455
O1 P1 1.548940 1_554
O1 Ti0 2.125772 1_655
O2 P0 1.516180 1_555
O2 Ti0 2.126921 1_565
O3 P1 1.516180 1_555
O3 Ti1 2.126921 1_545
O4 P0 1.537381 1_555
O4 Ti0 2.151166 1_555
O5 P1 1.537381 1_555
O5 Ti1 2.151166 1_555
O6 P3 1.522050 1_555
O7 P2 1.522050 1_555
O8 P2 1.541381 1_555
O8 Ti0 2.285974 1_555
O9 P3 1.541381 1_555
O9 Ti1 2.285974 1_555
O10 P2 1.606502 1_555
O10 P1 1.631853 1_455
O11 P3 1.541861 1_555
O11 Ti0 2.129610 1_565
O12 P2 1.541861 1_555
O12 Ti1 2.129610 1_545
O13 P3 1.606502 1_555
O13 P0 1.631853 1_655
