# generated using pymatgen
data_Li3MnCoO5
_symmetry_space_group_name_H-M   'P 1'
_cell_length_a   5.04870300
_cell_length_b   5.87715658
_cell_length_c   6.62028848
_cell_angle_alpha   103.42196109
_cell_angle_beta   97.75424439
_cell_angle_gamma   106.86764982
_symmetry_Int_Tables_number   1
_chemical_formula_structural   Li3MnCoO5
_chemical_formula_sum   'Li6 Mn2 Co2 O10'
_cell_volume   178.48213512
_cell_formula_units_Z   2
loop_
 _symmetry_equiv_pos_site_id
 _symmetry_equiv_pos_as_xyz
  1  'x, y, z'
loop_
 _atom_site_type_symbol
 _atom_site_label
 _atom_site_symmetry_multiplicity
 _atom_site_fract_x
 _atom_site_fract_y
 _atom_site_fract_z
 _atom_site_occupancy
  Li  Li0  1  0.20919700  0.90057100  0.39063400  1
  Li  Li1  1  0.99772200  0.49721500  0.00144500  1
  Li  Li2  1  0.40251200  0.30036700  0.80652900  1
  Li  Li3  1  0.59657600  0.70315700  0.20282100  1
  Li  Li4  1  0.79452200  0.10182900  0.59602100  1
  Li  Li5  1  0.59846200  0.19692200  0.19922900  1
  Mn  Mn0  1  0.00457300  0.00118500  0.00550900  1
  Mn  Mn1  1  0.79807600  0.59920100  0.59707700  1
  Co  Co0  1  0.40623400  0.81048900  0.80924900  1
  Co  Co1  1  0.19691800  0.39405200  0.39178600  1
  O  O0  1  0.28031600  0.85494100  0.08540500  1
  O  O1  1  0.09373600  0.47216400  0.69176400  1
  O  O2  1  0.50436600  0.28439500  0.50832900  1
  O  O3  1  0.71434500  0.66264700  0.88869100  1
  O  O4  1  0.91622000  0.04854300  0.27921900  1
  O  O5  1  0.08428600  0.93676300  0.71494000  1
  O  O6  1  0.91356300  0.54982900  0.33088700  1
  O  O7  1  0.27177400  0.32779800  0.09590500  1
  O  O8  1  0.51638300  0.73718100  0.50580500  1
  O  O9  1  0.70022100  0.12075300  0.89875400  1
loop_
_geom_bond_atom_site_label_1
_geom_bond_atom_site_label_2
_geom_bond_distance
_geom_bond_site_symmetry_2
Li0 O4 2.058672 1_465
Li0 O0 2.069826 1_555
Li0 O6 2.076080 1_455
Li0 O8 2.189475 1_555
Li0 O2 2.199166 1_565
Li0 O5 2.298643 1_555
Li1 O7 2.037619 1_655
Li1 O0 2.065773 1_655
Li1 O3 2.098895 1_554
Li1 O1 2.151593 1_654
Li1 O9 2.170499 1_554
Li1 O6 2.246362 1_555
Li2 O2 2.094402 1_555
Li2 O7 2.095560 1_556
Li2 O3 2.143319 1_555
Li2 O5 2.158393 1_545
Li2 O9 2.172232 1_555
Li2 O1 2.230894 1_555
Li3 O8 2.075386 1_555
Li3 O4 2.093480 1_565
Li3 O0 2.182439 1_555
Li3 O6 2.217546 1_555
Li3 O7 2.217931 1_555
Li3 O3 2.218341 1_554
Li4 O8 2.086740 1_545
Li4 O9 2.107252 1_555
Li4 O5 2.137402 1_645
Li4 O2 2.146184 1_555
Li4 O1 2.148050 1_655
Li4 O4 2.242502 1_555
Li5 O0 2.069831 1_545
Li5 O4 2.100374 1_555
Li5 O9 2.101717 1_554
Li5 O7 2.110908 1_555
Li5 O6 2.112846 1_555
Li5 O2 2.143157 1_555
Mn0 O7 1.899677 1_555
Mn0 O4 1.901567 1_455
Mn0 O0 1.913977 1_545
Mn0 O9 1.979529 1_454
Mn0 O5 1.991221 1_544
Mn0 O3 1.997951 1_444
Mn1 O2 1.906642 1_555
Mn1 O6 1.915139 1_555
Mn1 O8 1.926187 1_555
Mn1 O1 1.946809 1_655
Mn1 O5 1.986501 1_655
Mn1 O3 2.005579 1_555
Co0 O9 1.889334 1_565
Co0 O0 2.000777 1_556
Co0 O1 2.044057 1_555
Co0 O5 2.055201 1_555
Co0 O3 2.055990 1_555
Co0 O8 2.137571 1_555
Co1 O6 1.955265 1_455
Co1 O2 1.976916 1_555
Co1 O4 2.007381 1_455
Co1 O7 2.015561 1_555
Co1 O8 2.077302 1_555
Co1 O1 2.102568 1_555
