# generated using pymatgen
data_KMg6CO8
_symmetry_space_group_name_H-M   'P 1'
_cell_length_a   4.80663400
_cell_length_b   4.80663400
_cell_length_c   7.87747800
_cell_angle_alpha   90.00000000
_cell_angle_beta   90.00000000
_cell_angle_gamma   90.00000000
_symmetry_Int_Tables_number   1
_chemical_formula_structural   KMg6CO8
_chemical_formula_sum   'K1 Mg6 C1 O8'
_cell_volume   181.99912802
_cell_formula_units_Z   1
loop_
 _symmetry_equiv_pos_site_id
 _symmetry_equiv_pos_as_xyz
  1  'x, y, z'
loop_
 _atom_site_type_symbol
 _atom_site_label
 _atom_site_symmetry_multiplicity
 _atom_site_fract_x
 _atom_site_fract_y
 _atom_site_fract_z
 _atom_site_occupancy
  K  K0  1  0.00000000  0.00000000  0.00000000  1
  Mg  Mg0  1  0.50000000  0.50000000  0.00000000  1
  Mg  Mg1  1  0.50000000  0.50000000  0.50000000  1
  Mg  Mg2  1  0.00000000  0.50000000  0.25631900  1
  Mg  Mg3  1  0.00000000  0.50000000  0.74368100  1
  Mg  Mg4  1  0.50000000  0.00000000  0.25631900  1
  Mg  Mg5  1  0.50000000  0.00000000  0.74368100  1
  C  C0  1  0.00000000  0.00000000  0.50000000  1
  O  O0  1  0.00000000  0.00000000  0.33680900  1
  O  O1  1  0.00000000  0.00000000  0.66319100  1
  O  O2  1  0.50000000  0.50000000  0.24966100  1
  O  O3  1  0.50000000  0.50000000  0.75033900  1
  O  O4  1  0.00000000  0.50000000  0.00000000  1
  O  O5  1  0.00000000  0.50000000  0.50000000  1
  O  O6  1  0.50000000  0.00000000  0.00000000  1
  O  O7  1  0.50000000  0.00000000  0.50000000  1
loop_
_geom_bond_atom_site_label_1
_geom_bond_atom_site_label_2
_geom_bond_distance
_geom_bond_site_symmetry_2
K0 O4 2.403317 1_555
K0 O6 2.403317 1_455
K0 O4 2.403317 1_545
K0 O6 2.403317 1_555
K0 O1 2.653205 1_554
K0 O0 2.653205 1_555
Mg0 O2 1.966699 1_555
Mg0 O3 1.966699 1_554
Mg0 O6 2.403317 1_565
Mg0 O4 2.403317 1_555
Mg0 O4 2.403317 1_655
Mg0 O6 2.403317 1_555
Mg1 O3 1.972040 1_555
Mg1 O2 1.972040 1_555
Mg1 O7 2.403317 1_555
Mg1 O5 2.403317 1_555
Mg1 O5 2.403317 1_655
Mg1 O7 2.403317 1_565
Mg2 O5 1.919592 1_555
Mg2 O4 2.019147 1_555
Mg2 O2 2.403889 1_455
Mg2 O2 2.403889 1_555
Mg2 O0 2.485551 1_565
Mg2 O0 2.485551 1_555
Mg3 O5 1.919592 1_555
Mg3 O4 2.019147 1_556
Mg3 O3 2.403889 1_555
Mg3 O3 2.403889 1_455
Mg3 O1 2.485551 1_555
Mg3 O1 2.485551 1_565
Mg4 O7 1.919592 1_555
Mg4 O6 2.019147 1_555
Mg4 O2 2.403889 1_555
Mg4 O2 2.403889 1_545
Mg4 O0 2.485551 1_555
Mg4 O0 2.485551 1_655
Mg5 O7 1.919592 1_555
Mg5 O6 2.019147 1_556
Mg5 O3 2.403889 1_555
Mg5 O3 2.403889 1_545
Mg5 O1 2.485551 1_555
Mg5 O1 2.485551 1_655
C0 O0 1.285534 1_555
C0 O1 1.285534 1_555
