# generated using pymatgen
data_Nb2Zn2NiO8
_symmetry_space_group_name_H-M   'P 1'
_cell_length_a   10.09959759
_cell_length_b   10.09959759
_cell_length_c   5.25844700
_cell_angle_alpha   89.67078171
_cell_angle_beta   89.67078171
_cell_angle_gamma   34.15230613
_symmetry_Int_Tables_number   1
_chemical_formula_structural   Nb2Zn2NiO8
_chemical_formula_sum   'Nb4 Zn4 Ni2 O16'
_cell_volume   301.11064567
_cell_formula_units_Z   2
loop_
 _symmetry_equiv_pos_site_id
 _symmetry_equiv_pos_as_xyz
  1  'x, y, z'
loop_
 _atom_site_type_symbol
 _atom_site_label
 _atom_site_symmetry_multiplicity
 _atom_site_fract_x
 _atom_site_fract_y
 _atom_site_fract_z
 _atom_site_occupancy
  Nb  Nb0  1  0.72508800  0.04914000  0.76349700  1
  Nb  Nb1  1  0.95086000  0.27491200  0.73650300  1
  Nb  Nb2  1  0.27491200  0.95086000  0.23650300  1
  Nb  Nb3  1  0.04914000  0.72508800  0.26349700  1
  Zn  Zn0  1  0.57000100  0.87355800  0.73573600  1
  Zn  Zn1  1  0.12644200  0.42999900  0.76426400  1
  Zn  Zn2  1  0.42999900  0.12644200  0.26426400  1
  Zn  Zn3  1  0.87355800  0.57000100  0.23573600  1
  Ni  Ni0  1  0.35933500  0.64066500  0.75000000  1
  Ni  Ni1  1  0.64066500  0.35933500  0.25000000  1
  O  O0  1  0.81747900  0.04600700  0.42245400  1
  O  O1  1  0.95399300  0.18252100  0.07754600  1
  O  O2  1  0.18252100  0.95399300  0.57754600  1
  O  O3  1  0.04600700  0.81747900  0.92245400  1
  O  O4  1  0.56827800  0.31911900  0.91314300  1
  O  O5  1  0.68088100  0.43172200  0.58685700  1
  O  O6  1  0.43172200  0.68088100  0.08685700  1
  O  O7  1  0.31911900  0.56827800  0.41314300  1
  O  O8  1  0.71661400  0.92731000  0.05909500  1
  O  O9  1  0.07269000  0.28338600  0.44090500  1
  O  O10  1  0.15874800  0.45446800  0.13387000  1
  O  O11  1  0.54553200  0.84125200  0.36613000  1
  O  O12  1  0.84125200  0.54553200  0.86613000  1
  O  O13  1  0.45446800  0.15874800  0.63387000  1
  O  O14  1  0.92731000  0.71661400  0.55909500  1
  O  O15  1  0.28338600  0.07269000  0.94090500  1
loop_
_geom_bond_atom_site_label_1
_geom_bond_atom_site_label_2
_geom_bond_distance
_geom_bond_site_symmetry_2
Nb0 O4 1.850760 1_555
Nb0 O0 2.005089 1_555
Nb0 O8 2.021928 1_546
Nb0 O3 2.033587 1_645
Nb0 O13 2.040904 1_555
Nb0 O14 2.295460 1_545
Nb1 O5 1.850760 1_555
Nb1 O1 2.005089 1_556
Nb1 O9 2.021928 1_655
Nb1 O2 2.033587 1_645
Nb1 O12 2.040904 1_555
Nb1 O15 2.295460 1_655
Nb2 O6 1.850760 1_555
Nb2 O2 2.005089 1_555
Nb2 O15 2.021928 1_564
Nb2 O1 2.033587 1_465
Nb2 O11 2.040904 1_555
Nb2 O9 2.295460 1_565
Nb3 O7 1.850760 1_555
Nb3 O3 2.005089 1_554
Nb3 O14 2.021928 1_455
Nb3 O0 2.033587 1_465
Nb3 O10 2.040904 1_555
Nb3 O8 2.295460 1_455
Ni0 O6 2.086078 1_556
Ni0 O7 2.086078 1_555
Ni0 O5 2.093248 1_555
Ni0 O4 2.093248 1_555
Ni0 O2 2.158228 1_555
Ni0 O3 2.158228 1_555
Ni1 O5 2.086078 1_555
Ni1 O4 2.086078 1_554
Ni1 O6 2.093248 1_555
Ni1 O7 2.093248 1_555
Ni1 O1 2.158228 1_555
Ni1 O0 2.158228 1_555
O8 Zn2 1.985339 1_565
O9 Zn3 1.985339 1_455
O10 Zn2 1.981089 1_555
O10 Zn1 2.022669 1_554
O10 Zn3 2.090818 1_455
O11 Zn3 1.981089 1_555
O11 Zn0 2.022669 1_555
O11 Zn2 2.090818 1_565
O12 Zn0 1.981089 1_555
O12 Zn3 2.022669 1_556
O12 Zn1 2.090818 1_655
O13 Zn1 1.981089 1_555
O13 Zn2 2.022669 1_555
O13 Zn0 2.090818 1_545
O14 Zn1 1.985339 1_655
O15 Zn0 1.985339 1_545
