# generated using pymatgen
data_Hg2Se2O7
_symmetry_space_group_name_H-M   'P 1'
_cell_length_a   13.22198700
_cell_length_b   5.19106300
_cell_length_c   11.77893848
_cell_angle_alpha   86.18848619
_cell_angle_beta   90.00000000
_cell_angle_gamma   90.00000000
_symmetry_Int_Tables_number   1
_chemical_formula_structural   Hg2Se2O7
_chemical_formula_sum   'Hg8 Se8 O28'
_cell_volume   806.67298349
_cell_formula_units_Z   4
loop_
 _symmetry_equiv_pos_site_id
 _symmetry_equiv_pos_as_xyz
  1  'x, y, z'
loop_
 _atom_site_type_symbol
 _atom_site_label
 _atom_site_symmetry_multiplicity
 _atom_site_fract_x
 _atom_site_fract_y
 _atom_site_fract_z
 _atom_site_occupancy
  Hg  Hg0  1  0.02233100  0.74986400  0.36459000  1
  Hg  Hg1  1  0.52233100  0.25013600  0.13541000  1
  Hg  Hg2  1  0.97766900  0.25013600  0.63541000  1
  Hg  Hg3  1  0.47766900  0.74986400  0.86459000  1
  Hg  Hg4  1  0.19368000  0.27951300  0.23297700  1
  Hg  Hg5  1  0.69368000  0.72048700  0.26702300  1
  Hg  Hg6  1  0.80632000  0.72048700  0.76702300  1
  Hg  Hg7  1  0.30632000  0.27951300  0.73297700  1
  Se  Se0  1  0.13890000  0.77880400  0.60854500  1
  Se  Se1  1  0.63890000  0.22119600  0.89145500  1
  Se  Se2  1  0.86110000  0.22119600  0.39145500  1
  Se  Se3  1  0.36110000  0.77880400  0.10854500  1
  Se  Se4  1  0.06536200  0.73077200  0.09317800  1
  Se  Se5  1  0.56536200  0.26922800  0.40682200  1
  Se  Se6  1  0.93463800  0.26922800  0.90682200  1
  Se  Se7  1  0.43463800  0.73077200  0.59317800  1
  O  O0  1  0.00976800  0.73114300  0.60900800  1
  O  O1  1  0.50976800  0.26885700  0.89099200  1
  O  O2  1  0.99023200  0.26885700  0.39099200  1
  O  O3  1  0.49023200  0.73114300  0.10900800  1
  O  O4  1  0.14375600  0.10781700  0.62258000  1
  O  O5  1  0.64375600  0.89218300  0.87742000  1
  O  O6  1  0.85624400  0.89218300  0.37742000  1
  O  O7  1  0.35624400  0.10781700  0.12258000  1
  O  O8  1  0.16439900  0.75077200  0.46361400  1
  O  O9  1  0.66439900  0.24922800  0.03638600  1
  O  O10  1  0.83560100  0.24922800  0.53638600  1
  O  O11  1  0.33560100  0.75077200  0.96361400  1
  O  O12  1  0.96086900  0.71266200  0.17998200  1
  O  O13  1  0.46086900  0.28733800  0.32001800  1
  O  O14  1  0.03913100  0.28733800  0.82001800  1
  O  O15  1  0.53913100  0.71266200  0.67998200  1
  O  O16  1  0.10713300  0.40810500  0.09019000  1
  O  O17  1  0.60713300  0.59189500  0.40981000  1
  O  O18  1  0.89286700  0.59189500  0.90981000  1
  O  O19  1  0.39286700  0.40810500  0.59019000  1
  O  O20  1  0.15112700  0.82842900  0.19236100  1
  O  O21  1  0.65112700  0.17157100  0.30763900  1
  O  O22  1  0.84887300  0.17157100  0.80763900  1
  O  O23  1  0.34887300  0.82842900  0.69236100  1
  O  O24  1  0.26722300  0.21828100  0.38587000  1
  O  O25  1  0.76722300  0.78171900  0.11413000  1
  O  O26  1  0.73277700  0.78171900  0.61413000  1
  O  O27  1  0.23277700  0.21828100  0.88587000  1
loop_
_geom_bond_atom_site_label_1
_geom_bond_atom_site_label_2
_geom_bond_distance
_geom_bond_site_symmetry_2
Hg0 O8 2.211267 1_555
Hg0 O6 2.325060 1_455
Hg0 O12 2.341349 1_455
Hg0 O2 2.531462 1_455
Hg0 O20 2.659296 1_555
Hg1 O9 2.211267 1_555
Hg1 O7 2.325060 1_555
Hg1 O13 2.341349 1_555
Hg1 O3 2.531462 1_555
Hg1 O21 2.659296 1_555
Hg2 O10 2.211267 1_555
Hg2 O4 2.325060 1_655
Hg2 O14 2.341349 1_655
Hg2 O0 2.531462 1_655
Hg2 O22 2.659296 1_555
Hg3 O11 2.211267 1_555
Hg3 O5 2.325060 1_555
Hg3 O15 2.341349 1_555
Hg3 O1 2.531462 1_555
Hg3 O23 2.659296 1_555
Hg4 O24 2.052746 1_555
Hg4 O16 2.105832 1_555
Hg4 O20 2.485456 1_545
Hg4 O7 2.694330 1_555
Hg5 O25 2.052746 1_555
Hg5 O17 2.105832 1_555
Hg5 O21 2.485456 1_565
Hg5 O6 2.694330 1_555
Hg6 O26 2.052746 1_555
Hg6 O18 2.105832 1_555
Hg6 O22 2.485456 1_565
Hg6 O5 2.694330 1_555
Hg7 O27 2.052746 1_555
Hg7 O19 2.105832 1_555
Hg7 O23 2.485456 1_545
Hg7 O4 2.694330 1_555
O0 Se0 1.725171 1_555
O1 Se1 1.725171 1_555
O2 Se2 1.725171 1_555
O3 Se3 1.725171 1_555
O4 Se0 1.728006 1_545
O5 Se1 1.728006 1_565
O6 Se2 1.728006 1_565
O7 Se3 1.728006 1_545
O8 Se0 1.755612 1_555
O9 Se1 1.755612 1_554
O10 Se2 1.755612 1_555
O11 Se3 1.755612 1_556
O12 Se4 1.717648 1_655
O13 Se5 1.717648 1_555
O14 Se6 1.717648 1_455
O15 Se7 1.717648 1_555
O16 Se4 1.766262 1_555
O17 Se5 1.766262 1_555
O18 Se6 1.766262 1_555
O19 Se7 1.766262 1_555
O20 Se4 1.728151 1_555
O21 Se5 1.728151 1_555
O22 Se6 1.728151 1_555
O23 Se7 1.728151 1_555
