# generated using pymatgen
data_Ba2YCu3PbO7
_symmetry_space_group_name_H-M   'P 1'
_cell_length_a   14.53451165
_cell_length_b   14.53451165
_cell_length_c   3.90516777
_cell_angle_alpha   83.01371135
_cell_angle_beta   83.01371135
_cell_angle_gamma   15.35656404
_symmetry_Int_Tables_number   1
_chemical_formula_structural   Ba2YCu3PbO7
_chemical_formula_sum   'Ba2 Y1 Cu3 Pb1 O7'
_cell_volume   216.82233151
_cell_formula_units_Z   1
loop_
 _symmetry_equiv_pos_site_id
 _symmetry_equiv_pos_as_xyz
  1  'x, y, z'
loop_
 _atom_site_type_symbol
 _atom_site_label
 _atom_site_symmetry_multiplicity
 _atom_site_fract_x
 _atom_site_fract_y
 _atom_site_fract_z
 _atom_site_occupancy
  Ba  Ba0  1  0.42957500  0.42957500  0.56988100  1
  Ba  Ba1  1  0.68917800  0.68917800  0.31881800  1
  Y  Y0  1  0.55888300  0.55888300  0.44076500  1
  Cu  Cu0  1  0.84752900  0.84752900  0.18176200  1
  Cu  Cu1  1  0.00121500  0.00121500  0.99801400  1
  Cu  Cu2  1  0.11642500  0.11642500  0.88450900  1
  Pb  Pb0  1  0.28652700  0.28652700  0.71513000  1
  O  O0  1  0.00781200  0.00781200  0.49202500  1
  O  O1  1  0.50797200  0.50797200  0.99055400  1
  O  O2  1  0.10948700  0.10948700  0.39050500  1
  O  O3  1  0.60926500  0.60926500  0.89149300  1
  O  O4  1  0.20942600  0.20942600  0.80337800  1
  O  O5  1  0.91057500  0.91057500  0.07341800  1
  O  O6  1  0.78386200  0.78386200  0.33203900  1
loop_
_geom_bond_atom_site_label_1
_geom_bond_atom_site_label_2
_geom_bond_distance
_geom_bond_site_symmetry_2
Ba0 O5 2.770080 1_456
Ba0 O5 2.770080 1_546
Ba0 O5 2.844319 1_545
Ba0 O5 2.844319 1_455
Ba0 O1 2.951322 1_555
Ba0 O0 2.962337 1_655
Ba0 O0 2.962337 1_565
Ba0 O1 2.994142 1_554
Ba1 O6 2.734510 1_555
Ba1 O4 2.806235 1_654
Ba1 O4 2.806235 1_564
Ba1 O4 2.821910 1_655
Ba1 O4 2.821910 1_565
Ba1 O2 2.993726 1_565
Ba1 O2 2.993726 1_655
Ba1 O3 3.004630 1_554
Ba1 O3 3.006265 1_555
Cu0 O5 1.813605 1_555
Cu0 O6 1.855875 1_555
Cu1 O1 1.951556 1_545
Cu1 O1 1.951556 1_455
Cu1 O0 1.961610 1_556
Cu1 O0 1.961735 1_555
Cu1 O5 2.591582 1_446
Cu2 O3 1.952725 1_455
Cu2 O3 1.952725 1_545
Cu2 O2 1.961524 1_556
Cu2 O2 1.963743 1_555
Cu2 O4 2.658981 1_555
O0 Y0 2.429742 1_545
O0 Y0 2.429742 1_455
O1 Y0 2.423871 1_556
O1 Y0 2.447005 1_555
O2 Y0 2.421725 1_545
O2 Y0 2.421725 1_455
O3 Y0 2.414938 1_555
O3 Y0 2.437919 1_556
O4 Pb0 2.205539 1_555
O6 Pb0 2.458339 1_565
O6 Pb0 2.458339 1_655
