# generated using pymatgen
data_CaMg14Zr
_symmetry_space_group_name_H-M   'P 1'
_cell_length_a   6.50475548
_cell_length_b   6.57983543
_cell_length_c   10.32971809
_cell_angle_alpha   90.00000000
_cell_angle_beta   90.00000000
_cell_angle_gamma   120.38256253
_symmetry_Int_Tables_number   1
_chemical_formula_structural   CaMg14Zr
_chemical_formula_sum   'Ca1 Mg14 Zr1'
_cell_volume   381.39762326
_cell_formula_units_Z   1
loop_
 _symmetry_equiv_pos_site_id
 _symmetry_equiv_pos_as_xyz
  1  'x, y, z'
loop_
 _atom_site_type_symbol
 _atom_site_label
 _atom_site_symmetry_multiplicity
 _atom_site_fract_x
 _atom_site_fract_y
 _atom_site_fract_z
 _atom_site_occupancy
  Ca  Ca0  1  0.16778174  0.33389037  0.12500000  1
  Mg  Mg0  1  0.16647852  0.33323876  0.62500000  1
  Mg  Mg1  1  0.16561749  0.83280824  0.62500000  1
  Mg  Mg2  1  0.66523320  0.33492945  0.12500000  1
  Mg  Mg3  1  0.66756466  0.33513740  0.62500000  1
  Mg  Mg4  1  0.66523320  0.83030274  0.12500000  1
  Mg  Mg5  1  0.66756466  0.83242626  0.62500000  1
  Mg  Mg6  1  0.33237223  0.15880211  0.37953681  1
  Mg  Mg7  1  0.33237223  0.15880211  0.87046319  1
  Mg  Mg8  1  0.33237223  0.67357112  0.37953681  1
  Mg  Mg9  1  0.33237223  0.67357112  0.87046319  1
  Mg  Mg10  1  0.82376323  0.16188212  0.38054755  1
  Mg  Mg11  1  0.82376323  0.16188212  0.86945245  1
  Mg  Mg12  1  0.83681477  0.66840788  0.37117384  1
  Mg  Mg13  1  0.83681477  0.66840788  0.87882616  1
  Zr  Zr0  1  0.18388164  0.84194032  0.12500000  1
loop_
_geom_bond_atom_site_label_1
_geom_bond_atom_site_label_2
_geom_bond_distance
_geom_bond_site_symmetry_2
Ca0 Mg4 3.232347 1_555
Ca0 Mg2 3.232348 1_555
Ca0 Mg7 3.261025 1_554
Ca0 Mg6 3.261025 1_555
Ca0 Mg9 3.261032 1_554
Ca0 Mg8 3.261032 1_555
Ca0 Mg11 3.270290 1_454
Ca0 Mg10 3.270290 1_455
Ca0 Mg4 3.272418 1_445
Ca0 Mg2 3.272419 1_455
Ca0 Zr0 3.291158 1_555
Ca0 Zr0 3.291158 1_545
Mg0 Mg11 3.174063 1_455
Mg0 Mg10 3.174063 1_455
Mg0 Mg6 3.188064 1_555
Mg0 Mg7 3.188064 1_555
Mg0 Mg8 3.188071 1_555
Mg0 Mg9 3.188071 1_555
Mg0 Mg5 3.251649 1_445
Mg0 Mg3 3.251649 1_455
Mg0 Mg5 3.253142 1_555
Mg0 Mg3 3.253142 1_555
Mg0 Mg1 3.289921 1_555
Mg0 Mg1 3.289921 1_545
Mg1 Mg8 3.138960 1_555
Mg1 Mg9 3.138960 1_555
Mg1 Mg6 3.138966 1_565
Mg1 Mg7 3.138966 1_565
Mg1 Mg12 3.206068 1_455
Mg1 Mg13 3.206068 1_455
Mg1 Mg3 3.238441 1_455
Mg1 Mg5 3.238441 1_455
Mg1 Mg3 3.266315 1_565
Mg1 Mg5 3.266316 1_555
Mg2 Zr0 3.170491 1_545
Mg2 Mg7 3.225840 1_554
Mg2 Mg6 3.225840 1_555
Mg2 Mg4 3.259475 1_555
Mg2 Mg4 3.320361 1_545
Mg2 Zr0 3.335607 1_655
Mg3 Mg6 3.157567 1_555
Mg3 Mg7 3.157567 1_555
Mg3 Mg5 3.272079 1_555
Mg3 Mg5 3.307757 1_545
Mg4 Zr0 3.170491 1_555
Mg4 Mg9 3.225840 1_554
Mg4 Mg8 3.225840 1_555
Mg4 Zr0 3.335607 1_655
Mg5 Mg8 3.157568 1_555
Mg5 Mg9 3.157568 1_555
Mg6 Zr0 3.186833 1_545
Mg6 Mg8 3.192740 1_545
Mg6 Mg8 3.387095 1_555
Mg7 Zr0 3.186833 1_546
Mg7 Mg9 3.192740 1_545
Mg7 Mg9 3.387095 1_555
Mg8 Zr0 3.186826 1_555
Mg9 Zr0 3.186826 1_556
Mg10 Mg3 3.143215 1_555
Mg10 Mg5 3.143222 1_545
Mg10 Mg8 3.186193 1_545
Mg10 Mg6 3.186193 1_555
Mg10 Mg2 3.242797 1_555
Mg10 Mg4 3.242803 1_545
Mg10 Mg12 3.292157 1_555
Mg10 Mg12 3.292157 1_545
Mg10 Mg8 3.318689 1_655
Mg10 Mg6 3.318690 1_655
Mg11 Mg3 3.143215 1_555
Mg11 Mg5 3.143222 1_545
Mg11 Mg9 3.186193 1_545
Mg11 Mg7 3.186193 1_555
Mg11 Mg2 3.242797 1_556
Mg11 Mg4 3.242803 1_546
Mg11 Mg13 3.292157 1_555
Mg11 Mg13 3.292157 1_545
Mg11 Mg9 3.318689 1_655
Mg11 Mg7 3.318690 1_655
Mg12 Mg4 3.170082 1_555
Mg12 Mg2 3.170088 1_555
Mg12 Zr0 3.203015 1_655
Mg12 Mg6 3.207595 1_665
Mg12 Mg8 3.207595 1_655
Mg12 Mg5 3.233147 1_555
Mg12 Mg3 3.233154 1_555
Mg12 Mg6 3.299719 1_555
Mg12 Mg8 3.299719 1_555
Mg13 Mg4 3.170082 1_556
Mg13 Mg2 3.170088 1_556
Mg13 Zr0 3.203015 1_656
Mg13 Mg7 3.207595 1_665
Mg13 Mg9 3.207595 1_655
Mg13 Mg5 3.233147 1_555
Mg13 Mg3 3.233154 1_555
Mg13 Mg7 3.299719 1_555
Mg13 Mg9 3.299719 1_555
