# generated using pymatgen
data_Zn2Fe3Cu10(SnSe4)5
_symmetry_space_group_name_H-M   'P 1'
_cell_length_a   15.78931095
_cell_length_b   15.78931095
_cell_length_c   15.78931095
_cell_angle_alpha   158.97901786
_cell_angle_beta   137.63727524
_cell_angle_gamma   47.75184307
_symmetry_Int_Tables_number   1
_chemical_formula_structural   Zn2Fe3Cu10(SnSe4)5
_chemical_formula_sum   'Zn2 Fe3 Cu10 Sn5 Se20'
_cell_volume   948.97030346
_cell_formula_units_Z   1
loop_
 _symmetry_equiv_pos_site_id
 _symmetry_equiv_pos_as_xyz
  1  'x, y, z'
loop_
 _atom_site_type_symbol
 _atom_site_label
 _atom_site_symmetry_multiplicity
 _atom_site_fract_x
 _atom_site_fract_y
 _atom_site_fract_z
 _atom_site_occupancy
  Zn  Zn0  1  0.70000200  0.70000200  0.00000000  1
  Zn  Zn1  1  0.29999800  0.29999800  0.00000000  1
  Fe  Fe0  1  0.90010900  0.90010900  0.00000000  1
  Fe  Fe1  1  0.50000000  0.50000000  0.00000000  1
  Fe  Fe2  1  0.09989100  0.09989100  0.00000000  1
  Cu  Cu0  1  0.44947700  0.19898500  0.24871900  1
  Cu  Cu1  1  0.24978200  0.00000000  0.24978200  1
  Cu  Cu2  1  0.85032300  0.59865800  0.24913400  1
  Cu  Cu3  1  0.04973400  0.80101500  0.25049300  1
  Cu  Cu4  1  0.65047600  0.40134200  0.25166500  1
  Cu  Cu5  1  0.34952400  0.60118900  0.75086600  1
  Cu  Cu6  1  0.14967700  0.39881100  0.74833500  1
  Cu  Cu7  1  0.75021800  0.00000000  0.75021800  1
  Cu  Cu8  1  0.95026600  0.20075900  0.75128100  1
  Cu  Cu9  1  0.55052300  0.79924100  0.74950700  1
  Sn  Sn0  1  0.59966700  0.09966700  0.50000000  1
  Sn  Sn1  1  0.40033300  0.90033300  0.50000000  1
  Sn  Sn2  1  0.00000000  0.50000000  0.50000000  1
  Sn  Sn3  1  0.19978200  0.69978200  0.50000000  1
  Sn  Sn4  1  0.80021800  0.30021800  0.50000000  1
  Se  Se0  1  0.41339600  0.77804100  0.09874600  1
  Se  Se1  1  0.01388800  0.37853300  0.09962000  1
  Se  Se2  1  0.61179900  0.98612400  0.10256800  1
  Se  Se3  1  0.21193000  0.58617000  0.10243400  1
  Se  Se4  1  0.81316100  0.17761500  0.09808400  1
  Se  Se5  1  0.51626400  0.41383000  0.62576000  1
  Se  Se6  1  0.11644400  0.01387600  0.62567500  1
  Se  Se7  1  0.72108700  0.62146700  0.63535500  1
  Se  Se8  1  0.32070600  0.22195900  0.63535500  1
  Se  Se9  1  0.92046800  0.82238500  0.63554600  1
  Se  Se10  1  0.27891300  0.91426800  0.90038000  1
  Se  Se11  1  0.88355600  0.50923100  0.89743200  1
  Se  Se12  1  0.48373600  0.10949600  0.89756600  1
  Se  Se13  1  0.07953200  0.71507700  0.90191600  1
  Se  Se14  1  0.67929400  0.31465000  0.90125400  1
  Se  Se15  1  0.38820100  0.49076900  0.37432500  1
  Se  Se16  1  0.98611300  0.08573200  0.36464500  1
  Se  Se17  1  0.58660400  0.68535000  0.36464500  1
  Se  Se18  1  0.18683900  0.28492300  0.36445400  1
  Se  Se19  1  0.78807000  0.89050400  0.37424000  1
loop_
_geom_bond_atom_site_label_1
_geom_bond_atom_site_label_2
_geom_bond_distance
_geom_bond_site_symmetry_2
Fe0 Se4 2.422133 1_565
Fe0 Se13 2.422147 1_654
Fe0 Se16 2.424416 1_565
Fe0 Se7 2.424422 1_554
Fe1 Se14 2.423517 1_554
Fe1 Se8 2.423520 1_554
Fe1 Se17 2.423530 1_555
Fe1 Se0 2.423530 1_555
Fe2 Se18 2.422133 1_555
Fe2 Se9 2.422143 1_444
Fe2 Se10 2.424422 1_544
Fe2 Se1 2.424422 1_555
Cu0 Se2 2.422316 1_545
Cu0 Se15 2.424567 1_555
Cu0 Se5 2.427238 1_555
Cu0 Se10 2.437926 1_544
Cu1 Se13 2.438245 1_544
Cu1 Se18 2.438256 1_555
Cu1 Se8 2.443367 1_555
Cu1 Se0 2.443373 1_545
Cu2 Se19 2.426429 1_555
Cu2 Se1 2.438140 1_655
Cu2 Se14 2.439567 1_554
Cu2 Se9 2.443053 1_555
Cu3 Se6 2.422303 1_565
Cu3 Se11 2.424563 1_454
Cu3 Se3 2.427245 1_555
Cu3 Se16 2.437941 1_465
Cu4 Se12 2.426429 1_554
Cu4 Se7 2.438140 1_555
Cu4 Se17 2.439556 1_555
Cu4 Se4 2.443046 1_555
Cu5 Se5 2.426429 1_555
Cu5 Se10 2.438140 1_555
Cu5 Se0 2.439556 1_556
Cu5 Se18 2.443046 1_555
Cu6 Se3 2.426429 1_556
Cu6 Se16 2.438130 1_455
Cu6 Se8 2.439570 1_555
Cu6 Se13 2.443049 1_555
Cu7 Se9 2.438242 1_545
Cu7 Se4 2.438256 1_556
Cu7 Se14 2.443370 1_555
Cu7 Se17 2.443373 1_545
Cu8 Se11 2.422303 1_555
Cu8 Se6 2.424563 1_655
Cu8 Se19 2.427245 1_545
Cu8 Se1 2.437937 1_656
Cu9 Se15 2.422312 1_555
Cu9 Se2 2.424570 1_556
Cu9 Se12 2.427242 1_565
Cu9 Se7 2.437923 1_555
Se0 Sn0 2.657186 1_565
Se1 Sn3 2.653884 1_555
Se2 Zn0 2.487086 1_555
Se2 Sn4 2.641119 1_565
Se3 Zn1 2.489465 1_555
Se3 Sn1 2.640972 1_555
Se4 Sn2 2.665719 1_655
Se5 Zn0 2.489465 1_556
Se5 Sn0 2.640972 1_555
Se6 Zn1 2.487086 1_556
Se6 Sn3 2.641119 1_545
Se7 Sn4 2.653884 1_555
Se8 Sn1 2.657190 1_545
Se9 Sn2 2.665715 1_655
Se10 Sn3 2.653884 1_555
Se11 Zn0 2.487086 1_556
Se11 Sn4 2.641119 1_555
Se12 Zn1 2.489465 1_556
Se12 Sn1 2.640972 1_545
Se13 Sn2 2.665712 1_555
Se14 Sn0 2.657193 1_555
Se15 Zn1 2.487086 1_555
Se15 Sn3 2.641119 1_555
Se16 Sn4 2.653897 1_555
Se17 Sn1 2.657186 1_555
Se18 Sn2 2.665719 1_555
Se19 Zn0 2.489465 1_555
Se19 Sn0 2.640972 1_565
