# generated using pymatgen
data_Pm2MgSe4
_symmetry_space_group_name_H-M   'P 1'
_cell_length_a   7.68483896
_cell_length_b   7.68483896
_cell_length_c   7.68483896
_cell_angle_alpha   110.78481390
_cell_angle_beta   110.78481390
_cell_angle_gamma   106.87481854
_symmetry_Int_Tables_number   1
_chemical_formula_structural   Pm2MgSe4
_chemical_formula_sum   'Pm4 Mg2 Se8'
_cell_volume   348.83243034
_cell_formula_units_Z   2
loop_
 _symmetry_equiv_pos_site_id
 _symmetry_equiv_pos_as_xyz
  1  'x, y, z'
loop_
 _atom_site_type_symbol
 _atom_site_label
 _atom_site_symmetry_multiplicity
 _atom_site_fract_x
 _atom_site_fract_y
 _atom_site_fract_z
 _atom_site_occupancy
  Pm  Pm0  1  0.87500000  0.75692200  0.38192200  1
  Pm  Pm1  1  0.50692200  0.12500000  0.88192200  1
  Pm  Pm2  1  0.37500000  0.49307800  0.61807800  1
  Pm  Pm3  1  0.24307800  0.62500000  0.11807800  1
  Mg  Mg0  1  0.00000000  0.00000000  0.00000000  1
  Mg  Mg1  1  0.75000000  0.25000000  0.50000000  1
  Se  Se0  1  0.50681700  0.37725500  0.26469600  1
  Se  Se1  1  0.75787900  0.49318300  0.87043900  1
  Se  Se2  1  0.11255900  0.24212100  0.73530400  1
  Se  Se3  1  0.62274500  0.88744100  0.12956100  1
  Se  Se4  1  0.24318300  0.00787900  0.37043900  1
  Se  Se5  1  0.99212100  0.36255900  0.23530400  1
  Se  Se6  1  0.63744100  0.87274500  0.62956100  1
  Se  Se7  1  0.12725500  0.75681700  0.76469600  1
loop_
_geom_bond_atom_site_label_1
_geom_bond_atom_site_label_2
_geom_bond_distance
_geom_bond_site_symmetry_2
Pm0 Se7 2.892445 1_655
Pm0 Se3 2.892449 1_555
Pm0 Se4 2.977048 1_665
Pm0 Se0 2.977053 1_555
Pm0 Se6 3.154942 1_555
Pm0 Se2 3.154948 1_665
Pm0 Se1 3.338279 1_554
Pm0 Se5 3.338286 1_555
Pm1 Se0 2.892445 1_556
Pm1 Se6 2.892449 1_545
Pm1 Se1 2.977048 1_555
Pm1 Se7 2.977053 1_545
Pm1 Se3 3.154942 1_546
Pm1 Se5 3.154948 1_556
Pm1 Se4 3.338279 1_555
Pm1 Se2 3.338286 1_555
Pm2 Se5 2.892445 1_455
Pm2 Se1 2.892448 1_555
Pm2 Se2 2.977053 1_555
Pm2 Se6 2.977057 1_555
Pm2 Se4 3.154947 1_555
Pm2 Se0 3.154948 1_555
Pm2 Se3 3.338281 1_556
Pm2 Se7 3.338286 1_555
Pm3 Se2 2.892445 1_554
Pm3 Se4 2.892448 1_565
Pm3 Se5 2.977053 1_455
Pm3 Se3 2.977057 1_555
Pm3 Se1 3.154947 1_454
Pm3 Se7 3.154948 1_554
Pm3 Se6 3.338281 1_555
Pm3 Se0 3.338286 1_555
Mg0 Se5 2.763403 1_455
Mg0 Se7 2.763403 1_544
Mg0 Se6 2.763408 1_444
Mg0 Se4 2.763409 1_555
Mg1 Se2 2.763403 1_655
Mg1 Se0 2.763403 1_555
Mg1 Se3 2.763408 1_545
Mg1 Se1 2.763409 1_555
