# generated using pymatgen
data_MgSi2
_symmetry_space_group_name_H-M   'P 1'
_cell_length_a   5.67500300
_cell_length_b   7.70794827
_cell_length_c   9.99012891
_cell_angle_alpha   94.61400899
_cell_angle_beta   98.51304162
_cell_angle_gamma   102.72171593
_symmetry_Int_Tables_number   1
_chemical_formula_structural   MgSi2
_chemical_formula_sum   'Mg8 Si16'
_cell_volume   418.66603539
_cell_formula_units_Z   8
loop_
 _symmetry_equiv_pos_site_id
 _symmetry_equiv_pos_as_xyz
  1  'x, y, z'
loop_
 _atom_site_type_symbol
 _atom_site_label
 _atom_site_symmetry_multiplicity
 _atom_site_fract_x
 _atom_site_fract_y
 _atom_site_fract_z
 _atom_site_occupancy
  Mg  Mg0  1  0.79267200  0.42461200  0.86077700  1
  Mg  Mg1  1  0.20732800  0.57538800  0.13922300  1
  Mg  Mg2  1  0.22177300  0.93227300  0.49074200  1
  Mg  Mg3  1  0.40901300  0.26329800  0.32714100  1
  Mg  Mg4  1  0.23585700  0.36277500  0.63301200  1
  Mg  Mg5  1  0.76414300  0.63722500  0.36698800  1
  Mg  Mg6  1  0.59098700  0.73670200  0.67285900  1
  Mg  Mg7  1  0.77822700  0.06772700  0.50925800  1
  Si  Si0  1  0.66059700  0.97058000  0.93801700  1
  Si  Si1  1  0.95458800  0.33439600  0.33946200  1
  Si  Si2  1  0.28931700  0.59969700  0.41840100  1
  Si  Si3  1  0.64706200  0.37650900  0.11645400  1
  Si  Si4  1  0.54289400  0.08564600  0.72818300  1
  Si  Si5  1  0.74005200  0.69773100  0.06547200  1
  Si  Si6  1  0.35293800  0.62349100  0.88354600  1
  Si  Si7  1  0.97464200  0.19331600  0.09430800  1
  Si  Si8  1  0.04541200  0.66560400  0.66053800  1
  Si  Si9  1  0.25994800  0.30226900  0.93452800  1
  Si  Si10  1  0.02535800  0.80668400  0.90569200  1
  Si  Si11  1  0.45710600  0.91435400  0.27181700  1
  Si  Si12  1  0.11427500  0.05170100  0.74739600  1
  Si  Si13  1  0.71068300  0.40030300  0.58159900  1
  Si  Si14  1  0.88572500  0.94829900  0.25260400  1
  Si  Si15  1  0.33940300  0.02942000  0.06198300  1
loop_
_geom_bond_atom_site_label_1
_geom_bond_atom_site_label_2
_geom_bond_distance
_geom_bond_site_symmetry_2
Mg0 Si13 2.742914 1_555
Mg0 Si4 2.801147 1_555
Mg0 Si3 2.826094 1_556
Mg0 Si5 2.909947 1_556
Mg0 Si10 2.918428 1_655
Mg0 Si9 3.016427 1_655
Mg0 Si8 3.127818 1_655
Mg0 Si9 3.176089 1_555
Mg0 Si6 3.177115 1_655
Mg0 Si6 3.228927 1_555
Mg0 Si7 3.233345 1_556
Mg1 Si2 2.742914 1_555
Mg1 Si11 2.801147 1_555
Mg1 Si6 2.826094 1_554
Mg1 Si9 2.909947 1_554
Mg1 Si7 2.918428 1_455
Mg1 Si5 3.016427 1_455
Mg1 Si1 3.127818 1_455
Mg1 Si5 3.176089 1_555
Mg1 Si3 3.177115 1_455
Mg1 Si3 3.228927 1_555
Mg1 Si10 3.233345 1_554
Mg2 Si2 2.730819 1_555
Mg2 Si11 2.735592 1_555
Mg2 Si4 2.768650 1_565
Mg2 Si14 2.849516 1_455
Mg2 Si12 2.850334 1_565
Mg2 Si8 2.874295 1_555
Mg3 Si3 2.763108 1_555
Mg3 Si1 2.769763 1_455
Mg3 Si11 2.782615 1_545
Mg3 Si13 2.826931 1_555
Mg3 Si2 2.931680 1_555
Mg3 Si1 3.005091 1_555
Mg3 Si15 3.005180 1_555
Mg3 Si7 3.048409 1_455
Mg4 Si12 2.734342 1_555
Mg4 Si13 2.774695 1_555
Mg4 Si8 2.790691 1_555
Mg4 Si2 2.932945 1_555
Mg4 Si6 2.975668 1_555
Mg4 Si13 3.029924 1_455
Mg4 Si9 3.072722 1_555
Mg4 Si1 3.090788 1_455
Mg5 Si14 2.734342 1_555
Mg5 Si2 2.774695 1_555
Mg5 Si1 2.790691 1_555
Mg5 Si13 2.932945 1_555
Mg5 Si3 2.975668 1_555
Mg5 Si2 3.029924 1_655
Mg5 Si5 3.072722 1_555
Mg5 Si8 3.090788 1_655
Mg6 Si6 2.763108 1_555
Mg6 Si8 2.769763 1_655
Mg6 Si4 2.782615 1_565
Mg6 Si2 2.826931 1_555
Mg6 Si13 2.931680 1_555
Mg6 Si8 3.005091 1_555
Mg6 Si0 3.005180 1_555
Mg6 Si10 3.048409 1_655
Mg7 Si13 2.730819 1_555
Mg7 Si4 2.735592 1_555
Mg7 Si11 2.768650 1_545
Mg7 Si12 2.849516 1_655
Mg7 Si14 2.850334 1_545
Mg7 Si1 2.874295 1_555
Si0 Si4 2.402631 1_565
Si0 Si7 2.441087 1_566
Si0 Si15 2.450309 1_566
Si0 Si5 2.631759 1_556
Si0 Si10 2.696152 1_655
Si0 Si6 2.815880 1_555
Si1 Si2 2.449128 1_655
Si1 Si7 2.627206 1_555
Si1 Si3 2.707264 1_555
Si3 Si5 2.524929 1_555
Si3 Si9 2.560030 1_554
Si3 Si7 2.593531 1_555
Si5 Si6 2.560030 1_554
Si6 Si9 2.524929 1_555
Si6 Si8 2.707264 1_555
Si7 Si9 2.501340 1_654
Si10 Si15 2.441087 1_566
Si10 Si5 2.501340 1_456
Si10 Si12 2.572781 1_565
Si10 Si6 2.593531 1_555
Si10 Si8 2.627206 1_555
Si11 Si15 2.402631 1_565
Si11 Si14 2.426508 1_555
Si12 Si4 2.426508 1_555
Si12 Si9 2.483313 1_555
Si13 Si8 2.449128 1_655
Si14 Si5 2.483313 1_555
Si14 Si7 2.572781 1_565
Si15 Si9 2.631759 1_554
Si15 Si7 2.696152 1_455
Si15 Si3 2.815880 1_555
