# generated using pymatgen
data_TbGa2Ni
_symmetry_space_group_name_H-M   'P 1'
_cell_length_a   5.48800255
_cell_length_b   5.48800255
_cell_length_c   6.61917193
_cell_angle_alpha   90.00000000
_cell_angle_beta   90.00000000
_cell_angle_gamma   136.55663771
_symmetry_Int_Tables_number   1
_chemical_formula_structural   TbGa2Ni
_chemical_formula_sum   'Tb2 Ga4 Ni2'
_cell_volume   137.08553495
_cell_formula_units_Z   2
loop_
 _symmetry_equiv_pos_site_id
 _symmetry_equiv_pos_as_xyz
  1  'x, y, z'
loop_
 _atom_site_type_symbol
 _atom_site_label
 _atom_site_symmetry_multiplicity
 _atom_site_fract_x
 _atom_site_fract_y
 _atom_site_fract_z
 _atom_site_occupancy
  Tb  Tb0  1  0.56780189  0.43219811  0.25000000  1
  Tb  Tb1  1  0.43219811  0.56780189  0.75000000  1
  Ga  Ga0  1  0.84992890  0.15007110  0.44527539  1
  Ga  Ga1  1  0.15007110  0.84992890  0.55472461  1
  Ga  Ga2  1  0.84992890  0.15007110  0.05472461  1
  Ga  Ga3  1  0.15007110  0.84992890  0.94527539  1
  Ni  Ni0  1  0.28829921  0.71170079  0.25000000  1
  Ni  Ni1  1  0.71170079  0.28829921  0.75000000  1
loop_
_geom_bond_atom_site_label_1
_geom_bond_atom_site_label_2
_geom_bond_distance
_geom_bond_site_symmetry_2
Tb0 Tb1 3.586812 1_554
Tb0 Tb1 3.586812 1_555
Ga0 Ni1 2.460684 1_555
Ga0 Ni0 2.488170 1_545
Ga0 Ni0 2.488170 1_655
Ga0 Ga2 2.585123 1_555
Ga0 Ga1 2.967011 1_545
Ga0 Ga1 2.967011 1_655
Ga0 Tb1 2.982861 1_545
Ga0 Tb1 2.982861 1_655
Ga0 Ga1 3.145017 1_645
Ga0 Tb0 3.153787 1_555
Ga0 Tb0 3.275890 1_545
Ga0 Tb0 3.275890 1_655
Ga1 Ni0 2.460684 1_555
Ga1 Ni1 2.488170 1_455
Ga1 Ni1 2.488170 1_565
Ga1 Ga3 2.585123 1_555
Ga1 Tb0 2.982861 1_455
Ga1 Tb0 2.982861 1_565
Ga1 Tb1 3.153787 1_555
Ga1 Tb1 3.275890 1_455
Ga1 Tb1 3.275890 1_565
Ga2 Ni1 2.460684 1_554
Ga2 Ni0 2.488170 1_545
Ga2 Ni0 2.488170 1_655
Ga2 Ga3 2.967011 1_544
Ga2 Ga3 2.967011 1_654
Ga2 Tb1 2.982861 1_544
Ga2 Tb1 2.982861 1_654
Ga2 Ga3 3.145017 1_644
Ga2 Tb0 3.153787 1_555
Ga2 Tb0 3.275890 1_545
Ga2 Tb0 3.275890 1_655
Ga3 Ni0 2.460684 1_556
Ga3 Ni1 2.488170 1_455
Ga3 Ni1 2.488170 1_565
Ga3 Tb0 2.982861 1_456
Ga3 Tb0 2.982861 1_566
Ga3 Tb1 3.153787 1_555
Ga3 Tb1 3.275890 1_455
Ga3 Tb1 3.275890 1_565
Ni0 Tb0 2.849985 1_555
Ni0 Tb0 3.029910 1_455
Ni0 Tb0 3.029910 1_565
Ni1 Tb1 2.849985 1_555
Ni1 Tb1 3.029910 1_545
Ni1 Tb1 3.029910 1_655
