# generated using pymatgen
data_LiYbSb
_symmetry_space_group_name_H-M   'P 1'
_cell_length_a   4.66334600
_cell_length_b   7.66179100
_cell_length_c   8.25736700
_cell_angle_alpha   90.00000000
_cell_angle_beta   90.00000000
_cell_angle_gamma   90.00000000
_symmetry_Int_Tables_number   1
_chemical_formula_structural   LiYbSb
_chemical_formula_sum   'Li4 Yb4 Sb4'
_cell_volume   295.03227474
_cell_formula_units_Z   4
loop_
 _symmetry_equiv_pos_site_id
 _symmetry_equiv_pos_as_xyz
  1  'x, y, z'
loop_
 _atom_site_type_symbol
 _atom_site_label
 _atom_site_symmetry_multiplicity
 _atom_site_fract_x
 _atom_site_fract_y
 _atom_site_fract_z
 _atom_site_occupancy
  Li  Li0  1  0.25000000  0.15665900  0.92562500  1
  Li  Li1  1  0.25000000  0.65665900  0.57437500  1
  Li  Li2  1  0.75000000  0.84334100  0.07437500  1
  Li  Li3  1  0.75000000  0.34334100  0.42562500  1
  Yb  Yb0  1  0.25000000  0.00705200  0.29343700  1
  Yb  Yb1  1  0.25000000  0.50705200  0.20656300  1
  Yb  Yb2  1  0.75000000  0.99294800  0.70656300  1
  Yb  Yb3  1  0.75000000  0.49294800  0.79343700  1
  Sb  Sb0  1  0.25000000  0.26977800  0.59661700  1
  Sb  Sb1  1  0.25000000  0.76977800  0.90338300  1
  Sb  Sb2  1  0.75000000  0.73022200  0.40338300  1
  Sb  Sb3  1  0.75000000  0.23022200  0.09661700  1
loop_
_geom_bond_atom_site_label_1
_geom_bond_atom_site_label_2
_geom_bond_distance
_geom_bond_site_symmetry_2
Li0 Sb3 2.783515 1_456
Li0 Sb3 2.783515 1_556
Li0 Sb0 2.851637 1_555
Li0 Sb1 2.969886 1_545
Li0 Yb2 3.206563 1_545
Li0 Yb2 3.206563 1_445
Li0 Yb0 3.246265 1_556
Li0 Yb1 3.548069 1_556
Li0 Yb3 3.642371 1_455
Li0 Yb3 3.642371 1_555
Li1 Sb2 2.783515 1_455
Li1 Sb2 2.783515 1_555
Li1 Sb1 2.851637 1_555
Li1 Sb0 2.969886 1_555
Li1 Yb3 3.206563 1_455
Li1 Yb3 3.206563 1_555
Li1 Yb1 3.246265 1_555
Li1 Yb0 3.548069 1_565
Li1 Yb2 3.642371 1_455
Li1 Yb2 3.642371 1_555
Li2 Sb1 2.783515 1_554
Li2 Sb1 2.783515 1_654
Li2 Sb2 2.851637 1_555
Li2 Sb3 2.969886 1_565
Li2 Yb0 3.206563 1_665
Li2 Yb0 3.206563 1_565
Li2 Yb2 3.246265 1_554
Li2 Yb3 3.548069 1_554
Li2 Yb1 3.642371 1_555
Li2 Yb1 3.642371 1_655
Li3 Sb0 2.783515 1_655
Li3 Sb0 2.783515 1_555
Li3 Sb3 2.851637 1_555
Li3 Sb2 2.969886 1_555
Li3 Yb1 3.206563 1_555
Li3 Yb1 3.206563 1_655
Li3 Yb3 3.246265 1_555
Li3 Yb2 3.548069 1_545
Li3 Yb0 3.642371 1_655
Li3 Yb0 3.642371 1_555
Sb0 Yb0 3.212371 1_555
Sb0 Yb2 3.280185 1_545
Sb0 Yb2 3.280185 1_445
Sb0 Yb3 3.316884 1_555
Sb0 Yb3 3.316884 1_455
Sb0 Yb1 3.698458 1_555
Sb1 Yb1 3.212371 1_556
Sb1 Yb3 3.280185 1_455
Sb1 Yb3 3.280185 1_555
Sb1 Yb2 3.316884 1_555
Sb1 Yb2 3.316884 1_455
Sb1 Yb0 3.698458 1_566
Sb2 Yb2 3.212371 1_555
Sb2 Yb0 3.280185 1_565
Sb2 Yb0 3.280185 1_665
Sb2 Yb1 3.316884 1_655
Sb2 Yb1 3.316884 1_555
Sb2 Yb3 3.698458 1_555
Sb3 Yb3 3.212371 1_554
Sb3 Yb1 3.280185 1_655
Sb3 Yb1 3.280185 1_555
Sb3 Yb0 3.316884 1_555
Sb3 Yb0 3.316884 1_655
Sb3 Yb2 3.698458 1_544
