# generated using pymatgen
data_K3Cu2H7
_symmetry_space_group_name_H-M   'P 1'
_cell_length_a   10.43668477
_cell_length_b   10.43668477
_cell_length_c   10.43668477
_cell_angle_alpha   159.15729321
_cell_angle_beta   159.15729321
_cell_angle_gamma   29.64329274
_symmetry_Int_Tables_number   1
_chemical_formula_structural   K3Cu2H7
_chemical_formula_sum   'K3 Cu2 H7'
_cell_volume   143.83345405
_cell_formula_units_Z   1
loop_
 _symmetry_equiv_pos_site_id
 _symmetry_equiv_pos_as_xyz
  1  'x, y, z'
loop_
 _atom_site_type_symbol
 _atom_site_label
 _atom_site_symmetry_multiplicity
 _atom_site_fract_x
 _atom_site_fract_y
 _atom_site_fract_z
 _atom_site_occupancy
  K  K0  1  0.31841300  0.31841300  0.00000000  1
  K  K1  1  0.68158700  0.68158700  0.00000000  1
  K  K2  1  0.50000000  0.50000000  0.00000000  1
  Cu  Cu0  1  0.09151600  0.09151600  0.00000000  1
  Cu  Cu1  1  0.90848400  0.90848400  0.00000000  1
  H  H0  1  0.90996400  0.40996400  0.50000000  1
  H  H1  1  0.40996400  0.90996400  0.50000000  1
  H  H2  1  0.09003600  0.59003600  0.50000000  1
  H  H3  1  0.59003600  0.09003600  0.50000000  1
  H  H4  1  0.00000000  0.00000000  0.00000000  1
  H  H5  1  0.17585900  0.17585900  0.00000000  1
  H  H6  1  0.82414100  0.82414100  0.00000000  1
loop_
_geom_bond_atom_site_label_1
_geom_bond_atom_site_label_2
_geom_bond_distance
_geom_bond_site_symmetry_2
Cu0 H5 1.701944 1_555
Cu0 H4 1.846687 1_555
Cu0 H3 1.888083 1_454
Cu0 H2 1.888083 1_544
Cu0 H2 1.888083 1_555
Cu0 H3 1.888083 1_555
Cu1 H6 1.701944 1_555
Cu1 H4 1.846687 1_665
Cu1 H0 1.888083 1_554
Cu1 H1 1.888083 1_655
Cu1 H0 1.888083 1_565
Cu1 H1 1.888083 1_554
H0 K2 2.620078 1_656
H0 K2 2.620078 1_555
H0 K0 2.641369 1_656
H0 K0 2.641369 1_555
H1 K2 2.620078 1_566
H1 K2 2.620078 1_555
H1 K0 2.641369 1_566
H1 K0 2.641369 1_555
H2 K2 2.620078 1_455
H2 K2 2.620078 1_556
H2 K1 2.641369 1_455
H2 K1 2.641369 1_556
H3 K2 2.620078 1_545
H3 K2 2.620078 1_556
H3 K1 2.641369 1_545
H3 K1 2.641369 1_556
H4 K2 2.669819 1_556
H4 K2 2.669819 1_444
H4 K2 2.669819 1_545
H4 K2 2.669819 1_455
H5 K1 2.672320 1_556
H5 K1 2.672320 1_444
H5 K1 2.672320 1_545
H5 K1 2.672320 1_455
H5 K0 2.876575 1_555
H6 K0 2.672320 1_666
H6 K0 2.672320 1_554
H6 K0 2.672320 1_655
H6 K0 2.672320 1_565
H6 K1 2.876575 1_555
