# generated using pymatgen
data_U2Ti3Ge4
_symmetry_space_group_name_H-M   'P 1'
_cell_length_a   7.12739200
_cell_length_b   7.01949900
_cell_length_c   7.11743261
_cell_angle_alpha   69.97448049
_cell_angle_beta   90.00000000
_cell_angle_gamma   90.00000000
_symmetry_Int_Tables_number   1
_chemical_formula_structural   U2Ti3Ge4
_chemical_formula_sum   'U4 Ti6 Ge8'
_cell_volume   334.56113494
_cell_formula_units_Z   2
loop_
 _symmetry_equiv_pos_site_id
 _symmetry_equiv_pos_as_xyz
  1  'x, y, z'
loop_
 _atom_site_type_symbol
 _atom_site_label
 _atom_site_symmetry_multiplicity
 _atom_site_fract_x
 _atom_site_fract_y
 _atom_site_fract_z
 _atom_site_occupancy
  U  U0  1  0.66241400  0.94290300  0.67886000  1
  U  U1  1  0.33758600  0.05709700  0.32114000  1
  U  U2  1  0.16241400  0.55709700  0.32114000  1
  U  U3  1  0.83758600  0.44290300  0.67886000  1
  Ti  Ti0  1  0.66554800  0.75040900  0.24948900  1
  Ti  Ti1  1  0.33445200  0.24959100  0.75051100  1
  Ti  Ti2  1  0.16554800  0.74959100  0.75051100  1
  Ti  Ti3  1  0.83445200  0.25040900  0.24948900  1
  Ti  Ti4  1  0.00000000  0.00000000  0.00000000  1
  Ti  Ti5  1  0.50000000  0.50000000  0.00000000  1
  Ge  Ge0  1  0.95451400  0.86292700  0.40948200  1
  Ge  Ge1  1  0.04548600  0.13707300  0.59051800  1
  Ge  Ge2  1  0.45451400  0.63707300  0.59051800  1
  Ge  Ge3  1  0.54548600  0.36292700  0.40948200  1
  Ge  Ge4  1  0.86331200  0.63888200  0.99651000  1
  Ge  Ge5  1  0.13668800  0.36111800  0.00349000  1
  Ge  Ge6  1  0.36331200  0.86111800  0.00349000  1
  Ge  Ge7  1  0.63668800  0.13888200  0.99651000  1
loop_
_geom_bond_atom_site_label_1
_geom_bond_atom_site_label_2
_geom_bond_distance
_geom_bond_site_symmetry_2
Ge0 Ti0 2.603530 1_555
Ge0 Ti3 2.702915 1_565
Ge0 Ti2 2.732093 1_655
Ge0 Ge1 2.735337 1_665
Ge0 Ti4 2.757611 1_665
Ge0 U2 2.850287 1_655
Ge0 U0 3.010422 1_555
Ge0 U1 3.020046 1_665
Ge0 U3 3.031802 1_555
Ge1 Ti1 2.603530 1_555
Ge1 Ti2 2.702915 1_545
Ge1 Ti3 2.732093 1_455
Ge1 Ti4 2.757611 1_556
Ge1 U3 2.850287 1_455
Ge1 U1 3.010422 1_555
Ge1 U0 3.020046 1_445
Ge1 U2 3.031802 1_555
Ge2 Ti2 2.603530 1_555
Ge2 Ti1 2.702915 1_555
Ge2 Ti0 2.732093 1_555
Ge2 Ge3 2.735337 1_555
Ge2 Ti5 2.757611 1_556
Ge2 U0 2.850287 1_555
Ge2 U2 3.010422 1_555
Ge2 U3 3.020046 1_555
Ge2 U1 3.031802 1_565
Ge3 Ti3 2.603530 1_555
Ge3 Ti0 2.702915 1_555
Ge3 Ti1 2.732093 1_555
Ge3 Ti5 2.757611 1_555
Ge3 U1 2.850287 1_555
Ge3 U3 3.010422 1_555
Ge3 U2 3.020046 1_555
Ge3 U0 3.031802 1_545
Ge4 Ti0 2.609042 1_556
Ge4 Ti3 2.712479 1_556
Ge4 Ti2 2.716249 1_655
Ge4 Ti4 2.723677 1_666
Ge4 Ge5 2.744849 1_656
Ge4 Ti5 2.764013 1_556
Ge4 U0 2.900274 1_555
Ge4 U3 3.027814 1_555
Ge4 U2 3.050299 1_656
Ge5 Ti1 2.609042 1_554
Ge5 Ti2 2.712479 1_554
Ge5 Ti3 2.716249 1_455
Ge5 Ti4 2.723677 1_555
Ge5 Ti5 2.764013 1_555
Ge5 U1 2.900274 1_555
Ge5 U2 3.027814 1_555
Ge5 U3 3.050299 1_454
Ge6 Ti2 2.609042 1_554
Ge6 Ti1 2.712479 1_564
Ge6 Ti0 2.716249 1_555
Ge6 Ti5 2.723677 1_555
Ge6 Ge7 2.744849 1_564
Ge6 Ti4 2.764013 1_565
Ge6 U2 2.900274 1_555
Ge6 U1 3.027814 1_565
Ge6 U0 3.050299 1_554
Ge7 Ti3 2.609042 1_556
Ge7 Ti0 2.712479 1_546
Ge7 Ti1 2.716249 1_555
Ge7 Ti5 2.723677 1_556
Ge7 Ti4 2.764013 1_656
Ge7 U3 2.900274 1_555
Ge7 U0 3.027814 1_545
Ge7 U1 3.050299 1_556
