# generated using pymatgen
data_SmBC
_symmetry_space_group_name_H-M   'P 1'
_cell_length_a   8.28304350
_cell_length_b   8.33749866
_cell_length_c   12.20608165
_cell_angle_alpha   90.00000000
_cell_angle_beta   90.00000000
_cell_angle_gamma   90.00000000
_symmetry_Int_Tables_number   1
_chemical_formula_structural   SmBC
_chemical_formula_sum   'Sm20 B20 C20'
_cell_volume   842.95033972
_cell_formula_units_Z   20
loop_
 _symmetry_equiv_pos_site_id
 _symmetry_equiv_pos_as_xyz
  1  'x, y, z'
loop_
 _atom_site_type_symbol
 _atom_site_label
 _atom_site_symmetry_multiplicity
 _atom_site_fract_x
 _atom_site_fract_y
 _atom_site_fract_z
 _atom_site_occupancy
  Sm  Sm0  1  0.16157677  0.00939047  0.57923691  1
  Sm  Sm1  1  0.33842323  0.99060953  0.07923691  1
  Sm  Sm2  1  0.83842323  0.50939047  0.92076309  1
  Sm  Sm3  1  0.66157677  0.49060953  0.42076309  1
  Sm  Sm4  1  0.15518557  0.40653370  0.09483836  1
  Sm  Sm5  1  0.34481443  0.59346630  0.59483836  1
  Sm  Sm6  1  0.84481443  0.90653370  0.40516164  1
  Sm  Sm7  1  0.65518557  0.09346630  0.90516164  1
  Sm  Sm8  1  0.45382014  0.09673654  0.36081140  1
  Sm  Sm9  1  0.04617986  0.90326346  0.86081140  1
  Sm  Sm10  1  0.54617986  0.59673654  0.13918860  1
  Sm  Sm11  1  0.95382014  0.40326346  0.63918860  1
  Sm  Sm12  1  0.06397999  0.29953079  0.36336530  1
  Sm  Sm13  1  0.43602001  0.70046921  0.86336530  1
  Sm  Sm14  1  0.93602001  0.79953079  0.13663470  1
  Sm  Sm15  1  0.56397999  0.20046921  0.63663470  1
  Sm  Sm16  1  0.75465108  0.21170309  0.17397528  1
  Sm  Sm17  1  0.74534892  0.78829691  0.67397528  1
  Sm  Sm18  1  0.24534892  0.71170309  0.32602472  1
  Sm  Sm19  1  0.25465108  0.28829691  0.82602472  1
  B  B0  1  0.38395880  0.39769079  0.28699013  1
  B  B1  1  0.11604120  0.60230921  0.78699013  1
  B  B2  1  0.61604120  0.89769079  0.21300987  1
  B  B3  1  0.88395880  0.10230921  0.71300987  1
  B  B4  1  0.01699699  0.10776387  0.04135714  1
  B  B5  1  0.48300301  0.89223613  0.54135714  1
  B  B6  1  0.98300301  0.60776387  0.45864286  1
  B  B7  1  0.51699699  0.39223613  0.95864286  1
  B  B8  1  0.31632416  0.30656312  0.50958218  1
  B  B9  1  0.18367584  0.69343688  0.00958218  1
  B  B10  1  0.68367584  0.80656312  0.99041782  1
  B  B11  1  0.81632416  0.19343688  0.49041782  1
  B  B12  1  0.43707894  0.29521947  0.17923728  1
  B  B13  1  0.06292106  0.70478053  0.67923728  1
  B  B14  1  0.56292106  0.79521947  0.32076272  1
  B  B15  1  0.93707894  0.20478053  0.82076272  1
  B  B16  1  0.09402931  0.01890288  0.26167491  1
  B  B17  1  0.40597069  0.98109712  0.76167491  1
  B  B18  1  0.90597069  0.51890288  0.23832509  1
  B  B19  1  0.59402931  0.48109712  0.73832509  1
  C  C0  1  0.14811878  0.00390775  0.37592343  1
  C  C1  1  0.35188122  0.99609225  0.87592343  1
  C  C2  1  0.85188122  0.50390775  0.12407657  1
  C  C3  1  0.64811878  0.49609225  0.62407657  1
  C  C4  1  0.25741054  0.29877430  0.62218691  1
  C  C5  1  0.24258946  0.70122570  0.12218691  1
  C  C6  1  0.74258946  0.79877430  0.87781309  1
  C  C7  1  0.75741054  0.20122570  0.37781309  1
  C  C8  1  0.05536156  0.11040784  0.16013865  1
  C  C9  1  0.44463844  0.88959216  0.66013865  1
  C  C10  1  0.94463844  0.61040784  0.33986135  1
  C  C11  1  0.55536156  0.38959216  0.83986135  1
  C  C12  1  0.47420855  0.30350167  0.06010641  1
  C  C13  1  0.02579145  0.69649833  0.56010641  1
  C  C14  1  0.52579145  0.80350167  0.43989359  1
  C  C15  1  0.97420855  0.19649833  0.93989359  1
  C  C16  1  0.35534655  0.39729735  0.40829905  1
  C  C17  1  0.14465345  0.60270265  0.90829905  1
  C  C18  1  0.64465345  0.89729735  0.09170095  1
  C  C19  1  0.85534655  0.10270265  0.59170095  1
loop_
_geom_bond_atom_site_label_1
_geom_bond_atom_site_label_2
_geom_bond_distance
_geom_bond_site_symmetry_2
B0 C16 1.499557 1_555
B0 Sm8 2.728166 1_555
B0 Sm10 2.795401 1_555
B0 Sm18 2.898189 1_555
B0 Sm3 2.924749 1_555
B0 Sm12 2.926342 1_555
B0 Sm4 3.016160 1_555
B1 C17 1.499557 1_555
B1 Sm9 2.728166 1_555
B1 Sm11 2.795401 1_455
B1 Sm19 2.898189 1_555
B1 Sm2 2.924749 1_455
B1 Sm13 2.926342 1_555
B1 Sm5 3.016160 1_555
B2 C18 1.499557 1_555
B2 Sm10 2.728166 1_555
B2 Sm8 2.795401 1_565
B2 Sm16 2.898189 1_565
B2 Sm1 2.924749 1_555
B2 Sm14 2.926342 1_555
B2 Sm6 3.016160 1_555
B3 C19 1.499557 1_555
B3 Sm11 2.728166 1_555
B3 Sm9 2.795401 1_645
B3 Sm17 2.898189 1_545
B3 Sm0 2.924749 1_655
B3 Sm15 2.926342 1_555
B3 Sm7 3.016160 1_555
B4 C8 1.484437 1_555
B4 C15 1.485518 1_454
B4 Sm9 2.796796 1_544
B4 Sm4 2.818040 1_555
B4 Sm16 2.844882 1_455
B4 Sm1 2.873356 1_545
B4 Sm14 2.899435 1_445
B5 C9 1.484437 1_555
B5 C14 1.485518 1_555
B5 Sm8 2.796796 1_565
B5 Sm5 2.818040 1_555
B5 Sm17 2.844882 1_555
B5 Sm0 2.873356 1_565
B5 Sm15 2.899435 1_565
B6 C10 1.484437 1_555
B6 C13 1.485518 1_655
B6 Sm11 2.796796 1_555
B6 Sm6 2.818040 1_555
B6 Sm18 2.844882 1_655
B6 Sm3 2.873356 1_555
B6 Sm12 2.899435 1_655
B7 C11 1.484437 1_555
B7 C12 1.485518 1_556
B7 Sm10 2.796796 1_556
B7 Sm7 2.818040 1_555
B7 Sm19 2.844882 1_555
B7 Sm2 2.873356 1_555
B7 Sm13 2.899435 1_555
B8 C4 1.459963 1_555
B8 C16 1.484966 1_555
B8 Sm5 2.619266 1_555
B8 Sm15 2.719463 1_555
B8 Sm12 2.749102 1_555
B8 Sm8 2.766782 1_555
B8 Sm0 2.916282 1_555
B9 C5 1.459963 1_555
B9 C17 1.484966 1_554
B9 Sm4 2.619266 1_555
B9 Sm14 2.719463 1_455
B9 Sm13 2.749102 1_554
B9 Sm9 2.766782 1_554
B9 Sm1 2.916282 1_555
B10 C6 1.459963 1_555
B10 C18 1.484966 1_556
B10 Sm7 2.619266 1_565
B10 Sm13 2.719463 1_555
B10 Sm14 2.749102 1_556
B10 Sm10 2.766782 1_556
B10 Sm2 2.916282 1_555
B11 C7 1.459963 1_555
B11 C19 1.484966 1_555
B11 Sm6 2.619266 1_545
B11 Sm12 2.719463 1_655
B11 Sm15 2.749102 1_555
B11 Sm11 2.766782 1_555
B11 Sm3 2.916282 1_555
B12 C12 1.487892 1_555
B12 Sm4 2.715608 1_555
B12 Sm10 2.715750 1_555
B12 Sm16 2.721824 1_555
B12 Sm8 2.769438 1_555
B12 Sm1 2.933882 1_545
B13 C13 1.487892 1_555
B13 Sm5 2.715608 1_555
B13 Sm11 2.715750 1_455
B13 Sm17 2.721824 1_455
B13 Sm9 2.769438 1_555
B13 Sm0 2.933882 1_565
B14 C14 1.487892 1_555
B14 Sm6 2.715608 1_555
B14 Sm8 2.715750 1_565
B14 Sm18 2.721824 1_555
B14 Sm10 2.769438 1_555
B14 Sm3 2.933882 1_555
B15 C15 1.487892 1_555
B15 Sm7 2.715608 1_555
B15 Sm9 2.715750 1_645
B15 Sm19 2.721824 1_655
B15 Sm11 2.769438 1_555
B15 Sm2 2.933882 1_555
B16 C0 1.470055 1_555
B16 C8 1.490184 1_555
B16 Sm12 2.660261 1_555
B16 Sm14 2.718030 1_445
B16 Sm6 2.864671 1_445
B16 Sm18 2.957713 1_545
B16 Sm1 3.018678 1_545
B17 C1 1.470055 1_555
B17 C9 1.490184 1_555
B17 Sm13 2.660261 1_555
B17 Sm15 2.718030 1_565
B17 Sm7 2.864671 1_565
B17 Sm19 2.957713 1_565
B17 Sm0 3.018678 1_565
B18 C2 1.470055 1_555
B18 C10 1.490184 1_555
B18 Sm14 2.660261 1_555
B18 Sm12 2.718030 1_655
B18 Sm4 2.864671 1_655
B18 Sm16 2.957713 1_555
B18 Sm3 3.018678 1_555
B19 C3 1.470055 1_555
B19 C11 1.490184 1_555
B19 Sm15 2.660261 1_555
B19 Sm13 2.718030 1_555
B19 Sm5 2.864671 1_555
B19 Sm17 2.957713 1_555
B19 Sm2 3.018678 1_555
C0 Sm0 2.484584 1_555
C0 Sm12 2.565975 1_555
C0 Sm18 2.637217 1_545
C0 Sm8 2.654197 1_555
C0 Sm6 2.664215 1_445
C1 Sm1 2.484584 1_556
C1 Sm13 2.565975 1_555
C1 Sm19 2.637217 1_565
C1 Sm9 2.654197 1_555
C1 Sm7 2.664215 1_565
C2 Sm2 2.484584 1_554
C2 Sm14 2.565975 1_555
C2 Sm16 2.637217 1_555
C2 Sm10 2.654197 1_555
C2 Sm4 2.664215 1_655
C3 Sm3 2.484584 1_555
C3 Sm15 2.565975 1_555
C3 Sm17 2.637217 1_555
C3 Sm11 2.654197 1_555
C3 Sm5 2.664215 1_555
C4 Sm19 2.489699 1_555
C4 Sm5 2.583097 1_555
C4 Sm0 2.593502 1_555
C4 Sm11 2.669362 1_455
C4 Sm15 2.674147 1_555
C5 Sm18 2.489699 1_555
C5 Sm4 2.583097 1_555
C5 Sm1 2.593502 1_555
C5 Sm10 2.669362 1_555
C5 Sm14 2.674147 1_455
C6 Sm17 2.489699 1_555
C6 Sm7 2.583097 1_565
C6 Sm2 2.593502 1_555
C6 Sm9 2.669362 1_655
C6 Sm13 2.674147 1_555
C7 Sm16 2.489699 1_555
C7 Sm6 2.583097 1_545
C7 Sm3 2.593502 1_555
C7 Sm8 2.669362 1_555
C7 Sm12 2.674147 1_655
C8 Sm16 2.635500 1_455
C8 Sm4 2.722993 1_555
C8 Sm1 2.733128 1_545
C8 Sm14 2.788835 1_445
C8 Sm12 2.940207 1_555
C9 Sm17 2.635500 1_555
C9 Sm5 2.722993 1_555
C9 Sm0 2.733128 1_565
C9 Sm15 2.788835 1_565
C9 Sm13 2.940207 1_555
C10 Sm18 2.635500 1_655
C10 Sm6 2.722993 1_555
C10 Sm3 2.733128 1_555
C10 Sm12 2.788835 1_655
C10 Sm14 2.940207 1_555
C11 Sm19 2.635500 1_555
C11 Sm7 2.722993 1_555
C11 Sm2 2.733128 1_555
C11 Sm13 2.788835 1_555
C11 Sm15 2.940207 1_555
C12 Sm10 2.695260 1_555
C12 Sm4 2.810759 1_555
C12 Sm16 2.813102 1_555
C12 Sm1 2.850443 1_545
C12 Sm7 2.981713 1_554
C13 Sm11 2.695260 1_455
C13 Sm5 2.810759 1_555
C13 Sm17 2.813102 1_455
C13 Sm0 2.850443 1_565
C13 Sm6 2.981713 1_455
C14 Sm8 2.695260 1_565
C14 Sm6 2.810759 1_555
C14 Sm18 2.813102 1_555
C14 Sm3 2.850443 1_555
C14 Sm5 2.981713 1_555
C15 Sm9 2.695260 1_645
C15 Sm7 2.810759 1_555
C15 Sm19 2.813102 1_655
C15 Sm2 2.850443 1_555
C15 Sm4 2.981713 1_656
C16 Sm12 2.605716 1_555
C16 Sm3 2.657506 1_555
C16 Sm8 2.698323 1_555
C16 Sm5 2.804817 1_555
C16 Sm18 2.951298 1_555
C17 Sm13 2.605716 1_555
C17 Sm2 2.657506 1_455
C17 Sm9 2.698323 1_555
C17 Sm4 2.804817 1_556
C17 Sm19 2.951298 1_555
C18 Sm14 2.605716 1_555
C18 Sm1 2.657506 1_555
C18 Sm10 2.698323 1_555
C18 Sm7 2.804817 1_564
C18 Sm16 2.951298 1_565
C19 Sm15 2.605716 1_555
C19 Sm0 2.657506 1_655
C19 Sm11 2.698323 1_555
C19 Sm6 2.804817 1_545
C19 Sm17 2.951298 1_545
