# generated using pymatgen
data_ZrPbN2
_symmetry_space_group_name_H-M   'P 1'
_cell_length_a   4.07838200
_cell_length_b   4.07838200
_cell_length_c   8.15325700
_cell_angle_alpha   90.00000000
_cell_angle_beta   90.00000000
_cell_angle_gamma   90.00000000
_symmetry_Int_Tables_number   1
_chemical_formula_structural   ZrPbN2
_chemical_formula_sum   'Zr2 Pb2 N4'
_cell_volume   135.61475220
_cell_formula_units_Z   2
loop_
 _symmetry_equiv_pos_site_id
 _symmetry_equiv_pos_as_xyz
  1  'x, y, z'
loop_
 _atom_site_type_symbol
 _atom_site_label
 _atom_site_symmetry_multiplicity
 _atom_site_fract_x
 _atom_site_fract_y
 _atom_site_fract_z
 _atom_site_occupancy
  Zr  Zr0  1  0.75000000  0.75000000  0.59864400  1
  Zr  Zr1  1  0.25000000  0.25000000  0.40135600  1
  Pb  Pb0  1  0.75000000  0.75000000  0.13406100  1
  Pb  Pb1  1  0.25000000  0.25000000  0.86593900  1
  N  N0  1  0.75000000  0.25000000  0.50000000  1
  N  N1  1  0.25000000  0.75000000  0.50000000  1
  N  N2  1  0.75000000  0.75000000  0.85256100  1
  N  N3  1  0.25000000  0.25000000  0.14743900  1
loop_
_geom_bond_atom_site_label_1
_geom_bond_atom_site_label_2
_geom_bond_distance
_geom_bond_site_symmetry_2
N0 Zr0 2.192065 1_555
N0 Zr0 2.192065 1_545
N0 Zr1 2.192065 1_555
N0 Zr1 2.192065 1_655
N1 Zr0 2.192065 1_555
N1 Zr0 2.192065 1_455
N1 Zr1 2.192065 1_565
N1 Zr1 2.192065 1_555
N2 Zr0 2.070251 1_555
N2 Pb0 2.295142 1_556
N3 Zr1 2.070251 1_555
N3 Pb1 2.295142 1_554
