# generated using pymatgen
data_La8Sb2S15
_symmetry_space_group_name_H-M   'P 1'
_cell_length_a   15.09935611
_cell_length_b   15.09935611
_cell_length_c   15.09935611
_cell_angle_alpha   115.83762644
_cell_angle_beta   115.83762644
_cell_angle_gamma   97.37457333
_symmetry_Int_Tables_number   1
_chemical_formula_structural   La8Sb2S15
_chemical_formula_sum   'La32 Sb8 S60'
_cell_volume   2564.34192686
_cell_formula_units_Z   4
loop_
 _symmetry_equiv_pos_site_id
 _symmetry_equiv_pos_as_xyz
  1  'x, y, z'
loop_
 _atom_site_type_symbol
 _atom_site_label
 _atom_site_symmetry_multiplicity
 _atom_site_fract_x
 _atom_site_fract_y
 _atom_site_fract_z
 _atom_site_occupancy
  La  La0  1  0.41902900  0.04929800  0.33091800  1
  La  La1  1  0.21838000  0.54929800  0.63026900  1
  La  La2  1  0.83811100  0.66902900  0.86973100  1
  La  La3  1  0.33811100  0.46838000  0.16908200  1
  La  La4  1  0.71838000  0.08811100  0.66908200  1
  La  La5  1  0.91902900  0.58811100  0.36973100  1
  La  La6  1  0.79929800  0.96838000  0.13026900  1
  La  La7  1  0.29929800  0.16902900  0.83091800  1
  La  La8  1  0.34597400  0.16928900  0.13532600  1
  La  La9  1  0.53396300  0.66928900  0.82331500  1
  La  La10  1  0.96064800  0.59597400  0.67668500  1
  La  La11  1  0.46064800  0.78396300  0.36467400  1
  La  La12  1  0.03396300  0.21064800  0.86467400  1
  La  La13  1  0.84597400  0.71064800  0.17668500  1
  La  La14  1  0.91928900  0.28396300  0.32331500  1
  La  La15  1  0.41928900  0.09597400  0.63532600  1
  La  La16  1  0.43407700  0.77729000  0.06861800  1
  La  La17  1  0.20867200  0.27729000  0.34321300  1
  La  La18  1  0.11545900  0.68407700  0.15678700  1
  La  La19  1  0.61545900  0.45867200  0.43138200  1
  La  La20  1  0.70867200  0.36545900  0.93138200  1
  La  La21  1  0.93407700  0.86545900  0.65678700  1
  La  La22  1  0.52729000  0.95867200  0.84321300  1
  La  La23  1  0.02729000  0.18407700  0.56861800  1
  La  La24  1  0.15318400  0.85999900  0.00848200  1
  La  La25  1  0.35151700  0.35999900  0.70681500  1
  La  La26  1  0.89470200  0.40318400  0.79318500  1
  La  La27  1  0.39470200  0.60151700  0.49151800  1
  La  La28  1  0.85151700  0.14470200  0.99151800  1
  La  La29  1  0.65318400  0.64470200  0.29318500  1
  La  La30  1  0.60999900  0.10151700  0.20681500  1
  La  La31  1  0.10999900  0.90318400  0.50848200  1
  Sb  Sb0  1  0.25846200  0.86966400  0.81814400  1
  Sb  Sb1  1  0.55152000  0.36966400  0.61120200  1
  Sb  Sb2  1  0.19031800  0.50846200  0.88879800  1
  Sb  Sb3  1  0.69031800  0.80152000  0.68185600  1
  Sb  Sb4  1  0.05152000  0.44031800  0.18185600  1
  Sb  Sb5  1  0.75846200  0.94031800  0.38879800  1
  Sb  Sb6  1  0.61966400  0.30152000  0.11120200  1
  Sb  Sb7  1  0.11966400  0.00846200  0.31814400  1
  S  S0  1  0.24981900  0.24981900  0.00000000  1
  S  S1  1  0.74981900  0.74981900  0.00000000  1
  S  S2  1  0.99981900  0.49981900  0.50000000  1
  S  S3  1  0.49981900  0.99981900  0.50000000  1
  S  S4  1  0.16698400  0.97834000  0.89175300  1
  S  S5  1  0.58658700  0.47834000  0.81135600  1
  S  S6  1  0.02523000  0.41698400  0.68864400  1
  S  S7  1  0.52523000  0.83658700  0.60824700  1
  S  S8  1  0.08658700  0.27523000  0.10824700  1
  S  S9  1  0.66698400  0.77523000  0.18864400  1
  S  S10  1  0.72834000  0.33658700  0.31135600  1
  S  S11  1  0.22834000  0.91698400  0.39175300  1
  S  S12  1  0.37952000  0.57910200  0.85263400  1
  S  S13  1  0.22646900  0.07910200  0.19958200  1
  S  S14  1  0.27688700  0.62952000  0.30041800  1
  S  S15  1  0.77688700  0.47646900  0.64736600  1
  S  S16  1  0.72646900  0.52688700  0.14736600  1
  S  S17  1  0.87952000  0.02688700  0.80041800  1
  S  S18  1  0.32910200  0.97646900  0.69958200  1
  S  S19  1  0.82910200  0.12952000  0.35263400  1
  S  S20  1  0.38317100  0.96920500  0.09664600  1
  S  S21  1  0.37255800  0.46920500  0.58603400  1
  S  S22  1  0.03652400  0.63317100  0.91396600  1
  S  S23  1  0.53652400  0.62255800  0.40335400  1
  S  S24  1  0.87255800  0.28652400  0.90335400  1
  S  S25  1  0.88317100  0.78652400  0.41396600  1
  S  S26  1  0.71920500  0.12255800  0.08603400  1
  S  S27  1  0.21920500  0.13317100  0.59664600  1
  S  S28  1  0.02998300  0.84045300  0.11644500  1
  S  S29  1  0.22400900  0.34045300  0.81047100  1
  S  S30  1  0.66353800  0.27998300  0.68952900  1
  S  S31  1  0.16353800  0.47400900  0.38355500  1
  S  S32  1  0.72400900  0.91353800  0.88355500  1
  S  S33  1  0.52998300  0.41353800  0.18952900  1
  S  S34  1  0.59045300  0.97400900  0.31047100  1
  S  S35  1  0.09045300  0.77998300  0.61644500  1
  S  S36  1  0.37851000  0.73038200  0.69184000  1
  S  S37  1  0.53854200  0.23038200  0.35187200  1
  S  S38  1  0.43667000  0.62851000  0.14812800  1
  S  S39  1  0.93667000  0.78854200  0.80816000  1
  S  S40  1  0.03854200  0.68667000  0.30816000  1
  S  S41  1  0.87851000  0.18667000  0.64812800  1
  S  S42  1  0.48038200  0.28854200  0.85187200  1
  S  S43  1  0.98038200  0.12851000  0.19184000  1
  S  S44  1  0.30232700  0.80972300  0.17685400  1
  S  S45  1  0.13286900  0.30972300  0.50739600  1
  S  S46  1  0.87547300  0.55232700  0.99260400  1
  S  S47  1  0.37547300  0.38286900  0.32314600  1
  S  S48  1  0.63286900  0.12547300  0.82314600  1
  S  S49  1  0.80232700  0.62547300  0.49260400  1
  S  S50  1  0.55972300  0.88286900  0.00739600  1
  S  S51  1  0.05972300  0.05232700  0.67685400  1
  S  S52  1  0.20385700  0.71495600  0.83595400  1
  S  S53  1  0.37900200  0.21495600  0.51109900  1
  S  S54  1  0.11790300  0.45385700  0.98890100  1
  S  S55  1  0.61790300  0.62900200  0.66404600  1
  S  S56  1  0.87900200  0.36790300  0.16404600  1
  S  S57  1  0.70385700  0.86790300  0.48890100  1
  S  S58  1  0.46495600  0.12900200  0.01109900  1
  S  S59  1  0.96495600  0.95385700  0.33595400  1
loop_
_geom_bond_atom_site_label_1
_geom_bond_atom_site_label_2
_geom_bond_distance
_geom_bond_site_symmetry_2
La0 S3 2.783180 1_545
La0 S37 2.883459 1_555
La0 S13 2.945653 1_555
La0 S20 2.949959 1_545
La0 S44 3.009655 1_545
La0 S34 3.038659 1_545
La0 S53 3.148543 1_555
La1 S2 2.783180 1_455
La1 S36 2.883459 1_555
La1 S12 2.945664 1_555
La1 S21 2.949945 1_555
La1 S45 3.009655 1_555
La1 S31 3.038674 1_555
La1 S52 3.148543 1_555
La2 S1 2.783180 1_556
La2 S39 2.883459 1_555
La2 S15 2.945661 1_555
La2 S22 2.949945 1_655
La2 S46 3.009655 1_555
La2 S28 3.038671 1_656
La2 S55 3.148543 1_555
La3 S0 2.783180 1_555
La3 S38 2.883459 1_555
La3 S14 2.945653 1_555
La3 S23 2.949951 1_555
La3 S47 3.009655 1_555
La3 S33 3.038674 1_555
La3 S54 3.148543 1_554
La4 S3 2.783180 1_545
La4 S41 2.883459 1_555
La4 S17 2.945653 1_555
La4 S24 2.949951 1_555
La4 S48 3.009655 1_555
La4 S30 3.038674 1_555
La4 S57 3.148543 1_545
La5 S2 2.783180 1_555
La5 S40 2.883459 1_655
La5 S16 2.945661 1_555
La5 S25 2.949945 1_555
La5 S49 3.009655 1_555
La5 S35 3.038671 1_655
La5 S56 3.148543 1_555
La6 S1 2.783180 1_555
La6 S43 2.883459 1_565
La6 S19 2.945664 1_565
La6 S26 2.949945 1_565
La6 S50 3.009655 1_555
La6 S32 3.038674 1_554
La6 S59 3.148543 1_555
La7 S0 2.783180 1_556
La7 S42 2.883459 1_555
La7 S18 2.945653 1_545
La7 S27 2.949959 1_555
La7 S51 3.009655 1_555
La7 S29 3.038659 1_555
La7 S58 3.148543 1_556
La8 S0 2.791900 1_555
La8 S13 2.845806 1_555
La8 S37 2.896876 1_555
La8 S20 2.994556 1_545
La8 S47 3.033076 1_555
La8 S4 3.039118 1_544
La8 S58 3.056039 1_555
La9 S1 2.791900 1_556
La9 S12 2.845817 1_555
La9 S36 2.896876 1_555
La9 S21 2.994558 1_555
La9 S50 3.033076 1_556
La9 S5 3.039118 1_555
La9 S55 3.056039 1_555
La10 S2 2.791900 1_555
La10 S15 2.845798 1_555
La10 S39 2.896876 1_555
La10 S22 2.994558 1_655
La10 S49 3.033076 1_555
La10 S6 3.039111 1_655
La10 S52 3.056039 1_655
La11 S3 2.791900 1_555
La11 S14 2.845806 1_555
La11 S38 2.896876 1_555
La11 S23 2.994564 1_555
La11 S44 3.033076 1_555
La11 S7 3.039121 1_555
La11 S57 3.056039 1_555
La12 S0 2.791900 1_556
La12 S17 2.845806 1_455
La12 S41 2.896876 1_455
La12 S24 2.994564 1_455
La12 S51 3.033076 1_555
La12 S8 3.039121 1_556
La12 S54 3.056039 1_555
La13 S1 2.791900 1_555
La13 S16 2.845798 1_555
La13 S40 2.896876 1_655
La13 S25 2.994558 1_555
La13 S46 3.033076 1_554
La13 S9 3.039111 1_555
La13 S59 3.056039 1_555
La14 S2 2.791900 1_555
La14 S19 2.845817 1_555
La14 S43 2.896876 1_555
La14 S26 2.994558 1_555
La14 S45 3.033076 1_655
La14 S10 3.039118 1_555
La14 S56 3.056039 1_555
La15 S3 2.791900 1_545
La15 S18 2.845806 1_545
La15 S42 2.896876 1_555
La15 S27 2.994556 1_555
La15 S48 3.033076 1_555
La15 S11 3.039118 1_545
La15 S53 3.056039 1_555
La16 S12 2.964486 1_554
La16 S38 2.970182 1_555
La16 S20 2.992242 1_555
La16 S34 2.993781 1_555
La16 S50 3.005326 1_555
La16 S44 3.042130 1_555
La16 S9 3.189794 1_555
La16 S52 3.308287 1_554
La17 S13 2.964495 1_555
La17 S43 2.970182 1_455
La17 S21 2.992239 1_555
La17 S31 2.993783 1_555
La17 S47 3.005326 1_555
La17 S45 3.042130 1_555
La17 S8 3.189780 1_555
La17 S53 3.308287 1_555
La18 S14 2.964495 1_555
La18 S40 2.970182 1_555
La18 S22 2.992239 1_554
La18 S28 2.993769 1_555
La18 S44 3.005326 1_555
La18 S46 3.042130 1_454
La18 S11 3.189788 1_555
La18 S54 3.308287 1_554
La19 S15 2.964484 1_555
La19 S37 2.970182 1_555
La19 S23 2.992234 1_555
La19 S33 2.993783 1_555
La19 S49 3.005326 1_555
La19 S47 3.042130 1_555
La19 S10 3.189788 1_555
La19 S55 3.308287 1_555
La20 S16 2.964484 1_556
La20 S42 2.970182 1_555
La20 S24 2.992234 1_555
La20 S30 2.993783 1_555
La20 S46 3.005326 1_555
La20 S48 3.042130 1_555
La20 S5 3.189788 1_555
La20 S56 3.308287 1_556
La21 S17 2.964495 1_565
La21 S39 2.970182 1_555
La21 S25 2.992239 1_555
La21 S35 2.993769 1_655
La21 S51 3.005326 1_665
La21 S49 3.042130 1_555
La21 S4 3.189788 1_655
La21 S57 3.308287 1_555
La22 S18 2.964495 1_555
La22 S36 2.970182 1_555
La22 S26 2.992239 1_566
La22 S32 2.993783 1_555
La22 S48 3.005326 1_565
La22 S50 3.042130 1_556
La22 S7 3.189780 1_555
La22 S58 3.308287 1_566
La23 S19 2.964486 1_455
La23 S41 2.970182 1_455
La23 S27 2.992242 1_555
La23 S29 2.993781 1_555
La23 S45 3.005326 1_555
La23 S51 3.042130 1_555
La23 S6 3.189794 1_555
La23 S59 3.308287 1_445
La24 S13 2.907188 1_565
La24 S39 2.937946 1_454
La24 S22 2.978162 1_554
La24 S28 3.021064 1_555
La24 S20 3.022857 1_555
La24 S44 3.040021 1_555
La24 S4 3.051650 1_554
La24 S52 3.059856 1_554
La25 S12 2.907191 1_555
La25 S42 2.937946 1_555
La25 S27 2.978159 1_555
La25 S29 3.021064 1_555
La25 S21 3.022852 1_555
La25 S45 3.040021 1_555
La25 S5 3.051650 1_555
La25 S53 3.059856 1_555
La26 S15 2.907198 1_555
La26 S41 2.937946 1_555
La26 S24 2.978175 1_555
La26 S30 3.021061 1_555
La26 S22 3.022852 1_655
La26 S46 3.040021 1_555
La26 S6 3.051637 1_655
La26 S54 3.059856 1_655
La27 S14 2.907188 1_555
La27 S36 2.937946 1_555
La27 S21 2.978162 1_555
La27 S31 3.021061 1_555
La27 S23 3.022840 1_555
La27 S47 3.040021 1_555
La27 S7 3.051647 1_555
La27 S55 3.059856 1_555
La28 S17 2.907188 1_555
La28 S43 2.937946 1_556
La28 S26 2.978162 1_556
La28 S32 3.021061 1_545
La28 S24 3.022840 1_555
La28 S48 3.040021 1_555
La28 S8 3.051647 1_656
La28 S56 3.059856 1_556
La29 S16 2.907198 1_555
La29 S38 2.937946 1_555
La29 S23 2.978175 1_555
La29 S33 3.021061 1_555
La29 S25 3.022852 1_555
La29 S49 3.040021 1_555
La29 S9 3.051637 1_555
La29 S57 3.059856 1_555
La30 S19 2.907191 1_555
La30 S37 2.937946 1_555
La30 S20 2.978159 1_545
La30 S34 3.021064 1_545
La30 S26 3.022852 1_555
La30 S50 3.040021 1_545
La30 S10 3.051650 1_555
La30 S58 3.059856 1_555
La31 S18 2.907188 1_555
La31 S40 2.937946 1_555
La31 S25 2.978162 1_455
La31 S35 3.021064 1_555
La31 S27 3.022857 1_565
La31 S51 3.040021 1_565
La31 S11 3.051650 1_555
La31 S59 3.059856 1_455
S4 Sb0 2.483173 1_555
S5 Sb1 2.483173 1_555
S6 Sb2 2.483179 1_555
S7 Sb3 2.483185 1_555
S8 Sb4 2.483185 1_555
S9 Sb5 2.483179 1_555
S10 Sb6 2.483173 1_555
S11 Sb7 2.483173 1_565
S28 Sb7 2.516653 1_565
S29 Sb2 2.516659 1_555
S30 Sb1 2.516647 1_555
S31 Sb4 2.516647 1_555
S32 Sb3 2.516647 1_555
S33 Sb6 2.516647 1_555
S34 Sb5 2.516659 1_555
S35 Sb0 2.516653 1_555
S52 Sb0 2.540742 1_555
S53 Sb1 2.540742 1_555
S54 Sb2 2.540742 1_555
S55 Sb3 2.540742 1_555
S56 Sb4 2.540742 1_655
S57 Sb5 2.540742 1_555
S58 Sb6 2.540742 1_555
S59 Sb7 2.540742 1_665
