# generated using pymatgen
data_CrFe
_symmetry_space_group_name_H-M   'P 1'
_cell_length_a   4.85872994
_cell_length_b   4.85872994
_cell_length_c   8.04593400
_cell_angle_alpha   90.00000000
_cell_angle_beta   90.00000000
_cell_angle_gamma   106.02836721
_symmetry_Int_Tables_number   1
_chemical_formula_structural   CrFe
_chemical_formula_sum   'Cr8 Fe8'
_cell_volume   182.55843798
_cell_formula_units_Z   8
loop_
 _symmetry_equiv_pos_site_id
 _symmetry_equiv_pos_as_xyz
  1  'x, y, z'
loop_
 _atom_site_type_symbol
 _atom_site_label
 _atom_site_symmetry_multiplicity
 _atom_site_fract_x
 _atom_site_fract_y
 _atom_site_fract_z
 _atom_site_occupancy
  Cr  Cr0_0  1  0.00000000  0.00000000  0.00000000  1
  Cr  Cr0_1  1  0.00000000  0.00000000  0.50000000  1
  Cr  Cr0_2  1  0.00000000  0.50000000  0.00000000  1
  Cr  Cr0_3  1  0.00000000  0.50000000  0.50000000  1
  Cr  Cr0_4  1  0.50000000  0.00000000  0.00000000  1
  Cr  Cr0_5  1  0.50000000  0.00000000  0.50000000  1
  Cr  Cr0_6  1  0.50000000  0.50000000  0.00000000  1
  Cr  Cr0_7  1  0.50000000  0.50000000  0.50000000  1
  Fe  Fe0_0  1  0.25000000  0.25000000  0.25000000  1
  Fe  Fe0_1  1  0.25000000  0.25000000  0.75000000  1
  Fe  Fe0_2  1  0.25000000  0.75000000  0.25000000  1
  Fe  Fe0_3  1  0.25000000  0.75000000  0.75000000  1
  Fe  Fe0_4  1  0.75000000  0.25000000  0.25000000  1
  Fe  Fe0_5  1  0.75000000  0.25000000  0.75000000  1
  Fe  Fe0_6  1  0.75000000  0.75000000  0.25000000  1
  Fe  Fe0_7  1  0.75000000  0.75000000  0.75000000  1
loop_
_geom_bond_atom_site_label_1
_geom_bond_atom_site_label_2
_geom_bond_distance
_geom_bond_site_symmetry_2
Cr0_0 Cr0_4 2.429365 1_555
Cr0_0 Cr0_2 2.429365 1_555
Cr0_0 Cr0_2 2.429365 1_545
Cr0_0 Cr0_4 2.429365 1_455
Cr0_0 Fe0_0 2.486401 1_555
Cr0_0 Fe0_6 2.486401 1_445
Cr0_0 Fe0_1 2.486401 1_554
Cr0_0 Fe0_7 2.486401 1_444
Cr0_1 Cr0_5 2.429365 1_555
Cr0_1 Cr0_3 2.429365 1_555
Cr0_1 Cr0_5 2.429365 1_455
Cr0_1 Cr0_3 2.429365 1_545
Cr0_1 Fe0_1 2.486401 1_555
Cr0_1 Fe0_7 2.486401 1_445
Cr0_1 Fe0_0 2.486401 1_555
Cr0_1 Fe0_6 2.486401 1_445
Cr0_2 Cr0_6 2.429365 1_555
Cr0_2 Cr0_6 2.429365 1_455
Cr0_2 Fe0_2 2.486401 1_555
Cr0_2 Fe0_4 2.486401 1_455
Cr0_2 Fe0_3 2.486401 1_554
Cr0_2 Fe0_5 2.486401 1_454
Cr0_3 Cr0_7 2.429365 1_555
Cr0_3 Cr0_7 2.429365 1_455
Cr0_3 Fe0_3 2.486401 1_555
Cr0_3 Fe0_5 2.486401 1_455
Cr0_3 Fe0_2 2.486401 1_555
Cr0_3 Fe0_4 2.486401 1_455
Cr0_4 Cr0_6 2.429365 1_545
Cr0_4 Cr0_6 2.429365 1_555
Cr0_4 Fe0_4 2.486401 1_555
Cr0_4 Fe0_2 2.486401 1_545
Cr0_4 Fe0_5 2.486401 1_554
Cr0_4 Fe0_3 2.486401 1_544
Cr0_5 Cr0_7 2.429365 1_555
Cr0_5 Cr0_7 2.429365 1_545
Cr0_5 Fe0_3 2.486401 1_545
Cr0_5 Fe0_5 2.486401 1_555
Cr0_5 Fe0_4 2.486401 1_555
Cr0_5 Fe0_2 2.486401 1_545
Cr0_6 Fe0_6 2.486401 1_555
Cr0_6 Fe0_7 2.486401 1_554
Cr0_6 Fe0_0 2.486401 1_555
Cr0_6 Fe0_1 2.486401 1_554
Cr0_7 Fe0_7 2.486401 1_555
Cr0_7 Fe0_1 2.486401 1_555
Cr0_7 Fe0_6 2.486401 1_555
Cr0_7 Fe0_0 2.486401 1_555
Fe0_0 Fe0_2 2.429365 1_545
Fe0_0 Fe0_2 2.429365 1_555
Fe0_0 Fe0_4 2.429365 1_455
Fe0_0 Fe0_4 2.429365 1_555
Fe0_1 Fe0_5 2.429365 1_555
Fe0_1 Fe0_3 2.429365 1_555
Fe0_1 Fe0_5 2.429365 1_455
Fe0_1 Fe0_3 2.429365 1_545
Fe0_2 Fe0_6 2.429365 1_555
Fe0_2 Fe0_6 2.429365 1_455
Fe0_3 Fe0_7 2.429365 1_555
Fe0_3 Fe0_7 2.429365 1_455
Fe0_4 Fe0_6 2.429365 1_555
Fe0_4 Fe0_6 2.429365 1_545
Fe0_5 Fe0_7 2.429365 1_555
Fe0_5 Fe0_7 2.429365 1_545
