# generated using pymatgen
data_HfMg6CrO8
_symmetry_space_group_name_H-M   'P 1'
_cell_length_a   9.08091147
_cell_length_b   4.31394561
_cell_length_c   4.31394561
_cell_angle_alpha   90.00000000
_cell_angle_beta   90.00000000
_cell_angle_gamma   90.00000000
_symmetry_Int_Tables_number   1
_chemical_formula_structural   HfMg6CrO8
_chemical_formula_sum   'Hf1 Mg6 Cr1 O8'
_cell_volume   168.99691324
_cell_formula_units_Z   1
loop_
 _symmetry_equiv_pos_site_id
 _symmetry_equiv_pos_as_xyz
  1  'x, y, z'
loop_
 _atom_site_type_symbol
 _atom_site_label
 _atom_site_symmetry_multiplicity
 _atom_site_fract_x
 _atom_site_fract_y
 _atom_site_fract_z
 _atom_site_occupancy
  Hf  Hf0  1  0.00000000  0.50000000  0.50000000  1
  Mg  Mg0  1  0.50000000  0.00000000  -0.00000000  1
  Mg  Mg1  1  0.50000000  0.50000000  0.50000000  1
  Mg  Mg2  1  0.26348354  0.00000000  0.50000000  1
  Mg  Mg3  1  0.73651646  0.00000000  0.50000000  1
  Mg  Mg4  1  0.26348354  0.50000000  -0.00000000  1
  Mg  Mg5  1  0.73651646  0.50000000  0.00000000  1
  Cr  Cr0  1  0.00000000  0.00000000  -0.00000000  1
  O  O0  1  0.27340779  0.00000000  0.00000000  1
  O  O1  1  0.72659221  -0.00000000  -0.00000000  1
  O  O2  1  0.25180779  0.50000000  0.50000000  1
  O  O3  1  0.74819221  0.50000000  0.50000000  1
  O  O4  1  0.00000000  0.00000000  0.50000000  1
  O  O5  1  0.50000000  0.00000000  0.50000000  1
  O  O6  1  0.00000000  0.50000000  -0.00000000  1
  O  O7  1  0.50000000  0.50000000  -0.00000000  1
loop_
_geom_bond_atom_site_label_1
_geom_bond_atom_site_label_2
_geom_bond_distance
_geom_bond_site_symmetry_2
Hf0 O4 2.156973 1_555
Hf0 O4 2.156973 1_565
Hf0 O6 2.156973 1_556
Hf0 O6 2.156973 1_555
Hf0 O3 2.286644 1_455
Hf0 O2 2.286644 1_555
Mg0 O1 2.057664 1_555
Mg0 O0 2.057664 1_555
Mg0 O7 2.156973 1_555
Mg0 O5 2.156973 1_554
Mg0 O5 2.156973 1_555
Mg0 O7 2.156973 1_545
Mg1 O7 2.156973 1_555
Mg1 O7 2.156973 1_556
Mg1 O5 2.156973 1_555
Mg1 O5 2.156973 1_565
Mg1 O2 2.253811 1_555
Mg1 O3 2.253811 1_555
Mg2 O5 2.147785 1_555
Mg2 O0 2.158855 1_555
Mg2 O0 2.158855 1_556
Mg2 O2 2.159577 1_555
Mg2 O2 2.159577 1_545
Mg2 O4 2.392671 1_555
Mg3 O5 2.147785 1_555
Mg3 O1 2.158855 1_555
Mg3 O1 2.158855 1_556
Mg3 O3 2.159577 1_545
Mg3 O3 2.159577 1_555
Mg3 O4 2.392671 1_655
Mg4 O7 2.147785 1_555
Mg4 O0 2.158855 1_565
Mg4 O0 2.158855 1_555
Mg4 O2 2.159577 1_554
Mg4 O2 2.159577 1_555
Mg4 O6 2.392671 1_555
Mg5 O7 2.147785 1_555
Mg5 O1 2.158855 1_555
Mg5 O1 2.158855 1_565
Mg5 O3 2.159577 1_555
Mg5 O3 2.159577 1_554
Mg5 O6 2.392671 1_655
Cr0 O4 2.156973 1_555
Cr0 O4 2.156973 1_554
Cr0 O6 2.156973 1_545
Cr0 O6 2.156973 1_555
Cr0 O0 2.482792 1_555
Cr0 O1 2.482792 1_455
