# generated using pymatgen
data_Ca5Mn2(NiO6)2
_symmetry_space_group_name_H-M   'P 1'
_cell_length_a   6.38401965
_cell_length_b   6.38401965
_cell_length_c   6.38039489
_cell_angle_alpha   86.98034957
_cell_angle_beta   86.98034957
_cell_angle_gamma   93.38302609
_symmetry_Int_Tables_number   1
_chemical_formula_structural   Ca5Mn2(NiO6)2
_chemical_formula_sum   'Ca5 Mn2 Ni2 O12'
_cell_volume   258.81769278
_cell_formula_units_Z   1
loop_
 _symmetry_equiv_pos_site_id
 _symmetry_equiv_pos_as_xyz
  1  'x, y, z'
loop_
 _atom_site_type_symbol
 _atom_site_label
 _atom_site_symmetry_multiplicity
 _atom_site_fract_x
 _atom_site_fract_y
 _atom_site_fract_z
 _atom_site_occupancy
  Ca  Ca0  1  0.25556300  0.10914400  0.86503100  1
  Ca  Ca1  1  0.12258800  0.26306100  0.35665200  1
  Ca  Ca2  1  0.73693900  0.87741200  0.64334800  1
  Ca  Ca3  1  0.60942300  0.39057700  0.50000000  1
  Ca  Ca4  1  0.89085600  0.74443700  0.13496900  1
  Mn  Mn0  1  0.49970000  0.99656800  0.25210900  1
  Mn  Mn1  1  0.00343200  0.50030000  0.74789100  1
  Ni  Ni0  1  0.75169500  0.24830500  0.00000000  1
  Ni  Ni1  1  0.24936800  0.75063200  0.50000000  1
  O  O0  1  0.54922900  0.71993900  0.34987000  1
  O  O1  1  0.47926000  0.28577600  0.17075500  1
  O  O2  1  0.79622800  0.08239900  0.27841500  1
  O  O3  1  0.58936000  0.98501100  0.95895200  1
  O  O4  1  0.71422400  0.52074000  0.82924500  1
  O  O5  1  0.01498900  0.41064000  0.04104800  1
  O  O6  1  0.06267200  0.79156200  0.78058900  1
  O  O7  1  0.95497700  0.57497100  0.45916900  1
  O  O8  1  0.28006100  0.45077100  0.65013000  1
  O  O9  1  0.42502900  0.04502300  0.54083100  1
  O  O10  1  0.20843800  0.93732800  0.21941100  1
  O  O11  1  0.91760100  0.20377200  0.72158500  1
loop_
_geom_bond_atom_site_label_1
_geom_bond_atom_site_label_2
_geom_bond_distance
_geom_bond_site_symmetry_2
Ca0 O9 2.350003 1_555
Ca0 O6 2.409886 1_545
Ca0 O3 2.410796 1_545
Ca0 O10 2.456468 1_546
Ca0 O11 2.482193 1_455
Ca0 O8 2.506625 1_555
Ca0 O1 2.729677 1_556
Ca0 O5 2.778420 1_556
Ca1 O5 2.331657 1_555
Ca1 O10 2.380588 1_545
Ca1 O2 2.409762 1_455
Ca1 O7 2.419256 1_455
Ca1 O8 2.499103 1_555
Ca1 O1 2.504187 1_555
Ca1 O11 2.608637 1_455
Ca1 O9 2.725865 1_555
Ca2 O3 2.331657 1_555
Ca2 O6 2.380588 1_655
Ca2 O11 2.409762 1_565
Ca2 O9 2.419256 1_565
Ca2 O0 2.499103 1_555
Ca2 O4 2.504187 1_555
Ca2 O2 2.608637 1_565
Ca2 O7 2.725865 1_555
Ca3 O8 2.325579 1_555
Ca3 O0 2.325579 1_555
Ca3 O4 2.411950 1_555
Ca3 O1 2.411950 1_555
Ca3 O7 2.433270 1_555
Ca3 O9 2.433270 1_555
Ca3 O11 2.772019 1_555
Ca3 O2 2.772019 1_555
Ca4 O7 2.350003 1_555
Ca4 O10 2.409886 1_655
Ca4 O5 2.410796 1_655
Ca4 O6 2.456468 1_654
Ca4 O2 2.482193 1_565
Ca4 O0 2.506625 1_555
Ca4 O4 2.729677 1_554
Ca4 O3 2.778420 1_554
Mn0 O0 1.891678 1_555
Mn0 O10 1.900051 1_555
Mn0 O1 1.905235 1_565
Mn0 O9 1.923905 1_565
Mn0 O3 1.933497 1_554
Mn0 O2 1.957744 1_565
Mn1 O8 1.891678 1_555
Mn1 O6 1.900051 1_555
Mn1 O4 1.905235 1_455
Mn1 O7 1.923905 1_455
Mn1 O5 1.933497 1_556
Mn1 O11 1.957744 1_455
Ni0 O5 1.958913 1_655
Ni0 O3 1.958913 1_544
Ni0 O4 2.036184 1_554
Ni0 O1 2.036184 1_555
Ni0 O11 2.061244 1_554
Ni0 O2 2.061244 1_555
Ni1 O0 2.119295 1_555
Ni1 O8 2.119295 1_555
Ni1 O6 2.134275 1_555
Ni1 O10 2.134275 1_555
Ni1 O7 2.165922 1_455
Ni1 O9 2.165922 1_565
