# generated using pymatgen
data_BaNaAlMo6(H13O17)2
_symmetry_space_group_name_H-M   'P 1'
_cell_length_a   11.32175401
_cell_length_b   11.55881397
_cell_length_c   13.32409529
_cell_angle_alpha   115.70616425
_cell_angle_beta   95.12096319
_cell_angle_gamma   90.00000000
_symmetry_Int_Tables_number   1
_chemical_formula_structural   BaNaAlMo6(H13O17)2
_chemical_formula_sum   'Ba2 Na2 Al2 Mo12 H52 O68'
_cell_volume   1563.37315898
_cell_formula_units_Z   2
loop_
 _symmetry_equiv_pos_site_id
 _symmetry_equiv_pos_as_xyz
  1  'x, y, z'
loop_
 _atom_site_type_symbol
 _atom_site_label
 _atom_site_symmetry_multiplicity
 _atom_site_fract_x
 _atom_site_fract_y
 _atom_site_fract_z
 _atom_site_occupancy
  Ba  Ba0  1  0.25000000  0.34519998  1.00000000  1
  Ba  Ba1  1  0.75000000  0.65480002  0.00000000  1
  Na  Na0  1  0.25000000  0.95751750  1.00000000  1
  Na  Na1  1  0.75000000  0.04248250  0.00000000  1
  Al  Al0  1  0.50000000  0.00000000  0.50000000  1
  Al  Al1  1  -0.00000000  0.50000000  0.50000000  1
  Mo  Mo0  1  0.27962899  0.96620838  0.63781523  1
  Mo  Mo1  1  0.22037101  0.32839315  0.36218477  1
  Mo  Mo2  1  0.72037101  0.03379162  0.36218477  1
  Mo  Mo3  1  0.77962899  0.67160685  0.63781523  1
  Mo  Mo4  1  0.25105642  0.83203502  0.35731647  1
  Mo  Mo5  1  0.24894358  0.47471856  0.64268353  1
  Mo  Mo6  1  0.74894358  0.16796498  0.64268353  1
  Mo  Mo7  1  0.75105642  0.52528144  0.35731647  1
  Mo  Mo8  1  0.47032824  0.86538425  0.21639241  1
  Mo  Mo9  1  0.02967176  0.64899185  0.78360759  1
  Mo  Mo10  1  0.52967176  0.13461575  0.78360759  1
  Mo  Mo11  1  0.97032824  0.35100815  0.21639241  1
  H  H0  1  0.62639561  0.80957985  0.37643694  1
  H  H1  1  0.87360439  0.43314291  0.62356306  1
  H  H2  1  0.37360439  0.19042015  0.62356306  1
  H  H3  1  0.12639561  0.56685709  0.37643694  1
  H  H4  1  0.56999584  0.22155603  0.51037086  1
  H  H5  1  0.93000416  0.71118517  0.48962914  1
  H  H6  1  0.43000416  0.77844397  0.48962914  1
  H  H7  1  0.06999584  0.28881483  0.51037086  1
  H  H8  1  0.65071190  0.92808280  0.62065145  1
  H  H9  1  0.84928810  0.30743135  0.37934855  1
  H  H10  1  0.34928810  0.07191720  0.37934855  1
  H  H11  1  0.15071190  0.69256865  0.62065145  1
  H  H12  1  0.34761672  0.21409679  0.14635066  1
  H  H13  1  0.15238328  0.06774612  0.85364934  1
  H  H14  1  0.65238328  0.78590321  0.85364934  1
  H  H15  1  0.84761672  0.93225388  0.14635066  1
  H  H16  1  0.45433045  0.14885893  0.08058400  1
  H  H17  1  0.04566955  0.06827493  0.91941600  1
  H  H18  1  0.54566955  0.85114107  0.91941600  1
  H  H19  1  0.95433045  0.93172507  0.08058400  1
  H  H20  1  0.30560947  0.56602349  0.90571486  1
  H  H21  1  0.19439053  0.66030862  0.09428514  1
  H  H22  1  0.69439053  0.43397651  0.09428514  1
  H  H23  1  0.80560947  0.33969138  0.90571486  1
  H  H24  1  0.43040486  0.50969256  0.90561278  1
  H  H25  1  0.06959514  0.60407978  0.09438722  1
  H  H26  1  0.56959514  0.49030744  0.09438722  1
  H  H27  1  0.93040486  0.39592022  0.90561278  1
  H  H28  1  0.04033509  0.25367957  0.77469922  1
  H  H29  1  0.45966491  0.47898035  0.22530078  1
  H  H30  1  0.95966491  0.74632043  0.22530078  1
  H  H31  1  0.54033509  0.52101965  0.77469922  1
  H  H32  1  0.08617045  0.39188956  0.79886224  1
  H  H33  1  0.41382955  0.59302732  0.20113776  1
  H  H34  1  0.91382955  0.60811044  0.20113776  1
  H  H35  1  0.58617045  0.40697268  0.79886224  1
  H  H36  1  0.37232654  0.77507172  0.81858303  1
  H  H37  1  0.12767346  0.95648868  0.18141697  1
  H  H38  1  0.62767346  0.22492828  0.18141697  1
  H  H39  1  0.87232654  0.04351132  0.81858303  1
  H  H40  1  0.41120795  0.90787019  0.82350465  1
  H  H41  1  0.08879205  0.08436554  0.17649535  1
  H  H42  1  0.58879205  0.09212981  0.17649535  1
  H  H43  1  0.91120795  0.91563446  0.82350465  1
  H  H44  1  0.40054651  0.58170998  0.47326609  1
  H  H45  1  0.09945349  0.10844390  0.52673391  1
  H  H46  1  0.59945349  0.41829002  0.52673391  1
  H  H47  1  0.90054651  0.89155610  0.47326609  1
  H  H48  1  0.53776366  0.60797960  0.47851621  1
  H  H49  1  0.96223634  0.12946339  0.52148379  1
  H  H50  1  0.46223634  0.39202040  0.52148379  1
  H  H51  1  0.03776366  0.87053661  0.47851621  1
  O  O0  1  0.59048975  0.89012330  0.38058086  1
  O  O1  1  0.90951025  0.50954244  0.61941914  1
  O  O2  1  0.40951025  0.10987670  0.61941914  1
  O  O3  1  0.09048975  0.49045756  0.38058086  1
  O  O4  1  0.60012737  0.13552617  0.50303722  1
  O  O5  1  0.89987263  0.63248896  0.49696278  1
  O  O6  1  0.39987263  0.86447383  0.49696278  1
  O  O7  1  0.10012737  0.36751104  0.50303722  1
  O  O8  1  0.61350948  0.00589490  0.61917215  1
  O  O9  1  0.88649052  0.38672275  0.38082785  1
  O  O10  1  0.38649052  0.99410510  0.38082785  1
  O  O11  1  0.11350948  0.61327725  0.61917215  1
  O  O12  1  0.42499156  0.98054826  0.73488486  1
  O  O13  1  0.07500844  0.24566340  0.26511514  1
  O  O14  1  0.57500844  0.01945174  0.26511514  1
  O  O15  1  0.92499156  0.75433660  0.73488486  1
  O  O16  1  0.22233630  0.82224550  0.63093971  1
  O  O17  1  0.27766370  0.19130580  0.36906029  1
  O  O18  1  0.77766370  0.17775450  0.36906029  1
  O  O19  1  0.72233630  0.80869420  0.63093971  1
  O  O20  1  0.20129494  0.08757599  0.73423756  1
  O  O21  1  0.29870506  0.35333843  0.26576244  1
  O  O22  1  0.79870506  0.91242401  0.26576244  1
  O  O23  1  0.70129494  0.64666157  0.73423756  1
  O  O24  1  0.19478607  0.96125827  0.49972155  1
  O  O25  1  0.30521393  0.46153672  0.50027845  1
  O  O26  1  0.80521393  0.03874173  0.50027845  1
  O  O27  1  0.69478607  0.53846328  0.49972155  1
  O  O28  1  0.19459290  0.69337243  0.36008967  1
  O  O29  1  0.30540710  0.33328276  0.63991033  1
  O  O30  1  0.80540710  0.30662757  0.63991033  1
  O  O31  1  0.69459290  0.66671724  0.36008967  1
  O  O32  1  0.15093693  0.86671614  0.26728912  1
  O  O33  1  0.34906307  0.59942702  0.73271088  1
  O  O34  1  0.84906307  0.13328386  0.73271088  1
  O  O35  1  0.65093693  0.40057298  0.26728912  1
  O  O36  1  0.37365296  0.75238726  0.25619622  1
  O  O37  1  0.12634704  0.49619105  0.74380378  1
  O  O38  1  0.62634704  0.24761274  0.74380378  1
  O  O39  1  0.87365296  0.50380895  0.25619622  1
  O  O40  1  0.36683043  0.89592099  0.12797676  1
  O  O41  1  0.13316957  0.76794423  0.87202324  1
  O  O42  1  0.63316957  0.10407901  0.87202324  1
  O  O43  1  0.86683043  0.23205577  0.12797676  1
  O  O44  1  0.56099473  0.75146266  0.12855765  1
  O  O45  1  0.93900527  0.62290501  0.87144235  1
  O  O46  1  0.43900527  0.24853734  0.87144235  1
  O  O47  1  0.06099473  0.37709499  0.12855765  1
  O  O48  1  0.36762185  0.16069136  0.06946723  1
  O  O49  1  0.13237815  0.09122414  0.93053277  1
  O  O50  1  0.63237815  0.83930864  0.93053277  1
  O  O51  1  0.86762185  0.90877586  0.06946723  1
  O  O52  1  0.35473836  0.52210423  0.94068272  1
  O  O53  1  0.14526164  0.58142151  0.05931728  1
  O  O54  1  0.64526164  0.47789577  0.05931728  1
  O  O55  1  0.85473836  0.41857849  0.94068272  1
  O  O56  1  0.06408152  0.33764154  0.83599540  1
  O  O57  1  0.43591848  0.50164614  0.16400460  1
  O  O58  1  0.93591848  0.66235846  0.16400460  1
  O  O59  1  0.56408152  0.49835386  0.83599540  1
  O  O60  1  0.39931936  0.86365935  0.87134298  1
  O  O61  1  0.10068064  0.99231637  0.12865702  1
  O  O62  1  0.60068064  0.13634065  0.12865702  1
  O  O63  1  0.89931936  0.00768363  0.87134298  1
  O  O64  1  0.45966008  0.63152319  0.45631477  1
  O  O65  1  0.04033992  0.17520842  0.54368523  1
  O  O66  1  0.54033992  0.36847681  0.54368523  1
  O  O67  1  0.95966008  0.82479158  0.45631477  1
loop_
_geom_bond_atom_site_label_1
_geom_bond_atom_site_label_2
_geom_bond_distance
_geom_bond_site_symmetry_2
Ba0 O47 2.784879 1_556
Ba0 O46 2.784879 1_555
Ba0 O52 2.789507 1_555
Ba0 O53 2.789507 1_556
Ba0 O56 2.868230 1_555
Ba0 O57 2.868230 1_556
Ba0 O49 2.944647 1_555
Ba0 O48 2.944647 1_556
Ba1 O45 2.784879 1_554
Ba1 O44 2.784879 1_555
Ba1 O54 2.789507 1_555
Ba1 O55 2.789507 1_554
Ba1 O58 2.868230 1_555
Ba1 O59 2.868230 1_554
Ba1 O51 2.944647 1_555
Ba1 O50 2.944647 1_554
Na0 O40 2.411370 1_556
Na0 O41 2.411370 1_555
Na0 O61 2.424369 1_556
Na0 O60 2.424369 1_555
Na0 O48 2.457553 1_566
Na0 O49 2.457553 1_565
Na1 O42 2.411370 1_554
Na1 O43 2.411370 1_555
Na1 O63 2.424369 1_554
Na1 O62 2.424369 1_555
Na1 O50 2.457553 1_544
Na1 O51 2.457553 1_545
Al0 O6 1.917689 1_545
Al0 O4 1.917689 1_555
Al0 O10 1.928562 1_545
Al0 O8 1.928562 1_555
Al0 O2 1.931915 1_555
Al0 O0 1.931915 1_545
Al1 O7 1.917689 1_555
Al1 O5 1.917689 1_455
Al1 O11 1.928562 1_555
Al1 O9 1.928562 1_455
Al1 O1 1.931915 1_455
Al1 O3 1.931915 1_555
Mo0 O20 1.744997 1_565
Mo0 O16 1.747947 1_555
Mo0 O12 1.960313 1_555
Mo0 O24 1.976012 1_555
Mo0 O6 2.302138 1_555
Mo0 O2 2.323267 1_565
Mo1 O21 1.744997 1_555
Mo1 O17 1.747947 1_555
Mo1 O13 1.960313 1_555
Mo1 O25 1.976013 1_555
Mo1 O7 2.302138 1_555
Mo1 O3 2.323267 1_555
Mo2 O22 1.744997 1_545
Mo2 O18 1.747947 1_555
Mo2 O14 1.960313 1_555
Mo2 O26 1.976012 1_555
Mo2 O4 2.302138 1_555
Mo2 O0 2.323267 1_545
Mo3 O23 1.744997 1_555
Mo3 O19 1.747947 1_555
Mo3 O15 1.960313 1_555
Mo3 O27 1.976013 1_555
Mo3 O5 2.302138 1_555
Mo3 O1 2.323267 1_555
Mo4 O28 1.741984 1_555
Mo4 O32 1.748967 1_555
Mo4 O36 1.961436 1_555
Mo4 O24 1.998569 1_555
Mo4 O6 2.297070 1_555
Mo4 O10 2.315997 1_555
Mo5 O29 1.741984 1_555
Mo5 O33 1.748967 1_555
Mo5 O37 1.961436 1_555
Mo5 O25 1.998569 1_555
Mo5 O7 2.297070 1_555
Mo5 O11 2.315997 1_555
Mo6 O30 1.741984 1_555
Mo6 O34 1.748967 1_555
Mo6 O38 1.961436 1_555
Mo6 O26 1.998569 1_555
Mo6 O4 2.297070 1_555
Mo6 O8 2.315997 1_555
Mo7 O31 1.741984 1_555
Mo7 O35 1.748967 1_555
Mo7 O39 1.961436 1_555
Mo7 O27 1.998569 1_555
Mo7 O5 2.297070 1_555
Mo7 O9 2.315997 1_555
Mo8 O40 1.731984 1_555
Mo8 O44 1.742089 1_555
Mo8 O14 1.963966 1_565
Mo8 O36 1.972245 1_555
Mo8 O10 2.336295 1_555
Mo8 O0 2.375803 1_555
Mo9 O41 1.731983 1_555
Mo9 O45 1.742089 1_455
Mo9 O15 1.963965 1_455
Mo9 O37 1.972245 1_555
Mo9 O11 2.336295 1_555
Mo9 O1 2.375803 1_455
Mo10 O42 1.731984 1_555
Mo10 O46 1.742089 1_555
Mo10 O12 1.963966 1_545
Mo10 O38 1.972245 1_555
Mo10 O8 2.336295 1_555
Mo10 O2 2.375803 1_555
Mo11 O43 1.731983 1_555
Mo11 O47 1.742089 1_655
Mo11 O13 1.963965 1_655
Mo11 O39 1.972245 1_555
Mo11 O9 2.336295 1_555
Mo11 O3 2.375803 1_655
H0 O0 0.997224 1_555
H1 O1 0.997224 1_555
H2 O2 0.997224 1_555
H3 O3 0.997224 1_555
H4 O4 1.018047 1_555
H4 O66 1.602002 1_555
H5 O5 1.018047 1_555
H5 O67 1.602002 1_555
H6 O6 1.018047 1_555
H6 O64 1.602002 1_555
H7 O7 1.018047 1_555
H7 O65 1.602002 1_555
H8 O8 1.000320 1_565
H8 O19 1.650761 1_555
H9 O9 1.000320 1_555
H9 O18 1.650761 1_555
H10 O10 1.000320 1_545
H10 O17 1.650761 1_555
H11 O11 1.000320 1_555
H11 O16 1.650761 1_555
H12 O48 0.987216 1_555
H13 O49 0.987216 1_555
H14 O50 0.987216 1_555
H15 O51 0.987216 1_555
H16 O48 0.997990 1_555
H17 O49 0.997990 1_555
H18 O50 0.997990 1_555
H19 O51 0.997990 1_555
H20 O52 0.971134 1_555
H21 O53 0.971134 1_555
H22 O54 0.971134 1_555
H23 O55 0.971134 1_555
H24 O52 0.993041 1_555
H25 O53 0.993041 1_555
H26 O54 0.993041 1_555
H27 O55 0.993041 1_555
H28 O56 0.976918 1_555
H29 O57 0.976918 1_555
H30 O58 0.976918 1_555
H31 O59 0.976918 1_555
H32 O56 0.995863 1_555
H32 O37 1.739363 1_555
H33 O57 0.995863 1_555
H33 O36 1.739363 1_555
H34 O58 0.995863 1_555
H34 O39 1.739363 1_555
H35 O59 0.995863 1_555
H35 O38 1.739363 1_555
H36 O60 0.986546 1_555
H37 O61 0.986546 1_555
H38 O62 0.986546 1_555
H39 O63 0.986546 1_555
H40 O60 0.991683 1_555
H40 O12 1.737160 1_555
H41 O61 0.991683 1_545
H41 O13 1.737161 1_555
H42 O62 0.991683 1_555
H42 O14 1.737160 1_555
H43 O63 0.991683 1_565
H43 O15 1.737161 1_555
H44 O64 0.985018 1_555
H45 O65 0.985018 1_555
H46 O66 0.985018 1_555
H47 O67 0.985018 1_555
H48 O64 0.983177 1_555
H49 O65 0.983177 1_655
H50 O66 0.983177 1_555
H51 O67 0.983177 1_455
