# generated using pymatgen
data_Si7(Ni2Au)2
_symmetry_space_group_name_H-M   'P 1'
_cell_length_a   6.65277734
_cell_length_b   6.65277734
_cell_length_c   7.94323635
_cell_angle_alpha   70.83827778
_cell_angle_beta   70.83827778
_cell_angle_gamma   32.80206220
_symmetry_Int_Tables_number   1
_chemical_formula_structural   Si7(Ni2Au)2
_chemical_formula_sum   'Si7 Ni4 Au2'
_cell_volume   178.95987862
_cell_formula_units_Z   1
loop_
 _symmetry_equiv_pos_site_id
 _symmetry_equiv_pos_as_xyz
  1  'x, y, z'
loop_
 _atom_site_type_symbol
 _atom_site_label
 _atom_site_symmetry_multiplicity
 _atom_site_fract_x
 _atom_site_fract_y
 _atom_site_fract_z
 _atom_site_occupancy
  Si  Si0  1  0.16537983  0.16537983  0.57557991  1
  Si  Si1  1  0.83462017  0.83462017  0.42442009  1
  Si  Si2  1  0.49510424  0.49510424  0.33518662  1
  Si  Si3  1  0.50489576  0.50489576  0.66481338  1
  Si  Si4  1  0.15349627  0.15349627  0.24198078  1
  Si  Si5  1  0.84650373  0.84650373  0.75801922  1
  Si  Si6  1  0.50000000  0.50000000  -0.00000000  1
  Ni  Ni0  1  0.34466824  0.34466824  0.58782745  1
  Ni  Ni1  1  0.65533176  0.65533176  0.41217255  1
  Ni  Ni2  1  0.00556798  0.00556798  0.83187670  1
  Ni  Ni3  1  0.99443202  0.99443202  0.16812330  1
  Au  Au0  1  0.19337261  0.19337261  0.90667674  1
  Au  Au1  1  0.80662739  0.80662739  0.09332326  1
loop_
_geom_bond_atom_site_label_1
_geom_bond_atom_site_label_2
_geom_bond_distance
_geom_bond_site_symmetry_2
Si2 Si6 2.641738 1_555
Si3 Si6 2.641738 1_556
Ni0 Si2 2.253299 1_555
Ni0 Si1 2.311661 1_455
Ni0 Si1 2.311661 1_545
Ni0 Si5 2.319145 1_455
Ni0 Si5 2.319145 1_545
Ni0 Si0 2.323548 1_555
Ni0 Si3 2.326478 1_555
Ni1 Si3 2.253299 1_555
Ni1 Si0 2.311661 1_655
Ni1 Si0 2.311661 1_565
Ni1 Si4 2.319145 1_655
Ni1 Si4 2.319145 1_565
Ni1 Si1 2.323548 1_555
Ni1 Si2 2.326478 1_555
Ni2 Si6 2.291759 1_456
Ni2 Si6 2.291759 1_546
Ni2 Si5 2.298146 1_445
Ni2 Si3 2.301631 1_455
Ni2 Si3 2.301631 1_545
Ni2 Si0 2.337474 1_555
Ni3 Si6 2.291759 1_565
Ni3 Si6 2.291759 1_655
Ni3 Si4 2.298146 1_665
Ni3 Si2 2.301631 1_655
Ni3 Si2 2.301631 1_565
Ni3 Si1 2.337474 1_555
Au0 Si4 2.534774 1_556
Au0 Ni0 2.607086 1_555
Au0 Ni2 2.659714 1_555
Au0 Ni3 2.674354 1_446
Au0 Si5 2.676561 1_455
Au0 Si5 2.676561 1_545
Au0 Si0 2.772637 1_555
Au0 Si6 2.986346 1_456
Au0 Si6 2.986346 1_546
Au1 Si5 2.534774 1_554
Au1 Ni1 2.607086 1_555
Au1 Ni3 2.659714 1_555
Au1 Ni2 2.674354 1_664
Au1 Si4 2.676561 1_655
Au1 Si4 2.676561 1_565
Au1 Si1 2.772637 1_555
Au1 Si6 2.986346 1_655
Au1 Si6 2.986346 1_565
