# generated using pymatgen
data_Yb2Co17
_symmetry_space_group_name_H-M   'P 1'
_cell_length_a   8.25021631
_cell_length_b   8.25021631
_cell_length_c   8.07595200
_cell_angle_alpha   90.00000000
_cell_angle_beta   90.00000000
_cell_angle_gamma   120.00000248
_symmetry_Int_Tables_number   1
_chemical_formula_structural   Yb2Co17
_chemical_formula_sum   'Yb4 Co34'
_cell_volume   476.05268664
_cell_formula_units_Z   2
loop_
 _symmetry_equiv_pos_site_id
 _symmetry_equiv_pos_as_xyz
  1  'x, y, z'
loop_
 _atom_site_type_symbol
 _atom_site_label
 _atom_site_symmetry_multiplicity
 _atom_site_fract_x
 _atom_site_fract_y
 _atom_site_fract_z
 _atom_site_occupancy
  Yb  Yb0  1  0.00000000  0.00000000  0.25000000  1
  Yb  Yb1  1  0.00000000  0.00000000  0.75000000  1
  Yb  Yb2  1  0.33333300  0.66666700  0.75000000  1
  Yb  Yb3  1  0.66666700  0.33333300  0.25000000  1
  Co  Co0  1  0.33333300  0.66666700  0.39398400  1
  Co  Co1  1  0.66666700  0.33333300  0.60601600  1
  Co  Co2  1  0.66666700  0.33333300  0.89398400  1
  Co  Co3  1  0.33333300  0.66666700  0.10601600  1
  Co  Co4  1  0.50000000  0.50000000  0.50000000  1
  Co  Co5  1  0.50000000  0.00000000  0.50000000  1
  Co  Co6  1  0.00000000  0.50000000  0.50000000  1
  Co  Co7  1  0.50000000  0.50000000  0.00000000  1
  Co  Co8  1  0.50000000  0.00000000  0.00000000  1
  Co  Co9  1  0.00000000  0.50000000  0.00000000  1
  Co  Co10  1  0.32824800  0.37409700  0.25000000  1
  Co  Co11  1  0.62590300  0.95415100  0.25000000  1
  Co  Co12  1  0.04584900  0.67175200  0.25000000  1
  Co  Co13  1  0.62590300  0.67175200  0.25000000  1
  Co  Co14  1  0.04584900  0.37409700  0.25000000  1
  Co  Co15  1  0.32824800  0.95415100  0.25000000  1
  Co  Co16  1  0.67175200  0.62590300  0.75000000  1
  Co  Co17  1  0.37409700  0.04584900  0.75000000  1
  Co  Co18  1  0.95415100  0.32824800  0.75000000  1
  Co  Co19  1  0.37409700  0.32824800  0.75000000  1
  Co  Co20  1  0.95415100  0.62590300  0.75000000  1
  Co  Co21  1  0.67175200  0.04584900  0.75000000  1
  Co  Co22  1  0.16675600  0.83324400  0.52293400  1
  Co  Co23  1  0.16675600  0.33351200  0.52293400  1
  Co  Co24  1  0.66648800  0.83324400  0.52293400  1
  Co  Co25  1  0.83324400  0.16675600  0.47706600  1
  Co  Co26  1  0.83324400  0.66648800  0.47706600  1
  Co  Co27  1  0.33351200  0.16675600  0.47706600  1
  Co  Co28  1  0.83324400  0.16675600  0.02293400  1
  Co  Co29  1  0.83324400  0.66648800  0.02293400  1
  Co  Co30  1  0.33351200  0.16675600  0.02293400  1
  Co  Co31  1  0.16675600  0.83324400  0.97706600  1
  Co  Co32  1  0.16675600  0.33351200  0.97706600  1
  Co  Co33  1  0.66648800  0.83324400  0.97706600  1
loop_
_geom_bond_atom_site_label_1
_geom_bond_atom_site_label_2
_geom_bond_distance
_geom_bond_site_symmetry_2
Co0 Co3 2.325616 1_555
Co0 Co6 2.530851 1_555
Co0 Co5 2.530851 1_565
Co0 Co4 2.530857 1_555
Co0 Co22 2.598186 1_555
Co0 Co24 2.598193 1_555
Co0 Co23 2.598193 1_555
Co0 Co15 2.660610 1_555
Co0 Co12 2.660610 1_555
Co0 Co11 2.660614 1_555
Co0 Co14 2.660614 1_555
Co0 Co13 2.660617 1_555
Co0 Co10 2.660617 1_555
Co0 Yb2 2.875168 1_555
Co1 Co2 2.325616 1_555
Co1 Co5 2.530851 1_555
Co1 Co6 2.530851 1_655
Co1 Co4 2.530857 1_555
Co1 Co25 2.598186 1_555
Co1 Co26 2.598193 1_555
Co1 Co27 2.598193 1_555
Co1 Co21 2.660610 1_555
Co1 Co18 2.660610 1_555
Co1 Co20 2.660614 1_555
Co1 Co17 2.660614 1_555
Co1 Co19 2.660617 1_555
Co1 Co16 2.660617 1_555
Co1 Yb3 2.875168 1_555
Co2 Co8 2.530851 1_556
Co2 Co9 2.530851 1_656
Co2 Co7 2.530857 1_556
Co2 Co28 2.598186 1_556
Co2 Co29 2.598193 1_556
Co2 Co30 2.598193 1_556
Co2 Co21 2.660610 1_555
Co2 Co20 2.660614 1_555
Co2 Yb3 2.875168 1_556
Co3 Co9 2.530851 1_555
Co3 Co8 2.530851 1_565
Co3 Co7 2.530857 1_555
Co3 Co31 2.598186 1_554
Co3 Co33 2.598193 1_554
Co3 Co32 2.598193 1_554
Co3 Yb2 2.875168 1_554
Co4 Yb2 3.122260 1_555
Co4 Yb3 3.122260 1_555
Co5 Yb2 3.122255 1_545
Co5 Yb3 3.122255 1_555
Co6 Yb3 3.122255 1_455
Co6 Yb2 3.122255 1_555
Co7 Yb3 3.122260 1_555
Co7 Yb2 3.122260 1_554
Co8 Yb3 3.122255 1_555
Co8 Yb2 3.122255 1_544
Co9 Yb3 3.122255 1_455
Co9 Yb2 3.122255 1_554
Co10 Co14 2.329853 1_555
Co10 Co4 2.385637 1_555
Co10 Co7 2.385637 1_555
Co10 Co13 2.455718 1_555
Co10 Co23 2.509909 1_555
Co10 Co32 2.509909 1_554
Co10 Co27 2.522912 1_555
Co10 Co30 2.522912 1_555
Co10 Co3 2.660617 1_555
Co10 Yb0 2.915710 1_555
Co10 Yb3 2.974480 1_555
Co11 Co13 2.329853 1_555
Co11 Co5 2.385637 1_565
Co11 Co8 2.385637 1_565
Co11 Co15 2.455718 1_555
Co11 Co24 2.509909 1_555
Co11 Co33 2.509909 1_554
Co11 Co25 2.522912 1_565
Co11 Co28 2.522912 1_565
Co11 Co3 2.660614 1_555
Co11 Yb0 2.915710 1_665
Co11 Yb3 2.974471 1_565
Co12 Co15 2.329853 1_555
Co12 Co9 2.385637 1_555
Co12 Co6 2.385637 1_555
Co12 Co14 2.455718 1_555
Co12 Co22 2.509909 1_555
Co12 Co31 2.509909 1_554
Co12 Co29 2.522912 1_455
Co12 Co26 2.522912 1_455
Co12 Co3 2.660610 1_555
Co12 Yb0 2.915710 1_565
Co12 Yb3 2.974475 1_455
Co13 Co4 2.385637 1_555
Co13 Co7 2.385637 1_555
Co13 Co24 2.509909 1_555
Co13 Co33 2.509909 1_554
Co13 Co29 2.522912 1_555
Co13 Co26 2.522912 1_555
Co13 Co3 2.660617 1_555
Co13 Yb0 2.915710 1_665
Co13 Yb3 2.974480 1_555
Co14 Co9 2.385637 1_555
Co14 Co6 2.385637 1_555
Co14 Co32 2.509909 1_554
Co14 Co23 2.509909 1_555
Co14 Co28 2.522912 1_455
Co14 Co25 2.522912 1_455
Co14 Co3 2.660614 1_555
Co14 Yb0 2.915710 1_555
Co14 Yb3 2.974471 1_455
Co15 Co8 2.385637 1_565
Co15 Co5 2.385637 1_565
Co15 Co22 2.509909 1_555
Co15 Co31 2.509909 1_554
Co15 Co30 2.522912 1_565
Co15 Co27 2.522912 1_565
Co15 Co3 2.660610 1_555
Co15 Yb0 2.915710 1_565
Co15 Yb3 2.974475 1_565
Co16 Co20 2.329853 1_555
Co16 Co4 2.385637 1_555
Co16 Co7 2.385637 1_556
Co16 Co19 2.455718 1_555
Co16 Co29 2.509909 1_556
Co16 Co26 2.509909 1_555
Co16 Co33 2.522912 1_555
Co16 Co24 2.522912 1_555
Co16 Co2 2.660617 1_555
Co16 Yb1 2.915710 1_665
Co16 Yb2 2.974480 1_555
Co17 Co19 2.329853 1_555
Co17 Co8 2.385637 1_556
Co17 Co5 2.385637 1_555
Co17 Co21 2.455718 1_555
Co17 Co30 2.509909 1_556
Co17 Co27 2.509909 1_555
Co17 Co22 2.522912 1_545
Co17 Co31 2.522912 1_545
Co17 Co2 2.660614 1_555
Co17 Yb1 2.915710 1_555
Co17 Yb2 2.974471 1_545
Co18 Co21 2.329853 1_555
Co18 Co6 2.385637 1_655
Co18 Co9 2.385637 1_656
Co18 Co20 2.455718 1_555
Co18 Co25 2.509909 1_555
Co18 Co28 2.509909 1_556
Co18 Co23 2.522912 1_655
Co18 Co32 2.522912 1_655
Co18 Co2 2.660610 1_555
Co18 Yb1 2.915710 1_655
Co18 Yb2 2.974475 1_655
Co19 Co4 2.385637 1_555
Co19 Co7 2.385637 1_556
Co19 Co27 2.509909 1_555
Co19 Co30 2.509909 1_556
Co19 Co32 2.522912 1_555
Co19 Co23 2.522912 1_555
Co19 Co2 2.660617 1_555
Co19 Yb1 2.915710 1_555
Co19 Yb2 2.974480 1_555
Co20 Co6 2.385637 1_655
Co20 Co9 2.385637 1_656
Co20 Co29 2.509909 1_556
Co20 Co26 2.509909 1_555
Co20 Co31 2.522912 1_655
Co20 Co22 2.522912 1_655
Co20 Yb1 2.915710 1_665
Co20 Yb2 2.974471 1_655
Co21 Co8 2.385637 1_556
Co21 Co5 2.385637 1_555
Co21 Co25 2.509909 1_555
Co21 Co28 2.509909 1_556
Co21 Co24 2.522912 1_545
Co21 Co33 2.522912 1_545
Co21 Yb1 2.915710 1_655
Co21 Yb2 2.974475 1_545
Co22 Co6 2.388187 1_555
Co22 Co5 2.388187 1_565
Co22 Co27 2.411529 1_565
Co22 Co26 2.411529 1_455
Co22 Yb2 3.004796 1_555
Co22 Yb1 3.006823 1_565
Co22 Yb0 3.246038 1_565
Co23 Co4 2.388187 1_555
Co23 Co6 2.388187 1_555
Co23 Co25 2.411529 1_455
Co23 Co27 2.411529 1_555
Co23 Yb2 3.004802 1_555
Co23 Yb1 3.006823 1_555
Co23 Yb0 3.246038 1_555
Co24 Co4 2.388187 1_555
Co24 Co5 2.388187 1_565
Co24 Co25 2.411529 1_565
Co24 Co26 2.411529 1_555
Co24 Yb2 3.004802 1_555
Co24 Yb1 3.006823 1_665
Co24 Yb0 3.246038 1_665
Co25 Co5 2.388187 1_555
Co25 Co6 2.388187 1_655
Co25 Yb3 3.004796 1_555
Co25 Yb0 3.006823 1_655
Co25 Yb1 3.246038 1_655
Co26 Co4 2.388187 1_555
Co26 Co6 2.388187 1_655
Co26 Yb3 3.004802 1_555
Co26 Yb0 3.006823 1_665
Co26 Yb1 3.246038 1_665
Co27 Co4 2.388187 1_555
Co27 Co5 2.388187 1_555
Co27 Yb3 3.004802 1_555
Co27 Yb0 3.006823 1_555
Co27 Yb1 3.246038 1_555
Co28 Co9 2.388187 1_655
Co28 Co8 2.388187 1_555
Co28 Co32 2.411529 1_654
Co28 Co33 2.411529 1_544
Co28 Yb3 3.004796 1_555
Co28 Yb0 3.006823 1_655
Co28 Yb1 3.246038 1_654
Co29 Co7 2.388187 1_555
Co29 Co9 2.388187 1_655
Co29 Co31 2.411529 1_654
Co29 Co33 2.411529 1_554
Co29 Yb3 3.004802 1_555
Co29 Yb0 3.006823 1_665
Co29 Yb1 3.246038 1_664
Co30 Co7 2.388187 1_555
Co30 Co8 2.388187 1_555
Co30 Co31 2.411529 1_544
Co30 Co32 2.411529 1_554
Co30 Yb3 3.004802 1_555
Co30 Yb0 3.006823 1_555
Co30 Yb1 3.246038 1_554
Co31 Co8 2.388187 1_566
Co31 Co9 2.388187 1_556
Co31 Yb2 3.004796 1_555
Co31 Yb1 3.006823 1_565
Co31 Yb0 3.246038 1_566
Co32 Co7 2.388187 1_556
Co32 Co9 2.388187 1_556
Co32 Yb2 3.004802 1_555
Co32 Yb1 3.006823 1_555
Co32 Yb0 3.246038 1_556
Co33 Co7 2.388187 1_556
Co33 Co8 2.388187 1_566
Co33 Yb2 3.004802 1_555
Co33 Yb1 3.006823 1_665
Co33 Yb0 3.246038 1_666
