# generated using pymatgen
data_Zr2TcIr
_symmetry_space_group_name_H-M   'P 1'
_cell_length_a   4.63814653
_cell_length_b   4.63814653
_cell_length_c   4.63814653
_cell_angle_alpha   60.00000000
_cell_angle_beta   60.00000000
_cell_angle_gamma   60.00000000
_symmetry_Int_Tables_number   1
_chemical_formula_structural   Zr2TcIr
_chemical_formula_sum   'Zr2 Tc1 Ir1'
_cell_volume   70.55347279
_cell_formula_units_Z   1
loop_
 _symmetry_equiv_pos_site_id
 _symmetry_equiv_pos_as_xyz
  1  'x, y, z'
loop_
 _atom_site_type_symbol
 _atom_site_label
 _atom_site_symmetry_multiplicity
 _atom_site_fract_x
 _atom_site_fract_y
 _atom_site_fract_z
 _atom_site_occupancy
  Zr  Zr0  1  0.75000000  0.75000000  0.75000000  1
  Zr  Zr1  1  0.25000000  0.25000000  0.25000000  1
  Tc  Tc0  1  -0.00000000  0.00000000  -0.00000000  1
  Ir  Ir0  1  0.50000000  0.50000000  0.50000000  1
loop_
_geom_bond_atom_site_label_1
_geom_bond_atom_site_label_2
_geom_bond_distance
_geom_bond_site_symmetry_2
Tc0 Zr1 2.840273 1_455
Tc0 Zr0 2.840273 1_544
Tc0 Zr1 2.840273 1_545
Tc0 Zr1 2.840273 1_555
Tc0 Zr0 2.840273 1_444
Tc0 Zr1 2.840273 1_554
Tc0 Zr0 2.840273 1_454
Tc0 Zr0 2.840273 1_445
Ir0 Zr1 2.840273 1_655
Ir0 Zr0 2.840273 1_455
Ir0 Zr1 2.840273 1_565
Ir0 Zr0 2.840273 1_545
Ir0 Zr0 2.840273 1_555
Ir0 Zr0 2.840273 1_554
Ir0 Zr1 2.840273 1_555
Ir0 Zr1 2.840273 1_556
