# generated using pymatgen
data_YbGdTe2
_symmetry_space_group_name_H-M   'P 1'
_cell_length_a   7.71868723
_cell_length_b   7.71868723
_cell_length_c   7.71868681
_cell_angle_alpha   33.44075541
_cell_angle_beta   33.44075541
_cell_angle_gamma   33.44075137
_symmetry_Int_Tables_number   1
_chemical_formula_structural   YbGdTe2
_chemical_formula_sum   'Yb1 Gd1 Te2'
_cell_volume   124.36856782
_cell_formula_units_Z   1
loop_
 _symmetry_equiv_pos_site_id
 _symmetry_equiv_pos_as_xyz
  1  'x, y, z'
loop_
 _atom_site_type_symbol
 _atom_site_label
 _atom_site_symmetry_multiplicity
 _atom_site_fract_x
 _atom_site_fract_y
 _atom_site_fract_z
 _atom_site_occupancy
  Yb  Yb0  1  0.50000000  0.50000000  0.50000000  1
  Gd  Gd0  1  0.00000000  0.00000000  0.00000000  1
  Te  Te0  1  0.24973700  0.24973700  0.24973700  1
  Te  Te1  1  0.75026300  0.75026300  0.75026300  1
loop_
_geom_bond_atom_site_label_1
_geom_bond_atom_site_label_2
_geom_bond_distance
_geom_bond_site_symmetry_2
Gd0 Te0 3.147828 1_554
Gd0 Te1 3.147828 1_445
Gd0 Te0 3.147828 1_455
Gd0 Te0 3.147828 1_545
Gd0 Te1 3.147828 1_454
Gd0 Te1 3.147828 1_544
Te0 Yb0 3.141179 1_554
Te0 Yb0 3.141179 1_455
Te0 Yb0 3.141179 1_545
Te1 Yb0 3.141179 1_556
Te1 Yb0 3.141179 1_655
Te1 Yb0 3.141179 1_565
