# generated using pymatgen
data_Mg16Al12Pb
_symmetry_space_group_name_H-M   'P 1'
_cell_length_a   9.17364775
_cell_length_b   9.17364775
_cell_length_c   9.17364775
_cell_angle_alpha   109.47122063
_cell_angle_beta   109.47122063
_cell_angle_gamma   109.47122063
_symmetry_Int_Tables_number   1
_chemical_formula_structural   Mg16Al12Pb
_chemical_formula_sum   'Mg16 Al12 Pb1'
_cell_volume   594.29802905
_cell_formula_units_Z   1
loop_
 _symmetry_equiv_pos_site_id
 _symmetry_equiv_pos_as_xyz
  1  'x, y, z'
loop_
 _atom_site_type_symbol
 _atom_site_label
 _atom_site_symmetry_multiplicity
 _atom_site_fract_x
 _atom_site_fract_y
 _atom_site_fract_z
 _atom_site_occupancy
  Mg  Mg0  1  0.31521200  0.60008200  0.00000000  1
  Mg  Mg1  1  0.60008200  0.31521200  0.00000000  1
  Mg  Mg2  1  0.00000000  0.35031900  0.00000000  1
  Mg  Mg3  1  0.35031900  0.00000000  0.00000000  1
  Mg  Mg4  1  0.39991800  0.39991800  0.71513000  1
  Mg  Mg5  1  0.28487000  0.68478800  0.68478800  1
  Mg  Mg6  1  0.68478800  0.28487000  0.68478800  1
  Mg  Mg7  1  0.64968100  0.64968100  0.64968100  1
  Mg  Mg8  1  0.31521200  0.00000000  0.60008200  1
  Mg  Mg9  1  0.00000000  0.31521200  0.60008200  1
  Mg  Mg10  1  0.71513000  0.39991800  0.39991800  1
  Mg  Mg11  1  0.39991800  0.71513000  0.39991800  1
  Mg  Mg12  1  0.00000000  0.00000000  0.35031900  1
  Mg  Mg13  1  0.00000000  0.60008200  0.31521200  1
  Mg  Mg14  1  0.60008200  0.00000000  0.31521200  1
  Mg  Mg15  1  0.68478800  0.68478800  0.28487000  1
  Al  Al0  1  0.62743300  0.81191900  0.00000000  1
  Al  Al1  1  0.81191900  0.62743300  0.00000000  1
  Al  Al2  1  0.18808100  0.18808100  0.81551400  1
  Al  Al3  1  0.00000000  0.62743300  0.81191900  1
  Al  Al4  1  0.62743300  0.00000000  0.81191900  1
  Al  Al5  1  0.00000000  0.81191900  0.62743300  1
  Al  Al6  1  0.81191900  0.00000000  0.62743300  1
  Al  Al7  1  0.37256700  0.18448600  0.37256700  1
  Al  Al8  1  0.18448600  0.37256700  0.37256700  1
  Al  Al9  1  0.81551400  0.18808100  0.18808100  1
  Al  Al10  1  0.18808100  0.81551400  0.18808100  1
  Al  Al11  1  0.37256700  0.37256700  0.18448600  1
  Pb  Pb0  1  0.00000000  0.00000000  0.00000000  1
loop_
_geom_bond_atom_site_label_1
_geom_bond_atom_site_label_2
_geom_bond_distance
_geom_bond_site_symmetry_2
Mg0 Mg2 3.032229 1_555
Mg0 Mg4 3.148153 1_554
Mg0 Mg15 3.148153 1_555
Mg0 Mg9 3.185673 1_554
Mg0 Mg5 3.185673 1_554
Mg0 Mg14 3.185673 1_565
Mg0 Mg11 3.185673 1_555
Mg1 Mg3 3.032229 1_555
Mg1 Mg4 3.148153 1_554
Mg1 Mg15 3.148153 1_555
Mg1 Mg8 3.185673 1_554
Mg1 Mg10 3.185673 1_555
Mg1 Mg6 3.185673 1_554
Mg1 Mg13 3.185673 1_655
Mg2 Mg6 3.032229 1_454
Mg2 Pb0 3.213703 1_555
Mg3 Mg5 3.032229 1_544
Mg3 Pb0 3.213703 1_555
Mg4 Mg7 3.032229 1_555
Mg4 Mg8 3.185673 1_555
Mg4 Mg9 3.185673 1_555
Mg4 Mg5 3.185673 1_555
Mg4 Mg6 3.185673 1_555
Mg5 Mg9 3.148153 1_555
Mg5 Mg8 3.185673 1_565
Mg6 Mg8 3.148153 1_555
Mg6 Mg9 3.185673 1_655
Mg7 Pb0 3.213703 1_666
Mg10 Mg7 3.032229 1_555
Mg10 Mg9 3.148153 1_655
Mg10 Mg13 3.148153 1_655
Mg10 Mg6 3.185673 1_555
Mg10 Mg15 3.185673 1_555
Mg10 Mg14 3.185673 1_555
Mg11 Mg7 3.032229 1_555
Mg11 Mg14 3.148153 1_565
Mg11 Mg8 3.148153 1_565
Mg11 Mg5 3.185673 1_555
Mg11 Mg13 3.185673 1_555
Mg11 Mg15 3.185673 1_555
Mg12 Mg8 3.032229 1_555
Mg12 Mg9 3.032229 1_555
Mg12 Mg15 3.032229 1_445
Mg12 Pb0 3.213703 1_555
Mg13 Mg2 3.032229 1_555
Mg13 Mg5 3.148153 1_555
Mg13 Mg8 3.185673 1_565
Mg13 Mg15 3.185673 1_455
Mg14 Mg3 3.032229 1_555
Mg14 Mg6 3.148153 1_555
Mg14 Mg9 3.185673 1_655
Mg14 Mg15 3.185673 1_545
Al0 Al1 2.763693 1_555
Al0 Al9 2.817548 1_565
Al0 Al4 2.817548 1_564
Al0 Mg0 2.875665 1_555
Al0 Mg14 2.974506 1_565
Al0 Mg5 2.974506 1_554
Al0 Mg4 3.160788 1_554
Al0 Mg15 3.160788 1_555
Al0 Mg12 3.167922 1_665
Al0 Mg7 3.167922 1_554
Al0 Pb0 3.275204 1_665
Al1 Al10 2.817548 1_655
Al1 Al3 2.817548 1_654
Al1 Mg1 2.875665 1_555
Al1 Mg13 2.974506 1_655
Al1 Mg6 2.974506 1_554
Al1 Mg4 3.160788 1_554
Al1 Mg15 3.160788 1_555
Al1 Mg12 3.167922 1_665
Al1 Mg7 3.167922 1_554
Al1 Pb0 3.275204 1_665
Al2 Al6 2.817548 1_455
Al2 Al5 2.817548 1_545
Al2 Mg4 2.875665 1_555
Al2 Mg8 2.974506 1_555
Al2 Mg9 2.974506 1_555
Al2 Mg0 3.160788 1_556
Al2 Mg1 3.160788 1_556
Al2 Mg3 3.167922 1_556
Al2 Mg2 3.167922 1_556
Al2 Pb0 3.275204 1_556
Al3 Al5 2.763693 1_555
Al3 Mg9 2.875665 1_555
Al3 Mg0 2.974506 1_556
Al3 Mg6 2.974506 1_455
Al3 Mg10 3.160788 1_455
Al3 Mg5 3.160788 1_555
Al3 Mg3 3.167922 1_566
Al3 Mg7 3.167922 1_455
Al3 Pb0 3.275204 1_566
Al4 Al6 2.763693 1_555
Al4 Al9 2.817548 1_556
Al4 Mg8 2.875665 1_555
Al4 Mg1 2.974506 1_556
Al4 Mg5 2.974506 1_545
Al4 Mg11 3.160788 1_545
Al4 Mg6 3.160788 1_555
Al4 Mg2 3.167922 1_656
Al4 Mg7 3.167922 1_545
Al4 Pb0 3.275204 1_656
Al5 Al6 2.817548 1_465
Al5 Mg13 2.875665 1_555
Al5 Mg15 2.974506 1_455
Al5 Mg8 2.974506 1_565
Al5 Mg10 3.160788 1_455
Al5 Mg5 3.160788 1_555
Al5 Mg3 3.167922 1_566
Al5 Mg7 3.167922 1_455
Al5 Pb0 3.275204 1_566
Al6 Mg14 2.875665 1_555
Al6 Mg15 2.974506 1_545
Al6 Mg9 2.974506 1_655
Al6 Mg11 3.160788 1_545
Al6 Mg6 3.160788 1_555
Al6 Mg2 3.167922 1_656
Al6 Mg7 3.167922 1_545
Al6 Pb0 3.275204 1_656
Al7 Al8 2.817548 1_555
Al7 Mg6 2.875665 1_555
Al7 Mg4 2.974506 1_555
Al7 Mg10 2.974506 1_555
Al7 Mg14 3.160788 1_555
Al7 Mg8 3.160788 1_555
Al7 Mg3 3.167922 1_555
Al7 Mg12 3.167922 1_555
Al7 Pb0 3.275204 1_555
Al8 Al9 2.763693 1_455
Al8 Mg5 2.875665 1_555
Al8 Mg4 2.974506 1_555
Al8 Mg11 2.974506 1_555
Al8 Mg13 3.160788 1_555
Al8 Mg9 3.160788 1_555
Al8 Mg2 3.167922 1_555
Al8 Mg12 3.167922 1_555
Al8 Pb0 3.275204 1_555
Al9 Mg10 2.875665 1_555
Al9 Mg14 2.974506 1_555
Al9 Mg1 2.974506 1_555
Al9 Mg13 3.160788 1_655
Al9 Mg9 3.160788 1_655
Al9 Mg12 3.167922 1_655
Al9 Mg2 3.167922 1_655
Al9 Pb0 3.275204 1_655
Al10 Al7 2.763693 1_565
Al10 Al3 2.817548 1_554
Al10 Mg11 2.875665 1_555
Al10 Mg0 2.974506 1_555
Al10 Mg13 2.974506 1_555
Al10 Mg14 3.160788 1_565
Al10 Mg8 3.160788 1_565
Al10 Mg3 3.167922 1_565
Al10 Mg12 3.167922 1_565
Al10 Pb0 3.275204 1_565
Al11 Al2 2.763693 1_554
Al11 Al7 2.817548 1_555
Al11 Al8 2.817548 1_555
Al11 Mg15 2.875665 1_555
Al11 Mg10 2.974506 1_555
Al11 Mg11 2.974506 1_555
Al11 Mg0 3.160788 1_555
Al11 Mg1 3.160788 1_555
Al11 Mg3 3.167922 1_555
Al11 Mg2 3.167922 1_555
Al11 Pb0 3.275204 1_555
