# generated using pymatgen
data_Mg14SiC
_symmetry_space_group_name_H-M   'P 1'
_cell_length_a   6.20607244
_cell_length_b   6.20607196
_cell_length_c   9.82628697
_cell_angle_alpha   90.00000000
_cell_angle_beta   90.00000000
_cell_angle_gamma   120.00000254
_symmetry_Int_Tables_number   1
_chemical_formula_structural   Mg14SiC
_chemical_formula_sum   'Mg14 Si1 C1'
_cell_volume   327.75830995
_cell_formula_units_Z   1
loop_
 _symmetry_equiv_pos_site_id
 _symmetry_equiv_pos_as_xyz
  1  'x, y, z'
loop_
 _atom_site_type_symbol
 _atom_site_label
 _atom_site_symmetry_multiplicity
 _atom_site_fract_x
 _atom_site_fract_y
 _atom_site_fract_z
 _atom_site_occupancy
  Mg  Mg0  1  0.16878384  0.83439142  0.12500000  1
  Mg  Mg1  1  0.16237788  0.83118844  0.62500000  1
  Mg  Mg2  1  0.66560858  0.33121616  0.12500000  1
  Mg  Mg3  1  0.66881156  0.33762212  0.62500000  1
  Mg  Mg4  1  0.66560858  0.83439142  0.12500000  1
  Mg  Mg5  1  0.66881156  0.83118844  0.62500000  1
  Mg  Mg6  1  0.32692195  0.17307805  0.38729889  1
  Mg  Mg7  1  0.32692195  0.17307805  0.86270111  1
  Mg  Mg8  1  0.32692195  0.65384489  0.38729889  1
  Mg  Mg9  1  0.32692195  0.65384489  0.86270111  1
  Mg  Mg10  1  0.84615511  0.17307805  0.38729889  1
  Mg  Mg11  1  0.84615511  0.17307805  0.86270111  1
  Mg  Mg12  1  0.83333300  0.66666700  0.37619594  1
  Mg  Mg13  1  0.83333300  0.66666700  0.87380406  1
  Si  Si0  1  0.16666700  0.33333300  0.12500000  1
  C  C0  1  0.16666700  0.33333300  0.62500000  1
loop_
_geom_bond_atom_site_label_1
_geom_bond_atom_site_label_2
_geom_bond_distance
_geom_bond_site_symmetry_2
Mg0 Mg12 3.056655 1_455
Mg0 Mg13 3.056655 1_454
Mg0 Mg2 3.083330 1_565
Mg0 Mg4 3.083330 1_555
Mg0 Si0 3.103057 1_555
Mg0 Si0 3.103057 1_565
Mg0 Mg2 3.122742 1_455
Mg0 Mg4 3.122742 1_455
Mg0 Mg9 3.156175 1_554
Mg0 Mg8 3.156175 1_555
Mg0 Mg7 3.156181 1_564
Mg0 Mg6 3.156181 1_565
Mg1 Mg8 2.972141 1_555
Mg1 Mg9 2.972141 1_555
Mg1 Mg6 2.972148 1_565
Mg1 Mg7 2.972148 1_565
Mg1 Mg13 3.017400 1_455
Mg1 Mg12 3.017400 1_455
Mg2 Mg4 3.083330 1_545
Mg2 Si0 3.103057 1_655
Mg2 Si0 3.103057 1_555
Mg2 Mg4 3.122742 1_555
Mg2 Mg7 3.156182 1_554
Mg2 Mg6 3.156182 1_555
Mg3 Mg6 2.972148 1_555
Mg3 Mg7 2.972148 1_555
Mg4 Si0 3.103057 1_555
Mg4 Si0 3.103057 1_665
Mg4 Mg9 3.156181 1_554
Mg4 Mg8 3.156181 1_555
Mg5 Mg8 2.972148 1_555
Mg5 Mg9 2.972148 1_555
Mg6 Mg8 2.983674 1_555
Mg6 Si0 3.100085 1_555
Mg6 Mg8 3.222398 1_545
Mg7 Mg9 2.983674 1_555
Mg7 Si0 3.100085 1_556
Mg7 Mg9 3.222398 1_545
Mg8 Si0 3.100091 1_555
Mg9 Si0 3.100091 1_556
Mg10 Mg3 2.972141 1_555
Mg10 Mg5 2.972148 1_545
Mg10 Mg8 2.983674 1_655
Mg10 Mg6 2.983674 1_655
Mg10 Si0 3.100091 1_655
Mg10 Mg12 3.105718 1_545
Mg10 Mg12 3.105718 1_555
Mg10 Mg2 3.156175 1_555
Mg10 Mg4 3.156181 1_545
Mg10 Mg8 3.222398 1_545
Mg10 Mg6 3.222399 1_555
Mg11 Mg3 2.972141 1_555
Mg11 Mg5 2.972148 1_545
Mg11 Mg9 2.983674 1_655
Mg11 Mg7 2.983674 1_655
Mg11 Si0 3.100091 1_656
Mg11 Mg13 3.105718 1_545
Mg11 Mg13 3.105718 1_555
Mg11 Mg2 3.156175 1_556
Mg11 Mg4 3.156181 1_546
Mg11 Mg9 3.222398 1_545
Mg11 Mg7 3.222399 1_555
Mg12 Mg5 3.017394 1_555
Mg12 Mg3 3.017400 1_555
Mg12 Mg4 3.056649 1_555
Mg12 Mg2 3.056655 1_555
Mg12 Mg6 3.105718 1_665
Mg12 Mg6 3.105718 1_555
Mg12 Mg8 3.105718 1_555
Mg12 Mg8 3.105718 1_655
Mg13 Mg5 3.017394 1_555
Mg13 Mg3 3.017400 1_555
Mg13 Mg4 3.056649 1_556
Mg13 Mg2 3.056655 1_556
Mg13 Mg7 3.105718 1_665
Mg13 Mg7 3.105718 1_555
Mg13 Mg9 3.105718 1_555
Mg13 Mg9 3.105718 1_655
C0 Mg6 2.902240 1_555
C0 Mg7 2.902240 1_555
C0 Mg8 2.902246 1_555
C0 Mg9 2.902246 1_555
C0 Mg10 2.902246 1_455
C0 Mg11 2.902246 1_455
