# generated using pymatgen
data_Pr3Ge13Pt4
_symmetry_space_group_name_H-M   'P 1'
_cell_length_a   9.23712156
_cell_length_b   9.23712156
_cell_length_c   9.26305873
_cell_angle_alpha   89.70800367
_cell_angle_beta   89.70800367
_cell_angle_gamma   90.03445660
_symmetry_Int_Tables_number   1
_chemical_formula_structural   Pr3Ge13Pt4
_chemical_formula_sum   'Pr6 Ge26 Pt8'
_cell_volume   790.34438191
_cell_formula_units_Z   2
loop_
 _symmetry_equiv_pos_site_id
 _symmetry_equiv_pos_as_xyz
  1  'x, y, z'
loop_
 _atom_site_type_symbol
 _atom_site_label
 _atom_site_symmetry_multiplicity
 _atom_site_fract_x
 _atom_site_fract_y
 _atom_site_fract_z
 _atom_site_occupancy
  Pr  Pr0  1  0.00019300  0.99944000  0.50301300  1
  Pr  Pr1  1  0.99944000  0.00019300  0.00301300  1
  Pr  Pr2  1  0.74847800  0.49991300  0.25186000  1
  Pr  Pr3  1  0.49991300  0.74847800  0.75186000  1
  Pr  Pr4  1  0.49928800  0.25490500  0.75394000  1
  Pr  Pr5  1  0.25490500  0.49928800  0.25394000  1
  Ge  Ge0  1  0.00242800  0.49770600  0.74977000  1
  Ge  Ge1  1  0.49770600  0.00242800  0.24977000  1
  Ge  Ge2  1  0.15117500  0.17067100  0.25513900  1
  Ge  Ge3  1  0.17067100  0.15117500  0.75513900  1
  Ge  Ge4  1  0.16651000  0.84046700  0.75293400  1
  Ge  Ge5  1  0.84046700  0.16651000  0.25293400  1
  Ge  Ge6  1  0.68742400  0.50143600  0.61483400  1
  Ge  Ge7  1  0.50143600  0.68742400  0.11483400  1
  Ge  Ge8  1  0.38524900  0.00256000  0.50586500  1
  Ge  Ge9  1  0.00256000  0.38524900  0.00586500  1
  Ge  Ge10  1  0.99978700  0.66845500  0.10075000  1
  Ge  Ge11  1  0.66845500  0.99978700  0.60075000  1
  Ge  Ge12  1  0.50209700  0.26033900  0.14160100  1
  Ge  Ge13  1  0.26033900  0.50209700  0.64160100  1
  Ge  Ge14  1  0.00131100  0.66535500  0.40976400  1
  Ge  Ge15  1  0.66535500  0.00131100  0.90976400  1
  Ge  Ge16  1  0.21296400  0.87187400  0.25285000  1
  Ge  Ge17  1  0.87187400  0.21296400  0.75285000  1
  Ge  Ge18  1  0.37817200  0.99674500  0.98624500  1
  Ge  Ge19  1  0.99674500  0.37817200  0.48624500  1
  Ge  Ge20  1  0.66261200  0.50193300  0.91788600  1
  Ge  Ge21  1  0.50193300  0.66261200  0.41788600  1
  Ge  Ge22  1  0.88535400  0.74996700  0.75352400  1
  Ge  Ge23  1  0.74996700  0.88535400  0.25352400  1
  Ge  Ge24  1  0.49691900  0.34650400  0.42318400  1
  Ge  Ge25  1  0.34650400  0.49691900  0.92318400  1
  Pt  Pt0  1  0.74884300  0.25054800  0.50369400  1
  Pt  Pt1  1  0.25054800  0.74884300  0.00369400  1
  Pt  Pt2  1  0.25252600  0.74824000  0.50286800  1
  Pt  Pt3  1  0.74824000  0.25252600  0.00286800  1
  Pt  Pt4  1  0.75488500  0.75202500  0.50186100  1
  Pt  Pt5  1  0.75202500  0.75488500  0.00186100  1
  Pt  Pt6  1  0.24960900  0.24709300  0.00671800  1
  Pt  Pt7  1  0.24709300  0.24960900  0.50671800  1
loop_
_geom_bond_atom_site_label_1
_geom_bond_atom_site_label_2
_geom_bond_distance
_geom_bond_site_symmetry_2
Pr0 Pt4 3.217441 1_455
Pr0 Pt7 3.246194 1_565
Pr0 Pt0 3.282863 1_465
Pr0 Pt2 3.289889 1_555
Pr1 Pt5 3.217441 1_545
Pr1 Pt6 3.246194 1_655
Pr1 Pt1 3.282863 1_645
Pr1 Pt3 3.289889 1_555
Pr2 Pt3 3.255036 1_555
Pr2 Pt0 3.269983 1_555
Pr2 Pt4 3.293292 1_555
Pr2 Pt5 3.294593 1_555
Pr3 Pt2 3.255036 1_555
Pr3 Pt1 3.269983 1_556
Pr3 Pt5 3.293292 1_556
Pr3 Pt4 3.294593 1_555
Pr4 Pt0 3.261189 1_555
Pr4 Pt3 3.264829 1_556
Pr4 Pt7 3.275492 1_555
Pr4 Pt6 3.278711 1_556
Pr5 Pt1 3.261189 1_555
Pr5 Pt2 3.264829 1_555
Pr5 Pt6 3.275492 1_555
Pr5 Pt7 3.278711 1_555
Ge0 Ge22 2.569793 1_455
Ge0 Ge13 2.579992 1_555
Ge0 Ge9 2.584844 1_556
Ge0 Ge19 2.685019 1_455
Ge0 Ge17 2.892770 1_455
Ge1 Ge23 2.569793 1_545
Ge1 Ge12 2.579992 1_555
Ge1 Ge8 2.584844 1_555
Ge1 Ge18 2.685019 1_544
Ge1 Ge16 2.892770 1_545
Ge2 Pt6 2.565470 1_555
Ge2 Pt7 2.604802 1_555
Ge2 Ge5 2.870460 1_455
Ge2 Pr0 3.105861 1_545
Ge2 Pr1 3.157022 1_455
Ge2 Pr5 3.182509 1_555
Ge3 Pt7 2.565470 1_555
Ge3 Pt6 2.604802 1_556
Ge3 Ge4 2.870460 1_545
Ge3 Pr1 3.105861 1_456
Ge3 Pr0 3.157022 1_545
Ge3 Pr4 3.182509 1_555
Ge4 Pt1 2.591031 1_556
Ge4 Pt2 2.593225 1_555
Ge4 Pr0 3.143284 1_555
Ge4 Pr1 3.150513 1_466
Ge4 Pr3 3.195229 1_555
Ge5 Pt0 2.591031 1_555
Ge5 Pt3 2.593225 1_555
Ge5 Pr1 3.143284 1_555
Ge5 Pr0 3.150513 1_645
Ge5 Pr2 3.195229 1_555
Ge6 Pt0 2.602384 1_555
Ge6 Pt4 2.609269 1_555
Ge6 Pr4 3.131891 1_555
Ge6 Pr3 3.135332 1_555
Ge6 Pr2 3.406485 1_555
Ge7 Pt1 2.602384 1_555
Ge7 Pt5 2.609269 1_555
Ge7 Pr5 3.131891 1_555
Ge7 Pr2 3.135332 1_555
Ge7 Pr3 3.406485 1_554
Ge8 Pt7 2.615313 1_555
Ge8 Pt2 2.649530 1_545
Ge8 Pr3 3.434469 1_545
Ge8 Pr4 3.449599 1_555
Ge8 Pr0 3.557142 1_545
Ge9 Pt6 2.615313 1_555
Ge9 Pt3 2.649530 1_455
Ge9 Pr2 3.434469 1_455
Ge9 Pr5 3.449599 1_555
Ge9 Pr1 3.557142 1_455
Ge10 Pt1 2.587440 1_655
Ge10 Pt5 2.594283 1_555
Ge10 Ge9 2.764046 1_655
Ge10 Ge14 2.862519 1_655
Ge10 Pr2 3.116428 1_555
Ge10 Pr5 3.166168 1_655
Ge10 Pr1 3.190828 1_565
Ge11 Pt0 2.587440 1_565
Ge11 Pt4 2.594283 1_555
Ge11 Ge8 2.764046 1_565
Ge11 Ge15 2.862519 1_565
Ge11 Pr3 3.116428 1_555
Ge11 Pr4 3.166168 1_565
Ge11 Pr0 3.190828 1_655
Ge12 Pt3 2.607207 1_555
Ge12 Pt6 2.654507 1_555
Ge12 Ge24 2.731124 1_555
Ge12 Pr2 3.340741 1_555
Ge12 Pr5 3.342678 1_555
Ge12 Pr4 3.591759 1_554
Ge13 Pt2 2.607207 1_555
Ge13 Pt7 2.654507 1_555
Ge13 Ge25 2.731124 1_555
Ge13 Pr3 3.340741 1_555
Ge13 Pr4 3.342678 1_555
Ge13 Pr5 3.591759 1_555
Ge14 Pt4 2.557237 1_455
Ge14 Pt2 2.596090 1_555
Ge14 Ge19 2.742469 1_455
Ge14 Pr5 3.148993 1_555
Ge14 Pr2 3.159504 1_455
Ge14 Pr0 3.208835 1_555
Ge15 Pt5 2.557237 1_546
Ge15 Pt3 2.596090 1_556
Ge15 Ge18 2.742469 1_545
Ge15 Pr4 3.148993 1_555
Ge15 Pr3 3.159504 1_545
Ge15 Pr1 3.208835 1_556
Ge16 Pt1 2.599559 1_555
Ge16 Pt2 2.604509 1_555
Ge16 Ge2 2.818920 1_565
Ge16 Pr0 3.256565 1_555
Ge16 Pr1 3.266839 1_465
Ge16 Pr5 3.463559 1_555
Ge17 Pt0 2.599559 1_555
Ge17 Pt3 2.604509 1_556
Ge17 Ge3 2.818920 1_655
Ge17 Pr1 3.256565 1_556
Ge17 Pr0 3.266839 1_645
Ge17 Pr4 3.463559 1_555
Ge18 Pt1 2.578869 1_556
Ge18 Pt6 2.607557 1_566
Ge18 Pr3 3.356548 1_555
Ge18 Pr4 3.389490 1_565
Ge18 Pr1 3.501220 1_466
Ge19 Pt0 2.578869 1_555
Ge19 Pt7 2.607557 1_655
Ge19 Pr2 3.356548 1_555
Ge19 Pr5 3.389490 1_655
Ge19 Pr0 3.501220 1_645
Ge20 Pt3 2.557899 1_556
Ge20 Pt5 2.601812 1_556
Ge20 Ge6 2.815392 1_555
Ge20 Ge7 2.913374 1_556
Ge20 Ge25 2.920426 1_555
Ge20 Pr3 3.130839 1_555
Ge20 Pr4 3.137443 1_555
Ge20 Pr2 3.197557 1_556
Ge21 Pt2 2.557899 1_555
Ge21 Pt4 2.601812 1_555
Ge21 Ge7 2.815392 1_555
Ge21 Ge6 2.913374 1_555
Ge21 Ge24 2.920426 1_555
Ge21 Pr2 3.130839 1_555
Ge21 Pr5 3.137443 1_555
Ge21 Pr3 3.197557 1_555
Ge22 Pt5 2.604373 1_556
Ge22 Pt4 2.629701 1_555
Ge22 Ge4 2.727790 1_655
Ge22 Pr0 3.426040 1_655
Ge22 Pr1 3.445312 1_566
Ge22 Pr3 3.560496 1_555
Ge23 Pt4 2.604373 1_555
Ge23 Pt5 2.629701 1_555
Ge23 Ge5 2.727790 1_565
Ge23 Pr1 3.426040 1_565
Ge23 Pr0 3.445312 1_655
Ge23 Pr2 3.560496 1_555
Ge24 Pt7 2.587939 1_555
Ge24 Pt0 2.602000 1_555
Ge24 Ge6 2.889810 1_555
Ge24 Pr5 3.076352 1_555
Ge24 Pr2 3.140318 1_555
Ge24 Pr4 3.174525 1_555
Ge25 Pt6 2.587939 1_556
Ge25 Pt1 2.602000 1_556
Ge25 Ge7 2.889810 1_556
Ge25 Pr4 3.076352 1_555
Ge25 Pr3 3.140318 1_555
Ge25 Pr5 3.174525 1_556
