# generated using pymatgen
data_GeBiH8C2S4N
_symmetry_space_group_name_H-M   'P 1'
_cell_length_a   7.16214700
_cell_length_b   6.92835700
_cell_length_c   10.95418298
_cell_angle_alpha   75.12101925
_cell_angle_beta   90.00000000
_cell_angle_gamma   90.00000000
_symmetry_Int_Tables_number   1
_chemical_formula_structural   GeBiH8C2S4N
_chemical_formula_sum   'Ge2 Bi2 H16 C4 S8 N2'
_cell_volume   525.34186541
_cell_formula_units_Z   2
loop_
 _symmetry_equiv_pos_site_id
 _symmetry_equiv_pos_as_xyz
  1  'x, y, z'
loop_
 _atom_site_type_symbol
 _atom_site_label
 _atom_site_symmetry_multiplicity
 _atom_site_fract_x
 _atom_site_fract_y
 _atom_site_fract_z
 _atom_site_occupancy
  Ge  Ge0  1  0.18954100  0.78331700  0.34957100  1
  Ge  Ge1  1  0.68954100  0.21668300  0.65042900  1
  Bi  Bi0  1  0.79296700  0.75432900  0.54129700  1
  Bi  Bi1  1  0.29296700  0.24567100  0.45870300  1
  H  H0  1  0.79049900  0.71557800  0.20359300  1
  H  H1  1  0.29049900  0.28442200  0.79640700  1
  H  H2  1  0.56399800  0.66532500  0.18925800  1
  H  H3  1  0.06399800  0.33467500  0.81074200  1
  H  H4  1  0.82609500  0.39451500  0.19123600  1
  H  H5  1  0.32609500  0.60548500  0.80876400  1
  H  H6  1  0.60356700  0.39988400  0.11689100  1
  H  H7  1  0.10356700  0.60011600  0.88310900  1
  H  H8  1  0.80173800  0.50464600  0.02460200  1
  H  H9  1  0.30173800  0.49535400  0.97539800  1
  H  H10  1  0.74904600  0.98013500  0.05029700  1
  H  H11  1  0.24904600  0.01986500  0.94970300  1
  H  H12  1  0.75659500  0.81443300  0.94885700  1
  H  H13  1  0.25659500  0.18556700  0.05114300  1
  H  H14  1  0.53764300  0.88529800  0.00104700  1
  H  H15  1  0.03764300  0.11470200  0.99895300  1
  C  C0  1  0.73536000  0.48115700  0.11682900  1
  C  C1  1  0.23536000  0.51884300  0.88317100  1
  C  C2  1  0.68354800  0.85091300  0.02732000  1
  C  C3  1  0.18354800  0.14908700  0.97268000  1
  S  S0  1  0.92498900  0.95245800  0.30079200  1
  S  S1  1  0.42498900  0.04754200  0.69920800  1
  S  S2  1  0.43380300  0.98819000  0.33797500  1
  S  S3  1  0.93380300  0.01181000  0.66202500  1
  S  S4  1  0.25607300  0.57219800  0.23438400  1
  S  S5  1  0.75607300  0.42780200  0.76561600  1
  S  S6  1  0.63368700  0.39517000  0.44925000  1
  S  S7  1  0.13368700  0.60483000  0.55075000  1
  N  N0  1  0.69299000  0.67898400  0.14207100  1
  N  N1  1  0.19299000  0.32101600  0.85792900  1
loop_
_geom_bond_atom_site_label_1
_geom_bond_atom_site_label_2
_geom_bond_distance
_geom_bond_site_symmetry_2
Ge0 S4 2.215060 1_555
Ge0 S0 2.219760 1_455
Ge0 S2 2.235816 1_555
Ge0 S7 2.268531 1_555
Ge1 S5 2.215060 1_555
Ge1 S1 2.219760 1_555
Ge1 S3 2.235816 1_555
Ge1 S6 2.268531 1_555
Bi0 S7 2.642629 1_655
Bi0 S3 2.675882 1_565
Bi0 S0 2.803915 1_555
Bi0 S5 2.893257 1_555
Bi0 S6 3.130278 1_555
Bi1 S6 2.642629 1_555
Bi1 S2 2.675882 1_545
Bi1 S1 2.803915 1_555
Bi1 S4 2.893257 1_555
Bi1 S7 3.130278 1_555
H0 N0 1.045910 1_555
H1 N1 1.045910 1_555
H2 N0 1.050967 1_555
H3 N1 1.050967 1_555
C0 H8 1.090281 1_555
C0 H4 1.093492 1_555
C0 H6 1.099026 1_555
C0 N0 1.497251 1_555
C1 H9 1.090281 1_555
C1 H5 1.093492 1_555
C1 H7 1.099026 1_555
C1 N1 1.497251 1_555
C2 H12 1.089904 1_554
C2 H14 1.093793 1_555
C2 H10 1.095761 1_555
C2 N0 1.494856 1_555
C3 H13 1.089904 1_556
C3 H15 1.093793 1_555
C3 H11 1.095761 1_555
C3 N1 1.494856 1_555
