# generated using pymatgen
data_BaMg6Al
_symmetry_space_group_name_H-M   'P 1'
_cell_length_a   5.10654600
_cell_length_b   7.09249200
_cell_length_c   11.95523800
_cell_angle_alpha   90.00000000
_cell_angle_beta   90.00000000
_cell_angle_gamma   90.00000000
_symmetry_Int_Tables_number   1
_chemical_formula_structural   BaMg6Al
_chemical_formula_sum   'Ba2 Mg12 Al2'
_cell_volume   432.99644360
_cell_formula_units_Z   2
loop_
 _symmetry_equiv_pos_site_id
 _symmetry_equiv_pos_as_xyz
  1  'x, y, z'
loop_
 _atom_site_type_symbol
 _atom_site_label
 _atom_site_symmetry_multiplicity
 _atom_site_fract_x
 _atom_site_fract_y
 _atom_site_fract_z
 _atom_site_occupancy
  Ba  Ba0  1  0.50000000  0.50000000  0.16858800  1
  Ba  Ba1  1  0.50000000  0.00000000  0.66858800  1
  Mg  Mg0  1  0.00000000  0.21706800  0.07235000  1
  Mg  Mg1  1  0.00000000  0.78293200  0.07235000  1
  Mg  Mg2  1  0.00000000  0.50000000  0.83392800  1
  Mg  Mg3  1  0.50000000  0.23404100  0.91887300  1
  Mg  Mg4  1  0.50000000  0.76595900  0.91887300  1
  Mg  Mg5  1  0.50000000  0.50000000  0.66248300  1
  Mg  Mg6  1  0.00000000  0.71706800  0.57235000  1
  Mg  Mg7  1  0.00000000  0.28293200  0.57235000  1
  Mg  Mg8  1  0.00000000  0.00000000  0.33392800  1
  Mg  Mg9  1  0.50000000  0.73404100  0.41887300  1
  Mg  Mg10  1  0.50000000  0.26595900  0.41887300  1
  Mg  Mg11  1  0.50000000  0.00000000  0.16248300  1
  Al  Al0  1  0.00000000  0.50000000  0.35255500  1
  Al  Al1  1  0.00000000  0.00000000  0.85255500  1
loop_
_geom_bond_atom_site_label_1
_geom_bond_atom_site_label_2
_geom_bond_distance
_geom_bond_site_symmetry_2
Ba0 Mg10 3.421804 1_555
Ba0 Mg9 3.421804 1_555
Ba0 Mg1 3.445255 1_655
Ba0 Mg0 3.445255 1_555
Ba0 Mg0 3.445255 1_655
Ba0 Mg1 3.445255 1_555
Ba0 Mg4 3.531402 1_554
Ba0 Mg3 3.531402 1_554
Ba0 Mg11 3.546997 1_555
Ba0 Mg11 3.546997 1_565
Ba1 Mg3 3.421804 1_555
Ba1 Mg4 3.421804 1_545
Ba1 Mg6 3.445255 1_645
Ba1 Mg6 3.445255 1_545
Ba1 Mg7 3.445255 1_655
Ba1 Mg7 3.445255 1_555
Ba1 Mg9 3.531402 1_545
Ba1 Mg10 3.531402 1_555
Ba1 Mg5 3.546997 1_545
Ba1 Mg5 3.546997 1_555
Mg0 Mg1 3.079106 1_545
Mg0 Mg3 3.146488 1_454
Mg0 Mg3 3.146488 1_554
Mg0 Mg11 3.170263 1_555
Mg0 Mg11 3.170263 1_455
Mg0 Mg8 3.485653 1_555
Mg0 Mg2 3.485907 1_554
Mg1 Mg4 3.146488 1_554
Mg1 Mg4 3.146488 1_454
Mg1 Mg11 3.170263 1_565
Mg1 Mg11 3.170263 1_465
Mg1 Mg8 3.485653 1_565
Mg1 Mg2 3.485907 1_554
Mg2 Mg5 3.274192 1_455
Mg2 Mg5 3.274192 1_555
Mg2 Mg4 3.332971 1_455
Mg2 Mg4 3.332971 1_555
Mg2 Mg3 3.332971 1_455
Mg2 Mg3 3.332971 1_555
Mg2 Mg7 3.485653 1_555
Mg2 Mg6 3.485653 1_555
Mg3 Mg4 3.319868 1_545
Mg5 Mg6 3.170263 1_655
Mg5 Mg7 3.170263 1_555
Mg5 Mg7 3.170263 1_655
Mg5 Mg6 3.170263 1_555
Mg5 Mg9 3.352245 1_555
Mg6 Mg7 3.079106 1_555
Mg6 Mg9 3.146488 1_555
Mg6 Mg9 3.146488 1_455
Mg6 Mg8 3.485907 1_565
Mg7 Mg8 3.485907 1_555
Mg8 Mg9 3.332971 1_545
Mg8 Mg9 3.332971 1_445
Mg10 Mg7 3.146488 1_555
Mg10 Mg7 3.146488 1_655
Mg10 Mg9 3.319868 1_555
Mg10 Mg8 3.332971 1_555
Mg10 Mg8 3.332971 1_655
Mg10 Mg5 3.352245 1_555
Mg11 Mg8 3.274192 1_555
Mg11 Mg8 3.274192 1_655
Mg11 Mg3 3.352245 1_554
Mg11 Mg4 3.352245 1_544
Al0 Mg7 3.045495 1_555
Al0 Mg6 3.045495 1_555
Al0 Mg9 3.146934 1_455
Al0 Mg9 3.146934 1_555
Al0 Mg10 3.146934 1_455
Al0 Mg10 3.146934 1_555
Al0 Ba0 3.369930 1_455
Al0 Ba0 3.369930 1_555
Al1 Mg0 3.045495 1_556
Al1 Mg1 3.045495 1_546
Al1 Mg4 3.146934 1_445
Al1 Mg3 3.146934 1_555
Al1 Mg4 3.146934 1_545
Al1 Mg3 3.146934 1_455
Al1 Ba1 3.369930 1_455
Al1 Ba1 3.369930 1_555
