# generated using pymatgen
data_ZnCrP2O7
_symmetry_space_group_name_H-M   'P 1'
_cell_length_a   8.45316100
_cell_length_b   7.10595400
_cell_length_c   9.34694775
_cell_angle_alpha   70.01176372
_cell_angle_beta   90.00000000
_cell_angle_gamma   90.00000000
_symmetry_Int_Tables_number   1
_chemical_formula_structural   ZnCrP2O7
_chemical_formula_sum   'Zn4 Cr4 P8 O28'
_cell_volume   527.63015414
_cell_formula_units_Z   4
loop_
 _symmetry_equiv_pos_site_id
 _symmetry_equiv_pos_as_xyz
  1  'x, y, z'
loop_
 _atom_site_type_symbol
 _atom_site_label
 _atom_site_symmetry_multiplicity
 _atom_site_fract_x
 _atom_site_fract_y
 _atom_site_fract_z
 _atom_site_occupancy
  Zn  Zn0  1  0.93793400  0.30805000  0.81351600  1
  Zn  Zn1  1  0.43793400  0.69195000  0.68648400  1
  Zn  Zn2  1  0.56206600  0.30805000  0.31351600  1
  Zn  Zn3  1  0.06206600  0.69195000  0.18648400  1
  Cr  Cr0  1  0.06648600  0.76016600  0.61216100  1
  Cr  Cr1  1  0.93351400  0.23983400  0.38783900  1
  Cr  Cr2  1  0.56648600  0.23983400  0.88783900  1
  Cr  Cr3  1  0.43351400  0.76016600  0.11216100  1
  P  P0  1  0.73827800  0.93078600  0.24870800  1
  P  P1  1  0.22843100  0.46151700  0.97252400  1
  P  P2  1  0.76172200  0.93078600  0.74870800  1
  P  P3  1  0.27156900  0.46151700  0.47252400  1
  P  P4  1  0.23827800  0.06921400  0.25129200  1
  P  P5  1  0.72843100  0.53848300  0.52747600  1
  P  P6  1  0.77156900  0.53848300  0.02747600  1
  P  P7  1  0.26172200  0.06921400  0.75129200  1
  O  O0  1  0.18924300  0.24904000  0.09637400  1
  O  O1  1  0.60399200  0.88339200  0.69297300  1
  O  O2  1  0.89600800  0.88339200  0.19297300  1
  O  O3  1  0.38977800  0.45285400  0.89566100  1
  O  O4  1  0.81075700  0.75096000  0.90362600  1
  O  O5  1  0.10225500  0.04795600  0.36342500  1
  O  O6  1  0.61022200  0.54714600  0.10433900  1
  O  O7  1  0.09084200  0.50260900  0.86087600  1
  O  O8  1  0.26084100  0.61740000  0.55429200  1
  O  O9  1  0.89774500  0.95204400  0.63657500  1
  O  O10  1  0.39774500  0.04795600  0.86342500  1
  O  O11  1  0.75508400  0.11633600  0.79987200  1
  O  O12  1  0.25508400  0.88366400  0.70012800  1
  O  O13  1  0.31075700  0.24904000  0.59637400  1
  O  O14  1  0.60225500  0.95204400  0.13657500  1
  O  O15  1  0.10399200  0.11660800  0.80702700  1
  O  O16  1  0.24491600  0.88366400  0.20012800  1
  O  O17  1  0.90915800  0.49739100  0.13912400  1
  O  O18  1  0.23915900  0.61740000  0.05429200  1
  O  O19  1  0.76084100  0.38260000  0.94570800  1
  O  O20  1  0.88977800  0.54714600  0.60433900  1
  O  O21  1  0.40915800  0.50260900  0.36087600  1
  O  O22  1  0.59084200  0.49739100  0.63912400  1
  O  O23  1  0.39600800  0.11660800  0.30702700  1
  O  O24  1  0.74491600  0.11633600  0.29987200  1
  O  O25  1  0.11022200  0.45285400  0.39566100  1
  O  O26  1  0.73915900  0.38260000  0.44570800  1
  O  O27  1  0.68924300  0.75096000  0.40362600  1
loop_
_geom_bond_atom_site_label_1
_geom_bond_atom_site_label_2
_geom_bond_distance
_geom_bond_site_symmetry_2
Cr0 O9 2.039229 1_455
Cr0 O8 2.096681 1_555
Cr0 O12 2.116863 1_555
Cr0 O20 2.145597 1_455
Cr0 O7 2.426436 1_555
Cr0 O5 2.535420 1_565
Cr1 O5 2.039229 1_655
Cr1 O26 2.096681 1_555
Cr1 O24 2.116863 1_555
Cr1 O25 2.145597 1_655
Cr1 O17 2.426436 1_555
Cr1 O9 2.535420 1_545
Cr2 O10 2.039229 1_555
Cr2 O19 2.096681 1_555
Cr2 O11 2.116863 1_555
Cr2 O3 2.145597 1_555
Cr2 O22 2.426436 1_555
Cr2 O14 2.535420 1_546
Cr3 O14 2.039229 1_555
Cr3 O18 2.096681 1_555
Cr3 O16 2.116863 1_555
Cr3 O6 2.145597 1_555
Cr3 O21 2.426436 1_555
Cr3 O10 2.535420 1_564
O0 P1 1.592029 1_554
O0 P4 1.623709 1_555
O1 P2 1.510791 1_555
O1 Zn1 1.970059 1_555
O2 P0 1.510791 1_555
O2 Zn3 1.970059 1_655
O3 P1 1.552538 1_555
O3 Zn1 2.145696 1_555
O4 P6 1.592029 1_556
O4 P2 1.623709 1_555
O5 P4 1.528133 1_555
O6 P6 1.552538 1_555
O6 Zn2 2.145696 1_555
O7 P1 1.522724 1_555
O7 Zn0 2.048522 1_455
O8 P3 1.548586 1_555
O8 Zn1 2.120331 1_555
O9 P2 1.528133 1_555
O10 P7 1.528133 1_555
O11 P2 1.549643 1_545
O11 Zn0 2.092844 1_555
O12 P7 1.549643 1_565
O12 Zn1 2.092844 1_555
O13 P3 1.592029 1_555
O13 P7 1.623709 1_555
O14 P0 1.528133 1_555
O15 P7 1.510791 1_555
O15 Zn0 1.970059 1_455
O16 P4 1.549643 1_565
O16 Zn3 2.092844 1_555
O17 P6 1.522724 1_555
O17 Zn3 2.048522 1_655
O18 P1 1.548586 1_554
O18 Zn3 2.120331 1_555
O19 P6 1.548586 1_556
O19 Zn0 2.120331 1_555
O20 P5 1.552538 1_555
O20 Zn0 2.145696 1_555
O21 P3 1.522724 1_555
O21 Zn2 2.048522 1_555
O22 P5 1.522724 1_555
O22 Zn1 2.048522 1_555
O23 P4 1.510791 1_555
O23 Zn2 1.970059 1_555
O24 P0 1.549643 1_545
O24 Zn2 2.092844 1_555
O25 P3 1.552538 1_555
O25 Zn3 2.145696 1_555
O26 P5 1.548586 1_555
O26 Zn2 2.120331 1_555
O27 P5 1.592029 1_555
O27 P0 1.623709 1_555
