# generated using pymatgen
data_CsV(PO3)4
_symmetry_space_group_name_H-M   'P 1'
_cell_length_a   14.82106836
_cell_length_b   14.82106836
_cell_length_c   14.82106836
_cell_angle_alpha   90.00000000
_cell_angle_beta   90.00000000
_cell_angle_gamma   90.00000000
_symmetry_Int_Tables_number   1
_chemical_formula_structural   CsV(PO3)4
_chemical_formula_sum   'Cs12 V12 P48 O144'
_cell_volume   3255.65615816
_cell_formula_units_Z   12
loop_
 _symmetry_equiv_pos_site_id
 _symmetry_equiv_pos_as_xyz
  1  'x, y, z'
loop_
 _atom_site_type_symbol
 _atom_site_label
 _atom_site_symmetry_multiplicity
 _atom_site_fract_x
 _atom_site_fract_y
 _atom_site_fract_z
 _atom_site_occupancy
  Cs  Cs0  1  0.00000000  -0.00000000  0.50000000  1
  Cs  Cs1  1  0.00000000  0.50000000  0.00000000  1
  Cs  Cs2  1  0.50000000  -0.00000000  0.00000000  1
  Cs  Cs3  1  0.50000000  0.50000000  0.50000000  1
  Cs  Cs4  1  0.15691110  0.15691110  0.15691110  1
  Cs  Cs5  1  0.84308890  0.65691110  0.34308890  1
  Cs  Cs6  1  0.34308890  0.84308890  0.65691110  1
  Cs  Cs7  1  0.65691110  0.34308890  0.84308890  1
  Cs  Cs8  1  0.84308890  0.84308890  0.84308890  1
  Cs  Cs9  1  0.15691110  0.34308890  0.65691110  1
  Cs  Cs10  1  0.65691110  0.15691110  0.34308890  1
  Cs  Cs11  1  0.34308890  0.65691110  0.15691110  1
  V  V0  1  0.00000000  -0.00000000  0.00000000  1
  V  V1  1  0.00000000  0.50000000  0.50000000  1
  V  V2  1  0.50000000  -0.00000000  0.50000000  1
  V  V3  1  0.50000000  0.50000000  0.00000000  1
  V  V4  1  0.18959286  0.81040714  0.31040714  1
  V  V5  1  0.81040714  0.31040714  0.18959286  1
  V  V6  1  0.31040714  0.18959286  0.81040714  1
  V  V7  1  0.68959286  0.68959286  0.68959286  1
  V  V8  1  0.81040714  0.18959286  0.68959286  1
  V  V9  1  0.18959286  0.68959286  0.81040714  1
  V  V10  1  0.68959286  0.81040714  0.18959286  1
  V  V11  1  0.31040714  0.31040714  0.31040714  1
  P  P0  1  0.02241946  0.91544601  0.21245862  1
  P  P1  1  0.97758054  0.41544601  0.28754138  1
  P  P2  1  0.47758054  0.08455399  0.71245862  1
  P  P3  1  0.52241946  0.58455399  0.78754138  1
  P  P4  1  0.21245862  0.02241946  0.91544601  1
  P  P5  1  0.28754138  0.97758054  0.41544601  1
  P  P6  1  0.71245862  0.47758054  0.08455399  1
  P  P7  1  0.78754138  0.52241946  0.58455399  1
  P  P8  1  0.91544601  0.21245862  0.02241946  1
  P  P9  1  0.41544601  0.28754138  0.97758054  1
  P  P10  1  0.08455399  0.71245862  0.47758054  1
  P  P11  1  0.58455399  0.78754138  0.52241946  1
  P  P12  1  0.97758054  0.08455399  0.78754138  1
  P  P13  1  0.02241946  0.58455399  0.71245862  1
  P  P14  1  0.52241946  0.91544601  0.28754138  1
  P  P15  1  0.47758054  0.41544601  0.21245862  1
  P  P16  1  0.78754138  0.97758054  0.08455399  1
  P  P17  1  0.71245862  0.02241946  0.58455399  1
  P  P18  1  0.28754138  0.52241946  0.91544601  1
  P  P19  1  0.21245862  0.47758054  0.41544601  1
  P  P20  1  0.08455399  0.78754138  0.97758054  1
  P  P21  1  0.58455399  0.71245862  0.02241946  1
  P  P22  1  0.91544601  0.28754138  0.52241946  1
  P  P23  1  0.41544601  0.21245862  0.47758054  1
  P  P24  1  0.04962596  0.72208957  0.16575954  1
  P  P25  1  0.95037404  0.22208957  0.33424046  1
  P  P26  1  0.45037404  0.27791043  0.66575954  1
  P  P27  1  0.54962596  0.77791043  0.83424046  1
  P  P28  1  0.16575954  0.04962596  0.72208957  1
  P  P29  1  0.33424046  0.95037404  0.22208957  1
  P  P30  1  0.66575954  0.45037404  0.27791043  1
  P  P31  1  0.83424046  0.54962596  0.77791043  1
  P  P32  1  0.72208957  0.16575954  0.04962596  1
  P  P33  1  0.22208957  0.33424046  0.95037404  1
  P  P34  1  0.27791043  0.66575954  0.45037404  1
  P  P35  1  0.77791043  0.83424046  0.54962596  1
  P  P36  1  0.95037404  0.27791043  0.83424046  1
  P  P37  1  0.04962596  0.77791043  0.66575954  1
  P  P38  1  0.54962596  0.72208957  0.33424046  1
  P  P39  1  0.45037404  0.22208957  0.16575954  1
  P  P40  1  0.83424046  0.95037404  0.27791043  1
  P  P41  1  0.66575954  0.04962596  0.77791043  1
  P  P42  1  0.33424046  0.54962596  0.72208957  1
  P  P43  1  0.16575954  0.45037404  0.22208957  1
  P  P44  1  0.27791043  0.83424046  0.95037404  1
  P  P45  1  0.77791043  0.66575954  0.04962596  1
  P  P46  1  0.72208957  0.33424046  0.54962596  1
  P  P47  1  0.22208957  0.16575954  0.45037404  1
  O  O0  1  0.99457392  0.81643810  0.17888203  1
  O  O1  1  0.00542608  0.31643810  0.32111797  1
  O  O2  1  0.50542608  0.18356190  0.67888203  1
  O  O3  1  0.49457392  0.68356190  0.82111797  1
  O  O4  1  0.17888203  0.99457392  0.81643810  1
  O  O5  1  0.32111797  0.00542608  0.31643810  1
  O  O6  1  0.67888203  0.50542608  0.18356190  1
  O  O7  1  0.82111797  0.49457392  0.68356190  1
  O  O8  1  0.81643810  0.17888203  0.99457392  1
  O  O9  1  0.31643810  0.32111797  0.00542608  1
  O  O10  1  0.18356190  0.67888203  0.50542608  1
  O  O11  1  0.68356190  0.82111797  0.49457392  1
  O  O12  1  0.00542608  0.18356190  0.82111797  1
  O  O13  1  0.99457392  0.68356190  0.67888203  1
  O  O14  1  0.49457392  0.81643810  0.32111797  1
  O  O15  1  0.50542608  0.31643810  0.17888203  1
  O  O16  1  0.82111797  0.00542608  0.18356190  1
  O  O17  1  0.67888203  0.99457392  0.68356190  1
  O  O18  1  0.32111797  0.49457392  0.81643810  1
  O  O19  1  0.17888203  0.50542608  0.31643810  1
  O  O20  1  0.18356190  0.82111797  0.00542608  1
  O  O21  1  0.68356190  0.67888203  0.99457392  1
  O  O22  1  0.81643810  0.32111797  0.49457392  1
  O  O23  1  0.31643810  0.17888203  0.50542608  1
  O  O24  1  0.94343189  0.93797383  0.28217116  1
  O  O25  1  0.05656811  0.43797383  0.21782884  1
  O  O26  1  0.55656811  0.06202617  0.78217116  1
  O  O27  1  0.44343189  0.56202617  0.71782884  1
  O  O28  1  0.28217116  0.94343189  0.93797383  1
  O  O29  1  0.21782884  0.05656811  0.43797383  1
  O  O30  1  0.78217116  0.55656811  0.06202617  1
  O  O31  1  0.71782884  0.44343189  0.56202617  1
  O  O32  1  0.93797383  0.28217116  0.94343189  1
  O  O33  1  0.43797383  0.21782884  0.05656811  1
  O  O34  1  0.06202617  0.78217116  0.55656811  1
  O  O35  1  0.56202617  0.71782884  0.44343189  1
  O  O36  1  0.05656811  0.06202617  0.71782884  1
  O  O37  1  0.94343189  0.56202617  0.78217116  1
  O  O38  1  0.44343189  0.93797383  0.21782884  1
  O  O39  1  0.55656811  0.43797383  0.28217116  1
  O  O40  1  0.71782884  0.05656811  0.06202617  1
  O  O41  1  0.78217116  0.94343189  0.56202617  1
  O  O42  1  0.21782884  0.44343189  0.93797383  1
  O  O43  1  0.28217116  0.55656811  0.43797383  1
  O  O44  1  0.06202617  0.71782884  0.05656811  1
  O  O45  1  0.56202617  0.78217116  0.94343189  1
  O  O46  1  0.93797383  0.21782884  0.44343189  1
  O  O47  1  0.43797383  0.28217116  0.55656811  1
  O  O48  1  0.02069095  0.98015794  0.13470819  1
  O  O49  1  0.97930905  0.48015794  0.36529181  1
  O  O50  1  0.47930905  0.01984206  0.63470819  1
  O  O51  1  0.52069095  0.51984206  0.86529181  1
  O  O52  1  0.13470819  0.02069095  0.98015794  1
  O  O53  1  0.36529181  0.97930905  0.48015794  1
  O  O54  1  0.63470819  0.47930905  0.01984206  1
  O  O55  1  0.86529181  0.52069095  0.51984206  1
  O  O56  1  0.98015794  0.13470819  0.02069095  1
  O  O57  1  0.48015794  0.36529181  0.97930905  1
  O  O58  1  0.01984206  0.63470819  0.47930905  1
  O  O59  1  0.51984206  0.86529181  0.52069095  1
  O  O60  1  0.97930905  0.01984206  0.86529181  1
  O  O61  1  0.02069095  0.51984206  0.63470819  1
  O  O62  1  0.52069095  0.98015794  0.36529181  1
  O  O63  1  0.47930905  0.48015794  0.13470819  1
  O  O64  1  0.86529181  0.97930905  0.01984206  1
  O  O65  1  0.63470819  0.02069095  0.51984206  1
  O  O66  1  0.36529181  0.52069095  0.98015794  1
  O  O67  1  0.13470819  0.47930905  0.48015794  1
  O  O68  1  0.01984206  0.86529181  0.97930905  1
  O  O69  1  0.51984206  0.63470819  0.02069095  1
  O  O70  1  0.98015794  0.36529181  0.52069095  1
  O  O71  1  0.48015794  0.13470819  0.47930905  1
  O  O72  1  0.10878254  0.91318901  0.26650056  1
  O  O73  1  0.89121746  0.41318901  0.23349944  1
  O  O74  1  0.39121746  0.08681099  0.76650056  1
  O  O75  1  0.60878254  0.58681099  0.73349944  1
  O  O76  1  0.26650056  0.10878254  0.91318901  1
  O  O77  1  0.23349944  0.89121746  0.41318901  1
  O  O78  1  0.76650056  0.39121746  0.08681099  1
  O  O79  1  0.73349944  0.60878254  0.58681099  1
  O  O80  1  0.91318901  0.26650056  0.10878254  1
  O  O81  1  0.41318901  0.23349944  0.89121746  1
  O  O82  1  0.08681099  0.76650056  0.39121746  1
  O  O83  1  0.58681099  0.73349944  0.60878254  1
  O  O84  1  0.89121746  0.08681099  0.73349944  1
  O  O85  1  0.10878254  0.58681099  0.76650056  1
  O  O86  1  0.60878254  0.91318901  0.23349944  1
  O  O87  1  0.39121746  0.41318901  0.26650056  1
  O  O88  1  0.73349944  0.89121746  0.08681099  1
  O  O89  1  0.76650056  0.10878254  0.58681099  1
  O  O90  1  0.23349944  0.60878254  0.91318901  1
  O  O91  1  0.26650056  0.39121746  0.41318901  1
  O  O92  1  0.08681099  0.73349944  0.89121746  1
  O  O93  1  0.58681099  0.76650056  0.10878254  1
  O  O94  1  0.91318901  0.23349944  0.60878254  1
  O  O95  1  0.41318901  0.26650056  0.39121746  1
  O  O96  1  0.14335751  0.73565861  0.20592046  1
  O  O97  1  0.85664249  0.23565861  0.29407954  1
  O  O98  1  0.35664249  0.26434139  0.70592046  1
  O  O99  1  0.64335751  0.76434139  0.79407954  1
  O  O100  1  0.20592046  0.14335751  0.73565861  1
  O  O101  1  0.29407954  0.85664249  0.23565861  1
  O  O102  1  0.70592046  0.35664249  0.26434139  1
  O  O103  1  0.79407954  0.64335751  0.76434139  1
  O  O104  1  0.73565861  0.20592046  0.14335751  1
  O  O105  1  0.23565861  0.29407954  0.85664249  1
  O  O106  1  0.26434139  0.70592046  0.35664249  1
  O  O107  1  0.76434139  0.79407954  0.64335751  1
  O  O108  1  0.85664249  0.26434139  0.79407954  1
  O  O109  1  0.14335751  0.76434139  0.70592046  1
  O  O110  1  0.64335751  0.73565861  0.29407954  1
  O  O111  1  0.35664249  0.23565861  0.20592046  1
  O  O112  1  0.79407954  0.85664249  0.26434139  1
  O  O113  1  0.70592046  0.14335751  0.76434139  1
  O  O114  1  0.29407954  0.64335751  0.73565861  1
  O  O115  1  0.20592046  0.35664249  0.23565861  1
  O  O116  1  0.26434139  0.79407954  0.85664249  1
  O  O117  1  0.76434139  0.70592046  0.14335751  1
  O  O118  1  0.73565861  0.29407954  0.64335751  1
  O  O119  1  0.23565861  0.20592046  0.35664249  1
  O  O120  1  0.99273660  0.64521741  0.19263732  1
  O  O121  1  0.00726340  0.14521741  0.30736268  1
  O  O122  1  0.50726340  0.35478259  0.69263732  1
  O  O123  1  0.49273660  0.85478259  0.80736268  1
  O  O124  1  0.19263732  0.99273660  0.64521741  1
  O  O125  1  0.30736268  0.00726340  0.14521741  1
  O  O126  1  0.69263732  0.50726340  0.35478259  1
  O  O127  1  0.80736268  0.49273660  0.85478259  1
  O  O128  1  0.64521741  0.19263732  0.99273660  1
  O  O129  1  0.14521741  0.30736268  0.00726340  1
  O  O130  1  0.35478259  0.69263732  0.50726340  1
  O  O131  1  0.85478259  0.80736268  0.49273660  1
  O  O132  1  0.00726340  0.35478259  0.80736268  1
  O  O133  1  0.99273660  0.85478259  0.69263732  1
  O  O134  1  0.49273660  0.64521741  0.30736268  1
  O  O135  1  0.50726340  0.14521741  0.19263732  1
  O  O136  1  0.80736268  0.00726340  0.35478259  1
  O  O137  1  0.69263732  0.99273660  0.85478259  1
  O  O138  1  0.30736268  0.49273660  0.64521741  1
  O  O139  1  0.19263732  0.50726340  0.14521741  1
  O  O140  1  0.35478259  0.80736268  0.00726340  1
  O  O141  1  0.85478259  0.69263732  0.99273660  1
  O  O142  1  0.64521741  0.30736268  0.49273660  1
  O  O143  1  0.14521741  0.19263732  0.50726340  1
loop_
_geom_bond_atom_site_label_1
_geom_bond_atom_site_label_2
_geom_bond_distance
_geom_bond_site_symmetry_2
Cs0 O24 3.459905 1_445
Cs0 O29 3.459905 1_555
Cs0 O46 3.459905 1_455
Cs0 O41 3.459905 1_445
Cs0 O36 3.459905 1_555
Cs0 O34 3.459905 1_545
Cs0 O121 3.577070 1_555
Cs0 O133 3.577070 1_445
Cs0 O143 3.577070 1_555
Cs0 O131 3.577070 1_445
Cs0 O136 3.577070 1_455
Cs0 O124 3.577070 1_545
Cs1 O32 3.459905 1_454
Cs1 O42 3.459905 1_554
Cs1 O25 3.459905 1_555
Cs1 O30 3.459905 1_455
Cs1 O37 3.459905 1_454
Cs1 O44 3.459905 1_555
Cs1 O132 3.577070 1_554
Cs1 O141 3.577070 1_454
Cs1 O120 3.577070 1_455
Cs1 O129 3.577070 1_555
Cs1 O139 3.577070 1_555
Cs1 O127 3.577070 1_454
Cs2 O28 3.459905 1_544
Cs2 O33 3.459905 1_555
Cs2 O38 3.459905 1_545
Cs2 O45 3.459905 1_544
Cs2 O26 3.459905 1_554
Cs2 O40 3.459905 1_555
Cs2 O128 3.577070 1_554
Cs2 O140 3.577070 1_545
Cs2 O135 3.577070 1_555
Cs2 O123 3.577070 1_544
Cs2 O137 3.577070 1_544
Cs2 O125 3.577070 1_555
Cs3 O43 3.459905 1_555
Cs3 O39 3.459905 1_555
Cs3 O47 3.459905 1_555
Cs3 O35 3.459905 1_555
Cs3 O27 3.459905 1_555
Cs3 O31 3.459905 1_555
Cs3 O130 3.577070 1_555
Cs3 O122 3.577070 1_555
Cs3 O134 3.577070 1_555
Cs3 O126 3.577070 1_555
Cs3 O142 3.577070 1_555
Cs3 O138 3.577070 1_555
Cs4 O121 3.149847 1_555
Cs4 O125 3.149847 1_555
Cs4 O129 3.149847 1_555
Cs4 O115 3.263858 1_555
Cs4 O119 3.263858 1_555
Cs4 O111 3.263858 1_555
Cs4 O56 3.323708 1_455
Cs4 O48 3.323708 1_545
Cs4 O52 3.323708 1_554
Cs5 O126 3.149847 1_555
Cs5 O131 3.149847 1_555
Cs5 O120 3.149847 1_555
Cs5 O110 3.263858 1_555
Cs5 O117 3.263858 1_555
Cs5 O112 3.263858 1_555
Cs5 O55 3.323708 1_555
Cs5 O49 3.323708 1_555
Cs5 O58 3.323708 1_655
Cs6 O130 3.149847 1_555
Cs6 O123 3.149847 1_555
Cs6 O124 3.149847 1_555
Cs6 O114 3.263858 1_555
Cs6 O109 3.263858 1_555
Cs6 O116 3.263858 1_555
Cs6 O59 3.323708 1_555
Cs6 O53 3.323708 1_555
Cs6 O50 3.323708 1_565
Cs7 O122 3.149847 1_555
Cs7 O127 3.149847 1_555
Cs7 O128 3.149847 1_555
Cs7 O118 3.263858 1_555
Cs7 O113 3.263858 1_555
Cs7 O108 3.263858 1_555
Cs7 O51 3.323708 1_555
Cs7 O57 3.323708 1_555
Cs7 O54 3.323708 1_556
Cs8 O133 3.149847 1_555
Cs8 O137 3.149847 1_555
Cs8 O141 3.149847 1_555
Cs8 O103 3.263858 1_555
Cs8 O107 3.263858 1_555
Cs8 O99 3.263858 1_555
Cs8 O60 3.323708 1_565
Cs8 O68 3.323708 1_655
Cs8 O64 3.323708 1_556
Cs9 O138 3.149847 1_555
Cs9 O143 3.149847 1_555
Cs9 O132 3.149847 1_555
Cs9 O100 3.263858 1_555
Cs9 O98 3.263858 1_555
Cs9 O105 3.263858 1_555
Cs9 O61 3.323708 1_555
Cs9 O70 3.323708 1_455
Cs9 O67 3.323708 1_555
Cs10 O142 3.149847 1_555
Cs10 O135 3.149847 1_555
Cs10 O136 3.149847 1_555
Cs10 O104 3.263858 1_555
Cs10 O102 3.263858 1_555
Cs10 O97 3.263858 1_555
Cs10 O65 3.323708 1_555
Cs10 O62 3.323708 1_545
Cs10 O71 3.323708 1_555
Cs11 O134 3.149847 1_555
Cs11 O139 3.149847 1_555
Cs11 O140 3.149847 1_555
Cs11 O96 3.263858 1_555
Cs11 O106 3.263858 1_555
Cs11 O101 3.263858 1_555
Cs11 O69 3.323708 1_555
Cs11 O66 3.323708 1_554
Cs11 O63 3.323708 1_555
O0 P0 1.603509 1_655
O0 P24 1.630625 1_655
O1 P1 1.603509 1_455
O1 P25 1.630625 1_455
O2 P2 1.603509 1_555
O2 P26 1.630625 1_555
O3 P3 1.603509 1_555
O3 P27 1.630625 1_555
O4 P4 1.603509 1_565
O4 P28 1.630625 1_565
O5 P5 1.603509 1_545
O5 P29 1.630625 1_545
O6 P6 1.603509 1_555
O6 P30 1.630625 1_555
O7 P7 1.603509 1_555
O7 P31 1.630625 1_555
O8 P8 1.603509 1_556
O8 P32 1.630625 1_556
O9 P9 1.603509 1_554
O9 P33 1.630625 1_554
O10 P10 1.603509 1_555
O10 P34 1.630625 1_555
O11 P11 1.603509 1_555
O11 P35 1.630625 1_555
O12 P12 1.603509 1_455
O12 P36 1.630625 1_455
O13 P13 1.603509 1_655
O13 P37 1.630625 1_655
O14 P14 1.603509 1_555
O14 P38 1.630625 1_555
O15 P15 1.603509 1_555
O15 P39 1.630625 1_555
O16 P16 1.603509 1_545
O16 P40 1.630625 1_545
O17 P17 1.603509 1_565
O17 P41 1.630625 1_565
O18 P18 1.603509 1_555
O18 P42 1.630625 1_555
O19 P19 1.603509 1_555
O19 P43 1.630625 1_555
O20 P20 1.603509 1_554
O20 P44 1.630625 1_554
O21 P21 1.603509 1_556
O21 P45 1.630625 1_556
O22 P22 1.603509 1_555
O22 P46 1.630625 1_555
O23 P23 1.603509 1_555
O23 P47 1.630625 1_555
O24 P0 1.596717 1_655
O24 P40 1.629960 1_555
O25 P1 1.596717 1_455
O25 P43 1.629960 1_555
O26 P2 1.596717 1_555
O26 P41 1.629960 1_555
O27 P3 1.596717 1_555
O27 P42 1.629960 1_555
O28 P4 1.596717 1_565
O28 P44 1.629960 1_555
O29 P5 1.596717 1_545
O29 P47 1.629960 1_555
O30 P6 1.596717 1_555
O30 P45 1.629960 1_555
O31 P7 1.596717 1_555
O31 P46 1.629960 1_555
O32 P8 1.596717 1_556
O32 P36 1.629960 1_555
O33 P9 1.596717 1_554
O33 P39 1.629960 1_555
O34 P10 1.596717 1_555
O34 P37 1.629960 1_555
O35 P11 1.596717 1_555
O35 P38 1.629960 1_555
O36 P12 1.596717 1_455
O36 P28 1.629960 1_555
O37 P13 1.596717 1_655
O37 P31 1.629960 1_555
O38 P14 1.596717 1_555
O38 P29 1.629960 1_555
O39 P15 1.596717 1_555
O39 P30 1.629960 1_555
O40 P16 1.596717 1_545
O40 P32 1.629960 1_555
O41 P17 1.596717 1_565
O41 P35 1.629960 1_555
O42 P18 1.596717 1_555
O42 P33 1.629960 1_555
O43 P19 1.596717 1_555
O43 P34 1.629960 1_555
O44 P20 1.596717 1_554
O44 P24 1.629960 1_555
O45 P21 1.596717 1_556
O45 P27 1.629960 1_555
O46 P22 1.596717 1_555
O46 P25 1.629960 1_555
O47 P23 1.596717 1_555
O47 P26 1.629960 1_555
O48 P0 1.499475 1_555
O48 V0 2.041229 1_565
O49 P1 1.499475 1_555
O49 V1 2.041229 1_655
O50 P2 1.499475 1_555
O50 V2 2.041229 1_555
O51 P3 1.499475 1_555
O51 V3 2.041229 1_556
O52 P4 1.499475 1_555
O52 V0 2.041229 1_556
O53 P5 1.499475 1_555
O53 V2 2.041229 1_565
O54 P6 1.499475 1_555
O54 V3 2.041229 1_555
O55 P7 1.499475 1_555
O55 V1 2.041229 1_655
O56 P8 1.499475 1_555
O56 V0 2.041229 1_655
O57 P9 1.499475 1_555
O57 V3 2.041229 1_556
O58 P10 1.499475 1_555
O58 V1 2.041229 1_555
O59 P11 1.499475 1_555
O59 V2 2.041229 1_565
O60 P12 1.499475 1_555
O60 V0 2.041229 1_656
O61 P13 1.499475 1_555
O61 V1 2.041229 1_555
O62 P14 1.499475 1_555
O62 V2 2.041229 1_565
O63 P15 1.499475 1_555
O63 V3 2.041229 1_555
O64 P16 1.499475 1_555
O64 V0 2.041229 1_665
O65 P17 1.499475 1_555
O65 V2 2.041229 1_555
O66 P18 1.499475 1_555
O66 V3 2.041229 1_556
O67 P19 1.499475 1_555
O67 V1 2.041229 1_555
O68 P20 1.499475 1_555
O68 V0 2.041229 1_566
O69 P21 1.499475 1_555
O69 V3 2.041229 1_555
O70 P22 1.499475 1_555
O70 V1 2.041229 1_655
O71 P23 1.499475 1_555
O71 V2 2.041229 1_555
O72 P0 1.510310 1_555
O72 V4 2.044137 1_555
O73 P1 1.510310 1_555
O73 V5 2.044137 1_555
O74 P2 1.510310 1_555
O74 V6 2.044137 1_555
O75 P3 1.510310 1_555
O75 V7 2.044137 1_555
O76 P4 1.510310 1_555
O76 V6 2.044137 1_555
O77 P5 1.510310 1_555
O77 V4 2.044137 1_555
O78 P6 1.510310 1_555
O78 V5 2.044137 1_555
O79 P7 1.510310 1_555
O79 V7 2.044137 1_555
O80 P8 1.510310 1_555
O80 V5 2.044137 1_555
O81 P9 1.510310 1_555
O81 V6 2.044137 1_555
O82 P10 1.510310 1_555
O82 V4 2.044137 1_555
O83 P11 1.510310 1_555
O83 V7 2.044137 1_555
O84 P12 1.510310 1_555
O84 V8 2.044137 1_555
O85 P13 1.510310 1_555
O85 V9 2.044137 1_555
O86 P14 1.510310 1_555
O86 V10 2.044137 1_555
O87 P15 1.510310 1_555
O87 V11 2.044137 1_555
O88 P16 1.510310 1_555
O88 V10 2.044137 1_555
O89 P17 1.510310 1_555
O89 V8 2.044137 1_555
O90 P18 1.510310 1_555
O90 V9 2.044137 1_555
O91 P19 1.510310 1_555
O91 V11 2.044137 1_555
O92 P20 1.510310 1_555
O92 V9 2.044137 1_555
O93 P21 1.510310 1_555
O93 V10 2.044137 1_555
O94 P22 1.510310 1_555
O94 V8 2.044137 1_555
O95 P23 1.510310 1_555
O95 V11 2.044137 1_555
O96 P24 1.524671 1_555
O96 V4 2.023633 1_555
O97 P25 1.524671 1_555
O97 V5 2.023633 1_555
O98 P26 1.524671 1_555
O98 V6 2.023633 1_555
O99 P27 1.524671 1_555
O99 V7 2.023633 1_555
O100 P28 1.524671 1_555
O100 V6 2.023633 1_555
O101 P29 1.524671 1_555
O101 V4 2.023633 1_555
O102 P30 1.524671 1_555
O102 V5 2.023633 1_555
O103 P31 1.524671 1_555
O103 V7 2.023633 1_555
O104 P32 1.524671 1_555
O104 V5 2.023633 1_555
O105 P33 1.524671 1_555
O105 V6 2.023633 1_555
O106 P34 1.524671 1_555
O106 V4 2.023633 1_555
O107 P35 1.524671 1_555
O107 V7 2.023633 1_555
O108 P36 1.524671 1_555
O108 V8 2.023633 1_555
O109 P37 1.524671 1_555
O109 V9 2.023633 1_555
O110 P38 1.524671 1_555
O110 V10 2.023633 1_555
O111 P39 1.524671 1_555
O111 V11 2.023633 1_555
O112 P40 1.524671 1_555
O112 V10 2.023633 1_555
O113 P41 1.524671 1_555
O113 V8 2.023633 1_555
O114 P42 1.524671 1_555
O114 V9 2.023633 1_555
O115 P43 1.524671 1_555
O115 V11 2.023633 1_555
O116 P44 1.524671 1_555
O116 V9 2.023633 1_555
O117 P45 1.524671 1_555
O117 V10 2.023633 1_555
O118 P46 1.524671 1_555
O118 V8 2.023633 1_555
O119 P47 1.524671 1_555
O119 V11 2.023633 1_555
O120 P24 1.472303 1_655
O121 P25 1.472303 1_455
O122 P26 1.472303 1_555
O123 P27 1.472303 1_555
O124 P28 1.472303 1_565
O125 P29 1.472303 1_545
O126 P30 1.472303 1_555
O127 P31 1.472303 1_555
O128 P32 1.472303 1_556
O129 P33 1.472303 1_554
O130 P34 1.472303 1_555
O131 P35 1.472303 1_555
O132 P36 1.472303 1_455
O133 P37 1.472303 1_655
O134 P38 1.472303 1_555
O135 P39 1.472303 1_555
O136 P40 1.472303 1_545
O137 P41 1.472303 1_565
O138 P42 1.472303 1_555
O139 P43 1.472303 1_555
O140 P44 1.472303 1_554
O141 P45 1.472303 1_556
O142 P46 1.472303 1_555
O143 P47 1.472303 1_555
