# generated using pymatgen
data_La3AlCoS7
_symmetry_space_group_name_H-M   'P 1'
_cell_length_a   10.15822037
_cell_length_b   10.15822037
_cell_length_c   5.98441100
_cell_angle_alpha   90.00000000
_cell_angle_beta   90.00000000
_cell_angle_gamma   120.00000238
_symmetry_Int_Tables_number   1
_chemical_formula_structural   La3AlCoS7
_chemical_formula_sum   'La6 Al2 Co2 S14'
_cell_volume   534.79494508
_cell_formula_units_Z   2
loop_
 _symmetry_equiv_pos_site_id
 _symmetry_equiv_pos_as_xyz
  1  'x, y, z'
loop_
 _atom_site_type_symbol
 _atom_site_label
 _atom_site_symmetry_multiplicity
 _atom_site_fract_x
 _atom_site_fract_y
 _atom_site_fract_z
 _atom_site_occupancy
  La  La0  1  0.76912400  0.14014100  0.24268000  1
  La  La1  1  0.37101700  0.23087600  0.24268000  1
  La  La2  1  0.85985900  0.62898300  0.24268000  1
  La  La3  1  0.23087600  0.85985900  0.74268000  1
  La  La4  1  0.62898300  0.76912400  0.74268000  1
  La  La5  1  0.14014100  0.37101700  0.74268000  1
  Al  Al0  1  0.66666700  0.33333300  0.66341000  1
  Al  Al1  1  0.33333300  0.66666700  0.16341000  1
  Co  Co0  1  0.00000000  0.00000000  0.02703200  1
  Co  Co1  1  0.00000000  0.00000000  0.52703200  1
  S  S0  1  0.86405200  0.08409800  0.78470000  1
  S  S1  1  0.22004700  0.13594800  0.78470000  1
  S  S2  1  0.91590200  0.77995300  0.78470000  1
  S  S3  1  0.13594800  0.91590200  0.28470000  1
  S  S4  1  0.77995300  0.86405200  0.28470000  1
  S  S5  1  0.08409800  0.22004700  0.28470000  1
  S  S6  1  0.90045500  0.41888600  0.51963600  1
  S  S7  1  0.51843100  0.09954500  0.51963600  1
  S  S8  1  0.58111400  0.48156900  0.51963600  1
  S  S9  1  0.09954500  0.58111400  0.01963600  1
  S  S10  1  0.48156900  0.90045500  0.01963600  1
  S  S11  1  0.41888600  0.51843100  0.01963600  1
  S  S12  1  0.66666700  0.33333300  0.03300700  1
  S  S13  1  0.33333300  0.66666700  0.53300700  1
loop_
_geom_bond_atom_site_label_1
_geom_bond_atom_site_label_2
_geom_bond_distance
_geom_bond_site_symmetry_2
La0 S4 2.872190 1_545
La0 S7 2.889994 1_555
La0 S5 2.891760 1_655
La0 S12 2.924302 1_555
La0 S6 2.960908 1_555
La0 S10 3.021626 1_545
La0 S0 3.051984 1_554
La0 S0 3.510604 1_555
La1 S5 2.872200 1_555
La1 S8 2.889994 1_555
La1 S3 2.891762 1_545
La1 S12 2.924311 1_555
La1 S7 2.960908 1_555
La1 S11 3.021626 1_555
La1 S1 3.051980 1_554
La1 S1 3.510601 1_555
La2 S3 2.872196 1_655
La2 S6 2.889994 1_555
La2 S4 2.891770 1_555
La2 S12 2.924309 1_555
La2 S8 2.960908 1_555
La2 S9 3.021626 1_655
La2 S2 3.051980 1_554
La2 S2 3.510601 1_555
La3 S1 2.872190 1_565
La3 S10 2.889994 1_556
La3 S2 2.891760 1_455
La3 S13 2.924302 1_555
La3 S9 2.960908 1_556
La3 S7 3.021626 1_565
La3 S3 3.051984 1_555
La3 S3 3.510604 1_556
La4 S2 2.872200 1_555
La4 S11 2.889994 1_556
La4 S0 2.891762 1_565
La4 S13 2.924311 1_555
La4 S10 2.960908 1_556
La4 S8 3.021626 1_555
La4 S4 3.051980 1_555
La4 S4 3.510601 1_556
La5 S0 2.872196 1_455
La5 S9 2.889994 1_556
La5 S1 2.891770 1_555
La5 S13 2.924309 1_555
La5 S11 2.960908 1_556
La5 S6 3.021626 1_455
La5 S5 3.051980 1_555
La5 S5 3.510601 1_556
Al0 S12 2.211820 1_556
Al0 S6 2.252034 1_555
Al0 S7 2.252035 1_555
Al0 S8 2.252043 1_555
Al1 S13 2.211820 1_555
Al1 S9 2.252034 1_555
Al1 S10 2.252035 1_555
Al1 S11 2.252043 1_555
Co0 S0 2.433068 1_454
Co0 S1 2.433074 1_554
Co0 S2 2.433075 1_444
Co0 S3 2.488862 1_545
Co0 S4 2.488868 1_445
Co0 S5 2.488869 1_555
Co1 S3 2.433068 1_545
Co1 S4 2.433074 1_445
Co1 S5 2.433075 1_555
Co1 S0 2.488862 1_455
Co1 S1 2.488868 1_555
Co1 S2 2.488869 1_445
