# generated using pymatgen
data_PrNiP
_symmetry_space_group_name_H-M   'P 1'
_cell_length_a   3.96606962
_cell_length_b   3.96606962
_cell_length_c   16.39817530
_cell_angle_alpha   90.00000000
_cell_angle_beta   90.00000000
_cell_angle_gamma   119.99998492
_symmetry_Int_Tables_number   1
_chemical_formula_structural   PrNiP
_chemical_formula_sum   'Pr4 Ni4 P4'
_cell_volume   223.38133837
_cell_formula_units_Z   4
loop_
 _symmetry_equiv_pos_site_id
 _symmetry_equiv_pos_as_xyz
  1  'x, y, z'
loop_
 _atom_site_type_symbol
 _atom_site_label
 _atom_site_symmetry_multiplicity
 _atom_site_fract_x
 _atom_site_fract_y
 _atom_site_fract_z
 _atom_site_occupancy
  Pr  Pr0  1  0.00000000  0.00000000  0.50000000  1
  Pr  Pr1  1  0.00000000  0.00000000  -0.00000000  1
  Pr  Pr2  1  0.00000000  0.00000000  0.25000000  1
  Pr  Pr3  1  0.00000000  0.00000000  0.75000000  1
  Ni  Ni0  1  0.33333300  0.66666700  0.37561430  1
  Ni  Ni1  1  0.66666700  0.33333300  0.62438570  1
  Ni  Ni2  1  0.66666700  0.33333300  0.87561430  1
  Ni  Ni3  1  0.33333300  0.66666700  0.12438570  1
  P  P0  1  0.33333300  0.66666700  0.87466425  1
  P  P1  1  0.66666700  0.33333300  0.12533575  1
  P  P2  1  0.66666700  0.33333300  0.37466425  1
  P  P3  1  0.33333300  0.66666700  0.62533575  1
loop_
_geom_bond_atom_site_label_1
_geom_bond_atom_site_label_2
_geom_bond_distance
_geom_bond_site_symmetry_2
Ni0 P2 2.289862 1_565
Ni0 P2 2.289862 1_455
Ni0 P2 2.289869 1_555
Ni0 Pr0 3.066528 1_565
Ni0 Pr0 3.066531 1_665
Ni0 Pr0 3.066531 1_555
Ni0 Pr2 3.079966 1_565
Ni0 Pr2 3.079968 1_665
Ni0 Pr2 3.079968 1_555
Ni1 P3 2.289862 1_545
Ni1 P3 2.289862 1_655
Ni1 P3 2.289869 1_555
Ni1 Pr0 3.066528 1_655
Ni1 Pr0 3.066531 1_555
Ni1 Pr0 3.066531 1_665
Ni1 Pr3 3.079966 1_655
Ni1 Pr3 3.079968 1_555
Ni1 Pr3 3.079968 1_665
Ni2 P0 2.289862 1_655
Ni2 P0 2.289862 1_545
Ni2 P0 2.289869 1_555
Ni2 Pr1 3.066528 1_656
Ni2 Pr1 3.066531 1_556
Ni2 Pr1 3.066531 1_666
Ni2 Pr3 3.079966 1_655
Ni2 Pr3 3.079968 1_555
Ni2 Pr3 3.079968 1_665
Ni3 P1 2.289862 1_455
Ni3 P1 2.289862 1_565
Ni3 P1 2.289869 1_555
Ni3 Pr1 3.066528 1_565
Ni3 Pr1 3.066531 1_665
Ni3 Pr1 3.066531 1_555
Ni3 Pr2 3.079966 1_565
Ni3 Pr2 3.079968 1_665
Ni3 Pr2 3.079968 1_555
P0 Pr3 3.069568 1_565
P0 Pr3 3.069571 1_665
P0 Pr3 3.069571 1_555
P0 Pr1 3.076913 1_566
P0 Pr1 3.076915 1_556
P0 Pr1 3.076915 1_666
P1 Pr2 3.069568 1_655
P1 Pr2 3.069571 1_555
P1 Pr2 3.069571 1_665
P1 Pr1 3.076913 1_655
P1 Pr1 3.076915 1_555
P1 Pr1 3.076915 1_665
P2 Pr2 3.069568 1_655
P2 Pr2 3.069571 1_555
P2 Pr2 3.069571 1_665
P2 Pr0 3.076913 1_655
P2 Pr0 3.076915 1_555
P2 Pr0 3.076915 1_665
P3 Pr3 3.069568 1_565
P3 Pr3 3.069571 1_665
P3 Pr3 3.069571 1_555
P3 Pr0 3.076913 1_565
P3 Pr0 3.076915 1_555
P3 Pr0 3.076915 1_665
