# generated using pymatgen
data_Ba2ReN3
_symmetry_space_group_name_H-M   'P 1'
_cell_length_a   6.63234452
_cell_length_b   11.83734049
_cell_length_c   13.36084660
_cell_angle_alpha   89.99866484
_cell_angle_beta   89.99949777
_cell_angle_gamma   153.17140901
_symmetry_Int_Tables_number   1
_chemical_formula_structural   Ba2ReN3
_chemical_formula_sum   'Ba8 Re4 N12'
_cell_volume   473.41559040
_cell_formula_units_Z   4
loop_
 _symmetry_equiv_pos_site_id
 _symmetry_equiv_pos_as_xyz
  1  'x, y, z'
loop_
 _atom_site_type_symbol
 _atom_site_label
 _atom_site_symmetry_multiplicity
 _atom_site_fract_x
 _atom_site_fract_y
 _atom_site_fract_z
 _atom_site_occupancy
  Ba  Ba0  1  0.50001916  0.06527622  0.86635971  1
  Ba  Ba1  1  0.49978000  0.56515824  0.63377076  1
  Ba  Ba2  1  0.49998149  0.93472442  0.13367157  1
  Ba  Ba3  1  0.50021960  0.43484835  0.36619777  1
  Ba  Ba4  1  0.50000377  0.85996337  0.58233469  1
  Ba  Ba5  1  0.50022098  0.36006853  0.91772169  1
  Ba  Ba6  1  0.50000233  0.14005169  0.41763894  1
  Ba  Ba7  1  0.49977109  0.63993459  0.08230009  1
  Re  Re0  1  0.50008080  0.23961761  0.66341410  1
  Re  Re1  1  0.50018320  0.73967572  0.83671240  1
  Re  Re2  1  0.49992412  0.76037452  0.33657861  1
  Re  Re3  1  0.49982102  0.26031554  0.16329607  1
  N  N0  1  0.00021971  0.51467194  0.75002109  1
  N  N1  1  -0.00020482  0.48533487  0.24997908  1
  N  N2  1  0.49956789  0.09030511  0.62436291  1
  N  N3  1  0.50022108  0.59063370  0.87576819  1
  N  N4  1  0.50043531  0.90969401  0.37560721  1
  N  N5  1  0.49977377  0.40936249  0.12426742  1
  N  N6  1  0.50020959  0.16239395  0.05328410  1
  N  N7  1  0.49997440  0.66228464  0.44659358  1
  N  N8  1  0.49979175  0.83760655  0.94672473  1
  N  N9  1  0.50002294  0.33771494  0.55339500  1
  N  N10  1  0.00011981  0.01481361  0.75008754  1
  N  N11  1  -0.00013698  0.98517641  0.24991275  1
loop_
_geom_bond_atom_site_label_1
_geom_bond_atom_site_label_2
_geom_bond_distance
_geom_bond_site_symmetry_2
Ba0 N6 2.748910 1_556
Ba0 N8 2.899756 1_545
Ba0 N3 3.010216 1_445
Ba0 N3 3.011479 1_655
Ba0 N0 3.197413 1_655
Ba0 N10 3.198162 1_555
Ba0 N2 3.247066 1_555
Ba1 N7 2.751963 1_555
Ba1 N9 2.899952 1_555
Ba1 N2 3.010226 1_665
Ba1 N2 3.011460 1_455
Ba1 N0 3.195815 1_555
Ba1 N10 3.199275 1_665
Ba1 N3 3.247089 1_555
Ba2 N8 2.749185 1_554
Ba2 N6 2.899862 1_565
Ba2 N5 3.010198 1_665
Ba2 N5 3.011496 1_455
Ba2 N1 3.197199 1_555
Ba2 N11 3.197951 1_655
Ba2 N4 3.246256 1_555
Ba3 N9 2.752236 1_555
Ba3 N7 2.899987 1_555
Ba3 N4 3.010227 1_445
Ba3 N4 3.011482 1_655
Ba3 N1 3.195696 1_655
Ba3 N11 3.199164 1_545
Ba3 N5 3.246205 1_555
Ba4 N2 2.786395 1_565
Ba4 N4 2.823546 1_555
Ba4 N0 2.921056 1_555
Ba4 N10 2.921433 1_665
Ba4 N7 2.960430 1_555
Ba4 N9 3.029666 1_455
Ba4 N9 3.029690 1_665
Ba5 N3 2.786231 1_555
Ba5 N5 2.821204 1_556
Ba5 N10 2.920306 1_555
Ba5 N0 2.921468 1_655
Ba5 N6 2.958946 1_556
Ba5 N8 3.028509 1_655
Ba5 N8 3.031037 1_445
Ba6 N4 2.786572 1_545
Ba6 N2 2.823536 1_555
Ba6 N1 2.920740 1_655
Ba6 N11 2.921134 1_545
Ba6 N9 2.960448 1_555
Ba6 N7 3.029654 1_655
Ba6 N7 3.029730 1_445
Ba7 N5 2.786365 1_555
Ba7 N3 2.821043 1_554
Ba7 N11 2.920032 1_655
Ba7 N1 2.921176 1_555
Ba7 N8 2.958984 1_554
Ba7 N6 3.028497 1_455
Ba7 N6 3.031079 1_665
N0 Re0 1.915205 1_455
N0 Re1 1.915419 1_555
N1 Re2 1.915103 1_555
N1 Re3 1.915359 1_455
N2 Re0 1.839967 1_555
N3 Re1 1.840016 1_555
N4 Re2 1.839971 1_555
N5 Re3 1.840023 1_555
N6 Re3 1.873358 1_555
N7 Re2 1.873341 1_555
N8 Re1 1.873440 1_555
N9 Re0 1.873466 1_555
N10 Re1 1.915088 1_445
N10 Re0 1.915523 1_555
N11 Re3 1.915054 1_565
N11 Re2 1.915394 1_455
