# generated using pymatgen
data_CeThS2
_symmetry_space_group_name_H-M   'P 1'
_cell_length_a   4.06622075
_cell_length_b   4.06622075
_cell_length_c   5.74603041
_cell_angle_alpha   90.00000000
_cell_angle_beta   90.00000000
_cell_angle_gamma   90.00000000
_symmetry_Int_Tables_number   1
_chemical_formula_structural   CeThS2
_chemical_formula_sum   'Ce1 Th1 S2'
_cell_volume   95.00573553
_cell_formula_units_Z   1
loop_
 _symmetry_equiv_pos_site_id
 _symmetry_equiv_pos_as_xyz
  1  'x, y, z'
loop_
 _atom_site_type_symbol
 _atom_site_label
 _atom_site_symmetry_multiplicity
 _atom_site_fract_x
 _atom_site_fract_y
 _atom_site_fract_z
 _atom_site_occupancy
  Ce  Ce0  1  -0.00000000  0.00000000  -0.00000000  1
  Th  Th0  1  0.50000000  0.50000000  0.50000000  1
  S  S0  1  -0.00000000  0.00000000  0.50000000  1
  S  S1  1  0.50000000  0.50000000  -0.00000000  1
loop_
_geom_bond_atom_site_label_1
_geom_bond_atom_site_label_2
_geom_bond_distance
_geom_bond_site_symmetry_2
Ce0 S0 2.873015 1_554
Ce0 S0 2.873015 1_555
Ce0 S1 2.875252 1_545
Ce0 S1 2.875252 1_445
Ce0 S1 2.875252 1_455
Ce0 S1 2.875252 1_555
S0 Th0 2.875252 1_545
S0 Th0 2.875252 1_455
S0 Th0 2.875252 1_445
S0 Th0 2.875252 1_555
S1 Th0 2.873015 1_554
S1 Th0 2.873015 1_555
