# generated using pymatgen
data_WF5
_symmetry_space_group_name_H-M   'P 1'
_cell_length_a   5.18145084
_cell_length_b   5.18145084
_cell_length_c   7.87330710
_cell_angle_alpha   69.13863620
_cell_angle_beta   69.13863620
_cell_angle_gamma   70.90183057
_symmetry_Int_Tables_number   1
_chemical_formula_structural   WF5
_chemical_formula_sum   'W2 F10'
_cell_volume   179.64720732
_cell_formula_units_Z   2
loop_
 _symmetry_equiv_pos_site_id
 _symmetry_equiv_pos_as_xyz
  1  'x, y, z'
loop_
 _atom_site_type_symbol
 _atom_site_label
 _atom_site_symmetry_multiplicity
 _atom_site_fract_x
 _atom_site_fract_y
 _atom_site_fract_z
 _atom_site_occupancy
  W  W0  1  0.00000000  0.00000000  -0.00000000  1
  W  W1  1  0.00000000  0.00000000  0.50000000  1
  F  F0  1  0.06156422  0.93843578  0.75000000  1
  F  F1  1  0.93843578  0.06156422  0.25000000  1
  F  F2  1  0.67576990  0.84924272  0.63114237  1
  F  F3  1  0.15075728  0.32423010  0.86885763  1
  F  F4  1  0.63623346  0.20751301  0.98914892  1
  F  F5  1  0.79248699  0.36376654  0.51085108  1
  F  F6  1  0.36376654  0.79248699  0.01085108  1
  F  F7  1  0.20751301  0.63623346  0.48914892  1
  F  F8  1  0.84924272  0.67576990  0.13114237  1
  F  F9  1  0.32423010  0.15075728  0.36885763  1
loop_
_geom_bond_atom_site_label_1
_geom_bond_atom_site_label_2
_geom_bond_distance
_geom_bond_site_symmetry_2
F0 W0 2.002807 1_566
F0 W1 2.002807 1_565
F1 W1 2.002807 1_655
F1 W0 2.002807 1_655
F2 W1 1.883483 1_665
F3 W0 1.883483 1_556
F4 W0 1.854483 1_656
F5 W1 1.854483 1_655
F6 W0 1.854483 1_565
F7 W1 1.854483 1_565
F8 W0 1.883483 1_665
F9 W1 1.883483 1_555
