# generated using pymatgen
data_LaVFeO6
_symmetry_space_group_name_H-M   'P 1'
_cell_length_a   5.60505800
_cell_length_b   5.40698100
_cell_length_c   9.37437403
_cell_angle_alpha   54.83034775
_cell_angle_beta   90.00000000
_cell_angle_gamma   90.00000000
_symmetry_Int_Tables_number   1
_chemical_formula_structural   LaVFeO6
_chemical_formula_sum   'La2 V2 Fe2 O12'
_cell_volume   232.24078132
_cell_formula_units_Z   2
loop_
 _symmetry_equiv_pos_site_id
 _symmetry_equiv_pos_as_xyz
  1  'x, y, z'
loop_
 _atom_site_type_symbol
 _atom_site_label
 _atom_site_symmetry_multiplicity
 _atom_site_fract_x
 _atom_site_fract_y
 _atom_site_fract_z
 _atom_site_occupancy
  La  La0  1  0.19828500  0.74544000  0.24911700  1
  La  La1  1  0.80171500  0.74544000  0.74911700  1
  V  V0  1  0.71878400  0.50373000  0.49713400  1
  V  V1  1  0.28121600  0.50373000  0.99713400  1
  Fe  Fe0  1  0.74266600  0.99661100  0.99920800  1
  Fe  Fe1  1  0.25733400  0.99661100  0.49920800  1
  O  O0  1  0.23762000  0.77126400  0.75806400  1
  O  O1  1  0.01231200  0.25405900  0.98902600  1
  O  O2  1  0.01304700  0.71272500  0.51516600  1
  O  O3  1  0.98695300  0.71272500  0.01516600  1
  O  O4  1  0.98768800  0.25405900  0.48902600  1
  O  O5  1  0.76238000  0.77126400  0.25806400  1
  O  O6  1  0.75227800  0.20950700  0.74225100  1
  O  O7  1  0.53645000  0.74330400  0.52585400  1
  O  O8  1  0.51256400  0.30277800  0.97436800  1
  O  O9  1  0.48743600  0.30277800  0.47436800  1
  O  O10  1  0.46355000  0.74330400  0.02585400  1
  O  O11  1  0.24772200  0.20950700  0.24225100  1
loop_
_geom_bond_atom_site_label_1
_geom_bond_atom_site_label_2
_geom_bond_distance
_geom_bond_site_symmetry_2
La0 O5 2.451449 1_455
La0 O11 2.488165 1_565
La0 O10 2.572756 1_555
La0 O4 2.574262 1_455
La0 O3 2.586733 1_455
La0 O2 2.611765 1_555
La0 O1 2.621053 1_564
La0 O9 2.644231 1_555
La1 O0 2.451449 1_655
La1 O6 2.488165 1_565
La1 O7 2.572756 1_555
La1 O1 2.574262 1_655
La1 O2 2.586733 1_655
La1 O3 2.611765 1_556
La1 O4 2.621053 1_565
La1 O8 2.644231 1_555
Fe0 O6 1.983948 1_565
Fe0 O5 1.994783 1_556
Fe0 O3 1.997198 1_556
Fe0 O10 1.997921 1_556
Fe0 O8 2.003507 1_565
Fe0 O1 2.019413 1_665
Fe1 O11 1.983948 1_565
Fe1 O0 1.994783 1_555
Fe1 O2 1.997198 1_555
Fe1 O7 1.997921 1_555
Fe1 O9 2.003507 1_565
Fe1 O4 2.019413 1_465
O0 V1 1.854781 1_555
O1 V1 2.053804 1_555
O2 V0 2.060581 1_455
O3 V1 2.060581 1_654
O4 V0 2.053804 1_555
O5 V0 1.854781 1_555
O6 V0 1.906544 1_555
O7 V0 1.787934 1_555
O8 V1 1.781779 1_555
O9 V0 1.781779 1_555
O10 V1 1.787934 1_554
O11 V1 1.906544 1_554
