# generated using pymatgen
data_Mg3Si4
_symmetry_space_group_name_H-M   'P 1'
_cell_length_a   5.66770060
_cell_length_b   7.92531325
_cell_length_c   7.56738823
_cell_angle_alpha   59.13632382
_cell_angle_beta   79.99556903
_cell_angle_gamma   63.70251272
_symmetry_Int_Tables_number   1
_chemical_formula_structural   Mg3Si4
_chemical_formula_sum   'Mg6 Si8'
_cell_volume   260.94757912
_cell_formula_units_Z   2
loop_
 _symmetry_equiv_pos_site_id
 _symmetry_equiv_pos_as_xyz
  1  'x, y, z'
loop_
 _atom_site_type_symbol
 _atom_site_label
 _atom_site_symmetry_multiplicity
 _atom_site_fract_x
 _atom_site_fract_y
 _atom_site_fract_z
 _atom_site_occupancy
  Mg  Mg0  1  0.38594300  0.51831300  0.31309900  1
  Mg  Mg1  1  0.80847200  0.73605400  0.11069000  1
  Mg  Mg2  1  0.42842900  0.99130400  0.69977400  1
  Mg  Mg3  1  0.86690300  0.94459000  0.35212100  1
  Mg  Mg4  1  0.83422700  0.45798100  0.96164900  1
  Mg  Mg5  1  0.79844400  0.17164600  0.84222100  1
  Si  Si0  1  0.97722500  0.87657300  0.72032400  1
  Si  Si1  1  0.39902900  0.73152800  0.54888900  1
  Si  Si2  1  0.91874500  0.27370300  0.40846000  1
  Si  Si3  1  0.33572000  0.14557900  0.26743100  1
  Si  Si4  1  0.32226800  0.50284700  0.93986900  1
  Si  Si5  1  0.27532300  0.37464000  0.72912100  1
  Si  Si6  1  0.88192500  0.52426800  0.51997900  1
  Si  Si7  1  0.26741600  0.99761300  0.08614100  1
loop_
_geom_bond_atom_site_label_1
_geom_bond_atom_site_label_2
_geom_bond_distance
_geom_bond_site_symmetry_2
Mg0 Si2 2.744559 1_555
Mg0 Si5 2.805289 1_555
Mg0 Si4 2.978407 1_554
Mg0 Si6 3.002656 1_455
Mg0 Si7 3.045751 1_555
Mg0 Si1 3.048806 1_555
Mg0 Si3 3.279241 1_555
Mg1 Si6 2.660565 1_555
Mg1 Si0 2.732806 1_554
Mg1 Si7 2.811692 1_555
Mg1 Si2 2.980552 1_555
Mg1 Si4 3.152999 1_654
Mg2 Si0 2.835951 1_555
Mg2 Si5 2.884694 1_565
Mg2 Si1 2.890001 1_555
Mg2 Si3 2.898090 1_565
Mg2 Si7 2.926831 1_556
Mg2 Si0 3.027838 1_455
Mg2 Si2 3.104110 1_465
Mg3 Si0 2.685303 1_555
Mg3 Si3 2.717627 1_565
Mg3 Si7 2.787584 1_655
Mg3 Si6 2.856994 1_555
Mg3 Si1 2.938119 1_655
Mg3 Si2 2.989144 1_565
Mg4 Si4 2.786556 1_555
Mg4 Si5 2.825499 1_655
Mg4 Si4 2.908213 1_655
Mg4 Si2 2.944703 1_556
Mg4 Si6 3.087129 1_555
Mg4 Si7 3.093095 1_646
Mg4 Si3 3.120079 1_656
Mg5 Si0 2.671199 1_545
Mg5 Si5 2.711798 1_555
Mg5 Si6 2.785513 1_555
Mg5 Si7 2.866813 1_646
Mg5 Si2 2.980031 1_555
Mg5 Si4 3.120871 1_555
Si0 Si4 2.511008 1_655
Si0 Si1 2.595601 1_655
Si0 Si2 2.704071 1_565
Si1 Si6 2.532568 1_555
Si1 Si4 2.641518 1_555
Si1 Si3 2.735816 1_565
Si1 Si5 2.796219 1_555
Si2 Si3 2.421651 1_655
Si2 Si6 2.447483 1_555
Si3 Si7 2.375818 1_545
Si3 Si4 2.615478 1_554
Si4 Si5 2.386671 1_555
Si5 Si6 2.416639 1_455
Si5 Si7 2.832596 1_546
