# generated using pymatgen
data_Na3Al2(PO4)3
_symmetry_space_group_name_H-M   'P 1'
_cell_length_a   10.14210837
_cell_length_b   10.14210837
_cell_length_c   10.14210837
_cell_angle_alpha   109.47122063
_cell_angle_beta   109.47122063
_cell_angle_gamma   109.47122063
_symmetry_Int_Tables_number   1
_chemical_formula_structural   Na3Al2(PO4)3
_chemical_formula_sum   'Na12 Al8 P12 O48'
_cell_volume   803.08747007
_cell_formula_units_Z   4
loop_
 _symmetry_equiv_pos_site_id
 _symmetry_equiv_pos_as_xyz
  1  'x, y, z'
loop_
 _atom_site_type_symbol
 _atom_site_label
 _atom_site_symmetry_multiplicity
 _atom_site_fract_x
 _atom_site_fract_y
 _atom_site_fract_z
 _atom_site_occupancy
  Na  Na0  1  0.12500000  0.37500000  0.75000000  1
  Na  Na1  1  0.37500000  0.12500000  0.25000000  1
  Na  Na2  1  0.37500000  0.75000000  0.12500000  1
  Na  Na3  1  0.12500000  0.25000000  0.37500000  1
  Na  Na4  1  0.75000000  0.12500000  0.37500000  1
  Na  Na5  1  0.25000000  0.37500000  0.12500000  1
  Na  Na6  1  0.87500000  0.62500000  0.25000000  1
  Na  Na7  1  0.62500000  0.87500000  0.75000000  1
  Na  Na8  1  0.62500000  0.25000000  0.87500000  1
  Na  Na9  1  0.87500000  0.75000000  0.62500000  1
  Na  Na10  1  0.25000000  0.87500000  0.62500000  1
  Na  Na11  1  0.75000000  0.62500000  0.87500000  1
  Al  Al0  1  0.00000000  0.50000000  0.00000000  1
  Al  Al1  1  0.00000000  0.00000000  0.50000000  1
  Al  Al2  1  0.50000000  0.00000000  0.00000000  1
  Al  Al3  1  0.50000000  0.50000000  0.50000000  1
  Al  Al4  1  0.50000000  0.50000000  0.00000000  1
  Al  Al5  1  0.50000000  0.00000000  0.50000000  1
  Al  Al6  1  0.00000000  0.50000000  0.50000000  1
  Al  Al7  1  0.00000000  0.00000000  0.00000000  1
  P  P0  1  0.37500000  0.62500000  0.75000000  1
  P  P1  1  0.12500000  0.87500000  0.25000000  1
  P  P2  1  0.62500000  0.75000000  0.37500000  1
  P  P3  1  0.87500000  0.25000000  0.12500000  1
  P  P4  1  0.75000000  0.37500000  0.62500000  1
  P  P5  1  0.25000000  0.12500000  0.87500000  1
  P  P6  1  0.62500000  0.37500000  0.25000000  1
  P  P7  1  0.87500000  0.12500000  0.75000000  1
  P  P8  1  0.37500000  0.25000000  0.62500000  1
  P  P9  1  0.12500000  0.75000000  0.87500000  1
  P  P10  1  0.25000000  0.62500000  0.37500000  1
  P  P11  1  0.75000000  0.87500000  0.12500000  1
  O  O0  1  0.08601800  0.88963700  0.38896600  1
  O  O1  1  0.00067200  0.69705200  0.11103400  1
  O  O2  1  0.49932800  0.61036300  0.69638100  1
  O  O3  1  0.41398200  0.80294800  0.80361900  1
  O  O4  1  0.88963700  0.38896600  0.08601800  1
  O  O5  1  0.69705200  0.11103400  0.00067200  1
  O  O6  1  0.61036300  0.69638100  0.49932800  1
  O  O7  1  0.80294800  0.80361900  0.41398200  1
  O  O8  1  0.38896600  0.08601800  0.88963700  1
  O  O9  1  0.11103400  0.00067200  0.69705200  1
  O  O10  1  0.69638100  0.49932800  0.61036300  1
  O  O11  1  0.80361900  0.41398200  0.80294800  1
  O  O12  1  0.91398200  0.11036300  0.61103400  1
  O  O13  1  0.99932800  0.30294800  0.88896600  1
  O  O14  1  0.50067200  0.38963700  0.30361900  1
  O  O15  1  0.58601800  0.19705200  0.19638100  1
  O  O16  1  0.11036300  0.61103400  0.91398200  1
  O  O17  1  0.30294800  0.88896600  0.99932800  1
  O  O18  1  0.38963700  0.30361900  0.50067200  1
  O  O19  1  0.19705200  0.19638100  0.58601800  1
  O  O20  1  0.61103400  0.91398200  0.11036300  1
  O  O21  1  0.88896600  0.99932800  0.30294800  1
  O  O22  1  0.30361900  0.50067200  0.38963700  1
  O  O23  1  0.19638100  0.58601800  0.19705200  1
  O  O24  1  0.58601800  0.88896600  0.38963700  1
  O  O25  1  0.50067200  0.61103400  0.19705200  1
  O  O26  1  0.99932800  0.19638100  0.11036300  1
  O  O27  1  0.91398200  0.30361900  0.30294800  1
  O  O28  1  0.38963700  0.58601800  0.88896600  1
  O  O29  1  0.19705200  0.50067200  0.61103400  1
  O  O30  1  0.11036300  0.99932800  0.19638100  1
  O  O31  1  0.30294800  0.91398200  0.30361900  1
  O  O32  1  0.88896600  0.38963700  0.58601800  1
  O  O33  1  0.61103400  0.19705200  0.50067200  1
  O  O34  1  0.19638100  0.11036300  0.99932800  1
  O  O35  1  0.30361900  0.30294800  0.91398200  1
  O  O36  1  0.41398200  0.11103400  0.61036300  1
  O  O37  1  0.49932800  0.38896600  0.80294800  1
  O  O38  1  0.00067200  0.80361900  0.88963700  1
  O  O39  1  0.08601800  0.69638100  0.69705200  1
  O  O40  1  0.61036300  0.41398200  0.11103400  1
  O  O41  1  0.80294800  0.49932800  0.38896600  1
  O  O42  1  0.88963700  0.00067200  0.80361900  1
  O  O43  1  0.69705200  0.08601800  0.69638100  1
  O  O44  1  0.11103400  0.61036300  0.41398200  1
  O  O45  1  0.38896600  0.80294800  0.49932800  1
  O  O46  1  0.80361900  0.88963700  0.00067200  1
  O  O47  1  0.69638100  0.69705200  0.08601800  1
loop_
_geom_bond_atom_site_label_1
_geom_bond_atom_site_label_2
_geom_bond_distance
_geom_bond_site_symmetry_2
Na0 O12 2.325564 1_455
Na0 O28 2.325564 1_555
Na0 O13 2.325571 1_455
Na0 O29 2.325571 1_555
Na0 O16 2.503195 1_555
Na0 O32 2.503195 1_455
Na0 O19 2.503195 1_555
Na0 O35 2.503195 1_555
Na1 O31 2.325564 1_545
Na1 O15 2.325564 1_555
Na1 O14 2.325565 1_555
Na1 O30 2.325565 1_545
Na1 O33 2.503201 1_555
Na1 O17 2.503201 1_544
Na1 O34 2.503202 1_554
Na1 O18 2.503202 1_555
Na2 O24 2.325564 1_555
Na2 O16 2.325564 1_554
Na2 O17 2.325571 1_554
Na2 O25 2.325571 1_555
Na2 O20 2.503195 1_555
Na2 O28 2.503195 1_554
Na2 O23 2.503195 1_555
Na2 O31 2.503195 1_555
Na3 O19 2.325564 1_555
Na3 O27 2.325564 1_455
Na3 O26 2.325565 1_455
Na3 O18 2.325565 1_555
Na3 O29 2.503201 1_555
Na3 O21 2.503201 1_445
Na3 O30 2.503202 1_545
Na3 O22 2.503202 1_555
Na4 O20 2.325564 1_545
Na4 O32 2.325564 1_555
Na4 O33 2.325571 1_555
Na4 O21 2.325571 1_545
Na4 O12 2.503195 1_555
Na4 O27 2.503195 1_555
Na4 O24 2.503195 1_545
Na4 O15 2.503195 1_555
Na5 O35 2.325564 1_554
Na5 O23 2.325564 1_555
Na5 O22 2.325565 1_555
Na5 O34 2.325565 1_554
Na5 O25 2.503201 1_555
Na5 O13 2.503201 1_454
Na5 O14 2.503202 1_555
Na5 O26 2.503202 1_455
Na6 O0 2.325564 1_655
Na6 O40 2.325564 1_555
Na6 O41 2.325571 1_555
Na6 O1 2.325571 1_655
Na6 O47 2.503195 1_555
Na6 O7 2.503195 1_555
Na6 O4 2.503195 1_555
Na6 O44 2.503195 1_655
Na7 O43 2.325564 1_565
Na7 O3 2.325564 1_555
Na7 O42 2.325565 1_565
Na7 O2 2.325565 1_555
Na7 O45 2.503201 1_555
Na7 O5 2.503201 1_566
Na7 O46 2.503202 1_556
Na7 O6 2.503202 1_555
Na8 O4 2.325564 1_556
Na8 O36 2.325564 1_555
Na8 O37 2.325571 1_555
Na8 O5 2.325571 1_556
Na8 O11 2.503195 1_555
Na8 O43 2.503195 1_555
Na8 O8 2.503195 1_555
Na8 O40 2.503195 1_556
Na9 O39 2.325564 1_655
Na9 O7 2.325564 1_555
Na9 O6 2.325565 1_555
Na9 O38 2.325565 1_655
Na9 O41 2.503201 1_555
Na9 O9 2.503201 1_665
Na9 O42 2.503202 1_565
Na9 O10 2.503202 1_555
Na10 O8 2.325564 1_565
Na10 O44 2.325564 1_555
Na10 O45 2.325571 1_555
Na10 O9 2.325571 1_565
Na10 O39 2.503195 1_555
Na10 O3 2.503195 1_555
Na10 O0 2.503195 1_555
Na10 O36 2.503195 1_565
Na11 O47 2.325564 1_556
Na11 O11 2.325564 1_555
Na11 O46 2.325565 1_556
Na11 O10 2.325565 1_555
Na11 O37 2.503201 1_555
Na11 O1 2.503201 1_656
Na11 O2 2.503202 1_555
Na11 O38 2.503202 1_655
Al0 O13 1.935899 1_454
Al0 O1 1.935899 1_555
Al0 O23 1.935904 1_555
Al0 O11 1.935904 1_454
Al0 O16 1.935904 1_554
Al0 O4 1.935904 1_455
Al1 O21 1.935899 1_445
Al1 O9 1.935899 1_555
Al1 O19 1.935904 1_555
Al1 O0 1.935904 1_545
Al1 O12 1.935904 1_455
Al1 O7 1.935904 1_445
Al2 O5 1.935899 1_555
Al2 O17 1.935899 1_544
Al2 O8 1.935904 1_554
Al2 O15 1.935904 1_555
Al2 O3 1.935904 1_544
Al2 O20 1.935904 1_545
Al3 O18 1.935909 1_555
Al3 O22 1.935909 1_555
Al3 O14 1.935909 1_555
Al3 O10 1.935909 1_555
Al3 O2 1.935909 1_555
Al3 O6 1.935909 1_555
Al4 O37 1.935899 1_554
Al4 O25 1.935899 1_555
Al4 O35 1.935904 1_554
Al4 O40 1.935904 1_555
Al4 O47 1.935904 1_555
Al4 O28 1.935904 1_554
Al5 O33 1.935899 1_555
Al5 O45 1.935899 1_545
Al5 O31 1.935904 1_545
Al5 O36 1.935904 1_555
Al5 O24 1.935904 1_545
Al5 O43 1.935904 1_555
Al6 O29 1.935899 1_555
Al6 O41 1.935899 1_455
Al6 O44 1.935904 1_555
Al6 O27 1.935904 1_455
Al6 O39 1.935904 1_555
Al6 O32 1.935904 1_455
Al7 O34 1.935909 1_554
Al7 O30 1.935909 1_545
Al7 O46 1.935909 1_445
Al7 O26 1.935909 1_455
Al7 O42 1.935909 1_454
Al7 O38 1.935909 1_544
O0 P1 1.560738 1_555
O1 P1 1.560737 1_555
O2 P0 1.560728 1_555
O3 P0 1.560738 1_555
O4 P3 1.560738 1_555
O5 P3 1.560737 1_555
O6 P2 1.560728 1_555
O7 P2 1.560738 1_555
O8 P5 1.560738 1_555
O9 P5 1.560737 1_555
O10 P4 1.560728 1_555
O11 P4 1.560738 1_555
O12 P7 1.560738 1_555
O13 P7 1.560737 1_555
O14 P6 1.560728 1_555
O15 P6 1.560738 1_555
O16 P9 1.560738 1_555
O17 P9 1.560737 1_555
O18 P8 1.560728 1_555
O19 P8 1.560738 1_555
O20 P11 1.560738 1_555
O21 P11 1.560737 1_555
O22 P10 1.560728 1_555
O23 P10 1.560738 1_555
O24 P2 1.560738 1_555
O25 P2 1.560737 1_555
O26 P3 1.560728 1_555
O27 P3 1.560738 1_555
O28 P0 1.560738 1_555
O29 P0 1.560737 1_555
O30 P1 1.560728 1_555
O31 P1 1.560738 1_555
O32 P4 1.560738 1_555
O33 P4 1.560737 1_555
O34 P5 1.560728 1_555
O35 P5 1.560738 1_555
O36 P8 1.560738 1_555
O37 P8 1.560737 1_555
O38 P9 1.560728 1_555
O39 P9 1.560738 1_555
O40 P6 1.560738 1_555
O41 P6 1.560737 1_555
O42 P7 1.560728 1_555
O43 P7 1.560738 1_555
O44 P10 1.560738 1_555
O45 P10 1.560737 1_555
O46 P11 1.560728 1_555
O47 P11 1.560738 1_555
