# generated using pymatgen
data_RbFeCl3
_symmetry_space_group_name_H-M   'P 1'
_cell_length_a   6.97965565
_cell_length_b   6.97965565
_cell_length_c   5.87278300
_cell_angle_alpha   90.00000000
_cell_angle_beta   90.00000000
_cell_angle_gamma   119.99999667
_symmetry_Int_Tables_number   1
_chemical_formula_structural   RbFeCl3
_chemical_formula_sum   'Rb2 Fe2 Cl6'
_cell_volume   247.76650425
_cell_formula_units_Z   2
loop_
 _symmetry_equiv_pos_site_id
 _symmetry_equiv_pos_as_xyz
  1  'x, y, z'
loop_
 _atom_site_type_symbol
 _atom_site_label
 _atom_site_symmetry_multiplicity
 _atom_site_fract_x
 _atom_site_fract_y
 _atom_site_fract_z
 _atom_site_occupancy
  Rb  Rb0  1  0.33333300  0.66666700  0.75000000  1
  Rb  Rb1  1  0.66666700  0.33333300  0.25000000  1
  Fe  Fe0  1  0.00000000  0.00000000  0.00000000  1
  Fe  Fe1  1  0.00000000  0.00000000  0.50000000  1
  Cl  Cl0  1  0.14899800  0.29799600  0.25000000  1
  Cl  Cl1  1  0.85100200  0.70200400  0.75000000  1
  Cl  Cl2  1  0.70200400  0.85100200  0.25000000  1
  Cl  Cl3  1  0.29799600  0.14899800  0.75000000  1
  Cl  Cl4  1  0.14899800  0.85100200  0.25000000  1
  Cl  Cl5  1  0.85100200  0.14899800  0.75000000  1
loop_
_geom_bond_atom_site_label_1
_geom_bond_atom_site_label_2
_geom_bond_distance
_geom_bond_site_symmetry_2
Cl0 Fe1 2.323815 1_555
Cl0 Fe0 2.323815 1_555
Cl0 Rb1 3.496355 1_455
Cl0 Rb1 3.496362 1_555
Cl0 Rb0 3.686245 1_555
Cl0 Rb0 3.686245 1_554
Cl1 Fe0 2.323815 1_666
Cl1 Fe1 2.323815 1_665
Cl1 Rb0 3.496355 1_655
Cl1 Rb0 3.496362 1_555
Cl1 Rb1 3.686245 1_556
Cl1 Rb1 3.686245 1_555
Cl2 Fe0 2.323815 1_665
Cl2 Fe1 2.323815 1_665
Cl2 Rb1 3.496355 1_565
Cl2 Rb1 3.496362 1_555
Cl2 Rb0 3.686245 1_554
Cl2 Rb0 3.686245 1_555
Cl3 Fe0 2.323815 1_556
Cl3 Fe1 2.323815 1_555
Cl3 Rb0 3.496355 1_545
Cl3 Rb0 3.496362 1_555
Cl3 Rb1 3.686245 1_556
Cl3 Rb1 3.686245 1_555
Cl4 Fe0 2.323815 1_565
Cl4 Fe1 2.323815 1_565
Cl4 Rb1 3.496359 1_455
Cl4 Rb1 3.496359 1_565
Cl4 Rb0 3.686241 1_555
Cl4 Rb0 3.686241 1_554
Cl5 Fe1 2.323815 1_655
Cl5 Fe0 2.323815 1_656
Cl5 Rb0 3.496359 1_545
Cl5 Rb0 3.496359 1_655
Cl5 Rb1 3.686241 1_555
Cl5 Rb1 3.686241 1_556
