# generated using pymatgen
data_NaLi2IrF6
_symmetry_space_group_name_H-M   'P 1'
_cell_length_a   5.89676992
_cell_length_b   5.89676992
_cell_length_c   5.89676992
_cell_angle_alpha   60.00000000
_cell_angle_beta   60.00000000
_cell_angle_gamma   60.00000000
_symmetry_Int_Tables_number   1
_chemical_formula_structural   NaLi2IrF6
_chemical_formula_sum   'Na1 Li2 Ir1 F6'
_cell_volume   144.98649511
_cell_formula_units_Z   1
loop_
 _symmetry_equiv_pos_site_id
 _symmetry_equiv_pos_as_xyz
  1  'x, y, z'
loop_
 _atom_site_type_symbol
 _atom_site_label
 _atom_site_symmetry_multiplicity
 _atom_site_fract_x
 _atom_site_fract_y
 _atom_site_fract_z
 _atom_site_occupancy
  Na  Na0  1  0.50000000  0.50000000  0.50000000  1
  Li  Li0  1  0.25000000  0.25000000  0.25000000  1
  Li  Li1  1  0.75000000  0.75000000  0.75000000  1
  Ir  Ir0  1  0.00000000  0.00000000  0.00000000  1
  F  F0  1  0.24174200  0.24174200  0.75825800  1
  F  F1  1  0.24174200  0.75825800  0.75825800  1
  F  F2  1  0.75825800  0.75825800  0.24174200  1
  F  F3  1  0.24174200  0.75825800  0.24174200  1
  F  F4  1  0.75825800  0.24174200  0.75825800  1
  F  F5  1  0.75825800  0.24174200  0.24174200  1
loop_
_geom_bond_atom_site_label_1
_geom_bond_atom_site_label_2
_geom_bond_distance
_geom_bond_site_symmetry_2
F0 Ir0 2.015957 1_556
F0 Na0 2.153689 1_555
F1 Ir0 2.015957 1_566
F1 Na0 2.153689 1_555
F2 Ir0 2.015957 1_665
F2 Na0 2.153689 1_555
F3 Ir0 2.015957 1_565
F3 Na0 2.153689 1_555
F4 Ir0 2.015957 1_656
F4 Na0 2.153689 1_555
F5 Ir0 2.015957 1_655
F5 Na0 2.153689 1_555
