# generated using pymatgen
data_Na3P3HO9
_symmetry_space_group_name_H-M   'P 1'
_cell_length_a   7.63647300
_cell_length_b   8.33870600
_cell_length_c   13.37711700
_cell_angle_alpha   90.00000000
_cell_angle_beta   90.00000000
_cell_angle_gamma   90.00000000
_symmetry_Int_Tables_number   1
_chemical_formula_structural   Na3P3HO9
_chemical_formula_sum   'Na12 P12 H4 O36'
_cell_volume   851.83211259
_cell_formula_units_Z   4
loop_
 _symmetry_equiv_pos_site_id
 _symmetry_equiv_pos_as_xyz
  1  'x, y, z'
loop_
 _atom_site_type_symbol
 _atom_site_label
 _atom_site_symmetry_multiplicity
 _atom_site_fract_x
 _atom_site_fract_y
 _atom_site_fract_z
 _atom_site_occupancy
  Na  Na0  1  0.31815900  0.01098500  0.08092600  1
  Na  Na1  1  0.68184100  0.98901500  0.91907400  1
  Na  Na2  1  0.18184100  0.98901500  0.58092600  1
  Na  Na3  1  0.68184100  0.51098500  0.91907400  1
  Na  Na4  1  0.81815900  0.01098500  0.41907400  1
  Na  Na5  1  0.31815900  0.48901500  0.08092600  1
  Na  Na6  1  0.81815900  0.48901500  0.41907400  1
  Na  Na7  1  0.18184100  0.51098500  0.58092600  1
  Na  Na8  1  0.46419700  0.25000000  0.72789300  1
  Na  Na9  1  0.53580300  0.75000000  0.27210700  1
  Na  Na10  1  0.03580300  0.75000000  0.22789300  1
  Na  Na11  1  0.96419700  0.25000000  0.77210700  1
  P  P0  1  0.26163100  0.07601900  0.33681200  1
  P  P1  1  0.73836900  0.92398100  0.66318800  1
  P  P2  1  0.23836900  0.92398100  0.83681200  1
  P  P3  1  0.73836900  0.57601900  0.66318800  1
  P  P4  1  0.76163100  0.07601900  0.16318800  1
  P  P5  1  0.26163100  0.42398100  0.33681200  1
  P  P6  1  0.76163100  0.42398100  0.16318800  1
  P  P7  1  0.23836900  0.57601900  0.83681200  1
  P  P8  1  0.99696600  0.25000000  0.03049200  1
  P  P9  1  0.00303400  0.75000000  0.96950800  1
  P  P10  1  0.50303400  0.75000000  0.53049200  1
  P  P11  1  0.49696600  0.25000000  0.46950800  1
  H  H0  1  0.00589700  0.25000000  0.58310000  1
  H  H1  1  0.99410300  0.75000000  0.41690000  1
  H  H2  1  0.49410300  0.75000000  0.08310000  1
  H  H3  1  0.50589700  0.25000000  0.91690000  1
  O  O0  1  0.24784700  0.25000000  0.28055000  1
  O  O1  1  0.75215300  0.75000000  0.71945000  1
  O  O2  1  0.25215300  0.75000000  0.78055000  1
  O  O3  1  0.74784700  0.25000000  0.21945000  1
  O  O4  1  0.38231900  0.25000000  0.56073400  1
  O  O5  1  0.61768100  0.75000000  0.43926600  1
  O  O6  1  0.11768100  0.75000000  0.06073400  1
  O  O7  1  0.88231900  0.25000000  0.93926600  1
  O  O8  1  0.19221000  0.25000000  0.02183400  1
  O  O9  1  0.80779000  0.75000000  0.97816600  1
  O  O10  1  0.30779000  0.75000000  0.52183400  1
  O  O11  1  0.69221000  0.25000000  0.47816600  1
  O  O12  1  0.44663000  0.09820200  0.39734100  1
  O  O13  1  0.55337000  0.90179800  0.60265900  1
  O  O14  1  0.05337000  0.90179800  0.89734100  1
  O  O15  1  0.55337000  0.59820200  0.60265900  1
  O  O16  1  0.94663000  0.09820200  0.10265900  1
  O  O17  1  0.44663000  0.40179800  0.39734100  1
  O  O18  1  0.94663000  0.40179800  0.10265900  1
  O  O19  1  0.05337000  0.59820200  0.89734100  1
  O  O20  1  0.29183500  0.54880800  0.25747000  1
  O  O21  1  0.70816500  0.45119200  0.74253000  1
  O  O22  1  0.20816500  0.45119200  0.75747000  1
  O  O23  1  0.70816500  0.04880800  0.74253000  1
  O  O24  1  0.79183500  0.54880800  0.24253000  1
  O  O25  1  0.29183500  0.95119200  0.25747000  1
  O  O26  1  0.79183500  0.95119200  0.24253000  1
  O  O27  1  0.20816500  0.04880800  0.75747000  1
  O  O28  1  0.11575000  0.05562000  0.41013400  1
  O  O29  1  0.88425000  0.94438000  0.58986600  1
  O  O30  1  0.38425000  0.94438000  0.91013400  1
  O  O31  1  0.88425000  0.55562000  0.58986600  1
  O  O32  1  0.61575000  0.05562000  0.08986600  1
  O  O33  1  0.11575000  0.44438000  0.41013400  1
  O  O34  1  0.61575000  0.44438000  0.08986600  1
  O  O35  1  0.38425000  0.55562000  0.91013400  1
loop_
_geom_bond_atom_site_label_1
_geom_bond_atom_site_label_2
_geom_bond_distance
_geom_bond_site_symmetry_2
Na0 O32 2.305927 1_555
Na0 O8 2.349954 1_555
Na0 O30 2.404801 1_544
Na0 O25 2.422065 1_545
Na0 O6 2.674497 1_545
Na0 O16 2.943296 1_455
Na1 O30 2.305927 1_555
Na1 O9 2.349954 1_555
Na1 O32 2.404801 1_566
Na1 O23 2.422065 1_565
Na1 O7 2.674497 1_565
Na1 O14 2.943296 1_655
Na2 O29 2.305927 1_455
Na2 O10 2.349954 1_555
Na2 O28 2.404801 1_565
Na2 O27 2.422065 1_565
Na2 O4 2.674497 1_565
Na2 O13 2.943296 1_555
Na3 O35 2.305927 1_555
Na3 O9 2.349954 1_555
Na3 O34 2.404801 1_556
Na3 O21 2.422065 1_555
Na3 O7 2.674497 1_555
Na3 O19 2.943296 1_655
Na4 O28 2.305927 1_655
Na4 O11 2.349954 1_555
Na4 O29 2.404801 1_545
Na4 O26 2.422065 1_545
Na4 O5 2.674497 1_545
Na4 O12 2.943296 1_555
Na5 O34 2.305927 1_555
Na5 O8 2.349954 1_555
Na5 O35 2.404801 1_554
Na5 O20 2.422065 1_555
Na5 O6 2.674497 1_555
Na5 O18 2.943296 1_455
Na6 O33 2.305927 1_655
Na6 O11 2.349954 1_555
Na6 O31 2.404801 1_555
Na6 O24 2.422065 1_555
Na6 O5 2.674497 1_555
Na6 O17 2.943296 1_555
Na7 O31 2.305927 1_455
Na7 O10 2.349954 1_555
Na7 O33 2.404801 1_555
Na7 O22 2.422065 1_555
Na7 O4 2.674497 1_555
Na7 O15 2.943296 1_555
Na8 O4 2.321878 1_555
Na8 O23 2.514742 1_555
Na8 O21 2.514742 1_555
Na8 O22 2.606509 1_555
Na8 O27 2.606509 1_555
Na9 O5 2.321878 1_555
Na9 O25 2.514742 1_555
Na9 O20 2.514742 1_555
Na9 O26 2.606509 1_555
Na9 O24 2.606509 1_555
Na10 O6 2.321878 1_555
Na10 O24 2.514742 1_455
Na10 O26 2.514742 1_455
Na10 O25 2.606509 1_555
Na10 O20 2.606509 1_555
Na11 O7 2.321878 1_555
Na11 O27 2.514742 1_655
Na11 O22 2.514742 1_655
Na11 O21 2.606509 1_555
Na11 O23 2.606509 1_555
H0 Na11 2.548343 1_455
H0 Na2 2.557785 1_545
H0 Na7 2.557785 1_555
H1 Na10 2.548343 1_655
H1 Na4 2.557785 1_565
H1 Na6 2.557785 1_555
H2 Na9 2.548343 1_555
H2 Na5 2.557785 1_555
H2 Na0 2.557785 1_565
H3 Na8 2.548343 1_555
H3 Na1 2.557785 1_545
H3 Na3 2.557785 1_555
O0 P0 1.637765 1_555
O0 P5 1.637765 1_555
O1 P1 1.637765 1_555
O1 P3 1.637765 1_555
O2 P7 1.637765 1_555
O2 P2 1.637765 1_555
O3 P6 1.637765 1_555
O3 P4 1.637765 1_555
O4 P11 1.501909 1_555
O5 P10 1.501909 1_555
O6 P9 1.501909 1_554
O7 P8 1.501909 1_556
O8 P8 1.495467 1_455
O9 P9 1.495467 1_655
O10 P10 1.495467 1_555
O11 P11 1.495467 1_555
O12 P11 1.637673 1_555
O12 P0 1.638802 1_555
O13 P10 1.637673 1_555
O13 P1 1.638802 1_555
O14 P9 1.637673 1_555
O14 P2 1.638802 1_555
O15 P10 1.637673 1_555
O15 P3 1.638802 1_555
O16 P8 1.637673 1_555
O16 P4 1.638802 1_555
O17 P11 1.637673 1_555
O17 P5 1.638802 1_555
O18 P8 1.637673 1_555
O18 P6 1.638802 1_555
O19 P9 1.637673 1_555
O19 P7 1.638802 1_555
O20 P5 1.504382 1_555
O21 P3 1.504382 1_555
O22 P7 1.504382 1_555
O23 P1 1.504382 1_545
O24 P6 1.504382 1_555
O25 P0 1.504382 1_565
O26 P4 1.504382 1_565
O27 P2 1.504382 1_545
O28 P0 1.493991 1_555
O29 P1 1.493991 1_555
O30 P2 1.493991 1_555
O31 P3 1.493991 1_555
O32 P4 1.493991 1_555
O33 P5 1.493991 1_555
O34 P6 1.493991 1_555
O35 P7 1.493991 1_555
