# generated using pymatgen
data_Li3Y3(TeO6)2
_symmetry_space_group_name_H-M   'P 1'
_cell_length_a   10.76576069
_cell_length_b   10.76576069
_cell_length_c   10.76576069
_cell_angle_alpha   109.47122063
_cell_angle_beta   109.47122063
_cell_angle_gamma   109.47122063
_symmetry_Int_Tables_number   1
_chemical_formula_structural   Li3Y3(TeO6)2
_chemical_formula_sum   'Li12 Y12 Te8 O48'
_cell_volume   960.53296444
_cell_formula_units_Z   4
loop_
 _symmetry_equiv_pos_site_id
 _symmetry_equiv_pos_as_xyz
  1  'x, y, z'
loop_
 _atom_site_type_symbol
 _atom_site_label
 _atom_site_symmetry_multiplicity
 _atom_site_fract_x
 _atom_site_fract_y
 _atom_site_fract_z
 _atom_site_occupancy
  Li  Li0  1  0.62500000  0.37500000  0.75000000  1
  Li  Li1  1  0.37500000  0.62500000  0.25000000  1
  Li  Li2  1  0.87500000  0.12500000  0.25000000  1
  Li  Li3  1  0.37500000  0.75000000  0.62500000  1
  Li  Li4  1  0.62500000  0.25000000  0.37500000  1
  Li  Li5  1  0.12500000  0.87500000  0.75000000  1
  Li  Li6  1  0.12500000  0.25000000  0.87500000  1
  Li  Li7  1  0.87500000  0.75000000  0.12500000  1
  Li  Li8  1  0.75000000  0.62500000  0.37500000  1
  Li  Li9  1  0.25000000  0.37500000  0.62500000  1
  Li  Li10  1  0.25000000  0.87500000  0.12500000  1
  Li  Li11  1  0.75000000  0.12500000  0.87500000  1
  Y  Y0  1  0.87500000  0.62500000  0.75000000  1
  Y  Y1  1  0.12500000  0.37500000  0.25000000  1
  Y  Y2  1  0.62500000  0.87500000  0.25000000  1
  Y  Y3  1  0.62500000  0.75000000  0.87500000  1
  Y  Y4  1  0.87500000  0.25000000  0.62500000  1
  Y  Y5  1  0.37500000  0.12500000  0.75000000  1
  Y  Y6  1  0.37500000  0.25000000  0.12500000  1
  Y  Y7  1  0.12500000  0.75000000  0.37500000  1
  Y  Y8  1  0.75000000  0.87500000  0.62500000  1
  Y  Y9  1  0.25000000  0.12500000  0.37500000  1
  Y  Y10  1  0.25000000  0.62500000  0.87500000  1
  Y  Y11  1  0.75000000  0.37500000  0.12500000  1
  Te  Te0  1  0.00000000  0.00000000  0.00000000  1
  Te  Te1  1  0.50000000  0.00000000  0.50000000  1
  Te  Te2  1  0.50000000  0.50000000  0.00000000  1
  Te  Te3  1  0.00000000  0.00000000  0.50000000  1
  Te  Te4  1  0.00000000  0.50000000  0.50000000  1
  Te  Te5  1  0.50000000  0.50000000  0.50000000  1
  Te  Te6  1  0.50000000  0.00000000  0.00000000  1
  Te  Te7  1  0.00000000  0.50000000  0.00000000  1
  O  O0  1  0.69892478  0.62004226  0.52722689  1
  O  O1  1  0.30107522  0.37995774  0.47277311  1
  O  O2  1  0.80107522  0.82830210  0.42111748  1
  O  O3  1  0.40718463  0.87995774  0.07888252  1
  O  O4  1  0.62004226  0.52722689  0.69892478  1
  O  O5  1  0.69892478  0.07888252  0.67169790  1
  O  O6  1  0.19892478  0.17169790  0.57888252  1
  O  O7  1  0.59281537  0.12004226  0.92111748  1
  O  O8  1  0.37995774  0.47277311  0.30107522  1
  O  O9  1  0.30107522  0.92111748  0.32830210  1
  O  O10  1  0.09281537  0.67169790  0.97277311  1
  O  O11  1  0.82830210  0.42111748  0.80107522  1
  O  O12  1  0.80107522  0.97277311  0.87995774  1
  O  O13  1  0.90718463  0.32830210  0.02722689  1
  O  O14  1  0.17169790  0.57888252  0.19892478  1
  O  O15  1  0.19892478  0.02722689  0.12004226  1
  O  O16  1  0.87995774  0.07888252  0.40718463  1
  O  O17  1  0.40718463  0.52722689  0.82830210  1
  O  O18  1  0.12004226  0.92111748  0.59281537  1
  O  O19  1  0.59281537  0.47277311  0.17169790  1
  O  O20  1  0.67169790  0.97277311  0.09281537  1
  O  O21  1  0.09281537  0.42111748  0.62004226  1
  O  O22  1  0.32830210  0.02722689  0.90718463  1
  O  O23  1  0.90718463  0.57888252  0.37995774  1
  O  O24  1  0.52722689  0.69892478  0.62004226  1
  O  O25  1  0.62004226  0.09281537  0.42111748  1
  O  O26  1  0.47277311  0.30107522  0.37995774  1
  O  O27  1  0.37995774  0.90718463  0.57888252  1
  O  O28  1  0.07888252  0.40718463  0.87995774  1
  O  O29  1  0.87995774  0.80107522  0.97277311  1
  O  O30  1  0.92111748  0.59281537  0.12004226  1
  O  O31  1  0.12004226  0.19892478  0.02722689  1
  O  O32  1  0.97277311  0.09281537  0.67169790  1
  O  O33  1  0.67169790  0.69892478  0.07888252  1
  O  O34  1  0.02722689  0.90718463  0.32830210  1
  O  O35  1  0.32830210  0.30107522  0.92111748  1
  O  O36  1  0.42111748  0.80107522  0.82830210  1
  O  O37  1  0.82830210  0.40718463  0.52722689  1
  O  O38  1  0.57888252  0.19892478  0.17169790  1
  O  O39  1  0.17169790  0.59281537  0.47277311  1
  O  O40  1  0.07888252  0.67169790  0.69892478  1
  O  O41  1  0.92111748  0.32830210  0.30107522  1
  O  O42  1  0.97277311  0.87995774  0.80107522  1
  O  O43  1  0.02722689  0.12004226  0.19892478  1
  O  O44  1  0.42111748  0.62004226  0.09281537  1
  O  O45  1  0.57888252  0.37995774  0.90718463  1
  O  O46  1  0.52722689  0.82830210  0.40718463  1
  O  O47  1  0.47277311  0.17169790  0.59281537  1
loop_
_geom_bond_atom_site_label_1
_geom_bond_atom_site_label_2
_geom_bond_distance
_geom_bond_site_symmetry_2
Li0 O11 1.905386 1_555
Li0 O47 1.905386 1_555
Li0 O4 1.905386 1_555
Li0 O45 1.905386 1_555
Li1 O14 1.905386 1_555
Li1 O46 1.905386 1_555
Li1 O44 1.905386 1_555
Li1 O8 1.905386 1_555
Li2 O41 1.905386 1_555
Li2 O20 1.905386 1_545
Li2 O43 1.905386 1_655
Li2 O16 1.905386 1_555
Li3 O36 1.905386 1_555
Li3 O39 1.905386 1_555
Li3 O24 1.905386 1_555
Li3 O27 1.905386 1_555
Li4 O38 1.905386 1_555
Li4 O37 1.905386 1_555
Li4 O25 1.905386 1_555
Li4 O26 1.905386 1_555
Li5 O40 1.905386 1_555
Li5 O22 1.905386 1_565
Li5 O18 1.905386 1_555
Li5 O42 1.905386 1_455
Li6 O35 1.905386 1_555
Li6 O32 1.905386 1_455
Li6 O31 1.905386 1_556
Li6 O28 1.905386 1_555
Li7 O33 1.905386 1_555
Li7 O34 1.905386 1_655
Li7 O30 1.905386 1_555
Li7 O29 1.905386 1_554
Li8 O2 1.905386 1_555
Li8 O19 1.905386 1_555
Li8 O0 1.905386 1_555
Li8 O23 1.905386 1_555
Li9 O6 1.905386 1_555
Li9 O17 1.905386 1_555
Li9 O1 1.905386 1_555
Li9 O21 1.905386 1_555
Li10 O9 1.905386 1_555
Li10 O10 1.905386 1_554
Li10 O15 1.905386 1_565
Li10 O3 1.905386 1_555
Li11 O5 1.905386 1_555
Li11 O13 1.905386 1_556
Li11 O7 1.905386 1_555
Li11 O12 1.905386 1_545
O0 Te5 1.956091 1_555
O0 Y8 2.371951 1_555
O0 Y0 2.482828 1_555
O1 Te5 1.956091 1_555
O1 Y9 2.371951 1_555
O1 Y1 2.482828 1_555
O2 Te3 1.956091 1_665
O2 Y8 2.371951 1_555
O2 Y2 2.482828 1_555
O3 Te6 1.956091 1_565
O3 Y10 2.371951 1_554
O3 Y2 2.482828 1_555
O4 Te5 1.956091 1_555
O4 Y0 2.371951 1_555
O4 Y3 2.482828 1_555
O5 Te1 1.956091 1_555
O5 Y8 2.371951 1_545
O5 Y4 2.482828 1_555
O6 Te3 1.956091 1_555
O6 Y9 2.371951 1_555
O6 Y5 2.482828 1_555
O7 Te6 1.956091 1_556
O7 Y11 2.371951 1_556
O7 Y5 2.482828 1_555
O8 Te5 1.956091 1_555
O8 Y1 2.371951 1_555
O8 Y6 2.482828 1_555
O9 Te1 1.956091 1_565
O9 Y9 2.371951 1_565
O9 Y7 2.482828 1_555
O10 Te7 1.956091 1_556
O10 Y10 2.371951 1_555
O10 Y0 2.482828 1_455
O11 Te7 1.956091 1_656
O11 Y0 2.371951 1_555
O11 Y4 2.482828 1_555
O12 Te0 1.956091 1_666
O12 Y8 2.371951 1_555
O12 Y3 2.482828 1_555
O13 Te7 1.956091 1_655
O13 Y11 2.371951 1_555
O13 Y1 2.482828 1_655
O14 Te7 1.956091 1_555
O14 Y1 2.371951 1_555
O14 Y7 2.482828 1_555
O15 Te0 1.956091 1_555
O15 Y9 2.371951 1_555
O15 Y6 2.482828 1_555
O16 Te3 1.956091 1_655
O16 Y2 2.371951 1_545
O16 Y4 2.482828 1_555
O17 Te2 1.956091 1_556
O17 Y10 2.371951 1_555
O17 Y3 2.482828 1_555
O18 Te3 1.956091 1_565
O18 Y5 2.371951 1_565
O18 Y7 2.482828 1_555
O19 Te2 1.956091 1_555
O19 Y11 2.371951 1_555
O19 Y6 2.482828 1_555
O20 Te6 1.956091 1_565
O20 Y2 2.371951 1_555
O20 Y3 2.482828 1_554
O21 Te4 1.956091 1_555
O21 Y10 2.371951 1_555
O21 Y4 2.482828 1_455
O22 Te6 1.956091 1_556
O22 Y5 2.371951 1_555
O22 Y6 2.482828 1_556
O23 Te4 1.956091 1_655
O23 Y11 2.371951 1_555
O23 Y7 2.482828 1_655
O24 Te5 1.956091 1_555
O24 Y3 2.371951 1_555
O24 Y8 2.482828 1_555
O25 Te1 1.956091 1_555
O25 Y4 2.371951 1_555
O25 Y2 2.482828 1_545
O26 Te5 1.956091 1_555
O26 Y6 2.371951 1_555
O26 Y9 2.482828 1_555
O27 Te1 1.956091 1_565
O27 Y7 2.371951 1_555
O27 Y5 2.482828 1_565
O28 Te7 1.956091 1_556
O28 Y4 2.371951 1_455
O28 Y10 2.482828 1_555
O29 Te0 1.956091 1_666
O29 Y3 2.371951 1_555
O29 Y0 2.482828 1_555
O30 Te7 1.956091 1_655
O30 Y7 2.371951 1_655
O30 Y11 2.482828 1_555
O31 Te0 1.956091 1_555
O31 Y6 2.371951 1_555
O31 Y1 2.482828 1_555
O32 Te3 1.956091 1_655
O32 Y4 2.371951 1_555
O32 Y8 2.482828 1_545
O33 Te2 1.956091 1_555
O33 Y3 2.371951 1_554
O33 Y2 2.482828 1_555
O34 Te3 1.956091 1_565
O34 Y7 2.371951 1_555
O34 Y9 2.482828 1_565
O35 Te2 1.956091 1_556
O35 Y6 2.371951 1_556
O35 Y5 2.482828 1_555
O36 Te6 1.956091 1_566
O36 Y3 2.371951 1_555
O36 Y10 2.482828 1_555
O37 Te4 1.956091 1_655
O37 Y4 2.371951 1_555
O37 Y0 2.482828 1_555
O38 Te6 1.956091 1_555
O38 Y6 2.371951 1_555
O38 Y11 2.482828 1_555
O39 Te4 1.956091 1_555
O39 Y7 2.371951 1_555
O39 Y1 2.482828 1_555
O40 Te4 1.956091 1_555
O40 Y0 2.371951 1_455
O40 Y10 2.482828 1_555
O41 Te4 1.956091 1_655
O41 Y1 2.371951 1_655
O41 Y11 2.482828 1_555
O42 Te0 1.956091 1_666
O42 Y0 2.371951 1_555
O42 Y8 2.482828 1_555
O43 Te0 1.956091 1_555
O43 Y1 2.371951 1_555
O43 Y9 2.482828 1_555
O44 Te2 1.956091 1_555
O44 Y2 2.371951 1_555
O44 Y10 2.482828 1_554
O45 Te2 1.956091 1_556
O45 Y5 2.371951 1_555
O45 Y11 2.482828 1_556
O46 Te1 1.956091 1_565
O46 Y2 2.371951 1_555
O46 Y8 2.482828 1_555
O47 Te1 1.956091 1_555
O47 Y5 2.371951 1_555
O47 Y9 2.482828 1_555
