# generated using pymatgen
data_Zn3Ni2Ge
_symmetry_space_group_name_H-M   'P 1'
_cell_length_a   7.70729845
_cell_length_b   7.70729845
_cell_length_c   7.70729845
_cell_angle_alpha   60.00000000
_cell_angle_beta   60.00000000
_cell_angle_gamma   60.00000000
_symmetry_Int_Tables_number   1
_chemical_formula_structural   Zn3Ni2Ge
_chemical_formula_sum   'Zn12 Ni8 Ge4'
_cell_volume   323.73639929
_cell_formula_units_Z   4
loop_
 _symmetry_equiv_pos_site_id
 _symmetry_equiv_pos_as_xyz
  1  'x, y, z'
loop_
 _atom_site_type_symbol
 _atom_site_label
 _atom_site_symmetry_multiplicity
 _atom_site_fract_x
 _atom_site_fract_y
 _atom_site_fract_z
 _atom_site_occupancy
  Zn  Zn0  1  0.18379300  0.81620700  0.18379300  1
  Zn  Zn1  1  0.43379300  0.06620700  0.06620700  1
  Zn  Zn2  1  0.06620700  0.43379300  0.43379300  1
  Zn  Zn3  1  0.43379300  0.06620700  0.43379300  1
  Zn  Zn4  1  0.06620700  0.06620700  0.43379300  1
  Zn  Zn5  1  0.43379300  0.43379300  0.06620700  1
  Zn  Zn6  1  0.18379300  0.18379300  0.81620700  1
  Zn  Zn7  1  0.81620700  0.18379300  0.18379300  1
  Zn  Zn8  1  0.18379300  0.81620700  0.81620700  1
  Zn  Zn9  1  0.81620700  0.81620700  0.18379300  1
  Zn  Zn10  1  0.06620700  0.43379300  0.06620700  1
  Zn  Zn11  1  0.81620700  0.18379300  0.81620700  1
  Ni  Ni0  1  0.83855600  0.83855600  0.83855600  1
  Ni  Ni1  1  0.76566800  0.41144400  0.41144400  1
  Ni  Ni2  1  0.41144400  0.76566800  0.41144400  1
  Ni  Ni3  1  0.41144400  0.41144400  0.76566800  1
  Ni  Ni4  1  0.83855600  0.48433200  0.83855600  1
  Ni  Ni5  1  0.83855600  0.83855600  0.48433200  1
  Ni  Ni6  1  0.48433200  0.83855600  0.83855600  1
  Ni  Ni7  1  0.41144400  0.41144400  0.41144400  1
  Ge  Ge0  1  0.62500000  0.62500000  0.62500000  1
  Ge  Ge1  1  0.12500000  0.62500000  0.62500000  1
  Ge  Ge2  1  0.62500000  0.12500000  0.62500000  1
  Ge  Ge3  1  0.62500000  0.62500000  0.12500000  1
loop_
_geom_bond_atom_site_label_1
_geom_bond_atom_site_label_2
_geom_bond_distance
_geom_bond_site_symmetry_2
Ni0 Zn9 2.500488 1_556
Ni0 Zn11 2.500488 1_565
Ni0 Zn8 2.500488 1_655
Ni0 Ni5 2.730110 1_555
Ni0 Ni6 2.730110 1_555
Ni0 Ni4 2.730110 1_555
Ni0 Zn10 2.832038 1_656
Ni0 Zn1 2.832038 1_566
Ni0 Zn4 2.832038 1_665
Ni1 Zn2 2.500488 1_655
Ni1 Zn4 2.500488 1_655
Ni1 Zn10 2.500488 1_655
Ni1 Ni2 2.730110 1_555
Ni1 Ni3 2.730110 1_555
Ni1 Ni7 2.730110 1_555
Ni1 Zn7 2.832038 1_555
Ni1 Zn9 2.832038 1_555
Ni1 Zn11 2.832038 1_555
Ni2 Zn3 2.500488 1_565
Ni2 Zn1 2.500488 1_565
Ni2 Zn4 2.500488 1_565
Ni2 Ni3 2.730110 1_555
Ni2 Ni7 2.730110 1_555
Ni2 Zn0 2.832038 1_555
Ni2 Zn9 2.832038 1_555
Ni2 Zn8 2.832038 1_555
Ni3 Zn5 2.500488 1_556
Ni3 Zn1 2.500488 1_556
Ni3 Zn10 2.500488 1_556
Ni3 Ni7 2.730110 1_555
Ni3 Zn6 2.832038 1_555
Ni3 Zn8 2.832038 1_555
Ni3 Zn11 2.832038 1_555
Ni4 Zn11 2.500488 1_555
Ni4 Zn7 2.500488 1_556
Ni4 Zn6 2.500488 1_655
Ni4 Ni5 2.730110 1_555
Ni4 Ni6 2.730110 1_555
Ni4 Zn10 2.832038 1_656
Ni4 Zn5 2.832038 1_556
Ni4 Zn2 2.832038 1_655
Ni5 Zn9 2.500488 1_555
Ni5 Zn7 2.500488 1_565
Ni5 Zn0 2.500488 1_655
Ni5 Ni6 2.730110 1_555
Ni5 Zn4 2.832038 1_665
Ni5 Zn2 2.832038 1_655
Ni5 Zn3 2.832038 1_565
Ni6 Zn8 2.500488 1_555
Ni6 Zn6 2.500488 1_565
Ni6 Zn0 2.500488 1_556
Ni6 Zn1 2.832038 1_566
Ni6 Zn5 2.832038 1_556
Ni6 Zn3 2.832038 1_565
Ni7 Zn5 2.500488 1_555
Ni7 Zn3 2.500488 1_555
Ni7 Zn2 2.500488 1_555
Ni7 Zn7 2.832038 1_555
Ni7 Zn6 2.832038 1_555
Ni7 Zn0 2.832038 1_555
Ge0 Ni6 2.394540 1_555
Ge0 Ni4 2.394540 1_555
Ge0 Ni5 2.394540 1_555
Ge0 Ni2 2.394540 1_555
Ge0 Ni3 2.394540 1_555
Ge0 Ni1 2.394540 1_555
Ge0 Zn3 2.838340 1_565
Ge0 Zn5 2.838340 1_556
Ge0 Zn2 2.838340 1_655
Ge0 Zn11 2.838340 1_555
Ge0 Zn8 2.838340 1_555
Ge0 Zn9 2.838340 1_555
Ge1 Ni3 2.394540 1_555
Ge1 Ni2 2.394540 1_555
Ge1 Ni0 2.394540 1_455
Ge1 Ni5 2.394540 1_455
Ge1 Ni7 2.394540 1_555
Ge1 Ni4 2.394540 1_455
Ge1 Zn10 2.838340 1_556
Ge1 Zn4 2.838340 1_565
Ge1 Zn0 2.838340 1_555
Ge1 Zn8 2.838340 1_555
Ge1 Zn2 2.838340 1_555
Ge1 Zn6 2.838340 1_555
Ge2 Ni3 2.394540 1_555
Ge2 Ni0 2.394540 1_545
Ge2 Ni1 2.394540 1_555
Ge2 Ni5 2.394540 1_545
Ge2 Ni6 2.394540 1_545
Ge2 Ni7 2.394540 1_555
Ge2 Zn1 2.838340 1_556
Ge2 Zn4 2.838340 1_655
Ge2 Zn7 2.838340 1_555
Ge2 Zn6 2.838340 1_555
Ge2 Zn3 2.838340 1_555
Ge2 Zn11 2.838340 1_555
Ge3 Ni1 2.394540 1_555
Ge3 Ni0 2.394540 1_554
Ge3 Ni2 2.394540 1_555
Ge3 Ni6 2.394540 1_554
Ge3 Ni4 2.394540 1_554
Ge3 Ni7 2.394540 1_555
Ge3 Zn1 2.838340 1_565
Ge3 Zn10 2.838340 1_655
Ge3 Zn7 2.838340 1_555
Ge3 Zn0 2.838340 1_555
Ge3 Zn5 2.838340 1_555
Ge3 Zn9 2.838340 1_555
