# generated using pymatgen
data_Sm(NO3)3
_symmetry_space_group_name_H-M   'P 1'
_cell_length_a   10.62997272
_cell_length_b   10.62997272
_cell_length_c   12.84053843
_cell_angle_alpha   99.24691921
_cell_angle_beta   99.24691921
_cell_angle_gamma   103.34714232
_symmetry_Int_Tables_number   1
_chemical_formula_structural   Sm(NO3)3
_chemical_formula_sum   'Sm8 N24 O72'
_cell_volume   1363.52579196
_cell_formula_units_Z   8
loop_
 _symmetry_equiv_pos_site_id
 _symmetry_equiv_pos_as_xyz
  1  'x, y, z'
loop_
 _atom_site_type_symbol
 _atom_site_label
 _atom_site_symmetry_multiplicity
 _atom_site_fract_x
 _atom_site_fract_y
 _atom_site_fract_z
 _atom_site_occupancy
  Sm  Sm0  1  0.00000000  0.50000000  0.00000000  1
  Sm  Sm1  1  0.50000000  0.00000000  0.50000000  1
  Sm  Sm2  1  0.72105980  0.27894020  0.25000000  1
  Sm  Sm3  1  0.27894020  0.72105980  0.75000000  1
  Sm  Sm4  1  0.76337511  0.77970083  0.24467166  1
  Sm  Sm5  1  0.22029917  0.23662489  0.25532834  1
  Sm  Sm6  1  0.23662489  0.22029917  0.75532834  1
  Sm  Sm7  1  0.77970083  0.76337511  0.74467166  1
  N  N0  1  0.64003711  0.49186333  0.14157194  1
  N  N1  1  0.50813667  0.35996289  0.35842806  1
  N  N2  1  0.35996289  0.50813667  0.85842806  1
  N  N3  1  0.49186333  0.64003711  0.64157194  1
  N  N4  1  0.74433046  0.17852940  0.45703872  1
  N  N5  1  0.82147060  0.25566954  0.04296128  1
  N  N6  1  0.25566954  0.82147060  0.54296128  1
  N  N7  1  0.17852940  0.74433046  0.95703872  1
  N  N8  1  0.75607666  0.54195358  0.86958765  1
  N  N9  1  0.45804642  0.24392334  0.63041235  1
  N  N10  1  0.24392334  0.45804642  0.13041235  1
  N  N11  1  0.54195358  0.75607666  0.36958765  1
  N  N12  1  0.00184895  0.68072668  0.20648894  1
  N  N13  1  0.31927332  0.99815105  0.29351106  1
  N  N14  1  0.99815105  0.31927332  0.79351106  1
  N  N15  1  0.68072668  0.00184895  0.70648894  1
  N  N16  1  0.83095945  0.86371900  0.97803097  1
  N  N17  1  0.13628100  0.16904055  0.52196903  1
  N  N18  1  0.16904055  0.13628100  0.02196903  1
  N  N19  1  0.86371900  0.83095945  0.47803097  1
  N  N20  1  0.61588384  0.97425948  0.17755988  1
  N  N21  1  0.02574052  0.38411616  0.32244012  1
  N  N22  1  0.38411616  0.02574052  0.82244012  1
  N  N23  1  0.97425948  0.61588384  0.67755988  1
  O  O0  1  0.72622256  0.52347567  0.23212590  1
  O  O1  1  0.47652433  0.27377744  0.26787410  1
  O  O2  1  0.27377744  0.47652433  0.76787410  1
  O  O3  1  0.52347567  0.72622256  0.73212590  1
  O  O4  1  0.58765263  0.37176801  0.10286901  1
  O  O5  1  0.62823199  0.41234737  0.39713099  1
  O  O6  1  0.41234737  0.62823199  0.89713099  1
  O  O7  1  0.37176801  0.58765263  0.60286901  1
  O  O8  1  0.61563360  0.58395921  0.09914951  1
  O  O9  1  0.41604079  0.38436640  0.40085049  1
  O  O10  1  0.38436640  0.41604079  0.90085049  1
  O  O11  1  0.58395921  0.61563360  0.59914951  1
  O  O12  1  0.63077459  0.14761652  0.39007938  1
  O  O13  1  0.85238348  0.36922541  0.10992062  1
  O  O14  1  0.36922541  0.85238348  0.60992062  1
  O  O15  1  0.14761652  0.63077459  0.89007938  1
  O  O16  1  0.75089135  0.12946055  0.53851047  1
  O  O17  1  0.87053945  0.24910865  0.96148953  1
  O  O18  1  0.24910865  0.87053945  0.46148953  1
  O  O19  1  0.12946055  0.75089135  0.03851047  1
  O  O20  1  0.83942561  0.25550161  0.43424156  1
  O  O21  1  0.74449839  0.16057439  0.06575844  1
  O  O22  1  0.16057439  0.74449839  0.56575844  1
  O  O23  1  0.25550161  0.83942561  0.93424156  1
  O  O24  1  0.74479451  0.45762478  0.92713890  1
  O  O25  1  0.54237522  0.25520549  0.57286110  1
  O  O26  1  0.25520549  0.54237522  0.07286110  1
  O  O27  1  0.45762478  0.74479451  0.42713890  1
  O  O28  1  0.87182597  0.62314073  0.88059404  1
  O  O29  1  0.37685927  0.12817403  0.61940596  1
  O  O30  1  0.12817403  0.37685927  0.11940596  1
  O  O31  1  0.62314073  0.87182597  0.38059404  1
  O  O32  1  0.66366699  0.55349134  0.80159787  1
  O  O33  1  0.44650866  0.33633301  0.69840213  1
  O  O34  1  0.33633301  0.44650866  0.19840213  1
  O  O35  1  0.55349134  0.66366699  0.30159787  1
  O  O36  1  0.08997421  0.62146439  0.20127759  1
  O  O37  1  0.37853561  0.91002579  0.29872241  1
  O  O38  1  0.91002579  0.37853561  0.79872241  1
  O  O39  1  0.62146439  0.08997421  0.70127759  1
  O  O40  1  0.00052730  0.76335753  0.28758499  1
  O  O41  1  0.23664247  0.99947270  0.21241501  1
  O  O42  1  0.99947270  0.23664247  0.71241501  1
  O  O43  1  0.76335753  0.00052730  0.78758499  1
  O  O44  1  0.90543563  0.65477331  0.12394509  1
  O  O45  1  0.34522669  0.09456437  0.37605491  1
  O  O46  1  0.09456437  0.34522669  0.87605491  1
  O  O47  1  0.65477331  0.90543563  0.62394509  1
  O  O48  1  0.71426845  0.80669669  0.92266432  1
  O  O49  1  0.19330331  0.28573155  0.57733568  1
  O  O50  1  0.28573155  0.19330331  0.07733568  1
  O  O51  1  0.80669669  0.71426845  0.42266432  1
  O  O52  1  0.85370528  0.88880420  0.07866563  1
  O  O53  1  0.11119580  0.14629472  0.42133437  1
  O  O54  1  0.14629472  0.11119580  0.92133437  1
  O  O55  1  0.88880420  0.85370528  0.57866563  1
  O  O56  1  0.92186408  0.89068962  0.92501287  1
  O  O57  1  0.10931038  0.07813592  0.57498713  1
  O  O58  1  0.07813592  0.10931038  0.07498713  1
  O  O59  1  0.89068962  0.92186408  0.42501287  1
  O  O60  1  0.57255333  0.85095047  0.14654849  1
  O  O61  1  0.14904953  0.42744667  0.35345151  1
  O  O62  1  0.42744667  0.14904953  0.85345151  1
  O  O63  1  0.85095047  0.57255333  0.64654849  1
  O  O64  1  0.54846077  0.05330184  0.15880228  1
  O  O65  1  0.94669816  0.45153923  0.34119772  1
  O  O66  1  0.45153923  0.94669816  0.84119772  1
  O  O67  1  0.05330184  0.54846077  0.65880228  1
  O  O68  1  0.73576964  0.02118610  0.23308376  1
  O  O69  1  0.97881390  0.26423036  0.26691624  1
  O  O70  1  0.26423036  0.97881390  0.76691624  1
  O  O71  1  0.02118610  0.73576964  0.73308376  1
loop_
_geom_bond_atom_site_label_1
_geom_bond_atom_site_label_2
_geom_bond_distance
_geom_bond_site_symmetry_2
N0 O8 1.251254 1_555
N0 O4 1.251297 1_555
N0 O0 1.301614 1_555
N1 O9 1.251254 1_555
N1 O5 1.251297 1_555
N1 O1 1.301614 1_555
N2 O10 1.251254 1_555
N2 O6 1.251297 1_555
N2 O2 1.301614 1_555
N3 O11 1.251254 1_555
N3 O7 1.251297 1_555
N3 O3 1.301614 1_555
N4 O16 1.240990 1_555
N4 O20 1.251878 1_555
N4 O12 1.302623 1_555
N5 O17 1.240990 1_554
N5 O21 1.251878 1_555
N5 O13 1.302623 1_555
N6 O18 1.240990 1_555
N6 O22 1.251878 1_555
N6 O14 1.302623 1_555
N7 O19 1.240990 1_556
N7 O23 1.251878 1_555
N7 O15 1.302623 1_555
N8 O24 1.247311 1_555
N8 O32 1.247629 1_555
N8 O28 1.301283 1_555
N9 O25 1.247311 1_555
N9 O33 1.247629 1_555
N9 O29 1.301283 1_555
N10 O26 1.247311 1_555
N10 O34 1.247629 1_555
N10 O30 1.301283 1_555
N11 O27 1.247311 1_555
N11 O35 1.247629 1_555
N11 O31 1.301283 1_555
N12 O36 1.248166 1_555
N12 O40 1.253997 1_555
N12 O44 1.294702 1_455
N13 O37 1.248166 1_555
N13 O41 1.253997 1_555
N13 O45 1.294702 1_565
N14 O38 1.248166 1_555
N14 O42 1.253997 1_555
N14 O46 1.294702 1_655
N15 O39 1.248166 1_555
N15 O43 1.253997 1_555
N15 O47 1.294702 1_545
N16 O52 1.248374 1_556
N16 O56 1.275012 1_555
N16 O48 1.281579 1_555
N17 O53 1.248374 1_555
N17 O57 1.275012 1_555
N17 O49 1.281579 1_555
N18 O54 1.248374 1_554
N18 O58 1.275012 1_555
N18 O50 1.281579 1_555
N19 O55 1.248374 1_555
N19 O59 1.275012 1_555
N19 O51 1.281579 1_555
N20 O64 1.251094 1_565
N20 O60 1.258333 1_555
N20 O68 1.296685 1_565
N21 O65 1.251094 1_455
N21 O61 1.258333 1_555
N21 O69 1.296685 1_455
N22 O66 1.251094 1_545
N22 O62 1.258333 1_555
N22 O70 1.296685 1_545
N23 O67 1.251094 1_655
N23 O63 1.258333 1_555
N23 O71 1.296685 1_655
O0 Sm4 2.634804 1_555
O0 Sm2 2.634865 1_555
O1 Sm5 2.634804 1_555
O1 Sm2 2.634865 1_555
O2 Sm6 2.634804 1_555
O2 Sm3 2.634865 1_555
O3 Sm7 2.634804 1_555
O3 Sm3 2.634865 1_555
O4 Sm2 2.634035 1_555
O5 Sm2 2.634035 1_555
O6 Sm3 2.634035 1_555
O7 Sm3 2.634035 1_555
O8 Sm4 2.566339 1_555
O9 Sm5 2.566339 1_555
O10 Sm6 2.566339 1_555
O11 Sm7 2.566339 1_555
O12 Sm1 2.592705 1_555
O12 Sm2 2.616923 1_555
O13 Sm0 2.592705 1_655
O13 Sm2 2.616923 1_555
O14 Sm1 2.592705 1_565
O14 Sm3 2.616923 1_555
O15 Sm0 2.592705 1_556
O15 Sm3 2.616923 1_555
O16 Sm1 2.629450 1_555
O17 Sm0 2.629450 1_656
O18 Sm1 2.629450 1_565
O19 Sm0 2.629450 1_555
O20 Sm2 2.572852 1_555
O21 Sm2 2.572852 1_555
O22 Sm3 2.572852 1_555
O23 Sm3 2.572852 1_555
O24 Sm0 2.631032 1_656
O25 Sm1 2.631032 1_555
O26 Sm0 2.631032 1_555
O27 Sm1 2.631032 1_565
O28 Sm0 2.591850 1_656
O28 Sm7 2.681069 1_555
O29 Sm1 2.591850 1_555
O29 Sm6 2.681069 1_555
O30 Sm0 2.591850 1_555
O30 Sm5 2.681069 1_555
O31 Sm1 2.591850 1_565
O31 Sm4 2.681069 1_555
O32 Sm7 2.564493 1_555
O33 Sm6 2.564493 1_555
O34 Sm5 2.564493 1_555
O35 Sm4 2.564493 1_555
O36 Sm0 2.612381 1_555
O37 Sm1 2.612381 1_565
O38 Sm0 2.612381 1_656
O39 Sm1 2.612381 1_555
O40 Sm4 2.544681 1_455
O41 Sm5 2.544681 1_565
O42 Sm6 2.544681 1_655
O43 Sm7 2.544681 1_545
O44 Sm0 2.585810 1_655
O44 Sm4 2.731966 1_555
O45 Sm1 2.585810 1_555
O45 Sm5 2.731966 1_555
O46 Sm0 2.585810 1_556
O46 Sm6 2.731966 1_555
O47 Sm1 2.585810 1_565
O47 Sm7 2.731966 1_555
O48 Sm7 2.497995 1_555
O49 Sm6 2.497995 1_555
O50 Sm5 2.497995 1_555
O51 Sm4 2.497995 1_555
O52 Sm4 2.783692 1_555
O53 Sm5 2.783692 1_555
O54 Sm6 2.783692 1_555
O55 Sm7 2.783692 1_555
O56 Sm7 2.530127 1_555
O57 Sm6 2.530127 1_555
O58 Sm5 2.530127 1_555
O59 Sm4 2.530127 1_555
O60 Sm4 2.543673 1_555
O61 Sm5 2.543673 1_555
O62 Sm6 2.543673 1_555
O63 Sm7 2.543673 1_555
O64 Sm2 2.620214 1_555
O65 Sm2 2.620214 1_555
O66 Sm3 2.620214 1_555
O67 Sm3 2.620214 1_555
O68 Sm4 2.674724 1_545
O68 Sm2 2.756128 1_555
O69 Sm5 2.674724 1_655
O69 Sm2 2.756128 1_555
O70 Sm6 2.674724 1_565
O70 Sm3 2.756128 1_555
O71 Sm7 2.674724 1_455
O71 Sm3 2.756128 1_555
