# generated using pymatgen
data_Ba7SrCoCu7O24
_symmetry_space_group_name_H-M   'P 1'
_cell_length_a   7.99176208
_cell_length_b   7.99176208
_cell_length_c   7.99176180
_cell_angle_alpha   90.02719648
_cell_angle_beta   90.02719648
_cell_angle_gamma   90.02719280
_symmetry_Int_Tables_number   1
_chemical_formula_structural   Ba7SrCoCu7O24
_chemical_formula_sum   'Ba7 Sr1 Co1 Cu7 O24'
_cell_volume   510.41975696
_cell_formula_units_Z   1
loop_
 _symmetry_equiv_pos_site_id
 _symmetry_equiv_pos_as_xyz
  1  'x, y, z'
loop_
 _atom_site_type_symbol
 _atom_site_label
 _atom_site_symmetry_multiplicity
 _atom_site_fract_x
 _atom_site_fract_y
 _atom_site_fract_z
 _atom_site_occupancy
  Ba  Ba0  1  0.75103300  0.24903500  0.75103300  1
  Ba  Ba1  1  0.75116900  0.24911000  0.24911000  1
  Ba  Ba2  1  0.75085900  0.75085900  0.75085900  1
  Ba  Ba3  1  0.75103300  0.75103300  0.24903500  1
  Ba  Ba4  1  0.24911000  0.24911000  0.75116900  1
  Ba  Ba5  1  0.24903500  0.75103300  0.75103300  1
  Ba  Ba6  1  0.24911000  0.75116900  0.24911000  1
  Sr  Sr0  1  0.24794600  0.24794600  0.24794600  1
  Co  Co0  1  0.49854300  0.49854300  0.49854300  1
  Cu  Cu0  1  0.49995600  0.00011500  0.00011500  1
  Cu  Cu1  1  0.49971100  0.99989500  0.49971100  1
  Cu  Cu2  1  0.49971100  0.49971100  0.99989500  1
  Cu  Cu3  1  0.00022800  0.00022800  0.00022800  1
  Cu  Cu4  1  0.00011500  0.00011500  0.49995600  1
  Cu  Cu5  1  0.00011500  0.49995600  0.00011500  1
  Cu  Cu6  1  0.99989500  0.49971100  0.49971100  1
  O  O0  1  0.75038400  0.00079500  0.00079500  1
  O  O1  1  0.74887700  0.00061200  0.49923400  1
  O  O2  1  0.74887700  0.49923400  0.00061200  1
  O  O3  1  0.74173500  0.49921400  0.49921400  1
  O  O4  1  0.24970200  0.00576000  0.00576000  1
  O  O5  1  0.25113000  0.00590200  0.49419600  1
  O  O6  1  0.25113000  0.49419600  0.00590200  1
  O  O7  1  0.25735200  0.49590800  0.49590800  1
  O  O8  1  0.49419600  0.25113000  0.00590200  1
  O  O9  1  0.49590800  0.25735200  0.49590800  1
  O  O10  1  0.49923400  0.74887700  0.00061200  1
  O  O11  1  0.49921400  0.74173500  0.49921400  1
  O  O12  1  0.00576000  0.24970200  0.00576000  1
  O  O13  1  0.00590200  0.25113000  0.49419600  1
  O  O14  1  0.00079500  0.75038400  0.00079500  1
  O  O15  1  0.00061200  0.74887700  0.49923400  1
  O  O16  1  0.49923400  0.00061200  0.74887700  1
  O  O17  1  0.49419600  0.00590200  0.25113000  1
  O  O18  1  0.49921400  0.49921400  0.74173500  1
  O  O19  1  0.49590800  0.49590800  0.25735200  1
  O  O20  1  0.00079500  0.00079500  0.75038400  1
  O  O21  1  0.00576000  0.00576000  0.24970200  1
  O  O22  1  0.00061200  0.49923400  0.74887700  1
  O  O23  1  0.00590200  0.49419600  0.25113000  1
loop_
_geom_bond_atom_site_label_1
_geom_bond_atom_site_label_2
_geom_bond_distance
_geom_bond_site_symmetry_2
Ba0 O20 2.814909 1_655
Ba0 O0 2.814910 1_556
Ba0 O2 2.823656 1_556
Ba0 O22 2.823656 1_655
Ba0 O1 2.826203 1_555
Ba0 O16 2.826204 1_555
Ba0 O18 2.838466 1_555
Ba0 O3 2.838466 1_555
Ba0 O12 2.878257 1_656
Ba0 O9 2.883564 1_555
Ba0 O8 2.892422 1_556
Ba0 O13 2.892422 1_655
Ba1 O0 2.805807 1_555
Ba1 O21 2.815267 1_655
Ba1 O12 2.815267 1_655
Ba1 O2 2.818471 1_555
Ba1 O1 2.818471 1_555
Ba1 O13 2.824383 1_655
Ba1 O23 2.824383 1_655
Ba1 O8 2.826994 1_555
Ba1 O17 2.826994 1_555
Ba1 O3 2.827075 1_555
Ba1 O19 2.838991 1_555
Ba1 O9 2.838991 1_555
Ba2 O14 2.824126 1_656
Ba2 O0 2.824126 1_566
Ba2 O20 2.824126 1_665
Ba2 O22 2.834038 1_655
Ba2 O16 2.834038 1_565
Ba2 O15 2.834038 1_655
Ba2 O1 2.834038 1_565
Ba2 O2 2.834038 1_556
Ba2 O10 2.834038 1_556
Ba2 O3 2.844317 1_555
Ba2 O11 2.844317 1_555
Ba2 O18 2.844317 1_555
Ba3 O14 2.814910 1_655
Ba3 O0 2.814910 1_565
Ba3 O1 2.823656 1_565
Ba3 O15 2.823656 1_655
Ba3 O10 2.826203 1_555
Ba3 O2 2.826203 1_555
Ba3 O11 2.838466 1_555
Ba3 O3 2.838466 1_555
Ba3 O21 2.878258 1_665
Ba3 O19 2.883564 1_555
Ba3 O23 2.892422 1_655
Ba3 O17 2.892422 1_565
Ba4 O20 2.805807 1_555
Ba4 O4 2.815267 1_556
Ba4 O12 2.815267 1_556
Ba4 O22 2.818471 1_555
Ba4 O16 2.818471 1_555
Ba4 O6 2.824383 1_556
Ba4 O8 2.824383 1_556
Ba4 O13 2.826994 1_555
Ba4 O5 2.826994 1_555
Ba4 O18 2.827075 1_555
Ba4 O7 2.838991 1_555
Ba4 O9 2.838991 1_555
Ba5 O20 2.814909 1_565
Ba5 O14 2.814910 1_556
Ba5 O10 2.823656 1_556
Ba5 O16 2.823656 1_565
Ba5 O15 2.826203 1_555
Ba5 O22 2.826204 1_555
Ba5 O18 2.838466 1_555
Ba5 O11 2.838466 1_555
Ba5 O4 2.878257 1_566
Ba5 O7 2.883564 1_555
Ba5 O6 2.892422 1_556
Ba5 O5 2.892422 1_565
Ba6 O14 2.805807 1_555
Ba6 O21 2.815267 1_565
Ba6 O4 2.815267 1_565
Ba6 O10 2.818471 1_555
Ba6 O15 2.818471 1_555
Ba6 O5 2.824383 1_565
Ba6 O17 2.824383 1_565
Ba6 O6 2.826994 1_555
Ba6 O23 2.826994 1_555
Ba6 O11 2.827075 1_555
Ba6 O19 2.838991 1_555
Ba6 O7 2.838991 1_555
Co0 O19 1.927751 1_555
Co0 O7 1.927751 1_555
Co0 O9 1.927751 1_555
Co0 O18 1.943542 1_555
Co0 O3 1.943542 1_555
Co0 O11 1.943542 1_555
Cu0 O4 2.001030 1_555
Cu0 O0 2.001371 1_555
Cu0 O17 2.007113 1_555
Cu0 O8 2.007114 1_555
Cu0 O16 2.007846 1_554
Cu0 O10 2.007846 1_545
Cu1 O17 1.987671 1_565
Cu1 O5 1.987671 1_565
Cu1 O16 1.991286 1_565
Cu1 O1 1.991286 1_565
Cu1 O9 2.058013 1_565
Cu1 O11 2.063157 1_555
Cu2 O8 1.987671 1_556
Cu2 O6 1.987671 1_556
Cu2 O2 1.991286 1_556
Cu2 O10 1.991286 1_556
Cu2 O19 2.058013 1_556
Cu2 O18 2.063157 1_555
Cu3 O21 1.994674 1_555
Cu3 O12 1.994675 1_555
Cu3 O4 1.994675 1_555
Cu3 O20 1.996708 1_554
Cu3 O14 1.996708 1_545
Cu3 O0 1.996708 1_455
Cu4 O21 2.001030 1_555
Cu4 O20 2.001371 1_555
Cu4 O13 2.007114 1_555
Cu4 O5 2.007114 1_555
Cu4 O1 2.007846 1_455
Cu4 O15 2.007846 1_545
Cu5 O12 2.001030 1_555
Cu5 O14 2.001371 1_555
Cu5 O23 2.007113 1_555
Cu5 O6 2.007114 1_555
Cu5 O22 2.007846 1_554
Cu5 O2 2.007846 1_455
Cu6 O23 1.987671 1_655
Cu6 O13 1.987671 1_655
Cu6 O22 1.991286 1_655
Cu6 O15 1.991286 1_655
Cu6 O7 2.058013 1_655
Cu6 O3 2.063157 1_555
O4 Sr0 2.736596 1_555
O5 Sr0 2.760238 1_555
O6 Sr0 2.760238 1_555
O7 Sr0 2.802773 1_555
O8 Sr0 2.760238 1_555
O9 Sr0 2.802773 1_555
O12 Sr0 2.736596 1_555
O13 Sr0 2.760238 1_555
O17 Sr0 2.760238 1_555
O19 Sr0 2.802774 1_555
O21 Sr0 2.736596 1_555
O23 Sr0 2.760238 1_555
