# generated using pymatgen
data_Li2CoNi3O8
_symmetry_space_group_name_H-M   'P 1'
_cell_length_a   8.04552400
_cell_length_b   8.04552400
_cell_length_c   8.16431900
_cell_angle_alpha   90.00000000
_cell_angle_beta   90.00000000
_cell_angle_gamma   90.00000000
_symmetry_Int_Tables_number   1
_chemical_formula_structural   Li2CoNi3O8
_chemical_formula_sum   'Li8 Co4 Ni12 O32'
_cell_volume   528.48009535
_cell_formula_units_Z   4
loop_
 _symmetry_equiv_pos_site_id
 _symmetry_equiv_pos_as_xyz
  1  'x, y, z'
loop_
 _atom_site_type_symbol
 _atom_site_label
 _atom_site_symmetry_multiplicity
 _atom_site_fract_x
 _atom_site_fract_y
 _atom_site_fract_z
 _atom_site_occupancy
  Li  Li0  1  0.75247100  0.99891500  0.62598400  1
  Li  Li1  1  0.00108500  0.24752900  0.87401600  1
  Li  Li2  1  0.49891500  0.74752900  0.87598400  1
  Li  Li3  1  0.74752900  0.49891500  0.12401600  1
  Li  Li4  1  0.24752900  0.00108500  0.12598400  1
  Li  Li5  1  0.99891500  0.75247100  0.37401600  1
  Li  Li6  1  0.50108500  0.25247100  0.37598400  1
  Li  Li7  1  0.25247100  0.50108500  0.62401600  1
  Co  Co0  1  0.62740000  0.37260000  0.75000000  1
  Co  Co1  1  0.87260000  0.87260000  0.00000000  1
  Co  Co2  1  0.37260000  0.62740000  0.25000000  1
  Co  Co3  1  0.12740000  0.12740000  0.50000000  1
  Ni  Ni0  1  0.87673800  0.62201900  0.75347500  1
  Ni  Ni1  1  0.12598000  0.87402000  0.75000000  1
  Ni  Ni2  1  0.37798100  0.12326200  0.74652500  1
  Ni  Ni3  1  0.12201900  0.62326200  0.00347500  1
  Ni  Ni4  1  0.37402000  0.37402000  0.00000000  1
  Ni  Ni5  1  0.62326200  0.12201900  0.99652500  1
  Ni  Ni6  1  0.12326200  0.37798100  0.25347500  1
  Ni  Ni7  1  0.87402000  0.12598000  0.25000000  1
  Ni  Ni8  1  0.62201900  0.87673800  0.24652500  1
  Ni  Ni9  1  0.87798100  0.37673800  0.50347500  1
  Ni  Ni10  1  0.62598000  0.62598000  0.50000000  1
  Ni  Ni11  1  0.37673800  0.87798100  0.49652500  1
  O  O0  1  0.86610300  0.38971600  0.73501900  1
  O  O1  1  0.64377800  0.60713300  0.74894800  1
  O  O2  1  0.36285200  0.88872500  0.72916700  1
  O  O3  1  0.89000800  0.85586700  0.76603300  1
  O  O4  1  0.14413300  0.10999200  0.73396700  1
  O  O5  1  0.11127500  0.63714800  0.77083300  1
  O  O6  1  0.39286700  0.35622200  0.75105200  1
  O  O7  1  0.61028400  0.13389700  0.76498100  1
  O  O8  1  0.88971600  0.63389700  0.98501900  1
  O  O9  1  0.10713300  0.85622200  0.99894800  1
  O  O10  1  0.38872500  0.13714800  0.97916700  1
  O  O11  1  0.35586700  0.60999200  0.01603300  1
  O  O12  1  0.60999200  0.35586700  0.98396700  1
  O  O13  1  0.13714800  0.38872500  0.02083300  1
  O  O14  1  0.85622200  0.10713300  0.00105200  1
  O  O15  1  0.63389700  0.88971600  0.01498100  1
  O  O16  1  0.13389700  0.61028400  0.23501900  1
  O  O17  1  0.35622200  0.39286700  0.24894800  1
  O  O18  1  0.63714800  0.11127500  0.22916700  1
  O  O19  1  0.10999200  0.14413300  0.26603300  1
  O  O20  1  0.85586700  0.89000800  0.23396700  1
  O  O21  1  0.88872500  0.36285200  0.27083300  1
  O  O22  1  0.60713300  0.64377800  0.25105200  1
  O  O23  1  0.38971600  0.86610300  0.26498100  1
  O  O24  1  0.11028400  0.36610300  0.48501900  1
  O  O25  1  0.89286700  0.14377800  0.49894800  1
  O  O26  1  0.61127500  0.86285200  0.47916700  1
  O  O27  1  0.64413300  0.39000800  0.51603300  1
  O  O28  1  0.39000800  0.64413300  0.48396700  1
  O  O29  1  0.86285200  0.61127500  0.52083300  1
  O  O30  1  0.14377800  0.89286700  0.50105200  1
  O  O31  1  0.36610300  0.11028400  0.51498100  1
loop_
_geom_bond_atom_site_label_1
_geom_bond_atom_site_label_2
_geom_bond_distance
_geom_bond_site_symmetry_2
Li0 O25 1.926135 1_565
Li0 O7 1.943160 1_565
Li0 O3 1.963773 1_555
Li0 O26 1.981322 1_555
Li1 O14 1.926135 1_456
Li1 O0 1.943160 1_455
Li1 O4 1.963773 1_555
Li1 O13 1.981322 1_556
Li2 O1 1.926135 1_555
Li2 O15 1.943160 1_556
Li2 O11 1.963773 1_556
Li2 O2 1.981322 1_555
Li3 O22 1.926135 1_555
Li3 O8 1.943160 1_554
Li3 O12 1.963773 1_554
Li3 O21 1.981322 1_555
Li4 O9 1.926135 1_544
Li4 O23 1.943160 1_545
Li4 O19 1.963773 1_555
Li4 O10 1.981322 1_554
Li5 O30 1.926135 1_655
Li5 O16 1.943160 1_655
Li5 O20 1.963773 1_555
Li5 O29 1.981322 1_555
Li6 O17 1.926135 1_555
Li6 O31 1.943160 1_555
Li6 O27 1.963773 1_555
Li6 O18 1.981322 1_555
Li7 O6 1.926135 1_555
Li7 O24 1.943160 1_555
Li7 O28 1.963773 1_555
Li7 O5 1.981322 1_555
Co0 O1 1.891556 1_555
Co0 O6 1.891556 1_555
Co0 O12 1.920034 1_555
Co0 O27 1.920034 1_555
Co0 O0 1.929302 1_555
Co0 O7 1.929302 1_555
Co1 O9 1.891556 1_654
Co1 O14 1.891556 1_565
Co1 O20 1.920034 1_555
Co1 O3 1.920034 1_554
Co1 O15 1.929302 1_555
Co1 O8 1.929302 1_554
Co2 O22 1.891556 1_555
Co2 O17 1.891556 1_555
Co2 O28 1.920034 1_555
Co2 O11 1.920034 1_555
Co2 O23 1.929302 1_555
Co2 O16 1.929302 1_555
Co3 O30 1.891556 1_545
Co3 O25 1.891556 1_455
Co3 O4 1.920034 1_555
Co3 O19 1.920034 1_555
Co3 O24 1.929302 1_555
Co3 O31 1.929302 1_555
Ni0 O0 1.877015 1_555
Ni0 O1 1.878471 1_555
Ni0 O3 1.887244 1_555
Ni0 O8 1.895691 1_555
Ni0 O5 1.896198 1_655
Ni0 O29 1.904609 1_555
Ni1 O4 1.908622 1_565
Ni1 O3 1.908622 1_455
Ni1 O2 1.916989 1_555
Ni1 O5 1.916989 1_555
Ni1 O9 2.043163 1_555
Ni1 O30 2.043163 1_555
Ni2 O7 1.877015 1_555
Ni2 O6 1.878471 1_555
Ni2 O4 1.887244 1_555
Ni2 O31 1.895691 1_555
Ni2 O2 1.896198 1_545
Ni2 O10 1.904609 1_555
Ni3 O8 1.877015 1_454
Ni3 O9 1.878471 1_554
Ni3 O11 1.887244 1_555
Ni3 O16 1.895691 1_555
Ni3 O13 1.896198 1_555
Ni3 O5 1.904609 1_554
Ni4 O11 1.908622 1_555
Ni4 O12 1.908622 1_554
Ni4 O13 1.916989 1_555
Ni4 O10 1.916989 1_554
Ni4 O17 2.043163 1_555
Ni4 O6 2.043163 1_554
Ni5 O15 1.877015 1_546
Ni5 O14 1.878471 1_556
Ni5 O12 1.887244 1_555
Ni5 O7 1.895691 1_555
Ni5 O10 1.896198 1_555
Ni5 O18 1.904609 1_556
Ni6 O16 1.877015 1_555
Ni6 O17 1.878471 1_555
Ni6 O19 1.887244 1_555
Ni6 O24 1.895691 1_555
Ni6 O21 1.896198 1_455
Ni6 O13 1.904609 1_555
Ni7 O19 1.908622 1_655
Ni7 O20 1.908622 1_545
Ni7 O21 1.916989 1_555
Ni7 O18 1.916989 1_555
Ni7 O25 2.043163 1_555
Ni7 O14 2.043163 1_555
Ni8 O23 1.877015 1_555
Ni8 O22 1.878471 1_555
Ni8 O20 1.887244 1_555
Ni8 O15 1.895691 1_555
Ni8 O18 1.896198 1_565
Ni8 O26 1.904609 1_555
Ni9 O24 1.877015 1_655
Ni9 O25 1.878471 1_555
Ni9 O27 1.887244 1_555
Ni9 O0 1.895691 1_555
Ni9 O29 1.896198 1_555
Ni9 O21 1.904609 1_555
Ni10 O27 1.908622 1_555
Ni10 O28 1.908622 1_555
Ni10 O29 1.916989 1_555
Ni10 O26 1.916989 1_555
Ni10 O1 2.043163 1_555
Ni10 O22 2.043163 1_555
Ni11 O31 1.877015 1_565
Ni11 O30 1.878471 1_555
Ni11 O28 1.887244 1_555
Ni11 O23 1.895691 1_555
Ni11 O26 1.896198 1_555
Ni11 O2 1.904609 1_555
