# generated using pymatgen
data_BaTe2Mo2(HO6)2
_symmetry_space_group_name_H-M   'P 1'
_cell_length_a   7.49751400
_cell_length_b   7.63978900
_cell_length_c   19.10793000
_cell_angle_alpha   90.00000000
_cell_angle_beta   90.00000000
_cell_angle_gamma   90.00000000
_symmetry_Int_Tables_number   1
_chemical_formula_structural   BaTe2Mo2(HO6)2
_chemical_formula_sum   'Ba4 Te8 Mo8 H8 O48'
_cell_volume   1094.49124304
_cell_formula_units_Z   4
loop_
 _symmetry_equiv_pos_site_id
 _symmetry_equiv_pos_as_xyz
  1  'x, y, z'
loop_
 _atom_site_type_symbol
 _atom_site_label
 _atom_site_symmetry_multiplicity
 _atom_site_fract_x
 _atom_site_fract_y
 _atom_site_fract_z
 _atom_site_occupancy
  Ba  Ba0  1  0.25514300  0.82873000  0.44642400  1
  Ba  Ba1  1  0.74485700  0.32873000  0.05357600  1
  Ba  Ba2  1  0.75514300  0.67127000  0.55357600  1
  Ba  Ba3  1  0.24485700  0.17127000  0.94642400  1
  Te  Te0  1  0.98525600  0.38216900  0.39562700  1
  Te  Te1  1  0.51474400  0.61783100  0.89562700  1
  Te  Te2  1  0.33746000  0.59101100  0.25999100  1
  Te  Te3  1  0.83746000  0.90898900  0.74000900  1
  Te  Te4  1  0.01474400  0.88216900  0.10437300  1
  Te  Te5  1  0.66254000  0.09101100  0.24000900  1
  Te  Te6  1  0.48525600  0.11783100  0.60437300  1
  Te  Te7  1  0.16254000  0.40898900  0.75999100  1
  Mo  Mo0  1  0.52758100  0.85713900  0.09590300  1
  Mo  Mo1  1  0.02758100  0.64286100  0.90409700  1
  Mo  Mo2  1  0.77055100  0.56314800  0.24047500  1
  Mo  Mo3  1  0.97241900  0.14286100  0.59590300  1
  Mo  Mo4  1  0.27055100  0.93685200  0.75952500  1
  Mo  Mo5  1  0.47241900  0.35713900  0.40409700  1
  Mo  Mo6  1  0.72944900  0.43685200  0.74047500  1
  Mo  Mo7  1  0.22944900  0.06314800  0.25952500  1
  H  H0  1  0.81888400  0.97683700  0.92550200  1
  H  H1  1  0.31888400  0.52316300  0.07449800  1
  H  H2  1  0.76865900  0.16240100  0.89698900  1
  H  H3  1  0.23134100  0.66240100  0.60301100  1
  H  H4  1  0.68111600  0.02316300  0.42550200  1
  H  H5  1  0.26865900  0.33759900  0.10301100  1
  H  H6  1  0.18111600  0.47683700  0.57449800  1
  H  H7  1  0.73134100  0.83759900  0.39698900  1
  O  O0  1  0.76387000  0.96269300  0.14062500  1
  O  O1  1  0.95871200  0.49792600  0.81221100  1
  O  O2  1  0.54787100  0.65082300  0.19492700  1
  O  O3  1  0.43449000  0.89643800  0.56980000  1
  O  O4  1  0.09305700  0.07420800  0.33487300  1
  O  O5  1  0.29977500  0.76882500  0.09490500  1
  O  O6  1  0.51019900  0.02898600  0.03376300  1
  O  O7  1  0.68102100  0.24741000  0.78732800  1
  O  O8  1  0.40694300  0.92579200  0.83487300  1
  O  O9  1  0.17049200  0.19210400  0.80555700  1
  O  O10  1  0.09859100  0.90106800  0.20014100  1
  O  O11  1  0.70022500  0.26882500  0.40509500  1
  O  O12  1  0.20022500  0.23117500  0.59490500  1
  O  O13  1  0.93449000  0.60356200  0.43020000  1
  O  O14  1  0.73613000  0.03730700  0.64062500  1
  O  O15  1  0.40140900  0.09893200  0.70014100  1
  O  O16  1  0.45871200  0.00207400  0.18778900  1
  O  O17  1  0.18102100  0.25259000  0.21267200  1
  O  O18  1  0.84893300  0.30713300  0.55227900  1
  O  O19  1  0.04128800  0.99792600  0.68778900  1
  O  O20  1  0.84238800  0.10294200  0.93213600  1
  O  O21  1  0.34238800  0.39705800  0.06786400  1
  O  O22  1  0.59305700  0.42579200  0.66512700  1
  O  O23  1  0.15106700  0.80713300  0.94772100  1
  O  O24  1  0.82950800  0.69210400  0.69444300  1
  O  O25  1  0.81897900  0.75259000  0.28732800  1
  O  O26  1  0.45212900  0.15082300  0.30507300  1
  O  O27  1  0.90140900  0.40106800  0.29985900  1
  O  O28  1  0.31897900  0.74741000  0.71267200  1
  O  O29  1  0.67049200  0.30789600  0.19444300  1
  O  O30  1  0.65106700  0.69286700  0.05227900  1
  O  O31  1  0.01019900  0.47101400  0.96623700  1
  O  O32  1  0.59859100  0.59893200  0.79985900  1
  O  O33  1  0.04787100  0.84917700  0.80507300  1
  O  O34  1  0.26387000  0.53730700  0.85937500  1
  O  O35  1  0.34893300  0.19286700  0.44772100  1
  O  O36  1  0.15761200  0.60294200  0.56786400  1
  O  O37  1  0.54128800  0.50207400  0.31221100  1
  O  O38  1  0.48980100  0.52898600  0.46623700  1
  O  O39  1  0.65761200  0.89705800  0.43213600  1
  O  O40  1  0.06551000  0.10356200  0.06980000  1
  O  O41  1  0.95212900  0.34917700  0.69492700  1
  O  O42  1  0.79977500  0.73117500  0.90509500  1
  O  O43  1  0.98980100  0.97101400  0.53376300  1
  O  O44  1  0.23613000  0.46269300  0.35937500  1
  O  O45  1  0.56551000  0.39643800  0.93020000  1
  O  O46  1  0.90694300  0.57420800  0.16512700  1
  O  O47  1  0.32950800  0.80789600  0.30555700  1
loop_
_geom_bond_atom_site_label_1
_geom_bond_atom_site_label_2
_geom_bond_distance
_geom_bond_site_symmetry_2
Ba0 O47 2.753420 1_555
Ba0 O3 2.762841 1_555
Ba0 O43 2.815043 1_455
Ba0 O35 2.869534 1_565
Ba0 O38 2.912500 1_555
Ba0 O13 2.972375 1_455
Ba0 O36 2.982417 1_555
Ba0 O39 3.074482 1_555
Ba0 O4 3.088247 1_565
Ba0 O44 3.256852 1_555
Ba1 O29 2.753420 1_555
Ba1 O45 2.762841 1_554
Ba1 O31 2.815043 1_654
Ba1 O30 2.869534 1_555
Ba1 O6 2.912500 1_555
Ba1 O40 2.972375 1_655
Ba1 O20 2.982417 1_554
Ba1 O21 3.074482 1_555
Ba1 O46 3.088247 1_555
Ba1 O0 3.256852 1_545
Ba2 O24 2.753420 1_555
Ba2 O13 2.762841 1_555
Ba2 O38 2.815043 1_555
Ba2 O18 2.869534 1_555
Ba2 O43 2.912500 1_555
Ba2 O3 2.972375 1_555
Ba2 O39 2.982417 1_555
Ba2 O36 3.074482 1_655
Ba2 O22 3.088247 1_555
Ba2 O14 3.256852 1_565
Ba3 O9 2.753420 1_555
Ba3 O40 2.762841 1_556
Ba3 O6 2.815043 1_556
Ba3 O23 2.869534 1_545
Ba3 O31 2.912500 1_555
Ba3 O45 2.972375 1_555
Ba3 O21 2.982417 1_556
Ba3 O20 3.074482 1_455
Ba3 O8 3.088247 1_545
Ba3 O34 3.256852 1_555
Mo0 O30 1.768344 1_555
Mo0 O6 1.774955 1_565
Mo0 O5 1.836512 1_555
Mo0 O0 2.125803 1_555
Mo0 O16 2.139002 1_565
Mo0 O2 2.467345 1_555
Mo1 O23 1.768344 1_555
Mo1 O31 1.774955 1_555
Mo1 O42 1.836512 1_455
Mo1 O34 2.125803 1_555
Mo1 O1 2.139002 1_455
Mo1 O33 2.467345 1_555
Mo2 O25 1.740115 1_555
Mo2 O46 1.767969 1_555
Mo2 O27 1.945100 1_555
Mo2 O2 1.998378 1_555
Mo2 O37 2.247493 1_555
Mo2 O29 2.266986 1_555
Mo3 O18 1.768344 1_555
Mo3 O43 1.774955 1_545
Mo3 O12 1.836512 1_655
Mo3 O14 2.125803 1_555
Mo3 O19 2.139002 1_645
Mo3 O41 2.467345 1_555
Mo4 O28 1.740115 1_555
Mo4 O8 1.767969 1_555
Mo4 O15 1.945100 1_565
Mo4 O33 1.998378 1_555
Mo4 O19 2.247493 1_555
Mo4 O9 2.266986 1_565
Mo5 O35 1.768344 1_555
Mo5 O38 1.774955 1_555
Mo5 O11 1.836512 1_555
Mo5 O44 2.125803 1_555
Mo5 O37 2.139002 1_555
Mo5 O26 2.467345 1_555
Mo6 O7 1.740115 1_555
Mo6 O22 1.767969 1_555
Mo6 O32 1.945100 1_555
Mo6 O41 1.998378 1_555
Mo6 O1 2.247493 1_555
Mo6 O24 2.266986 1_555
Mo7 O17 1.740115 1_555
Mo7 O4 1.767969 1_555
Mo7 O10 1.945100 1_545
Mo7 O26 1.998378 1_555
Mo7 O16 2.247493 1_555
Mo7 O47 2.266986 1_545
H0 O20 0.987569 1_565
H1 O21 0.987569 1_555
H2 O20 0.981298 1_555
H3 O36 0.981298 1_555
H4 O39 0.987569 1_545
H5 O21 0.981298 1_555
H6 O36 0.987569 1_555
H7 O39 0.981298 1_555
O0 Te4 2.096710 1_655
O0 Te5 2.268149 1_565
O1 Te7 1.947488 1_655
O2 Te2 2.059888 1_555
O3 Te6 1.855292 1_565
O5 Te4 2.312883 1_555
O9 Te7 1.872732 1_555
O10 Te4 1.940278 1_555
O11 Te0 2.312883 1_555
O12 Te6 2.312883 1_555
O13 Te0 1.855292 1_555
O14 Te6 2.096710 1_555
O14 Te3 2.268149 1_545
O15 Te6 1.940278 1_555
O16 Te5 1.947488 1_555
O19 Te3 1.947488 1_455
O24 Te3 1.872732 1_555
O26 Te5 2.059888 1_555
O27 Te0 1.940278 1_555
O29 Te5 1.872732 1_555
O32 Te1 1.940278 1_555
O33 Te3 2.059888 1_455
O34 Te1 2.096710 1_555
O34 Te7 2.268149 1_555
O37 Te2 1.947488 1_555
O40 Te4 1.855292 1_545
O41 Te7 2.059888 1_655
O42 Te1 2.312883 1_555
O44 Te0 2.096710 1_455
O44 Te2 2.268149 1_555
O45 Te1 1.855292 1_555
O47 Te2 1.872732 1_555
