# generated using pymatgen
data_K3TmF6
_symmetry_space_group_name_H-M   'P 1'
_cell_length_a   6.58306797
_cell_length_b   6.58306797
_cell_length_c   6.58306797
_cell_angle_alpha   60.00000000
_cell_angle_beta   60.00000000
_cell_angle_gamma   60.00000000
_symmetry_Int_Tables_number   1
_chemical_formula_structural   K3TmF6
_chemical_formula_sum   'K3 Tm1 F6'
_cell_volume   201.72978192
_cell_formula_units_Z   1
loop_
 _symmetry_equiv_pos_site_id
 _symmetry_equiv_pos_as_xyz
  1  'x, y, z'
loop_
 _atom_site_type_symbol
 _atom_site_label
 _atom_site_symmetry_multiplicity
 _atom_site_fract_x
 _atom_site_fract_y
 _atom_site_fract_z
 _atom_site_occupancy
  K  K0  1  0.75000000  0.75000000  0.75000000  1
  K  K1  1  0.25000000  0.25000000  0.25000000  1
  K  K2  1  0.50000000  0.50000000  0.50000000  1
  Tm  Tm0  1  0.00000000  0.00000000  0.00000000  1
  F  F0  1  0.77080400  0.77080400  0.22919600  1
  F  F1  1  0.22919600  0.22919600  0.77080400  1
  F  F2  1  0.77080400  0.22919600  0.77080400  1
  F  F3  1  0.22919600  0.77080400  0.22919600  1
  F  F4  1  0.22919600  0.77080400  0.77080400  1
  F  F5  1  0.77080400  0.22919600  0.22919600  1
loop_
_geom_bond_atom_site_label_1
_geom_bond_atom_site_label_2
_geom_bond_distance
_geom_bond_site_symmetry_2
F0 Tm0 2.133784 1_665
F0 K2 2.521148 1_555
F0 K0 3.297227 1_555
F0 K1 3.297227 1_655
F0 K1 3.297227 1_565
F0 K0 3.297227 1_554
F1 Tm0 2.133784 1_556
F1 K2 2.521148 1_555
F1 K1 3.297227 1_556
F1 K0 3.297227 1_455
F1 K0 3.297227 1_545
F1 K1 3.297227 1_555
F2 Tm0 2.133784 1_656
F2 K2 2.521148 1_555
F2 K0 3.297227 1_555
F2 K1 3.297227 1_655
F2 K1 3.297227 1_556
F2 K0 3.297227 1_545
F3 Tm0 2.133784 1_565
F3 K2 2.521148 1_555
F3 K1 3.297227 1_565
F3 K0 3.297227 1_455
F3 K0 3.297227 1_554
F3 K1 3.297227 1_555
F4 Tm0 2.133784 1_566
F4 K2 2.521148 1_555
F4 K0 3.297227 1_555
F4 K1 3.297227 1_556
F4 K1 3.297227 1_565
F4 K0 3.297227 1_455
F5 Tm0 2.133784 1_655
F5 K2 2.521148 1_555
F5 K1 3.297227 1_655
F5 K0 3.297227 1_545
F5 K0 3.297227 1_554
F5 K1 3.297227 1_555
