# generated using pymatgen
data_Sm(Mo3Se4)2
_symmetry_space_group_name_H-M   'P 1'
_cell_length_a   6.80528520
_cell_length_b   6.80528520
_cell_length_c   6.80528542
_cell_angle_alpha   89.04585480
_cell_angle_beta   89.04585480
_cell_angle_gamma   89.04584582
_symmetry_Int_Tables_number   1
_chemical_formula_structural   Sm(Mo3Se4)2
_chemical_formula_sum   'Sm1 Mo6 Se8'
_cell_volume   315.03607981
_cell_formula_units_Z   1
loop_
 _symmetry_equiv_pos_site_id
 _symmetry_equiv_pos_as_xyz
  1  'x, y, z'
loop_
 _atom_site_type_symbol
 _atom_site_label
 _atom_site_symmetry_multiplicity
 _atom_site_fract_x
 _atom_site_fract_y
 _atom_site_fract_z
 _atom_site_occupancy
  Sm  Sm0  1  0.00000000  0.00000000  0.00000000  1
  Mo  Mo0  1  0.76471400  0.57716600  0.44026200  1
  Mo  Mo1  1  0.44026200  0.76471400  0.57716600  1
  Mo  Mo2  1  0.57716600  0.44026200  0.76471400  1
  Mo  Mo3  1  0.23528600  0.42283400  0.55973800  1
  Mo  Mo4  1  0.55973800  0.23528600  0.42283400  1
  Mo  Mo5  1  0.42283400  0.55973800  0.23528600  1
  Se  Se0  1  0.76076100  0.76076100  0.76076100  1
  Se  Se1  1  0.23923900  0.23923900  0.23923900  1
  Se  Se2  1  0.24490900  0.62604000  0.87719900  1
  Se  Se3  1  0.87719900  0.24490900  0.62604000  1
  Se  Se4  1  0.62604000  0.87719900  0.24490900  1
  Se  Se5  1  0.75509100  0.37396000  0.12280100  1
  Se  Se6  1  0.12280100  0.75509100  0.37396000  1
  Se  Se7  1  0.37396000  0.12280100  0.75509100  1
loop_
_geom_bond_atom_site_label_1
_geom_bond_atom_site_label_2
_geom_bond_distance
_geom_bond_site_symmetry_2
Mo0 Se0 2.531124 1_555
Mo0 Se5 2.586744 1_555
Mo0 Se4 2.591175 1_555
Mo0 Se3 2.678868 1_555
Mo0 Se6 2.766145 1_655
Mo1 Se0 2.531124 1_555
Mo1 Se6 2.586743 1_555
Mo1 Se2 2.591175 1_555
Mo1 Se4 2.678868 1_555
Mo1 Se7 2.766144 1_565
Mo2 Se0 2.531124 1_555
Mo2 Se7 2.586744 1_555
Mo2 Se3 2.591175 1_555
Mo2 Se2 2.678868 1_555
Mo2 Se5 2.766144 1_556
Mo3 Se1 2.531124 1_555
Mo3 Se2 2.586744 1_555
Mo3 Se7 2.591175 1_555
Mo3 Se6 2.678868 1_555
Mo3 Se3 2.766145 1_455
Mo4 Se1 2.531124 1_555
Mo4 Se3 2.586743 1_555
Mo4 Se5 2.591175 1_555
Mo4 Se7 2.678868 1_555
Mo4 Se4 2.766144 1_545
Mo5 Se1 2.531124 1_555
Mo5 Se4 2.586744 1_555
Mo5 Se6 2.591175 1_555
Mo5 Se5 2.678868 1_555
Mo5 Se2 2.766144 1_554
Se0 Sm0 2.866508 1_666
Se1 Sm0 2.866508 1_555
Se2 Sm0 3.136226 1_566
Se3 Sm0 3.136226 1_656
Se4 Sm0 3.136226 1_665
Se5 Sm0 3.136226 1_655
Se6 Sm0 3.136226 1_565
Se7 Sm0 3.136226 1_556
