# generated using pymatgen
data_Sc2Pd
_symmetry_space_group_name_H-M   'P 1'
_cell_length_a   8.81590826
_cell_length_b   8.81590826
_cell_length_c   8.81590826
_cell_angle_alpha   60.00000000
_cell_angle_beta   60.00000000
_cell_angle_gamma   60.00000000
_symmetry_Int_Tables_number   1
_chemical_formula_structural   Sc2Pd
_chemical_formula_sum   'Sc16 Pd8'
_cell_volume   484.49152898
_cell_formula_units_Z   8
loop_
 _symmetry_equiv_pos_site_id
 _symmetry_equiv_pos_as_xyz
  1  'x, y, z'
loop_
 _atom_site_type_symbol
 _atom_site_label
 _atom_site_symmetry_multiplicity
 _atom_site_fract_x
 _atom_site_fract_y
 _atom_site_fract_z
 _atom_site_occupancy
  Sc  Sc0  1  -0.00000000  -0.00000000  0.50000000  1
  Sc  Sc1  1  -0.00000000  0.50000000  0.00000000  1
  Sc  Sc2  1  0.50000000  -0.00000000  0.00000000  1
  Sc  Sc3  1  -0.00000000  -0.00000000  0.00000000  1
  Sc  Sc4  1  0.44077352  0.80922648  0.80922648  1
  Sc  Sc5  1  0.80922648  0.44077352  0.44077352  1
  Sc  Sc6  1  0.80922648  0.44077352  0.80922648  1
  Sc  Sc7  1  0.44077352  0.80922648  0.44077352  1
  Sc  Sc8  1  0.80922648  0.80922648  0.44077352  1
  Sc  Sc9  1  0.44077352  0.44077352  0.80922648  1
  Sc  Sc10  1  0.55922648  0.19077352  0.19077352  1
  Sc  Sc11  1  0.19077352  0.55922648  0.55922648  1
  Sc  Sc12  1  0.19077352  0.55922648  0.19077352  1
  Sc  Sc13  1  0.55922648  0.19077352  0.55922648  1
  Sc  Sc14  1  0.19077352  0.19077352  0.55922648  1
  Sc  Sc15  1  0.55922648  0.55922648  0.19077352  1
  Pd  Pd0  1  0.21488571  0.21488571  0.85534388  1
  Pd  Pd1  1  0.21488571  0.85534388  0.21488571  1
  Pd  Pd2  1  0.85534388  0.21488571  0.21488571  1
  Pd  Pd3  1  0.21488571  0.21488571  0.21488571  1
  Pd  Pd4  1  0.78511429  0.78511429  0.14465612  1
  Pd  Pd5  1  0.78511429  0.14465612  0.78511429  1
  Pd  Pd6  1  0.14465612  0.78511429  0.78511429  1
  Pd  Pd7  1  0.78511429  0.78511429  0.78511429  1
loop_
_geom_bond_atom_site_label_1
_geom_bond_atom_site_label_2
_geom_bond_distance
_geom_bond_site_symmetry_2
Sc0 Sc13 3.242638 1_455
Sc0 Sc14 3.242638 1_555
Sc0 Sc5 3.242638 1_455
Sc0 Sc8 3.242638 1_445
Sc0 Sc7 3.242638 1_545
Sc0 Sc11 3.242638 1_545
Sc1 Sc12 3.242638 1_555
Sc1 Sc6 3.242638 1_454
Sc1 Sc5 3.242638 1_455
Sc1 Sc11 3.242638 1_554
Sc1 Sc15 3.242638 1_455
Sc1 Sc9 3.242638 1_554
Sc2 Sc4 3.242638 1_544
Sc2 Sc7 3.242638 1_545
Sc2 Sc9 3.242638 1_554
Sc3 Sc6 3.242638 1_454
Sc3 Sc4 3.242638 1_544
Sc3 Sc8 3.242638 1_445
Sc4 Sc7 3.248247 1_555
Sc4 Sc6 3.248247 1_555
Sc4 Sc9 3.248247 1_555
Sc4 Sc8 3.248247 1_555
Sc5 Sc7 3.248247 1_555
Sc5 Sc6 3.248247 1_555
Sc5 Sc9 3.248247 1_555
Sc5 Sc8 3.248247 1_555
Sc6 Sc9 3.248247 1_555
Sc6 Sc8 3.248247 1_555
Sc7 Sc9 3.248247 1_555
Sc7 Sc8 3.248247 1_555
Sc10 Sc3 3.242638 1_655
Sc10 Sc2 3.242638 1_555
Sc10 Sc14 3.248247 1_555
Sc10 Sc12 3.248247 1_555
Sc10 Sc13 3.248247 1_555
Sc10 Sc15 3.248247 1_555
Sc10 Sc7 3.325650 1_545
Sc10 Sc8 3.325650 1_545
Sc10 Sc9 3.325650 1_554
Sc10 Sc6 3.325650 1_554
Sc11 Sc12 3.248247 1_555
Sc11 Sc14 3.248247 1_555
Sc11 Sc13 3.248247 1_555
Sc11 Sc15 3.248247 1_555
Sc11 Sc9 3.325650 1_555
Sc11 Sc8 3.325650 1_455
Sc11 Sc7 3.325650 1_555
Sc11 Sc6 3.325650 1_455
Sc12 Sc3 3.242638 1_565
Sc12 Sc14 3.248247 1_555
Sc12 Sc15 3.248247 1_555
Sc12 Sc4 3.325650 1_554
Sc12 Sc8 3.325650 1_455
Sc12 Sc5 3.325650 1_455
Sc12 Sc9 3.325650 1_554
Sc13 Sc2 3.242638 1_556
Sc13 Sc14 3.248247 1_555
Sc13 Sc15 3.248247 1_555
Sc13 Sc8 3.325650 1_545
Sc13 Sc4 3.325650 1_545
Sc13 Sc9 3.325650 1_555
Sc13 Sc5 3.325650 1_555
Sc14 Sc3 3.242638 1_556
Sc14 Sc5 3.325650 1_455
Sc14 Sc7 3.325650 1_545
Sc14 Sc4 3.325650 1_545
Sc14 Sc6 3.325650 1_455
Sc15 Sc2 3.242638 1_565
Sc15 Sc4 3.325650 1_554
Sc15 Sc5 3.325650 1_555
Sc15 Sc7 3.325650 1_555
Sc15 Sc6 3.325650 1_554
Pd0 Sc1 2.749707 1_556
Pd0 Sc2 2.749707 1_556
Pd0 Sc3 2.749715 1_556
Pd0 Sc13 2.839070 1_555
Pd0 Sc11 2.839070 1_555
Pd0 Sc14 2.839075 1_555
Pd0 Pd3 3.169688 1_556
Pd0 Pd2 3.169688 1_456
Pd0 Pd1 3.169688 1_546
Pd0 Sc9 3.231581 1_555
Pd0 Sc4 3.231588 1_545
Pd0 Sc6 3.231588 1_455
Pd1 Sc0 2.749707 1_565
Pd1 Sc2 2.749707 1_565
Pd1 Sc3 2.749715 1_565
Pd1 Sc15 2.839070 1_555
Pd1 Sc11 2.839070 1_555
Pd1 Sc12 2.839075 1_555
Pd1 Pd3 3.169688 1_565
Pd1 Pd2 3.169688 1_465
Pd1 Sc7 3.231581 1_555
Pd1 Sc4 3.231588 1_554
Pd1 Sc8 3.231588 1_455
Pd2 Sc0 2.749707 1_655
Pd2 Sc1 2.749707 1_655
Pd2 Sc3 2.749715 1_655
Pd2 Sc15 2.839070 1_555
Pd2 Sc13 2.839070 1_555
Pd2 Sc10 2.839075 1_555
Pd2 Pd3 3.169688 1_655
Pd2 Sc5 3.231581 1_555
Pd2 Sc6 3.231588 1_554
Pd2 Sc8 3.231588 1_545
Pd3 Sc1 2.749713 1_555
Pd3 Sc2 2.749713 1_555
Pd3 Sc0 2.749713 1_555
Pd3 Sc10 2.839067 1_555
Pd3 Sc12 2.839067 1_555
Pd3 Sc14 2.839067 1_555
Pd3 Sc9 3.231585 1_554
Pd3 Sc7 3.231585 1_545
Pd3 Sc5 3.231585 1_455
Pd4 Sc2 2.749707 1_565
Pd4 Sc1 2.749707 1_655
Pd4 Sc3 2.749715 1_665
Pd4 Sc5 2.839070 1_555
Pd4 Sc7 2.839070 1_555
Pd4 Sc8 2.839075 1_555
Pd4 Pd5 3.169688 1_564
Pd4 Pd7 3.169688 1_554
Pd4 Pd6 3.169688 1_654
Pd4 Sc15 3.231581 1_555
Pd4 Sc12 3.231588 1_655
Pd4 Sc10 3.231588 1_565
Pd5 Sc0 2.749707 1_655
Pd5 Sc2 2.749707 1_556
Pd5 Sc3 2.749715 1_656
Pd5 Sc9 2.839070 1_555
Pd5 Sc5 2.839070 1_555
Pd5 Sc6 2.839075 1_555
Pd5 Pd6 3.169688 1_645
Pd5 Pd7 3.169688 1_545
Pd5 Sc13 3.231581 1_555
Pd5 Sc10 3.231588 1_556
Pd5 Sc14 3.231588 1_655
Pd6 Sc0 2.749707 1_565
Pd6 Sc1 2.749707 1_556
Pd6 Sc3 2.749715 1_566
Pd6 Sc9 2.839070 1_555
Pd6 Sc7 2.839070 1_555
Pd6 Sc4 2.839075 1_555
Pd6 Pd7 3.169688 1_455
Pd6 Sc11 3.231581 1_555
Pd6 Sc14 3.231588 1_565
Pd6 Sc12 3.231588 1_556
Pd7 Sc0 2.749713 1_665
Pd7 Sc1 2.749713 1_656
Pd7 Sc2 2.749713 1_566
Pd7 Sc8 2.839067 1_555
Pd7 Sc6 2.839067 1_555
Pd7 Sc4 2.839067 1_555
Pd7 Sc15 3.231585 1_556
Pd7 Sc13 3.231585 1_565
Pd7 Sc11 3.231585 1_655
