# generated using pymatgen
data_Sr3TaFeO7
_symmetry_space_group_name_H-M   'P 1'
_cell_length_a   11.01877608
_cell_length_b   11.01877608
_cell_length_c   11.01877608
_cell_angle_alpha   159.13731834
_cell_angle_beta   159.13731834
_cell_angle_gamma   29.67203222
_symmetry_Int_Tables_number   1
_chemical_formula_structural   Sr3TaFeO7
_chemical_formula_sum   'Sr3 Ta1 Fe1 O7'
_cell_volume   169.57673397
_cell_formula_units_Z   1
loop_
 _symmetry_equiv_pos_site_id
 _symmetry_equiv_pos_as_xyz
  1  'x, y, z'
loop_
 _atom_site_type_symbol
 _atom_site_label
 _atom_site_symmetry_multiplicity
 _atom_site_fract_x
 _atom_site_fract_y
 _atom_site_fract_z
 _atom_site_occupancy
  Sr  Sr0  1  0.48173900  0.48173900  0.00000000  1
  Sr  Sr1  1  0.69137900  0.69137900  0.00000000  1
  Sr  Sr2  1  0.31837700  0.31837700  0.00000000  1
  Ta  Ta0  1  0.09723300  0.09723300  0.00000000  1
  Fe  Fe0  1  0.89516000  0.89516000  0.00000000  1
  O  O0  1  0.90458100  0.40458100  0.50000000  1
  O  O1  1  0.40458100  0.90458100  0.50000000  1
  O  O2  1  0.10159800  0.60159800  0.50000000  1
  O  O3  1  0.60159800  0.10159800  0.50000000  1
  O  O4  1  0.80191100  0.80191100  0.00000000  1
  O  O5  1  0.19428100  0.19428100  0.00000000  1
  O  O6  1  0.00756200  0.00756200  0.00000000  1
loop_
_geom_bond_atom_site_label_1
_geom_bond_atom_site_label_2
_geom_bond_distance
_geom_bond_site_symmetry_2
Fe0 O4 1.986472 1_555
Fe0 O1 2.005097 1_655
Fe0 O0 2.005097 1_565
Fe0 O0 2.005097 1_554
Fe0 O1 2.005097 1_554
Fe0 O6 2.394486 1_665
O0 Sr0 2.584927 1_656
O0 Sr0 2.584927 1_555
O0 Sr2 2.711545 1_656
O0 Sr2 2.711545 1_555
O1 Sr0 2.584927 1_566
O1 Sr0 2.584927 1_555
O1 Sr2 2.711545 1_566
O1 Sr2 2.711545 1_555
O2 Ta0 1.997194 1_555
O2 Ta0 1.997194 1_566
O2 Sr1 2.763721 1_556
O2 Sr1 2.763721 1_455
O3 Ta0 1.997194 1_555
O3 Ta0 1.997194 1_656
O3 Sr1 2.763721 1_545
O3 Sr1 2.763721 1_556
O4 Sr1 2.354650 1_555
O4 Sr2 2.843117 1_565
O4 Sr2 2.843117 1_554
O4 Sr2 2.843117 1_655
O4 Sr2 2.843117 1_666
O5 Ta0 2.067402 1_555
O5 Sr2 2.643602 1_555
O5 Sr1 2.822073 1_455
O5 Sr1 2.822073 1_556
O5 Sr1 2.822073 1_444
O5 Sr1 2.822073 1_545
O6 Ta0 1.910250 1_555
O6 Sr0 2.874524 1_455
O6 Sr0 2.874524 1_556
O6 Sr0 2.874524 1_444
O6 Sr0 2.874524 1_545
