# generated using pymatgen
data_Ce3Rh2
_symmetry_space_group_name_H-M   'P 1'
_cell_length_a   7.45569215
_cell_length_b   7.45569215
_cell_length_c   7.45569201
_cell_angle_alpha   71.64448293
_cell_angle_beta   71.64448293
_cell_angle_gamma   71.64447533
_symmetry_Int_Tables_number   1
_chemical_formula_structural   Ce3Rh2
_chemical_formula_sum   'Ce9 Rh6'
_cell_volume   362.47703672
_cell_formula_units_Z   3
loop_
 _symmetry_equiv_pos_site_id
 _symmetry_equiv_pos_as_xyz
  1  'x, y, z'
loop_
 _atom_site_type_symbol
 _atom_site_label
 _atom_site_symmetry_multiplicity
 _atom_site_fract_x
 _atom_site_fract_y
 _atom_site_fract_z
 _atom_site_occupancy
  Ce  Ce0  1  0.00000000  0.00000000  0.00000000  1
  Ce  Ce1  1  0.79517800  0.79517800  0.79517800  1
  Ce  Ce2  1  0.20482200  0.20482200  0.20482200  1
  Ce  Ce3  1  0.16598100  0.39037400  0.66332200  1
  Ce  Ce4  1  0.66332200  0.16598100  0.39037400  1
  Ce  Ce5  1  0.39037400  0.66332200  0.16598100  1
  Ce  Ce6  1  0.83401900  0.60962600  0.33667800  1
  Ce  Ce7  1  0.33667800  0.83401900  0.60962600  1
  Ce  Ce8  1  0.60962600  0.33667800  0.83401900  1
  Rh  Rh0  1  0.95359100  0.16638700  0.59090600  1
  Rh  Rh1  1  0.59090600  0.95359100  0.16638700  1
  Rh  Rh2  1  0.16638700  0.59090600  0.95359100  1
  Rh  Rh3  1  0.04640900  0.83361300  0.40909400  1
  Rh  Rh4  1  0.40909400  0.04640900  0.83361300  1
  Rh  Rh5  1  0.83361300  0.40909400  0.04640900  1
loop_
_geom_bond_atom_site_label_1
_geom_bond_atom_site_label_2
_geom_bond_distance
_geom_bond_site_symmetry_2
Ce0 Rh5 2.995478 1_455
Ce0 Rh2 2.995478 1_544
Ce0 Rh3 2.995479 1_545
Ce0 Rh0 2.995479 1_454
Ce0 Rh4 2.995479 1_554
Ce0 Rh1 2.995479 1_445
Ce1 Rh4 2.880832 1_565
Ce1 Rh5 2.880832 1_556
Ce1 Rh3 2.880832 1_655
Ce1 Rh2 3.105682 1_655
Ce1 Rh1 3.105682 1_556
Ce1 Rh0 3.105683 1_565
Ce2 Rh1 2.880832 1_545
Ce2 Rh2 2.880832 1_554
Ce2 Rh0 2.880832 1_455
Ce2 Rh5 3.105682 1_455
Ce2 Rh4 3.105682 1_554
Ce2 Rh3 3.105683 1_545
Ce3 Rh4 2.818712 1_555
Ce3 Rh0 2.891319 1_455
Ce3 Rh2 2.993958 1_555
Ce3 Rh5 3.145380 1_456
Ce3 Rh3 3.251441 1_555
Ce4 Rh5 2.818713 1_555
Ce4 Rh1 2.891319 1_545
Ce4 Rh0 2.993958 1_555
Ce4 Rh3 3.145380 1_645
Ce4 Rh4 3.251441 1_555
Ce5 Rh3 2.818712 1_555
Ce5 Rh2 2.891319 1_554
Ce5 Rh1 2.993958 1_555
Ce5 Rh4 3.145380 1_564
Ce5 Rh5 3.251441 1_555
Ce6 Rh1 2.818712 1_555
Ce6 Rh3 2.891319 1_655
Ce6 Rh5 2.993958 1_555
Ce6 Rh2 3.145380 1_654
Ce6 Rh0 3.251441 1_555
Ce7 Rh2 2.818713 1_555
Ce7 Rh4 2.891319 1_565
Ce7 Rh3 2.993958 1_555
Ce7 Rh0 3.145380 1_465
Ce7 Rh1 3.251441 1_555
Ce8 Rh0 2.818712 1_555
Ce8 Rh5 2.891319 1_556
Ce8 Rh4 2.993958 1_555
Ce8 Rh1 3.145380 1_546
Ce8 Rh2 3.251441 1_555
