# generated using pymatgen
data_Zn2GaCuTe4
_symmetry_space_group_name_H-M   'P 1'
_cell_length_a   7.49788656
_cell_length_b   7.49788656
_cell_length_c   7.49788656
_cell_angle_alpha   131.67462561
_cell_angle_beta   131.67462561
_cell_angle_gamma   70.74340836
_symmetry_Int_Tables_number   1
_chemical_formula_structural   Zn2GaCuTe4
_chemical_formula_sum   'Zn2 Ga1 Cu1 Te4'
_cell_volume   230.35600928
_cell_formula_units_Z   1
loop_
 _symmetry_equiv_pos_site_id
 _symmetry_equiv_pos_as_xyz
  1  'x, y, z'
loop_
 _atom_site_type_symbol
 _atom_site_label
 _atom_site_symmetry_multiplicity
 _atom_site_fract_x
 _atom_site_fract_y
 _atom_site_fract_z
 _atom_site_occupancy
  Zn  Zn0  1  0.75000000  0.25000000  0.50000000  1
  Zn  Zn1  1  0.25000000  0.75000000  0.50000000  1
  Ga  Ga0  1  0.50000000  0.50000000  0.00000000  1
  Cu  Cu0  1  0.00000000  0.00000000  0.00000000  1
  Te  Te0  1  0.36697300  0.36697300  0.48882900  1
  Te  Te1  1  0.12185600  0.63302700  0.00000000  1
  Te  Te2  1  0.87814400  0.87814400  0.51117100  1
  Te  Te3  1  0.63302700  0.12185600  0.00000000  1
loop_
_geom_bond_atom_site_label_1
_geom_bond_atom_site_label_2
_geom_bond_distance
_geom_bond_site_symmetry_2
Ga0 Te2 2.677376 1_555
Ga0 Te0 2.677376 1_554
Ga0 Te3 2.677376 1_555
Ga0 Te1 2.677376 1_555
Cu0 Te2 2.597585 1_444
Cu0 Te1 2.597585 1_545
Cu0 Te3 2.597585 1_455
Cu0 Te0 2.597585 1_555
Te0 Zn0 2.672156 1_555
Te0 Zn1 2.672156 1_555
Te1 Zn0 2.672156 1_454
Te1 Zn1 2.672156 1_555
Te2 Zn0 2.672156 1_565
Te2 Zn1 2.672156 1_655
Te3 Zn1 2.672156 1_544
Te3 Zn0 2.672156 1_555
