# generated using pymatgen
data_LiLu4(CoO3)4
_symmetry_space_group_name_H-M   'P 1'
_cell_length_a   5.14078314
_cell_length_b   5.86307822
_cell_length_c   7.44994315
_cell_angle_alpha   90.32470924
_cell_angle_beta   90.35593138
_cell_angle_gamma   89.53050626
_symmetry_Int_Tables_number   1
_chemical_formula_structural   LiLu4(CoO3)4
_chemical_formula_sum   'Li1 Lu4 Co4 O12'
_cell_volume   224.53193527
_cell_formula_units_Z   1
loop_
 _symmetry_equiv_pos_site_id
 _symmetry_equiv_pos_as_xyz
  1  'x, y, z'
loop_
 _atom_site_type_symbol
 _atom_site_label
 _atom_site_symmetry_multiplicity
 _atom_site_fract_x
 _atom_site_fract_y
 _atom_site_fract_z
 _atom_site_occupancy
  Li  Li0  1  0.44101900  0.24588300  0.24839600  1
  Lu  Lu0  1  0.54347500  0.63120900  0.24620700  1
  Lu  Lu1  1  0.95980100  0.09015500  0.24718300  1
  Lu  Lu2  1  0.47624700  0.41136700  0.75257400  1
  Lu  Lu3  1  0.02005900  0.90715500  0.75211100  1
  Co  Co0  1  0.00458700  0.49469600  0.50118600  1
  Co  Co1  1  0.00553900  0.49437600  0.99900900  1
  Co  Co2  1  0.49374800  0.99218300  0.98675500  1
  Co  Co3  1  0.49196000  0.99252000  0.51019300  1
  O  O0  1  0.29858300  0.67237800  0.56526400  1
  O  O1  1  0.85896400  0.55236500  0.75018700  1
  O  O2  1  0.81392600  0.82021600  0.06352900  1
  O  O3  1  0.30324500  0.67226300  0.93891000  1
  O  O4  1  0.80520100  0.82590600  0.43964700  1
  O  O5  1  0.15681300  0.43999200  0.25017700  1
  O  O6  1  0.68587500  0.33153200  0.06770800  1
  O  O7  1  0.18601800  0.17611400  0.56310200  1
  O  O8  1  0.69094100  0.33399700  0.42852200  1
  O  O9  1  0.62693300  0.05199900  0.74369800  1
  O  O10  1  0.36189300  0.95834100  0.25740700  1
  O  O11  1  0.17517000  0.17916400  0.93823300  1
loop_
_geom_bond_atom_site_label_1
_geom_bond_atom_site_label_2
_geom_bond_distance
_geom_bond_site_symmetry_2
Li0 O10 1.739260 1_545
Li0 O5 1.844683 1_555
Li0 O6 1.920345 1_555
Li0 O8 1.923529 1_555
Li0 Lu0 2.324151 1_555
Lu0 O10 2.127645 1_555
Lu0 O2 2.253676 1_555
Lu0 O4 2.274343 1_555
Lu0 O5 2.290534 1_555
Lu0 O6 2.314296 1_555
Lu0 O8 2.334195 1_555
Lu0 O3 2.605847 1_554
Lu0 O0 2.705329 1_555
Lu1 O10 2.201903 1_645
Lu1 O2 2.218420 1_545
Lu1 O4 2.268800 1_545
Lu1 O5 2.294907 1_655
Lu1 O6 2.395623 1_555
Lu1 O8 2.397564 1_555
Lu1 O11 2.617354 1_654
Lu1 O7 2.666064 1_655
Lu2 O1 2.140536 1_555
Lu2 O9 2.239691 1_555
Lu2 O3 2.242067 1_555
Lu2 O0 2.260270 1_555
Lu2 O7 2.471143 1_555
Lu2 O11 2.498929 1_555
Lu2 O6 2.620119 1_556
Lu2 O8 2.695296 1_555
Lu3 O9 2.186405 1_465
Lu3 O1 2.245187 1_455
Lu3 O11 2.254761 1_565
Lu3 O7 2.293357 1_565
Lu3 O0 2.419369 1_555
Lu3 O3 2.432357 1_555
Lu3 O2 2.611163 1_456
Lu3 O4 2.613403 1_455
Co0 O0 1.899632 1_555
Co0 O8 1.946493 1_455
Co0 O1 2.030254 1_455
Co0 O5 2.054131 1_555
Co0 O7 2.132489 1_555
Co0 O4 2.236842 1_455
Co1 O3 1.915845 1_555
Co1 O6 1.978822 1_456
Co1 O1 2.026130 1_455
Co1 O5 2.047534 1_556
Co1 O11 2.085662 1_555
Co1 O2 2.194472 1_456
Co2 O9 1.974124 1_565
Co2 O11 1.995600 1_565
Co2 O2 2.005135 1_556
Co2 O10 2.142006 1_556
Co2 O3 2.150034 1_555
Co2 O6 2.304142 1_566
Co3 O9 1.900358 1_565
Co3 O7 1.939807 1_565
Co3 O4 1.949997 1_555
Co3 O10 2.004025 1_555
Co3 O0 2.173511 1_555
Co3 O8 2.340961 1_565
