# generated using pymatgen
data_Li9Mn2Co5O16
_symmetry_space_group_name_H-M   'P 1'
_cell_length_a   5.83113300
_cell_length_b   5.86262592
_cell_length_c   10.00220673
_cell_angle_alpha   88.62766912
_cell_angle_beta   106.35929447
_cell_angle_gamma   119.41756772
_symmetry_Int_Tables_number   1
_chemical_formula_structural   Li9Mn2Co5O16
_chemical_formula_sum   'Li9 Mn2 Co5 O16'
_cell_volume   283.09732069
_cell_formula_units_Z   1
loop_
 _symmetry_equiv_pos_site_id
 _symmetry_equiv_pos_as_xyz
  1  'x, y, z'
loop_
 _atom_site_type_symbol
 _atom_site_label
 _atom_site_symmetry_multiplicity
 _atom_site_fract_x
 _atom_site_fract_y
 _atom_site_fract_z
 _atom_site_occupancy
  Li  Li0  1  0.50000000  0.50000000  0.00000000  1
  Li  Li1  1  0.52762500  0.27700600  0.27006700  1
  Li  Li2  1  0.50000000  0.00000000  0.50000000  1
  Li  Li3  1  0.50000000  0.00000000  0.00000000  1
  Li  Li4  1  0.51884800  0.76336900  0.26099000  1
  Li  Li5  1  0.50000000  0.50000000  0.50000000  1
  Li  Li6  1  0.48115200  0.23663100  0.73901000  1
  Li  Li7  1  0.47237500  0.72299400  0.72993300  1
  Li  Li8  1  0.00000000  0.50000000  0.50000000  1
  Mn  Mn0  1  0.00000000  0.00000000  0.00000000  1
  Mn  Mn1  1  0.00000000  0.50000000  0.00000000  1
  Co  Co0  1  0.00655800  0.75352000  0.25529200  1
  Co  Co1  1  0.99344200  0.24648000  0.74470800  1
  Co  Co2  1  0.99887300  0.25501200  0.26648900  1
  Co  Co3  1  0.00000000  0.00000000  0.50000000  1
  Co  Co4  1  0.00112700  0.74498800  0.73351100  1
  O  O0  1  0.21186200  0.11270600  0.86974200  1
  O  O1  1  0.21404000  0.85200400  0.11244300  1
  O  O2  1  0.22750800  0.62390900  0.35785800  1
  O  O3  1  0.23706700  0.62545900  0.88327400  1
  O  O4  1  0.21502800  0.35057900  0.11255300  1
  O  O5  1  0.24754400  0.13355900  0.38306900  1
  O  O6  1  0.23252600  0.87767500  0.62491600  1
  O  O7  1  0.21254300  0.33792000  0.62369200  1
  O  O8  1  0.78813800  0.88729400  0.13025800  1
  O  O9  1  0.78745700  0.66208000  0.37630800  1
  O  O10  1  0.77249200  0.37609100  0.64214200  1
  O  O11  1  0.76293300  0.37454100  0.11672600  1
  O  O12  1  0.76747400  0.12232500  0.37508400  1
  O  O13  1  0.75245600  0.86644100  0.61693100  1
  O  O14  1  0.78497200  0.64942100  0.88744700  1
  O  O15  1  0.78596000  0.14799600  0.88755700  1
loop_
_geom_bond_atom_site_label_1
_geom_bond_atom_site_label_2
_geom_bond_distance
_geom_bond_site_symmetry_2
Li0 O3 2.076793 1_554
Li0 O11 2.076793 1_555
Li0 O4 2.091089 1_555
Li0 O14 2.091089 1_554
Li0 O8 2.199292 1_555
Li0 O0 2.199292 1_554
Li1 O12 2.062635 1_555
Li1 O5 2.072960 1_555
Li1 O9 2.090263 1_555
Li1 O11 2.221440 1_555
Li1 O4 2.261160 1_555
Li1 O1 2.475076 1_545
Li2 O5 2.065586 1_555
Li2 O13 2.065586 1_545
Li2 O12 2.112829 1_555
Li2 O6 2.112829 1_545
Li2 O10 2.200814 1_555
Li2 O2 2.200814 1_545
Li3 O11 2.083890 1_555
Li3 O3 2.083890 1_544
Li3 O1 2.094429 1_545
Li3 O15 2.094429 1_554
Li3 O0 2.184775 1_554
Li3 O8 2.184775 1_545
Li4 O9 1.999868 1_555
Li4 O2 2.004525 1_555
Li4 O12 2.004679 1_565
Li4 O8 2.166536 1_555
Li4 O1 2.240390 1_555
Li4 O4 2.382906 1_555
Li5 O13 2.047922 1_555
Li5 O5 2.047922 1_555
Li5 O9 2.188714 1_555
Li5 O7 2.188714 1_555
Li5 O2 2.210337 1_555
Li5 O10 2.210337 1_555
Li6 O7 1.999868 1_555
Li6 O10 2.004525 1_555
Li6 O6 2.004679 1_545
Li6 O0 2.166536 1_555
Li6 O15 2.240390 1_555
Li6 O14 2.382906 1_555
Li7 O6 2.062635 1_555
Li7 O13 2.072960 1_555
Li7 O7 2.090263 1_555
Li7 O3 2.221440 1_555
Li7 O14 2.261160 1_555
Li7 O15 2.475076 1_565
Li8 O7 2.050947 1_555
Li8 O9 2.050947 1_455
Li8 O2 2.091722 1_555
Li8 O10 2.091722 1_455
Li8 O6 2.128638 1_555
Li8 O12 2.128638 1_455
Mn0 O8 1.929726 1_445
Mn0 O0 1.929726 1_554
Mn0 O1 1.949810 1_545
Mn0 O15 1.949810 1_454
Mn0 O4 1.961620 1_555
Mn0 O14 1.961620 1_444
Mn1 O3 1.919442 1_554
Mn1 O11 1.919442 1_455
Mn1 O14 1.960483 1_454
Mn1 O4 1.960483 1_555
Mn1 O1 1.967646 1_555
Mn1 O15 1.967646 1_454
Co0 O2 1.862682 1_555
Co0 O9 1.884690 1_455
Co0 O8 1.959144 1_455
Co0 O1 2.021548 1_555
Co0 O5 2.149717 1_565
Co0 O11 2.193914 1_455
Co1 O10 1.862682 1_555
Co1 O7 1.884690 1_655
Co1 O0 1.959144 1_655
Co1 O15 2.021548 1_555
Co1 O13 2.149717 1_545
Co1 O3 2.193914 1_655
Co2 O12 1.832930 1_555
Co2 O2 1.966172 1_655
Co2 O5 1.997818 1_655
Co2 O11 2.088926 1_555
Co2 O8 2.146934 1_545
Co2 O4 2.152081 1_655
Co3 O9 1.957835 1_445
Co3 O7 1.957835 1_555
Co3 O5 1.965054 1_555
Co3 O13 1.965054 1_445
Co3 O6 1.967686 1_545
Co3 O12 1.967686 1_455
Co4 O6 1.832930 1_555
Co4 O10 1.966172 1_455
Co4 O13 1.997818 1_455
Co4 O3 2.088926 1_555
Co4 O0 2.146934 1_565
Co4 O14 2.152081 1_455
