# generated using pymatgen
data_SrLaCuSbO6
_symmetry_space_group_name_H-M   'P 1'
_cell_length_a   5.56385900
_cell_length_b   5.51692900
_cell_length_c   10.18616708
_cell_angle_alpha   58.16382232
_cell_angle_beta   90.00000000
_cell_angle_gamma   90.00000000
_symmetry_Int_Tables_number   1
_chemical_formula_structural   SrLaCuSbO6
_chemical_formula_sum   'Sr2 La2 Cu2 Sb2 O12'
_cell_volume   265.63069372
_cell_formula_units_Z   2
loop_
 _symmetry_equiv_pos_site_id
 _symmetry_equiv_pos_as_xyz
  1  'x, y, z'
loop_
 _atom_site_type_symbol
 _atom_site_label
 _atom_site_symmetry_multiplicity
 _atom_site_fract_x
 _atom_site_fract_y
 _atom_site_fract_z
 _atom_site_occupancy
  Sr  Sr0  1  0.78156600  0.76570600  0.74811500  1
  Sr  Sr1  1  0.21843400  0.76570600  0.24811500  1
  La  La0  1  0.71005800  0.22525300  0.25388800  1
  La  La1  1  0.28994200  0.22525300  0.75388800  1
  Cu  Cu0  1  0.75264700  0.00492000  0.99784800  1
  Cu  Cu1  1  0.24735300  0.00492000  0.49784800  1
  Sb  Sb0  1  0.75066100  0.49914600  0.50036600  1
  Sb  Sb1  1  0.24933900  0.49914600  0.00036600  1
  O  O0  1  0.23681200  0.62949400  0.77754800  1
  O  O1  1  0.76318800  0.62949400  0.27754800  1
  O  O2  1  0.27199700  0.34654600  0.22478900  1
  O  O3  1  0.72800300  0.34654600  0.72478900  1
  O  O4  1  0.52777600  0.17394700  0.54448400  1
  O  O5  1  0.47222400  0.17394700  0.04448400  1
  O  O6  1  0.95950200  0.83914600  0.45255000  1
  O  O7  1  0.04049800  0.83914600  0.95255000  1
  O  O8  1  0.04223800  0.24352700  0.55064400  1
  O  O9  1  0.95776200  0.24352700  0.05064400  1
  O  O10  1  0.47094100  0.77231700  0.44976700  1
  O  O11  1  0.52905900  0.77231700  0.94976700  1
loop_
_geom_bond_atom_site_label_1
_geom_bond_atom_site_label_2
_geom_bond_distance
_geom_bond_site_symmetry_2
La0 O1 2.384566 1_555
La0 O9 2.444468 1_555
La0 O6 2.451744 1_545
La0 O2 2.503371 1_555
La0 O10 2.595228 1_545
La0 O5 2.649136 1_555
La0 O4 2.997788 1_555
La1 O0 2.384566 1_555
La1 O8 2.444468 1_555
La1 O7 2.451744 1_545
La1 O3 2.503371 1_555
La1 O11 2.595228 1_545
La1 O4 2.649136 1_555
La1 O5 2.997788 1_556
Cu0 O5 1.999227 1_556
Cu0 O7 2.014826 1_645
Cu0 O9 2.017755 1_556
Cu0 O11 2.024159 1_545
Cu0 O3 2.403508 1_555
Cu0 O1 2.486977 1_546
Cu1 O4 1.999227 1_555
Cu1 O6 2.014826 1_445
Cu1 O8 2.017755 1_555
Cu1 O10 2.024159 1_545
Cu1 O2 2.403508 1_555
Cu1 O0 2.486977 1_545
O0 Sb1 1.987826 1_556
O0 Sr0 2.613927 1_455
O0 Sr0 3.098947 1_555
O1 Sb0 1.987826 1_555
O1 Sr1 2.613927 1_655
O1 Sr1 3.098947 1_555
O2 Sb1 1.979931 1_555
O2 Sr1 2.464239 1_555
O2 Sr1 3.100087 1_545
O3 Sb0 1.979931 1_555
O3 Sr0 2.464239 1_555
O3 Sr0 3.100087 1_545
O4 Sb0 2.026823 1_555
O4 Sr0 2.537783 1_545
O5 Sb1 2.026823 1_555
O5 Sr1 2.537783 1_545
O6 Sb0 2.035191 1_555
O6 Sr1 2.732434 1_655
O6 Sr0 2.986897 1_555
O7 Sb1 2.035191 1_556
O7 Sr0 2.732434 1_455
O7 Sr1 2.986897 1_556
O8 Sb0 2.030007 1_455
O8 Sr0 2.739445 1_445
O8 Sr1 3.064443 1_555
O9 Sb1 2.030007 1_655
O9 Sr1 2.739445 1_645
O9 Sr0 3.064443 1_554
O10 Sb0 2.034592 1_555
O10 Sr1 2.504658 1_555
O11 Sb1 2.034592 1_556
O11 Sr0 2.504658 1_555
