# generated using pymatgen
data_TiAs
_symmetry_space_group_name_H-M   'P 1'
_cell_length_a   3.68018745
_cell_length_b   3.68018755
_cell_length_c   6.02366704
_cell_angle_alpha   90.00000000
_cell_angle_beta   90.00000000
_cell_angle_gamma   119.99999915
_symmetry_Int_Tables_number   1
_chemical_formula_structural   TiAs
_chemical_formula_sum   'Ti2 As2'
_cell_volume   70.65314294
_cell_formula_units_Z   2
loop_
 _symmetry_equiv_pos_site_id
 _symmetry_equiv_pos_as_xyz
  1  'x, y, z'
loop_
 _atom_site_type_symbol
 _atom_site_label
 _atom_site_symmetry_multiplicity
 _atom_site_fract_x
 _atom_site_fract_y
 _atom_site_fract_z
 _atom_site_occupancy
  Ti  Ti0  1  0.00000000  0.00000000  0.50000000  1
  Ti  Ti1  1  0.00000000  0.00000000  0.00000000  1
  As  As0  1  0.66666700  0.33333300  0.75000000  1
  As  As1  1  0.33333300  0.66666700  0.25000000  1
loop_
_geom_bond_atom_site_label_1
_geom_bond_atom_site_label_2
_geom_bond_distance
_geom_bond_site_symmetry_2
As0 Ti1 2.604298 1_656
As0 Ti0 2.604298 1_655
As0 Ti0 2.604301 1_555
As0 Ti1 2.604301 1_556
As0 Ti0 2.604301 1_665
As0 Ti1 2.604301 1_666
As1 Ti0 2.604298 1_565
As1 Ti1 2.604298 1_565
As1 Ti1 2.604301 1_665
As1 Ti0 2.604301 1_665
As1 Ti1 2.604301 1_555
As1 Ti0 2.604301 1_555
