# generated using pymatgen
data_Cu23PdN8
_symmetry_space_group_name_H-M   'P 1'
_cell_length_a   8.53900934
_cell_length_b   8.53900934
_cell_length_c   8.53900934
_cell_angle_alpha   101.85251807
_cell_angle_beta   101.85251807
_cell_angle_gamma   126.10122149
_symmetry_Int_Tables_number   1
_chemical_formula_structural   Cu23PdN8
_chemical_formula_sum   'Cu23 Pd1 N8'
_cell_volume   448.43321609
_cell_formula_units_Z   1
loop_
 _symmetry_equiv_pos_site_id
 _symmetry_equiv_pos_as_xyz
  1  'x, y, z'
loop_
 _atom_site_type_symbol
 _atom_site_label
 _atom_site_symmetry_multiplicity
 _atom_site_fract_x
 _atom_site_fract_y
 _atom_site_fract_z
 _atom_site_occupancy
  Cu  Cu0  1  0.87507900  0.12492100  0.50000000  1
  Cu  Cu1  1  0.37507900  0.62492100  0.50000000  1
  Cu  Cu2  1  0.62492100  0.37507900  0.50000000  1
  Cu  Cu3  1  0.12492100  0.87507900  0.50000000  1
  Cu  Cu4  1  0.87507900  0.37507900  0.75015800  1
  Cu  Cu5  1  0.37507900  0.87507900  0.75015800  1
  Cu  Cu6  1  0.62492100  0.12492100  0.24984200  1
  Cu  Cu7  1  0.12492100  0.62492100  0.24984200  1
  Cu  Cu8  1  0.12340100  0.37354100  0.00000000  1
  Cu  Cu9  1  0.62645900  0.87659900  0.00000000  1
  Cu  Cu10  1  0.87659900  0.62645900  0.00000000  1
  Cu  Cu11  1  0.37354100  0.12340100  0.00000000  1
  Cu  Cu12  1  0.12340100  0.12340100  0.74986000  1
  Cu  Cu13  1  0.62645900  0.62645900  0.74986000  1
  Cu  Cu14  1  0.87659900  0.87659900  0.25014000  1
  Cu  Cu15  1  0.37354100  0.37354100  0.25014000  1
  Cu  Cu16  1  0.00000000  0.50000000  0.50000000  1
  Cu  Cu17  1  0.50000000  0.00000000  0.50000000  1
  Cu  Cu18  1  0.24973600  0.24973600  0.49947200  1
  Cu  Cu19  1  0.75026400  0.75026400  0.50052800  1
  Cu  Cu20  1  0.24973600  0.75026400  0.00000000  1
  Cu  Cu21  1  0.75026400  0.24973600  0.00000000  1
  Cu  Cu22  1  0.00000000  0.00000000  0.00000000  1
  Pd  Pd0  1  0.50000000  0.50000000  0.00000000  1
  N  N0  1  0.76334400  0.76334400  0.00000000  1
  N  N1  1  0.23665600  0.23665600  0.00000000  1
  N  N2  1  0.00000000  0.00000000  0.50000000  1
  N  N3  1  0.50000000  0.50000000  0.50000000  1
  N  N4  1  0.00000000  0.50000000  0.00000000  1
  N  N5  1  0.50000000  0.00000000  0.00000000  1
  N  N6  1  0.75000000  0.25000000  0.50000000  1
  N  N7  1  0.25000000  0.75000000  0.50000000  1
loop_
_geom_bond_atom_site_label_1
_geom_bond_atom_site_label_2
_geom_bond_distance
_geom_bond_site_symmetry_2
Cu0 N2 1.901731 1_655
Cu0 N6 1.904136 1_555
Cu1 N3 1.901731 1_555
Cu1 N7 1.904136 1_555
Cu2 N3 1.901731 1_555
Cu2 N6 1.904136 1_555
Cu3 N2 1.901731 1_565
Cu3 N7 1.904136 1_555
Cu4 N4 1.901731 1_656
Cu4 N6 1.904136 1_555
Cu5 N5 1.901731 1_566
Cu5 N7 1.904136 1_555
Cu6 N5 1.901731 1_555
Cu6 N6 1.904136 1_555
Cu7 N4 1.901731 1_555
Cu7 N7 1.904136 1_555
Cu8 N4 1.901905 1_555
Cu8 N1 1.906194 1_555
Cu9 N5 1.901905 1_565
Cu9 N0 1.906194 1_555
Cu10 N4 1.901905 1_655
Cu10 N0 1.906194 1_555
Cu11 N5 1.901905 1_555
Cu11 N1 1.906194 1_555
Cu12 N2 1.901905 1_555
Cu12 N1 1.906194 1_556
Cu13 N3 1.901905 1_555
Cu13 N0 1.906194 1_556
Cu14 N2 1.901905 1_665
Cu14 N0 1.906194 1_555
Cu15 N3 1.901905 1_555
Cu15 N1 1.906194 1_555
Cu16 N6 1.934953 1_455
Cu16 N7 1.934953 1_555
Cu17 N6 1.934953 1_555
Cu17 N7 1.934953 1_545
Cu18 N2 1.934958 1_555
Cu18 N3 1.934958 1_555
Cu19 N2 1.934958 1_665
Cu19 N3 1.934958 1_555
Cu20 N5 1.934958 1_565
Cu20 N4 1.934958 1_555
Cu21 N4 1.934958 1_655
Cu21 N5 1.934958 1_555
Cu22 N0 1.831673 1_445
Cu22 N1 1.831673 1_555
N0 Pd0 2.038234 1_555
N1 Pd0 2.038234 1_555
