# generated using pymatgen
data_Tb3Ce
_symmetry_space_group_name_H-M   'P 1'
_cell_length_a   7.15793204
_cell_length_b   7.15793204
_cell_length_c   5.74122500
_cell_angle_alpha   90.00000000
_cell_angle_beta   90.00000000
_cell_angle_gamma   120.00000040
_symmetry_Int_Tables_number   1
_chemical_formula_structural   Tb3Ce
_chemical_formula_sum   'Tb6 Ce2'
_cell_volume   254.74773954
_cell_formula_units_Z   2
loop_
 _symmetry_equiv_pos_site_id
 _symmetry_equiv_pos_as_xyz
  1  'x, y, z'
loop_
 _atom_site_type_symbol
 _atom_site_label
 _atom_site_symmetry_multiplicity
 _atom_site_fract_x
 _atom_site_fract_y
 _atom_site_fract_z
 _atom_site_occupancy
  Tb  Tb0  1  0.16721800  0.33443500  0.25000000  1
  Tb  Tb1  1  0.66556500  0.83278200  0.25000000  1
  Tb  Tb2  1  0.16721800  0.83278200  0.25000000  1
  Tb  Tb3  1  0.83278200  0.66556500  0.75000000  1
  Tb  Tb4  1  0.33443500  0.16721800  0.75000000  1
  Tb  Tb5  1  0.83278200  0.16721800  0.75000000  1
  Ce  Ce0  1  0.33333300  0.66666700  0.75000000  1
  Ce  Ce1  1  0.66666700  0.33333300  0.25000000  1
loop_
_geom_bond_atom_site_label_1
_geom_bond_atom_site_label_2
_geom_bond_distance
_geom_bond_site_symmetry_2
Tb0 Tb4 3.540950 1_555
Tb0 Tb4 3.540950 1_554
Tb0 Tb5 3.540957 1_455
Tb0 Tb5 3.540957 1_454
Tb0 Tb1 3.567134 1_555
Tb0 Tb2 3.567134 1_555
Tb0 Tb1 3.590798 1_445
Tb0 Tb2 3.590798 1_545
Tb1 Tb3 3.540950 1_554
Tb1 Tb3 3.540950 1_555
Tb1 Tb5 3.540957 1_564
Tb1 Tb5 3.540957 1_565
Tb1 Tb2 3.567134 1_555
Tb1 Tb2 3.590798 1_655
Tb2 Tb3 3.540957 1_454
Tb2 Tb4 3.540957 1_565
Tb2 Tb4 3.540957 1_564
Tb2 Tb3 3.540957 1_455
Tb3 Tb4 3.567134 1_555
Tb3 Tb5 3.567134 1_555
Tb3 Tb4 3.590798 1_665
Tb3 Tb5 3.590798 1_565
Tb4 Tb5 3.567134 1_555
Tb4 Tb5 3.590798 1_455
Ce0 Tb2 3.532968 1_555
Ce0 Tb2 3.532968 1_556
Ce0 Tb0 3.532975 1_555
Ce0 Tb0 3.532975 1_556
Ce0 Tb1 3.532975 1_555
Ce0 Tb1 3.532975 1_556
Ce0 Tb5 3.578973 1_455
Ce0 Tb5 3.578973 1_565
Ce0 Tb3 3.578973 1_455
Ce0 Tb4 3.578973 1_565
Ce0 Tb4 3.578973 1_555
Ce0 Tb3 3.578973 1_555
Ce1 Tb5 3.532968 1_554
Ce1 Tb5 3.532968 1_555
Ce1 Tb3 3.532975 1_554
Ce1 Tb3 3.532975 1_555
Ce1 Tb4 3.532975 1_555
Ce1 Tb4 3.532975 1_554
Ce1 Tb2 3.578973 1_545
Ce1 Tb2 3.578973 1_655
Ce1 Tb1 3.578973 1_545
Ce1 Tb0 3.578973 1_655
Ce1 Tb0 3.578973 1_555
Ce1 Tb1 3.578973 1_555
