# generated using pymatgen
data_Zn4In2O7
_symmetry_space_group_name_H-M   'P 1'
_cell_length_a   3.43667624
_cell_length_b   3.43667624
_cell_length_c   33.59703200
_cell_angle_alpha   90.00000000
_cell_angle_beta   90.00000000
_cell_angle_gamma   120.00000466
_symmetry_Int_Tables_number   1
_chemical_formula_structural   Zn4In2O7
_chemical_formula_sum   'Zn8 In4 O14'
_cell_volume   343.64399998
_cell_formula_units_Z   2
loop_
 _symmetry_equiv_pos_site_id
 _symmetry_equiv_pos_as_xyz
  1  'x, y, z'
loop_
 _atom_site_type_symbol
 _atom_site_label
 _atom_site_symmetry_multiplicity
 _atom_site_fract_x
 _atom_site_fract_y
 _atom_site_fract_z
 _atom_site_occupancy
  Zn  Zn0  1  0.33333300  0.66666700  0.40949900  1
  Zn  Zn1  1  0.66666700  0.33333300  0.59050100  1
  Zn  Zn2  1  0.66666700  0.33333300  0.90949900  1
  Zn  Zn3  1  0.33333300  0.66666700  0.09050100  1
  Zn  Zn4  1  0.00000000  0.00000000  0.33340800  1
  Zn  Zn5  1  0.00000000  0.00000000  0.66659200  1
  Zn  Zn6  1  0.00000000  0.00000000  0.83340800  1
  Zn  Zn7  1  0.00000000  0.00000000  0.16659200  1
  In  In0  1  0.00000000  0.00000000  0.50000000  1
  In  In1  1  0.00000000  0.00000000  0.00000000  1
  In  In2  1  0.33333300  0.66666700  0.25000000  1
  In  In3  1  0.66666700  0.33333300  0.75000000  1
  O  O0  1  0.00000000  0.00000000  0.39274000  1
  O  O1  1  0.00000000  0.00000000  0.60726000  1
  O  O2  1  0.00000000  0.00000000  0.89274000  1
  O  O3  1  0.00000000  0.00000000  0.10726000  1
  O  O4  1  0.33333300  0.66666700  0.46864100  1
  O  O5  1  0.66666700  0.33333300  0.53135900  1
  O  O6  1  0.66666700  0.33333300  0.96864100  1
  O  O7  1  0.33333300  0.66666700  0.03135900  1
  O  O8  1  0.33333300  0.66666700  0.31612600  1
  O  O9  1  0.66666700  0.33333300  0.68387400  1
  O  O10  1  0.66666700  0.33333300  0.81612600  1
  O  O11  1  0.33333300  0.66666700  0.18387400  1
  O  O12  1  0.00000000  0.00000000  0.25000000  1
  O  O13  1  0.00000000  0.00000000  0.75000000  1
loop_
_geom_bond_atom_site_label_1
_geom_bond_atom_site_label_2
_geom_bond_distance
_geom_bond_site_symmetry_2
In0 O5 2.246534 1_455
In0 O4 2.246534 1_545
In0 O4 2.246537 1_555
In0 O4 2.246537 1_445
In0 O5 2.246537 1_555
In0 O5 2.246537 1_445
In1 O7 2.246534 1_545
In1 O6 2.246534 1_454
In1 O7 2.246537 1_555
In1 O7 2.246537 1_445
In1 O6 2.246537 1_554
In1 O6 2.246537 1_444
In2 O12 1.984164 1_565
In2 O12 1.984167 1_555
In2 O12 1.984167 1_665
In2 O11 2.221637 1_555
In2 O8 2.221637 1_555
In3 O13 1.984164 1_655
In3 O13 1.984167 1_665
In3 O13 1.984167 1_555
In3 O10 2.221637 1_555
In3 O9 2.221637 1_555
O0 Zn4 1.993379 1_555
O0 Zn0 2.062507 1_545
O0 Zn0 2.062510 1_445
O0 Zn0 2.062510 1_555
O1 Zn5 1.993379 1_555
O1 Zn1 2.062507 1_455
O1 Zn1 2.062510 1_445
O1 Zn1 2.062510 1_555
O2 Zn6 1.993379 1_555
O2 Zn2 2.062507 1_455
O2 Zn2 2.062510 1_555
O2 Zn2 2.062510 1_445
O3 Zn7 1.993379 1_555
O3 Zn3 2.062507 1_545
O3 Zn3 2.062510 1_555
O3 Zn3 2.062510 1_445
O4 Zn0 1.986996 1_555
O5 Zn1 1.986996 1_555
O6 Zn2 1.986996 1_555
O7 Zn3 1.986996 1_555
O8 Zn4 2.067373 1_565
O8 Zn4 2.067376 1_555
O8 Zn4 2.067376 1_665
O9 Zn5 2.067373 1_655
O9 Zn5 2.067376 1_665
O9 Zn5 2.067376 1_555
O10 Zn6 2.067373 1_655
O10 Zn6 2.067376 1_665
O10 Zn6 2.067376 1_555
O11 Zn7 2.067373 1_565
O11 Zn7 2.067376 1_665
O11 Zn7 2.067376 1_555
