# generated using pymatgen
data_Sr2MnWO6
_symmetry_space_group_name_H-M   'P 1'
_cell_length_a   5.74659981
_cell_length_b   8.12984601
_cell_length_c   5.79004100
_cell_angle_alpha   90.00000000
_cell_angle_beta   90.00000000
_cell_angle_gamma   90.07632159
_symmetry_Int_Tables_number   1
_chemical_formula_structural   Sr2MnWO6
_chemical_formula_sum   'Sr4 Mn2 W2 O12'
_cell_volume   270.50452054
_cell_formula_units_Z   2
loop_
 _symmetry_equiv_pos_site_id
 _symmetry_equiv_pos_as_xyz
  1  'x, y, z'
loop_
 _atom_site_type_symbol
 _atom_site_label
 _atom_site_symmetry_multiplicity
 _atom_site_fract_x
 _atom_site_fract_y
 _atom_site_fract_z
 _atom_site_occupancy
  Sr  Sr0  1  0.00603400  0.25074200  0.03216600  1
  Sr  Sr1  1  0.49396600  0.24925800  0.53216600  1
  Sr  Sr2  1  0.50603400  0.75074200  0.46783400  1
  Sr  Sr3  1  0.99396600  0.74925800  0.96783400  1
  Mn  Mn0  1  0.50000000  0.00000000  0.00000000  1
  Mn  Mn1  1  0.00000000  0.50000000  0.50000000  1
  W  W0  1  0.00000000  0.00000000  0.50000000  1
  W  W1  1  0.50000000  0.50000000  0.00000000  1
  O  O0  1  0.30094400  0.46204400  0.27015500  1
  O  O1  1  0.19905600  0.03795600  0.77015500  1
  O  O2  1  0.69905600  0.53795600  0.72984500  1
  O  O3  1  0.80094400  0.96204400  0.22984500  1
  O  O4  1  0.76936700  0.53443300  0.20184100  1
  O  O5  1  0.73063300  0.96556700  0.70184100  1
  O  O6  1  0.23063300  0.46556700  0.79815900  1
  O  O7  1  0.26936700  0.03443300  0.29815900  1
  O  O8  1  0.43103800  0.73550700  0.01715000  1
  O  O9  1  0.06896200  0.76449300  0.51715000  1
  O  O10  1  0.56896200  0.26449300  0.98285000  1
  O  O11  1  0.93103800  0.23550700  0.48285000  1
loop_
_geom_bond_atom_site_label_1
_geom_bond_atom_site_label_2
_geom_bond_distance
_geom_bond_site_symmetry_2
Mn0 O8 2.188236 1_545
Mn0 O10 2.188236 1_554
Mn0 O5 2.194587 1_544
Mn0 O7 2.194587 1_555
Mn0 O1 2.204210 1_554
Mn0 O3 2.204210 1_545
Mn1 O9 2.188236 1_555
Mn1 O11 2.188236 1_455
Mn1 O6 2.194587 1_555
Mn1 O4 2.194587 1_455
Mn1 O0 2.204210 1_555
Mn1 O2 2.204210 1_455
O0 W1 1.962020 1_555
O0 Sr1 2.555298 1_555
O0 Sr0 2.777438 1_555
O0 Sr2 2.863640 1_555
O1 W0 1.962020 1_555
O1 Sr0 2.555298 1_556
O1 Sr1 2.777438 1_555
O1 Sr3 2.863640 1_445
O2 W1 1.962020 1_556
O2 Sr2 2.555298 1_555
O2 Sr3 2.777438 1_555
O2 Sr1 2.863640 1_555
O3 W0 1.962020 1_665
O3 Sr3 2.555298 1_554
O3 Sr2 2.777438 1_555
O3 Sr0 2.863640 1_665
O4 W1 1.959369 1_555
O4 Sr3 2.558491 1_554
O4 Sr2 2.785955 1_555
O4 Sr0 2.853509 1_655
O5 W0 1.959369 1_665
O5 Sr2 2.558491 1_555
O5 Sr3 2.785955 1_555
O5 Sr1 2.853509 1_565
O6 W1 1.959369 1_556
O6 Sr0 2.558491 1_556
O6 Sr1 2.785955 1_555
O6 Sr3 2.853509 1_455
O7 W0 1.959369 1_555
O7 Sr1 2.558491 1_555
O7 Sr0 2.785955 1_555
O7 Sr2 2.853509 1_545
O8 W1 1.958255 1_555
O8 Sr3 2.530475 1_454
O8 Sr2 2.647700 1_555
O9 W0 1.958255 1_565
O9 Sr2 2.530475 1_555
O9 Sr3 2.647700 1_455
O10 W1 1.958255 1_556
O10 Sr0 2.530475 1_656
O10 Sr1 2.647700 1_555
O11 W0 1.958255 1_655
O11 Sr1 2.530475 1_555
O11 Sr0 2.647700 1_655
