# generated using pymatgen
data_NiMo4N5
_symmetry_space_group_name_H-M   'P 1'
_cell_length_a   3.99650008
_cell_length_b   3.99650008
_cell_length_c   9.90939075
_cell_angle_alpha   72.96160526
_cell_angle_beta   72.96160526
_cell_angle_gamma   42.33002308
_symmetry_Int_Tables_number   1
_chemical_formula_structural   NiMo4N5
_chemical_formula_sum   'Ni1 Mo4 N5'
_cell_volume   101.18311495
_cell_formula_units_Z   1
loop_
 _symmetry_equiv_pos_site_id
 _symmetry_equiv_pos_as_xyz
  1  'x, y, z'
loop_
 _atom_site_type_symbol
 _atom_site_label
 _atom_site_symmetry_multiplicity
 _atom_site_fract_x
 _atom_site_fract_y
 _atom_site_fract_z
 _atom_site_occupancy
  Ni  Ni0  1  0.19542400  0.19542400  0.20154800  1
  Mo  Mo0  1  0.99910800  0.99910800  0.00387900  1
  Mo  Mo1  1  0.79588900  0.79588900  0.80348800  1
  Mo  Mo2  1  0.59916200  0.59916200  0.59960400  1
  Mo  Mo3  1  0.40180100  0.40180100  0.39040300  1
  N  N0  1  0.69563200  0.69563200  0.02383200  1
  N  N1  1  0.49566200  0.49566200  0.83610100  1
  N  N2  1  0.29887500  0.29887500  0.63404500  1
  N  N3  1  0.10065700  0.10065700  0.43923700  1
  N  N4  1  0.91974300  0.91974300  0.23456300  1
loop_
_geom_bond_atom_site_label_1
_geom_bond_atom_site_label_2
_geom_bond_distance
_geom_bond_site_symmetry_2
Mo0 N0 2.109273 1_565
Mo0 N0 2.109273 1_655
Mo0 N4 2.173860 1_555
Mo0 N1 2.207665 1_564
Mo0 N1 2.207665 1_654
Mo0 N0 2.207926 1_555
Mo1 N0 2.073795 1_556
Mo1 N1 2.158215 1_555
Mo1 N1 2.169405 1_565
Mo1 N1 2.169405 1_655
Mo1 N2 2.208718 1_655
Mo1 N2 2.208718 1_565
Mo2 N3 2.143941 1_655
Mo2 N3 2.143941 1_565
Mo2 N2 2.155542 1_555
Mo2 N2 2.175748 1_565
Mo2 N2 2.175748 1_655
Mo2 N1 2.225128 1_555
Mo3 N4 2.086870 1_545
Mo3 N4 2.086870 1_455
Mo3 N3 2.142461 1_555
Mo3 N3 2.228021 1_655
Mo3 N3 2.228021 1_565
Mo3 N2 2.292084 1_555
N0 Ni0 2.276342 1_565
N0 Ni0 2.276342 1_655
N3 Ni0 2.236319 1_555
N4 Ni0 1.976637 1_665
N4 Ni0 2.308379 1_565
N4 Ni0 2.308379 1_655
