# generated using pymatgen
data_EuCu2
_symmetry_space_group_name_H-M   'P 1'
_cell_length_a   4.35643178
_cell_length_b   5.58838652
_cell_length_c   5.58838720
_cell_angle_alpha   79.62210375
_cell_angle_beta   67.05947475
_cell_angle_gamma   67.05947183
_symmetry_Int_Tables_number   1
_chemical_formula_structural   EuCu2
_chemical_formula_sum   'Eu2 Cu4'
_cell_volume   115.31815409
_cell_formula_units_Z   2
loop_
 _symmetry_equiv_pos_site_id
 _symmetry_equiv_pos_as_xyz
  1  'x, y, z'
loop_
 _atom_site_type_symbol
 _atom_site_label
 _atom_site_symmetry_multiplicity
 _atom_site_fract_x
 _atom_site_fract_y
 _atom_site_fract_z
 _atom_site_occupancy
  Eu  Eu0  1  0.54653271  0.70346729  0.20346729  1
  Eu  Eu1  1  0.45346729  0.29653271  0.79653271  1
  Cu  Cu0  1  0.16390524  0.27521282  0.39697669  1
  Cu  Cu1  1  0.83609476  0.72478718  0.60302331  1
  Cu  Cu2  1  0.83609476  0.10302331  0.22478718  1
  Cu  Cu3  1  0.16390524  0.89697669  0.77521282  1
loop_
_geom_bond_atom_site_label_1
_geom_bond_atom_site_label_2
_geom_bond_distance
_geom_bond_site_symmetry_2
Cu0 Cu2 2.523375 1_455
Cu0 Cu2 2.523375 1_555
Cu0 Cu1 2.576985 1_455
Cu0 Cu3 2.706664 1_545
Cu0 Eu1 2.999991 1_455
Cu0 Eu1 2.999991 1_555
Cu0 Eu1 3.088423 1_554
Cu0 Eu0 3.137619 1_545
Cu0 Eu0 3.232310 1_455
Cu0 Eu0 3.232311 1_555
Cu1 Cu3 2.523375 1_655
Cu1 Cu3 2.523375 1_555
Cu1 Cu2 2.706664 1_565
Cu1 Eu0 2.999991 1_655
Cu1 Eu0 2.999991 1_555
Cu1 Eu0 3.088423 1_556
Cu1 Eu1 3.137619 1_565
Cu1 Eu1 3.232310 1_655
Cu1 Eu1 3.232311 1_555
Cu2 Cu3 2.576986 1_644
Cu2 Eu0 2.999991 1_645
Cu2 Eu0 2.999991 1_545
Cu2 Eu0 3.088422 1_555
Cu2 Eu1 3.137619 1_555
Cu2 Eu1 3.232311 1_654
Cu2 Eu1 3.232311 1_554
Cu3 Eu1 2.999991 1_465
Cu3 Eu1 2.999991 1_565
Cu3 Eu1 3.088422 1_555
Cu3 Eu0 3.137619 1_555
Cu3 Eu0 3.232311 1_456
Cu3 Eu0 3.232311 1_556
