# generated using pymatgen
data_Ce3NiGe2
_symmetry_space_group_name_H-M   'P 1'
_cell_length_a   4.19203200
_cell_length_b   11.39491800
_cell_length_c   11.80201900
_cell_angle_alpha   90.00000000
_cell_angle_beta   90.00000000
_cell_angle_gamma   90.00000000
_symmetry_Int_Tables_number   1
_chemical_formula_structural   Ce3NiGe2
_chemical_formula_sum   'Ce12 Ni4 Ge8'
_cell_volume   563.75720185
_cell_formula_units_Z   4
loop_
 _symmetry_equiv_pos_site_id
 _symmetry_equiv_pos_as_xyz
  1  'x, y, z'
loop_
 _atom_site_type_symbol
 _atom_site_label
 _atom_site_symmetry_multiplicity
 _atom_site_fract_x
 _atom_site_fract_y
 _atom_site_fract_z
 _atom_site_occupancy
  Ce  Ce0  1  0.25000000  0.12226600  0.55471200  1
  Ce  Ce1  1  0.25000000  0.37773400  0.05471200  1
  Ce  Ce2  1  0.75000000  0.87773400  0.44528800  1
  Ce  Ce3  1  0.75000000  0.62226600  0.94528800  1
  Ce  Ce4  1  0.25000000  0.79689200  0.71697800  1
  Ce  Ce5  1  0.25000000  0.70310800  0.21697800  1
  Ce  Ce6  1  0.75000000  0.20310800  0.28302200  1
  Ce  Ce7  1  0.75000000  0.29689200  0.78302200  1
  Ce  Ce8  1  0.25000000  0.05877700  0.88120800  1
  Ce  Ce9  1  0.25000000  0.44122300  0.38120800  1
  Ce  Ce10  1  0.75000000  0.94122300  0.11879200  1
  Ce  Ce11  1  0.75000000  0.55877700  0.61879200  1
  Ni  Ni0  1  0.25000000  0.36876900  0.62855100  1
  Ni  Ni1  1  0.25000000  0.13123100  0.12855100  1
  Ni  Ni2  1  0.75000000  0.63123100  0.37144900  1
  Ni  Ni3  1  0.75000000  0.86876900  0.87144900  1
  Ge  Ge0  1  0.25000000  0.49526600  0.80298700  1
  Ge  Ge1  1  0.25000000  0.00473400  0.30298700  1
  Ge  Ge2  1  0.75000000  0.50473400  0.19701300  1
  Ge  Ge3  1  0.75000000  0.99526600  0.69701300  1
  Ge  Ge4  1  0.25000000  0.81156200  0.97635200  1
  Ge  Ge5  1  0.25000000  0.68843800  0.47635200  1
  Ge  Ge6  1  0.75000000  0.18843800  0.02364800  1
  Ge  Ge7  1  0.75000000  0.31156200  0.52364800  1
loop_
_geom_bond_atom_site_label_1
_geom_bond_atom_site_label_2
_geom_bond_distance
_geom_bond_site_symmetry_2
Ce0 Ni0 2.940959 1_555
Ce0 Ge7 3.029917 1_455
Ce0 Ge7 3.029917 1_555
Ce0 Ge3 3.050911 1_445
Ce0 Ge3 3.050911 1_545
Ce0 Ge1 3.258783 1_555
Ce1 Ni1 2.940959 1_555
Ce1 Ge6 3.029917 1_555
Ce1 Ge6 3.029917 1_455
Ce1 Ge2 3.050911 1_455
Ce1 Ge2 3.050911 1_555
Ce1 Ge0 3.258783 1_554
Ce2 Ni2 2.940959 1_555
Ce2 Ge5 3.029917 1_655
Ce2 Ge5 3.029917 1_555
Ce2 Ge1 3.050911 1_665
Ce2 Ge1 3.050911 1_565
Ce2 Ge3 3.258783 1_555
Ce3 Ni3 2.940959 1_555
Ce3 Ge4 3.029917 1_555
Ce3 Ge4 3.029917 1_655
Ce3 Ge0 3.050911 1_655
Ce3 Ge0 3.050911 1_555
Ce3 Ge2 3.258783 1_556
Ce4 Ni3 2.896149 1_555
Ce4 Ni3 2.896149 1_455
Ce4 Ge4 3.065698 1_555
Ce4 Ge3 3.091676 1_555
Ce4 Ge3 3.091676 1_455
Ce4 Ge5 3.097118 1_555
Ce4 Ge0 3.583766 1_555
Ce5 Ni2 2.896149 1_455
Ce5 Ni2 2.896149 1_555
Ce5 Ge5 3.065698 1_555
Ce5 Ge2 3.091676 1_455
Ce5 Ge2 3.091676 1_555
Ce5 Ge4 3.097118 1_554
Ce5 Ge1 3.583766 1_565
Ce6 Ni1 2.896149 1_555
Ce6 Ni1 2.896149 1_655
Ce6 Ge6 3.065698 1_555
Ce6 Ge1 3.091676 1_655
Ce6 Ge1 3.091676 1_555
Ce6 Ge7 3.097118 1_555
Ce6 Ge2 3.583766 1_555
Ce7 Ni0 2.896149 1_555
Ce7 Ni0 2.896149 1_655
Ce7 Ge7 3.065698 1_555
Ce7 Ge0 3.091676 1_555
Ce7 Ge0 3.091676 1_655
Ce7 Ge6 3.097118 1_556
Ce7 Ge3 3.583766 1_545
Ce8 Ni3 3.015679 1_445
Ce8 Ni3 3.015679 1_545
Ce8 Ge4 3.032547 1_545
Ce8 Ni1 3.033652 1_556
Ce8 Ge6 3.066309 1_456
Ce8 Ge6 3.066309 1_556
Ce8 Ge3 3.105278 1_545
Ce8 Ge3 3.105278 1_445
Ce9 Ni2 3.015679 1_555
Ce9 Ni2 3.015679 1_455
Ce9 Ge5 3.032547 1_555
Ce9 Ni0 3.033652 1_555
Ce9 Ge7 3.066309 1_555
Ce9 Ge7 3.066309 1_455
Ce9 Ge2 3.105278 1_455
Ce9 Ge2 3.105278 1_555
Ce10 Ni1 3.015679 1_665
Ce10 Ni1 3.015679 1_565
Ce10 Ge6 3.032547 1_565
Ce10 Ni3 3.033652 1_554
Ce10 Ge4 3.066309 1_654
Ce10 Ge4 3.066309 1_554
Ce10 Ge1 3.105278 1_665
Ce10 Ge1 3.105278 1_565
Ce11 Ni0 3.015679 1_555
Ce11 Ni0 3.015679 1_655
Ce11 Ge7 3.032547 1_555
Ce11 Ni2 3.033652 1_555
Ce11 Ge5 3.066309 1_555
Ce11 Ge5 3.066309 1_655
Ce11 Ge0 3.105278 1_555
Ce11 Ge0 3.105278 1_655
Ge0 Ni0 2.513152 1_555
Ge1 Ni1 2.513152 1_555
Ge2 Ni2 2.513152 1_555
Ge3 Ni3 2.513152 1_555
Ge4 Ni3 2.520124 1_455
Ge4 Ni3 2.520124 1_555
Ge5 Ni2 2.520124 1_555
Ge5 Ni2 2.520124 1_455
Ge6 Ni1 2.520124 1_555
Ge6 Ni1 2.520124 1_655
Ge7 Ni0 2.520124 1_555
Ge7 Ni0 2.520124 1_655
