# generated using pymatgen
data_K3Mn4O8
_symmetry_space_group_name_H-M   'P 1'
_cell_length_a   6.26257456
_cell_length_b   10.13600745
_cell_length_c   12.99089681
_cell_angle_alpha   71.91909713
_cell_angle_beta   85.32608769
_cell_angle_gamma   84.79363694
_symmetry_Int_Tables_number   1
_chemical_formula_structural   K3Mn4O8
_chemical_formula_sum   'K12 Mn16 O32'
_cell_volume   779.43539947
_cell_formula_units_Z   4
loop_
 _symmetry_equiv_pos_site_id
 _symmetry_equiv_pos_as_xyz
  1  'x, y, z'
loop_
 _atom_site_type_symbol
 _atom_site_label
 _atom_site_symmetry_multiplicity
 _atom_site_fract_x
 _atom_site_fract_y
 _atom_site_fract_z
 _atom_site_occupancy
  K  K0  1  0.74666195  0.70130073  0.75331805  1
  K  K1  1  0.75154661  0.69867819  0.25051010  1
  K  K2  1  0.47951288  0.07502222  0.74858953  1
  K  K3  1  0.02583005  0.39146104  0.24759051  1
  K  K4  1  0.48228047  0.05351581  0.25081982  1
  K  K5  1  0.24871571  0.70313986  0.25189152  1
  K  K6  1  0.23479739  0.78789801  0.74994579  1
  K  K7  1  0.00153951  0.41087364  0.75096090  1
  K  K8  1  0.96968668  0.08249835  0.74618134  1
  K  K9  1  0.98110938  0.05883926  0.24824030  1
  K  K10  1  0.49166459  0.42085248  0.74917211  1
  K  K11  1  0.52706868  0.39956025  0.25308367  1
  Mn  Mn0  1  0.24390268  0.74607418  0.00101865  1
  Mn  Mn1  1  0.23754263  0.74331005  0.49811264  1
  Mn  Mn2  1  0.73539071  0.24588782  0.99977879  1
  Mn  Mn3  1  0.74520815  0.24143260  0.50228535  1
  Mn  Mn4  1  0.74541491  0.74519418  0.00122665  1
  Mn  Mn5  1  0.74358415  0.74185615  0.50099046  1
  Mn  Mn6  1  0.23075430  0.24610080  0.99598813  1
  Mn  Mn7  1  0.23765366  0.24322492  0.49626137  1
  Mn  Mn8  1  0.99380078  0.99476331  -0.00000621  1
  Mn  Mn9  1  0.98963985  0.98998130  0.50399632  1
  Mn  Mn10  1  0.48421579  0.49577921  0.99947484  1
  Mn  Mn11  1  0.49249636  0.49390746  0.49574594  1
  Mn  Mn12  1  0.50181852  0.99551283  0.00609210  1
  Mn  Mn13  1  0.49174312  0.99040676  0.50521736  1
  Mn  Mn14  1  0.98098883  0.49703507  0.99631155  1
  Mn  Mn15  1  0.99287654  0.49433253  0.49573738  1
  O  O0  1  0.75990571  0.94604518  0.92682274  1
  O  O1  1  0.75720708  0.94168495  0.42879268  1
  O  O2  1  0.21815236  0.43576898  0.91331565  1
  O  O3  1  0.22256378  0.43752128  0.40660021  1
  O  O4  1  0.21803496  0.94024181  0.91045678  1
  O  O5  1  0.21833557  0.93565169  0.41543315  1
  O  O6  1  0.71397437  0.43493962  0.91102455  1
  O  O7  1  0.76032280  0.44314091  0.41999129  1
  O  O8  1  0.97449994  0.68796501  0.91574011  1
  O  O9  1  0.97065273  0.68454156  0.41322058  1
  O  O10  1  0.50371825  0.19239426  0.92577122  1
  O  O11  1  0.47311436  0.17988658  0.41664865  1
  O  O12  1  0.47809612  0.68960002  0.91639750  1
  O  O13  1  0.47796466  0.68667380  0.41510442  1
  O  O14  1  0.96434641  0.18570064  0.91255256  1
  O  O15  1  0.96809239  0.17845020  0.41570289  1
  O  O16  1  0.01240652  0.80038145  0.58708427  1
  O  O17  1  0.01569793  0.80991994  0.08672825  1
  O  O18  1  0.50894503  0.30332860  0.58308687  1
  O  O19  1  0.50517971  0.29931090  0.08703550  1
  O  O20  1  0.50721073  0.79802727  0.58567905  1
  O  O21  1  0.51184241  0.80764893  0.08545931  1
  O  O22  1  0.01441791  0.30570904  0.58278812  1
  O  O23  1  0.96685259  0.29601449  0.07301762  1
  O  O24  1  0.22559781  0.54241512  0.57072431  1
  O  O25  1  0.26263830  0.55319922  0.09013053  1
  O  O26  1  0.75903205  0.04813618  0.59117480  1
  O  O27  1  0.76332407  0.05503287  0.08722126  1
  O  O28  1  0.76524256  0.54889548  0.58599254  1
  O  O29  1  0.76403955  0.55366429  0.08969805  1
  O  O30  1  0.22325623  0.04213070  0.57957566  1
  O  O31  1  0.22781124  0.04879406  0.07317388  1
loop_
_geom_bond_atom_site_label_1
_geom_bond_atom_site_label_2
_geom_bond_distance
_geom_bond_site_symmetry_2
K0 O12 2.575013 1_555
K0 O8 2.604788 1_555
K0 O16 2.610224 1_655
K0 O20 2.625408 1_555
K0 O6 2.850786 1_555
K0 O28 3.022477 1_555
K1 O9 2.573001 1_555
K1 O13 2.607991 1_555
K1 O17 2.609737 1_655
K1 O21 2.612373 1_555
K1 O7 2.830799 1_555
K1 O29 2.896454 1_555
K2 O18 2.633670 1_555
K2 O26 2.645064 1_555
K2 O4 2.651654 1_545
K2 O0 2.919031 1_545
K2 O10 2.919883 1_555
K2 O30 2.938226 1_555
K3 O15 2.578381 1_455
K3 O25 2.633727 1_555
K3 O3 2.668471 1_555
K3 O29 2.750240 1_455
K3 O23 2.789049 1_455
K3 O7 2.831678 1_455
K4 O5 2.632330 1_545
K4 O27 2.643845 1_555
K4 O19 2.734850 1_555
K4 O11 2.822083 1_555
K4 O1 2.874467 1_545
K4 O31 2.923964 1_555
K5 O9 2.584561 1_455
K5 O17 2.585884 1_555
K5 O13 2.611053 1_555
K5 O21 2.612805 1_555
K5 O3 2.825303 1_555
K5 O25 2.943105 1_555
K6 O8 2.587578 1_455
K6 O16 2.591149 1_555
K6 O20 2.603331 1_555
K6 O12 2.629486 1_555
K6 O30 2.827767 1_565
K6 O4 2.945667 1_555
K7 O14 2.590937 1_455
K7 O28 2.649526 1_455
K7 O24 2.663692 1_555
K7 O2 2.685353 1_555
K7 O6 2.692835 1_455
K7 O22 2.704985 1_555
K8 O22 2.596143 1_655
K8 O26 2.620735 1_555
K8 O0 2.637911 1_545
K8 O14 2.674295 1_555
K8 O30 2.691700 1_655
K8 O4 2.697453 1_645
K9 O27 2.600355 1_555
K9 O1 2.629667 1_545
K9 O5 2.643777 1_645
K9 O31 2.666874 1_655
K9 O23 2.750675 1_555
K9 O15 2.792772 1_555
K10 O2 2.657392 1_555
K10 O6 2.660668 1_555
K10 O28 2.686537 1_555
K10 O10 2.707421 1_555
K10 O18 2.760409 1_555
K10 O24 2.855270 1_555
K11 O11 2.582588 1_555
K11 O29 2.645145 1_555
K11 O19 2.671793 1_555
K11 O3 2.735927 1_555
K11 O25 2.775935 1_555
K11 O7 2.873715 1_555
Mn0 O12 1.913815 1_554
Mn0 O17 1.929016 1_555
Mn0 O25 1.936897 1_555
Mn0 O4 1.954401 1_554
Mn0 O8 2.304498 1_454
Mn0 O21 2.307275 1_555
Mn1 O5 1.909888 1_555
Mn1 O16 1.913083 1_555
Mn1 O13 1.929298 1_555
Mn1 O24 1.966130 1_555
Mn1 O9 2.292062 1_455
Mn1 O20 2.308343 1_555
Mn2 O6 1.904328 1_555
Mn2 O19 1.905168 1_556
Mn2 O27 1.915788 1_556
Mn2 O14 1.928128 1_555
Mn2 O23 1.980671 1_556
Mn2 O10 2.004250 1_555
Mn3 O15 1.910274 1_555
Mn3 O18 1.916219 1_555
Mn3 O26 1.939275 1_555
Mn3 O7 1.998457 1_555
Mn3 O22 2.295690 1_655
Mn3 O11 2.337329 1_555
Mn4 O8 1.901904 1_554
Mn4 O29 1.923321 1_555
Mn4 O21 1.933622 1_555
Mn4 O0 1.971013 1_554
Mn4 O12 2.278574 1_554
Mn4 O17 2.342980 1_655
Mn5 O9 1.912261 1_555
Mn5 O20 1.922577 1_555
Mn5 O28 1.923223 1_555
Mn5 O1 1.956683 1_555
Mn5 O13 2.276734 1_555
Mn5 O16 2.310189 1_655
Mn6 O2 1.886868 1_555
Mn6 O31 1.940184 1_556
Mn6 O23 1.970212 1_456
Mn6 O10 1.983903 1_555
Mn6 O14 2.285868 1_455
Mn6 O19 2.353499 1_556
Mn7 O22 1.908985 1_555
Mn7 O11 1.909980 1_555
Mn7 O3 1.950494 1_555
Mn7 O30 1.995565 1_555
Mn7 O15 2.300369 1_455
Mn7 O18 2.335939 1_555
Mn8 O17 1.861946 1_655
Mn8 O4 1.903241 1_654
Mn8 O14 1.916946 1_564
Mn8 O27 1.934864 1_565
Mn8 O0 1.985585 1_554
Mn8 O31 2.011793 1_665
Mn9 O16 1.888499 1_655
Mn9 O15 1.897767 1_565
Mn9 O5 1.913059 1_655
Mn9 O26 1.925906 1_565
Mn9 O1 1.992710 1_555
Mn9 O30 2.020026 1_665
Mn10 O25 1.914113 1_556
Mn10 O12 1.924258 1_555
Mn10 O6 1.944305 1_555
Mn10 O19 1.961542 1_556
Mn10 O2 2.304262 1_555
Mn10 O29 2.395241 1_556
Mn11 O13 1.906864 1_555
Mn11 O18 1.911010 1_555
Mn11 O24 1.966495 1_555
Mn11 O7 1.983745 1_555
Mn11 O3 2.330394 1_555
Mn11 O28 2.346796 1_555
Mn12 O21 1.860949 1_555
Mn12 O10 1.944497 1_564
Mn12 O0 1.956123 1_554
Mn12 O31 1.968745 1_565
Mn12 O27 2.238770 1_565
Mn12 O4 2.447130 1_554
Mn13 O20 1.902988 1_555
Mn13 O11 1.906726 1_565
Mn13 O1 1.969720 1_555
Mn13 O30 1.981118 1_565
Mn13 O26 2.297673 1_565
Mn13 O5 2.345198 1_555
Mn14 O8 1.891505 1_555
Mn14 O29 1.915543 1_556
Mn14 O2 1.934255 1_655
Mn14 O23 1.977491 1_556
Mn14 O6 2.312089 1_555
Mn14 O25 2.425688 1_656
Mn15 O9 1.891635 1_555
Mn15 O22 1.894302 1_655
Mn15 O28 1.923510 1_555
Mn15 O3 1.932279 1_655
Mn15 O24 1.991378 1_655
Mn15 O7 2.011515 1_555
