# generated using pymatgen
data_LiCo5SbO8
_symmetry_space_group_name_H-M   'P 1'
_cell_length_a   6.32081318
_cell_length_b   5.95944951
_cell_length_c   5.95853300
_cell_angle_alpha   60.00407588
_cell_angle_beta   61.87965133
_cell_angle_gamma   61.95931534
_symmetry_Int_Tables_number   1
_chemical_formula_structural   LiCo5SbO8
_chemical_formula_sum   'Li1 Co5 Sb1 O8'
_cell_volume   163.16461741
_cell_formula_units_Z   1
loop_
 _symmetry_equiv_pos_site_id
 _symmetry_equiv_pos_as_xyz
  1  'x, y, z'
loop_
 _atom_site_type_symbol
 _atom_site_label
 _atom_site_symmetry_multiplicity
 _atom_site_fract_x
 _atom_site_fract_y
 _atom_site_fract_z
 _atom_site_occupancy
  Li  Li0  1  0.50000000  0.00000000  0.00000000  1
  Co  Co0  1  0.04047400  0.15209200  0.15371600  1
  Co  Co1  1  0.50000000  0.50000000  0.50000000  1
  Co  Co2  1  0.50000000  0.50000000  0.00000000  1
  Co  Co3  1  0.50000000  0.00000000  0.50000000  1
  Co  Co4  1  0.95952600  0.84790800  0.84628400  1
  Sb  Sb0  1  0.00000000  0.50000000  0.50000000  1
  O  O0  1  0.23028200  0.26409100  0.26451900  1
  O  O1  1  0.23143200  0.74055200  0.26399900  1
  O  O2  1  0.23029600  0.26408200  0.74111100  1
  O  O3  1  0.68327000  0.27231700  0.27221300  1
  O  O4  1  0.31673000  0.72768300  0.72778700  1
  O  O5  1  0.76856800  0.25944800  0.73600100  1
  O  O6  1  0.76970400  0.73591800  0.25888900  1
  O  O7  1  0.76971800  0.73590900  0.73548100  1
loop_
_geom_bond_atom_site_label_1
_geom_bond_atom_site_label_2
_geom_bond_distance
_geom_bond_site_symmetry_2
Li0 O5 2.294668 1_554
Li0 O1 2.294668 1_545
Li0 O6 2.300353 1_545
Li0 O2 2.300353 1_554
Li0 O0 2.300503 1_555
Li0 O7 2.300503 1_544
Co0 O3 1.895193 1_455
Co0 O1 2.063179 1_545
Co0 O0 2.064202 1_555
Co0 O2 2.064211 1_554
Co1 O4 1.976535 1_555
Co1 O3 1.976535 1_555
Co1 O5 2.204735 1_555
Co1 O1 2.204735 1_555
Co1 O6 2.207255 1_555
Co1 O2 2.207255 1_555
Co2 O3 1.976532 1_555
Co2 O4 1.976532 1_554
Co2 O5 2.204731 1_554
Co2 O1 2.204731 1_555
Co2 O7 2.207288 1_554
Co2 O0 2.207288 1_555
Co3 O4 1.975044 1_545
Co3 O3 1.975044 1_555
Co3 O7 2.208258 1_545
Co3 O0 2.208258 1_555
Co3 O6 2.208290 1_545
Co3 O2 2.208290 1_555
Co4 O4 1.895193 1_655
Co4 O5 2.063179 1_565
Co4 O7 2.064202 1_555
Co4 O6 2.064211 1_556
O0 Sb0 2.046250 1_555
O1 Sb0 2.046788 1_555
O2 Sb0 2.046262 1_555
O5 Sb0 2.046788 1_655
O6 Sb0 2.046262 1_655
O7 Sb0 2.046250 1_655
