# generated using pymatgen
data_Cd4CoS5
_symmetry_space_group_name_H-M   'P 1'
_cell_length_a   7.87836432
_cell_length_b   7.87836432
_cell_length_c   15.74198586
_cell_angle_alpha   87.55140992
_cell_angle_beta   87.55140992
_cell_angle_gamma   30.07367508
_symmetry_Int_Tables_number   1
_chemical_formula_structural   Cd4CoS5
_chemical_formula_sum   'Cd8 Co2 S10'
_cell_volume   489.15004765
_cell_formula_units_Z   2
loop_
 _symmetry_equiv_pos_site_id
 _symmetry_equiv_pos_as_xyz
  1  'x, y, z'
loop_
 _atom_site_type_symbol
 _atom_site_label
 _atom_site_symmetry_multiplicity
 _atom_site_fract_x
 _atom_site_fract_y
 _atom_site_fract_z
 _atom_site_occupancy
  Cd  Cd0  1  0.73667700  0.73667700  0.96076700  1
  Cd  Cd1  1  0.33363200  0.33363200  0.16680300  1
  Cd  Cd2  1  0.92960400  0.92960400  0.37355900  1
  Cd  Cd3  1  0.53427700  0.53427700  0.56916600  1
  Cd  Cd4  1  0.13920300  0.13920300  0.75888400  1
  Cd  Cd5  1  0.46269400  0.46269400  0.92305800  1
  Cd  Cd6  1  0.06723100  0.06723100  0.13469300  1
  Cd  Cd7  1  0.66925700  0.66925700  0.34651600  1
  Co  Co0  1  0.26996400  0.26996400  0.54304400  1
  Co  Co1  1  0.86400200  0.86400200  0.72347200  1
  S  S0  1  0.87945300  0.87945300  0.86905100  1
  S  S1  1  0.48202900  0.48202900  0.08510000  1
  S  S2  1  0.08206900  0.08206900  0.29820100  1
  S  S3  1  0.69614800  0.69614800  0.50861500  1
  S  S4  1  0.29446300  0.29446300  0.68588700  1
  S  S5  1  0.21796100  0.21796100  0.05610300  1
  S  S6  1  0.81572900  0.81572900  0.26111500  1
  S  S7  1  0.40433100  0.40433100  0.46895300  1
  S  S8  1  0.00490000  0.00490000  0.66368600  1
  S  S9  1  0.61734900  0.61734900  0.85332600  1
loop_
_geom_bond_atom_site_label_1
_geom_bond_atom_site_label_2
_geom_bond_distance
_geom_bond_site_symmetry_2
Cd0 S9 2.535667 1_555
Cd0 S5 2.544291 1_566
Cd0 S5 2.544291 1_656
Cd0 S0 2.554881 1_555
Cd1 S5 2.531095 1_555
Cd1 S6 2.533857 1_455
Cd1 S6 2.533857 1_545
Cd1 S1 2.548857 1_555
Cd2 S6 2.531286 1_555
Cd2 S7 2.555322 1_655
Cd2 S7 2.555322 1_565
Cd2 S2 2.558630 1_665
Cd3 S8 2.555918 1_565
Cd3 S8 2.555918 1_655
Cd3 S7 2.583570 1_555
Cd3 S3 2.601599 1_555
Cd4 S9 2.540655 1_545
Cd4 S9 2.540655 1_455
Cd4 S4 2.581135 1_555
Cd4 S8 2.587194 1_555
Cd5 S9 2.552449 1_555
Cd5 S0 2.569121 1_455
Cd5 S0 2.569121 1_545
Cd5 S1 2.580673 1_556
Cd6 S5 2.557444 1_555
Cd6 S1 2.560825 1_455
Cd6 S1 2.560825 1_545
Cd6 S2 2.593756 1_555
Cd7 S6 2.551513 1_555
Cd7 S2 2.570180 1_565
Cd7 S2 2.570180 1_655
Cd7 S3 2.602175 1_555
Co0 S4 2.295540 1_555
Co0 S7 2.308703 1_555
Co0 S3 2.405646 1_455
Co0 S3 2.405646 1_545
Co1 S8 2.303103 1_665
Co1 S0 2.314056 1_555
Co1 S4 2.388097 1_565
Co1 S4 2.388097 1_655
