# generated using pymatgen
data_U3O10
_symmetry_space_group_name_H-M   'P 1'
_cell_length_a   5.85732300
_cell_length_b   19.85882100
_cell_length_c   8.23511462
_cell_angle_alpha   90.00000000
_cell_angle_beta   110.55991077
_cell_angle_gamma   90.00000000
_symmetry_Int_Tables_number   1
_chemical_formula_structural   U3O10
_chemical_formula_sum   'U12 O40'
_cell_volume   896.89138285
_cell_formula_units_Z   4
loop_
 _symmetry_equiv_pos_site_id
 _symmetry_equiv_pos_as_xyz
  1  'x, y, z'
loop_
 _atom_site_type_symbol
 _atom_site_label
 _atom_site_symmetry_multiplicity
 _atom_site_fract_x
 _atom_site_fract_y
 _atom_site_fract_z
 _atom_site_occupancy
  U  U0  1  0.23792900  0.26669200  0.77125000  1
  U  U1  1  0.76207100  0.76669200  0.72875000  1
  U  U2  1  0.76207100  0.73330800  0.22875000  1
  U  U3  1  0.23792900  0.23330800  0.27125000  1
  U  U4  1  0.19144900  0.06213600  0.75739700  1
  U  U5  1  0.80855100  0.56213600  0.74260300  1
  U  U6  1  0.80855100  0.93786400  0.24260300  1
  U  U7  1  0.19144900  0.43786400  0.25739700  1
  U  U8  1  0.30768800  0.85377100  0.84662500  1
  U  U9  1  0.69231200  0.35377100  0.65337500  1
  U  U10  1  0.69231200  0.14622900  0.15337500  1
  U  U11  1  0.30768800  0.64622900  0.34662500  1
  O  O0  1  0.45356800  0.26889500  0.56515400  1
  O  O1  1  0.54643200  0.76889500  0.93484600  1
  O  O2  1  0.54643200  0.73110500  0.43484600  1
  O  O3  1  0.45356800  0.23110500  0.06515400  1
  O  O4  1  0.95100700  0.30712600  0.85603400  1
  O  O5  1  0.04899300  0.80712600  0.64396600  1
  O  O6  1  0.04899300  0.69287400  0.14396600  1
  O  O7  1  0.95100700  0.19287400  0.35603400  1
  O  O8  1  0.29023100  0.07171500  0.56981200  1
  O  O9  1  0.70976900  0.57171500  0.93018800  1
  O  O10  1  0.70976900  0.92828500  0.43018800  1
  O  O11  1  0.29023100  0.42828500  0.06981200  1
  O  O12  1  0.15484500  0.05252700  0.96980800  1
  O  O13  1  0.84515500  0.55252700  0.53019200  1
  O  O14  1  0.84515500  0.94747300  0.03019200  1
  O  O15  1  0.15484500  0.44747300  0.46980800  1
  O  O16  1  0.56512300  0.84596000  0.68551700  1
  O  O17  1  0.43487700  0.34596000  0.81448300  1
  O  O18  1  0.43487700  0.15404000  0.31448300  1
  O  O19  1  0.56512300  0.65404000  0.18551700  1
  O  O20  1  0.03737200  0.81544600  0.93405800  1
  O  O21  1  0.96262800  0.31544600  0.56594200  1
  O  O22  1  0.96262800  0.18455400  0.06594200  1
  O  O23  1  0.03737200  0.68455400  0.43405800  1
  O  O24  1  0.09206600  0.18146700  0.72793300  1
  O  O25  1  0.90793400  0.68146700  0.77206700  1
  O  O26  1  0.90793400  0.81853300  0.27206700  1
  O  O27  1  0.09206600  0.31853300  0.22793300  1
  O  O28  1  0.22655500  0.94631900  0.75961200  1
  O  O29  1  0.77344500  0.44631900  0.74038800  1
  O  O30  1  0.77344500  0.05368100  0.24038800  1
  O  O31  1  0.22655500  0.55368100  0.25961200  1
  O  O32  1  0.47128300  0.60687300  0.59433700  1
  O  O33  1  0.52871700  0.10687300  0.90566300  1
  O  O34  1  0.52871700  0.39312700  0.40566300  1
  O  O35  1  0.47128300  0.89312700  0.09433700  1
  O  O36  1  0.13895200  0.54861700  0.87834500  1
  O  O37  1  0.86104800  0.04861700  0.62165500  1
  O  O38  1  0.86104800  0.45138300  0.12165500  1
  O  O39  1  0.13895200  0.95138300  0.37834500  1
loop_
_geom_bond_atom_site_label_1
_geom_bond_atom_site_label_2
_geom_bond_distance
_geom_bond_site_symmetry_2
O0 U9 2.147277 1_555
O0 U3 2.409484 1_555
O0 U0 2.446121 1_555
O1 U8 2.147277 1_555
O1 U2 2.409484 1_556
O1 U1 2.446121 1_555
O2 U11 2.147277 1_555
O2 U1 2.409484 1_555
O2 U2 2.446121 1_555
O3 U10 2.147277 1_555
O3 U0 2.409484 1_554
O3 U3 2.446121 1_555
O4 U9 2.040385 1_555
O4 U0 2.186509 1_655
O5 U8 2.040385 1_555
O5 U1 2.186509 1_455
O6 U11 2.040385 1_555
O6 U2 2.186509 1_455
O7 U10 2.040385 1_555
O7 U3 2.186509 1_655
O8 U4 1.839866 1_555
O9 U5 1.839866 1_555
O10 U6 1.839866 1_555
O11 U7 1.839866 1_555
O12 U4 1.845427 1_555
O13 U5 1.845427 1_555
O14 U6 1.845427 1_555
O15 U7 1.845427 1_555
O16 U1 1.909727 1_555
O16 U8 2.337339 1_555
O17 U0 1.909727 1_555
O17 U9 2.337339 1_555
O18 U3 1.909727 1_555
O18 U10 2.337339 1_555
O19 U2 1.909727 1_555
O19 U11 2.337339 1_555
O20 U8 2.098890 1_555
O20 U1 2.116911 1_455
O21 U9 2.098890 1_555
O21 U0 2.116911 1_655
O22 U10 2.098890 1_555
O22 U3 2.116911 1_655
O23 U11 2.098890 1_555
O23 U2 2.116911 1_455
O24 U0 1.872853 1_555
O24 U4 2.431944 1_555
O25 U1 1.872853 1_555
O25 U5 2.431944 1_555
O26 U2 1.872853 1_555
O26 U6 2.431944 1_555
O27 U3 1.872853 1_555
O27 U7 2.431944 1_555
O28 U8 1.969258 1_555
O28 U4 2.308664 1_565
O29 U9 1.969258 1_555
O29 U5 2.308664 1_555
O30 U10 1.969258 1_555
O30 U6 2.308664 1_545
O31 U11 1.969258 1_555
O31 U7 2.308664 1_555
O32 U11 2.077845 1_555
O32 U5 2.118609 1_555
O33 U10 2.077845 1_556
O33 U4 2.118609 1_555
O34 U9 2.077845 1_555
O34 U7 2.118609 1_555
O35 U8 2.077845 1_554
O35 U6 2.118609 1_555
O36 U5 1.883467 1_455
O37 U4 1.883467 1_655
O38 U7 1.883467 1_655
O39 U6 1.883467 1_455
