# generated using pymatgen
data_TiCrAgS4
_symmetry_space_group_name_H-M   'P 1'
_cell_length_a   3.48116700
_cell_length_b   11.28230500
_cell_length_c   12.82671300
_cell_angle_alpha   90.00000000
_cell_angle_beta   90.00000000
_cell_angle_gamma   90.00000000
_symmetry_Int_Tables_number   1
_chemical_formula_structural   TiCrAgS4
_chemical_formula_sum   'Ti4 Cr4 Ag4 S16'
_cell_volume   503.77669326
_cell_formula_units_Z   4
loop_
 _symmetry_equiv_pos_site_id
 _symmetry_equiv_pos_as_xyz
  1  'x, y, z'
loop_
 _atom_site_type_symbol
 _atom_site_label
 _atom_site_symmetry_multiplicity
 _atom_site_fract_x
 _atom_site_fract_y
 _atom_site_fract_z
 _atom_site_occupancy
  Ti  Ti0  1  0.00000000  0.80587500  0.10468400  1
  Ti  Ti1  1  0.50000000  0.19412500  0.60468400  1
  Ti  Ti2  1  0.50000000  0.66790200  0.41127000  1
  Ti  Ti3  1  0.00000000  0.33209800  0.91127000  1
  Cr  Cr0  1  0.50000000  0.69673300  0.88698700  1
  Cr  Cr1  1  0.00000000  0.30326700  0.38698700  1
  Cr  Cr2  1  0.00000000  0.82817100  0.59254500  1
  Cr  Cr3  1  0.50000000  0.17182900  0.09254500  1
  Ag  Ag0  1  0.50000000  0.51172200  0.69150700  1
  Ag  Ag1  1  0.00000000  0.99802800  0.31744500  1
  Ag  Ag2  1  0.00000000  0.48827800  0.19150700  1
  Ag  Ag3  1  0.50000000  0.00197200  0.81744500  1
  S  S0  1  0.00000000  0.70993200  0.28545400  1
  S  S1  1  0.50000000  0.79379200  0.71257600  1
  S  S2  1  0.50000000  0.29006800  0.78545400  1
  S  S3  1  0.00000000  0.20620800  0.21257600  1
  S  S4  1  0.50000000  0.65909600  0.06910800  1
  S  S5  1  0.00000000  0.83859100  0.92460700  1
  S  S6  1  0.00000000  0.34090400  0.56910800  1
  S  S7  1  0.50000000  0.16140900  0.42460700  1
  S  S8  1  0.00000000  0.62683300  0.53970400  1
  S  S9  1  0.50000000  0.86888700  0.46515100  1
  S  S10  1  0.50000000  0.37316700  0.03970400  1
  S  S11  1  0.00000000  0.13111300  0.96515100  1
  S  S12  1  0.00000000  0.55375600  0.85396500  1
  S  S13  1  0.50000000  0.95191200  0.14499600  1
  S  S14  1  0.50000000  0.44624400  0.35396500  1
  S  S15  1  0.00000000  0.04808800  0.64499600  1
loop_
_geom_bond_atom_site_label_1
_geom_bond_atom_site_label_2
_geom_bond_distance
_geom_bond_site_symmetry_2
Cr0 S4 2.374294 1_556
Cr0 S12 2.410635 1_655
Cr0 S12 2.410635 1_555
Cr0 S5 2.413303 1_555
Cr0 S5 2.413303 1_655
Cr0 S1 2.490750 1_555
Cr1 S6 2.374294 1_555
Cr1 S14 2.410635 1_455
Cr1 S14 2.410635 1_555
Cr1 S7 2.413303 1_555
Cr1 S7 2.413303 1_455
Cr1 S3 2.490750 1_555
Cr2 S1 2.355940 1_455
Cr2 S1 2.355940 1_555
Cr2 S8 2.370517 1_555
Cr2 S9 2.431205 1_455
Cr2 S9 2.431205 1_555
Cr2 S15 2.570765 1_565
Cr3 S3 2.355940 1_555
Cr3 S3 2.355940 1_655
Cr3 S10 2.370517 1_555
Cr3 S11 2.431205 1_554
Cr3 S11 2.431205 1_654
Cr3 S13 2.570765 1_545
Ag0 S12 2.756223 1_655
Ag0 S12 2.756223 1_555
Ag0 S2 2.775958 1_555
Ag0 S8 2.916784 1_655
Ag0 S8 2.916784 1_555
Ag0 S6 3.034574 1_555
Ag0 S6 3.034574 1_655
Ag1 S3 2.706656 1_565
Ag1 S13 2.862355 1_455
Ag1 S13 2.862355 1_555
Ag1 S7 2.883884 1_565
Ag1 S7 2.883884 1_465
Ag1 S9 2.956678 1_455
Ag1 S9 2.956678 1_555
Ag2 S14 2.756223 1_455
Ag2 S14 2.756223 1_555
Ag2 S0 2.775958 1_555
Ag2 S10 2.916784 1_555
Ag2 S10 2.916784 1_455
Ag2 S4 3.034574 1_555
Ag2 S4 3.034574 1_455
Ag3 S1 2.706656 1_545
Ag3 S15 2.862355 1_555
Ag3 S15 2.862355 1_655
Ag3 S5 2.883884 1_545
Ag3 S5 2.883884 1_645
Ag3 S11 2.956678 1_555
Ag3 S11 2.956678 1_655
S0 Ti2 2.420508 1_455
S0 Ti2 2.420508 1_555
S0 Ti0 2.558909 1_555
S2 Ti3 2.420508 1_555
S2 Ti3 2.420508 1_655
S2 Ti1 2.558909 1_555
S4 Ti0 2.445448 1_555
S4 Ti0 2.445448 1_655
S5 Ti0 2.339103 1_556
S6 Ti1 2.445448 1_455
S6 Ti1 2.445448 1_555
S7 Ti1 2.339103 1_555
S8 Ti2 2.440944 1_455
S8 Ti2 2.440944 1_555
S9 Ti2 2.370556 1_555
S10 Ti3 2.440944 1_654
S10 Ti3 2.440944 1_554
S11 Ti3 2.370556 1_555
S12 Ti3 2.606596 1_555
S13 Ti0 2.451875 1_555
S13 Ti0 2.451875 1_655
S14 Ti2 2.606596 1_555
S15 Ti1 2.451875 1_455
S15 Ti1 2.451875 1_555
