# generated using pymatgen
data_LiMnPO4F
_symmetry_space_group_name_H-M   'P 1'
_cell_length_a   6.44707100
_cell_length_b   10.66623297
_cell_length_c   11.00176014
_cell_angle_alpha   90.45053327
_cell_angle_beta   91.17167101
_cell_angle_gamma   90.30985178
_symmetry_Int_Tables_number   1
_chemical_formula_structural   LiMnPO4F
_chemical_formula_sum   'Li8 Mn8 P8 O32 F8'
_cell_volume   756.35331200
_cell_formula_units_Z   8
loop_
 _symmetry_equiv_pos_site_id
 _symmetry_equiv_pos_as_xyz
  1  'x, y, z'
loop_
 _atom_site_type_symbol
 _atom_site_label
 _atom_site_symmetry_multiplicity
 _atom_site_fract_x
 _atom_site_fract_y
 _atom_site_fract_z
 _atom_site_occupancy
  Li  Li0  1  0.24556700  0.22596400  0.91114500  1
  Li  Li1  1  0.52761800  0.23861600  0.66291100  1
  Li  Li2  1  0.25549700  0.43864700  0.22059900  1
  Li  Li3  1  0.25710100  0.72187200  0.59164700  1
  Li  Li4  1  0.98598600  0.73133300  0.82184900  1
  Li  Li5  1  0.50411300  0.76566500  0.32881200  1
  Li  Li6  1  0.75538600  0.77870700  0.09020100  1
  Li  Li7  1  0.23422500  0.96790000  0.27149100  1
  Mn  Mn0  1  0.99886600  0.00191500  0.99874200  1
  Mn  Mn1  1  0.50541300  0.99975300  0.99545600  1
  Mn  Mn2  1  0.98779500  0.00967500  0.50354800  1
  Mn  Mn3  1  0.49881500  0.99705500  0.50204300  1
  Mn  Mn4  1  0.99551400  0.49376200  0.50252000  1
  Mn  Mn5  1  0.50558800  0.49396000  0.50064800  1
  Mn  Mn6  1  0.99897400  0.49925400  0.99969400  1
  Mn  Mn7  1  0.50853900  0.50300400  0.99632900  1
  P  P0  1  0.73846700  0.04048300  0.26216100  1
  P  P1  1  0.74550500  0.23819400  0.91729100  1
  P  P2  1  0.23981600  0.26389600  0.42690100  1
  P  P3  1  0.25436100  0.46501000  0.76534200  1
  P  P4  1  0.75048700  0.54129200  0.23739900  1
  P  P5  1  0.76212100  0.73626000  0.57823400  1
  P  P6  1  0.26016700  0.76539100  0.07824400  1
  P  P7  1  0.24379700  0.96469400  0.73521700  1
  O  O0  1  0.26031800  0.02090400  0.86951800  1
  O  O1  1  0.05109300  0.02654000  0.67347700  1
  O  O2  1  0.44402100  0.01420400  0.67216600  1
  O  O3  1  0.23352500  0.11987500  0.46269300  1
  O  O4  1  0.72534700  0.17827700  0.25580000  1
  O  O5  1  0.55087400  0.17532900  0.97827200  1
  O  O6  1  0.94968400  0.17725000  0.97334000  1
  O  O7  1  0.73696200  0.23182700  0.78264800  1
  O  O8  1  0.25373000  0.28155300  0.29341100  1
  O  O9  1  0.04315900  0.32099100  0.48700800  1
  O  O10  1  0.43573000  0.31842400  0.50072700  1
  O  O11  1  0.27001600  0.32371600  0.76348100  1
  O  O12  1  0.74697600  0.37720100  0.96915200  1
  O  O13  1  0.55720200  0.48043100  0.16954700  1
  O  O14  1  0.95412100  0.49751100  0.17297400  1
  O  O15  1  0.75971200  0.48726100  0.36842800  1
  O  O16  1  0.24177600  0.52287100  0.63352800  1
  O  O17  1  0.05604700  0.51852200  0.83042800  1
  O  O18  1  0.44923500  0.52670000  0.82906900  1
  O  O19  1  0.26077400  0.62338100  0.04058500  1
  O  O20  1  0.72580500  0.68326200  0.23802400  1
  O  O21  1  0.55828400  0.67752900  0.51349300  1
  O  O22  1  0.95804400  0.67189500  0.52150700  1
  O  O23  1  0.75678500  0.72829300  0.71307800  1
  O  O24  1  0.26496000  0.78754900  0.21382200  1
  O  O25  1  0.05605100  0.82075600  0.01622600  1
  O  O26  1  0.45450600  0.82314000  0.01542700  1
  O  O27  1  0.22259700  0.82273500  0.73848400  1
  O  O28  1  0.76688000  0.87411900  0.52815200  1
  O  O29  1  0.54729100  0.97229300  0.32813400  1
  O  O30  1  0.94046400  0.98740700  0.32804800  1
  O  O31  1  0.73798200  0.97330000  0.13061800  1
  F  F0  1  0.23540100  0.03830500  0.10778100  1
  F  F1  1  0.71624300  0.11854700  0.52124900  1
  F  F2  1  0.24516000  0.38212400  0.02121300  1
  F  F3  1  0.73409500  0.45856500  0.60694100  1
  F  F4  1  0.26992400  0.53394800  0.39229300  1
  F  F5  1  0.76751000  0.62727100  0.98400700  1
  F  F6  1  0.26925200  0.87556200  0.47858000  1
  F  F7  1  0.77095000  0.95353000  0.89524900  1
loop_
_geom_bond_atom_site_label_1
_geom_bond_atom_site_label_2
_geom_bond_distance
_geom_bond_site_symmetry_2
Li0 O11 1.945892 1_555
Li0 O6 2.103638 1_455
Li0 O5 2.160964 1_555
Li0 O0 2.234050 1_555
Li1 O7 1.868686 1_555
Li1 O10 2.060448 1_555
Li1 O11 2.209521 1_555
Li1 O2 2.454065 1_555
Li2 O8 1.862993 1_555
Li2 O13 2.082498 1_555
Li2 O14 2.102544 1_455
Li3 O27 1.951044 1_555
Li3 O22 2.125685 1_455
Li3 O16 2.177713 1_555
Li3 O21 2.192080 1_555
Li4 O23 1.882327 1_555
Li4 O27 2.042995 1_655
Li4 O17 2.319063 1_655
Li4 O25 2.368689 1_656
Li5 O20 1.967520 1_555
Li5 O24 1.990218 1_555
Li5 O29 2.220049 1_555
Li5 O21 2.266841 1_555
Li6 O20 1.937599 1_555
Li6 O31 2.123291 1_555
Li6 O26 2.148249 1_555
Li6 O25 2.163746 1_655
Li7 O30 2.016861 1_455
Li7 O24 2.032822 1_555
Li7 O29 2.100331 1_555
Mn0 O6 1.920199 1_555
Mn0 O25 1.979216 1_646
Mn0 O0 2.236586 1_655
Mn0 O31 2.264575 1_546
Mn1 O5 1.905433 1_565
Mn1 O26 1.925473 1_556
Mn1 O0 2.094447 1_565
Mn1 O31 2.111634 1_556
Mn2 O1 1.912252 1_655
Mn2 O30 1.960984 1_545
Mn2 O3 2.027496 1_655
Mn2 O28 2.047429 1_545
Mn3 O2 1.919294 1_565
Mn3 O29 1.961012 1_555
Mn3 O28 2.190627 1_555
Mn3 O3 2.198121 1_565
Mn4 O9 1.876904 1_655
Mn4 O22 1.926865 1_555
Mn4 O15 2.097094 1_555
Mn4 O16 2.142087 1_655
Mn5 O10 1.923357 1_555
Mn5 O21 1.988870 1_555
Mn5 O15 2.214142 1_555
Mn5 O16 2.285897 1_555
Mn6 O17 1.918001 1_655
Mn6 O14 1.934247 1_556
Mn6 O12 2.096452 1_555
Mn6 O19 2.177039 1_656
Mn7 O18 1.890983 1_555
Mn7 O13 1.942082 1_556
Mn7 O12 2.070697 1_555
Mn7 O19 2.116921 1_556
O0 P7 1.591506 1_545
O1 P7 1.556096 1_545
O2 P7 1.568878 1_545
O3 P2 1.589336 1_555
O4 P0 1.474760 1_555
O5 P1 1.583238 1_555
O6 P1 1.586807 1_555
O7 P1 1.482216 1_555
O8 P2 1.486584 1_555
O9 P2 1.565867 1_555
O10 P2 1.592477 1_555
O11 P3 1.511001 1_555
O12 P1 1.584392 1_555
O13 P4 1.573869 1_555
O14 P4 1.575908 1_555
O15 P4 1.556812 1_555
O16 P3 1.581238 1_555
O17 P3 1.584962 1_555
O18 P3 1.565489 1_555
O19 P6 1.567254 1_555
O20 P4 1.523455 1_555
O21 P5 1.603914 1_555
O22 P5 1.578353 1_555
O23 P5 1.487709 1_555
O24 P6 1.508034 1_555
O25 P6 1.588717 1_555
O26 P6 1.568626 1_555
O27 P7 1.520360 1_555
O28 P5 1.574693 1_555
O29 P0 1.615591 1_565
O30 P0 1.586730 1_565
O31 P0 1.609780 1_565
F0 Mn0 1.956196 1_454
F0 Li7 1.956966 1_545
F0 Mn1 2.194149 1_544
F1 Mn3 1.911232 1_545
F1 Mn2 2.117502 1_555
F1 Li1 2.368752 1_555
F2 Mn6 2.036359 1_454
F2 Li0 2.051633 1_554
F2 Mn7 2.149767 1_554
F2 Li2 2.269928 1_555
F3 Mn5 1.903385 1_555
F3 Mn4 2.092932 1_555
F4 Mn5 1.962740 1_555
F4 Li2 2.138131 1_555
F4 Mn4 2.207242 1_455
F5 Li6 1.988855 1_556
F5 Mn6 2.033797 1_555
F5 Mn7 2.133295 1_555
F5 Li4 2.552584 1_555
F6 Mn3 1.973504 1_555
F6 Li3 2.067719 1_555
F6 Mn2 2.335955 1_465
F6 Li7 2.495701 1_555
F6 Li5 2.544116 1_555
F7 Mn0 1.906833 1_565
F7 Mn1 2.113520 1_555
