# generated using pymatgen
data_BaAl3(PO7)2
_symmetry_space_group_name_H-M   'P 1'
_cell_length_a   7.04527858
_cell_length_b   7.04527858
_cell_length_c   7.47890480
_cell_angle_alpha   61.05759970
_cell_angle_beta   61.05759970
_cell_angle_gamma   59.95086892
_symmetry_Int_Tables_number   1
_chemical_formula_structural   BaAl3(PO7)2
_chemical_formula_sum   'Ba1 Al3 P2 O14'
_cell_volume   266.50997087
_cell_formula_units_Z   1
loop_
 _symmetry_equiv_pos_site_id
 _symmetry_equiv_pos_as_xyz
  1  'x, y, z'
loop_
 _atom_site_type_symbol
 _atom_site_label
 _atom_site_symmetry_multiplicity
 _atom_site_fract_x
 _atom_site_fract_y
 _atom_site_fract_z
 _atom_site_occupancy
  Ba  Ba0  1  0.15122500  0.15122500  0.17953600  1
  Al  Al0  1  0.14994800  0.65256400  0.68234100  1
  Al  Al1  1  0.65256400  0.14994800  0.68234100  1
  Al  Al2  1  0.15674800  0.15674800  0.67202200  1
  P  P0  1  0.45339700  0.45339700  0.28654300  1
  P  P1  1  0.84902800  0.84902800  0.07531000  1
  O  O0  1  0.90194100  0.90194100  0.60138400  1
  O  O1  1  0.76281700  0.76281700  0.32369600  1
  O  O2  1  0.29762100  0.66001200  0.37711400  1
  O  O3  1  0.66001200  0.29762100  0.37711400  1
  O  O4  1  0.54718100  0.54718100  0.04114200  1
  O  O5  1  0.89795000  0.23810600  0.60690200  1
  O  O6  1  0.23810600  0.89795000  0.60690200  1
  O  O7  1  0.40602800  0.40602800  0.75403000  1
  O  O8  1  0.99702000  0.99702000  0.99502800  1
  O  O9  1  0.30463900  0.30463900  0.36797300  1
  O  O10  1  0.06620900  0.40455600  0.75793000  1
  O  O11  1  0.40455600  0.06620900  0.75793000  1
  O  O12  1  0.00079600  0.64191300  0.98548000  1
  O  O13  1  0.64191300  0.00079600  0.98548000  1
loop_
_geom_bond_atom_site_label_1
_geom_bond_atom_site_label_2
_geom_bond_distance
_geom_bond_site_symmetry_2
Ba0 O13 2.853779 1_554
Ba0 O12 2.853779 1_554
Ba0 O2 2.859175 1_545
Ba0 O3 2.859175 1_455
Ba0 O8 2.889429 1_444
Ba0 O9 2.905357 1_555
Ba0 O0 2.913088 1_445
Ba0 O7 2.956586 1_554
Ba0 O10 2.965984 1_554
Ba0 O11 2.965984 1_554
Ba0 O6 3.009031 1_545
Ba0 O5 3.009031 1_455
Al0 O0 1.851032 1_455
Al0 O7 1.859001 1_555
Al0 O10 1.863917 1_555
Al0 O6 1.866822 1_555
Al0 O12 1.964263 1_555
Al0 O2 1.984006 1_555
Al1 O0 1.851032 1_545
Al1 O7 1.859001 1_555
Al1 O11 1.863917 1_555
Al1 O5 1.866822 1_555
Al1 O13 1.964263 1_555
Al1 O3 1.984006 1_555
Al2 O6 1.852781 1_545
Al2 O5 1.852781 1_455
Al2 O10 1.855122 1_555
Al2 O11 1.855122 1_555
Al2 O9 1.960366 1_555
Al2 O8 2.091528 1_445
O1 P1 1.540806 1_555
O2 P0 1.554714 1_555
O3 P0 1.554714 1_555
O4 P0 1.526897 1_555
O8 P1 1.552943 1_556
O9 P0 1.559549 1_555
O12 P1 1.553984 1_456
O13 P1 1.553984 1_546
