# generated using pymatgen
data_CaSm4Tm4O12
_symmetry_space_group_name_H-M   'P 1'
_cell_length_a   6.15719197
_cell_length_b   8.54094400
_cell_length_c   5.87282362
_cell_angle_alpha   90.00000000
_cell_angle_beta   90.73624521
_cell_angle_gamma   90.00000000
_symmetry_Int_Tables_number   1
_chemical_formula_structural   CaSm4Tm4O12
_chemical_formula_sum   'Ca1 Sm4 Tm4 O12'
_cell_volume   308.81591262
_cell_formula_units_Z   1
loop_
 _symmetry_equiv_pos_site_id
 _symmetry_equiv_pos_as_xyz
  1  'x, y, z'
loop_
 _atom_site_type_symbol
 _atom_site_label
 _atom_site_symmetry_multiplicity
 _atom_site_fract_x
 _atom_site_fract_y
 _atom_site_fract_z
 _atom_site_occupancy
  Ca  Ca0  1  0.74410700  0.25000000  0.08736100  1
  Sm  Sm0  1  0.17219200  0.25000000  0.91897800  1
  Sm  Sm1  1  0.42648200  0.75000000  0.45759400  1
  Sm  Sm2  1  0.55615900  0.25000000  0.56690500  1
  Sm  Sm3  1  0.94284200  0.75000000  0.01434200  1
  Tm  Tm0  1  0.98785800  0.99472300  0.50102500  1
  Tm  Tm1  1  0.98785800  0.50527700  0.50102500  1
  Tm  Tm2  1  0.48509400  0.96916200  0.98292800  1
  Tm  Tm3  1  0.48509400  0.53083800  0.98292800  1
  O  O0  1  0.05908600  0.75000000  0.63912900  1
  O  O1  1  0.19565000  0.58418000  0.19322500  1
  O  O2  1  0.19565000  0.91582000  0.19322500  1
  O  O3  1  0.30306400  0.45184700  0.67359800  1
  O  O4  1  0.30306400  0.04815300  0.67359800  1
  O  O5  1  0.40145800  0.25000000  0.20851800  1
  O  O6  1  0.56517100  0.75000000  0.83109400  1
  O  O7  1  0.69525100  0.92156000  0.28474300  1
  O  O8  1  0.69525100  0.57844000  0.28474300  1
  O  O9  1  0.81022200  0.05779800  0.82221400  1
  O  O10  1  0.81022200  0.44220200  0.82221400  1
  O  O11  1  0.91780800  0.25000000  0.42311300  1
loop_
_geom_bond_atom_site_label_1
_geom_bond_atom_site_label_2
_geom_bond_distance
_geom_bond_site_symmetry_2
Ca0 O11 2.231076 1_555
Ca0 O5 2.235157 1_555
Ca0 O10 2.302513 1_554
Ca0 O9 2.302513 1_554
O0 Tm0 2.282500 1_455
O0 Tm1 2.282500 1_455
O0 Sm3 2.325615 1_456
O0 Sm1 2.513129 1_555
O1 Tm3 2.228351 1_554
O1 Tm1 2.327682 1_455
O1 Sm3 2.343156 1_455
O1 Sm1 2.525797 1_555
O2 Tm2 2.228351 1_554
O2 Tm0 2.327682 1_455
O2 Sm3 2.343156 1_455
O2 Sm1 2.525797 1_555
O3 Tm1 2.225198 1_455
O3 Tm3 2.226926 1_555
O3 Sm0 2.393305 1_555
O3 Sm2 2.412100 1_555
O3 Sm1 2.948926 1_555
O4 Tm0 2.225198 1_445
O4 Tm2 2.226926 1_545
O4 Sm0 2.393305 1_555
O4 Sm2 2.412100 1_555
O4 Sm1 2.948926 1_545
O5 Sm0 2.196007 1_554
O5 Sm2 2.299071 1_555
O5 Tm3 2.791296 1_554
O5 Tm2 2.791296 1_544
O6 Tm2 2.133855 1_555
O6 Tm3 2.133855 1_555
O6 Sm1 2.343610 1_555
O6 Sm3 2.549766 1_556
O7 Tm2 2.218673 1_554
O7 Tm0 2.278363 1_555
O7 Sm1 2.441163 1_555
O7 Sm3 2.656137 1_555
O8 Tm3 2.218673 1_554
O8 Tm1 2.278363 1_555
O8 Sm1 2.441163 1_555
O8 Sm3 2.656137 1_555
O9 Tm0 2.257782 1_545
O9 Tm2 2.349470 1_545
O9 Sm2 2.707354 1_555
O9 Sm0 2.819997 1_655
O9 Sm3 2.971074 1_546
O10 Tm1 2.257782 1_555
O10 Tm3 2.349470 1_555
O10 Sm2 2.707354 1_555
O10 Sm0 2.819997 1_655
O10 Sm3 2.971074 1_556
O11 Tm1 2.268052 1_555
O11 Tm0 2.268052 1_545
O11 Sm2 2.391616 1_555
