# generated using pymatgen
data_NaV2O4F
_symmetry_space_group_name_H-M   'P 1'
_cell_length_a   3.81420000
_cell_length_b   5.01842400
_cell_length_c   11.22433200
_cell_angle_alpha   90.00000000
_cell_angle_beta   90.00000000
_cell_angle_gamma   90.00000000
_symmetry_Int_Tables_number   1
_chemical_formula_structural   NaV2O4F
_chemical_formula_sum   'Na2 V4 O8 F2'
_cell_volume   214.84800104
_cell_formula_units_Z   2
loop_
 _symmetry_equiv_pos_site_id
 _symmetry_equiv_pos_as_xyz
  1  'x, y, z'
loop_
 _atom_site_type_symbol
 _atom_site_label
 _atom_site_symmetry_multiplicity
 _atom_site_fract_x
 _atom_site_fract_y
 _atom_site_fract_z
 _atom_site_occupancy
  Na  Na0  1  0.50000000  0.64028900  0.99546200  1
  Na  Na1  1  0.00000000  0.35971000  0.49546200  1
  V  V0  1  0.50000000  0.91901200  0.65311000  1
  V  V1  1  0.00000000  0.08098800  0.15311000  1
  V  V2  1  0.00000000  0.10967400  0.84650400  1
  V  V3  1  0.50000000  0.89032600  0.34650400  1
  O  O0  1  0.50000000  0.00607100  0.82125100  1
  O  O1  1  0.00000000  0.99392900  0.32125100  1
  O  O2  1  0.00000000  0.98415200  0.68004700  1
  O  O3  1  0.50000000  0.01584800  0.18004700  1
  O  O4  1  0.50000000  0.04699800  0.50672300  1
  O  O5  1  0.00000000  0.95300200  0.00672300  1
  O  O6  1  0.00000000  0.43762100  0.86793600  1
  O  O7  1  0.50000000  0.56237900  0.36793600  1
  F  F0  1  0.50000000  0.55095200  0.62896600  1
  F  F1  1  0.00000000  0.44904800  0.12896600  1
loop_
_geom_bond_atom_site_label_1
_geom_bond_atom_site_label_2
_geom_bond_distance
_geom_bond_site_symmetry_2
Na0 O5 2.473013 1_656
Na0 O5 2.473013 1_556
Na0 O6 2.592366 1_555
Na0 O6 2.592366 1_655
Na0 O0 2.682015 1_565
Na0 O3 2.800836 1_566
Na1 O4 2.473010 1_555
Na1 O4 2.473010 1_455
Na1 O7 2.592368 1_455
Na1 O7 2.592368 1_555
Na1 O1 2.682012 1_545
Na1 O2 2.800833 1_545
O0 V0 1.937181 1_545
O0 V2 1.996921 1_555
O0 V2 1.996921 1_655
O1 V1 1.937181 1_565
O1 V3 1.996921 1_455
O1 V3 1.996921 1_555
O2 V0 1.958395 1_455
O2 V0 1.958395 1_555
O2 V2 1.971701 1_565
O3 V1 1.958395 1_655
O3 V1 1.958395 1_555
O3 V3 1.971701 1_545
O4 V0 1.764171 1_545
O4 V3 1.962715 1_545
O5 V1 1.764171 1_565
O5 V2 1.962715 1_564
O6 V2 1.663265 1_555
O7 V3 1.663265 1_555
F0 V0 1.866856 1_555
F0 Na1 2.608371 1_555
F0 Na1 2.608371 1_655
F1 V1 1.866856 1_555
F1 Na0 2.608369 1_454
F1 Na0 2.608369 1_554
