# generated using pymatgen
data_ErMg149
_symmetry_space_group_name_H-M   'P 1'
_cell_length_a   15.96391561
_cell_length_b   15.96392047
_cell_length_c   15.60336140
_cell_angle_alpha   90.00000000
_cell_angle_beta   90.00000000
_cell_angle_gamma   120.00001228
_symmetry_Int_Tables_number   1
_chemical_formula_structural   ErMg149
_chemical_formula_sum   'Er1 Mg149'
_cell_volume   3443.71914083
_cell_formula_units_Z   1
loop_
 _symmetry_equiv_pos_site_id
 _symmetry_equiv_pos_as_xyz
  1  'x, y, z'
loop_
 _atom_site_type_symbol
 _atom_site_label
 _atom_site_symmetry_multiplicity
 _atom_site_fract_x
 _atom_site_fract_y
 _atom_site_fract_z
 _atom_site_occupancy
  Er  Er0  1  0.00000000  0.00000000  0.00000000  1
  Mg  Mg0  1  0.59998135  0.19996270  0.00000000  1
  Mg  Mg1  1  0.40112876  0.20056388  0.00000000  1
  Mg  Mg2  1  0.79943612  0.20056388  0.00000000  1
  Mg  Mg3  1  0.20152524  0.20415452  0.00000000  1
  Mg  Mg4  1  0.00262928  0.20415452  0.00000000  1
  Mg  Mg5  1  0.00014404  0.40009479  0.00000000  1
  Mg  Mg6  1  0.39995075  0.40009479  0.00000000  1
  Mg  Mg7  1  0.59998135  0.40001865  0.00000000  1
  Mg  Mg8  1  0.80003730  0.40001865  0.00000000  1
  Mg  Mg9  1  0.20140677  0.40281354  0.00000000  1
  Mg  Mg10  1  0.79943612  0.59887124  0.00000000  1
  Mg  Mg11  1  0.39979782  0.60020218  0.00000000  1
  Mg  Mg12  1  0.20040436  0.60020218  0.00000000  1
  Mg  Mg13  1  0.59990521  0.60004825  0.00000000  1
  Mg  Mg14  1  0.00014404  0.60004925  0.00000000  1
  Mg  Mg15  1  0.20140677  0.79859323  0.00000000  1
  Mg  Mg16  1  0.59718646  0.79859323  0.00000000  1
  Mg  Mg17  1  0.00262928  0.79847476  0.00000000  1
  Mg  Mg18  1  0.79584548  0.79847476  0.00000000  1
  Mg  Mg19  1  0.39979782  0.79959564  0.00000000  1
  Mg  Mg20  1  0.79584548  0.99737072  0.00000000  1
  Mg  Mg21  1  0.20152524  0.99737072  0.00000000  1
  Mg  Mg22  1  0.39995075  0.99985696  0.00000000  1
  Mg  Mg23  1  0.59990521  0.99985696  0.00000000  1
  Mg  Mg24  1  0.26409312  0.13204706  0.16480578  1
  Mg  Mg25  1  0.86795394  0.13204706  0.16480578  1
  Mg  Mg26  1  0.86795394  0.73590688  0.16480578  1
  Mg  Mg27  1  0.66666700  0.33333300  0.16613540  1
  Mg  Mg28  1  0.66729299  0.13296129  0.16650655  1
  Mg  Mg29  1  0.46566830  0.13296129  0.16650655  1
  Mg  Mg30  1  0.86703871  0.33270701  0.16650655  1
  Mg  Mg31  1  0.46566830  0.33270701  0.16650655  1
  Mg  Mg32  1  0.86703871  0.53433170  0.16650655  1
  Mg  Mg33  1  0.66729299  0.53433170  0.16650655  1
  Mg  Mg34  1  0.46666226  0.53333774  0.16715282  1
  Mg  Mg35  1  0.06667549  0.53333774  0.16715282  1
  Mg  Mg36  1  0.46666226  0.93332451  0.16715282  1
  Mg  Mg37  1  0.26709174  0.53418349  0.16729142  1
  Mg  Mg38  1  0.26709174  0.73290826  0.16729142  1
  Mg  Mg39  1  0.46581551  0.73290826  0.16729142  1
  Mg  Mg40  1  0.06787985  0.33539591  0.16754756  1
  Mg  Mg41  1  0.26751606  0.33539591  0.16754756  1
  Mg  Mg42  1  0.66460409  0.73248394  0.16754756  1
  Mg  Mg43  1  0.06787985  0.73248394  0.16754756  1
  Mg  Mg44  1  0.66460409  0.93211915  0.16754756  1
  Mg  Mg45  1  0.26751606  0.93211915  0.16754756  1
  Mg  Mg46  1  0.06768179  0.13536258  0.16906772  1
  Mg  Mg47  1  0.06768179  0.93231821  0.16906772  1
  Mg  Mg48  1  0.86463742  0.93231921  0.16906772  1
  Mg  Mg49  1  0.80014741  0.19985359  0.33287211  1
  Mg  Mg50  1  0.39970717  0.19985359  0.33287211  1
  Mg  Mg51  1  0.80014741  0.60029383  0.33287211  1
  Mg  Mg52  1  0.59998243  0.19996586  0.33279648  1
  Mg  Mg53  1  0.59998243  0.40001657  0.33279648  1
  Mg  Mg54  1  0.80003414  0.40001757  0.33279648  1
  Mg  Mg55  1  0.20046003  0.00001456  0.33339736  1
  Mg  Mg56  1  0.79955453  0.00001456  0.33339736  1
  Mg  Mg57  1  0.20046003  0.20044547  0.33339736  1
  Mg  Mg58  1  0.99998544  0.20044547  0.33339736  1
  Mg  Mg59  1  0.99998544  0.79953997  0.33339736  1
  Mg  Mg60  1  0.79955453  0.79953997  0.33339736  1
  Mg  Mg61  1  0.59979567  0.00017265  0.33367382  1
  Mg  Mg62  1  0.40037798  0.00017265  0.33367382  1
  Mg  Mg63  1  0.99982735  0.40020433  0.33367382  1
  Mg  Mg64  1  0.40037798  0.40020533  0.33367382  1
  Mg  Mg65  1  0.99982735  0.59962202  0.33367382  1
  Mg  Mg66  1  0.59979567  0.59962302  0.33367382  1
  Mg  Mg67  1  0.40007332  0.59992568  0.33367426  1
  Mg  Mg68  1  0.19985236  0.59992668  0.33367426  1
  Mg  Mg69  1  0.40007332  0.80014764  0.33367426  1
  Mg  Mg70  1  0.20019882  0.40039764  0.33406200  1
  Mg  Mg71  1  0.20019882  0.79980118  0.33406200  1
  Mg  Mg72  1  0.59960236  0.79980118  0.33406200  1
  Mg  Mg73  1  0.00000000  0.00000000  0.33462005  1
  Mg  Mg74  1  0.26697732  0.13348916  0.50000000  1
  Mg  Mg75  1  0.86651084  0.13348916  0.50000000  1
  Mg  Mg76  1  0.06677945  0.13355891  0.50000000  1
  Mg  Mg77  1  0.66706744  0.13406930  0.50000000  1
  Mg  Mg78  1  0.46700186  0.13407030  0.50000000  1
  Mg  Mg79  1  0.86592970  0.33293156  0.50000000  1
  Mg  Mg80  1  0.46700186  0.33293156  0.50000000  1
  Mg  Mg81  1  0.66666700  0.33333300  0.50000000  1
  Mg  Mg82  1  0.06673064  0.33347636  0.50000000  1
  Mg  Mg83  1  0.26674571  0.33347736  0.50000000  1
  Mg  Mg84  1  0.66706744  0.53299814  0.50000000  1
  Mg  Mg85  1  0.86592970  0.53299814  0.50000000  1
  Mg  Mg86  1  0.46695815  0.53304285  0.50000000  1
  Mg  Mg87  1  0.06608470  0.53304285  0.50000000  1
  Mg  Mg88  1  0.26673147  0.53346294  0.50000000  1
  Mg  Mg89  1  0.86651084  0.73302268  0.50000000  1
  Mg  Mg90  1  0.66652364  0.73325329  0.50000000  1
  Mg  Mg91  1  0.06673064  0.73325429  0.50000000  1
  Mg  Mg92  1  0.26673147  0.73326853  0.50000000  1
  Mg  Mg93  1  0.46653706  0.73326853  0.50000000  1
  Mg  Mg94  1  0.06677945  0.93322055  0.50000000  1
  Mg  Mg95  1  0.86644109  0.93322055  0.50000000  1
  Mg  Mg96  1  0.26674571  0.93326936  0.50000000  1
  Mg  Mg97  1  0.66652364  0.93326936  0.50000000  1
  Mg  Mg98  1  0.46695815  0.93391530  0.50000000  1
  Mg  Mg99  1  0.00000000  0.00000000  0.66537995  1
  Mg  Mg100  1  0.20019882  0.40039764  0.66593800  1
  Mg  Mg101  1  0.20019882  0.79980118  0.66593800  1
  Mg  Mg102  1  0.59960236  0.79980118  0.66593800  1
  Mg  Mg103  1  0.40007332  0.59992568  0.66632674  1
  Mg  Mg104  1  0.19985236  0.59992668  0.66632674  1
  Mg  Mg105  1  0.40007332  0.80014764  0.66632674  1
  Mg  Mg106  1  0.59979567  0.00017265  0.66632518  1
  Mg  Mg107  1  0.40037798  0.00017265  0.66632518  1
  Mg  Mg108  1  0.99982735  0.40020433  0.66632518  1
  Mg  Mg109  1  0.40037798  0.40020533  0.66632518  1
  Mg  Mg110  1  0.99982735  0.59962202  0.66632518  1
  Mg  Mg111  1  0.59979567  0.59962302  0.66632518  1
  Mg  Mg112  1  0.20046003  0.00001456  0.66660364  1
  Mg  Mg113  1  0.79955453  0.00001456  0.66660364  1
  Mg  Mg114  1  0.20046003  0.20044547  0.66660364  1
  Mg  Mg115  1  0.99998544  0.20044547  0.66660364  1
  Mg  Mg116  1  0.99998544  0.79953997  0.66660364  1
  Mg  Mg117  1  0.79955453  0.79953997  0.66660364  1
  Mg  Mg118  1  0.59998243  0.19996586  0.66720352  1
  Mg  Mg119  1  0.59998243  0.40001657  0.66720352  1
  Mg  Mg120  1  0.80003414  0.40001757  0.66720352  1
  Mg  Mg121  1  0.80014741  0.19985359  0.66712789  1
  Mg  Mg122  1  0.39970717  0.19985359  0.66712789  1
  Mg  Mg123  1  0.80014741  0.60029383  0.66712789  1
  Mg  Mg124  1  0.06768179  0.13536258  0.83093228  1
  Mg  Mg125  1  0.06768179  0.93231821  0.83093228  1
  Mg  Mg126  1  0.86463742  0.93231921  0.83093228  1
  Mg  Mg127  1  0.06787985  0.33539591  0.83245244  1
  Mg  Mg128  1  0.26751606  0.33539591  0.83245244  1
  Mg  Mg129  1  0.66460409  0.73248394  0.83245244  1
  Mg  Mg130  1  0.06787985  0.73248394  0.83245244  1
  Mg  Mg131  1  0.66460409  0.93211915  0.83245244  1
  Mg  Mg132  1  0.26751606  0.93211915  0.83245244  1
  Mg  Mg133  1  0.26709174  0.53418349  0.83270958  1
  Mg  Mg134  1  0.26709174  0.73290826  0.83270958  1
  Mg  Mg135  1  0.46581551  0.73290826  0.83270958  1
  Mg  Mg136  1  0.46666226  0.53333774  0.83284718  1
  Mg  Mg137  1  0.06667549  0.53333774  0.83284718  1
  Mg  Mg138  1  0.46666226  0.93332451  0.83284718  1
  Mg  Mg139  1  0.66729299  0.13296129  0.83349345  1
  Mg  Mg140  1  0.46566830  0.13296129  0.83349345  1
  Mg  Mg141  1  0.86703871  0.33270701  0.83349345  1
  Mg  Mg142  1  0.46566830  0.33270701  0.83349345  1
  Mg  Mg143  1  0.86703871  0.53433170  0.83349345  1
  Mg  Mg144  1  0.66729299  0.53433170  0.83349345  1
  Mg  Mg145  1  0.66666700  0.33333300  0.83386460  1
  Mg  Mg146  1  0.26409312  0.13204706  0.83519522  1
  Mg  Mg147  1  0.86795394  0.13204706  0.83519522  1
  Mg  Mg148  1  0.86795394  0.73590688  0.83519522  1
loop_
_geom_bond_atom_site_label_1
_geom_bond_atom_site_label_2
_geom_bond_distance
_geom_bond_site_symmetry_2
Er0 Mg48 3.234400 1_445
Er0 Mg126 3.234400 1_444
Er0 Mg46 3.234401 1_555
Er0 Mg124 3.234401 1_554
Er0 Mg47 3.234409 1_545
Er0 Mg125 3.234409 1_544
Er0 Mg18 3.238323 1_445
Er0 Mg3 3.238323 1_555
Er0 Mg20 3.238323 1_445
Er0 Mg21 3.238323 1_545
Er0 Mg4 3.238324 1_555
Er0 Mg17 3.238324 1_545
Mg0 Mg1 3.179275 1_555
Mg0 Mg2 3.179291 1_555
Mg0 Mg27 3.181149 1_555
Mg0 Mg145 3.181149 1_554
Mg0 Mg140 3.193431 1_554
Mg0 Mg29 3.193431 1_555
Mg0 Mg139 3.193432 1_554
Mg0 Mg28 3.193432 1_555
Mg0 Mg8 3.193676 1_555
Mg0 Mg7 3.193677 1_555
Mg0 Mg23 3.193865 1_545
Mg0 Mg22 3.193871 1_545
Mg1 Mg29 3.176167 1_555
Mg1 Mg140 3.176167 1_554
Mg1 Mg31 3.176175 1_555
Mg1 Mg142 3.176175 1_554
Mg1 Mg7 3.179283 1_555
Mg1 Mg146 3.194047 1_554
Mg1 Mg24 3.194059 1_555
Mg1 Mg22 3.194708 1_545
Mg1 Mg6 3.194740 1_555
Mg1 Mg21 3.215489 1_545
Mg1 Mg3 3.215497 1_555
Mg2 Mg28 3.176174 1_555
Mg2 Mg30 3.176175 1_555
Mg2 Mg8 3.179292 1_555
Mg2 Mg25 3.194051 1_555
Mg2 Mg23 3.194723 1_545
Mg2 Mg5 3.194731 1_655
Mg2 Mg4 3.215481 1_655
Mg2 Mg20 3.215482 1_545
Mg3 Mg6 3.147998 1_555
Mg3 Mg9 3.172323 1_555
Mg3 Mg4 3.175158 1_555
Mg3 Mg41 3.182262 1_555
Mg3 Mg46 3.222432 1_555
Mg4 Mg5 3.147999 1_555
Mg4 Mg9 3.172322 1_555
Mg4 Mg40 3.182262 1_555
Mg4 Mg46 3.222441 1_555
Mg5 Mg9 3.191462 1_555
Mg5 Mg8 3.193880 1_455
Mg6 Mg9 3.191462 1_555
Mg6 Mg7 3.193880 1_555
Mg7 Mg8 3.193676 1_555
Mg10 Mg32 3.176167 1_555
Mg10 Mg143 3.176167 1_554
Mg10 Mg33 3.176174 1_555
Mg10 Mg144 3.176174 1_554
Mg10 Mg8 3.179276 1_555
Mg10 Mg7 3.179283 1_555
Mg10 Mg148 3.194047 1_554
Mg10 Mg26 3.194060 1_555
Mg10 Mg14 3.194723 1_655
Mg10 Mg13 3.194731 1_555
Mg10 Mg17 3.215489 1_655
Mg10 Mg18 3.215498 1_555
Mg11 Mg9 3.159127 1_555
Mg11 Mg16 3.159127 1_555
Mg11 Mg12 3.183100 1_555
Mg11 Mg19 3.183101 1_555
Mg11 Mg133 3.190567 1_554
Mg11 Mg135 3.190567 1_554
Mg11 Mg37 3.190579 1_555
Mg11 Mg39 3.190580 1_555
Mg11 Mg6 3.195720 1_555
Mg11 Mg13 3.195727 1_555
Mg11 Mg136 3.196963 1_554
Mg11 Mg34 3.196963 1_555
Mg12 Mg15 3.159128 1_555
Mg12 Mg9 3.159128 1_555
Mg12 Mg19 3.183100 1_555
Mg12 Mg133 3.190567 1_554
Mg12 Mg134 3.190567 1_554
Mg12 Mg37 3.190580 1_555
Mg12 Mg38 3.190580 1_555
Mg12 Mg5 3.195719 1_555
Mg12 Mg14 3.195719 1_555
Mg12 Mg137 3.196962 1_554
Mg12 Mg35 3.196962 1_555
Mg13 Mg18 3.148007 1_555
Mg13 Mg33 3.183771 1_555
Mg13 Mg144 3.183771 1_554
Mg13 Mg16 3.191479 1_555
Mg13 Mg42 3.191792 1_555
Mg13 Mg6 3.192048 1_555
Mg13 Mg136 3.193082 1_554
Mg13 Mg34 3.193082 1_555
Mg13 Mg7 3.193865 1_555
Mg14 Mg17 3.147999 1_555
Mg14 Mg32 3.183779 1_455
Mg14 Mg143 3.183779 1_454
Mg14 Mg15 3.191462 1_555
Mg14 Mg43 3.191784 1_555
Mg14 Mg5 3.192057 1_555
Mg14 Mg35 3.193083 1_555
Mg14 Mg8 3.193879 1_455
Mg15 Mg19 3.159127 1_555
Mg15 Mg17 3.172322 1_555
Mg15 Mg21 3.172323 1_555
Mg15 Mg38 3.179989 1_555
Mg15 Mg22 3.191470 1_555
Mg15 Mg45 3.200387 1_555
Mg15 Mg43 3.200395 1_555
Mg16 Mg19 3.159127 1_555
Mg16 Mg20 3.172322 1_555
Mg16 Mg18 3.172322 1_555
Mg16 Mg39 3.179997 1_555
Mg16 Mg23 3.191479 1_555
Mg16 Mg44 3.200387 1_555
Mg16 Mg42 3.200395 1_555
Mg17 Mg21 3.175158 1_555
Mg17 Mg26 3.175726 1_455
Mg17 Mg43 3.182262 1_555
Mg17 Mg47 3.222432 1_555
Mg17 Mg18 3.301079 1_455
Mg18 Mg20 3.175159 1_555
Mg18 Mg26 3.175734 1_555
Mg18 Mg42 3.182262 1_555
Mg18 Mg48 3.222440 1_555
Mg19 Mg39 3.190572 1_555
Mg19 Mg38 3.190579 1_555
Mg19 Mg23 3.195727 1_555
Mg19 Mg22 3.195736 1_555
Mg19 Mg36 3.196963 1_555
Mg20 Mg23 3.148007 1_555
Mg20 Mg25 3.175734 1_565
Mg20 Mg44 3.182262 1_555
Mg20 Mg48 3.222433 1_555
Mg20 Mg4 3.301079 1_665
Mg21 Mg22 3.147991 1_555
Mg21 Mg24 3.175734 1_565
Mg21 Mg45 3.182270 1_555
Mg21 Mg47 3.222432 1_555
Mg21 Mg3 3.301080 1_565
Mg22 Mg29 3.183771 1_565
Mg22 Mg45 3.191784 1_555
Mg22 Mg23 3.192056 1_555
Mg22 Mg36 3.193091 1_555
Mg23 Mg28 3.183771 1_565
Mg23 Mg44 3.191800 1_555
Mg23 Mg36 3.193082 1_555
Mg24 Mg46 3.162990 1_555
Mg24 Mg47 3.163006 1_545
Mg24 Mg3 3.175726 1_555
Mg24 Mg57 3.202094 1_555
Mg24 Mg55 3.202102 1_555
Mg24 Mg31 3.210758 1_555
Mg24 Mg29 3.210766 1_555
Mg24 Mg41 3.219555 1_555
Mg24 Mg45 3.219587 1_545
Mg24 Mg50 3.223690 1_555
Mg25 Mg48 3.162999 1_545
Mg25 Mg46 3.163006 1_655
Mg25 Mg4 3.175726 1_655
Mg25 Mg58 3.202094 1_555
Mg25 Mg56 3.202102 1_555
Mg25 Mg30 3.210759 1_555
Mg25 Mg28 3.210766 1_555
Mg25 Mg40 3.219554 1_655
Mg25 Mg44 3.219578 1_545
Mg25 Mg49 3.223682 1_555
Mg26 Mg47 3.162998 1_655
Mg26 Mg48 3.163015 1_555
Mg26 Mg59 3.202094 1_555
Mg26 Mg60 3.202102 1_555
Mg26 Mg32 3.210759 1_555
Mg26 Mg33 3.210766 1_555
Mg26 Mg43 3.219554 1_655
Mg26 Mg42 3.219570 1_555
Mg26 Mg51 3.223682 1_555
Mg27 Mg8 3.181148 1_555
Mg27 Mg7 3.181157 1_555
Mg27 Mg54 3.187811 1_555
Mg27 Mg52 3.187811 1_555
Mg27 Mg53 3.187819 1_555
Mg27 Mg30 3.203731 1_555
Mg27 Mg28 3.203732 1_555
Mg27 Mg29 3.203739 1_555
Mg27 Mg32 3.203739 1_555
Mg27 Mg31 3.203747 1_555
Mg27 Mg33 3.203748 1_555
Mg28 Mg49 3.179959 1_555
Mg28 Mg44 3.185024 1_545
Mg28 Mg30 3.188724 1_555
Mg28 Mg61 3.189696 1_555
Mg28 Mg52 3.190699 1_555
Mg28 Mg36 3.194964 1_545
Mg28 Mg29 3.218720 1_555
Mg29 Mg50 3.179952 1_555
Mg29 Mg45 3.185015 1_545
Mg29 Mg31 3.188725 1_555
Mg29 Mg62 3.189696 1_555
Mg29 Mg52 3.190691 1_555
Mg29 Mg36 3.194965 1_545
Mg30 Mg49 3.179952 1_555
Mg30 Mg5 3.183779 1_655
Mg30 Mg40 3.185007 1_655
Mg30 Mg63 3.189696 1_555
Mg30 Mg54 3.190699 1_555
Mg30 Mg8 3.193432 1_555
Mg30 Mg35 3.194964 1_655
Mg30 Mg32 3.218721 1_555
Mg31 Mg50 3.179952 1_555
Mg31 Mg6 3.183779 1_555
Mg31 Mg41 3.185007 1_555
Mg31 Mg64 3.189696 1_555
Mg31 Mg53 3.190691 1_555
Mg31 Mg7 3.193431 1_555
Mg31 Mg34 3.194965 1_555
Mg31 Mg33 3.218719 1_555
Mg32 Mg51 3.179952 1_555
Mg32 Mg43 3.185007 1_655
Mg32 Mg33 3.188724 1_555
Mg32 Mg65 3.189696 1_555
Mg32 Mg54 3.190691 1_555
Mg32 Mg8 3.193432 1_555
Mg32 Mg35 3.194964 1_655
Mg33 Mg51 3.179959 1_555
Mg33 Mg42 3.185008 1_555
Mg33 Mg66 3.189696 1_555
Mg33 Mg53 3.190699 1_555
Mg33 Mg7 3.193432 1_555
Mg33 Mg34 3.194964 1_555
Mg34 Mg41 3.169590 1_555
Mg34 Mg42 3.169590 1_555
Mg34 Mg64 3.184155 1_555
Mg34 Mg66 3.184162 1_555
Mg34 Mg67 3.184512 1_555
Mg34 Mg37 3.192700 1_555
Mg34 Mg39 3.192709 1_555
Mg34 Mg6 3.193083 1_555
Mg35 Mg40 3.169591 1_555
Mg35 Mg43 3.169591 1_555
Mg35 Mg65 3.184155 1_455
Mg35 Mg63 3.184163 1_455
Mg35 Mg68 3.184512 1_555
Mg35 Mg37 3.192700 1_555
Mg35 Mg38 3.192700 1_555
Mg35 Mg5 3.193083 1_555
Mg36 Mg45 3.169582 1_555
Mg36 Mg44 3.169598 1_555
Mg36 Mg62 3.184155 1_565
Mg36 Mg61 3.184162 1_565
Mg36 Mg69 3.184512 1_555
Mg36 Mg39 3.192693 1_555
Mg36 Mg38 3.192700 1_555
Mg37 Mg39 3.172417 1_555
Mg37 Mg38 3.172426 1_555
Mg37 Mg40 3.176823 1_555
Mg37 Mg41 3.176824 1_555
Mg37 Mg9 3.179989 1_555
Mg37 Mg67 3.181209 1_555
Mg37 Mg68 3.181217 1_555
Mg37 Mg70 3.192555 1_555
Mg38 Mg39 3.172409 1_555
Mg38 Mg45 3.176808 1_555
Mg38 Mg43 3.176823 1_555
Mg38 Mg69 3.181209 1_555
Mg38 Mg68 3.181209 1_555
Mg38 Mg71 3.192555 1_555
Mg39 Mg44 3.176823 1_555
Mg39 Mg42 3.176839 1_555
Mg39 Mg69 3.181209 1_555
Mg39 Mg67 3.181217 1_555
Mg39 Mg72 3.192563 1_555
Mg40 Mg63 3.177061 1_455
Mg40 Mg70 3.177634 1_555
Mg40 Mg41 3.186976 1_555
Mg40 Mg58 3.190252 1_455
Mg40 Mg5 3.191784 1_555
Mg40 Mg46 3.191825 1_555
Mg40 Mg9 3.200395 1_555
Mg41 Mg64 3.177069 1_555
Mg41 Mg70 3.177634 1_555
Mg41 Mg57 3.190252 1_555
Mg41 Mg6 3.191784 1_555
Mg41 Mg46 3.191816 1_555
Mg41 Mg9 3.200395 1_555
Mg42 Mg66 3.177061 1_555
Mg42 Mg72 3.177634 1_555
Mg42 Mg44 3.186961 1_555
Mg42 Mg60 3.190251 1_555
Mg42 Mg48 3.191823 1_555
Mg43 Mg65 3.177069 1_455
Mg43 Mg71 3.177634 1_555
Mg43 Mg45 3.186968 1_555
Mg43 Mg59 3.190252 1_455
Mg43 Mg47 3.191809 1_555
Mg44 Mg61 3.177069 1_565
Mg44 Mg72 3.177626 1_555
Mg44 Mg56 3.190252 1_565
Mg44 Mg48 3.191808 1_555
Mg45 Mg62 3.177069 1_565
Mg45 Mg71 3.177626 1_555
Mg45 Mg55 3.190260 1_565
Mg45 Mg47 3.191816 1_555
Mg46 Mg57 3.153528 1_555
Mg46 Mg58 3.153536 1_455
Mg46 Mg73 3.189820 1_555
Mg46 Mg48 3.241375 1_445
Mg46 Mg47 3.241384 1_545
Mg47 Mg55 3.153528 1_565
Mg47 Mg59 3.153528 1_455
Mg47 Mg73 3.189829 1_565
Mg47 Mg48 3.241391 1_455
Mg48 Mg56 3.153528 1_565
Mg48 Mg60 3.153536 1_555
Mg48 Mg73 3.189820 1_665
Mg49 Mg58 3.185494 1_555
Mg49 Mg56 3.185503 1_555
Mg49 Mg75 3.188661 1_555
Mg49 Mg79 3.191472 1_555
Mg49 Mg77 3.191488 1_555
Mg49 Mg63 3.193066 1_555
Mg49 Mg61 3.193082 1_555
Mg49 Mg54 3.196307 1_555
Mg49 Mg52 3.196314 1_555
Mg50 Mg55 3.185510 1_555
Mg50 Mg57 3.185510 1_555
Mg50 Mg74 3.188677 1_555
Mg50 Mg80 3.191472 1_555
Mg50 Mg78 3.191472 1_555
Mg50 Mg64 3.193083 1_555
Mg50 Mg62 3.193083 1_555
Mg50 Mg53 3.196282 1_555
Mg50 Mg52 3.196282 1_555
Mg51 Mg59 3.185494 1_555
Mg51 Mg60 3.185503 1_555
Mg51 Mg89 3.188669 1_555
Mg51 Mg85 3.191472 1_555
Mg51 Mg84 3.191488 1_555
Mg51 Mg65 3.193074 1_555
Mg51 Mg66 3.193082 1_555
Mg51 Mg54 3.196291 1_555
Mg51 Mg53 3.196314 1_555
Mg52 Mg62 3.188006 1_555
Mg52 Mg61 3.188023 1_555
Mg52 Mg78 3.191652 1_555
Mg52 Mg77 3.191660 1_555
Mg52 Mg53 3.193594 1_555
Mg52 Mg54 3.193609 1_555
Mg52 Mg81 3.194719 1_555
Mg53 Mg64 3.188006 1_555
Mg53 Mg66 3.188023 1_555
Mg53 Mg80 3.191652 1_555
Mg53 Mg84 3.191660 1_555
Mg53 Mg54 3.193601 1_555
Mg53 Mg81 3.194727 1_555
Mg54 Mg65 3.188006 1_555
Mg54 Mg63 3.188022 1_555
Mg54 Mg85 3.191652 1_555
Mg54 Mg79 3.191660 1_555
Mg54 Mg81 3.194719 1_555
Mg55 Mg96 3.184382 1_545
Mg55 Mg74 3.187929 1_555
Mg55 Mg94 3.189576 1_545
Mg55 Mg62 3.190215 1_555
Mg55 Mg71 3.194124 1_545
Mg55 Mg57 3.199663 1_555
Mg55 Mg73 3.200068 1_555
Mg55 Mg59 3.200359 1_445
Mg56 Mg97 3.184382 1_545
Mg56 Mg75 3.187929 1_555
Mg56 Mg95 3.189576 1_545
Mg56 Mg61 3.190199 1_555
Mg56 Mg72 3.194123 1_545
Mg56 Mg58 3.199662 1_555
Mg56 Mg73 3.200068 1_655
Mg56 Mg60 3.200360 1_545
Mg57 Mg83 3.184390 1_555
Mg57 Mg74 3.187921 1_555
Mg57 Mg76 3.189576 1_555
Mg57 Mg64 3.190215 1_555
Mg57 Mg70 3.194124 1_555
Mg57 Mg73 3.200068 1_555
Mg57 Mg58 3.200359 1_455
Mg58 Mg82 3.184382 1_655
Mg58 Mg75 3.187929 1_555
Mg58 Mg76 3.189576 1_655
Mg58 Mg63 3.190200 1_555
Mg58 Mg70 3.194123 1_655
Mg58 Mg73 3.200069 1_655
Mg59 Mg91 3.184382 1_655
Mg59 Mg89 3.187929 1_555
Mg59 Mg94 3.189576 1_655
Mg59 Mg65 3.190216 1_555
Mg59 Mg71 3.194123 1_655
Mg59 Mg60 3.199662 1_555
Mg59 Mg73 3.200069 1_665
Mg60 Mg90 3.184382 1_555
Mg60 Mg89 3.187921 1_555
Mg60 Mg95 3.189576 1_555
Mg60 Mg66 3.190199 1_555
Mg60 Mg72 3.194123 1_555
Mg60 Mg73 3.200068 1_665
Mg61 Mg98 3.179315 1_545
Mg61 Mg62 3.183487 1_555
Mg61 Mg97 3.185666 1_545
Mg61 Mg77 3.187799 1_555
Mg61 Mg69 3.190769 1_545
Mg61 Mg72 3.197178 1_545
Mg62 Mg98 3.179316 1_545
Mg62 Mg96 3.185674 1_545
Mg62 Mg78 3.187807 1_555
Mg62 Mg69 3.190754 1_545
Mg62 Mg71 3.197185 1_545
Mg63 Mg87 3.179324 1_655
Mg63 Mg65 3.183488 1_555
Mg63 Mg82 3.185666 1_655
Mg63 Mg79 3.187807 1_555
Mg63 Mg68 3.190769 1_655
Mg63 Mg70 3.197177 1_655
Mg64 Mg86 3.179316 1_555
Mg64 Mg66 3.183487 1_555
Mg64 Mg83 3.185674 1_555
Mg64 Mg80 3.187807 1_555
Mg64 Mg67 3.190754 1_555
Mg64 Mg70 3.197185 1_555
Mg65 Mg87 3.179308 1_655
Mg65 Mg91 3.185674 1_655
Mg65 Mg85 3.187807 1_555
Mg65 Mg68 3.190753 1_655
Mg65 Mg71 3.197185 1_655
Mg66 Mg86 3.179315 1_555
Mg66 Mg90 3.185658 1_555
Mg66 Mg84 3.187799 1_555
Mg66 Mg67 3.190769 1_555
Mg66 Mg72 3.197178 1_555
Mg67 Mg88 3.183343 1_555
Mg67 Mg93 3.183351 1_555
Mg67 Mg86 3.186754 1_555
Mg67 Mg70 3.188023 1_555
Mg67 Mg72 3.188039 1_555
Mg67 Mg68 3.196318 1_555
Mg67 Mg69 3.196327 1_555
Mg68 Mg92 3.183343 1_555
Mg68 Mg88 3.183351 1_555
Mg68 Mg87 3.186754 1_555
Mg68 Mg71 3.188025 1_555
Mg68 Mg70 3.188040 1_555
Mg68 Mg69 3.196310 1_555
Mg69 Mg92 3.183343 1_555
Mg69 Mg93 3.183351 1_555
Mg69 Mg98 3.186754 1_555
Mg69 Mg71 3.188024 1_555
Mg69 Mg72 3.188040 1_555
Mg70 Mg88 3.176195 1_555
Mg70 Mg83 3.179418 1_555
Mg70 Mg82 3.179426 1_555
Mg71 Mg92 3.176195 1_555
Mg71 Mg91 3.179426 1_555
Mg71 Mg96 3.179426 1_555
Mg72 Mg93 3.176195 1_555
Mg72 Mg97 3.179426 1_555
Mg72 Mg90 3.179434 1_555
Mg73 Mg95 3.173067 1_445
Mg73 Mg94 3.173067 1_545
Mg73 Mg76 3.173067 1_555
Mg74 Mg80 3.188538 1_555
Mg74 Mg78 3.188546 1_555
Mg74 Mg96 3.194446 1_545
Mg74 Mg83 3.194446 1_555
Mg74 Mg76 3.196499 1_555
Mg74 Mg94 3.196507 1_545
Mg75 Mg79 3.188531 1_555
Mg75 Mg77 3.188538 1_555
Mg75 Mg82 3.194437 1_655
Mg75 Mg97 3.194437 1_545
Mg75 Mg76 3.196515 1_655
Mg75 Mg95 3.196516 1_545
Mg76 Mg99 3.173067 1_555
Mg76 Mg82 3.191856 1_555
Mg76 Mg83 3.191863 1_555
Mg76 Mg95 3.198185 1_445
Mg76 Mg94 3.198186 1_545
Mg77 Mg79 3.174620 1_555
Mg77 Mg81 3.184231 1_555
Mg77 Mg78 3.193838 1_555
Mg77 Mg98 3.194885 1_545
Mg77 Mg97 3.201223 1_545
Mg78 Mg80 3.174605 1_555
Mg78 Mg81 3.184230 1_555
Mg78 Mg98 3.194910 1_545
Mg78 Mg96 3.201230 1_545
Mg79 Mg81 3.184222 1_555
Mg79 Mg85 3.193847 1_555
Mg79 Mg87 3.194909 1_655
Mg79 Mg82 3.201230 1_655
Mg80 Mg81 3.184238 1_555
Mg80 Mg84 3.193838 1_555
Mg80 Mg86 3.194910 1_555
Mg80 Mg83 3.201238 1_555
Mg81 Mg85 3.184230 1_555
Mg81 Mg84 3.184247 1_555
Mg82 Mg87 3.191032 1_555
Mg82 Mg88 3.192683 1_555
Mg82 Mg83 3.193016 1_555
Mg83 Mg86 3.191023 1_555
Mg83 Mg88 3.192668 1_555
Mg84 Mg85 3.174620 1_555
Mg84 Mg89 3.188546 1_555
Mg84 Mg86 3.194885 1_555
Mg84 Mg90 3.201207 1_555
Mg85 Mg89 3.188547 1_555
Mg85 Mg87 3.194901 1_655
Mg85 Mg91 3.201230 1_655
Mg86 Mg90 3.191007 1_555
Mg86 Mg93 3.199753 1_555
Mg86 Mg88 3.199760 1_555
Mg87 Mg91 3.191016 1_555
Mg87 Mg92 3.199752 1_555
Mg87 Mg88 3.199760 1_555
Mg88 Mg93 3.189679 1_555
Mg88 Mg92 3.189681 1_555
Mg89 Mg90 3.194421 1_555
Mg89 Mg91 3.194445 1_655
Mg89 Mg95 3.196500 1_555
Mg89 Mg94 3.196507 1_655
Mg90 Mg95 3.191863 1_555
Mg90 Mg93 3.192691 1_555
Mg90 Mg97 3.193041 1_555
Mg91 Mg94 3.191856 1_555
Mg91 Mg92 3.192683 1_555
Mg91 Mg96 3.193024 1_555
Mg92 Mg93 3.189680 1_555
Mg92 Mg96 3.192684 1_555
Mg92 Mg98 3.199760 1_555
Mg93 Mg97 3.192683 1_555
Mg93 Mg98 3.199753 1_555
Mg94 Mg99 3.173067 1_565
Mg94 Mg96 3.191855 1_555
Mg94 Mg95 3.198185 1_455
Mg95 Mg99 3.173067 1_665
Mg95 Mg97 3.191855 1_555
Mg96 Mg98 3.191031 1_555
Mg97 Mg98 3.191015 1_555
Mg100 Mg88 3.176195 1_555
Mg100 Mg127 3.177634 1_555
Mg100 Mg128 3.177634 1_555
Mg100 Mg83 3.179418 1_555
Mg100 Mg82 3.179426 1_555
Mg100 Mg103 3.188023 1_555
Mg100 Mg104 3.188041 1_555
Mg100 Mg133 3.192568 1_555
Mg100 Mg115 3.194123 1_455
Mg100 Mg114 3.194124 1_555
Mg100 Mg108 3.197177 1_455
Mg100 Mg109 3.197185 1_555
Mg101 Mg92 3.176195 1_555
Mg101 Mg132 3.177626 1_555
Mg101 Mg130 3.177634 1_555
Mg101 Mg91 3.179426 1_555
Mg101 Mg96 3.179426 1_555
Mg101 Mg105 3.188024 1_555
Mg101 Mg104 3.188025 1_555
Mg101 Mg134 3.192568 1_555
Mg101 Mg116 3.194123 1_455
Mg101 Mg112 3.194124 1_565
Mg101 Mg110 3.197185 1_455
Mg101 Mg107 3.197185 1_565
Mg102 Mg93 3.176195 1_555
Mg102 Mg131 3.177626 1_555
Mg102 Mg129 3.177634 1_555
Mg102 Mg97 3.179426 1_555
Mg102 Mg90 3.179434 1_555
Mg102 Mg103 3.188039 1_555
Mg102 Mg105 3.188040 1_555
Mg102 Mg135 3.192576 1_555
Mg102 Mg113 3.194123 1_565
Mg102 Mg117 3.194123 1_555
Mg102 Mg106 3.197178 1_565
Mg102 Mg111 3.197178 1_555
Mg103 Mg133 3.181209 1_555
Mg103 Mg135 3.181217 1_555
Mg103 Mg88 3.183356 1_555
Mg103 Mg93 3.183364 1_555
Mg103 Mg136 3.184500 1_555
Mg103 Mg86 3.186767 1_555
Mg103 Mg109 3.190754 1_555
Mg103 Mg111 3.190769 1_555
Mg103 Mg104 3.196318 1_555
Mg103 Mg105 3.196327 1_555
Mg104 Mg134 3.181209 1_555
Mg104 Mg133 3.181217 1_555
Mg104 Mg92 3.183356 1_555
Mg104 Mg88 3.183364 1_555
Mg104 Mg137 3.184499 1_555
Mg104 Mg87 3.186767 1_555
Mg104 Mg110 3.190753 1_455
Mg104 Mg108 3.190769 1_455
Mg104 Mg105 3.196310 1_555
Mg105 Mg134 3.181209 1_555
Mg105 Mg135 3.181209 1_555
Mg105 Mg92 3.183356 1_555
Mg105 Mg93 3.183364 1_555
Mg105 Mg138 3.184500 1_555
Mg105 Mg98 3.186767 1_555
Mg105 Mg107 3.190754 1_565
Mg105 Mg106 3.190769 1_565
Mg106 Mg131 3.177082 1_545
Mg106 Mg98 3.179303 1_545
Mg106 Mg107 3.183487 1_555
Mg106 Mg138 3.184175 1_545
Mg106 Mg97 3.185654 1_545
Mg106 Mg77 3.187787 1_555
Mg106 Mg118 3.188023 1_555
Mg106 Mg139 3.189709 1_555
Mg106 Mg113 3.190199 1_555
Mg106 Mg121 3.193082 1_555
Mg107 Mg132 3.177082 1_545
Mg107 Mg98 3.179303 1_545
Mg107 Mg138 3.184167 1_545
Mg107 Mg96 3.185661 1_545
Mg107 Mg78 3.187795 1_555
Mg107 Mg118 3.188006 1_555
Mg107 Mg140 3.189709 1_555
Mg107 Mg112 3.190215 1_555
Mg107 Mg122 3.193083 1_555
Mg108 Mg127 3.177074 1_655
Mg108 Mg87 3.179311 1_655
Mg108 Mg110 3.183488 1_555
Mg108 Mg137 3.184175 1_655
Mg108 Mg82 3.185654 1_655
Mg108 Mg79 3.187794 1_555
Mg108 Mg120 3.188022 1_555
Mg108 Mg141 3.189709 1_555
Mg108 Mg115 3.190200 1_555
Mg108 Mg121 3.193066 1_555
Mg109 Mg128 3.177082 1_555
Mg109 Mg86 3.179303 1_555
Mg109 Mg111 3.183487 1_555
Mg109 Mg136 3.184167 1_555
Mg109 Mg83 3.185661 1_555
Mg109 Mg80 3.187795 1_555
Mg109 Mg119 3.188006 1_555
Mg109 Mg142 3.189709 1_555
Mg109 Mg114 3.190215 1_555
Mg109 Mg122 3.193083 1_555
Mg110 Mg130 3.177082 1_655
Mg110 Mg87 3.179295 1_655
Mg110 Mg137 3.184167 1_655
Mg110 Mg91 3.185662 1_655
Mg110 Mg85 3.187794 1_555
Mg110 Mg120 3.188006 1_555
Mg110 Mg143 3.189709 1_555
Mg110 Mg116 3.190216 1_555
Mg110 Mg123 3.193074 1_555
Mg111 Mg129 3.177074 1_555
Mg111 Mg86 3.179303 1_555
Mg111 Mg136 3.184175 1_555
Mg111 Mg90 3.185646 1_555
Mg111 Mg84 3.187787 1_555
Mg111 Mg119 3.188023 1_555
Mg111 Mg144 3.189709 1_555
Mg111 Mg117 3.190199 1_555
Mg111 Mg123 3.193082 1_555
Mg112 Mg125 3.153515 1_545
Mg112 Mg96 3.184395 1_545
Mg112 Mg122 3.185510 1_555
Mg112 Mg74 3.187942 1_555
Mg112 Mg94 3.189589 1_545
Mg112 Mg132 3.190247 1_545
Mg112 Mg114 3.199663 1_555
Mg112 Mg99 3.200068 1_555
Mg112 Mg116 3.200359 1_445
Mg112 Mg146 3.202102 1_555
Mg113 Mg126 3.153515 1_545
Mg113 Mg97 3.184395 1_545
Mg113 Mg121 3.185503 1_555
Mg113 Mg75 3.187942 1_555
Mg113 Mg95 3.189589 1_545
Mg113 Mg131 3.190239 1_545
Mg113 Mg115 3.199662 1_555
Mg113 Mg99 3.200068 1_655
Mg113 Mg117 3.200360 1_545
Mg113 Mg147 3.202102 1_555
Mg114 Mg124 3.153515 1_555
Mg114 Mg83 3.184403 1_555
Mg114 Mg122 3.185510 1_555
Mg114 Mg74 3.187934 1_555
Mg114 Mg76 3.189589 1_555
Mg114 Mg128 3.190239 1_555
Mg114 Mg99 3.200068 1_555
Mg114 Mg115 3.200359 1_455
Mg114 Mg146 3.202094 1_555
Mg115 Mg124 3.153523 1_655
Mg115 Mg82 3.184395 1_655
Mg115 Mg121 3.185494 1_555
Mg115 Mg75 3.187941 1_555
Mg115 Mg76 3.189589 1_655
Mg115 Mg127 3.190239 1_655
Mg115 Mg99 3.200069 1_655
Mg115 Mg147 3.202094 1_555
Mg116 Mg125 3.153515 1_655
Mg116 Mg91 3.184395 1_655
Mg116 Mg123 3.185494 1_555
Mg116 Mg89 3.187941 1_555
Mg116 Mg94 3.189589 1_655
Mg116 Mg130 3.190239 1_655
Mg116 Mg117 3.199662 1_555
Mg116 Mg99 3.200069 1_665
Mg116 Mg148 3.202094 1_555
Mg117 Mg126 3.153523 1_555
Mg117 Mg90 3.184395 1_555
Mg117 Mg123 3.185503 1_555
Mg117 Mg89 3.187934 1_555
Mg117 Mg95 3.189589 1_555
Mg117 Mg129 3.190239 1_555
Mg117 Mg99 3.200068 1_665
Mg117 Mg148 3.202102 1_555
Mg118 Mg145 3.187811 1_555
Mg118 Mg140 3.190691 1_555
Mg118 Mg139 3.190699 1_555
Mg118 Mg78 3.191652 1_555
Mg118 Mg77 3.191660 1_555
Mg118 Mg119 3.193594 1_555
Mg118 Mg120 3.193609 1_555
Mg118 Mg81 3.194719 1_555
Mg118 Mg122 3.196282 1_555
Mg118 Mg121 3.196314 1_555
Mg119 Mg145 3.187819 1_555
Mg119 Mg142 3.190691 1_555
Mg119 Mg144 3.190699 1_555
Mg119 Mg80 3.191652 1_555
Mg119 Mg84 3.191660 1_555
Mg119 Mg120 3.193601 1_555
Mg119 Mg81 3.194727 1_555
Mg119 Mg122 3.196282 1_555
Mg119 Mg123 3.196314 1_555
Mg120 Mg145 3.187811 1_555
Mg120 Mg143 3.190691 1_555
Mg120 Mg141 3.190699 1_555
Mg120 Mg85 3.191652 1_555
Mg120 Mg79 3.191660 1_555
Mg120 Mg81 3.194719 1_555
Mg120 Mg123 3.196291 1_555
Mg120 Mg121 3.196307 1_555
Mg121 Mg141 3.179952 1_555
Mg121 Mg139 3.179959 1_555
Mg121 Mg75 3.188661 1_555
Mg121 Mg79 3.191472 1_555
Mg121 Mg77 3.191488 1_555
Mg121 Mg147 3.223695 1_555
Mg122 Mg142 3.179952 1_555
Mg122 Mg140 3.179952 1_555
Mg122 Mg74 3.188677 1_555
Mg122 Mg80 3.191472 1_555
Mg122 Mg78 3.191472 1_555
Mg122 Mg146 3.223702 1_555
Mg123 Mg143 3.179952 1_555
Mg123 Mg144 3.179959 1_555
Mg123 Mg89 3.188669 1_555
Mg123 Mg85 3.191472 1_555
Mg123 Mg84 3.191488 1_555
Mg123 Mg148 3.223695 1_555
Mg124 Mg146 3.162990 1_555
Mg124 Mg147 3.163006 1_455
Mg124 Mg99 3.189820 1_555
Mg124 Mg128 3.191816 1_555
Mg124 Mg127 3.191825 1_555
Mg124 Mg3 3.222432 1_556
Mg124 Mg4 3.222441 1_556
Mg124 Mg126 3.241375 1_445
Mg124 Mg125 3.241384 1_545
Mg125 Mg148 3.162998 1_455
Mg125 Mg146 3.163006 1_565
Mg125 Mg99 3.189829 1_565
Mg125 Mg130 3.191809 1_555
Mg125 Mg132 3.191816 1_555
Mg125 Mg21 3.222432 1_556
Mg125 Mg17 3.222432 1_556
Mg125 Mg126 3.241391 1_455
Mg126 Mg147 3.162999 1_565
Mg126 Mg148 3.163015 1_555
Mg126 Mg99 3.189820 1_665
Mg126 Mg131 3.191808 1_555
Mg126 Mg129 3.191823 1_555
Mg126 Mg20 3.222433 1_556
Mg126 Mg18 3.222440 1_556
Mg127 Mg137 3.169591 1_555
Mg127 Mg133 3.176823 1_555
Mg127 Mg4 3.182262 1_556
Mg127 Mg141 3.185007 1_455
Mg127 Mg128 3.186976 1_555
Mg127 Mg5 3.191784 1_556
Mg127 Mg9 3.200395 1_556
Mg127 Mg147 3.219554 1_455
Mg128 Mg136 3.169590 1_555
Mg128 Mg133 3.176824 1_555
Mg128 Mg3 3.182262 1_556
Mg128 Mg142 3.185007 1_555
Mg128 Mg6 3.191784 1_556
Mg128 Mg9 3.200395 1_556
Mg128 Mg146 3.219555 1_555
Mg129 Mg136 3.169590 1_555
Mg129 Mg135 3.176839 1_555
Mg129 Mg18 3.182262 1_556
Mg129 Mg144 3.185008 1_555
Mg129 Mg131 3.186961 1_555
Mg129 Mg13 3.191792 1_556
Mg129 Mg16 3.200395 1_556
Mg129 Mg148 3.219570 1_555
Mg130 Mg137 3.169591 1_555
Mg130 Mg134 3.176823 1_555
Mg130 Mg17 3.182262 1_556
Mg130 Mg143 3.185007 1_455
Mg130 Mg132 3.186968 1_555
Mg130 Mg14 3.191784 1_556
Mg130 Mg15 3.200395 1_556
Mg130 Mg148 3.219554 1_455
Mg131 Mg138 3.169598 1_555
Mg131 Mg135 3.176823 1_555
Mg131 Mg20 3.182262 1_556
Mg131 Mg139 3.185024 1_565
Mg131 Mg23 3.191800 1_556
Mg131 Mg16 3.200387 1_556
Mg131 Mg147 3.219578 1_565
Mg132 Mg138 3.169582 1_555
Mg132 Mg134 3.176808 1_555
Mg132 Mg21 3.182270 1_556
Mg132 Mg140 3.185015 1_565
Mg132 Mg22 3.191784 1_556
Mg132 Mg15 3.200387 1_556
Mg132 Mg146 3.219587 1_565
Mg133 Mg135 3.172417 1_555
Mg133 Mg134 3.172426 1_555
Mg133 Mg9 3.179976 1_556
Mg133 Mg137 3.192699 1_555
Mg133 Mg136 3.192700 1_555
Mg134 Mg135 3.172409 1_555
Mg134 Mg15 3.179976 1_556
Mg134 Mg19 3.190567 1_556
Mg134 Mg137 3.192700 1_555
Mg134 Mg138 3.192700 1_555
Mg135 Mg16 3.179984 1_556
Mg135 Mg19 3.190559 1_556
Mg135 Mg138 3.192693 1_555
Mg135 Mg136 3.192709 1_555
Mg136 Mg6 3.193083 1_556
Mg136 Mg144 3.194964 1_555
Mg136 Mg142 3.194965 1_555
Mg137 Mg5 3.193083 1_556
Mg137 Mg14 3.193083 1_556
Mg137 Mg141 3.194964 1_455
Mg137 Mg143 3.194964 1_455
Mg138 Mg23 3.193082 1_556
Mg138 Mg22 3.193091 1_556
Mg138 Mg139 3.194964 1_565
Mg138 Mg140 3.194965 1_565
Mg138 Mg19 3.196963 1_556
Mg139 Mg2 3.176174 1_556
Mg139 Mg23 3.183771 1_546
Mg139 Mg141 3.188724 1_555
Mg139 Mg145 3.203732 1_555
Mg139 Mg147 3.210767 1_555
Mg139 Mg140 3.218720 1_555
Mg140 Mg22 3.183771 1_546
Mg140 Mg142 3.188725 1_555
Mg140 Mg145 3.203739 1_555
Mg140 Mg146 3.210766 1_555
Mg141 Mg2 3.176175 1_556
Mg141 Mg5 3.183779 1_656
Mg141 Mg8 3.193432 1_556
Mg141 Mg145 3.203731 1_555
Mg141 Mg147 3.210760 1_555
Mg141 Mg143 3.218721 1_555
Mg142 Mg6 3.183779 1_556
Mg142 Mg7 3.193431 1_556
Mg142 Mg145 3.203747 1_555
Mg142 Mg146 3.210758 1_555
Mg142 Mg144 3.218719 1_555
Mg143 Mg144 3.188724 1_555
Mg143 Mg8 3.193432 1_556
Mg143 Mg145 3.203739 1_555
Mg143 Mg148 3.210760 1_555
Mg144 Mg7 3.193432 1_556
Mg144 Mg145 3.203748 1_555
Mg144 Mg148 3.210766 1_555
Mg145 Mg8 3.181148 1_556
Mg145 Mg7 3.181157 1_556
Mg146 Mg3 3.175713 1_556
Mg146 Mg21 3.175722 1_546
Mg147 Mg4 3.175713 1_656
Mg147 Mg20 3.175722 1_546
Mg147 Mg2 3.194039 1_556
Mg148 Mg17 3.175713 1_656
Mg148 Mg18 3.175722 1_556
