# generated using pymatgen
data_Sr7CaFe4(CoO6)4
_symmetry_space_group_name_H-M   'P 1'
_cell_length_a   7.74741983
_cell_length_b   7.74741983
_cell_length_c   7.74742015
_cell_angle_alpha   90.02209512
_cell_angle_beta   90.02209512
_cell_angle_gamma   90.02208892
_symmetry_Int_Tables_number   1
_chemical_formula_structural   Sr7CaFe4(CoO6)4
_chemical_formula_sum   'Sr7 Ca1 Fe4 Co4 O24'
_cell_volume   465.01953156
_cell_formula_units_Z   1
loop_
 _symmetry_equiv_pos_site_id
 _symmetry_equiv_pos_as_xyz
  1  'x, y, z'
loop_
 _atom_site_type_symbol
 _atom_site_label
 _atom_site_symmetry_multiplicity
 _atom_site_fract_x
 _atom_site_fract_y
 _atom_site_fract_z
 _atom_site_occupancy
  Sr  Sr0  1  0.24987400  0.24987400  0.75013300  1
  Sr  Sr1  1  0.75013400  0.24980000  0.75013400  1
  Sr  Sr2  1  0.75013300  0.24987400  0.24987400  1
  Sr  Sr3  1  0.24980000  0.75013400  0.75013400  1
  Sr  Sr4  1  0.75003900  0.75003900  0.75003900  1
  Sr  Sr5  1  0.24987400  0.75013300  0.24987400  1
  Sr  Sr6  1  0.75013400  0.75013400  0.24980000  1
  Ca  Ca0  1  0.24938400  0.24938400  0.24938400  1
  Fe  Fe0  1  0.00052100  0.00052100  0.00052100  1
  Fe  Fe1  1  0.49952200  0.00060300  0.00060300  1
  Fe  Fe2  1  0.00060300  0.00060300  0.49952200  1
  Fe  Fe3  1  0.00060300  0.49952200  0.00060300  1
  Co  Co0  1  0.49947500  0.00043200  0.49947500  1
  Co  Co1  1  0.49947500  0.49947500  0.00043200  1
  Co  Co2  1  0.00043200  0.49947500  0.49947500  1
  Co  Co3  1  0.49930400  0.49930400  0.49930400  1
  O  O0  1  0.00217900  0.24890900  0.00217900  1
  O  O1  1  0.49784200  0.25337900  0.00242700  1
  O  O2  1  0.00242700  0.25337900  0.49784200  1
  O  O3  1  0.49806400  0.24620600  0.49806400  1
  O  O4  1  0.00031200  0.75110800  0.00031200  1
  O  O5  1  0.49957200  0.74671000  0.00022400  1
  O  O6  1  0.00022400  0.74671000  0.49957200  1
  O  O7  1  0.49939600  0.75426400  0.49939600  1
  O  O8  1  0.00031200  0.00031200  0.75110800  1
  O  O9  1  0.49957200  0.00022400  0.74671000  1
  O  O10  1  0.00217900  0.00217900  0.24890900  1
  O  O11  1  0.49784200  0.00242700  0.25337900  1
  O  O12  1  0.00022400  0.49957200  0.74671000  1
  O  O13  1  0.49939600  0.49939600  0.75426400  1
  O  O14  1  0.00242700  0.49784200  0.25337900  1
  O  O15  1  0.49806400  0.49806400  0.24620600  1
  O  O16  1  0.24890900  0.00217900  0.00217900  1
  O  O17  1  0.75110800  0.00031200  0.00031200  1
  O  O18  1  0.25337900  0.00242700  0.49784200  1
  O  O19  1  0.74671000  0.00022400  0.49957200  1
  O  O20  1  0.25337900  0.49784200  0.00242700  1
  O  O21  1  0.74671000  0.49957200  0.00022400  1
  O  O22  1  0.24620600  0.49806400  0.49806400  1
  O  O23  1  0.75426400  0.49939600  0.49939600  1
loop_
_geom_bond_atom_site_label_1
_geom_bond_atom_site_label_2
_geom_bond_distance
_geom_bond_site_symmetry_2
Ca0 O0 2.707981 1_555
Ca0 O16 2.707981 1_555
Ca0 O10 2.707981 1_555
Ca0 O11 2.714721 1_555
Ca0 O14 2.714721 1_555
Ca0 O18 2.714721 1_555
Ca0 O2 2.714721 1_555
Ca0 O20 2.714721 1_555
Ca0 O1 2.714721 1_555
Ca0 O3 2.724263 1_555
Ca0 O22 2.724263 1_555
Ca0 O15 2.724263 1_555
Fe0 O16 1.924442 1_555
Fe0 O0 1.924442 1_555
Fe0 O10 1.924442 1_555
Fe0 O4 1.932307 1_545
Fe0 O17 1.932307 1_455
Fe0 O8 1.932307 1_554
Fe1 O16 1.941690 1_555
Fe1 O17 1.949147 1_555
Fe1 O1 1.958456 1_555
Fe1 O11 1.958456 1_555
Fe1 O5 1.967017 1_545
Fe1 O9 1.967017 1_554
Fe2 O10 1.941690 1_555
Fe2 O8 1.949147 1_555
Fe2 O18 1.958456 1_555
Fe2 O2 1.958456 1_555
Fe2 O19 1.967017 1_455
Fe2 O6 1.967017 1_545
Fe3 O0 1.941690 1_555
Fe3 O4 1.949147 1_555
Fe3 O20 1.958456 1_555
Fe3 O14 1.958456 1_555
Fe3 O21 1.967017 1_455
Fe3 O12 1.967017 1_554
Co0 O3 1.904186 1_555
Co0 O18 1.906715 1_555
Co0 O11 1.906715 1_555
Co0 O7 1.907167 1_545
Co0 O19 1.915434 1_555
Co0 O9 1.915435 1_555
Co1 O15 1.904186 1_555
Co1 O20 1.906715 1_555
Co1 O1 1.906715 1_555
Co1 O13 1.907167 1_554
Co1 O5 1.915435 1_555
Co1 O21 1.915435 1_555
Co2 O22 1.904186 1_555
Co2 O2 1.906715 1_555
Co2 O14 1.906715 1_555
Co2 O23 1.907167 1_455
Co2 O6 1.915434 1_555
Co2 O12 1.915435 1_555
Co3 O22 1.960896 1_555
Co3 O3 1.960896 1_555
Co3 O15 1.960896 1_555
Co3 O7 1.975282 1_555
Co3 O23 1.975282 1_555
Co3 O13 1.975282 1_555
O0 Sr2 2.738350 1_455
O0 Sr0 2.738350 1_554
O0 Sr1 2.761013 1_454
O1 Sr2 2.737442 1_555
O1 Sr0 2.740256 1_554
O1 Sr1 2.764916 1_554
O2 Sr0 2.737442 1_555
O2 Sr2 2.740256 1_455
O2 Sr1 2.764916 1_455
O3 Sr0 2.741303 1_555
O3 Sr2 2.741303 1_555
O3 Sr1 2.761399 1_555
O4 Sr5 2.733815 1_555
O4 Sr3 2.737838 1_554
O4 Sr6 2.737838 1_455
O4 Sr4 2.741597 1_454
O5 Sr5 2.736211 1_555
O5 Sr3 2.737986 1_554
O5 Sr6 2.739474 1_555
O5 Sr4 2.743349 1_554
O6 Sr5 2.736211 1_555
O6 Sr6 2.737986 1_455
O6 Sr3 2.739474 1_555
O6 Sr4 2.743349 1_455
O7 Sr5 2.733532 1_555
O7 Sr6 2.741679 1_555
O7 Sr3 2.741679 1_555
O7 Sr4 2.745855 1_555
O8 Sr0 2.733815 1_555
O8 Sr1 2.737837 1_455
O8 Sr3 2.737837 1_545
O8 Sr4 2.741597 1_445
O9 Sr0 2.736211 1_555
O9 Sr3 2.737986 1_545
O9 Sr1 2.739474 1_555
O9 Sr4 2.743349 1_545
O10 Sr5 2.738349 1_545
O10 Sr2 2.738349 1_455
O10 Sr6 2.761013 1_445
O11 Sr2 2.737442 1_555
O11 Sr5 2.740256 1_545
O11 Sr6 2.764916 1_545
O12 Sr0 2.736211 1_555
O12 Sr1 2.737986 1_455
O12 Sr3 2.739474 1_555
O12 Sr4 2.743349 1_455
O13 Sr0 2.733532 1_555
O13 Sr1 2.741678 1_555
O13 Sr3 2.741678 1_555
O13 Sr4 2.745855 1_555
O14 Sr5 2.737442 1_555
O14 Sr2 2.740256 1_455
O14 Sr6 2.764916 1_455
O15 Sr5 2.741303 1_555
O15 Sr2 2.741303 1_555
O15 Sr6 2.761399 1_555
O16 Sr5 2.738350 1_545
O16 Sr0 2.738350 1_554
O16 Sr3 2.761013 1_544
O17 Sr2 2.733815 1_555
O17 Sr1 2.737838 1_554
O17 Sr6 2.737838 1_545
O17 Sr4 2.741597 1_544
O18 Sr0 2.737442 1_555
O18 Sr5 2.740256 1_545
O18 Sr3 2.764916 1_545
O19 Sr2 2.736211 1_555
O19 Sr6 2.737986 1_545
O19 Sr1 2.739474 1_555
O19 Sr4 2.743349 1_545
O20 Sr5 2.737442 1_555
O20 Sr0 2.740256 1_554
O20 Sr3 2.764916 1_554
O21 Sr2 2.736211 1_555
O21 Sr1 2.737986 1_554
O21 Sr6 2.739474 1_555
O21 Sr4 2.743349 1_554
O22 Sr0 2.741303 1_555
O22 Sr5 2.741303 1_555
O22 Sr3 2.761399 1_555
O23 Sr2 2.733532 1_555
O23 Sr6 2.741679 1_555
O23 Sr1 2.741679 1_555
O23 Sr4 2.745855 1_555
