# generated using pymatgen
data_RbCeSe4
_symmetry_space_group_name_H-M   'P 1'
_cell_length_a   7.29522066
_cell_length_b   7.29522066
_cell_length_c   10.50065600
_cell_angle_alpha   90.00000000
_cell_angle_beta   90.00000000
_cell_angle_gamma   90.00000000
_symmetry_Int_Tables_number   1
_chemical_formula_structural   RbCeSe4
_chemical_formula_sum   'Rb2 Ce2 Se8'
_cell_volume   558.84747973
_cell_formula_units_Z   2
loop_
 _symmetry_equiv_pos_site_id
 _symmetry_equiv_pos_as_xyz
  1  'x, y, z'
loop_
 _atom_site_type_symbol
 _atom_site_label
 _atom_site_symmetry_multiplicity
 _atom_site_fract_x
 _atom_site_fract_y
 _atom_site_fract_z
 _atom_site_occupancy
  Rb  Rb0  1  0.50000000  0.00000000  0.50000000  1
  Rb  Rb1  1  0.00000000  0.50000000  0.50000000  1
  Ce  Ce0  1  0.50000000  0.00000000  0.00000000  1
  Ce  Ce1  1  0.00000000  0.50000000  0.00000000  1
  Se  Se0  1  0.00000000  0.28083600  0.78440800  1
  Se  Se1  1  0.00000000  0.71916400  0.78440800  1
  Se  Se2  1  0.28083600  0.00000000  0.78440800  1
  Se  Se3  1  0.71916400  0.00000000  0.21559200  1
  Se  Se4  1  0.00000000  0.71916400  0.21559200  1
  Se  Se5  1  0.71916400  0.00000000  0.78440800  1
  Se  Se6  1  0.28083600  0.00000000  0.21559200  1
  Se  Se7  1  0.00000000  0.28083600  0.21559200  1
loop_
_geom_bond_atom_site_label_1
_geom_bond_atom_site_label_2
_geom_bond_distance
_geom_bond_site_symmetry_2
Rb0 Se5 3.387525 1_555
Rb0 Se2 3.387525 1_555
Rb0 Se3 3.387525 1_555
Rb0 Se6 3.387525 1_555
Rb1 Se1 3.387525 1_555
Rb1 Se0 3.387525 1_555
Rb1 Se4 3.387525 1_555
Rb1 Se7 3.387525 1_555
Ce0 Se3 2.771529 1_555
Ce0 Se6 2.771529 1_555
Ce0 Se5 2.771529 1_554
Ce0 Se2 2.771529 1_554
Ce1 Se4 2.771529 1_555
Ce1 Se7 2.771529 1_555
Ce1 Se1 2.771529 1_554
Ce1 Se0 2.771529 1_554
