# generated using pymatgen
data_Mg6CoNi
_symmetry_space_group_name_H-M   'P 1'
_cell_length_a   4.63801700
_cell_length_b   6.06931800
_cell_length_c   10.09992400
_cell_angle_alpha   90.00000000
_cell_angle_beta   90.00000000
_cell_angle_gamma   90.00000000
_symmetry_Int_Tables_number   1
_chemical_formula_structural   Mg6CoNi
_chemical_formula_sum   'Mg12 Co2 Ni2'
_cell_volume   284.30882126
_cell_formula_units_Z   2
loop_
 _symmetry_equiv_pos_site_id
 _symmetry_equiv_pos_as_xyz
  1  'x, y, z'
loop_
 _atom_site_type_symbol
 _atom_site_label
 _atom_site_symmetry_multiplicity
 _atom_site_fract_x
 _atom_site_fract_y
 _atom_site_fract_z
 _atom_site_occupancy
  Mg  Mg0  1  0.50000000  0.24940500  0.58421700  1
  Mg  Mg1  1  0.50000000  0.75059500  0.58421700  1
  Mg  Mg2  1  0.00000000  0.25119700  0.40873200  1
  Mg  Mg3  1  0.00000000  0.74880300  0.40873200  1
  Mg  Mg4  1  0.00000000  0.00000000  0.67507700  1
  Mg  Mg5  1  0.00000000  0.00000000  0.17458700  1
  Mg  Mg6  1  0.50000000  0.74940500  0.08421700  1
  Mg  Mg7  1  0.50000000  0.25059500  0.08421700  1
  Mg  Mg8  1  0.00000000  0.75119700  0.90873200  1
  Mg  Mg9  1  0.00000000  0.24880300  0.90873200  1
  Mg  Mg10  1  0.00000000  0.50000000  0.17507700  1
  Mg  Mg11  1  0.00000000  0.50000000  0.67458700  1
  Co  Co0  1  0.50000000  0.00000000  0.83205500  1
  Co  Co1  1  0.50000000  0.50000000  0.33205500  1
  Ni  Ni0  1  0.50000000  0.00000000  0.33238900  1
  Ni  Ni1  1  0.50000000  0.50000000  0.83238900  1
loop_
_geom_bond_atom_site_label_1
_geom_bond_atom_site_label_2
_geom_bond_distance
_geom_bond_site_symmetry_2
Mg0 Mg4 2.917410 1_655
Mg0 Mg4 2.917410 1_555
Mg0 Mg2 2.918778 1_655
Mg0 Mg2 2.918778 1_555
Mg0 Mg11 2.919613 1_655
Mg0 Mg11 2.919613 1_555
Mg0 Ni1 2.931876 1_555
Mg0 Ni0 2.959806 1_555
Mg0 Mg1 3.027437 1_545
Mg0 Mg1 3.041881 1_555
Mg1 Mg4 2.917410 1_565
Mg1 Mg4 2.917410 1_665
Mg1 Mg3 2.918778 1_555
Mg1 Mg3 2.918778 1_655
Mg1 Mg11 2.919613 1_655
Mg1 Mg11 2.919613 1_555
Mg1 Ni1 2.931876 1_555
Mg1 Ni0 2.959806 1_565
Mg2 Mg5 2.813697 1_555
Mg2 Ni0 2.880403 1_455
Mg2 Ni0 2.880403 1_555
Mg2 Mg3 3.020129 1_555
Mg2 Mg3 3.049189 1_545
Mg2 Mg4 3.092060 1_555
Mg3 Mg5 2.813697 1_565
Mg3 Ni0 2.880403 1_565
Mg3 Ni0 2.880403 1_465
Mg3 Mg4 3.092060 1_565
Mg4 Mg8 2.801680 1_545
Mg4 Mg9 2.801680 1_555
Mg5 Ni0 2.813887 1_455
Mg5 Ni0 2.813887 1_555
Mg5 Mg7 2.919613 1_455
Mg5 Mg6 2.919613 1_545
Mg5 Mg7 2.919613 1_555
Mg5 Mg6 2.919613 1_445
Mg5 Mg8 3.080607 1_544
Mg5 Mg9 3.080607 1_554
Mg6 Mg8 2.918778 1_554
Mg6 Mg8 2.918778 1_654
Mg6 Ni0 2.931876 1_565
Mg6 Ni1 2.959806 1_554
Mg6 Mg7 3.027437 1_555
Mg6 Mg7 3.041881 1_565
Mg7 Mg9 2.918778 1_654
Mg7 Mg9 2.918778 1_554
Mg7 Ni0 2.931876 1_555
Mg7 Ni1 2.959806 1_554
Mg8 Ni1 2.880403 1_555
Mg8 Ni1 2.880403 1_455
Mg8 Mg9 3.020129 1_565
Mg8 Mg9 3.049189 1_555
Mg9 Ni1 2.880403 1_555
Mg9 Ni1 2.880403 1_455
Mg10 Mg3 2.801680 1_555
Mg10 Mg2 2.801680 1_555
Mg10 Mg6 2.917410 1_455
Mg10 Mg7 2.917410 1_455
Mg10 Mg6 2.917410 1_555
Mg10 Mg7 2.917410 1_555
Mg10 Mg8 3.092060 1_554
Mg10 Mg9 3.092060 1_554
Mg11 Mg9 2.813697 1_555
Mg11 Mg8 2.813697 1_555
Mg11 Ni1 2.813887 1_555
Mg11 Ni1 2.813887 1_455
Mg11 Mg3 3.080607 1_555
Mg11 Mg2 3.080607 1_555
Co0 Mg4 2.809182 1_655
Co0 Mg4 2.809182 1_555
Co0 Mg9 2.873646 1_655
Co0 Mg8 2.873646 1_645
Co0 Mg8 2.873646 1_545
Co0 Mg9 2.873646 1_555
Co0 Mg0 2.925248 1_555
Co0 Mg1 2.925248 1_545
Co0 Mg7 2.966401 1_556
Co0 Mg6 2.966401 1_546
Co0 Ni1 3.034661 1_545
Co0 Ni1 3.034661 1_555
Co1 Mg10 2.809182 1_555
Co1 Mg10 2.809182 1_655
Co1 Mg3 2.873646 1_655
Co1 Mg2 2.873646 1_555
Co1 Mg2 2.873646 1_655
Co1 Mg3 2.873646 1_555
Co1 Mg6 2.925248 1_555
Co1 Mg7 2.925248 1_555
Co1 Mg0 2.966401 1_555
Co1 Mg1 2.966401 1_555
Co1 Ni0 3.034661 1_565
Co1 Ni0 3.034661 1_555
