# generated using pymatgen
data_NaCa2TiSi2O8F
_symmetry_space_group_name_H-M   'P 1'
_cell_length_a   5.81621169
_cell_length_b   7.56772256
_cell_length_c   19.30218282
_cell_angle_alpha   101.33762471
_cell_angle_beta   87.78444865
_cell_angle_gamma   89.94572040
_symmetry_Int_Tables_number   1
_chemical_formula_structural   NaCa2TiSi2O8F
_chemical_formula_sum   'Na4 Ca8 Ti4 Si8 O32 F4'
_cell_volume   832.36119991
_cell_formula_units_Z   4
loop_
 _symmetry_equiv_pos_site_id
 _symmetry_equiv_pos_as_xyz
  1  'x, y, z'
loop_
 _atom_site_type_symbol
 _atom_site_label
 _atom_site_symmetry_multiplicity
 _atom_site_fract_x
 _atom_site_fract_y
 _atom_site_fract_z
 _atom_site_occupancy
  Na  Na0  1  0.28378700  0.71007500  0.50038700  1
  Na  Na1  1  0.96066600  0.99011500  0.99819500  1
  Na  Na2  1  0.98567700  0.48279000  0.99305400  1
  Na  Na3  1  0.28822900  0.19995200  0.49997800  1
  Ca  Ca0  1  0.02363300  0.65410800  0.32482900  1
  Ca  Ca1  1  0.54673600  0.31877100  0.67932800  1
  Ca  Ca2  1  0.73108900  0.82597300  0.17745800  1
  Ca  Ca3  1  0.54283800  0.83144700  0.67357300  1
  Ca  Ca4  1  0.21461300  0.64212200  0.81866200  1
  Ca  Ca5  1  0.72475700  0.32356800  0.18146000  1
  Ca  Ca6  1  0.20545400  0.14785100  0.82214500  1
  Ca  Ca7  1  0.01520200  0.14012900  0.32271300  1
  Ti  Ti0  1  0.78864400  0.93710500  0.49963900  1
  Ti  Ti1  1  0.52637700  0.22809900  0.97639200  1
  Ti  Ti2  1  0.39670200  0.75048200  0.02531300  1
  Ti  Ti3  1  0.78886400  0.36289000  0.50162600  1
  Si  Si0  1  0.24358700  0.08009700  0.15259800  1
  Si  Si1  1  0.51609300  0.42668000  0.35995600  1
  Si  Si2  1  0.71301800  0.89525000  0.84436700  1
  Si  Si3  1  0.70576000  0.43648600  0.85371700  1
  Si  Si4  1  0.03013900  0.56660000  0.64318800  1
  Si  Si5  1  0.03809600  0.04117000  0.64740600  1
  Si  Si6  1  0.51509600  0.89593500  0.35423800  1
  Si  Si7  1  0.24448500  0.54561200  0.15415000  1
  O  O0  1  0.69026700  0.77006200  0.04832200  1
  O  O1  1  0.77837900  0.57691600  0.67967000  1
  O  O2  1  0.65943400  0.41321300  0.93450600  1
  O  O3  1  0.64927800  0.25897900  0.06074800  1
  O  O4  1  0.68103500  0.02293500  0.92171100  1
  O  O5  1  0.23161900  0.21221900  0.95275400  1
  O  O6  1  0.26788100  0.90636900  0.32265500  1
  O  O7  1  0.00233400  0.59036800  0.19733400  1
  O  O8  1  0.63039900  0.24992900  0.55844600  1
  O  O9  1  0.53606100  0.98237800  0.43683400  1
  O  O10  1  0.54564900  0.42789800  0.44375800  1
  O  O11  1  0.26292500  0.38446300  0.33239700  1
  O  O12  1  0.00050000  0.07808000  0.19516100  1
  O  O13  1  0.04938100  0.03793700  0.56370100  1
  O  O14  1  0.74486900  0.37926700  0.31014700  1
  O  O15  1  0.23973400  0.96450400  0.07282800  1
  O  O16  1  0.48799900  0.88364500  0.79827800  1
  O  O17  1  0.24453400  0.58445200  0.07471500  1
  O  O18  1  0.48163900  0.08202000  0.18992000  1
  O  O19  1  0.79429000  0.07626800  0.68824900  1
  O  O20  1  0.97113600  0.89297300  0.81332000  1
  O  O21  1  0.94888200  0.76290100  0.44301500  1
  O  O22  1  0.74533600  0.88917200  0.30477200  1
  O  O23  1  0.96516900  0.39568000  0.82569000  1
  O  O24  1  0.62068300  0.82209600  0.55588200  1
  O  O25  1  0.04291400  0.48173900  0.55845200  1
  O  O26  1  0.26600800  0.09644600  0.69118400  1
  O  O27  1  0.94033600  0.18826600  0.44487900  1
  O  O28  1  0.48946900  0.38865100  0.80483200  1
  O  O29  1  0.48252200  0.57841800  0.19207300  1
  O  O30  1  0.25310700  0.54340500  0.68729800  1
  O  O31  1  0.27734600  0.70972100  0.93996200  1
  F  F0  1  0.71256900  0.67898000  0.87016300  1
  F  F1  1  0.08847900  0.79551800  0.63649500  1
  F  F2  1  0.21239900  0.30330300  0.13230500  1
  F  F3  1  0.50290000  0.66452300  0.36717200  1
loop_
_geom_bond_atom_site_label_1
_geom_bond_atom_site_label_2
_geom_bond_distance
_geom_bond_site_symmetry_2
Na0 O24 2.348181 1_555
Na0 O21 2.349418 1_455
Na0 O25 2.617144 1_555
Na0 O10 2.649890 1_555
Na0 O13 2.860247 1_565
Na0 O9 2.960532 1_555
Na1 O15 2.244397 1_656
Na1 O4 2.283720 1_565
Na1 O5 2.560431 1_665
Na1 O0 2.589133 1_556
Na1 O3 2.781347 1_566
Na1 O31 2.837839 1_655
Na2 O17 2.247672 1_656
Na2 O2 2.255795 1_555
Na2 O5 2.475104 1_655
Na2 O31 2.727704 1_655
Na2 O0 2.784913 1_556
Na3 O9 2.311923 1_545
Na3 O27 2.315791 1_455
Na3 O8 2.320470 1_555
Na3 O13 2.325957 1_555
Na3 O25 2.603950 1_555
Na3 O10 2.647687 1_555
Ca0 O21 2.292408 1_455
Ca0 O6 2.386697 1_555
Ca0 O7 2.420983 1_555
Ca0 O22 2.499623 1_455
Ca0 O11 2.499991 1_555
Ca0 O14 2.616356 1_455
Ca1 O8 2.320822 1_555
Ca1 O19 2.368355 1_555
Ca1 O1 2.373238 1_555
Ca1 O26 2.382605 1_555
Ca1 O28 2.385937 1_555
Ca1 O30 2.387787 1_555
Ca2 O18 2.387869 1_565
Ca2 O22 2.414191 1_555
Ca2 O29 2.420910 1_555
Ca2 O12 2.450067 1_665
Ca2 O0 2.465718 1_555
Ca2 O7 2.474985 1_655
Ca3 O24 2.286438 1_555
Ca3 O19 2.341494 1_565
Ca3 O16 2.370306 1_555
Ca3 O1 2.386954 1_555
Ca3 O26 2.532448 1_565
Ca3 F1 2.764201 1_555
Ca3 O30 2.803746 1_555
Ca4 O31 2.339282 1_555
Ca4 O23 2.385562 1_455
Ca4 O20 2.388092 1_455
Ca4 O28 2.462965 1_555
Ca4 O30 2.499712 1_555
Ca4 O16 2.502758 1_555
Ca5 O18 2.339233 1_555
Ca5 O3 2.343559 1_555
Ca5 O29 2.358763 1_555
Ca5 O14 2.443810 1_555
Ca5 O12 2.512714 1_655
Ca5 O7 2.564789 1_655
Ca6 O23 2.326480 1_455
Ca6 O20 2.345325 1_445
Ca6 O5 2.482547 1_555
Ca6 O26 2.491903 1_555
Ca6 O28 2.522634 1_555
Ca6 O16 2.546297 1_545
Ca7 O6 2.298579 1_545
Ca7 O11 2.328055 1_555
Ca7 O27 2.337813 1_455
Ca7 O12 2.418927 1_555
Ca7 O22 2.445303 1_445
Ca7 O14 2.450063 1_455
O0 Ti2 1.779825 1_555
O1 Si4 1.595166 1_655
O2 Si3 1.615843 1_555
O2 Ti1 1.901066 1_555
O3 Ti1 1.776933 1_554
O4 Si2 1.614955 1_545
O4 Ti1 1.900898 1_555
O5 Ti1 1.789137 1_555
O6 Si6 1.591158 1_555
O7 Si7 1.609483 1_555
O8 Ti3 1.753590 1_555
O8 Ti0 2.568760 1_545
O9 Si6 1.609246 1_555
O9 Ti0 2.011274 1_555
O10 Si1 1.631497 1_555
O10 Ti3 1.956435 1_555
O11 Si1 1.596204 1_555
O12 Si0 1.609134 1_555
O13 Si5 1.609849 1_555
O13 Ti0 2.046280 1_445
O14 Si1 1.608772 1_555
O15 Si0 1.615438 1_565
O15 Ti2 1.909541 1_555
O16 Si2 1.603590 1_555
O17 Si7 1.616933 1_555
O17 Ti2 1.918133 1_555
O18 Si0 1.584054 1_555
O19 Si5 1.591660 1_655
O20 Si2 1.593601 1_555
O21 Ti0 1.775819 1_555
O22 Si6 1.609136 1_555
O23 Si3 1.592092 1_555
O24 Ti0 1.783681 1_555
O25 Si4 1.634205 1_555
O25 Ti3 1.983768 1_455
O26 Si5 1.610863 1_555
O27 Ti3 1.753954 1_555
O27 Ti0 2.495864 1_545
O28 Si3 1.600716 1_555
O29 Si7 1.588011 1_555
O30 Si4 1.606609 1_555
O31 Ti2 1.783316 1_556
F0 Si3 1.800582 1_555
F0 Si2 1.801928 1_555
F1 Si4 1.794078 1_555
F1 Si5 1.851070 1_565
F1 Na0 2.776782 1_555
F2 Si7 1.810497 1_555
F2 Si0 1.817871 1_555
F3 Si1 1.779150 1_555
F3 Si6 1.817978 1_555
F3 Na0 2.784246 1_555
