# generated using pymatgen
data_Y9(Si5Os)4
_symmetry_space_group_name_H-M   'P 1'
_cell_length_a   7.90539400
_cell_length_b   8.06182672
_cell_length_c   19.64344632
_cell_angle_alpha   95.70654369
_cell_angle_beta   90.00000000
_cell_angle_gamma   90.00000000
_symmetry_Int_Tables_number   1
_chemical_formula_structural   Y9(Si5Os)4
_chemical_formula_sum   'Y18 Si40 Os8'
_cell_volume   1245.71027053
_cell_formula_units_Z   2
loop_
 _symmetry_equiv_pos_site_id
 _symmetry_equiv_pos_as_xyz
  1  'x, y, z'
loop_
 _atom_site_type_symbol
 _atom_site_label
 _atom_site_symmetry_multiplicity
 _atom_site_fract_x
 _atom_site_fract_y
 _atom_site_fract_z
 _atom_site_occupancy
  Y  Y0  1  0.24823500  0.69370200  0.76153200  1
  Y  Y1  1  0.74823500  0.80629800  0.23846800  1
  Y  Y2  1  0.75176500  0.30629800  0.23846800  1
  Y  Y3  1  0.25176500  0.19370200  0.76153200  1
  Y  Y4  1  0.50079600  0.64892600  0.58856500  1
  Y  Y5  1  0.00079600  0.85107400  0.41143500  1
  Y  Y6  1  0.49920400  0.35107400  0.41143500  1
  Y  Y7  1  0.99920400  0.14892600  0.58856500  1
  Y  Y8  1  0.24736900  0.81090600  0.23761100  1
  Y  Y9  1  0.74736900  0.68909400  0.76238900  1
  Y  Y10  1  0.75263100  0.18909400  0.76238900  1
  Y  Y11  1  0.25263100  0.31090600  0.23761100  1
  Y  Y12  1  0.50000000  0.00000000  0.00000000  1
  Y  Y13  1  0.00000000  0.50000000  0.00000000  1
  Y  Y14  1  0.49843100  0.84939700  0.41095900  1
  Y  Y15  1  0.99843100  0.65060300  0.58904100  1
  Y  Y16  1  0.50156900  0.15060300  0.58904100  1
  Y  Y17  1  0.00156900  0.34939700  0.41095900  1
  Si  Si0  1  0.16587100  0.83225000  0.00036100  1
  Si  Si1  1  0.66587100  0.66775000  0.99963900  1
  Si  Si2  1  0.83412900  0.16775000  0.99963900  1
  Si  Si3  1  0.33412900  0.33225000  0.00036100  1
  Si  Si4  1  0.99557100  0.80616800  0.11581400  1
  Si  Si5  1  0.49557100  0.69383200  0.88418600  1
  Si  Si6  1  0.00442900  0.19383200  0.88418600  1
  Si  Si7  1  0.50442900  0.30616800  0.11581400  1
  Si  Si8  1  0.50266500  0.57069700  0.28998400  1
  Si  Si9  1  0.00266500  0.92930300  0.71001600  1
  Si  Si10  1  0.49733500  0.42930300  0.71001600  1
  Si  Si11  1  0.99733500  0.07069700  0.28998400  1
  Si  Si12  1  0.25345700  0.91128200  0.63999600  1
  Si  Si13  1  0.75345700  0.58871800  0.36000400  1
  Si  Si14  1  0.74654300  0.08871800  0.36000400  1
  Si  Si15  1  0.24654300  0.41128200  0.63999600  1
  Si  Si16  1  0.49470100  0.75102000  0.11551400  1
  Si  Si17  1  0.99470100  0.74898000  0.88448600  1
  Si  Si18  1  0.50529900  0.24898000  0.88448600  1
  Si  Si19  1  0.00529900  0.25102000  0.11551400  1
  Si  Si20  1  0.72016500  0.52341800  0.11568600  1
  Si  Si21  1  0.22016500  0.97658200  0.88431400  1
  Si  Si22  1  0.27983500  0.47658200  0.88431400  1
  Si  Si23  1  0.77983500  0.02341800  0.11568600  1
  Si  Si24  1  0.28118900  0.53462500  0.11591200  1
  Si  Si25  1  0.78118900  0.96537500  0.88408800  1
  Si  Si26  1  0.71881100  0.46537500  0.88408800  1
  Si  Si27  1  0.21881100  0.03462500  0.11591200  1
  Si  Si28  1  0.99639400  0.56972600  0.28662100  1
  Si  Si29  1  0.49639400  0.93027400  0.71337900  1
  Si  Si30  1  0.00360600  0.43027400  0.71337900  1
  Si  Si31  1  0.50360600  0.06972600  0.28662100  1
  Si  Si32  1  0.24738500  0.58899000  0.35590600  1
  Si  Si33  1  0.74738500  0.91101000  0.64409400  1
  Si  Si34  1  0.75261500  0.41101000  0.64409400  1
  Si  Si35  1  0.25261500  0.08899000  0.35590600  1
  Si  Si36  1  0.24871600  0.61033100  0.47466400  1
  Si  Si37  1  0.74871600  0.88966900  0.52533600  1
  Si  Si38  1  0.75128400  0.38966900  0.52533600  1
  Si  Si39  1  0.25128400  0.11033100  0.47466400  1
  Os  Os0  1  0.99996000  0.54067600  0.16412600  1
  Os  Os1  1  0.49996000  0.95932400  0.83587400  1
  Os  Os2  1  0.00004000  0.45932400  0.83587400  1
  Os  Os3  1  0.50004000  0.04067600  0.16412600  1
  Os  Os4  1  0.36997900  0.62539400  0.99973000  1
  Os  Os5  1  0.86997900  0.87460600  0.00027000  1
  Os  Os6  1  0.63002100  0.37460500  0.00027000  1
  Os  Os7  1  0.13002100  0.12539400  0.99973000  1
loop_
_geom_bond_atom_site_label_1
_geom_bond_atom_site_label_2
_geom_bond_distance
_geom_bond_site_symmetry_2
Si0 Si4 2.663623 1_455
Si0 Si17 2.675604 1_454
Si0 Si27 2.693068 1_565
Si0 Si21 2.694816 1_554
Si0 Y12 2.967823 1_565
Si0 Y13 2.981661 1_555
Si1 Si5 2.663623 1_555
Si1 Si16 2.675604 1_556
Si1 Si26 2.693068 1_555
Si1 Si20 2.694816 1_556
Si1 Y13 2.967823 1_656
Si1 Y12 2.981661 1_566
Si2 Si6 2.663623 1_655
Si2 Si25 2.693068 1_545
Si2 Si23 2.694816 1_556
Si2 Y12 2.967823 1_556
Si2 Y13 2.981661 1_656
Si3 Si7 2.663623 1_555
Si3 Y13 2.967823 1_555
Si3 Y12 2.981661 1_555
Si4 Y1 3.102838 1_555
Si4 Y8 3.109621 1_655
Si4 Y13 3.186294 1_655
Si5 Y0 3.102838 1_555
Si5 Y9 3.109621 1_555
Si5 Y12 3.186294 1_566
Si6 Y3 3.102838 1_555
Si6 Y10 3.109621 1_455
Si6 Y13 3.186294 1_556
Si7 Y2 3.102838 1_555
Si7 Y11 3.109621 1_555
Si7 Y12 3.186294 1_555
Si8 Y1 2.963555 1_555
Si8 Y11 2.987205 1_555
Si8 Y2 3.002737 1_555
Si8 Y8 3.045967 1_555
Si8 Y14 3.103978 1_555
Si8 Y6 3.109229 1_555
Si9 Y0 2.963555 1_555
Si9 Y10 2.987205 1_465
Si9 Y3 3.002737 1_565
Si9 Y9 3.045967 1_455
Si9 Y15 3.103978 1_455
Si9 Y7 3.109229 1_465
Si10 Si34 2.394433 1_555
Si10 Si15 2.409134 1_555
Si10 Y3 2.963555 1_555
Si10 Y9 2.987205 1_555
Si10 Y0 3.002737 1_555
Si10 Y10 3.045967 1_555
Si10 Y16 3.103978 1_555
Si10 Y4 3.109229 1_555
Si11 Si35 2.394433 1_655
Si11 Si14 2.409134 1_555
Si11 Y2 2.963555 1_555
Si11 Y8 2.987205 1_645
Si11 Y1 3.002737 1_545
Si11 Y11 3.045967 1_655
Si11 Y17 3.103978 1_655
Si11 Y5 3.109229 1_645
Si12 Si29 2.397046 1_555
Si12 Si9 2.409134 1_555
Si12 Y4 2.982028 1_555
Si12 Y16 2.992580 1_565
Si12 Y15 3.010754 1_455
Si12 Y7 3.019276 1_465
Si12 Y0 3.100153 1_555
Si12 Y3 3.130932 1_565
Si13 Si28 2.397046 1_555
Si13 Si8 2.409134 1_555
Si13 Y5 2.982028 1_655
Si13 Y17 2.992580 1_655
Si13 Y14 3.010754 1_555
Si13 Y6 3.019276 1_555
Si13 Y1 3.100153 1_555
Si13 Y2 3.130932 1_555
Si14 Si31 2.397046 1_555
Si14 Y6 2.982028 1_555
Si14 Y14 2.992580 1_545
Si14 Y17 3.010754 1_655
Si14 Y5 3.019276 1_645
Si14 Y2 3.100153 1_555
Si14 Y1 3.130932 1_545
Si15 Si30 2.397046 1_555
Si15 Y7 2.982028 1_455
Si15 Y15 2.992580 1_455
Si15 Y16 3.010754 1_555
Si15 Y4 3.019276 1_555
Si15 Y3 3.100153 1_555
Si15 Y0 3.130932 1_555
Si16 Si24 2.428000 1_555
Si16 Si20 2.558309 1_555
Si16 Y8 3.094866 1_555
Si16 Y1 3.136096 1_555
Si16 Y12 3.175734 1_565
Si17 Si25 2.428000 1_555
Si17 Si21 2.558309 1_655
Si17 Y9 3.094866 1_555
Si17 Y0 3.136096 1_655
Si17 Y13 3.175734 1_656
Si18 Si26 2.428000 1_555
Si18 Si22 2.558309 1_555
Si18 Si3 2.675604 1_556
Si18 Y10 3.094866 1_555
Si18 Y3 3.136096 1_555
Si18 Y12 3.175734 1_556
Si19 Si27 2.428000 1_555
Si19 Si23 2.558309 1_455
Si19 Si2 2.675604 1_454
Si19 Y11 3.094866 1_555
Si19 Y2 3.136096 1_455
Si19 Y13 3.175734 1_555
Si20 Si7 2.444801 1_555
Si20 Y2 3.127759 1_555
Si20 Y1 3.158053 1_555
Si20 Y13 3.163591 1_655
Si21 Si6 2.444801 1_565
Si21 Y3 3.127759 1_565
Si21 Y0 3.158053 1_555
Si21 Y12 3.163591 1_566
Si22 Si5 2.444801 1_555
Si22 Si3 2.694816 1_556
Si22 Y0 3.127759 1_555
Si22 Y3 3.158053 1_555
Si22 Y13 3.163591 1_556
Si23 Si4 2.444801 1_545
Si23 Y1 3.127759 1_545
Si23 Y2 3.158053 1_555
Si23 Y12 3.163591 1_555
Si24 Si7 2.550681 1_555
Si24 Si3 2.693068 1_555
Si24 Y8 3.112635 1_555
Si24 Y11 3.142647 1_555
Si24 Y13 3.174457 1_555
Si25 Si6 2.550681 1_665
Si25 Y9 3.112635 1_555
Si25 Y10 3.142647 1_565
Si25 Y12 3.174457 1_566
Si26 Si5 2.550681 1_555
Si26 Y10 3.112635 1_555
Si26 Y9 3.142647 1_555
Si26 Y13 3.174457 1_656
Si27 Si4 2.550681 1_445
Si27 Y11 3.112635 1_555
Si27 Y8 3.142647 1_545
Si27 Y12 3.174457 1_555
Si28 Si32 2.402369 1_655
Si28 Y1 2.956269 1_555
Si28 Y2 2.957245 1_555
Si28 Y11 2.997395 1_655
Si28 Y8 3.002678 1_655
Si28 Y17 3.159899 1_655
Si28 Y5 3.170354 1_655
Si29 Si33 2.402369 1_555
Si29 Y0 2.956269 1_555
Si29 Y3 2.957245 1_565
Si29 Y10 2.997395 1_565
Si29 Y9 3.002678 1_555
Si29 Y16 3.159899 1_565
Si29 Y4 3.170354 1_555
Si30 Si34 2.402369 1_455
Si30 Y3 2.956269 1_555
Si30 Y0 2.957245 1_555
Si30 Y9 2.997395 1_455
Si30 Y10 3.002678 1_455
Si30 Y15 3.159899 1_455
Si30 Y7 3.170354 1_455
Si31 Si35 2.402369 1_555
Si31 Y2 2.956269 1_555
Si31 Y1 2.957245 1_545
Si31 Y8 2.997395 1_545
Si31 Y11 3.002678 1_555
Si31 Y14 3.159899 1_545
Si31 Y6 3.170354 1_555
Si32 Si36 2.322052 1_555
Si32 Si8 2.394433 1_555
Si32 Y5 2.999303 1_555
Si32 Y14 3.010649 1_555
Si32 Y17 3.015313 1_555
Si32 Y6 3.041008 1_555
Si32 Y11 3.064534 1_555
Si32 Y8 3.070361 1_555
Si33 Si37 2.322052 1_555
Si33 Si9 2.394433 1_655
Si33 Y4 2.999303 1_555
Si33 Y15 3.010649 1_555
Si33 Y16 3.015313 1_565
Si33 Y7 3.041008 1_565
Si33 Y10 3.064534 1_565
Si33 Y9 3.070361 1_555
Si34 Si38 2.322052 1_555
Si34 Y7 2.999303 1_555
Si34 Y16 3.010649 1_555
Si34 Y15 3.015313 1_555
Si34 Y4 3.041008 1_555
Si34 Y9 3.064534 1_555
Si34 Y10 3.070361 1_555
Si35 Si39 2.322052 1_555
Si35 Y6 2.999303 1_555
Si35 Y17 3.010649 1_555
Si35 Y14 3.015313 1_545
Si35 Y5 3.041008 1_545
Si35 Y8 3.064534 1_545
Si35 Y11 3.070361 1_555
Si36 Y15 2.987161 1_455
Si36 Y4 2.989245 1_555
Si36 Y17 3.047118 1_555
Si36 Y6 3.052225 1_555
Si36 Y5 3.103237 1_555
Si36 Y14 3.107598 1_555
Si37 Y14 2.987161 1_555
Si37 Y5 2.989245 1_655
Si37 Y16 3.047118 1_565
Si37 Y7 3.052225 1_565
Si37 Y4 3.103237 1_555
Si37 Y15 3.107598 1_555
Si38 Y17 2.987161 1_655
Si38 Y6 2.989245 1_555
Si38 Y15 3.047118 1_555
Si38 Y4 3.052225 1_555
Si38 Y7 3.103237 1_555
Si38 Y16 3.107598 1_555
Si39 Y16 2.987161 1_555
Si39 Y7 2.989245 1_455
Si39 Y14 3.047118 1_545
Si39 Y5 3.052225 1_545
Si39 Y6 3.103237 1_555
Si39 Y17 3.107598 1_555
Os0 Si28 2.394471 1_555
Os0 Si20 2.406427 1_555
Os0 Si24 2.415141 1_655
Os0 Si4 2.426288 1_555
Os0 Si19 2.433750 1_655
Os0 Y8 3.166984 1_655
Os0 Y11 3.168053 1_655
Os0 Y1 3.171169 1_555
Os0 Y2 3.178259 1_555
Os0 Y13 3.208031 1_655
Os1 Si29 2.394471 1_555
Os1 Si21 2.406427 1_555
Os1 Si25 2.415141 1_555
Os1 Si5 2.426288 1_555
Os1 Si18 2.433750 1_565
Os1 Y9 3.166984 1_555
Os1 Y10 3.168053 1_565
Os1 Y0 3.171169 1_555
Os1 Y3 3.178259 1_565
Os1 Y12 3.208031 1_566
Os2 Si30 2.394471 1_555
Os2 Si22 2.406427 1_555
Os2 Si26 2.415141 1_455
Os2 Si6 2.426288 1_555
Os2 Si17 2.433750 1_455
Os2 Y10 3.166984 1_455
Os2 Y9 3.168053 1_455
Os2 Y3 3.171169 1_555
Os2 Y0 3.178259 1_555
Os2 Y13 3.208031 1_556
Os3 Si31 2.394471 1_555
Os3 Si23 2.406427 1_555
Os3 Si27 2.415141 1_555
Os3 Si7 2.426288 1_555
Os3 Si16 2.433750 1_545
Os3 Y11 3.166984 1_555
Os3 Y8 3.168053 1_545
Os3 Y2 3.171169 1_555
Os3 Y1 3.178259 1_545
Os3 Y12 3.208031 1_555
Os4 Si0 2.319615 1_556
Os4 Si1 2.363961 1_555
Os4 Si3 2.381465 1_556
Os4 Si22 2.558565 1_555
Os4 Si24 2.562965 1_556
Os4 Si5 2.586632 1_555
Os4 Si16 2.590881 1_556
Os4 Y13 3.094778 1_556
Os4 Y12 3.189640 1_566
Os5 Si1 2.319615 1_554
Os5 Si0 2.363961 1_655
Os5 Si2 2.381465 1_564
Os5 Si23 2.558565 1_565
Os5 Si25 2.562965 1_554
Os5 Si4 2.586632 1_555
Os5 Si17 2.590881 1_554
Os5 Y12 3.094778 1_565
Os5 Y13 3.189640 1_655
Os6 Si2 2.319609 1_554
Os6 Si3 2.363960 1_555
Os6 Si1 2.381473 1_554
Os6 Si20 2.558568 1_555
Os6 Si26 2.562968 1_554
Os6 Si7 2.586629 1_555
Os6 Si18 2.590878 1_554
Os6 Y13 3.094781 1_655
Os6 Y12 3.189633 1_555
Os7 Si3 2.319615 1_556
Os7 Si2 2.363961 1_455
Os7 Si0 2.381465 1_546
Os7 Si21 2.558565 1_545
Os7 Si27 2.562965 1_556
Os7 Si6 2.586632 1_555
Os7 Si19 2.590881 1_556
Os7 Y12 3.094778 1_556
Os7 Y13 3.189640 1_556
