# generated using pymatgen
data_KMg14Mo
_symmetry_space_group_name_H-M   'P 1'
_cell_length_a   6.49015300
_cell_length_b   6.49015246
_cell_length_c   10.22875688
_cell_angle_alpha   90.00000000
_cell_angle_beta   90.00000000
_cell_angle_gamma   120.00000275
_symmetry_Int_Tables_number   1
_chemical_formula_structural   KMg14Mo
_chemical_formula_sum   'K1 Mg14 Mo1'
_cell_volume   373.13269940
_cell_formula_units_Z   1
loop_
 _symmetry_equiv_pos_site_id
 _symmetry_equiv_pos_as_xyz
  1  'x, y, z'
loop_
 _atom_site_type_symbol
 _atom_site_label
 _atom_site_symmetry_multiplicity
 _atom_site_fract_x
 _atom_site_fract_y
 _atom_site_fract_z
 _atom_site_occupancy
  K  K0  1  0.16666700  0.33333300  0.12500000  1
  Mg  Mg0  1  0.17588511  0.83794205  0.12500000  1
  Mg  Mg1  1  0.16127940  0.83063920  0.62500000  1
  Mg  Mg2  1  0.66205795  0.32411489  0.12500000  1
  Mg  Mg3  1  0.66936080  0.33872060  0.62500000  1
  Mg  Mg4  1  0.66205795  0.83794205  0.12500000  1
  Mg  Mg5  1  0.66936080  0.83063920  0.62500000  1
  Mg  Mg6  1  0.33089279  0.16910721  0.39802764  1
  Mg  Mg7  1  0.33089279  0.16910721  0.85197236  1
  Mg  Mg8  1  0.33089279  0.66178658  0.39802764  1
  Mg  Mg9  1  0.33089279  0.66178658  0.85197236  1
  Mg  Mg10  1  0.83821342  0.16910721  0.39802764  1
  Mg  Mg11  1  0.83821342  0.16910721  0.85197236  1
  Mg  Mg12  1  0.83333300  0.66666700  0.36882649  1
  Mg  Mg13  1  0.83333300  0.66666700  0.88117351  1
  Mo  Mo0  1  0.16666700  0.33333300  0.62500000  1
loop_
_geom_bond_atom_site_label_1
_geom_bond_atom_site_label_2
_geom_bond_distance
_geom_bond_site_symmetry_2
K0 Mg0 3.245490 1_555
K0 Mg4 3.245490 1_555
K0 Mg4 3.245490 1_445
K0 Mg0 3.245490 1_545
K0 Mg2 3.245490 1_455
K0 Mg2 3.245490 1_555
K0 Mg7 3.347756 1_554
K0 Mg6 3.347756 1_555
K0 Mg9 3.347762 1_554
K0 Mg8 3.347762 1_555
K0 Mg11 3.347762 1_454
K0 Mg10 3.347762 1_455
Mg0 Mg12 3.150756 1_455
Mg0 Mg13 3.150756 1_454
Mg0 Mg2 3.155336 1_565
Mg0 Mg4 3.155336 1_555
Mg0 Mg2 3.334817 1_455
Mg0 Mg4 3.334817 1_455
Mg0 Mg9 3.356886 1_554
Mg0 Mg8 3.356886 1_555
Mg0 Mg6 3.356893 1_565
Mg0 Mg7 3.356893 1_564
Mg1 Mg8 3.001524 1_555
Mg1 Mg9 3.001524 1_555
Mg1 Mg7 3.001531 1_565
Mg1 Mg6 3.001531 1_565
Mg1 Mg3 3.192627 1_455
Mg1 Mg5 3.192627 1_455
Mg1 Mg13 3.203717 1_455
Mg1 Mg12 3.203717 1_455
Mg1 Mo0 3.245218 1_565
Mg1 Mo0 3.245218 1_555
Mg1 Mg3 3.297526 1_565
Mg1 Mg5 3.297526 1_555
Mg2 Mg4 3.155336 1_545
Mg2 Mg4 3.334817 1_555
Mg2 Mg7 3.356893 1_554
Mg2 Mg6 3.356893 1_555
Mg3 Mg6 3.001531 1_555
Mg3 Mg7 3.001531 1_555
Mg3 Mg5 3.192627 1_555
Mg3 Mo0 3.245218 1_655
Mg3 Mo0 3.245218 1_555
Mg3 Mg5 3.297526 1_545
Mg4 Mg9 3.356892 1_554
Mg4 Mg8 3.356892 1_555
Mg5 Mg9 3.001531 1_555
Mg5 Mg8 3.001531 1_555
Mg5 Mo0 3.245218 1_665
Mg5 Mo0 3.245218 1_555
Mg6 Mo0 2.966167 1_555
Mg6 Mg8 3.197564 1_555
Mg6 Mg8 3.292588 1_545
Mg7 Mo0 2.966167 1_555
Mg7 Mg9 3.197564 1_555
Mg7 Mg9 3.292588 1_545
Mg8 Mo0 2.966174 1_555
Mg9 Mo0 2.966174 1_555
Mg10 Mo0 2.966174 1_655
Mg10 Mg3 3.001524 1_555
Mg10 Mg5 3.001531 1_545
Mg10 Mg8 3.197564 1_655
Mg10 Mg6 3.197564 1_655
Mg10 Mg12 3.258909 1_545
Mg10 Mg12 3.258909 1_555
Mg10 Mg8 3.292588 1_545
Mg10 Mg6 3.292589 1_555
Mg10 Mg2 3.356886 1_555
Mg10 Mg4 3.356892 1_545
Mg11 Mo0 2.966174 1_655
Mg11 Mg3 3.001524 1_555
Mg11 Mg5 3.001531 1_545
Mg11 Mg9 3.197564 1_655
Mg11 Mg7 3.197564 1_655
Mg11 Mg13 3.258909 1_545
Mg11 Mg13 3.258909 1_555
Mg11 Mg9 3.292588 1_545
Mg11 Mg7 3.292589 1_555
Mg11 Mg2 3.356886 1_556
Mg11 Mg4 3.356892 1_546
Mg12 Mg4 3.150749 1_555
Mg12 Mg2 3.150755 1_555
Mg12 Mg5 3.203710 1_555
Mg12 Mg3 3.203716 1_555
Mg12 Mg6 3.258909 1_665
Mg12 Mg6 3.258909 1_555
Mg12 Mg8 3.258909 1_555
Mg12 Mg8 3.258909 1_655
Mg13 Mg4 3.150749 1_556
Mg13 Mg2 3.150755 1_556
Mg13 Mg5 3.203710 1_555
Mg13 Mg3 3.203716 1_555
Mg13 Mg7 3.258909 1_665
Mg13 Mg7 3.258909 1_555
Mg13 Mg9 3.258909 1_555
Mg13 Mg9 3.258909 1_655
