# generated using pymatgen
data_Fe4N
_symmetry_space_group_name_H-M   'P 1'
_cell_length_a   17.17470774
_cell_length_b   17.17470774
_cell_length_c   17.17470798
_cell_angle_alpha   17.24811679
_cell_angle_beta   17.24811679
_cell_angle_gamma   17.24811586
_symmetry_Int_Tables_number   1
_chemical_formula_structural   Fe4N
_chemical_formula_sum   'Fe32 N8'
_cell_volume   388.63763693
_cell_formula_units_Z   8
loop_
 _symmetry_equiv_pos_site_id
 _symmetry_equiv_pos_as_xyz
  1  'x, y, z'
loop_
 _atom_site_type_symbol
 _atom_site_label
 _atom_site_symmetry_multiplicity
 _atom_site_fract_x
 _atom_site_fract_y
 _atom_site_fract_z
 _atom_site_occupancy
  Fe  Fe0_0  1  0.43572100  0.43572100  0.43572100  1
  Fe  Fe0_1  1  0.43572100  0.43572100  0.93572100  1
  Fe  Fe0_2  1  0.43572100  0.93572100  0.43572100  1
  Fe  Fe0_3  1  0.43572100  0.93572100  0.93572100  1
  Fe  Fe0_4  1  0.93572100  0.43572100  0.43572100  1
  Fe  Fe0_5  1  0.93572100  0.43572100  0.93572100  1
  Fe  Fe0_6  1  0.93572100  0.93572100  0.43572100  1
  Fe  Fe0_7  1  0.93572100  0.93572100  0.93572100  1
  Fe  Fe1_0  1  0.06427900  0.06427900  0.06427900  1
  Fe  Fe1_1  1  0.06427900  0.06427900  0.56427900  1
  Fe  Fe1_2  1  0.06427900  0.56427900  0.06427900  1
  Fe  Fe1_3  1  0.06427900  0.56427900  0.56427900  1
  Fe  Fe1_4  1  0.56427900  0.06427900  0.06427900  1
  Fe  Fe1_5  1  0.56427900  0.06427900  0.56427900  1
  Fe  Fe1_6  1  0.56427900  0.56427900  0.06427900  1
  Fe  Fe1_7  1  0.56427900  0.56427900  0.56427900  1
  Fe  Fe2_0  1  0.19071700  0.19071700  0.19071700  1
  Fe  Fe2_1  1  0.19071700  0.19071700  0.69071700  1
  Fe  Fe2_2  1  0.19071700  0.69071700  0.19071700  1
  Fe  Fe2_3  1  0.19071700  0.69071700  0.69071700  1
  Fe  Fe2_4  1  0.69071700  0.19071700  0.19071700  1
  Fe  Fe2_5  1  0.69071700  0.19071700  0.69071700  1
  Fe  Fe2_6  1  0.69071700  0.69071700  0.19071700  1
  Fe  Fe2_7  1  0.69071700  0.69071700  0.69071700  1
  Fe  Fe3_0  1  0.30928300  0.30928300  0.30928300  1
  Fe  Fe3_1  1  0.30928300  0.30928300  0.80928300  1
  Fe  Fe3_2  1  0.30928300  0.80928300  0.30928300  1
  Fe  Fe3_3  1  0.30928300  0.80928300  0.80928300  1
  Fe  Fe3_4  1  0.80928300  0.30928300  0.30928300  1
  Fe  Fe3_5  1  0.80928300  0.30928300  0.80928300  1
  Fe  Fe3_6  1  0.80928300  0.80928300  0.30928300  1
  Fe  Fe3_7  1  0.80928300  0.80928300  0.80928300  1
  N  N0_0  1  0.00000000  0.00000000  0.00000000  1
  N  N0_1  1  0.00000000  0.00000000  0.50000000  1
  N  N0_2  1  0.00000000  0.50000000  0.00000000  1
  N  N0_3  1  0.00000000  0.50000000  0.50000000  1
  N  N0_4  1  0.50000000  0.00000000  0.00000000  1
  N  N0_5  1  0.50000000  0.00000000  0.50000000  1
  N  N0_6  1  0.50000000  0.50000000  0.00000000  1
  N  N0_7  1  0.50000000  0.50000000  0.50000000  1
loop_
_geom_bond_atom_site_label_1
_geom_bond_atom_site_label_2
_geom_bond_distance
_geom_bond_site_symmetry_2
Fe0_0 Fe1_3 2.439391 1_555
Fe0_0 Fe1_5 2.439391 1_555
Fe0_0 Fe1_6 2.439391 1_555
Fe0_0 Fe3_2 2.525529 1_555
Fe0_0 Fe3_4 2.525529 1_555
Fe0_0 Fe3_1 2.525529 1_555
Fe0_0 Fe0_6 2.575356 1_545
Fe0_0 Fe0_6 2.575356 1_455
Fe0_0 Fe0_5 2.575356 1_455
Fe0_0 Fe0_3 2.575356 1_545
Fe0_0 Fe0_5 2.575356 1_554
Fe0_0 Fe0_3 2.575356 1_554
Fe0_1 Fe1_2 2.439391 1_556
Fe0_1 Fe1_4 2.439391 1_556
Fe0_1 Fe1_7 2.439391 1_555
Fe0_1 Fe3_3 2.525529 1_555
Fe0_1 Fe3_5 2.525529 1_555
Fe0_1 Fe3_0 2.525529 1_556
Fe0_1 Fe0_7 2.575356 1_455
Fe0_1 Fe0_7 2.575356 1_545
Fe0_1 Fe0_2 2.575356 1_555
Fe0_1 Fe0_4 2.575356 1_555
Fe0_1 Fe0_4 2.575356 1_456
Fe0_1 Fe0_2 2.575356 1_546
Fe0_2 Fe1_7 2.439391 1_555
Fe0_2 Fe1_1 2.439391 1_565
Fe0_2 Fe1_4 2.439391 1_565
Fe0_2 Fe3_0 2.525529 1_565
Fe0_2 Fe3_6 2.525529 1_555
Fe0_2 Fe3_3 2.525529 1_555
Fe0_2 Fe0_4 2.575356 1_555
Fe0_2 Fe0_4 2.575356 1_465
Fe0_2 Fe0_7 2.575356 1_455
Fe0_2 Fe0_7 2.575356 1_554
Fe0_3 Fe1_6 2.439391 1_556
Fe0_3 Fe1_0 2.439391 1_566
Fe0_3 Fe1_5 2.439391 1_565
Fe0_3 Fe3_7 2.525529 1_555
Fe0_3 Fe3_1 2.525529 1_565
Fe0_3 Fe3_2 2.525529 1_556
Fe0_3 Fe0_5 2.575356 1_465
Fe0_3 Fe0_5 2.575356 1_555
Fe0_3 Fe0_6 2.575356 1_555
Fe0_3 Fe0_6 2.575356 1_456
Fe0_4 Fe1_7 2.439391 1_555
Fe0_4 Fe1_1 2.439391 1_655
Fe0_4 Fe1_2 2.439391 1_655
Fe0_4 Fe3_0 2.525529 1_655
Fe0_4 Fe3_6 2.525529 1_555
Fe0_4 Fe3_5 2.525529 1_555
Fe0_4 Fe0_7 2.575356 1_554
Fe0_4 Fe0_7 2.575356 1_545
Fe0_5 Fe1_6 2.439391 1_556
Fe0_5 Fe1_0 2.439391 1_656
Fe0_5 Fe1_3 2.439391 1_655
Fe0_5 Fe3_7 2.525529 1_555
Fe0_5 Fe3_1 2.525529 1_655
Fe0_5 Fe3_4 2.525529 1_556
Fe0_5 Fe0_6 2.575356 1_555
Fe0_5 Fe0_6 2.575356 1_546
Fe0_6 Fe1_5 2.439391 1_565
Fe0_6 Fe1_3 2.439391 1_655
Fe0_6 Fe1_0 2.439391 1_665
Fe0_6 Fe3_4 2.525529 1_565
Fe0_6 Fe3_2 2.525529 1_655
Fe0_6 Fe3_7 2.525529 1_555
Fe0_7 Fe1_2 2.439391 1_656
Fe0_7 Fe1_4 2.439391 1_566
Fe0_7 Fe1_1 2.439391 1_665
Fe0_7 Fe3_3 2.525529 1_655
Fe0_7 Fe3_5 2.525529 1_565
Fe0_7 Fe3_6 2.525529 1_556
Fe1_0 Fe2_4 2.525529 1_455
Fe1_0 Fe2_2 2.525529 1_545
Fe1_0 Fe2_1 2.525529 1_554
Fe1_0 Fe1_6 2.575356 1_545
Fe1_0 Fe1_6 2.575356 1_455
Fe1_0 Fe1_3 2.575356 1_545
Fe1_0 Fe1_5 2.575356 1_455
Fe1_0 Fe1_5 2.575356 1_554
Fe1_0 Fe1_3 2.575356 1_554
Fe1_1 Fe2_5 2.525529 1_455
Fe1_1 Fe2_3 2.525529 1_545
Fe1_1 Fe2_0 2.525529 1_555
Fe1_1 Fe1_7 2.575356 1_545
Fe1_1 Fe1_7 2.575356 1_455
Fe1_1 Fe1_2 2.575356 1_546
Fe1_1 Fe1_4 2.575356 1_456
Fe1_1 Fe1_4 2.575356 1_555
Fe1_1 Fe1_2 2.575356 1_555
Fe1_2 Fe2_0 2.525529 1_555
Fe1_2 Fe2_6 2.525529 1_455
Fe1_2 Fe2_3 2.525529 1_554
Fe1_2 Fe1_4 2.575356 1_465
Fe1_2 Fe1_4 2.575356 1_555
Fe1_2 Fe1_7 2.575356 1_554
Fe1_2 Fe1_7 2.575356 1_455
Fe1_3 Fe2_1 2.525529 1_555
Fe1_3 Fe2_7 2.525529 1_455
Fe1_3 Fe2_2 2.525529 1_555
Fe1_3 Fe1_5 2.575356 1_465
Fe1_3 Fe1_5 2.575356 1_555
Fe1_3 Fe1_6 2.575356 1_555
Fe1_3 Fe1_6 2.575356 1_456
Fe1_4 Fe2_6 2.525529 1_545
Fe1_4 Fe2_0 2.525529 1_555
Fe1_4 Fe2_5 2.525529 1_554
Fe1_4 Fe1_7 2.575356 1_545
Fe1_4 Fe1_7 2.575356 1_554
Fe1_5 Fe2_1 2.525529 1_555
Fe1_5 Fe2_7 2.525529 1_545
Fe1_5 Fe2_4 2.525529 1_555
Fe1_5 Fe1_6 2.575356 1_555
Fe1_5 Fe1_6 2.575356 1_546
Fe1_6 Fe2_4 2.525529 1_555
Fe1_6 Fe2_2 2.525529 1_555
Fe1_6 Fe2_7 2.525529 1_554
Fe1_7 Fe2_5 2.525529 1_555
Fe1_7 Fe2_3 2.525529 1_555
Fe1_7 Fe2_6 2.525529 1_555
Fe2_0 N0_4 1.923625 1_555
Fe2_0 N0_2 1.923625 1_555
Fe2_0 N0_1 1.923625 1_555
Fe2_1 N0_3 1.923625 1_555
Fe2_1 N0_5 1.923625 1_555
Fe2_1 N0_0 1.923625 1_556
Fe2_2 N0_0 1.923625 1_565
Fe2_2 N0_6 1.923625 1_555
Fe2_2 N0_3 1.923625 1_555
Fe2_3 N0_1 1.923625 1_565
Fe2_3 N0_7 1.923625 1_555
Fe2_3 N0_2 1.923625 1_556
Fe2_4 N0_0 1.923625 1_655
Fe2_4 N0_6 1.923625 1_555
Fe2_4 N0_5 1.923625 1_555
Fe2_5 N0_1 1.923625 1_655
Fe2_5 N0_7 1.923625 1_555
Fe2_5 N0_4 1.923625 1_556
Fe2_6 N0_2 1.923625 1_655
Fe2_6 N0_4 1.923625 1_565
Fe2_6 N0_7 1.923625 1_555
Fe2_7 N0_3 1.923625 1_655
Fe2_7 N0_5 1.923625 1_565
Fe2_7 N0_6 1.923625 1_556
Fe3_0 N0_5 1.923625 1_555
Fe3_0 N0_3 1.923625 1_555
Fe3_0 N0_6 1.923625 1_555
Fe3_1 N0_4 1.923625 1_556
Fe3_1 N0_2 1.923625 1_556
Fe3_1 N0_7 1.923625 1_555
Fe3_2 N0_7 1.923625 1_555
Fe3_2 N0_1 1.923625 1_565
Fe3_2 N0_4 1.923625 1_565
Fe3_3 N0_6 1.923625 1_556
Fe3_3 N0_0 1.923625 1_566
Fe3_3 N0_5 1.923625 1_565
Fe3_4 N0_7 1.923625 1_555
Fe3_4 N0_1 1.923625 1_655
Fe3_4 N0_2 1.923625 1_655
Fe3_5 N0_6 1.923625 1_556
Fe3_5 N0_0 1.923625 1_656
Fe3_5 N0_3 1.923625 1_655
Fe3_6 N0_5 1.923625 1_565
Fe3_6 N0_3 1.923625 1_655
Fe3_6 N0_0 1.923625 1_665
Fe3_7 N0_2 1.923625 1_656
Fe3_7 N0_4 1.923625 1_566
Fe3_7 N0_1 1.923625 1_665
