# generated using pymatgen
data_Na2HgAu
_symmetry_space_group_name_H-M   'P 1'
_cell_length_a   11.87897557
_cell_length_b   11.87897557
_cell_length_c   11.87897557
_cell_angle_alpha   120.21767761
_cell_angle_beta   119.83171738
_cell_angle_gamma   89.95755324
_symmetry_Int_Tables_number   1
_chemical_formula_structural   Na2HgAu
_chemical_formula_sum   'Na2 Hg1 Au1'
_cell_volume   1184.82312613
_cell_formula_units_Z   1
loop_
 _symmetry_equiv_pos_site_id
 _symmetry_equiv_pos_as_xyz
  1  'x, y, z'
loop_
 _atom_site_type_symbol
 _atom_site_label
 _atom_site_symmetry_multiplicity
 _atom_site_fract_x
 _atom_site_fract_y
 _atom_site_fract_z
 _atom_site_occupancy
  Na  Na0  1  0.00000000  0.23593200  0.23593200  1
  Na  Na1  1  0.00000000  0.76406800  0.76406800  1
  Hg  Hg0  1  0.00000000  0.50000000  0.50000000  1
  Au  Au0  1  0.00000000  0.00000000  0.00000000  1
loop_
_geom_bond_atom_site_label_1
_geom_bond_atom_site_label_2
_geom_bond_distance
_geom_bond_site_symmetry_2
Hg0 Na0 3.126531 1_555
Hg0 Na1 3.126531 1_555
Au0 Na0 2.793404 1_555
Au0 Na1 2.793404 1_544
