# generated using pymatgen
data_Ho4SiGe3
_symmetry_space_group_name_H-M   'P 1'
_cell_length_a   3.89778481
_cell_length_b   4.23755800
_cell_length_c   10.58984613
_cell_angle_alpha   90.00000000
_cell_angle_beta   90.00000000
_cell_angle_gamma   90.00000000
_symmetry_Int_Tables_number   1
_chemical_formula_structural   Ho4SiGe3
_chemical_formula_sum   'Ho4 Si1 Ge3'
_cell_volume   174.91343318
_cell_formula_units_Z   1
loop_
 _symmetry_equiv_pos_site_id
 _symmetry_equiv_pos_as_xyz
  1  'x, y, z'
loop_
 _atom_site_type_symbol
 _atom_site_label
 _atom_site_symmetry_multiplicity
 _atom_site_fract_x
 _atom_site_fract_y
 _atom_site_fract_z
 _atom_site_occupancy
  Ho  Ho0  1  -0.00000000  -0.00000000  0.14104149  1
  Ho  Ho1  1  -0.00000000  0.50000000  0.63775811  1
  Ho  Ho2  1  0.50000000  0.50000000  0.36147130  1
  Ho  Ho3  1  0.50000000  0.00000000  0.86071911  1
  Si  Si0  1  -0.00000000  -0.00000000  0.41864428  1
  Ge  Ge0  1  -0.00000000  0.50000000  0.91432427  1
  Ge  Ge1  1  0.50000000  0.50000000  0.08502551  1
  Ge  Ge2  1  0.50000000  -0.00000000  0.58101592  1
loop_
_geom_bond_atom_site_label_1
_geom_bond_atom_site_label_2
_geom_bond_distance
_geom_bond_site_symmetry_2
Ho0 Si0 2.939771 1_555
Ho1 Si0 3.142196 1_565
Ho1 Si0 3.142196 1_555
Ho2 Si0 2.941765 1_665
Ho2 Si0 2.941765 1_655
Ho2 Si0 2.941765 1_565
Ho2 Si0 2.941765 1_555
Ge0 Ge1 2.658187 1_556
Ge0 Ge1 2.658187 1_456
Ge0 Ho1 2.928793 1_555
Ge0 Ho3 2.934221 1_565
Ge0 Ho3 2.934221 1_555
Ge0 Ho3 2.934221 1_465
Ge0 Ho3 2.934221 1_455
Ge0 Ho0 3.202116 1_556
Ge0 Ho0 3.202116 1_566
Ge1 Ho2 2.927518 1_555
Ge1 Ho0 2.939267 1_555
Ge1 Ho0 2.939267 1_655
Ge1 Ho0 2.939267 1_565
Ge1 Ho0 2.939267 1_665
Ge1 Ho3 3.183019 1_564
Ge1 Ho3 3.183019 1_554
Ge2 Si0 2.599006 1_655
Ge2 Si0 2.599006 1_555
Ge2 Ho1 2.940829 1_545
Ge2 Ho1 2.940829 1_645
Ge2 Ho1 2.940829 1_655
Ge2 Ho1 2.940829 1_555
Ge2 Ho3 2.962014 1_555
Ge2 Ho2 3.145566 1_555
Ge2 Ho2 3.145566 1_545
