# generated using pymatgen
data_SrLaNiO4
_symmetry_space_group_name_H-M   'P 1'
_cell_length_a   6.85393193
_cell_length_b   6.85393193
_cell_length_c   5.45848100
_cell_angle_alpha   90.00000000
_cell_angle_beta   90.00000000
_cell_angle_gamma   133.20190569
_symmetry_Int_Tables_number   1
_chemical_formula_structural   SrLaNiO4
_chemical_formula_sum   'Sr2 La2 Ni2 O8'
_cell_volume   186.91607365
_cell_formula_units_Z   2
loop_
 _symmetry_equiv_pos_site_id
 _symmetry_equiv_pos_as_xyz
  1  'x, y, z'
loop_
 _atom_site_type_symbol
 _atom_site_label
 _atom_site_symmetry_multiplicity
 _atom_site_fract_x
 _atom_site_fract_y
 _atom_site_fract_z
 _atom_site_occupancy
  Sr  Sr0  1  0.39283200  0.60716800  0.75000000  1
  Sr  Sr1  1  0.60716800  0.39283200  0.25000000  1
  La  La0  1  0.88686300  0.11313700  0.25000000  1
  La  La1  1  0.11313700  0.88686300  0.75000000  1
  Ni  Ni0  1  0.25074300  0.74925700  0.25000000  1
  Ni  Ni1  1  0.74925700  0.25074300  0.75000000  1
  O  O0  1  0.07635400  0.92364600  0.25000000  1
  O  O1  1  0.58825100  0.41174900  0.75000000  1
  O  O2  1  0.92364600  0.07635400  0.75000000  1
  O  O3  1  0.41174900  0.58825100  0.25000000  1
  O  O4  1  0.00000000  0.50000000  0.00000000  1
  O  O5  1  0.50000000  0.00000000  0.50000000  1
  O  O6  1  0.00000000  0.50000000  0.50000000  1
  O  O7  1  0.50000000  0.00000000  0.00000000  1
loop_
_geom_bond_atom_site_label_1
_geom_bond_atom_site_label_2
_geom_bond_distance
_geom_bond_site_symmetry_2
La0 O0 2.383900 1_645
La0 O7 2.584383 1_555
La0 O5 2.584383 1_555
La0 O4 2.584383 1_655
La0 O6 2.584383 1_655
La0 O3 2.739866 1_545
La0 O3 2.739866 1_655
La0 O2 2.768193 1_555
La0 O2 2.768193 1_554
La1 O2 2.383900 1_465
La1 O6 2.584383 1_555
La1 O4 2.584383 1_556
La1 O5 2.584383 1_565
La1 O7 2.584383 1_566
La1 O1 2.739866 1_565
La1 O1 2.739866 1_455
La1 O0 2.768193 1_556
La1 O0 2.768193 1_555
Ni0 O4 1.927301 1_555
Ni0 O6 1.927301 1_555
Ni0 O5 1.927301 1_565
Ni0 O7 1.927301 1_565
Ni0 O3 2.025543 1_555
Ni0 O0 2.193909 1_555
Ni1 O5 1.927301 1_555
Ni1 O4 1.927301 1_656
Ni1 O6 1.927301 1_655
Ni1 O7 1.927301 1_556
Ni1 O1 2.025543 1_555
Ni1 O2 2.193909 1_555
O0 Sr1 2.749387 1_455
O0 Sr1 2.749387 1_565
O1 Sr0 2.458478 1_555
O1 Sr1 2.739597 1_555
O1 Sr1 2.739597 1_556
O2 Sr0 2.749387 1_545
O2 Sr0 2.749387 1_655
O3 Sr1 2.458478 1_555
O3 Sr0 2.739597 1_555
O3 Sr0 2.739597 1_554
O4 Sr1 2.635008 1_455
O4 Sr0 2.635008 1_554
O5 Sr0 2.635008 1_545
O5 Sr1 2.635008 1_555
O6 Sr1 2.635008 1_455
O6 Sr0 2.635008 1_555
O7 Sr0 2.635008 1_544
O7 Sr1 2.635008 1_555
