# generated using pymatgen
data_SiH12C2(NF3)2
_symmetry_space_group_name_H-M   'P 1'
_cell_length_a   6.88814660
_cell_length_b   6.88814660
_cell_length_c   10.01351580
_cell_angle_alpha   98.10930293
_cell_angle_beta   98.10930293
_cell_angle_gamma   90.12998539
_symmetry_Int_Tables_number   1
_chemical_formula_structural   SiH12C2(NF3)2
_chemical_formula_sum   'Si2 H24 C4 N4 F12'
_cell_volume   465.53389355
_cell_formula_units_Z   2
loop_
 _symmetry_equiv_pos_site_id
 _symmetry_equiv_pos_as_xyz
  1  'x, y, z'
loop_
 _atom_site_type_symbol
 _atom_site_label
 _atom_site_symmetry_multiplicity
 _atom_site_fract_x
 _atom_site_fract_y
 _atom_site_fract_z
 _atom_site_occupancy
  Si  Si0  1  0.20196900  0.79803100  0.25000000  1
  Si  Si1  1  0.79803100  0.20196900  0.75000000  1
  H  H0  1  0.82325500  0.60479500  0.85580400  1
  H  H1  1  0.39520500  0.17674500  0.64419600  1
  H  H2  1  0.17674500  0.39520500  0.14419600  1
  H  H3  1  0.60479500  0.82325500  0.35580400  1
  H  H4  1  0.81914400  0.84696300  0.85619200  1
  H  H5  1  0.15303700  0.18085600  0.64380800  1
  H  H6  1  0.18085600  0.15303700  0.14380800  1
  H  H7  1  0.84696300  0.81914400  0.35619200  1
  H  H8  1  0.95908200  0.75407700  0.98215200  1
  H  H9  1  0.24592300  0.04091800  0.51784800  1
  H  H10  1  0.04091800  0.24592300  0.01784800  1
  H  H11  1  0.75407700  0.95908200  0.48215200  1
  H  H12  1  0.66516500  0.63532700  0.06007800  1
  H  H13  1  0.36467300  0.33483500  0.43992200  1
  H  H14  1  0.33483500  0.36467300  0.93992200  1
  H  H15  1  0.63532700  0.66516500  0.56007800  1
  H  H16  1  0.66998100  0.89558400  0.06301100  1
  H  H17  1  0.10441600  0.33001900  0.43698900  1
  H  H18  1  0.33001900  0.10441600  0.93698900  1
  H  H19  1  0.89558400  0.66998100  0.56301100  1
  H  H20  1  0.51917500  0.74287100  0.92825100  1
  H  H21  1  0.25712900  0.48082500  0.57174900  1
  H  H22  1  0.48082500  0.25712900  0.07174900  1
  H  H23  1  0.74287100  0.51917500  0.42825100  1
  C  C0  1  0.65751300  0.75398400  0.99767400  1
  C  C1  1  0.24601600  0.34248700  0.50232600  1
  C  C2  1  0.34248700  0.24601600  0.00232600  1
  C  C3  1  0.75398400  0.65751300  0.49767400  1
  N  N0  1  0.82457000  0.73849100  0.91783100  1
  N  N1  1  0.26150900  0.17543000  0.58216900  1
  N  N2  1  0.17543000  0.26150900  0.08216900  1
  N  N3  1  0.73849100  0.82457000  0.41783100  1
  F  F0  1  0.02522100  0.97477900  0.25000000  1
  F  F1  1  0.97477900  0.02522100  0.75000000  1
  F  F2  1  0.37709300  0.62290700  0.25000000  1
  F  F3  1  0.62290700  0.37709300  0.75000000  1
  F  F4  1  0.17983200  0.78224900  0.07414200  1
  F  F5  1  0.21775100  0.82016800  0.42585800  1
  F  F6  1  0.82016800  0.21775100  0.92585800  1
  F  F7  1  0.78224900  0.17983200  0.57414200  1
  F  F8  1  0.02340000  0.61812800  0.23362100  1
  F  F9  1  0.38187200  0.97660000  0.26637900  1
  F  F10  1  0.97660000  0.38187200  0.76637900  1
  F  F11  1  0.61812800  0.02340000  0.73362100  1
loop_
_geom_bond_atom_site_label_1
_geom_bond_atom_site_label_2
_geom_bond_distance
_geom_bond_site_symmetry_2
H0 N0 1.034867 1_555
H1 N1 1.034867 1_555
H2 N2 1.034867 1_555
H3 N3 1.034867 1_555
H4 N0 1.031674 1_555
H5 N1 1.031674 1_555
H6 N2 1.031674 1_555
H7 N3 1.031674 1_555
H8 N0 1.047147 1_555
H9 N1 1.047147 1_555
H10 N2 1.047147 1_555
H11 N3 1.047147 1_555
C0 H16 1.091095 1_556
C0 H20 1.093112 1_555
C0 H12 1.093743 1_556
C0 N0 1.486871 1_555
C1 H17 1.091095 1_555
C1 H21 1.093112 1_555
C1 H13 1.093743 1_555
C1 N1 1.486871 1_555
C2 H18 1.091095 1_554
C2 H22 1.093112 1_555
C2 H14 1.093743 1_554
C2 N2 1.486871 1_555
C3 H19 1.091095 1_555
C3 H23 1.093112 1_555
C3 H15 1.093743 1_555
C3 N3 1.486871 1_555
F0 Si0 1.723709 1_555
F1 Si1 1.723709 1_555
F2 Si0 1.707871 1_555
F3 Si1 1.707871 1_555
F4 Si0 1.733840 1_555
F5 Si0 1.733840 1_555
F6 Si1 1.733840 1_555
F7 Si1 1.733840 1_555
F8 Si0 1.718798 1_555
F9 Si0 1.718798 1_555
F10 Si1 1.718798 1_555
F11 Si1 1.718798 1_555
