# generated using pymatgen
data_Sr3Ca(ClF)4
_symmetry_space_group_name_H-M   'P 1'
_cell_length_a   4.11642200
_cell_length_b   4.11642200
_cell_length_c   14.05130800
_cell_angle_alpha   90.00000000
_cell_angle_beta   90.00000000
_cell_angle_gamma   90.00000000
_symmetry_Int_Tables_number   1
_chemical_formula_structural   Sr3Ca(ClF)4
_chemical_formula_sum   'Sr3 Ca1 Cl4 F4'
_cell_volume   238.09843162
_cell_formula_units_Z   1
loop_
 _symmetry_equiv_pos_site_id
 _symmetry_equiv_pos_as_xyz
  1  'x, y, z'
loop_
 _atom_site_type_symbol
 _atom_site_label
 _atom_site_symmetry_multiplicity
 _atom_site_fract_x
 _atom_site_fract_y
 _atom_site_fract_z
 _atom_site_occupancy
  Sr  Sr0  1  0.50000000  0.50000000  0.89990000  1
  Sr  Sr1  1  0.00000000  0.00000000  0.10648900  1
  Sr  Sr2  1  0.00000000  0.00000000  0.59554500  1
  Ca  Ca0  1  0.50000000  0.50000000  0.40345700  1
  Cl  Cl0  1  0.50000000  0.50000000  0.18653900  1
  Cl  Cl1  1  0.50000000  0.50000000  0.67315500  1
  Cl  Cl2  1  0.00000000  0.00000000  0.32671600  1
  Cl  Cl3  1  0.00000000  0.00000000  0.81817000  1
  F  F0  1  0.50000000  0.00000000  0.00189500  1
  F  F1  1  0.50000000  0.00000000  0.49312000  1
  F  F2  1  0.00000000  0.50000000  0.00189500  1
  F  F3  1  0.00000000  0.50000000  0.49312000  1
loop_
_geom_bond_atom_site_label_1
_geom_bond_atom_site_label_2
_geom_bond_distance
_geom_bond_site_symmetry_2
Ca0 F3 2.413200 1_555
Ca0 F1 2.413200 1_565
Ca0 F1 2.413200 1_555
Ca0 F3 2.413200 1_655
Ca0 Cl0 3.047982 1_555
Ca0 Cl2 3.104065 1_555
Ca0 Cl2 3.104065 1_655
Ca0 Cl2 3.104065 1_565
Ca0 Cl2 3.104065 1_665
Cl0 Sr1 3.120522 1_665
Cl0 Sr1 3.120522 1_655
Cl0 Sr1 3.120522 1_565
Cl0 Sr1 3.120522 1_555
Cl1 Sr2 3.108328 1_565
Cl1 Sr2 3.108328 1_665
Cl1 Sr2 3.108328 1_555
Cl1 Sr2 3.108328 1_655
Cl1 Sr0 3.186064 1_555
Cl2 Sr1 3.094477 1_555
Cl3 Sr2 3.128172 1_555
Cl3 Sr0 3.129108 1_445
Cl3 Sr0 3.129108 1_545
Cl3 Sr0 3.129108 1_455
Cl3 Sr0 3.129108 1_555
F0 Sr0 2.508025 1_554
F0 Sr0 2.508025 1_544
F0 Sr1 2.529071 1_655
F0 Sr1 2.529071 1_555
F1 Sr2 2.511482 1_555
F1 Sr2 2.511482 1_655
F2 Sr0 2.508025 1_554
F2 Sr0 2.508025 1_454
F2 Sr1 2.529071 1_565
F2 Sr1 2.529071 1_555
F3 Sr2 2.511482 1_555
F3 Sr2 2.511482 1_565
