# generated using pymatgen
data_Ba3Cd(SiO4)2
_symmetry_space_group_name_H-M   'P 1'
_cell_length_a   5.81295551
_cell_length_b   5.81295551
_cell_length_c   7.46557900
_cell_angle_alpha   90.00000000
_cell_angle_beta   90.00000000
_cell_angle_gamma   119.99999441
_symmetry_Int_Tables_number   1
_chemical_formula_structural   Ba3Cd(SiO4)2
_chemical_formula_sum   'Ba3 Cd1 Si2 O8'
_cell_volume   218.46815932
_cell_formula_units_Z   1
loop_
 _symmetry_equiv_pos_site_id
 _symmetry_equiv_pos_as_xyz
  1  'x, y, z'
loop_
 _atom_site_type_symbol
 _atom_site_label
 _atom_site_symmetry_multiplicity
 _atom_site_fract_x
 _atom_site_fract_y
 _atom_site_fract_z
 _atom_site_occupancy
  Ba  Ba0  1  0.33333300  0.66666700  0.67292000  1
  Ba  Ba1  1  0.66666700  0.33333300  0.32708000  1
  Ba  Ba2  1  0.00000000  0.00000000  0.00000000  1
  Cd  Cd0  1  0.00000000  0.00000000  0.50000000  1
  Si  Si0  1  0.33333300  0.66666700  0.22351200  1
  Si  Si1  1  0.66666700  0.33333300  0.77648800  1
  O  O0  1  0.33333300  0.66666700  0.00708900  1
  O  O1  1  0.66666700  0.33333300  0.99291100  1
  O  O2  1  0.17960800  0.82039200  0.30572300  1
  O  O3  1  0.82039200  0.17960800  0.69427700  1
  O  O4  1  0.17960800  0.35921600  0.30572300  1
  O  O5  1  0.82039200  0.64078400  0.69427700  1
  O  O6  1  0.64078400  0.82039200  0.30572300  1
  O  O7  1  0.35921600  0.17960800  0.69427700  1
loop_
_geom_bond_atom_site_label_1
_geom_bond_atom_site_label_2
_geom_bond_distance
_geom_bond_site_symmetry_2
Ba0 O0 2.494765 1_556
Ba0 O5 2.913760 1_455
Ba0 O7 2.913760 1_565
Ba0 O3 2.913763 1_455
Ba0 O3 2.913763 1_565
Ba0 O7 2.913766 1_555
Ba0 O5 2.913766 1_555
Ba0 O2 3.148091 1_555
Ba0 O4 3.148094 1_555
Ba0 O6 3.148094 1_555
Ba1 O1 2.494765 1_554
Ba1 O4 2.913760 1_655
Ba1 O6 2.913760 1_545
Ba1 O2 2.913763 1_545
Ba1 O2 2.913763 1_655
Ba1 O6 2.913766 1_555
Ba1 O4 2.913766 1_555
Ba1 O3 3.148091 1_555
Ba1 O7 3.148094 1_555
Ba1 O5 3.148094 1_555
Ba2 O2 2.911956 1_545
Ba2 O3 2.911956 1_454
Ba2 O6 2.911956 1_445
Ba2 O4 2.911956 1_555
Ba2 O7 2.911956 1_554
Ba2 O5 2.911956 1_444
Ba2 O0 3.356525 1_545
Ba2 O1 3.356525 1_454
Ba2 O0 3.356531 1_555
Ba2 O1 3.356531 1_554
Ba2 O1 3.356531 1_444
Ba2 O0 3.356531 1_445
Cd0 O3 2.318140 1_455
Cd0 O2 2.318140 1_545
Cd0 O7 2.318140 1_555
Cd0 O5 2.318140 1_445
Cd0 O6 2.318140 1_445
Cd0 O4 2.318140 1_555
O0 Si0 1.615723 1_555
O1 Si1 1.615723 1_555
O2 Si0 1.665004 1_555
O3 Si1 1.665004 1_555
O4 Si0 1.665008 1_555
O5 Si1 1.665008 1_555
O6 Si0 1.665008 1_555
O7 Si1 1.665008 1_555
