# generated using pymatgen
data_Ba2TlW2O7
_symmetry_space_group_name_H-M   'P 1'
_cell_length_a   3.97647800
_cell_length_b   3.97647800
_cell_length_c   13.09408200
_cell_angle_alpha   90.00000000
_cell_angle_beta   90.00000000
_cell_angle_gamma   90.00000000
_symmetry_Int_Tables_number   1
_chemical_formula_structural   Ba2TlW2O7
_chemical_formula_sum   'Ba2 Tl1 W2 O7'
_cell_volume   207.04856478
_cell_formula_units_Z   1
loop_
 _symmetry_equiv_pos_site_id
 _symmetry_equiv_pos_as_xyz
  1  'x, y, z'
loop_
 _atom_site_type_symbol
 _atom_site_label
 _atom_site_symmetry_multiplicity
 _atom_site_fract_x
 _atom_site_fract_y
 _atom_site_fract_z
 _atom_site_occupancy
  Ba  Ba0  1  0.50000000  0.50000000  0.69599400  1
  Ba  Ba1  1  0.50000000  0.50000000  0.30400600  1
  Tl  Tl0  1  0.00000000  0.00000000  0.50000000  1
  W  W0  1  0.00000000  0.00000000  0.87063800  1
  W  W1  1  0.00000000  0.00000000  0.12936200  1
  O  O0  1  0.50000000  0.50000000  0.50000000  1
  O  O1  1  0.00000000  0.50000000  0.87363600  1
  O  O2  1  0.50000000  0.00000000  0.87363600  1
  O  O3  1  0.00000000  0.50000000  0.12636400  1
  O  O4  1  0.50000000  0.00000000  0.12636400  1
  O  O5  1  0.00000000  0.00000000  0.71477300  1
  O  O6  1  0.00000000  0.00000000  0.28522700  1
loop_
_geom_bond_atom_site_label_1
_geom_bond_atom_site_label_2
_geom_bond_distance
_geom_bond_site_symmetry_2
Ba0 O0 2.566362 1_555
Ba0 O5 2.822526 1_565
Ba0 O5 2.822526 1_665
Ba0 O5 2.822526 1_555
Ba0 O5 2.822526 1_655
Ba0 O1 3.060007 1_655
Ba0 O2 3.060007 1_555
Ba0 O2 3.060007 1_565
Ba0 O1 3.060007 1_555
Ba1 O0 2.566362 1_555
Ba1 O6 2.822526 1_565
Ba1 O6 2.822526 1_665
Ba1 O6 2.822526 1_555
Ba1 O6 2.822526 1_655
Ba1 O3 3.060007 1_555
Ba1 O3 3.060007 1_655
Ba1 O4 3.060007 1_555
Ba1 O4 3.060007 1_565
O0 Tl0 2.811795 1_555
O0 Tl0 2.811795 1_565
O0 Tl0 2.811795 1_665
O0 Tl0 2.811795 1_655
O1 W0 1.988627 1_555
O1 W0 1.988627 1_565
O2 W0 1.988627 1_555
O2 W0 1.988627 1_655
O3 W1 1.988627 1_555
O3 W1 1.988627 1_565
O4 W1 1.988627 1_555
O4 W1 1.988627 1_655
O5 W0 2.040909 1_555
O5 Tl0 2.812255 1_555
O6 W1 2.040909 1_555
O6 Tl0 2.812255 1_555
