# generated using pymatgen
data_ReNO2
_symmetry_space_group_name_H-M   'P 1'
_cell_length_a   5.88236100
_cell_length_b   5.88236100
_cell_length_c   6.48140539
_cell_angle_alpha   116.98694446
_cell_angle_beta   116.98694446
_cell_angle_gamma   90.00000000
_symmetry_Int_Tables_number   1
_chemical_formula_structural   ReNO2
_chemical_formula_sum   'Re4 N4 O8'
_cell_volume   171.99586919
_cell_formula_units_Z   4
loop_
 _symmetry_equiv_pos_site_id
 _symmetry_equiv_pos_as_xyz
  1  'x, y, z'
loop_
 _atom_site_type_symbol
 _atom_site_label
 _atom_site_symmetry_multiplicity
 _atom_site_fract_x
 _atom_site_fract_y
 _atom_site_fract_z
 _atom_site_occupancy
  Re  Re0  1  0.12500000  0.37500000  0.25000000  1
  Re  Re1  1  0.12500000  0.87500000  0.25000000  1
  Re  Re2  1  0.12500000  0.87500000  0.75000000  1
  Re  Re3  1  0.62500000  0.87500000  0.75000000  1
  N  N0  1  0.62500000  0.87500000  0.25000000  1
  N  N1  1  0.62500000  0.37500000  0.25000000  1
  N  N2  1  0.62500000  0.37500000  0.75000000  1
  N  N3  1  0.12500000  0.37500000  0.75000000  1
  O  O0  1  0.39561700  0.19891000  0.39778500  1
  O  O1  1  0.00216900  0.19887500  0.39778500  1
  O  O2  1  0.44887500  0.14561700  0.89778500  1
  O  O3  1  0.85438300  0.55109000  0.10221500  1
  O  O4  1  0.44891000  0.75216900  0.89778500  1
  O  O5  1  0.24783100  0.55112500  0.10221500  1
  O  O6  1  0.80112500  0.60438300  0.60221500  1
  O  O7  1  0.80109000  0.99783100  0.60221500  1
loop_
_geom_bond_atom_site_label_1
_geom_bond_atom_site_label_2
_geom_bond_distance
_geom_bond_site_symmetry_2
N0 O4 1.778572 1_554
N0 O7 1.778572 1_555
N1 O6 1.778571 1_555
N1 O2 1.778571 1_554
N2 O3 1.778571 1_556
N2 O0 1.778571 1_555
N3 O5 1.778572 1_556
N3 O1 1.778572 1_555
O0 Re0 2.010243 1_555
O0 Re1 2.010394 1_545
O1 Re1 2.010240 1_545
O1 Re0 2.010390 1_555
O2 Re2 2.010243 1_545
O2 Re3 2.010394 1_545
O3 Re0 2.010243 1_655
O3 Re1 2.010394 1_655
O4 Re3 2.010240 1_555
O4 Re2 2.010390 1_555
O5 Re1 2.010240 1_555
O5 Re0 2.010390 1_555
O6 Re2 2.010243 1_655
O6 Re3 2.010394 1_555
O7 Re3 2.010240 1_555
O7 Re2 2.010390 1_655
