# generated using pymatgen
data_GaN
_symmetry_space_group_name_H-M   'P 1'
_cell_length_a   11.87224435
_cell_length_b   11.85982567
_cell_length_c   11.60243706
_cell_angle_alpha   96.53678982
_cell_angle_beta   90.81675848
_cell_angle_gamma   92.58298870
_symmetry_Int_Tables_number   1
_chemical_formula_structural   GaN
_chemical_formula_sum   'Ga50 N50'
_cell_volume   1621.07626034
_cell_formula_units_Z   50
loop_
 _symmetry_equiv_pos_site_id
 _symmetry_equiv_pos_as_xyz
  1  'x, y, z'
loop_
 _atom_site_type_symbol
 _atom_site_label
 _atom_site_symmetry_multiplicity
 _atom_site_fract_x
 _atom_site_fract_y
 _atom_site_fract_z
 _atom_site_occupancy
  Ga  Ga0  1  0.13673012  0.64834649  0.55605585  1
  Ga  Ga1  1  0.26162122  0.40152919  0.40115131  1
  Ga  Ga2  1  0.05189806  0.65460591  0.87020392  1
  Ga  Ga3  1  0.90673440  0.72812642  0.66148008  1
  Ga  Ga4  1  0.37910632  0.21147073  0.17990761  1
  Ga  Ga5  1  0.52467605  0.55760622  0.75505572  1
  Ga  Ga6  1  0.59673190  0.76907933  0.64531489  1
  Ga  Ga7  1  0.17557540  0.81935732  0.23290591  1
  Ga  Ga8  1  0.44425373  0.55688145  0.25620232  1
  Ga  Ga9  1  0.92985639  0.01474665  0.24805500  1
  Ga  Ga10  1  0.27482894  0.82632686  0.90372159  1
  Ga  Ga11  1  0.13753205  0.01139945  0.05890800  1
  Ga  Ga12  1  0.87008867  0.50662601  0.85449087  1
  Ga  Ga13  1  0.73951217  0.23487113  0.88063640  1
  Ga  Ga14  1  0.99795789  0.27139940  0.38948185  1
  Ga  Ga15  1  0.51538900  0.82770079  0.86423280  1
  Ga  Ga16  1  0.75803137  0.13971883  0.41804303  1
  Ga  Ga17  1  0.60944111  0.66985732  0.94905748  1
  Ga  Ga18  1  0.77376140  0.59821077  0.09491439  1
  Ga  Ga19  1  0.94450460  0.04862951  0.54188217  1
  Ga  Ga20  1  0.99270577  0.81909161  0.40916090  1
  Ga  Ga21  1  0.50469514  0.76894125  0.19718540  1
  Ga  Ga22  1  0.78708051  0.45518095  0.32585139  1
  Ga  Ga23  1  0.57831705  0.37930194  0.33331664  1
  Ga  Ga24  1  0.32898253  0.34889011  0.61194532  1
  Ga  Ga25  1  0.61035663  0.03130158  0.24959597  1
  Ga  Ga26  1  0.08892729  0.22116527  0.16632646  1
  Ga  Ga27  1  0.05196925  0.48327943  0.32461019  1
  Ga  Ga28  1  0.27007545  0.66483441  0.33342562  1
  Ga  Ga29  1  0.83596758  0.95921701  0.01717058  1
  Ga  Ga30  1  0.91032475  0.37899099  0.06352718  1
  Ga  Ga31  1  0.45187312  0.56874593  0.51851710  1
  Ga  Ga32  1  0.94105403  0.23138437  0.70738171  1
  Ga  Ga33  1  0.91161589  0.46233173  0.58180640  1
  Ga  Ga34  1  0.39699810  0.92803277  0.10789592  1
  Ga  Ga35  1  0.95143770  0.13093371  0.91982602  1
  Ga  Ga36  1  0.77760139  0.98770277  0.78795857  1
  Ga  Ga37  1  0.81207761  0.76863073  0.85826780  1
  Ga  Ga38  1  0.37001187  0.77916950  0.56709296  1
  Ga  Ga39  1  0.99894840  0.66669414  0.25004965  1
  Ga  Ga40  1  0.78600900  0.20061585  0.17918072  1
  Ga  Ga41  1  0.75195152  0.81420068  0.20424325  1
  Ga  Ga42  1  0.04540585  0.92865997  0.80130215  1
  Ga  Ga43  1  0.28496703  0.62852332  0.70840473  1
  Ga  Ga44  1  0.31520695  0.04213692  0.32117160  1
  Ga  Ga45  1  0.06428180  0.53811483  0.06039006  1
  Ga  Ga46  1  0.23235374  0.89226944  0.46569782  1
  Ga  Ga47  1  0.57501088  0.83150457  0.44624830  1
  Ga  Ga48  1  0.73453584  0.58193322  0.52027848  1
  Ga  Ga49  1  0.98829429  0.78592589  0.05080438  1
  N  N0  1  0.24697037  0.09147016  0.66051608  1
  N  N1  1  0.69841565  0.30830145  0.59777870  1
  N  N2  1  0.53167027  0.20730107  0.43478339  1
  N  N3  1  0.97501917  0.97478212  0.39425117  1
  N  N4  1  0.18375401  0.55515575  0.41347542  1
  N  N5  1  0.17034563  0.94413689  0.90503009  1
  N  N6  1  0.80368409  0.46331528  0.16331536  1
  N  N7  1  0.20649198  0.68240685  0.84212297  1
  N  N8  1  0.74262313  0.79586664  0.38448299  1
  N  N9  1  0.38216608  0.58189920  0.01359814  1
  N  N10  1  0.99695865  0.60402558  0.61352362  1
  N  N11  1  0.67142154  0.84920338  0.78274650  1
  N  N12  1  0.07021062  0.29783746  0.57234873  1
  N  N13  1  0.60457216  0.39054906  0.97591669  1
  N  N14  1  0.18697704  0.39533801  0.81121937  1
  N  N15  1  0.15665141  0.35533854  0.58377032  1
  N  N16  1  0.53776578  0.02849346  0.93164432  1
  N  N17  1  0.61573212  0.02410600  0.57846459  1
  N  N18  1  0.92269769  0.41488697  0.40795314  1
  N  N19  1  0.63922416  0.70181381  0.12144127  1
  N  N20  1  0.26950364  0.35959056  0.03179493  1
  N  N21  1  0.22433018  0.42997614  0.08213190  1
  N  N22  1  0.42886192  0.23890202  0.81240198  1
  N  N23  1  0.87988778  0.72129431  0.15777162  1
  N  N24  1  0.09342161  0.82359032  0.54996620  1
  N  N25  1  0.24307323  0.95326797  0.17379724  1
  N  N26  1  0.59943272  0.60194401  0.60528814  1
  N  N27  1  0.53859428  0.89988095  0.31616540  1
  N  N28  1  0.01375122  0.86664399  0.63158119  1
  N  N29  1  0.51651242  0.39935699  0.15948386  1
  N  N30  1  0.56012564  0.05956055  0.65058583  1
  N  N31  1  0.98860865  0.95039032  0.10110860  1
  N  N32  1  0.82014292  0.78548824  0.45149375  1
  N  N33  1  0.94188503  0.17854919  0.25127635  1
  N  N34  1  0.46607127  0.07587706  0.18817443  1
  N  N35  1  0.13257364  0.33281105  0.30426990  1
  N  N36  1  0.36891970  0.67594168  0.02629018  1
  N  N37  1  0.56358099  0.39371826  0.06680832  1
  N  N38  1  0.64204145  0.31222249  0.67542995  1
  N  N39  1  0.84478513  0.22501781  0.01930555  1
  N  N40  1  0.76206096  0.97381966  0.17903041  1
  N  N41  1  0.16726317  0.10413402  0.70991310  1
  N  N42  1  0.45810711  0.18628098  0.49141959  1
  N  N43  1  0.09825734  0.36883920  0.83282524  1
  N  N44  1  0.43522927  0.45333358  0.38120207  1
  N  N45  1  0.38581999  0.50586661  0.66032631  1
  N  N46  1  0.43495409  0.76332022  0.72069310  1
  N  N47  1  0.61334529  0.08278635  0.96849137  1
  N  N48  1  0.38404819  0.18708012  0.87488098  1
  N  N49  1  0.76546884  0.62214499  0.92344016  1
loop_
_geom_bond_atom_site_label_1
_geom_bond_atom_site_label_2
_geom_bond_distance
_geom_bond_site_symmetry_2
Ga0 N10 1.872754 1_455
Ga0 N4 1.983810 1_555
Ga0 N24 2.172019 1_555
Ga1 N35 1.976051 1_555
Ga1 N4 2.071464 1_555
Ga1 N44 2.147346 1_555
Ga1 N15 2.573058 1_555
Ga2 N7 1.889559 1_555
Ga3 N10 1.896275 1_555
Ga3 N28 2.094648 1_655
Ga4 N34 1.960403 1_555
Ga5 N45 2.001452 1_555
Ga5 N26 2.072113 1_555
Ga6 N11 1.941803 1_555
Ga6 N26 1.985539 1_555
Ga6 N46 2.123243 1_555
Ga7 N25 1.945167 1_555
Ga8 N44 2.005261 1_555
Ga8 N29 2.275962 1_555
Ga9 N3 1.889278 1_545
Ga9 N33 1.937541 1_555
Ga9 N31 1.939461 1_545
Ga9 N40 2.150423 1_545
Ga10 N5 1.908680 1_555
Ga10 N7 1.913979 1_555
Ga10 N36 2.676376 1_556
Ga11 N5 1.923331 1_544
Ga11 N31 1.969601 1_445
Ga11 N25 2.015369 1_545
Ga12 N49 1.997967 1_555
Ga13 N39 2.040325 1_556
Ga13 N47 2.598971 1_555
Ga13 N13 2.655160 1_555
Ga14 N33 1.930937 1_555
Ga14 N18 1.949273 1_555
Ga14 N35 2.041133 1_655
Ga14 N12 2.260123 1_655
Ga15 N46 1.966703 1_555
Ga15 N11 2.110150 1_555
Ga15 N16 2.422025 1_565
Ga17 N49 1.977828 1_555
Ga17 N19 2.015968 1_556
Ga18 N6 1.909916 1_555
Ga18 N23 1.953427 1_555
Ga18 N49 2.043029 1_554
Ga18 N19 2.064099 1_555
Ga19 N3 1.880687 1_545
Ga20 N3 1.894750 1_555
Ga20 N24 2.005053 1_655
Ga20 N32 2.144047 1_555
Ga21 N27 1.979631 1_555
Ga21 N19 1.988058 1_555
Ga21 N36 2.645209 1_555
Ga22 N6 1.911744 1_555
Ga22 N18 1.964028 1_555
Ga23 N44 2.003915 1_555
Ga23 N29 2.178430 1_555
Ga23 N2 2.513439 1_555
Ga24 N45 1.968362 1_555
Ga24 N15 2.073495 1_555
Ga25 N34 1.963229 1_555
Ga25 N27 1.981136 1_545
Ga25 N40 2.098703 1_545
Ga26 N35 2.003821 1_555
Ga26 N33 2.087439 1_455
Ga27 N4 1.967568 1_555
Ga27 N18 2.014224 1_455
Ga27 N35 2.054379 1_555
Ga28 N4 1.946008 1_555
Ga29 N31 2.057534 1_555
Ga29 N40 2.076843 1_555
Ga30 N6 1.958524 1_555
Ga30 N39 1.962280 1_555
Ga31 N44 1.980143 1_555
Ga31 N26 2.008706 1_555
Ga31 N45 2.035104 1_555
Ga32 N12 2.380687 1_655
Ga33 N10 1.918614 1_555
Ga33 N18 2.039246 1_555
Ga34 N25 2.012648 1_555
Ga34 N34 2.022686 1_565
Ga35 N39 2.014027 1_556
Ga36 N11 2.019752 1_555
Ga37 N49 2.029913 1_555
Ga37 N11 2.182255 1_555
Ga38 N46 1.963659 1_555
Ga39 N23 1.939290 1_555
Ga40 N39 2.037749 1_555
Ga40 N33 2.059678 1_555
Ga41 N40 1.946853 1_555
Ga41 N23 1.962334 1_555
Ga41 N19 2.000419 1_555
Ga41 N8 2.130894 1_555
Ga42 N5 1.885893 1_555
Ga42 N28 2.045502 1_555
Ga43 N7 1.884823 1_555
Ga43 N45 1.962705 1_555
Ga43 N46 2.330490 1_555
Ga44 N25 2.057812 1_545
Ga44 N34 2.429829 1_555
Ga45 N21 2.366137 1_555
Ga46 N24 2.108607 1_555
Ga47 N27 1.847734 1_555
Ga47 N8 2.167841 1_555
Ga47 N17 2.624146 1_565
Ga48 N26 1.904733 1_555
Ga49 N31 1.971109 1_555
Ga49 N23 1.989345 1_555
N0 N41 1.120355 1_555
N1 N38 1.127948 1_555
N2 N42 1.136109 1_555
N12 N15 1.203441 1_555
N13 N37 1.165165 1_556
N14 N43 1.125469 1_555
N16 N47 1.129972 1_555
N17 N30 1.128494 1_555
N20 N21 1.124201 1_555
N22 N48 1.126611 1_555
N24 N28 1.418113 1_555
N29 N37 1.215342 1_555
N32 N8 1.215834 1_555
N36 N9 1.126697 1_555
