# generated using pymatgen
data_Cu3P
_symmetry_space_group_name_H-M   'P 1'
_cell_length_a   6.90864863
_cell_length_b   6.90864866
_cell_length_c   7.12930719
_cell_angle_alpha   90.00000000
_cell_angle_beta   90.00000000
_cell_angle_gamma   119.99999504
_symmetry_Int_Tables_number   1
_chemical_formula_structural   Cu3P
_chemical_formula_sum   'Cu18 P6'
_cell_volume   294.68918227
_cell_formula_units_Z   6
loop_
 _symmetry_equiv_pos_site_id
 _symmetry_equiv_pos_as_xyz
  1  'x, y, z'
loop_
 _atom_site_type_symbol
 _atom_site_label
 _atom_site_symmetry_multiplicity
 _atom_site_fract_x
 _atom_site_fract_y
 _atom_site_fract_z
 _atom_site_occupancy
  Cu  Cu0  1  0.37500093  0.06470712  0.07603114  1
  Cu  Cu1  1  0.93529288  0.31029381  0.07603114  1
  Cu  Cu2  1  0.68970619  0.62499907  0.07603114  1
  Cu  Cu3  1  0.31029381  0.93529288  0.42396886  1
  Cu  Cu4  1  0.62499907  0.68970619  0.42396886  1
  Cu  Cu5  1  0.06470712  0.37500093  0.42396886  1
  Cu  Cu6  1  0.62499907  0.93529288  0.92396886  1
  Cu  Cu7  1  0.06470712  0.68970619  0.92396886  1
  Cu  Cu8  1  0.31029381  0.37500093  0.92396886  1
  Cu  Cu9  1  0.68970619  0.06470712  0.57603114  1
  Cu  Cu10  1  0.37500093  0.31029381  0.57603114  1
  Cu  Cu11  1  0.93529288  0.62499907  0.57603114  1
  Cu  Cu12  1  0.33333300  0.66666700  0.17289149  1
  Cu  Cu13  1  0.66666700  0.33333300  0.32710851  1
  Cu  Cu14  1  0.66666700  0.33333300  0.82710851  1
  Cu  Cu15  1  0.33333300  0.66666700  0.67289149  1
  Cu  Cu16  1  -0.00000000  -0.00000000  0.25000000  1
  Cu  Cu17  1  -0.00000000  -0.00000000  0.75000000  1
  P  P0  1  0.66423249  0.00000000  0.25000000  1
  P  P1  1  0.00000000  0.66423249  0.25000000  1
  P  P2  1  0.33576751  0.33576751  0.25000000  1
  P  P3  1  0.33576751  -0.00000000  0.75000000  1
  P  P4  1  -0.00000000  0.33576751  0.75000000  1
  P  P5  1  0.66423249  0.66423249  0.75000000  1
loop_
_geom_bond_atom_site_label_1
_geom_bond_atom_site_label_2
_geom_bond_distance
_geom_bond_site_symmetry_2
Cu0 P3 2.356876 1_554
Cu0 P2 2.371961 1_555
Cu0 P0 2.573753 1_555
Cu1 P4 2.356876 1_654
Cu1 P0 2.371961 1_555
Cu1 P1 2.573753 1_655
Cu2 P5 2.356876 1_554
Cu2 P1 2.371961 1_655
Cu2 P2 2.573753 1_555
Cu3 P3 2.356876 1_565
Cu3 P1 2.371961 1_555
Cu3 P0 2.573753 1_565
Cu4 P5 2.356876 1_555
Cu4 P0 2.371961 1_565
Cu4 P2 2.573753 1_555
Cu5 P4 2.356876 1_555
Cu5 P2 2.371961 1_555
Cu5 P1 2.573753 1_555
Cu6 P0 2.356876 1_566
Cu6 P5 2.371961 1_555
Cu6 P3 2.573753 1_565
Cu7 P1 2.356876 1_556
Cu7 P3 2.371961 1_565
Cu7 P4 2.573753 1_555
Cu8 P2 2.356876 1_556
Cu8 P4 2.371961 1_555
Cu8 P5 2.573753 1_555
Cu9 P0 2.356876 1_555
Cu9 P4 2.371961 1_655
Cu9 P3 2.573753 1_555
Cu10 P2 2.356876 1_555
Cu10 P3 2.371961 1_555
Cu10 P5 2.573753 1_555
Cu11 P1 2.356876 1_655
Cu11 P5 2.371961 1_555
Cu11 P4 2.573753 1_655
Cu12 P1 2.359452 1_555
Cu12 P0 2.359455 1_565
Cu12 P2 2.359458 1_555
Cu13 P0 2.359452 1_555
Cu13 P1 2.359455 1_655
Cu13 P2 2.359458 1_555
Cu14 P4 2.359452 1_655
Cu14 P3 2.359455 1_555
Cu14 P5 2.359458 1_555
Cu15 P3 2.359452 1_565
Cu15 P4 2.359455 1_555
Cu15 P5 2.359458 1_555
Cu16 P0 2.319700 1_455
Cu16 P1 2.319700 1_545
Cu16 P2 2.319700 1_555
Cu17 P3 2.319700 1_555
Cu17 P4 2.319700 1_555
Cu17 P5 2.319700 1_445
