# generated using pymatgen
data_Sm4V20(CuO4)15
_symmetry_space_group_name_H-M   'P 1'
_cell_length_a   10.48374457
_cell_length_b   12.28109907
_cell_length_c   10.48374457
_cell_angle_alpha   90.00000000
_cell_angle_beta   120.00000000
_cell_angle_gamma   115.26619438
_symmetry_Int_Tables_number   1
_chemical_formula_structural   Sm4V20(CuO4)15
_chemical_formula_sum   'Sm4 V20 Cu15 O60'
_cell_volume   1017.12846279
_cell_formula_units_Z   1
loop_
 _symmetry_equiv_pos_site_id
 _symmetry_equiv_pos_as_xyz
  1  'x, y, z'
loop_
 _atom_site_type_symbol
 _atom_site_label
 _atom_site_symmetry_multiplicity
 _atom_site_fract_x
 _atom_site_fract_y
 _atom_site_fract_z
 _atom_site_occupancy
  Sm  Sm0  1  0.99810845  0.99716268  0.99905423  1
  Sm  Sm1  1  0.39849112  0.59773667  0.19924556  1
  Sm  Sm2  1  0.80150888  0.20226333  0.40075444  1
  Sm  Sm3  1  0.20189155  0.80283732  0.60094577  1
  V  V0  1  0.79530052  0.69295077  0.89765026  1
  V  V1  1  0.40469948  0.10704923  0.70234974  1
  V  V2  1  -0.00012091  0.49981864  0.49993955  1
  V  V3  1  0.20012091  0.30018136  0.10006045  1
  V  V4  1  0.60000000  0.90000000  0.30000000  1
  V  V5  1  0.69648622  0.30223621  0.60910098  1
  V  V6  1  0.30143070  0.69891860  0.39918567  1
  V  V7  1  0.89856930  0.10108140  0.20081433  1
  V  V8  1  0.10000000  0.90000000  0.80000000  1
  V  V9  1  0.50351378  0.49776379  0.99089902  1
  V  V10  1  0.21485096  0.30223621  0.60574999  1
  V  V11  1  0.79667356  0.69891860  0.39748790  1
  V  V12  1  0.40332644  0.10108140  0.20251210  1
  V  V13  1  0.60000000  0.90000000  0.80000000  1
  V  V14  1  0.98514904  0.49776379  0.99425001  1
  V  V15  1  0.50686477  0.49776379  0.51261476  1
  V  V16  1  0.10000000  0.90000000  0.30000000  1
  V  V17  1  0.69313523  0.30223621  0.08738524  1
  V  V18  1  0.90026707  0.10108140  0.69775497  1
  V  V19  1  0.29973293  0.69891860  0.90224503  1
  Cu  Cu0  1  0.10000000  0.40000000  0.30000000  1
  Cu  Cu1  1  0.69966116  0.79925572  0.10026369  1
  Cu  Cu2  1  0.29980372  0.19950306  0.90180487  1
  Cu  Cu3  1  0.50033884  0.00074428  0.49973631  1
  Cu  Cu4  1  0.90019628  0.60049694  0.69819513  1
  Cu  Cu5  1  0.39849578  0.60049694  0.70030066  1
  Cu  Cu6  1  0.00014175  0.00074428  0.50040544  1
  Cu  Cu7  1  0.60000000  0.40000000  0.30000000  1
  Cu  Cu8  1  0.80150422  0.19950306  0.89969934  1
  Cu  Cu9  1  0.19985825  0.79925572  0.09959456  1
  Cu  Cu10  1  0.29769819  0.19950306  0.39799885  1
  Cu  Cu11  1  0.90230181  0.60049694  0.20200115  1
  Cu  Cu12  1  0.50100797  0.00074428  0.00060253  1
  Cu  Cu13  1  0.69899203  0.79925572  0.59939747  1
  Cu  Cu14  1  0.10000000  0.40000000  0.80000000  1
  O  O0  1  0.02376526  0.15262598  0.60383824  1
  O  O1  1  0.42130074  0.75140636  0.80052846  1
  O  O2  1  0.83302815  0.34738614  0.00921731  1
  O  O3  1  0.22602437  0.95063236  0.20078516  1
  O  O4  1  0.62501373  0.54853827  0.40043211  1
  O  O5  1  0.77869926  0.04859364  0.79947154  1
  O  O6  1  0.17623474  0.64737402  0.99616176  1
  O  O7  1  0.57498627  0.25146173  0.19956789  1
  O  O8  1  0.97397563  0.84936764  0.39921484  1
  O  O9  1  0.36697185  0.45261386  0.59078269  1
  O  O10  1  0.61934822  0.20683466  0.71539163  1
  O  O11  1  0.01532881  0.81071059  0.91604596  1
  O  O12  1  0.40989340  0.40710913  0.11765431  1
  O  O13  1  0.81578397  0.01156081  0.31911425  1
  O  O14  1  0.20819534  0.60758216  0.51753068  1
  O  O15  1  0.18467119  0.98928941  0.68395404  1
  O  O16  1  0.58065178  0.59316534  0.88460837  1
  O  O17  1  0.99180466  0.19241784  0.08246932  1
  O  O18  1  0.38421603  0.78843919  0.28088575  1
  O  O19  1  0.79010660  0.39289087  0.48234569  1
  O  O20  1  0.87604335  0.25146173  0.67647545  1
  O  O21  1  0.27460686  0.84936764  0.87539201  1
  O  O22  1  0.67642470  0.45261386  0.08564201  1
  O  O23  1  0.06936592  0.04859364  0.26989438  1
  O  O24  1  0.46730104  0.64737402  0.47113928  1
  O  O25  1  0.92539314  0.95063236  0.72460799  1
  O  O26  1  0.32395665  0.54853827  0.92352455  1
  O  O27  1  0.73269896  0.15262598  0.12886072  1
  O  O28  1  0.13063408  0.75140636  0.33010562  1
  O  O29  1  0.52357530  0.34738614  0.51435799  1
  O  O30  1  0.68510892  0.78843919  0.40422316  1
  O  O31  1  0.08512996  0.39289087  0.60278427  1
  O  O32  1  0.48857226  0.98928941  0.80461821  1
  O  O33  1  0.89712193  0.59316534  0.01251356  1
  O  O34  1  0.28308250  0.19241784  0.20061318  1
  O  O35  1  0.11487004  0.40710913  0.99721573  1
  O  O36  1  0.51489108  0.01156081  0.19577684  1
  O  O37  1  0.91691750  0.60758216  0.39938682  1
  O  O38  1  0.30287807  0.20683466  0.58748644  1
  O  O39  1  0.71142774  0.81071059  0.79538179  1
  O  O40  1  0.69244656  0.01156081  0.49666973  1
  O  O41  1  0.09005148  0.60758216  0.69066466  1
  O  O42  1  0.49144303  0.20683466  0.90395659  1
  O  O43  1  0.89466464  0.81071059  0.09928285  1
  O  O44  1  0.28945482  0.40710913  0.29223909  1
  O  O45  1  0.10994852  0.19241784  0.90933534  1
  O  O46  1  0.50755344  0.78843919  0.10333027  1
  O  O47  1  0.91054518  0.39289087  0.30776091  1
  O  O48  1  0.30533536  0.98928941  0.50071715  1
  O  O49  1  0.70855697  0.59316534  0.69604341  1
  O  O50  1  0.33816883  0.34738614  0.82381084  1
  O  O51  1  0.74984720  0.95063236  0.02523921  1
  O  O52  1  0.14810616  0.54853827  0.22458162  1
  O  O53  1  0.54878774  0.15262598  0.41992702  1
  O  O54  1  0.95087790  0.75140636  0.62077228  1
  O  O55  1  0.45015280  0.84936764  0.57476079  1
  O  O56  1  0.86183117  0.45261386  0.77618916  1
  O  O57  1  0.24912210  0.04859364  0.97922772  1
  O  O58  1  0.65121226  0.64737402  0.18007298  1
  O  O59  1  0.05189384  0.25146173  0.37541838  1
loop_
_geom_bond_atom_site_label_1
_geom_bond_atom_site_label_2
_geom_bond_distance
_geom_bond_site_symmetry_2
Cu0 O59 1.954649 1_555
Cu0 O52 1.954649 1_555
Cu0 O47 1.993186 1_455
Cu0 O44 1.993186 1_555
Cu1 O46 1.977694 1_555
Cu1 O51 1.982538 1_555
Cu1 O43 1.993701 1_555
Cu1 O58 2.013336 1_555
Cu2 O50 1.958091 1_555
Cu2 O42 1.960955 1_555
Cu2 O57 1.991643 1_555
Cu2 O45 1.996187 1_555
Cu3 O40 1.977694 1_555
Cu3 O55 1.982538 1_545
Cu3 O48 1.993701 1_545
Cu3 O53 2.013336 1_555
Cu4 O56 1.958091 1_555
Cu4 O49 1.960955 1_555
Cu4 O54 1.991643 1_555
Cu4 O41 1.996187 1_655
Cu5 O9 1.958091 1_555
Cu5 O16 1.960955 1_555
Cu5 O1 1.991642 1_555
Cu5 O14 1.996187 1_555
Cu6 O13 1.977694 1_455
Cu6 O8 1.982538 1_445
Cu6 O15 1.993701 1_545
Cu6 O0 2.013336 1_555
Cu7 O4 1.954649 1_555
Cu7 O7 1.954649 1_555
Cu7 O19 1.993186 1_555
Cu7 O12 1.993186 1_555
Cu8 O2 1.958091 1_556
Cu8 O10 1.960955 1_555
Cu8 O5 1.991642 1_555
Cu8 O17 1.996187 1_556
Cu9 O18 1.977694 1_555
Cu9 O3 1.982538 1_555
Cu9 O11 1.993701 1_554
Cu9 O6 2.013336 1_554
Cu10 O29 1.958091 1_555
Cu10 O38 1.960955 1_555
Cu10 O23 1.991643 1_555
Cu10 O34 1.996187 1_555
Cu11 O22 1.958091 1_555
Cu11 O33 1.960955 1_555
Cu11 O28 1.991643 1_655
Cu11 O37 1.996187 1_555
Cu12 O36 1.977694 1_555
Cu12 O21 1.982538 1_544
Cu12 O32 1.993701 1_544
Cu12 O27 2.013336 1_555
Cu13 O30 1.977694 1_555
Cu13 O25 1.982538 1_555
Cu13 O39 1.993701 1_555
Cu13 O24 2.013336 1_555
Cu14 O26 1.954649 1_555
Cu14 O20 1.954649 1_455
Cu14 O35 1.993186 1_555
Cu14 O31 1.993186 1_555
O0 V18 1.903051 1_455
O0 V10 2.051165 1_555
O0 Sm2 2.566218 1_455
O1 V19 1.958250 1_555
O1 V13 1.982912 1_555
O1 Sm3 2.548599 1_555
O2 V17 1.907254 1_555
O2 V14 1.927354 1_554
O3 V16 1.971566 1_555
O3 V12 1.975824 1_565
O3 Sm0 2.573101 1_454
O4 V11 1.966922 1_555
O4 V15 2.025758 1_555
O4 Sm1 2.582522 1_555
O5 V18 1.958250 1_555
O5 V13 1.982912 1_545
O5 Sm0 2.548599 1_545
O6 V19 1.903051 1_555
O6 V14 2.051165 1_455
O6 Sm1 2.566218 1_556
O7 V12 1.966922 1_555
O7 V17 2.025758 1_555
O7 Sm2 2.582522 1_555
O8 V16 1.971566 1_655
O8 V11 1.975824 1_555
O8 Sm3 2.573101 1_655
O9 V15 1.907254 1_555
O9 V10 1.927354 1_555
O10 V5 1.833236 1_555
O10 V1 1.980564 1_555
O11 V8 1.928610 1_555
O11 V0 2.038884 1_455
O11 Sm0 2.557979 1_455
O12 V3 1.929773 1_555
O12 V9 2.083317 1_554
O12 Sm1 2.562799 1_555
O13 V7 1.939581 1_555
O13 V4 1.983883 1_545
O13 Sm2 2.582128 1_555
O14 V2 1.919640 1_555
O14 V6 2.007426 1_555
O14 Sm3 2.590821 1_555
O15 V8 1.928610 1_555
O15 V1 2.038884 1_565
O15 Sm3 2.557979 1_555
O16 V9 1.833236 1_555
O16 V0 1.980564 1_555
O17 V3 1.919640 1_655
O17 V7 2.007426 1_555
O17 Sm0 2.590821 1_544
O18 V6 1.939581 1_555
O18 V4 1.983883 1_555
O18 Sm1 2.582128 1_555
O19 V2 1.929773 1_655
O19 V5 2.083317 1_555
O19 Sm2 2.562799 1_555
O20 V18 1.966922 1_555
O20 V5 2.025758 1_555
O20 Sm2 2.582522 1_555
O21 V8 1.971566 1_555
O21 V19 1.975824 1_555
O21 Sm3 2.573101 1_555
O22 V9 1.907254 1_554
O22 V17 1.927354 1_555
O23 V7 1.958250 1_455
O23 V16 1.982912 1_545
O23 Sm0 2.548599 1_444
O24 V6 1.903051 1_555
O24 V15 2.051165 1_555
O24 Sm1 2.566218 1_555
O25 V8 1.971566 1_655
O25 V18 1.975824 1_565
O25 Sm0 2.573101 1_555
O26 V19 1.966922 1_555
O26 V9 2.025758 1_555
O26 Sm1 2.582522 1_556
O27 V7 1.903051 1_555
O27 V17 2.051165 1_555
O27 Sm2 2.566218 1_555
O28 V6 1.958250 1_555
O28 V16 1.982912 1_555
O28 Sm3 2.548599 1_555
O29 V5 1.907254 1_555
O29 V15 1.927354 1_555
O30 V11 1.939581 1_555
O30 V4 1.983883 1_555
O30 Sm1 2.582128 1_555
O31 V2 1.929773 1_555
O31 V10 2.083317 1_555
O31 Sm2 2.562799 1_455
O32 V13 1.928610 1_555
O32 V1 2.038884 1_565
O32 Sm3 2.557979 1_555
O33 V14 1.833237 1_554
O33 V0 1.980564 1_554
O34 V3 1.919639 1_555
O34 V12 2.007426 1_555
O34 Sm0 2.590821 1_444
O35 V3 1.929773 1_556
O35 V14 2.083317 1_455
O35 Sm1 2.562799 1_556
O36 V12 1.939581 1_555
O36 V4 1.983883 1_545
O36 Sm2 2.582128 1_555
O37 V2 1.919639 1_655
O37 V11 2.007426 1_555
O37 Sm3 2.590821 1_655
O38 V10 1.833237 1_555
O38 V1 1.980564 1_555
O39 V13 1.928610 1_555
O39 V0 2.038884 1_555
O39 Sm0 2.557979 1_555
O40 V18 1.939581 1_555
O40 V4 1.983883 1_545
O40 Sm2 2.582128 1_555
O41 V2 1.919639 1_555
O41 V19 2.007426 1_555
O41 Sm3 2.590821 1_555
O42 V17 1.833236 1_556
O42 V1 1.980564 1_555
O43 V16 1.928610 1_655
O43 V0 2.038884 1_554
O43 Sm0 2.557979 1_554
O44 V3 1.929773 1_555
O44 V15 2.083317 1_555
O44 Sm1 2.562799 1_555
O45 V3 1.919639 1_556
O45 V18 2.007426 1_455
O45 Sm0 2.590821 1_445
O46 V19 1.939581 1_554
O46 V4 1.983883 1_555
O46 Sm1 2.582128 1_555
O47 V2 1.929773 1_655
O47 V17 2.083317 1_555
O47 Sm2 2.562799 1_555
O48 V16 1.928610 1_555
O48 V1 2.038884 1_565
O48 Sm3 2.557979 1_555
O49 V15 1.833236 1_555
O49 V0 1.980564 1_555
O50 V10 1.907254 1_555
O50 V9 1.927354 1_555
O51 V13 1.971566 1_554
O51 V7 1.975824 1_565
O51 Sm0 2.573101 1_554
O52 V6 1.966922 1_555
O52 V14 2.025758 1_454
O52 Sm1 2.582522 1_555
O53 V12 1.903051 1_555
O53 V5 2.051165 1_555
O53 Sm2 2.566218 1_555
O54 V11 1.958250 1_555
O54 V8 1.982912 1_655
O54 Sm3 2.548599 1_655
O55 V13 1.971566 1_555
O55 V6 1.975824 1_555
O55 Sm3 2.573101 1_555
O56 V14 1.907254 1_555
O56 V5 1.927354 1_555
O57 V12 1.958250 1_556
O57 V8 1.982912 1_545
O57 Sm0 2.548599 1_445
O58 V11 1.903051 1_555
O58 V9 2.051165 1_554
O58 Sm1 2.566218 1_555
O59 V7 1.966922 1_455
O59 V10 2.025758 1_555
O59 Sm2 2.582522 1_455
