# generated using pymatgen
data_Sr(NCl2)2
_symmetry_space_group_name_H-M   'P 1'
_cell_length_a   5.95164936
_cell_length_b   5.95164936
_cell_length_c   5.95164936
_cell_angle_alpha   109.38725930
_cell_angle_beta   109.38725930
_cell_angle_gamma   109.63927412
_symmetry_Int_Tables_number   1
_chemical_formula_structural   Sr(NCl2)2
_chemical_formula_sum   'Sr1 N2 Cl4'
_cell_volume   162.28833984
_cell_formula_units_Z   1
loop_
 _symmetry_equiv_pos_site_id
 _symmetry_equiv_pos_as_xyz
  1  'x, y, z'
loop_
 _atom_site_type_symbol
 _atom_site_label
 _atom_site_symmetry_multiplicity
 _atom_site_fract_x
 _atom_site_fract_y
 _atom_site_fract_z
 _atom_site_occupancy
  Sr  Sr0  1  0.00000000  0.00000000  0.00000000  1
  N  N0  1  0.50000000  0.00000000  0.50000000  1
  N  N1  1  0.00000000  0.50000000  0.50000000  1
  Cl  Cl0  1  0.50000000  0.50000000  0.50000000  1
  Cl  Cl1  1  0.00000000  0.00000000  0.50000000  1
  Cl  Cl2  1  0.50000000  0.00000000  0.00000000  1
  Cl  Cl3  1  0.00000000  0.50000000  0.00000000  1
loop_
_geom_bond_atom_site_label_1
_geom_bond_atom_site_label_2
_geom_bond_distance
_geom_bond_site_symmetry_2
Cl0 Sr0 2.975825 1_666
Cl0 Sr0 2.975825 1_555
Cl1 Sr0 2.975825 1_555
Cl1 Sr0 2.975825 1_556
Cl2 Sr0 2.975825 1_655
Cl2 Sr0 2.975825 1_555
Cl3 Sr0 2.975825 1_565
Cl3 Sr0 2.975825 1_555
