# generated using pymatgen
data_ZrCoSi
_symmetry_space_group_name_H-M   'P 1'
_cell_length_a   4.98486596
_cell_length_b   4.98486596
_cell_length_c   7.92000300
_cell_angle_alpha   90.00000000
_cell_angle_beta   90.00000000
_cell_angle_gamma   118.59192631
_symmetry_Int_Tables_number   1
_chemical_formula_structural   ZrCoSi
_chemical_formula_sum   'Zr4 Co4 Si4'
_cell_volume   172.80319633
_cell_formula_units_Z   4
loop_
 _symmetry_equiv_pos_site_id
 _symmetry_equiv_pos_as_xyz
  1  'x, y, z'
loop_
 _atom_site_type_symbol
 _atom_site_label
 _atom_site_symmetry_multiplicity
 _atom_site_fract_x
 _atom_site_fract_y
 _atom_site_fract_z
 _atom_site_occupancy
  Zr  Zr0  1  0.66622000  0.33378000  0.31947600  1
  Zr  Zr1  1  0.33728700  0.66271300  0.20179800  1
  Zr  Zr2  1  0.33728700  0.66271300  0.79820200  1
  Zr  Zr3  1  0.66622000  0.33378000  0.68052400  1
  Co  Co0  1  0.00988900  0.99011100  0.23123000  1
  Co  Co1  1  0.00988900  0.99011100  0.76877000  1
  Co  Co2  1  0.66010100  0.84442700  0.50000000  1
  Co  Co3  1  0.15557300  0.33989900  0.50000000  1
  Si  Si0  1  0.15192000  0.84808000  0.50000000  1
  Si  Si1  1  0.34095200  0.16928200  0.00000000  1
  Si  Si2  1  0.83071800  0.65904800  0.00000000  1
  Si  Si3  1  0.83382500  0.16617500  0.00000000  1
loop_
_geom_bond_atom_site_label_1
_geom_bond_atom_site_label_2
_geom_bond_distance
_geom_bond_site_symmetry_2
Zr0 Zr3 2.859501 1_555
Zr0 Zr1 2.969700 1_555
Zr0 Zr1 3.081802 1_655
Zr0 Zr1 3.081802 1_545
Zr2 Zr3 2.969700 1_555
Zr2 Zr3 3.081802 1_565
Zr2 Zr3 3.081802 1_455
Co0 Si2 2.337573 1_455
Co0 Si1 2.337573 1_565
Co0 Si3 2.373107 1_465
Co0 Si0 2.452248 1_555
Co0 Co3 2.624289 1_565
Co0 Co2 2.624289 1_455
Co0 Zr1 2.816165 1_555
Co0 Zr1 2.953296 1_455
Co0 Zr1 2.953296 1_565
Co0 Zr0 2.960206 1_455
Co0 Zr0 2.960206 1_565
Co0 Zr0 3.027748 1_465
Co1 Si1 2.337573 1_566
Co1 Si2 2.337573 1_456
Co1 Si3 2.373107 1_466
Co1 Si0 2.452248 1_555
Co1 Co2 2.624289 1_455
Co1 Co3 2.624289 1_565
Co1 Zr2 2.816165 1_555
Co1 Zr2 2.953296 1_455
Co1 Zr2 2.953296 1_565
Co1 Zr3 2.960206 1_565
Co1 Zr3 2.960206 1_455
Co1 Zr3 3.027748 1_465
Co2 Si0 2.442990 1_655
Co2 Co3 2.522240 1_665
Co2 Si0 2.541979 1_555
Co2 Co3 2.568340 1_555
Co2 Zr1 2.755494 1_555
Co2 Zr2 2.755494 1_555
Co2 Zr3 2.815026 1_565
Co2 Zr0 2.815026 1_565
Co2 Zr3 2.932412 1_555
Co2 Zr0 2.932412 1_555
Co3 Si0 2.442990 1_545
Co3 Si0 2.541979 1_555
Co3 Zr1 2.755494 1_555
Co3 Zr2 2.755494 1_555
Co3 Zr3 2.815026 1_455
Co3 Zr0 2.815026 1_455
Co3 Zr3 2.932412 1_555
Co3 Zr0 2.932412 1_555
Si0 Zr2 2.846543 1_555
Si0 Zr1 2.846543 1_555
Si0 Zr3 2.921937 1_565
Si0 Zr0 2.921937 1_565
Si0 Zr3 2.921937 1_455
Si0 Zr0 2.921937 1_455
Si1 Si3 2.464355 1_555
Si1 Si2 2.493193 1_555
Si1 Si3 2.520585 1_455
Si1 Si2 2.597387 1_445
Si1 Zr3 2.903617 1_554
Si1 Zr0 2.903617 1_555
Si1 Zr1 2.940711 1_555
Si1 Zr2 2.940711 1_554
Si1 Zr1 2.981120 1_545
Si1 Zr2 2.981120 1_544
Si2 Si3 2.464355 1_555
Si2 Si3 2.520585 1_565
Si2 Zr3 2.903617 1_554
Si2 Zr0 2.903617 1_555
Si2 Zr1 2.940711 1_555
Si2 Zr2 2.940711 1_554
Si2 Zr1 2.981120 1_655
Si2 Zr2 2.981120 1_654
Si3 Zr3 2.909703 1_554
Si3 Zr0 2.909703 1_555
Si3 Zr1 3.005621 1_655
Si3 Zr2 3.005621 1_544
Si3 Zr2 3.005621 1_654
Si3 Zr1 3.005621 1_545
