# generated using pymatgen
data_InNi3Sb
_symmetry_space_group_name_H-M   'P 1'
_cell_length_a   4.18150892
_cell_length_b   4.18150892
_cell_length_c   5.22506200
_cell_angle_alpha   90.00000000
_cell_angle_beta   90.00000000
_cell_angle_gamma   120.01200712
_symmetry_Int_Tables_number   1
_chemical_formula_structural   InNi3Sb
_chemical_formula_sum   'In1 Ni3 Sb1'
_cell_volume   79.11076336
_cell_formula_units_Z   1
loop_
 _symmetry_equiv_pos_site_id
 _symmetry_equiv_pos_as_xyz
  1  'x, y, z'
loop_
 _atom_site_type_symbol
 _atom_site_label
 _atom_site_symmetry_multiplicity
 _atom_site_fract_x
 _atom_site_fract_y
 _atom_site_fract_z
 _atom_site_occupancy
  In  In0  1  0.66664800  0.33335200  0.25000000  1
  Ni  Ni0  1  0.00002300  0.99997700  0.50505300  1
  Ni  Ni1  1  0.00002300  0.99997700  0.99494700  1
  Ni  Ni2  1  0.66666200  0.33333800  0.75000000  1
  Sb  Sb0  1  0.33334400  0.66665600  0.75000000  1
loop_
_geom_bond_atom_site_label_1
_geom_bond_atom_site_label_2
_geom_bond_distance
_geom_bond_site_symmetry_2
In0 Ni2 2.612531 1_554
In0 Ni2 2.612531 1_555
In0 Ni1 2.757209 1_544
In0 Ni0 2.757209 1_545
In0 Ni0 2.757209 1_655
In0 Ni1 2.757209 1_654
In0 Ni0 2.757989 1_645
In0 Ni1 2.757989 1_644
Ni0 Ni1 2.559727 1_555
Ni0 Ni1 2.665335 1_554
Ni0 Ni2 2.732123 1_455
Ni0 Ni2 2.732123 1_565
Ni0 Sb0 2.732251 1_455
Ni0 Sb0 2.732251 1_565
Ni0 Sb0 2.732519 1_555
Ni0 Ni2 2.732775 1_465
Ni1 Ni2 2.732123 1_455
Ni1 Ni2 2.732123 1_565
Ni1 Sb0 2.732251 1_455
Ni1 Sb0 2.732251 1_565
Ni1 Sb0 2.732519 1_555
Ni1 Ni2 2.732775 1_465
Ni2 Sb0 2.413959 1_655
Ni2 Sb0 2.413959 1_545
Ni2 Sb0 2.414230 1_555
