# generated using pymatgen
data_RbCuN
_symmetry_space_group_name_H-M   'P 1'
_cell_length_a   5.26588265
_cell_length_b   5.26603725
_cell_length_c   3.50170031
_cell_angle_alpha   90.00000000
_cell_angle_beta   90.00000000
_cell_angle_gamma   119.99903506
_symmetry_Int_Tables_number   1
_chemical_formula_structural   RbCuN
_chemical_formula_sum   'Rb1 Cu1 N1'
_cell_volume   84.09475945
_cell_formula_units_Z   1
loop_
 _symmetry_equiv_pos_site_id
 _symmetry_equiv_pos_as_xyz
  1  'x, y, z'
loop_
 _atom_site_type_symbol
 _atom_site_label
 _atom_site_symmetry_multiplicity
 _atom_site_fract_x
 _atom_site_fract_y
 _atom_site_fract_z
 _atom_site_occupancy
  Rb  Rb0  1  0.00001412  0.00002925  0.50000000  1
  Cu  Cu0  1  0.66669349  0.33338697  0.00000000  1
  N  N0  1  0.66669239  0.33338378  0.50000000  1
loop_
_geom_bond_atom_site_label_1
_geom_bond_atom_site_label_2
_geom_bond_distance
_geom_bond_site_symmetry_2
Cu0 N0 1.750850 1_555
Cu0 N0 1.750850 1_554
N0 Rb0 3.040281 1_665
N0 Rb0 3.040332 1_655
N0 Rb0 3.040341 1_555
