# generated using pymatgen
data_Sn4H26(Br4O5)3
_symmetry_space_group_name_H-M   'P 1'
_cell_length_a   9.97127500
_cell_length_b   14.58248400
_cell_length_c   14.93272739
_cell_angle_alpha   60.66828021
_cell_angle_beta   90.00000000
_cell_angle_gamma   90.00000000
_symmetry_Int_Tables_number   1
_chemical_formula_structural   Sn4H26(Br4O5)3
_chemical_formula_sum   'Sn8 H52 Br24 O30'
_cell_volume   1892.94202010
_cell_formula_units_Z   2
loop_
 _symmetry_equiv_pos_site_id
 _symmetry_equiv_pos_as_xyz
  1  'x, y, z'
loop_
 _atom_site_type_symbol
 _atom_site_label
 _atom_site_symmetry_multiplicity
 _atom_site_fract_x
 _atom_site_fract_y
 _atom_site_fract_z
 _atom_site_occupancy
  Sn  Sn0  1  0.51145300  0.17070200  0.07120300  1
  Sn  Sn1  1  0.00983000  0.82976300  0.42962900  1
  Sn  Sn2  1  0.99017000  0.82976300  0.92962900  1
  Sn  Sn3  1  0.48854700  0.17070200  0.57120300  1
  Sn  Sn4  1  0.24764100  0.32380200  0.92832300  1
  Sn  Sn5  1  0.74635800  0.67552100  0.57114400  1
  Sn  Sn6  1  0.25364200  0.67552100  0.07114400  1
  Sn  Sn7  1  0.75235900  0.32380200  0.42832300  1
  H  H0  1  0.36728200  0.42646900  0.72668700  1
  H  H1  1  0.86669700  0.57326000  0.77355300  1
  H  H2  1  0.13330300  0.57326000  0.27355300  1
  H  H3  1  0.63271800  0.42646900  0.22668700  1
  H  H4  1  0.28676400  0.10760200  0.00472600  1
  H  H5  1  0.81070000  0.88391700  0.52705300  1
  H  H6  1  0.18930000  0.88391700  0.02705300  1
  H  H7  1  0.71323600  0.10760200  0.50472600  1
  H  H8  1  0.96174800  0.09847400  0.10202600  1
  H  H9  1  0.46150600  0.90298900  0.39547600  1
  H  H10  1  0.53849400  0.90298900  0.89547600  1
  H  H11  1  0.03825200  0.09847400  0.60202600  1
  H  H12  1  0.28291700  0.14825900  0.19171900  1
  H  H13  1  0.78057700  0.85523400  0.30995400  1
  H  H14  1  0.21942300  0.85523400  0.80995400  1
  H  H15  1  0.71708300  0.14825900  0.69171900  1
  H  H16  1  0.59497800  0.50602100  0.00906200  1
  H  H17  1  0.09513000  0.49394600  0.49090400  1
  H  H18  1  0.90487000  0.49394600  0.99090400  1
  H  H19  1  0.40502200  0.50602100  0.50906200  1
  H  H20  1  0.52697700  0.55076800  0.90025300  1
  H  H21  1  0.02720300  0.44982200  0.59977500  1
  H  H22  1  0.97279700  0.44982200  0.09977500  1
  H  H23  1  0.47302300  0.55076800  0.40025300  1
  H  H24  1  0.47408400  0.38357100  0.99275500  1
  H  H25  1  0.97416700  0.61707600  0.50654800  1
  H  H26  1  0.02583300  0.61707600  0.00654800  1
  H  H27  1  0.52591600  0.38357100  0.49275500  1
  H  H28  1  0.39389700  0.06279400  0.27458500  1
  H  H29  1  0.89233100  0.93412000  0.22768100  1
  H  H30  1  0.10766900  0.93412000  0.72768100  1
  H  H31  1  0.60610300  0.06279400  0.77458500  1
  H  H32  1  0.23429000  0.52390000  0.59347900  1
  H  H33  1  0.73430600  0.47611800  0.90650700  1
  H  H34  1  0.26569400  0.47611800  0.40650700  1
  H  H35  1  0.76571000  0.52390000  0.09347900  1
  H  H36  1  0.88531400  0.04133000  0.05153700  1
  H  H37  1  0.40397800  0.96615900  0.44746600  1
  H  H38  1  0.59602200  0.96615900  0.94746600  1
  H  H39  1  0.11468600  0.04133000  0.55153700  1
  H  H40  1  0.45474600  0.32001000  0.80330800  1
  H  H41  1  0.95947400  0.67666100  0.69558200  1
  H  H42  1  0.04052600  0.67666100  0.19558200  1
  H  H43  1  0.54525400  0.32001000  0.30330800  1
  H  H44  1  0.35009600  0.58974000  0.60884100  1
  H  H45  1  0.84983900  0.41001700  0.89137300  1
  H  H46  1  0.15016100  0.41001700  0.39137300  1
  H  H47  1  0.64990400  0.58974000  0.10884100  1
  H  H48  1  0.10954100  0.99410000  0.07650600  1
  H  H49  1  0.89045900  0.99410000  0.57650600  1
  H  H50  1  0.24433100  0.94233400  0.13160400  1
  H  H51  1  0.75566900  0.94233400  0.63160400  1
  Br  Br0  1  0.66152000  0.22698700  0.90882700  1
  Br  Br1  1  0.15702900  0.77226600  0.59321100  1
  Br  Br2  1  0.84297100  0.77226600  0.09321100  1
  Br  Br3  1  0.33848000  0.22698700  0.40882700  1
  Br  Br4  1  0.21327400  0.52028500  0.85837500  1
  Br  Br5  1  0.71444100  0.47865200  0.64231300  1
  Br  Br6  1  0.28555900  0.47865200  0.14231300  1
  Br  Br7  1  0.78672600  0.52028500  0.35837500  1
  Br  Br8  1  0.54824200  0.97300400  0.13621000  1
  Br  Br9  1  0.04536000  0.02667000  0.36076200  1
  Br  Br10  1  0.95464000  0.02667000  0.86076200  1
  Br  Br11  1  0.45175800  0.97300400  0.63621000  1
  Br  Br12  1  0.06226200  0.29318500  0.82622500  1
  Br  Br13  1  0.56264200  0.70700300  0.67384700  1
  Br  Br14  1  0.43735800  0.70700300  0.17384700  1
  Br  Br15  1  0.93773800  0.29318500  0.32622500  1
  Br  Br16  1  0.69025800  0.20867700  0.17045600  1
  Br  Br17  1  0.19069900  0.78968700  0.33102700  1
  Br  Br18  1  0.80930100  0.78968700  0.83102700  1
  Br  Br19  1  0.30974200  0.20867700  0.67045600  1
  Br  Br20  1  0.09395800  0.25451300  0.09253700  1
  Br  Br21  1  0.59329100  0.74176000  0.40791900  1
  Br  Br22  1  0.40670900  0.74176000  0.90791900  1
  Br  Br23  1  0.90604200  0.25451300  0.59253700  1
  O  O0  1  0.33829900  0.17376300  0.98403100  1
  O  O1  1  0.83128900  0.82796100  0.50842900  1
  O  O2  1  0.16871100  0.82796100  0.00842900  1
  O  O3  1  0.66170100  0.17376300  0.48403100  1
  O  O4  1  0.94666100  0.02918700  0.10767900  1
  O  O5  1  0.43832600  0.97355500  0.38317000  1
  O  O6  1  0.56167400  0.97355500  0.88317000  1
  O  O7  1  0.05333900  0.02918700  0.60767900  1
  O  O8  1  0.37694400  0.12482400  0.20272400  1
  O  O9  1  0.87715100  0.86943000  0.29568800  1
  O  O10  1  0.12284900  0.86943000  0.79568800  1
  O  O11  1  0.62305600  0.12482400  0.70272400  1
  O  O12  1  0.38925700  0.37177200  0.80002100  1
  O  O13  1  0.88610300  0.62949900  0.70033200  1
  O  O14  1  0.11389700  0.62949900  0.20033200  1
  O  O15  1  0.61074300  0.37177200  0.30002100  1
  O  O16  1  0.41708900  0.31896800  0.01585300  1
  O  O17  1  0.91686500  0.68153900  0.48338000  1
  O  O18  1  0.08313500  0.68153900  0.98338000  1
  O  O19  1  0.58291100  0.31896800  0.51585300  1
  O  O20  1  0.57634400  0.49007300  0.95246600  1
  O  O21  1  0.07629700  0.51040500  0.54716800  1
  O  O22  1  0.92370300  0.51040500  0.04716800  1
  O  O23  1  0.42365600  0.49007300  0.45246600  1
  O  O24  1  0.33163000  0.52307700  0.61057400  1
  O  O25  1  0.83170000  0.47677200  0.88957400  1
  O  O26  1  0.16830000  0.47677200  0.38957400  1
  O  O27  1  0.66837000  0.52307700  0.11057400  1
  O  O28  1  0.20329100  0.98050800  0.06324200  1
  O  O29  1  0.79670900  0.98050800  0.56324200  1
loop_
_geom_bond_atom_site_label_1
_geom_bond_atom_site_label_2
_geom_bond_distance
_geom_bond_site_symmetry_2
H0 O12 1.013732 1_555
H0 O24 1.650530 1_555
H1 O13 1.013409 1_555
H1 O25 1.647672 1_555
H2 O14 1.013409 1_555
H2 O26 1.647672 1_555
H3 O15 1.013732 1_555
H3 O27 1.650530 1_555
H4 O0 0.999138 1_554
H5 O1 1.003813 1_555
H6 O2 1.003813 1_555
H7 O3 0.999138 1_555
H8 O4 0.983390 1_555
H9 O5 0.980217 1_555
H10 O6 0.980217 1_555
H11 O7 0.983390 1_555
H12 O8 0.983772 1_555
H13 O9 0.986070 1_555
H14 O10 0.986070 1_555
H15 O11 0.983772 1_555
H16 O20 0.997707 1_554
H17 O21 0.998164 1_555
H18 O22 0.998164 1_556
H19 O23 0.997707 1_555
H20 O20 0.978516 1_555
H21 O21 0.978416 1_555
H22 O22 0.978416 1_555
H23 O23 0.978516 1_555
H24 O16 1.005533 1_556
H25 O17 1.005581 1_555
H26 O18 1.005581 1_554
H27 O19 1.005533 1_555
H28 O8 1.023381 1_555
H28 O5 1.565754 1_545
H29 O9 1.002762 1_555
H30 O10 1.002762 1_555
H31 O11 1.023381 1_555
H31 O6 1.565754 1_545
H32 O24 1.002187 1_555
H33 O25 1.002388 1_555
H34 O26 1.002388 1_555
H35 O27 1.002187 1_555
H36 O4 0.981293 1_555
H37 O5 0.974322 1_555
H38 O6 0.974322 1_555
H39 O7 0.981293 1_555
H40 O12 0.980960 1_555
H41 O13 0.982581 1_555
H42 O14 0.982581 1_555
H43 O15 0.980960 1_555
H44 O24 0.977204 1_555
H45 O25 0.977459 1_555
H46 O26 0.977459 1_555
H47 O27 0.977204 1_555
H48 O28 0.995411 1_555
H49 O29 0.995411 1_555
H50 O28 0.981169 1_555
H51 O29 0.981169 1_555
Br0 Sn0 2.615761 1_556
Br1 Sn1 2.611062 1_555
Br2 Sn2 2.611062 1_554
Br3 Sn3 2.615761 1_555
Br4 Sn4 2.546719 1_555
Br5 Sn5 2.546232 1_555
Br6 Sn6 2.546232 1_555
Br7 Sn7 2.546719 1_555
Br8 Sn0 2.578049 1_565
Br9 Sn1 2.556356 1_545
Br10 Sn2 2.556356 1_545
Br11 Sn3 2.578049 1_565
Br12 Sn4 2.570499 1_555
Br13 Sn5 2.570679 1_555
Br14 Sn6 2.570679 1_555
Br15 Sn7 2.570499 1_555
Br16 Sn0 2.546808 1_555
Br17 Sn1 2.570042 1_555
Br18 Sn2 2.570042 1_555
Br19 Sn3 2.546808 1_555
Br20 Sn4 2.637207 1_554
Br21 Sn5 2.626174 1_555
Br22 Sn6 2.626174 1_556
Br23 Sn7 2.637207 1_555
O0 Sn4 2.124400 1_555
O0 Sn0 2.149549 1_556
O1 Sn5 2.120411 1_555
O1 Sn1 2.127068 1_655
O2 Sn6 2.120411 1_555
O2 Sn2 2.127068 1_454
O3 Sn7 2.124400 1_555
O3 Sn3 2.149549 1_555
O8 Sn0 2.194617 1_555
O9 Sn1 2.225262 1_655
O10 Sn2 2.225262 1_455
O11 Sn3 2.194617 1_555
O12 Sn4 2.200217 1_555
O13 Sn5 2.201175 1_555
O14 Sn6 2.201175 1_555
O15 Sn7 2.200217 1_555
O16 Sn4 2.116105 1_554
O16 Sn0 2.119508 1_555
O17 Sn1 2.115601 1_655
O17 Sn5 2.122066 1_555
O18 Sn2 2.115601 1_455
O18 Sn6 2.122066 1_556
O19 Sn7 2.116105 1_555
O19 Sn3 2.119508 1_555
