# generated using pymatgen
data_LaHfMg14O16
_symmetry_space_group_name_H-M   'P 1'
_cell_length_a   8.86052315
_cell_length_b   8.90793072
_cell_length_c   4.45080877
_cell_angle_alpha   90.00000000
_cell_angle_beta   90.00000000
_cell_angle_gamma   90.00000000
_symmetry_Int_Tables_number   1
_chemical_formula_structural   LaHfMg14O16
_chemical_formula_sum   'La1 Hf1 Mg14 O16'
_cell_volume   351.29755766
_cell_formula_units_Z   1
loop_
 _symmetry_equiv_pos_site_id
 _symmetry_equiv_pos_as_xyz
  1  'x, y, z'
loop_
 _atom_site_type_symbol
 _atom_site_label
 _atom_site_symmetry_multiplicity
 _atom_site_fract_x
 _atom_site_fract_y
 _atom_site_fract_z
 _atom_site_occupancy
  La  La0  1  0.00000000  0.00000000  -0.00000000  1
  Hf  Hf0  1  0.00000000  0.50000000  -0.00000000  1
  Mg  Mg0  1  0.50000000  0.00000000  -0.00000000  1
  Mg  Mg1  1  0.50000000  0.50000000  -0.00000000  1
  Mg  Mg2  1  0.00000000  0.25903506  0.50000000  1
  Mg  Mg3  1  0.00000000  0.74096494  0.50000000  1
  Mg  Mg4  1  0.50000000  0.25248104  0.50000000  1
  Mg  Mg5  1  0.50000000  0.74751896  0.50000000  1
  Mg  Mg6  1  0.26916312  0.00000000  0.50000000  1
  Mg  Mg7  1  0.25974040  0.50000000  0.50000000  1
  Mg  Mg8  1  0.73083688  0.00000000  0.50000000  1
  Mg  Mg9  1  0.74025960  0.50000000  0.50000000  1
  Mg  Mg10  1  0.26443902  0.25419156  0.00000000  1
  Mg  Mg11  1  0.26443902  0.74580844  0.00000000  1
  Mg  Mg12  1  0.73556098  0.25419156  -0.00000000  1
  Mg  Mg13  1  0.73556098  0.74580844  -0.00000000  1
  O  O0  1  0.27275974  0.00000000  -0.00000000  1
  O  O1  1  0.25762813  0.50000000  0.00000000  1
  O  O2  1  0.72724026  0.00000000  0.00000000  1
  O  O3  1  0.74237187  0.50000000  -0.00000000  1
  O  O4  1  0.25132705  0.24950147  0.50000000  1
  O  O5  1  0.25132705  0.75049853  0.50000000  1
  O  O6  1  0.74867295  0.24950147  0.50000000  1
  O  O7  1  0.74867295  0.75049853  0.50000000  1
  O  O8  1  0.00000000  0.00000000  0.50000000  1
  O  O9  1  0.00000000  0.50000000  0.50000000  1
  O  O10  1  0.50000000  0.00000000  0.50000000  1
  O  O11  1  0.50000000  0.50000000  0.50000000  1
  O  O12  1  0.00000000  0.26442916  -0.00000000  1
  O  O13  1  0.00000000  0.73557084  -0.00000000  1
  O  O14  1  0.50000000  0.25471449  -0.00000000  1
  O  O15  1  0.50000000  0.74528551  0.00000000  1
loop_
_geom_bond_atom_site_label_1
_geom_bond_atom_site_label_2
_geom_bond_distance
_geom_bond_site_symmetry_2
La0 O8 2.225404 1_554
La0 O8 2.225404 1_555
La0 O13 2.355517 1_545
La0 O12 2.355517 1_555
La0 O2 2.416794 1_455
La0 O0 2.416794 1_555
Hf0 O12 2.098449 1_555
Hf0 O13 2.098449 1_555
Hf0 O9 2.225404 1_555
Hf0 O9 2.225404 1_554
Hf0 O3 2.282720 1_455
Hf0 O1 2.282720 1_555
Mg0 O0 2.013468 1_555
Mg0 O2 2.013468 1_555
Mg0 O10 2.225404 1_555
Mg0 O10 2.225404 1_554
Mg0 O15 2.268979 1_545
Mg0 O14 2.268979 1_555
Mg1 O1 2.147542 1_555
Mg1 O3 2.147542 1_555
Mg1 O14 2.184986 1_555
Mg1 O15 2.184986 1_555
Mg1 O11 2.225404 1_554
Mg1 O11 2.225404 1_555
Mg2 O9 2.146499 1_555
Mg2 O12 2.225923 1_556
Mg2 O12 2.225923 1_555
Mg2 O4 2.228508 1_555
Mg2 O6 2.228508 1_455
Mg2 O8 2.307466 1_555
Mg3 O9 2.146499 1_555
Mg3 O13 2.225923 1_555
Mg3 O13 2.225923 1_556
Mg3 O5 2.228508 1_555
Mg3 O7 2.228508 1_455
Mg3 O8 2.307466 1_565
Mg4 O6 2.203532 1_555
Mg4 O4 2.203532 1_555
Mg4 O11 2.204882 1_555
Mg4 O14 2.225493 1_556
Mg4 O14 2.225493 1_555
Mg4 O10 2.249084 1_555
Mg5 O5 2.203532 1_555
Mg5 O7 2.203532 1_555
Mg5 O11 2.204882 1_555
Mg5 O15 2.225493 1_555
Mg5 O15 2.225493 1_556
Mg5 O10 2.249084 1_565
Mg6 O10 2.045336 1_555
Mg6 O0 2.225633 1_555
Mg6 O0 2.225633 1_556
Mg6 O5 2.228153 1_545
Mg6 O4 2.228153 1_555
Mg6 O8 2.384926 1_555
Mg7 O11 2.128826 1_555
Mg7 O1 2.225483 1_556
Mg7 O1 2.225483 1_555
Mg7 O4 2.232668 1_555
Mg7 O5 2.232668 1_555
Mg7 O9 2.301436 1_555
Mg8 O10 2.045336 1_555
Mg8 O2 2.225633 1_555
Mg8 O2 2.225633 1_556
Mg8 O6 2.228153 1_555
Mg8 O7 2.228153 1_545
Mg8 O8 2.384926 1_655
Mg9 O11 2.128826 1_555
Mg9 O3 2.225483 1_556
Mg9 O3 2.225483 1_555
Mg9 O6 2.232668 1_555
Mg9 O7 2.232668 1_555
Mg9 O9 2.301436 1_655
Mg10 O14 2.087199 1_555
Mg10 O1 2.190476 1_555
Mg10 O4 2.228827 1_554
Mg10 O4 2.228827 1_555
Mg10 O0 2.265521 1_555
Mg10 O12 2.344842 1_555
Mg11 O15 2.087199 1_555
Mg11 O1 2.190476 1_555
Mg11 O5 2.228827 1_554
Mg11 O5 2.228827 1_555
Mg11 O0 2.265521 1_565
Mg11 O13 2.344842 1_555
Mg12 O14 2.087199 1_555
Mg12 O3 2.190476 1_555
Mg12 O6 2.228827 1_554
Mg12 O6 2.228827 1_555
Mg12 O2 2.265521 1_555
Mg12 O12 2.344842 1_655
Mg13 O15 2.087199 1_555
Mg13 O3 2.190476 1_555
Mg13 O7 2.228827 1_554
Mg13 O7 2.228827 1_555
Mg13 O2 2.265521 1_565
Mg13 O13 2.344842 1_655
