# generated using pymatgen
data_Ni4Mo6CN
_symmetry_space_group_name_H-M   'P 1'
_cell_length_a   6.68561790
_cell_length_b   6.68561790
_cell_length_c   6.68197300
_cell_angle_alpha   90.00000000
_cell_angle_beta   90.00000000
_cell_angle_gamma   90.17085313
_symmetry_Int_Tables_number   1
_chemical_formula_structural   Ni4Mo6CN
_chemical_formula_sum   'Ni8 Mo12 C2 N2'
_cell_volume   298.66607159
_cell_formula_units_Z   2
loop_
 _symmetry_equiv_pos_site_id
 _symmetry_equiv_pos_as_xyz
  1  'x, y, z'
loop_
 _atom_site_type_symbol
 _atom_site_label
 _atom_site_symmetry_multiplicity
 _atom_site_fract_x
 _atom_site_fract_y
 _atom_site_fract_z
 _atom_site_occupancy
  Ni  Ni0  1  0.56823600  0.81754400  0.55702300  1
  Ni  Ni1  1  0.43176400  0.18245600  0.05702300  1
  Ni  Ni2  1  0.06774200  0.68183600  0.19279500  1
  Ni  Ni3  1  0.93225800  0.31816400  0.69279500  1
  Ni  Ni4  1  0.18245600  0.43176400  0.94297700  1
  Ni  Ni5  1  0.68183600  0.06774200  0.80720500  1
  Ni  Ni6  1  0.81754400  0.56823600  0.44297700  1
  Ni  Ni7  1  0.31816400  0.93225800  0.30720500  1
  Mo  Mo0  1  0.70136400  0.87440300  0.17426700  1
  Mo  Mo1  1  0.29863600  0.12559700  0.67426700  1
  Mo  Mo2  1  0.20009400  0.62441300  0.57567600  1
  Mo  Mo3  1  0.79990600  0.37558700  0.07567600  1
  Mo  Mo4  1  0.45203300  0.54796700  0.25000000  1
  Mo  Mo5  1  0.94975600  0.94975600  0.50000000  1
  Mo  Mo6  1  0.05024400  0.05024400  0.00000000  1
  Mo  Mo7  1  0.54796700  0.45203300  0.75000000  1
  Mo  Mo8  1  0.37558700  0.79990600  0.92432400  1
  Mo  Mo9  1  0.12559700  0.29863600  0.32573300  1
  Mo  Mo10  1  0.62441300  0.20009400  0.42432400  1
  Mo  Mo11  1  0.87440300  0.70136400  0.82573300  1
  C  C0  1  0.87353200  0.12646800  0.25000000  1
  C  C1  1  0.12646800  0.87353200  0.75000000  1
  N  N0  1  0.37642900  0.37642900  0.50000000  1
  N  N1  1  0.62357100  0.62357100  0.00000000  1
loop_
_geom_bond_atom_site_label_1
_geom_bond_atom_site_label_2
_geom_bond_distance
_geom_bond_site_symmetry_2
Ni0 Ni6 2.480643 1_555
Ni0 Ni5 2.482312 1_565
Ni0 Ni7 2.485462 1_555
Ni1 Ni4 2.480643 1_554
Ni1 Ni7 2.482312 1_545
Ni1 Ni5 2.485462 1_554
Ni2 Ni6 2.482312 1_455
Ni2 Ni7 2.484710 1_555
Ni2 Ni4 2.485462 1_554
Ni3 Ni4 2.482312 1_655
Ni3 Ni5 2.484710 1_555
Ni3 Ni6 2.485462 1_555
Mo0 N1 2.105576 1_555
Mo0 Ni0 2.734192 1_555
Mo0 Ni7 2.740083 1_555
Mo0 Ni2 2.773352 1_655
Mo0 Ni5 2.775711 1_564
Mo0 Ni6 2.833113 1_555
Mo0 Ni1 2.850672 1_565
Mo1 N0 2.105576 1_555
Mo1 Ni1 2.734192 1_556
Mo1 Ni5 2.740083 1_555
Mo1 Ni3 2.773352 1_455
Mo1 Ni7 2.775711 1_545
Mo1 Ni4 2.833113 1_555
Mo1 Ni0 2.850672 1_545
Mo2 N0 2.099023 1_555
Mo2 Ni6 2.731809 1_455
Mo2 Ni2 2.734555 1_555
Mo2 Ni4 2.774068 1_555
Mo2 Ni0 2.778770 1_555
Mo2 Ni3 2.826501 1_455
Mo2 Ni7 2.840329 1_555
Mo3 N1 2.099023 1_555
Mo3 Ni4 2.731809 1_654
Mo3 Ni3 2.734555 1_554
Mo3 Ni6 2.774068 1_555
Mo3 Ni1 2.778770 1_555
Mo3 Ni2 2.826501 1_655
Mo3 Ni5 2.840329 1_554
Mo4 N1 2.087538 1_555
Mo4 N0 2.087538 1_555
Mo4 Ni7 2.749863 1_555
Mo4 Ni2 2.749863 1_555
Mo4 Ni6 2.765976 1_555
Mo4 Ni1 2.765976 1_555
Mo4 Ni0 2.837637 1_555
Mo4 Ni4 2.837637 1_554
Mo5 Ni0 2.723803 1_555
Mo5 Ni6 2.723803 1_555
Mo5 Ni3 2.782362 1_565
Mo5 Ni7 2.782362 1_655
Mo5 Ni5 2.837747 1_565
Mo5 Ni2 2.837747 1_655
Mo6 Ni1 2.723803 1_555
Mo6 Ni4 2.723803 1_554
Mo6 Ni2 2.782362 1_545
Mo6 Ni5 2.782362 1_454
Mo6 Ni7 2.837747 1_545
Mo6 Ni3 2.837747 1_454
Mo7 N0 2.087538 1_555
Mo7 N1 2.087538 1_556
Mo7 Ni3 2.749863 1_555
Mo7 Ni5 2.749863 1_555
Mo7 Ni0 2.765976 1_555
Mo7 Ni4 2.765976 1_555
Mo7 Ni1 2.837637 1_556
Mo7 Ni6 2.837637 1_555
Mo8 N1 2.099023 1_556
Mo8 Ni1 2.731809 1_566
Mo8 Ni7 2.734555 1_556
Mo8 Ni0 2.774068 1_555
Mo8 Ni4 2.778770 1_555
Mo8 Ni5 2.826501 1_565
Mo8 Ni2 2.840329 1_556
Mo9 N0 2.105576 1_555
Mo9 Ni4 2.734192 1_554
Mo9 Ni2 2.740083 1_555
Mo9 Ni7 2.773352 1_545
Mo9 Ni3 2.775711 1_455
Mo9 Ni1 2.833113 1_555
Mo9 Ni6 2.850672 1_455
Mo10 N0 2.099023 1_555
Mo10 Ni0 2.731809 1_545
Mo10 Ni5 2.734555 1_555
Mo10 Ni1 2.774068 1_555
Mo10 Ni6 2.778770 1_555
Mo10 Ni7 2.826501 1_545
Mo10 Ni3 2.840329 1_555
Mo11 N1 2.105576 1_556
Mo11 Ni6 2.734192 1_555
Mo11 Ni3 2.740083 1_555
Mo11 Ni5 2.773352 1_565
Mo11 Ni2 2.775711 1_656
Mo11 Ni0 2.833113 1_555
Mo11 Ni4 2.850672 1_655
C0 Mo10 2.092355 1_555
C0 Mo3 2.092355 1_555
C0 Mo9 2.099848 1_655
C0 Mo0 2.099848 1_545
C0 Mo6 2.109410 1_655
C0 Mo5 2.109410 1_545
C1 Mo8 2.092355 1_555
C1 Mo2 2.092355 1_555
C1 Mo1 2.099848 1_565
C1 Mo11 2.099848 1_455
C1 Mo6 2.109410 1_566
C1 Mo5 2.109410 1_455
