# generated using pymatgen
data_NaEuP2H4CO7
_symmetry_space_group_name_H-M   'P 1'
_cell_length_a   15.44919900
_cell_length_b   6.84638000
_cell_length_c   6.87802125
_cell_angle_alpha   88.72487183
_cell_angle_beta   90.00000000
_cell_angle_gamma   90.00000000
_symmetry_Int_Tables_number   1
_chemical_formula_structural   NaEuP2H4CO7
_chemical_formula_sum   'Na4 Eu4 P8 H16 C4 O28'
_cell_volume   727.31562976
_cell_formula_units_Z   4
loop_
 _symmetry_equiv_pos_site_id
 _symmetry_equiv_pos_as_xyz
  1  'x, y, z'
loop_
 _atom_site_type_symbol
 _atom_site_label
 _atom_site_symmetry_multiplicity
 _atom_site_fract_x
 _atom_site_fract_y
 _atom_site_fract_z
 _atom_site_occupancy
  Na  Na0  1  0.02672100  0.13540400  0.30531700  1
  Na  Na1  1  0.52672100  0.36459600  0.69468300  1
  Na  Na2  1  0.97327900  0.86459600  0.69468300  1
  Na  Na3  1  0.47327900  0.63540400  0.30531700  1
  Eu  Eu0  1  0.09984400  0.39922700  0.82726200  1
  Eu  Eu1  1  0.59984400  0.10077300  0.17273800  1
  Eu  Eu2  1  0.90015600  0.60077300  0.17273800  1
  Eu  Eu3  1  0.40015600  0.89922700  0.82726200  1
  P  P0  1  0.90431400  0.36654900  0.67943400  1
  P  P1  1  0.40431400  0.13345100  0.32056600  1
  P  P2  1  0.09568600  0.63345100  0.32056600  1
  P  P3  1  0.59568600  0.86654900  0.67943400  1
  P  P4  1  0.16026000  0.89340200  0.97209300  1
  P  P5  1  0.66026000  0.60659800  0.02790700  1
  P  P6  1  0.83974000  0.10659800  0.02790700  1
  P  P7  1  0.33974000  0.39340200  0.97209300  1
  H  H0  1  0.18391700  0.25623400  0.49302300  1
  H  H1  1  0.68391700  0.24376600  0.50697700  1
  H  H2  1  0.81608300  0.74376600  0.50697700  1
  H  H3  1  0.31608300  0.75623400  0.49302300  1
  H  H4  1  0.21068900  0.07501900  0.62735900  1
  H  H5  1  0.71068900  0.42498100  0.37264100  1
  H  H6  1  0.78931100  0.92498100  0.37264100  1
  H  H7  1  0.28931100  0.57501900  0.62735900  1
  H  H8  1  0.76162000  0.32102700  0.81371700  1
  H  H9  1  0.26162000  0.17897300  0.18628300  1
  H  H10  1  0.23838000  0.67897300  0.18628300  1
  H  H11  1  0.73838000  0.82102700  0.81371700  1
  H  H12  1  0.79843000  0.11173100  0.68927100  1
  H  H13  1  0.29843000  0.38826900  0.31072900  1
  H  H14  1  0.20157000  0.88826900  0.31072900  1
  H  H15  1  0.70157000  0.61173100  0.68927100  1
  C  C0  1  0.81750800  0.22458400  0.79253900  1
  C  C1  1  0.31750800  0.27541600  0.20746100  1
  C  C2  1  0.18249200  0.77541600  0.20746100  1
  C  C3  1  0.68249200  0.72458400  0.79253900  1
  O  O0  1  0.10226300  0.75573700  0.85596600  1
  O  O1  1  0.60226300  0.74426300  0.14403400  1
  O  O2  1  0.89773700  0.24426300  0.14403400  1
  O  O3  1  0.39773700  0.25573700  0.85596600  1
  O  O4  1  0.98067500  0.22734600  0.63780800  1
  O  O5  1  0.48067500  0.27265400  0.36219200  1
  O  O6  1  0.01932500  0.77265400  0.36219200  1
  O  O7  1  0.51932500  0.72734600  0.63780800  1
  O  O8  1  0.93858400  0.52109300  0.82485900  1
  O  O9  1  0.43858400  0.97890700  0.17514100  1
  O  O10  1  0.06141600  0.47890700  0.17514100  1
  O  O11  1  0.56141600  0.02109300  0.82485900  1
  O  O12  1  0.11404800  0.08947800  0.00952400  1
  O  O13  1  0.61404800  0.41052200  0.99047600  1
  O  O14  1  0.88595200  0.91052200  0.99047600  1
  O  O15  1  0.38595200  0.58947800  0.00952400  1
  O  O16  1  0.86564800  0.46801300  0.49816200  1
  O  O17  1  0.36564800  0.03198700  0.50183800  1
  O  O18  1  0.13435200  0.53198700  0.50183800  1
  O  O19  1  0.63435200  0.96801300  0.49816200  1
  O  O20  1  0.24901500  0.92894500  0.87291400  1
  O  O21  1  0.74901500  0.57105500  0.12708600  1
  O  O22  1  0.75098500  0.07105500  0.12708600  1
  O  O23  1  0.25098500  0.42894500  0.87291400  1
  O  O24  1  0.16097700  0.14495700  0.56887400  1
  O  O25  1  0.66097700  0.35504300  0.43112600  1
  O  O26  1  0.83902300  0.85504300  0.43112600  1
  O  O27  1  0.33902300  0.64495700  0.56887400  1
loop_
_geom_bond_atom_site_label_1
_geom_bond_atom_site_label_2
_geom_bond_distance
_geom_bond_site_symmetry_2
Na0 O2 2.391668 1_455
Na0 O12 2.467096 1_555
Na0 O4 2.489212 1_455
Na0 O6 2.508134 1_545
Na0 O10 2.554601 1_555
Na0 O24 2.756394 1_555
Na1 O3 2.391668 1_555
Na1 O13 2.467096 1_555
Na1 O5 2.489212 1_555
Na1 O7 2.508134 1_555
Na1 O11 2.554601 1_555
Na1 O25 2.756394 1_555
Na2 O0 2.391668 1_655
Na2 O14 2.467096 1_555
Na2 O6 2.489212 1_655
Na2 O4 2.508134 1_565
Na2 O8 2.554601 1_555
Na2 O26 2.756394 1_555
Na3 O1 2.391668 1_555
Na3 O15 2.467096 1_555
Na3 O7 2.489212 1_555
Na3 O5 2.508134 1_555
Na3 O9 2.554601 1_555
Na3 O27 2.756394 1_555
Eu0 O23 2.365395 1_555
Eu0 O12 2.449193 1_556
Eu0 O0 2.453434 1_555
Eu0 O18 2.455542 1_555
Eu0 O10 2.536385 1_556
Eu0 O4 2.557445 1_455
Eu0 O8 2.627270 1_455
Eu0 O24 2.686747 1_555
Eu1 O22 2.365395 1_555
Eu1 O13 2.449193 1_554
Eu1 O1 2.453434 1_545
Eu1 O19 2.455542 1_545
Eu1 O11 2.536385 1_554
Eu1 O5 2.557445 1_555
Eu1 O9 2.627270 1_545
Eu1 O25 2.686747 1_555
Eu2 O21 2.365395 1_555
Eu2 O14 2.449193 1_554
Eu2 O2 2.453434 1_555
Eu2 O16 2.455542 1_555
Eu2 O8 2.536385 1_554
Eu2 O6 2.557445 1_655
Eu2 O10 2.627270 1_655
Eu2 O26 2.686747 1_555
Eu3 O20 2.365395 1_555
Eu3 O15 2.449193 1_556
Eu3 O3 2.453434 1_565
Eu3 O17 2.455542 1_565
Eu3 O9 2.536385 1_556
Eu3 O7 2.557445 1_555
Eu3 O11 2.627270 1_565
Eu3 O27 2.686747 1_555
H0 O24 0.980049 1_555
H1 O25 0.980049 1_555
H2 O26 0.980049 1_555
H3 O27 0.980049 1_555
H4 O24 0.986079 1_555
H5 O25 0.986079 1_555
H6 O26 0.986079 1_555
H7 O27 0.986079 1_555
C0 H8 1.098625 1_555
C0 H12 1.101253 1_555
C0 P0 1.820637 1_555
C0 P6 1.825651 1_556
C1 H9 1.098625 1_555
C1 H13 1.101253 1_555
C1 P1 1.820637 1_555
C1 P7 1.825651 1_554
C2 H10 1.098625 1_555
C2 H14 1.101253 1_555
C2 P2 1.820637 1_555
C2 P4 1.825651 1_554
C3 H11 1.098625 1_555
C3 H15 1.101253 1_555
C3 P3 1.820637 1_555
C3 P5 1.825651 1_556
O0 P4 1.537079 1_555
O1 P5 1.537079 1_555
O2 P6 1.537079 1_555
O3 P7 1.537079 1_555
O4 P0 1.547296 1_555
O5 P1 1.547296 1_555
O6 P2 1.547296 1_555
O7 P3 1.547296 1_555
O8 P0 1.564414 1_555
O9 P1 1.564414 1_565
O10 P2 1.564414 1_555
O11 P3 1.564414 1_545
O12 P4 1.547074 1_544
O13 P5 1.547074 1_556
O14 P6 1.547074 1_566
O15 P7 1.547074 1_554
O16 P0 1.534710 1_555
O17 P1 1.534710 1_555
O18 P2 1.534710 1_555
O19 P3 1.534710 1_555
O20 P4 1.548333 1_555
O21 P5 1.548333 1_555
O22 P6 1.548333 1_555
O23 P7 1.548333 1_555
