# generated using pymatgen
data_BaCdSbF
_symmetry_space_group_name_H-M   'P 1'
_cell_length_a   4.63263410
_cell_length_b   4.63263410
_cell_length_c   9.80635784
_cell_angle_alpha   90.00000000
_cell_angle_beta   90.00000000
_cell_angle_gamma   90.00000000
_symmetry_Int_Tables_number   1
_chemical_formula_structural   BaCdSbF
_chemical_formula_sum   'Ba2 Cd2 Sb2 F2'
_cell_volume   210.45717481
_cell_formula_units_Z   2
loop_
 _symmetry_equiv_pos_site_id
 _symmetry_equiv_pos_as_xyz
  1  'x, y, z'
loop_
 _atom_site_type_symbol
 _atom_site_label
 _atom_site_symmetry_multiplicity
 _atom_site_fract_x
 _atom_site_fract_y
 _atom_site_fract_z
 _atom_site_occupancy
  Ba  Ba0  1  0.00000000  0.50000000  0.64048815  1
  Ba  Ba1  1  0.50000000  -0.00000000  0.35951185  1
  Cd  Cd0  1  0.50000000  0.50000000  0.00000000  1
  Cd  Cd1  1  -0.00000000  0.00000000  0.00000000  1
  Sb  Sb0  1  -0.00000000  0.50000000  0.18461121  1
  Sb  Sb1  1  0.50000000  -0.00000000  0.81538879  1
  F  F0  1  0.50000000  0.50000000  0.50000000  1
  F  F1  1  -0.00000000  0.00000000  0.50000000  1
loop_
_geom_bond_atom_site_label_1
_geom_bond_atom_site_label_2
_geom_bond_distance
_geom_bond_site_symmetry_2
Ba0 F1 2.695055 1_555
Ba0 F1 2.695055 1_565
Ba0 F0 2.695055 1_455
Ba0 F0 2.695055 1_555
Ba0 Sb1 3.697614 1_555
Ba0 Sb1 3.697614 1_465
Ba0 Sb1 3.697614 1_455
Ba0 Sb1 3.697614 1_565
Ba1 F1 2.695055 1_555
Ba1 F1 2.695055 1_655
Ba1 F0 2.695055 1_545
Ba1 F0 2.695055 1_555
Ba1 Sb0 3.697614 1_545
Ba1 Sb0 3.697614 1_655
Ba1 Sb0 3.697614 1_645
Ba1 Sb0 3.697614 1_555
Cd0 Sb0 2.939854 1_655
Cd0 Sb0 2.939854 1_555
Cd0 Sb1 2.939854 1_564
Cd0 Sb1 2.939854 1_554
Cd1 Sb1 2.939854 1_454
Cd1 Sb0 2.939854 1_555
Cd1 Sb0 2.939854 1_545
Cd1 Sb1 2.939854 1_554
