# generated using pymatgen
data_SnO2
_symmetry_space_group_name_H-M   'P 1'
_cell_length_a   11.18898586
_cell_length_b   11.05947914
_cell_length_c   11.96731219
_cell_angle_alpha   90.00919358
_cell_angle_beta   88.48461276
_cell_angle_gamma   92.30355809
_symmetry_Int_Tables_number   1
_chemical_formula_structural   SnO2
_chemical_formula_sum   'Sn34 O68'
_cell_volume   1479.17252029
_cell_formula_units_Z   34
loop_
 _symmetry_equiv_pos_site_id
 _symmetry_equiv_pos_as_xyz
  1  'x, y, z'
loop_
 _atom_site_type_symbol
 _atom_site_label
 _atom_site_symmetry_multiplicity
 _atom_site_fract_x
 _atom_site_fract_y
 _atom_site_fract_z
 _atom_site_occupancy
  Sn  Sn0  1  0.49355562  0.53177638  0.67604394  1
  Sn  Sn1  1  0.11686232  0.13670967  0.42664076  1
  Sn  Sn2  1  0.30642056  0.60793041  0.93285588  1
  Sn  Sn3  1  0.92731289  0.13992437  0.62700585  1
  Sn  Sn4  1  0.19554816  0.37307497  0.61049228  1
  Sn  Sn5  1  0.68246120  0.29143041  0.78241106  1
  Sn  Sn6  1  0.92390216  0.57306671  0.29719385  1
  Sn  Sn7  1  0.21791546  0.37293653  0.24903049  1
  Sn  Sn8  1  0.78885457  0.89913598  0.71382000  1
  Sn  Sn9  1  0.00825809  0.82622374  0.49029240  1
  Sn  Sn10  1  0.05801410  0.55543579  0.07232316  1
  Sn  Sn11  1  0.46677827  0.88736631  0.68663735  1
  Sn  Sn12  1  0.61569077  0.96742461  0.95258793  1
  Sn  Sn13  1  0.62458819  0.70704151  0.14993403  1
  Sn  Sn14  1  0.33261045  0.88434442  0.46529502  1
  Sn  Sn15  1  0.27092934  0.95923031  0.94287959  1
  Sn  Sn16  1  0.21026513  0.66108864  0.61611712  1
  Sn  Sn17  1  0.49774270  0.60920752  0.39544692  1
  Sn  Sn18  1  0.58127594  0.11302251  0.55610054  1
  Sn  Sn19  1  0.95761992  -0.00035537  0.92640814  1
  Sn  Sn20  1  0.68800340  0.62901886  0.89348292  1
  Sn  Sn21  1  0.41213316  0.26498751  0.38154394  1
  Sn  Sn22  1  0.78986050  0.31347189  0.43229645  1
  Sn  Sn23  1  0.02349194  0.72641742  0.81267192  1
  Sn  Sn24  1  0.98993006  0.20531082  0.12207599  1
  Sn  Sn25  1  0.79411385  0.61259339  0.57688145  1
  Sn  Sn26  1  0.24754071  0.79340195  0.19444260  1
  Sn  Sn27  1  0.76886229  0.39768612  0.09475049  1
  Sn  Sn28  1  0.67399868  0.14968991  0.23284384  1
  Sn  Sn29  1  0.47862193  0.20829066  0.03761656  1
  Sn  Sn30  1  0.20471829  0.28931003  0.88952869  1
  Sn  Sn31  1  0.93226170  0.43724051  0.81291038  1
  Sn  Sn32  1  0.31160398  0.12965030  0.67842413  1
  Sn  Sn33  1  0.88197514  0.92385002  0.23272490  1
  O  O0  1  0.93438554  0.66434509  0.15315965  1
  O  O1  1  0.93827287  0.01979811  0.75321537  1
  O  O2  1  0.37378518  0.74750887  0.59285691  1
  O  O3  1  0.59998859  0.55640123  0.52708085  1
  O  O4  1  0.84469599  0.45625439  0.51890787  1
  O  O5  1  0.41842972  0.76570364  0.36027072  1
  O  O6  1  0.35817190  0.24943908  0.22480237  1
  O  O7  1  0.22245420  0.30554370  0.42625244  1
  O  O8  1  0.64234677  0.62896122  0.29847488  1
  O  O9  1  0.78264758  0.39380854  0.91224453  1
  O  O10  1  0.84205693  0.80589554  0.57602987  1
  O  O11  1  0.80520849  0.06452472  0.30942340  1
  O  O12  1  0.37705984  0.79382384  0.91996773  1
  O  O13  1  0.86305768  0.27527360  0.73634574  1
  O  O14  1  0.52013709  0.93989065  0.52177125  1
  O  O15  1  0.10449510  0.51627575  0.57239475  1
  O  O16  1  0.34923321  0.30115239  0.98462365  1
  O  O17  1  0.63808697  0.46212744  0.74538721  1
  O  O18  1  0.09215266  0.52182778  0.24895413  1
  O  O19  1  0.26660332  0.03705635  0.39345202  1
  O  O20  1  0.01529262  0.00944788  0.52037858  1
  O  O21  1  0.30941338  0.30793963  0.73527861  1
  O  O22  1  0.62252925  0.78579275  0.99253555  1
  O  O23  1  0.65844185  0.26572674  0.61190290  1
  O  O24  1  0.60634594  0.30110457  0.13907320  1
  O  O25  1  0.61048579  0.19506285  0.91027844  1
  O  O26  1  0.86613417  0.81172902  0.84595234  1
  O  O27  1  0.81148868  0.21708155  0.12613571  1
  O  O28  1  0.75773224  0.04749973  0.61077713  1
  O  O29  1  0.60346995  0.01084683  0.13010225  1
  O  O30  1  0.41586279  0.20627162  0.54041116  1
  O  O31  1  0.18933119  0.64362050  0.79333791  1
  O  O32  1  0.18039925  0.76591730  0.46457367  1
  O  O33  1  0.95924297  0.23742443  0.48578739  1
  O  O34  1  0.70041530  0.56346499  0.06592905  1
  O  O35  1  0.68527892  0.71002802  0.70226025  1
  O  O36  1  0.33723846  0.84825741  0.81127838  1
  O  O37  1  0.09391321  0.88302833  0.90312455  1
  O  O38  1  0.57442870  0.17460823  0.38043853  1
  O  O39  1  0.48506210  0.07913418  0.71001228  1
  O  O40  1  0.08327693  0.21545455  0.26417944  1
  O  O41  1  0.06811707  0.77387282  0.65239226  1
  O  O42  1  0.18805147  0.68766748  0.04912242  1
  O  O43  1  0.14529883  0.18743393  0.60843337  1
  O  O44  1  0.01429431  0.87582431  0.32412928  1
  O  O45  1  0.78553331  0.02845003  0.94687569  1
  O  O46  1  0.42804875  0.58563201  0.06300605  1
  O  O47  1  0.29377118  0.95699217  0.62584810  1
  O  O48  1  0.49363384  0.08526210  0.16975183  1
  O  O49  1  0.62235911  0.91671786  0.78669721  1
  O  O50  1  0.44026871  0.55489803  0.83405546  1
  O  O51  1  0.43367589  0.68410902  0.14774792  1
  O  O52  1  0.41338120  0.45110794  0.35926625  1
  O  O53  1  0.09076738  0.36566683  0.77500621  1
  O  O54  1  0.89349239  0.58569647  0.72179364  1
  O  O55  1  0.97464112  0.58442859  0.92084473  1
  O  O56  1  0.23670736  0.10342011  0.83967992  1
  O  O57  1  0.44600788  0.03404913  0.95661229  1
  O  O58  1  0.05228805  0.17974591  0.96167515  1
  O  O59  1  0.81305907  0.42970001  0.26904771  1
  O  O60  1  0.97203816  0.01301518  0.10438375  1
  O  O61  1  0.55991853  0.71869032  0.67436670  1
  O  O62  1  0.73610402  0.84259835  0.19061946  1
  O  O63  1  0.96016597  0.39157200  0.07565474  1
  O  O64  1  0.33725175  0.50781477  0.59634948  1
  O  O65  1  0.18878820  0.45833648  0.97556161  1
  O  O66  1  0.91263032  0.66774972  0.43628784  1
  O  O67  1  0.24333432  0.95133262  0.10346471  1
loop_
_geom_bond_atom_site_label_1
_geom_bond_atom_site_label_2
_geom_bond_distance
_geom_bond_site_symmetry_2
O0 Sn6 1.996078 1_555
O0 Sn10 2.088748 1_655
O1 Sn3 2.021102 1_555
O1 Sn19 2.102423 1_555
O1 Sn8 2.158760 1_545
O2 Sn16 2.042319 1_555
O2 Sn11 2.160199 1_555
O2 Sn14 2.219645 1_555
O3 Sn17 2.069003 1_555
O3 Sn0 2.128880 1_555
O3 Sn25 2.327897 1_555
O4 Sn25 1.961812 1_555
O4 Sn22 1.974734 1_555
O5 Sn17 2.025774 1_555
O5 Sn14 2.064044 1_555
O6 Sn21 1.991003 1_555
O6 Sn7 2.135515 1_555
O7 Sn1 2.169044 1_555
O7 Sn21 2.237869 1_555
O7 Sn7 2.250652 1_555
O7 Sn4 2.343557 1_555
O8 Sn17 1.970956 1_555
O8 Sn13 1.994521 1_555
O9 Sn31 2.067981 1_555
O9 Sn27 2.186008 1_556
O9 Sn5 2.223124 1_555
O10 Sn8 2.033156 1_555
O10 Sn9 2.104058 1_655
O10 Sn25 2.183042 1_555
O11 Sn28 2.016173 1_555
O11 Sn33 2.016437 1_545
O12 O36 1.518313 1_555
O12 Sn2 2.176737 1_555
O12 Sn15 2.233593 1_555
O13 Sn5 2.095019 1_555
O13 Sn3 2.122707 1_555
O13 Sn31 2.138522 1_555
O14 Sn18 2.052395 1_565
O14 Sn11 2.120569 1_555
O14 Sn14 2.282108 1_555
O15 Sn4 1.976991 1_555
O15 Sn16 2.029643 1_555
O16 Sn29 1.929023 1_556
O16 Sn30 2.001783 1_555
O17 Sn0 2.017056 1_555
O17 Sn5 2.023351 1_555
O17 Sn20 2.613078 1_555
O18 Sn6 2.055863 1_455
O18 Sn10 2.192389 1_555
O18 Sn7 2.208601 1_555
O19 Sn14 2.066740 1_545
O19 Sn1 2.071869 1_555
O20 Sn9 2.056800 1_545
O20 Sn1 2.082155 1_555
O20 Sn3 2.174109 1_455
O21 Sn32 2.086637 1_555
O21 Sn4 2.132360 1_555
O21 Sn30 2.165321 1_555
O22 Sn12 2.069805 1_555
O22 Sn13 2.076440 1_556
O22 Sn20 2.236863 1_555
O23 Sn18 1.989095 1_555
O23 Sn5 2.083136 1_555
O23 Sn22 2.613762 1_555
O24 Sn27 2.126467 1_555
O24 Sn29 2.131578 1_555
O24 Sn28 2.187212 1_555
O25 Sn5 1.998095 1_555
O25 Sn29 2.102116 1_556
O25 Sn12 2.571309 1_545
O26 Sn23 2.060370 1_655
O26 Sn8 2.079073 1_555
O26 Sn19 2.484849 1_565
O27 Sn24 2.005341 1_555
O27 Sn28 2.087360 1_555
O27 Sn27 2.108180 1_555
O28 Sn8 2.098455 1_545
O28 Sn3 2.132211 1_555
O28 Sn18 2.243855 1_555
O29 O48 1.569438 1_555
O29 Sn28 2.108479 1_555
O29 Sn12 2.179873 1_544
O30 Sn21 2.011170 1_555
O30 Sn32 2.150795 1_555
O30 Sn18 2.167064 1_555
O31 Sn23 2.109263 1_555
O31 Sn16 2.135518 1_555
O31 Sn2 2.194861 1_555
O32 Sn9 2.078753 1_555
O32 Sn14 2.106531 1_555
O32 Sn16 2.192866 1_555
O33 Sn3 2.020933 1_555
O33 Sn22 2.213926 1_555
O33 Sn1 2.223423 1_655
O34 Sn27 2.047927 1_555
O34 Sn13 2.077144 1_555
O34 Sn20 2.197171 1_554
O35 O61 1.457267 1_555
O35 Sn25 2.214444 1_555
O35 Sn8 2.355812 1_555
O35 Sn20 2.459068 1_555
O36 Sn11 2.085253 1_555
O36 Sn15 2.132572 1_555
O37 Sn19 2.049902 1_465
O37 Sn23 2.174248 1_555
O37 Sn15 2.185180 1_555
O38 Sn28 2.087448 1_555
O38 Sn21 2.107482 1_555
O38 Sn18 2.214092 1_555
O39 Sn32 2.085150 1_555
O39 Sn18 2.134230 1_555
O39 Sn11 2.141513 1_545
O40 Sn24 2.019893 1_455
O40 Sn1 2.178336 1_555
O40 Sn7 2.260633 1_555
O41 Sn23 2.032863 1_555
O41 Sn16 2.096844 1_555
O41 Sn9 2.155749 1_555
O42 Sn10 2.034808 1_555
O42 Sn2 2.112769 1_554
O42 Sn26 2.198390 1_555
O43 Sn4 2.107091 1_555
O43 Sn32 2.179609 1_555
O43 Sn1 2.273964 1_555
O43 Sn3 2.478456 1_455
O44 Sn33 1.954389 1_455
O44 Sn9 2.061548 1_555
O45 Sn19 1.973139 1_555
O45 Sn12 1.990378 1_545
O46 O51 1.488653 1_555
O46 Sn2 2.116134 1_554
O47 Sn32 2.014336 1_565
O47 Sn14 2.123564 1_555
O47 Sn11 2.250307 1_555
O48 Sn29 2.100754 1_555
O48 Sn28 2.261714 1_555
O49 Sn8 2.052323 1_555
O49 Sn12 2.063130 1_555
O49 Sn11 2.152745 1_555
O50 Sn0 1.987240 1_555
O50 Sn2 1.990381 1_555
O51 Sn13 2.141821 1_555
O51 Sn26 2.500272 1_555
O52 Sn17 2.006093 1_555
O52 Sn21 2.075074 1_555
O52 Sn7 2.696528 1_555
O53 Sn31 2.011938 1_455
O53 Sn30 2.096765 1_555
O53 Sn4 2.264419 1_555
O54 Sn31 2.038553 1_555
O54 Sn25 2.112140 1_555
O54 Sn23 2.371029 1_655
O55 Sn23 2.082002 1_655
O55 Sn10 2.091153 1_656
O55 Sn31 2.124330 1_555
O56 Sn15 2.071131 1_545
O56 Sn32 2.098964 1_555
O56 Sn30 2.181274 1_555
O57 Sn12 2.063360 1_545
O57 Sn15 2.106149 1_545
O57 Sn29 2.178967 1_556
O58 Sn24 2.048497 1_456
O58 Sn30 2.208826 1_555
O58 Sn19 2.263020 1_455
O59 Sn6 2.007351 1_555
O59 Sn27 2.181971 1_555
O59 Sn22 2.341707 1_555
O60 Sn33 2.045885 1_545
O60 Sn24 2.139062 1_555
O60 Sn19 2.144872 1_554
O61 Sn0 2.168130 1_555
O61 Sn11 2.176167 1_555
O62 Sn33 1.910695 1_555
O62 Sn13 1.980665 1_555
O63 Sn10 2.079107 1_655
O63 Sn27 2.150411 1_555
O63 Sn24 2.174450 1_555
O64 Sn0 2.022200 1_555
O64 Sn4 2.135188 1_555
O64 Sn16 2.263615 1_555
O65 Sn2 2.126107 1_555
O65 Sn30 2.145395 1_555
O65 Sn10 2.161351 1_556
O66 Sn6 1.970331 1_555
O66 Sn9 2.125971 1_655
O66 Sn25 2.186042 1_555
O67 Sn15 1.939761 1_554
O67 Sn26 2.061132 1_555
