# generated using pymatgen
data_Mg14NbAl
_symmetry_space_group_name_H-M   'P 1'
_cell_length_a   6.28222158
_cell_length_b   6.28222109
_cell_length_c   10.11820928
_cell_angle_alpha   90.00000000
_cell_angle_beta   90.00000000
_cell_angle_gamma   120.00000260
_symmetry_Int_Tables_number   1
_chemical_formula_structural   Mg14NbAl
_chemical_formula_sum   'Mg14 Nb1 Al1'
_cell_volume   345.82847111
_cell_formula_units_Z   1
loop_
 _symmetry_equiv_pos_site_id
 _symmetry_equiv_pos_as_xyz
  1  'x, y, z'
loop_
 _atom_site_type_symbol
 _atom_site_label
 _atom_site_symmetry_multiplicity
 _atom_site_fract_x
 _atom_site_fract_y
 _atom_site_fract_z
 _atom_site_occupancy
  Mg  Mg0  1  0.16611563  0.83305732  0.12500000  1
  Mg  Mg1  1  0.16905315  0.83452607  0.62500000  1
  Mg  Mg2  1  0.66694268  0.33388437  0.12500000  1
  Mg  Mg3  1  0.66547393  0.33094685  0.62500000  1
  Mg  Mg4  1  0.66694268  0.83305732  0.12500000  1
  Mg  Mg5  1  0.66547393  0.83452607  0.62500000  1
  Mg  Mg6  1  0.32786368  0.17213632  0.37632900  1
  Mg  Mg7  1  0.32786368  0.17213632  0.87367100  1
  Mg  Mg8  1  0.32786368  0.65572836  0.37632900  1
  Mg  Mg9  1  0.32786368  0.65572836  0.87367100  1
  Mg  Mg10  1  0.84427164  0.17213632  0.37632900  1
  Mg  Mg11  1  0.84427164  0.17213632  0.87367100  1
  Mg  Mg12  1  0.83333300  0.66666700  0.37734984  1
  Mg  Mg13  1  0.83333300  0.66666700  0.87265016  1
  Nb  Nb0  1  0.16666700  0.33333300  0.62500000  1
  Al  Al0  1  0.16666700  0.33333300  0.12500000  1
loop_
_geom_bond_atom_site_label_1
_geom_bond_atom_site_label_2
_geom_bond_distance
_geom_bond_site_symmetry_2
Mg0 Mg13 3.130094 1_454
Mg0 Mg12 3.130094 1_455
Mg0 Mg2 3.135915 1_455
Mg0 Mg4 3.135915 1_455
Mg0 Mg8 3.142040 1_555
Mg0 Mg9 3.142040 1_554
Mg0 Mg6 3.142047 1_565
Mg0 Mg7 3.142047 1_564
Mg0 Mg2 3.146306 1_565
Mg0 Mg4 3.146307 1_555
Mg1 Mg12 3.100813 1_455
Mg1 Mg13 3.100813 1_455
Mg1 Mg9 3.115844 1_555
Mg1 Mg8 3.115844 1_555
Mg1 Mg7 3.115851 1_565
Mg1 Mg6 3.115851 1_565
Mg1 Mg3 3.118625 1_565
Mg1 Mg5 3.118625 1_555
Mg1 Nb0 3.141137 1_555
Mg1 Nb0 3.141137 1_565
Mg1 Mg3 3.163596 1_455
Mg1 Mg5 3.163596 1_455
Mg2 Mg4 3.135915 1_555
Mg2 Mg6 3.142047 1_555
Mg2 Mg7 3.142047 1_554
Mg2 Mg4 3.146306 1_545
Mg3 Mg7 3.115851 1_555
Mg3 Mg6 3.115851 1_555
Mg3 Mg5 3.118625 1_545
Mg3 Nb0 3.141138 1_655
Mg3 Nb0 3.141138 1_555
Mg3 Mg5 3.163596 1_555
Mg4 Mg8 3.142047 1_555
Mg4 Mg9 3.142047 1_554
Mg5 Mg9 3.115850 1_555
Mg5 Mg8 3.115850 1_555
Mg5 Nb0 3.141137 1_555
Mg5 Nb0 3.141137 1_665
Mg6 Mg8 3.038032 1_555
Mg6 Nb0 3.067133 1_555
Mg6 Mg8 3.244189 1_545
Mg7 Mg9 3.038032 1_555
Mg7 Nb0 3.067133 1_555
Mg7 Mg9 3.244189 1_545
Mg8 Nb0 3.067139 1_555
Mg9 Nb0 3.067139 1_555
Mg10 Mg8 3.038032 1_655
Mg10 Mg6 3.038032 1_655
Mg10 Nb0 3.067140 1_655
Mg10 Mg3 3.115844 1_555
Mg10 Mg5 3.115850 1_545
Mg10 Mg12 3.141691 1_545
Mg10 Mg12 3.141691 1_555
Mg10 Mg2 3.142040 1_555
Mg10 Mg4 3.142047 1_545
Mg10 Mg8 3.244189 1_545
Mg10 Mg6 3.244189 1_555
Mg11 Mg9 3.038032 1_655
Mg11 Mg7 3.038032 1_655
Mg11 Nb0 3.067140 1_655
Mg11 Mg3 3.115844 1_555
Mg11 Mg5 3.115850 1_545
Mg11 Mg13 3.141691 1_545
Mg11 Mg13 3.141691 1_555
Mg11 Mg2 3.142040 1_556
Mg11 Mg4 3.142047 1_546
Mg11 Mg9 3.244189 1_545
Mg11 Mg7 3.244189 1_555
Mg12 Mg5 3.100807 1_555
Mg12 Mg3 3.100813 1_555
Mg12 Mg4 3.130088 1_555
Mg12 Mg2 3.130094 1_555
Mg12 Mg6 3.141691 1_665
Mg12 Mg6 3.141691 1_555
Mg12 Mg8 3.141691 1_555
Mg12 Mg8 3.141691 1_655
Mg13 Mg5 3.100807 1_555
Mg13 Mg3 3.100813 1_555
Mg13 Mg4 3.130088 1_556
Mg13 Mg2 3.130094 1_556
Mg13 Mg7 3.141691 1_665
Mg13 Mg7 3.141691 1_555
Mg13 Mg9 3.141691 1_555
Mg13 Mg9 3.141691 1_655
Al0 Mg6 3.089234 1_555
Al0 Mg7 3.089234 1_554
Al0 Mg8 3.089240 1_555
Al0 Mg9 3.089240 1_554
Al0 Mg10 3.089240 1_455
Al0 Mg11 3.089240 1_454
Al0 Mg0 3.141112 1_545
Al0 Mg4 3.141112 1_445
Al0 Mg4 3.141112 1_555
Al0 Mg0 3.141112 1_555
Al0 Mg2 3.141112 1_555
Al0 Mg2 3.141112 1_455
