# generated using pymatgen
data_Ho2Ti12(CuO4)9
_symmetry_space_group_name_H-M   'P 1'
_cell_length_a   6.44595525
_cell_length_b   10.50399770
_cell_length_c   10.50399770
_cell_angle_alpha   120.00000000
_cell_angle_beta   90.00000000
_cell_angle_gamma   90.00000000
_symmetry_Int_Tables_number   1
_chemical_formula_structural   Ho2Ti12(CuO4)9
_chemical_formula_sum   'Ho2 Ti12 Cu9 O36'
_cell_volume   615.92403762
_cell_formula_units_Z   1
loop_
 _symmetry_equiv_pos_site_id
 _symmetry_equiv_pos_as_xyz
  1  'x, y, z'
loop_
 _atom_site_type_symbol
 _atom_site_label
 _atom_site_symmetry_multiplicity
 _atom_site_fract_x
 _atom_site_fract_y
 _atom_site_fract_z
 _atom_site_occupancy
  Ho  Ho0  1  0.00457400  0.00000000  0.00000000  1
  Ho  Ho1  1  0.66209300  0.66666700  0.33333300  1
  Ti  Ti0  1  0.17024100  0.65269100  0.82506200  1
  Ti  Ti1  1  0.83333300  0.33333300  0.16666700  1
  Ti  Ti2  1  0.49642600  0.01397600  0.50827100  1
  Ti  Ti3  1  0.83333300  0.33333300  0.66666700  1
  Ti  Ti4  1  0.49292300  0.00000000  0.00000000  1
  Ti  Ti5  1  0.17374400  0.66666700  0.33333300  1
  Ti  Ti6  1  0.17024100  0.17237200  0.34730900  1
  Ti  Ti7  1  0.83333300  0.83333300  0.66666700  1
  Ti  Ti8  1  0.49642600  0.49429500  0.98602400  1
  Ti  Ti9  1  0.49642600  0.49172900  0.50570500  1
  Ti  Ti10  1  0.17024100  0.17493800  0.82762800  1
  Ti  Ti11  1  0.83333300  0.83333300  0.16666700  1
  Cu  Cu0  1  0.33333300  0.33333300  0.16666700  1
  Cu  Cu1  1  0.99484500  0.99672500  0.49854400  1
  Cu  Cu2  1  0.67182200  0.66994200  0.83478900  1
  Cu  Cu3  1  0.99484500  0.50145600  0.49818100  1
  Cu  Cu4  1  0.67182200  0.16521100  0.83515200  1
  Cu  Cu5  1  0.33333300  0.83333300  0.16666700  1
  Cu  Cu6  1  0.67182200  0.16484800  0.33005800  1
  Cu  Cu7  1  0.33333300  0.83333300  0.66666700  1
  Cu  Cu8  1  0.99484500  0.50181900  0.00327500  1
  O  O0  1  0.24451700  0.06379400  0.62223200  1
  O  O1  1  0.92002100  0.74463300  0.95956500  1
  O  O2  1  0.58374500  0.41000900  0.29213800  1
  O  O3  1  0.35135800  0.52621300  0.17643300  1
  O  O4  1  0.00324000  0.18522500  0.50185500  1
  O  O5  1  0.68717900  0.86033800  0.84330900  1
  O  O6  1  0.97948700  0.80632800  0.49002500  1
  O  O7  1  0.66342700  0.48144200  0.83147800  1
  O  O8  1  0.31530900  0.14045400  0.15690000  1
  O  O9  1  0.08292200  0.25665800  0.04119500  1
  O  O10  1  0.74664500  0.92203300  0.37376900  1
  O  O11  1  0.42215000  0.60287300  0.71110100  1
  O  O12  1  0.42215000  0.28889900  0.89177200  1
  O  O13  1  0.08292200  0.95880500  0.21546200  1
  O  O14  1  0.74664500  0.62623100  0.54826500  1
  O  O15  1  0.66342700  0.16852200  0.64996400  1
  O  O16  1  0.31530900  0.84310000  0.98355300  1
  O  O17  1  0.97948700  0.50997500  0.31630400  1
  O  O18  1  0.68717900  0.15669100  0.01703000  1
  O  O19  1  0.35135800  0.82356700  0.34978000  1
  O  O20  1  0.00324000  0.49814500  0.68336900  1
  O  O21  1  0.92002100  0.04043500  0.78506900  1
  O  O22  1  0.58374500  0.70786200  0.11787100  1
  O  O23  1  0.24451700  0.37776800  0.44156100  1
  O  O24  1  0.00324000  0.31663100  0.81477500  1
  O  O25  1  0.68717900  0.98297000  0.13966200  1
  O  O26  1  0.35135800  0.65022000  0.47378700  1
  O  O27  1  0.58374500  0.88212900  0.58999100  1
  O  O28  1  0.24451700  0.55843900  0.93620600  1
  O  O29  1  0.92002100  0.21493100  0.25536700  1
  O  O30  1  0.74664500  0.45173500  0.07796700  1
  O  O31  1  0.42215000  0.10822800  0.39712700  1
  O  O32  1  0.08292200  0.78453800  0.74334200  1
  O  O33  1  0.31530900  0.01644700  0.85954600  1
  O  O34  1  0.97948700  0.68369600  0.19367200  1
  O  O35  1  0.66342700  0.35003600  0.51855800  1
loop_
_geom_bond_atom_site_label_1
_geom_bond_atom_site_label_2
_geom_bond_distance
_geom_bond_site_symmetry_2
Ho0 O16 2.544254 1_544
Ho0 O8 2.544257 1_555
Ho0 O33 2.544260 1_554
Ho0 O21 2.556021 1_454
Ho0 O29 2.556028 1_455
Ho0 O1 2.556031 1_444
Ho0 O13 2.558074 1_545
Ho0 O32 2.558080 1_544
Ho0 O9 2.558084 1_555
Ho0 O18 2.575319 1_455
Ho0 O5 2.575322 1_444
Ho0 O25 2.575326 1_445
Ho1 O19 2.544254 1_555
Ho1 O3 2.544257 1_555
Ho1 O26 2.544260 1_555
Ho1 O10 2.556016 1_555
Ho1 O30 2.556024 1_555
Ho1 O14 2.556036 1_555
Ho1 O22 2.558074 1_555
Ho1 O27 2.558080 1_555
Ho1 O2 2.558084 1_555
Ho1 O34 2.575311 1_555
Ho1 O6 2.575318 1_555
Ho1 O17 2.575323 1_555
Cu0 O8 1.980113 1_555
Cu0 O3 1.980129 1_555
Cu0 O9 1.982332 1_555
Cu0 O2 1.982333 1_555
Cu1 O6 1.959226 1_555
Cu1 O4 1.963591 1_665
Cu1 O0 1.964453 1_665
Cu1 O10 1.965875 1_555
Cu2 O5 1.959210 1_555
Cu2 O7 1.963591 1_555
Cu2 O11 1.964453 1_555
Cu2 O1 1.965874 1_555
Cu3 O17 1.959215 1_555
Cu3 O20 1.963581 1_655
Cu3 O23 1.964453 1_655
Cu3 O14 1.965875 1_555
Cu4 O18 1.959231 1_556
Cu4 O15 1.963581 1_555
Cu4 O12 1.964453 1_555
Cu4 O21 1.965876 1_555
Cu5 O19 1.980119 1_555
Cu5 O16 1.980134 1_554
Cu5 O22 1.982332 1_555
Cu5 O13 1.982333 1_555
Cu6 O25 1.959220 1_545
Cu6 O35 1.963586 1_555
Cu6 O31 1.964458 1_555
Cu6 O29 1.965864 1_555
Cu7 O33 1.980123 1_565
Cu7 O26 1.980124 1_555
Cu7 O32 1.982322 1_555
Cu7 O27 1.982338 1_555
Cu8 O34 1.959221 1_555
Cu8 O24 1.963586 1_654
Cu8 O28 1.964458 1_654
Cu8 O30 1.965880 1_555
O0 Ti2 1.927967 1_555
O0 Ti10 1.930839 1_555
O1 Ti11 1.971255 1_556
O1 Ti0 2.041023 1_655
O2 Ti1 1.978010 1_555
O2 Ti9 2.039714 1_555
O3 Ti5 1.942183 1_555
O3 Ti8 2.077616 1_554
O4 Ti6 1.895558 1_555
O4 Ti3 1.980789 1_455
O5 Ti7 1.970885 1_555
O5 Ti4 2.003606 1_566
O6 Ti7 1.970885 1_555
O6 Ti5 2.003612 1_655
O7 Ti8 1.895558 1_555
O7 Ti3 1.980784 1_555
O8 Ti4 1.942183 1_555
O8 Ti6 2.077616 1_555
O9 Ti1 1.978020 1_455
O9 Ti10 2.039714 1_554
O10 Ti11 1.971255 1_555
O10 Ti2 2.041014 1_565
O11 Ti0 1.927967 1_555
O11 Ti9 1.930839 1_555
O12 Ti10 1.927968 1_555
O12 Ti8 1.930839 1_555
O13 Ti11 1.978021 1_455
O13 Ti6 2.039714 1_565
O14 Ti7 1.971255 1_555
O14 Ti9 2.041013 1_555
O15 Ti2 1.895558 1_555
O15 Ti3 1.980781 1_555
O16 Ti4 1.942179 1_566
O16 Ti0 2.077616 1_555
O17 Ti1 1.970885 1_555
O17 Ti5 2.003618 1_655
O18 Ti1 1.970885 1_555
O18 Ti4 2.003603 1_555
O19 Ti5 1.942179 1_555
O19 Ti2 2.077616 1_565
O20 Ti0 1.895558 1_555
O20 Ti3 1.980797 1_455
O21 Ti7 1.971255 1_545
O21 Ti10 2.041026 1_655
O22 Ti11 1.978009 1_555
O22 Ti8 2.039714 1_554
O23 Ti9 1.927968 1_555
O23 Ti6 1.930839 1_555
O24 Ti10 1.895558 1_555
O24 Ti3 1.980779 1_455
O25 Ti11 1.970885 1_555
O25 Ti4 2.003611 1_565
O26 Ti5 1.942188 1_555
O26 Ti9 2.077616 1_555
O27 Ti7 1.978015 1_555
O27 Ti2 2.039714 1_565
O28 Ti8 1.927972 1_555
O28 Ti0 1.930839 1_555
O29 Ti1 1.971255 1_555
O29 Ti6 2.041013 1_655
O30 Ti1 1.971255 1_555
O30 Ti8 2.041019 1_554
O31 Ti6 1.927972 1_555
O31 Ti2 1.930839 1_555
O32 Ti7 1.978010 1_455
O32 Ti0 2.039714 1_555
O33 Ti4 1.942188 1_556
O33 Ti10 2.077616 1_555
O34 Ti11 1.970885 1_555
O34 Ti5 2.003602 1_655
O35 Ti9 1.895558 1_555
O35 Ti3 1.980789 1_555
