# generated using pymatgen
data_CaSiO3
_symmetry_space_group_name_H-M   'P 1'
_cell_length_a   6.25108741
_cell_length_b   6.25108741
_cell_length_c   6.25108741
_cell_angle_alpha   109.47122063
_cell_angle_beta   109.47122063
_cell_angle_gamma   109.47122063
_symmetry_Int_Tables_number   1
_chemical_formula_structural   CaSiO3
_chemical_formula_sum   'Ca4 Si4 O12'
_cell_volume   188.03765431
_cell_formula_units_Z   4
loop_
 _symmetry_equiv_pos_site_id
 _symmetry_equiv_pos_as_xyz
  1  'x, y, z'
loop_
 _atom_site_type_symbol
 _atom_site_label
 _atom_site_symmetry_multiplicity
 _atom_site_fract_x
 _atom_site_fract_y
 _atom_site_fract_z
 _atom_site_occupancy
  Ca  Ca0  1  0.00000000  0.50000000  0.50000000  1
  Ca  Ca1  1  0.50000000  0.00000000  0.50000000  1
  Ca  Ca2  1  0.00000000  0.00000000  0.00000000  1
  Ca  Ca3  1  0.50000000  0.50000000  0.00000000  1
  Si  Si0  1  0.00000000  0.50000000  0.00000000  1
  Si  Si1  1  0.00000000  0.00000000  0.50000000  1
  Si  Si2  1  0.50000000  0.50000000  0.50000000  1
  Si  Si3  1  0.50000000  0.00000000  0.00000000  1
  O  O0  1  0.76079600  0.26041000  0.02120600  1
  O  O1  1  0.23920400  0.73959000  0.97879400  1
  O  O2  1  0.26041000  0.49961300  0.23920400  1
  O  O3  1  0.76079600  0.73959000  0.50038700  1
  O  O4  1  0.23920400  0.26041000  0.49961300  1
  O  O5  1  0.49961300  0.23920400  0.26041000  1
  O  O6  1  0.73959000  0.50038700  0.76079600  1
  O  O7  1  0.73959000  0.97879400  0.23920400  1
  O  O8  1  0.26041000  0.02120600  0.76079600  1
  O  O9  1  0.02120600  0.76079600  0.26041000  1
  O  O10  1  0.97879400  0.23920400  0.73959000  1
  O  O11  1  0.50038700  0.76079600  0.73959000  1
loop_
_geom_bond_atom_site_label_1
_geom_bond_atom_site_label_2
_geom_bond_distance
_geom_bond_site_symmetry_2
Ca0 O1 2.443761 1_555
Ca0 O0 2.443761 1_455
Ca0 O4 2.443761 1_555
Ca0 O3 2.443761 1_455
Ca0 O9 2.556258 1_555
Ca0 O10 2.556258 1_455
Ca0 O11 2.556263 1_555
Ca0 O5 2.556263 1_455
Ca0 O8 2.660232 1_565
Ca0 O7 2.660232 1_445
Ca0 O6 2.660232 1_455
Ca0 O2 2.660232 1_555
Ca1 O10 2.443761 1_555
Ca1 O9 2.443761 1_545
Ca1 O5 2.443761 1_555
Ca1 O11 2.443761 1_545
Ca1 O8 2.556258 1_555
Ca1 O7 2.556258 1_545
Ca1 O6 2.556263 1_555
Ca1 O2 2.556263 1_545
Ca1 O0 2.660232 1_556
Ca1 O1 2.660232 1_544
Ca1 O3 2.660232 1_545
Ca1 O4 2.660232 1_555
Ca2 O3 2.552316 1_444
Ca2 O11 2.552316 1_444
Ca2 O6 2.552316 1_444
Ca2 O4 2.552316 1_555
Ca2 O5 2.552316 1_555
Ca2 O2 2.552316 1_555
Ca2 O10 2.552322 1_454
Ca2 O1 2.552322 1_544
Ca2 O7 2.552322 1_445
Ca2 O8 2.552322 1_554
Ca2 O0 2.552322 1_455
Ca2 O9 2.552322 1_545
Ca3 O7 2.443761 1_555
Ca3 O8 2.443761 1_554
Ca3 O2 2.443761 1_555
Ca3 O6 2.443761 1_554
Ca3 O0 2.556258 1_555
Ca3 O1 2.556258 1_554
Ca3 O3 2.556263 1_555
Ca3 O4 2.556263 1_554
Ca3 O9 2.660232 1_655
Ca3 O10 2.660232 1_454
Ca3 O11 2.660232 1_554
Ca3 O5 2.660232 1_555
O0 Si3 1.807778 1_555
O0 Si0 1.807778 1_655
O1 Si3 1.807778 1_566
O1 Si0 1.807778 1_556
O2 Si2 1.807774 1_555
O2 Si0 1.807781 1_555
O3 Si2 1.807774 1_555
O3 Si1 1.807781 1_665
O4 Si2 1.807774 1_555
O4 Si1 1.807781 1_555
O5 Si2 1.807774 1_555
O5 Si3 1.807781 1_555
O6 Si2 1.807774 1_555
O6 Si0 1.807781 1_656
O7 Si1 1.807778 1_665
O7 Si3 1.807778 1_565
O8 Si1 1.807778 1_555
O8 Si3 1.807778 1_556
O9 Si0 1.807778 1_555
O9 Si1 1.807778 1_565
O10 Si0 1.807778 1_656
O10 Si1 1.807778 1_655
O11 Si2 1.807774 1_555
O11 Si3 1.807781 1_566
