# generated using pymatgen
data_Rb2Nb2Si2O11
_symmetry_space_group_name_H-M   'P 1'
_cell_length_a   7.44305496
_cell_length_b   7.44305496
_cell_length_c   39.71365421
_cell_angle_alpha   90.00000000
_cell_angle_beta   90.00000000
_cell_angle_gamma   90.00000000
_symmetry_Int_Tables_number   1
_chemical_formula_structural   Rb2Nb2Si2O11
_chemical_formula_sum   'Rb16 Nb16 Si16 O88'
_cell_volume   2200.09939586
_cell_formula_units_Z   8
loop_
 _symmetry_equiv_pos_site_id
 _symmetry_equiv_pos_as_xyz
  1  'x, y, z'
loop_
 _atom_site_type_symbol
 _atom_site_label
 _atom_site_symmetry_multiplicity
 _atom_site_fract_x
 _atom_site_fract_y
 _atom_site_fract_z
 _atom_site_occupancy
  Rb  Rb0  1  0.03441585  0.03441585  0.37500000  1
  Rb  Rb1  1  0.96558415  0.96558415  0.87500000  1
  Rb  Rb2  1  0.96558415  0.03441585  0.62500000  1
  Rb  Rb3  1  0.03441585  0.96558415  0.12500000  1
  Rb  Rb4  1  0.01901617  0.46938128  0.07373385  1
  Rb  Rb5  1  0.98098383  0.53061872  0.57373385  1
  Rb  Rb6  1  0.53061872  0.01901617  0.32373385  1
  Rb  Rb7  1  0.98098383  0.46938128  0.92626615  1
  Rb  Rb8  1  0.46938128  0.98098383  0.82373385  1
  Rb  Rb9  1  0.01901617  0.53061872  0.42626615  1
  Rb  Rb10  1  0.46938128  0.01901617  0.67626615  1
  Rb  Rb11  1  0.53061872  0.98098383  0.17626615  1
  Rb  Rb12  1  0.50000000  0.37416797  0.00000000  1
  Rb  Rb13  1  0.50000000  0.62583203  0.50000000  1
  Rb  Rb14  1  0.62583203  0.50000000  0.25000000  1
  Rb  Rb15  1  0.37416797  0.50000000  0.75000000  1
  Nb  Nb0  1  0.27520317  0.49982168  0.16159075  1
  Nb  Nb1  1  0.72479683  0.50017832  0.66159075  1
  Nb  Nb2  1  0.50017832  0.27520317  0.41159075  1
  Nb  Nb3  1  0.72479683  0.49982168  0.83840925  1
  Nb  Nb4  1  0.49982168  0.72479683  0.91159075  1
  Nb  Nb5  1  0.27520317  0.50017832  0.33840925  1
  Nb  Nb6  1  0.49982168  0.27520317  0.58840925  1
  Nb  Nb7  1  0.50017832  0.72479683  0.08840925  1
  Nb  Nb8  1  0.50096604  0.23025493  0.09381795  1
  Nb  Nb9  1  0.49903396  0.76974507  0.59381795  1
  Nb  Nb10  1  0.76974507  0.50096604  0.34381795  1
  Nb  Nb11  1  0.49903396  0.23025493  0.90618205  1
  Nb  Nb12  1  0.23025493  0.49903396  0.84381795  1
  Nb  Nb13  1  0.50096604  0.76974507  0.40618205  1
  Nb  Nb14  1  0.23025493  0.50096604  0.65618205  1
  Nb  Nb15  1  0.76974507  0.49903396  0.15618205  1
  Si  Si0  1  0.00491420  0.22019827  0.20962931  1
  Si  Si1  1  0.99508580  0.77980173  0.70962931  1
  Si  Si2  1  0.77980173  0.00491420  0.45962931  1
  Si  Si3  1  0.99508580  0.22019827  0.79037069  1
  Si  Si4  1  0.22019827  0.99508580  0.95962931  1
  Si  Si5  1  0.00491420  0.77980173  0.29037069  1
  Si  Si6  1  0.22019827  0.00491420  0.54037069  1
  Si  Si7  1  0.77980173  0.99508580  0.04037069  1
  Si  Si8  1  0.00486467  0.21400039  0.29140991  1
  Si  Si9  1  0.99513533  0.78599961  0.79140991  1
  Si  Si10  1  0.78599961  0.00486467  0.54140991  1
  Si  Si11  1  0.99513533  0.21400039  0.70859009  1
  Si  Si12  1  0.21400039  0.99513533  0.04140991  1
  Si  Si13  1  0.00486467  0.78599961  0.20859009  1
  Si  Si14  1  0.21400039  0.00486467  0.45859009  1
  Si  Si15  1  0.78599961  0.99513533  0.95859009  1
  O  O0  1  0.29659313  0.17570428  0.05868977  1
  O  O1  1  0.70340687  0.82429572  0.55868977  1
  O  O2  1  0.82429572  0.29659313  0.30868977  1
  O  O3  1  0.70340687  0.17570428  0.94131023  1
  O  O4  1  0.17570428  0.70340687  0.80868977  1
  O  O5  1  0.29659313  0.82429572  0.44131023  1
  O  O6  1  0.17570428  0.29659313  0.69131023  1
  O  O7  1  0.82429572  0.70340687  0.19131023  1
  O  O8  1  0.32352670  0.30547245  0.12766750  1
  O  O9  1  0.67647330  0.69452755  0.62766750  1
  O  O10  1  0.69452755  0.32352670  0.37766750  1
  O  O11  1  0.67647330  0.30547245  0.87233250  1
  O  O12  1  0.30547245  0.67647330  0.87766750  1
  O  O13  1  0.32352670  0.69452755  0.37233250  1
  O  O14  1  0.30547245  0.32352670  0.62233250  1
  O  O15  1  0.69452755  0.67647330  0.12233250  1
  O  O16  1  0.00799784  0.00378223  0.20027371  1
  O  O17  1  0.99200216  0.99621777  0.70027371  1
  O  O18  1  0.99621777  0.00799784  0.45027371  1
  O  O19  1  0.99200216  0.00378223  0.79972629  1
  O  O20  1  0.00378223  0.99200216  0.95027371  1
  O  O21  1  0.00799784  0.99621777  0.29972629  1
  O  O22  1  0.00378223  0.00799784  0.54972629  1
  O  O23  1  0.99621777  0.99200216  0.04972629  1
  O  O24  1  0.24280600  0.00775375  0.00064877  1
  O  O25  1  0.75719400  0.99224625  0.50064877  1
  O  O26  1  0.99224625  0.24280600  0.25064877  1
  O  O27  1  0.75719400  0.00775375  0.99935123  1
  O  O28  1  0.00775375  0.75719400  0.75064877  1
  O  O29  1  0.24280600  0.99224625  0.49935123  1
  O  O30  1  0.00775375  0.24280600  0.74935123  1
  O  O31  1  0.99224625  0.75719400  0.24935123  1
  O  O32  1  0.69346787  0.17579515  0.05683257  1
  O  O33  1  0.30653213  0.82420485  0.55683257  1
  O  O34  1  0.82420485  0.69346787  0.30683257  1
  O  O35  1  0.30653213  0.17579515  0.94316743  1
  O  O36  1  0.17579515  0.30653213  0.80683257  1
  O  O37  1  0.69346787  0.82420485  0.44316743  1
  O  O38  1  0.17579515  0.69346787  0.69316743  1
  O  O39  1  0.82420485  0.30653213  0.19316743  1
  O  O40  1  0.69463376  0.69463376  0.37500000  1
  O  O41  1  0.30536624  0.30536624  0.87500000  1
  O  O42  1  0.30536624  0.69463376  0.62500000  1
  O  O43  1  0.69463376  0.30536624  0.12500000  1
  O  O44  1  0.49410607  0.48572469  0.07214487  1
  O  O45  1  0.50589393  0.51427531  0.57214487  1
  O  O46  1  0.51427531  0.49410607  0.32214487  1
  O  O47  1  0.50589393  0.48572469  0.92785513  1
  O  O48  1  0.48572469  0.50589393  0.82214487  1
  O  O49  1  0.49410607  0.51427531  0.42785513  1
  O  O50  1  0.48572469  0.49410607  0.67785513  1
  O  O51  1  0.51427531  0.50589393  0.17785513  1
  O  O52  1  0.32292325  0.32292325  0.37500000  1
  O  O53  1  0.67707675  0.67707675  0.87500000  1
  O  O54  1  0.67707675  0.32292325  0.62500000  1
  O  O55  1  0.32292325  0.67707675  0.12500000  1
  O  O56  1  0.39250642  0.08243834  0.24792171  1
  O  O57  1  0.60749358  0.91756166  0.74792171  1
  O  O58  1  0.91756166  0.39250642  0.49792171  1
  O  O59  1  0.60749358  0.08243834  0.75207829  1
  O  O60  1  0.08243834  0.60749358  0.99792171  1
  O  O61  1  0.39250642  0.91756166  0.25207829  1
  O  O62  1  0.08243834  0.39250642  0.50207829  1
  O  O63  1  0.91756166  0.60749358  0.00207829  1
  O  O64  1  0.18881817  0.31010345  0.19521300  1
  O  O65  1  0.81118183  0.68989655  0.69521300  1
  O  O66  1  0.68989655  0.18881817  0.44521300  1
  O  O67  1  0.81118183  0.31010345  0.80478700  1
  O  O68  1  0.31010345  0.81118183  0.94521300  1
  O  O69  1  0.18881817  0.68989655  0.30478700  1
  O  O70  1  0.31010345  0.18881817  0.55478700  1
  O  O71  1  0.68989655  0.81118183  0.05478700  1
  O  O72  1  0.01243982  0.50089314  0.14302940  1
  O  O73  1  0.98756018  0.49910686  0.64302940  1
  O  O74  1  0.49910686  0.01243982  0.39302940  1
  O  O75  1  0.98756018  0.50089314  0.85697060  1
  O  O76  1  0.50089314  0.98756018  0.89302940  1
  O  O77  1  0.01243982  0.49910686  0.35697060  1
  O  O78  1  0.50089314  0.01243982  0.60697060  1
  O  O79  1  0.49910686  0.98756018  0.10697060  1
  O  O80  1  0.18897043  0.29805016  0.30705945  1
  O  O81  1  0.81102957  0.70194984  0.80705945  1
  O  O82  1  0.70194984  0.18897043  0.55705945  1
  O  O83  1  0.81102957  0.29805016  0.69294055  1
  O  O84  1  0.29805016  0.81102957  0.05705945  1
  O  O85  1  0.18897043  0.70194984  0.19294055  1
  O  O86  1  0.29805016  0.18897043  0.44294055  1
  O  O87  1  0.70194984  0.81102957  0.94294055  1
loop_
_geom_bond_atom_site_label_1
_geom_bond_atom_site_label_2
_geom_bond_distance
_geom_bond_site_symmetry_2
Nb0 O51 1.893572 1_555
Nb0 O55 1.994595 1_555
Nb0 O8 2.009196 1_555
Nb0 O64 2.047025 1_555
Nb0 O85 2.055575 1_555
Nb0 O72 2.090082 1_555
Nb1 O50 1.893572 1_555
Nb1 O54 1.994595 1_555
Nb1 O9 2.009196 1_555
Nb1 O65 2.047025 1_555
Nb1 O83 2.055575 1_555
Nb1 O73 2.090082 1_555
Nb2 O49 1.893572 1_555
Nb2 O52 1.994595 1_555
Nb2 O10 2.009196 1_555
Nb2 O66 2.047025 1_555
Nb2 O86 2.055575 1_555
Nb2 O74 2.090082 1_555
Nb3 O48 1.893572 1_555
Nb3 O53 1.994595 1_555
Nb3 O11 2.009196 1_555
Nb3 O67 2.047025 1_555
Nb3 O81 2.055575 1_555
Nb3 O75 2.090082 1_555
Nb4 O47 1.893572 1_555
Nb4 O53 1.994595 1_555
Nb4 O12 2.009196 1_555
Nb4 O68 2.047025 1_555
Nb4 O87 2.055575 1_555
Nb4 O76 2.090082 1_555
Nb5 O46 1.893572 1_555
Nb5 O52 1.994595 1_555
Nb5 O13 2.009196 1_555
Nb5 O69 2.047025 1_555
Nb5 O80 2.055575 1_555
Nb5 O77 2.090082 1_555
Nb6 O45 1.893572 1_555
Nb6 O54 1.994595 1_555
Nb6 O14 2.009196 1_555
Nb6 O70 2.047025 1_555
Nb6 O82 2.055575 1_555
Nb6 O78 2.090082 1_555
Nb7 O44 1.893572 1_555
Nb7 O55 1.994595 1_555
Nb7 O15 2.009196 1_555
Nb7 O71 2.047025 1_555
Nb7 O84 2.055575 1_555
Nb7 O79 2.090082 1_555
Nb8 O79 1.880446 1_545
Nb8 O8 1.965901 1_555
Nb8 O43 1.980890 1_555
Nb8 O44 2.087834 1_555
Nb8 O32 2.091572 1_555
Nb8 O0 2.103567 1_555
Nb9 O78 1.880446 1_565
Nb9 O9 1.965901 1_555
Nb9 O42 1.980890 1_555
Nb9 O45 2.087834 1_555
Nb9 O33 2.091572 1_555
Nb9 O1 2.103567 1_555
Nb10 O77 1.880446 1_655
Nb10 O10 1.965901 1_555
Nb10 O40 1.980890 1_555
Nb10 O46 2.087834 1_555
Nb10 O34 2.091572 1_555
Nb10 O2 2.103567 1_555
Nb11 O76 1.880446 1_545
Nb11 O11 1.965901 1_555
Nb11 O41 1.980890 1_555
Nb11 O47 2.087834 1_555
Nb11 O35 2.091572 1_555
Nb11 O3 2.103567 1_555
Nb12 O75 1.880446 1_455
Nb12 O12 1.965901 1_555
Nb12 O41 1.980890 1_555
Nb12 O48 2.087834 1_555
Nb12 O36 2.091572 1_555
Nb12 O4 2.103567 1_555
Nb13 O74 1.880446 1_565
Nb13 O13 1.965901 1_555
Nb13 O40 1.980890 1_555
Nb13 O49 2.087834 1_555
Nb13 O37 2.091572 1_555
Nb13 O5 2.103567 1_555
Nb14 O73 1.880446 1_455
Nb14 O14 1.965901 1_555
Nb14 O42 1.980890 1_555
Nb14 O50 2.087834 1_555
Nb14 O38 2.091572 1_555
Nb14 O6 2.103567 1_555
Nb15 O72 1.880446 1_655
Nb15 O15 1.965901 1_555
Nb15 O43 1.980890 1_555
Nb15 O51 2.087834 1_555
Nb15 O39 2.091572 1_555
Nb15 O7 2.103567 1_555
O0 Si12 1.629459 1_545
O0 Rb4 3.066489 1_555
O0 Rb12 3.147493 1_555
O1 Si10 1.629459 1_565
O1 Rb5 3.066489 1_555
O1 Rb13 3.147493 1_555
O2 Si8 1.629459 1_655
O2 Rb6 3.066489 1_555
O2 Rb14 3.147493 1_555
O3 Si15 1.629459 1_545
O3 Rb7 3.066489 1_555
O3 Rb12 3.147493 1_556
O4 Si9 1.629459 1_455
O4 Rb8 3.066489 1_555
O4 Rb15 3.147493 1_555
O5 Si14 1.629459 1_565
O5 Rb9 3.066489 1_555
O5 Rb13 3.147493 1_555
O6 Si11 1.629459 1_455
O6 Rb10 3.066489 1_555
O6 Rb15 3.147493 1_555
O7 Si13 1.629459 1_655
O7 Rb11 3.066489 1_555
O7 Rb14 3.147493 1_555
O8 Rb3 3.322903 1_545
O9 Rb2 3.322903 1_565
O10 Rb0 3.322903 1_655
O11 Rb1 3.322903 1_545
O12 Rb1 3.322903 1_455
O13 Rb0 3.322903 1_565
O14 Rb2 3.322903 1_455
O15 Rb3 3.322903 1_655
O16 Si0 1.653251 1_555
O16 Si13 1.654437 1_545
O16 Rb3 3.009314 1_545
O17 Si1 1.653251 1_555
O17 Si11 1.654437 1_565
O17 Rb2 3.009314 1_565
O18 Si2 1.653251 1_555
O18 Si14 1.654437 1_655
O18 Rb0 3.009314 1_655
O19 Si3 1.653251 1_555
O19 Si9 1.654437 1_545
O19 Rb1 3.009314 1_545
O20 Si4 1.653251 1_555
O20 Si15 1.654437 1_455
O20 Rb1 3.009314 1_455
O21 Si5 1.653251 1_555
O21 Si8 1.654437 1_565
O21 Rb0 3.009314 1_565
O22 Si6 1.653251 1_555
O22 Si10 1.654437 1_455
O22 Rb2 3.009314 1_455
O23 Si7 1.653251 1_555
O23 Si12 1.654437 1_655
O23 Rb3 3.009314 1_655
O24 Si12 1.635609 1_545
O24 Si4 1.640412 1_544
O24 Rb12 3.332130 1_555
O25 Si10 1.635609 1_565
O25 Si2 1.640412 1_565
O25 Rb13 3.332130 1_555
O26 Si8 1.635609 1_655
O26 Si0 1.640412 1_655
O26 Rb14 3.332130 1_555
O27 Si15 1.635609 1_545
O27 Si7 1.640412 1_546
O27 Rb12 3.332130 1_556
O28 Si9 1.635609 1_455
O28 Si1 1.640412 1_455
O28 Rb15 3.332130 1_555
O29 Si14 1.635609 1_565
O29 Si6 1.640412 1_565
O29 Rb13 3.332130 1_555
O30 Si11 1.635609 1_455
O30 Si3 1.640412 1_455
O30 Rb15 3.332130 1_555
O31 Si13 1.635609 1_655
O31 Si5 1.640412 1_655
O31 Rb14 3.332130 1_555
O32 Si7 1.627706 1_545
O32 Rb12 3.057419 1_555
O33 Si6 1.627706 1_565
O33 Rb13 3.057419 1_555
O34 Si5 1.627706 1_655
O34 Rb14 3.057419 1_555
O35 Si4 1.627706 1_545
O35 Rb12 3.057419 1_556
O36 Si3 1.627706 1_455
O36 Rb15 3.057419 1_555
O37 Si2 1.627706 1_565
O37 Rb13 3.057419 1_555
O38 Si1 1.627706 1_455
O38 Rb15 3.057419 1_555
O39 Si0 1.627706 1_655
O39 Rb14 3.057419 1_555
O44 Rb12 2.983348 1_555
O45 Rb13 2.983348 1_555
O46 Rb14 2.983348 1_555
O47 Rb12 2.983348 1_556
O48 Rb15 2.983348 1_555
O49 Rb13 2.983348 1_555
O50 Rb15 2.983348 1_555
O51 Rb14 2.983348 1_555
O52 Rb0 3.036849 1_555
O53 Rb1 3.036849 1_555
O54 Rb2 3.036849 1_555
O55 Rb3 3.036849 1_555
O56 O61 1.238239 1_545
O56 Rb11 3.118492 1_545
O56 Rb6 3.216264 1_555
O56 Rb14 3.561185 1_555
O57 O59 1.238239 1_565
O57 Rb10 3.118492 1_565
O57 Rb8 3.216264 1_555
O57 Rb15 3.561185 1_555
O58 O62 1.238239 1_655
O58 Rb9 3.118492 1_655
O58 Rb5 3.216264 1_555
O58 Rb13 3.561185 1_555
O59 Rb8 3.118492 1_545
O59 Rb10 3.216264 1_555
O59 Rb15 3.561185 1_555
O60 O63 1.238239 1_456
O60 Rb7 3.118492 1_455
O60 Rb4 3.216264 1_556
O60 Rb12 3.561185 1_556
O61 Rb6 3.118492 1_565
O61 Rb11 3.216264 1_555
O61 Rb14 3.561185 1_555
O62 Rb5 3.118492 1_455
O62 Rb9 3.216264 1_555
O62 Rb13 3.561185 1_555
O63 Rb4 3.118492 1_655
O63 Rb7 3.216264 1_554
O63 Rb12 3.561185 1_555
O64 Si0 1.627638 1_555
O65 Si1 1.627638 1_555
O66 Si2 1.627638 1_555
O67 Si3 1.627638 1_555
O68 Si4 1.627638 1_555
O69 Si5 1.627638 1_555
O70 Si6 1.627638 1_555
O71 Si7 1.627638 1_555
O72 Rb4 2.762390 1_555
O73 Rb5 2.762390 1_555
O74 Rb6 2.762390 1_555
O75 Rb7 2.762390 1_555
O76 Rb8 2.762390 1_555
O77 Rb9 2.762390 1_555
O78 Rb10 2.762390 1_555
O79 Rb11 2.762390 1_555
O80 Si8 1.629530 1_555
O81 Si9 1.629530 1_555
O82 Si10 1.629530 1_555
O83 Si11 1.629530 1_555
O84 Si12 1.629530 1_555
O85 Si13 1.629530 1_555
O86 Si14 1.629530 1_555
O87 Si15 1.629530 1_555
