# generated using pymatgen
data_CeY
_symmetry_space_group_name_H-M   'P 1'
_cell_length_a   7.03614001
_cell_length_b   7.03614001
_cell_length_c   11.56304400
_cell_angle_alpha   90.00000000
_cell_angle_beta   90.00000000
_cell_angle_gamma   120.00000013
_symmetry_Int_Tables_number   1
_chemical_formula_structural   CeY
_chemical_formula_sum   'Ce8 Y8'
_cell_volume   495.76031070
_cell_formula_units_Z   8
loop_
 _symmetry_equiv_pos_site_id
 _symmetry_equiv_pos_as_xyz
  1  'x, y, z'
loop_
 _atom_site_type_symbol
 _atom_site_label
 _atom_site_symmetry_multiplicity
 _atom_site_fract_x
 _atom_site_fract_y
 _atom_site_fract_z
 _atom_site_occupancy
  Ce  Ce0_0  1  0.16666650  0.33333350  0.25000000  1
  Ce  Ce0_1  1  0.16666650  0.33333350  0.75000000  1
  Ce  Ce0_2  1  0.16666650  0.83333350  0.25000000  1
  Ce  Ce0_3  1  0.16666650  0.83333350  0.75000000  1
  Ce  Ce0_4  1  0.66666650  0.33333350  0.25000000  1
  Ce  Ce0_5  1  0.66666650  0.33333350  0.75000000  1
  Ce  Ce0_6  1  0.66666650  0.83333350  0.25000000  1
  Ce  Ce0_7  1  0.66666650  0.83333350  0.75000000  1
  Y  Y0_0  1  0.33333350  0.16666650  0.00000000  1
  Y  Y0_1  1  0.33333350  0.16666650  0.50000000  1
  Y  Y0_2  1  0.33333350  0.66666650  0.00000000  1
  Y  Y0_3  1  0.33333350  0.66666650  0.50000000  1
  Y  Y0_4  1  0.83333350  0.16666650  0.00000000  1
  Y  Y0_5  1  0.83333350  0.16666650  0.50000000  1
  Y  Y0_6  1  0.83333350  0.66666650  0.00000000  1
  Y  Y0_7  1  0.83333350  0.66666650  0.50000000  1
loop_
_geom_bond_atom_site_label_1
_geom_bond_atom_site_label_2
_geom_bond_distance
_geom_bond_site_symmetry_2
Ce0_0 Ce0_6 3.518070 1_445
Ce0_0 Ce0_6 3.518070 1_555
Ce0_0 Ce0_2 3.518070 1_555
Ce0_0 Ce0_4 3.518070 1_555
Ce0_0 Ce0_4 3.518070 1_455
Ce0_0 Ce0_2 3.518070 1_545
Ce0_0 Y0_4 3.533001 1_455
Ce0_0 Y0_5 3.533001 1_455
Ce0_0 Y0_3 3.533001 1_555
Ce0_0 Y0_2 3.533001 1_555
Ce0_0 Y0_0 3.533005 1_555
Ce0_0 Y0_1 3.533005 1_555
Ce0_1 Ce0_7 3.518070 1_555
Ce0_1 Ce0_7 3.518070 1_445
Ce0_1 Ce0_5 3.518070 1_555
Ce0_1 Ce0_3 3.518070 1_555
Ce0_1 Ce0_3 3.518070 1_545
Ce0_1 Ce0_5 3.518070 1_455
Ce0_1 Y0_2 3.533001 1_556
Ce0_1 Y0_4 3.533001 1_456
Ce0_1 Y0_5 3.533001 1_455
Ce0_1 Y0_3 3.533001 1_555
Ce0_1 Y0_0 3.533005 1_556
Ce0_1 Y0_1 3.533005 1_555
Ce0_2 Ce0_4 3.518070 1_565
Ce0_2 Ce0_4 3.518070 1_455
Ce0_2 Ce0_6 3.518070 1_555
Ce0_2 Ce0_6 3.518070 1_455
Ce0_2 Y0_6 3.533001 1_455
Ce0_2 Y0_1 3.533001 1_565
Ce0_2 Y0_7 3.533001 1_455
Ce0_2 Y0_0 3.533001 1_565
Ce0_2 Y0_3 3.533005 1_555
Ce0_2 Y0_2 3.533005 1_555
Ce0_3 Ce0_5 3.518070 1_565
Ce0_3 Ce0_5 3.518070 1_455
Ce0_3 Ce0_7 3.518070 1_555
Ce0_3 Ce0_7 3.518070 1_455
Ce0_3 Y0_0 3.533001 1_566
Ce0_3 Y0_6 3.533001 1_456
Ce0_3 Y0_1 3.533001 1_565
Ce0_3 Y0_7 3.533001 1_455
Ce0_3 Y0_2 3.533005 1_556
Ce0_3 Y0_3 3.533005 1_555
Ce0_4 Ce0_6 3.518070 1_545
Ce0_4 Ce0_6 3.518070 1_555
Ce0_4 Y0_0 3.533001 1_555
Ce0_4 Y0_6 3.533001 1_555
Ce0_4 Y0_7 3.533001 1_555
Ce0_4 Y0_1 3.533001 1_555
Ce0_4 Y0_5 3.533005 1_555
Ce0_4 Y0_4 3.533005 1_555
Ce0_5 Ce0_7 3.518070 1_545
Ce0_5 Ce0_7 3.518070 1_555
Ce0_5 Y0_6 3.533001 1_556
Ce0_5 Y0_0 3.533001 1_556
Ce0_5 Y0_1 3.533001 1_555
Ce0_5 Y0_7 3.533001 1_555
Ce0_5 Y0_4 3.533005 1_556
Ce0_5 Y0_5 3.533005 1_555
Ce0_6 Y0_3 3.533001 1_555
Ce0_6 Y0_4 3.533001 1_565
Ce0_6 Y0_5 3.533001 1_565
Ce0_6 Y0_2 3.533001 1_555
Ce0_6 Y0_6 3.533005 1_555
Ce0_6 Y0_7 3.533005 1_555
Ce0_7 Y0_2 3.533001 1_556
Ce0_7 Y0_4 3.533001 1_566
Ce0_7 Y0_3 3.533001 1_555
Ce0_7 Y0_5 3.533001 1_565
Ce0_7 Y0_6 3.533005 1_556
Ce0_7 Y0_7 3.533005 1_555
Y0_0 Y0_6 3.518070 1_445
Y0_0 Y0_6 3.518070 1_555
Y0_0 Y0_2 3.518070 1_545
Y0_0 Y0_4 3.518070 1_555
Y0_0 Y0_2 3.518070 1_555
Y0_0 Y0_4 3.518070 1_455
Y0_1 Y0_7 3.518070 1_445
Y0_1 Y0_7 3.518070 1_555
Y0_1 Y0_5 3.518070 1_555
Y0_1 Y0_3 3.518070 1_545
Y0_1 Y0_5 3.518070 1_455
Y0_1 Y0_3 3.518070 1_555
Y0_2 Y0_4 3.518070 1_455
Y0_2 Y0_4 3.518070 1_565
Y0_2 Y0_6 3.518070 1_555
Y0_2 Y0_6 3.518070 1_455
Y0_3 Y0_5 3.518070 1_455
Y0_3 Y0_5 3.518070 1_565
Y0_3 Y0_7 3.518070 1_555
Y0_3 Y0_7 3.518070 1_455
Y0_4 Y0_6 3.518070 1_545
Y0_4 Y0_6 3.518070 1_555
Y0_5 Y0_7 3.518070 1_555
Y0_5 Y0_7 3.518070 1_545
