# generated using pymatgen
data_SnO2
_symmetry_space_group_name_H-M   'P 1'
_cell_length_a   6.08931968
_cell_length_b   6.08931968
_cell_length_c   20.94370104
_cell_angle_alpha   79.58982563
_cell_angle_beta   79.58982563
_cell_angle_gamma   65.56235965
_symmetry_Int_Tables_number   1
_chemical_formula_structural   SnO2
_chemical_formula_sum   'Sn16 O32'
_cell_volume   690.49362037
_cell_formula_units_Z   16
loop_
 _symmetry_equiv_pos_site_id
 _symmetry_equiv_pos_as_xyz
  1  'x, y, z'
loop_
 _atom_site_type_symbol
 _atom_site_label
 _atom_site_symmetry_multiplicity
 _atom_site_fract_x
 _atom_site_fract_y
 _atom_site_fract_z
 _atom_site_occupancy
  Sn  Sn0  1  0.61267700  0.11294000  0.12260300  1
  Sn  Sn1  1  0.22740800  0.22740800  0.25200300  1
  Sn  Sn2  1  0.11294000  0.61267700  0.12260300  1
  Sn  Sn3  1  0.14631800  0.14631800  0.53289400  1
  Sn  Sn4  1  0.83685000  0.34098900  0.38247900  1
  Sn  Sn5  1  0.72723600  0.72723600  0.25195100  1
  Sn  Sn6  1  0.41916000  0.41916000  0.77786500  1
  Sn  Sn7  1  0.34098900  0.83685000  0.38247900  1
  Sn  Sn8  1  0.12481000  0.62456700  0.62431500  1
  Sn  Sn9  1  0.82073000  0.82073000  0.47253800  1
  Sn  Sn10  1  0.62456700  0.12481000  0.62431500  1
  Sn  Sn11  1  0.89796300  0.40282000  0.86571000  1
  Sn  Sn12  1  0.40282000  0.89796300  0.86571000  1
  Sn  Sn13  1  0.10288700  0.10288700  0.71375000  1
  Sn  Sn14  1  0.99777600  0.99777600  0.99277500  1
  Sn  Sn15  1  0.50123500  0.50123500  0.99377700  1
  O  O0  1  0.28941600  0.79280400  0.05135000  1
  O  O1  1  0.90497700  0.90497700  0.18025300  1
  O  O2  1  0.79280400  0.28941600  0.05135000  1
  O  O3  1  0.81961900  0.81961900  0.06471600  1
  O  O4  1  0.40577500  0.40577500  0.18020000  1
  O  O5  1  0.51767400  0.01895700  0.30922100  1
  O  O6  1  0.43386800  0.93481000  0.19408700  1
  O  O7  1  0.15179800  0.15179800  0.43607300  1
  O  O8  1  0.01895700  0.51767400  0.30922100  1
  O  O9  1  0.32148000  0.32148000  0.06457200  1
  O  O10  1  0.05041700  0.05041700  0.32588700  1
  O  O11  1  0.93481000  0.43386800  0.19408700  1
  O  O12  1  0.80076500  0.31590700  0.56353100  1
  O  O13  1  0.66067000  0.66067000  0.43184300  1
  O  O14  1  0.64926900  0.16420000  0.44260300  1
  O  O15  1  0.42791200  0.42791200  0.68003100  1
  O  O16  1  0.31590700  0.80076500  0.56353100  1
  O  O17  1  0.55035900  0.55035900  0.32518200  1
  O  O18  1  0.30994200  0.30994200  0.57320000  1
  O  O19  1  0.16420000  0.64926900  0.44260300  1
  O  O20  1  0.93671100  0.93671100  0.67636000  1
  O  O21  1  0.07773100  0.59371800  0.80909400  1
  O  O22  1  0.93420400  0.44979600  0.68609300  1
  O  O23  1  0.68363500  0.68363500  0.92429700  1
  O  O24  1  0.59371800  0.07773100  0.80909400  1
  O  O25  1  0.82127600  0.82127600  0.56947900  1
  O  O26  1  0.58500900  0.58500900  0.81389200  1
  O  O27  1  0.44979600  0.93420400  0.68609300  1
  O  O28  1  0.18118400  0.18118400  0.92380200  1
  O  O29  1  0.21594100  0.71290000  0.93467100  1
  O  O30  1  0.09265800  0.09265800  0.81092400  1
  O  O31  1  0.71290000  0.21594100  0.93467100  1
loop_
_geom_bond_atom_site_label_1
_geom_bond_atom_site_label_2
_geom_bond_distance
_geom_bond_site_symmetry_2
O0 Sn2 2.095003 1_555
O0 Sn15 2.141652 1_554
O0 Sn14 2.148627 1_454
O1 Sn5 2.095773 1_555
O1 Sn2 2.142118 1_655
O1 Sn0 2.142118 1_565
O2 Sn0 2.095003 1_555
O2 Sn15 2.141652 1_554
O2 Sn14 2.148627 1_544
O3 Sn14 2.101513 1_554
O3 Sn2 2.148531 1_655
O3 Sn0 2.148531 1_565
O4 Sn1 2.101519 1_555
O4 Sn2 2.142761 1_555
O4 Sn0 2.142761 1_555
O5 Sn7 2.125325 1_545
O5 Sn1 2.128568 1_555
O5 Sn5 2.136326 1_545
O6 Sn0 2.098748 1_565
O6 Sn1 2.145449 1_565
O6 Sn5 2.148980 1_555
O7 Sn3 2.016476 1_555
O7 Sn4 2.178921 1_455
O7 Sn7 2.178921 1_545
O8 Sn4 2.125325 1_455
O8 Sn1 2.128568 1_555
O8 Sn5 2.136326 1_455
O9 Sn15 2.100705 1_554
O9 Sn2 2.142876 1_555
O9 Sn0 2.142876 1_555
O10 Sn1 2.115008 1_555
O10 Sn7 2.126906 1_545
O10 Sn4 2.126906 1_455
O11 Sn2 2.098748 1_655
O11 Sn1 2.145449 1_655
O11 Sn5 2.148980 1_555
O12 Sn3 1.964525 1_655
O12 Sn10 2.032228 1_555
O13 Sn9 2.003183 1_555
O13 Sn7 2.146569 1_555
O13 Sn4 2.146569 1_555
O14 Sn9 1.952799 1_545
O14 Sn4 2.014196 1_555
O15 Sn6 2.031632 1_555
O15 Sn10 2.155647 1_555
O15 Sn8 2.155647 1_555
O16 Sn3 1.964525 1_565
O16 Sn8 2.032228 1_555
O17 Sn5 2.106731 1_555
O17 Sn4 2.114768 1_555
O17 Sn7 2.114768 1_555
O18 Sn3 2.031592 1_555
O18 Sn8 2.146030 1_555
O18 Sn10 2.146030 1_555
O19 Sn9 1.952799 1_455
O19 Sn7 2.014196 1_555
O20 Sn13 2.020159 1_665
O20 Sn8 2.146879 1_655
O20 Sn10 2.146879 1_565
O21 Sn6 1.952300 1_555
O21 Sn11 2.010276 1_455
O22 Sn13 1.957162 1_655
O22 Sn8 2.033594 1_655
O23 Sn15 2.106496 1_555
O23 Sn11 2.113274 1_555
O23 Sn12 2.113274 1_555
O24 Sn6 1.952300 1_555
O24 Sn12 2.010276 1_545
O25 Sn9 2.031512 1_555
O25 Sn10 2.146666 1_565
O25 Sn8 2.146666 1_655
O26 Sn6 2.000950 1_555
O26 Sn12 2.145507 1_555
O26 Sn11 2.145507 1_555
O27 Sn13 1.957162 1_565
O27 Sn10 2.033594 1_565
O28 Sn14 2.108864 1_445
O28 Sn11 2.124873 1_455
O28 Sn12 2.124873 1_545
O29 Sn14 2.127628 1_455
O29 Sn12 2.128328 1_555
O29 Sn15 2.135317 1_555
O30 Sn13 2.015271 1_555
O30 Sn12 2.174421 1_545
O30 Sn11 2.174421 1_455
O31 Sn14 2.127628 1_545
O31 Sn11 2.128328 1_555
O31 Sn15 2.135317 1_555
