# generated using pymatgen
data_LiTiS2O
_symmetry_space_group_name_H-M   'P 1'
_cell_length_a   7.81006648
_cell_length_b   7.81006648
_cell_length_c   7.81006648
_cell_angle_alpha   24.92244951
_cell_angle_beta   24.92244951
_cell_angle_gamma   24.92244700
_symmetry_Int_Tables_number   1
_chemical_formula_structural   LiTiS2O
_chemical_formula_sum   'Li1 Ti1 S2 O1'
_cell_volume   74.41410751
_cell_formula_units_Z   1
loop_
 _symmetry_equiv_pos_site_id
 _symmetry_equiv_pos_as_xyz
  1  'x, y, z'
loop_
 _atom_site_type_symbol
 _atom_site_label
 _atom_site_symmetry_multiplicity
 _atom_site_fract_x
 _atom_site_fract_y
 _atom_site_fract_z
 _atom_site_occupancy
  Li  Li0  1  0.66846400  0.66846400  0.66846400  1
  Ti  Ti0  1  0.83402000  0.83402000  0.83402000  1
  S  S0  1  0.43680000  0.43680000  0.43680000  1
  S  S1  1  0.22987000  0.22987000  0.22987000  1
  O  O0  1  0.00085000  0.00085000  0.00085000  1
loop_
_geom_bond_atom_site_label_1
_geom_bond_atom_site_label_2
_geom_bond_distance
_geom_bond_site_symmetry_2
Li0 O0 1.946074 1_656
Li0 O0 1.946074 1_566
Li0 O0 1.946075 1_665
S0 Ti0 2.426579 1_455
S0 Ti0 2.426579 1_545
S0 Ti0 2.426579 1_554
S1 Ti0 2.408136 1_454
S1 Ti0 2.408136 1_544
S1 Ti0 2.408136 1_445
