# generated using pymatgen
data_Nd4CdPd
_symmetry_space_group_name_H-M   'P 1'
_cell_length_a   9.99214340
_cell_length_b   9.99196370
_cell_length_c   9.99224898
_cell_angle_alpha   59.99925290
_cell_angle_beta   59.99974121
_cell_angle_gamma   59.99841519
_symmetry_Int_Tables_number   1
_chemical_formula_structural   Nd4CdPd
_chemical_formula_sum   'Nd16 Cd4 Pd4'
_cell_volume   705.42240838
_cell_formula_units_Z   4
loop_
 _symmetry_equiv_pos_site_id
 _symmetry_equiv_pos_as_xyz
  1  'x, y, z'
loop_
 _atom_site_type_symbol
 _atom_site_label
 _atom_site_symmetry_multiplicity
 _atom_site_fract_x
 _atom_site_fract_y
 _atom_site_fract_z
 _atom_site_occupancy
  Nd  Nd0  1  0.35161702  0.35159646  0.35167299  1
  Nd  Nd1  1  0.35163215  0.35161303  0.94510153  1
  Nd  Nd2  1  0.35160197  0.94512341  0.35165195  1
  Nd  Nd3  1  0.94511782  0.35159163  0.35166132  1
  Nd  Nd4  1  0.80749063  0.19249308  0.19254782  1
  Nd  Nd5  1  0.19251355  0.80753336  0.80742463  1
  Nd  Nd6  1  0.19250238  0.80751021  0.19253857  1
  Nd  Nd7  1  0.80751149  0.19250881  0.80743984  1
  Nd  Nd8  1  0.19253046  0.19251693  0.80745286  1
  Nd  Nd9  1  0.80746160  0.80749028  0.19253430  1
  Nd  Nd10  1  0.93546244  0.56454312  0.56454023  1
  Nd  Nd11  1  0.56454555  0.93546791  0.93543933  1
  Nd  Nd12  1  0.56453815  0.93547024  0.56453481  1
  Nd  Nd13  1  0.93545929  0.56455101  0.93543693  1
  Nd  Nd14  1  0.56455582  0.56455495  0.93543814  1
  Nd  Nd15  1  0.93546359  0.93547011  0.56453034  1
  Cd  Cd0  1  0.57985831  0.57988686  0.57979263  1
  Cd  Cd1  1  0.57983149  0.57984980  0.26051507  1
  Cd  Cd2  1  0.57991130  0.26039569  0.57983409  1
  Cd  Cd3  1  0.26042418  0.57991642  0.57981105  1
  Pd  Pd0  1  0.14385270  0.14383446  0.14390393  1
  Pd  Pd1  1  0.14386642  0.14384792  0.56840271  1
  Pd  Pd2  1  0.14384226  0.56840587  0.14389414  1
  Pd  Pd3  1  0.56840545  0.14382944  0.14390080  1
loop_
_geom_bond_atom_site_label_1
_geom_bond_atom_site_label_2
_geom_bond_distance
_geom_bond_site_symmetry_2
Nd0 Pd1 2.937072 1_555
Nd0 Pd3 2.937343 1_555
Nd0 Pd2 2.937452 1_555
Nd0 Nd12 3.629521 1_545
Nd0 Nd10 3.629832 1_455
Nd0 Nd14 3.630600 1_554
Nd1 Pd0 2.937486 1_556
Nd1 Pd3 2.937574 1_556
Nd1 Pd2 2.937662 1_556
Nd1 Nd11 3.629696 1_545
Nd1 Nd13 3.630007 1_455
Nd1 Nd14 3.630310 1_555
Nd2 Pd1 2.936896 1_565
Nd2 Pd0 2.937063 1_565
Nd2 Pd3 2.937168 1_565
Nd3 Pd1 2.936997 1_655
Nd3 Pd0 2.937173 1_655
Nd3 Pd2 2.937369 1_655
Nd4 Pd0 2.955895 1_655
Nd4 Pd3 2.956220 1_555
Nd5 Pd1 2.955405 1_565
Nd5 Pd2 2.956811 1_556
Nd6 Pd0 2.955520 1_565
Nd6 Pd2 2.956333 1_555
Nd7 Pd1 2.955779 1_655
Nd7 Pd3 2.956717 1_556
Nd8 Pd1 2.956042 1_555
Nd8 Pd0 2.956619 1_556
Nd9 Pd3 2.955639 1_565
Nd9 Pd2 2.956033 1_655
Nd10 Pd2 3.629064 1_655
Nd10 Pd1 3.629337 1_655
Nd10 Nd3 3.630054 1_555
Nd10 Nd14 3.706114 1_555
Nd10 Nd13 3.706116 1_555
Nd10 Nd12 3.706221 1_555
Nd10 Nd15 3.706245 1_555
Nd10 Nd8 3.737734 1_655
Nd10 Nd7 3.737821 1_555
Nd10 Nd6 3.737865 1_655
Nd10 Nd9 3.737879 1_555
Nd11 Pd3 3.629362 1_566
Nd11 Pd0 3.629384 1_566
Nd11 Nd2 3.630409 1_556
Nd11 Nd14 3.706103 1_555
Nd11 Nd13 3.706117 1_555
Nd11 Nd12 3.706196 1_555
Nd11 Nd15 3.706226 1_555
Nd11 Nd8 3.737829 1_565
Nd11 Nd7 3.737872 1_565
Nd11 Nd6 3.737986 1_556
Nd11 Nd9 3.738011 1_556
Nd12 Pd3 3.628929 1_565
Nd12 Pd1 3.629184 1_565
Nd12 Nd2 3.629993 1_555
Nd12 Nd14 3.706123 1_555
Nd12 Nd15 3.706317 1_555
Nd12 Nd8 3.737619 1_565
Nd12 Nd4 3.737653 1_565
Nd12 Nd5 3.737725 1_555
Nd12 Nd9 3.737745 1_555
Nd13 Pd2 3.629505 1_656
Nd13 Pd0 3.629545 1_656
Nd13 Nd3 3.630502 1_556
Nd13 Nd14 3.706095 1_555
Nd13 Nd15 3.706159 1_555
Nd13 Nd8 3.737939 1_655
Nd13 Nd5 3.738081 1_655
Nd13 Nd4 3.738108 1_556
Nd13 Nd9 3.738132 1_556
Nd14 Pd2 3.629642 1_556
Nd14 Pd3 3.629665 1_556
Nd14 Nd7 3.738114 1_555
Nd14 Nd4 3.738178 1_556
Nd14 Nd5 3.738197 1_555
Nd14 Nd6 3.738235 1_556
Nd15 Pd0 3.628843 1_665
Nd15 Pd1 3.629064 1_665
Nd15 Nd3 3.629499 1_565
Nd15 Nd2 3.629724 1_655
Nd15 Nd4 3.737536 1_565
Nd15 Nd7 3.737538 1_565
Nd15 Nd6 3.737568 1_655
Nd15 Nd5 3.737585 1_655
Cd0 Cd1 3.190620 1_555
Cd0 Cd3 3.191592 1_555
Cd0 Cd2 3.191872 1_555
Cd0 Nd12 3.407057 1_555
Cd0 Nd10 3.407248 1_555
Cd0 Nd14 3.407527 1_555
Cd0 Nd2 3.503270 1_555
Cd0 Nd3 3.503529 1_555
Cd0 Nd1 3.504109 1_555
Cd0 Nd9 3.590173 1_555
Cd0 Nd5 3.590794 1_555
Cd0 Nd7 3.590989 1_555
Cd1 Cd3 3.191012 1_555
Cd1 Cd2 3.191309 1_555
Cd1 Nd11 3.407574 1_554
Cd1 Nd13 3.407699 1_554
Cd1 Nd14 3.407835 1_554
Cd1 Nd2 3.503468 1_555
Cd1 Nd3 3.503663 1_555
Cd1 Nd0 3.503959 1_555
Cd1 Nd9 3.590566 1_555
Cd1 Nd6 3.590837 1_555
Cd1 Nd4 3.590984 1_555
Cd2 Cd3 3.192424 1_555
Cd2 Nd15 3.406489 1_545
Cd2 Nd12 3.406791 1_545
Cd2 Nd11 3.406852 1_545
Cd2 Nd3 3.503269 1_555
Cd2 Nd0 3.503710 1_555
Cd2 Nd1 3.503895 1_555
Cd2 Nd4 3.590243 1_555
Cd2 Nd7 3.590457 1_555
Cd2 Nd8 3.590934 1_555
Cd3 Nd15 3.406645 1_455
Cd3 Nd10 3.407055 1_455
Cd3 Nd13 3.407183 1_455
Cd3 Nd2 3.503129 1_555
Cd3 Nd0 3.503738 1_555
Cd3 Nd1 3.504030 1_555
Cd3 Nd6 3.590186 1_555
Cd3 Nd5 3.590535 1_555
Cd3 Nd8 3.591085 1_555
