# generated using pymatgen
data_Cs3PrF6
_symmetry_space_group_name_H-M   'P 1'
_cell_length_a   7.18844110
_cell_length_b   7.18844110
_cell_length_c   7.18844110
_cell_angle_alpha   60.00000000
_cell_angle_beta   60.00000000
_cell_angle_gamma   60.00000000
_symmetry_Int_Tables_number   1
_chemical_formula_structural   Cs3PrF6
_chemical_formula_sum   'Cs3 Pr1 F6'
_cell_volume   262.65710823
_cell_formula_units_Z   1
loop_
 _symmetry_equiv_pos_site_id
 _symmetry_equiv_pos_as_xyz
  1  'x, y, z'
loop_
 _atom_site_type_symbol
 _atom_site_label
 _atom_site_symmetry_multiplicity
 _atom_site_fract_x
 _atom_site_fract_y
 _atom_site_fract_z
 _atom_site_occupancy
  Cs  Cs0  1  0.25000000  0.25000000  0.25000000  1
  Cs  Cs1  1  0.75000000  0.75000000  0.75000000  1
  Cs  Cs2  1  0.50000000  0.50000000  0.50000000  1
  Pr  Pr0  1  -0.00000000  0.00000000  -0.00000000  1
  F  F0  1  0.77490840  0.22509160  0.22509160  1
  F  F1  1  0.22509160  0.77490840  0.77490840  1
  F  F2  1  0.22509160  0.77490840  0.22509160  1
  F  F3  1  0.77490840  0.22509160  0.77490840  1
  F  F4  1  0.22509160  0.22509160  0.77490840  1
  F  F5  1  0.77490840  0.77490840  0.22509160  1
loop_
_geom_bond_atom_site_label_1
_geom_bond_atom_site_label_2
_geom_bond_distance
_geom_bond_site_symmetry_2
Cs0 F2 3.603129 1_555
Cs0 F0 3.603129 1_555
Cs0 F4 3.603129 1_555
Cs0 F1 3.603129 1_545
Cs0 F5 3.603129 1_455
Cs0 F5 3.603129 1_545
Cs0 F3 3.603129 1_554
Cs0 F3 3.603129 1_455
Cs0 F1 3.603129 1_554
Cs0 F2 3.603129 1_545
Cs0 F4 3.603129 1_554
Cs0 F0 3.603129 1_455
Cs1 F1 3.603129 1_655
Cs1 F5 3.603129 1_556
Cs1 F3 3.603129 1_565
Cs1 F2 3.603129 1_556
Cs1 F0 3.603129 1_556
Cs1 F2 3.603129 1_655
Cs1 F0 3.603129 1_565
Cs1 F4 3.603129 1_565
Cs1 F4 3.603129 1_655
Cs1 F5 3.603129 1_555
Cs1 F3 3.603129 1_555
Cs1 F1 3.603129 1_555
Cs2 F5 2.794716 1_555
Cs2 F3 2.794716 1_555
Cs2 F1 2.794716 1_555
Cs2 F4 2.794716 1_555
Cs2 F2 2.794716 1_555
Cs2 F0 2.794716 1_555
F0 Pr0 2.288279 1_655
F1 Pr0 2.288279 1_566
F2 Pr0 2.288279 1_565
F3 Pr0 2.288279 1_656
F4 Pr0 2.288279 1_556
F5 Pr0 2.288279 1_665
