# generated using pymatgen
data_Rb5GeP3
_symmetry_space_group_name_H-M   'P 1'
_cell_length_a   5.45357780
_cell_length_b   14.94516689
_cell_length_c   15.21204384
_cell_angle_alpha   90.00000000
_cell_angle_beta   90.00000000
_cell_angle_gamma   90.00000000
_symmetry_Int_Tables_number   1
_chemical_formula_structural   Rb5GeP3
_chemical_formula_sum   'Rb20 Ge4 P12'
_cell_volume   1239.85201033
_cell_formula_units_Z   4
loop_
 _symmetry_equiv_pos_site_id
 _symmetry_equiv_pos_as_xyz
  1  'x, y, z'
loop_
 _atom_site_type_symbol
 _atom_site_label
 _atom_site_symmetry_multiplicity
 _atom_site_fract_x
 _atom_site_fract_y
 _atom_site_fract_z
 _atom_site_occupancy
  Rb  Rb0  1  0.25000000  0.37185213  0.02702738  1
  Rb  Rb1  1  0.75000000  0.62814787  0.97297262  1
  Rb  Rb2  1  0.25000000  0.12814787  0.52702738  1
  Rb  Rb3  1  0.75000000  0.87185213  0.47297262  1
  Rb  Rb4  1  0.75000000  0.72861631  0.22742979  1
  Rb  Rb5  1  0.25000000  0.27138369  0.77257021  1
  Rb  Rb6  1  0.75000000  0.77138369  0.72742979  1
  Rb  Rb7  1  0.25000000  0.22861631  0.27257021  1
  Rb  Rb8  1  0.75000000  0.05492971  0.68612299  1
  Rb  Rb9  1  0.25000000  0.94507029  0.31387701  1
  Rb  Rb10  1  0.75000000  0.44507029  0.18612299  1
  Rb  Rb11  1  0.25000000  0.55492971  0.81387701  1
  Rb  Rb12  1  0.75000000  0.17939419  0.91012569  1
  Rb  Rb13  1  0.25000000  0.82060581  0.08987431  1
  Rb  Rb14  1  0.75000000  0.32060581  0.41012569  1
  Rb  Rb15  1  0.25000000  0.67939419  0.58987431  1
  Rb  Rb16  1  0.75000000  0.92703328  0.93169800  1
  Rb  Rb17  1  0.25000000  0.07296672  0.06830200  1
  Rb  Rb18  1  0.75000000  0.57296672  0.43169800  1
  Rb  Rb19  1  0.25000000  0.42703328  0.56830200  1
  Ge  Ge0  1  0.75000000  0.08410944  0.22403998  1
  Ge  Ge1  1  0.25000000  0.91589056  0.77596002  1
  Ge  Ge2  1  0.75000000  0.41589056  0.72403998  1
  Ge  Ge3  1  0.25000000  0.58410944  0.27596002  1
  P  P0  1  0.75000000  0.20909340  0.13803886  1
  P  P1  1  0.25000000  0.79090660  0.86196114  1
  P  P2  1  0.75000000  0.29090660  0.63803886  1
  P  P3  1  0.25000000  0.70909340  0.36196114  1
  P  P4  1  0.75000000  0.94737471  0.16047336  1
  P  P5  1  0.25000000  0.05262529  0.83952664  1
  P  P6  1  0.75000000  0.55262529  0.66047336  1
  P  P7  1  0.25000000  0.44737471  0.33952664  1
  P  P8  1  0.75000000  0.09304934  0.37337514  1
  P  P9  1  0.25000000  0.90695066  0.62662486  1
  P  P10  1  0.75000000  0.40695066  0.87337514  1
  P  P11  1  0.25000000  0.59304934  0.12662486  1
loop_
_geom_bond_atom_site_label_1
_geom_bond_atom_site_label_2
_geom_bond_distance
_geom_bond_site_symmetry_2
Ge0 P4 2.260760 1_545
Ge0 P8 2.275619 1_555
Ge0 P0 2.280482 1_555
Ge0 Rb7 3.555924 1_555
Ge0 Rb7 3.555924 1_655
Ge0 Rb17 3.616035 1_555
Ge0 Rb17 3.616035 1_655
Ge1 P5 2.260760 1_565
Ge1 P9 2.275619 1_555
Ge1 P1 2.280482 1_555
Ge1 Rb6 3.555924 1_555
Ge1 Rb6 3.555924 1_455
Ge1 Rb16 3.616035 1_455
Ge1 Rb16 3.616035 1_555
Ge2 P6 2.260760 1_555
Ge2 P10 2.275619 1_555
Ge2 P2 2.280482 1_555
Ge2 Rb5 3.555924 1_655
Ge2 Rb5 3.555924 1_555
Ge2 Rb19 3.616035 1_555
Ge2 Rb19 3.616035 1_655
Ge3 P7 2.260760 1_555
Ge3 P11 2.275619 1_555
Ge3 P3 2.280482 1_555
Ge3 Rb4 3.555924 1_455
Ge3 Rb4 3.555924 1_555
Ge3 Rb18 3.616035 1_455
Ge3 Rb18 3.616035 1_555
P0 Rb7 3.421792 1_655
P0 Rb7 3.421792 1_555
P0 Rb12 3.495322 1_554
P0 Rb17 3.563662 1_655
P0 Rb17 3.563662 1_555
P0 Rb10 3.601769 1_555
P1 Rb6 3.421792 1_555
P1 Rb6 3.421792 1_455
P1 Rb13 3.495322 1_556
P1 Rb16 3.563662 1_455
P1 Rb16 3.563662 1_555
P1 Rb11 3.601769 1_555
P2 Rb5 3.421792 1_555
P2 Rb5 3.421792 1_655
P2 Rb14 3.495322 1_555
P2 Rb19 3.563662 1_555
P2 Rb19 3.563662 1_655
P2 Rb8 3.601769 1_555
P3 Rb4 3.421792 1_455
P3 Rb4 3.421792 1_555
P3 Rb15 3.495322 1_555
P3 Rb18 3.563662 1_455
P3 Rb18 3.563662 1_555
P3 Rb9 3.601769 1_555
P4 Rb4 3.424366 1_555
P4 Rb13 3.489728 1_555
P4 Rb13 3.489728 1_655
P4 Rb16 3.493394 1_554
P4 Rb9 3.589175 1_655
P4 Rb9 3.589175 1_555
P4 Rb17 3.595053 1_565
P4 Rb17 3.595053 1_665
P5 Rb5 3.424366 1_555
P5 Rb12 3.489728 1_455
P5 Rb12 3.489728 1_555
P5 Rb17 3.493394 1_556
P5 Rb8 3.589175 1_555
P5 Rb8 3.589175 1_455
P5 Rb16 3.595053 1_545
P5 Rb16 3.595053 1_445
P6 Rb6 3.424366 1_555
P6 Rb15 3.489728 1_655
P6 Rb15 3.489728 1_555
P6 Rb18 3.493394 1_555
P6 Rb11 3.589175 1_555
P6 Rb11 3.589175 1_655
P6 Rb19 3.595053 1_555
P6 Rb19 3.595053 1_655
P7 Rb7 3.424366 1_555
P7 Rb14 3.489728 1_555
P7 Rb14 3.489728 1_455
P7 Rb19 3.493394 1_555
P7 Rb10 3.589175 1_555
P7 Rb10 3.589175 1_455
P7 Rb18 3.595053 1_555
P7 Rb18 3.595053 1_455
P8 Rb14 3.446513 1_555
P8 Rb9 3.625688 1_645
P8 Rb9 3.625688 1_545
P8 Rb2 3.629574 1_555
P8 Rb2 3.629574 1_655
P8 Rb3 3.636479 1_545
P8 Rb7 3.727171 1_655
P8 Rb7 3.727171 1_555
P9 Rb15 3.446513 1_555
P9 Rb8 3.625688 1_565
P9 Rb8 3.625688 1_465
P9 Rb3 3.629574 1_455
P9 Rb3 3.629574 1_555
P9 Rb2 3.636479 1_565
P9 Rb6 3.727171 1_555
P9 Rb6 3.727171 1_455
P10 Rb12 3.446513 1_555
P10 Rb11 3.625688 1_655
P10 Rb11 3.625688 1_555
P10 Rb0 3.629574 1_656
P10 Rb0 3.629574 1_556
P10 Rb1 3.636479 1_555
P10 Rb5 3.727171 1_555
P10 Rb5 3.727171 1_655
P11 Rb13 3.446513 1_555
P11 Rb10 3.625688 1_555
P11 Rb10 3.625688 1_455
P11 Rb1 3.629574 1_454
P11 Rb1 3.629574 1_554
P11 Rb0 3.636479 1_555
P11 Rb4 3.727171 1_455
P11 Rb4 3.727171 1_555
