# generated using pymatgen
data_HfMg6BO7
_symmetry_space_group_name_H-M   'P 1'
_cell_length_a   8.82057077
_cell_length_b   4.32230268
_cell_length_c   4.32230268
_cell_angle_alpha   90.00000000
_cell_angle_beta   90.00000000
_cell_angle_gamma   90.00000000
_symmetry_Int_Tables_number   1
_chemical_formula_structural   HfMg6BO7
_chemical_formula_sum   'Hf1 Mg6 B1 O7'
_cell_volume   164.78855333
_cell_formula_units_Z   1
loop_
 _symmetry_equiv_pos_site_id
 _symmetry_equiv_pos_as_xyz
  1  'x, y, z'
loop_
 _atom_site_type_symbol
 _atom_site_label
 _atom_site_symmetry_multiplicity
 _atom_site_fract_x
 _atom_site_fract_y
 _atom_site_fract_z
 _atom_site_occupancy
  Hf  Hf0  1  -0.01237445  0.50000000  0.50000000  1
  Mg  Mg0  1  0.49129089  -0.00000000  0.00000000  1
  Mg  Mg1  1  0.48884415  0.50000000  0.50000000  1
  Mg  Mg2  1  0.24516681  -0.00000000  0.50000000  1
  Mg  Mg3  1  0.73669731  0.00000000  0.50000000  1
  Mg  Mg4  1  0.24516681  0.50000000  0.00000000  1
  Mg  Mg5  1  0.73669731  0.50000000  -0.00000000  1
  B  B0  1  0.20695923  0.00000000  -0.00000000  1
  O  O0  1  0.71509277  -0.00000000  0.00000000  1
  O  O1  1  0.22881385  0.50000000  0.50000000  1
  O  O2  1  0.74375389  0.50000000  0.50000000  1
  O  O3  1  0.97601973  -0.00000000  0.50000000  1
  O  O4  1  0.48592597  -0.00000000  0.50000000  1
  O  O5  1  0.97601973  0.50000000  -0.00000000  1
  O  O6  1  0.48592597  0.50000000  -0.00000000  1
loop_
_geom_bond_atom_site_label_1
_geom_bond_atom_site_label_2
_geom_bond_distance
_geom_bond_site_symmetry_2
Hf0 O1 2.127418 1_555
Hf0 O2 2.151087 1_455
Hf0 O5 2.163575 1_456
Hf0 O5 2.163575 1_455
Hf0 O3 2.163575 1_465
Hf0 O3 2.163575 1_455
Mg0 O0 1.974060 1_555
Mg0 O6 2.161669 1_555
Mg0 O4 2.161669 1_555
Mg0 O4 2.161669 1_554
Mg0 O6 2.161669 1_545
Mg1 O4 2.161305 1_565
Mg1 O6 2.161305 1_556
Mg1 O6 2.161305 1_555
Mg1 O4 2.161305 1_555
Mg1 O2 2.248449 1_555
Mg1 O1 2.293616 1_555
Mg2 O4 2.123633 1_555
Mg2 O1 2.165960 1_545
Mg2 O1 2.165960 1_555
Mg2 O3 2.374031 1_455
Mg3 O3 2.110960 1_555
Mg3 O2 2.162047 1_545
Mg3 O2 2.162047 1_555
Mg3 O0 2.169537 1_555
Mg3 O0 2.169537 1_556
Mg3 O4 2.211946 1_555
Mg4 O6 2.123633 1_555
Mg4 O1 2.165960 1_555
Mg4 O1 2.165960 1_554
Mg4 O5 2.374031 1_455
Mg5 O5 2.110960 1_555
Mg5 O2 2.162047 1_554
Mg5 O2 2.162047 1_555
Mg5 O0 2.169537 1_555
Mg5 O0 2.169537 1_565
Mg5 O6 2.211946 1_555
B0 Mg2 2.187271 1_554
B0 Mg4 2.187271 1_545
B0 Mg4 2.187271 1_555
B0 Mg2 2.187271 1_555
B0 Mg0 2.507968 1_555
