# generated using pymatgen
data_CaMnSe2
_symmetry_space_group_name_H-M   'P 1'
_cell_length_a   6.93336795
_cell_length_b   6.93336795
_cell_length_c   6.93336764
_cell_angle_alpha   33.91610112
_cell_angle_beta   33.91610112
_cell_angle_gamma   33.91610860
_symmetry_Int_Tables_number   1
_chemical_formula_structural   CaMnSe2
_chemical_formula_sum   'Ca1 Mn1 Se2'
_cell_volume   92.48427246
_cell_formula_units_Z   1
loop_
 _symmetry_equiv_pos_site_id
 _symmetry_equiv_pos_as_xyz
  1  'x, y, z'
loop_
 _atom_site_type_symbol
 _atom_site_label
 _atom_site_symmetry_multiplicity
 _atom_site_fract_x
 _atom_site_fract_y
 _atom_site_fract_z
 _atom_site_occupancy
  Ca  Ca0  1  0.00000000  0.00000000  0.00000000  1
  Mn  Mn0  1  0.50000000  0.50000000  0.50000000  1
  Se  Se0  1  0.24188900  0.24188900  0.24188900  1
  Se  Se1  1  0.75811100  0.75811100  0.75811100  1
loop_
_geom_bond_atom_site_label_1
_geom_bond_atom_site_label_2
_geom_bond_distance
_geom_bond_site_symmetry_2
Ca0 Se1 2.942818 1_445
Ca0 Se0 2.942818 1_554
Ca0 Se0 2.942818 1_455
Ca0 Se0 2.942818 1_545
Ca0 Se1 2.942818 1_454
Ca0 Se1 2.942818 1_544
Mn0 Se1 2.761002 1_554
Mn0 Se0 2.761002 1_556
Mn0 Se0 2.761003 1_655
Mn0 Se0 2.761003 1_565
Mn0 Se1 2.761003 1_455
Mn0 Se1 2.761003 1_545
