# generated using pymatgen
data_TiNb(BiO3)3
_symmetry_space_group_name_H-M   'P 1'
_cell_length_a   12.95140779
_cell_length_b   12.95140779
_cell_length_c   12.95140779
_cell_angle_alpha   162.83207236
_cell_angle_beta   162.83207236
_cell_angle_gamma   24.37171566
_symmetry_Int_Tables_number   1
_chemical_formula_structural   TiNb(BiO3)3
_chemical_formula_sum   'Ti1 Nb1 Bi3 O9'
_cell_volume   189.23096958
_cell_formula_units_Z   1
loop_
 _symmetry_equiv_pos_site_id
 _symmetry_equiv_pos_as_xyz
  1  'x, y, z'
loop_
 _atom_site_type_symbol
 _atom_site_label
 _atom_site_symmetry_multiplicity
 _atom_site_fract_x
 _atom_site_fract_y
 _atom_site_fract_z
 _atom_site_occupancy
  Ti  Ti0  1  0.40942700  0.40942700  0.00000000  1
  Nb  Nb0  1  0.58908000  0.58908000  0.00000000  1
  Bi  Bi0  1  0.20074400  0.20074400  0.00000000  1
  Bi  Bi1  1  0.80046900  0.80046900  0.00000000  1
  Bi  Bi2  1  0.98678600  0.98678600  0.00000000  1
  O  O0  1  0.33897800  0.33897800  0.00000000  1
  O  O1  1  0.66489500  0.66489500  0.00000000  1
  O  O2  1  0.07901900  0.57901900  0.50000000  1
  O  O3  1  0.42452100  0.92452100  0.50000000  1
  O  O4  1  0.92452100  0.42452100  0.50000000  1
  O  O5  1  0.57901900  0.07901900  0.50000000  1
  O  O6  1  0.50014000  0.50014000  0.00000000  1
  O  O7  1  0.25120500  0.75120500  0.50000000  1
  O  O8  1  0.75120500  0.25120500  0.50000000  1
loop_
_geom_bond_atom_site_label_1
_geom_bond_atom_site_label_2
_geom_bond_distance
_geom_bond_site_symmetry_2
Nb0 O1 1.919573 1_555
Nb0 O5 1.949821 1_554
Nb0 O2 1.949821 1_554
Nb0 O2 1.949821 1_655
Nb0 O5 1.949821 1_565
Nb0 O6 2.251887 1_555
Bi0 O8 2.317164 1_555
Bi0 O7 2.317164 1_544
Bi0 O7 2.317164 1_555
Bi0 O8 2.317164 1_454
Bi1 O7 2.300593 1_655
Bi1 O8 2.300593 1_565
Bi1 O7 2.300593 1_554
Bi1 O8 2.300593 1_554
Bi2 O4 2.494445 1_554
Bi2 O3 2.494445 1_554
Bi2 O3 2.494445 1_655
Bi2 O4 2.494445 1_565
Bi2 O6 2.754658 1_554
Bi2 O6 2.754658 1_565
Bi2 O6 2.754658 1_655
Bi2 O6 2.754658 1_666
O0 Ti0 1.783710 1_555
O3 Ti0 1.970523 1_555
O3 Ti0 1.970523 1_566
O4 Ti0 1.970523 1_555
O4 Ti0 1.970523 1_656
O6 Ti0 2.296778 1_555
