# generated using pymatgen
data_Ce3Sc
_symmetry_space_group_name_H-M   'P 1'
_cell_length_a   22.43041467
_cell_length_b   22.43041467
_cell_length_c   22.43041411
_cell_angle_alpha   17.38282554
_cell_angle_beta   17.38282554
_cell_angle_gamma   17.38282660
_symmetry_Int_Tables_number   1
_chemical_formula_structural   Ce3Sc
_chemical_formula_sum   'Ce24 Sc8'
_cell_volume   879.00252259
_cell_formula_units_Z   8
loop_
 _symmetry_equiv_pos_site_id
 _symmetry_equiv_pos_as_xyz
  1  'x, y, z'
loop_
 _atom_site_type_symbol
 _atom_site_label
 _atom_site_symmetry_multiplicity
 _atom_site_fract_x
 _atom_site_fract_y
 _atom_site_fract_z
 _atom_site_occupancy
  Ce  Ce0_0  1  0.12492050  0.12492050  0.12492050  1
  Ce  Ce0_1  1  0.12492050  0.12492050  0.62492050  1
  Ce  Ce0_2  1  0.12492050  0.62492050  0.12492050  1
  Ce  Ce0_3  1  0.12492050  0.62492050  0.62492050  1
  Ce  Ce0_4  1  0.62492050  0.12492050  0.12492050  1
  Ce  Ce0_5  1  0.62492050  0.12492050  0.62492050  1
  Ce  Ce0_6  1  0.62492050  0.62492050  0.12492050  1
  Ce  Ce0_7  1  0.62492050  0.62492050  0.62492050  1
  Ce  Ce1_0  1  0.25000000  0.25000000  0.25000000  1
  Ce  Ce1_1  1  0.25000000  0.25000000  0.75000000  1
  Ce  Ce1_2  1  0.25000000  0.75000000  0.25000000  1
  Ce  Ce1_3  1  0.25000000  0.75000000  0.75000000  1
  Ce  Ce1_4  1  0.75000000  0.25000000  0.25000000  1
  Ce  Ce1_5  1  0.75000000  0.25000000  0.75000000  1
  Ce  Ce1_6  1  0.75000000  0.75000000  0.25000000  1
  Ce  Ce1_7  1  0.75000000  0.75000000  0.75000000  1
  Ce  Ce2_0  1  0.37507950  0.37507950  0.37507950  1
  Ce  Ce2_1  1  0.37507950  0.37507950  0.87507950  1
  Ce  Ce2_2  1  0.37507950  0.87507950  0.37507950  1
  Ce  Ce2_3  1  0.37507950  0.87507950  0.87507950  1
  Ce  Ce2_4  1  0.87507950  0.37507950  0.37507950  1
  Ce  Ce2_5  1  0.87507950  0.37507950  0.87507950  1
  Ce  Ce2_6  1  0.87507950  0.87507950  0.37507950  1
  Ce  Ce2_7  1  0.87507950  0.87507950  0.87507950  1
  Sc  Sc0_0  1  0.00000000  0.00000000  0.00000000  1
  Sc  Sc0_1  1  0.00000000  0.00000000  0.50000000  1
  Sc  Sc0_2  1  0.00000000  0.50000000  0.00000000  1
  Sc  Sc0_3  1  0.00000000  0.50000000  0.50000000  1
  Sc  Sc0_4  1  0.50000000  0.00000000  0.00000000  1
  Sc  Sc0_5  1  0.50000000  0.00000000  0.50000000  1
  Sc  Sc0_6  1  0.50000000  0.50000000  0.00000000  1
  Sc  Sc0_7  1  0.50000000  0.50000000  0.50000000  1
loop_
_geom_bond_atom_site_label_1
_geom_bond_atom_site_label_2
_geom_bond_distance
_geom_bond_site_symmetry_2
Ce0_0 Ce1_1 3.379720 1_554
Ce0_0 Ce1_4 3.379721 1_455
Ce0_0 Ce1_2 3.379721 1_545
Ce0_0 Sc0_1 3.388315 1_555
Ce0_0 Sc0_2 3.388316 1_555
Ce0_0 Sc0_4 3.388316 1_555
Ce0_0 Ce0_5 3.389520 1_455
Ce0_0 Ce0_3 3.389520 1_545
Ce0_0 Ce0_5 3.389520 1_554
Ce0_0 Ce0_3 3.389520 1_554
Ce0_0 Ce0_6 3.389520 1_455
Ce0_0 Ce0_6 3.389520 1_545
Ce0_1 Ce1_0 3.379720 1_555
Ce0_1 Ce1_5 3.379721 1_455
Ce0_1 Ce1_3 3.379721 1_545
Ce0_1 Sc0_0 3.388315 1_556
Ce0_1 Sc0_5 3.388316 1_555
Ce0_1 Sc0_3 3.388316 1_555
Ce0_1 Ce0_4 3.389520 1_555
Ce0_1 Ce0_2 3.389520 1_555
Ce0_1 Ce0_2 3.389520 1_546
Ce0_1 Ce0_4 3.389520 1_456
Ce0_1 Ce0_7 3.389520 1_455
Ce0_1 Ce0_7 3.389520 1_545
Ce0_2 Ce1_3 3.379720 1_554
Ce0_2 Ce1_6 3.379721 1_455
Ce0_2 Ce1_0 3.379721 1_555
Ce0_2 Sc0_3 3.388315 1_555
Ce0_2 Sc0_6 3.388316 1_555
Ce0_2 Sc0_0 3.388316 1_565
Ce0_2 Ce0_7 3.389520 1_455
Ce0_2 Ce0_7 3.389520 1_554
Ce0_2 Ce0_4 3.389520 1_555
Ce0_2 Ce0_4 3.389520 1_465
Ce0_3 Ce1_2 3.379720 1_555
Ce0_3 Ce1_7 3.379721 1_455
Ce0_3 Ce1_1 3.379721 1_555
Ce0_3 Sc0_2 3.388315 1_556
Ce0_3 Sc0_7 3.388316 1_555
Ce0_3 Sc0_1 3.388316 1_565
Ce0_3 Ce0_6 3.389520 1_456
Ce0_3 Ce0_6 3.389520 1_555
Ce0_3 Ce0_5 3.389520 1_555
Ce0_3 Ce0_5 3.389520 1_465
Ce0_4 Ce1_5 3.379720 1_554
Ce0_4 Ce1_6 3.379721 1_545
Ce0_4 Ce1_0 3.379721 1_555
Ce0_4 Sc0_5 3.388315 1_555
Ce0_4 Sc0_6 3.388316 1_555
Ce0_4 Sc0_0 3.388316 1_655
Ce0_4 Ce0_7 3.389520 1_554
Ce0_4 Ce0_7 3.389520 1_545
Ce0_5 Ce1_4 3.379720 1_555
Ce0_5 Ce1_7 3.379721 1_545
Ce0_5 Ce1_1 3.379721 1_555
Ce0_5 Sc0_4 3.388315 1_556
Ce0_5 Sc0_7 3.388316 1_555
Ce0_5 Sc0_1 3.388316 1_655
Ce0_5 Ce0_6 3.389520 1_546
Ce0_5 Ce0_6 3.389520 1_555
Ce0_6 Ce1_7 3.379720 1_554
Ce0_6 Ce1_2 3.379721 1_555
Ce0_6 Ce1_4 3.379721 1_555
Ce0_6 Sc0_7 3.388315 1_555
Ce0_6 Sc0_4 3.388316 1_565
Ce0_6 Sc0_2 3.388316 1_655
Ce0_7 Ce1_6 3.379720 1_555
Ce0_7 Ce1_5 3.379721 1_555
Ce0_7 Ce1_3 3.379721 1_555
Ce0_7 Sc0_6 3.388315 1_556
Ce0_7 Sc0_3 3.388316 1_655
Ce0_7 Sc0_5 3.388316 1_565
Ce1_0 Ce2_1 3.379720 1_554
Ce1_0 Ce2_4 3.379721 1_455
Ce1_0 Ce2_2 3.379721 1_545
Ce1_0 Ce1_5 3.389520 1_554
Ce1_0 Ce1_3 3.389520 1_554
Ce1_0 Ce1_3 3.389520 1_545
Ce1_0 Ce1_5 3.389520 1_455
Ce1_0 Ce1_6 3.389520 1_545
Ce1_0 Ce1_6 3.389520 1_455
Ce1_1 Ce2_0 3.379720 1_555
Ce1_1 Ce2_3 3.379721 1_545
Ce1_1 Ce2_5 3.379721 1_455
Ce1_1 Ce1_4 3.389520 1_456
Ce1_1 Ce1_2 3.389520 1_546
Ce1_1 Ce1_4 3.389520 1_555
Ce1_1 Ce1_2 3.389520 1_555
Ce1_1 Ce1_7 3.389520 1_455
Ce1_1 Ce1_7 3.389520 1_545
Ce1_2 Ce2_3 3.379720 1_554
Ce1_2 Ce2_6 3.379721 1_455
Ce1_2 Ce2_0 3.379721 1_555
Ce1_2 Ce1_7 3.389520 1_455
Ce1_2 Ce1_7 3.389520 1_554
Ce1_2 Ce1_4 3.389520 1_465
Ce1_2 Ce1_4 3.389520 1_555
Ce1_3 Ce2_2 3.379720 1_555
Ce1_3 Ce2_7 3.379721 1_455
Ce1_3 Ce2_1 3.379721 1_555
Ce1_3 Ce1_6 3.389520 1_456
Ce1_3 Ce1_6 3.389520 1_555
Ce1_3 Ce1_5 3.389520 1_555
Ce1_3 Ce1_5 3.389520 1_465
Ce1_4 Ce2_5 3.379720 1_554
Ce1_4 Ce2_0 3.379721 1_555
Ce1_4 Ce2_6 3.379721 1_545
Ce1_4 Ce1_7 3.389520 1_545
Ce1_4 Ce1_7 3.389520 1_554
Ce1_5 Ce2_4 3.379720 1_555
Ce1_5 Ce2_7 3.379721 1_545
Ce1_5 Ce2_1 3.379721 1_555
Ce1_5 Ce1_6 3.389520 1_546
Ce1_5 Ce1_6 3.389520 1_555
Ce1_6 Ce2_7 3.379720 1_554
Ce1_6 Ce2_2 3.379721 1_555
Ce1_6 Ce2_4 3.379721 1_555
Ce1_7 Ce2_6 3.379720 1_555
Ce1_7 Ce2_3 3.379721 1_555
Ce1_7 Ce2_5 3.379721 1_555
Ce2_0 Sc0_6 3.388315 1_555
Ce2_0 Sc0_5 3.388316 1_555
Ce2_0 Sc0_3 3.388316 1_555
Ce2_0 Ce2_5 3.389520 1_554
Ce2_0 Ce2_3 3.389520 1_554
Ce2_0 Ce2_5 3.389520 1_455
Ce2_0 Ce2_3 3.389520 1_545
Ce2_0 Ce2_6 3.389520 1_455
Ce2_0 Ce2_6 3.389520 1_545
Ce2_1 Sc0_7 3.388315 1_555
Ce2_1 Sc0_2 3.388316 1_556
Ce2_1 Sc0_4 3.388316 1_556
Ce2_1 Ce2_4 3.389520 1_555
Ce2_1 Ce2_2 3.389520 1_555
Ce2_1 Ce2_4 3.389520 1_456
Ce2_1 Ce2_2 3.389520 1_546
Ce2_1 Ce2_7 3.389520 1_545
Ce2_1 Ce2_7 3.389520 1_455
Ce2_2 Sc0_4 3.388315 1_565
Ce2_2 Sc0_7 3.388316 1_555
Ce2_2 Sc0_1 3.388316 1_565
Ce2_2 Ce2_7 3.389520 1_455
Ce2_2 Ce2_7 3.389520 1_554
Ce2_2 Ce2_4 3.389520 1_555
Ce2_2 Ce2_4 3.389520 1_465
Ce2_3 Sc0_5 3.388315 1_565
Ce2_3 Sc0_6 3.388316 1_556
Ce2_3 Sc0_0 3.388316 1_566
Ce2_3 Ce2_6 3.389520 1_456
Ce2_3 Ce2_6 3.389520 1_555
Ce2_3 Ce2_5 3.389520 1_555
Ce2_3 Ce2_5 3.389520 1_465
Ce2_4 Sc0_2 3.388315 1_655
Ce2_4 Sc0_1 3.388316 1_655
Ce2_4 Sc0_7 3.388316 1_555
Ce2_4 Ce2_7 3.389520 1_545
Ce2_4 Ce2_7 3.389520 1_554
Ce2_5 Sc0_3 3.388315 1_655
Ce2_5 Sc0_0 3.388316 1_656
Ce2_5 Sc0_6 3.388316 1_556
Ce2_5 Ce2_6 3.389520 1_546
Ce2_5 Ce2_6 3.389520 1_555
Ce2_6 Sc0_0 3.388315 1_665
Ce2_6 Sc0_3 3.388316 1_655
Ce2_6 Sc0_5 3.388316 1_565
Ce2_7 Sc0_1 3.388315 1_665
Ce2_7 Sc0_2 3.388316 1_656
Ce2_7 Sc0_4 3.388316 1_566
Sc0_0 Sc0_3 3.389520 1_545
Sc0_0 Sc0_5 3.389520 1_455
Sc0_0 Sc0_5 3.389520 1_554
Sc0_0 Sc0_3 3.389520 1_554
Sc0_0 Sc0_6 3.389520 1_545
Sc0_0 Sc0_6 3.389520 1_455
Sc0_1 Sc0_4 3.389520 1_456
Sc0_1 Sc0_2 3.389520 1_546
Sc0_1 Sc0_4 3.389520 1_555
Sc0_1 Sc0_2 3.389520 1_555
Sc0_1 Sc0_7 3.389520 1_455
Sc0_1 Sc0_7 3.389520 1_545
Sc0_2 Sc0_7 3.389520 1_455
Sc0_2 Sc0_7 3.389520 1_554
Sc0_2 Sc0_4 3.389520 1_555
Sc0_2 Sc0_4 3.389520 1_465
Sc0_3 Sc0_6 3.389520 1_555
Sc0_3 Sc0_6 3.389520 1_456
Sc0_3 Sc0_5 3.389520 1_465
Sc0_3 Sc0_5 3.389520 1_555
Sc0_4 Sc0_7 3.389520 1_554
Sc0_4 Sc0_7 3.389520 1_545
Sc0_5 Sc0_6 3.389520 1_546
Sc0_5 Sc0_6 3.389520 1_555
