# generated using pymatgen
data_Mg14MnNb
_symmetry_space_group_name_H-M   'P 1'
_cell_length_a   6.33452880
_cell_length_b   6.22541454
_cell_length_c   10.02651297
_cell_angle_alpha   90.00000000
_cell_angle_beta   90.00000000
_cell_angle_gamma   119.43181362
_symmetry_Int_Tables_number   1
_chemical_formula_structural   Mg14MnNb
_chemical_formula_sum   'Mg14 Mn1 Nb1'
_cell_volume   344.36681768
_cell_formula_units_Z   1
loop_
 _symmetry_equiv_pos_site_id
 _symmetry_equiv_pos_as_xyz
  1  'x, y, z'
loop_
 _atom_site_type_symbol
 _atom_site_label
 _atom_site_symmetry_multiplicity
 _atom_site_fract_x
 _atom_site_fract_y
 _atom_site_fract_z
 _atom_site_occupancy
  Mg  Mg0  1  0.16718556  0.33359228  0.62500000  1
  Mg  Mg1  1  0.16699651  0.83349776  0.62500000  1
  Mg  Mg2  1  0.66356882  0.33418983  0.12500000  1
  Mg  Mg3  1  0.66559205  0.33277995  0.62500000  1
  Mg  Mg4  1  0.66356882  0.82937799  0.12500000  1
  Mg  Mg5  1  0.66559205  0.83281109  0.62500000  1
  Mg  Mg6  1  0.32839751  0.16247191  0.36579234  1
  Mg  Mg7  1  0.32839751  0.16247191  0.88420766  1
  Mg  Mg8  1  0.32839751  0.66592660  0.36579234  1
  Mg  Mg9  1  0.32839751  0.66592660  0.88420766  1
  Mg  Mg10  1  0.84135764  0.17067932  0.36888374  1
  Mg  Mg11  1  0.84135764  0.17067932  0.88111626  1
  Mg  Mg12  1  0.84173657  0.67086878  0.37121278  1
  Mg  Mg13  1  0.84173657  0.67086878  0.87878722  1
  Mn  Mn0  1  0.16984833  0.33492367  0.12500000  1
  Nb  Nb0  1  0.15786944  0.82893422  0.12500000  1
loop_
_geom_bond_atom_site_label_1
_geom_bond_atom_site_label_2
_geom_bond_distance
_geom_bond_site_symmetry_2
Mg0 Mg1 3.112707 1_545
Mg0 Mg1 3.112707 1_555
Mg0 Mg10 3.134601 1_455
Mg0 Mg11 3.134601 1_455
Mg0 Mg5 3.159658 1_555
Mg0 Mg3 3.159658 1_555
Mg0 Mg6 3.162497 1_555
Mg0 Mg7 3.162497 1_555
Mg0 Mg8 3.162503 1_555
Mg0 Mg9 3.162503 1_555
Mg0 Mg5 3.174876 1_445
Mg0 Mg3 3.174877 1_455
Mg1 Mg13 3.113692 1_455
Mg1 Mg12 3.113692 1_455
Mg1 Mg8 3.152189 1_555
Mg1 Mg9 3.152189 1_555
Mg1 Mg6 3.152195 1_565
Mg1 Mg7 3.152195 1_565
Mg1 Mg3 3.160470 1_565
Mg1 Mg5 3.160471 1_555
Mg1 Mg3 3.174062 1_455
Mg1 Mg5 3.174063 1_455
Mg2 Mg7 3.041194 1_554
Mg2 Mg6 3.041194 1_555
Mg2 Mg4 3.082752 1_555
Mg2 Mn0 3.129734 1_555
Mg2 Nb0 3.132520 1_655
Mg2 Mg4 3.142663 1_545
Mg2 Nb0 3.202010 1_545
Mg2 Mn0 3.204800 1_655
Mg3 Mg5 3.112513 1_545
Mg3 Mg5 3.112901 1_555
Mg3 Mg6 3.196150 1_555
Mg3 Mg7 3.196150 1_555
Mg4 Mg9 3.041195 1_554
Mg4 Mg8 3.041195 1_555
Mg4 Mn0 3.129734 1_555
Mg4 Nb0 3.132520 1_655
Mg4 Nb0 3.202011 1_555
Mg4 Mn0 3.204800 1_665
Mg5 Mg9 3.196150 1_555
Mg5 Mg8 3.196150 1_555
Mg6 Mn0 3.008291 1_555
Mg6 Nb0 3.017100 1_545
Mg6 Mg8 3.091200 1_545
Mg6 Mg8 3.134214 1_555
Mg7 Mn0 3.008291 1_556
Mg7 Nb0 3.017100 1_546
Mg7 Mg9 3.091200 1_545
Mg7 Mg9 3.134214 1_555
Mg8 Mn0 3.008297 1_555
Mg8 Nb0 3.017094 1_555
Mg9 Mn0 3.008297 1_556
Mg9 Nb0 3.017094 1_556
Mg10 Mn0 3.043662 1_655
Mg10 Mg2 3.067680 1_555
Mg10 Mg4 3.067686 1_545
Mg10 Mg8 3.110748 1_655
Mg10 Mg6 3.110748 1_655
Mg10 Mg12 3.112796 1_555
Mg10 Mg12 3.112796 1_545
Mg10 Mg3 3.155410 1_555
Mg10 Mg5 3.155416 1_545
Mg10 Mg8 3.224709 1_545
Mg10 Mg6 3.224710 1_555
Mg11 Mn0 3.043662 1_656
Mg11 Mg2 3.067680 1_556
Mg11 Mg4 3.067686 1_546
Mg11 Mg9 3.110748 1_655
Mg11 Mg7 3.110748 1_655
Mg11 Mg13 3.112796 1_555
Mg11 Mg13 3.112796 1_545
Mg11 Mg3 3.155410 1_555
Mg11 Mg5 3.155416 1_545
Mg11 Mg9 3.224709 1_545
Mg11 Mg7 3.224710 1_555
Mg12 Nb0 3.022609 1_655
Mg12 Mg4 3.071852 1_555
Mg12 Mg2 3.071858 1_555
Mg12 Mg6 3.098479 1_665
Mg12 Mg8 3.098479 1_655
Mg12 Mg5 3.137178 1_555
Mg12 Mg3 3.137184 1_555
Mg12 Mg6 3.237209 1_555
Mg12 Mg8 3.237210 1_555
Mg13 Nb0 3.022609 1_656
Mg13 Mg4 3.071852 1_556
Mg13 Mg2 3.071858 1_556
Mg13 Mg7 3.098479 1_665
Mg13 Mg9 3.098479 1_655
Mg13 Mg5 3.137178 1_555
Mg13 Mg3 3.137184 1_555
Mg13 Mg7 3.237209 1_555
Mg13 Mg9 3.237210 1_555
Mn0 Nb0 3.113409 1_555
Mn0 Nb0 3.113409 1_545
