# generated using pymatgen
data_GdBO3
_symmetry_space_group_name_H-M   'P 1'
_cell_length_a   6.63034099
_cell_length_b   6.63034203
_cell_length_c   9.68188307
_cell_angle_alpha   70.33476037
_cell_angle_beta   70.33475606
_cell_angle_gamma   60.09216631
_symmetry_Int_Tables_number   1
_chemical_formula_structural   GdBO3
_chemical_formula_sum   'Gd6 B6 O18'
_cell_volume   339.92516006
_cell_formula_units_Z   6
loop_
 _symmetry_equiv_pos_site_id
 _symmetry_equiv_pos_as_xyz
  1  'x, y, z'
loop_
 _atom_site_type_symbol
 _atom_site_label
 _atom_site_symmetry_multiplicity
 _atom_site_fract_x
 _atom_site_fract_y
 _atom_site_fract_z
 _atom_site_occupancy
  Gd  Gd0  1  0.00000031  0.50000006  0.50000019  1
  Gd  Gd1  1  0.50000070  -0.00000012  0.00000019  1
  Gd  Gd2  1  0.82890885  0.34271936  0.00073871  1
  Gd  Gd3  1  0.65728752  0.17108919  0.49926185  1
  Gd  Gd4  1  0.17109428  0.65727937  0.99926185  1
  Gd  Gd5  1  0.34271237  0.82891085  0.50073907  1
  B  B0  1  0.08250375  0.15483481  0.25308593  1
  B  B1  1  0.84514895  0.91748343  0.24695605  1
  B  B2  1  0.91749588  0.84516533  0.74691471  1
  B  B3  1  0.15485093  0.08251725  0.75304354  1
  B  B4  1  0.32125627  0.67872780  0.25002228  1
  B  B5  1  0.67874348  0.32127200  0.74997782  1
  O  O0  1  0.03497809  0.21654782  0.39445037  1
  O  O1  1  0.78344671  0.96502674  0.10554019  1
  O  O2  1  0.96502071  0.78345201  0.60555047  1
  O  O3  1  0.21655507  0.03497337  0.89445901  1
  O  O4  1  0.12986242  0.31155921  0.11305085  1
  O  O5  1  0.68845276  0.87014561  0.38693479  1
  O  O6  1  0.87013839  0.68844066  0.88694979  1
  O  O7  1  0.31154662  0.12985494  0.61306410  1
  O  O8  1  0.47886345  0.61622896  0.11007147  1
  O  O9  1  0.38376267  0.52114976  0.38991495  1
  O  O10  1  0.52113672  0.38377047  0.88992906  1
  O  O11  1  0.61623479  0.47885156  0.61008688  1
  O  O12  1  0.08354835  0.70385080  0.24795378  1
  O  O13  1  0.29614986  0.91644971  0.25204207  1
  O  O14  1  0.91645168  0.29614944  0.75204598  1
  O  O15  1  0.70384975  0.08355042  0.74795784  1
  O  O16  1  0.86937766  0.13062428  0.24999677  1
  O  O17  1  0.13062201  0.86937590  0.75000346  1
loop_
_geom_bond_atom_site_label_1
_geom_bond_atom_site_label_2
_geom_bond_distance
_geom_bond_site_symmetry_2
Gd0 O2 2.308391 1_455
Gd0 O0 2.308395 1_555
Gd0 O14 2.388630 1_455
Gd0 O12 2.388634 1_555
Gd0 O9 2.461695 1_555
Gd0 O11 2.461712 1_455
Gd0 O7 2.479244 1_555
Gd0 O5 2.479255 1_455
Gd1 O1 2.308306 1_545
Gd1 O3 2.308311 1_554
Gd1 O15 2.388603 1_554
Gd1 O13 2.388604 1_545
Gd1 O10 2.461698 1_554
Gd1 O8 2.461704 1_545
Gd1 O6 2.479214 1_544
Gd1 O4 2.479217 1_555
Gd2 O8 2.288477 1_555
Gd2 O6 2.294637 1_554
Gd2 O14 2.368721 1_554
Gd2 O16 2.376750 1_555
Gd2 O4 2.470809 1_655
Gd2 O10 2.472317 1_554
Gd2 O1 2.495654 1_545
Gd2 O3 2.496325 1_654
Gd3 O9 2.288622 1_555
Gd3 O7 2.294781 1_555
Gd3 O15 2.368739 1_555
Gd3 O16 2.376797 1_555
Gd3 O5 2.470832 1_545
Gd3 O11 2.472353 1_555
Gd3 O0 2.495632 1_655
Gd3 O2 2.496288 1_545
Gd4 O10 2.288466 1_555
Gd4 O4 2.294637 1_556
Gd4 O12 2.368714 1_556
Gd4 O17 2.376758 1_555
Gd4 O6 2.470819 1_455
Gd4 O8 2.472301 1_556
Gd4 O3 2.495658 1_565
Gd4 O1 2.496329 1_456
Gd5 O11 2.288614 1_555
Gd5 O5 2.294781 1_555
Gd5 O13 2.368749 1_555
Gd5 O17 2.376792 1_555
Gd5 O7 2.470820 1_565
Gd5 O9 2.472347 1_555
Gd5 O2 2.495640 1_455
Gd5 O0 2.496291 1_565
B0 O0 1.448470 1_555
B0 O4 1.451627 1_555
B0 O13 1.507754 1_545
B0 O16 1.510428 1_455
B1 O1 1.448888 1_555
B1 O5 1.451157 1_555
B1 O12 1.507753 1_655
B1 O16 1.510421 1_565
B2 O2 1.448471 1_555
B2 O6 1.451626 1_555
B2 O15 1.507754 1_565
B2 O17 1.510427 1_655
B3 O3 1.448890 1_555
B3 O7 1.451160 1_555
B3 O14 1.507751 1_455
B3 O17 1.510423 1_545
B4 O9 1.446167 1_555
B4 O8 1.446650 1_555
B4 O13 1.506432 1_555
B4 O12 1.506448 1_555
B5 O11 1.446160 1_555
B5 O10 1.446652 1_555
B5 O15 1.506431 1_555
B5 O14 1.506450 1_555
