# generated using pymatgen
data_Li6Nd(BO3)3
_symmetry_space_group_name_H-M   'P 1'
_cell_length_a   16.52549965
_cell_length_b   6.71038757
_cell_length_c   7.25495199
_cell_angle_alpha   74.75759765
_cell_angle_beta   90.00000000
_cell_angle_gamma   90.00000000
_symmetry_Int_Tables_number   1
_chemical_formula_structural   Li6Nd(BO3)3
_chemical_formula_sum   'Li24 Nd4 B12 O36'
_cell_volume   776.21857672
_cell_formula_units_Z   4
loop_
 _symmetry_equiv_pos_site_id
 _symmetry_equiv_pos_as_xyz
  1  'x, y, z'
loop_
 _atom_site_type_symbol
 _atom_site_label
 _atom_site_symmetry_multiplicity
 _atom_site_fract_x
 _atom_site_fract_y
 _atom_site_fract_z
 _atom_site_occupancy
  Li  Li0  1  0.00285190  0.32488605  0.07215120  1
  Li  Li1  1  0.50285190  0.17511395  0.92784880  1
  Li  Li2  1  0.99714810  0.67511395  0.92784880  1
  Li  Li3  1  0.49714810  0.82488605  0.07215120  1
  Li  Li4  1  0.97076614  0.82936783  0.54794333  1
  Li  Li5  1  0.47076614  0.67063217  0.45205667  1
  Li  Li6  1  0.02923386  0.17063217  0.45205667  1
  Li  Li7  1  0.52923386  0.32936783  0.54794333  1
  Li  Li8  1  0.70495471  0.63009785  0.71092604  1
  Li  Li9  1  0.20495471  0.86990215  0.28907396  1
  Li  Li10  1  0.29504529  0.36990215  0.28907396  1
  Li  Li11  1  0.79504529  0.13009785  0.71092604  1
  Li  Li12  1  0.96534371  0.55611515  0.30582488  1
  Li  Li13  1  0.46534371  0.94388485  0.69417512  1
  Li  Li14  1  0.03465629  0.44388485  0.69417512  1
  Li  Li15  1  0.53465629  0.05611515  0.30582488  1
  Li  Li16  1  0.79690465  0.55224016  0.44367703  1
  Li  Li17  1  0.29690465  0.94775984  0.55632297  1
  Li  Li18  1  0.20309535  0.44775984  0.55632297  1
  Li  Li19  1  0.70309535  0.05224016  0.44367703  1
  Li  Li20  1  0.55035823  0.58154100  0.85946141  1
  Li  Li21  1  0.05035823  0.91845900  0.14053859  1
  Li  Li22  1  0.44964177  0.41845900  0.14053859  1
  Li  Li23  1  0.94964177  0.08154100  0.85946141  1
  Nd  Nd0  1  0.81067185  0.34758298  0.07970692  1
  Nd  Nd1  1  0.31067185  0.15241702  0.92029308  1
  Nd  Nd2  1  0.18932815  0.65241702  0.92029308  1
  Nd  Nd3  1  0.68932815  0.84758298  0.07970692  1
  B  B0  1  0.88719180  0.18689831  0.44354410  1
  B  B1  1  0.38719180  0.31310169  0.55645590  1
  B  B2  1  0.11280820  0.81310169  0.55645590  1
  B  B3  1  0.61280820  0.68689831  0.44354410  1
  B  B4  1  0.61810180  0.00279333  0.70838946  1
  B  B5  1  0.11810180  0.49720667  0.29161054  1
  B  B6  1  0.38189820  0.99720667  0.29161054  1
  B  B7  1  0.88189820  0.50279333  0.70838946  1
  B  B8  1  0.63373169  0.33863652  0.08173644  1
  B  B9  1  0.13373169  0.16136348  0.91826356  1
  B  B10  1  0.36626831  0.66136348  0.91826356  1
  B  B11  1  0.86626831  0.83863652  0.08173644  1
  O  O0  1  0.92470247  0.07567520  0.60692140  1
  O  O1  1  0.42470247  0.42432480  0.39307860  1
  O  O2  1  0.07529753  0.92432480  0.39307860  1
  O  O3  1  0.57529753  0.57567520  0.60692140  1
  O  O4  1  0.80454210  0.22082783  0.42966355  1
  O  O5  1  0.30454210  0.27917217  0.57033645  1
  O  O6  1  0.19545790  0.77917217  0.57033645  1
  O  O7  1  0.69545790  0.72082783  0.42966355  1
  O  O8  1  0.56646629  0.77059690  0.28108135  1
  O  O9  1  0.06646629  0.72940310  0.71891865  1
  O  O10  1  0.43353371  0.22940310  0.71891865  1
  O  O11  1  0.93353371  0.27059690  0.28108135  1
  O  O12  1  0.58616394  0.08999519  0.53274646  1
  O  O13  1  0.08616394  0.41000481  0.46725354  1
  O  O14  1  0.41383606  0.91000481  0.46725354  1
  O  O15  1  0.91383606  0.58999519  0.53274646  1
  O  O16  1  0.80036768  0.44942026  0.73164558  1
  O  O17  1  0.30036768  0.05057974  0.26835442  1
  O  O18  1  0.19963232  0.55057974  0.26835442  1
  O  O19  1  0.69963232  0.94942026  0.73164558  1
  O  O20  1  0.57068133  0.96021352  0.87285844  1
  O  O21  1  0.07068133  0.53978648  0.12714156  1
  O  O22  1  0.42931867  0.03978648  0.12714156  1
  O  O23  1  0.92931867  0.46021352  0.87285844  1
  O  O24  1  0.55207600  0.32546935  0.08132262  1
  O  O25  1  0.05207600  0.17453065  0.91867738  1
  O  O26  1  0.44792400  0.67453065  0.91867738  1
  O  O27  1  0.94792400  0.82546935  0.08132262  1
  O  O28  1  0.68210754  0.16851916  0.15901959  1
  O  O29  1  0.18210754  0.33148084  0.84098041  1
  O  O30  1  0.31789246  0.83148084  0.84098041  1
  O  O31  1  0.81789246  0.66851916  0.15901959  1
  O  O32  1  0.82728863  0.02388383  0.99612988  1
  O  O33  1  0.32728863  0.47611617  0.00387012  1
  O  O34  1  0.17271137  0.97611617  0.00387012  1
  O  O35  1  0.67271137  0.52388383  0.99612988  1
loop_
_geom_bond_atom_site_label_1
_geom_bond_atom_site_label_2
_geom_bond_distance
_geom_bond_site_symmetry_2
Li0 O11 1.857999 1_455
Li0 O25 1.873533 1_554
Li0 O23 1.923909 1_454
Li0 O21 1.948761 1_555
Li1 O10 1.857999 1_555
Li1 O24 1.873533 1_556
Li1 O22 1.923909 1_556
Li1 O20 1.948761 1_545
Li2 O9 1.857999 1_655
Li2 O27 1.873533 1_556
Li2 O21 1.923909 1_656
Li2 O23 1.948761 1_555
Li3 O8 1.857999 1_555
Li3 O26 1.873533 1_554
Li3 O20 1.923909 1_554
Li3 O22 1.948761 1_565
Li4 O15 1.889582 1_555
Li4 O0 1.966269 1_565
Li4 O9 2.013013 1_655
Li4 O2 2.067837 1_655
Li5 O14 1.889582 1_555
Li5 O1 1.966269 1_555
Li5 O8 2.013013 1_555
Li5 O3 2.067837 1_555
Li6 O13 1.889582 1_555
Li6 O2 1.966269 1_545
Li6 O11 2.013013 1_455
Li6 O0 2.067837 1_455
Li7 O12 1.889582 1_555
Li7 O3 1.966269 1_555
Li7 O10 2.013013 1_555
Li7 O1 2.067837 1_555
Li8 O16 1.970496 1_555
Li8 O7 1.976335 1_555
Li8 O35 2.073117 1_555
Li8 O19 2.188878 1_555
Li8 O3 2.332070 1_555
Li9 O17 1.970496 1_565
Li9 O6 1.976335 1_555
Li9 O34 2.073117 1_555
Li9 O18 2.188878 1_555
Li9 O2 2.332070 1_555
Li10 O18 1.970496 1_555
Li10 O5 1.976335 1_555
Li10 O33 2.073117 1_555
Li10 O17 2.188878 1_555
Li10 O1 2.332070 1_555
Li11 O19 1.970496 1_545
Li11 O4 1.976335 1_555
Li11 O32 2.073117 1_555
Li11 O16 2.188878 1_555
Li11 O0 2.332070 1_555
Li12 O15 1.919201 1_555
Li12 O11 2.039662 1_555
Li12 O27 2.110621 1_555
Li12 O21 2.190302 1_655
Li12 O13 2.390734 1_655
Li13 O14 1.919201 1_555
Li13 O10 2.039662 1_565
Li13 O26 2.110621 1_555
Li13 O20 2.190302 1_555
Li13 O12 2.390734 1_565
Li14 O13 1.919201 1_555
Li14 O9 2.039662 1_555
Li14 O25 2.110621 1_555
Li14 O23 2.190302 1_455
Li14 O15 2.390734 1_455
Li15 O12 1.919201 1_555
Li15 O8 2.039662 1_545
Li15 O24 2.110621 1_555
Li15 O22 2.190302 1_555
Li15 O14 2.390734 1_545
Li16 O7 2.010022 1_555
Li16 O16 2.021420 1_555
Li16 O31 2.036367 1_555
Li16 O15 2.074081 1_555
Li16 O4 2.256303 1_555
Li17 O6 2.010022 1_555
Li17 O17 2.021420 1_565
Li17 O30 2.036367 1_555
Li17 O14 2.074081 1_555
Li17 O5 2.256303 1_565
Li18 O5 2.010022 1_555
Li18 O18 2.021420 1_555
Li18 O29 2.036367 1_555
Li18 O13 2.074081 1_555
Li18 O6 2.256303 1_555
Li19 O4 2.010022 1_555
Li19 O19 2.021420 1_545
Li19 O28 2.036367 1_555
Li19 O12 2.074081 1_555
Li19 O7 2.256303 1_545
Li20 O3 1.888427 1_555
Li20 O26 1.892190 1_555
Li20 O24 2.022374 1_556
Li20 O35 2.240395 1_555
Li20 O20 2.590171 1_555
Li21 O2 1.888427 1_555
Li21 O27 1.892190 1_455
Li21 O25 2.022374 1_564
Li21 O34 2.240395 1_555
Li21 O21 2.590171 1_555
Li22 O1 1.888427 1_555
Li22 O24 1.892190 1_555
Li22 O26 2.022374 1_554
Li22 O33 2.240395 1_555
Li22 O22 2.590171 1_555
Li23 O0 1.888427 1_555
Li23 O25 1.892190 1_655
Li23 O27 2.022374 1_546
Li23 O32 2.240395 1_555
Li23 O23 2.590171 1_555
Nd0 O31 2.373802 1_555
Nd0 O32 2.419465 1_554
Nd0 O28 2.434182 1_555
Nd0 O16 2.442360 1_554
Nd0 O4 2.458525 1_555
Nd0 O23 2.463984 1_554
Nd0 O11 2.475233 1_555
Nd0 O35 2.566684 1_554
Nd1 O30 2.373802 1_545
Nd1 O33 2.419465 1_556
Nd1 O29 2.434182 1_555
Nd1 O17 2.442360 1_556
Nd1 O5 2.458525 1_555
Nd1 O22 2.463984 1_556
Nd1 O10 2.475233 1_555
Nd1 O34 2.566684 1_546
Nd2 O29 2.373802 1_555
Nd2 O34 2.419465 1_556
Nd2 O30 2.434182 1_555
Nd2 O18 2.442360 1_556
Nd2 O6 2.458525 1_555
Nd2 O21 2.463984 1_556
Nd2 O9 2.475233 1_555
Nd2 O33 2.566684 1_556
Nd3 O28 2.373802 1_565
Nd3 O35 2.419465 1_554
Nd3 O31 2.434182 1_555
Nd3 O19 2.442360 1_554
Nd3 O7 2.458525 1_555
Nd3 O20 2.463984 1_554
Nd3 O8 2.475233 1_555
Nd3 O32 2.566684 1_564
B0 O0 1.371519 1_555
B0 O4 1.383983 1_555
B0 O11 1.393949 1_555
B1 O1 1.371519 1_555
B1 O5 1.383983 1_555
B1 O10 1.393949 1_555
B2 O2 1.371519 1_555
B2 O6 1.383983 1_555
B2 O9 1.393949 1_555
B3 O3 1.371519 1_555
B3 O7 1.383983 1_555
B3 O8 1.393949 1_555
B4 O12 1.361137 1_555
B4 O20 1.392924 1_545
B4 O19 1.392937 1_545
B5 O13 1.361137 1_555
B5 O21 1.392924 1_555
B5 O18 1.392937 1_555
B6 O14 1.361137 1_555
B6 O22 1.392924 1_565
B6 O17 1.392937 1_565
B7 O15 1.361137 1_555
B7 O23 1.392924 1_555
B7 O16 1.392937 1_555
B8 O24 1.352346 1_555
B8 O28 1.385664 1_555
B8 O35 1.392830 1_554
B9 O25 1.352346 1_555
B9 O29 1.385664 1_555
B9 O34 1.392830 1_546
B10 O26 1.352346 1_555
B10 O30 1.385664 1_555
B10 O33 1.392830 1_556
B11 O27 1.352346 1_555
B11 O31 1.385664 1_555
B11 O32 1.392830 1_564
