# generated using pymatgen
data_Mg7Si4
_symmetry_space_group_name_H-M   'P 1'
_cell_length_a   5.43585800
_cell_length_b   6.20244336
_cell_length_c   13.30976609
_cell_angle_alpha   85.90251223
_cell_angle_beta   80.04609379
_cell_angle_gamma   87.74213070
_symmetry_Int_Tables_number   1
_chemical_formula_structural   Mg7Si4
_chemical_formula_sum   'Mg14 Si8'
_cell_volume   440.69498294
_cell_formula_units_Z   2
loop_
 _symmetry_equiv_pos_site_id
 _symmetry_equiv_pos_as_xyz
  1  'x, y, z'
loop_
 _atom_site_type_symbol
 _atom_site_label
 _atom_site_symmetry_multiplicity
 _atom_site_fract_x
 _atom_site_fract_y
 _atom_site_fract_z
 _atom_site_occupancy
  Mg  Mg0  1  0.99453500  0.08346400  0.18815600  1
  Mg  Mg1  1  0.16444800  0.58027100  0.24443000  1
  Mg  Mg2  1  0.69400500  0.77315400  0.37701400  1
  Mg  Mg3  1  0.56200300  0.30203700  0.35022800  1
  Mg  Mg4  1  0.02982000  0.55728600  0.00511900  1
  Mg  Mg5  1  0.77129500  0.91636100  0.56840100  1
  Mg  Mg6  1  0.25324600  0.36757500  0.76647100  1
  Mg  Mg7  1  0.73660300  0.39892300  0.59899800  1
  Mg  Mg8  1  0.51719500  0.31401900  0.08124000  1
  Mg  Mg9  1  0.48459000  0.81780900  0.02996800  1
  Mg  Mg10  1  0.01569200  0.06674700  0.95539000  1
  Mg  Mg11  1  0.37025200  0.84761400  0.77212700  1
  Mg  Mg12  1  0.27593500  0.11885700  0.56688500  1
  Mg  Mg13  1  0.26187500  0.61242800  0.53865800  1
  Si  Si0  1  0.55140400  0.15255700  0.88483200  1
  Si  Si1  1  0.48414900  0.97519700  0.22317200  1
  Si  Si2  1  0.69513500  0.62402300  0.19005900  1
  Si  Si3  1  0.92108700  0.68022300  0.72909900  1
  Si  Si4  1  0.62341900  0.53252200  0.87885300  1
  Si  Si5  1  0.16791900  0.91618200  0.38335600  1
  Si  Si6  1  0.02659600  0.29043800  0.41536100  1
  Si  Si7  1  0.89886900  0.06486300  0.74847300  1
loop_
_geom_bond_atom_site_label_1
_geom_bond_atom_site_label_2
_geom_bond_distance
_geom_bond_site_symmetry_2
Mg0 Si1 2.827517 1_645
Mg0 Si1 2.832035 1_545
Mg0 Si5 3.016457 1_645
Mg1 Si2 2.767881 1_455
Mg1 Si6 2.810928 1_555
Mg1 Si2 2.868966 1_555
Mg1 Si5 2.885477 1_555
Mg1 Si1 3.027646 1_555
Mg2 Si2 2.714882 1_555
Mg2 Si1 2.718927 1_555
Mg2 Si5 2.774257 1_655
Mg2 Si5 2.949494 1_555
Mg3 Si6 2.805050 1_655
Mg3 Si1 2.820171 1_545
Mg3 Si2 2.833524 1_555
Mg3 Si6 2.891790 1_555
Mg4 Si2 2.842237 1_455
Mg4 Si4 3.012527 1_454
Mg5 Si3 2.728236 1_555
Mg5 Si7 2.830889 1_565
Mg5 Si5 2.979711 1_655
Mg5 Si6 3.171648 1_665
Mg6 Si3 2.676693 1_455
Mg6 Si0 2.701719 1_555
Mg6 Si7 2.793238 1_455
Mg6 Si4 2.958791 1_555
Mg7 Si6 2.780482 1_655
Mg7 Si3 2.866749 1_555
Mg7 Si7 2.983747 1_555
Mg8 Si1 2.713374 1_545
Mg8 Si2 2.785543 1_555
Mg8 Si0 2.839480 1_554
Mg8 Si4 2.903188 1_554
Mg9 Si0 2.723603 1_564
Mg9 Si4 2.761258 1_554
Mg9 Si2 2.768288 1_555
Mg9 Si1 2.814602 1_555
Mg10 Si0 2.859527 1_455
Mg10 Si7 2.932202 1_455
Mg10 Si0 2.958128 1_555
Mg11 Si4 2.792544 1_555
Mg11 Si0 2.803595 1_565
Mg11 Si3 2.852265 1_455
Mg11 Si7 2.902888 1_465
Mg11 Si3 3.101403 1_555
Mg11 Si7 3.178591 1_565
Mg12 Si6 2.749816 1_555
Mg12 Si7 2.894913 1_455
Mg12 Si5 2.980731 1_545
Mg13 Si5 2.795642 1_555
Mg13 Si3 2.915640 1_455
Mg13 Si6 3.116483 1_555
Si0 Si4 2.397663 1_555
Si0 Si7 2.456060 1_555
Si1 Si2 2.453463 1_555
Si1 Si5 2.511058 1_555
Si3 Si7 2.413944 1_565
Si3 Si4 2.484176 1_555
Si5 Si6 2.459211 1_565
