# generated using pymatgen
data_Eu2As7Pd12
_symmetry_space_group_name_H-M   'P 1'
_cell_length_a   10.18924833
_cell_length_b   10.18924833
_cell_length_c   4.16728500
_cell_angle_alpha   90.00000000
_cell_angle_beta   90.00000000
_cell_angle_gamma   120.00000217
_symmetry_Int_Tables_number   1
_chemical_formula_structural   Eu2As7Pd12
_chemical_formula_sum   'Eu2 As7 Pd12'
_cell_volume   374.68656341
_cell_formula_units_Z   1
loop_
 _symmetry_equiv_pos_site_id
 _symmetry_equiv_pos_as_xyz
  1  'x, y, z'
loop_
 _atom_site_type_symbol
 _atom_site_label
 _atom_site_symmetry_multiplicity
 _atom_site_fract_x
 _atom_site_fract_y
 _atom_site_fract_z
 _atom_site_occupancy
  Eu  Eu0  1  0.66666700  0.33333300  0.24892000  1
  Eu  Eu1  1  0.00000000  0.00000000  0.75034200  1
  As  As0  1  0.33333300  0.66666700  0.47400300  1
  As  As1  1  0.74239700  0.78370800  0.25112000  1
  As  As2  1  0.04131100  0.25760300  0.25112000  1
  As  As3  1  0.21629200  0.95868900  0.25112000  1
  As  As4  1  0.92402500  0.55086700  0.74618700  1
  As  As5  1  0.62684200  0.07597500  0.74618700  1
  As  As6  1  0.44913300  0.37315800  0.74618700  1
  Pd  Pd0  1  0.76950200  0.04666100  0.24994100  1
  Pd  Pd1  1  0.27715900  0.23049800  0.24994100  1
  Pd  Pd2  1  0.95333900  0.72284100  0.24994100  1
  Pd  Pd3  1  0.89868100  0.28642600  0.74776000  1
  Pd  Pd4  1  0.38774400  0.10131900  0.74776000  1
  Pd  Pd5  1  0.71357400  0.61225600  0.74776000  1
  Pd  Pd6  1  0.47938000  0.55604400  0.23052900  1
  Pd  Pd7  1  0.07666300  0.52062000  0.23052900  1
  Pd  Pd8  1  0.44395600  0.92333700  0.23052900  1
  Pd  Pd9  1  0.19067400  0.77315100  0.76721400  1
  Pd  Pd10  1  0.58247700  0.80932600  0.76721400  1
  Pd  Pd11  1  0.22684900  0.41752300  0.76721400  1
loop_
_geom_bond_atom_site_label_1
_geom_bond_atom_site_label_2
_geom_bond_distance
_geom_bond_site_symmetry_2
Eu0 Pd3 3.356857 1_555
Eu0 Pd4 3.356867 1_555
Eu0 Pd5 3.356873 1_555
Eu0 Pd3 3.362853 1_554
Eu0 Pd4 3.362863 1_554
Eu0 Pd5 3.362869 1_554
Eu0 Pd0 3.562392 1_555
Eu0 Pd2 3.562399 1_555
Eu0 Pd1 3.562401 1_555
Eu0 Pd7 3.623174 1_655
Eu0 Pd8 3.623175 1_545
Eu0 Pd6 3.623192 1_555
Eu1 Pd1 3.345624 1_556
Eu1 Pd2 3.345624 1_446
Eu1 Pd0 3.345624 1_456
Eu1 Pd1 3.347704 1_555
Eu1 Pd2 3.347704 1_445
Eu1 Pd0 3.347704 1_455
Eu1 Pd4 3.549110 1_555
Eu1 Pd5 3.549113 1_445
Eu1 Pd3 3.549120 1_455
Eu1 Pd11 3.689561 1_555
Eu1 Pd10 3.689561 1_445
Eu1 Pd9 3.689561 1_545
As0 Pd7 2.488329 1_555
As0 Pd8 2.488329 1_555
As0 Pd6 2.488329 1_555
As0 Pd9 2.521960 1_555
As0 Pd10 2.521967 1_555
As0 Pd11 2.521968 1_555
As1 Pd2 2.517403 1_555
As1 Pd6 2.520686 1_555
As1 Pd0 2.552439 1_565
As1 Pd5 2.628402 1_555
As1 Pd5 2.650509 1_554
As1 Pd10 2.686112 1_554
As1 Pd10 2.788222 1_555
As1 Eu1 3.207784 1_665
As1 Eu1 3.211993 1_664
As2 Pd0 2.517403 1_455
As2 Pd7 2.520690 1_555
As2 Pd1 2.552439 1_555
As2 Pd3 2.628408 1_455
As2 Pd3 2.650515 1_454
As2 Pd11 2.686112 1_554
As2 Pd11 2.788222 1_555
As2 Eu1 3.207784 1_555
As2 Eu1 3.211993 1_554
As3 Pd1 2.517403 1_565
As3 Pd8 2.520680 1_555
As3 Pd2 2.552439 1_455
As3 Pd4 2.628404 1_565
As3 Pd4 2.650512 1_564
As3 Pd9 2.686112 1_554
As3 Pd9 2.788222 1_555
As3 Eu1 3.207784 1_565
As3 Eu1 3.211993 1_564
As4 Pd5 2.516105 1_555
As4 Pd9 2.523028 1_655
As4 Pd3 2.575075 1_555
As4 Pd2 2.629249 1_555
As4 Pd2 2.653929 1_556
As4 Pd7 2.658395 1_656
As4 Pd7 2.758787 1_655
As4 Eu0 3.204872 1_555
As4 Eu0 3.219647 1_556
As5 Pd3 2.516098 1_555
As5 Pd10 2.523028 1_545
As5 Pd4 2.575085 1_555
As5 Pd0 2.629249 1_555
As5 Pd0 2.653929 1_556
As5 Pd8 2.658399 1_546
As5 Pd8 2.758791 1_545
As5 Eu0 3.204869 1_555
As5 Eu0 3.219644 1_556
As6 Pd4 2.516095 1_555
As6 Pd11 2.523028 1_555
As6 Pd5 2.575079 1_555
As6 Pd1 2.629249 1_555
As6 Pd1 2.653929 1_556
As6 Pd6 2.658402 1_556
As6 Pd6 2.758793 1_555
As6 Eu0 3.204877 1_555
As6 Eu0 3.219652 1_556
Pd0 Pd8 2.901779 1_545
Pd0 Pd3 2.964629 1_555
Pd0 Pd3 2.977377 1_554
Pd0 Pd10 2.986288 1_544
Pd0 Pd10 3.085101 1_545
Pd1 Pd6 2.901778 1_555
Pd1 Pd4 2.964623 1_555
Pd1 Pd4 2.977371 1_554
Pd1 Pd11 2.986288 1_554
Pd1 Pd11 3.085101 1_555
Pd2 Pd7 2.901770 1_655
Pd2 Pd5 2.964629 1_555
Pd2 Pd5 2.977378 1_554
Pd2 Pd9 2.986288 1_654
Pd2 Pd9 3.085101 1_655
Pd3 Pd7 2.950089 1_656
Pd3 Pd7 3.049836 1_655
Pd4 Pd9 2.916370 1_545
Pd4 Pd8 2.950089 1_546
Pd4 Pd8 3.049837 1_545
Pd5 Pd6 2.950089 1_556
Pd5 Pd6 3.049837 1_555
Pd7 Pd9 2.951116 1_554
Pd7 Pd9 3.159628 1_555
Pd8 Pd9 2.963212 1_554
Pd8 Pd9 3.170929 1_555
Pd10 Pd5 2.916362 1_555
Pd10 Pd8 2.951123 1_556
Pd10 Pd6 2.963211 1_556
Pd10 Pd8 3.159634 1_555
Pd10 Pd6 3.170928 1_555
Pd11 Pd3 2.916371 1_455
Pd11 Pd6 2.951116 1_556
Pd11 Pd7 2.963218 1_556
Pd11 Pd6 3.159628 1_555
Pd11 Pd7 3.170935 1_555
