# generated using pymatgen
data_Ba3NdIrRuO9
_symmetry_space_group_name_H-M   'P 1'
_cell_length_a   6.00043016
_cell_length_b   6.00043016
_cell_length_c   14.99522900
_cell_angle_alpha   90.00000000
_cell_angle_beta   90.00000000
_cell_angle_gamma   120.00000178
_symmetry_Int_Tables_number   1
_chemical_formula_structural   Ba3NdIrRuO9
_chemical_formula_sum   'Ba6 Nd2 Ir2 Ru2 O18'
_cell_volume   467.57200120
_cell_formula_units_Z   2
loop_
 _symmetry_equiv_pos_site_id
 _symmetry_equiv_pos_as_xyz
  1  'x, y, z'
loop_
 _atom_site_type_symbol
 _atom_site_label
 _atom_site_symmetry_multiplicity
 _atom_site_fract_x
 _atom_site_fract_y
 _atom_site_fract_z
 _atom_site_occupancy
  Ba  Ba0  1  0.33333300  0.66666700  0.39905400  1
  Ba  Ba1  1  0.66666700  0.33333300  0.60178800  1
  Ba  Ba2  1  0.66666700  0.33333300  0.89905400  1
  Ba  Ba3  1  0.33333300  0.66666700  0.10178800  1
  Ba  Ba4  1  0.00000000  0.00000000  0.74969300  1
  Ba  Ba5  1  0.00000000  0.00000000  0.24969300  1
  Nd  Nd0  1  0.00000000  0.00000000  0.50166200  1
  Nd  Nd1  1  0.00000000  0.00000000  0.00166200  1
  Ir  Ir0  1  0.33333300  0.66666700  0.66682400  1
  Ir  Ir1  1  0.66666700  0.33333300  0.16682400  1
  Ru  Ru0  1  0.66666700  0.33333300  0.33432700  1
  Ru  Ru1  1  0.33333300  0.66666700  0.83432700  1
  O  O0  1  0.17843700  0.82156300  0.90716000  1
  O  O1  1  0.64312600  0.82156300  0.90716000  1
  O  O2  1  0.17843700  0.35687400  0.90716000  1
  O  O3  1  0.82248400  0.17751600  0.09081800  1
  O  O4  1  0.35503200  0.17751600  0.09081800  1
  O  O5  1  0.82248400  0.64496800  0.09081800  1
  O  O6  1  0.82156300  0.17843700  0.40716000  1
  O  O7  1  0.35687400  0.17843700  0.40716000  1
  O  O8  1  0.82156300  0.64312600  0.40716000  1
  O  O9  1  0.17751600  0.82248400  0.59081800  1
  O  O10  1  0.64496800  0.82248400  0.59081800  1
  O  O11  1  0.17751600  0.35503200  0.59081800  1
  O  O12  1  0.49041800  0.50958200  0.75084300  1
  O  O13  1  0.01916400  0.50958200  0.75084300  1
  O  O14  1  0.49041800  0.98083600  0.75084300  1
  O  O15  1  0.50958200  0.49041800  0.25084300  1
  O  O16  1  0.98083600  0.49041800  0.25084300  1
  O  O17  1  0.50958200  0.01916400  0.25084300  1
loop_
_geom_bond_atom_site_label_1
_geom_bond_atom_site_label_2
_geom_bond_distance
_geom_bond_site_symmetry_2
Ba0 O16 2.880045 1_455
Ba0 O17 2.880045 1_565
Ba0 O15 2.880049 1_555
Ba0 O7 3.005164 1_565
Ba0 O8 3.005164 1_455
Ba0 O6 3.005167 1_565
Ba0 O6 3.005167 1_455
Ba0 O8 3.005170 1_555
Ba0 O7 3.005170 1_555
Ba0 O9 3.300191 1_555
Ba0 O11 3.300194 1_555
Ba0 O10 3.300194 1_555
Ba1 O14 2.889823 1_545
Ba1 O13 2.889823 1_655
Ba1 O12 2.889826 1_555
Ba1 O10 3.006833 1_545
Ba1 O11 3.006833 1_655
Ba1 O9 3.006836 1_655
Ba1 O9 3.006836 1_545
Ba1 O11 3.006839 1_555
Ba1 O10 3.006839 1_555
Ba1 O6 3.333044 1_555
Ba1 O7 3.333047 1_555
Ba1 O8 3.333047 1_555
Ba2 O14 2.880045 1_545
Ba2 O13 2.880045 1_655
Ba2 O12 2.880049 1_555
Ba2 O1 3.005164 1_545
Ba2 O2 3.005164 1_655
Ba2 O0 3.005167 1_655
Ba2 O0 3.005167 1_545
Ba2 O2 3.005170 1_555
Ba2 O1 3.005170 1_555
Ba2 O3 3.300191 1_556
Ba2 O4 3.300194 1_556
Ba2 O5 3.300194 1_556
Ba3 O16 2.889823 1_455
Ba3 O17 2.889823 1_565
Ba3 O15 2.889826 1_555
Ba3 O4 3.006833 1_565
Ba3 O5 3.006833 1_455
Ba3 O3 3.006836 1_455
Ba3 O3 3.006836 1_565
Ba3 O5 3.006839 1_555
Ba3 O4 3.006839 1_555
Ba3 O0 3.333044 1_554
Ba3 O2 3.333047 1_554
Ba3 O1 3.333047 1_554
Ba4 O12 3.001917 1_445
Ba4 O12 3.001917 1_555
Ba4 O14 3.001917 1_445
Ba4 O13 3.001917 1_555
Ba4 O14 3.001917 1_545
Ba4 O13 3.001917 1_545
Ba4 O1 3.002450 1_445
Ba4 O2 3.002450 1_555
Ba4 O0 3.002450 1_545
Ba4 O10 3.013212 1_445
Ba4 O11 3.013212 1_555
Ba4 O9 3.013212 1_545
Ba5 O15 3.001917 1_555
Ba5 O15 3.001917 1_445
Ba5 O17 3.001917 1_555
Ba5 O16 3.001917 1_445
Ba5 O16 3.001917 1_455
Ba5 O17 3.001917 1_455
Ba5 O7 3.002450 1_555
Ba5 O8 3.002450 1_445
Ba5 O6 3.002450 1_455
Ba5 O4 3.013212 1_555
Ba5 O5 3.013212 1_445
Ba5 O3 3.013212 1_455
Nd0 O10 2.278402 1_445
Nd0 O11 2.278402 1_555
Nd0 O9 2.278402 1_545
Nd0 O8 2.333945 1_445
Nd0 O7 2.333945 1_555
Nd0 O6 2.333945 1_455
Nd1 O4 2.278402 1_555
Nd1 O5 2.278402 1_445
Nd1 O3 2.278402 1_455
Nd1 O2 2.333945 1_554
Nd1 O1 2.333945 1_444
Nd1 O0 2.333945 1_544
Ir0 O9 1.980273 1_555
Ir0 O10 1.980277 1_555
Ir0 O11 1.980277 1_555
Ir0 O13 2.062195 1_555
Ir0 O14 2.062195 1_555
Ir0 O12 2.062199 1_555
Ir1 O3 1.980273 1_555
Ir1 O5 1.980277 1_555
Ir1 O4 1.980277 1_555
Ir1 O16 2.062195 1_555
Ir1 O17 2.062195 1_555
Ir1 O15 2.062199 1_555
O0 Ru1 1.945348 1_555
O1 Ru1 1.945352 1_555
O2 Ru1 1.945352 1_555
O6 Ru0 1.945348 1_555
O7 Ru0 1.945352 1_555
O8 Ru0 1.945352 1_555
O12 Ru1 2.057308 1_555
O13 Ru1 2.057304 1_555
O14 Ru1 2.057304 1_555
O15 Ru0 2.057308 1_555
O16 Ru0 2.057304 1_555
O17 Ru0 2.057304 1_555
