# generated using pymatgen
data_NaLa2Se3
_symmetry_space_group_name_H-M   'P 1'
_cell_length_a   4.31658107
_cell_length_b   4.31658107
_cell_length_c   10.56227641
_cell_angle_alpha   90.00000000
_cell_angle_beta   90.00000000
_cell_angle_gamma   119.99999186
_symmetry_Int_Tables_number   1
_chemical_formula_structural   NaLa2Se3
_chemical_formula_sum   'Na1 La2 Se3'
_cell_volume   170.43861616
_cell_formula_units_Z   1
loop_
 _symmetry_equiv_pos_site_id
 _symmetry_equiv_pos_as_xyz
  1  'x, y, z'
loop_
 _atom_site_type_symbol
 _atom_site_label
 _atom_site_symmetry_multiplicity
 _atom_site_fract_x
 _atom_site_fract_y
 _atom_site_fract_z
 _atom_site_occupancy
  Na  Na0  1  0.00000000  0.00000000  -0.00000000  1
  La  La0  1  0.33333300  0.66666700  0.67109915  1
  La  La1  1  0.66666700  0.33333300  0.32890085  1
  Se  Se0  1  0.33333300  0.66666700  0.17074974  1
  Se  Se1  1  0.66666700  0.33333300  0.82925026  1
  Se  Se2  1  0.00000000  0.00000000  0.50000000  1
loop_
_geom_bond_atom_site_label_1
_geom_bond_atom_site_label_2
_geom_bond_distance
_geom_bond_site_symmetry_2
Na0 Se1 3.076293 1_454
Na0 Se0 3.076293 1_545
Na0 Se1 3.076296 1_554
Na0 Se0 3.076296 1_555
Na0 Se0 3.076296 1_445
Na0 Se1 3.076296 1_444
La0 Se1 3.000217 1_455
La0 Se1 3.000217 1_565
La0 Se1 3.000223 1_555
La0 Se2 3.078458 1_565
La0 Se2 3.078461 1_555
La0 Se2 3.078461 1_665
La1 Se0 3.000217 1_545
La1 Se0 3.000217 1_655
La1 Se0 3.000223 1_555
La1 Se2 3.078458 1_655
La1 Se2 3.078461 1_555
La1 Se2 3.078461 1_665
