# generated using pymatgen
data_CoNiSe4
_symmetry_space_group_name_H-M   'P 1'
_cell_length_a   5.88243400
_cell_length_b   5.87472300
_cell_length_c   5.89815569
_cell_angle_alpha   89.31000414
_cell_angle_beta   90.00000000
_cell_angle_gamma   90.00000000
_symmetry_Int_Tables_number   1
_chemical_formula_structural   CoNiSe4
_chemical_formula_sum   'Co2 Ni2 Se8'
_cell_volume   203.81173984
_cell_formula_units_Z   2
loop_
 _symmetry_equiv_pos_site_id
 _symmetry_equiv_pos_as_xyz
  1  'x, y, z'
loop_
 _atom_site_type_symbol
 _atom_site_label
 _atom_site_symmetry_multiplicity
 _atom_site_fract_x
 _atom_site_fract_y
 _atom_site_fract_z
 _atom_site_occupancy
  Co  Co0  1  0.00000000  0.50000000  0.50000000  1
  Co  Co1  1  0.50000000  0.00000000  0.50000000  1
  Ni  Ni0  1  0.00000000  0.00000000  0.00000000  1
  Ni  Ni1  1  0.50000000  0.50000000  0.00000000  1
  Se  Se0  1  0.61986800  0.11965600  0.12827600  1
  Se  Se1  1  0.11986800  0.38034400  0.87172400  1
  Se  Se2  1  0.37263500  0.62822700  0.38146900  1
  Se  Se3  1  0.87263500  0.87177300  0.61853100  1
  Se  Se4  1  0.38013200  0.88034400  0.87172400  1
  Se  Se5  1  0.88013200  0.61965600  0.12827600  1
  Se  Se6  1  0.62736500  0.37177300  0.61853100  1
  Se  Se7  1  0.12736500  0.12822700  0.38146900  1
loop_
_geom_bond_atom_site_label_1
_geom_bond_atom_site_label_2
_geom_bond_distance
_geom_bond_site_symmetry_2
Co0 Se5 2.400249 1_455
Co0 Se1 2.400249 1_555
Co0 Se2 2.418347 1_555
Co0 Se6 2.418347 1_455
Co0 Se7 2.420123 1_555
Co0 Se3 2.420123 1_455
Co1 Se0 2.400249 1_555
Co1 Se4 2.400249 1_545
Co1 Se7 2.418347 1_555
Co1 Se3 2.418347 1_545
Co1 Se2 2.420123 1_545
Co1 Se6 2.420123 1_555
Ni0 Se1 2.453878 1_554
Ni0 Se5 2.453878 1_445
Ni0 Se4 2.465669 1_544
Ni0 Se0 2.465669 1_455
Ni0 Se7 2.496385 1_555
Ni0 Se3 2.496385 1_444
Ni1 Se4 2.453878 1_554
Ni1 Se0 2.453878 1_555
Ni1 Se5 2.465669 1_555
Ni1 Se1 2.465669 1_554
Ni1 Se2 2.496385 1_555
Ni1 Se6 2.496385 1_554
