# generated using pymatgen
data_Zn2CrSbO6
_symmetry_space_group_name_H-M   'P 1'
_cell_length_a   5.24988462
_cell_length_b   5.30326970
_cell_length_c   7.71168400
_cell_angle_alpha   90.00048282
_cell_angle_beta   90.00018767
_cell_angle_gamma   89.96211463
_symmetry_Int_Tables_number   1
_chemical_formula_structural   Zn2CrSbO6
_chemical_formula_sum   'Zn4 Cr2 Sb2 O12'
_cell_volume   214.70521947
_cell_formula_units_Z   2
loop_
 _symmetry_equiv_pos_site_id
 _symmetry_equiv_pos_as_xyz
  1  'x, y, z'
loop_
 _atom_site_type_symbol
 _atom_site_label
 _atom_site_symmetry_multiplicity
 _atom_site_fract_x
 _atom_site_fract_y
 _atom_site_fract_z
 _atom_site_occupancy
  Zn  Zn0  1  0.51257700  0.55395700  0.74999800  1
  Zn  Zn1  1  0.48746100  0.44609000  0.24999900  1
  Zn  Zn2  1  0.01857100  0.01948100  0.75000400  1
  Zn  Zn3  1  0.98140600  0.98041700  0.25000100  1
  Cr  Cr0  1  0.50006100  0.00017600  0.49993500  1
  Cr  Cr1  1  0.49985100  0.00005500  0.99991300  1
  Sb  Sb0  1  0.00004100  0.49996900  0.49999900  1
  Sb  Sb1  1  0.99999000  0.49995800  0.00002400  1
  O  O0  1  0.31873300  0.67674000  0.43275600  1
  O  O1  1  0.17219500  0.18224600  0.06711500  1
  O  O2  1  0.68124500  0.32323000  0.93276000  1
  O  O3  1  0.82786700  0.81772500  0.56710800  1
  O  O4  1  0.17221400  0.18226000  0.43286700  1
  O  O5  1  0.82784800  0.81770100  0.93287400  1
  O  O6  1  0.86864000  0.57683500  0.25006000  1
  O  O7  1  0.31871600  0.67676700  0.06724300  1
  O  O8  1  0.38716900  0.92344700  0.74998400  1
  O  O9  1  0.68130200  0.32329600  0.56725900  1
  O  O10  1  0.13125500  0.42313400  0.75011600  1
  O  O11  1  0.61285700  0.07651400  0.24998500  1
loop_
_geom_bond_atom_site_label_1
_geom_bond_atom_site_label_2
_geom_bond_distance
_geom_bond_site_symmetry_2
Cr0 O9 2.028159 1_555
Cr0 O0 2.029504 1_545
Cr0 O4 2.039646 1_555
Cr0 O3 2.040591 1_545
Cr0 O11 2.056766 1_555
Cr0 O8 2.058036 1_545
Cr1 O2 2.028455 1_555
Cr1 O7 2.028671 1_546
Cr1 O1 2.039330 1_556
Cr1 O5 2.040930 1_545
Cr1 O8 2.056715 1_545
Cr1 O11 2.058082 1_556
O0 Sb0 1.987229 1_555
O0 Zn1 2.065361 1_555
O1 Sb1 1.980387 1_455
O1 Zn3 2.034568 1_445
O2 Sb1 1.987391 1_556
O2 Zn0 2.065504 1_555
O3 Sb0 1.980541 1_655
O3 Zn2 2.034180 1_665
O4 Sb0 1.980373 1_555
O4 Zn3 2.034532 1_445
O5 Sb1 1.980495 1_556
O5 Zn2 2.034175 1_665
O6 Sb0 2.087283 1_655
O6 Sb1 2.087894 1_555
O6 Zn1 2.118299 1_555
O6 Zn3 2.221047 1_555
O7 Sb1 1.987419 1_455
O7 Zn1 2.065489 1_555
O8 Zn2 2.000669 1_565
O8 Zn0 2.066740 1_555
O9 Sb0 1.987226 1_655
O9 Zn0 2.065294 1_555
O10 Sb1 2.086781 1_456
O10 Sb0 2.088194 1_555
O10 Zn0 2.119144 1_555
O10 Zn2 2.221296 1_555
O11 Zn3 2.000505 1_545
O11 Zn1 2.067153 1_555
