# generated using pymatgen
data_La4GdSc15(BO3)20
_symmetry_space_group_name_H-M   'P 1'
_cell_length_a   7.83550273
_cell_length_b   7.83550273
_cell_length_c   18.94498161
_cell_angle_alpha   87.67515651
_cell_angle_beta   87.67515651
_cell_angle_gamma   78.40665583
_symmetry_Int_Tables_number   1
_chemical_formula_structural   La4GdSc15(BO3)20
_chemical_formula_sum   'La4 Gd1 Sc15 B20 O60'
_cell_volume   1137.83739655
_cell_formula_units_Z   1
loop_
 _symmetry_equiv_pos_site_id
 _symmetry_equiv_pos_as_xyz
  1  'x, y, z'
loop_
 _atom_site_type_symbol
 _atom_site_label
 _atom_site_symmetry_multiplicity
 _atom_site_fract_x
 _atom_site_fract_y
 _atom_site_fract_z
 _atom_site_occupancy
  La  La0  1  0.39987400  0.39988100  0.69971000  1
  La  La1  1  0.80003400  0.80000700  0.89997400  1
  La  La2  1  0.19999300  0.19996600  0.10002600  1
  La  La3  1  0.60011900  0.60012600  0.30029000  1
  Gd  Gd0  1  0.99998400  0.00001600  0.50000000  1
  Sc  Sc0  1  0.70960400  0.16156400  0.08078500  1
  Sc  Sc1  1  0.10956900  0.56167200  0.28083700  1
  Sc  Sc2  1  0.50955800  0.96182200  0.48091900  1
  Sc  Sc3  1  0.90967500  0.36136600  0.68070200  1
  Sc  Sc4  1  0.30961200  0.76152800  0.88077900  1
  Sc  Sc5  1  0.23847200  0.69038800  0.11922100  1
  Sc  Sc6  1  0.63863400  0.09032500  0.31929800  1
  Sc  Sc7  1  0.03817800  0.49044200  0.51908100  1
  Sc  Sc8  1  0.43832800  0.89043100  0.71916300  1
  Sc  Sc9  1  0.83843600  0.29039600  0.91921500  1
  Sc  Sc10  1  0.25195400  0.34805600  0.89999400  1
  Sc  Sc11  1  0.65194400  0.74804600  0.10000600  1
  Sc  Sc12  1  0.05186900  0.14761400  0.30053800  1
  Sc  Sc13  1  0.45190000  0.54810000  0.50000000  1
  Sc  Sc14  1  0.85238600  0.94813100  0.69946200  1
  B  B0  1  0.50001100  0.49998900  0.00000000  1
  B  B1  1  0.90005100  0.89998000  0.20000100  1
  B  B2  1  0.29979000  0.29980500  0.40007500  1
  B  B3  1  0.70019500  0.70021000  0.59992500  1
  B  B4  1  0.10002000  0.09994900  0.79999900  1
  B  B5  1  0.85078100  0.75190600  0.40046200  1
  B  B6  1  0.24809400  0.14921900  0.59953800  1
  B  B7  1  0.65000900  0.54996600  0.79998000  1
  B  B8  1  0.05004100  0.94995900  0.00000000  1
  B  B9  1  0.45003400  0.34999100  0.20002000  1
  B  B10  1  0.38996700  0.94000800  0.22003900  1
  B  B11  1  0.79084100  0.33766900  0.42044900  1
  B  B12  1  0.18934500  0.74139800  0.61912300  1
  B  B13  1  0.59005100  0.13999500  0.81995800  1
  B  B14  1  0.98999200  0.54001400  0.02002100  1
  B  B15  1  0.66233100  0.20915900  0.57955100  1
  B  B16  1  0.05999200  0.61003200  0.77996100  1
  B  B17  1  0.45998600  0.01000800  0.97997900  1
  B  B18  1  0.86000500  0.40994900  0.18004200  1
  B  B19  1  0.25860200  0.81065500  0.38087700  1
  O  O0  1  0.64033000  0.35967000  0.00000000  1
  O  O1  1  0.04027200  0.75958000  0.20001900  1
  O  O2  1  0.44032700  0.15971300  0.40016100  1
  O  O3  1  0.84028700  0.55967300  0.59983900  1
  O  O4  1  0.24042000  0.95972800  0.79998100  1
  O  O5  1  0.47195400  0.61220800  0.05613100  1
  O  O6  1  0.87222500  0.01211000  0.25617500  1
  O  O7  1  0.27166800  0.41241500  0.45607300  1
  O  O8  1  0.67199400  0.81210500  0.65614400  1
  O  O9  1  0.07193600  0.21218100  0.85612000  1
  O  O10  1  0.38779200  0.52804600  0.94386900  1
  O  O11  1  0.78781900  0.92806400  0.14388000  1
  O  O12  1  0.18789500  0.32800600  0.34385600  1
  O  O13  1  0.58758500  0.72833200  0.54392700  1
  O  O14  1  0.98789000  0.12777500  0.74382500  1
  O  O15  1  0.90981300  0.09018700  0.00000000  1
  O  O16  1  0.30977800  0.49023900  0.20003300  1
  O  O17  1  0.70857600  0.89009800  0.39980000  1
  O  O18  1  0.10990200  0.29142400  0.60020000  1
  O  O19  1  0.50976100  0.69022200  0.79996700  1
  O  O20  1  0.41799500  0.82789300  0.16391500  1
  O  O21  1  0.81757500  0.22828700  0.36347300  1
  O  O22  1  0.21864900  0.62632700  0.56402100  1
  O  O23  1  0.61819500  0.02783700  0.76382500  1
  O  O24  1  0.01804400  0.42782800  0.96392800  1
  O  O25  1  0.17210700  0.58200500  0.83608500  1
  O  O26  1  0.57217200  0.98195600  0.03607200  1
  O  O27  1  0.97216300  0.38180500  0.23617500  1
  O  O28  1  0.37367300  0.78135100  0.43597900  1
  O  O29  1  0.77171300  0.18242500  0.63652700  1
  O  O30  1  0.08287500  0.85044400  0.94053400  1
  O  O31  1  0.48282200  0.25047100  0.14053400  1
  O  O32  1  0.88373200  0.65045200  0.34141400  1
  O  O33  1  0.27652900  0.04948300  0.53968600  1
  O  O34  1  0.68275200  0.45051100  0.74051600  1
  O  O35  1  0.71279500  0.11726800  0.87170200  1
  O  O36  1  0.11282200  0.51728000  0.07171200  1
  O  O37  1  0.51286100  0.91724900  0.27168700  1
  O  O38  1  0.91468600  0.31019300  0.47225800  1
  O  O39  1  0.31071000  0.71858400  0.67153300  1
  O  O40  1  0.73138900  0.55931400  0.17879700  1
  O  O41  1  0.12852000  0.95986100  0.38162200  1
  O  O42  1  0.53204800  0.35734800  0.57821800  1
  O  O43  1  0.93146000  0.75948500  0.77858400  1
  O  O44  1  0.33134700  0.15929200  0.97874200  1
  O  O45  1  0.44068600  0.26861100  0.82120300  1
  O  O46  1  0.84070800  0.66865300  0.02125800  1
  O  O47  1  0.24051500  0.06854000  0.22141600  1
  O  O48  1  0.64265200  0.46795200  0.42178200  1
  O  O49  1  0.04013900  0.87148000  0.61837800  1
  O  O50  1  0.14955600  0.91712500  0.05946600  1
  O  O51  1  0.54948900  0.31724800  0.25948400  1
  O  O52  1  0.95051700  0.72347100  0.46031400  1
  O  O53  1  0.34954800  0.11626800  0.65858600  1
  O  O54  1  0.74952900  0.51717800  0.85946600  1
  O  O55  1  0.88273200  0.28720500  0.12829800  1
  O  O56  1  0.28141600  0.68929000  0.32846700  1
  O  O57  1  0.68980700  0.08531400  0.52774200  1
  O  O58  1  0.08275100  0.48713900  0.72831300  1
  O  O59  1  0.48272000  0.88717800  0.92828800  1
loop_
_geom_bond_atom_site_label_1
_geom_bond_atom_site_label_2
_geom_bond_distance
_geom_bond_site_symmetry_2
La0 O58 2.484633 1_555
La0 O34 2.486999 1_555
La0 O45 2.488654 1_555
La0 O42 2.492270 1_555
La0 O53 2.493687 1_555
La0 O39 2.495985 1_555
La1 O54 2.484306 1_555
La1 O35 2.484458 1_565
La1 O30 2.484553 1_655
La1 O59 2.484951 1_555
La1 O46 2.485179 1_556
La1 O43 2.487113 1_555
La2 O31 2.484306 1_555
La2 O55 2.484458 1_455
La2 O50 2.484553 1_545
La2 O36 2.484951 1_555
La2 O44 2.485179 1_554
La2 O47 2.487113 1_555
La3 O37 2.484633 1_555
La3 O51 2.486999 1_555
La3 O40 2.488654 1_555
La3 O48 2.492270 1_555
La3 O32 2.493687 1_555
La3 O56 2.495985 1_555
Gd0 O41 2.426836 1_645
Gd0 O49 2.426836 1_645
Gd0 O38 2.429346 1_555
Gd0 O57 2.429346 1_555
Gd0 O52 2.429860 1_545
Gd0 O33 2.429860 1_655
B0 O5 1.389786 1_555
B0 O10 1.389786 1_554
B0 O0 1.389893 1_555
B1 O11 1.389702 1_555
B1 O1 1.389810 1_655
B1 O6 1.389986 1_565
B2 O12 1.389493 1_555
B2 O7 1.389751 1_555
B2 O2 1.389853 1_555
B3 O8 1.389493 1_555
B3 O13 1.389751 1_555
B3 O3 1.389853 1_555
B4 O9 1.389702 1_555
B4 O4 1.389810 1_545
B4 O14 1.389986 1_455
B5 O32 1.384277 1_555
B5 O52 1.388339 1_555
B5 O17 1.388982 1_555
B6 O53 1.384277 1_555
B6 O33 1.388339 1_555
B6 O18 1.388982 1_555
B7 O34 1.381890 1_555
B7 O54 1.382535 1_555
B7 O19 1.389230 1_555
B8 O50 1.382212 1_555
B8 O30 1.382212 1_554
B8 O15 1.388992 1_465
B9 O51 1.381890 1_555
B9 O31 1.382535 1_555
B9 O16 1.389230 1_555
B10 O37 1.381925 1_555
B10 O47 1.382717 1_565
B10 O20 1.389167 1_555
B11 O48 1.383571 1_555
B11 O38 1.388361 1_555
B11 O21 1.388565 1_555
B12 O39 1.384202 1_555
B12 O49 1.388206 1_555
B12 O22 1.388928 1_555
B13 O35 1.382444 1_555
B13 O45 1.382575 1_555
B13 O23 1.389514 1_555
B14 O36 1.382178 1_655
B14 O46 1.382231 1_555
B14 O24 1.389058 1_654
B15 O42 1.383571 1_555
B15 O57 1.388361 1_555
B15 O29 1.388565 1_555
B16 O58 1.381920 1_555
B16 O43 1.382722 1_455
B16 O25 1.389167 1_555
B17 O59 1.382178 1_545
B17 O44 1.382231 1_555
B17 O26 1.389058 1_546
B18 O55 1.382444 1_555
B18 O40 1.382575 1_555
B18 O27 1.389514 1_555
B19 O56 1.384202 1_555
B19 O41 1.388206 1_555
B19 O28 1.388928 1_555
O0 Sc0 2.140675 1_555
O0 Sc9 2.140675 1_554
O1 Sc1 2.140134 1_555
O1 Sc5 2.141233 1_555
O2 Sc2 2.139186 1_545
O2 Sc6 2.142841 1_555
O3 Sc7 2.139186 1_655
O3 Sc3 2.142841 1_555
O4 Sc8 2.140134 1_555
O4 Sc4 2.141233 1_555
O5 Sc5 2.140631 1_555
O5 Sc11 2.140785 1_555
O6 Sc12 2.141043 1_655
O6 Sc6 2.141664 1_555
O7 Sc7 2.139684 1_555
O7 Sc13 2.141910 1_555
O8 Sc14 2.139611 1_555
O8 Sc8 2.141185 1_555
O9 Sc9 2.140828 1_455
O9 Sc10 2.141134 1_555
O10 Sc4 2.140631 1_555
O10 Sc10 2.140785 1_555
O11 Sc0 2.140828 1_565
O11 Sc11 2.141134 1_555
O12 Sc12 2.139611 1_555
O12 Sc1 2.141185 1_555
O13 Sc2 2.139684 1_555
O13 Sc13 2.141910 1_555
O14 Sc14 2.141043 1_545
O14 Sc3 2.141664 1_555
O15 Sc9 2.153623 1_554
O15 Sc0 2.153623 1_555
O16 Sc5 2.153593 1_555
O16 Sc1 2.153934 1_555
O17 Sc6 2.148439 1_565
O17 Sc2 2.152379 1_555
O18 Sc3 2.148439 1_455
O18 Sc7 2.152379 1_555
O19 Sc4 2.153593 1_555
O19 Sc8 2.153934 1_555
O20 Sc5 2.153194 1_555
O20 Sc11 2.153619 1_555
O21 Sc12 2.146743 1_655
O21 Sc6 2.147698 1_555
O22 Sc13 2.148779 1_555
O22 Sc7 2.152788 1_555
O23 Sc8 2.154501 1_545
O23 Sc14 2.159571 1_545
O24 Sc9 2.153495 1_455
O24 Sc10 2.153555 1_555
O25 Sc4 2.153194 1_555
O25 Sc10 2.153619 1_555
O26 Sc0 2.153495 1_565
O26 Sc11 2.153555 1_555
O27 Sc1 2.154501 1_655
O27 Sc12 2.159571 1_655
O28 Sc13 2.148779 1_555
O28 Sc2 2.152788 1_555
O29 Sc14 2.146743 1_545
O29 Sc3 2.147698 1_555
O30 Sc4 2.080042 1_555
O31 Sc0 2.080240 1_555
O32 Sc1 2.082670 1_655
O33 Sc2 2.106718 1_545
O34 Sc3 2.082075 1_555
O35 Sc9 2.080225 1_555
O36 Sc5 2.080113 1_555
O37 Sc6 2.081445 1_565
O38 Sc7 2.106760 1_655
O39 Sc8 2.083308 1_555
O40 Sc11 2.080580 1_555
O41 Sc12 2.102631 1_565
O42 Sc13 2.083919 1_555
O43 Sc14 2.084025 1_555
O44 Sc10 2.080090 1_555
O45 Sc10 2.080580 1_555
O46 Sc11 2.080090 1_555
O47 Sc12 2.084025 1_555
O48 Sc13 2.083919 1_555
O49 Sc14 2.102631 1_455
O50 Sc5 2.080042 1_555
O51 Sc6 2.082075 1_555
O52 Sc7 2.106718 1_655
O53 Sc8 2.082670 1_545
O54 Sc9 2.080240 1_555
O55 Sc0 2.080225 1_555
O56 Sc1 2.083308 1_555
O57 Sc2 2.106760 1_545
O58 Sc3 2.081445 1_455
O59 Sc4 2.080113 1_555
