# generated using pymatgen
data_OsPt(N2Cl3)2
_symmetry_space_group_name_H-M   'P 1'
_cell_length_a   7.98919941
_cell_length_b   7.98919941
_cell_length_c   9.10636000
_cell_angle_alpha   90.00000000
_cell_angle_beta   90.00000000
_cell_angle_gamma   90.22176046
_symmetry_Int_Tables_number   1
_chemical_formula_structural   OsPt(N2Cl3)2
_chemical_formula_sum   'Os2 Pt2 N8 Cl12'
_cell_volume   581.23008363
_cell_formula_units_Z   2
loop_
 _symmetry_equiv_pos_site_id
 _symmetry_equiv_pos_as_xyz
  1  'x, y, z'
loop_
 _atom_site_type_symbol
 _atom_site_label
 _atom_site_symmetry_multiplicity
 _atom_site_fract_x
 _atom_site_fract_y
 _atom_site_fract_z
 _atom_site_occupancy
  Os  Os0  1  0.00000000  0.00000000  0.50000000  1
  Os  Os1  1  0.50000000  0.50000000  0.00000000  1
  Pt  Pt0  1  0.50000000  0.50000000  0.50000000  1
  Pt  Pt1  1  0.00000000  0.00000000  0.00000000  1
  N  N0  1  0.56216700  0.66040300  0.65047900  1
  N  N1  1  0.66040300  0.56216700  0.34952100  1
  N  N2  1  0.16040300  0.06216700  0.15047900  1
  N  N3  1  0.06216700  0.16040300  0.84952100  1
  N  N4  1  0.43783300  0.33959700  0.34952100  1
  N  N5  1  0.33959700  0.43783300  0.65047900  1
  N  N6  1  0.83959700  0.93783300  0.84952100  1
  N  N7  1  0.93783300  0.83959700  0.15047900  1
  Cl  Cl0  1  0.27520700  0.01498300  0.58051700  1
  Cl  Cl1  1  0.01498300  0.27520700  0.41948300  1
  Cl  Cl2  1  0.51498300  0.77520700  0.08051700  1
  Cl  Cl3  1  0.77520700  0.51498300  0.91948300  1
  Cl  Cl4  1  0.72479300  0.98501700  0.41948300  1
  Cl  Cl5  1  0.98501700  0.72479300  0.58051700  1
  Cl  Cl6  1  0.48501700  0.22479300  0.91948300  1
  Cl  Cl7  1  0.22479300  0.48501700  0.08051700  1
  Cl  Cl8  1  0.90438800  0.09561200  0.72733300  1
  Cl  Cl9  1  0.09561200  0.90438800  0.27266700  1
  Cl  Cl10  1  0.59561200  0.40438800  0.22733300  1
  Cl  Cl11  1  0.40438800  0.59561200  0.77266700  1
loop_
_geom_bond_atom_site_label_1
_geom_bond_atom_site_label_2
_geom_bond_distance
_geom_bond_site_symmetry_2
N0 Pt0 1.939519 1_555
N1 Pt0 1.939519 1_555
N2 Pt1 1.939519 1_555
N3 Pt1 1.939519 1_556
N4 Pt0 1.939519 1_555
N5 Pt0 1.939519 1_555
N6 Pt1 1.939519 1_666
N7 Pt1 1.939519 1_665
Cl0 Os0 2.320368 1_555
Cl1 Os0 2.320368 1_555
Cl2 Os1 2.320368 1_555
Cl3 Os1 2.320368 1_556
Cl4 Os0 2.320368 1_665
Cl5 Os0 2.320368 1_665
Cl6 Os1 2.320368 1_556
Cl7 Os1 2.320368 1_555
Cl8 N3 1.757809 1_655
Cl8 N6 1.757809 1_545
Cl8 Os0 2.336048 1_655
Cl9 N2 1.757809 1_565
Cl9 N7 1.757809 1_455
Cl9 Os0 2.336048 1_565
Cl10 N4 1.757809 1_555
Cl10 N1 1.757809 1_555
Cl10 Os1 2.336048 1_555
Cl11 N5 1.757809 1_555
Cl11 N0 1.757809 1_555
Cl11 Os1 2.336048 1_556
