# generated using pymatgen
data_MgMnNiS4
_symmetry_space_group_name_H-M   'P 1'
_cell_length_a   7.07500570
_cell_length_b   7.10127683
_cell_length_c   7.09253558
_cell_angle_alpha   59.17760709
_cell_angle_beta   60.05541355
_cell_angle_gamma   60.09883049
_symmetry_Int_Tables_number   1
_chemical_formula_structural   MgMnNiS4
_chemical_formula_sum   'Mg2 Mn2 Ni2 S8'
_cell_volume   250.65513595
_cell_formula_units_Z   2
loop_
 _symmetry_equiv_pos_site_id
 _symmetry_equiv_pos_as_xyz
  1  'x, y, z'
loop_
 _atom_site_type_symbol
 _atom_site_label
 _atom_site_symmetry_multiplicity
 _atom_site_fract_x
 _atom_site_fract_y
 _atom_site_fract_z
 _atom_site_occupancy
  Mg  Mg0  1  0.87175300  0.87815400  0.87837600  1
  Mg  Mg1  1  0.12826400  0.12183900  0.12162200  1
  Mn  Mn0  1  0.49997200  0.50002300  0.00000400  1
  Mn  Mn1  1  0.49997600  0.00001000  0.50002800  1
  Ni  Ni0  1  0.50001400  0.50000700  0.49999200  1
  Ni  Ni1  1  0.99999500  0.49998800  0.50000000  1
  S  S0  1  0.73311600  0.73709100  0.73723400  1
  S  S1  1  0.26798600  0.26375000  0.70035600  1
  S  S2  1  0.26818100  0.70006000  0.26363400  1
  S  S3  1  0.70741900  0.26290500  0.26280600  1
  S  S4  1  0.73183100  0.29993600  0.73633600  1
  S  S5  1  0.29259400  0.73704700  0.73720400  1
  S  S6  1  0.26688100  0.26289700  0.26277400  1
  S  S7  1  0.73202200  0.73628900  0.29963500  1
loop_
_geom_bond_atom_site_label_1
_geom_bond_atom_site_label_2
_geom_bond_distance
_geom_bond_site_symmetry_2
Mg0 S7 2.424630 1_556
Mg0 S4 2.431737 1_565
Mg0 S5 2.439089 1_655
Mg0 S0 2.440312 1_555
Mg1 S1 2.424667 1_554
Mg1 S2 2.431722 1_545
Mg1 S3 2.439109 1_455
Mg1 S6 2.440226 1_555
Mn0 S0 2.347922 1_554
Mn0 S6 2.347945 1_555
Mn0 S5 2.347970 1_554
Mn0 S3 2.348303 1_555
Mn0 S2 2.354031 1_555
Mn0 S4 2.354470 1_554
Mn1 S3 2.349016 1_555
Mn1 S6 2.349071 1_555
Mn1 S0 2.349076 1_545
Mn1 S5 2.349088 1_545
Mn1 S1 2.356779 1_555
Mn1 S7 2.356982 1_545
Ni0 S4 2.345059 1_555
Ni0 S2 2.345233 1_555
Ni0 S1 2.345817 1_555
Ni0 S7 2.345849 1_555
Ni0 S5 2.406669 1_555
Ni0 S3 2.406871 1_555
Ni1 S4 2.345122 1_555
Ni1 S2 2.345331 1_655
Ni1 S7 2.346054 1_555
Ni1 S1 2.346108 1_655
Ni1 S6 2.406788 1_655
Ni1 S0 2.406878 1_555
