# generated using pymatgen
data_LiFe2OF5
_symmetry_space_group_name_H-M   'P 1'
_cell_length_a   4.72774705
_cell_length_b   4.72774705
_cell_length_c   18.44349700
_cell_angle_alpha   90.00000000
_cell_angle_beta   90.00000000
_cell_angle_gamma   90.00411334
_symmetry_Int_Tables_number   1
_chemical_formula_structural   LiFe2OF5
_chemical_formula_sum   'Li4 Fe8 O4 F20'
_cell_volume   412.24152288
_cell_formula_units_Z   4
loop_
 _symmetry_equiv_pos_site_id
 _symmetry_equiv_pos_as_xyz
  1  'x, y, z'
loop_
 _atom_site_type_symbol
 _atom_site_label
 _atom_site_symmetry_multiplicity
 _atom_site_fract_x
 _atom_site_fract_y
 _atom_site_fract_z
 _atom_site_occupancy
  Li  Li0  1  0.00963600  0.98535200  0.75000000  1
  Li  Li1  1  0.98535200  0.00963600  0.25000000  1
  Li  Li2  1  0.48797400  0.48797400  0.50000000  1
  Li  Li3  1  0.48797400  0.48797400  0.00000000  1
  Fe  Fe0  1  0.01540800  0.00830300  0.42036500  1
  Fe  Fe1  1  0.00830300  0.01540800  0.57963500  1
  Fe  Fe2  1  0.00830300  0.01540800  0.92036500  1
  Fe  Fe3  1  0.01540800  0.00830300  0.07963500  1
  Fe  Fe4  1  0.51493700  0.49129900  0.17035600  1
  Fe  Fe5  1  0.49129900  0.51493700  0.67035600  1
  Fe  Fe6  1  0.51493700  0.49129900  0.32964400  1
  Fe  Fe7  1  0.49129900  0.51493700  0.82964400  1
  O  O0  1  0.18630500  0.18630500  0.50000000  1
  O  O1  1  0.18630500  0.18630500  0.00000000  1
  O  O2  1  0.68853800  0.31599400  0.25000000  1
  O  O3  1  0.31599400  0.68853800  0.75000000  1
  F  F0  1  0.19770800  0.20279000  0.33611200  1
  F  F1  1  0.20279000  0.19770800  0.66388800  1
  F  F2  1  0.20279000  0.19770800  0.83611200  1
  F  F3  1  0.19770800  0.20279000  0.16388800  1
  F  F4  1  0.69491600  0.29999500  0.58906500  1
  F  F5  1  0.69759800  0.29703900  0.08610500  1
  F  F6  1  0.69491600  0.29999500  0.91093500  1
  F  F7  1  0.69759800  0.29703900  0.41389500  1
  F  F8  1  0.70246600  0.30090300  0.75000000  1
  F  F9  1  0.30090300  0.70246600  0.25000000  1
  F  F10  1  0.29703900  0.69759800  0.58610500  1
  F  F11  1  0.29999500  0.69491600  0.41093500  1
  F  F12  1  0.29703900  0.69759800  0.91389500  1
  F  F13  1  0.29999500  0.69491600  0.08906500  1
  F  F14  1  0.80516400  0.79985800  0.66096300  1
  F  F15  1  0.79985800  0.80516400  0.33903700  1
  F  F16  1  0.80516400  0.79985800  0.83903700  1
  F  F17  1  0.79985800  0.80516400  0.16096300  1
  F  F18  1  0.79925900  0.79925900  0.50000000  1
  F  F19  1  0.79925900  0.79925900  0.00000000  1
loop_
_geom_bond_atom_site_label_1
_geom_bond_atom_site_label_2
_geom_bond_distance
_geom_bond_site_symmetry_2
Li0 O3 2.016742 1_555
Li1 O2 2.016742 1_555
Li2 O0 2.016900 1_555
Li3 O1 2.016900 1_555
Fe0 O0 1.875666 1_555
Fe1 O0 1.875666 1_555
Fe2 O1 1.875666 1_556
Fe3 O1 1.875666 1_555
Fe4 O2 1.875721 1_555
Fe5 O3 1.875721 1_555
Fe6 O2 1.875721 1_555
Fe7 O3 1.875721 1_555
F0 Fe0 2.000706 1_555
F0 Fe6 2.030705 1_555
F0 Li1 2.089047 1_455
F1 Fe1 2.000706 1_555
F1 Fe5 2.030705 1_555
F1 Li0 2.089047 1_545
F2 Fe2 2.000706 1_555
F2 Fe7 2.030705 1_555
F2 Li0 2.089047 1_545
F3 Fe3 2.000706 1_555
F3 Fe4 2.030705 1_555
F3 Li1 2.089047 1_455
F4 Fe1 2.008972 1_655
F4 Fe5 2.051183 1_555
F4 Li2 2.108439 1_555
F5 Fe4 2.000977 1_555
F5 Fe3 2.033601 1_655
F5 Li3 2.078257 1_555
F6 Fe2 2.008972 1_655
F6 Fe7 2.051183 1_555
F6 Li3 2.108439 1_556
F7 Fe6 2.000977 1_555
F7 Fe0 2.033601 1_655
F7 Li2 2.078257 1_555
F8 Fe7 2.044134 1_555
F8 Fe5 2.044134 1_555
F8 Li0 2.082033 1_645
F9 Fe6 2.044134 1_555
F9 Fe4 2.044134 1_555
F9 Li1 2.082033 1_465
F10 Fe5 2.000977 1_555
F10 Fe1 2.033601 1_565
F10 Li2 2.078257 1_555
F11 Fe0 2.008972 1_565
F11 Fe6 2.051183 1_555
F11 Li2 2.108439 1_555
F12 Fe7 2.000977 1_555
F12 Fe2 2.033601 1_565
F12 Li3 2.078257 1_556
F13 Fe3 2.008972 1_565
F13 Fe4 2.051183 1_555
F13 Li3 2.108439 1_555
F14 Fe5 2.011494 1_555
F14 Fe1 2.051980 1_665
F14 Li0 2.097645 1_655
F15 Fe6 2.011494 1_555
F15 Fe0 2.051980 1_665
F15 Li1 2.097645 1_565
F16 Fe7 2.011494 1_555
F16 Fe2 2.051980 1_665
F16 Li0 2.097645 1_655
F17 Fe4 2.011494 1_555
F17 Fe3 2.051980 1_665
F17 Li1 2.097645 1_565
F18 Fe1 2.044040 1_665
F18 Fe0 2.044040 1_665
F18 Li2 2.081190 1_555
F19 Fe2 2.044040 1_664
F19 Fe3 2.044040 1_665
F19 Li3 2.081190 1_555
