# generated using pymatgen
data_SrZn2(AsO4)2
_symmetry_space_group_name_H-M   'P 1'
_cell_length_a   9.90813000
_cell_length_b   8.74396000
_cell_length_c   9.44062604
_cell_angle_alpha   88.17912553
_cell_angle_beta   90.00000000
_cell_angle_gamma   90.00000000
_symmetry_Int_Tables_number   1
_chemical_formula_structural   SrZn2(AsO4)2
_chemical_formula_sum   'Sr4 Zn8 As8 O32'
_cell_volume   817.48783932
_cell_formula_units_Z   4
loop_
 _symmetry_equiv_pos_site_id
 _symmetry_equiv_pos_as_xyz
  1  'x, y, z'
loop_
 _atom_site_type_symbol
 _atom_site_label
 _atom_site_symmetry_multiplicity
 _atom_site_fract_x
 _atom_site_fract_y
 _atom_site_fract_z
 _atom_site_occupancy
  Sr  Sr0  1  0.91680700  0.25003900  0.61512400  1
  Sr  Sr1  1  0.41680700  0.74996100  0.88487600  1
  Sr  Sr2  1  0.08319300  0.74996100  0.38487600  1
  Sr  Sr3  1  0.58319300  0.25003900  0.11512400  1
  Zn  Zn0  1  0.68606200  0.57763700  0.45040700  1
  Zn  Zn1  1  0.18606200  0.42236300  0.04959300  1
  Zn  Zn2  1  0.31393800  0.42236300  0.54959300  1
  Zn  Zn3  1  0.81393800  0.57763700  0.95040700  1
  Zn  Zn4  1  0.92638000  0.07400500  0.22066800  1
  Zn  Zn5  1  0.42638000  0.92599500  0.27933200  1
  Zn  Zn6  1  0.07362000  0.92599500  0.77933200  1
  Zn  Zn7  1  0.57362000  0.07400500  0.72066800  1
  As  As0  1  0.41654400  0.55835300  0.25043300  1
  As  As1  1  0.91654400  0.44164700  0.24956700  1
  As  As2  1  0.58345600  0.44164700  0.74956700  1
  As  As3  1  0.08345600  0.55835300  0.75043300  1
  As  As4  1  0.20406700  0.04922800  0.06290100  1
  As  As5  1  0.70406700  0.95077200  0.43709900  1
  As  As6  1  0.79593300  0.95077200  0.93709900  1
  As  As7  1  0.29593300  0.04922800  0.56290100  1
  O  O0  1  0.43092100  0.73673400  0.16741100  1
  O  O1  1  0.93092100  0.26326600  0.33258900  1
  O  O2  1  0.56907900  0.26326600  0.83258900  1
  O  O3  1  0.06907900  0.73673400  0.66741100  1
  O  O4  1  0.63320500  0.78343000  0.49915400  1
  O  O5  1  0.13320500  0.21657000  0.00084600  1
  O  O6  1  0.36679500  0.21657000  0.50084600  1
  O  O7  1  0.86679500  0.78343000  0.99915400  1
  O  O8  1  0.70160200  0.43121600  0.61697600  1
  O  O9  1  0.20160200  0.56878400  0.88302400  1
  O  O10  1  0.29839800  0.56878400  0.38302400  1
  O  O11  1  0.79839800  0.43121600  0.11697600  1
  O  O12  1  0.70699200  0.08434500  0.56785600  1
  O  O13  1  0.20699200  0.91565500  0.93214400  1
  O  O14  1  0.29300800  0.91565500  0.43214400  1
  O  O15  1  0.79300800  0.08434500  0.06785600  1
  O  O16  1  0.87518000  0.56457000  0.38272600  1
  O  O17  1  0.37518000  0.43543000  0.11727400  1
  O  O18  1  0.12482000  0.43543000  0.61727400  1
  O  O19  1  0.62482000  0.56457000  0.88272600  1
  O  O20  1  0.89718100  0.02576800  0.80236100  1
  O  O21  1  0.39718100  0.97423200  0.69763900  1
  O  O22  1  0.10281900  0.97423200  0.19763900  1
  O  O23  1  0.60281900  0.02576800  0.30236100  1
  O  O24  1  0.93494800  0.47970700  0.81235800  1
  O  O25  1  0.43494800  0.52029300  0.68764200  1
  O  O26  1  0.06505200  0.52029300  0.18764200  1
  O  O27  1  0.56505200  0.47970700  0.31235800  1
  O  O28  1  0.63153600  0.93026800  0.88044400  1
  O  O29  1  0.13153600  0.06973200  0.61955600  1
  O  O30  1  0.36846400  0.06973200  0.11955600  1
  O  O31  1  0.86846400  0.93026800  0.38044400  1
loop_
_geom_bond_atom_site_label_1
_geom_bond_atom_site_label_2
_geom_bond_distance
_geom_bond_site_symmetry_2
As0 O10 1.718357 1_555
As0 O27 1.718792 1_555
As0 O17 1.728992 1_555
As0 O0 1.729090 1_555
As1 O11 1.718357 1_555
As1 O26 1.718792 1_655
As1 O16 1.728992 1_555
As1 O1 1.729090 1_555
As2 O8 1.718357 1_555
As2 O25 1.718792 1_555
As2 O19 1.728992 1_555
As2 O2 1.729090 1_555
As3 O9 1.718357 1_555
As3 O24 1.718792 1_455
As3 O18 1.728992 1_555
As3 O3 1.729090 1_555
As4 O5 1.709601 1_555
As4 O30 1.725549 1_555
As4 O13 1.726383 1_544
As4 O22 1.732453 1_545
As5 O4 1.709601 1_555
As5 O31 1.725549 1_555
As5 O12 1.726383 1_565
As5 O23 1.732453 1_565
As6 O7 1.709601 1_555
As6 O28 1.725549 1_555
As6 O15 1.726383 1_566
As6 O20 1.732453 1_565
As7 O6 1.709601 1_555
As7 O29 1.725549 1_555
As7 O14 1.726383 1_545
As7 O21 1.732453 1_545
O0 Zn5 1.992039 1_555
O0 Sr1 2.669805 1_554
O1 Zn4 1.992039 1_555
O1 Sr0 2.669805 1_555
O2 Zn7 1.992039 1_555
O2 Sr3 2.669805 1_556
O3 Zn6 1.992039 1_555
O3 Sr2 2.669805 1_555
O4 Zn0 1.943372 1_555
O5 Zn1 1.943372 1_555
O6 Zn2 1.943372 1_555
O7 Zn3 1.943372 1_555
O8 Zn0 2.001933 1_555
O8 Sr0 2.656762 1_555
O9 Zn1 2.001933 1_556
O9 Sr1 2.656762 1_555
O10 Zn2 2.001933 1_555
O10 Sr2 2.656762 1_555
O11 Zn3 2.001933 1_554
O11 Sr3 2.656762 1_555
O12 Zn7 1.956367 1_555
O12 Sr0 2.580895 1_555
O13 Zn6 1.956367 1_555
O13 Sr1 2.580895 1_555
O14 Zn5 1.956367 1_555
O14 Sr2 2.580895 1_555
O15 Zn4 1.956367 1_555
O15 Sr3 2.580895 1_555
O16 Zn0 1.984213 1_555
O16 Sr2 2.622616 1_655
O17 Zn1 1.984213 1_555
O17 Sr3 2.622616 1_555
O18 Zn2 1.984213 1_555
O18 Sr0 2.622616 1_455
O19 Zn3 1.984213 1_555
O19 Sr1 2.622616 1_555
O20 Zn6 1.968897 1_645
O20 Sr0 2.605311 1_555
O21 Zn7 1.968897 1_565
O21 Sr1 2.605311 1_555
O22 Zn4 1.968897 1_465
O22 Sr2 2.605311 1_555
O23 Zn5 1.968897 1_545
O23 Sr3 2.605311 1_555
O24 Zn3 1.985002 1_555
O24 Sr0 2.787459 1_555
O25 Zn2 1.985002 1_555
O25 Sr1 2.787459 1_555
O26 Zn1 1.985002 1_555
O26 Sr2 2.787459 1_555
O27 Zn0 1.985002 1_555
O27 Sr3 2.787459 1_555
O28 Zn7 2.015853 1_565
O28 Sr1 2.647592 1_555
O29 Zn6 2.015853 1_545
O29 Sr0 2.647592 1_455
O30 Zn5 2.015853 1_545
O30 Sr3 2.647592 1_555
O31 Zn4 2.015853 1_565
O31 Sr2 2.647592 1_655
