# generated using pymatgen
data_Li5Fe7O3F13
_symmetry_space_group_name_H-M   'P 1'
_cell_length_a   6.20394600
_cell_length_b   6.21648691
_cell_length_c   10.70332799
_cell_angle_alpha   73.40803713
_cell_angle_beta   73.46011317
_cell_angle_gamma   60.05928760
_symmetry_Int_Tables_number   1
_chemical_formula_structural   Li5Fe7O3F13
_chemical_formula_sum   'Li5 Fe7 O3 F13'
_cell_volume   337.74828228
_cell_formula_units_Z   1
loop_
 _symmetry_equiv_pos_site_id
 _symmetry_equiv_pos_as_xyz
  1  'x, y, z'
loop_
 _atom_site_type_symbol
 _atom_site_label
 _atom_site_symmetry_multiplicity
 _atom_site_fract_x
 _atom_site_fract_y
 _atom_site_fract_z
 _atom_site_occupancy
  Li  Li0  1  0.51866800  0.24902600  0.24966300  1
  Li  Li1  1  0.10650200  0.80804900  0.56717200  1
  Li  Li2  1  0.88960100  0.19271300  0.43742000  1
  Li  Li3  1  0.99469200  0.24313200  0.74598400  1
  Li  Li4  1  0.86903100  0.67975400  0.93611100  1
  Fe  Fe0  1  0.08004000  0.31853800  0.07763900  1
  Fe  Fe1  1  0.50471500  0.99838100  0.00620400  1
  Fe  Fe2  1  0.01499300  0.74757900  0.24733200  1
  Fe  Fe3  1  0.50270600  0.75872800  0.24330200  1
  Fe  Fe4  1  0.51460200  0.50039200  0.50374200  1
  Fe  Fe5  1  0.50791400  0.74237100  0.74308900  1
  Fe  Fe6  1  0.51752500  0.26741200  0.74045100  1
  O  O0  1  0.24907400  0.64532500  0.13019800  1
  O  O1  1  0.70336600  0.09971000  0.13260500  1
  O  O2  1  0.71767600  0.60149700  0.62751200  1
  F  F0  1  0.25442800  0.89009800  0.37279800  1
  F  F1  1  0.24847700  0.12302600  0.12936900  1
  F  F2  1  0.75108000  0.37950700  0.37176800  1
  F  F3  1  0.74738900  0.61941100  0.13297100  1
  F  F4  1  0.76677400  0.86593400  0.36566700  1
  F  F5  1  0.29671900  0.40877800  0.37496300  1
  F  F6  1  0.23999800  0.13431200  0.63101100  1
  F  F7  1  0.23801800  0.36458500  0.86536100  1
  F  F8  1  0.24564800  0.61072600  0.63538300  1
  F  F9  1  0.74237200  0.87986900  0.86381700  1
  F  F10  1  0.74604000  0.11558900  0.63211500  1
  F  F11  1  0.28607600  0.90222300  0.86590300  1
  F  F12  1  0.74587800  0.35333500  0.87044800  1
loop_
_geom_bond_atom_site_label_1
_geom_bond_atom_site_label_2
_geom_bond_distance
_geom_bond_site_symmetry_2
Li0 O1 1.590420 1_555
Li0 O0 2.409816 1_555
Li3 O2 2.308713 1_555
Fe2 O0 1.606823 1_555
Fe2 O1 2.372649 1_465
Fe5 O2 1.598519 1_555
F0 Fe3 1.770825 1_555
F0 Li1 2.050558 1_555
F0 Li2 2.177546 1_465
F0 Fe4 2.425744 1_555
F1 Fe0 1.246213 1_555
F1 Fe1 1.739531 1_545
F1 Fe3 2.248512 1_545
F2 Li2 1.209297 1_555
F2 Fe4 1.743047 1_555
F3 Fe3 1.643182 1_555
F3 Li4 2.018846 1_554
F3 Fe0 2.047379 1_655
F3 Fe1 2.335543 1_555
F4 Fe2 1.675609 1_655
F4 Li0 2.307097 1_565
F5 Li0 1.739277 1_555
F5 Fe2 2.323489 1_555
F6 Li3 1.633866 1_455
F7 Fe6 1.804136 1_555
F7 Fe0 2.201269 1_556
F7 Li4 2.244042 1_455
F7 Fe1 2.427534 1_546
F8 Li1 1.254304 1_555
F8 Fe4 1.819559 1_555
F8 Fe6 2.186426 1_555
F9 Li4 1.258745 1_555
F9 Fe1 1.821219 1_556
F10 Fe6 1.612020 1_555
F10 Li2 2.040734 1_555
F10 Li1 2.178392 1_645
F10 Fe4 2.342949 1_555
F11 Fe5 1.720564 1_555
F11 Li3 2.313010 1_465
F12 Li3 1.709267 1_555
