# generated using pymatgen
data_Li7Mn4CoO12
_symmetry_space_group_name_H-M   'P 1'
_cell_length_a   3.01183100
_cell_length_b   7.83691359
_cell_length_c   10.16327710
_cell_angle_alpha   111.10427026
_cell_angle_beta   91.87023879
_cell_angle_gamma   96.39365555
_symmetry_Int_Tables_number   1
_chemical_formula_structural   Li7Mn4CoO12
_chemical_formula_sum   'Li7 Mn4 Co1 O12'
_cell_volume   221.72097560
_cell_formula_units_Z   1
loop_
 _symmetry_equiv_pos_site_id
 _symmetry_equiv_pos_as_xyz
  1  'x, y, z'
loop_
 _atom_site_type_symbol
 _atom_site_label
 _atom_site_symmetry_multiplicity
 _atom_site_fract_x
 _atom_site_fract_y
 _atom_site_fract_z
 _atom_site_occupancy
  Li  Li0  1  0.16797600  0.33009100  0.90349600  1
  Li  Li1  1  0.81254900  0.66295200  0.59293800  1
  Li  Li2  1  0.49560500  0.99840500  0.25115400  1
  Li  Li3  1  0.83137900  0.66466400  0.07829700  1
  Li  Li4  1  0.51488600  0.01234300  0.74879400  1
  Li  Li5  1  0.17950000  0.33997500  0.42396500  1
  Li  Li6  1  0.64994500  0.32798000  0.67383300  1
  Mn  Mn0  1  0.99480700  0.99390200  0.99570200  1
  Mn  Mn1  1  0.01064000  0.01334500  0.50647300  1
  Mn  Mn2  1  0.34767400  0.67027400  0.33314500  1
  Mn  Mn3  1  0.66779200  0.33126300  0.16624000  1
  Co  Co0  1  0.31676700  0.65120600  0.82567800  1
  O  O0  1  0.61634100  0.16770100  0.96606200  1
  O  O1  1  0.26682500  0.52229700  0.64384100  1
  O  O2  1  0.95693300  0.83641100  0.30232600  1
  O  O3  1  0.28358100  0.50137900  0.13602100  1
  O  O4  1  0.93847500  0.82754500  0.79972200  1
  O  O5  1  0.54763100  0.14777700  0.46583300  1
  O  O6  1  0.72671500  0.51404300  0.87069900  1
  O  O7  1  0.46090500  0.85233500  0.52965700  1
  O  O8  1  0.04308200  0.15982100  0.19815000  1
  O  O9  1  0.38113800  0.82242100  0.02287000  1
  O  O10  1  0.06901600  0.15299400  0.69512400  1
  O  O11  1  0.71983600  0.49887400  0.36997900  1
loop_
_geom_bond_atom_site_label_1
_geom_bond_atom_site_label_2
_geom_bond_distance
_geom_bond_site_symmetry_2
Li0 O10 2.061546 1_555
Li0 O6 2.167821 1_455
Li0 O0 2.181052 1_555
Li0 O6 2.205360 1_555
Li0 O0 2.228250 1_455
Li0 O3 2.250709 1_556
Li1 O1 2.013716 1_655
Li1 O4 2.027625 1_555
Li1 O1 2.060796 1_555
Li1 O11 2.155594 1_555
Li1 O7 2.175112 1_555
Li1 O7 2.559979 1_655
Li2 O5 2.062249 1_565
Li2 O8 2.138874 1_565
Li2 O2 2.141531 1_455
Li2 O2 2.152651 1_555
Li2 O8 2.166443 1_665
Li2 O9 2.222945 1_555
Li3 O6 2.006121 1_554
Li3 O9 2.123623 1_555
Li3 O9 2.166551 1_655
Li3 O3 2.170998 1_655
Li3 O2 2.182266 1_555
Li3 O3 2.199398 1_555
Li4 O10 2.007662 1_555
Li4 O10 2.092986 1_655
Li4 O0 2.094928 1_555
Li4 O7 2.116331 1_545
Li4 O4 2.213854 1_545
Li4 O4 2.327596 1_445
Li5 O5 2.117038 1_555
Li5 O11 2.143554 1_455
Li5 O11 2.144564 1_555
Li5 O1 2.164034 1_555
Li5 O8 2.214750 1_555
Li5 O5 2.438757 1_455
Li6 O6 1.994151 1_555
Li6 O10 2.025306 1_655
Li6 O5 2.066123 1_555
Li6 O1 2.108582 1_555
Li6 O10 2.166276 1_555
Li6 O1 2.367489 1_655
Mn0 O4 1.937632 1_555
Mn0 O9 1.957204 1_656
Mn0 O0 1.965726 1_565
Mn0 O8 1.989240 1_666
Mn0 O9 2.246259 1_556
Mn0 O0 2.283540 1_665
Mn1 O10 1.824502 1_555
Mn1 O5 1.956565 1_455
Mn1 O5 1.968184 1_555
Mn1 O7 2.015228 1_545
Mn1 O2 2.027320 1_445
Mn1 O7 2.040430 1_445
Mn2 O2 1.946577 1_455
Mn2 O3 1.952220 1_555
Mn2 O11 1.967462 1_555
Mn2 O7 1.983925 1_555
Mn2 O2 2.227011 1_555
Mn2 O11 2.315758 1_455
Mn3 O8 1.953476 1_655
Mn3 O3 1.956023 1_555
Mn3 O0 1.965536 1_554
Mn3 O11 2.002964 1_555
Mn3 O3 2.256721 1_655
Mn3 O8 2.289342 1_555
Co0 O1 1.749879 1_555
Co0 O6 1.871425 1_555
Co0 O9 1.958231 1_556
Co0 O4 1.967510 1_455
Co0 O6 2.122469 1_455
Co0 O4 2.281230 1_555
