# generated using pymatgen
data_TiO
_symmetry_space_group_name_H-M   'P 1'
_cell_length_a   10.67232082
_cell_length_b   10.32712318
_cell_length_c   10.85689049
_cell_angle_alpha   87.65174970
_cell_angle_beta   81.74975784
_cell_angle_gamma   85.79985065
_symmetry_Int_Tables_number   1
_chemical_formula_structural   TiO
_chemical_formula_sum   'Ti50 O50'
_cell_volume   1180.45853516
_cell_formula_units_Z   50
loop_
 _symmetry_equiv_pos_site_id
 _symmetry_equiv_pos_as_xyz
  1  'x, y, z'
loop_
 _atom_site_type_symbol
 _atom_site_label
 _atom_site_symmetry_multiplicity
 _atom_site_fract_x
 _atom_site_fract_y
 _atom_site_fract_z
 _atom_site_occupancy
  Ti  Ti0  1  0.32995400  0.27408000  0.16613800  1
  Ti  Ti1  1  0.35361700  0.77671300  0.46158400  1
  Ti  Ti2  1  0.60269300  0.89042400  0.33594600  1
  Ti  Ti3  1  0.93974300  0.97912800  0.85366300  1
  Ti  Ti4  1  0.35082100  0.01078600  0.31184000  1
  Ti  Ti5  1  0.51964300  0.30710800  0.92678000  1
  Ti  Ti6  1  0.36318300  0.75984000  0.18436700  1
  Ti  Ti7  1  0.10176300  0.06318200  0.39890100  1
  Ti  Ti8  1  0.04107400  0.85362700  0.05572500  1
  Ti  Ti9  1  0.16828600  0.06321400  0.13420500  1
  Ti  Ti10  1  0.06795500  0.29697900  0.68369600  1
  Ti  Ti11  1  0.32135900  0.81095700  0.93536800  1
  Ti  Ti12  1  0.12459700  0.82348600  0.31327500  1
  Ti  Ti13  1  0.55580400  0.80714800  0.61283300  1
  Ti  Ti14  1  0.41557000  0.43558200  0.46030800  1
  Ti  Ti15  1  0.07577800  0.47333700  0.86597600  1
  Ti  Ti16  1  0.86742100  0.72518700  0.22841500  1
  Ti  Ti17  1  0.60400000  0.83958700  0.86490300  1
  Ti  Ti18  1  0.34778900  0.66481400  0.70787100  1
  Ti  Ti19  1  0.26143800  0.20466300  0.92517300  1
  Ti  Ti20  1  0.15360000  0.32002000  0.42488200  1
  Ti  Ti21  1  0.48358300  0.47171500  0.18620200  1
  Ti  Ti22  1  0.84622000  0.49474700  0.74164200  1
  Ti  Ti23  1  0.09527100  0.55195300  0.59198800  1
  Ti  Ti24  1  0.10594900  0.77009000  0.79574300  1
  Ti  Ti25  1  0.85480400  0.71471600  0.97094900  1
  Ti  Ti26  1  0.85364200  0.76766600  0.72747900  1
  Ti  Ti27  1  0.02740800  0.47927800  0.12173500  1
  Ti  Ti28  1  0.68721900  0.01952600  0.56523900  1
  Ti  Ti29  1  0.48639700  0.08799600  0.47280800  1
  Ti  Ti30  1  0.45936200  0.01756200  0.04178100  1
  Ti  Ti31  1  0.61945000  0.15851600  0.22024500  1
  Ti  Ti32  1  0.59699100  0.64850600  0.04749900  1
  Ti  Ti33  1  0.92433700  0.03814300  0.58362400  1
  Ti  Ti34  1  0.27902100  0.52801500  0.02568700  1
  Ti  Ti35  1  0.17001200  0.00865100  0.65437200  1
  Ti  Ti36  1  0.92459300  0.50544600  0.41640500  1
  Ti  Ti37  1  0.73196700  0.47632500  0.24215900  1
  Ti  Ti38  1  0.85454700  0.77725600  0.47471300  1
  Ti  Ti39  1  0.18647100  0.54008900  0.28211700  1
  Ti  Ti40  1  0.60458200  0.31587900  0.62469700  1
  Ti  Ti41  1  0.77113100  0.97067100  0.06671800  1
  Ti  Ti42  1  0.62294100  0.57007500  0.49529900  1
  Ti  Ti43  1  0.93354800  0.21815900  0.03328400  1
  Ti  Ti44  1  0.38931300  0.01499100  0.78697900  1
  Ti  Ti45  1  0.85884900  0.98645300  0.31256500  1
  Ti  Ti46  1  0.82068900  0.22787800  0.78495300  1
  Ti  Ti47  1  0.58168600  0.53297400  0.80342400  1
  Ti  Ti48  1  0.30797000  0.23968000  0.66173300  1
  Ti  Ti49  1  0.91053800  0.24983400  0.29562100  1
  O  O0  1  0.27537000  0.67959800  0.34246600  1
  O  O1  1  0.97836000  0.20417700  0.45684900  1
  O  O2  1  0.54962900  0.51118100  0.34441000  1
  O  O3  1  0.63129000  0.34167700  0.18930100  1
  O  O4  1  0.17995000  0.18125200  0.55273400  1
  O  O5  1  0.46638700  0.27115000  0.52989700  1
  O  O6  1  0.21904500  0.16929100  0.28819600  1
  O  O7  1  0.98001500  0.91759100  0.43335900  1
  O  O8  1  0.31860300  0.39806700  0.32185400  1
  O  O9  1  0.81304800  0.12274400  0.94254700  1
  O  O10  1  0.48415300  0.81202900  0.03182500  1
  O  O11  1  0.77938900  0.88511100  0.87920900  1
  O  O12  1  0.04916100  0.39601700  0.29679400  1
  O  O13  1  0.42303400  0.57505900  0.56182500  1
  O  O14  1  0.79103500  0.38419000  0.39344200  1
  O  O15  1  0.28501800  0.00615200  0.96788700  1
  O  O16  1  0.91593700  0.61982800  0.58640900  1
  O  O17  1  0.74996700  0.17741900  0.63832400  1
  O  O18  1  0.57711900  0.95628000  0.72042000  1
  O  O19  1  0.59787800  0.97772400  0.15440600  1
  O  O20  1  0.00500200  0.89055800  0.68325900  1
  O  O21  1  0.35955900  0.04565500  0.61111000  1
  O  O22  1  0.19343500  0.32654200  0.80316900  1
  O  O23  1  0.23787900  0.63740900  0.87929100  1
  O  O24  1  0.47831300  0.37454800  0.75405000  1
  O  O25  1  0.77442300  0.63701000  0.38499000  1
  O  O26  1  0.99617200  0.12532900  0.72902900  1
  O  O27  1  0.99663200  0.66449100  0.07878200  1
  O  O28  1  0.33679400  0.34902500  0.98862400  1
  O  O29  1  0.45928000  0.14163200  0.88511100  1
  O  O30  1  0.54418100  0.74750500  0.44334400  1
  O  O31  1  0.97288300  0.63035200  0.81529000  1
  O  O32  1  0.02887000  0.04324900  0.01488400  1
  O  O33  1  0.22423100  0.40755300  0.56984000  1
  O  O34  1  0.72357100  0.64674300  0.85780400  1
  O  O35  1  0.68935200  0.35949800  0.84998000  1
  O  O36  1  0.66998300  0.07214600  0.38288400  1
  O  O37  1  0.26729300  0.86409900  0.76250000  1
  O  O38  1  0.20105300  0.81408300  0.12171300  1
  O  O39  1  0.19801700  0.69263800  0.61671100  1
  O  O40  1  0.51215200  0.49975500  0.99294000  1
  O  O41  1  0.69650300  0.48042000  0.63719600  1
  O  O42  1  0.94068500  0.34949900  0.85627400  1
  O  O43  1  0.50089500  0.19680000  0.09544200  1
  O  O44  1  0.82083000  0.12691000  0.18419300  1
  O  O45  1  0.48493200  0.72200600  0.79619400  1
  O  O46  1  0.01647400  0.66752100  0.33801900  1
  O  O47  1  0.75110000  0.63123600  0.12422300  1
  O  O48  1  0.22762600  0.92312700  0.44673900  1
  O  O49  1  0.87813600  0.36843600  0.13897600  1
loop_
_geom_bond_atom_site_label_1
_geom_bond_atom_site_label_2
_geom_bond_distance
_geom_bond_site_symmetry_2
O0 Ti39 1.964971 1_555
O0 Ti1 1.978537 1_555
O0 Ti6 2.011656 1_555
O0 Ti12 2.157592 1_555
O1 Ti7 1.951106 1_655
O1 Ti49 2.014012 1_555
O1 Ti33 2.211458 1_555
O1 Ti20 2.270856 1_655
O2 Ti14 1.950958 1_555
O2 Ti21 2.014987 1_555
O2 Ti42 2.045710 1_555
O2 Ti37 2.111613 1_555
O3 Ti31 1.917670 1_555
O3 Ti37 1.969406 1_555
O3 Ti21 1.997736 1_555
O4 Ti20 1.987341 1_555
O4 Ti35 2.058890 1_555
O4 Ti48 2.067483 1_555
O4 Ti10 2.078665 1_555
O4 Ti7 2.385018 1_555
O5 Ti14 1.904225 1_555
O5 Ti29 2.001569 1_555
O5 Ti40 2.005570 1_555
O5 Ti48 2.088200 1_555
O6 Ti7 1.968066 1_555
O6 Ti0 1.986998 1_555
O6 Ti4 2.110720 1_555
O6 Ti9 2.187595 1_555
O6 Ti20 2.201275 1_555
O7 Ti38 2.037975 1_555
O7 Ti45 2.042880 1_555
O7 Ti7 2.046805 1_665
O7 Ti12 2.081333 1_655
O7 Ti33 2.084314 1_565
O8 Ti14 2.008353 1_555
O8 Ti39 2.036073 1_555
O8 Ti20 2.137882 1_555
O8 Ti0 2.146663 1_555
O8 Ti21 2.282057 1_555
O9 Ti46 1.983335 1_555
O9 Ti43 2.055235 1_556
O9 Ti41 2.059189 1_546
O9 Ti3 2.099583 1_545
O10 Ti32 2.017007 1_555
O10 Ti6 2.028587 1_555
O10 Ti17 2.084954 1_554
O10 Ti30 2.124923 1_565
O10 Ti11 2.154357 1_554
O11 Ti17 1.991767 1_555
O11 Ti3 2.008343 1_555
O11 Ti26 2.112101 1_555
O11 Ti25 2.148329 1_555
O11 Ti41 2.239942 1_556
O12 Ti20 2.004856 1_555
O12 Ti36 2.033611 1_455
O12 Ti27 2.090208 1_555
O12 Ti39 2.149294 1_555
O12 Ti49 2.191359 1_455
O13 Ti14 1.862240 1_555
O13 Ti18 1.914198 1_555
O13 Ti42 2.149591 1_555
O13 Ti1 2.426883 1_555
O14 Ti36 2.012693 1_555
O14 Ti37 2.020306 1_555
O14 Ti49 2.037766 1_555
O15 Ti11 2.059862 1_545
O15 Ti19 2.088324 1_555
O15 Ti44 2.116060 1_555
O15 Ti9 2.119876 1_556
O15 Ti30 2.141917 1_556
O16 Ti23 1.997832 1_655
O16 Ti38 2.110311 1_555
O16 Ti22 2.159874 1_555
O16 Ti26 2.206669 1_555
O16 Ti36 2.219068 1_555
O17 Ti46 1.961096 1_555
O17 Ti28 2.038461 1_555
O17 Ti40 2.048778 1_555
O17 Ti33 2.290255 1_555
O18 Ti17 1.979594 1_555
O18 Ti13 2.015695 1_555
O18 Ti28 2.024814 1_565
O18 Ti44 2.085508 1_565
O19 Ti41 1.952243 1_555
O19 Ti30 2.058685 1_565
O19 Ti31 2.066259 1_565
O19 Ti2 2.139345 1_555
O20 Ti33 2.043080 1_465
O20 Ti24 2.063145 1_555
O20 Ti3 2.102372 1_455
O20 Ti26 2.116212 1_455
O20 Ti35 2.193558 1_565
O21 Ti29 1.930736 1_555
O21 Ti44 1.989125 1_555
O21 Ti35 2.069937 1_555
O21 Ti48 2.112320 1_555
O22 Ti19 1.967466 1_555
O22 Ti15 1.974840 1_555
O22 Ti48 2.017505 1_555
O22 Ti10 2.039585 1_555
O23 Ti34 1.993932 1_556
O23 Ti18 2.073309 1_555
O23 Ti24 2.159817 1_555
O23 Ti11 2.203534 1_555
O23 Ti15 2.531001 1_555
O24 Ti40 1.887412 1_555
O24 Ti5 2.069244 1_555
O24 Ti47 2.165000 1_555
O24 Ti48 2.693998 1_555
O25 Ti42 2.016407 1_555
O25 Ti16 2.055562 1_555
O25 Ti38 2.076987 1_555
O25 Ti36 2.081057 1_555
O25 Ti37 2.426167 1_555
O26 Ti10 1.997659 1_655
O26 Ti3 2.050650 1_545
O26 Ti46 2.105575 1_555
O26 Ti33 2.110801 1_555
O26 Ti35 2.207244 1_655
O27 Ti27 1.965370 1_655
O27 Ti8 2.040660 1_655
O27 Ti16 2.060958 1_555
O27 Ti25 2.067495 1_554
O28 Ti19 1.939777 1_555
O28 Ti34 1.944648 1_556
O28 Ti5 1.992563 1_555
O28 Ti0 2.040665 1_556
O29 Ti5 1.961692 1_555
O29 Ti44 1.971969 1_555
O29 Ti30 2.087245 1_556
O29 Ti19 2.151593 1_555
O30 Ti2 1.926900 1_555
O30 Ti13 1.987562 1_555
O30 Ti1 2.016390 1_555
O30 Ti42 2.051328 1_555
O31 Ti15 1.994365 1_655
O31 Ti24 2.081563 1_655
O31 Ti26 2.124216 1_555
O31 Ti25 2.133481 1_555
O31 Ti22 2.259885 1_555
O31 Ti23 2.708554 1_655
O32 Ti8 1.989064 1_545
O32 Ti43 2.009895 1_455
O32 Ti9 2.134137 1_555
O32 Ti3 2.252128 1_444
O33 Ti23 1.951815 1_555
O33 Ti20 2.102153 1_555
O33 Ti48 2.164892 1_555
O33 Ti14 2.242605 1_555
O33 Ti10 2.277111 1_555
O34 Ti47 2.143811 1_555
O34 Ti25 2.161419 1_555
O34 Ti26 2.243636 1_555
O34 Ti22 2.270519 1_555
O34 Ti17 2.283117 1_555
O34 Ti32 2.295169 1_556
O35 Ti46 1.956077 1_555
O35 Ti5 1.985327 1_555
O35 Ti47 2.139213 1_555
O35 Ti22 2.404136 1_555
O36 Ti29 2.058130 1_555
O36 Ti28 2.061671 1_555
O36 Ti31 2.068354 1_555
O36 Ti2 2.162893 1_545
O36 Ti45 2.186606 1_545
O37 Ti24 2.018809 1_555
O37 Ti11 2.082437 1_555
O37 Ti44 2.150628 1_565
O37 Ti35 2.159545 1_565
O37 Ti18 2.240565 1_555
O38 Ti8 1.954484 1_555
O38 Ti6 1.983694 1_555
O38 Ti12 2.125693 1_555
O38 Ti11 2.235261 1_554
O38 Ti9 2.577442 1_565
O39 Ti23 1.932633 1_555
O39 Ti18 1.995110 1_555
O39 Ti24 2.201700 1_555
O39 Ti1 2.374179 1_555
O40 Ti32 1.990657 1_556
O40 Ti21 2.087798 1_556
O40 Ti47 2.107879 1_555
O40 Ti5 2.134884 1_555
O40 Ti34 2.459722 1_556
O41 Ti42 1.992654 1_555
O41 Ti40 2.041930 1_555
O41 Ti47 2.097919 1_555
O41 Ti22 2.104562 1_555
O42 Ti15 2.012468 1_655
O42 Ti46 2.101673 1_555
O42 Ti22 2.191088 1_555
O42 Ti10 2.212386 1_655
O42 Ti43 2.301799 1_556
O43 Ti31 1.991979 1_555
O43 Ti0 1.997327 1_555
O43 Ti30 2.060291 1_555
O43 Ti5 2.109057 1_554
O44 Ti45 2.030150 1_545
O44 Ti43 2.119757 1_555
O44 Ti31 2.131913 1_555
O44 Ti49 2.151257 1_555
O44 Ti41 2.235963 1_545
O45 Ti18 1.996601 1_555
O45 Ti17 2.053773 1_555
O45 Ti47 2.144470 1_555
O45 Ti13 2.197741 1_555
O45 Ti11 2.301360 1_555
O46 Ti12 2.036121 1_555
O46 Ti36 2.090810 1_455
O46 Ti16 2.155812 1_455
O46 Ti39 2.188944 1_555
O46 Ti38 2.363911 1_455
O47 Ti32 1.941328 1_555
O47 Ti37 2.011327 1_555
O47 Ti25 2.056927 1_554
O47 Ti16 2.105112 1_555
O48 Ti1 1.965867 1_555
O48 Ti7 2.005022 1_565
O48 Ti4 2.050905 1_565
O48 Ti12 2.261122 1_555
O48 Ti35 2.434253 1_565
O49 Ti43 1.972733 1_555
O49 Ti27 2.011767 1_655
O49 Ti37 2.067847 1_555
O49 Ti49 2.109053 1_555
