# generated using pymatgen
data_Ca(BiO2)2
_symmetry_space_group_name_H-M   'P 1'
_cell_length_a   7.05927210
_cell_length_b   7.05927210
_cell_length_c   17.30967300
_cell_angle_alpha   90.00000000
_cell_angle_beta   90.00000000
_cell_angle_gamma   120.00000094
_symmetry_Int_Tables_number   1
_chemical_formula_structural   Ca(BiO2)2
_chemical_formula_sum   'Ca6 Bi12 O24'
_cell_volume   747.03222318
_cell_formula_units_Z   6
loop_
 _symmetry_equiv_pos_site_id
 _symmetry_equiv_pos_as_xyz
  1  'x, y, z'
loop_
 _atom_site_type_symbol
 _atom_site_label
 _atom_site_symmetry_multiplicity
 _atom_site_fract_x
 _atom_site_fract_y
 _atom_site_fract_z
 _atom_site_occupancy
  Ca  Ca0  1  0.66666700  0.33333300  0.95641400  1
  Ca  Ca1  1  0.33333300  0.66666700  0.62237500  1
  Ca  Ca2  1  0.00000000  0.00000000  0.66642700  1
  Ca  Ca3  1  0.00000000  0.00000000  0.29164800  1
  Ca  Ca4  1  0.33333300  0.66666700  0.99867300  1
  Ca  Ca5  1  0.33333300  0.66666700  0.37521100  1
  Bi  Bi0  1  0.16945500  0.33891100  0.83475600  1
  Bi  Bi1  1  0.66108900  0.83054500  0.83475600  1
  Bi  Bi2  1  0.83631300  0.67262500  0.50268300  1
  Bi  Bi3  1  0.16945500  0.83054500  0.83475600  1
  Bi  Bi4  1  0.32737500  0.16368700  0.50268300  1
  Bi  Bi5  1  0.66666700  0.33333300  0.33748600  1
  Bi  Bi6  1  0.66666700  0.33333300  0.71122200  1
  Bi  Bi7  1  0.50072500  0.00145000  0.16746100  1
  Bi  Bi8  1  0.83631300  0.16368700  0.50268300  1
  Bi  Bi9  1  0.99855000  0.49927500  0.16746100  1
  Bi  Bi10  1  0.50072500  0.49927500  0.16746100  1
  Bi  Bi11  1  0.00000000  0.00000000  0.04421400  1
  O  O0  1  0.48593600  0.97187200  0.91176000  1
  O  O1  1  0.33333300  0.66666700  0.75894600  1
  O  O2  1  0.02812800  0.51406400  0.91176000  1
  O  O3  1  0.48593600  0.51406400  0.91176000  1
  O  O4  1  0.15389600  0.30779200  0.57903100  1
  O  O5  1  0.84336400  0.15663600  0.75141700  1
  O  O6  1  0.00000000  0.00000000  0.42648100  1
  O  O7  1  0.31327100  0.15663600  0.75141700  1
  O  O8  1  0.00000000  0.00000000  0.91367000  1
  O  O9  1  0.69220800  0.84610400  0.57903100  1
  O  O10  1  0.15389600  0.84610400  0.57903100  1
  O  O11  1  0.84336400  0.68672900  0.75141700  1
  O  O12  1  0.82372000  0.64744000  0.24500600  1
  O  O13  1  0.51082700  0.48917300  0.41747500  1
  O  O14  1  0.97834500  0.48917300  0.41747500  1
  O  O15  1  0.66666700  0.33333300  0.09078400  1
  O  O16  1  0.66666700  0.33333300  0.58074500  1
  O  O17  1  0.35256000  0.17628000  0.24500600  1
  O  O18  1  0.82372000  0.17628000  0.24500600  1
  O  O19  1  0.51082700  0.02165500  0.41747500  1
  O  O20  1  0.17689400  0.82310600  0.08477600  1
  O  O21  1  0.64621100  0.82310600  0.08477600  1
  O  O22  1  0.33333300  0.66666700  0.24268900  1
  O  O23  1  0.17689400  0.35378900  0.08477600  1
loop_
_geom_bond_atom_site_label_1
_geom_bond_atom_site_label_2
_geom_bond_distance
_geom_bond_site_symmetry_2
Ca0 O15 2.325901 1_556
Ca0 O2 2.341077 1_655
Ca0 O0 2.341077 1_545
Ca0 O3 2.341082 1_555
Ca1 O10 2.318718 1_555
Ca1 O4 2.318723 1_555
Ca1 O9 2.318723 1_555
Ca1 O1 2.363999 1_555
Ca2 O9 2.414396 1_445
Ca2 O4 2.414396 1_555
Ca2 O10 2.414396 1_545
Ca2 O11 2.414998 1_445
Ca2 O7 2.414998 1_555
Ca2 O5 2.415002 1_455
Ca3 O17 2.301626 1_555
Ca3 O12 2.301626 1_445
Ca3 O18 2.301626 1_455
Ca3 O6 2.333915 1_555
Ca4 O0 2.396833 1_555
Ca4 O2 2.396833 1_555
Ca4 O3 2.396838 1_555
Ca4 O21 2.424886 1_556
Ca4 O23 2.424886 1_556
Ca4 O20 2.424886 1_556
Ca5 O19 2.290211 1_565
Ca5 O14 2.290211 1_455
Ca5 O13 2.290211 1_555
Ca5 O22 2.293912 1_555
Bi0 O2 2.352526 1_555
Bi0 O3 2.352531 1_555
Bi0 O1 2.395195 1_555
Bi0 O5 2.464492 1_455
Bi0 O7 2.464492 1_555
Bi0 O8 2.481694 1_555
Bi1 O0 2.352526 1_555
Bi1 O3 2.352531 1_555
Bi1 O1 2.395195 1_555
Bi1 O5 2.464492 1_565
Bi1 O11 2.464492 1_555
Bi1 O8 2.481694 1_665
Bi2 O10 2.350930 1_655
Bi2 O9 2.350935 1_555
Bi2 O6 2.396974 1_665
Bi2 O16 2.475559 1_555
Bi2 O14 2.481183 1_555
Bi2 O13 2.481193 1_555
Bi3 O0 2.352531 1_555
Bi3 O2 2.352531 1_555
Bi3 O1 2.395195 1_555
Bi3 O7 2.464492 1_565
Bi3 O11 2.464492 1_455
Bi3 O8 2.481689 1_565
Bi4 O10 2.350930 1_545
Bi4 O4 2.350935 1_555
Bi4 O6 2.396974 1_555
Bi4 O16 2.475559 1_555
Bi4 O19 2.481183 1_555
Bi4 O13 2.481193 1_555
Bi5 O19 2.355376 1_555
Bi5 O14 2.355376 1_555
Bi5 O13 2.355386 1_555
Bi5 O18 2.500014 1_555
Bi5 O12 2.500019 1_555
Bi5 O17 2.500019 1_555
Bi6 O16 2.258514 1_555
Bi6 O5 2.269746 1_555
Bi6 O7 2.269758 1_555
Bi6 O11 2.269758 1_555
Bi7 O18 2.389507 1_555
Bi7 O17 2.389507 1_555
Bi7 O15 2.424525 1_555
Bi7 O22 2.425825 1_545
Bi7 O21 2.445667 1_545
Bi7 O20 2.445672 1_545
Bi8 O4 2.350929 1_655
Bi8 O9 2.350929 1_545
Bi8 O6 2.396969 1_655
Bi8 O16 2.475559 1_555
Bi8 O19 2.481194 1_555
Bi8 O14 2.481194 1_555
Bi9 O18 2.389507 1_555
Bi9 O12 2.389507 1_555
Bi9 O15 2.424525 1_555
Bi9 O22 2.425825 1_655
Bi9 O23 2.445667 1_655
Bi9 O20 2.445672 1_655
Bi10 O12 2.389507 1_555
Bi10 O17 2.389507 1_555
Bi10 O15 2.424530 1_555
Bi10 O22 2.425830 1_555
Bi10 O23 2.445673 1_555
Bi10 O21 2.445673 1_555
Bi11 O8 2.259674 1_554
Bi11 O20 2.273992 1_545
Bi11 O21 2.273998 1_445
Bi11 O23 2.273998 1_555
