# generated using pymatgen
data_MgHg2(IO)6
_symmetry_space_group_name_H-M   'P 1'
_cell_length_a   8.84803075
_cell_length_b   8.84803075
_cell_length_c   13.78847919
_cell_angle_alpha   63.80806020
_cell_angle_beta   63.80806020
_cell_angle_gamma   89.77789055
_symmetry_Int_Tables_number   1
_chemical_formula_structural   MgHg2(IO)6
_chemical_formula_sum   'Mg2 Hg4 I12 O12'
_cell_volume   844.37792050
_cell_formula_units_Z   2
loop_
 _symmetry_equiv_pos_site_id
 _symmetry_equiv_pos_as_xyz
  1  'x, y, z'
loop_
 _atom_site_type_symbol
 _atom_site_label
 _atom_site_symmetry_multiplicity
 _atom_site_fract_x
 _atom_site_fract_y
 _atom_site_fract_z
 _atom_site_occupancy
  Mg  Mg0  1  0.14680300  0.85319700  0.75000000  1
  Mg  Mg1  1  0.85319700  0.14680300  0.25000000  1
  Hg  Hg0  1  0.41672700  0.21937000  0.88819500  1
  Hg  Hg1  1  0.58327300  0.78063000  0.11180500  1
  Hg  Hg2  1  0.78063000  0.58327300  0.61180500  1
  Hg  Hg3  1  0.21937000  0.41672700  0.38819500  1
  I  I0  1  0.67356900  0.47855900  0.86113400  1
  I  I1  1  0.32643100  0.52144100  0.13886600  1
  I  I2  1  0.52144100  0.32643100  0.63886600  1
  I  I3  1  0.47855900  0.67356900  0.36113400  1
  I  I4  1  0.65897500  0.93385700  0.85584400  1
  I  I5  1  0.34102500  0.06614300  0.14415600  1
  I  I6  1  0.06614300  0.34102500  0.64415600  1
  I  I7  1  0.93385700  0.65897500  0.35584400  1
  I  I8  1  0.28213000  0.05039200  0.47316900  1
  I  I9  1  0.71787000  0.94960800  0.52683100  1
  I  I10  1  0.94960800  0.71787000  0.02683100  1
  I  I11  1  0.05039200  0.28213000  0.97316900  1
  O  O0  1  0.34234000  0.06871700  0.58179500  1
  O  O1  1  0.65766000  0.93128300  0.41820500  1
  O  O2  1  0.93128300  0.65766000  0.91820500  1
  O  O3  1  0.06871700  0.34234000  0.08179500  1
  O  O4  1  0.12208600  0.91907800  0.89535500  1
  O  O5  1  0.87791400  0.08092200  0.10464500  1
  O  O6  1  0.08092200  0.87791400  0.60464500  1
  O  O7  1  0.91907800  0.12208600  0.39535500  1
  O  O8  1  0.92155100  0.07844900  0.75000000  1
  O  O9  1  0.07844900  0.92155100  0.25000000  1
  O  O10  1  0.30954000  0.69046000  0.75000000  1
  O  O11  1  0.69046000  0.30954000  0.25000000  1
loop_
_geom_bond_atom_site_label_1
_geom_bond_atom_site_label_2
_geom_bond_distance
_geom_bond_site_symmetry_2
Mg0 O10 2.032378 1_555
Mg0 O0 2.141955 1_565
Mg0 O2 2.141955 1_455
Mg0 O6 2.246763 1_555
Mg0 O4 2.246763 1_555
Mg1 O11 2.032378 1_555
Mg1 O1 2.141955 1_545
Mg1 O3 2.141955 1_655
Mg1 O5 2.246763 1_555
Mg1 O7 2.246763 1_555
Hg0 I2 2.809787 1_555
Hg0 I5 2.905010 1_556
Hg0 I0 3.016531 1_555
Hg0 I11 3.065183 1_555
Hg0 I4 3.359138 1_545
Hg1 I3 2.809787 1_555
Hg1 I4 2.905010 1_554
Hg1 I1 3.016531 1_555
Hg1 I10 3.065183 1_555
Hg1 I5 3.359138 1_565
Hg2 I0 2.809787 1_555
Hg2 I7 2.905010 1_555
Hg2 I2 3.016531 1_555
Hg2 I9 3.065183 1_555
Hg2 I6 3.359138 1_655
Hg3 I1 2.809787 1_555
Hg3 I6 2.905010 1_555
Hg3 I3 3.016531 1_555
Hg3 I8 3.065183 1_555
Hg3 I7 3.359138 1_455
I4 O8 2.132134 1_565
I5 O9 2.132134 1_545
I6 O8 2.132134 1_455
I7 O9 2.132134 1_655
I8 O0 1.863571 1_555
I8 O6 1.874741 1_545
I9 O1 1.863571 1_555
I9 O7 1.874741 1_565
I10 O2 1.863571 1_554
I10 O4 1.874741 1_654
I11 O3 1.863571 1_556
I11 O5 1.874741 1_456
