# generated using pymatgen
data_Li4MnCo2O7
_symmetry_space_group_name_H-M   'P 1'
_cell_length_a   14.89118387
_cell_length_b   14.89118387
_cell_length_c   5.88822552
_cell_angle_alpha   84.13552108
_cell_angle_beta   84.13552108
_cell_angle_gamma   11.21057840
_symmetry_Int_Tables_number   1
_chemical_formula_structural   Li4MnCo2O7
_chemical_formula_sum   'Li8 Mn2 Co4 O14'
_cell_volume   252.50658202
_cell_formula_units_Z   2
loop_
 _symmetry_equiv_pos_site_id
 _symmetry_equiv_pos_as_xyz
  1  'x, y, z'
loop_
 _atom_site_type_symbol
 _atom_site_label
 _atom_site_symmetry_multiplicity
 _atom_site_fract_x
 _atom_site_fract_y
 _atom_site_fract_z
 _atom_site_occupancy
  Li  Li0  1  0.57709100  0.57709100  0.21764200  1
  Li  Li1  1  0.71039000  0.71039000  0.64021300  1
  Li  Li2  1  0.85682600  0.85682600  0.07157300  1
  Li  Li3  1  0.14575900  0.14575900  0.91480900  1
  Li  Li4  1  0.28347000  0.28347000  0.35928300  1
  Li  Li5  1  0.42533900  0.42533900  0.78744900  1
  Li  Li6  1  0.00068700  0.00068700  0.49864800  1
  Li  Li7  1  0.14568700  0.14568700  0.43556600  1
  Mn  Mn0  1  0.00064900  0.00064900  0.00128500  1
  Mn  Mn1  1  0.57737900  0.57737900  0.70742600  1
  Co  Co0  1  0.28326000  0.28326000  0.85575400  1
  Co  Co1  1  0.42590900  0.42590900  0.28601300  1
  Co  Co2  1  0.71038800  0.71038800  0.15132200  1
  Co  Co3  1  0.85572800  0.85572800  0.57521200  1
  O  O0  1  0.50001500  0.50001500  0.22988300  1
  O  O1  1  0.63877400  0.63877400  0.67553800  1
  O  O2  1  0.77746400  0.77746400  0.09646200  1
  O  O3  1  0.07492000  0.07492000  0.93657300  1
  O  O4  1  0.21475000  0.21475000  0.37126500  1
  O  O5  1  0.35340700  0.35340700  0.81655500  1
  O  O6  1  0.92732300  0.92732300  0.52182200  1
  O  O7  1  0.65185800  0.65185800  0.17160200  1
  O  O8  1  0.78594500  0.78594500  0.62491000  1
  O  O9  1  0.92722200  0.92722200  0.05362200  1
  O  O10  1  0.21514700  0.21514700  0.90625400  1
  O  O11  1  0.35704000  0.35704000  0.33415800  1
  O  O12  1  0.50537400  0.50537400  0.76993500  1
  O  O13  1  0.07220000  0.07220000  0.48922600  1
loop_
_geom_bond_atom_site_label_1
_geom_bond_atom_site_label_2
_geom_bond_distance
_geom_bond_site_symmetry_2
Li0 O13 2.155513 1_655
Li0 O13 2.155513 1_565
Li0 O7 2.204811 1_555
Li0 O3 2.209202 1_564
Li0 O3 2.209202 1_654
Li0 O0 2.278258 1_555
Li1 O1 2.111502 1_555
Li1 O4 2.144318 1_565
Li1 O4 2.144318 1_655
Li1 O10 2.152843 1_655
Li1 O10 2.152843 1_565
Li1 O8 2.231997 1_555
Li2 O9 2.078344 1_555
Li2 O5 2.100447 1_654
Li2 O5 2.100447 1_564
Li2 O11 2.123255 1_655
Li2 O11 2.123255 1_565
Li2 O2 2.341782 1_555
Li3 O1 2.050184 1_545
Li3 O1 2.050184 1_455
Li3 O10 2.052098 1_555
Li3 O3 2.090399 1_555
Li3 O7 2.119119 1_456
Li3 O7 2.119119 1_546
Li4 O4 2.030828 1_555
Li4 O8 2.142618 1_545
Li4 O8 2.142618 1_455
Li4 O2 2.144462 1_545
Li4 O2 2.144462 1_455
Li4 O11 2.170418 1_555
Li5 O5 2.121327 1_555
Li5 O6 2.132239 1_545
Li5 O6 2.132239 1_455
Li5 O9 2.143132 1_546
Li5 O9 2.143132 1_456
Li5 O12 2.363873 1_555
Li6 O13 2.114667 1_555
Li6 O0 2.151018 1_545
Li6 O0 2.151018 1_455
Li6 O6 2.164756 1_445
Li6 O12 2.175339 1_455
Li6 O12 2.175339 1_545
Li7 O1 2.023532 1_455
Li7 O1 2.023532 1_545
Li7 O4 2.043164 1_555
Li7 O7 2.122832 1_455
Li7 O7 2.122832 1_545
Li7 O13 2.168609 1_555
Mn0 O0 1.980536 1_545
Mn0 O0 1.980536 1_455
Mn0 O12 1.987886 1_454
Mn0 O12 1.987886 1_544
Mn0 O9 2.166530 1_445
Mn0 O3 2.195238 1_554
Mn1 O1 1.810130 1_555
Mn1 O13 1.957128 1_565
Mn1 O13 1.957128 1_655
Mn1 O3 1.980201 1_655
Mn1 O3 1.980201 1_565
Mn1 O12 2.128167 1_555
Co0 O8 1.986772 1_545
Co0 O8 1.986772 1_455
Co0 O10 2.010218 1_555
Co0 O2 2.025815 1_456
Co0 O2 2.025815 1_546
Co0 O5 2.068240 1_555
Co1 O9 1.994635 1_545
Co1 O9 1.994635 1_455
Co1 O6 2.014244 1_455
Co1 O6 2.014244 1_545
Co1 O11 2.031833 1_555
Co1 O0 2.187414 1_555
Co2 O7 1.726658 1_555
Co2 O4 1.960577 1_565
Co2 O4 1.960577 1_655
Co2 O2 1.981196 1_555
Co2 O10 2.043513 1_654
Co2 O10 2.043513 1_564
Co3 O5 2.029700 1_655
Co3 O5 2.029700 1_565
Co3 O11 2.029869 1_655
Co3 O11 2.029869 1_565
Co3 O8 2.059001 1_555
Co3 O6 2.113064 1_555
