# generated using pymatgen
data_VO2
_symmetry_space_group_name_H-M   'P 1'
_cell_length_a   3.03283931
_cell_length_b   8.77279649
_cell_length_c   10.53694985
_cell_angle_alpha   89.14269922
_cell_angle_beta   89.98777520
_cell_angle_gamma   90.04803071
_symmetry_Int_Tables_number   1
_chemical_formula_structural   VO2
_chemical_formula_sum   'V8 O16'
_cell_volume   280.31967906
_cell_formula_units_Z   8
loop_
 _symmetry_equiv_pos_site_id
 _symmetry_equiv_pos_as_xyz
  1  'x, y, z'
loop_
 _atom_site_type_symbol
 _atom_site_label
 _atom_site_symmetry_multiplicity
 _atom_site_fract_x
 _atom_site_fract_y
 _atom_site_fract_z
 _atom_site_occupancy
  V  V0  1  0.25347200  0.92911600  0.89446100  1
  V  V1  1  0.75358100  0.07046700  0.10538600  1
  V  V2  1  0.76305100  0.06465600  0.60888700  1
  V  V3  1  0.25166700  0.43033800  0.10687800  1
  V  V4  1  0.70010700  0.56431700  0.38518400  1
  V  V5  1  0.19865000  0.43580500  0.61499200  1
  V  V6  1  0.26328500  0.93555800  0.39149700  1
  V  V7  1  0.75167500  0.56972300  0.89264900  1
  O  O0  1  0.27494700  0.71553200  0.35907600  1
  O  O1  1  0.77489900  0.28468600  0.64173800  1
  O  O2  1  0.75322900  0.79094900  0.86291200  1
  O  O3  1  0.25401000  0.20865100  0.13592600  1
  O  O4  1  0.25268000  0.61148500  0.01666300  1
  O  O5  1  0.75205400  0.38854400  0.98308200  1
  O  O6  1  0.76582500  0.88850800  0.51599800  1
  O  O7  1  0.26659200  0.11183000  0.48437800  1
  O  O8  1  0.76286400  0.98559800  0.27954200  1
  O  O9  1  0.26233400  0.01486400  0.72062000  1
  O  O10  1  0.25127900  0.52238100  0.78352300  1
  O  O11  1  0.75157400  0.47741400  0.21659500  1
  O  O12  1  0.25431500  0.92345000  0.07031000  1
  O  O13  1  0.75525700  0.07588400  0.92950900  1
  O  O14  1  0.71659600  0.56714900  0.57400500  1
  O  O15  1  0.21605700  0.43309500  0.42619100  1
loop_
_geom_bond_atom_site_label_1
_geom_bond_atom_site_label_2
_geom_bond_distance
_geom_bond_site_symmetry_2
O0 V4 1.868221 1_555
O0 V6 1.965613 1_555
O0 V4 2.204523 1_455
O1 V5 1.863992 1_655
O1 V2 1.966461 1_555
O1 V5 2.210038 1_555
O2 V7 1.961270 1_555
O2 V0 1.972480 1_655
O2 V0 1.972800 1_555
O3 V3 1.964243 1_555
O3 V1 1.970598 1_555
O3 V1 1.971142 1_455
O4 V3 1.839529 1_555
O4 V7 2.036289 1_554
O4 V7 2.040782 1_454
O5 V7 1.840929 1_555
O5 V3 2.036215 1_656
O5 V3 2.038005 1_556
O6 V2 1.841553 1_565
O6 V6 2.037028 1_655
O6 V6 2.049391 1_555
O7 V6 1.842426 1_545
O7 V2 2.035972 1_555
O7 V2 2.050981 1_455
O8 V6 1.965351 1_555
O8 V6 1.968275 1_655
O8 V1 1.970227 1_565
O9 V2 1.963752 1_455
O9 V2 1.966155 1_555
O9 V0 1.969933 1_545
O10 V5 1.948356 1_555
O10 V7 1.950679 1_455
O10 V7 1.952386 1_555
O11 V4 1.949832 1_555
O11 V3 1.954417 1_555
O11 V3 1.955009 1_655
O12 V0 1.852837 1_554
O12 V1 2.025850 1_565
O12 V1 2.030677 1_465
O13 V1 1.853111 1_556
O13 V0 2.023512 1_645
O13 V0 2.030115 1_545
O14 V5 1.907834 1_655
O14 V4 1.990763 1_555
O14 V5 1.990867 1_555
O15 V4 1.910260 1_555
O15 V4 1.987191 1_455
O15 V5 1.990574 1_555
