# generated using pymatgen
data_Li7Mn4CoO12
_symmetry_space_group_name_H-M   'P 1'
_cell_length_a   6.78212637
_cell_length_b   6.78212637
_cell_length_c   11.75907312
_cell_angle_alpha   77.98061639
_cell_angle_beta   77.98061639
_cell_angle_gamma   24.47090582
_symmetry_Int_Tables_number   1
_chemical_formula_structural   Li7Mn4CoO12
_chemical_formula_sum   'Li7 Mn4 Co1 O12'
_cell_volume   218.90582245
_cell_formula_units_Z   1
loop_
 _symmetry_equiv_pos_site_id
 _symmetry_equiv_pos_as_xyz
  1  'x, y, z'
loop_
 _atom_site_type_symbol
 _atom_site_label
 _atom_site_symmetry_multiplicity
 _atom_site_fract_x
 _atom_site_fract_y
 _atom_site_fract_z
 _atom_site_occupancy
  Li  Li0  1  0.66312400  0.66312400  0.07729800  1
  Li  Li1  1  0.00166800  0.00166800  0.24966400  1
  Li  Li2  1  0.33315800  0.33315800  0.41802800  1
  Li  Li3  1  0.32972900  0.32972900  0.91425500  1
  Li  Li4  1  0.00373200  0.00373200  0.75139400  1
  Li  Li5  1  0.66854300  0.66854300  0.58888300  1
  Li  Li6  1  0.66769900  0.66769900  0.83219000  1
  Mn  Mn0  1  0.01158700  0.01158700  0.99345100  1
  Mn  Mn1  1  0.32451300  0.32451300  0.67076000  1
  Mn  Mn2  1  0.33625400  0.33625400  0.16459200  1
  Mn  Mn3  1  0.66355000  0.66355000  0.33626800  1
  Co  Co0  1  0.99491500  0.99491500  0.50349000  1
  O  O0  1  0.50431800  0.50431800  0.10940000  1
  O  O1  1  0.83939600  0.83939600  0.27804600  1
  O  O2  1  0.16551100  0.16551100  0.44914100  1
  O  O3  1  0.15233600  0.15233600  0.96208900  1
  O  O4  1  0.83622600  0.83622600  0.77795900  1
  O  O5  1  0.48873400  0.48873400  0.61652300  1
  O  O6  1  0.84341300  0.84341300  0.04750500  1
  O  O7  1  0.16330200  0.16330200  0.22176500  1
  O  O8  1  0.49353900  0.49353900  0.39290800  1
  O  O9  1  0.49932200  0.49932200  0.88650900  1
  O  O10  1  0.18335400  0.18335400  0.70292700  1
  O  O11  1  0.83207900  0.83207900  0.55495700  1
loop_
_geom_bond_atom_site_label_1
_geom_bond_atom_site_label_2
_geom_bond_distance
_geom_bond_site_symmetry_2
Li0 O3 2.001073 1_654
Li0 O3 2.001073 1_564
Li0 O0 2.058036 1_555
Li0 O7 2.225658 1_655
Li0 O7 2.225658 1_565
Li0 O6 2.340451 1_555
Li1 O7 2.097375 1_555
Li1 O1 2.105390 1_445
Li1 O0 2.182408 1_455
Li1 O0 2.182408 1_545
Li1 O8 2.199419 1_545
Li1 O8 2.199419 1_455
Li2 O8 2.083179 1_555
Li2 O11 2.156137 1_455
Li2 O11 2.156137 1_545
Li2 O1 2.173537 1_455
Li2 O1 2.173537 1_545
Li2 O2 2.173983 1_555
Li3 O4 2.140844 1_545
Li3 O4 2.140844 1_455
Li3 O6 2.162204 1_546
Li3 O6 2.162204 1_456
Li3 O9 2.201824 1_555
Li3 O3 2.298362 1_555
Li4 O9 2.134041 1_455
Li4 O9 2.134041 1_545
Li4 O4 2.175436 1_445
Li4 O5 2.180617 1_545
Li4 O5 2.180617 1_455
Li4 O10 2.327251 1_555
Li5 O10 2.003772 1_655
Li5 O10 2.003772 1_565
Li5 O11 2.119006 1_555
Li5 O2 2.189958 1_565
Li5 O2 2.189958 1_655
Li5 O5 2.336002 1_555
Li6 O10 2.070025 1_655
Li6 O10 2.070025 1_565
Li6 O3 2.075587 1_655
Li6 O3 2.075587 1_565
Li6 O9 2.186862 1_555
Li6 O4 2.188691 1_555
Mn0 O3 1.823166 1_555
Mn0 O9 1.939303 1_545
Mn0 O9 1.939303 1_455
Mn0 O0 1.969321 1_546
Mn0 O0 1.969321 1_456
Mn0 O6 2.184052 1_446
Mn1 O10 1.828364 1_555
Mn1 O4 1.939706 1_455
Mn1 O4 1.939706 1_545
Mn1 O11 1.967767 1_545
Mn1 O11 1.967767 1_455
Mn1 O5 2.134039 1_555
Mn2 O1 1.967537 1_455
Mn2 O1 1.967537 1_545
Mn2 O6 1.978616 1_455
Mn2 O6 1.978616 1_545
Mn2 O0 2.183681 1_555
Mn2 O7 2.247548 1_555
Mn3 O2 1.960353 1_655
Mn3 O2 1.960353 1_565
Mn3 O7 1.969962 1_655
Mn3 O7 1.969962 1_565
Mn3 O8 2.209758 1_555
Mn3 O1 2.285246 1_555
Co0 O8 1.940942 1_655
Co0 O8 1.940942 1_565
Co0 O5 1.947538 1_655
Co0 O5 1.947538 1_565
Co0 O11 2.113999 1_555
Co0 O2 2.215095 1_665
