# generated using pymatgen
data_K3Na5V2(MoO4)6
_symmetry_space_group_name_H-M   'P 1'
_cell_length_a   7.85527000
_cell_length_b   7.88604495
_cell_length_c   7.88962895
_cell_angle_alpha   89.87161931
_cell_angle_beta   90.00000000
_cell_angle_gamma   90.00000000
_symmetry_Int_Tables_number   1
_chemical_formula_structural   K3Na5V2(MoO4)6
_chemical_formula_sum   'K3 Na5 V2 Mo6 O24'
_cell_volume   488.73771487
_cell_formula_units_Z   1
loop_
 _symmetry_equiv_pos_site_id
 _symmetry_equiv_pos_as_xyz
  1  'x, y, z'
loop_
 _atom_site_type_symbol
 _atom_site_label
 _atom_site_symmetry_multiplicity
 _atom_site_fract_x
 _atom_site_fract_y
 _atom_site_fract_z
 _atom_site_occupancy
  K  K0  1  0.25000000  0.74298700  0.25713400  1
  K  K1  1  0.75000000  0.25699100  0.25733600  1
  K  K2  1  0.75000000  0.74273700  0.25744600  1
  Na  Na0  1  0.25000000  0.26086400  0.26115000  1
  Na  Na1  1  0.25000000  0.26071200  0.73931700  1
  Na  Na2  1  0.25000000  0.73906700  0.73942200  1
  Na  Na3  1  0.75000000  0.26099800  0.73939400  1
  Na  Na4  1  0.75000000  0.73891600  0.73928000  1
  V  V0  1  0.00113600  0.49785000  0.50624300  1
  V  V1  1  0.49886400  0.49785000  0.50624300  1
  Mo  Mo0  1  0.00055000  0.00056400  0.99841300  1
  Mo  Mo1  1  0.00067400  0.00027500  0.50242700  1
  Mo  Mo2  1  0.00065900  0.49920300  0.99907900  1
  Mo  Mo3  1  0.49945000  0.00056400  0.99841300  1
  Mo  Mo4  1  0.49932600  0.00027500  0.50242700  1
  Mo  Mo5  1  0.49934100  0.49920300  0.99907900  1
  O  O0  1  0.25000000  0.00173500  0.99706800  1
  O  O1  1  0.25000000  0.00208700  0.50449700  1
  O  O2  1  0.25000000  0.49817300  0.99459500  1
  O  O3  1  0.25000000  0.49698800  0.50462600  1
  O  O4  1  0.75000000  0.00062600  0.99574100  1
  O  O5  1  0.75000000  0.00140100  0.50542200  1
  O  O6  1  0.75000000  0.49892100  0.99391200  1
  O  O7  1  0.75000000  0.49911400  0.50726300  1
  O  O8  1  0.00200200  0.25458600  0.99517100  1
  O  O9  1  0.00265400  0.24882300  0.50435700  1
  O  O10  1  0.00075300  0.74467800  0.99366100  1
  O  O11  1  0.00103900  0.75272900  0.50617300  1
  O  O12  1  0.49799800  0.25458600  0.99517100  1
  O  O13  1  0.49734600  0.24882300  0.50435700  1
  O  O14  1  0.49924700  0.74467800  0.99366100  1
  O  O15  1  0.49896100  0.75272900  0.50617300  1
  O  O16  1  0.00240600  0.00278200  0.25617200  1
  O  O17  1  0.00086500  0.00124800  0.74601900  1
  O  O18  1  0.00305300  0.49712400  0.24535400  1
  O  O19  1  0.00123300  0.49897900  0.75013000  1
  O  O20  1  0.49759400  0.00278200  0.25617200  1
  O  O21  1  0.49913500  0.00124800  0.74601900  1
  O  O22  1  0.49694700  0.49712400  0.24535400  1
  O  O23  1  0.49876700  0.49897900  0.75013000  1
loop_
_geom_bond_atom_site_label_1
_geom_bond_atom_site_label_2
_geom_bond_distance
_geom_bond_site_symmetry_2
K0 O22 2.744392 1_555
K0 O18 2.744392 1_555
K0 O3 2.749398 1_555
K0 O11 2.773393 1_555
K0 O15 2.773393 1_555
K0 O20 2.824905 1_565
K0 O16 2.824905 1_565
K0 O1 2.828708 1_565
K0 O2 2.834717 1_554
K0 O10 2.855599 1_554
K0 O14 2.855599 1_554
K0 O0 2.890476 1_564
K1 O18 2.746922 1_655
K1 O22 2.746922 1_555
K1 O7 2.747867 1_555
K1 O9 2.782213 1_655
K1 O13 2.782213 1_555
K1 O5 2.806419 1_555
K1 O6 2.818086 1_554
K1 O16 2.819605 1_655
K1 O20 2.819605 1_555
K1 O8 2.863100 1_654
K1 O12 2.863100 1_554
K1 O4 2.892339 1_554
K2 O7 2.749331 1_555
K2 O18 2.777214 1_655
K2 O22 2.777214 1_555
K2 O15 2.783249 1_555
K2 O11 2.783249 1_655
K2 O5 2.829570 1_565
K2 O6 2.835114 1_554
K2 O16 2.852482 1_665
K2 O20 2.852482 1_565
K2 O10 2.865517 1_654
K2 O14 2.865517 1_554
K2 O4 2.894897 1_564
Na0 O3 2.678317 1_555
Na0 O22 2.692361 1_555
Na0 O18 2.692361 1_555
Na0 O13 2.732247 1_555
Na0 O9 2.732247 1_555
Na0 O1 2.798766 1_555
Na0 O2 2.811993 1_554
Na0 O20 2.815463 1_555
Na0 O16 2.815463 1_555
Na0 O8 2.863839 1_554
Na0 O12 2.863839 1_554
Na0 O0 2.921642 1_554
Na1 O3 2.623905 1_555
Na1 O13 2.687207 1_555
Na1 O9 2.687207 1_555
Na1 O23 2.712418 1_555
Na1 O19 2.712418 1_555
Na1 O2 2.753185 1_555
Na1 O1 2.758422 1_555
Na1 O8 2.805650 1_555
Na1 O12 2.805650 1_555
Na1 O17 2.831776 1_555
Na1 O21 2.831776 1_555
Na1 O0 2.878847 1_555
Na2 O3 2.663060 1_555
Na2 O11 2.687345 1_555
Na2 O15 2.687345 1_555
Na2 O23 2.722096 1_555
Na2 O19 2.722096 1_555
Na2 O2 2.764920 1_555
Na2 O1 2.778557 1_565
Na2 O14 2.803422 1_555
Na2 O10 2.803422 1_555
Na2 O21 2.847451 1_565
Na2 O17 2.847451 1_565
Na2 O0 2.905445 1_565
Na3 O7 2.620081 1_555
Na3 O9 2.718004 1_655
Na3 O13 2.718004 1_555
Na3 O19 2.724833 1_655
Na3 O23 2.724833 1_555
Na3 O6 2.751282 1_555
Na3 O5 2.759615 1_555
Na3 O12 2.827182 1_555
Na3 O8 2.827182 1_655
Na3 O17 2.842799 1_655
Na3 O21 2.842799 1_555
Na3 O4 2.878869 1_555
Na4 O7 2.634875 1_555
Na4 O11 2.698529 1_655
Na4 O15 2.698529 1_555
Na4 O19 2.735245 1_655
Na4 O23 2.735245 1_555
Na4 O6 2.756960 1_555
Na4 O5 2.769815 1_565
Na4 O14 2.812518 1_555
Na4 O10 2.812518 1_655
Na4 O17 2.857693 1_665
Na4 O21 2.857693 1_565
Na4 O4 2.893492 1_565
Mo0 O0 1.959547 1_555
Mo0 O4 1.968251 1_455
Mo0 O17 1.991292 1_555
Mo0 O8 2.003367 1_555
Mo0 O10 2.018361 1_545
Mo0 O16 2.033790 1_556
Mo1 O17 1.921884 1_555
Mo1 O16 1.942965 1_555
Mo1 O11 1.952318 1_545
Mo1 O1 1.958644 1_555
Mo1 O9 1.960216 1_555
Mo1 O5 1.969274 1_455
Mo2 O8 1.929405 1_555
Mo2 O10 1.936203 1_555
Mo2 O18 1.943142 1_556
Mo2 O2 1.958978 1_555
Mo2 O19 1.964125 1_555
Mo2 O6 1.969417 1_455
Mo3 O0 1.959547 1_555
Mo3 O4 1.968251 1_555
Mo3 O21 1.991292 1_555
Mo3 O12 2.003367 1_555
Mo3 O14 2.018361 1_545
Mo3 O20 2.033790 1_556
Mo4 O21 1.921884 1_555
Mo4 O20 1.942965 1_555
Mo4 O15 1.952318 1_545
Mo4 O1 1.958644 1_555
Mo4 O13 1.960216 1_555
Mo4 O5 1.969274 1_555
Mo5 O12 1.929405 1_555
Mo5 O14 1.936203 1_555
Mo5 O22 1.943142 1_556
Mo5 O2 1.958978 1_555
Mo5 O23 1.964125 1_555
Mo5 O6 1.969417 1_555
O3 V1 1.954947 1_555
O3 V0 1.954947 1_555
O7 V0 1.972783 1_655
O7 V1 1.972783 1_555
O9 V0 1.963964 1_555
O11 V0 2.009986 1_555
O13 V1 1.963964 1_555
O15 V1 2.009986 1_555
O18 V0 2.058393 1_555
O19 V0 1.924219 1_555
O22 V1 2.058393 1_555
O23 V1 1.924219 1_555
