# generated using pymatgen
data_Na2SnH14S3O7
_symmetry_space_group_name_H-M   'P 1'
_cell_length_a   7.23099682
_cell_length_b   9.72810091
_cell_length_c   10.32219732
_cell_angle_alpha   92.44862557
_cell_angle_beta   92.07389482
_cell_angle_gamma   107.49243057
_symmetry_Int_Tables_number   1
_chemical_formula_structural   Na2SnH14S3O7
_chemical_formula_sum   'Na4 Sn2 H28 S6 O14'
_cell_volume   690.97699237
_cell_formula_units_Z   2
loop_
 _symmetry_equiv_pos_site_id
 _symmetry_equiv_pos_as_xyz
  1  'x, y, z'
loop_
 _atom_site_type_symbol
 _atom_site_label
 _atom_site_symmetry_multiplicity
 _atom_site_fract_x
 _atom_site_fract_y
 _atom_site_fract_z
 _atom_site_occupancy
  Na  Na0  1  0.19510300  0.14190000  0.55282200  1
  Na  Na1  1  0.80489700  0.85810000  0.44717800  1
  Na  Na2  1  0.40466400  0.02937800  0.84662900  1
  Na  Na3  1  0.59533600  0.97062200  0.15337100  1
  Sn  Sn0  1  0.07339600  0.41180400  0.11993200  1
  Sn  Sn1  1  0.92660400  0.58819600  0.88006800  1
  H  H0  1  0.06039800  0.07264100  0.28548600  1
  H  H1  1  0.93960200  0.92735900  0.71451400  1
  H  H2  1  0.24001700  0.74865500  0.22987300  1
  H  H3  1  0.75998300  0.25134500  0.77012700  1
  H  H4  1  0.07815000  0.66660400  0.43312600  1
  H  H5  1  0.92185000  0.33339600  0.56687400  1
  H  H6  1  0.45293300  0.31574800  0.74824500  1
  H  H7  1  0.54706700  0.68425200  0.25175500  1
  H  H8  1  0.56499900  0.35299000  0.49989200  1
  H  H9  1  0.43500100  0.64701000  0.50010800  1
  H  H10  1  0.32985900  0.15858800  0.07988600  1
  H  H11  1  0.67014100  0.84141200  0.92011400  1
  H  H12  1  0.44782200  0.33610000  0.36762900  1
  H  H13  1  0.55217800  0.66390000  0.63237100  1
  H  H14  1  0.55406800  0.09805700  0.39278200  1
  H  H15  1  0.44593200  0.90194300  0.60721800  1
  H  H16  1  0.04174800  0.35762200  0.44201600  1
  H  H17  1  0.95825200  0.64237800  0.55798400  1
  H  H18  1  0.25837100  0.29928100  0.81323000  1
  H  H19  1  0.74162900  0.70071900  0.18677000  1
  H  H20  1  0.77473700  0.13743400  0.40840100  1
  H  H21  1  0.22526300  0.86256600  0.59159900  1
  H  H22  1  0.55130600  0.24013100  0.06377500  1
  H  H23  1  0.44869400  0.75986900  0.93622500  1
  H  H24  1  0.14592100  0.94650800  0.30895100  1
  H  H25  1  0.85407900  0.05349200  0.69104900  1
  H  H26  1  0.16883200  0.83383900  0.12023600  1
  H  H27  1  0.83116800  0.16616100  0.87976400  1
  S  S0  1  0.01013500  0.16133600  0.08932400  1
  S  S1  1  0.98986500  0.83866400  0.91067600  1
  S  S2  1  0.24221400  0.53798100  0.31357100  1
  S  S3  1  0.75778600  0.46201900  0.68642900  1
  S  S4  1  0.77158400  0.47768300  0.07792800  1
  S  S5  1  0.22841600  0.52231700  0.92207200  1
  O  O0  1  0.66039300  0.05830900  0.37387800  1
  O  O1  1  0.33960700  0.94169100  0.62612200  1
  O  O2  1  0.02752300  0.71854600  0.50129700  1
  O  O3  1  0.97247700  0.28145400  0.49870300  1
  O  O4  1  0.47205300  0.28172900  0.44042700  1
  O  O5  1  0.52794700  0.71827100  0.55957300  1
  O  O6  1  0.08318700  0.01145600  0.35469300  1
  O  O7  1  0.91681300  0.98854400  0.64530700  1
  O  O8  1  0.25098900  0.84701300  0.20121000  1
  O  O9  1  0.74901100  0.15298700  0.79879000  1
  O  O10  1  0.32576900  0.24451400  0.76071500  1
  O  O11  1  0.67423100  0.75548600  0.23928500  1
  O  O12  1  0.45697900  0.14320800  0.06329500  1
  O  O13  1  0.54302100  0.85679200  0.93670500  1
loop_
_geom_bond_atom_site_label_1
_geom_bond_atom_site_label_2
_geom_bond_distance
_geom_bond_site_symmetry_2
Na0 O6 2.342830 1_555
Na0 O10 2.365875 1_555
Na0 O7 2.375376 1_445
Na0 O4 2.423262 1_555
Na0 O3 2.461735 1_455
Na0 O1 2.598034 1_545
Na1 O7 2.342830 1_555
Na1 O11 2.365875 1_555
Na1 O6 2.375376 1_665
Na1 O5 2.423262 1_555
Na1 O2 2.461735 1_655
Na1 O0 2.598034 1_565
Na2 O1 2.375927 1_545
Na2 O13 2.400013 1_545
Na2 O12 2.417943 1_556
Na2 O9 2.495903 1_555
Na2 O10 2.516292 1_555
Na2 S1 3.127078 1_445
Na3 O0 2.375927 1_565
Na3 O12 2.400013 1_565
Na3 O13 2.417943 1_554
Na3 O8 2.495903 1_555
Na3 O11 2.516292 1_555
Na3 S0 3.127078 1_665
H0 O6 0.989208 1_555
H1 O7 0.989208 1_555
H2 O8 0.994796 1_555
H3 O9 0.994796 1_555
H4 O2 0.991951 1_555
H5 O3 0.991951 1_555
H6 O10 0.987637 1_555
H7 O11 0.987637 1_555
H8 O4 0.981191 1_555
H9 O5 0.981191 1_555
H10 O12 0.994249 1_555
H11 O13 0.994249 1_555
H12 O4 0.977376 1_555
H13 O5 0.977376 1_555
H14 O0 0.980729 1_555
H15 O1 0.980729 1_555
H16 O3 0.988664 1_455
H17 O2 0.988664 1_655
H18 O10 0.982723 1_555
H19 O11 0.982723 1_555
H20 O0 0.987802 1_555
H21 O1 0.987802 1_555
H22 O12 0.983368 1_555
H23 O13 0.983368 1_555
H24 O6 0.995099 1_565
H25 O7 0.995099 1_545
H26 O8 0.988485 1_555
H27 O9 0.988485 1_555
S0 Sn0 2.345144 1_555
S1 Sn1 2.345144 1_555
S2 Sn0 2.388502 1_555
S3 Sn1 2.388502 1_555
S4 Sn0 2.481463 1_655
S4 Sn1 2.492462 1_554
S5 Sn1 2.481463 1_455
S5 Sn0 2.492462 1_556
