# generated using pymatgen
data_Sc2Cd3(GeO4)3
_symmetry_space_group_name_H-M   'P 1'
_cell_length_a   10.95318447
_cell_length_b   10.95318447
_cell_length_c   10.95318447
_cell_angle_alpha   109.47122063
_cell_angle_beta   109.47122063
_cell_angle_gamma   109.47122063
_symmetry_Int_Tables_number   1
_chemical_formula_structural   Sc2Cd3(GeO4)3
_chemical_formula_sum   'Sc8 Cd12 Ge12 O48'
_cell_volume   1011.57785808
_cell_formula_units_Z   4
loop_
 _symmetry_equiv_pos_site_id
 _symmetry_equiv_pos_as_xyz
  1  'x, y, z'
loop_
 _atom_site_type_symbol
 _atom_site_label
 _atom_site_symmetry_multiplicity
 _atom_site_fract_x
 _atom_site_fract_y
 _atom_site_fract_z
 _atom_site_occupancy
  Sc  Sc0  1  0.50000000  0.00000000  0.00000000  1
  Sc  Sc1  1  0.00000000  0.00000000  0.00000000  1
  Sc  Sc2  1  0.00000000  0.50000000  0.00000000  1
  Sc  Sc3  1  0.00000000  0.00000000  0.50000000  1
  Sc  Sc4  1  0.00000000  0.50000000  0.50000000  1
  Sc  Sc5  1  0.50000000  0.00000000  0.50000000  1
  Sc  Sc6  1  0.50000000  0.50000000  0.00000000  1
  Sc  Sc7  1  0.50000000  0.50000000  0.50000000  1
  Cd  Cd0  1  0.25000000  0.87500000  0.62500000  1
  Cd  Cd1  1  0.87500000  0.62500000  0.25000000  1
  Cd  Cd2  1  0.62500000  0.87500000  0.75000000  1
  Cd  Cd3  1  0.87500000  0.75000000  0.62500000  1
  Cd  Cd4  1  0.62500000  0.25000000  0.87500000  1
  Cd  Cd5  1  0.75000000  0.62500000  0.87500000  1
  Cd  Cd6  1  0.75000000  0.12500000  0.37500000  1
  Cd  Cd7  1  0.12500000  0.37500000  0.75000000  1
  Cd  Cd8  1  0.37500000  0.12500000  0.25000000  1
  Cd  Cd9  1  0.12500000  0.25000000  0.37500000  1
  Cd  Cd10  1  0.37500000  0.75000000  0.12500000  1
  Cd  Cd11  1  0.25000000  0.37500000  0.12500000  1
  Ge  Ge0  1  0.25000000  0.12500000  0.87500000  1
  Ge  Ge1  1  0.87500000  0.25000000  0.12500000  1
  Ge  Ge2  1  0.62500000  0.75000000  0.37500000  1
  Ge  Ge3  1  0.25000000  0.62500000  0.37500000  1
  Ge  Ge4  1  0.37500000  0.62500000  0.75000000  1
  Ge  Ge5  1  0.75000000  0.37500000  0.62500000  1
  Ge  Ge6  1  0.87500000  0.12500000  0.75000000  1
  Ge  Ge7  1  0.12500000  0.75000000  0.87500000  1
  Ge  Ge8  1  0.12500000  0.87500000  0.25000000  1
  Ge  Ge9  1  0.62500000  0.37500000  0.25000000  1
  Ge  Ge10  1  0.37500000  0.25000000  0.62500000  1
  Ge  Ge11  1  0.75000000  0.87500000  0.12500000  1
  O  O0  1  0.79336400  0.41490800  0.81080900  1
  O  O1  1  0.08509200  0.87845600  0.39590100  1
  O  O2  1  0.68919100  0.10409900  0.98255500  1
  O  O3  1  0.70663600  0.51744500  0.62154400  1
  O  O4  1  0.70663600  0.68919100  0.08509200  1
  O  O5  1  0.51744500  0.62154400  0.70663600  1
  O  O6  1  0.10409900  0.62154400  0.41490800  1
  O  O7  1  0.62154400  0.70663600  0.51744500  1
  O  O8  1  0.39590100  0.81080900  0.51744500  1
  O  O9  1  0.87845600  0.98255500  0.79336400  1
  O  O10  1  0.98255500  0.79336400  0.87845600  1
  O  O11  1  0.08509200  0.70663600  0.68919100  1
  O  O12  1  0.62154400  0.41490800  0.10409900  1
  O  O13  1  0.51744500  0.39590100  0.81080900  1
  O  O14  1  0.68919100  0.08509200  0.70663600  1
  O  O15  1  0.41490800  0.10409900  0.62154400  1
  O  O16  1  0.81080900  0.51744500  0.39590100  1
  O  O17  1  0.39590100  0.08509200  0.87845600  1
  O  O18  1  0.10409900  0.98255500  0.68919100  1
  O  O19  1  0.60409900  0.18919100  0.48255500  1
  O  O20  1  0.98255500  0.68919100  0.10409900  1
  O  O21  1  0.81080900  0.79336400  0.41490800  1
  O  O22  1  0.87845600  0.39590100  0.08509200  1
  O  O23  1  0.79336400  0.87845600  0.98255500  1
  O  O24  1  0.20663600  0.58509200  0.18919100  1
  O  O25  1  0.91490800  0.12154400  0.60409900  1
  O  O26  1  0.31080900  0.89590100  0.01744500  1
  O  O27  1  0.29336400  0.48255500  0.37845600  1
  O  O28  1  0.29336400  0.31080900  0.91490800  1
  O  O29  1  0.48255500  0.37845600  0.29336400  1
  O  O30  1  0.89590100  0.37845600  0.58509200  1
  O  O31  1  0.37845600  0.29336400  0.48255500  1
  O  O32  1  0.20663600  0.12154400  0.01744500  1
  O  O33  1  0.12154400  0.60409900  0.91490800  1
  O  O34  1  0.18919100  0.20663600  0.58509200  1
  O  O35  1  0.58509200  0.18919100  0.20663600  1
  O  O36  1  0.01744500  0.31080900  0.89590100  1
  O  O37  1  0.89590100  0.01744500  0.31080900  1
  O  O38  1  0.60409900  0.91490800  0.12154400  1
  O  O39  1  0.18919100  0.48255500  0.60409900  1
  O  O40  1  0.58509200  0.89590100  0.37845600  1
  O  O41  1  0.31080900  0.91490800  0.29336400  1
  O  O42  1  0.48255500  0.60409900  0.18919100  1
  O  O43  1  0.37845600  0.58509200  0.89590100  1
  O  O44  1  0.91490800  0.29336400  0.31080900  1
  O  O45  1  0.01744500  0.20663600  0.12154400  1
  O  O46  1  0.12154400  0.01744500  0.20663600  1
  O  O47  1  0.41490800  0.81080900  0.79336400  1
loop_
_geom_bond_atom_site_label_1
_geom_bond_atom_site_label_2
_geom_bond_distance
_geom_bond_site_symmetry_2
Cd0 O17 2.426525 1_565
Cd0 O6 2.426525 1_555
Cd0 O18 2.426525 1_555
Cd0 O8 2.426525 1_555
Cd0 O15 2.578397 1_565
Cd0 O47 2.578397 1_555
Cd0 O1 2.578397 1_555
Cd0 O11 2.578397 1_555
Cd1 O20 2.426525 1_555
Cd1 O1 2.426525 1_655
Cd1 O12 2.426525 1_555
Cd1 O16 2.426525 1_555
Cd1 O6 2.578397 1_655
Cd1 O21 2.578397 1_555
Cd1 O22 2.578397 1_555
Cd1 O4 2.578397 1_555
Cd2 O5 2.426525 1_555
Cd2 O47 2.426525 1_555
Cd2 O9 2.426525 1_555
Cd2 O14 2.426525 1_565
Cd2 O2 2.578397 1_565
Cd2 O23 2.578397 1_555
Cd2 O8 2.578397 1_555
Cd2 O7 2.578397 1_555
Cd3 O7 2.426525 1_555
Cd3 O21 2.426525 1_555
Cd3 O10 2.426525 1_555
Cd3 O11 2.426525 1_655
Cd3 O18 2.578397 1_655
Cd3 O9 2.578397 1_555
Cd3 O16 2.578397 1_555
Cd3 O3 2.578397 1_555
Cd4 O2 2.426525 1_555
Cd4 O22 2.426525 1_556
Cd4 O15 2.426525 1_555
Cd4 O13 2.426525 1_555
Cd4 O12 2.578397 1_556
Cd4 O0 2.578397 1_555
Cd4 O17 2.578397 1_555
Cd4 O14 2.578397 1_555
Cd5 O3 2.426525 1_555
Cd5 O0 2.426525 1_555
Cd5 O23 2.426525 1_555
Cd5 O4 2.426525 1_556
Cd5 O20 2.578397 1_556
Cd5 O10 2.578397 1_555
Cd5 O13 2.578397 1_555
Cd5 O5 2.578397 1_555
Cd6 O30 2.426525 1_555
Cd6 O37 2.426525 1_555
Cd6 O19 2.426525 1_555
Cd6 O38 2.426525 1_545
Cd6 O25 2.578397 1_555
Cd6 O44 2.578397 1_555
Cd6 O40 2.578397 1_545
Cd6 O35 2.578397 1_555
Cd7 O43 2.426525 1_555
Cd7 O36 2.426525 1_555
Cd7 O39 2.426525 1_555
Cd7 O25 2.426525 1_455
Cd7 O33 2.578397 1_555
Cd7 O28 2.578397 1_555
Cd7 O30 2.578397 1_455
Cd7 O34 2.578397 1_555
Cd8 O29 2.426525 1_555
Cd8 O35 2.426525 1_555
Cd8 O46 2.426525 1_555
Cd8 O41 2.426525 1_545
Cd8 O19 2.578397 1_555
Cd8 O31 2.578397 1_555
Cd8 O32 2.578397 1_555
Cd8 O26 2.578397 1_545
Cd9 O31 2.426525 1_555
Cd9 O34 2.426525 1_555
Cd9 O45 2.426525 1_555
Cd9 O44 2.426525 1_455
Cd9 O39 2.578397 1_555
Cd9 O27 2.578397 1_555
Cd9 O46 2.578397 1_555
Cd9 O37 2.578397 1_455
Cd10 O40 2.426525 1_555
Cd10 O26 2.426525 1_555
Cd10 O33 2.426525 1_554
Cd10 O42 2.426525 1_555
Cd10 O38 2.578397 1_555
Cd10 O43 2.578397 1_554
Cd10 O41 2.578397 1_555
Cd10 O24 2.578397 1_555
Cd11 O27 2.426525 1_555
Cd11 O24 2.426525 1_555
Cd11 O32 2.426525 1_555
Cd11 O28 2.426525 1_554
Cd11 O42 2.578397 1_555
Cd11 O29 2.578397 1_555
Cd11 O45 2.578397 1_555
Cd11 O36 2.578397 1_554
Ge0 O32 1.784032 1_556
Ge0 O17 1.784032 1_555
Ge0 O18 1.784032 1_545
Ge0 O28 1.784032 1_555
Ge1 O45 1.784032 1_655
Ge1 O22 1.784032 1_555
Ge1 O2 1.784032 1_554
Ge1 O44 1.784032 1_555
Ge2 O7 1.784032 1_555
Ge2 O21 1.784032 1_555
Ge2 O40 1.784032 1_555
Ge2 O42 1.784032 1_555
Ge3 O8 1.784032 1_555
Ge3 O24 1.784032 1_555
Ge3 O6 1.784032 1_555
Ge3 O27 1.784032 1_555
Ge4 O5 1.784032 1_555
Ge4 O47 1.784032 1_555
Ge4 O43 1.784032 1_555
Ge4 O39 1.784032 1_555
Ge5 O3 1.784032 1_555
Ge5 O0 1.784032 1_555
Ge5 O30 1.784032 1_555
Ge5 O19 1.784032 1_555
Ge6 O14 1.784032 1_555
Ge6 O36 1.784032 1_655
Ge6 O9 1.784032 1_545
Ge6 O25 1.784032 1_555
Ge7 O11 1.784032 1_555
Ge7 O26 1.784032 1_556
Ge7 O10 1.784032 1_455
Ge7 O33 1.784032 1_555
Ge8 O46 1.784032 1_565
Ge8 O1 1.784032 1_555
Ge8 O20 1.784032 1_455
Ge8 O41 1.784032 1_555
Ge9 O16 1.784032 1_555
Ge9 O12 1.784032 1_555
Ge9 O35 1.784032 1_555
Ge9 O29 1.784032 1_555
Ge10 O13 1.784032 1_555
Ge10 O34 1.784032 1_555
Ge10 O15 1.784032 1_555
Ge10 O31 1.784032 1_555
Ge11 O4 1.784032 1_555
Ge11 O37 1.784032 1_565
Ge11 O23 1.784032 1_554
Ge11 O38 1.784032 1_555
O0 Sc2 2.113011 1_656
O1 Sc3 2.113011 1_565
O2 Sc0 2.113011 1_556
O3 Sc7 2.113011 1_555
O4 Sc6 2.113011 1_555
O5 Sc7 2.113011 1_555
O6 Sc4 2.113011 1_555
O7 Sc7 2.113011 1_555
O8 Sc5 2.113011 1_565
O9 Sc1 2.113011 1_666
O10 Sc1 2.113011 1_666
O11 Sc4 2.113011 1_555
O12 Sc6 2.113011 1_555
O13 Sc6 2.113011 1_556
O14 Sc5 2.113011 1_555
O15 Sc5 2.113011 1_555
O16 Sc4 2.113011 1_655
O17 Sc0 2.113011 1_556
O18 Sc3 2.113011 1_565
O19 Sc5 2.113011 1_555
O20 Sc2 2.113011 1_655
O21 Sc3 2.113011 1_665
O22 Sc2 2.113011 1_655
O23 Sc1 2.113011 1_666
O24 Sc2 2.113011 1_555
O25 Sc3 2.113011 1_655
O26 Sc0 2.113011 1_565
O27 Sc7 2.113011 1_555
O28 Sc6 2.113011 1_556
O29 Sc7 2.113011 1_555
O30 Sc4 2.113011 1_655
O31 Sc7 2.113011 1_555
O32 Sc1 2.113011 1_555
O33 Sc2 2.113011 1_556
O34 Sc3 2.113011 1_555
O35 Sc0 2.113011 1_555
O36 Sc2 2.113011 1_556
O37 Sc3 2.113011 1_655
O38 Sc0 2.113011 1_565
O39 Sc4 2.113011 1_555
O40 Sc5 2.113011 1_565
O41 Sc5 2.113011 1_565
O42 Sc6 2.113011 1_555
O43 Sc6 2.113011 1_556
O44 Sc4 2.113011 1_655
O45 Sc1 2.113011 1_555
O46 Sc1 2.113011 1_555
O47 Sc0 2.113011 1_566
