# generated using pymatgen
data_HfMg30CuO32
_symmetry_space_group_name_H-M   'P 1'
_cell_length_a   8.58384300
_cell_length_b   8.58384300
_cell_length_c   8.62627000
_cell_angle_alpha   90.00000000
_cell_angle_beta   90.00000000
_cell_angle_gamma   90.00000000
_symmetry_Int_Tables_number   1
_chemical_formula_structural   HfMg30CuO32
_chemical_formula_sum   'Hf1 Mg30 Cu1 O32'
_cell_volume   635.60393719
_cell_formula_units_Z   1
loop_
 _symmetry_equiv_pos_site_id
 _symmetry_equiv_pos_as_xyz
  1  'x, y, z'
loop_
 _atom_site_type_symbol
 _atom_site_label
 _atom_site_symmetry_multiplicity
 _atom_site_fract_x
 _atom_site_fract_y
 _atom_site_fract_z
 _atom_site_occupancy
  Hf  Hf0  1  0.00000000  0.00000000  0.50000000  1
  Mg  Mg0  1  0.00000000  0.50000000  0.00000000  1
  Mg  Mg1  1  0.00000000  0.50000000  0.50000000  1
  Mg  Mg2  1  0.50000000  0.00000000  0.00000000  1
  Mg  Mg3  1  0.50000000  0.00000000  0.50000000  1
  Mg  Mg4  1  0.50000000  0.50000000  0.00000000  1
  Mg  Mg5  1  0.50000000  0.50000000  0.50000000  1
  Mg  Mg6  1  0.00000000  0.25404100  0.23949000  1
  Mg  Mg7  1  0.00000000  0.25404100  0.76051000  1
  Mg  Mg8  1  0.00000000  0.74595900  0.23949000  1
  Mg  Mg9  1  0.00000000  0.74595900  0.76051000  1
  Mg  Mg10  1  0.50000000  0.25078500  0.24748200  1
  Mg  Mg11  1  0.50000000  0.25078500  0.75251800  1
  Mg  Mg12  1  0.50000000  0.74921500  0.24748200  1
  Mg  Mg13  1  0.50000000  0.74921500  0.75251800  1
  Mg  Mg14  1  0.25404100  0.00000000  0.23949000  1
  Mg  Mg15  1  0.25404100  0.00000000  0.76051000  1
  Mg  Mg16  1  0.25078500  0.50000000  0.24748200  1
  Mg  Mg17  1  0.25078500  0.50000000  0.75251800  1
  Mg  Mg18  1  0.74595900  0.00000000  0.23949000  1
  Mg  Mg19  1  0.74595900  0.00000000  0.76051000  1
  Mg  Mg20  1  0.74921500  0.50000000  0.24748200  1
  Mg  Mg21  1  0.74921500  0.50000000  0.75251800  1
  Mg  Mg22  1  0.24904000  0.24904000  0.00000000  1
  Mg  Mg23  1  0.25619600  0.25619600  0.50000000  1
  Mg  Mg24  1  0.24904000  0.75096000  0.00000000  1
  Mg  Mg25  1  0.25619600  0.74380400  0.50000000  1
  Mg  Mg26  1  0.75096000  0.24904000  0.00000000  1
  Mg  Mg27  1  0.74380400  0.25619600  0.50000000  1
  Mg  Mg28  1  0.75096000  0.75096000  0.00000000  1
  Mg  Mg29  1  0.74380400  0.74380400  0.50000000  1
  Cu  Cu0  1  0.00000000  0.00000000  0.00000000  1
  O  O0  1  0.26466900  0.00000000  0.00000000  1
  O  O1  1  0.24581700  0.00000000  0.50000000  1
  O  O2  1  0.25228200  0.50000000  0.00000000  1
  O  O3  1  0.24937500  0.50000000  0.50000000  1
  O  O4  1  0.73533100  0.00000000  0.00000000  1
  O  O5  1  0.75418300  0.00000000  0.50000000  1
  O  O6  1  0.74771800  0.50000000  0.00000000  1
  O  O7  1  0.75062500  0.50000000  0.50000000  1
  O  O8  1  0.24919200  0.24919200  0.25084700  1
  O  O9  1  0.24919200  0.24919200  0.74915300  1
  O  O10  1  0.24919200  0.75080800  0.25084700  1
  O  O11  1  0.24919200  0.75080800  0.74915300  1
  O  O12  1  0.75080800  0.24919200  0.25084700  1
  O  O13  1  0.75080800  0.24919200  0.74915300  1
  O  O14  1  0.75080800  0.75080800  0.25084700  1
  O  O15  1  0.75080800  0.75080800  0.74915300  1
  O  O16  1  0.00000000  0.00000000  0.26366700  1
  O  O17  1  0.00000000  0.00000000  0.73633300  1
  O  O18  1  0.00000000  0.50000000  0.25439700  1
  O  O19  1  0.00000000  0.50000000  0.74560300  1
  O  O20  1  0.50000000  0.00000000  0.25439700  1
  O  O21  1  0.50000000  0.00000000  0.74560300  1
  O  O22  1  0.50000000  0.50000000  0.25137900  1
  O  O23  1  0.50000000  0.50000000  0.74862100  1
  O  O24  1  0.00000000  0.26466900  0.00000000  1
  O  O25  1  0.00000000  0.24581700  0.50000000  1
  O  O26  1  0.00000000  0.73533100  0.00000000  1
  O  O27  1  0.00000000  0.75418300  0.50000000  1
  O  O28  1  0.50000000  0.25228200  0.00000000  1
  O  O29  1  0.50000000  0.24937500  0.50000000  1
  O  O30  1  0.50000000  0.74771800  0.00000000  1
  O  O31  1  0.50000000  0.75062500  0.50000000  1
loop_
_geom_bond_atom_site_label_1
_geom_bond_atom_site_label_2
_geom_bond_distance
_geom_bond_site_symmetry_2
Hf0 O17 2.038672 1_555
Hf0 O16 2.038672 1_555
Hf0 O27 2.110055 1_545
Hf0 O5 2.110055 1_455
Hf0 O25 2.110055 1_555
Hf0 O1 2.110055 1_555
Mg0 O26 2.020044 1_555
Mg0 O24 2.020044 1_555
Mg0 O2 2.165549 1_555
Mg0 O6 2.165549 1_455
Mg0 O18 2.194497 1_555
Mg0 O19 2.194497 1_554
Mg1 O18 2.118638 1_555
Mg1 O19 2.118638 1_555
Mg1 O3 2.140596 1_555
Mg1 O7 2.140596 1_455
Mg1 O25 2.181867 1_555
Mg1 O27 2.181867 1_555
Mg2 O4 2.020044 1_555
Mg2 O0 2.020044 1_555
Mg2 O28 2.165549 1_555
Mg2 O30 2.165549 1_545
Mg2 O20 2.194497 1_555
Mg2 O21 2.194497 1_554
Mg3 O21 2.118638 1_555
Mg3 O20 2.118638 1_555
Mg3 O31 2.140596 1_545
Mg3 O29 2.140596 1_555
Mg3 O1 2.181867 1_555
Mg3 O5 2.181867 1_555
Mg4 O28 2.126372 1_555
Mg4 O6 2.126372 1_555
Mg4 O30 2.126372 1_555
Mg4 O2 2.126372 1_555
Mg4 O23 2.168463 1_554
Mg4 O22 2.168463 1_555
Mg5 O22 2.144672 1_555
Mg5 O23 2.144672 1_555
Mg5 O31 2.151326 1_555
Mg5 O3 2.151326 1_555
Mg5 O7 2.151326 1_555
Mg5 O29 2.151326 1_555
Mg6 O24 2.067919 1_555
Mg6 O18 2.115186 1_555
Mg6 O12 2.141672 1_455
Mg6 O8 2.141672 1_555
Mg6 O16 2.190599 1_555
Mg6 O25 2.248338 1_555
Mg7 O24 2.067919 1_556
Mg7 O19 2.115186 1_555
Mg7 O9 2.141672 1_555
Mg7 O13 2.141672 1_455
Mg7 O17 2.190599 1_555
Mg7 O25 2.248338 1_555
Mg8 O26 2.067919 1_555
Mg8 O18 2.115186 1_555
Mg8 O10 2.141672 1_555
Mg8 O14 2.141672 1_455
Mg8 O16 2.190599 1_565
Mg8 O27 2.248338 1_555
Mg9 O26 2.067919 1_556
Mg9 O19 2.115186 1_555
Mg9 O11 2.141672 1_555
Mg9 O15 2.141672 1_455
Mg9 O17 2.190599 1_565
Mg9 O27 2.248338 1_555
Mg10 O28 2.134885 1_555
Mg10 O22 2.139487 1_555
Mg10 O8 2.153136 1_555
Mg10 O12 2.153136 1_555
Mg10 O20 2.153525 1_555
Mg10 O29 2.178322 1_555
Mg11 O28 2.134885 1_556
Mg11 O23 2.139487 1_555
Mg11 O9 2.153136 1_555
Mg11 O13 2.153136 1_555
Mg11 O21 2.153525 1_555
Mg11 O29 2.178322 1_555
Mg12 O30 2.134885 1_555
Mg12 O22 2.139487 1_555
Mg12 O10 2.153136 1_555
Mg12 O14 2.153136 1_555
Mg12 O20 2.153525 1_565
Mg12 O31 2.178322 1_555
Mg13 O30 2.134885 1_556
Mg13 O23 2.139487 1_555
Mg13 O15 2.153136 1_555
Mg13 O11 2.153136 1_555
Mg13 O21 2.153525 1_565
Mg13 O31 2.178322 1_555
Mg14 O0 2.067919 1_555
Mg14 O20 2.115186 1_555
Mg14 O8 2.141672 1_555
Mg14 O10 2.141672 1_545
Mg14 O16 2.190599 1_555
Mg14 O1 2.248338 1_555
Mg15 O0 2.067919 1_556
Mg15 O21 2.115186 1_555
Mg15 O9 2.141672 1_555
Mg15 O11 2.141672 1_545
Mg15 O17 2.190599 1_555
Mg15 O1 2.248338 1_555
Mg16 O2 2.134885 1_555
Mg16 O22 2.139487 1_555
Mg16 O8 2.153136 1_555
Mg16 O10 2.153136 1_555
Mg16 O18 2.153525 1_555
Mg16 O3 2.178322 1_555
Mg17 O2 2.134885 1_556
Mg17 O23 2.139487 1_555
Mg17 O11 2.153136 1_555
Mg17 O9 2.153136 1_555
Mg17 O19 2.153525 1_555
Mg17 O3 2.178322 1_555
Mg18 O4 2.067919 1_555
Mg18 O20 2.115186 1_555
Mg18 O12 2.141672 1_555
Mg18 O14 2.141672 1_545
Mg18 O16 2.190599 1_655
Mg18 O5 2.248338 1_555
Mg19 O4 2.067919 1_556
Mg19 O21 2.115186 1_555
Mg19 O15 2.141672 1_545
Mg19 O13 2.141672 1_555
Mg19 O17 2.190599 1_655
Mg19 O5 2.248338 1_555
Mg20 O6 2.134885 1_555
Mg20 O22 2.139487 1_555
Mg20 O12 2.153136 1_555
Mg20 O14 2.153136 1_555
Mg20 O18 2.153525 1_655
Mg20 O7 2.178322 1_555
Mg21 O6 2.134885 1_556
Mg21 O23 2.139487 1_555
Mg21 O13 2.153136 1_555
Mg21 O15 2.153136 1_555
Mg21 O19 2.153525 1_655
Mg21 O7 2.178322 1_555
Mg22 O0 2.141926 1_555
Mg22 O24 2.141926 1_555
Mg22 O2 2.154381 1_555
Mg22 O28 2.154381 1_555
Mg22 O8 2.163875 1_555
Mg22 O9 2.163875 1_554
Mg23 O3 2.093594 1_555
Mg23 O29 2.093594 1_555
Mg23 O9 2.150942 1_555
Mg23 O8 2.150942 1_555
Mg23 O25 2.200950 1_555
Mg23 O1 2.200950 1_555
Mg24 O26 2.141926 1_555
Mg24 O0 2.141926 1_565
Mg24 O2 2.154381 1_555
Mg24 O30 2.154381 1_555
Mg24 O10 2.163875 1_555
Mg24 O11 2.163875 1_554
Mg25 O3 2.093594 1_555
Mg25 O31 2.093594 1_555
Mg25 O11 2.150942 1_555
Mg25 O10 2.150942 1_555
Mg25 O27 2.200950 1_555
Mg25 O1 2.200950 1_565
Mg26 O24 2.141926 1_655
Mg26 O4 2.141926 1_555
Mg26 O6 2.154381 1_555
Mg26 O28 2.154381 1_555
Mg26 O12 2.163875 1_555
Mg26 O13 2.163875 1_554
Mg27 O29 2.093594 1_555
Mg27 O7 2.093594 1_555
Mg27 O13 2.150942 1_555
Mg27 O12 2.150942 1_555
Mg27 O25 2.200950 1_655
Mg27 O5 2.200950 1_555
Mg28 O4 2.141926 1_565
Mg28 O26 2.141926 1_655
Mg28 O6 2.154381 1_555
Mg28 O30 2.154381 1_555
Mg28 O14 2.163875 1_555
Mg28 O15 2.163875 1_554
Mg29 O7 2.093594 1_555
Mg29 O31 2.093594 1_555
Mg29 O15 2.150942 1_555
Mg29 O14 2.150942 1_555
Mg29 O27 2.200950 1_655
Mg29 O5 2.200950 1_565
Cu0 O0 2.271877 1_555
Cu0 O24 2.271877 1_555
Cu0 O26 2.271877 1_545
Cu0 O4 2.271877 1_455
Cu0 O17 2.274463 1_554
Cu0 O16 2.274463 1_555
