# generated using pymatgen
data_Li3Co2O5
_symmetry_space_group_name_H-M   'P 1'
_cell_length_a   2.99284600
_cell_length_b   5.12098565
_cell_length_c   12.29218289
_cell_angle_alpha   100.47836403
_cell_angle_beta   89.40386005
_cell_angle_gamma   105.33073988
_symmetry_Int_Tables_number   1
_chemical_formula_structural   Li3Co2O5
_chemical_formula_sum   'Li6 Co4 O10'
_cell_volume   178.51908181
_cell_formula_units_Z   2
loop_
 _symmetry_equiv_pos_site_id
 _symmetry_equiv_pos_as_xyz
  1  'x, y, z'
loop_
 _atom_site_type_symbol
 _atom_site_label
 _atom_site_symmetry_multiplicity
 _atom_site_fract_x
 _atom_site_fract_y
 _atom_site_fract_z
 _atom_site_occupancy
  Li  Li0  1  0.39808400  0.30469500  0.29955800  1
  Li  Li1  1  0.00000000  0.50000000  0.50000000  1
  Li  Li2  1  0.60191600  0.69530500  0.70044200  1
  Li  Li3  1  0.19642800  0.89220600  0.90094300  1
  Li  Li4  1  0.80357200  0.10779400  0.09905700  1
  Li  Li5  1  0.50000000  0.50000000  0.00000000  1
  Co  Co0  1  0.09723500  0.69403000  0.19169300  1
  Co  Co1  1  0.90276500  0.30597000  0.80830700  1
  Co  Co2  1  0.69967800  0.89847300  0.39850600  1
  Co  Co3  1  0.30032200  0.10152700  0.60149400  1
  O  O0  1  0.77689800  0.97975000  0.25327000  1
  O  O1  1  0.34198500  0.18788300  0.45467000  1
  O  O2  1  0.93111200  0.37965300  0.65879600  1
  O  O3  1  0.56746400  0.57181300  0.84619300  1
  O  O4  1  0.15361800  0.80261700  0.06440800  1
  O  O5  1  0.06888800  0.62034700  0.34120400  1
  O  O6  1  0.65801500  0.81211700  0.54533000  1
  O  O7  1  0.22310200  0.02025000  0.74673000  1
  O  O8  1  0.84638200  0.19738300  0.93559200  1
  O  O9  1  0.43253600  0.42818700  0.15380700  1
loop_
_geom_bond_atom_site_label_1
_geom_bond_atom_site_label_2
_geom_bond_distance
_geom_bond_site_symmetry_2
Li0 O9 1.998542 1_555
Li0 O5 2.091961 1_555
Li0 O1 2.092003 1_555
Li0 O0 2.142625 1_445
Li0 O5 2.215825 1_655
Li0 O0 2.240065 1_545
Li1 O6 2.107604 1_455
Li1 O1 2.107604 1_555
Li1 O5 2.143462 1_555
Li1 O2 2.143462 1_455
Li1 O6 2.185850 1_555
Li1 O1 2.185850 1_455
Li2 O3 1.998542 1_555
Li2 O2 2.091961 1_555
Li2 O6 2.092003 1_555
Li2 O7 2.142625 1_665
Li2 O2 2.215825 1_455
Li2 O7 2.240065 1_565
Li3 O8 2.082225 1_465
Li3 O7 2.109730 1_565
Li3 O4 2.136169 1_556
Li3 O8 2.138987 1_565
Li3 O3 2.163310 1_455
Li3 O3 2.219066 1_555
Li4 O4 2.082225 1_645
Li4 O0 2.109730 1_545
Li4 O8 2.136169 1_554
Li4 O4 2.138987 1_545
Li4 O9 2.163310 1_655
Li4 O9 2.219066 1_555
Li5 O9 1.989009 1_555
Li5 O3 1.989009 1_554
Li5 O8 2.118775 1_554
Li5 O4 2.118775 1_555
Li5 O4 2.199540 1_655
Li5 O8 2.199540 1_454
Co0 O4 1.745578 1_555
Co0 O9 1.886615 1_555
Co0 O5 1.938867 1_555
Co0 O0 1.989159 1_455
Co0 O9 2.093876 1_455
Co0 O0 2.215146 1_555
Co1 O8 1.745578 1_555
Co1 O3 1.886615 1_555
Co1 O2 1.938867 1_555
Co1 O7 1.989159 1_655
Co1 O3 2.093876 1_655
Co1 O7 2.215146 1_555
Co2 O0 1.903852 1_555
Co2 O6 1.929982 1_555
Co2 O5 2.048612 1_655
Co2 O1 2.066534 1_565
Co2 O5 2.080787 1_555
Co2 O1 2.125424 1_665
Co3 O7 1.903852 1_555
Co3 O1 1.929982 1_555
Co3 O2 2.048612 1_455
Co3 O6 2.066534 1_545
Co3 O2 2.080787 1_555
Co3 O6 2.125424 1_445
