# generated using pymatgen
data_MgSb
_symmetry_space_group_name_H-M   'P 1'
_cell_length_a   18.18542346
_cell_length_b   18.18542346
_cell_length_c   10.33759000
_cell_angle_alpha   90.00000000
_cell_angle_beta   90.00000000
_cell_angle_gamma   159.57681617
_symmetry_Int_Tables_number   1
_chemical_formula_structural   MgSb
_chemical_formula_sum   'Mg24 Sb24'
_cell_volume   1192.97386658
_cell_formula_units_Z   24
loop_
 _symmetry_equiv_pos_site_id
 _symmetry_equiv_pos_as_xyz
  1  'x, y, z'
loop_
 _atom_site_type_symbol
 _atom_site_label
 _atom_site_symmetry_multiplicity
 _atom_site_fract_x
 _atom_site_fract_y
 _atom_site_fract_z
 _atom_site_occupancy
  Mg  Mg0_0  1  0.00059000  0.49941000  0.00000000  1
  Mg  Mg0_1  1  0.00059000  0.49941000  0.50000000  1
  Mg  Mg0_2  1  0.00059000  0.99941000  0.00000000  1
  Mg  Mg0_3  1  0.00059000  0.99941000  0.50000000  1
  Mg  Mg0_4  1  0.50059000  0.49941000  0.00000000  1
  Mg  Mg0_5  1  0.50059000  0.49941000  0.50000000  1
  Mg  Mg0_6  1  0.50059000  0.99941000  0.00000000  1
  Mg  Mg0_7  1  0.50059000  0.99941000  0.50000000  1
  Mg  Mg1_0  1  0.33221550  0.16778450  0.00000000  1
  Mg  Mg1_1  1  0.33221550  0.16778450  0.50000000  1
  Mg  Mg1_2  1  0.33221550  0.66778450  0.00000000  1
  Mg  Mg1_3  1  0.33221550  0.66778450  0.50000000  1
  Mg  Mg1_4  1  0.83221550  0.16778450  0.00000000  1
  Mg  Mg1_5  1  0.83221550  0.16778450  0.50000000  1
  Mg  Mg1_6  1  0.83221550  0.66778450  0.00000000  1
  Mg  Mg1_7  1  0.83221550  0.66778450  0.50000000  1
  Mg  Mg2_0  1  0.39116150  0.10883850  0.25000000  1
  Mg  Mg2_1  1  0.39116150  0.10883850  0.75000000  1
  Mg  Mg2_2  1  0.39116150  0.60883850  0.25000000  1
  Mg  Mg2_3  1  0.39116150  0.60883850  0.75000000  1
  Mg  Mg2_4  1  0.89116150  0.10883850  0.25000000  1
  Mg  Mg2_5  1  0.89116150  0.10883850  0.75000000  1
  Mg  Mg2_6  1  0.89116150  0.60883850  0.25000000  1
  Mg  Mg2_7  1  0.89116150  0.60883850  0.75000000  1
  Sb  Sb0_0  1  0.15646350  0.34353650  0.00000000  1
  Sb  Sb0_1  1  0.15646350  0.34353650  0.50000000  1
  Sb  Sb0_2  1  0.15646350  0.84353650  0.00000000  1
  Sb  Sb0_3  1  0.15646350  0.84353650  0.50000000  1
  Sb  Sb0_4  1  0.65646350  0.34353650  0.00000000  1
  Sb  Sb0_5  1  0.65646350  0.34353650  0.50000000  1
  Sb  Sb0_6  1  0.65646350  0.84353650  0.00000000  1
  Sb  Sb0_7  1  0.65646350  0.84353650  0.50000000  1
  Sb  Sb1_0  1  0.06366350  0.43633650  0.25000000  1
  Sb  Sb1_1  1  0.06366350  0.43633650  0.75000000  1
  Sb  Sb1_2  1  0.06366350  0.93633650  0.25000000  1
  Sb  Sb1_3  1  0.06366350  0.93633650  0.75000000  1
  Sb  Sb1_4  1  0.56366350  0.43633650  0.25000000  1
  Sb  Sb1_5  1  0.56366350  0.43633650  0.75000000  1
  Sb  Sb1_6  1  0.56366350  0.93633650  0.25000000  1
  Sb  Sb1_7  1  0.56366350  0.93633650  0.75000000  1
  Sb  Sb2_0  1  0.22257300  0.27742700  0.25000000  1
  Sb  Sb2_1  1  0.22257300  0.27742700  0.75000000  1
  Sb  Sb2_2  1  0.22257300  0.77742700  0.25000000  1
  Sb  Sb2_3  1  0.22257300  0.77742700  0.75000000  1
  Sb  Sb2_4  1  0.72257300  0.27742700  0.25000000  1
  Sb  Sb2_5  1  0.72257300  0.27742700  0.75000000  1
  Sb  Sb2_6  1  0.72257300  0.77742700  0.25000000  1
  Sb  Sb2_7  1  0.72257300  0.77742700  0.75000000  1
loop_
_geom_bond_atom_site_label_1
_geom_bond_atom_site_label_2
_geom_bond_distance
_geom_bond_site_symmetry_2
Mg0_0 Sb2_4 3.206767 1_455
Mg0_0 Sb2_5 3.206767 1_454
Mg0_0 Sb2_2 3.206767 1_555
Mg0_0 Sb2_3 3.206767 1_554
Mg0_0 Mg0_6 3.223982 1_445
Mg0_0 Mg0_6 3.223982 1_555
Mg0_0 Mg1_4 3.336946 1_455
Mg0_0 Mg1_2 3.336946 1_555
Mg0_0 Sb1_1 3.431663 1_554
Mg0_0 Sb1_0 3.431663 1_555
Mg0_1 Sb2_5 3.206767 1_455
Mg0_1 Sb2_4 3.206767 1_455
Mg0_1 Sb2_2 3.206767 1_555
Mg0_1 Sb2_3 3.206767 1_555
Mg0_1 Mg0_7 3.223982 1_445
Mg0_1 Mg0_7 3.223982 1_555
Mg0_1 Mg1_5 3.336946 1_455
Mg0_1 Mg1_3 3.336946 1_555
Mg0_1 Sb1_0 3.431663 1_555
Mg0_1 Sb1_1 3.431663 1_555
Mg0_2 Sb2_7 3.206767 1_454
Mg0_2 Sb2_6 3.206767 1_455
Mg0_2 Sb2_1 3.206767 1_564
Mg0_2 Sb2_0 3.206767 1_565
Mg0_2 Mg0_4 3.223982 1_565
Mg0_2 Mg0_4 3.223982 1_455
Mg0_2 Mg1_0 3.336946 1_565
Mg0_2 Mg1_6 3.336946 1_455
Mg0_2 Sb1_2 3.431663 1_555
Mg0_2 Sb1_3 3.431663 1_554
Mg0_3 Sb2_7 3.206767 1_455
Mg0_3 Sb2_6 3.206767 1_455
Mg0_3 Sb2_0 3.206767 1_565
Mg0_3 Sb2_1 3.206767 1_565
Mg0_3 Mg0_5 3.223982 1_565
Mg0_3 Mg0_5 3.223982 1_455
Mg0_3 Mg1_1 3.336946 1_565
Mg0_3 Mg1_7 3.336946 1_455
Mg0_3 Sb1_3 3.431663 1_555
Mg0_3 Sb1_2 3.431663 1_555
Mg0_4 Sb2_6 3.206767 1_555
Mg0_4 Sb2_7 3.206767 1_554
Mg0_4 Sb2_0 3.206767 1_555
Mg0_4 Sb2_1 3.206767 1_554
Mg0_4 Mg1_0 3.336946 1_555
Mg0_4 Mg1_6 3.336946 1_555
Mg0_4 Sb1_5 3.431663 1_554
Mg0_4 Sb1_4 3.431663 1_555
Mg0_5 Sb2_6 3.206767 1_555
Mg0_5 Sb2_7 3.206767 1_555
Mg0_5 Sb2_0 3.206767 1_555
Mg0_5 Sb2_1 3.206767 1_555
Mg0_5 Mg1_1 3.336946 1_555
Mg0_5 Mg1_7 3.336946 1_555
Mg0_5 Sb1_4 3.431663 1_555
Mg0_5 Sb1_5 3.431663 1_555
Mg0_6 Sb2_4 3.206767 1_565
Mg0_6 Sb2_5 3.206767 1_564
Mg0_6 Sb2_3 3.206767 1_554
Mg0_6 Sb2_2 3.206767 1_555
Mg0_6 Mg1_4 3.336946 1_565
Mg0_6 Mg1_2 3.336946 1_555
Mg0_6 Sb1_6 3.431663 1_555
Mg0_6 Sb1_7 3.431663 1_554
Mg0_7 Sb2_4 3.206767 1_565
Mg0_7 Sb2_5 3.206767 1_565
Mg0_7 Sb2_3 3.206767 1_555
Mg0_7 Sb2_2 3.206767 1_555
Mg0_7 Mg1_5 3.336946 1_565
Mg0_7 Mg1_3 3.336946 1_555
Mg0_7 Sb1_7 3.431663 1_555
Mg0_7 Sb1_6 3.431663 1_555
Mg1_0 Sb0_4 3.108346 1_555
Mg1_0 Sb0_2 3.108346 1_545
Mg1_0 Sb1_4 3.117468 1_555
Mg1_0 Sb1_5 3.117468 1_554
Mg1_0 Sb1_2 3.117468 1_545
Mg1_0 Sb1_3 3.117468 1_544
Mg1_1 Sb0_5 3.108346 1_555
Mg1_1 Sb0_3 3.108346 1_545
Mg1_1 Sb1_4 3.117468 1_555
Mg1_1 Sb1_5 3.117468 1_555
Mg1_1 Sb1_3 3.117468 1_545
Mg1_1 Sb1_2 3.117468 1_545
Mg1_2 Sb0_0 3.108346 1_555
Mg1_2 Sb0_6 3.108346 1_555
Mg1_2 Sb1_6 3.117468 1_555
Mg1_2 Sb1_7 3.117468 1_554
Mg1_2 Sb1_1 3.117468 1_554
Mg1_2 Sb1_0 3.117468 1_555
Mg1_3 Sb0_1 3.108346 1_555
Mg1_3 Sb0_7 3.108346 1_555
Mg1_3 Sb1_7 3.117468 1_555
Mg1_3 Sb1_6 3.117468 1_555
Mg1_3 Sb1_0 3.117468 1_555
Mg1_3 Sb1_1 3.117468 1_555
Mg1_4 Sb0_0 3.108346 1_655
Mg1_4 Sb0_6 3.108346 1_545
Mg1_4 Sb1_1 3.117468 1_654
Mg1_4 Sb1_6 3.117468 1_545
Mg1_4 Sb1_0 3.117468 1_655
Mg1_4 Sb1_7 3.117468 1_544
Mg1_5 Sb0_1 3.108346 1_655
Mg1_5 Sb0_7 3.108346 1_545
Mg1_5 Sb1_1 3.117468 1_655
Mg1_5 Sb1_6 3.117468 1_545
Mg1_5 Sb1_7 3.117468 1_545
Mg1_5 Sb1_0 3.117468 1_655
Mg1_6 Sb0_2 3.108346 1_655
Mg1_6 Sb0_4 3.108346 1_555
Mg1_6 Sb1_2 3.117468 1_655
Mg1_6 Sb1_3 3.117468 1_654
Mg1_6 Sb1_4 3.117468 1_555
Mg1_6 Sb1_5 3.117468 1_554
Mg1_7 Sb0_3 3.108346 1_655
Mg1_7 Sb0_5 3.108346 1_555
Mg1_7 Sb1_2 3.117468 1_655
Mg1_7 Sb1_3 3.117468 1_655
Mg1_7 Sb1_4 3.117468 1_555
Mg1_7 Sb1_5 3.117468 1_555
Mg2_0 Sb0_3 3.094775 1_545
Mg2_0 Sb0_2 3.094775 1_545
Mg2_0 Sb0_5 3.094775 1_555
Mg2_0 Sb0_4 3.094775 1_555
Mg2_0 Sb1_2 3.208380 1_545
Mg2_0 Sb1_4 3.208380 1_555
Mg2_0 Sb2_2 3.330241 1_545
Mg2_0 Sb2_4 3.330241 1_555
Mg2_1 Sb0_3 3.094775 1_545
Mg2_1 Sb0_2 3.094775 1_546
Mg2_1 Sb0_5 3.094775 1_555
Mg2_1 Sb0_4 3.094775 1_556
Mg2_1 Sb1_3 3.208380 1_545
Mg2_1 Sb1_5 3.208380 1_555
Mg2_1 Sb2_3 3.330241 1_545
Mg2_1 Sb2_5 3.330241 1_555
Mg2_2 Sb0_0 3.094775 1_555
Mg2_2 Sb0_1 3.094775 1_555
Mg2_2 Sb0_7 3.094775 1_555
Mg2_2 Sb0_6 3.094775 1_555
Mg2_2 Sb1_6 3.208380 1_555
Mg2_2 Sb1_0 3.208380 1_555
Mg2_2 Sb2_0 3.330241 1_555
Mg2_2 Sb2_6 3.330241 1_555
Mg2_3 Sb0_0 3.094775 1_556
Mg2_3 Sb0_1 3.094775 1_555
Mg2_3 Sb0_7 3.094775 1_555
Mg2_3 Sb0_6 3.094775 1_556
Mg2_3 Sb1_7 3.208380 1_555
Mg2_3 Sb1_1 3.208380 1_555
Mg2_3 Sb2_1 3.330241 1_555
Mg2_3 Sb2_7 3.330241 1_555
Mg2_4 Sb0_6 3.094775 1_545
Mg2_4 Sb0_0 3.094775 1_655
Mg2_4 Sb0_1 3.094775 1_655
Mg2_4 Sb0_7 3.094775 1_545
Mg2_4 Sb1_6 3.208380 1_545
Mg2_4 Sb1_0 3.208380 1_655
Mg2_4 Sb2_6 3.330241 1_545
Mg2_4 Sb2_0 3.330241 1_655
Mg2_5 Sb0_0 3.094775 1_656
Mg2_5 Sb0_6 3.094775 1_546
Mg2_5 Sb0_1 3.094775 1_655
Mg2_5 Sb0_7 3.094775 1_545
Mg2_5 Sb1_7 3.208380 1_545
Mg2_5 Sb1_1 3.208380 1_655
Mg2_5 Sb2_7 3.330241 1_545
Mg2_5 Sb2_1 3.330241 1_655
Mg2_6 Sb0_5 3.094775 1_555
Mg2_6 Sb0_2 3.094775 1_655
Mg2_6 Sb0_4 3.094775 1_555
Mg2_6 Sb0_3 3.094775 1_655
Mg2_6 Sb1_2 3.208380 1_655
Mg2_6 Sb1_4 3.208380 1_555
Mg2_6 Sb2_4 3.330241 1_555
Mg2_6 Sb2_2 3.330241 1_655
Mg2_7 Sb0_5 3.094775 1_555
Mg2_7 Sb0_3 3.094775 1_655
Mg2_7 Sb0_2 3.094775 1_656
Mg2_7 Sb0_4 3.094775 1_556
Mg2_7 Sb1_3 3.208380 1_655
Mg2_7 Sb1_5 3.208380 1_555
Mg2_7 Sb2_5 3.330241 1_555
Mg2_7 Sb2_3 3.330241 1_655
Sb1_0 Sb1_6 3.223982 1_555
Sb1_0 Sb1_6 3.223982 1_445
Sb1_1 Sb1_7 3.223982 1_555
Sb1_1 Sb1_7 3.223982 1_445
Sb1_2 Sb1_4 3.223982 1_455
Sb1_2 Sb1_4 3.223982 1_565
Sb1_3 Sb1_5 3.223982 1_565
Sb1_3 Sb1_5 3.223982 1_455
