# generated using pymatgen
data_MgBi4(PO6)2
_symmetry_space_group_name_H-M   'P 1'
_cell_length_a   5.35748458
_cell_length_b   16.85841307
_cell_length_c   23.67385623
_cell_angle_alpha   90.00000000
_cell_angle_beta   90.00000000
_cell_angle_gamma   90.00000000
_symmetry_Int_Tables_number   1
_chemical_formula_structural   MgBi4(PO6)2
_chemical_formula_sum   'Mg8 Bi32 P16 O96'
_cell_volume   2138.19163615
_cell_formula_units_Z   8
loop_
 _symmetry_equiv_pos_site_id
 _symmetry_equiv_pos_as_xyz
  1  'x, y, z'
loop_
 _atom_site_type_symbol
 _atom_site_label
 _atom_site_symmetry_multiplicity
 _atom_site_fract_x
 _atom_site_fract_y
 _atom_site_fract_z
 _atom_site_occupancy
  Mg  Mg0  1  0.88686349  0.29367488  0.50701096  1
  Mg  Mg1  1  0.61313651  0.79367488  0.49298904  1
  Mg  Mg2  1  0.38686349  0.70632512  0.99298904  1
  Mg  Mg3  1  0.11313651  0.20632512  0.00701096  1
  Mg  Mg4  1  0.11313651  0.70632512  0.49298904  1
  Mg  Mg5  1  0.38686349  0.20632512  0.50701096  1
  Mg  Mg6  1  0.61313651  0.29367488  0.00701096  1
  Mg  Mg7  1  0.88686349  0.79367488  0.99298904  1
  Bi  Bi0  1  0.33327871  0.32830246  0.80149682  1
  Bi  Bi1  1  0.16672129  0.82830246  0.19850318  1
  Bi  Bi2  1  0.83327871  0.67169754  0.69850318  1
  Bi  Bi3  1  0.66672129  0.17169754  0.30149682  1
  Bi  Bi4  1  0.66672129  0.67169754  0.19850318  1
  Bi  Bi5  1  0.83327871  0.17169754  0.80149682  1
  Bi  Bi6  1  0.16672129  0.32830246  0.30149682  1
  Bi  Bi7  1  0.33327871  0.82830246  0.69850318  1
  Bi  Bi8  1  0.82531681  0.34179057  0.69462852  1
  Bi  Bi9  1  0.67468319  0.84179057  0.30537148  1
  Bi  Bi10  1  0.32531681  0.65820943  0.80537148  1
  Bi  Bi11  1  0.17468319  0.15820943  0.19462852  1
  Bi  Bi12  1  0.17468319  0.65820943  0.30537148  1
  Bi  Bi13  1  0.32531681  0.15820943  0.69462852  1
  Bi  Bi14  1  0.67468319  0.34179057  0.19462852  1
  Bi  Bi15  1  0.82531681  0.84179057  0.80537148  1
  Bi  Bi16  1  0.29905722  0.49423804  0.69348800  1
  Bi  Bi17  1  0.20094278  0.99423804  0.30651200  1
  Bi  Bi18  1  0.79905722  0.50576196  0.80651200  1
  Bi  Bi19  1  0.70094278  0.00576196  0.19348800  1
  Bi  Bi20  1  0.70094278  0.50576196  0.30651200  1
  Bi  Bi21  1  0.79905722  0.00576196  0.69348800  1
  Bi  Bi22  1  0.20094278  0.49423804  0.19348800  1
  Bi  Bi23  1  0.29905722  0.99423804  0.80651200  1
  Bi  Bi24  1  0.85173359  0.50640897  0.56803784  1
  Bi  Bi25  1  0.64826641  0.00640897  0.43196216  1
  Bi  Bi26  1  0.35173359  0.49359103  0.93196216  1
  Bi  Bi27  1  0.14826641  0.99359103  0.06803784  1
  Bi  Bi28  1  0.14826641  0.49359103  0.43196216  1
  Bi  Bi29  1  0.35173359  0.99359103  0.56803784  1
  Bi  Bi30  1  0.64826641  0.50640897  0.06803784  1
  Bi  Bi31  1  0.85173359  0.00640897  0.93196216  1
  P  P0  1  0.34577484  0.65546081  0.58969547  1
  P  P1  1  0.15422516  0.15546081  0.41030453  1
  P  P2  1  0.84577484  0.34453919  0.91030453  1
  P  P3  1  0.65422516  0.84453919  0.08969547  1
  P  P4  1  0.65422516  0.34453919  0.41030453  1
  P  P5  1  0.84577484  0.84453919  0.58969547  1
  P  P6  1  0.15422516  0.65546081  0.08969547  1
  P  P7  1  0.34577484  0.15546081  0.91030453  1
  P  P8  1  0.37718202  0.36840255  0.57854507  1
  P  P9  1  0.12281798  0.86840255  0.42145493  1
  P  P10  1  0.87718202  0.63159745  0.92145493  1
  P  P11  1  0.62281798  0.13159745  0.07854507  1
  P  P12  1  0.62281798  0.63159745  0.42145493  1
  P  P13  1  0.87718202  0.13159745  0.57854507  1
  P  P14  1  0.12281798  0.36840255  0.07854507  1
  P  P15  1  0.37718202  0.86840255  0.92145493  1
  O  O0  1  0.08873955  0.41206227  0.74821350  1
  O  O1  1  0.41126045  0.91206227  0.25178650  1
  O  O2  1  0.58873955  0.58793773  0.75178650  1
  O  O3  1  0.91126045  0.08793773  0.24821350  1
  O  O4  1  0.91126045  0.58793773  0.25178650  1
  O  O5  1  0.58873955  0.08793773  0.74821350  1
  O  O6  1  0.41126045  0.41206227  0.24821350  1
  O  O7  1  0.08873955  0.91206227  0.75178650  1
  O  O8  1  0.58660253  0.41513499  0.75062614  1
  O  O9  1  0.91339747  0.91513499  0.24937386  1
  O  O10  1  0.08660253  0.58486501  0.74937386  1
  O  O11  1  0.41339747  0.08486501  0.25062614  1
  O  O12  1  0.41339747  0.58486501  0.24937386  1
  O  O13  1  0.08660253  0.08486501  0.75062614  1
  O  O14  1  0.91339747  0.41513499  0.25062614  1
  O  O15  1  0.58660253  0.91513499  0.74937386  1
  O  O16  1  0.57163286  0.25055901  0.74631005  1
  O  O17  1  0.92836714  0.75055901  0.25368995  1
  O  O18  1  0.07163286  0.74944099  0.75368995  1
  O  O19  1  0.42836714  0.24944099  0.24631005  1
  O  O20  1  0.42836714  0.74944099  0.25368995  1
  O  O21  1  0.07163286  0.24944099  0.74631005  1
  O  O22  1  0.92836714  0.25055901  0.24631005  1
  O  O23  1  0.57163286  0.75055901  0.75368995  1
  O  O24  1  0.89850970  0.48665598  0.65460935  1
  O  O25  1  0.60149030  0.98665598  0.34539065  1
  O  O26  1  0.39850970  0.51334402  0.84539065  1
  O  O27  1  0.10149030  0.01334402  0.15460935  1
  O  O28  1  0.10149030  0.51334402  0.34539065  1
  O  O29  1  0.39850970  0.01334402  0.65460935  1
  O  O30  1  0.60149030  0.48665598  0.15460935  1
  O  O31  1  0.89850970  0.98665598  0.84539065  1
  O  O32  1  0.66172006  0.36642862  0.56236079  1
  O  O33  1  0.83827994  0.86642862  0.43763921  1
  O  O34  1  0.16172006  0.63357138  0.93763921  1
  O  O35  1  0.33827994  0.13357138  0.06236079  1
  O  O36  1  0.33827994  0.63357138  0.43763921  1
  O  O37  1  0.16172006  0.13357138  0.56236079  1
  O  O38  1  0.83827994  0.36642862  0.06236079  1
  O  O39  1  0.66172006  0.86642862  0.93763921  1
  O  O40  1  0.11121297  0.61559158  0.56023485  1
  O  O41  1  0.38878703  0.11559158  0.43976515  1
  O  O42  1  0.61121297  0.38440842  0.93976515  1
  O  O43  1  0.88878703  0.88440842  0.06023485  1
  O  O44  1  0.88878703  0.38440842  0.43976515  1
  O  O45  1  0.61121297  0.88440842  0.56023485  1
  O  O46  1  0.38878703  0.61559158  0.06023485  1
  O  O47  1  0.11121297  0.11559158  0.93976515  1
  O  O48  1  0.27332734  0.68730233  0.64906623  1
  O  O49  1  0.22667266  0.18730233  0.35093377  1
  O  O50  1  0.77332734  0.31269767  0.85093377  1
  O  O51  1  0.72667266  0.81269767  0.14906623  1
  O  O52  1  0.72667266  0.31269767  0.35093377  1
  O  O53  1  0.77332734  0.81269767  0.64906623  1
  O  O54  1  0.22667266  0.68730233  0.14906623  1
  O  O55  1  0.27332734  0.18730233  0.85093377  1
  O  O56  1  0.22923509  0.30208582  0.54764431  1
  O  O57  1  0.27076491  0.80208582  0.45235569  1
  O  O58  1  0.72923509  0.69791418  0.95235569  1
  O  O59  1  0.77076491  0.19791418  0.04764431  1
  O  O60  1  0.77076491  0.69791418  0.45235569  1
  O  O61  1  0.72923509  0.19791418  0.54764431  1
  O  O62  1  0.27076491  0.30208582  0.04764431  1
  O  O63  1  0.22923509  0.80208582  0.95235569  1
  O  O64  1  0.35583883  0.35746654  0.64402674  1
  O  O65  1  0.14416117  0.85746654  0.35597326  1
  O  O66  1  0.85583883  0.64253346  0.85597326  1
  O  O67  1  0.64416117  0.14253346  0.14402674  1
  O  O68  1  0.64416117  0.64253346  0.35597326  1
  O  O69  1  0.85583883  0.14253346  0.64402674  1
  O  O70  1  0.14416117  0.35746654  0.14402674  1
  O  O71  1  0.35583883  0.85746654  0.85597326  1
  O  O72  1  0.41633555  0.72005929  0.54717054  1
  O  O73  1  0.08366445  0.22005929  0.45282946  1
  O  O74  1  0.91633555  0.27994071  0.95282946  1
  O  O75  1  0.58366445  0.77994071  0.04717054  1
  O  O76  1  0.58366445  0.27994071  0.45282946  1
  O  O77  1  0.91633555  0.77994071  0.54717054  1
  O  O78  1  0.08366445  0.72005929  0.04717054  1
  O  O79  1  0.41633555  0.22005929  0.95282946  1
  O  O80  1  0.55982700  0.59526764  0.60061215  1
  O  O81  1  0.94017300  0.09526764  0.39938785  1
  O  O82  1  0.05982700  0.40473236  0.89938785  1
  O  O83  1  0.44017300  0.90473236  0.10061215  1
  O  O84  1  0.44017300  0.40473236  0.39938785  1
  O  O85  1  0.05982700  0.90473236  0.60061215  1
  O  O86  1  0.94017300  0.59526764  0.10061215  1
  O  O87  1  0.55982700  0.09526764  0.89938785  1
  O  O88  1  0.26850247  0.45035402  0.56116940  1
  O  O89  1  0.23149753  0.95035402  0.43883060  1
  O  O90  1  0.76850247  0.54964598  0.93883060  1
  O  O91  1  0.73149753  0.04964598  0.06116940  1
  O  O92  1  0.73149753  0.54964598  0.43883060  1
  O  O93  1  0.76850247  0.04964598  0.56116940  1
  O  O94  1  0.23149753  0.45035402  0.06116940  1
  O  O95  1  0.26850247  0.95035402  0.93883060  1
loop_
_geom_bond_atom_site_label_1
_geom_bond_atom_site_label_2
_geom_bond_distance
_geom_bond_site_symmetry_2
Mg0 O61 2.060270 1_555
Mg0 O73 2.072954 1_655
Mg0 O56 2.076036 1_655
Mg0 O76 2.082670 1_555
Mg0 O32 2.162466 1_555
Mg0 O44 2.207762 1_555
Mg1 O60 2.060270 1_555
Mg1 O72 2.072954 1_555
Mg1 O57 2.076036 1_555
Mg1 O77 2.082670 1_555
Mg1 O33 2.162466 1_555
Mg1 O45 2.207762 1_555
Mg2 O63 2.060270 1_555
Mg2 O75 2.072954 1_556
Mg2 O58 2.076036 1_555
Mg2 O78 2.082670 1_556
Mg2 O34 2.162466 1_555
Mg2 O46 2.207762 1_556
Mg3 O62 2.060270 1_555
Mg3 O74 2.072954 1_454
Mg3 O59 2.076036 1_455
Mg3 O79 2.082670 1_554
Mg3 O35 2.162466 1_555
Mg3 O47 2.207762 1_554
Mg4 O57 2.060270 1_555
Mg4 O77 2.072954 1_455
Mg4 O60 2.076036 1_455
Mg4 O72 2.082670 1_555
Mg4 O36 2.162466 1_555
Mg4 O40 2.207762 1_555
Mg5 O56 2.060270 1_555
Mg5 O76 2.072954 1_555
Mg5 O61 2.076036 1_555
Mg5 O73 2.082670 1_555
Mg5 O37 2.162466 1_555
Mg5 O41 2.207762 1_555
Mg6 O59 2.060270 1_555
Mg6 O79 2.072954 1_554
Mg6 O62 2.076036 1_555
Mg6 O74 2.082670 1_554
Mg6 O38 2.162466 1_555
Mg6 O42 2.207762 1_554
Mg7 O58 2.060270 1_555
Mg7 O78 2.072954 1_656
Mg7 O63 2.076036 1_655
Mg7 O75 2.082670 1_556
Mg7 O39 2.162466 1_555
Mg7 O43 2.207762 1_556
Bi0 O16 2.248406 1_555
Bi0 O0 2.302497 1_555
Bi0 O8 2.331344 1_555
Bi0 O21 2.332243 1_555
Bi0 O50 2.645187 1_555
Bi0 O55 2.668937 1_555
Bi1 O17 2.248406 1_455
Bi1 O1 2.302497 1_555
Bi1 O9 2.331344 1_455
Bi1 O20 2.332243 1_555
Bi1 O51 2.645187 1_455
Bi1 O54 2.668937 1_555
Bi2 O18 2.248406 1_655
Bi2 O2 2.302497 1_555
Bi2 O10 2.331344 1_655
Bi2 O23 2.332243 1_555
Bi2 O48 2.645187 1_655
Bi2 O53 2.668937 1_555
Bi3 O19 2.248406 1_555
Bi3 O3 2.302497 1_555
Bi3 O11 2.331344 1_555
Bi3 O22 2.332243 1_555
Bi3 O49 2.645187 1_555
Bi3 O52 2.668937 1_555
Bi4 O20 2.248406 1_555
Bi4 O4 2.302497 1_555
Bi4 O12 2.331344 1_555
Bi4 O17 2.332243 1_555
Bi4 O54 2.645187 1_555
Bi4 O51 2.668937 1_555
Bi5 O21 2.248406 1_655
Bi5 O5 2.302497 1_555
Bi5 O13 2.331344 1_655
Bi5 O16 2.332243 1_555
Bi5 O55 2.645187 1_655
Bi5 O50 2.668937 1_555
Bi6 O22 2.248406 1_455
Bi6 O6 2.302497 1_555
Bi6 O14 2.331344 1_455
Bi6 O19 2.332243 1_555
Bi6 O52 2.645187 1_455
Bi6 O49 2.668937 1_555
Bi7 O23 2.248406 1_555
Bi7 O7 2.302497 1_555
Bi7 O15 2.331344 1_555
Bi7 O18 2.332243 1_555
Bi7 O53 2.645187 1_555
Bi7 O48 2.668937 1_555
Bi8 O8 2.218534 1_555
Bi8 O0 2.237055 1_655
Bi8 O21 2.379543 1_655
Bi8 O16 2.389484 1_555
Bi8 O24 2.648715 1_555
Bi8 O64 2.798434 1_555
Bi9 O9 2.218534 1_555
Bi9 O1 2.237055 1_555
Bi9 O20 2.379543 1_555
Bi9 O17 2.389484 1_555
Bi9 O25 2.648715 1_555
Bi9 O65 2.798434 1_655
Bi10 O10 2.218534 1_555
Bi10 O2 2.237055 1_555
Bi10 O23 2.379543 1_555
Bi10 O18 2.389484 1_555
Bi10 O26 2.648715 1_555
Bi10 O66 2.798434 1_455
Bi11 O11 2.218534 1_555
Bi11 O3 2.237055 1_455
Bi11 O22 2.379543 1_455
Bi11 O19 2.389484 1_555
Bi11 O27 2.648715 1_555
Bi11 O67 2.798434 1_555
Bi12 O12 2.218534 1_555
Bi12 O4 2.237055 1_455
Bi12 O17 2.379543 1_455
Bi12 O20 2.389484 1_555
Bi12 O28 2.648715 1_555
Bi12 O68 2.798434 1_555
Bi13 O13 2.218534 1_555
Bi13 O5 2.237055 1_555
Bi13 O16 2.379543 1_555
Bi13 O21 2.389484 1_555
Bi13 O29 2.648715 1_555
Bi13 O69 2.798434 1_455
Bi14 O14 2.218534 1_555
Bi14 O6 2.237055 1_555
Bi14 O19 2.379543 1_555
Bi14 O22 2.389484 1_555
Bi14 O30 2.648715 1_555
Bi14 O70 2.798434 1_655
Bi15 O15 2.218534 1_555
Bi15 O7 2.237055 1_655
Bi15 O18 2.379543 1_655
Bi15 O23 2.389484 1_555
Bi15 O31 2.648715 1_555
Bi15 O71 2.798434 1_555
Bi16 O0 2.206197 1_555
Bi16 O10 2.319531 1_555
Bi16 O24 2.338481 1_455
Bi16 O8 2.445671 1_555
Bi16 O64 2.603867 1_555
Bi16 O2 2.609338 1_555
Bi17 O1 2.206197 1_555
Bi17 O11 2.319531 1_565
Bi17 O25 2.338481 1_555
Bi17 O9 2.445671 1_455
Bi17 O65 2.603867 1_555
Bi17 O3 2.609338 1_465
Bi18 O2 2.206197 1_555
Bi18 O8 2.319531 1_555
Bi18 O26 2.338481 1_555
Bi18 O10 2.445671 1_655
Bi18 O66 2.603867 1_555
Bi18 O0 2.609338 1_655
Bi19 O3 2.206197 1_555
Bi19 O9 2.319531 1_545
Bi19 O27 2.338481 1_655
Bi19 O11 2.445671 1_555
Bi19 O67 2.603867 1_555
Bi19 O1 2.609338 1_545
Bi20 O4 2.206197 1_555
Bi20 O14 2.319531 1_555
Bi20 O28 2.338481 1_655
Bi20 O12 2.445671 1_555
Bi20 O68 2.603867 1_555
Bi20 O6 2.609338 1_555
Bi21 O5 2.206197 1_555
Bi21 O15 2.319531 1_545
Bi21 O29 2.338481 1_555
Bi21 O13 2.445671 1_655
Bi21 O69 2.603867 1_555
Bi21 O7 2.609338 1_645
Bi22 O6 2.206197 1_555
Bi22 O12 2.319531 1_555
Bi22 O30 2.338481 1_555
Bi22 O14 2.445671 1_455
Bi22 O70 2.603867 1_555
Bi22 O4 2.609338 1_455
Bi23 O7 2.206197 1_555
Bi23 O13 2.319531 1_565
Bi23 O31 2.338481 1_455
Bi23 O15 2.445671 1_555
Bi23 O71 2.603867 1_555
Bi23 O5 2.609338 1_565
Bi24 O24 2.091427 1_555
Bi24 O80 2.298799 1_555
Bi24 O40 2.314009 1_655
Bi24 O88 2.430021 1_655
Bi24 O32 2.573568 1_555
Bi25 O25 2.091427 1_545
Bi25 O81 2.298799 1_555
Bi25 O41 2.314009 1_555
Bi25 O89 2.430021 1_545
Bi25 O33 2.573568 1_545
Bi26 O26 2.091427 1_555
Bi26 O82 2.298799 1_555
Bi26 O42 2.314009 1_555
Bi26 O90 2.430021 1_555
Bi26 O34 2.573568 1_555
Bi27 O27 2.091427 1_565
Bi27 O83 2.298799 1_555
Bi27 O43 2.314009 1_455
Bi27 O91 2.430021 1_465
Bi27 O35 2.573568 1_565
Bi28 O28 2.091427 1_555
Bi28 O84 2.298799 1_555
Bi28 O44 2.314009 1_455
Bi28 O92 2.430021 1_455
Bi28 O36 2.573568 1_555
Bi29 O29 2.091427 1_565
Bi29 O85 2.298799 1_555
Bi29 O45 2.314009 1_555
Bi29 O93 2.430021 1_565
Bi29 O37 2.573568 1_565
Bi30 O30 2.091427 1_555
Bi30 O86 2.298799 1_555
Bi30 O46 2.314009 1_555
Bi30 O94 2.430021 1_555
Bi30 O38 2.573568 1_555
Bi31 O31 2.091427 1_545
Bi31 O87 2.298799 1_555
Bi31 O47 2.314009 1_655
Bi31 O95 2.430021 1_645
Bi31 O39 2.573568 1_545
O32 P8 1.572173 1_555
O33 P9 1.572173 1_655
O34 P10 1.572173 1_455
O35 P11 1.572173 1_555
O36 P12 1.572173 1_555
O37 P13 1.572173 1_455
O38 P14 1.572173 1_655
O39 P15 1.572173 1_555
O40 P0 1.586629 1_555
O41 P1 1.586629 1_555
O42 P2 1.586629 1_555
O43 P3 1.586629 1_555
O44 P4 1.586629 1_555
O45 P5 1.586629 1_555
O46 P6 1.586629 1_555
O47 P7 1.586629 1_555
O48 P0 1.553811 1_555
O49 P1 1.553811 1_555
O50 P2 1.553811 1_555
O51 P3 1.553811 1_555
O52 P4 1.553811 1_555
O53 P5 1.553811 1_555
O54 P6 1.553811 1_555
O55 P7 1.553811 1_555
O56 P8 1.553485 1_555
O57 P9 1.553485 1_555
O58 P10 1.553485 1_555
O59 P11 1.553485 1_555
O60 P12 1.553485 1_555
O61 P13 1.553485 1_555
O62 P14 1.553485 1_555
O63 P15 1.553485 1_555
O64 P8 1.565310 1_555
O65 P9 1.565310 1_555
O66 P10 1.565310 1_555
O67 P11 1.565310 1_555
O68 P12 1.565310 1_555
O69 P13 1.565310 1_555
O70 P14 1.565310 1_555
O71 P15 1.565310 1_555
O72 P0 1.530487 1_555
O73 P1 1.530487 1_555
O74 P2 1.530487 1_555
O75 P3 1.530487 1_555
O76 P4 1.530487 1_555
O77 P5 1.530487 1_555
O78 P6 1.530487 1_555
O79 P7 1.530487 1_555
O80 P0 1.552945 1_555
O81 P1 1.552945 1_655
O82 P2 1.552945 1_455
O83 P3 1.552945 1_555
O84 P4 1.552945 1_555
O85 P5 1.552945 1_455
O86 P6 1.552945 1_655
O87 P7 1.552945 1_555
O88 P8 1.554658 1_555
O89 P9 1.554658 1_555
O90 P10 1.554658 1_555
O91 P11 1.554658 1_555
O92 P12 1.554658 1_555
O93 P13 1.554658 1_555
O94 P14 1.554658 1_555
O95 P15 1.554658 1_555
