# generated using pymatgen
data_BaC4(O2F3)2
_symmetry_space_group_name_H-M   'P 1'
_cell_length_a   12.96673324
_cell_length_b   12.96673324
_cell_length_c   12.96673338
_cell_angle_alpha   112.75921732
_cell_angle_beta   112.75921732
_cell_angle_gamma   112.75921640
_symmetry_Int_Tables_number   1
_chemical_formula_structural   BaC4(O2F3)2
_chemical_formula_sum   'Ba6 C24 O24 F36'
_cell_volume   1438.29692412
_cell_formula_units_Z   6
loop_
 _symmetry_equiv_pos_site_id
 _symmetry_equiv_pos_as_xyz
  1  'x, y, z'
loop_
 _atom_site_type_symbol
 _atom_site_label
 _atom_site_symmetry_multiplicity
 _atom_site_fract_x
 _atom_site_fract_y
 _atom_site_fract_z
 _atom_site_occupancy
  Ba  Ba0  1  0.48599500  0.05226700  0.84483500  1
  Ba  Ba1  1  0.05226700  0.84483500  0.48599500  1
  Ba  Ba2  1  0.84483500  0.48599500  0.05226700  1
  Ba  Ba3  1  0.51400500  0.94773300  0.15516500  1
  Ba  Ba4  1  0.94773300  0.15516500  0.51400500  1
  Ba  Ba5  1  0.15516500  0.51400500  0.94773300  1
  C  C0  1  0.20765700  0.86821300  0.82574600  1
  C  C1  1  0.86821300  0.82574600  0.20765700  1
  C  C2  1  0.82574600  0.20765700  0.86821300  1
  C  C3  1  0.79234300  0.13178700  0.17425400  1
  C  C4  1  0.13178700  0.17425400  0.79234300  1
  C  C5  1  0.17425400  0.79234300  0.13178700  1
  C  C6  1  0.06875400  0.77195300  0.80266100  1
  C  C7  1  0.77195300  0.80266100  0.06875400  1
  C  C8  1  0.80266100  0.06875400  0.77195300  1
  C  C9  1  0.93124600  0.22804700  0.19733900  1
  C  C10  1  0.22804700  0.19733900  0.93124600  1
  C  C11  1  0.19733900  0.93124600  0.22804700  1
  C  C12  1  0.74207700  0.42266400  0.23678400  1
  C  C13  1  0.42266400  0.23678400  0.74207700  1
  C  C14  1  0.23678400  0.74207700  0.42266400  1
  C  C15  1  0.25792300  0.57733600  0.76321600  1
  C  C16  1  0.57733600  0.76321600  0.25792300  1
  C  C17  1  0.76321600  0.25792300  0.57733600  1
  C  C18  1  0.69829600  0.38245600  0.32023600  1
  C  C19  1  0.38245600  0.32023600  0.69829600  1
  C  C20  1  0.32023600  0.69829600  0.38245600  1
  C  C21  1  0.30170400  0.61754400  0.67976400  1
  C  C22  1  0.61754400  0.67976400  0.30170400  1
  C  C23  1  0.67976400  0.30170400  0.61754400  1
  O  O0  1  0.18823600  0.86739400  0.72198400  1
  O  O1  1  0.86739400  0.72198400  0.18823600  1
  O  O2  1  0.72198400  0.18823600  0.86739400  1
  O  O3  1  0.81176400  0.13260600  0.27801600  1
  O  O4  1  0.13260600  0.27801600  0.81176400  1
  O  O5  1  0.27801600  0.81176400  0.13260600  1
  O  O6  1  0.32745000  0.93623000  0.94339400  1
  O  O7  1  0.93623000  0.94339400  0.32745000  1
  O  O8  1  0.94339400  0.32745000  0.93623000  1
  O  O9  1  0.67255000  0.06377000  0.05660600  1
  O  O10  1  0.06377000  0.05660600  0.67255000  1
  O  O11  1  0.05660600  0.67255000  0.06377000  1
  O  O12  1  0.67453700  0.32247300  0.10640800  1
  O  O13  1  0.32247300  0.10640800  0.67453700  1
  O  O14  1  0.10640800  0.67453700  0.32247300  1
  O  O15  1  0.32546300  0.67752700  0.89359200  1
  O  O16  1  0.67752700  0.89359200  0.32546300  1
  O  O17  1  0.89359200  0.32546300  0.67752700  1
  O  O18  1  0.84462700  0.55347700  0.30974800  1
  O  O19  1  0.55347700  0.30974800  0.84462700  1
  O  O20  1  0.30974800  0.84462700  0.55347700  1
  O  O21  1  0.15537300  0.44652300  0.69025200  1
  O  O22  1  0.44652300  0.69025200  0.15537300  1
  O  O23  1  0.69025200  0.15537300  0.44652300  1
  F  F0  1  0.94958500  0.73068100  0.68925000  1
  F  F1  1  0.73068100  0.68925000  0.94958500  1
  F  F2  1  0.68925000  0.94958500  0.73068100  1
  F  F3  1  0.05041500  0.26931900  0.31075000  1
  F  F4  1  0.26931900  0.31075000  0.05041500  1
  F  F5  1  0.31075000  0.05041500  0.26931900  1
  F  F6  1  0.04699100  0.64866500  0.77537300  1
  F  F7  1  0.64866500  0.77537300  0.04699100  1
  F  F8  1  0.77537300  0.04699100  0.64866500  1
  F  F9  1  0.95300900  0.35133500  0.22462700  1
  F  F10  1  0.35133500  0.22462700  0.95300900  1
  F  F11  1  0.22462700  0.95300900  0.35133500  1
  F  F12  1  0.07886000  0.83950100  0.92045100  1
  F  F13  1  0.83950100  0.92045100  0.07886000  1
  F  F14  1  0.92045100  0.07886000  0.83950100  1
  F  F15  1  0.92114000  0.16049900  0.07954900  1
  F  F16  1  0.16049900  0.07954900  0.92114000  1
  F  F17  1  0.07954900  0.92114000  0.16049900  1
  F  F18  1  0.58560800  0.23773000  0.23371600  1
  F  F19  1  0.23773000  0.23371600  0.58560800  1
  F  F20  1  0.23371600  0.58560800  0.23773000  1
  F  F21  1  0.41439200  0.76227000  0.76628400  1
  F  F22  1  0.76227000  0.76628400  0.41439200  1
  F  F23  1  0.76628400  0.41439200  0.76227000  1
  F  F24  1  0.81104200  0.41288400  0.43139800  1
  F  F25  1  0.41288400  0.43139800  0.81104200  1
  F  F26  1  0.43139800  0.81104200  0.41288400  1
  F  F27  1  0.18895800  0.58711600  0.56860200  1
  F  F28  1  0.58711600  0.56860200  0.18895800  1
  F  F29  1  0.56860200  0.18895800  0.58711600  1
  F  F30  1  0.65743500  0.45531700  0.37435200  1
  F  F31  1  0.45531700  0.37435200  0.65743500  1
  F  F32  1  0.37435200  0.65743500  0.45531700  1
  F  F33  1  0.34256500  0.54468300  0.62564800  1
  F  F34  1  0.54468300  0.62564800  0.34256500  1
  F  F35  1  0.62564800  0.34256500  0.54468300  1
loop_
_geom_bond_atom_site_label_1
_geom_bond_atom_site_label_2
_geom_bond_distance
_geom_bond_site_symmetry_2
Ba0 O2 2.700338 1_555
Ba0 O20 2.726488 1_545
Ba0 O12 2.742069 1_556
Ba0 O9 2.771050 1_556
Ba0 O0 2.883875 1_545
Ba0 O13 2.931448 1_555
Ba0 O6 3.041510 1_545
Ba0 F21 3.105330 1_545
Ba0 O19 3.108205 1_555
Ba1 O0 2.700338 1_555
Ba1 O18 2.726488 1_455
Ba1 O13 2.742069 1_565
Ba1 O10 2.771050 1_565
Ba1 O1 2.883875 1_455
Ba1 O14 2.931448 1_555
Ba1 O7 3.041510 1_455
Ba1 F22 3.105330 1_455
Ba1 O20 3.108205 1_555
Ba2 O1 2.700338 1_555
Ba2 O19 2.726488 1_554
Ba2 O14 2.742069 1_655
Ba2 O11 2.771050 1_655
Ba2 O2 2.883875 1_554
Ba2 O12 2.931448 1_555
Ba2 O8 3.041510 1_554
Ba2 F23 3.105330 1_554
Ba2 O18 3.108205 1_555
Ba3 O5 2.700338 1_555
Ba3 O23 2.726488 1_565
Ba3 O15 2.742069 1_554
Ba3 O6 2.771050 1_554
Ba3 O3 2.883875 1_565
Ba3 O16 2.931448 1_555
Ba3 O9 3.041510 1_565
Ba3 F18 3.105330 1_565
Ba3 O22 3.108205 1_555
Ba4 O3 2.700338 1_555
Ba4 O21 2.726488 1_655
Ba4 O16 2.742069 1_545
Ba4 O7 2.771050 1_545
Ba4 O4 2.883875 1_655
Ba4 O17 2.931448 1_555
Ba4 O10 3.041510 1_655
Ba4 F19 3.105330 1_655
Ba4 O23 3.108205 1_555
Ba5 O4 2.700338 1_555
Ba5 O22 2.726488 1_556
Ba5 O17 2.742069 1_455
Ba5 O8 2.771050 1_455
Ba5 O5 2.883875 1_556
Ba5 O15 2.931448 1_555
Ba5 O11 3.041510 1_556
Ba5 F20 3.105330 1_556
Ba5 O21 3.108205 1_555
C0 O6 1.258363 1_555
C0 O0 1.264318 1_555
C1 O7 1.258363 1_555
C1 O1 1.264318 1_555
C2 O8 1.258363 1_555
C2 O2 1.264318 1_555
C3 O9 1.258363 1_555
C3 O3 1.264318 1_555
C4 O10 1.258363 1_555
C4 O4 1.264318 1_555
C5 O11 1.258363 1_555
C5 O5 1.264318 1_555
C6 F0 1.352702 1_455
C6 F12 1.355881 1_555
C6 F6 1.377145 1_555
C7 F1 1.352702 1_554
C7 F13 1.355881 1_555
C7 F7 1.377145 1_555
C8 F2 1.352702 1_545
C8 F14 1.355881 1_555
C8 F8 1.377145 1_555
C9 F3 1.352702 1_655
C9 F15 1.355881 1_555
C9 F9 1.377145 1_555
C10 F4 1.352702 1_556
C10 F16 1.355881 1_555
C10 F10 1.377145 1_555
C11 F5 1.352702 1_565
C11 F17 1.355881 1_555
C11 F11 1.377145 1_555
C12 O18 1.257089 1_555
C12 O12 1.260001 1_555
C13 O19 1.257089 1_555
C13 O13 1.260001 1_555
C14 O20 1.257089 1_555
C14 O14 1.260001 1_555
C15 O21 1.257089 1_555
C15 O15 1.260001 1_555
C16 O22 1.257089 1_555
C16 O16 1.260001 1_555
C17 O23 1.257089 1_555
C17 O17 1.260001 1_555
C18 F30 1.351935 1_555
C18 F24 1.361571 1_555
C18 F18 1.377137 1_555
C19 F31 1.351935 1_555
C19 F25 1.361571 1_555
C19 F19 1.377137 1_555
C20 F32 1.351935 1_555
C20 F26 1.361571 1_555
C20 F20 1.377137 1_555
C21 F33 1.351935 1_555
C21 F27 1.361571 1_555
C21 F21 1.377137 1_555
C22 F34 1.351935 1_555
C22 F28 1.361571 1_555
C22 F22 1.377137 1_555
C23 F35 1.351935 1_555
C23 F29 1.361571 1_555
C23 F23 1.377137 1_555
