# generated using pymatgen
data_KYb(MoO4)2
_symmetry_space_group_name_H-M   'P 1'
_cell_length_a   7.54280123
_cell_length_b   7.54280123
_cell_length_c   7.78947135
_cell_angle_alpha   61.81146953
_cell_angle_beta   61.81146953
_cell_angle_gamma   87.97848077
_symmetry_Int_Tables_number   1
_chemical_formula_structural   KYb(MoO4)2
_chemical_formula_sum   'K2 Yb2 Mo4 O16'
_cell_volume   334.06632060
_cell_formula_units_Z   2
loop_
 _symmetry_equiv_pos_site_id
 _symmetry_equiv_pos_as_xyz
  1  'x, y, z'
loop_
 _atom_site_type_symbol
 _atom_site_label
 _atom_site_symmetry_multiplicity
 _atom_site_fract_x
 _atom_site_fract_y
 _atom_site_fract_z
 _atom_site_occupancy
  K  K0  1  0.19976800  0.80023200  0.75000000  1
  K  K1  1  0.80023200  0.19976800  0.25000000  1
  Yb  Yb0  1  0.77062000  0.22938000  0.75000000  1
  Yb  Yb1  1  0.22938000  0.77062000  0.25000000  1
  Mo  Mo0  1  0.69682900  0.69949600  0.75827900  1
  Mo  Mo1  1  0.30317100  0.30050400  0.24172100  1
  Mo  Mo2  1  0.30050400  0.30317100  0.74172100  1
  Mo  Mo3  1  0.69949600  0.69682900  0.25827900  1
  O  O0  1  0.61394700  0.76878200  0.55805300  1
  O  O1  1  0.38605300  0.23121800  0.44194700  1
  O  O2  1  0.23121800  0.38605300  0.94194700  1
  O  O3  1  0.76878200  0.61394700  0.05805300  1
  O  O4  1  0.38372100  0.06894200  0.87021100  1
  O  O5  1  0.61627900  0.93105800  0.12978900  1
  O  O6  1  0.93105800  0.61627900  0.62978900  1
  O  O7  1  0.06894200  0.38372100  0.37021100  1
  O  O8  1  0.58263500  0.36901300  0.97261000  1
  O  O9  1  0.41736500  0.63098700  0.02739000  1
  O  O10  1  0.63098700  0.41736500  0.52739000  1
  O  O11  1  0.36901300  0.58263500  0.47261000  1
  O  O12  1  0.79267700  0.95195400  0.69120400  1
  O  O13  1  0.20732300  0.04804600  0.30879600  1
  O  O14  1  0.04804600  0.20732300  0.80879600  1
  O  O15  1  0.95195400  0.79267700  0.19120400  1
loop_
_geom_bond_atom_site_label_1
_geom_bond_atom_site_label_2
_geom_bond_distance
_geom_bond_site_symmetry_2
K0 O2 2.814514 1_555
K0 O0 2.814514 1_555
K0 O1 2.840335 1_565
K0 O3 2.840335 1_456
K0 O15 3.010289 1_456
K0 O13 3.010289 1_565
K0 O9 3.096593 1_556
K0 O11 3.096593 1_555
K0 O6 3.182598 1_455
K0 O4 3.182598 1_565
K1 O3 2.814514 1_555
K1 O1 2.814514 1_555
K1 O2 2.840335 1_654
K1 O0 2.840335 1_545
K1 O12 3.010289 1_545
K1 O14 3.010289 1_654
K1 O10 3.096593 1_555
K1 O8 3.096593 1_554
K1 O5 3.182598 1_545
K1 O7 3.182598 1_655
Mo0 O12 1.795021 1_555
Mo0 O0 1.795698 1_555
Mo0 O6 1.833527 1_555
Mo0 O9 1.995874 1_556
Mo0 O8 2.145744 1_555
Mo0 O3 2.431583 1_556
Mo1 O13 1.795021 1_555
Mo1 O1 1.795698 1_555
Mo1 O7 1.833527 1_555
Mo1 O8 1.995874 1_554
Mo1 O9 2.145744 1_555
Mo1 O2 2.431583 1_554
Mo2 O14 1.795021 1_555
Mo2 O2 1.795698 1_555
Mo2 O4 1.833527 1_555
Mo2 O11 1.995874 1_555
Mo2 O10 2.145744 1_555
Mo2 O1 2.431583 1_555
Mo3 O15 1.795021 1_555
Mo3 O3 1.795698 1_555
Mo3 O5 1.833527 1_555
Mo3 O10 1.995874 1_555
Mo3 O11 2.145744 1_555
Mo3 O0 2.431583 1_555
O4 Yb1 2.410916 1_546
O4 Yb0 2.730330 1_555
O5 Yb0 2.410916 1_564
O5 Yb1 2.730330 1_555
O6 Yb1 2.410916 1_655
O6 Yb0 2.730330 1_555
O7 Yb0 2.410916 1_455
O7 Yb1 2.730330 1_555
O8 Yb0 2.328904 1_555
O9 Yb1 2.328904 1_555
O10 Yb0 2.328904 1_555
O11 Yb1 2.328904 1_555
O12 Yb0 2.329196 1_565
O13 Yb1 2.329196 1_545
O14 Yb0 2.329196 1_455
O15 Yb1 2.329196 1_655
