# generated using pymatgen
data_Th2Si3Pt
_symmetry_space_group_name_H-M   'P 1'
_cell_length_a   7.64868930
_cell_length_b   7.64868930
_cell_length_c   7.64868930
_cell_angle_alpha   148.04905623
_cell_angle_beta   147.86988293
_cell_angle_gamma   45.94536591
_symmetry_Int_Tables_number   1
_chemical_formula_structural   Th2Si3Pt
_chemical_formula_sum   'Th2 Si3 Pt1'
_cell_volume   125.50999277
_cell_formula_units_Z   1
loop_
 _symmetry_equiv_pos_site_id
 _symmetry_equiv_pos_as_xyz
  1  'x, y, z'
loop_
 _atom_site_type_symbol
 _atom_site_label
 _atom_site_symmetry_multiplicity
 _atom_site_fract_x
 _atom_site_fract_y
 _atom_site_fract_z
 _atom_site_occupancy
  Th  Th0  1  0.74577662  0.24577662  0.50000000  1
  Th  Th1  1  0.00119252  0.00119252  0.00000000  1
  Si  Si0  1  0.41684292  0.41684292  0.00000000  1
  Si  Si1  1  0.16646857  0.66646857  0.50000000  1
  Si  Si2  1  0.58497218  0.58497218  -0.00000000  1
  Pt  Pt0  1  0.33474719  0.83474719  0.50000000  1
loop_
_geom_bond_atom_site_label_1
_geom_bond_atom_site_label_2
_geom_bond_distance
_geom_bond_site_symmetry_2
Si0 Si2 2.367959 1_555
Si0 Th0 3.207007 1_454
Si0 Th0 3.207007 1_555
Si0 Th1 3.212925 1_565
Si0 Th1 3.212925 1_655
Si0 Th1 3.212925 1_554
Si0 Th1 3.212925 1_666
Si1 Si2 2.407802 1_556
Si1 Si2 2.407802 1_455
Si1 Th1 3.138479 1_555
Si1 Th1 3.138479 1_566
Si1 Th0 3.187353 1_454
Si1 Th0 3.187353 1_566
Si1 Th0 3.187353 1_555
Si1 Th0 3.187353 1_465
Si2 Th0 3.092057 1_565
Si2 Th0 3.092057 1_554
Si2 Th1 3.209966 1_565
Si2 Th1 3.209966 1_655
Si2 Th1 3.209966 1_554
Si2 Th1 3.209966 1_666
Pt0 Si1 2.370063 1_555
Pt0 Si0 2.401755 1_555
Pt0 Si0 2.401755 1_566
Pt0 Th1 3.158404 1_666
Pt0 Th1 3.158404 1_565
Pt0 Th0 3.237555 1_454
Pt0 Th0 3.237555 1_566
Pt0 Th0 3.237555 1_555
Pt0 Th0 3.237555 1_465
