# generated using pymatgen
data_TlSn2I5
_symmetry_space_group_name_H-M   'P 1'
_cell_length_a   10.09628070
_cell_length_b   10.09628070
_cell_length_c   10.09628070
_cell_angle_alpha   127.85145078
_cell_angle_beta   127.85145078
_cell_angle_gamma   76.86579573
_symmetry_Int_Tables_number   1
_chemical_formula_structural   TlSn2I5
_chemical_formula_sum   'Tl2 Sn4 I10'
_cell_volume   622.99052767
_cell_formula_units_Z   2
loop_
 _symmetry_equiv_pos_site_id
 _symmetry_equiv_pos_as_xyz
  1  'x, y, z'
loop_
 _atom_site_type_symbol
 _atom_site_label
 _atom_site_symmetry_multiplicity
 _atom_site_fract_x
 _atom_site_fract_y
 _atom_site_fract_z
 _atom_site_occupancy
  Tl  Tl0  1  0.25000000  0.25000000  0.00000000  1
  Tl  Tl1  1  0.75000000  0.75000000  0.00000000  1
  Sn  Sn0  1  0.66680100  0.16680100  0.83360200  1
  Sn  Sn1  1  0.33319900  0.83319900  0.16639800  1
  Sn  Sn2  1  0.16680100  0.33319900  0.50000000  1
  Sn  Sn3  1  0.83319900  0.66680100  0.50000000  1
  I  I0  1  0.00000000  0.00000000  0.00000000  1
  I  I1  1  0.50000000  0.50000000  0.00000000  1
  I  I2  1  0.29716100  0.79716100  0.82158000  1
  I  I3  1  0.70283900  0.20283900  0.17842000  1
  I  I4  1  0.97558100  0.47558100  0.17842000  1
  I  I5  1  0.79716100  0.97558100  0.50000000  1
  I  I6  1  0.52441900  0.70283900  0.50000000  1
  I  I7  1  0.02441900  0.52441900  0.82158000  1
  I  I8  1  0.20283900  0.02441900  0.50000000  1
  I  I9  1  0.47558100  0.29716100  0.50000000  1
loop_
_geom_bond_atom_site_label_1
_geom_bond_atom_site_label_2
_geom_bond_distance
_geom_bond_site_symmetry_2
I0 Sn3 3.307117 1_444
I0 Sn2 3.307117 1_555
I0 Sn1 3.307117 1_545
I0 Sn0 3.307117 1_454
I1 Sn3 3.307117 1_555
I1 Sn2 3.307117 1_554
I1 Sn0 3.307117 1_554
I1 Sn1 3.307117 1_555
I2 Sn1 3.055466 1_556
I3 Sn0 3.055466 1_554
I4 Sn0 3.055466 1_554
I5 Sn3 3.055466 1_555
I6 Sn3 3.055466 1_555
I7 Sn1 3.055466 1_556
I8 Sn2 3.055466 1_555
I9 Sn2 3.055466 1_555
