# generated using pymatgen
data_NdInNi4
_symmetry_space_group_name_H-M   'P 1'
_cell_length_a   5.00552899
_cell_length_b   5.00552899
_cell_length_c   5.00552899
_cell_angle_alpha   60.00000000
_cell_angle_beta   60.00000000
_cell_angle_gamma   60.00000000
_symmetry_Int_Tables_number   1
_chemical_formula_structural   NdInNi4
_chemical_formula_sum   'Nd1 In1 Ni4'
_cell_volume   88.68189081
_cell_formula_units_Z   1
loop_
 _symmetry_equiv_pos_site_id
 _symmetry_equiv_pos_as_xyz
  1  'x, y, z'
loop_
 _atom_site_type_symbol
 _atom_site_label
 _atom_site_symmetry_multiplicity
 _atom_site_fract_x
 _atom_site_fract_y
 _atom_site_fract_z
 _atom_site_occupancy
  Nd  Nd0  1  0.25000000  0.25000000  0.25000000  1
  In  In0  1  -0.00000000  -0.00000000  0.00000000  1
  Ni  Ni0  1  0.62647935  0.62647935  0.62647935  1
  Ni  Ni1  1  0.62647935  0.62647935  0.12056394  1
  Ni  Ni2  1  0.62647935  0.12056394  0.62647935  1
  Ni  Ni3  1  0.12056394  0.62647935  0.62647935  1
loop_
_geom_bond_atom_site_label_1
_geom_bond_atom_site_label_2
_geom_bond_distance
_geom_bond_site_symmetry_2
Nd0 Ni2 2.937959 1_455
Nd0 Ni3 2.937959 1_545
Nd0 Ni3 2.937959 1_554
Nd0 Ni2 2.937959 1_554
Nd0 Ni1 2.937959 1_455
Nd0 Ni1 2.937959 1_545
Nd0 Ni0 2.937963 1_545
Nd0 Ni0 2.937963 1_455
Nd0 Ni0 2.937963 1_554
Nd0 Ni2 2.937967 1_555
Nd0 Ni3 2.937967 1_555
Nd0 Ni1 2.937967 1_555
In0 Ni3 2.931644 1_544
In0 Ni2 2.931644 1_454
In0 Ni1 2.931644 1_445
In0 Ni0 2.931648 1_454
In0 Ni0 2.931648 1_544
In0 Ni0 2.931648 1_445
In0 Ni3 2.931653 1_545
In0 Ni1 2.931653 1_545
In0 Ni2 2.931653 1_455
In0 Ni3 2.931653 1_554
In0 Ni1 2.931653 1_455
In0 Ni2 2.931653 1_554
In0 Nd0 3.065248 1_554
In0 Nd0 3.065248 1_455
In0 Nd0 3.065248 1_555
In0 Nd0 3.065248 1_545
Ni0 Ni3 2.473155 1_655
Ni0 Ni2 2.473155 1_565
Ni0 Ni1 2.473155 1_556
Ni0 Ni3 2.532374 1_555
Ni0 Ni1 2.532374 1_555
Ni0 Ni2 2.532374 1_555
Ni1 Ni2 2.473155 1_564
Ni1 Ni3 2.473155 1_654
Ni1 Ni3 2.532374 1_555
Ni1 Ni2 2.532374 1_555
Ni2 Ni3 2.473155 1_645
Ni2 Ni3 2.532374 1_555
