# generated using pymatgen
data_SrPrNiBiO6
_symmetry_space_group_name_H-M   'P 1'
_cell_length_a   5.78989564
_cell_length_b   5.78989564
_cell_length_c   5.78989564
_cell_angle_alpha   60.00000000
_cell_angle_beta   60.00000000
_cell_angle_gamma   60.00000000
_symmetry_Int_Tables_number   1
_chemical_formula_structural   SrPrNiBiO6
_chemical_formula_sum   'Sr1 Pr1 Ni1 Bi1 O6'
_cell_volume   137.24521438
_cell_formula_units_Z   1
loop_
 _symmetry_equiv_pos_site_id
 _symmetry_equiv_pos_as_xyz
  1  'x, y, z'
loop_
 _atom_site_type_symbol
 _atom_site_label
 _atom_site_symmetry_multiplicity
 _atom_site_fract_x
 _atom_site_fract_y
 _atom_site_fract_z
 _atom_site_occupancy
  Sr  Sr0  1  0.25000000  0.25000000  0.25000000  1
  Pr  Pr0  1  0.75000000  0.75000000  0.75000000  1
  Ni  Ni0  1  0.50000000  0.50000000  0.50000000  1
  Bi  Bi0  1  -0.00000000  -0.00000000  0.00000000  1
  O  O0  1  0.74535538  0.25464462  0.25464462  1
  O  O1  1  0.25464462  0.74535538  0.74535538  1
  O  O2  1  0.74535538  0.25464462  0.74535538  1
  O  O3  1  0.25464462  0.74535538  0.25464462  1
  O  O4  1  0.74535538  0.74535538  0.25464462  1
  O  O5  1  0.25464462  0.25464462  0.74535538  1
loop_
_geom_bond_atom_site_label_1
_geom_bond_atom_site_label_2
_geom_bond_distance
_geom_bond_site_symmetry_2
Ni0 O3 2.009006 1_555
Ni0 O0 2.009006 1_555
Ni0 O2 2.009006 1_555
Ni0 O4 2.009006 1_555
Ni0 O1 2.009006 1_555
Ni0 O5 2.009006 1_555
Bi0 O4 2.085068 1_445
Bi0 O3 2.085068 1_545
Bi0 O5 2.085068 1_554
Bi0 O2 2.085068 1_454
Bi0 O1 2.085068 1_544
Bi0 O0 2.085068 1_455
O0 Sr0 2.895198 1_655
O0 Pr0 2.895198 1_545
O0 Sr0 2.895198 1_555
O0 Pr0 2.895198 1_554
O1 Pr0 2.895198 1_555
O1 Sr0 2.895198 1_556
O1 Pr0 2.895198 1_455
O1 Sr0 2.895198 1_565
O2 Sr0 2.895198 1_655
O2 Pr0 2.895198 1_545
O2 Pr0 2.895198 1_555
O2 Sr0 2.895198 1_556
O3 Sr0 2.895198 1_555
O3 Pr0 2.895198 1_554
O3 Pr0 2.895198 1_455
O3 Sr0 2.895198 1_565
O4 Pr0 2.895198 1_554
O4 Sr0 2.895198 1_565
O4 Sr0 2.895198 1_655
O4 Pr0 2.895198 1_555
O5 Sr0 2.895198 1_555
O5 Sr0 2.895198 1_556
O5 Pr0 2.895198 1_455
O5 Pr0 2.895198 1_545
