# generated using pymatgen
data_YGaNi
_symmetry_space_group_name_H-M   'P 1'
_cell_length_a   4.30268591
_cell_length_b   6.90244143
_cell_length_c   7.19313066
_cell_angle_alpha   90.00891317
_cell_angle_beta   89.99999949
_cell_angle_gamma   89.99999872
_symmetry_Int_Tables_number   1
_chemical_formula_structural   YGaNi
_chemical_formula_sum   'Y4 Ga4 Ni4'
_cell_volume   213.62905460
_cell_formula_units_Z   4
loop_
 _symmetry_equiv_pos_site_id
 _symmetry_equiv_pos_as_xyz
  1  'x, y, z'
loop_
 _atom_site_type_symbol
 _atom_site_label
 _atom_site_symmetry_multiplicity
 _atom_site_fract_x
 _atom_site_fract_y
 _atom_site_fract_z
 _atom_site_occupancy
  Y  Y0  1  0.24999992  0.01687821  0.80136118  1
  Y  Y1  1  0.25000004  0.51685009  0.69866276  1
  Y  Y2  1  0.74999998  0.98311668  0.19863481  1
  Y  Y3  1  0.75000001  0.48313717  0.30134111  1
  Ga  Ga0  1  0.24999995  0.18194241  0.41780850  1
  Ga  Ga1  1  0.25000008  0.68192289  0.08218522  1
  Ga  Ga2  1  0.74999991  0.81807360  0.58224870  1
  Ga  Ga3  1  0.75000007  0.31807966  0.91775819  1
  Ni  Ni0  1  0.24999983  0.79856916  0.41035085  1
  Ni  Ni1  1  0.25000028  0.29849709  0.08970518  1
  Ni  Ni2  1  0.74999981  0.20143239  0.58966944  1
  Ni  Ni3  1  0.75000011  0.70150065  0.91027407  1
loop_
_geom_bond_atom_site_label_1
_geom_bond_atom_site_label_2
_geom_bond_distance
_geom_bond_site_symmetry_2
Ga0 Ni2 2.484865 1_555
Ga0 Ni2 2.484866 1_455
Ga0 Ni1 2.493563 1_555
Ga0 Ni0 2.646747 1_545
Ga0 Y0 2.985107 1_555
Ga0 Y2 2.999422 1_445
Ga0 Y2 2.999422 1_545
Ga0 Y1 3.069806 1_555
Ga0 Y3 3.106899 1_455
Ga0 Y3 3.106900 1_555
Ga1 Ni3 2.485099 1_454
Ga1 Ni3 2.485099 1_554
Ga1 Ni0 2.493954 1_555
Ga1 Ni1 2.647135 1_555
Ga1 Y1 2.984601 1_554
Ga1 Y3 2.999453 1_555
Ga1 Y3 2.999453 1_455
Ga1 Y0 3.070384 1_564
Ga1 Y2 3.106686 1_555
Ga1 Y2 3.106686 1_455
Ga2 Ni0 2.485003 1_655
Ga2 Ni0 2.485004 1_555
Ga2 Ni3 2.493073 1_555
Ga2 Ni2 2.646642 1_565
Ga2 Y2 2.985458 1_555
Ga2 Y0 2.999124 1_565
Ga2 Y0 2.999124 1_665
Ga2 Y3 3.070208 1_555
Ga2 Y1 3.106928 1_555
Ga2 Y1 3.106929 1_655
Ga3 Ni1 2.485229 1_556
Ga3 Ni1 2.485230 1_656
Ga3 Ni2 2.493433 1_555
Ga3 Ni3 2.647097 1_555
Ga3 Y3 2.984963 1_556
Ga3 Y1 2.999176 1_655
Ga3 Y1 2.999176 1_555
Ga3 Y2 3.070673 1_546
Ga3 Y0 3.106619 1_655
Ga3 Y0 3.106620 1_555
Ni0 Y1 2.843140 1_555
Ni0 Y2 2.927583 1_455
Ni0 Y2 2.927584 1_555
Ni0 Y3 3.159590 1_455
Ni0 Y3 3.159591 1_555
Ni0 Y0 3.190608 1_565
Ni1 Y0 2.842394 1_554
Ni1 Y3 2.927355 1_555
Ni1 Y3 2.927357 1_455
Ni1 Y2 3.159369 1_545
Ni1 Y2 3.159371 1_445
Ni1 Y1 3.191368 1_554
Ni2 Y3 2.843159 1_555
Ni2 Y0 2.927513 1_555
Ni2 Y0 2.927513 1_655
Ni2 Y1 3.159493 1_555
Ni2 Y1 3.159494 1_655
Ni2 Y2 3.190784 1_545
Ni3 Y2 2.842468 1_556
Ni3 Y1 2.927295 1_655
Ni3 Y1 2.927296 1_555
Ni3 Y0 3.159326 1_665
Ni3 Y0 3.159327 1_565
Ni3 Y3 3.191558 1_556
