# generated using pymatgen
data_CoP3H15C3NO12
_symmetry_space_group_name_H-M   'P 1'
_cell_length_a   9.25549754
_cell_length_b   9.89436831
_cell_length_c   16.29651000
_cell_angle_alpha   90.00000000
_cell_angle_beta   90.00000000
_cell_angle_gamma   115.30693164
_symmetry_Int_Tables_number   1
_chemical_formula_structural   CoP3H15C3NO12
_chemical_formula_sum   'Co4 P12 H60 C12 N4 O48'
_cell_volume   1349.16695831
_cell_formula_units_Z   4
loop_
 _symmetry_equiv_pos_site_id
 _symmetry_equiv_pos_as_xyz
  1  'x, y, z'
loop_
 _atom_site_type_symbol
 _atom_site_label
 _atom_site_symmetry_multiplicity
 _atom_site_fract_x
 _atom_site_fract_y
 _atom_site_fract_z
 _atom_site_occupancy
  Co  Co0  1  0.54391600  0.17320800  0.70825200  1
  Co  Co1  1  0.45608400  0.32679200  0.20825200  1
  Co  Co2  1  0.45608400  0.82679200  0.29174800  1
  Co  Co3  1  0.54391600  0.67320800  0.79174800  1
  P  P0  1  0.17409300  0.99165900  0.78310300  1
  P  P1  1  0.82590700  0.50834100  0.28310300  1
  P  P2  1  0.82590700  0.00834100  0.21689700  1
  P  P3  1  0.17409300  0.49165900  0.71689700  1
  P  P4  1  0.93901300  0.71492900  0.53933700  1
  P  P5  1  0.06098700  0.78507100  0.03933700  1
  P  P6  1  0.06098700  0.28507100  0.46066300  1
  P  P7  1  0.93901300  0.21492900  0.96066300  1
  P  P8  1  0.54973900  0.88515800  0.61880000  1
  P  P9  1  0.45026100  0.61484200  0.11880000  1
  P  P10  1  0.45026100  0.11484200  0.38120000  1
  P  P11  1  0.54973900  0.38515800  0.88120000  1
  H  H0  1  0.77316400  0.86698800  0.58289600  1
  H  H1  1  0.22683600  0.63301200  0.08289600  1
  H  H2  1  0.22683600  0.13301200  0.41710400  1
  H  H3  1  0.77316400  0.36698800  0.91710400  1
  H  H4  1  0.02375300  0.92288300  0.66678200  1
  H  H5  1  0.97624700  0.57711700  0.16678200  1
  H  H6  1  0.97624700  0.07711700  0.33321800  1
  H  H7  1  0.02375300  0.42288300  0.83321800  1
  H  H8  1  0.92585300  0.72933700  0.40472500  1
  H  H9  1  0.07414700  0.77066300  0.90472500  1
  H  H10  1  0.07414700  0.27066200  0.59527500  1
  H  H11  1  0.92585300  0.22933700  0.09527500  1
  H  H12  1  0.85544800  0.33058800  0.66716800  1
  H  H13  1  0.14455200  0.16941200  0.16716800  1
  H  H14  1  0.14455200  0.66941200  0.33283200  1
  H  H15  1  0.85544800  0.83058800  0.83283200  1
  H  H16  1  0.77808500  0.41319600  0.61087400  1
  H  H17  1  0.22191500  0.08680400  0.11087400  1
  H  H18  1  0.22191500  0.58680400  0.38912600  1
  H  H19  1  0.77808500  0.91319600  0.88912600  1
  H  H20  1  0.68367300  0.00496000  0.76876200  1
  H  H21  1  0.31632700  0.49504000  0.26876200  1
  H  H22  1  0.31632700  0.99504000  0.23123800  1
  H  H23  1  0.68367300  0.50496000  0.73123800  1
  H  H24  1  0.76651700  0.16441000  0.81812400  1
  H  H25  1  0.23348300  0.33559000  0.31812400  1
  H  H26  1  0.23348300  0.83559000  0.18187600  1
  H  H27  1  0.76651700  0.66441000  0.68187600  1
  H  H28  1  0.40736200  0.36043100  0.66703900  1
  H  H29  1  0.59263800  0.13956900  0.16703900  1
  H  H30  1  0.59263800  0.63956900  0.33296100  1
  H  H31  1  0.40736200  0.86043100  0.83296100  1
  H  H32  1  0.31812900  0.21782900  0.61251500  1
  H  H33  1  0.68187100  0.28217100  0.11251500  1
  H  H34  1  0.68187100  0.78217100  0.38748500  1
  H  H35  1  0.31812900  0.71782900  0.88748500  1
  H  H36  1  0.40266100  0.62423700  0.58152300  1
  H  H37  1  0.59733900  0.87576300  0.08152300  1
  H  H38  1  0.59733900  0.37576300  0.41847700  1
  H  H39  1  0.40266100  0.12423700  0.91847700  1
  H  H40  1  0.40266200  0.74664000  0.49835100  1
  H  H41  1  0.59733800  0.75336000  0.99835100  1
  H  H42  1  0.59733800  0.25336000  0.50164900  1
  H  H43  1  0.40266200  0.24664000  0.00164900  1
  H  H44  1  0.05375600  0.15572500  0.82335000  1
  H  H45  1  0.94624400  0.34427500  0.32335000  1
  H  H46  1  0.94624400  0.84427500  0.17665000  1
  H  H47  1  0.05375600  0.65572500  0.67665000  1
  H  H48  1  0.25412400  0.25440800  0.78661800  1
  H  H49  1  0.74587600  0.24559200  0.28661800  1
  H  H50  1  0.74587600  0.74559200  0.21338200  1
  H  H51  1  0.25412400  0.75440800  0.71338200  1
  H  H52  1  0.20693100  0.90228800  0.56426900  1
  H  H53  1  0.79306900  0.59771200  0.06426900  1
  H  H54  1  0.79306900  0.09771200  0.43573100  1
  H  H55  1  0.20693100  0.40228800  0.93573100  1
  H  H56  1  0.20316000  0.79378800  0.47735300  1
  H  H57  1  0.79684000  0.70621200  0.97735300  1
  H  H58  1  0.79684000  0.20621200  0.52264700  1
  H  H59  1  0.20316000  0.29378800  0.02264700  1
  C  C0  1  0.38471600  0.72332700  0.56426300  1
  C  C1  1  0.61528400  0.77667300  0.06426300  1
  C  C2  1  0.61528400  0.27667300  0.43573700  1
  C  C3  1  0.38471600  0.22332700  0.93573700  1
  C  C4  1  0.17562200  0.16481700  0.82849900  1
  C  C5  1  0.82437800  0.33518300  0.32849900  1
  C  C6  1  0.82437800  0.83518300  0.17150100  1
  C  C7  1  0.17562200  0.66481700  0.67150100  1
  C  C8  1  0.16047600  0.78630100  0.54066500  1
  C  C9  1  0.83952400  0.71369900  0.04066500  1
  C  C10  1  0.83952400  0.21369900  0.45933500  1
  C  C11  1  0.16047600  0.28630100  0.95933500  1
  N  N0  1  0.23085600  0.70740400  0.58873800  1
  N  N1  1  0.76914400  0.79259600  0.08873800  1
  N  N2  1  0.76914400  0.29259600  0.41126200  1
  N  N3  1  0.23085600  0.20740400  0.91126200  1
  O  O0  1  0.50884300  0.01779700  0.61474100  1
  O  O1  1  0.49115700  0.48220300  0.11474100  1
  O  O2  1  0.49115700  0.98220300  0.38525900  1
  O  O3  1  0.50884300  0.51779700  0.88525900  1
  O  O4  1  0.56615100  0.83092300  0.70357500  1
  O  O5  1  0.43384900  0.66907700  0.20357500  1
  O  O6  1  0.43384900  0.16907700  0.29642500  1
  O  O7  1  0.56615100  0.33092300  0.79642500  1
  O  O8  1  0.69965800  0.91318600  0.56316300  1
  O  O9  1  0.30034200  0.58681400  0.06316300  1
  O  O10  1  0.30034200  0.08681400  0.43683700  1
  O  O11  1  0.69965800  0.41318600  0.93683700  1
  O  O12  1  0.34502300  0.00661400  0.77955700  1
  O  O13  1  0.65497700  0.49338600  0.27955700  1
  O  O14  1  0.65497700  0.99338600  0.22044300  1
  O  O15  1  0.34502300  0.50661400  0.72044300  1
  O  O16  1  0.05364100  0.85441200  0.82665400  1
  O  O17  1  0.94635900  0.64558800  0.32665400  1
  O  O18  1  0.94635900  0.14558800  0.17334600  1
  O  O19  1  0.05364100  0.35441200  0.67334600  1
  O  O20  1  0.11490200  0.01026000  0.69415200  1
  O  O21  1  0.88509800  0.48974000  0.19415200  1
  O  O22  1  0.88509800  0.98974000  0.30584800  1
  O  O23  1  0.11490200  0.51026000  0.80584800  1
  O  O24  1  0.85850100  0.54772100  0.54229000  1
  O  O25  1  0.14149900  0.95227900  0.04229000  1
  O  O26  1  0.14149900  0.45227900  0.45771000  1
  O  O27  1  0.85850100  0.04772100  0.95771000  1
  O  O28  1  0.91242900  0.78358900  0.45572000  1
  O  O29  1  0.08757100  0.71641100  0.95572000  1
  O  O30  1  0.08757100  0.21641100  0.54428000  1
  O  O31  1  0.91242900  0.28358900  0.04428000  1
  O  O32  1  0.89398400  0.79662500  0.60893200  1
  O  O33  1  0.10601600  0.70337500  0.10893200  1
  O  O34  1  0.10601600  0.20337500  0.39106800  1
  O  O35  1  0.89398400  0.29662500  0.89106800  1
  O  O36  1  0.75275100  0.33543200  0.65466000  1
  O  O37  1  0.24724900  0.16456800  0.15466000  1
  O  O38  1  0.24724900  0.66456800  0.34534000  1
  O  O39  1  0.75275100  0.83543200  0.84534000  1
  O  O40  1  0.69508800  0.10794600  0.77281100  1
  O  O41  1  0.30491200  0.39205400  0.27281100  1
  O  O42  1  0.30491200  0.89205400  0.22718900  1
  O  O43  1  0.69508800  0.60794600  0.72718900  1
  O  O44  1  0.42021700  0.27747800  0.63909200  1
  O  O45  1  0.57978300  0.22252200  0.13909200  1
  O  O46  1  0.57978300  0.72252200  0.36090800  1
  O  O47  1  0.42021700  0.77747800  0.86090800  1
loop_
_geom_bond_atom_site_label_1
_geom_bond_atom_site_label_2
_geom_bond_distance
_geom_bond_site_symmetry_2
Co0 O40 2.062510 1_555
Co0 O7 2.065827 1_555
Co0 O0 2.089356 1_555
Co0 O36 2.103025 1_555
Co0 O44 2.157607 1_555
Co0 O12 2.204971 1_555
Co1 O41 2.062510 1_555
Co1 O6 2.065827 1_555
Co1 O1 2.089356 1_555
Co1 O37 2.103025 1_555
Co1 O45 2.157607 1_555
Co1 O13 2.204971 1_555
Co2 O42 2.062510 1_555
Co2 O5 2.065827 1_555
Co2 O2 2.089356 1_555
Co2 O38 2.103025 1_555
Co2 O46 2.157607 1_555
Co2 O14 2.204971 1_555
Co3 O43 2.062510 1_555
Co3 O4 2.065827 1_555
Co3 O3 2.089356 1_555
Co3 O39 2.103025 1_555
Co3 O47 2.157607 1_555
Co3 O15 2.204971 1_555
H0 O8 1.020332 1_555
H0 O32 1.606482 1_555
H1 O9 1.020332 1_555
H1 O33 1.606482 1_555
H2 O10 1.020332 1_555
H2 O34 1.606482 1_555
H3 O11 1.020332 1_555
H3 O35 1.606482 1_555
H4 O20 1.017123 1_565
H4 O32 1.615302 1_455
H5 O21 1.017123 1_555
H5 O33 1.615302 1_655
H6 O22 1.017123 1_545
H6 O34 1.615302 1_655
H7 O23 1.017123 1_555
H7 O35 1.615302 1_455
H8 O28 1.025294 1_555
H8 O17 1.573479 1_555
H9 O29 1.025294 1_555
H9 O16 1.573479 1_555
H10 O30 1.025288 1_555
H10 O19 1.573485 1_555
H11 O31 1.025294 1_555
H11 O18 1.573479 1_555
H12 O36 0.993110 1_555
H13 O37 0.993110 1_555
H14 O38 0.993110 1_555
H15 O39 0.993110 1_555
H16 O36 1.000960 1_555
H16 O24 1.651629 1_555
H17 O37 1.000960 1_555
H17 O25 1.651629 1_545
H18 O38 1.000960 1_555
H18 O26 1.651629 1_555
H19 O39 1.000960 1_555
H19 O27 1.651629 1_565
H20 O40 0.980714 1_555
H21 O41 0.980714 1_555
H22 O42 0.980714 1_555
H23 O43 0.980714 1_555
H24 O40 0.989302 1_555
H25 O41 0.989302 1_555
H26 O42 0.989302 1_555
H27 O43 0.989302 1_555
H28 O44 0.989307 1_555
H29 O45 0.989307 1_555
H30 O46 0.989307 1_555
H31 O47 0.989307 1_555
H32 O44 0.975674 1_555
H33 O45 0.975674 1_555
H34 O46 0.975674 1_555
H35 O47 0.975674 1_555
C0 H40 1.096270 1_555
C0 H36 1.098713 1_555
C0 N0 1.421274 1_555
C0 P8 1.896254 1_555
C1 H41 1.096270 1_554
C1 H37 1.098713 1_555
C1 N1 1.421274 1_555
C1 P9 1.896254 1_555
C2 H42 1.096270 1_555
C2 H38 1.098713 1_555
C2 N2 1.421274 1_555
C2 P10 1.896254 1_555
C3 H43 1.096270 1_556
C3 H39 1.098713 1_555
C3 N3 1.421274 1_555
C3 P11 1.896254 1_555
C4 H44 1.095725 1_555
C4 H48 1.108552 1_555
C4 N3 1.440089 1_555
C4 P0 1.860680 1_545
C5 H45 1.095725 1_555
C5 H49 1.108552 1_555
C5 N2 1.440089 1_555
C5 P1 1.860680 1_555
C6 H46 1.095725 1_555
C6 H50 1.108552 1_555
C6 N1 1.440089 1_555
C6 P2 1.860680 1_565
C7 H47 1.095725 1_555
C7 H51 1.108552 1_555
C7 N0 1.440089 1_555
C7 P3 1.860680 1_555
C8 H56 1.095938 1_555
C8 H52 1.108155 1_555
C8 N0 1.442986 1_555
C8 P4 1.860947 1_455
C9 H57 1.095938 1_554
C9 H53 1.108155 1_555
C9 N1 1.442986 1_555
C9 P5 1.860947 1_655
C10 H58 1.095938 1_555
C10 H54 1.108155 1_555
C10 N2 1.442986 1_555
C10 P6 1.860947 1_655
C11 H59 1.095938 1_556
C11 H55 1.108155 1_555
C11 N3 1.442986 1_555
C11 P7 1.860947 1_455
O0 P8 1.514819 1_545
O1 P9 1.514819 1_555
O2 P10 1.514819 1_565
O3 P11 1.514819 1_555
O4 P8 1.513066 1_555
O5 P9 1.513066 1_555
O6 P10 1.513066 1_555
O7 P11 1.513066 1_555
O8 P8 1.579676 1_555
O9 P9 1.579676 1_555
O10 P10 1.579676 1_555
O11 P11 1.579676 1_555
O12 P0 1.525764 1_545
O13 P1 1.525764 1_555
O14 P2 1.525764 1_565
O15 P3 1.525764 1_555
O16 P0 1.515379 1_555
O17 P1 1.515379 1_555
O18 P2 1.515379 1_555
O19 P3 1.515379 1_555
O20 P0 1.587929 1_545
O21 P1 1.587929 1_555
O22 P2 1.587929 1_565
O23 P3 1.587929 1_555
O24 P4 1.496900 1_555
O25 P5 1.496900 1_555
O26 P6 1.496900 1_555
O27 P7 1.496900 1_555
O28 P4 1.588022 1_555
O29 P5 1.588022 1_556
O30 P6 1.588022 1_555
O31 P7 1.588022 1_554
O32 P4 1.549650 1_555
O33 P5 1.549650 1_555
O34 P6 1.549650 1_555
O35 P7 1.549650 1_555
