# generated using pymatgen
data_NdGaCo
_symmetry_space_group_name_H-M   'P 1'
_cell_length_a   4.32435600
_cell_length_b   7.05811100
_cell_length_c   7.47116900
_cell_angle_alpha   90.00000000
_cell_angle_beta   90.00000000
_cell_angle_gamma   90.00000000
_symmetry_Int_Tables_number   1
_chemical_formula_structural   NdGaCo
_chemical_formula_sum   'Nd4 Ga4 Co4'
_cell_volume   228.03341131
_cell_formula_units_Z   4
loop_
 _symmetry_equiv_pos_site_id
 _symmetry_equiv_pos_as_xyz
  1  'x, y, z'
loop_
 _atom_site_type_symbol
 _atom_site_label
 _atom_site_symmetry_multiplicity
 _atom_site_fract_x
 _atom_site_fract_y
 _atom_site_fract_z
 _atom_site_occupancy
  Nd  Nd0  1  0.25000000  0.02075100  0.81063400  1
  Nd  Nd1  1  0.25000000  0.52075100  0.68936600  1
  Nd  Nd2  1  0.75000000  0.97924900  0.18936600  1
  Nd  Nd3  1  0.75000000  0.47924900  0.31063400  1
  Ga  Ga0  1  0.25000000  0.16611500  0.42243100  1
  Ga  Ga1  1  0.25000000  0.66611500  0.07756900  1
  Ga  Ga2  1  0.75000000  0.83388500  0.57756900  1
  Ga  Ga3  1  0.75000000  0.33388500  0.92243100  1
  Co  Co0  1  0.25000000  0.80324700  0.39671700  1
  Co  Co1  1  0.25000000  0.30324700  0.10328300  1
  Co  Co2  1  0.75000000  0.19675300  0.60328300  1
  Co  Co3  1  0.75000000  0.69675300  0.89671700  1
loop_
_geom_bond_atom_site_label_1
_geom_bond_atom_site_label_2
_geom_bond_distance
_geom_bond_site_symmetry_2
Nd0 Nd2 3.573134 1_446
Nd0 Nd2 3.573134 1_546
Nd0 Nd1 3.643500 1_555
Nd0 Nd1 3.643500 1_545
Nd1 Nd3 3.573134 1_555
Nd1 Nd3 3.573134 1_455
Nd2 Nd3 3.643500 1_555
Nd2 Nd3 3.643500 1_565
Ga0 Nd2 3.073529 1_445
Ga0 Nd2 3.073529 1_545
Ga0 Nd0 3.076456 1_555
Ga0 Nd1 3.200408 1_555
Ga0 Nd3 3.202711 1_455
Ga0 Nd3 3.202711 1_555
Ga1 Nd3 3.073529 1_555
Ga1 Nd3 3.073529 1_455
Ga1 Nd1 3.076456 1_554
Ga1 Nd0 3.200408 1_564
Ga1 Nd2 3.202711 1_555
Ga1 Nd2 3.202711 1_455
Ga2 Nd0 3.073529 1_565
Ga2 Nd0 3.073529 1_665
Ga2 Nd2 3.076456 1_555
Ga2 Nd3 3.200408 1_555
Ga2 Nd1 3.202711 1_655
Ga2 Nd1 3.202711 1_555
Ga3 Nd1 3.073529 1_555
Ga3 Nd1 3.073529 1_655
Ga3 Nd3 3.076456 1_556
Ga3 Nd2 3.200408 1_546
Ga3 Nd0 3.202711 1_655
Ga3 Nd0 3.202711 1_555
Co0 Ga2 2.558799 1_455
Co0 Ga2 2.558799 1_555
Co0 Ga0 2.568358 1_565
Co0 Ga1 2.573368 1_555
Co0 Nd2 2.935653 1_555
Co0 Nd2 2.935653 1_455
Co0 Nd1 2.959065 1_555
Co0 Nd3 3.212189 1_455
Co0 Nd3 3.212189 1_555
Co0 Nd0 3.452528 1_565
Co1 Ga3 2.558799 1_454
Co1 Ga3 2.558799 1_554
Co1 Ga1 2.568358 1_555
Co1 Ga0 2.573368 1_555
Co1 Nd3 2.935653 1_455
Co1 Nd3 2.935653 1_555
Co1 Nd0 2.959065 1_554
Co1 Nd2 3.212189 1_545
Co1 Nd2 3.212189 1_445
Co1 Nd1 3.452528 1_554
Co2 Ga0 2.558799 1_555
Co2 Ga0 2.558799 1_655
Co2 Ga2 2.568358 1_545
Co2 Ga3 2.573368 1_555
Co2 Nd0 2.935653 1_555
Co2 Nd0 2.935653 1_655
Co2 Nd3 2.959065 1_555
Co2 Nd1 3.212189 1_555
Co2 Nd1 3.212189 1_655
Co2 Nd2 3.452528 1_545
Co3 Ga1 2.558799 1_656
Co3 Ga1 2.558799 1_556
Co3 Ga3 2.568358 1_555
Co3 Ga2 2.573368 1_555
Co3 Nd1 2.935653 1_655
Co3 Nd1 2.935653 1_555
Co3 Nd2 2.959065 1_556
Co3 Nd0 3.212189 1_565
Co3 Nd0 3.212189 1_665
Co3 Nd3 3.452528 1_556
