# generated using pymatgen
data_Li7Mn4CoO12
_symmetry_space_group_name_H-M   'P 1'
_cell_length_a   5.12210764
_cell_length_b   5.04023471
_cell_length_c   8.85982566
_cell_angle_alpha   90.83269061
_cell_angle_beta   105.74501007
_cell_angle_gamma   100.29525425
_symmetry_Int_Tables_number   1
_chemical_formula_structural   Li7Mn4CoO12
_chemical_formula_sum   'Li7 Mn4 Co1 O12'
_cell_volume   216.12381679
_cell_formula_units_Z   1
loop_
 _symmetry_equiv_pos_site_id
 _symmetry_equiv_pos_as_xyz
  1  'x, y, z'
loop_
 _atom_site_type_symbol
 _atom_site_label
 _atom_site_symmetry_multiplicity
 _atom_site_fract_x
 _atom_site_fract_y
 _atom_site_fract_z
 _atom_site_occupancy
  Li  Li0  1  0.00818100  0.49829300  0.83345500  1
  Li  Li1  1  0.49607000  0.25526800  0.91100000  1
  Li  Li2  1  0.50862100  0.72787700  0.75172900  1
  Li  Li3  1  0.49542100  0.74116500  0.07990900  1
  Li  Li4  1  0.51524300  0.24460100  0.60039700  1
  Li  Li5  1  0.50612100  0.75117300  0.42323400  1
  Li  Li6  1  0.48805500  0.26432700  0.24636100  1
  Mn  Mn0  1  0.99125300  0.50479900  0.15982100  1
  Mn  Mn1  1  0.00134700  0.50212500  0.50658600  1
  Mn  Mn2  1  0.99871300  0.00121300  0.99541900  1
  Mn  Mn3  1  0.00921000  0.00082300  0.67332500  1
  Co  Co0  1  0.99372700  0.00157600  0.33201700  1
  O  O0  1  0.22180500  0.89195700  0.87132600  1
  O  O1  1  0.78257200  0.10106300  0.79938900  1
  O  O2  1  0.21923700  0.36006500  0.04711700  1
  O  O3  1  0.77398500  0.64222900  0.62183000  1
  O  O4  1  0.24764800  0.34566600  0.70793400  1
  O  O5  1  0.77439200  0.64043400  0.97094800  1
  O  O6  1  0.22613600  0.86648800  0.54884200  1
  O  O7  1  0.77266800  0.14258400  0.11429100  1
  O  O8  1  0.21287200  0.39780400  0.35988600  1
  O  O9  1  0.76023500  0.61872600  0.27714500  1
  O  O10  1  0.22014900  0.86683800  0.18733900  1
  O  O11  1  0.77633900  0.13290300  0.48070000  1
loop_
_geom_bond_atom_site_label_1
_geom_bond_atom_site_label_2
_geom_bond_distance
_geom_bond_site_symmetry_2
Li0 O0 2.062066 1_555
Li0 O4 2.094214 1_555
Li0 O1 2.097899 1_455
Li0 O2 2.105816 1_556
Li0 O5 2.122296 1_455
Li0 O3 2.147260 1_455
Li1 O4 2.013009 1_555
Li1 O0 2.060109 1_545
Li1 O7 2.122807 1_556
Li1 O5 2.157090 1_555
Li1 O1 2.215482 1_555
Li1 O2 2.218391 1_556
Li2 O1 2.096945 1_565
Li2 O3 2.098245 1_555
Li2 O4 2.103540 1_555
Li2 O5 2.150376 1_555
Li2 O6 2.190686 1_555
Li2 O0 2.284424 1_555
Li3 O5 2.055539 1_554
Li3 O9 2.078103 1_555
Li3 O10 2.079720 1_555
Li3 O2 2.136511 1_555
Li3 O7 2.218849 1_565
Li3 O0 2.230001 1_554
Li4 O4 1.997523 1_555
Li4 O11 2.061945 1_555
Li4 O1 2.141878 1_555
Li4 O6 2.152292 1_545
Li4 O3 2.170719 1_555
Li4 O8 2.493962 1_555
Li5 O3 2.065697 1_555
Li5 O8 2.073771 1_555
Li5 O11 2.124604 1_565
Li5 O6 2.185922 1_555
Li5 O9 2.239385 1_555
Li5 O10 2.352168 1_555
Li6 O9 2.024365 1_555
Li6 O2 2.046467 1_555
Li6 O8 2.130653 1_555
Li6 O10 2.183505 1_545
Li6 O7 2.257338 1_555
Li6 O11 2.378146 1_555
Mn0 O9 1.924444 1_555
Mn0 O7 1.937039 1_555
Mn0 O5 1.948668 1_554
Mn0 O2 1.951679 1_655
Mn0 O10 1.957297 1_655
Mn0 O8 1.968731 1_655
Mn1 O3 1.953390 1_455
Mn1 O6 1.956725 1_555
Mn1 O11 1.980300 1_455
Mn1 O8 2.021799 1_555
Mn1 O4 2.137963 1_555
Mn1 O9 2.221393 1_455
Mn2 O1 1.917399 1_555
Mn2 O0 1.925341 1_645
Mn2 O2 1.929234 1_656
Mn2 O5 1.944310 1_545
Mn2 O7 1.972903 1_556
Mn2 O10 1.974291 1_646
Mn3 O4 1.905014 1_555
Mn3 O1 1.935782 1_455
Mn3 O0 1.941415 1_545
Mn3 O6 1.954911 1_545
Mn3 O3 1.955971 1_445
Mn3 O11 1.997641 1_455
Co0 O9 2.054881 1_545
Co0 O8 2.084047 1_655
Co0 O11 2.108894 1_555
Co0 O10 2.124222 1_645
Co0 O7 2.156475 1_555
Co0 O6 2.158170 1_645
