# generated using pymatgen
data_Zn3GaAgS5
_symmetry_space_group_name_H-M   'P 1'
_cell_length_a   6.40302700
_cell_length_b   6.74996410
_cell_length_c   10.31199259
_cell_angle_alpha   70.89905128
_cell_angle_beta   89.96842396
_cell_angle_gamma   89.94505517
_symmetry_Int_Tables_number   1
_chemical_formula_structural   Zn3GaAgS5
_chemical_formula_sum   'Zn6 Ga2 Ag2 S10'
_cell_volume   421.14826364
_cell_formula_units_Z   2
loop_
 _symmetry_equiv_pos_site_id
 _symmetry_equiv_pos_as_xyz
  1  'x, y, z'
loop_
 _atom_site_type_symbol
 _atom_site_label
 _atom_site_symmetry_multiplicity
 _atom_site_fract_x
 _atom_site_fract_y
 _atom_site_fract_z
 _atom_site_occupancy
  Zn  Zn0  1  0.49436400  0.87249100  0.59839200  1
  Zn  Zn1  1  0.50084800  0.46317300  0.40146600  1
  Zn  Zn2  1  0.50345700  0.06540400  0.20110800  1
  Zn  Zn3  1  0.99893000  0.33034800  0.00022500  1
  Zn  Zn4  1  0.00068000  0.93782400  0.79759900  1
  Zn  Zn5  1  0.99698800  0.13198300  0.40244100  1
  Ga  Ga0  1  0.49911100  0.26352700  0.79951600  1
  Ga  Ga1  1  0.99810200  0.73134200  0.19960400  1
  Ag  Ag0  1  0.49747900  0.66784800  0.99992000  1
  Ag  Ag1  1  0.99807300  0.53434600  0.60026400  1
  S  S0  1  0.09960800  0.66590500  0.00182300  1
  S  S1  1  0.13881300  0.25373800  0.81306500  1
  S  S2  1  0.13045500  0.88929400  0.59990300  1
  S  S3  1  0.13094000  0.46819500  0.38338100  1
  S  S4  1  0.12629800  0.05736200  0.20144900  1
  S  S5  1  0.63741800  0.73391700  0.21385900  1
  S  S6  1  0.62973600  0.31277500  0.99640100  1
  S  S7  1  0.63193200  0.95291500  0.78731900  1
  S  S8  1  0.60052700  0.53201200  0.60470900  1
  S  S9  1  0.62624200  0.13560100  0.39755500  1
loop_
_geom_bond_atom_site_label_1
_geom_bond_atom_site_label_2
_geom_bond_distance
_geom_bond_site_symmetry_2
Ga0 S7 2.303032 1_545
Ga0 S1 2.310849 1_555
Ga0 S8 2.315090 1_555
Ga0 S6 2.318663 1_555
Ga1 S3 2.294720 1_655
Ga1 S5 2.314472 1_555
Ga1 S0 2.316186 1_655
Ga1 S4 2.355371 1_665
Ag0 S7 2.547600 1_555
Ag0 S0 2.547657 1_556
Ag0 S5 2.552577 1_556
Ag0 S6 2.552601 1_555
Ag1 S2 2.541032 1_655
Ag1 S8 2.545856 1_555
Ag1 S1 2.548286 1_655
Ag1 S3 2.564335 1_655
S0 Zn3 2.360782 1_455
S0 Zn4 2.382150 1_554
S1 Zn3 2.333430 1_456
S1 Zn4 2.362464 1_545
S2 Zn5 2.318670 1_465
S2 Zn4 2.321316 1_555
S2 Zn0 2.333061 1_555
S3 Zn5 2.374061 1_455
S3 Zn1 2.375303 1_555
S4 Zn2 2.415596 1_555
S4 Zn3 2.421316 1_455
S4 Zn5 2.432196 1_455
S5 Zn1 2.352551 1_555
S5 Zn2 2.358696 1_565
S6 Zn2 2.364694 1_556
S6 Zn3 2.368043 1_556
S7 Zn0 2.358200 1_555
S7 Zn4 2.364143 1_655
S8 Zn0 2.376387 1_555
S8 Zn1 2.378070 1_555
S9 Zn2 2.361564 1_555
S9 Zn1 2.364351 1_555
S9 Zn5 2.374392 1_555
S9 Zn0 2.397930 1_545
