# generated using pymatgen
data_Mn(AlS2)2
_symmetry_space_group_name_H-M   'P 1'
_cell_length_a   7.15676232
_cell_length_b   7.15676280
_cell_length_c   7.15676292
_cell_angle_alpha   60.00043136
_cell_angle_beta   60.00041328
_cell_angle_gamma   60.00042597
_symmetry_Int_Tables_number   1
_chemical_formula_structural   Mn(AlS2)2
_chemical_formula_sum   'Mn2 Al4 S8'
_cell_volume   259.20240139
_cell_formula_units_Z   2
loop_
 _symmetry_equiv_pos_site_id
 _symmetry_equiv_pos_as_xyz
  1  'x, y, z'
loop_
 _atom_site_type_symbol
 _atom_site_label
 _atom_site_symmetry_multiplicity
 _atom_site_fract_x
 _atom_site_fract_y
 _atom_site_fract_z
 _atom_site_occupancy
  Mn  Mn0  1  0.25000178  0.25000094  0.25000162  1
  Mn  Mn1  1  -0.00000158  -0.00000104  -0.00000107  1
  Al  Al0  1  0.12499990  0.62500008  0.62500012  1
  Al  Al1  1  0.62500003  0.12500000  0.62500012  1
  Al  Al2  1  0.62500003  0.62499990  0.12500020  1
  Al  Al3  1  0.62499990  0.62500009  0.62500014  1
  S  S0  1  0.84188634  0.38603782  0.38603784  1
  S  S1  1  0.38603795  0.84188642  0.38603782  1
  S  S2  1  0.38603800  0.38603770  0.84188638  1
  S  S3  1  0.38603786  0.38603773  0.38603792  1
  S  S4  1  0.40811349  0.86396222  0.86396239  1
  S  S5  1  0.86396198  0.40811377  0.86396210  1
  S  S6  1  0.86396207  0.86396216  0.40811387  1
  S  S7  1  0.86396225  0.86396219  0.86396254  1
loop_
_geom_bond_atom_site_label_1
_geom_bond_atom_site_label_2
_geom_bond_distance
_geom_bond_site_symmetry_2
Mn0 S3 2.384767 1_555
Mn0 S1 2.384819 1_545
Mn0 S2 2.384823 1_554
Mn0 S0 2.384824 1_455
Mn1 S7 2.384768 1_444
Mn1 S5 2.384821 1_454
Mn1 S6 2.384821 1_445
Mn1 S4 2.384822 1_544
Al0 S6 2.423743 1_455
Al0 S5 2.423744 1_455
Al0 S1 2.423744 1_555
Al0 S2 2.423745 1_555
Al0 S7 2.423746 1_455
Al0 S3 2.423746 1_555
Al1 S2 2.423742 1_555
Al1 S6 2.423743 1_545
Al1 S0 2.423743 1_555
Al1 S4 2.423744 1_545
Al1 S3 2.423746 1_555
Al1 S7 2.423747 1_545
Al2 S0 2.423743 1_555
Al2 S1 2.423743 1_555
Al2 S5 2.423744 1_554
Al2 S4 2.423745 1_554
Al2 S3 2.423745 1_555
Al2 S7 2.423746 1_554
Al3 S5 2.423742 1_555
Al3 S6 2.423742 1_555
Al3 S2 2.423743 1_555
Al3 S1 2.423743 1_555
Al3 S4 2.423743 1_555
Al3 S0 2.423744 1_555
