# generated using pymatgen
data_Na4UC3O11
_symmetry_space_group_name_H-M   'P 1'
_cell_length_a   6.36439812
_cell_length_b   9.19260820
_cell_length_c   9.19163112
_cell_angle_alpha   59.99648357
_cell_angle_beta   88.84085073
_cell_angle_gamma   87.68147329
_symmetry_Int_Tables_number   1
_chemical_formula_structural   Na4UC3O11
_chemical_formula_sum   'Na8 U2 C6 O22'
_cell_volume   465.31627700
_cell_formula_units_Z   2
loop_
 _symmetry_equiv_pos_site_id
 _symmetry_equiv_pos_as_xyz
  1  'x, y, z'
loop_
 _atom_site_type_symbol
 _atom_site_label
 _atom_site_symmetry_multiplicity
 _atom_site_fract_x
 _atom_site_fract_y
 _atom_site_fract_z
 _atom_site_occupancy
  Na  Na0  1  0.57631551  0.56789054  0.99083021  1
  Na  Na1  1  0.07631551  0.55872075  0.00916979  1
  Na  Na2  1  0.36741442  0.99955428  0.69457355  1
  Na  Na3  1  0.86741442  0.69412783  0.30542645  1
  Na  Na4  1  0.28514628  0.43256896  0.43793039  1
  Na  Na5  1  0.78514628  0.87049935  0.56206961  1
  Na  Na6  1  0.28286706  0.25616517  0.87264578  1
  Na  Na7  1  0.78286706  0.12880995  0.12735422  1
  U  U0  1  0.82117488  0.23051845  0.66811990  1
  U  U1  1  0.32117488  0.89863835  0.33188010  1
  C  C0  1  0.35806111  0.23738306  0.25357800  1
  C  C1  1  0.85806111  0.49096106  0.74642200  1
  C  C2  1  0.33858151  0.63609940  0.67204415  1
  C  C3  1  0.83858151  0.30814355  0.32795585  1
  C  C4  1  0.28422551  0.82007261  0.07078962  1
  C  C5  1  0.78422551  0.89086123  0.92921038  1
  O  O0  1  0.38598866  0.18880510  0.14239028  1
  O  O1  1  0.88598866  0.33119637  0.85760972  1
  O  O2  1  0.37949673  0.79207226  0.62400425  1
  O  O3  1  0.87949673  0.41607752  0.37599575  1
  O  O4  1  0.35375929  0.38880313  0.21532095  1
  O  O5  1  0.85375929  0.60412308  0.78467905  1
  O  O6  1  0.34351086  0.52197888  0.82277787  1
  O  O7  1  0.84351086  0.34475674  0.17722113  1
  O  O8  1  0.24768128  0.71192269  0.22896370  1
  O  O9  1  0.74768028  0.94088739  0.77103630  1
  O  O10  1  0.33321954  0.11442023  0.40566778  1
  O  O11  1  0.83321954  0.52008801  0.59433222  1
  O  O12  1  0.32047438  0.96997516  0.04264167  1
  O  O13  1  0.82047438  0.01261683  0.95735833  1
  O  O14  1  0.28655822  0.78130508  0.95819436  1
  O  O15  1  0.78655822  0.73949744  0.04180564  1
  O  O16  1  0.29156697  0.61164433  0.54919452  1
  O  O17  1  0.79156697  0.16083885  0.45080548  1
  O  O18  1  0.10904660  0.19787840  0.67202106  1
  O  O19  1  0.60904660  0.86989947  0.32797894  1
  O  O20  1  0.53293018  0.26208083  0.66559584  1
  O  O21  1  0.03293018  0.92767667  0.33440416  1
loop_
_geom_bond_atom_site_label_1
_geom_bond_atom_site_label_2
_geom_bond_distance
_geom_bond_site_symmetry_2
Na0 O15 2.331070 1_556
Na0 O6 2.356832 1_555
Na0 O4 2.376418 1_556
Na0 O5 2.469897 1_555
Na0 O7 2.521006 1_556
Na0 O14 2.545721 1_555
Na1 O14 2.331085 1_554
Na1 O7 2.356830 1_455
Na1 O5 2.376421 1_454
Na1 O4 2.469895 1_555
Na1 O6 2.521009 1_554
Na1 O15 2.545709 1_455
Na2 O2 2.299536 1_555
Na2 O14 2.309232 1_555
Na2 O10 2.326923 1_565
Na2 O18 2.337499 1_565
Na2 O9 2.495222 1_555
Na2 O20 2.560493 1_565
Na3 O3 2.299527 1_555
Na3 O15 2.309238 1_555
Na3 O11 2.326923 1_555
Na3 O19 2.337499 1_555
Na3 O8 2.495229 1_655
Na3 O21 2.560493 1_655
Na4 O4 2.304819 1_555
Na4 O8 2.318770 1_555
Na4 O16 2.334161 1_555
Na4 O20 2.444536 1_555
Na4 O18 2.448631 1_555
Na4 O3 2.681372 1_455
Na5 O5 2.304824 1_555
Na5 O9 2.318777 1_555
Na5 O17 2.334161 1_565
Na5 O21 2.444536 1_655
Na5 O19 2.448631 1_555
Na5 O2 2.681374 1_555
Na6 O12 2.296315 1_546
Na6 O6 2.297577 1_555
Na6 O0 2.336465 1_556
Na6 O20 2.436941 1_555
Na6 O18 2.455639 1_555
Na6 O1 2.579301 1_455
Na7 O13 2.296308 1_554
Na7 O7 2.297580 1_555
Na7 O1 2.336470 1_554
Na7 O21 2.436937 1_645
Na7 O19 2.455633 1_545
Na7 O0 2.579301 1_555
C0 O4 1.252876 1_555
C0 O10 1.296970 1_555
C0 O0 1.310779 1_555
C1 O5 1.252868 1_555
C1 O11 1.296970 1_555
C1 O1 1.310772 1_555
C2 O6 1.251629 1_555
C2 O16 1.299278 1_555
C2 O2 1.308028 1_555
C3 O7 1.251638 1_555
C3 O17 1.299278 1_555
C3 O3 1.308037 1_555
C4 O14 1.251449 1_554
C4 O12 1.298376 1_555
C4 O8 1.309850 1_555
C5 O15 1.251456 1_556
C5 O13 1.298385 1_565
C5 O9 1.309847 1_555
O0 U1 2.394228 1_545
O1 U0 2.394235 1_555
O2 U1 2.384833 1_555
O3 U0 2.384835 1_555
O8 U1 2.401329 1_555
O9 U0 2.401322 1_565
O10 U1 2.400087 1_545
O11 U0 2.400087 1_555
O12 U1 2.398897 1_555
O13 U0 2.398897 1_555
O16 U1 2.395889 1_555
O17 U0 2.395889 1_555
O18 U0 1.842671 1_455
O19 U1 1.842671 1_555
O20 U0 1.844465 1_555
O21 U1 1.844465 1_555
