# generated using pymatgen
data_PrMnNi4
_symmetry_space_group_name_H-M   'P 1'
_cell_length_a   5.04464859
_cell_length_b   5.04464859
_cell_length_c   3.97786700
_cell_angle_alpha   90.00000000
_cell_angle_beta   90.00000000
_cell_angle_gamma   120.00000771
_symmetry_Int_Tables_number   1
_chemical_formula_structural   PrMnNi4
_chemical_formula_sum   'Pr1 Mn1 Ni4'
_cell_volume   87.66832185
_cell_formula_units_Z   1
loop_
 _symmetry_equiv_pos_site_id
 _symmetry_equiv_pos_as_xyz
  1  'x, y, z'
loop_
 _atom_site_type_symbol
 _atom_site_label
 _atom_site_symmetry_multiplicity
 _atom_site_fract_x
 _atom_site_fract_y
 _atom_site_fract_z
 _atom_site_occupancy
  Pr  Pr0  1  0.00000000  0.00000000  0.00000000  1
  Mn  Mn0  1  0.33333300  0.66666700  0.00000000  1
  Ni  Ni0  1  0.66666700  0.33333300  0.00000000  1
  Ni  Ni1  1  0.50160600  0.00321100  0.50000000  1
  Ni  Ni2  1  0.99678900  0.49839400  0.50000000  1
  Ni  Ni3  1  0.50160600  0.49839400  0.50000000  1
loop_
_geom_bond_atom_site_label_1
_geom_bond_atom_site_label_2
_geom_bond_distance
_geom_bond_site_symmetry_2
Mn0 Ni1 2.473381 1_564
Mn0 Ni1 2.473381 1_565
Mn0 Ni2 2.473381 1_455
Mn0 Ni2 2.473381 1_454
Mn0 Ni3 2.473386 1_554
Mn0 Ni3 2.473386 1_555
Mn0 Ni0 2.912526 1_455
Mn0 Ni0 2.912526 1_565
Mn0 Pr0 2.912526 1_565
Mn0 Pr0 2.912530 1_665
Mn0 Pr0 2.912530 1_555
Mn0 Ni0 2.912535 1_555
Ni0 Ni2 2.456806 1_555
Ni0 Ni2 2.456806 1_554
Ni0 Ni1 2.456806 1_555
Ni0 Ni1 2.456806 1_554
Ni0 Ni3 2.456807 1_554
Ni0 Ni3 2.456807 1_555
Ni0 Pr0 2.912526 1_655
Ni0 Pr0 2.912530 1_665
Ni0 Pr0 2.912530 1_555
Ni1 Ni2 2.498024 1_555
Ni1 Ni3 2.498024 1_555
Ni1 Ni2 2.546624 1_445
Ni1 Ni3 2.546624 1_545
Ni1 Pr0 3.212189 1_656
Ni1 Pr0 3.212189 1_655
Ni1 Pr0 3.212193 1_555
Ni1 Pr0 3.212193 1_556
Ni2 Ni3 2.498024 1_555
Ni2 Ni3 2.546624 1_655
Ni2 Pr0 3.212189 1_656
Ni2 Pr0 3.212189 1_655
Ni2 Pr0 3.212193 1_665
Ni2 Pr0 3.212193 1_666
Ni3 Pr0 3.212191 1_666
Ni3 Pr0 3.212191 1_555
Ni3 Pr0 3.212191 1_556
Ni3 Pr0 3.212191 1_665
