# generated using pymatgen
data_Ba3Nd(BO2)9
_symmetry_space_group_name_H-M   'P 1'
_cell_length_a   7.32404746
_cell_length_b   7.32404746
_cell_length_c   17.78722400
_cell_angle_alpha   90.00000000
_cell_angle_beta   90.00000000
_cell_angle_gamma   119.99999510
_symmetry_Int_Tables_number   1
_chemical_formula_structural   Ba3Nd(BO2)9
_chemical_formula_sum   'Ba6 Nd2 B18 O36'
_cell_volume   826.30641975
_cell_formula_units_Z   2
loop_
 _symmetry_equiv_pos_site_id
 _symmetry_equiv_pos_as_xyz
  1  'x, y, z'
loop_
 _atom_site_type_symbol
 _atom_site_label
 _atom_site_symmetry_multiplicity
 _atom_site_fract_x
 _atom_site_fract_y
 _atom_site_fract_z
 _atom_site_occupancy
  Ba  Ba0  1  0.66666700  0.33333300  0.86478900  1
  Ba  Ba1  1  0.33333300  0.66666700  0.13521100  1
  Ba  Ba2  1  0.33333300  0.66666700  0.36478900  1
  Ba  Ba3  1  0.66666700  0.33333300  0.63521100  1
  Ba  Ba4  1  0.00000000  0.00000000  0.75000000  1
  Ba  Ba5  1  0.00000000  0.00000000  0.25000000  1
  Nd  Nd0  1  0.00000000  0.00000000  0.00000000  1
  Nd  Nd1  1  0.00000000  0.00000000  0.50000000  1
  B  B0  1  0.54732900  0.83629700  0.91709900  1
  B  B1  1  0.45267100  0.16370300  0.08290100  1
  B  B2  1  0.28896700  0.45267100  0.91709900  1
  B  B3  1  0.45267100  0.16370300  0.41709900  1
  B  B4  1  0.71103300  0.54732900  0.08290100  1
  B  B5  1  0.54732900  0.83629700  0.58290100  1
  B  B6  1  0.16370300  0.71103300  0.91709900  1
  B  B7  1  0.71103300  0.54732900  0.41709900  1
  B  B8  1  0.83629700  0.28896700  0.08290100  1
  B  B9  1  0.28896700  0.45267100  0.58290100  1
  B  B10  1  0.83629700  0.28896700  0.41709900  1
  B  B11  1  0.16370300  0.71103300  0.58290100  1
  B  B12  1  0.50378200  0.62221900  0.75000000  1
  B  B13  1  0.49621800  0.37778100  0.25000000  1
  B  B14  1  0.11843800  0.49621800  0.75000000  1
  B  B15  1  0.88156200  0.50378200  0.25000000  1
  B  B16  1  0.37778100  0.88156200  0.75000000  1
  B  B17  1  0.62221900  0.11843800  0.25000000  1
  O  O0  1  0.54049500  0.83162300  0.75000000  1
  O  O1  1  0.45950500  0.16837700  0.25000000  1
  O  O2  1  0.29112900  0.45950500  0.75000000  1
  O  O3  1  0.70887100  0.54049500  0.25000000  1
  O  O4  1  0.16837700  0.70887100  0.75000000  1
  O  O5  1  0.83162300  0.29112900  0.25000000  1
  O  O6  1  0.92188800  0.33469300  0.75000000  1
  O  O7  1  0.07811200  0.66530700  0.25000000  1
  O  O8  1  0.41280400  0.07811200  0.75000000  1
  O  O9  1  0.58719600  0.92188800  0.25000000  1
  O  O10  1  0.66530700  0.58719600  0.75000000  1
  O  O11  1  0.33469300  0.41280400  0.25000000  1
  O  O12  1  0.74444600  0.99782800  0.91607200  1
  O  O13  1  0.25555400  0.00217200  0.08392800  1
  O  O14  1  0.25338100  0.25555400  0.91607200  1
  O  O15  1  0.25555400  0.00217200  0.41607200  1
  O  O16  1  0.74661900  0.74444600  0.08392800  1
  O  O17  1  0.74444600  0.99782800  0.58392800  1
  O  O18  1  0.00217200  0.74661900  0.91607200  1
  O  O19  1  0.74661900  0.74444600  0.41607200  1
  O  O20  1  0.99782800  0.25338100  0.08392800  1
  O  O21  1  0.25338100  0.25555400  0.58392800  1
  O  O22  1  0.99782800  0.25338100  0.41607200  1
  O  O23  1  0.00217200  0.74661900  0.58392800  1
  O  O24  1  0.49798400  0.62389800  0.91791200  1
  O  O25  1  0.50201600  0.37610200  0.08208800  1
  O  O26  1  0.12591400  0.50201600  0.91791200  1
  O  O27  1  0.50201600  0.37610200  0.41791200  1
  O  O28  1  0.87408600  0.49798400  0.08208800  1
  O  O29  1  0.49798400  0.62389800  0.58208800  1
  O  O30  1  0.37610200  0.87408600  0.91791200  1
  O  O31  1  0.87408600  0.49798400  0.41791200  1
  O  O32  1  0.62389800  0.12591400  0.08208800  1
  O  O33  1  0.12591400  0.50201600  0.58208800  1
  O  O34  1  0.62389800  0.12591400  0.41791200  1
  O  O35  1  0.37610200  0.87408600  0.58208800  1
loop_
_geom_bond_atom_site_label_1
_geom_bond_atom_site_label_2
_geom_bond_distance
_geom_bond_site_symmetry_2
Ba0 O6 2.764857 1_555
Ba0 O8 2.764862 1_555
Ba0 O10 2.764867 1_555
Ba0 O12 2.931634 1_545
Ba0 O18 2.931643 1_655
Ba0 O14 2.931648 1_555
Ba0 O26 3.094698 1_655
Ba0 O30 3.094699 1_545
Ba0 O24 3.094704 1_555
Ba1 O7 2.764857 1_555
Ba1 O9 2.764862 1_555
Ba1 O11 2.764867 1_555
Ba1 O13 2.931634 1_565
Ba1 O20 2.931643 1_455
Ba1 O16 2.931648 1_555
Ba1 O28 3.094698 1_455
Ba1 O32 3.094699 1_565
Ba1 O25 3.094704 1_555
Ba2 O7 2.764857 1_555
Ba2 O9 2.764862 1_555
Ba2 O11 2.764867 1_555
Ba2 O15 2.931634 1_565
Ba2 O22 2.931643 1_455
Ba2 O19 2.931648 1_555
Ba2 O31 3.094698 1_455
Ba2 O34 3.094699 1_565
Ba2 O27 3.094704 1_555
Ba3 O6 2.764857 1_555
Ba3 O8 2.764862 1_555
Ba3 O10 2.764867 1_555
Ba3 O17 2.931634 1_545
Ba3 O23 2.931643 1_655
Ba3 O21 2.931648 1_555
Ba3 O33 3.094698 1_655
Ba3 O35 3.094699 1_545
Ba3 O29 3.094704 1_555
Ba4 O8 2.781824 1_555
Ba4 O10 2.781827 1_445
Ba4 O6 2.781831 1_455
Ba4 O0 2.949015 1_445
Ba4 O2 2.949016 1_555
Ba4 O4 2.949021 1_545
Ba5 O9 2.781824 1_445
Ba5 O11 2.781827 1_555
Ba5 O7 2.781831 1_545
Ba5 O1 2.949015 1_555
Ba5 O3 2.949016 1_445
Ba5 O5 2.949021 1_455
Nd0 O18 2.387941 1_544
Nd0 O20 2.387941 1_455
Nd0 O16 2.387944 1_445
Nd0 O14 2.387944 1_554
Nd0 O12 2.387947 1_444
Nd0 O13 2.387947 1_555
Nd1 O23 2.387941 1_545
Nd1 O22 2.387941 1_455
Nd1 O19 2.387944 1_445
Nd1 O21 2.387944 1_555
Nd1 O17 2.387947 1_445
Nd1 O15 2.387947 1_555
B0 O12 1.332757 1_555
B0 O24 1.410166 1_555
B0 O30 1.413011 1_555
B1 O13 1.332757 1_555
B1 O25 1.410166 1_555
B1 O32 1.413011 1_555
B2 O14 1.332757 1_555
B2 O26 1.410159 1_555
B2 O24 1.413016 1_555
B3 O15 1.332757 1_555
B3 O27 1.410166 1_555
B3 O34 1.413011 1_555
B4 O16 1.332757 1_555
B4 O28 1.410159 1_555
B4 O25 1.413016 1_555
B5 O17 1.332757 1_555
B5 O29 1.410166 1_555
B5 O35 1.413011 1_555
B6 O18 1.332757 1_555
B6 O30 1.410164 1_555
B6 O26 1.413019 1_555
B7 O19 1.332757 1_555
B7 O31 1.410159 1_555
B7 O27 1.413016 1_555
B8 O20 1.332757 1_555
B8 O32 1.410164 1_555
B8 O28 1.413019 1_555
B9 O21 1.332757 1_555
B9 O33 1.410159 1_555
B9 O29 1.413016 1_555
B10 O22 1.332757 1_555
B10 O34 1.410164 1_555
B10 O31 1.413019 1_555
B11 O23 1.332757 1_555
B11 O35 1.410164 1_555
B11 O33 1.413019 1_555
B12 O10 1.329956 1_555
B12 O2 1.410626 1_555
B12 O0 1.418485 1_555
B13 O11 1.329956 1_555
B13 O3 1.410626 1_555
B13 O1 1.418485 1_555
B14 O6 1.329965 1_455
B14 O4 1.410626 1_555
B14 O2 1.418485 1_555
B15 O7 1.329965 1_655
B15 O5 1.410626 1_555
B15 O3 1.418485 1_555
B16 O8 1.329970 1_565
B16 O0 1.410626 1_555
B16 O4 1.418485 1_555
B17 O9 1.329970 1_545
B17 O1 1.410626 1_555
B17 O5 1.418485 1_555
