# generated using pymatgen
data_LaNb2HO7
_symmetry_space_group_name_H-M   'P 1'
_cell_length_a   3.92633200
_cell_length_b   3.92633200
_cell_length_c   10.74639000
_cell_angle_alpha   90.00000000
_cell_angle_beta   90.00000000
_cell_angle_gamma   90.00000000
_symmetry_Int_Tables_number   1
_chemical_formula_structural   LaNb2HO7
_chemical_formula_sum   'La1 Nb2 H1 O7'
_cell_volume   165.66723991
_cell_formula_units_Z   1
loop_
 _symmetry_equiv_pos_site_id
 _symmetry_equiv_pos_as_xyz
  1  'x, y, z'
loop_
 _atom_site_type_symbol
 _atom_site_label
 _atom_site_symmetry_multiplicity
 _atom_site_fract_x
 _atom_site_fract_y
 _atom_site_fract_z
 _atom_site_occupancy
  La  La0  1  0.50000000  0.50000000  0.00000000  1
  Nb  Nb0  1  0.00000000  0.00000000  0.21860700  1
  Nb  Nb1  1  0.00000000  0.00000000  0.78139300  1
  H  H0  1  0.50000000  0.50000000  0.50000000  1
  O  O0  1  0.00000000  0.00000000  0.38245200  1
  O  O1  1  0.00000000  0.00000000  0.61754800  1
  O  O2  1  0.00000000  0.00000000  0.00000000  1
  O  O3  1  0.00000000  0.50000000  0.16965100  1
  O  O4  1  0.00000000  0.50000000  0.83034900  1
  O  O5  1  0.50000000  0.00000000  0.16965100  1
  O  O6  1  0.50000000  0.00000000  0.83034900  1
loop_
_geom_bond_atom_site_label_1
_geom_bond_atom_site_label_2
_geom_bond_distance
_geom_bond_site_symmetry_2
La0 O3 2.679150 1_655
La0 O6 2.679150 1_564
La0 O6 2.679150 1_554
La0 O5 2.679150 1_555
La0 O5 2.679150 1_565
La0 O4 2.679150 1_654
La0 O3 2.679150 1_555
La0 O4 2.679150 1_554
La0 O2 2.776336 1_655
La0 O2 2.776336 1_555
La0 O2 2.776336 1_565
La0 O2 2.776336 1_665
Nb0 O0 1.760742 1_555
Nb0 O5 2.032438 1_455
Nb0 O3 2.032438 1_545
Nb0 O5 2.032438 1_555
Nb0 O3 2.032438 1_555
Nb0 O2 2.349236 1_555
Nb1 O1 1.760742 1_555
Nb1 O6 2.032438 1_455
Nb1 O4 2.032438 1_545
Nb1 O6 2.032438 1_555
Nb1 O4 2.032438 1_555
Nb1 O2 2.349236 1_556
