# generated using pymatgen
data_LaGa2Rh3
_symmetry_space_group_name_H-M   'P 1'
_cell_length_a   11.35351524
_cell_length_b   11.35351524
_cell_length_c   7.53745340
_cell_angle_alpha   90.00000000
_cell_angle_beta   90.00000000
_cell_angle_gamma   120.00000606
_symmetry_Int_Tables_number   1
_chemical_formula_structural   LaGa2Rh3
_chemical_formula_sum   'La8 Ga16 Rh24'
_cell_volume   841.42602376
_cell_formula_units_Z   8
loop_
 _symmetry_equiv_pos_site_id
 _symmetry_equiv_pos_as_xyz
  1  'x, y, z'
loop_
 _atom_site_type_symbol
 _atom_site_label
 _atom_site_symmetry_multiplicity
 _atom_site_fract_x
 _atom_site_fract_y
 _atom_site_fract_z
 _atom_site_occupancy
  La  La0_0  1  0.00000000  0.00000000  0.00000000  1
  La  La0_1  1  0.00000000  0.00000000  0.50000000  1
  La  La0_2  1  0.00000000  0.50000000  0.00000000  1
  La  La0_3  1  0.00000000  0.50000000  0.50000000  1
  La  La0_4  1  0.50000000  0.00000000  0.00000000  1
  La  La0_5  1  0.50000000  0.00000000  0.50000000  1
  La  La0_6  1  0.50000000  0.50000000  0.00000000  1
  La  La0_7  1  0.50000000  0.50000000  0.50000000  1
  Ga  Ga0_0  1  0.16666650  0.33333350  0.00000000  1
  Ga  Ga0_1  1  0.16666650  0.33333350  0.50000000  1
  Ga  Ga0_2  1  0.16666650  0.83333350  0.00000000  1
  Ga  Ga0_3  1  0.16666650  0.83333350  0.50000000  1
  Ga  Ga0_4  1  0.66666650  0.33333350  0.00000000  1
  Ga  Ga0_5  1  0.66666650  0.33333350  0.50000000  1
  Ga  Ga0_6  1  0.66666650  0.83333350  0.00000000  1
  Ga  Ga0_7  1  0.66666650  0.83333350  0.50000000  1
  Ga  Ga1_0  1  0.33333350  0.16666650  0.00000000  1
  Ga  Ga1_1  1  0.33333350  0.16666650  0.50000000  1
  Ga  Ga1_2  1  0.33333350  0.66666650  0.00000000  1
  Ga  Ga1_3  1  0.33333350  0.66666650  0.50000000  1
  Ga  Ga1_4  1  0.83333350  0.16666650  0.00000000  1
  Ga  Ga1_5  1  0.83333350  0.16666650  0.50000000  1
  Ga  Ga1_6  1  0.83333350  0.66666650  0.00000000  1
  Ga  Ga1_7  1  0.83333350  0.66666650  0.50000000  1
  Rh  Rh0_0  1  0.25000000  0.00000000  0.25000000  1
  Rh  Rh0_1  1  0.25000000  0.00000000  0.75000000  1
  Rh  Rh0_2  1  0.25000000  0.50000000  0.25000000  1
  Rh  Rh0_3  1  0.25000000  0.50000000  0.75000000  1
  Rh  Rh0_4  1  0.75000000  0.00000000  0.25000000  1
  Rh  Rh0_5  1  0.75000000  0.00000000  0.75000000  1
  Rh  Rh0_6  1  0.75000000  0.50000000  0.25000000  1
  Rh  Rh0_7  1  0.75000000  0.50000000  0.75000000  1
  Rh  Rh1_0  1  0.00000000  0.25000000  0.25000000  1
  Rh  Rh1_1  1  0.00000000  0.25000000  0.75000000  1
  Rh  Rh1_2  1  0.00000000  0.75000000  0.25000000  1
  Rh  Rh1_3  1  0.00000000  0.75000000  0.75000000  1
  Rh  Rh1_4  1  0.50000000  0.25000000  0.25000000  1
  Rh  Rh1_5  1  0.50000000  0.25000000  0.75000000  1
  Rh  Rh1_6  1  0.50000000  0.75000000  0.25000000  1
  Rh  Rh1_7  1  0.50000000  0.75000000  0.75000000  1
  Rh  Rh2_0  1  0.25000000  0.25000000  0.25000000  1
  Rh  Rh2_1  1  0.25000000  0.25000000  0.75000000  1
  Rh  Rh2_2  1  0.25000000  0.75000000  0.25000000  1
  Rh  Rh2_3  1  0.25000000  0.75000000  0.75000000  1
  Rh  Rh2_4  1  0.75000000  0.25000000  0.25000000  1
  Rh  Rh2_5  1  0.75000000  0.25000000  0.75000000  1
  Rh  Rh2_6  1  0.75000000  0.75000000  0.25000000  1
  Rh  Rh2_7  1  0.75000000  0.75000000  0.75000000  1
loop_
_geom_bond_atom_site_label_1
_geom_bond_atom_site_label_2
_geom_bond_distance
_geom_bond_site_symmetry_2
La0_0 Rh2_0 3.406937 1_555
La0_0 Rh2_1 3.406937 1_554
La0_0 Rh2_6 3.406937 1_445
La0_0 Rh2_7 3.406937 1_444
La0_0 Rh0_1 3.406937 1_554
La0_0 Rh0_0 3.406937 1_555
La0_0 Rh1_0 3.406937 1_555
La0_0 Rh1_1 3.406937 1_554
La0_0 Rh1_2 3.406937 1_545
La0_0 Rh1_3 3.406937 1_544
La0_0 Rh0_4 3.406937 1_455
La0_0 Rh0_5 3.406937 1_454
La0_0 La0_1 3.768727 1_554
La0_0 La0_1 3.768727 1_555
La0_1 Rh2_0 3.406937 1_555
La0_1 Rh2_1 3.406937 1_555
La0_1 Rh2_6 3.406937 1_445
La0_1 Rh2_7 3.406937 1_445
La0_1 Rh0_1 3.406937 1_555
La0_1 Rh0_0 3.406937 1_555
La0_1 Rh1_1 3.406937 1_555
La0_1 Rh1_0 3.406937 1_555
La0_1 Rh1_2 3.406937 1_545
La0_1 Rh1_3 3.406937 1_545
La0_1 Rh0_4 3.406937 1_455
La0_1 Rh0_5 3.406937 1_455
La0_2 Rh2_2 3.406937 1_555
La0_2 Rh2_3 3.406937 1_554
La0_2 Rh2_4 3.406937 1_455
La0_2 Rh2_5 3.406937 1_454
La0_2 Rh1_2 3.406937 1_555
La0_2 Rh0_6 3.406937 1_455
La0_2 Rh0_3 3.406937 1_554
La0_2 Rh1_3 3.406937 1_554
La0_2 Rh0_2 3.406937 1_555
La0_2 Rh0_7 3.406937 1_454
La0_2 Rh1_0 3.406937 1_555
La0_2 Rh1_1 3.406937 1_554
La0_2 La0_3 3.768727 1_555
La0_2 La0_3 3.768727 1_554
La0_3 Rh2_2 3.406937 1_555
La0_3 Rh2_3 3.406937 1_555
La0_3 Rh2_5 3.406937 1_455
La0_3 Rh2_4 3.406937 1_455
La0_3 Rh1_2 3.406937 1_555
La0_3 Rh0_3 3.406937 1_555
La0_3 Rh0_6 3.406937 1_455
La0_3 Rh1_1 3.406937 1_555
La0_3 Rh0_2 3.406937 1_555
La0_3 Rh1_0 3.406937 1_555
La0_3 Rh1_3 3.406937 1_555
La0_3 Rh0_7 3.406937 1_455
La0_4 Rh2_5 3.406937 1_554
La0_4 Rh2_4 3.406937 1_555
La0_4 Rh2_3 3.406937 1_544
La0_4 Rh2_2 3.406937 1_545
La0_4 Rh0_5 3.406937 1_554
La0_4 Rh0_1 3.406937 1_554
La0_4 Rh0_4 3.406937 1_555
La0_4 Rh0_0 3.406937 1_555
La0_4 Rh1_4 3.406937 1_555
La0_4 Rh1_5 3.406937 1_554
La0_4 Rh1_7 3.406937 1_544
La0_4 Rh1_6 3.406937 1_545
La0_4 La0_5 3.768727 1_554
La0_4 La0_5 3.768727 1_555
La0_5 Rh2_5 3.406937 1_555
La0_5 Rh2_4 3.406937 1_555
La0_5 Rh2_2 3.406937 1_545
La0_5 Rh2_3 3.406937 1_545
La0_5 Rh0_5 3.406937 1_555
La0_5 Rh0_1 3.406937 1_555
La0_5 Rh0_4 3.406937 1_555
La0_5 Rh0_0 3.406937 1_555
La0_5 Rh1_4 3.406937 1_555
La0_5 Rh1_5 3.406937 1_555
La0_5 Rh1_7 3.406937 1_545
La0_5 Rh1_6 3.406937 1_545
La0_6 Rh2_0 3.406937 1_555
La0_6 Rh2_1 3.406937 1_554
La0_6 Rh2_6 3.406937 1_555
La0_6 Rh2_7 3.406937 1_554
La0_6 Rh1_4 3.406937 1_555
La0_6 Rh0_3 3.406937 1_554
La0_6 Rh0_2 3.406937 1_555
La0_6 Rh1_5 3.406937 1_554
La0_6 Rh0_7 3.406937 1_554
La0_6 Rh1_6 3.406937 1_555
La0_6 Rh1_7 3.406937 1_554
La0_6 Rh0_6 3.406937 1_555
La0_6 La0_7 3.768727 1_554
La0_6 La0_7 3.768727 1_555
La0_7 Rh2_0 3.406937 1_555
La0_7 Rh2_1 3.406937 1_555
La0_7 Rh2_6 3.406937 1_555
La0_7 Rh2_7 3.406937 1_555
La0_7 Rh1_4 3.406937 1_555
La0_7 Rh1_5 3.406937 1_555
La0_7 Rh0_3 3.406937 1_555
La0_7 Rh0_2 3.406937 1_555
La0_7 Rh0_7 3.406937 1_555
La0_7 Rh1_7 3.406937 1_555
La0_7 Rh1_6 3.406937 1_555
La0_7 Rh0_6 3.406937 1_555
Ga0_0 Rh0_2 2.497255 1_555
Ga0_0 Rh1_0 2.497255 1_555
Ga0_0 Rh1_1 2.497255 1_554
Ga0_0 Rh0_3 2.497255 1_554
Ga0_0 Rh2_0 2.497259 1_555
Ga0_0 Rh2_1 2.497259 1_554
Ga0_0 La0_2 3.277474 1_555
Ga0_0 La0_6 3.277479 1_555
Ga0_0 La0_0 3.277479 1_555
Ga0_1 Rh0_3 2.497255 1_555
Ga0_1 Rh1_0 2.497255 1_555
Ga0_1 Rh1_1 2.497255 1_555
Ga0_1 Rh0_2 2.497255 1_555
Ga0_1 Rh2_0 2.497259 1_555
Ga0_1 Rh2_1 2.497259 1_555
Ga0_1 La0_3 3.277474 1_555
Ga0_1 La0_7 3.277479 1_555
Ga0_1 La0_1 3.277479 1_555
Ga0_2 Rh1_3 2.497255 1_554
Ga0_2 Rh1_2 2.497255 1_555
Ga0_2 Rh0_1 2.497255 1_564
Ga0_2 Rh0_0 2.497255 1_565
Ga0_2 Rh2_3 2.497259 1_554
Ga0_2 Rh2_2 2.497259 1_555
Ga0_2 La0_0 3.277474 1_565
Ga0_2 La0_4 3.277479 1_565
Ga0_2 La0_2 3.277479 1_555
Ga0_3 Rh1_3 2.497255 1_555
Ga0_3 Rh1_2 2.497255 1_555
Ga0_3 Rh0_1 2.497255 1_565
Ga0_3 Rh0_0 2.497255 1_565
Ga0_3 Rh2_3 2.497259 1_555
Ga0_3 Rh2_2 2.497259 1_555
Ga0_3 La0_1 3.277474 1_565
Ga0_3 La0_3 3.277479 1_555
Ga0_3 La0_5 3.277479 1_565
Ga0_4 Rh1_4 2.497255 1_555
Ga0_4 Rh1_5 2.497255 1_554
Ga0_4 Rh0_7 2.497255 1_554
Ga0_4 Rh0_6 2.497255 1_555
Ga0_4 Rh2_4 2.497259 1_555
Ga0_4 Rh2_5 2.497259 1_554
Ga0_4 La0_6 3.277474 1_555
Ga0_4 La0_4 3.277479 1_555
Ga0_4 La0_2 3.277479 1_655
Ga0_5 Rh1_4 2.497255 1_555
Ga0_5 Rh1_5 2.497255 1_555
Ga0_5 Rh0_7 2.497255 1_555
Ga0_5 Rh0_6 2.497255 1_555
Ga0_5 Rh2_4 2.497259 1_555
Ga0_5 Rh2_5 2.497259 1_555
Ga0_5 La0_7 3.277474 1_555
Ga0_5 La0_5 3.277479 1_555
Ga0_5 La0_3 3.277479 1_655
Ga0_6 Rh1_6 2.497255 1_555
Ga0_6 Rh0_4 2.497255 1_565
Ga0_6 Rh1_7 2.497255 1_554
Ga0_6 Rh0_5 2.497255 1_564
Ga0_6 Rh2_6 2.497259 1_555
Ga0_6 Rh2_7 2.497259 1_554
Ga0_6 La0_4 3.277474 1_565
Ga0_6 La0_0 3.277479 1_665
Ga0_6 La0_6 3.277479 1_555
Ga0_7 Rh1_6 2.497255 1_555
Ga0_7 Rh0_4 2.497255 1_565
Ga0_7 Rh0_5 2.497255 1_565
Ga0_7 Rh1_7 2.497255 1_555
Ga0_7 Rh2_6 2.497259 1_555
Ga0_7 Rh2_7 2.497259 1_555
Ga0_7 La0_5 3.277474 1_565
Ga0_7 La0_1 3.277479 1_665
Ga0_7 La0_7 3.277479 1_555
Ga1_0 Rh0_1 2.497255 1_554
Ga1_0 Rh0_0 2.497255 1_555
Ga1_0 Rh1_4 2.497255 1_555
Ga1_0 Rh1_5 2.497255 1_554
Ga1_0 Rh2_0 2.497259 1_555
Ga1_0 Rh2_1 2.497259 1_554
Ga1_0 La0_4 3.277474 1_555
Ga1_0 La0_6 3.277479 1_555
Ga1_0 La0_0 3.277479 1_555
Ga1_1 Rh0_0 2.497255 1_555
Ga1_1 Rh0_1 2.497255 1_555
Ga1_1 Rh1_4 2.497255 1_555
Ga1_1 Rh1_5 2.497255 1_555
Ga1_1 Rh2_0 2.497259 1_555
Ga1_1 Rh2_1 2.497259 1_555
Ga1_1 La0_5 3.277474 1_555
Ga1_1 La0_1 3.277479 1_555
Ga1_1 La0_7 3.277479 1_555
Ga1_2 Rh0_3 2.497255 1_554
Ga1_2 Rh0_2 2.497255 1_555
Ga1_2 Rh1_6 2.497255 1_555
Ga1_2 Rh1_7 2.497255 1_554
Ga1_2 Rh2_3 2.497259 1_554
Ga1_2 Rh2_2 2.497259 1_555
Ga1_2 La0_6 3.277474 1_555
Ga1_2 La0_2 3.277479 1_555
Ga1_2 La0_4 3.277479 1_565
Ga1_3 Rh0_2 2.497255 1_555
Ga1_3 Rh0_3 2.497255 1_555
Ga1_3 Rh1_6 2.497255 1_555
Ga1_3 Rh1_7 2.497255 1_555
Ga1_3 Rh2_3 2.497259 1_555
Ga1_3 Rh2_2 2.497259 1_555
Ga1_3 La0_7 3.277474 1_555
Ga1_3 La0_3 3.277479 1_555
Ga1_3 La0_5 3.277479 1_565
Ga1_4 Rh0_5 2.497255 1_554
Ga1_4 Rh0_4 2.497255 1_555
Ga1_4 Rh1_0 2.497255 1_655
Ga1_4 Rh1_1 2.497255 1_654
Ga1_4 Rh2_5 2.497259 1_554
Ga1_4 Rh2_4 2.497259 1_555
Ga1_4 La0_0 3.277474 1_655
Ga1_4 La0_4 3.277479 1_555
Ga1_4 La0_2 3.277479 1_655
Ga1_5 Rh0_5 2.497255 1_555
Ga1_5 Rh0_4 2.497255 1_555
Ga1_5 Rh1_0 2.497255 1_655
Ga1_5 Rh1_1 2.497255 1_655
Ga1_5 Rh2_4 2.497259 1_555
Ga1_5 Rh2_5 2.497259 1_555
Ga1_5 La0_1 3.277474 1_655
Ga1_5 La0_5 3.277479 1_555
Ga1_5 La0_3 3.277479 1_655
Ga1_6 Rh0_6 2.497255 1_555
Ga1_6 Rh0_7 2.497255 1_554
Ga1_6 Rh1_3 2.497255 1_654
Ga1_6 Rh1_2 2.497255 1_655
Ga1_6 Rh2_7 2.497259 1_554
Ga1_6 Rh2_6 2.497259 1_555
Ga1_6 La0_2 3.277474 1_655
Ga1_6 La0_6 3.277479 1_555
Ga1_6 La0_0 3.277479 1_665
Ga1_7 Rh0_7 2.497255 1_555
Ga1_7 Rh0_6 2.497255 1_555
Ga1_7 Rh1_3 2.497255 1_655
Ga1_7 Rh1_2 2.497255 1_655
Ga1_7 Rh2_7 2.497259 1_555
Ga1_7 Rh2_6 2.497259 1_555
Ga1_7 La0_3 3.277474 1_655
Ga1_7 La0_7 3.277479 1_555
Ga1_7 La0_1 3.277479 1_665
