# generated using pymatgen
data_Li7Mn4CoO12
_symmetry_space_group_name_H-M   'P 1'
_cell_length_a   5.03682100
_cell_length_b   5.21984001
_cell_length_c   8.73889159
_cell_angle_alpha   74.79087005
_cell_angle_beta   85.55316092
_cell_angle_gamma   78.66746442
_symmetry_Int_Tables_number   1
_chemical_formula_structural   Li7Mn4CoO12
_chemical_formula_sum   'Li7 Mn4 Co1 O12'
_cell_volume   217.30574076
_cell_formula_units_Z   1
loop_
 _symmetry_equiv_pos_site_id
 _symmetry_equiv_pos_as_xyz
  1  'x, y, z'
loop_
 _atom_site_type_symbol
 _atom_site_label
 _atom_site_symmetry_multiplicity
 _atom_site_fract_x
 _atom_site_fract_y
 _atom_site_fract_z
 _atom_site_occupancy
  Li  Li0  1  0.24957100  0.41586800  0.08016300  1
  Li  Li1  1  0.75152900  0.58420000  0.90563800  1
  Li  Li2  1  0.24636400  0.75140000  0.74528200  1
  Li  Li3  1  0.24061000  0.08313700  0.42586000  1
  Li  Li4  1  0.74984800  0.24807700  0.25446800  1
  Li  Li5  1  0.75672800  0.91744100  0.58796600  1
  Li  Li6  1  0.99834900  0.33425200  0.66621300  1
  Mn  Mn0  1  0.00208600  0.00975600  0.99285500  1
  Mn  Mn1  1  0.50322800  0.48776000  0.50812700  1
  Mn  Mn2  1  0.00146500  0.65443400  0.34189900  1
  Mn  Mn3  1  0.49698700  0.83530100  0.16439400  1
  Co  Co0  1  0.50911300  0.18138600  0.82666400  1
  O  O0  1  0.13414900  0.03600000  0.19339100  1
  O  O1  1  0.64496800  0.20651800  0.02747400  1
  O  O2  1  0.13651600  0.32789300  0.88282700  1
  O  O3  1  0.14166400  0.70458800  0.53025100  1
  O  O4  1  0.62491500  0.83708200  0.37426100  1
  O  O5  1  0.61009200  0.53997400  0.69911900  1
  O  O6  1  0.35786900  0.79969700  0.96833200  1
  O  O7  1  0.86275100  0.96292000  0.80682300  1
  O  O8  1  0.39672300  0.16082600  0.62680200  1
  O  O9  1  0.36247400  0.45674000  0.30759800  1
  O  O10  1  0.87251800  0.66558000  0.12436100  1
  O  O11  1  0.84948300  0.29917100  0.45923100  1
loop_
_geom_bond_atom_site_label_1
_geom_bond_atom_site_label_2
_geom_bond_distance
_geom_bond_site_symmetry_2
Li0 O2 2.044403 1_554
Li0 O0 2.140831 1_555
Li0 O6 2.141551 1_554
Li0 O10 2.152320 1_455
Li0 O1 2.153814 1_555
Li0 O9 2.182798 1_555
Li1 O5 2.073767 1_555
Li1 O7 2.105237 1_555
Li1 O1 2.129360 1_556
Li1 O2 2.156439 1_655
Li1 O6 2.185248 1_555
Li1 O10 2.216670 1_556
Li2 O5 2.015300 1_555
Li2 O3 2.077060 1_555
Li2 O7 2.133923 1_455
Li2 O6 2.159083 1_555
Li2 O8 2.359327 1_565
Li2 O2 2.370910 1_555
Li3 O3 2.087045 1_545
Li3 O11 2.109050 1_455
Li3 O9 2.136003 1_555
Li3 O8 2.139947 1_555
Li3 O4 2.188887 1_545
Li3 O0 2.226701 1_555
Li4 O11 1.991780 1_555
Li4 O9 2.120964 1_555
Li4 O0 2.136538 1_655
Li4 O1 2.166658 1_555
Li4 O4 2.311785 1_545
Li4 O10 2.354573 1_555
Li5 O8 2.059760 1_565
Li5 O7 2.108523 1_555
Li5 O3 2.131611 1_655
Li5 O11 2.135982 1_565
Li5 O4 2.194811 1_555
Li5 O5 2.197194 1_555
Li6 O2 2.056931 1_655
Li6 O11 2.074980 1_555
Li6 O8 2.075297 1_655
Li6 O5 2.075964 1_555
Li6 O7 2.207671 1_545
Li6 O3 2.209058 1_655
Mn0 O2 1.908881 1_555
Mn0 O7 1.910008 1_445
Mn0 O1 1.932473 1_456
Mn0 O6 1.936756 1_545
Mn0 O0 1.968473 1_556
Mn0 O10 2.058002 1_446
Mn1 O5 1.893515 1_555
Mn1 O8 1.902767 1_555
Mn1 O11 1.903595 1_555
Mn1 O3 1.971054 1_555
Mn1 O9 1.996594 1_555
Mn1 O4 2.068291 1_555
Mn2 O3 1.937901 1_555
Mn2 O9 1.949725 1_555
Mn2 O4 1.983366 1_455
Mn2 O10 2.039056 1_455
Mn2 O11 2.124791 1_455
Mn2 O0 2.265000 1_565
Mn3 O0 1.953635 1_565
Mn3 O6 1.966107 1_554
Mn3 O10 1.971393 1_555
Mn3 O4 1.993339 1_555
Mn3 O1 2.225918 1_565
Mn3 O9 2.242101 1_555
Co0 O8 1.912598 1_555
Co0 O7 1.939269 1_545
Co0 O2 1.959030 1_555
Co0 O1 1.976674 1_556
Co0 O5 2.048451 1_555
Co0 O6 2.288790 1_545
