# generated using pymatgen
data_CaMg14V
_symmetry_space_group_name_H-M   'P 1'
_cell_length_a   6.48322170
_cell_length_b   6.44793651
_cell_length_c   10.36609275
_cell_angle_alpha   90.00000000
_cell_angle_beta   90.00000000
_cell_angle_gamma   119.82013060
_symmetry_Int_Tables_number   1
_chemical_formula_structural   CaMg14V
_chemical_formula_sum   'Ca1 Mg14 V1'
_cell_volume   375.96000690
_cell_formula_units_Z   1
loop_
 _symmetry_equiv_pos_site_id
 _symmetry_equiv_pos_as_xyz
  1  'x, y, z'
loop_
 _atom_site_type_symbol
 _atom_site_label
 _atom_site_symmetry_multiplicity
 _atom_site_fract_x
 _atom_site_fract_y
 _atom_site_fract_z
 _atom_site_occupancy
  Ca  Ca0  1  0.16514669  0.33257284  0.12500000  1
  Mg  Mg0  1  0.16796878  0.33398389  0.62500000  1
  Mg  Mg1  1  0.16551909  0.83275905  0.62500000  1
  Mg  Mg2  1  0.66067271  0.32538862  0.12500000  1
  Mg  Mg3  1  0.66580807  0.33467838  0.62500000  1
  Mg  Mg4  1  0.66067271  0.83528309  0.12500000  1
  Mg  Mg5  1  0.66580807  0.83112869  0.62500000  1
  Mg  Mg6  1  0.33431884  0.15865460  0.37721078  1
  Mg  Mg7  1  0.33431884  0.15865460  0.87278922  1
  Mg  Mg8  1  0.33431884  0.67566524  0.37721078  1
  Mg  Mg9  1  0.33431884  0.67566524  0.87278922  1
  Mg  Mg10  1  0.82958947  0.16479523  0.38378280  1
  Mg  Mg11  1  0.82958947  0.16479523  0.86621720  1
  Mg  Mg12  1  0.84079662  0.67039881  0.36581055  1
  Mg  Mg13  1  0.84079662  0.67039881  0.88418945  1
  V  V0  1  0.17035636  0.83517768  0.12500000  1
loop_
_geom_bond_atom_site_label_1
_geom_bond_atom_site_label_2
_geom_bond_distance
_geom_bond_site_symmetry_2
Ca0 V0 3.224101 1_545
Ca0 V0 3.224101 1_555
Ca0 Mg4 3.235890 1_555
Ca0 Mg2 3.235890 1_555
Ca0 Mg7 3.243308 1_554
Ca0 Mg6 3.243308 1_555
Ca0 Mg9 3.243314 1_554
Ca0 Mg8 3.243314 1_555
Ca0 Mg4 3.247829 1_445
Ca0 Mg2 3.247830 1_455
Ca0 Mg11 3.280027 1_454
Ca0 Mg10 3.280027 1_455
Mg0 Mg10 3.142450 1_455
Mg0 Mg11 3.142450 1_455
Mg0 Mg6 3.201801 1_555
Mg0 Mg7 3.201801 1_555
Mg0 Mg8 3.201807 1_555
Mg0 Mg9 3.201807 1_555
Mg0 Mg1 3.223998 1_545
Mg0 Mg1 3.223998 1_555
Mg0 Mg5 3.225378 1_555
Mg0 Mg3 3.225378 1_555
Mg0 Mg5 3.257848 1_445
Mg0 Mg3 3.257848 1_455
Mg1 Mg8 3.150220 1_555
Mg1 Mg9 3.150220 1_555
Mg1 Mg6 3.150227 1_565
Mg1 Mg7 3.150227 1_565
Mg1 Mg3 3.234522 1_455
Mg1 Mg5 3.234523 1_455
Mg1 Mg3 3.248724 1_565
Mg1 Mg5 3.248725 1_555
Mg1 Mg12 3.248827 1_455
Mg1 Mg13 3.248827 1_455
Mg2 Mg4 3.160169 1_545
Mg2 V0 3.178491 1_545
Mg2 Mg7 3.194606 1_554
Mg2 Mg6 3.194606 1_555
Mg2 Mg4 3.287767 1_555
Mg2 V0 3.304730 1_655
Mg3 Mg6 3.174696 1_555
Mg3 Mg7 3.174696 1_555
Mg3 Mg5 3.201080 1_555
Mg3 Mg5 3.246856 1_545
Mg4 V0 3.178492 1_555
Mg4 Mg9 3.194606 1_554
Mg4 Mg8 3.194606 1_555
Mg4 V0 3.304730 1_655
Mg5 Mg8 3.174696 1_555
Mg5 Mg9 3.174696 1_555
Mg6 Mg8 3.114285 1_545
Mg6 V0 3.179711 1_545
Mg6 Mg8 3.333652 1_555
Mg7 Mg9 3.114285 1_545
Mg7 V0 3.179711 1_546
Mg7 Mg9 3.333652 1_555
Mg8 V0 3.179705 1_555
Mg9 V0 3.179705 1_556
Mg10 Mg3 3.120348 1_555
Mg10 Mg5 3.120355 1_545
Mg10 Mg8 3.192171 1_545
Mg10 Mg6 3.192172 1_555
Mg10 Mg12 3.229962 1_545
Mg10 Mg12 3.229962 1_555
Mg10 Mg2 3.255079 1_555
Mg10 Mg4 3.255085 1_545
Mg10 Mg8 3.292846 1_655
Mg10 Mg6 3.292846 1_655
Mg11 Mg3 3.120348 1_555
Mg11 Mg5 3.120355 1_545
Mg11 Mg9 3.192171 1_545
Mg11 Mg7 3.192172 1_555
Mg11 Mg13 3.229962 1_545
Mg11 Mg13 3.229962 1_555
Mg11 Mg2 3.255079 1_556
Mg11 Mg4 3.255085 1_546
Mg11 Mg9 3.292846 1_655
Mg11 Mg7 3.292846 1_655
Mg12 V0 3.109268 1_655
Mg12 Mg4 3.155972 1_555
Mg12 Mg2 3.155978 1_555
Mg12 Mg6 3.185057 1_665
Mg12 Mg8 3.185057 1_655
Mg12 Mg5 3.278612 1_555
Mg12 Mg3 3.278618 1_555
Mg12 Mg6 3.302740 1_555
Mg12 Mg8 3.302741 1_555
Mg13 V0 3.109268 1_656
Mg13 Mg4 3.155972 1_556
Mg13 Mg2 3.155978 1_556
Mg13 Mg7 3.185057 1_665
Mg13 Mg9 3.185057 1_655
Mg13 Mg5 3.278612 1_555
Mg13 Mg3 3.278618 1_555
Mg13 Mg7 3.302740 1_555
Mg13 Mg9 3.302741 1_555
