# generated using pymatgen
data_KY(TeO3)2
_symmetry_space_group_name_H-M   'P 1'
_cell_length_a   6.09500700
_cell_length_b   8.74077600
_cell_length_c   13.85303900
_cell_angle_alpha   90.00000000
_cell_angle_beta   90.00000000
_cell_angle_gamma   90.00000000
_symmetry_Int_Tables_number   1
_chemical_formula_structural   KY(TeO3)2
_chemical_formula_sum   'K4 Y4 Te8 O24'
_cell_volume   738.02191204
_cell_formula_units_Z   4
loop_
 _symmetry_equiv_pos_site_id
 _symmetry_equiv_pos_as_xyz
  1  'x, y, z'
loop_
 _atom_site_type_symbol
 _atom_site_label
 _atom_site_symmetry_multiplicity
 _atom_site_fract_x
 _atom_site_fract_y
 _atom_site_fract_z
 _atom_site_occupancy
  K  K0  1  0.25000000  0.00370900  0.62902300  1
  K  K1  1  0.25000000  0.49629100  0.12902300  1
  K  K2  1  0.75000000  0.99629100  0.37097700  1
  K  K3  1  0.75000000  0.50370900  0.87097700  1
  Y  Y0  1  0.25000000  0.78868600  0.90850900  1
  Y  Y1  1  0.25000000  0.71131400  0.40850900  1
  Y  Y2  1  0.75000000  0.21131400  0.09149100  1
  Y  Y3  1  0.75000000  0.28868600  0.59149100  1
  Te  Te0  1  0.75000000  0.00396600  0.80280800  1
  Te  Te1  1  0.75000000  0.49603400  0.30280800  1
  Te  Te2  1  0.25000000  0.99603400  0.19719200  1
  Te  Te3  1  0.25000000  0.50396600  0.69719200  1
  Te  Te4  1  0.75000000  0.72061400  0.57856400  1
  Te  Te5  1  0.75000000  0.77938600  0.07856400  1
  Te  Te6  1  0.25000000  0.27938600  0.42143600  1
  Te  Te7  1  0.25000000  0.22061400  0.92143600  1
  O  O0  1  0.98981600  0.86706400  0.79962200  1
  O  O1  1  0.51018400  0.63293600  0.29962200  1
  O  O2  1  0.48981600  0.13293600  0.20037800  1
  O  O3  1  0.01018400  0.36706400  0.70037800  1
  O  O4  1  0.01018400  0.13293600  0.20037800  1
  O  O5  1  0.48981600  0.36706400  0.70037800  1
  O  O6  1  0.51018400  0.86706400  0.79962200  1
  O  O7  1  0.98981600  0.63293600  0.29962200  1
  O  O8  1  0.75000000  0.05483600  0.66937700  1
  O  O9  1  0.75000000  0.44516400  0.16937700  1
  O  O10  1  0.25000000  0.94516400  0.33062300  1
  O  O11  1  0.25000000  0.55483600  0.83062300  1
  O  O12  1  0.98819700  0.80524600  0.50948500  1
  O  O13  1  0.51180300  0.69475400  0.00948500  1
  O  O14  1  0.48819700  0.19475400  0.49051500  1
  O  O15  1  0.01180300  0.30524600  0.99051500  1
  O  O16  1  0.01180300  0.19475400  0.49051500  1
  O  O17  1  0.48819700  0.30524600  0.99051500  1
  O  O18  1  0.51180300  0.80524600  0.50948500  1
  O  O19  1  0.98819700  0.69475400  0.00948500  1
  O  O20  1  0.75000000  0.52307900  0.52278800  1
  O  O21  1  0.75000000  0.97692100  0.02278800  1
  O  O22  1  0.25000000  0.47692100  0.47721200  1
  O  O23  1  0.25000000  0.02307900  0.97721200  1
loop_
_geom_bond_atom_site_label_1
_geom_bond_atom_site_label_2
_geom_bond_distance
_geom_bond_site_symmetry_2
K0 O18 2.880574 1_545
K0 O12 2.880574 1_445
K0 O16 2.928804 1_555
K0 O14 2.928804 1_555
K0 O6 3.086526 1_545
K0 O0 3.086526 1_445
K0 O8 3.130415 1_555
K0 O8 3.130415 1_455
K1 O13 2.880574 1_555
K1 O19 2.880574 1_455
K1 O17 2.928804 1_554
K1 O15 2.928804 1_554
K1 O1 3.086526 1_555
K1 O7 3.086526 1_455
K1 O9 3.130415 1_555
K1 O9 3.130415 1_455
K2 O16 2.880574 1_665
K2 O14 2.880574 1_565
K2 O18 2.928804 1_555
K2 O12 2.928804 1_555
K2 O4 3.086526 1_665
K2 O2 3.086526 1_565
K2 O10 3.130415 1_555
K2 O10 3.130415 1_655
K3 O15 2.880574 1_655
K3 O17 2.880574 1_555
K3 O19 2.928804 1_556
K3 O13 2.928804 1_556
K3 O5 3.086526 1_555
K3 O3 3.086526 1_655
K3 O11 3.130415 1_655
K3 O11 3.130415 1_555
O0 Te0 1.889545 1_565
O0 Y0 2.293359 1_655
O1 Te1 1.889545 1_555
O1 Y1 2.293359 1_555
O2 Te2 1.889545 1_545
O2 Y2 2.293359 1_555
O3 Te3 1.889545 1_555
O3 Y3 2.293359 1_455
O4 Te2 1.889545 1_545
O4 Y2 2.293359 1_455
O5 Te3 1.889545 1_555
O5 Y3 2.293359 1_555
O6 Te0 1.889545 1_565
O6 Y0 2.293359 1_555
O7 Te1 1.889545 1_555
O7 Y1 2.293359 1_655
O8 Te0 1.901153 1_555
O8 Y3 2.311322 1_555
O9 Te1 1.901153 1_555
O9 Y2 2.311322 1_555
O10 Te2 1.901153 1_555
O10 Y1 2.311322 1_555
O11 Te3 1.901153 1_555
O11 Y0 2.311322 1_555
O12 Te4 1.889643 1_555
O12 Y1 2.275312 1_655
O13 Te5 1.889643 1_555
O13 Y0 2.275312 1_554
O14 Te6 1.889643 1_555
O14 Y3 2.275312 1_555
O15 Te7 1.889643 1_555
O15 Y2 2.275312 1_456
O16 Te6 1.889643 1_555
O16 Y3 2.275312 1_455
O17 Te7 1.889643 1_555
O17 Y2 2.275312 1_556
O18 Te4 1.889643 1_555
O18 Y1 2.275312 1_555
O19 Te5 1.889643 1_555
O19 Y0 2.275312 1_654
O20 Te4 1.891611 1_555
O20 Y3 2.259050 1_555
O21 Te5 1.891611 1_555
O21 Y2 2.259050 1_565
O22 Te6 1.891611 1_555
O22 Y1 2.259050 1_555
O23 Te7 1.891611 1_555
O23 Y0 2.259050 1_545
