# generated using pymatgen
data_HoAlNi4
_symmetry_space_group_name_H-M   'P 1'
_cell_length_a   4.84187724
_cell_length_b   4.84189231
_cell_length_c   3.97900318
_cell_angle_alpha   90.00000000
_cell_angle_beta   90.00000000
_cell_angle_gamma   118.52984908
_symmetry_Int_Tables_number   1
_chemical_formula_structural   HoAlNi4
_chemical_formula_sum   'Ho1 Al1 Ni4'
_cell_volume   81.95562572
_cell_formula_units_Z   1
loop_
 _symmetry_equiv_pos_site_id
 _symmetry_equiv_pos_as_xyz
  1  'x, y, z'
loop_
 _atom_site_type_symbol
 _atom_site_label
 _atom_site_symmetry_multiplicity
 _atom_site_fract_x
 _atom_site_fract_y
 _atom_site_fract_z
 _atom_site_occupancy
  Ho  Ho0  1  -0.00000000  -0.00000000  -0.00000000  1
  Al  Al0  1  0.50000000  0.50000000  0.50000000  1
  Ni  Ni0  1  0.66849191  0.33151862  0.00000000  1
  Ni  Ni1  1  0.33150809  0.66848138  -0.00000000  1
  Ni  Ni2  1  0.50000000  -0.00000000  0.50000000  1
  Ni  Ni3  1  -0.00000000  0.50000000  0.50000000  1
loop_
_geom_bond_atom_site_label_1
_geom_bond_atom_site_label_2
_geom_bond_distance
_geom_bond_site_symmetry_2
Ho0 Ni0 2.759379 1_455
Ho0 Ni1 2.759379 1_545
Ho0 Ni0 2.844292 1_445
Ho0 Ni1 2.844292 1_555
Ho0 Ni0 2.844329 1_555
Ho0 Ni1 2.844329 1_445
Ho0 Ni2 3.133538 1_554
Ho0 Ni2 3.133538 1_454
Ho0 Ni2 3.133538 1_455
Ho0 Ni2 3.133538 1_555
Ho0 Ni3 3.133544 1_545
Ho0 Ni3 3.133544 1_554
Ho0 Ni3 3.133544 1_555
Ho0 Ni3 3.133544 1_544
Al0 Ni3 2.420939 1_555
Al0 Ni3 2.420939 1_655
Al0 Ni2 2.420946 1_555
Al0 Ni2 2.420946 1_565
Al0 Ni1 2.434107 1_555
Al0 Ni0 2.434107 1_556
Al0 Ni1 2.434107 1_556
Al0 Ni0 2.434107 1_555
Al0 Ho0 3.175131 1_556
Al0 Ho0 3.175131 1_665
Al0 Ho0 3.175131 1_555
Al0 Ho0 3.175131 1_666
Ni0 Ni3 2.439102 1_654
Ni0 Ni3 2.439102 1_655
Ni0 Ni2 2.439131 1_554
Ni0 Ni2 2.439131 1_555
Ni1 Ni3 2.439102 1_555
Ni1 Ni3 2.439102 1_554
Ni1 Ni2 2.439131 1_565
Ni1 Ni2 2.439131 1_564
Ni2 Ni3 2.474538 1_655
Ni2 Ni3 2.474538 1_545
