# generated using pymatgen
data_ZrZn16
_symmetry_space_group_name_H-M   'P 1'
_cell_length_a   6.88100809
_cell_length_b   6.88100835
_cell_length_c   11.62178024
_cell_angle_alpha   90.00000000
_cell_angle_beta   90.00000000
_cell_angle_gamma   112.34495969
_symmetry_Int_Tables_number   1
_chemical_formula_structural   ZrZn16
_chemical_formula_sum   'Zr2 Zn32'
_cell_volume   508.95229196
_cell_formula_units_Z   2
loop_
 _symmetry_equiv_pos_site_id
 _symmetry_equiv_pos_as_xyz
  1  'x, y, z'
loop_
 _atom_site_type_symbol
 _atom_site_label
 _atom_site_symmetry_multiplicity
 _atom_site_fract_x
 _atom_site_fract_y
 _atom_site_fract_z
 _atom_site_occupancy
  Zr  Zr0  1  0.04697807  0.95302193  0.75000000  1
  Zr  Zr1  1  0.95302193  0.04697807  0.25000000  1
  Zn  Zn0  1  0.35487204  0.98399191  0.93227951  1
  Zn  Zn1  1  0.64512796  0.01600809  0.43227951  1
  Zn  Zn2  1  0.98399191  0.35487204  0.06772049  1
  Zn  Zn3  1  0.01600809  0.64512796  0.56772049  1
  Zn  Zn4  1  0.64512796  0.01600809  0.06772049  1
  Zn  Zn5  1  0.35487204  0.98399191  0.56772049  1
  Zn  Zn6  1  0.01600809  0.64512796  0.93227951  1
  Zn  Zn7  1  0.98399191  0.35487204  0.43227951  1
  Zn  Zn8  1  0.64720316  0.75054228  0.86617098  1
  Zn  Zn9  1  0.35279684  0.24945772  0.36617098  1
  Zn  Zn10  1  0.75054228  0.64720316  0.13382902  1
  Zn  Zn11  1  0.24945772  0.35279684  0.63382902  1
  Zn  Zn12  1  0.35279684  0.24945772  0.13382902  1
  Zn  Zn13  1  0.64720316  0.75054228  0.63382902  1
  Zn  Zn14  1  0.24945772  0.35279684  0.86617098  1
  Zn  Zn15  1  0.75054228  0.64720316  0.36617098  1
  Zn  Zn16  1  0.48390765  0.19063786  0.75000000  1
  Zn  Zn17  1  0.51609235  0.80936214  0.25000000  1
  Zn  Zn18  1  0.19063786  0.48390765  0.25000000  1
  Zn  Zn19  1  0.80936214  0.51609235  0.75000000  1
  Zn  Zn20  1  0.17728539  0.82271461  0.36112999  1
  Zn  Zn21  1  0.82271461  0.17728539  0.86112999  1
  Zn  Zn22  1  0.82271461  0.17728539  0.63887001  1
  Zn  Zn23  1  0.17728539  0.82271461  0.13887001  1
  Zn  Zn24  1  0.62254487  0.37745513  0.96968500  1
  Zn  Zn25  1  0.37745513  0.62254487  0.46968500  1
  Zn  Zn26  1  0.37745513  0.62254487  0.03031500  1
  Zn  Zn27  1  0.62254487  0.37745513  0.53031500  1
  Zn  Zn28  1  0.29364029  0.70635971  0.75000000  1
  Zn  Zn29  1  0.70635971  0.29364029  0.25000000  1
  Zn  Zn30  1  -0.00000000  0.00000000  -0.00000000  1
  Zn  Zn31  1  -0.00000000  0.00000000  0.50000000  1
loop_
_geom_bond_atom_site_label_1
_geom_bond_atom_site_label_2
_geom_bond_distance
_geom_bond_site_symmetry_2
Zn0 Zn4 2.486096 1_566
Zn0 Zn16 2.517527 1_565
Zn0 Zn6 2.596119 1_555
Zn0 Zn30 2.607458 1_566
Zn0 Zn24 2.668308 1_565
Zn0 Zn23 2.730972 1_556
Zn0 Zn28 2.775384 1_555
Zn0 Zn26 2.793187 1_556
Zn0 Zr0 2.945903 1_555
Zn0 Zn12 2.973792 1_566
Zn0 Zn14 2.992701 1_565
Zn0 Zn21 3.092010 1_565
Zn0 Zn8 3.110290 1_555
Zn1 Zn5 2.486096 1_545
Zn1 Zn17 2.517527 1_545
Zn1 Zn7 2.596119 1_555
Zn1 Zn31 2.607458 1_655
Zn1 Zn25 2.668308 1_545
Zn1 Zn22 2.730972 1_555
Zn1 Zn29 2.775384 1_555
Zn1 Zn27 2.793187 1_555
Zn1 Zr1 2.945903 1_555
Zn1 Zn13 2.973792 1_545
Zn1 Zn15 2.992701 1_545
Zn1 Zn20 3.092010 1_545
Zn1 Zn9 3.110290 1_555
Zn2 Zn6 2.486096 1_654
Zn2 Zn4 2.596119 1_555
Zn2 Zn30 2.607459 1_655
Zn2 Zn26 2.668308 1_655
Zn2 Zn21 2.730972 1_554
Zn2 Zn29 2.775384 1_555
Zn2 Zn24 2.793187 1_554
Zn2 Zr1 2.945903 1_555
Zn2 Zn23 3.092010 1_655
Zn3 Zn7 2.486096 1_455
Zn3 Zn5 2.596119 1_555
Zn3 Zn31 2.607459 1_565
Zn3 Zr0 2.945903 1_555
Zn4 Zr1 2.945903 1_555
Zn4 Zn8 2.973792 1_544
Zn5 Zr0 2.945903 1_555
Zn5 Zn9 2.973792 1_565
Zn6 Zr0 2.945903 1_555
Zn6 Zn8 2.992701 1_455
Zn7 Zr1 2.945903 1_555
Zn7 Zn9 2.992701 1_655
Zn8 Zr0 2.901201 1_655
Zn9 Zr1 2.901201 1_455
Zn10 Zn24 2.572362 1_554
Zn10 Zn17 2.653142 1_555
Zn10 Zn29 2.696607 1_555
Zn10 Zn15 2.700227 1_555
Zn10 Zn23 2.718098 1_655
Zn10 Zn26 2.781264 1_555
Zn10 Zn30 2.844341 1_665
Zn10 Zr1 2.901201 1_565
Zn10 Zn6 2.973792 1_654
Zn10 Zn4 2.992701 1_565
Zn10 Zn12 3.047224 1_555
Zn10 Zn2 3.110290 1_555
Zn11 Zn25 2.572362 1_555
Zn11 Zn16 2.653142 1_555
Zn11 Zn28 2.696607 1_555
Zn11 Zn14 2.700227 1_555
Zn11 Zn22 2.718098 1_455
Zn11 Zn27 2.781264 1_555
Zn11 Zn31 2.844341 1_555
Zn11 Zr0 2.901201 1_545
Zn11 Zn7 2.973792 1_455
Zn11 Zn5 2.992701 1_545
Zn11 Zn13 3.047224 1_555
Zn11 Zn3 3.110290 1_555
Zn12 Zn24 2.572362 1_554
Zn12 Zn18 2.653142 1_555
Zn12 Zn29 2.696607 1_555
Zn12 Zn9 2.700227 1_555
Zn12 Zn23 2.718098 1_545
Zn12 Zn26 2.781264 1_555
Zn12 Zn30 2.844341 1_555
Zn12 Zr1 2.901201 1_455
Zn12 Zn2 2.992701 1_455
Zn12 Zn4 3.110290 1_555
Zn13 Zn25 2.572362 1_555
Zn13 Zn19 2.653142 1_555
Zn13 Zn28 2.696607 1_555
Zn13 Zn8 2.700227 1_555
Zn13 Zn22 2.718098 1_565
Zn13 Zn27 2.781264 1_555
Zn13 Zn31 2.844341 1_665
Zn13 Zr0 2.901201 1_655
Zn13 Zn3 2.992701 1_655
Zn13 Zn5 3.110290 1_555
Zn14 Zn26 2.572362 1_556
Zn14 Zn16 2.653142 1_555
Zn14 Zn28 2.696607 1_555
Zn14 Zn21 2.718098 1_455
Zn14 Zn24 2.781264 1_555
Zn14 Zn30 2.844341 1_556
Zn14 Zr0 2.901201 1_545
Zn14 Zn2 2.973792 1_456
Zn14 Zn8 3.047224 1_555
Zn14 Zn6 3.110290 1_555
Zn15 Zn27 2.572362 1_555
Zn15 Zn17 2.653142 1_555
Zn15 Zn29 2.696607 1_555
Zn15 Zn20 2.718098 1_655
Zn15 Zn25 2.781264 1_555
Zn15 Zn31 2.844341 1_665
Zn15 Zr1 2.901201 1_565
Zn15 Zn3 2.973792 1_655
Zn15 Zn9 3.047224 1_555
Zn15 Zn7 3.110290 1_555
Zn16 Zn19 2.493385 1_555
Zn16 Zn5 2.517527 1_545
Zn16 Zn21 2.697123 1_555
Zn16 Zn22 2.697123 1_555
Zn16 Zr0 2.823954 1_545
Zn16 Zn27 2.854570 1_555
Zn16 Zn24 2.854570 1_555
Zn16 Zn28 3.082394 1_545
Zn17 Zn18 2.493385 1_555
Zn17 Zn4 2.517527 1_565
Zn17 Zn23 2.697123 1_555
Zn17 Zn20 2.697123 1_555
Zn17 Zr1 2.823954 1_565
Zn17 Zn26 2.854570 1_555
Zn17 Zn25 2.854570 1_555
Zn17 Zn29 3.082394 1_565
Zn18 Zn7 2.517527 1_455
Zn18 Zn2 2.517527 1_455
Zn18 Zn9 2.653142 1_555
Zn18 Zn23 2.697123 1_555
Zn18 Zn20 2.697123 1_555
Zn18 Zr1 2.823954 1_455
Zn18 Zn25 2.854570 1_555
Zn18 Zn26 2.854570 1_555
Zn18 Zn29 3.082394 1_455
Zn19 Zn6 2.517527 1_655
Zn19 Zn3 2.517527 1_655
Zn19 Zn8 2.653142 1_555
Zn19 Zn21 2.697123 1_555
Zn19 Zn22 2.697123 1_555
Zn19 Zr0 2.823954 1_655
Zn19 Zn27 2.854570 1_555
Zn19 Zn24 2.854570 1_555
Zn19 Zn28 3.082394 1_655
Zn20 Zn23 2.583057 1_555
Zn20 Zn31 2.590868 1_565
Zn20 Zn25 2.613132 1_555
Zn20 Zn9 2.718098 1_565
Zn20 Zn5 2.730972 1_555
Zn20 Zn3 2.730972 1_555
Zn20 Zr1 2.870785 1_465
Zn20 Zn7 3.092010 1_455
Zn21 Zn22 2.583057 1_555
Zn21 Zn30 2.590868 1_656
Zn21 Zn24 2.613132 1_555
Zn21 Zn8 2.718098 1_545
Zn21 Zn4 2.730972 1_556
Zn21 Zr0 2.870785 1_645
Zn21 Zn6 3.092010 1_655
Zn22 Zn31 2.590868 1_655
Zn22 Zn27 2.613132 1_555
Zn22 Zn7 2.730972 1_555
Zn22 Zr0 2.870785 1_645
Zn22 Zn5 3.092010 1_545
Zn22 Zn3 3.092010 1_655
Zn23 Zn30 2.590868 1_565
Zn23 Zn26 2.613132 1_555
Zn23 Zn6 2.730972 1_554
Zn23 Zr1 2.870785 1_465
Zn23 Zn4 3.092010 1_565
Zn24 Zn6 2.668308 1_655
Zn24 Zn8 2.781264 1_555
Zn24 Zn4 2.793187 1_556
Zn24 Zn26 2.889191 1_556
Zn25 Zn7 2.668308 1_455
Zn25 Zn9 2.781264 1_555
Zn25 Zn3 2.793187 1_555
Zn25 Zn5 2.793187 1_555
Zn25 Zn27 2.889191 1_555
Zn26 Zn8 2.572362 1_554
Zn26 Zn4 2.668308 1_565
Zn26 Zn6 2.793187 1_554
Zn27 Zn9 2.572362 1_555
Zn27 Zn3 2.668308 1_655
Zn27 Zn5 2.668308 1_545
Zn27 Zn7 2.793187 1_555
Zn28 Zn8 2.696607 1_555
Zn28 Zn6 2.775384 1_555
Zn28 Zn3 2.775384 1_555
Zn28 Zn5 2.775384 1_555
Zn28 Zr0 2.819927 1_555
Zn29 Zn9 2.696607 1_555
Zn29 Zn7 2.775384 1_555
Zn29 Zn4 2.775384 1_555
Zn29 Zr1 2.819927 1_555
Zn30 Zn4 2.607458 1_455
Zn30 Zn6 2.607459 1_544
Zn30 Zn8 2.844341 1_444
Zn30 Zr1 2.954667 1_455
Zn30 Zr0 2.954667 1_544
Zn31 Zn5 2.607458 1_545
Zn31 Zn7 2.607459 1_455
Zn31 Zn9 2.844341 1_555
Zn31 Zr1 2.954667 1_455
Zn31 Zr0 2.954667 1_545
