# generated using pymatgen
data_Na2Al2Si3(HO3)4
_symmetry_space_group_name_H-M   'P 1'
_cell_length_a   13.26703288
_cell_length_b   13.60794682
_cell_length_c   9.99035866
_cell_angle_alpha   76.25124270
_cell_angle_beta   70.90383270
_cell_angle_gamma   43.43454629
_symmetry_Int_Tables_number   1
_chemical_formula_structural   Na2Al2Si3(HO3)4
_chemical_formula_sum   'Na8 Al8 Si12 H16 O48'
_cell_volume   1171.80315936
_cell_formula_units_Z   4
loop_
 _symmetry_equiv_pos_site_id
 _symmetry_equiv_pos_as_xyz
  1  'x, y, z'
loop_
 _atom_site_type_symbol
 _atom_site_label
 _atom_site_symmetry_multiplicity
 _atom_site_fract_x
 _atom_site_fract_y
 _atom_site_fract_z
 _atom_site_occupancy
  Na  Na0  1  0.24641900  0.06409800  0.56029800  1
  Na  Na1  1  0.15621400  0.55989600  0.93594900  1
  Na  Na2  1  0.46270200  0.44164000  0.06121900  1
  Na  Na3  1  0.12116700  0.93791500  0.43556800  1
  Na  Na4  1  0.74752600  0.06247400  0.55909500  1
  Na  Na5  1  0.65148900  0.56251400  0.93833000  1
  Na  Na6  1  0.96345300  0.43915200  0.06007400  1
  Na  Na7  1  0.61858000  0.94013800  0.43923100  1
  Al  Al0  1  0.20523300  0.07618800  0.18586800  1
  Al  Al1  1  0.14860300  0.69156700  0.58295700  1
  Al  Al2  1  0.70394500  0.07800300  0.19017700  1
  Al  Al3  1  0.44321900  0.42565200  0.68675100  1
  Al  Al4  1  0.41790200  0.58078300  0.31463400  1
  Al  Al5  1  0.41201400  0.92165600  0.81328400  1
  Al  Al6  1  0.94439700  0.42314700  0.68612900  1
  Al  Al7  1  0.92092000  0.57745600  0.31231300  1
  Si  Si0  1  0.99858200  0.00043400  0.00255500  1
  Si  Si1  1  0.06566200  0.18951800  0.91867900  1
  Si  Si2  1  0.50011600  0.99994800  0.99955800  1
  Si  Si3  1  0.12329800  0.50133900  0.49913700  1
  Si  Si4  1  0.47165100  0.31145300  0.42164400  1
  Si  Si5  1  0.56636100  0.18886200  0.92444000  1
  Si  Si6  1  0.31037400  0.80742500  0.07803900  1
  Si  Si7  1  0.62663800  0.49877800  0.49786800  1
  Si  Si8  1  0.65023300  0.69037300  0.57950100  1
  Si  Si9  1  0.97337400  0.30986900  0.41944700  1
  Si  Si10  1  0.80783300  0.81131200  0.08010800  1
  Si  Si11  1  0.90897500  0.92384200  0.81723100  1
  H  H0  1  0.37402400  0.10004900  0.29100500  1
  H  H1  1  0.34712000  0.19953300  0.38605900  1
  H  H2  1  0.14788500  0.40300900  0.79008500  1
  H  H3  1  0.14640900  0.59856000  0.21102500  1
  H  H4  1  0.26978600  0.30036700  0.88324500  1
  H  H5  1  0.16635600  0.69767800  0.11552300  1
  H  H6  1  0.17295100  0.89826800  0.70914700  1
  H  H7  1  0.33790200  0.79936100  0.61365200  1
  H  H8  1  0.87419100  0.10008100  0.29118000  1
  H  H9  1  0.84721300  0.19935200  0.38606300  1
  H  H10  1  0.64760900  0.40249000  0.78992300  1
  H  H11  1  0.64592700  0.59844200  0.21015700  1
  H  H12  1  0.77041700  0.30038000  0.88295600  1
  H  H13  1  0.66440600  0.69875000  0.11481500  1
  H  H14  1  0.67160000  0.89897800  0.70942900  1
  H  H15  1  0.83992600  0.79875700  0.61283100  1
  O  O0  1  0.08937400  0.19477700  0.06595500  1
  O  O1  1  0.10656400  0.14553500  0.35925400  1
  O  O2  1  0.00437800  0.30411800  0.56719700  1
  O  O3  1  0.22485000  0.08074800  0.80381300  1
  O  O4  1  0.36615600  0.04709300  0.13868500  1
  O  O5  1  0.06360900  0.44821000  0.63652900  1
  O  O6  1  0.06192200  0.54039000  0.35854100  1
  O  O7  1  0.38141400  0.10704500  0.38302400  1
  O  O8  1  0.16629700  0.39251300  0.88368800  1
  O  O9  1  0.06921900  0.64210700  0.54571200  1
  O  O10  1  0.19482200  0.60780500  0.11652300  1
  O  O11  1  0.30941600  0.36080000  0.45216600  1
  O  O12  1  0.99023500  0.86879900  0.65618900  1
  O  O13  1  0.58990500  0.19537800  0.06957700  1
  O  O14  1  0.48220700  0.13591100  0.95135400  1
  O  O15  1  0.16216900  0.86041200  0.04131600  1
  O  O16  1  0.25393200  0.58117500  0.70966500  1
  O  O17  1  0.60473000  0.14596300  0.36256400  1
  O  O18  1  0.24565100  0.70557400  0.42777700  1
  O  O19  1  0.99011800  0.95462500  0.87000300  1
  O  O20  1  0.50601500  0.30361200  0.56837400  1
  O  O21  1  0.47105900  0.41857800  0.30521000  1
  O  O22  1  0.46268200  0.34712500  0.85764800  1
  O  O23  1  0.41101600  0.64369600  0.13629400  1
  O  O24  1  0.25095200  0.91715000  0.19239100  1
  O  O25  1  0.73264300  0.07353800  0.81375000  1
  O  O26  1  0.86508300  0.04765000  0.14039500  1
  O  O27  1  0.23436100  0.89331600  0.61746000  1
  O  O28  1  0.56395500  0.45114300  0.63686900  1
  O  O29  1  0.56200800  0.54407000  0.35914100  1
  O  O30  1  0.88096800  0.10716200  0.38350400  1
  O  O31  1  0.66705400  0.39260000  0.88265500  1
  O  O32  1  0.58164500  0.63725000  0.54469800  1
  O  O33  1  0.41480300  0.80192000  0.93117200  1
  O  O34  1  0.69699200  0.60676100  0.11699100  1
  O  O35  1  0.81114500  0.35901900  0.45175000  1
  O  O36  1  0.50572900  0.85402900  0.63932800  1
  O  O37  1  0.97981600  0.13584000  0.94817300  1
  O  O38  1  0.66329100  0.86180700  0.04319500  1
  O  O39  1  0.75211900  0.58301400  0.69609400  1
  O  O40  1  0.74611800  0.69726300  0.43256400  1
  O  O41  1  0.50191500  0.95333000  0.86384000  1
  O  O42  1  0.96894200  0.41918600  0.30316800  1
  O  O43  1  0.95164700  0.35351400  0.86041100  1
  O  O44  1  0.91028900  0.64736700  0.13620000  1
  O  O45  1  0.75206500  0.91775000  0.19439700  1
  O  O46  1  0.73463400  0.89237400  0.61767400  1
  O  O47  1  0.91105100  0.81147200  0.92994500  1
loop_
_geom_bond_atom_site_label_1
_geom_bond_atom_site_label_2
_geom_bond_distance
_geom_bond_site_symmetry_2
Na0 O27 2.366850 1_545
Na0 O7 2.374546 1_555
Na0 O2 2.390431 1_555
Na0 O3 2.400851 1_555
Na0 O36 2.655607 1_545
Na0 O1 2.664405 1_555
Na1 O16 2.278499 1_555
Na1 O8 2.357041 1_555
Na1 O10 2.364408 1_556
Na1 O47 2.482186 1_455
Na1 O44 2.699099 1_456
Na1 O22 2.724900 1_555
Na2 O10 2.384716 1_555
Na2 O31 2.398277 1_554
Na2 O21 2.411463 1_555
Na2 O13 2.414700 1_555
Na2 O23 2.549186 1_555
Na2 O22 2.652263 1_554
Na3 O18 2.275798 1_555
Na3 O30 2.363490 1_465
Na3 O24 2.414411 1_555
Na3 O27 2.421437 1_555
Na3 O1 2.622755 1_565
Na3 O12 2.764468 1_455
Na4 O46 2.365423 1_545
Na4 O30 2.367650 1_555
Na4 O20 2.392304 1_555
Na4 O25 2.518786 1_555
Na4 O12 2.599797 1_545
Na4 O17 2.642426 1_555
Na5 O31 2.353914 1_555
Na5 O34 2.378355 1_556
Na5 O33 2.378634 1_555
Na5 O39 2.413033 1_555
Na5 O23 2.664890 1_556
Na5 O43 2.669871 1_555
Na6 O34 2.369351 1_555
Na6 O8 2.387140 1_654
Na6 O42 2.398029 1_555
Na6 O0 2.399153 1_655
Na6 O44 2.621983 1_555
Na6 O43 2.633607 1_554
Na7 O7 2.354817 1_565
Na7 O40 2.387428 1_555
Na7 O46 2.400614 1_555
Na7 O45 2.438904 1_555
Na7 O17 2.605791 1_565
Na7 O36 2.662136 1_555
Al0 O0 1.756550 1_555
Al0 O1 1.761776 1_555
Al0 O24 1.763010 1_545
Al0 O4 1.771908 1_555
Al1 O18 1.734197 1_555
Al1 O16 1.736837 1_555
Al1 O9 1.762267 1_555
Al1 O12 1.799989 1_455
Al2 O17 1.749211 1_555
Al2 O13 1.749355 1_555
Al2 O26 1.762892 1_555
Al2 O45 1.765464 1_545
Al3 O16 1.724320 1_555
Al3 O20 1.769226 1_555
Al3 O28 1.771145 1_555
Al3 O22 1.773141 1_555
Al4 O18 1.723363 1_555
Al4 O29 1.779314 1_555
Al4 O21 1.781256 1_555
Al4 O23 1.784250 1_555
Al5 O33 1.752734 1_555
Al5 O36 1.760015 1_555
Al5 O41 1.762869 1_555
Al5 O3 1.763728 1_565
Al6 O5 1.747444 1_655
Al6 O2 1.758618 1_655
Al6 O39 1.768344 1_555
Al6 O43 1.769658 1_555
Al7 O6 1.746813 1_655
Al7 O40 1.759662 1_555
Al7 O42 1.765059 1_555
Al7 O44 1.786737 1_555
H0 O7 0.988900 1_555
H1 O7 0.984585 1_555
H2 O8 0.994906 1_555
H3 O10 0.991887 1_555
H4 O8 0.977628 1_555
H5 O10 0.981987 1_555
H6 O27 0.984206 1_555
H7 O27 0.980467 1_555
H8 O30 0.988528 1_555
H9 O30 0.983282 1_555
H10 O31 0.994796 1_555
H11 O34 0.993390 1_555
H12 O31 0.978246 1_555
H13 O34 0.980608 1_555
H14 O46 0.987994 1_555
H15 O46 0.988522 1_555
O0 Si1 1.629274 1_554
O1 Si9 1.640088 1_455
O2 Si9 1.627798 1_455
O3 Si1 1.627789 1_555
O4 Si2 1.629027 1_544
O5 Si3 1.637803 1_555
O6 Si3 1.638134 1_555
O9 Si3 1.615512 1_555
O11 Si4 1.656932 1_555
O11 Si3 1.668811 1_555
O12 Si11 1.605274 1_555
O13 Si5 1.614164 1_554
O14 Si5 1.648593 1_555
O14 Si2 1.650585 1_545
O15 Si0 1.638336 1_465
O15 Si6 1.675661 1_555
O17 Si4 1.646969 1_555
O19 Si11 1.656378 1_555
O19 Si0 1.657151 1_566
O20 Si4 1.631056 1_555
O21 Si4 1.631416 1_555
O22 Si5 1.609542 1_555
O23 Si6 1.630087 1_555
O24 Si6 1.633411 1_555
O25 Si11 1.649892 1_545
O25 Si5 1.659238 1_555
O26 Si0 1.618048 1_555
O28 Si7 1.624677 1_555
O29 Si7 1.624782 1_555
O32 Si7 1.651850 1_555
O32 Si8 1.659315 1_555
O33 Si6 1.627688 1_556
O35 Si7 1.654891 1_555
O35 Si9 1.655700 1_555
O36 Si8 1.635402 1_555
O37 Si0 1.642782 1_556
O37 Si1 1.674470 1_655
O38 Si10 1.647446 1_555
O38 Si2 1.651685 1_554
O39 Si8 1.634498 1_555
O40 Si8 1.633366 1_555
O41 Si2 1.614643 1_555
O42 Si9 1.631588 1_555
O43 Si1 1.631955 1_655
O44 Si10 1.624445 1_555
O45 Si10 1.620476 1_555
O47 Si11 1.657603 1_555
O47 Si10 1.668652 1_556
