# generated using pymatgen
data_BaBi5
_symmetry_space_group_name_H-M   'P 1'
_cell_length_a   4.90710697
_cell_length_b   9.10275688
_cell_length_c   5.11255942
_cell_angle_alpha   68.11064258
_cell_angle_beta   89.99998316
_cell_angle_gamma   89.99999940
_symmetry_Int_Tables_number   1
_chemical_formula_structural   BaBi5
_chemical_formula_sum   'Ba1 Bi5'
_cell_volume   211.90470320
_cell_formula_units_Z   1
loop_
 _symmetry_equiv_pos_site_id
 _symmetry_equiv_pos_as_xyz
  1  'x, y, z'
loop_
 _atom_site_type_symbol
 _atom_site_label
 _atom_site_symmetry_multiplicity
 _atom_site_fract_x
 _atom_site_fract_y
 _atom_site_fract_z
 _atom_site_occupancy
  Ba  Ba0  1  0.00000000  0.00000000  0.00000000  1
  Bi  Bi0  1  0.50000000  0.32692000  0.71091800  1
  Bi  Bi1  1  0.00000000  0.32162000  0.28094300  1
  Bi  Bi2  1  0.50000000  0.67308000  0.28908200  1
  Bi  Bi3  1  0.00000000  0.67838000  0.71905700  1
  Bi  Bi4  1  0.50000000  0.00000000  0.50000000  1
loop_
_geom_bond_atom_site_label_1
_geom_bond_atom_site_label_2
_geom_bond_distance
_geom_bond_site_symmetry_2
Ba0 Bi4 3.543231 1_455
Ba0 Bi4 3.543231 1_554
Ba0 Bi4 3.543232 1_454
Ba0 Bi4 3.543232 1_555
Ba0 Bi3 3.710728 1_544
Ba0 Bi1 3.710728 1_555
Ba0 Bi0 3.712230 1_554
Ba0 Bi2 3.712230 1_445
Ba0 Bi2 3.712231 1_545
Ba0 Bi0 3.712231 1_454
Ba0 Bi3 3.749757 1_545
Ba0 Bi1 3.749757 1_554
Bi0 Bi2 3.084315 1_555
Bi0 Bi1 3.306619 1_655
Bi0 Bi1 3.306620 1_555
Bi0 Bi4 3.522972 1_555
Bi1 Bi3 3.441296 1_554
Bi1 Bi4 3.660662 1_455
Bi1 Bi4 3.660663 1_555
Bi2 Bi3 3.306619 1_555
Bi2 Bi3 3.306620 1_655
Bi2 Bi4 3.522972 1_565
Bi3 Bi4 3.660662 1_565
Bi3 Bi4 3.660663 1_465
