# generated using pymatgen
data_La5Fe4NiO15
_symmetry_space_group_name_H-M   'P 1'
_cell_length_a   5.60286745
_cell_length_b   5.60286745
_cell_length_c   23.18161688
_cell_angle_alpha   83.10454912
_cell_angle_beta   83.10454912
_cell_angle_gamma   59.42832138
_symmetry_Int_Tables_number   1
_chemical_formula_structural   La5Fe4NiO15
_chemical_formula_sum   'La10 Fe8 Ni2 O30'
_cell_volume   620.54707210
_cell_formula_units_Z   2
loop_
 _symmetry_equiv_pos_site_id
 _symmetry_equiv_pos_as_xyz
  1  'x, y, z'
loop_
 _atom_site_type_symbol
 _atom_site_label
 _atom_site_symmetry_multiplicity
 _atom_site_fract_x
 _atom_site_fract_y
 _atom_site_fract_z
 _atom_site_occupancy
  La  La0  1  0.74680500  0.74680500  0.74864500  1
  La  La1  1  0.94508900  0.94508900  0.15327300  1
  La  La2  1  0.34558300  0.34558300  0.95175500  1
  La  La3  1  0.14718000  0.14718000  0.55128300  1
  La  La4  1  0.54579500  0.54579500  0.35502300  1
  La  La5  1  0.45420500  0.45420500  0.64497700  1
  La  La6  1  0.65441700  0.65441700  0.04824500  1
  La  La7  1  0.05491100  0.05491100  0.84672700  1
  La  La8  1  0.85282000  0.85282000  0.44871700  1
  La  La9  1  0.25319500  0.25319500  0.25135500  1
  Fe  Fe0  1  0.59967000  0.59967000  0.20089200  1
  Fe  Fe1  1  0.00000000  0.00000000  0.00000000  1
  Fe  Fe2  1  0.40033000  0.40033000  0.79910800  1
  Fe  Fe3  1  0.50000000  0.50000000  0.50000000  1
  Fe  Fe4  1  0.89993300  0.89993300  0.30129900  1
  Fe  Fe5  1  0.29960100  0.29960100  0.10078400  1
  Fe  Fe6  1  0.70039900  0.70039900  0.89921600  1
  Fe  Fe7  1  0.10006700  0.10006700  0.69870100  1
  Ni  Ni0  1  0.79982800  0.79982800  0.59971800  1
  Ni  Ni1  1  0.20017200  0.20017200  0.40028200  1
  O  O0  1  0.27922500  0.78144500  0.76011200  1
  O  O1  1  0.47995600  0.97942800  0.16033900  1
  O  O2  1  0.87981700  0.38134600  0.96021500  1
  O  O3  1  0.67953300  0.18015100  0.55848100  1
  O  O4  1  0.08011300  0.58015100  0.35902700  1
  O  O5  1  0.41984900  0.91988700  0.64097300  1
  O  O6  1  0.61865400  0.12018300  0.03978500  1
  O  O7  1  0.02057200  0.52004400  0.83966100  1
  O  O8  1  0.81984900  0.32046700  0.44151900  1
  O  O9  1  0.21855500  0.72077500  0.23988800  1
  O  O10  1  0.91988700  0.41984900  0.64097300  1
  O  O11  1  0.12018300  0.61865400  0.03978500  1
  O  O12  1  0.52004400  0.02057200  0.83966100  1
  O  O13  1  0.32046700  0.81984900  0.44151900  1
  O  O14  1  0.72077500  0.21855500  0.23988800  1
  O  O15  1  0.78144500  0.27922500  0.76011200  1
  O  O16  1  0.97942800  0.47995600  0.16033900  1
  O  O17  1  0.38134600  0.87981700  0.96021500  1
  O  O18  1  0.18015100  0.67953300  0.55848100  1
  O  O19  1  0.58015100  0.08011300  0.35902700  1
  O  O20  1  0.68002900  0.68002900  0.53211100  1
  O  O21  1  0.08188800  0.08188800  0.33219400  1
  O  O22  1  0.48605600  0.48605600  0.13214200  1
  O  O23  1  0.88680500  0.88680500  0.93166500  1
  O  O24  1  0.28656900  0.28656900  0.73184200  1
  O  O25  1  0.31997100  0.31997100  0.46788900  1
  O  O26  1  0.71343100  0.71343100  0.26815800  1
  O  O27  1  0.11319500  0.11319500  0.06833500  1
  O  O28  1  0.51394400  0.51394400  0.86785800  1
  O  O29  1  0.91811200  0.91811200  0.66780600  1
loop_
_geom_bond_atom_site_label_1
_geom_bond_atom_site_label_2
_geom_bond_distance
_geom_bond_site_symmetry_2
La0 O29 2.329722 1_555
La0 O15 2.509896 1_555
La0 O0 2.509896 1_555
La0 O7 2.563141 1_655
La0 O12 2.563141 1_565
La1 O27 2.379710 1_665
La1 O14 2.476421 1_565
La1 O9 2.476421 1_655
La1 O16 2.500104 1_555
La1 O1 2.500104 1_555
La2 O28 2.363531 1_555
La2 O17 2.498677 1_545
La2 O2 2.498677 1_455
La2 O6 2.503094 1_556
La2 O11 2.503094 1_556
La3 O25 2.380430 1_555
La3 O3 2.517396 1_455
La3 O18 2.517396 1_545
La3 O5 2.535052 1_545
La3 O10 2.535052 1_455
La4 O26 2.410047 1_555
La4 O8 2.476205 1_555
La4 O13 2.476205 1_555
La4 O19 2.507708 1_555
La4 O4 2.507708 1_555
La5 O24 2.410047 1_555
La5 O3 2.476205 1_555
La5 O18 2.476205 1_555
La5 O5 2.507708 1_555
La5 O10 2.507708 1_555
La6 O22 2.363531 1_555
La6 O11 2.498677 1_655
La6 O6 2.498677 1_565
La6 O2 2.503094 1_554
La6 O17 2.503094 1_554
La7 O23 2.379710 1_445
La7 O15 2.476421 1_455
La7 O0 2.476421 1_545
La7 O7 2.500104 1_555
La7 O12 2.500104 1_555
La8 O20 2.380430 1_555
La8 O8 2.517396 1_565
La8 O13 2.517396 1_655
La8 O19 2.535052 1_565
La8 O4 2.535052 1_655
La9 O21 2.329722 1_555
La9 O14 2.509896 1_555
La9 O9 2.509896 1_555
La9 O16 2.563141 1_455
La9 O1 2.563141 1_545
Fe0 O9 2.011762 1_555
Fe0 O14 2.011762 1_555
Fe0 O16 2.019967 1_555
Fe0 O1 2.019967 1_555
Fe0 O26 2.033376 1_555
Fe0 O22 2.061510 1_555
Fe1 O17 2.020307 1_544
Fe1 O2 2.020307 1_454
Fe1 O6 2.020307 1_455
Fe1 O11 2.020307 1_545
Fe1 O27 2.050737 1_555
Fe1 O23 2.050737 1_444
Fe2 O15 2.011762 1_555
Fe2 O0 2.011762 1_555
Fe2 O12 2.019967 1_555
Fe2 O7 2.019967 1_555
Fe2 O24 2.033376 1_555
Fe2 O28 2.061510 1_555
Fe3 O8 1.992890 1_555
Fe3 O13 1.992890 1_555
Fe3 O18 1.992890 1_555
Fe3 O3 1.992890 1_555
Fe3 O25 1.996126 1_555
Fe3 O20 1.996126 1_555
Fe4 O4 1.982147 1_655
Fe4 O19 1.982147 1_565
Fe4 O21 1.999860 1_665
Fe4 O14 2.032543 1_565
Fe4 O9 2.032543 1_655
Fe4 O26 2.066472 1_555
Fe5 O1 2.010347 1_545
Fe5 O16 2.010347 1_455
Fe5 O6 2.027815 1_555
Fe5 O11 2.027815 1_555
Fe5 O22 2.045974 1_555
Fe5 O27 2.057736 1_555
Fe6 O12 2.010347 1_565
Fe6 O7 2.010347 1_655
Fe6 O17 2.027815 1_555
Fe6 O2 2.027815 1_555
Fe6 O28 2.045974 1_555
Fe6 O23 2.057736 1_555
Fe7 O10 1.982147 1_455
Fe7 O5 1.982147 1_545
Fe7 O29 1.999860 1_445
Fe7 O15 2.032543 1_455
Fe7 O0 2.032543 1_545
Fe7 O24 2.066472 1_555
Ni0 O10 2.026926 1_555
Ni0 O5 2.026926 1_555
Ni0 O3 2.028163 1_565
Ni0 O18 2.028163 1_655
Ni0 O29 2.078187 1_555
Ni0 O20 2.078651 1_555
Ni1 O4 2.026926 1_555
Ni1 O19 2.026926 1_555
Ni1 O13 2.028163 1_545
Ni1 O8 2.028163 1_455
Ni1 O21 2.078187 1_555
Ni1 O25 2.078651 1_555
