# generated using pymatgen
data_Na9Fe(MoO4)6
_symmetry_space_group_name_H-M   'P 1'
_cell_length_a   10.88922519
_cell_length_b   10.88922519
_cell_length_c   10.88922493
_cell_angle_alpha   87.81806014
_cell_angle_beta   87.81806014
_cell_angle_gamma   87.81805684
_symmetry_Int_Tables_number   1
_chemical_formula_structural   Na9Fe(MoO4)6
_chemical_formula_sum   'Na18 Fe2 Mo12 O48'
_cell_volume   1288.45319661
_cell_formula_units_Z   2
loop_
 _symmetry_equiv_pos_site_id
 _symmetry_equiv_pos_as_xyz
  1  'x, y, z'
loop_
 _atom_site_type_symbol
 _atom_site_label
 _atom_site_symmetry_multiplicity
 _atom_site_fract_x
 _atom_site_fract_y
 _atom_site_fract_z
 _atom_site_occupancy
  Na  Na0  1  0.53096989  0.97770585  0.73952158  1
  Na  Na1  1  0.97770585  0.73952158  0.53096989  1
  Na  Na2  1  0.73952158  0.53096989  0.97770585  1
  Na  Na3  1  0.46903011  0.02229415  0.26047842  1
  Na  Na4  1  0.02229415  0.26047842  0.46903011  1
  Na  Na5  1  0.26047842  0.46903011  0.02229415  1
  Na  Na6  1  0.73139537  0.17949220  0.93634105  1
  Na  Na7  1  0.17949220  0.93634105  0.73139537  1
  Na  Na8  1  0.93634105  0.73139537  0.17949220  1
  Na  Na9  1  0.26860463  0.82050780  0.06365895  1
  Na  Na10  1  0.82050780  0.06365895  0.26860463  1
  Na  Na11  1  0.06365895  0.26860463  0.82050780  1
  Na  Na12  1  0.32765797  0.79053237  0.53167868  1
  Na  Na13  1  0.79053237  0.53167868  0.32765797  1
  Na  Na14  1  0.53167868  0.32765797  0.79053237  1
  Na  Na15  1  0.67234203  0.20946763  0.46832132  1
  Na  Na16  1  0.20946763  0.46832132  0.67234203  1
  Na  Na17  1  0.46832132  0.67234203  0.20946763  1
  Fe  Fe0  1  0.74640458  0.74640458  0.74640458  1
  Fe  Fe1  1  0.25359542  0.25359542  0.25359542  1
  Mo  Mo0  1  0.64112582  0.83039998  0.44823579  1
  Mo  Mo1  1  0.83039998  0.44823579  0.64112582  1
  Mo  Mo2  1  0.44823579  0.64112582  0.83039998  1
  Mo  Mo3  1  0.35887418  0.16960002  0.55176421  1
  Mo  Mo4  1  0.16960002  0.55176421  0.35887418  1
  Mo  Mo5  1  0.55176421  0.35887418  0.16960002  1
  Mo  Mo6  1  0.34192455  0.12749740  0.96254352  1
  Mo  Mo7  1  0.12749740  0.96254352  0.34192455  1
  Mo  Mo8  1  0.96254352  0.34192455  0.12749740  1
  Mo  Mo9  1  0.65807545  0.87250260  0.03745648  1
  Mo  Mo10  1  0.87250260  0.03745648  0.65807545  1
  Mo  Mo11  1  0.03745648  0.65807545  0.87250260  1
  O  O0  1  0.77166587  0.74922638  0.38566581  1
  O  O1  1  0.74922638  0.38566581  0.77166587  1
  O  O2  1  0.38566581  0.77166587  0.74922638  1
  O  O3  1  0.22833413  0.25077362  0.61433419  1
  O  O4  1  0.25077362  0.61433419  0.22833413  1
  O  O5  1  0.61433419  0.22833413  0.25077362  1
  O  O6  1  0.50326490  0.77215675  0.39155019  1
  O  O7  1  0.77215675  0.39155019  0.50326490  1
  O  O8  1  0.39155019  0.50326490  0.77215675  1
  O  O9  1  0.49673510  0.22784325  0.60844981  1
  O  O10  1  0.22784325  0.60844981  0.49673510  1
  O  O11  1  0.60844981  0.49673510  0.22784325  1
  O  O12  1  0.64473000  0.98998194  0.39905626  1
  O  O13  1  0.98998194  0.39905626  0.64473000  1
  O  O14  1  0.39905626  0.64473000  0.98998194  1
  O  O15  1  0.35527000  0.01001806  0.60094374  1
  O  O16  1  0.01001806  0.60094374  0.35527000  1
  O  O17  1  0.60094374  0.35527000  0.01001806  1
  O  O18  1  0.63106188  0.81674386  0.61672156  1
  O  O19  1  0.81674386  0.61672156  0.63106188  1
  O  O20  1  0.61672156  0.63106188  0.81674386  1
  O  O21  1  0.36893812  0.18325614  0.38327844  1
  O  O22  1  0.18325614  0.38327844  0.36893812  1
  O  O23  1  0.38327844  0.36893812  0.18325614  1
  O  O24  1  0.27193141  0.26257894  0.89580334  1
  O  O25  1  0.26257894  0.89580334  0.27193141  1
  O  O26  1  0.89580334  0.27193141  0.26257894  1
  O  O27  1  0.72806859  0.73742106  0.10419666  1
  O  O28  1  0.73742106  0.10419666  0.72806859  1
  O  O29  1  0.10419666  0.72806859  0.73742106  1
  O  O30  1  0.26582686  0.99583158  0.91479695  1
  O  O31  1  0.99583158  0.91479695  0.26582686  1
  O  O32  1  0.91479695  0.26582686  0.99583158  1
  O  O33  1  0.73417314  0.00416842  0.08520305  1
  O  O34  1  0.00416842  0.08520305  0.73417314  1
  O  O35  1  0.08520305  0.73417314  0.00416842  1
  O  O36  1  0.49905465  0.12095345  0.90490947  1
  O  O37  1  0.12095345  0.90490947  0.49905465  1
  O  O38  1  0.90490947  0.49905465  0.12095345  1
  O  O39  1  0.50094535  0.87904655  0.09509053  1
  O  O40  1  0.87904655  0.09509053  0.50094535  1
  O  O41  1  0.09509053  0.50094535  0.87904655  1
  O  O42  1  0.32911023  0.13434189  0.13138914  1
  O  O43  1  0.13434189  0.13138914  0.32911023  1
  O  O44  1  0.13138914  0.32911023  0.13434189  1
  O  O45  1  0.67088977  0.86565811  0.86861086  1
  O  O46  1  0.86565811  0.86861086  0.67088977  1
  O  O47  1  0.86861086  0.67088977  0.86565811  1
loop_
_geom_bond_atom_site_label_1
_geom_bond_atom_site_label_2
_geom_bond_distance
_geom_bond_site_symmetry_2
Na0 O45 2.382638 1_555
Na0 O36 2.433579 1_565
Na0 O18 2.443398 1_555
Na0 O15 2.487874 1_565
Na0 O28 2.677317 1_565
Na0 O2 2.790702 1_555
Na1 O46 2.382638 1_555
Na1 O37 2.433579 1_655
Na1 O19 2.443398 1_555
Na1 O16 2.487874 1_655
Na1 O29 2.677317 1_655
Na1 O0 2.790702 1_555
Na2 O47 2.382638 1_555
Na2 O38 2.433579 1_556
Na2 O20 2.443398 1_555
Na2 O17 2.487874 1_556
Na2 O27 2.677317 1_556
Na2 O1 2.790702 1_555
Na3 O42 2.382638 1_555
Na3 O39 2.433579 1_545
Na3 O21 2.443398 1_555
Na3 O12 2.487874 1_545
Na3 O25 2.677317 1_545
Na3 O5 2.790702 1_555
Na4 O43 2.382638 1_555
Na4 O40 2.433579 1_455
Na4 O22 2.443398 1_555
Na4 O13 2.487874 1_455
Na4 O26 2.677317 1_455
Na4 O3 2.790702 1_555
Na5 O44 2.382638 1_555
Na5 O41 2.433579 1_554
Na5 O23 2.443398 1_555
Na5 O14 2.487874 1_554
Na5 O24 2.677317 1_554
Na5 O4 2.790702 1_555
Na6 O32 2.362147 1_555
Na6 O28 2.438485 1_555
Na6 O33 2.457038 1_556
Na6 O17 2.479589 1_556
Na6 O36 2.670165 1_555
Na6 O1 2.827311 1_555
Na7 O30 2.362147 1_555
Na7 O29 2.438485 1_555
Na7 O34 2.457038 1_565
Na7 O15 2.479589 1_565
Na7 O37 2.670165 1_555
Na7 O2 2.827311 1_555
Na8 O31 2.362147 1_555
Na8 O27 2.438485 1_555
Na8 O35 2.457038 1_655
Na8 O16 2.479589 1_655
Na8 O38 2.670165 1_555
Na8 O0 2.827311 1_555
Na9 O35 2.362147 1_555
Na9 O25 2.438485 1_555
Na9 O30 2.457038 1_554
Na9 O14 2.479589 1_554
Na9 O39 2.670165 1_555
Na9 O4 2.827311 1_555
Na10 O33 2.362147 1_555
Na10 O26 2.438485 1_555
Na10 O31 2.457038 1_545
Na10 O12 2.479589 1_545
Na10 O40 2.670165 1_555
Na10 O5 2.827311 1_555
Na11 O34 2.362147 1_555
Na11 O24 2.438485 1_555
Na11 O32 2.457038 1_455
Na11 O13 2.479589 1_455
Na11 O41 2.670165 1_555
Na11 O3 2.827311 1_555
Na12 O10 2.347432 1_555
Na12 O6 2.407678 1_555
Na12 O2 2.473866 1_555
Na12 O37 2.560758 1_555
Na12 O15 2.565303 1_565
Na13 O11 2.347432 1_555
Na13 O7 2.407678 1_555
Na13 O0 2.473866 1_555
Na13 O38 2.560758 1_555
Na13 O16 2.565303 1_655
Na14 O9 2.347432 1_555
Na14 O8 2.407678 1_555
Na14 O1 2.473866 1_555
Na14 O36 2.560758 1_555
Na14 O17 2.565303 1_556
Na15 O7 2.347432 1_555
Na15 O9 2.407678 1_555
Na15 O5 2.473866 1_555
Na15 O40 2.560758 1_555
Na15 O12 2.565303 1_545
Na16 O8 2.347432 1_555
Na16 O10 2.407678 1_555
Na16 O3 2.473866 1_555
Na16 O41 2.560758 1_555
Na16 O13 2.565303 1_455
Na17 O6 2.347432 1_555
Na17 O11 2.407678 1_555
Na17 O4 2.473866 1_555
Na17 O39 2.560758 1_555
Na17 O14 2.565303 1_554
Fe0 O45 2.024914 1_555
Fe0 O47 2.024914 1_555
Fe0 O46 2.024914 1_555
Fe0 O18 2.034154 1_555
Fe0 O19 2.034154 1_555
Fe0 O20 2.034155 1_555
Fe1 O42 2.024914 1_555
Fe1 O44 2.024914 1_555
Fe1 O43 2.024914 1_555
Fe1 O21 2.034154 1_555
Fe1 O22 2.034154 1_555
Fe1 O23 2.034155 1_555
Mo0 O0 1.772731 1_555
Mo0 O6 1.791568 1_555
Mo0 O12 1.800207 1_555
Mo0 O18 1.834483 1_555
Mo1 O1 1.772731 1_555
Mo1 O7 1.791568 1_555
Mo1 O13 1.800207 1_555
Mo1 O19 1.834483 1_555
Mo2 O2 1.772731 1_555
Mo2 O8 1.791568 1_555
Mo2 O14 1.800207 1_555
Mo2 O20 1.834483 1_555
Mo3 O3 1.772731 1_555
Mo3 O9 1.791568 1_555
Mo3 O15 1.800207 1_555
Mo3 O21 1.834483 1_555
Mo4 O4 1.772731 1_555
Mo4 O10 1.791568 1_555
Mo4 O16 1.800207 1_555
Mo4 O22 1.834483 1_555
Mo5 O5 1.772731 1_555
Mo5 O11 1.791568 1_555
Mo5 O17 1.800207 1_555
Mo5 O23 1.834483 1_555
Mo6 O24 1.774295 1_555
Mo6 O30 1.786788 1_545
Mo6 O36 1.799697 1_555
Mo6 O42 1.842709 1_556
Mo7 O25 1.774295 1_555
Mo7 O31 1.786788 1_455
Mo7 O37 1.799697 1_555
Mo7 O43 1.842709 1_565
Mo8 O26 1.774295 1_555
Mo8 O32 1.786788 1_554
Mo8 O38 1.799697 1_555
Mo8 O44 1.842709 1_655
Mo9 O27 1.774295 1_555
Mo9 O33 1.786788 1_565
Mo9 O39 1.799697 1_555
Mo9 O45 1.842709 1_554
Mo10 O28 1.774295 1_555
Mo10 O34 1.786788 1_655
Mo10 O40 1.799697 1_555
Mo10 O46 1.842709 1_545
Mo11 O29 1.774295 1_555
Mo11 O35 1.786788 1_556
Mo11 O41 1.799697 1_555
Mo11 O47 1.842709 1_455
