# generated using pymatgen
data_Tb6Al43Cr4
_symmetry_space_group_name_H-M   'P 1'
_cell_length_a   10.96122808
_cell_length_b   10.96122808
_cell_length_c   17.55535300
_cell_angle_alpha   90.00000000
_cell_angle_beta   90.00000000
_cell_angle_gamma   120.00000050
_symmetry_Int_Tables_number   1
_chemical_formula_structural   Tb6Al43Cr4
_chemical_formula_sum   'Tb12 Al86 Cr8'
_cell_volume   1826.66381391
_cell_formula_units_Z   2
loop_
 _symmetry_equiv_pos_site_id
 _symmetry_equiv_pos_as_xyz
  1  'x, y, z'
loop_
 _atom_site_type_symbol
 _atom_site_label
 _atom_site_symmetry_multiplicity
 _atom_site_fract_x
 _atom_site_fract_y
 _atom_site_fract_z
 _atom_site_occupancy
  Tb  Tb0  1  0.47059500  0.47059500  0.90476400  1
  Tb  Tb1  1  0.52940500  0.00000000  0.90476400  1
  Tb  Tb2  1  0.00000000  0.52940500  0.90476400  1
  Tb  Tb3  1  0.52940500  0.52940500  0.09523600  1
  Tb  Tb4  1  0.47059500  0.00000000  0.09523600  1
  Tb  Tb5  1  0.00000000  0.47059500  0.09523600  1
  Tb  Tb6  1  0.52940500  0.52940500  0.40476400  1
  Tb  Tb7  1  0.47059500  0.00000000  0.40476400  1
  Tb  Tb8  1  0.00000000  0.47059500  0.40476400  1
  Tb  Tb9  1  0.47059500  0.47059500  0.59523600  1
  Tb  Tb10  1  0.52940500  0.00000000  0.59523600  1
  Tb  Tb11  1  0.00000000  0.52940500  0.59523600  1
  Al  Al0  1  0.84022800  0.23099400  0.83458100  1
  Al  Al1  1  0.76900600  0.60923400  0.83458100  1
  Al  Al2  1  0.39076600  0.15977200  0.83458100  1
  Al  Al3  1  0.23099400  0.84022800  0.83458100  1
  Al  Al4  1  0.60923400  0.76900600  0.83458100  1
  Al  Al5  1  0.15977200  0.39076600  0.83458100  1
  Al  Al6  1  0.15977200  0.76900600  0.16541900  1
  Al  Al7  1  0.23099400  0.39076600  0.16541900  1
  Al  Al8  1  0.60923400  0.84022800  0.16541900  1
  Al  Al9  1  0.76900600  0.15977200  0.16541900  1
  Al  Al10  1  0.39076600  0.23099400  0.16541900  1
  Al  Al11  1  0.84022800  0.60923400  0.16541900  1
  Al  Al12  1  0.15977200  0.76900600  0.33458100  1
  Al  Al13  1  0.23099400  0.39076600  0.33458100  1
  Al  Al14  1  0.60923400  0.84022800  0.33458100  1
  Al  Al15  1  0.76900600  0.15977200  0.33458100  1
  Al  Al16  1  0.39076600  0.23099400  0.33458100  1
  Al  Al17  1  0.84022800  0.60923400  0.33458100  1
  Al  Al18  1  0.84022800  0.23099400  0.66541900  1
  Al  Al19  1  0.76900600  0.60923400  0.66541900  1
  Al  Al20  1  0.39076600  0.15977200  0.66541900  1
  Al  Al21  1  0.23099400  0.84022800  0.66541900  1
  Al  Al22  1  0.60923400  0.76900600  0.66541900  1
  Al  Al23  1  0.15977200  0.39076600  0.66541900  1
  Al  Al24  1  0.84549200  0.84549200  0.38428100  1
  Al  Al25  1  0.15450800  0.00000000  0.38428100  1
  Al  Al26  1  0.00000000  0.15450800  0.38428100  1
  Al  Al27  1  0.15450800  0.15450800  0.61571900  1
  Al  Al28  1  0.84549200  0.00000000  0.61571900  1
  Al  Al29  1  0.00000000  0.84549200  0.61571900  1
  Al  Al30  1  0.15450800  0.15450800  0.88428100  1
  Al  Al31  1  0.84549200  0.00000000  0.88428100  1
  Al  Al32  1  0.00000000  0.84549200  0.88428100  1
  Al  Al33  1  0.84549200  0.84549200  0.11571900  1
  Al  Al34  1  0.15450800  0.00000000  0.11571900  1
  Al  Al35  1  0.00000000  0.15450800  0.11571900  1
  Al  Al36  1  0.74869300  0.74869300  0.96925000  1
  Al  Al37  1  0.25130700  0.00000000  0.96925000  1
  Al  Al38  1  0.00000000  0.25130700  0.96925000  1
  Al  Al39  1  0.25130700  0.25130700  0.03075000  1
  Al  Al40  1  0.74869300  0.00000000  0.03075000  1
  Al  Al41  1  0.00000000  0.74869300  0.03075000  1
  Al  Al42  1  0.25130700  0.25130700  0.46925000  1
  Al  Al43  1  0.74869300  0.00000000  0.46925000  1
  Al  Al44  1  0.00000000  0.74869300  0.46925000  1
  Al  Al45  1  0.74869300  0.74869300  0.53075000  1
  Al  Al46  1  0.25130700  0.00000000  0.53075000  1
  Al  Al47  1  0.00000000  0.25130700  0.53075000  1
  Al  Al48  1  0.85536600  0.45103600  0.75000000  1
  Al  Al49  1  0.54896400  0.40433100  0.75000000  1
  Al  Al50  1  0.59566900  0.14463400  0.75000000  1
  Al  Al51  1  0.45103600  0.85536600  0.75000000  1
  Al  Al52  1  0.40433100  0.54896400  0.75000000  1
  Al  Al53  1  0.14463400  0.59566900  0.75000000  1
  Al  Al54  1  0.14463400  0.54896400  0.25000000  1
  Al  Al55  1  0.45103600  0.59566900  0.25000000  1
  Al  Al56  1  0.40433100  0.85536600  0.25000000  1
  Al  Al57  1  0.54896400  0.14463400  0.25000000  1
  Al  Al58  1  0.59566900  0.45103600  0.25000000  1
  Al  Al59  1  0.85536600  0.40433100  0.25000000  1
  Al  Al60  1  0.75308500  0.24691500  0.00000000  1
  Al  Al61  1  0.75308500  0.50617000  0.00000000  1
  Al  Al62  1  0.49383000  0.24691500  0.00000000  1
  Al  Al63  1  0.24691500  0.75308500  0.00000000  1
  Al  Al64  1  0.50617000  0.75308500  0.00000000  1
  Al  Al65  1  0.24691500  0.49383000  0.00000000  1
  Al  Al66  1  0.24691500  0.75308500  0.50000000  1
  Al  Al67  1  0.24691500  0.49383000  0.50000000  1
  Al  Al68  1  0.50617000  0.75308500  0.50000000  1
  Al  Al69  1  0.75308500  0.24691500  0.50000000  1
  Al  Al70  1  0.49383000  0.24691500  0.50000000  1
  Al  Al71  1  0.75308500  0.50617000  0.50000000  1
  Al  Al72  1  0.66666700  0.33333300  0.87214200  1
  Al  Al73  1  0.33333300  0.66666700  0.87214200  1
  Al  Al74  1  0.33333300  0.66666700  0.12785800  1
  Al  Al75  1  0.66666700  0.33333300  0.12785800  1
  Al  Al76  1  0.33333300  0.66666700  0.37214200  1
  Al  Al77  1  0.66666700  0.33333300  0.37214200  1
  Al  Al78  1  0.66666700  0.33333300  0.62785800  1
  Al  Al79  1  0.33333300  0.66666700  0.62785800  1
  Al  Al80  1  0.85538700  0.85538700  0.75000000  1
  Al  Al81  1  0.14461300  0.00000000  0.75000000  1
  Al  Al82  1  0.00000000  0.14461300  0.75000000  1
  Al  Al83  1  0.14461300  0.14461300  0.25000000  1
  Al  Al84  1  0.85538700  0.00000000  0.25000000  1
  Al  Al85  1  0.00000000  0.85538700  0.25000000  1
  Cr  Cr0  1  0.26954400  0.26954400  0.75000000  1
  Cr  Cr1  1  0.73045600  0.00000000  0.75000000  1
  Cr  Cr2  1  0.00000000  0.73045600  0.75000000  1
  Cr  Cr3  1  0.73045600  0.73045600  0.25000000  1
  Cr  Cr4  1  0.26954400  0.00000000  0.25000000  1
  Cr  Cr5  1  0.00000000  0.26954400  0.25000000  1
  Cr  Cr6  1  0.00000000  0.00000000  0.00000000  1
  Cr  Cr7  1  0.00000000  0.00000000  0.50000000  1
loop_
_geom_bond_atom_site_label_1
_geom_bond_atom_site_label_2
_geom_bond_distance
_geom_bond_site_symmetry_2
Tb0 Tb3 3.405373 1_556
Tb1 Tb4 3.405373 1_556
Tb2 Tb5 3.405373 1_556
Tb6 Tb9 3.405373 1_555
Tb10 Tb7 3.405373 1_555
Tb11 Tb8 3.405373 1_555
Al0 Cr1 2.648943 1_555
Al0 Al31 2.705844 1_555
Al0 Al72 2.728832 1_555
Al0 Al48 2.765774 1_555
Al0 Al50 2.783752 1_555
Al0 Al82 2.797594 1_655
Al0 Al38 2.883738 1_655
Al0 Al18 2.969699 1_555
Al0 Al5 3.033336 1_655
Al0 Al60 3.089126 1_556
Al0 Tb2 3.091245 1_655
Al0 Tb1 3.303053 1_555
Al1 Cr2 2.648943 1_655
Al1 Al32 2.705844 1_655
Al1 Al72 2.728841 1_555
Al1 Al49 2.765770 1_555
Al1 Al48 2.783743 1_555
Al1 Al80 2.797594 1_555
Al1 Al36 2.883738 1_555
Al1 Al19 2.969699 1_555
Al1 Al4 3.033336 1_555
Al1 Al61 3.089126 1_556
Al1 Tb0 3.091245 1_555
Al1 Tb2 3.303053 1_655
Al2 Cr0 2.648943 1_555
Al2 Al30 2.705844 1_555
Al2 Al72 2.728840 1_555
Al2 Al50 2.765765 1_555
Al2 Al49 2.783751 1_555
Al2 Al81 2.797594 1_555
Al2 Al37 2.883738 1_555
Al2 Al20 2.969699 1_555
Al2 Al3 3.033336 1_545
Al2 Al62 3.089126 1_556
Al2 Tb1 3.091245 1_555
Al2 Tb0 3.303053 1_555
Al3 Cr2 2.648943 1_555
Al3 Al32 2.705844 1_555
Al3 Al73 2.728832 1_555
Al3 Al51 2.765774 1_555
Al3 Al53 2.783752 1_555
Al3 Al81 2.797594 1_565
Al3 Al37 2.883738 1_565
Al3 Al63 3.089126 1_556
Al3 Tb1 3.091245 1_565
Al3 Tb2 3.303053 1_555
Al4 Cr1 2.648943 1_565
Al4 Al73 2.728841 1_555
Al4 Al52 2.765770 1_555
Al4 Al51 2.783743 1_555
Al4 Al80 2.797594 1_555
Al4 Al64 3.089126 1_556
Al4 Tb0 3.091245 1_555
Al4 Tb1 3.303053 1_565
Al5 Cr0 2.648943 1_555
Al5 Al73 2.728840 1_555
Al5 Al53 2.765765 1_555
Al5 Al52 2.783751 1_555
Al5 Al82 2.797594 1_555
Al5 Al65 3.089126 1_556
Al5 Tb2 3.091245 1_555
Al5 Tb0 3.303053 1_555
Al6 Cr4 2.648943 1_565
Al6 Al74 2.728832 1_555
Al6 Al85 2.797594 1_555
Al6 Al63 3.089126 1_555
Al6 Tb5 3.091245 1_555
Al6 Tb4 3.303053 1_565
Al7 Cr5 2.648943 1_555
Al7 Al74 2.728841 1_555
Al7 Al83 2.797594 1_555
Al7 Tb3 3.091245 1_555
Al7 Tb5 3.303053 1_555
Al8 Cr3 2.648943 1_555
Al8 Al84 2.797594 1_565
Al8 Al9 3.033336 1_565
Al8 Tb4 3.091245 1_565
Al8 Tb3 3.303053 1_555
Al9 Cr5 2.648943 1_655
Al9 Tb4 3.091245 1_555
Al9 Tb5 3.303053 1_655
Al10 Cr4 2.648943 1_555
Al10 Al34 2.705844 1_555
Al10 Al75 2.728841 1_555
Al10 Al58 2.765770 1_555
Al10 Al57 2.783743 1_555
Al10 Al83 2.797594 1_555
Al10 Al39 2.883738 1_555
Al10 Al16 2.969699 1_555
Al10 Al7 3.033336 1_555
Al10 Al62 3.089126 1_555
Al10 Tb3 3.091245 1_555
Al10 Tb4 3.303053 1_555
Al11 Cr3 2.648943 1_555
Al11 Al33 2.705844 1_555
Al11 Al75 2.728840 1_555
Al11 Al59 2.765765 1_555
Al11 Al58 2.783751 1_555
Al11 Al85 2.797594 1_655
Al11 Al41 2.883738 1_655
Al11 Al17 2.969699 1_555
Al11 Al6 3.033336 1_655
Al11 Al61 3.089126 1_555
Al11 Tb5 3.091245 1_655
Al11 Tb3 3.303053 1_555
Al12 Cr4 2.648943 1_565
Al12 Al25 2.705844 1_565
Al12 Al76 2.728832 1_555
Al12 Al54 2.765774 1_555
Al12 Al56 2.783752 1_555
Al12 Al85 2.797594 1_555
Al12 Al44 2.883738 1_555
Al12 Al6 2.969699 1_555
Al12 Al17 3.033336 1_455
Al12 Al66 3.089126 1_555
Al12 Tb8 3.091245 1_555
Al12 Tb7 3.303053 1_565
Al13 Cr5 2.648943 1_555
Al13 Al26 2.705844 1_555
Al13 Al76 2.728841 1_555
Al13 Al55 2.765770 1_555
Al13 Al54 2.783743 1_555
Al13 Al83 2.797594 1_555
Al13 Al42 2.883738 1_555
Al13 Al7 2.969699 1_555
Al13 Al16 3.033336 1_555
Al13 Al67 3.089126 1_555
Al13 Tb6 3.091245 1_555
Al13 Tb8 3.303053 1_555
Al14 Cr3 2.648943 1_555
Al14 Al24 2.705844 1_555
Al14 Al76 2.728840 1_555
Al14 Al56 2.765765 1_555
Al14 Al55 2.783751 1_555
Al14 Al84 2.797594 1_565
Al14 Al43 2.883738 1_565
Al14 Al8 2.969699 1_555
Al14 Al15 3.033336 1_565
Al14 Al68 3.089126 1_555
Al14 Tb7 3.091245 1_565
Al14 Tb6 3.303053 1_555
Al15 Cr5 2.648943 1_655
Al15 Al26 2.705844 1_655
Al15 Al77 2.728832 1_555
Al15 Al57 2.765774 1_555
Al15 Al59 2.783752 1_555
Al15 Al84 2.797594 1_555
Al15 Al43 2.883738 1_555
Al15 Al9 2.969699 1_555
Al15 Al69 3.089126 1_555
Al15 Tb7 3.091245 1_555
Al15 Tb8 3.303053 1_655
Al16 Cr4 2.648943 1_555
Al16 Al25 2.705844 1_555
Al16 Al77 2.728841 1_555
Al16 Al58 2.765770 1_555
Al16 Al57 2.783743 1_555
Al16 Al83 2.797594 1_555
Al16 Al42 2.883738 1_555
Al16 Al70 3.089126 1_555
Al16 Tb6 3.091245 1_555
Al16 Tb7 3.303053 1_555
Al17 Cr3 2.648943 1_555
Al17 Al24 2.705844 1_555
Al17 Al77 2.728840 1_555
Al17 Al59 2.765765 1_555
Al17 Al58 2.783751 1_555
Al17 Al85 2.797594 1_655
Al17 Al44 2.883738 1_655
Al17 Al71 3.089126 1_555
Al17 Tb8 3.091245 1_655
Al17 Tb6 3.303053 1_555
Al18 Cr1 2.648943 1_555
Al18 Al28 2.705844 1_555
Al18 Al78 2.728832 1_555
Al18 Al48 2.765774 1_555
Al18 Al50 2.783752 1_555
Al18 Al82 2.797594 1_655
Al18 Al47 2.883738 1_655
Al18 Al23 3.033336 1_655
Al18 Al69 3.089126 1_555
Al18 Tb11 3.091245 1_655
Al18 Tb10 3.303053 1_555
Al19 Cr2 2.648943 1_655
Al19 Al29 2.705844 1_655
Al19 Al78 2.728841 1_555
Al19 Al49 2.765770 1_555
Al19 Al48 2.783743 1_555
Al19 Al80 2.797594 1_555
Al19 Al45 2.883738 1_555
Al19 Al22 3.033336 1_555
Al19 Al71 3.089126 1_555
Al19 Tb9 3.091245 1_555
Al19 Tb11 3.303053 1_655
Al20 Cr0 2.648943 1_555
Al20 Al27 2.705844 1_555
Al20 Al78 2.728840 1_555
Al20 Al50 2.765765 1_555
Al20 Al49 2.783751 1_555
Al20 Al81 2.797594 1_555
Al20 Al46 2.883738 1_555
Al20 Al21 3.033336 1_545
Al20 Al70 3.089126 1_555
Al20 Tb10 3.091245 1_555
Al20 Tb9 3.303053 1_555
Al21 Cr2 2.648943 1_555
Al21 Al29 2.705844 1_555
Al21 Al79 2.728832 1_555
Al21 Al51 2.765774 1_555
Al21 Al53 2.783752 1_555
Al21 Al81 2.797594 1_565
Al21 Al46 2.883738 1_565
Al21 Al3 2.969699 1_555
Al21 Al66 3.089126 1_555
Al21 Tb10 3.091245 1_565
Al21 Tb11 3.303053 1_555
Al22 Cr1 2.648943 1_565
Al22 Al28 2.705844 1_565
Al22 Al79 2.728841 1_555
Al22 Al52 2.765770 1_555
Al22 Al51 2.783743 1_555
Al22 Al80 2.797594 1_555
Al22 Al45 2.883738 1_555
Al22 Al4 2.969699 1_555
Al22 Al68 3.089126 1_555
Al22 Tb9 3.091245 1_555
Al22 Tb10 3.303053 1_565
Al23 Cr0 2.648943 1_555
Al23 Al27 2.705844 1_555
Al23 Al79 2.728840 1_555
Al23 Al53 2.765765 1_555
Al23 Al52 2.783751 1_555
Al23 Al82 2.797594 1_555
Al23 Al47 2.883738 1_555
Al23 Al5 2.969699 1_555
Al23 Al67 3.089126 1_555
Al23 Tb11 3.091245 1_555
Al23 Tb9 3.303053 1_555
Al24 Cr7 2.644847 1_665
Al24 Cr3 2.673399 1_555
Al24 Al45 2.781629 1_555
Al24 Al43 2.831270 1_565
Al24 Al44 2.831270 1_655
Al24 Al84 2.872881 1_565
Al24 Al85 2.872881 1_655
Al24 Al26 2.933397 1_665
Al24 Al25 2.933397 1_665
Al24 Tb6 3.483312 1_555
Al25 Cr7 2.644847 1_555
Al25 Cr4 2.673399 1_555
Al25 Al46 2.781629 1_555
Al25 Al44 2.831270 1_545
Al25 Al42 2.831270 1_555
Al25 Al85 2.872881 1_545
Al25 Al83 2.872881 1_555
Al25 Al26 2.933397 1_555
Al25 Tb7 3.483312 1_555
Al26 Cr7 2.644847 1_555
Al26 Cr5 2.673399 1_555
Al26 Al47 2.781629 1_555
Al26 Al43 2.831270 1_455
Al26 Al42 2.831270 1_555
Al26 Al84 2.872881 1_455
Al26 Al83 2.872881 1_555
Al26 Tb8 3.483312 1_555
Al27 Cr7 2.644847 1_555
Al27 Cr0 2.673399 1_555
Al27 Al42 2.781629 1_555
Al27 Al47 2.831270 1_555
Al27 Al46 2.831270 1_555
Al27 Al81 2.872881 1_555
Al27 Al82 2.872881 1_555
Al27 Al29 2.933397 1_545
Al27 Al28 2.933397 1_455
Al27 Tb9 3.483312 1_555
Al28 Cr7 2.644847 1_655
Al28 Cr1 2.673399 1_555
Al28 Al43 2.781629 1_555
Al28 Al47 2.831270 1_655
Al28 Al45 2.831270 1_545
Al28 Al82 2.872881 1_655
Al28 Al80 2.872881 1_545
Al28 Al29 2.933397 1_645
Al28 Tb10 3.483312 1_555
Al29 Cr7 2.644847 1_565
Al29 Cr2 2.673399 1_555
Al29 Al44 2.781629 1_555
Al29 Al46 2.831270 1_565
Al29 Al45 2.831270 1_455
Al29 Al81 2.872881 1_565
Al29 Al80 2.872881 1_455
Al29 Tb11 3.483312 1_555
Al30 Cr6 2.644847 1_556
Al30 Cr0 2.673399 1_555
Al30 Al5 2.705844 1_555
Al30 Al39 2.781629 1_556
Al30 Al38 2.831270 1_555
Al30 Al37 2.831270 1_555
Al30 Al81 2.872881 1_555
Al30 Al82 2.872881 1_555
Al30 Al32 2.933397 1_545
Al30 Al31 2.933397 1_455
Al30 Tb0 3.483312 1_555
Al31 Cr6 2.644847 1_656
Al31 Cr1 2.673399 1_555
Al31 Al4 2.705844 1_545
Al31 Al40 2.781629 1_556
Al31 Al38 2.831270 1_655
Al31 Al36 2.831270 1_545
Al31 Al82 2.872881 1_655
Al31 Al80 2.872881 1_545
Al31 Al32 2.933397 1_645
Al31 Tb1 3.483312 1_555
Al32 Cr6 2.644847 1_566
Al32 Cr2 2.673399 1_555
Al32 Al41 2.781629 1_556
Al32 Al37 2.831270 1_565
Al32 Al36 2.831270 1_455
Al32 Al81 2.872881 1_565
Al32 Al80 2.872881 1_455
Al32 Tb2 3.483312 1_555
Al33 Cr6 2.644847 1_665
Al33 Cr3 2.673399 1_555
Al33 Al8 2.705844 1_555
Al33 Al36 2.781629 1_554
Al33 Al41 2.831270 1_655
Al33 Al40 2.831270 1_565
Al33 Al85 2.872881 1_655
Al33 Al84 2.872881 1_565
Al33 Al35 2.933397 1_665
Al33 Al34 2.933397 1_665
Al33 Tb3 3.483312 1_555
Al34 Cr6 2.644847 1_555
Al34 Cr4 2.673399 1_555
Al34 Al6 2.705844 1_545
Al34 Al37 2.781629 1_554
Al34 Al41 2.831270 1_545
Al34 Al39 2.831270 1_555
Al34 Al85 2.872881 1_545
Al34 Al83 2.872881 1_555
Al34 Al35 2.933397 1_555
Al34 Tb4 3.483312 1_555
Al35 Cr6 2.644847 1_555
Al35 Cr5 2.673399 1_555
Al35 Al7 2.705844 1_555
Al35 Al9 2.705844 1_455
Al35 Al38 2.781629 1_554
Al35 Al40 2.831270 1_455
Al35 Al39 2.831270 1_555
Al35 Al84 2.872881 1_455
Al35 Al83 2.872881 1_555
Al35 Tb5 3.483312 1_555
Al36 Al64 2.736518 1_556
Al36 Al61 2.736518 1_556
Al36 Cr6 2.807030 1_666
Al36 Al4 2.883738 1_555
Al36 Al40 2.958658 1_566
Al36 Al41 2.958658 1_656
Al36 Tb0 3.251722 1_555
Al36 Tb3 3.266398 1_556
Al37 Al62 2.736518 1_556
Al37 Al63 2.736518 1_546
Al37 Cr6 2.807030 1_556
Al37 Al41 2.958658 1_546
Al37 Al39 2.958658 1_556
Al37 Tb1 3.251722 1_555
Al37 Tb4 3.266398 1_556
Al38 Al65 2.736518 1_556
Al38 Al60 2.736518 1_456
Al38 Cr6 2.807030 1_556
Al38 Al5 2.883738 1_555
Al38 Al40 2.958658 1_456
Al38 Al39 2.958658 1_556
Al38 Tb2 3.251722 1_555
Al38 Tb5 3.266398 1_556
Al39 Al62 2.736518 1_555
Al39 Al65 2.736518 1_555
Al39 Cr6 2.807030 1_555
Al39 Al7 2.883738 1_555
Al39 Tb3 3.251722 1_555
Al39 Tb0 3.266398 1_554
Al40 Al64 2.736518 1_545
Al40 Al60 2.736518 1_555
Al40 Cr6 2.807030 1_655
Al40 Al8 2.883738 1_545
Al40 Al9 2.883738 1_555
Al40 Tb4 3.251722 1_555
Al40 Tb1 3.266398 1_554
Al41 Al61 2.736518 1_455
Al41 Al63 2.736518 1_555
Al41 Cr6 2.807030 1_565
Al41 Al6 2.883738 1_555
Al41 Tb5 3.251722 1_555
Al41 Tb2 3.266398 1_554
Al42 Al67 2.736518 1_555
Al42 Al70 2.736518 1_555
Al42 Cr7 2.807030 1_555
Al42 Al46 2.958658 1_555
Al42 Al47 2.958658 1_555
Al42 Tb6 3.251722 1_555
Al42 Tb9 3.266398 1_555
Al43 Al68 2.736518 1_545
Al43 Al69 2.736518 1_555
Al43 Cr7 2.807030 1_655
Al43 Al47 2.958658 1_655
Al43 Al45 2.958658 1_545
Al43 Tb7 3.251722 1_555
Al43 Tb10 3.266398 1_555
Al44 Al71 2.736518 1_455
Al44 Al66 2.736518 1_555
Al44 Cr7 2.807030 1_565
Al44 Al46 2.958658 1_565
Al44 Al45 2.958658 1_455
Al44 Tb8 3.251722 1_555
Al44 Tb11 3.266398 1_555
Al45 Al71 2.736518 1_555
Al45 Al68 2.736518 1_555
Al45 Cr7 2.807030 1_665
Al45 Tb9 3.251722 1_555
Al45 Tb6 3.266398 1_555
Al46 Al70 2.736518 1_555
Al46 Al66 2.736518 1_545
Al46 Cr7 2.807030 1_555
Al46 Tb10 3.251722 1_555
Al46 Tb7 3.266398 1_555
Al47 Al67 2.736518 1_555
Al47 Al69 2.736518 1_455
Al47 Cr7 2.807030 1_555
Al47 Tb11 3.251722 1_555
Al47 Tb8 3.266398 1_555
Al48 Cr2 2.653000 1_655
Al48 Al53 2.745935 1_655
Al48 Al72 2.805698 1_555
Al48 Al78 2.805698 1_555
Al48 Tb11 3.044862 1_655
Al48 Tb2 3.044862 1_655
Al49 Cr0 2.653000 1_555
Al49 Al52 2.745916 1_555
Al49 Al72 2.805709 1_555
Al49 Al78 2.805709 1_555
Al49 Tb0 3.044858 1_555
Al49 Tb9 3.044858 1_555
Al50 Cr1 2.653009 1_555
Al50 Al51 2.745935 1_545
Al50 Al72 2.805696 1_555
Al50 Al78 2.805696 1_555
Al50 Tb10 3.044862 1_555
Al50 Tb1 3.044862 1_555
Al51 Cr1 2.653000 1_565
Al51 Al73 2.805698 1_555
Al51 Al79 2.805698 1_555
Al51 Tb1 3.044862 1_565
Al51 Tb10 3.044862 1_565
Al52 Cr0 2.653000 1_555
Al52 Al73 2.805709 1_555
Al52 Al79 2.805709 1_555
Al52 Tb0 3.044858 1_555
Al52 Tb9 3.044858 1_555
Al53 Cr2 2.653009 1_555
Al53 Al73 2.805696 1_555
Al53 Al79 2.805696 1_555
Al53 Tb2 3.044862 1_555
Al53 Tb11 3.044862 1_555
Al54 Cr5 2.653000 1_555
Al54 Al59 2.745935 1_455
Al54 Al6 2.765774 1_555
Al54 Al7 2.783743 1_555
Al54 Al76 2.805698 1_555
Al54 Al74 2.805698 1_555
Al54 Tb8 3.044862 1_555
Al54 Tb5 3.044862 1_555
Al55 Cr3 2.653000 1_555
Al55 Al58 2.745916 1_555
Al55 Al7 2.765770 1_555
Al55 Al8 2.783751 1_555
Al55 Al76 2.805709 1_555
Al55 Al74 2.805709 1_555
Al55 Tb6 3.044858 1_555
Al55 Tb3 3.044858 1_555
Al56 Cr4 2.653009 1_565
Al56 Al57 2.745935 1_565
Al56 Al8 2.765765 1_555
Al56 Al6 2.783752 1_555
Al56 Al76 2.805696 1_555
Al56 Al74 2.805696 1_555
Al56 Tb7 3.044862 1_565
Al56 Tb4 3.044862 1_565
Al57 Cr4 2.653000 1_555
Al57 Al9 2.765774 1_555
Al57 Al77 2.805698 1_555
Al57 Al75 2.805698 1_555
Al57 Tb7 3.044862 1_555
Al57 Tb4 3.044862 1_555
Al58 Cr3 2.653000 1_555
Al58 Al77 2.805709 1_555
Al58 Al75 2.805709 1_555
Al58 Tb6 3.044858 1_555
Al58 Tb3 3.044858 1_555
Al59 Cr5 2.653009 1_655
Al59 Al9 2.783752 1_555
Al59 Al77 2.805696 1_555
Al59 Al75 2.805696 1_555
Al59 Tb8 3.044862 1_655
Al59 Tb5 3.044862 1_655
Al60 Al75 2.780293 1_555
Al60 Al72 2.780293 1_554
Al60 Al62 2.841753 1_555
Al60 Al61 2.841753 1_555
Al60 Tb1 3.081544 1_554
Al60 Tb5 3.081544 1_655
Al60 Al9 3.089126 1_555
Al60 Tb2 3.365679 1_654
Al60 Tb4 3.365679 1_555
Al61 Al72 2.780298 1_554
Al61 Al75 2.780298 1_555
Al61 Al62 2.841753 1_555
Al61 Tb2 3.081544 1_654
Al61 Tb3 3.081544 1_555
Al61 Tb0 3.365679 1_554
Al61 Tb5 3.365679 1_655
Al62 Al75 2.780298 1_555
Al62 Al72 2.780298 1_554
Al62 Tb4 3.081544 1_555
Al62 Tb0 3.081544 1_554
Al62 Tb3 3.365679 1_555
Al62 Tb1 3.365679 1_554
Al63 Al74 2.780293 1_555
Al63 Al73 2.780293 1_554
Al63 Al65 2.841753 1_555
Al63 Al64 2.841753 1_555
Al63 Tb4 3.081544 1_565
Al63 Tb2 3.081544 1_554
Al63 Tb1 3.365679 1_564
Al63 Tb5 3.365679 1_555
Al64 Al73 2.780298 1_554
Al64 Al74 2.780298 1_555
Al64 Al65 2.841753 1_555
Al64 Tb1 3.081544 1_564
Al64 Tb3 3.081544 1_555
Al64 Al8 3.089126 1_555
Al64 Tb0 3.365679 1_554
Al64 Tb4 3.365679 1_565
Al65 Al74 2.780298 1_555
Al65 Al73 2.780298 1_554
Al65 Tb5 3.081544 1_555
Al65 Tb0 3.081544 1_554
Al65 Al7 3.089126 1_555
Al65 Tb3 3.365679 1_555
Al65 Tb2 3.365679 1_554
Al66 Al79 2.780293 1_555
Al66 Al76 2.780293 1_555
Al66 Al67 2.841753 1_555
Al66 Al68 2.841753 1_555
Al66 Tb11 3.081544 1_555
Al66 Tb7 3.081544 1_565
Al66 Tb10 3.365679 1_565
Al66 Tb8 3.365679 1_555
Al67 Al79 2.780298 1_555
Al67 Al76 2.780298 1_555
Al67 Al68 2.841753 1_555
Al67 Tb8 3.081544 1_555
Al67 Tb9 3.081544 1_555
Al67 Tb6 3.365679 1_555
Al67 Tb11 3.365679 1_555
Al68 Al79 2.780298 1_555
Al68 Al76 2.780298 1_555
Al68 Tb10 3.081544 1_565
Al68 Tb6 3.081544 1_555
Al68 Tb9 3.365679 1_555
Al68 Tb7 3.365679 1_565
Al69 Al78 2.780293 1_555
Al69 Al77 2.780293 1_555
Al69 Al70 2.841753 1_555
Al69 Al71 2.841753 1_555
Al69 Tb10 3.081544 1_555
Al69 Tb8 3.081544 1_655
Al69 Tb11 3.365679 1_655
Al69 Tb7 3.365679 1_555
Al70 Al78 2.780298 1_555
Al70 Al77 2.780298 1_555
Al70 Al71 2.841753 1_555
Al70 Tb7 3.081544 1_555
Al70 Tb9 3.081544 1_555
Al70 Tb6 3.365679 1_555
Al70 Tb10 3.365679 1_555
Al71 Al78 2.780298 1_555
Al71 Al77 2.780298 1_555
Al71 Tb11 3.081544 1_655
Al71 Tb6 3.081544 1_555
Al71 Tb9 3.365679 1_555
Al71 Tb8 3.365679 1_655
Al72 Tb1 3.231751 1_555
Al72 Tb2 3.231752 1_655
Al72 Tb0 3.231761 1_555
Al73 Tb2 3.231751 1_555
Al73 Tb1 3.231752 1_565
Al73 Tb0 3.231761 1_555
Al74 Al8 2.728840 1_555
Al74 Tb4 3.231751 1_565
Al74 Tb5 3.231752 1_555
Al74 Tb3 3.231761 1_555
Al75 Al9 2.728832 1_555
Al75 Tb5 3.231751 1_655
Al75 Tb4 3.231752 1_555
Al75 Tb3 3.231761 1_555
Al76 Tb7 3.231751 1_565
Al76 Tb8 3.231752 1_555
Al76 Tb6 3.231761 1_555
Al77 Tb8 3.231751 1_655
Al77 Tb7 3.231752 1_555
Al77 Tb6 3.231761 1_555
Al78 Tb10 3.231751 1_555
Al78 Tb11 3.231752 1_655
Al78 Tb9 3.231761 1_555
Al79 Tb11 3.231751 1_555
Al79 Tb10 3.231752 1_565
Al79 Tb9 3.231761 1_555
Al80 Cr2 2.560974 1_655
Al80 Cr1 2.560974 1_565
Al80 Al81 2.745536 1_665
Al80 Al82 2.745536 1_665
Al81 Cr2 2.560974 1_545
Al81 Cr0 2.560974 1_555
Al81 Al82 2.745536 1_555
Al82 Cr1 2.560974 1_455
Al82 Cr0 2.560974 1_555
Al83 Cr5 2.560974 1_555
Al83 Cr4 2.560974 1_555
Al83 Al84 2.745536 1_455
Al83 Al85 2.745536 1_545
Al84 Cr5 2.560974 1_655
Al84 Cr3 2.560974 1_545
Al84 Al85 2.745536 1_645
Al84 Al9 2.797594 1_555
Al85 Cr4 2.560974 1_565
Al85 Cr3 2.560974 1_455
Cr0 Tb0 3.498332 1_555
Cr0 Tb9 3.498332 1_555
Cr1 Tb1 3.498332 1_555
Cr1 Tb10 3.498332 1_555
Cr2 Tb11 3.498332 1_555
Cr2 Tb2 3.498332 1_555
Cr3 Tb6 3.498332 1_555
Cr3 Tb3 3.498332 1_555
Cr4 Tb7 3.498332 1_555
Cr4 Tb4 3.498332 1_555
Cr5 Tb8 3.498332 1_555
Cr5 Tb5 3.498332 1_555
