# generated using pymatgen
data_Mg14SiNiO16
_symmetry_space_group_name_H-M   'P 1'
_cell_length_a   8.50188919
_cell_length_b   8.59563425
_cell_length_c   4.26071666
_cell_angle_alpha   90.00000000
_cell_angle_beta   90.00000000
_cell_angle_gamma   90.00000000
_symmetry_Int_Tables_number   1
_chemical_formula_structural   Mg14SiNiO16
_chemical_formula_sum   'Mg14 Si1 Ni1 O16'
_cell_volume   311.36946631
_cell_formula_units_Z   1
loop_
 _symmetry_equiv_pos_site_id
 _symmetry_equiv_pos_as_xyz
  1  'x, y, z'
loop_
 _atom_site_type_symbol
 _atom_site_label
 _atom_site_symmetry_multiplicity
 _atom_site_fract_x
 _atom_site_fract_y
 _atom_site_fract_z
 _atom_site_occupancy
  Mg  Mg0  1  0.50000000  0.00000000  0.00000000  1
  Mg  Mg1  1  0.50000000  0.50000000  0.00000000  1
  Mg  Mg2  1  0.00000000  0.24366766  0.50000000  1
  Mg  Mg3  1  0.00000000  0.75633234  0.50000000  1
  Mg  Mg4  1  0.50000000  0.24822093  0.50000000  1
  Mg  Mg5  1  0.50000000  0.75177907  0.50000000  1
  Mg  Mg6  1  0.24641456  0.00000000  0.50000000  1
  Mg  Mg7  1  0.25057532  0.50000000  0.50000000  1
  Mg  Mg8  1  0.75358544  0.00000000  0.50000000  1
  Mg  Mg9  1  0.74942468  0.50000000  0.50000000  1
  Mg  Mg10  1  0.24916960  0.24493023  0.00000000  1
  Mg  Mg11  1  0.24916960  0.75506977  0.00000000  1
  Mg  Mg12  1  0.75083040  0.24493023  0.00000000  1
  Mg  Mg13  1  0.75083040  0.75506977  0.00000000  1
  Si  Si0  1  0.00000000  0.50000000  0.00000000  1
  Ni  Ni0  1  0.00000000  0.00000000  0.00000000  1
  O  O0  1  0.25759324  0.00000000  0.00000000  1
  O  O1  1  0.24281572  0.50000000  0.00000000  1
  O  O2  1  0.74240676  0.00000000  0.00000000  1
  O  O3  1  0.75718428  0.50000000  0.00000000  1
  O  O4  1  0.24811523  0.25072217  0.50000000  1
  O  O5  1  0.24811523  0.74927783  0.50000000  1
  O  O6  1  0.75188477  0.25072217  0.50000000  1
  O  O7  1  0.75188477  0.74927783  0.50000000  1
  O  O8  1  0.00000000  0.00000000  0.50000000  1
  O  O9  1  0.00000000  0.50000000  0.50000000  1
  O  O10  1  0.50000000  0.00000000  0.50000000  1
  O  O11  1  0.50000000  0.50000000  0.50000000  1
  O  O12  1  0.00000000  0.28896330  0.00000000  1
  O  O13  1  0.00000000  0.71103670  0.00000000  1
  O  O14  1  0.50000000  0.25335759  0.00000000  1
  O  O15  1  0.50000000  0.74664241  0.00000000  1
loop_
_geom_bond_atom_site_label_1
_geom_bond_atom_site_label_2
_geom_bond_distance
_geom_bond_site_symmetry_2
Mg0 O0 2.060915 1_555
Mg0 O2 2.060915 1_555
Mg0 O10 2.130358 1_555
Mg0 O10 2.130358 1_554
Mg0 O15 2.177769 1_545
Mg0 O14 2.177769 1_555
Mg1 O14 2.120048 1_555
Mg1 O15 2.120048 1_555
Mg1 O11 2.130358 1_554
Mg1 O11 2.130358 1_555
Mg1 O1 2.186552 1_555
Mg1 O3 2.186552 1_555
Mg2 O8 2.094478 1_555
Mg2 O4 2.110320 1_555
Mg2 O6 2.110320 1_455
Mg2 O12 2.165644 1_556
Mg2 O12 2.165644 1_555
Mg2 O9 2.203339 1_555
Mg3 O8 2.094478 1_565
Mg3 O5 2.110320 1_555
Mg3 O7 2.110320 1_455
Mg3 O13 2.165644 1_555
Mg3 O13 2.165644 1_556
Mg3 O9 2.203339 1_555
Mg4 O14 2.130816 1_555
Mg4 O14 2.130816 1_556
Mg4 O10 2.133616 1_555
Mg4 O4 2.141604 1_555
Mg4 O6 2.141604 1_555
Mg4 O11 2.164201 1_555
Mg5 O15 2.130816 1_556
Mg5 O15 2.130816 1_555
Mg5 O10 2.133616 1_565
Mg5 O7 2.141604 1_555
Mg5 O5 2.141604 1_555
Mg5 O11 2.164201 1_555
Mg6 O8 2.094989 1_555
Mg6 O0 2.132477 1_556
Mg6 O0 2.132477 1_555
Mg6 O5 2.155165 1_545
Mg6 O4 2.155165 1_555
Mg6 O10 2.155955 1_555
Mg7 O11 2.120581 1_555
Mg7 O9 2.130364 1_555
Mg7 O1 2.131380 1_556
Mg7 O1 2.131380 1_555
Mg7 O4 2.142803 1_555
Mg7 O5 2.142803 1_555
Mg8 O8 2.094989 1_655
Mg8 O2 2.132477 1_556
Mg8 O2 2.132477 1_555
Mg8 O7 2.155165 1_545
Mg8 O6 2.155165 1_555
Mg8 O10 2.155955 1_555
Mg9 O11 2.120581 1_555
Mg9 O9 2.130364 1_655
Mg9 O3 2.131380 1_556
Mg9 O3 2.131380 1_555
Mg9 O6 2.142803 1_555
Mg9 O7 2.142803 1_555
Mg10 O0 2.106548 1_555
Mg10 O4 2.130959 1_554
Mg10 O4 2.130959 1_555
Mg10 O14 2.133762 1_555
Mg10 O12 2.151959 1_555
Mg10 O1 2.193152 1_555
Mg11 O0 2.106548 1_565
Mg11 O5 2.130959 1_554
Mg11 O5 2.130959 1_555
Mg11 O15 2.133762 1_555
Mg11 O13 2.151959 1_555
Mg11 O1 2.193152 1_555
Mg12 O2 2.106548 1_555
Mg12 O6 2.130959 1_555
Mg12 O6 2.130959 1_554
Mg12 O14 2.133762 1_555
Mg12 O12 2.151959 1_655
Mg12 O3 2.193152 1_555
Mg13 O2 2.106548 1_565
Mg13 O7 2.130959 1_554
Mg13 O7 2.130959 1_555
Mg13 O15 2.133762 1_555
Mg13 O13 2.151959 1_655
Mg13 O3 2.193152 1_555
Ni0 O8 2.130358 1_555
Ni0 O8 2.130358 1_554
Ni0 O2 2.190029 1_455
Ni0 O0 2.190029 1_555
Ni0 O12 2.483823 1_555
Ni0 O13 2.483823 1_545
O1 Si0 2.064392 1_555
O3 Si0 2.064392 1_655
O9 Si0 2.130358 1_556
O9 Si0 2.130358 1_555
O12 Si0 1.813994 1_555
O13 Si0 1.813994 1_555
