# generated using pymatgen
data_ZrVCo
_symmetry_space_group_name_H-M   'P 1'
_cell_length_a   4.99115738
_cell_length_b   4.99115738
_cell_length_c   8.39839900
_cell_angle_alpha   90.00000000
_cell_angle_beta   90.00000000
_cell_angle_gamma   117.91188734
_symmetry_Int_Tables_number   1
_chemical_formula_structural   ZrVCo
_chemical_formula_sum   'Zr4 V4 Co4'
_cell_volume   184.87935610
_cell_formula_units_Z   4
loop_
 _symmetry_equiv_pos_site_id
 _symmetry_equiv_pos_as_xyz
  1  'x, y, z'
loop_
 _atom_site_type_symbol
 _atom_site_label
 _atom_site_symmetry_multiplicity
 _atom_site_fract_x
 _atom_site_fract_y
 _atom_site_fract_z
 _atom_site_occupancy
  Zr  Zr0  1  0.67372800  0.32627200  0.31851000  1
  Zr  Zr1  1  0.33708200  0.66291800  0.19798300  1
  Zr  Zr2  1  0.33708200  0.66291800  0.80201700  1
  Zr  Zr3  1  0.67372800  0.32627200  0.68149000  1
  V  V0  1  0.14788500  0.85211500  0.50000000  1
  V  V1  1  0.34075100  0.16373100  0.00000000  1
  V  V2  1  0.83626900  0.65924900  0.00000000  1
  V  V3  1  0.83052100  0.16947900  0.00000000  1
  Co  Co0  1  0.00482500  0.99517500  0.25201800  1
  Co  Co1  1  0.00482500  0.99517500  0.74798200  1
  Co  Co2  1  0.65178300  0.83732800  0.50000000  1
  Co  Co3  1  0.16267200  0.34821700  0.50000000  1
loop_
_geom_bond_atom_site_label_1
_geom_bond_atom_site_label_2
_geom_bond_distance
_geom_bond_site_symmetry_2
Zr0 Zr3 3.048451 1_555
Zr0 Zr1 3.051937 1_555
Zr0 Zr1 3.098642 1_545
Zr0 Zr1 3.098642 1_655
Zr1 Zr2 3.325480 1_554
Zr2 Zr3 3.051937 1_555
Zr2 Zr3 3.098642 1_565
Zr2 Zr3 3.098642 1_455
V0 Zr0 2.999534 1_455
V0 Zr3 2.999534 1_565
V0 Zr0 2.999534 1_565
V0 Zr3 2.999534 1_455
V0 Zr1 3.008643 1_555
V0 Zr2 3.008643 1_555
V1 V3 2.431222 1_555
V1 V2 2.550852 1_555
V1 V3 2.560194 1_455
V1 V2 2.596998 1_445
V1 Zr1 2.995057 1_545
V1 Zr2 2.995057 1_544
V1 Zr2 3.002571 1_554
V1 Zr1 3.002571 1_555
V1 Zr3 3.051785 1_554
V1 Zr0 3.051785 1_555
V2 V3 2.431222 1_555
V2 V3 2.560194 1_565
V2 Zr1 2.995057 1_655
V2 Zr2 2.995057 1_654
V2 Zr2 3.002571 1_554
V2 Zr1 3.002571 1_555
V2 Zr3 3.051785 1_554
V2 Zr0 3.051785 1_555
V3 Zr3 2.992276 1_554
V3 Zr0 2.992276 1_555
V3 Zr2 3.064791 1_544
V3 Zr1 3.064791 1_545
V3 Zr1 3.064791 1_655
V3 Zr2 3.064791 1_654
Co0 V0 2.415463 1_555
Co0 V2 2.584208 1_455
Co0 V1 2.584208 1_565
Co0 V3 2.588840 1_465
Co0 Co2 2.600649 1_455
Co0 Co3 2.600649 1_565
Co0 Zr1 2.877655 1_555
Co0 Zr0 2.886263 1_465
Co0 Zr1 2.981476 1_455
Co0 Zr1 2.981476 1_565
Co0 Zr0 3.003941 1_455
Co0 Zr0 3.003941 1_565
Co1 V0 2.415463 1_555
Co1 V2 2.584208 1_456
Co1 V1 2.584208 1_566
Co1 V3 2.588840 1_466
Co1 Co2 2.600649 1_455
Co1 Co3 2.600649 1_565
Co1 Zr2 2.877655 1_555
Co1 Zr3 2.886263 1_465
Co1 Zr2 2.981476 1_455
Co1 Zr2 2.981476 1_565
Co1 Zr3 3.003941 1_455
Co1 Zr3 3.003941 1_565
Co2 V0 2.442445 1_655
Co2 Co3 2.517870 1_555
Co2 V0 2.550417 1_555
Co2 Co3 2.629980 1_665
Co2 Zr0 2.835585 1_565
Co2 Zr3 2.835585 1_565
Co2 Zr2 2.894555 1_555
Co2 Zr1 2.894555 1_555
Co2 Zr3 3.017153 1_555
Co2 Zr0 3.017153 1_555
Co3 V0 2.442445 1_545
Co3 V0 2.550417 1_555
Co3 Zr0 2.835585 1_455
Co3 Zr3 2.835585 1_455
Co3 Zr2 2.894555 1_555
Co3 Zr1 2.894555 1_555
Co3 Zr0 3.017153 1_555
Co3 Zr3 3.017153 1_555
