# generated using pymatgen
data_CdS
_symmetry_space_group_name_H-M   'P 1'
_cell_length_a   3.89810400
_cell_length_b   3.89843600
_cell_length_c   5.51149200
_cell_angle_alpha   90.00000000
_cell_angle_beta   90.00000000
_cell_angle_gamma   90.00000000
_symmetry_Int_Tables_number   1
_chemical_formula_structural   CdS
_chemical_formula_sum   'Cd2 S2'
_cell_volume   83.75543759
_cell_formula_units_Z   2
loop_
 _symmetry_equiv_pos_site_id
 _symmetry_equiv_pos_as_xyz
  1  'x, y, z'
loop_
 _atom_site_type_symbol
 _atom_site_label
 _atom_site_symmetry_multiplicity
 _atom_site_fract_x
 _atom_site_fract_y
 _atom_site_fract_z
 _atom_site_occupancy
  Cd  Cd0  1  0.24302600  0.50000000  0.50000000  1
  Cd  Cd1  1  0.75697400  0.00000000  0.00000000  1
  S  S0  1  0.25516300  0.50000000  0.00000000  1
  S  S1  1  0.74483700  0.00000000  0.50000000  1
loop_
_geom_bond_atom_site_label_1
_geom_bond_atom_site_label_2
_geom_bond_distance
_geom_bond_site_symmetry_2
Cd0 S1 2.751506 1_455
Cd0 S1 2.751506 1_465
Cd0 S0 2.756152 1_556
Cd0 S0 2.756152 1_555
Cd0 S1 2.761489 1_555
Cd0 S1 2.761489 1_565
Cd1 S0 2.751506 1_645
Cd1 S0 2.751506 1_655
Cd1 S1 2.756152 1_555
Cd1 S1 2.756152 1_554
Cd1 S0 2.761489 1_555
Cd1 S0 2.761489 1_545
