# generated using pymatgen
data_B40H51F3
_symmetry_space_group_name_H-M   'P 1'
_cell_length_a   10.54695722
_cell_length_b   8.05399293
_cell_length_c   9.87284131
_cell_angle_alpha   110.54723289
_cell_angle_beta   83.77327511
_cell_angle_gamma   91.20872550
_symmetry_Int_Tables_number   1
_chemical_formula_structural   B40H51F3
_chemical_formula_sum   'B40 H51 F3'
_cell_volume   780.53477396
_cell_formula_units_Z   1
loop_
 _symmetry_equiv_pos_site_id
 _symmetry_equiv_pos_as_xyz
  1  'x, y, z'
loop_
 _atom_site_type_symbol
 _atom_site_label
 _atom_site_symmetry_multiplicity
 _atom_site_fract_x
 _atom_site_fract_y
 _atom_site_fract_z
 _atom_site_occupancy
  B  B0  1  0.30295300  0.69254300  0.96723300  1
  B  B1  1  0.29949700  0.91238600  0.64369200  1
  B  B2  1  0.21197200  0.95966200  0.47698100  1
  B  B3  1  0.27976500  0.52486400  0.03929700  1
  B  B4  1  0.36165900  0.03212100  0.54093300  1
  B  B5  1  0.87013900  0.79100600  0.18643100  1
  B  B6  1  0.60967100  0.25423200  0.20383900  1
  B  B7  1  0.29535300  0.12144000  0.25910800  1
  B  B8  1  0.80167000  0.19745000  0.83458400  1
  B  B9  1  0.74314600  0.42533300  0.53859500  1
  B  B10  1  0.63869200  0.44815500  0.14335600  1
  B  B11  1  0.68001100  0.18565600  0.33344500  1
  B  B12  1  0.77452800  0.57613200  0.15246700  1
  B  B13  1  0.77694400  0.98686900  0.29938200  1
  B  B14  1  0.25816200  0.31342000  0.41233900  1
  B  B15  1  0.32600200  0.74108600  0.15764200  1
  B  B16  1  0.28679000  0.10961100  0.42715700  1
  B  B17  1  0.31587300  0.46925600  0.18916100  1
  B  B18  1  0.39262200  0.46871300  0.87455800  1
  B  B19  1  0.56316700  0.92561900  0.75657300  1
  B  B20  1  0.79839800  0.36030300  0.35240800  1
  B  B21  1  0.22116700  0.31015600  0.24883100  1
  B  B22  1  0.60648400  0.51059100  0.63882500  1
  B  B23  1  0.69576600  0.02361100  0.77592600  1
  B  B24  1  0.48414300  0.38863900  0.15647300  1
  B  B25  1  0.58735300  0.29470700  0.59130000  1
  B  B26  1  0.10236200  0.32738100  0.69803100  1
  B  B27  1  0.36686400  0.33084400  0.01248100  1
  B  B28  1  0.36592000  0.64245800  0.77927800  1
  B  B29  1  0.41669500  0.83502500  0.72384800  1
  B  B30  1  0.19867200  0.51968700  0.36161400  1
  B  B31  1  0.23685400  0.91271700  0.28270000  1
  B  B32  1  0.52868800  0.69265900  0.74428200  1
  B  B33  1  0.47974400  0.45281400  0.72342100  1
  B  B34  1  0.73044200  0.78418800  0.30256400  1
  B  B35  1  0.13268700  0.18964800  0.52204800  1
  B  B36  1  0.77764800  0.35517900  0.01178600  1
  B  B37  1  0.86321900  0.96442800  0.75696300  1
  B  B38  1  0.77529900  0.38720400  0.19608700  1
  B  B39  1  0.84592000  0.96042500  0.11812000  1
  H  H0  1  0.89784500  0.26881300  0.37574300  1
  H  H1  1  0.82469000  0.25474600  0.08641200  1
  H  H2  1  0.31884600  0.19066000  0.96094900  1
  H  H3  1  0.04436500  0.16787700  0.44927400  1
  H  H4  1  0.89067000  0.87573000  0.82527900  1
  H  H5  1  0.20464400  0.73857100  0.91075100  1
  H  H6  1  0.25833200  0.62616000  0.44816400  1
  H  H7  1  0.36892700  0.06098500  0.15252000  1
  H  H8  1  0.61228000  0.12889800  0.09211900  1
  H  H9  1  0.34466900  0.39821700  0.46936800  1
  H  H10  1  0.58097300  0.64056100  0.01873100  1
  H  H11  1  0.09423300  0.57218700  0.35308000  1
  H  H12  1  0.16378700  0.98579800  0.22682500  1
  H  H13  1  0.11176100  0.03157800  0.55956900  1
  H  H14  1  0.97453100  0.77461400  0.21878800  1
  H  H15  1  0.17080700  0.48317400  0.02304000  1
  H  H16  1  0.15942300  0.83802700  0.37322000  1
  H  H17  1  0.65414500  0.36091200  0.00206500  1
  H  H18  1  0.47368800  0.01040900  0.51948300  1
  H  H19  1  0.53192700  0.58407400  0.42913200  1
  H  H20  1  0.43815300  0.74670200  0.16424600  1
  H  H21  1  0.63205700  0.97219400  0.87920700  1
  H  H22  1  0.28102000  0.58781500  0.70308300  1
  H  H23  1  0.58165300  0.21138900  0.44632900  1
  H  H24  1  0.48638100  0.30870700  0.00092200  1
  H  H25  1  0.35545300  0.82803900  0.03627600  1
  H  H26  1  0.51933200  0.76102600  0.31258200  1
  H  H27  1  0.41826300  0.54036400  0.24808000  1
  H  H28  1  0.47761100  0.28250200  0.23210400  1
  H  H29  1  0.44509200  0.98940700  0.82680300  1
  H  H30  1  0.62379600  0.18703900  0.63560400  1
  H  H31  1  0.49392600  0.78980100  0.39165000  1
  H  H32  1  0.55567000  0.57467100  0.95073600  1
  H  H33  1  0.80923600  0.52503100  0.01075800  1
  H  H34  1  0.06751400  0.48038100  0.74225700  1
  H  H35  1  0.82523400  0.26511200  0.74492100  1
  H  H36  1  0.84421400  0.03928700  0.39947400  1
  H  H37  1  0.13482300  0.24374000  0.17872500  1
  H  H38  1  0.90956200  0.12485100  0.83802700  1
  H  H39  1  0.78892900  0.51755700  0.44427500  1
  H  H40  1  0.32052100  0.09233100  0.68174100  1
  H  H41  1  0.75083900  0.87729200  0.69816900  1
  H  H42  1  0.56207600  0.74601900  0.86520600  1
  H  H43  1  0.76179800  0.95882500  0.04526700  1
  H  H44  1  0.50168100  0.50909500  0.44955700  1
  H  H45  1  0.94342500  0.03389600  0.09753300  1
  H  H46  1  0.92803800  0.34674800  0.34188100  1
  H  H47  1  0.92121300  0.93261000  0.63834000  1
  H  H48  1  0.87748300  0.78574700  0.05162100  1
  H  H49  1  0.19336200  0.90324900  0.69926100  1
  H  H50  1  0.17454500  0.73659600  0.99483000  1
  F  F0  1  0.11508600  0.26248600  0.80624500  1
  F  F1  1  0.84505300  0.42932900  0.61463600  1
  F  F2  1  0.71327400  0.74557900  0.42565500  1
loop_
_geom_bond_atom_site_label_1
_geom_bond_atom_site_label_2
_geom_bond_distance
_geom_bond_site_symmetry_2
B0 H25 1.223259 1_556
B0 H5 1.345443 1_555
B0 H50 1.380817 1_555
B0 B18 1.925560 1_555
B1 H49 1.204619 1_555
B1 H40 1.383124 1_565
B2 H13 1.274666 1_565
B2 H16 1.308474 1_555
B3 H15 1.202085 1_555
B4 H18 1.183201 1_555
B4 H40 1.326956 1_555
B5 H14 1.201565 1_555
B5 H48 1.310513 1_555
B6 H8 1.203887 1_555
B6 H28 1.397911 1_555
B7 H7 1.194046 1_555
B7 H12 1.734391 1_545
B8 H35 1.194803 1_555
B8 H38 1.299364 1_555
B9 F1 1.369847 1_555
B9 H39 1.422980 1_555
B10 H17 1.316675 1_555
B11 H23 1.399042 1_555
B12 H33 1.323575 1_555
B13 H36 1.226679 1_565
B14 H9 1.196290 1_555
B14 B16 1.733804 1_555
B15 H20 1.190730 1_555
B15 H25 1.588019 1_555
B16 B2 1.617333 1_545
B16 B7 1.687603 1_555
B16 B4 1.726307 1_555
B16 B35 1.795785 1_555
B16 B31 1.834738 1_545
B17 H27 1.307240 1_555
B18 B33 1.631151 1_555
B18 B3 1.831141 1_556
B18 B28 1.980016 1_555
B18 B27 2.032089 1_556
B19 H29 1.373019 1_555
B19 H21 1.412466 1_555
B20 H39 1.271225 1_555
B20 H46 1.363729 1_555
B20 H0 1.378529 1_555
B21 H37 1.204491 1_555
B22 B32 1.643548 1_555
B22 B33 1.644784 1_555
B22 B25 1.648364 1_555
B22 B9 1.668427 1_555
B23 H41 1.269874 1_545
B23 H21 1.341182 1_545
B24 H28 1.314320 1_555
B24 H27 1.384823 1_555
B24 H24 1.439530 1_555
B25 H30 1.186510 1_555
B25 H23 1.358393 1_555
B25 B33 1.784650 1_555
B26 H34 1.204496 1_555
B26 F0 1.363327 1_555
B27 H2 1.191056 1_554
B27 H24 1.264028 1_555
B28 H22 1.207679 1_555
B28 B33 1.849518 1_555
B29 H29 1.353538 1_555
B30 H6 1.200400 1_555
B30 H11 1.209963 1_555
B31 H12 1.258535 1_555
B31 H16 1.423309 1_555
B32 H42 1.207751 1_555
B32 B33 1.934454 1_555
B34 F2 1.349625 1_555
B35 H3 1.210196 1_555
B35 H13 1.451951 1_555
B36 H17 1.319404 1_555
B36 H1 1.399237 1_555
B36 H33 1.404375 1_555
B37 H4 1.199323 1_555
B37 H47 1.204960 1_555
B37 H38 1.371554 1_565
B37 H41 1.436144 1_555
B38 H1 1.293113 1_555
B39 H43 1.198388 1_555
B39 H45 1.209314 1_565
B39 H48 1.358338 1_555
H0 H46 0.850259 1_555
H5 H50 0.861386 1_555
H10 H32 0.765705 1_554
H19 H44 0.755313 1_555
H26 H31 0.751757 1_555
