# generated using pymatgen
data_Dy3Ni19B10
_symmetry_space_group_name_H-M   'P 1'
_cell_length_a   7.86400095
_cell_length_b   7.86400095
_cell_length_c   5.75565685
_cell_angle_alpha   88.90327726
_cell_angle_beta   88.90327726
_cell_angle_gamma   67.14116384
_symmetry_Int_Tables_number   1
_chemical_formula_structural   Dy3Ni19B10
_chemical_formula_sum   'Dy3 Ni19 B10'
_cell_volume   327.90354014
_cell_formula_units_Z   1
loop_
 _symmetry_equiv_pos_site_id
 _symmetry_equiv_pos_as_xyz
  1  'x, y, z'
loop_
 _atom_site_type_symbol
 _atom_site_label
 _atom_site_symmetry_multiplicity
 _atom_site_fract_x
 _atom_site_fract_y
 _atom_site_fract_z
 _atom_site_occupancy
  Dy  Dy0  1  0.00000000  0.00000000  0.00000000  1
  Dy  Dy1  1  0.62544700  0.62544700  0.61440100  1
  Dy  Dy2  1  0.37455300  0.37455300  0.38559900  1
  Ni  Ni0  1  0.00000000  0.00000000  0.50000000  1
  Ni  Ni1  1  0.62207800  0.62207800  0.12702900  1
  Ni  Ni2  1  0.37792200  0.37792200  0.87297100  1
  Ni  Ni3  1  0.16291700  0.16291700  0.29678300  1
  Ni  Ni4  1  0.83708300  0.83708300  0.70321700  1
  Ni  Ni5  1  0.18212500  0.18212500  0.72875100  1
  Ni  Ni6  1  0.81787500  0.81787500  0.27124900  1
  Ni  Ni7  1  0.48263700  0.95485800  0.30205900  1
  Ni  Ni8  1  0.95485800  0.48263700  0.30205900  1
  Ni  Ni9  1  0.51736300  0.04514200  0.69794100  1
  Ni  Ni10  1  0.04514200  0.51736300  0.69794100  1
  Ni  Ni11  1  0.12211200  0.62278900  0.07375400  1
  Ni  Ni12  1  0.62278900  0.12211200  0.07375400  1
  Ni  Ni13  1  0.87788800  0.37721100  0.92624600  1
  Ni  Ni14  1  0.37721100  0.87788800  0.92624600  1
  Ni  Ni15  1  0.77071700  0.28891900  0.30121200  1
  Ni  Ni16  1  0.28891900  0.77071700  0.30121200  1
  Ni  Ni17  1  0.22928300  0.71108100  0.69878800  1
  Ni  Ni18  1  0.71108100  0.22928300  0.69878800  1
  B  B0  1  0.38357300  0.61642700  0.00000000  1
  B  B1  1  0.61642700  0.38357300  0.00000000  1
  B  B2  1  0.65091400  0.85717100  0.97436300  1
  B  B3  1  0.85717100  0.65091400  0.97436300  1
  B  B4  1  0.34908600  0.14282900  0.02563700  1
  B  B5  1  0.14282900  0.34908600  0.02563700  1
  B  B6  1  0.93522700  0.30061600  0.56916200  1
  B  B7  1  0.30061600  0.93522700  0.56916200  1
  B  B8  1  0.06477300  0.69938400  0.43083800  1
  B  B9  1  0.69938400  0.06477300  0.43083800  1
loop_
_geom_bond_atom_site_label_1
_geom_bond_atom_site_label_2
_geom_bond_distance
_geom_bond_site_symmetry_2
Dy0 Ni3 2.764695 1_555
Dy0 Ni4 2.764695 1_444
Dy0 Ni13 2.766962 1_454
Dy0 Ni14 2.766962 1_544
Dy0 Ni12 2.766962 1_455
Dy0 Ni11 2.766962 1_545
Dy0 Ni5 2.821785 1_554
Dy0 Ni6 2.821785 1_445
Dy0 Ni16 2.875286 1_545
Dy0 Ni15 2.875286 1_455
Dy0 Ni18 2.875286 1_454
Dy0 Ni17 2.875286 1_544
Dy0 Ni0 2.877828 1_554
Dy0 Ni0 2.877828 1_555
Dy1 Ni1 2.806507 1_555
Dy1 Ni13 2.822196 1_555
Dy1 Ni14 2.822196 1_555
Dy1 Ni4 2.831660 1_555
Dy1 Ni1 2.949827 1_556
Dy1 Ni17 2.952954 1_555
Dy1 Ni18 2.952954 1_555
Dy1 Ni7 2.973629 1_555
Dy1 Ni8 2.973629 1_555
Dy1 Ni15 3.051739 1_555
Dy1 Ni16 3.051739 1_555
Dy1 Ni10 3.116475 1_655
Dy1 Ni9 3.116475 1_565
Dy1 Ni6 3.167182 1_555
Dy2 Ni2 2.806507 1_555
Dy2 Ni11 2.822196 1_555
Dy2 Ni12 2.822196 1_555
Dy2 Ni3 2.831660 1_555
Dy2 Ni2 2.949827 1_554
Dy2 Ni15 2.952954 1_555
Dy2 Ni16 2.952954 1_555
Dy2 Ni9 2.973629 1_555
Dy2 Ni10 2.973629 1_555
Dy2 Ni17 3.051739 1_555
Dy2 Ni18 3.051739 1_555
Dy2 Ni7 3.116475 1_545
Dy2 Ni8 3.116475 1_455
Dy2 Ni5 3.167182 1_555
Ni0 Ni3 2.410694 1_555
Ni0 Ni4 2.410694 1_445
Ni3 Ni7 2.409253 1_545
Ni3 Ni8 2.409253 1_455
Ni3 Ni5 2.504715 1_555
Ni4 Ni9 2.409253 1_565
Ni4 Ni6 2.504715 1_555
Ni10 Ni4 2.409253 1_455
B0 B1 2.025135 1_555
B0 Ni1 2.042772 1_555
B0 Ni2 2.042772 1_554
B0 Ni14 2.073126 1_554
B0 Ni11 2.073126 1_555
B0 Ni16 2.088377 1_555
B0 Ni17 2.088377 1_554
B0 Dy1 2.913045 1_554
B0 Dy2 2.913045 1_555
B1 Ni1 2.042772 1_555
B1 Ni2 2.042772 1_554
B1 Ni13 2.073126 1_554
B1 Ni12 2.073126 1_555
B1 Ni15 2.088377 1_555
B1 Ni18 2.088377 1_554
B1 Dy1 2.913045 1_554
B1 Dy2 2.913045 1_555
B2 B3 1.793820 1_555
B2 Ni4 2.084750 1_555
B2 Ni12 2.097592 1_566
B2 Ni14 2.117716 1_555
B2 Ni6 2.118907 1_556
B2 Ni1 2.120704 1_556
B2 Ni9 2.141759 1_565
B2 Ni7 2.251410 1_556
B2 Dy1 2.845555 1_555
B3 Ni4 2.084750 1_555
B3 Ni11 2.097592 1_656
B3 Ni13 2.117716 1_555
B3 Ni6 2.118907 1_556
B3 Ni1 2.120704 1_556
B3 Ni10 2.141759 1_655
B3 Ni8 2.251410 1_556
B3 Dy1 2.845555 1_555
B4 B5 1.793820 1_555
B4 Ni3 2.084750 1_555
B4 Ni14 2.097592 1_544
B4 Ni12 2.117716 1_555
B4 Ni5 2.118907 1_554
B4 Ni2 2.120704 1_554
B4 Ni7 2.141759 1_545
B4 Ni9 2.251410 1_554
B4 Dy2 2.845555 1_555
B5 Ni3 2.084750 1_555
B5 Ni13 2.097592 1_454
B5 Ni11 2.117716 1_555
B5 Ni5 2.118907 1_554
B5 Ni2 2.120704 1_554
B5 Ni8 2.141759 1_455
B5 Ni10 2.251410 1_554
B5 Dy2 2.845555 1_555
B6 Ni5 2.027735 1_655
B6 Ni15 2.057880 1_555
B6 Ni8 2.124757 1_555
B6 Ni13 2.142686 1_555
B6 Ni18 2.163385 1_555
B6 Ni0 2.258170 1_655
B6 Ni3 2.299469 1_655
B6 Ni10 2.327958 1_655
B6 Dy1 2.773834 1_555
B7 Ni5 2.027735 1_565
B7 Ni16 2.057880 1_555
B7 Ni7 2.124757 1_555
B7 Ni14 2.142686 1_555
B7 Ni17 2.163385 1_555
B7 Ni0 2.258170 1_565
B7 Ni3 2.299469 1_565
B7 Ni9 2.327958 1_565
B7 Dy1 2.773834 1_555
B8 Ni6 2.027735 1_455
B8 Ni17 2.057880 1_555
B8 Ni10 2.124757 1_555
B8 Ni11 2.142686 1_555
B8 Ni16 2.163385 1_555
B8 Ni0 2.258170 1_565
B8 Ni4 2.299469 1_455
B8 Ni8 2.327958 1_455
B8 Dy2 2.773834 1_555
B9 Ni6 2.027735 1_545
B9 Ni18 2.057880 1_555
B9 Ni9 2.124757 1_555
B9 Ni12 2.142686 1_555
B9 Ni15 2.163385 1_555
B9 Ni0 2.258170 1_655
B9 Ni4 2.299469 1_545
B9 Ni7 2.327958 1_545
B9 Dy2 2.773834 1_555
