# generated using pymatgen
data_Tm4Zr3O12
_symmetry_space_group_name_H-M   'P 1'
_cell_length_a   6.26353599
_cell_length_b   6.29626026
_cell_length_c   6.44308428
_cell_angle_alpha   99.80927445
_cell_angle_beta   98.87312360
_cell_angle_gamma   99.44959057
_symmetry_Int_Tables_number   1
_chemical_formula_structural   Tm4Zr3O12
_chemical_formula_sum   'Tm4 Zr3 O12'
_cell_volume   242.60392692
_cell_formula_units_Z   1
loop_
 _symmetry_equiv_pos_site_id
 _symmetry_equiv_pos_as_xyz
  1  'x, y, z'
loop_
 _atom_site_type_symbol
 _atom_site_label
 _atom_site_symmetry_multiplicity
 _atom_site_fract_x
 _atom_site_fract_y
 _atom_site_fract_z
 _atom_site_occupancy
  Tm  Tm0  1  0.38915069  0.69891870  0.86508979  1
  Tm  Tm1  1  0.69382541  0.86457993  0.38967197  1
  Tm  Tm2  1  0.61084931  0.30108130  0.13491021  1
  Tm  Tm3  1  0.30617459  0.13542007  0.61032803  1
  Zr  Zr0  1  -0.00000000  0.00000000  -0.00000000  1
  Zr  Zr1  1  0.84960487  0.39538125  0.67357908  1
  Zr  Zr2  1  0.15039513  0.60461875  0.32642092  1
  O  O0  1  0.03257127  0.67706926  0.89097417  1
  O  O1  1  0.68374286  0.93048543  0.06005998  1
  O  O2  1  0.91972914  0.08050957  0.68934328  1
  O  O3  1  0.96742873  0.32293074  0.10902583  1
  O  O4  1  0.31625714  0.06951457  0.93994002  1
  O  O5  1  0.08027086  0.91949043  0.31065672  1
  O  O6  1  0.58423803  0.18631338  0.43202839  1
  O  O7  1  0.17393846  0.42888088  0.57458990  1
  O  O8  1  0.41596897  0.58157002  0.17819963  1
  O  O9  1  0.41576197  0.81368662  0.56797161  1
  O  O10  1  0.82606154  0.57111912  0.42541010  1
  O  O11  1  0.58403103  0.41842998  0.82180037  1
loop_
_geom_bond_atom_site_label_1
_geom_bond_atom_site_label_2
_geom_bond_distance
_geom_bond_site_symmetry_2
O0 Zr0 2.088767 1_566
O0 Zr1 2.100430 1_455
O0 Tm0 2.248748 1_555
O1 Zr0 2.067542 1_665
O1 Tm0 2.210435 1_554
O1 Tm1 2.225728 1_555
O1 Tm2 2.433096 1_565
O2 Zr1 2.115272 1_555
O2 Zr0 2.152916 1_656
O2 Tm1 2.282449 1_545
O2 Tm3 2.530405 1_655
O3 Zr0 2.088767 1_655
O3 Zr2 2.100430 1_655
O3 Tm2 2.248748 1_555
O4 Zr0 2.067542 1_556
O4 Tm2 2.210435 1_556
O4 Tm3 2.225728 1_555
O4 Tm0 2.433096 1_545
O5 Zr2 2.115272 1_555
O5 Zr0 2.152916 1_565
O5 Tm3 2.282449 1_565
O5 Tm1 2.530405 1_455
O6 Zr1 2.168666 1_555
O6 Tm2 2.178291 1_555
O6 Tm1 2.230504 1_545
O6 Tm3 2.239468 1_555
O7 Zr2 2.094391 1_555
O7 Tm3 2.177548 1_555
O7 Zr1 2.209753 1_455
O7 Tm0 2.365569 1_555
O8 Zr2 2.054800 1_555
O8 Tm0 2.255683 1_554
O8 Tm2 2.309036 1_555
O8 Tm1 2.341674 1_555
O9 Zr2 2.168666 1_555
O9 Tm0 2.178291 1_555
O9 Tm3 2.230504 1_565
O9 Tm1 2.239468 1_555
O10 Zr1 2.094391 1_555
O10 Tm1 2.177548 1_555
O10 Zr2 2.209753 1_655
O10 Tm2 2.365569 1_555
O11 Zr1 2.054800 1_555
O11 Tm2 2.255683 1_556
O11 Tm0 2.309036 1_555
O11 Tm3 2.341674 1_555
