# generated using pymatgen
data_BiI3
_symmetry_space_group_name_H-M   'P 1'
_cell_length_a   12.53429500
_cell_length_b   4.16043000
_cell_length_c   7.94138272
_cell_angle_alpha   75.63690286
_cell_angle_beta   90.00000000
_cell_angle_gamma   90.00000000
_symmetry_Int_Tables_number   1
_chemical_formula_structural   BiI3
_chemical_formula_sum   'Bi2 I6'
_cell_volume   401.18334578
_cell_formula_units_Z   2
loop_
 _symmetry_equiv_pos_site_id
 _symmetry_equiv_pos_as_xyz
  1  'x, y, z'
loop_
 _atom_site_type_symbol
 _atom_site_label
 _atom_site_symmetry_multiplicity
 _atom_site_fract_x
 _atom_site_fract_y
 _atom_site_fract_z
 _atom_site_occupancy
  Bi  Bi0  1  0.25000000  0.32367700  0.95433200  1
  Bi  Bi1  1  0.75000000  0.67632300  0.04566800  1
  I  I0  1  0.58907200  0.13921800  0.21068200  1
  I  I1  1  0.08907200  0.86078200  0.78931800  1
  I  I2  1  0.41092800  0.86078200  0.78931800  1
  I  I3  1  0.91092800  0.13921800  0.21068200  1
  I  I4  1  0.25000000  0.63878100  0.26371200  1
  I  I5  1  0.75000000  0.36121900  0.73628800  1
loop_
_geom_bond_atom_site_label_1
_geom_bond_atom_site_label_2
_geom_bond_distance
_geom_bond_site_symmetry_2
Bi0 I2 3.053946 1_555
Bi0 I1 3.053946 1_555
Bi0 I4 3.058271 1_556
Bi0 I4 3.268404 1_546
Bi0 I2 3.278258 1_545
Bi0 I1 3.278258 1_545
Bi1 I3 3.053946 1_555
Bi1 I0 3.053946 1_555
Bi1 I5 3.058271 1_554
Bi1 I5 3.268404 1_564
Bi1 I3 3.278258 1_565
Bi1 I0 3.278258 1_565
