# generated using pymatgen
data_Gd3SbO7
_symmetry_space_group_name_H-M   'P 1'
_cell_length_a   6.51224723
_cell_length_b   6.51224723
_cell_length_c   7.55537969
_cell_angle_alpha   90.00000000
_cell_angle_beta   90.00000000
_cell_angle_gamma   109.61909395
_symmetry_Int_Tables_number   1
_chemical_formula_structural   Gd3SbO7
_chemical_formula_sum   'Gd6 Sb2 O14'
_cell_volume   301.81712680
_cell_formula_units_Z   2
loop_
 _symmetry_equiv_pos_site_id
 _symmetry_equiv_pos_as_xyz
  1  'x, y, z'
loop_
 _atom_site_type_symbol
 _atom_site_label
 _atom_site_symmetry_multiplicity
 _atom_site_fract_x
 _atom_site_fract_y
 _atom_site_fract_z
 _atom_site_occupancy
  Gd  Gd0  1  0.50000000  0.50000000  0.50000000  1
  Gd  Gd1  1  0.50000000  0.50000000  -0.00000000  1
  Gd  Gd2  1  0.53160529  0.99955807  0.75000000  1
  Gd  Gd3  1  0.99955807  0.53160529  0.25000000  1
  Gd  Gd4  1  0.46839471  0.00044193  0.25000000  1
  Gd  Gd5  1  0.00044193  0.46839471  0.75000000  1
  Sb  Sb0  1  -0.00000000  -0.00000000  0.50000000  1
  Sb  Sb1  1  -0.00000000  -0.00000000  -0.00000000  1
  O  O0  1  0.68252918  0.92943576  0.47041511  1
  O  O1  1  0.92943576  0.68252918  0.52958489  1
  O  O2  1  0.68252918  0.92943576  0.02958489  1
  O  O3  1  0.92943576  0.68252918  0.97041511  1
  O  O4  1  0.31747082  0.07056424  0.52958489  1
  O  O5  1  0.07056424  0.31747082  0.47041511  1
  O  O6  1  0.31747082  0.07056424  0.97041511  1
  O  O7  1  0.07056424  0.31747082  0.02958489  1
  O  O8  1  0.93509638  0.06490362  0.75000000  1
  O  O9  1  0.06490362  0.93509638  0.25000000  1
  O  O10  1  0.37069667  0.62930333  0.75000000  1
  O  O11  1  0.62930333  0.37069667  0.25000000  1
  O  O12  1  0.63638650  0.36361350  0.75000000  1
  O  O13  1  0.36361350  0.63638650  0.25000000  1
loop_
_geom_bond_atom_site_label_1
_geom_bond_atom_site_label_2
_geom_bond_distance
_geom_bond_site_symmetry_2
Gd0 O10 2.337093 1_555
Gd0 O11 2.337093 1_555
Gd0 O12 2.382272 1_555
Gd0 O13 2.382272 1_555
Gd0 O5 2.655468 1_555
Gd0 O4 2.655468 1_555
Gd0 O1 2.655468 1_555
Gd0 O0 2.655468 1_555
Gd1 O10 2.337093 1_554
Gd1 O11 2.337093 1_555
Gd1 O12 2.382272 1_554
Gd1 O13 2.382272 1_555
Gd1 O6 2.655468 1_554
Gd1 O7 2.655468 1_555
Gd1 O2 2.655468 1_555
Gd1 O3 2.655468 1_554
Gd2 O12 2.236074 1_565
Gd2 O10 2.283676 1_555
Gd2 O4 2.316194 1_565
Gd2 O6 2.316194 1_565
Gd2 O2 2.436809 1_556
Gd2 O0 2.436809 1_555
Gd2 O8 2.516874 1_565
Gd3 O13 2.236074 1_655
Gd3 O11 2.283676 1_555
Gd3 O7 2.316194 1_655
Gd3 O5 2.316194 1_655
Gd3 O3 2.436809 1_554
Gd3 O1 2.436809 1_555
Gd3 O9 2.516874 1_655
Gd4 O13 2.236074 1_545
Gd4 O11 2.283676 1_555
Gd4 O2 2.316194 1_545
Gd4 O0 2.316194 1_545
Gd4 O6 2.436809 1_554
Gd4 O4 2.436809 1_555
Gd4 O9 2.516874 1_545
Gd5 O12 2.236074 1_455
Gd5 O10 2.283676 1_555
Gd5 O1 2.316194 1_455
Gd5 O3 2.316194 1_455
Gd5 O5 2.436809 1_555
Gd5 O7 2.436809 1_556
Gd5 O8 2.516874 1_455
O0 Sb0 1.974204 1_665
O1 Sb0 1.974204 1_665
O2 Sb1 1.974204 1_665
O3 Sb1 1.974204 1_666
O4 Sb0 1.974204 1_555
O5 Sb0 1.974204 1_555
O6 Sb1 1.974204 1_556
O7 Sb1 1.974204 1_555
O8 Sb0 2.011219 1_655
O8 Sb1 2.011219 1_656
O9 Sb0 2.011219 1_565
O9 Sb1 2.011219 1_565
