# generated using pymatgen
data_MnCo3C
_symmetry_space_group_name_H-M   'P 1'
_cell_length_a   3.75434400
_cell_length_b   3.75434400
_cell_length_c   3.75434400
_cell_angle_alpha   90.00000000
_cell_angle_beta   90.00000000
_cell_angle_gamma   90.00000000
_symmetry_Int_Tables_number   1
_chemical_formula_structural   MnCo3C
_chemical_formula_sum   'Mn1 Co3 C1'
_cell_volume   52.91784987
_cell_formula_units_Z   1
loop_
 _symmetry_equiv_pos_site_id
 _symmetry_equiv_pos_as_xyz
  1  'x, y, z'
loop_
 _atom_site_type_symbol
 _atom_site_label
 _atom_site_symmetry_multiplicity
 _atom_site_fract_x
 _atom_site_fract_y
 _atom_site_fract_z
 _atom_site_occupancy
  Mn  Mn0  1  0.50000000  0.50000000  0.50000000  1
  Co  Co0  1  0.50000000  0.00000000  0.00000000  1
  Co  Co1  1  0.00000000  0.50000000  0.00000000  1
  Co  Co2  1  0.00000000  0.00000000  0.50000000  1
  C  C0  1  0.00000000  0.00000000  0.00000000  1
loop_
_geom_bond_atom_site_label_1
_geom_bond_atom_site_label_2
_geom_bond_distance
_geom_bond_site_symmetry_2
Co0 Mn0 2.654722 1_555
Co0 Mn0 2.654722 1_554
Co0 Mn0 2.654722 1_544
Co0 Mn0 2.654722 1_545
Co1 Mn0 2.654722 1_455
Co1 Mn0 2.654722 1_454
Co1 Mn0 2.654722 1_554
Co1 Mn0 2.654722 1_555
Co2 Mn0 2.654722 1_455
Co2 Mn0 2.654722 1_555
Co2 Mn0 2.654722 1_445
Co2 Mn0 2.654722 1_545
C0 Co1 1.877172 1_555
C0 Co1 1.877172 1_545
C0 Co2 1.877172 1_555
C0 Co0 1.877172 1_555
C0 Co2 1.877172 1_554
C0 Co0 1.877172 1_455
