# generated using pymatgen
data_Cr(InN)3
_symmetry_space_group_name_H-M   'P 1'
_cell_length_a   9.62666713
_cell_length_b   9.57862093
_cell_length_c   3.54618200
_cell_angle_alpha   90.00000000
_cell_angle_beta   90.00000000
_cell_angle_gamma   120.14683911
_symmetry_Int_Tables_number   1
_chemical_formula_structural   Cr(InN)3
_chemical_formula_sum   'Cr2 In6 N6'
_cell_volume   282.76528324
_cell_formula_units_Z   2
loop_
 _symmetry_equiv_pos_site_id
 _symmetry_equiv_pos_as_xyz
  1  'x, y, z'
loop_
 _atom_site_type_symbol
 _atom_site_label
 _atom_site_symmetry_multiplicity
 _atom_site_fract_x
 _atom_site_fract_y
 _atom_site_fract_z
 _atom_site_occupancy
  Cr  Cr0  1  0.66743500  0.33522400  0.75000000  1
  Cr  Cr1  1  0.33256500  0.66477600  0.25000000  1
  In  In0  1  0.97846900  0.65857900  0.25000000  1
  In  In1  1  0.68041500  0.02563900  0.25000000  1
  In  In2  1  0.34506600  0.31709800  0.25000000  1
  In  In3  1  0.02153100  0.34142100  0.75000000  1
  In  In4  1  0.31958500  0.97436100  0.75000000  1
  In  In5  1  0.65493400  0.68290200  0.75000000  1
  N  N0  1  0.86837800  0.47701600  0.75000000  1
  N  N1  1  0.60597500  0.13268300  0.75000000  1
  N  N2  1  0.52724800  0.39569900  0.75000000  1
  N  N3  1  0.13162200  0.52298400  0.25000000  1
  N  N4  1  0.39402500  0.86731700  0.25000000  1
  N  N5  1  0.47275200  0.60430100  0.25000000  1
loop_
_geom_bond_atom_site_label_1
_geom_bond_atom_site_label_2
_geom_bond_distance
_geom_bond_site_symmetry_2
Cr0 N2 1.715226 1_555
Cr0 N0 1.716875 1_555
Cr0 N1 1.720745 1_555
Cr1 N5 1.715226 1_555
Cr1 N3 1.716875 1_555
Cr1 N4 1.720745 1_555
In0 N0 2.332441 1_554
In0 N0 2.332441 1_555
In0 N3 2.405002 1_655
In1 N1 2.333819 1_554
In1 N1 2.333819 1_555
In1 N4 2.387721 1_545
In2 N2 2.336718 1_554
In2 N2 2.336718 1_555
In2 N5 2.383788 1_555
In3 N3 2.332441 1_555
In3 N3 2.332441 1_556
In3 N0 2.405002 1_455
In4 N4 2.333819 1_556
In4 N4 2.333819 1_555
In4 N1 2.387721 1_565
In5 N5 2.336718 1_556
In5 N5 2.336718 1_555
In5 N2 2.383788 1_555
