# generated using pymatgen
data_K3Nb8(O5F2)2
_symmetry_space_group_name_H-M   'P 1'
_cell_length_a   4.19611800
_cell_length_b   4.19611800
_cell_length_c   21.95770500
_cell_angle_alpha   90.00000000
_cell_angle_beta   90.00000000
_cell_angle_gamma   90.00000000
_symmetry_Int_Tables_number   1
_chemical_formula_structural   K3Nb8(O5F2)2
_chemical_formula_sum   'K3 Nb8 O10 F4'
_cell_volume   386.61823269
_cell_formula_units_Z   1
loop_
 _symmetry_equiv_pos_site_id
 _symmetry_equiv_pos_as_xyz
  1  'x, y, z'
loop_
 _atom_site_type_symbol
 _atom_site_label
 _atom_site_symmetry_multiplicity
 _atom_site_fract_x
 _atom_site_fract_y
 _atom_site_fract_z
 _atom_site_occupancy
  K  K0  1  0.50000000  0.50000000  0.68638300  1
  K  K1  1  0.50000000  0.50000000  0.30410900  1
  K  K2  1  0.00000000  0.00000000  0.81402000  1
  Nb  Nb0  1  0.00000000  0.00000000  0.59275500  1
  Nb  Nb1  1  0.00000000  0.00000000  0.40608100  1
  Nb  Nb2  1  0.00000000  0.50000000  0.00048900  1
  Nb  Nb3  1  0.50000000  0.00000000  0.00048900  1
  Nb  Nb4  1  0.50000000  0.50000000  0.90798100  1
  Nb  Nb5  1  0.50000000  0.50000000  0.09997900  1
  Nb  Nb6  1  0.00000000  0.50000000  0.50004700  1
  Nb  Nb7  1  0.50000000  0.00000000  0.50004700  1
  O  O0  1  0.00000000  0.50000000  0.59746300  1
  O  O1  1  0.50000000  0.00000000  0.59746300  1
  O  O2  1  0.00000000  0.50000000  0.40343200  1
  O  O3  1  0.50000000  0.00000000  0.40343200  1
  O  O4  1  0.50000000  0.50000000  0.50031100  1
  O  O5  1  0.50000000  0.00000000  0.90271100  1
  O  O6  1  0.00000000  0.50000000  0.90271100  1
  O  O7  1  0.50000000  0.00000000  0.09539200  1
  O  O8  1  0.00000000  0.50000000  0.09539200  1
  O  O9  1  0.00000000  0.00000000  0.00029000  1
  F  F0  1  0.00000000  0.00000000  0.69428900  1
  F  F1  1  0.00000000  0.00000000  0.31034000  1
  F  F2  1  0.50000000  0.50000000  0.80645100  1
  F  F3  1  0.50000000  0.50000000  0.19114300  1
loop_
_geom_bond_atom_site_label_1
_geom_bond_atom_site_label_2
_geom_bond_distance
_geom_bond_site_symmetry_2
K0 O0 2.866012 1_555
K0 O0 2.866012 1_655
K0 O1 2.866012 1_555
K0 O1 2.866012 1_565
K1 O2 3.026252 1_555
K1 O2 3.026252 1_655
K1 O3 3.026252 1_555
K1 O3 3.026252 1_565
K2 O5 2.862589 1_555
K2 O6 2.862589 1_555
K2 O6 2.862589 1_545
K2 O5 2.862589 1_455
Nb0 O1 2.100604 1_555
Nb0 O1 2.100604 1_455
Nb0 O0 2.100604 1_545
Nb0 O0 2.100604 1_555
Nb1 O2 2.098865 1_545
Nb1 O3 2.098865 1_455
Nb1 O2 2.098865 1_555
Nb1 O3 2.098865 1_555
Nb2 O8 2.083852 1_555
Nb2 O9 2.098064 1_555
Nb2 O9 2.098064 1_565
Nb2 O6 2.146980 1_554
Nb3 O7 2.083852 1_555
Nb3 O9 2.098064 1_555
Nb3 O9 2.098064 1_655
Nb3 O5 2.146980 1_554
Nb4 O5 2.101248 1_555
Nb4 O5 2.101248 1_565
Nb4 O6 2.101248 1_555
Nb4 O6 2.101248 1_655
Nb5 O7 2.100475 1_555
Nb5 O8 2.100475 1_655
Nb5 O8 2.100475 1_555
Nb5 O7 2.100475 1_565
Nb6 O4 2.098067 1_555
Nb6 O4 2.098067 1_455
Nb6 O2 2.121444 1_555
Nb6 O0 2.139032 1_555
Nb7 O4 2.098067 1_545
Nb7 O4 2.098067 1_555
Nb7 O3 2.121444 1_555
Nb7 O1 2.139032 1_555
F0 Nb0 2.229454 1_555
F0 K2 2.629018 1_555
F0 K0 2.972178 1_455
F0 K0 2.972178 1_555
F0 K0 2.972178 1_445
F0 K0 2.972178 1_545
F1 Nb1 2.102253 1_555
F1 K1 2.970256 1_555
F1 K1 2.970256 1_445
F1 K1 2.970256 1_545
F1 K1 2.970256 1_455
F2 Nb4 2.229366 1_555
F2 K0 2.636418 1_555
F2 K2 2.971755 1_555
F2 K2 2.971755 1_655
F2 K2 2.971755 1_565
F2 K2 2.971755 1_665
F3 Nb5 2.001752 1_555
F3 K1 2.480474 1_555
