# generated using pymatgen
data_RbTb(MoO4)2
_symmetry_space_group_name_H-M   'P 1'
_cell_length_a   7.43000131
_cell_length_b   7.43000131
_cell_length_c   7.70819014
_cell_angle_alpha   62.03536268
_cell_angle_beta   62.03536268
_cell_angle_gamma   88.45786974
_symmetry_Int_Tables_number   1
_chemical_formula_structural   RbTb(MoO4)2
_chemical_formula_sum   'Rb2 Tb2 Mo4 O16'
_cell_volume   321.64188067
_cell_formula_units_Z   2
loop_
 _symmetry_equiv_pos_site_id
 _symmetry_equiv_pos_as_xyz
  1  'x, y, z'
loop_
 _atom_site_type_symbol
 _atom_site_label
 _atom_site_symmetry_multiplicity
 _atom_site_fract_x
 _atom_site_fract_y
 _atom_site_fract_z
 _atom_site_occupancy
  Rb  Rb0  1  0.19401799  0.80598201  0.75000000  1
  Rb  Rb1  1  0.80598201  0.19401799  0.25000000  1
  Tb  Tb0  1  0.77020251  0.22979749  0.75000000  1
  Tb  Tb1  1  0.22979749  0.77020251  0.25000000  1
  Mo  Mo0  1  0.69336201  0.69626719  0.76224614  1
  Mo  Mo1  1  0.30663799  0.30373281  0.23775386  1
  Mo  Mo2  1  0.30373281  0.30663799  0.73775386  1
  Mo  Mo3  1  0.69626719  0.69336201  0.26224614  1
  O  O0  1  0.61086419  0.76571426  0.56668869  1
  O  O1  1  0.38913581  0.23428574  0.43331131  1
  O  O2  1  0.23428574  0.38913581  0.93331131  1
  O  O3  1  0.76571426  0.61086419  0.06668869  1
  O  O4  1  0.38723448  0.07284166  0.87158422  1
  O  O5  1  0.61276552  0.92715834  0.12841578  1
  O  O6  1  0.92715834  0.61276552  0.62841578  1
  O  O7  1  0.07284166  0.38723448  0.37158422  1
  O  O8  1  0.58179514  0.36703616  0.97100935  1
  O  O9  1  0.41820486  0.63296384  0.02899065  1
  O  O10  1  0.63296384  0.41820486  0.52899065  1
  O  O11  1  0.36703616  0.58179514  0.47100935  1
  O  O12  1  0.79544254  0.94714379  0.69697175  1
  O  O13  1  0.20455746  0.05285621  0.30302825  1
  O  O14  1  0.05285621  0.20455746  0.80302825  1
  O  O15  1  0.94714379  0.79544254  0.19697175  1
loop_
_geom_bond_atom_site_label_1
_geom_bond_atom_site_label_2
_geom_bond_distance
_geom_bond_site_symmetry_2
Mo0 O0 1.741914 1_555
Mo0 O12 1.772448 1_555
Mo0 O6 1.824350 1_555
Mo0 O9 1.957278 1_556
Mo0 O8 2.104005 1_555
Mo0 O3 2.442718 1_556
Mo1 O1 1.741914 1_555
Mo1 O13 1.772448 1_555
Mo1 O7 1.824350 1_555
Mo1 O8 1.957278 1_554
Mo1 O9 2.104005 1_555
Mo1 O2 2.442718 1_554
Mo2 O2 1.741914 1_555
Mo2 O14 1.772448 1_555
Mo2 O4 1.824350 1_555
Mo2 O11 1.957278 1_555
Mo2 O10 2.104005 1_555
Mo2 O1 2.442718 1_555
Mo3 O3 1.741914 1_555
Mo3 O15 1.772448 1_555
Mo3 O5 1.824350 1_555
Mo3 O10 1.957278 1_555
Mo3 O11 2.104005 1_555
Mo3 O0 2.442718 1_555
O0 Rb1 2.798478 1_565
O0 Rb0 2.814394 1_555
O1 Rb0 2.798478 1_545
O1 Rb1 2.814394 1_555
O2 Rb1 2.798478 1_456
O2 Rb0 2.814394 1_555
O3 Rb0 2.798478 1_654
O3 Rb1 2.814394 1_555
O4 Tb1 2.392299 1_546
O4 Tb0 2.643387 1_555
O4 Rb0 3.166769 1_545
O5 Tb0 2.392299 1_564
O5 Tb1 2.643387 1_555
O5 Rb1 3.166769 1_565
O6 Tb1 2.392299 1_655
O6 Tb0 2.643387 1_555
O6 Rb0 3.166769 1_655
O7 Tb0 2.392299 1_455
O7 Tb1 2.643387 1_555
O7 Rb1 3.166769 1_455
O8 Tb0 2.284146 1_555
O8 Rb1 3.115027 1_556
O9 Tb1 2.284146 1_555
O9 Rb0 3.115027 1_554
O10 Tb0 2.284146 1_555
O10 Rb1 3.115027 1_555
O11 Tb1 2.284146 1_555
O11 Rb0 3.115027 1_555
O12 Tb0 2.307537 1_565
O12 Rb1 3.011450 1_565
O12 Rb0 3.256243 1_655
O13 Tb1 2.307537 1_545
O13 Rb0 3.011450 1_545
O13 Rb1 3.256243 1_455
O14 Tb0 2.307537 1_455
O14 Rb1 3.011450 1_456
O14 Rb0 3.256243 1_545
O15 Tb1 2.307537 1_655
O15 Rb0 3.011450 1_654
O15 Rb1 3.256243 1_565
