# generated using pymatgen
data_GaBP2H5NO9
_symmetry_space_group_name_H-M   'P 1'
_cell_length_a   8.60526700
_cell_length_b   9.45097528
_cell_length_c   9.69727495
_cell_angle_alpha   104.06233899
_cell_angle_beta   90.00000000
_cell_angle_gamma   90.00000000
_symmetry_Int_Tables_number   1
_chemical_formula_structural   GaBP2H5NO9
_chemical_formula_sum   'Ga4 B4 P8 H20 N4 O36'
_cell_volume   765.02692328
_cell_formula_units_Z   4
loop_
 _symmetry_equiv_pos_site_id
 _symmetry_equiv_pos_as_xyz
  1  'x, y, z'
loop_
 _atom_site_type_symbol
 _atom_site_label
 _atom_site_symmetry_multiplicity
 _atom_site_fract_x
 _atom_site_fract_y
 _atom_site_fract_z
 _atom_site_occupancy
  Ga  Ga0  1  0.65862300  0.20090200  0.93423400  1
  Ga  Ga1  1  0.15862300  0.79909800  0.56576600  1
  Ga  Ga2  1  0.34137700  0.79909800  0.06576600  1
  Ga  Ga3  1  0.84137700  0.20090200  0.43423400  1
  B  B0  1  0.45295100  0.33660200  0.19472800  1
  B  B1  1  0.95295100  0.66339800  0.30527200  1
  B  B2  1  0.54704900  0.66339800  0.80527200  1
  B  B3  1  0.04704900  0.33660200  0.69472800  1
  P  P0  1  0.56469900  0.07183200  0.20725000  1
  P  P1  1  0.06469900  0.92816800  0.29275000  1
  P  P2  1  0.43530100  0.92816800  0.79275000  1
  P  P3  1  0.93530100  0.07183200  0.70725000  1
  P  P4  1  0.73483100  0.41662000  0.72339200  1
  P  P5  1  0.23483100  0.58338000  0.77660800  1
  P  P6  1  0.26516900  0.58338000  0.27660800  1
  P  P7  1  0.76516900  0.41662000  0.22339200  1
  H  H0  1  0.44401400  0.38903000  0.99673700  1
  H  H1  1  0.94401400  0.61097000  0.50326300  1
  H  H2  1  0.55598600  0.61097000  0.00326300  1
  H  H3  1  0.05598600  0.38903000  0.49673700  1
  H  H4  1  0.53411000  0.79031500  0.51106900  1
  H  H5  1  0.03411000  0.20968500  0.98893100  1
  H  H6  1  0.46589000  0.20968500  0.48893100  1
  H  H7  1  0.96589000  0.79031500  0.01106900  1
  H  H8  1  0.67031700  0.72175200  0.38586700  1
  H  H9  1  0.17031700  0.27824800  0.11413300  1
  H  H10  1  0.32968300  0.27824800  0.61413300  1
  H  H11  1  0.82968300  0.72175200  0.88586700  1
  H  H12  1  0.68355200  0.89625800  0.48121300  1
  H  H13  1  0.18355200  0.10374200  0.01878700  1
  H  H14  1  0.31644800  0.10374200  0.51878700  1
  H  H15  1  0.81644800  0.89625800  0.98121300  1
  H  H16  1  0.54310000  0.84536000  0.35735600  1
  H  H17  1  0.04310000  0.15464000  0.14264400  1
  H  H18  1  0.45690000  0.15464000  0.64264400  1
  H  H19  1  0.95690000  0.84536000  0.85735600  1
  N  N0  1  0.60743000  0.81328700  0.43545400  1
  N  N1  1  0.10743000  0.18671300  0.06454600  1
  N  N2  1  0.39257000  0.18671300  0.56454600  1
  N  N3  1  0.89257000  0.81328700  0.93545400  1
  O  O0  1  0.66251600  0.07373900  0.07447000  1
  O  O1  1  0.16251600  0.92626100  0.42553000  1
  O  O2  1  0.33748400  0.92626100  0.92553000  1
  O  O3  1  0.83748400  0.07373900  0.57447000  1
  O  O4  1  0.84178600  0.10216600  0.84683900  1
  O  O5  1  0.34178600  0.89783400  0.65316100  1
  O  O6  1  0.15821400  0.89783400  0.15316100  1
  O  O7  1  0.65821400  0.10216600  0.34683900  1
  O  O8  1  0.51701400  0.07440500  0.80105000  1
  O  O9  1  0.01701400  0.92559500  0.69895000  1
  O  O10  1  0.48298600  0.92559500  0.19895000  1
  O  O11  1  0.98298600  0.07440500  0.30105000  1
  O  O12  1  0.63371900  0.34456800  0.81600100  1
  O  O13  1  0.13371900  0.65543200  0.68399900  1
  O  O14  1  0.36628100  0.65543200  0.18399900  1
  O  O15  1  0.86628100  0.34456800  0.31600100  1
  O  O16  1  0.46381400  0.30566600  0.03632200  1
  O  O17  1  0.96381400  0.69433400  0.46367800  1
  O  O18  1  0.53618600  0.69433400  0.96367800  1
  O  O19  1  0.03618600  0.30566600  0.53632200  1
  O  O20  1  0.78756100  0.35046100  0.06458700  1
  O  O21  1  0.28756100  0.64953900  0.43541300  1
  O  O22  1  0.21243900  0.64953900  0.93541300  1
  O  O23  1  0.71243900  0.35046100  0.56458700  1
  O  O24  1  0.91123500  0.41941800  0.76530900  1
  O  O25  1  0.41123500  0.58058200  0.73469100  1
  O  O26  1  0.08876500  0.58058200  0.23469100  1
  O  O27  1  0.58876500  0.41941800  0.26530900  1
  O  O28  1  0.43520200  0.19431000  0.22788200  1
  O  O29  1  0.93520200  0.80569000  0.27211800  1
  O  O30  1  0.56479800  0.80569000  0.77211800  1
  O  O31  1  0.06479800  0.19431000  0.72788200  1
  O  O32  1  0.69339100  0.58437300  0.75842000  1
  O  O33  1  0.19339100  0.41562700  0.74158000  1
  O  O34  1  0.30660900  0.41562700  0.24158000  1
  O  O35  1  0.80660900  0.58437300  0.25842000  1
loop_
_geom_bond_atom_site_label_1
_geom_bond_atom_site_label_2
_geom_bond_distance
_geom_bond_site_symmetry_2
Ga0 O4 1.920678 1_555
Ga0 O8 1.957526 1_555
Ga0 O20 1.989626 1_556
Ga0 O12 1.990116 1_555
Ga0 O0 2.022140 1_556
Ga0 O16 2.072275 1_556
Ga1 O5 1.920678 1_555
Ga1 O9 1.957526 1_555
Ga1 O21 1.989626 1_555
Ga1 O13 1.990116 1_555
Ga1 O1 2.022140 1_555
Ga1 O17 2.072275 1_455
Ga2 O6 1.920678 1_555
Ga2 O10 1.957526 1_555
Ga2 O22 1.989626 1_554
Ga2 O14 1.990116 1_555
Ga2 O2 2.022140 1_554
Ga2 O18 2.072275 1_554
Ga3 O7 1.920678 1_555
Ga3 O11 1.957526 1_555
Ga3 O23 1.989626 1_555
Ga3 O15 1.990116 1_555
Ga3 O3 2.022140 1_555
Ga3 O19 2.072275 1_655
B0 O28 1.464678 1_555
B0 O34 1.478241 1_555
B0 O27 1.478728 1_555
B0 O16 1.495190 1_555
B1 O29 1.464678 1_555
B1 O35 1.478241 1_555
B1 O26 1.478728 1_655
B1 O17 1.495190 1_555
B2 O30 1.464678 1_555
B2 O32 1.478241 1_555
B2 O25 1.478728 1_555
B2 O18 1.495190 1_555
B3 O31 1.464678 1_555
B3 O33 1.478241 1_555
B3 O24 1.478728 1_455
B3 O19 1.495190 1_555
H0 O16 0.971646 1_556
H1 O17 0.971646 1_555
H2 O18 0.971646 1_554
H3 O19 0.971646 1_555
H4 N0 1.029685 1_555
H5 N1 1.029685 1_556
H6 N2 1.029685 1_555
H7 N3 1.029685 1_554
H8 N0 1.034561 1_555
H9 N1 1.034561 1_555
H10 N2 1.034561 1_555
H11 N3 1.034561 1_555
H12 N0 1.035279 1_555
H13 N1 1.035279 1_555
H14 N2 1.035279 1_555
H15 N3 1.035279 1_555
H16 N0 1.040888 1_555
H17 N1 1.040888 1_555
H18 N2 1.040888 1_555
H19 N3 1.040888 1_555
O0 P0 1.542094 1_555
O1 P1 1.542094 1_555
O2 P2 1.542094 1_555
O3 P3 1.542094 1_555
O4 P3 1.540618 1_555
O5 P2 1.540618 1_555
O6 P1 1.540618 1_555
O7 P0 1.540618 1_555
O8 P2 1.535255 1_545
O9 P3 1.535255 1_465
O10 P0 1.535255 1_565
O11 P1 1.535255 1_645
O12 P4 1.524618 1_555
O13 P5 1.524618 1_555
O14 P6 1.524618 1_555
O15 P7 1.524618 1_555
O20 P7 1.526987 1_555
O21 P6 1.526987 1_555
O22 P5 1.526987 1_555
O23 P4 1.526987 1_555
O24 P4 1.570044 1_555
O25 P5 1.570044 1_555
O26 P6 1.570044 1_555
O27 P7 1.570044 1_555
O28 P0 1.584035 1_555
O29 P1 1.584035 1_655
O30 P2 1.584035 1_555
O31 P3 1.584035 1_455
O32 P4 1.579376 1_555
O33 P5 1.579376 1_555
O34 P6 1.579376 1_555
O35 P7 1.579376 1_555
