# generated using pymatgen
data_KMg6Sn
_symmetry_space_group_name_H-M   'P 1'
_cell_length_a   5.26472100
_cell_length_b   6.82592000
_cell_length_c   11.73326900
_cell_angle_alpha   90.00000000
_cell_angle_beta   90.00000000
_cell_angle_gamma   90.00000000
_symmetry_Int_Tables_number   1
_chemical_formula_structural   KMg6Sn
_chemical_formula_sum   'K2 Mg12 Sn2'
_cell_volume   421.65337667
_cell_formula_units_Z   2
loop_
 _symmetry_equiv_pos_site_id
 _symmetry_equiv_pos_as_xyz
  1  'x, y, z'
loop_
 _atom_site_type_symbol
 _atom_site_label
 _atom_site_symmetry_multiplicity
 _atom_site_fract_x
 _atom_site_fract_y
 _atom_site_fract_z
 _atom_site_occupancy
  K  K0  1  0.50000000  0.50000000  0.16769800  1
  K  K1  1  0.50000000  0.00000000  0.66769800  1
  Mg  Mg0  1  0.00000000  0.23159100  0.07807900  1
  Mg  Mg1  1  0.00000000  0.76840900  0.07807900  1
  Mg  Mg2  1  0.00000000  0.50000000  0.83275300  1
  Mg  Mg3  1  0.50000000  0.24515200  0.91831600  1
  Mg  Mg4  1  0.50000000  0.75484800  0.91831600  1
  Mg  Mg5  1  0.50000000  0.50000000  0.66260300  1
  Mg  Mg6  1  0.00000000  0.73159100  0.57807900  1
  Mg  Mg7  1  0.00000000  0.26840900  0.57807900  1
  Mg  Mg8  1  0.00000000  0.00000000  0.33275300  1
  Mg  Mg9  1  0.50000000  0.74515200  0.41831600  1
  Mg  Mg10  1  0.50000000  0.25484800  0.41831600  1
  Mg  Mg11  1  0.50000000  0.00000000  0.16260300  1
  Sn  Sn0  1  0.00000000  0.50000000  0.34415600  1
  Sn  Sn1  1  0.00000000  0.00000000  0.84415600  1
loop_
_geom_bond_atom_site_label_1
_geom_bond_atom_site_label_2
_geom_bond_distance
_geom_bond_site_symmetry_2
K0 Sn0 3.349030 1_655
K0 Sn0 3.349030 1_555
K0 Mg0 3.375167 1_655
K0 Mg1 3.375167 1_555
K0 Mg1 3.375167 1_655
K0 Mg0 3.375167 1_555
K0 Mg9 3.383367 1_555
K0 Mg10 3.383367 1_555
K0 Mg3 3.404111 1_554
K0 Mg4 3.404111 1_554
K0 Mg11 3.413484 1_555
K0 Mg11 3.413484 1_565
K1 Sn1 3.349030 1_555
K1 Sn1 3.349030 1_655
K1 Mg7 3.375167 1_555
K1 Mg7 3.375167 1_655
K1 Mg6 3.375167 1_645
K1 Mg6 3.375167 1_545
K1 Mg4 3.383367 1_545
K1 Mg3 3.383367 1_555
K1 Mg9 3.404111 1_545
K1 Mg10 3.404111 1_555
K1 Mg5 3.413484 1_555
K1 Mg5 3.413484 1_545
Mg0 Sn1 3.167376 1_554
Mg0 Mg11 3.226743 1_455
Mg0 Mg11 3.226743 1_555
Mg0 Mg8 3.380546 1_555
Mg0 Mg2 3.412090 1_554
Mg1 Sn1 3.167376 1_564
Mg1 Mg11 3.226743 1_565
Mg1 Mg11 3.226743 1_465
Mg1 Mg8 3.380546 1_565
Mg1 Mg2 3.412090 1_554
Mg2 Mg5 3.303785 1_455
Mg2 Mg5 3.303785 1_555
Mg2 Mg3 3.311090 1_455
Mg2 Mg4 3.311090 1_455
Mg2 Mg3 3.311090 1_555
Mg2 Mg4 3.311090 1_555
Mg2 Mg6 3.380546 1_555
Mg2 Mg7 3.380546 1_555
Mg2 Sn1 3.415581 1_555
Mg2 Sn1 3.415581 1_565
Mg3 Sn1 3.238316 1_555
Mg3 Sn1 3.238316 1_655
Mg3 Mg5 3.468171 1_555
Mg4 Sn1 3.238316 1_665
Mg4 Sn1 3.238316 1_565
Mg4 Mg5 3.468171 1_555
Mg5 Mg6 3.226743 1_655
Mg5 Mg7 3.226743 1_555
Mg5 Mg7 3.226743 1_655
Mg5 Mg6 3.226743 1_555
Mg5 Mg9 3.319008 1_555
Mg6 Sn0 3.167376 1_555
Mg6 Mg8 3.412090 1_565
Mg7 Sn0 3.167376 1_555
Mg7 Mg8 3.412090 1_555
Mg8 Mg9 3.311090 1_445
Mg8 Mg9 3.311090 1_545
Mg8 Sn0 3.415581 1_545
Mg8 Sn0 3.415581 1_555
Mg9 Sn0 3.238316 1_555
Mg9 Sn0 3.238316 1_655
Mg10 Sn0 3.238316 1_555
Mg10 Sn0 3.238316 1_655
Mg10 Mg8 3.311090 1_555
Mg10 Mg8 3.311090 1_655
Mg10 Mg5 3.319008 1_555
Mg10 Mg11 3.468171 1_555
Mg11 Mg8 3.303785 1_555
Mg11 Mg8 3.303785 1_655
Mg11 Mg4 3.319008 1_544
Mg11 Mg3 3.319008 1_554
Mg11 Mg9 3.468171 1_545
