# generated using pymatgen
data_CsHgC3(SN)3
_symmetry_space_group_name_H-M   'P 1'
_cell_length_a   10.03669400
_cell_length_b   11.23346500
_cell_length_c   21.25392169
_cell_angle_alpha   90.00000000
_cell_angle_beta   109.54272019
_cell_angle_gamma   90.00000000
_symmetry_Int_Tables_number   1
_chemical_formula_structural   CsHgC3(SN)3
_chemical_formula_sum   'Cs8 Hg8 C24 S24 N24'
_cell_volume   2258.26676804
_cell_formula_units_Z   8
loop_
 _symmetry_equiv_pos_site_id
 _symmetry_equiv_pos_as_xyz
  1  'x, y, z'
loop_
 _atom_site_type_symbol
 _atom_site_label
 _atom_site_symmetry_multiplicity
 _atom_site_fract_x
 _atom_site_fract_y
 _atom_site_fract_z
 _atom_site_occupancy
  Cs  Cs0  1  0.46845800  0.78354700  0.42547900  1
  Cs  Cs1  1  0.53154200  0.28354700  0.07452100  1
  Cs  Cs2  1  0.53154200  0.21645300  0.57452100  1
  Cs  Cs3  1  0.46845800  0.71645300  0.92547900  1
  Cs  Cs4  1  0.91677300  0.74552400  0.32990200  1
  Cs  Cs5  1  0.08322700  0.24552400  0.17009800  1
  Cs  Cs6  1  0.08322700  0.25447600  0.67009800  1
  Cs  Cs7  1  0.91677300  0.75447600  0.82990200  1
  Hg  Hg0  1  0.97507900  0.76750600  0.09195100  1
  Hg  Hg1  1  0.02492100  0.26750500  0.40804900  1
  Hg  Hg2  1  0.02492100  0.23249400  0.90804900  1
  Hg  Hg3  1  0.97507900  0.73249400  0.59195100  1
  Hg  Hg4  1  0.41736900  0.72677500  0.13317100  1
  Hg  Hg5  1  0.58263100  0.22677500  0.36682900  1
  Hg  Hg6  1  0.58263100  0.27322500  0.86682900  1
  Hg  Hg7  1  0.41736900  0.77322500  0.63317100  1
  C  C0  1  0.19221300  0.84972300  0.23703800  1
  C  C1  1  0.80778700  0.34972300  0.26296200  1
  C  C2  1  0.80778700  0.15027700  0.76296200  1
  C  C3  1  0.19221300  0.65027700  0.73703800  1
  C  C4  1  0.19332800  0.50842100  0.04705800  1
  C  C5  1  0.80667200  0.00842100  0.45294200  1
  C  C6  1  0.80667200  0.49157900  0.95294200  1
  C  C7  1  0.19332800  0.99157900  0.54705800  1
  C  C8  1  0.69033000  0.88910600  0.14693800  1
  C  C9  1  0.30967000  0.38910600  0.35306200  1
  C  C10  1  0.30967000  0.11089400  0.85306200  1
  C  C11  1  0.69033000  0.61089400  0.64693800  1
  C  C12  1  0.55342100  0.98736000  0.28192700  1
  C  C13  1  0.44657900  0.48736000  0.21807300  1
  C  C14  1  0.44657900  0.01264000  0.71807300  1
  C  C15  1  0.55342100  0.51264000  0.78192700  1
  C  C16  1  0.18505200  0.50826100  0.47485900  1
  C  C17  1  0.81494800  0.00826100  0.02514100  1
  C  C18  1  0.81494800  0.49173900  0.52514100  1
  C  C19  1  0.18505200  0.99173900  0.97485900  1
  C  C20  1  0.75371700  0.58298600  0.11166100  1
  C  C21  1  0.24628300  0.08298600  0.38833900  1
  C  C22  1  0.24628300  0.41701400  0.88833900  1
  C  C23  1  0.75371700  0.91701400  0.61166100  1
  S  S0  1  0.18428000  0.89750800  0.16200800  1
  S  S1  1  0.81572000  0.39750800  0.33799200  1
  S  S2  1  0.81572000  0.10249200  0.83799200  1
  S  S3  1  0.18428000  0.60249200  0.66200800  1
  S  S4  1  0.20521700  0.65306200  0.03282500  1
  S  S5  1  0.79478300  0.15306200  0.46717500  1
  S  S6  1  0.79478300  0.34693800  0.96717500  1
  S  S7  1  0.20521700  0.84693800  0.53282500  1
  S  S8  1  0.52514600  0.90305400  0.09517800  1
  S  S9  1  0.47485400  0.40305400  0.40482200  1
  S  S10  1  0.47485400  0.09694600  0.90482200  1
  S  S11  1  0.52514600  0.59694600  0.59517800  1
  S  S12  1  0.49512000  0.62596100  0.24333000  1
  S  S13  1  0.50488000  0.12596100  0.25667000  1
  S  S14  1  0.50488000  0.37403900  0.75667000  1
  S  S15  1  0.49512000  0.87403900  0.74333000  1
  S  S16  1  0.82656200  0.62193200  0.49007800  1
  S  S17  1  0.17343800  0.12193200  0.00992200  1
  S  S18  1  0.17343800  0.37806800  0.50992200  1
  S  S19  1  0.82656200  0.87806800  0.99007800  1
  S  S20  1  0.92815800  0.58576000  0.14770100  1
  S  S21  1  0.07184200  0.08576000  0.35229900  1
  S  S22  1  0.07184200  0.41424000  0.85229900  1
  S  S23  1  0.92815800  0.91424000  0.64770100  1
  N  N0  1  0.20096200  0.81864500  0.29120700  1
  N  N1  1  0.79903800  0.31864500  0.20879300  1
  N  N2  1  0.79903800  0.18135500  0.70879300  1
  N  N3  1  0.20096200  0.68135500  0.79120700  1
  N  N4  1  0.82198900  0.90529300  0.44747100  1
  N  N5  1  0.17801100  0.40529300  0.05252900  1
  N  N6  1  0.17801100  0.09470700  0.55252900  1
  N  N7  1  0.82198900  0.59470700  0.94747100  1
  N  N8  1  0.80982400  0.88359700  0.18142700  1
  N  N9  1  0.19017600  0.38359700  0.31857300  1
  N  N10  1  0.19017600  0.11640300  0.81857300  1
  N  N11  1  0.80982400  0.61640300  0.68142700  1
  N  N12  1  0.58441600  0.88694900  0.29535900  1
  N  N13  1  0.41558400  0.38694900  0.20464100  1
  N  N14  1  0.41558400  0.11305100  0.70464100  1
  N  N15  1  0.58441600  0.61305100  0.79535900  1
  N  N16  1  0.19885400  0.60182800  0.45252700  1
  N  N17  1  0.80114600  0.10182800  0.04747300  1
  N  N18  1  0.80114600  0.39817200  0.54747300  1
  N  N19  1  0.19885400  0.89817200  0.95252700  1
  N  N20  1  0.62968400  0.57449700  0.08848600  1
  N  N21  1  0.37031600  0.07449700  0.41151400  1
  N  N22  1  0.37031600  0.42550300  0.91151400  1
  N  N23  1  0.62968400  0.92550300  0.58848600  1
loop_
_geom_bond_atom_site_label_1
_geom_bond_atom_site_label_2
_geom_bond_distance
_geom_bond_site_symmetry_2
Cs0 N0 3.222075 1_555
Cs0 N21 3.397801 1_565
Cs0 N12 3.536298 1_555
Cs0 N16 3.586127 1_555
Cs0 N23 3.662482 1_555
Cs0 N4 3.683695 1_555
Cs0 S16 3.846791 1_555
Cs0 S11 4.043953 1_555
Cs0 S7 4.089716 1_555
Cs1 N1 3.222075 1_555
Cs1 N20 3.397801 1_555
Cs1 N13 3.536298 1_555
Cs1 N17 3.586127 1_555
Cs1 N22 3.662482 1_554
Cs1 N5 3.683695 1_555
Cs1 S17 3.846791 1_555
Cs1 S10 4.043953 1_554
Cs1 S6 4.089716 1_554
Cs2 N2 3.222075 1_555
Cs2 N23 3.397801 1_545
Cs2 N14 3.536298 1_555
Cs2 N18 3.586127 1_555
Cs2 N21 3.662482 1_555
Cs2 N6 3.683695 1_555
Cs2 S18 3.846791 1_555
Cs2 S9 4.043953 1_555
Cs2 S5 4.089716 1_555
Cs3 N3 3.222075 1_555
Cs3 N22 3.397801 1_555
Cs3 N15 3.536298 1_555
Cs3 N19 3.586127 1_555
Cs3 N20 3.662482 1_556
Cs3 N7 3.683695 1_555
Cs3 S19 3.846791 1_555
Cs3 S8 4.043953 1_556
Cs3 S4 4.089716 1_556
Cs4 N0 3.325084 1_655
Cs4 N8 3.354106 1_555
Cs4 N4 3.458402 1_555
Cs4 N16 3.532309 1_655
Cs4 N12 3.542857 1_555
Cs5 N1 3.325084 1_455
Cs5 N9 3.354106 1_555
Cs5 N5 3.458402 1_555
Cs5 N17 3.532309 1_455
Cs5 N13 3.542857 1_555
Cs6 N2 3.325084 1_455
Cs6 N10 3.354106 1_555
Cs6 N6 3.458402 1_555
Cs6 N18 3.532309 1_455
Cs6 N14 3.542857 1_555
Cs7 N3 3.325084 1_655
Cs7 N11 3.354106 1_555
Cs7 N7 3.458402 1_555
Cs7 N19 3.532309 1_655
Cs7 N15 3.542857 1_555
Hg0 S20 2.483421 1_555
Hg0 S19 2.508653 1_554
Hg0 S0 2.582020 1_655
Hg1 S21 2.483412 1_555
Hg1 S18 2.508658 1_555
Hg1 S1 2.582026 1_455
Hg2 S22 2.483421 1_555
Hg2 S17 2.508653 1_556
Hg2 S2 2.582020 1_455
Hg3 S23 2.483421 1_555
Hg3 S16 2.508653 1_555
Hg3 S3 2.582020 1_655
Hg4 S12 2.480099 1_555
Hg4 S8 2.515523 1_555
Hg4 S4 2.594228 1_555
Hg5 S13 2.480099 1_555
Hg5 S9 2.515523 1_555
Hg5 S5 2.594228 1_555
Hg6 S14 2.480099 1_555
Hg6 S10 2.515523 1_555
Hg6 S6 2.594228 1_555
Hg7 S15 2.480099 1_555
Hg7 S11 2.515523 1_555
Hg7 S7 2.594228 1_555
C0 N0 1.177903 1_555
C0 S0 1.659081 1_555
C1 N1 1.177903 1_555
C1 S1 1.659081 1_555
C2 N2 1.177903 1_555
C2 S2 1.659081 1_555
C3 N3 1.177903 1_555
C3 S3 1.659081 1_555
C4 N5 1.179492 1_555
C4 S4 1.664313 1_555
C5 N4 1.179492 1_545
C5 S5 1.664313 1_555
C6 N7 1.179492 1_555
C6 S6 1.664313 1_555
C7 N6 1.179492 1_565
C7 S7 1.664313 1_555
C8 N8 1.179567 1_555
C8 S8 1.662292 1_555
C9 N9 1.179567 1_555
C9 S9 1.662292 1_555
C10 N10 1.179567 1_555
C10 S10 1.662292 1_555
C11 N11 1.179567 1_555
C11 S11 1.662292 1_555
C12 N12 1.179475 1_555
C12 S13 1.665745 1_565
C13 N13 1.179475 1_555
C13 S12 1.665745 1_555
C14 N14 1.179475 1_555
C14 S15 1.665745 1_545
C15 N15 1.179475 1_555
C15 S14 1.665745 1_555
C16 N16 1.180354 1_555
C16 S18 1.663138 1_555
C17 N17 1.180354 1_555
C17 S19 1.663138 1_544
C18 N18 1.180354 1_555
C18 S16 1.663138 1_555
C19 N19 1.180354 1_555
C19 S17 1.663138 1_566
C20 N20 1.179496 1_555
C20 S20 1.660068 1_555
C21 N21 1.179496 1_555
C21 S21 1.660068 1_555
C22 N22 1.179496 1_555
C22 S22 1.660068 1_555
C23 N23 1.179496 1_555
C23 S23 1.660068 1_555
