# generated using pymatgen
data_CaCrN2
_symmetry_space_group_name_H-M   'P 1'
_cell_length_a   5.44987300
_cell_length_b   10.66624500
_cell_length_c   14.86783400
_cell_angle_alpha   90.00000000
_cell_angle_beta   90.00000000
_cell_angle_gamma   90.00000000
_symmetry_Int_Tables_number   1
_chemical_formula_structural   CaCrN2
_chemical_formula_sum   'Ca16 Cr16 N32'
_cell_volume   864.26244218
_cell_formula_units_Z   16
loop_
 _symmetry_equiv_pos_site_id
 _symmetry_equiv_pos_as_xyz
  1  'x, y, z'
loop_
 _atom_site_type_symbol
 _atom_site_label
 _atom_site_symmetry_multiplicity
 _atom_site_fract_x
 _atom_site_fract_y
 _atom_site_fract_z
 _atom_site_occupancy
  Ca  Ca0  1  0.72860000  0.00581700  0.43276800  1
  Ca  Ca1  1  0.22860000  0.49418300  0.56723200  1
  Ca  Ca2  1  0.27140000  0.50581700  0.06723200  1
  Ca  Ca3  1  0.77140000  0.99418300  0.93276800  1
  Ca  Ca4  1  0.27140000  0.99418300  0.56723200  1
  Ca  Ca5  1  0.77140000  0.50581700  0.43276800  1
  Ca  Ca6  1  0.72860000  0.49418300  0.93276800  1
  Ca  Ca7  1  0.22860000  0.00581700  0.06723200  1
  Ca  Ca8  1  0.89144700  0.28008500  0.30988700  1
  Ca  Ca9  1  0.39144700  0.21991500  0.69011300  1
  Ca  Ca10  1  0.10855300  0.78008500  0.19011300  1
  Ca  Ca11  1  0.60855300  0.71991500  0.80988700  1
  Ca  Ca12  1  0.10855300  0.71991500  0.69011300  1
  Ca  Ca13  1  0.60855300  0.78008500  0.30988700  1
  Ca  Ca14  1  0.89144700  0.21991500  0.80988700  1
  Ca  Ca15  1  0.39144700  0.28008500  0.19011300  1
  Cr  Cr0  1  0.72373400  0.01286100  0.18858300  1
  Cr  Cr1  1  0.22373400  0.48713900  0.81141700  1
  Cr  Cr2  1  0.27626600  0.51286100  0.31141700  1
  Cr  Cr3  1  0.77626600  0.98713900  0.68858300  1
  Cr  Cr4  1  0.27626600  0.98713900  0.81141700  1
  Cr  Cr5  1  0.77626600  0.51286100  0.18858300  1
  Cr  Cr6  1  0.72373400  0.48713900  0.68858300  1
  Cr  Cr7  1  0.22373400  0.01286100  0.31141700  1
  Cr  Cr8  1  0.84618900  0.27076200  0.06246300  1
  Cr  Cr9  1  0.34618900  0.22923800  0.93753700  1
  Cr  Cr10  1  0.15381100  0.77076200  0.43753700  1
  Cr  Cr11  1  0.65381100  0.72923800  0.56246300  1
  Cr  Cr12  1  0.15381100  0.72923800  0.93753700  1
  Cr  Cr13  1  0.65381100  0.77076200  0.06246300  1
  Cr  Cr14  1  0.84618900  0.22923800  0.56246300  1
  Cr  Cr15  1  0.34618900  0.27076200  0.43753700  1
  N  N0  1  0.59608800  0.46044400  0.28631300  1
  N  N1  1  0.09608800  0.03955600  0.71368700  1
  N  N2  1  0.40391200  0.96044400  0.21368700  1
  N  N3  1  0.90391200  0.53955600  0.78631300  1
  N  N4  1  0.40391200  0.53955600  0.71368700  1
  N  N5  1  0.90391200  0.96044400  0.28631300  1
  N  N6  1  0.59608800  0.03955600  0.78631300  1
  N  N7  1  0.09608800  0.46044400  0.21368700  1
  N  N8  1  0.68262200  0.27760600  0.45736100  1
  N  N9  1  0.18262200  0.22239400  0.54263900  1
  N  N10  1  0.31737800  0.77760600  0.04263900  1
  N  N11  1  0.81737800  0.72239400  0.95736100  1
  N  N12  1  0.31737800  0.72239400  0.54263900  1
  N  N13  1  0.81737800  0.77760600  0.45736100  1
  N  N14  1  0.68262200  0.22239400  0.95736100  1
  N  N15  1  0.18262200  0.27760600  0.04263900  1
  N  N16  1  0.69335900  0.42738800  0.08526400  1
  N  N17  1  0.19335900  0.07261200  0.91473600  1
  N  N18  1  0.30664100  0.92738800  0.41473600  1
  N  N19  1  0.80664100  0.57261200  0.58526400  1
  N  N20  1  0.30664100  0.57261200  0.91473600  1
  N  N21  1  0.80664100  0.92738800  0.08526400  1
  N  N22  1  0.69335900  0.07261200  0.58526400  1
  N  N23  1  0.19335900  0.42738800  0.41473600  1
  N  N24  1  0.77402000  0.17873600  0.16613900  1
  N  N25  1  0.27402000  0.32126400  0.83386100  1
  N  N26  1  0.22598000  0.67873600  0.33386100  1
  N  N27  1  0.72598000  0.82126400  0.66613900  1
  N  N28  1  0.22598000  0.82126400  0.83386100  1
  N  N29  1  0.72598000  0.67873600  0.16613900  1
  N  N30  1  0.77402000  0.32126400  0.66613900  1
  N  N31  1  0.27402000  0.17873600  0.33386100  1
loop_
_geom_bond_atom_site_label_1
_geom_bond_atom_site_label_2
_geom_bond_distance
_geom_bond_site_symmetry_2
Ca0 N22 2.384336 1_555
Ca0 N5 2.426609 1_545
Ca0 N18 2.461696 1_545
Ca0 N13 2.508564 1_545
Ca0 N8 2.932661 1_555
Ca1 N23 2.384336 1_555
Ca1 N4 2.426609 1_555
Ca1 N19 2.461696 1_455
Ca1 N12 2.508564 1_555
Ca1 N9 2.932661 1_555
Ca2 N20 2.384336 1_554
Ca2 N7 2.426609 1_555
Ca2 N16 2.461696 1_555
Ca2 N15 2.508564 1_555
Ca2 N10 2.932661 1_555
Ca3 N21 2.384336 1_556
Ca3 N6 2.426609 1_565
Ca3 N17 2.461696 1_665
Ca3 N14 2.508564 1_565
Ca3 N11 2.932661 1_555
Ca4 N18 2.384336 1_555
Ca4 N1 2.426609 1_565
Ca4 N22 2.461696 1_565
Ca4 N9 2.508564 1_565
Ca4 N12 2.932661 1_555
Ca5 N19 2.384336 1_555
Ca5 N0 2.426609 1_555
Ca5 N23 2.461696 1_655
Ca5 N8 2.508564 1_555
Ca5 N13 2.932661 1_555
Ca6 N16 2.384336 1_556
Ca6 N3 2.426609 1_555
Ca6 N20 2.461696 1_555
Ca6 N11 2.508564 1_555
Ca6 N14 2.932661 1_555
Ca7 N17 2.384336 1_554
Ca7 N2 2.426609 1_545
Ca7 N21 2.461696 1_445
Ca7 N10 2.508564 1_545
Ca7 N15 2.932661 1_555
Ca8 N31 2.375449 1_655
Ca8 N8 2.470522 1_555
Ca8 N24 2.479084 1_555
Ca8 N0 2.532727 1_555
Ca8 N7 2.643930 1_655
Ca8 N23 2.757890 1_655
Ca9 N30 2.375449 1_555
Ca9 N9 2.470522 1_555
Ca9 N25 2.479084 1_555
Ca9 N1 2.532727 1_555
Ca9 N6 2.643930 1_555
Ca9 N22 2.757890 1_555
Ca10 N29 2.375449 1_455
Ca10 N10 2.470522 1_555
Ca10 N26 2.479084 1_555
Ca10 N2 2.532727 1_555
Ca10 N5 2.643930 1_455
Ca10 N21 2.757890 1_455
Ca11 N28 2.375449 1_555
Ca11 N11 2.470522 1_555
Ca11 N27 2.479084 1_555
Ca11 N3 2.532727 1_555
Ca11 N4 2.643930 1_555
Ca11 N20 2.757890 1_555
Ca12 N27 2.375449 1_455
Ca12 N12 2.470522 1_555
Ca12 N28 2.479084 1_555
Ca12 N4 2.532727 1_555
Ca12 N3 2.643930 1_455
Ca12 N19 2.757890 1_455
Ca13 N26 2.375449 1_555
Ca13 N13 2.470522 1_555
Ca13 N29 2.479084 1_555
Ca13 N5 2.532727 1_555
Ca13 N2 2.643930 1_555
Ca13 N18 2.757890 1_555
Ca14 N25 2.375449 1_655
Ca14 N14 2.470522 1_555
Ca14 N30 2.479084 1_555
Ca14 N6 2.532727 1_555
Ca14 N1 2.643930 1_655
Ca14 N17 2.757890 1_655
Ca15 N24 2.375449 1_555
Ca15 N15 2.470522 1_555
Ca15 N31 2.479084 1_555
Ca15 N7 2.532727 1_555
Ca15 N0 2.643930 1_555
Ca15 N16 2.757890 1_555
Cr0 N24 1.821194 1_555
Cr0 N5 1.840682 1_545
Cr0 N21 1.842553 1_545
Cr0 N2 1.868129 1_545
Cr1 N25 1.821194 1_555
Cr1 N4 1.840682 1_555
Cr1 N20 1.842553 1_555
Cr1 N3 1.868129 1_455
Cr2 N26 1.821194 1_555
Cr2 N7 1.840682 1_555
Cr2 N23 1.842553 1_555
Cr2 N0 1.868129 1_555
Cr3 N27 1.821194 1_555
Cr3 N6 1.840682 1_565
Cr3 N22 1.842553 1_565
Cr3 N1 1.868129 1_665
Cr4 N28 1.821194 1_555
Cr4 N1 1.840682 1_565
Cr4 N17 1.842553 1_565
Cr4 N6 1.868129 1_565
Cr5 N29 1.821194 1_555
Cr5 N0 1.840682 1_555
Cr5 N16 1.842553 1_555
Cr5 N7 1.868129 1_655
Cr6 N30 1.821194 1_555
Cr6 N3 1.840682 1_555
Cr6 N19 1.842553 1_555
Cr6 N4 1.868129 1_555
Cr7 N31 1.821194 1_555
Cr7 N2 1.840682 1_545
Cr7 N18 1.842553 1_545
Cr7 N5 1.868129 1_445
Cr8 N15 1.858490 1_655
Cr8 N24 1.869280 1_555
Cr8 N14 1.871531 1_554
Cr8 N16 1.897259 1_555
Cr9 N14 1.858490 1_555
Cr9 N25 1.869280 1_555
Cr9 N15 1.871531 1_556
Cr9 N17 1.897259 1_555
Cr10 N13 1.858490 1_455
Cr10 N26 1.869280 1_555
Cr10 N12 1.871531 1_555
Cr10 N18 1.897259 1_555
Cr11 N12 1.858490 1_555
Cr11 N27 1.869280 1_555
Cr11 N13 1.871531 1_555
Cr11 N19 1.897259 1_555
Cr12 N11 1.858490 1_455
Cr12 N28 1.869280 1_555
Cr12 N10 1.871531 1_556
Cr12 N20 1.897259 1_555
Cr13 N10 1.858490 1_555
Cr13 N29 1.869280 1_555
Cr13 N11 1.871531 1_554
Cr13 N21 1.897259 1_555
Cr14 N9 1.858490 1_655
Cr14 N30 1.869280 1_555
Cr14 N8 1.871531 1_555
Cr14 N22 1.897259 1_555
Cr15 N8 1.858490 1_555
Cr15 N31 1.869280 1_555
Cr15 N9 1.871531 1_555
Cr15 N23 1.897259 1_555
