# generated using pymatgen
data_Ca5Si6W5O17
_symmetry_space_group_name_H-M   'P 1'
_cell_length_a   6.90324336
_cell_length_b   6.90324336
_cell_length_c   23.66969148
_cell_angle_alpha   84.67592426
_cell_angle_beta   84.67592426
_cell_angle_gamma   65.63536053
_symmetry_Int_Tables_number   1
_chemical_formula_structural   Ca5Si6W5O17
_chemical_formula_sum   'Ca10 Si12 W10 O34'
_cell_volume   1021.23242018
_cell_formula_units_Z   2
loop_
 _symmetry_equiv_pos_site_id
 _symmetry_equiv_pos_as_xyz
  1  'x, y, z'
loop_
 _atom_site_type_symbol
 _atom_site_label
 _atom_site_symmetry_multiplicity
 _atom_site_fract_x
 _atom_site_fract_y
 _atom_site_fract_z
 _atom_site_occupancy
  Ca  Ca0  1  0.39420700  0.64438400  0.87876700  1
  Ca  Ca1  1  0.64438400  0.39420700  0.37876700  1
  Ca  Ca2  1  0.15873400  0.89959700  0.39161300  1
  Ca  Ca3  1  0.89959700  0.15873400  0.89161300  1
  Ca  Ca4  1  0.92974600  0.80446600  0.53861800  1
  Ca  Ca5  1  0.80446600  0.92974600  0.03861800  1
  Ca  Ca6  1  0.40823400  0.15557000  0.79503200  1
  Ca  Ca7  1  0.15557000  0.40823400  0.29503200  1
  Ca  Ca8  1  0.91488200  0.66739000  0.81248400  1
  Ca  Ca9  1  0.66739000  0.91488200  0.31248400  1
  Si  Si0  1  0.88473500  0.20985700  0.75636400  1
  Si  Si1  1  0.20985700  0.88473500  0.25636400  1
  Si  Si2  1  0.46026100  0.62966400  0.75222500  1
  Si  Si3  1  0.62966400  0.46026100  0.25222500  1
  Si  Si4  1  0.29133900  0.03049800  0.52312500  1
  Si  Si5  1  0.03049800  0.29133900  0.02312500  1
  Si  Si6  1  0.41850000  0.10979200  0.93398600  1
  Si  Si7  1  0.10979200  0.41850000  0.43398600  1
  Si  Si8  1  0.83623400  0.67657700  0.93787000  1
  Si  Si9  1  0.67657700  0.83623400  0.43787000  1
  Si  Si10  1  0.26569600  0.00870100  0.66587700  1
  Si  Si11  1  0.00870100  0.26569600  0.16587700  1
  W  W0  1  0.68102600  0.09494400  0.64122000  1
  W  W1  1  0.09494400  0.68102600  0.14122000  1
  W  W2  1  0.79768000  0.47390200  0.60745300  1
  W  W3  1  0.47390200  0.79768000  0.10745300  1
  W  W4  1  0.48684300  0.34114600  0.09407700  1
  W  W5  1  0.34114600  0.48684300  0.59407700  1
  W  W6  1  0.27721300  0.69913200  0.01273000  1
  W  W7  1  0.69913200  0.27721300  0.51273000  1
  W  W8  1  0.99123000  0.66202600  0.67955600  1
  W  W9  1  0.66202600  0.99123000  0.17955600  1
  O  O0  1  0.55320500  0.29254700  0.29119900  1
  O  O1  1  0.29254700  0.55320500  0.79119900  1
  O  O2  1  0.27240400  0.01964500  0.59469600  1
  O  O3  1  0.01964500  0.27240400  0.09469600  1
  O  O4  1  0.55184400  0.91821800  0.50126200  1
  O  O5  1  0.91821800  0.55184400  0.00126200  1
  O  O6  1  0.63466400  0.90020100  0.95896200  1
  O  O7  1  0.90020100  0.63466400  0.45896200  1
  O  O8  1  0.76543300  0.54513900  0.89719900  1
  O  O9  1  0.54513900  0.76543300  0.39719900  1
  O  O10  1  0.50897600  0.27095300  0.89854400  1
  O  O11  1  0.27095300  0.50897600  0.39854400  1
  O  O12  1  0.02020200  0.12105400  0.69426900  1
  O  O13  1  0.12105400  0.02020200  0.19426900  1
  O  O14  1  0.01221400  0.75238900  0.90370100  1
  O  O15  1  0.75238900  0.01221400  0.40370100  1
  O  O16  1  0.17011500  0.91198300  0.49425200  1
  O  O17  1  0.91198300  0.17011500  0.99425200  1
  O  O18  1  0.53373300  0.76911000  0.79076400  1
  O  O19  1  0.76911000  0.53373300  0.29076400  1
  O  O20  1  0.35104800  0.75692800  0.69172500  1
  O  O21  1  0.75692800  0.35104800  0.19172500  1
  O  O22  1  0.80724900  0.04087200  0.79292500  1
  O  O23  1  0.04087200  0.80724900  0.29292600  1
  O  O24  1  0.28755200  0.01629600  0.29626200  1
  O  O25  1  0.01629600  0.28755200  0.79626200  1
  O  O26  1  0.66789200  0.41340700  0.73287000  1
  O  O27  1  0.41340700  0.66789200  0.23287000  1
  O  O28  1  0.27765000  0.20753800  0.99440200  1
  O  O29  1  0.20753800  0.27765000  0.49440200  1
  O  O30  1  0.29225900  0.02873300  0.89333500  1
  O  O31  1  0.02873300  0.29225900  0.39333500  1
  O  O32  1  0.40340500  0.11613700  0.69283500  1
  O  O33  1  0.11613700  0.40340500  0.19283500  1
loop_
_geom_bond_atom_site_label_1
_geom_bond_atom_site_label_2
_geom_bond_distance
_geom_bond_site_symmetry_2
Ca0 O10 2.377405 1_555
Ca0 O8 2.435234 1_555
Ca0 O18 2.446847 1_555
Ca0 O14 2.455316 1_555
Ca0 O1 2.461973 1_555
Ca0 O30 2.497606 1_565
Ca0 W6 3.216331 1_556
Ca1 O11 2.377405 1_555
Ca1 O9 2.435234 1_555
Ca1 O19 2.446847 1_555
Ca1 O15 2.455316 1_555
Ca1 O0 2.461973 1_555
Ca1 O31 2.497606 1_655
Ca1 W7 3.216331 1_555
Ca2 O9 2.448448 1_555
Ca2 O16 2.448498 1_555
Ca2 O11 2.473126 1_555
Ca2 O31 2.482181 1_565
Ca2 O24 2.532730 1_565
Ca2 O15 2.578345 1_465
Ca2 O23 2.753507 1_555
Ca3 O8 2.448448 1_555
Ca3 O17 2.448498 1_555
Ca3 O10 2.473126 1_555
Ca3 O30 2.482181 1_655
Ca3 O25 2.532730 1_655
Ca3 O14 2.578345 1_645
Ca3 O22 2.753528 1_555
Ca4 O16 2.226019 1_655
Ca4 O7 2.376812 1_555
Ca4 O4 2.610176 1_555
Ca4 W7 3.013885 1_565
Ca4 W2 3.073116 1_555
Ca4 W5 3.101003 1_655
Ca4 W8 3.403721 1_555
Ca5 O17 2.226019 1_564
Ca5 O6 2.376812 1_554
Ca5 O5 2.610176 1_555
Ca5 W6 3.013885 1_655
Ca5 W3 3.073116 1_555
Ca5 W4 3.101003 1_565
Ca5 W9 3.403721 1_555
Ca6 O18 2.450479 1_545
Ca6 O32 2.463998 1_555
Ca6 O25 2.471403 1_555
Ca6 O1 2.517813 1_555
Ca6 O22 2.529628 1_555
Ca6 O30 2.583839 1_555
Ca6 O10 2.873408 1_555
Ca7 O19 2.450479 1_455
Ca7 O33 2.463998 1_555
Ca7 O24 2.471403 1_555
Ca7 O0 2.517813 1_555
Ca7 O23 2.529629 1_555
Ca7 O31 2.583839 1_555
Ca7 O11 2.873408 1_555
Ca8 O22 2.382319 1_565
Ca8 O1 2.409679 1_655
Ca8 O8 2.412001 1_555
Ca8 O25 2.476970 1_655
Ca8 O14 2.507387 1_655
Ca8 O18 2.517940 1_555
Ca8 W8 3.142696 1_555
Ca9 O23 2.382316 1_655
Ca9 O0 2.409679 1_565
Ca9 O9 2.412001 1_555
Ca9 O24 2.476970 1_565
Ca9 O15 2.507387 1_565
Ca9 O19 2.517940 1_555
Ca9 W9 3.142696 1_555
W0 W8 2.986210 1_545
W1 W9 2.986210 1_455
W2 W8 2.941187 1_555
W3 W9 2.941187 1_555
W4 W9 2.920245 1_545
W5 W8 2.920245 1_455
O0 Si3 1.638800 1_555
O1 Si2 1.638800 1_555
O2 Si10 1.676693 1_555
O2 Si4 1.684038 1_555
O3 Si11 1.676693 1_555
O3 Si5 1.684038 1_555
O4 Si9 1.681929 1_555
O4 Si4 1.689445 1_565
O5 Si8 1.681929 1_554
O5 Si5 1.689445 1_655
O6 Si8 1.676406 1_555
O6 Si6 1.700948 1_565
O7 Si9 1.676406 1_555
O7 Si7 1.700948 1_655
O8 Si8 1.613758 1_555
O9 Si9 1.613758 1_555
O10 Si6 1.623105 1_555
O11 Si7 1.623105 1_555
O12 Si10 1.651084 1_555
O12 Si0 1.688101 1_455
O13 Si11 1.651084 1_555
O13 Si1 1.688101 1_545
O14 Si8 1.633252 1_455
O15 Si9 1.633252 1_545
O16 Si4 1.616012 1_565
O17 Si5 1.616012 1_656
O18 Si2 1.633304 1_555
O19 Si3 1.633304 1_555
O20 Si10 1.663405 1_565
O20 Si2 1.676689 1_555
O20 W8 2.862240 1_455
O21 Si11 1.663405 1_655
O21 Si3 1.676689 1_555
O21 W9 2.862240 1_545
O22 Si0 1.624020 1_555
O23 Si1 1.624031 1_555
O24 Si1 1.630768 1_545
O25 Si0 1.630768 1_455
O26 Si2 1.653042 1_555
O26 Si0 1.672859 1_555
O27 Si3 1.653042 1_555
O27 Si1 1.672859 1_555
O28 Si5 1.658671 1_556
O28 Si6 1.680893 1_555
O29 Si4 1.658671 1_555
O29 Si7 1.680893 1_555
O30 Si6 1.629812 1_555
O31 Si7 1.629812 1_555
O32 Si10 1.625743 1_555
O32 W0 2.134061 1_555
O33 Si11 1.625743 1_555
O33 W1 2.134061 1_555
