# generated using pymatgen
data_CeUFe4
_symmetry_space_group_name_H-M   'P 1'
_cell_length_a   4.94378373
_cell_length_b   4.94378373
_cell_length_c   4.94378373
_cell_angle_alpha   60.00000000
_cell_angle_beta   60.00000000
_cell_angle_gamma   60.00000000
_symmetry_Int_Tables_number   1
_chemical_formula_structural   CeUFe4
_chemical_formula_sum   'Ce1 U1 Fe4'
_cell_volume   85.44042379
_cell_formula_units_Z   1
loop_
 _symmetry_equiv_pos_site_id
 _symmetry_equiv_pos_as_xyz
  1  'x, y, z'
loop_
 _atom_site_type_symbol
 _atom_site_label
 _atom_site_symmetry_multiplicity
 _atom_site_fract_x
 _atom_site_fract_y
 _atom_site_fract_z
 _atom_site_occupancy
  Ce  Ce0  1  0.25000000  0.25000000  0.25000000  1
  U  U0  1  0.00000000  0.00000000  0.00000000  1
  Fe  Fe0  1  0.62514200  0.62514200  0.12457500  1
  Fe  Fe1  1  0.62514200  0.12457500  0.62514200  1
  Fe  Fe2  1  0.12457500  0.62514200  0.62514200  1
  Fe  Fe3  1  0.62514200  0.62514200  0.62514200  1
loop_
_geom_bond_atom_site_label_1
_geom_bond_atom_site_label_2
_geom_bond_distance
_geom_bond_site_symmetry_2
Ce0 Fe0 2.898848 1_545
Ce0 Fe0 2.898848 1_455
Ce0 Fe2 2.898848 1_554
Ce0 Fe1 2.898848 1_455
Ce0 Fe1 2.898848 1_554
Ce0 Fe2 2.898848 1_545
Ce0 Fe3 2.898850 1_545
Ce0 Fe3 2.898850 1_554
Ce0 Fe3 2.898850 1_455
Ce0 Fe0 2.898852 1_555
Ce0 Fe2 2.898852 1_555
Ce0 Fe1 2.898852 1_555
Ce0 U0 3.027437 1_565
Ce0 U0 3.027437 1_556
Ce0 U0 3.027437 1_555
Ce0 U0 3.027437 1_655
Fe0 Fe3 2.469089 1_554
Fe0 Fe2 2.469089 1_654
Fe0 Fe1 2.469089 1_564
Fe0 Fe3 2.474695 1_555
Fe0 Fe2 2.474695 1_555
Fe0 Fe1 2.474695 1_555
Fe0 U0 2.898249 1_665
Fe0 U0 2.898253 1_565
Fe0 U0 2.898253 1_655
Fe1 Fe3 2.469089 1_545
Fe1 Fe2 2.469089 1_645
Fe1 Fe3 2.474695 1_555
Fe1 Fe2 2.474695 1_555
Fe1 U0 2.898249 1_656
Fe1 U0 2.898253 1_655
Fe1 U0 2.898253 1_556
Fe2 Fe3 2.469089 1_455
Fe2 Fe3 2.474695 1_555
Fe2 U0 2.898249 1_566
Fe2 U0 2.898253 1_556
Fe2 U0 2.898253 1_565
Fe3 U0 2.898251 1_566
Fe3 U0 2.898251 1_656
Fe3 U0 2.898251 1_665
