# generated using pymatgen
data_EuGa3(BO3)4
_symmetry_space_group_name_H-M   'P 1'
_cell_length_a   6.08707300
_cell_length_b   6.08707300
_cell_length_c   6.08707281
_cell_angle_alpha   103.66016431
_cell_angle_beta   103.66016431
_cell_angle_gamma   103.66016433
_symmetry_Int_Tables_number   1
_chemical_formula_structural   EuGa3(BO3)4
_chemical_formula_sum   'Eu1 Ga3 B4 O12'
_cell_volume   202.52763527
_cell_formula_units_Z   1
loop_
 _symmetry_equiv_pos_site_id
 _symmetry_equiv_pos_as_xyz
  1  'x, y, z'
loop_
 _atom_site_type_symbol
 _atom_site_label
 _atom_site_symmetry_multiplicity
 _atom_site_fract_x
 _atom_site_fract_y
 _atom_site_fract_z
 _atom_site_occupancy
  Eu  Eu0  1  0.50000000  0.50000000  0.50000000  1
  Ga  Ga0  1  0.04970500  0.95029500  0.50000000  1
  Ga  Ga1  1  0.95029500  0.50000000  0.04970500  1
  Ga  Ga2  1  0.50000000  0.04970500  0.95029500  1
  B  B0  1  0.44788900  0.55211100  0.00000000  1
  B  B1  1  0.55211100  0.00000000  0.44788900  1
  B  B2  1  0.00000000  0.44788900  0.55211100  1
  B  B3  1  0.00000000  0.00000000  0.00000000  1
  O  O0  1  0.28492900  0.52206600  0.12186700  1
  O  O1  1  0.52206600  0.12186700  0.28492900  1
  O  O2  1  0.71507100  0.87813300  0.47793400  1
  O  O3  1  0.12186700  0.28492900  0.52206600  1
  O  O4  1  0.47793400  0.71507100  0.87813300  1
  O  O5  1  0.87813300  0.47793400  0.71507100  1
  O  O6  1  0.85501900  0.14498100  0.00000000  1
  O  O7  1  0.14498100  0.00000000  0.85501900  1
  O  O8  1  0.00000000  0.85501900  0.14498100  1
  O  O9  1  0.59305700  0.40694300  0.00000000  1
  O  O10  1  0.40694300  0.00000000  0.59305700  1
  O  O11  1  0.00000000  0.59305700  0.40694300  1
loop_
_geom_bond_atom_site_label_1
_geom_bond_atom_site_label_2
_geom_bond_distance
_geom_bond_site_symmetry_2
Eu0 O4 2.415713 1_555
Eu0 O0 2.415713 1_555
Eu0 O5 2.415713 1_555
Eu0 O1 2.415713 1_555
Eu0 O2 2.415713 1_555
Eu0 O3 2.415713 1_555
Ga0 O2 1.944329 1_455
Ga0 O3 1.944329 1_565
Ga0 O8 2.028363 1_555
Ga0 O7 2.028363 1_565
Ga0 O10 2.041448 1_565
Ga0 O11 2.041448 1_555
Ga1 O5 1.944329 1_554
Ga1 O0 1.944329 1_655
Ga1 O8 2.028364 1_655
Ga1 O6 2.028364 1_555
Ga1 O11 2.041448 1_655
Ga1 O9 2.041448 1_555
Ga2 O1 1.944329 1_556
Ga2 O4 1.944329 1_545
Ga2 O7 2.028364 1_555
Ga2 O6 2.028364 1_556
Ga2 O10 2.041448 1_555
Ga2 O9 2.041448 1_556
B0 O0 1.376099 1_555
B0 O4 1.376099 1_554
B0 O9 1.389416 1_555
B1 O1 1.376099 1_555
B1 O2 1.376099 1_545
B1 O10 1.389416 1_555
B2 O5 1.376099 1_455
B2 O3 1.376099 1_555
B2 O11 1.389416 1_555
B3 O8 1.387626 1_545
B3 O7 1.387626 1_554
B3 O6 1.387626 1_455
