# generated using pymatgen
data_CrPO10
_symmetry_space_group_name_H-M   'P 1'
_cell_length_a   6.29691287
_cell_length_b   6.29691287
_cell_length_c   24.94620687
_cell_angle_alpha   88.14399732
_cell_angle_beta   88.14399732
_cell_angle_gamma   73.55638431
_symmetry_Int_Tables_number   1
_chemical_formula_structural   CrPO10
_chemical_formula_sum   'Cr4 P4 O40'
_cell_volume   947.91168344
_cell_formula_units_Z   4
loop_
 _symmetry_equiv_pos_site_id
 _symmetry_equiv_pos_as_xyz
  1  'x, y, z'
loop_
 _atom_site_type_symbol
 _atom_site_label
 _atom_site_symmetry_multiplicity
 _atom_site_fract_x
 _atom_site_fract_y
 _atom_site_fract_z
 _atom_site_occupancy
  Cr  Cr0  1  0.99230200  0.91410100  0.50556700  1
  Cr  Cr1  1  0.91410100  0.99230200  0.00556700  1
  Cr  Cr2  1  0.87461200  0.04624200  0.25941600  1
  Cr  Cr3  1  0.04624200  0.87461200  0.75941600  1
  P  P0  1  0.29977500  0.42489800  0.37322100  1
  P  P1  1  0.42489800  0.29977500  0.87322100  1
  P  P2  1  0.58782100  0.68750000  0.12276700  1
  P  P3  1  0.68750000  0.58782100  0.62276700  1
  O  O0  1  0.89811700  0.71040100  0.49160700  1
  O  O1  1  0.71040100  0.89811700  0.99160700  1
  O  O2  1  0.11704500  0.19883700  0.52292600  1
  O  O3  1  0.19883700  0.11704500  0.02292600  1
  O  O4  1  0.91534000  0.23735700  0.44814700  1
  O  O5  1  0.23735700  0.91534000  0.94814700  1
  O  O6  1  0.76403600  0.14335100  0.51682400  1
  O  O7  1  0.14335100  0.76403600  0.01682400  1
  O  O8  1  0.12552600  0.84726300  0.56249100  1
  O  O9  1  0.84726300  0.12552600  0.06249100  1
  O  O10  1  0.17965700  0.94277300  0.45496300  1
  O  O11  1  0.94277300  0.17965700  0.95496300  1
  O  O12  1  0.66894900  0.13314500  0.21752000  1
  O  O13  1  0.13314500  0.66894900  0.71752000  1
  O  O14  1  0.95465100  0.28581100  0.27411100  1
  O  O15  1  0.28581100  0.95465100  0.77411100  1
  O  O16  1  0.23057000  0.00785400  0.26334200  1
  O  O17  1  0.00785400  0.23057000  0.76334200  1
  O  O18  1  0.05730200  0.81480500  0.22776700  1
  O  O19  1  0.81480500  0.05730200  0.72776700  1
  O  O20  1  0.77926700  0.95993200  0.31363000  1
  O  O21  1  0.95993200  0.77926700  0.81363000  1
  O  O22  1  0.02170100  0.16893700  0.18810100  1
  O  O23  1  0.16893700  0.02170100  0.68810100  1
  O  O24  1  0.41774900  0.54255100  0.33225500  1
  O  O25  1  0.54255100  0.41774900  0.83225500  1
  O  O26  1  0.39335100  0.42690100  0.42933700  1
  O  O27  1  0.42690100  0.39335100  0.92933700  1
  O  O28  1  0.33800600  0.18186600  0.35742300  1
  O  O29  1  0.18186600  0.33800600  0.85742300  1
  O  O30  1  0.04945000  0.54146300  0.37430200  1
  O  O31  1  0.54146300  0.04945000  0.87430200  1
  O  O32  1  0.83044900  0.65479200  0.13726300  1
  O  O33  1  0.65479200  0.83044900  0.63726300  1
  O  O34  1  0.46203300  0.93518400  0.12064400  1
  O  O35  1  0.93518400  0.46203300  0.62064400  1
  O  O36  1  0.58430600  0.58713700  0.06724900  1
  O  O37  1  0.58713700  0.58430600  0.56724900  1
  O  O38  1  0.47376900  0.56731600  0.16422800  1
  O  O39  1  0.56731600  0.47376900  0.66422800  1
loop_
_geom_bond_atom_site_label_1
_geom_bond_atom_site_label_2
_geom_bond_distance
_geom_bond_site_symmetry_2
Cr0 O0 1.609745 1_555
Cr0 O8 1.654073 1_655
Cr0 O10 1.739936 1_655
Cr0 O6 1.747621 1_565
Cr0 O2 2.211083 1_665
Cr0 O4 2.393242 1_565
Cr1 O1 1.609745 1_554
Cr1 O9 1.654073 1_565
Cr1 O11 1.739936 1_564
Cr1 O7 1.747621 1_655
Cr1 O3 2.211083 1_665
Cr1 O5 2.393242 1_654
Cr2 O20 1.602945 1_545
Cr2 O12 1.648736 1_555
Cr2 O18 1.771193 1_645
Cr2 O14 1.772664 1_555
Cr2 O16 2.190435 1_655
Cr2 O22 2.197523 1_655
Cr3 O21 1.602945 1_455
Cr3 O13 1.648736 1_555
Cr3 O19 1.771193 1_465
Cr3 O15 1.772664 1_555
Cr3 O17 2.190435 1_565
Cr3 O23 2.197523 1_565
O24 P0 1.535727 1_555
O25 P1 1.535727 1_555
O26 P0 1.538120 1_555
O27 P1 1.538120 1_555
O28 P0 1.542592 1_555
O29 P1 1.542592 1_555
O30 P0 1.538712 1_555
O31 P1 1.538712 1_555
O32 P2 1.536294 1_555
O33 P3 1.536294 1_555
O34 P2 1.536443 1_555
O35 P3 1.536443 1_555
O36 P2 1.544218 1_555
O37 P3 1.544218 1_555
O38 P2 1.538556 1_555
O39 P3 1.538556 1_555
