# generated using pymatgen
data_Sr2AlCu3O7
_symmetry_space_group_name_H-M   'P 1'
_cell_length_a   5.35707919
_cell_length_b   5.30909376
_cell_length_c   12.05908595
_cell_angle_alpha   102.69927020
_cell_angle_beta   102.81213858
_cell_angle_gamma   90.08469910
_symmetry_Int_Tables_number   1
_chemical_formula_structural   Sr2AlCu3O7
_chemical_formula_sum   'Sr4 Al2 Cu6 O14'
_cell_volume   325.79972940
_cell_formula_units_Z   2
loop_
 _symmetry_equiv_pos_site_id
 _symmetry_equiv_pos_as_xyz
  1  'x, y, z'
loop_
 _atom_site_type_symbol
 _atom_site_label
 _atom_site_symmetry_multiplicity
 _atom_site_fract_x
 _atom_site_fract_y
 _atom_site_fract_z
 _atom_site_occupancy
  Sr  Sr0  1  0.33484600  0.34661600  0.69835600  1
  Sr  Sr1  1  0.63970000  0.65732700  0.30238600  1
  Sr  Sr2  1  0.83494600  0.85438200  0.69827700  1
  Sr  Sr3  1  0.14021100  0.15105600  0.30216800  1
  Al  Al0  1  0.98550000  0.00230100  0.00015200  1
  Al  Al1  1  0.48252300  0.49606700  0.00046600  1
  Cu  Cu0  1  0.25928600  0.69830200  0.50035700  1
  Cu  Cu1  1  0.75908700  0.30466200  0.50020700  1
  Cu  Cu2  1  0.92160700  0.44047600  0.87953000  1
  Cu  Cu3  1  0.04613200  0.56297500  0.12129800  1
  Cu  Cu4  1  0.42249900  0.93781400  0.87942800  1
  Cu  Cu5  1  0.54770300  0.06126500  0.12129500  1
  O  O0  1  0.10237300  0.36014300  0.50015700  1
  O  O1  1  0.60222300  0.64127200  0.50009200  1
  O  O2  1  0.24918000  0.26640800  0.88965100  1
  O  O3  1  0.36353600  0.73314700  0.10961900  1
  O  O4  1  0.75013600  0.12292000  0.89112000  1
  O  O5  1  0.86562900  0.88145100  0.11092400  1
  O  O6  1  0.60573600  0.62183500  0.89212200  1
  O  O7  1  0.71879700  0.37925900  0.11017300  1
  O  O8  1  0.10494500  0.76858500  0.89060600  1
  O  O9  1  0.22005900  0.23455900  0.10850100  1
  O  O10  1  0.31228200  0.83410500  0.66167800  1
  O  O11  1  0.65191400  0.16825800  0.33848900  1
  O  O12  1  0.81138300  0.32882500  0.66142700  1
  O  O13  1  0.15241200  0.67425100  0.33881000  1
loop_
_geom_bond_atom_site_label_1
_geom_bond_atom_site_label_2
_geom_bond_distance
_geom_bond_site_symmetry_2
Al0 O8 1.830503 1_644
Al0 O5 1.834245 1_545
Al0 O9 1.834526 1_655
Al0 O4 1.834653 1_554
Al1 O6 1.831196 1_554
Al1 O7 1.832288 1_555
Al1 O3 1.835551 1_555
Al1 O2 1.836644 1_554
Cu0 O1 1.862953 1_555
Cu0 O10 1.876889 1_555
Cu0 O13 1.880152 1_555
Cu0 O0 1.980532 1_555
Cu1 O0 1.862173 1_655
Cu1 O12 1.877072 1_555
Cu1 O11 1.881089 1_555
Cu1 O1 1.976077 1_555
Cu2 O8 1.962489 1_655
Cu2 O4 1.965113 1_555
Cu2 O6 1.966722 1_555
Cu2 O2 1.976810 1_655
Cu2 O12 2.498460 1_555
Cu3 O5 1.963092 1_455
Cu3 O7 1.969107 1_455
Cu3 O9 1.970365 1_555
Cu3 O3 1.971016 1_555
Cu3 O13 2.491714 1_555
Cu4 O6 1.962740 1_555
Cu4 O8 1.967173 1_555
Cu4 O2 1.970199 1_565
Cu4 O4 1.972445 1_565
Cu4 O10 2.494533 1_555
Cu5 O3 1.962973 1_545
Cu5 O7 1.964128 1_555
Cu5 O5 1.968379 1_545
Cu5 O9 1.974367 1_555
Cu5 O11 2.488126 1_555
O0 Sr3 2.454350 1_555
O0 Sr0 2.454442 1_555
O1 Sr2 2.455946 1_555
O1 Sr1 2.456288 1_555
O2 Sr0 2.571830 1_555
O3 Sr1 2.577285 1_555
O4 Sr2 2.580664 1_545
O5 Sr3 2.563017 1_665
O6 Sr0 2.586413 1_555
O7 Sr1 2.581597 1_555
O8 Sr2 2.580192 1_455
O9 Sr3 2.594521 1_555
O10 Sr0 2.657084 1_565
O10 Sr2 2.688074 1_455
O10 Sr0 2.718299 1_555
O10 Sr2 2.734275 1_555
O11 Sr1 2.649439 1_545
O11 Sr3 2.676512 1_555
O11 Sr1 2.724077 1_555
O11 Sr3 2.744831 1_655
O12 Sr2 2.650710 1_545
O12 Sr0 2.685273 1_555
O12 Sr2 2.725386 1_555
O12 Sr0 2.738216 1_655
O13 Sr3 2.662140 1_565
O13 Sr1 2.681769 1_455
O13 Sr3 2.713320 1_555
O13 Sr1 2.739941 1_555
