# generated using pymatgen
data_Rb3P3O10
_symmetry_space_group_name_H-M   'P 1'
_cell_length_a   7.79451600
_cell_length_b   7.87671610
_cell_length_c   10.31795993
_cell_angle_alpha   86.00473083
_cell_angle_beta   68.65119405
_cell_angle_gamma   83.87604066
_symmetry_Int_Tables_number   1
_chemical_formula_structural   Rb3P3O10
_chemical_formula_sum   'Rb6 P6 O20'
_cell_volume   586.31285306
_cell_formula_units_Z   2
loop_
 _symmetry_equiv_pos_site_id
 _symmetry_equiv_pos_as_xyz
  1  'x, y, z'
loop_
 _atom_site_type_symbol
 _atom_site_label
 _atom_site_symmetry_multiplicity
 _atom_site_fract_x
 _atom_site_fract_y
 _atom_site_fract_z
 _atom_site_occupancy
  Rb  Rb0  1  0.27464400  0.23700500  0.00204300  1
  Rb  Rb1  1  0.72535600  0.76299500  0.99795700  1
  Rb  Rb2  1  0.20905300  0.37903100  0.61663300  1
  Rb  Rb3  1  0.79094700  0.62096900  0.38336700  1
  Rb  Rb4  1  0.74360800  0.09444700  0.65461000  1
  Rb  Rb5  1  0.25639200  0.90555300  0.34539000  1
  P  P0  1  0.49826600  0.37140600  0.25579400  1
  P  P1  1  0.50173400  0.62859400  0.74420600  1
  P  P2  1  0.76141800  0.08190500  0.26713000  1
  P  P3  1  0.23858200  0.91809500  0.73287000  1
  P  P4  1  0.79272900  0.25151900  0.99592500  1
  P  P5  1  0.20727100  0.74848100  0.00407500  1
  O  O0  1  0.94805400  0.34256500  0.89574300  1
  O  O1  1  0.05194600  0.65743500  0.10425700  1
  O  O2  1  0.62754500  0.25352300  0.32959600  1
  O  O3  1  0.37245500  0.74647700  0.67040400  1
  O  O4  1  0.87464200  0.14787100  0.10895800  1
  O  O5  1  0.12535800  0.85212900  0.89104200  1
  O  O6  1  0.34612100  0.26973600  0.25501500  1
  O  O7  1  0.65387900  0.73026400  0.74498500  1
  O  O8  1  0.34893500  0.06260900  0.73217800  1
  O  O9  1  0.65106500  0.93739100  0.26782200  1
  O  O10  1  0.89510600  0.05247200  0.34358500  1
  O  O11  1  0.10489400  0.94752800  0.65641500  1
  O  O12  1  0.68649400  0.13765900  0.94902700  1
  O  O13  1  0.31350600  0.86234100  0.05097300  1
  O  O14  1  0.64680600  0.39673600  0.09792000  1
  O  O15  1  0.35319400  0.60326400  0.90208000  1
  O  O16  1  0.54253900  0.45912400  0.67759000  1
  O  O17  1  0.45746100  0.54087600  0.32241000  1
  O  O18  1  0.01367200  0.29088100  0.40832100  1
  O  O19  1  0.98632800  0.70911900  0.59167900  1
loop_
_geom_bond_atom_site_label_1
_geom_bond_atom_site_label_2
_geom_bond_distance
_geom_bond_site_symmetry_2
O0 P4 1.489735 1_555
O0 Rb2 2.873748 1_655
O0 Rb0 3.135061 1_656
O1 P5 1.489735 1_555
O1 Rb3 2.873748 1_455
O1 Rb1 3.135061 1_454
O2 P2 1.631673 1_555
O2 P0 1.648620 1_555
O3 P3 1.631673 1_555
O3 P1 1.648620 1_555
O4 P2 1.625825 1_555
O4 P4 1.653062 1_554
O4 Rb0 3.047225 1_655
O5 P3 1.625825 1_555
O5 P5 1.653062 1_556
O5 Rb1 3.047225 1_455
O6 P0 1.502731 1_555
O6 Rb0 2.893608 1_555
O6 Rb5 3.027841 1_545
O7 P1 1.502731 1_555
O7 Rb1 2.893608 1_555
O7 Rb4 3.027841 1_565
O8 P3 1.496302 1_545
O8 Rb4 2.917359 1_555
O8 Rb2 2.962186 1_555
O8 Rb0 3.027342 1_556
O9 P2 1.496302 1_565
O9 Rb5 2.917359 1_555
O9 Rb3 2.962186 1_555
O9 Rb1 3.027342 1_554
O10 P2 1.511077 1_555
O10 Rb5 2.934205 1_645
O10 Rb4 3.017908 1_555
O11 P3 1.511077 1_555
O11 Rb4 2.934205 1_465
O11 Rb5 3.017908 1_555
O12 P4 1.494926 1_555
O12 Rb4 2.944364 1_555
O12 Rb1 2.961209 1_545
O12 Rb0 3.076022 1_556
O13 P5 1.494926 1_555
O13 Rb5 2.944364 1_555
O13 Rb0 2.961209 1_565
O13 Rb1 3.076022 1_554
O14 P0 1.632353 1_555
O14 P4 1.651723 1_554
O14 Rb1 3.043661 1_554
O15 P1 1.632353 1_555
O15 P5 1.651723 1_556
O15 Rb0 3.043661 1_556
O16 P1 1.494512 1_555
O16 Rb2 3.024197 1_555
O16 Rb4 3.102789 1_555
O16 Rb3 3.209009 1_555
O17 P0 1.494512 1_555
O17 Rb3 3.024197 1_555
O17 Rb5 3.102789 1_555
O17 Rb2 3.209009 1_555
O18 Rb3 3.018157 1_455
O18 Rb4 3.087889 1_455
O18 Rb2 3.199662 1_555
O19 Rb2 3.018157 1_655
O19 Rb5 3.087889 1_655
O19 Rb3 3.199662 1_555
