# generated using pymatgen
data_EuIn4Au
_symmetry_space_group_name_H-M   'P 1'
_cell_length_a   8.85745703
_cell_length_b   8.85745703
_cell_length_c   7.57961289
_cell_angle_alpha   89.99995046
_cell_angle_beta   90.00004954
_cell_angle_gamma   149.66529103
_symmetry_Int_Tables_number   1
_chemical_formula_structural   EuIn4Au
_chemical_formula_sum   'Eu2 In8 Au2'
_cell_volume   300.33088378
_cell_formula_units_Z   2
loop_
 _symmetry_equiv_pos_site_id
 _symmetry_equiv_pos_as_xyz
  1  'x, y, z'
loop_
 _atom_site_type_symbol
 _atom_site_label
 _atom_site_symmetry_multiplicity
 _atom_site_fract_x
 _atom_site_fract_y
 _atom_site_fract_z
 _atom_site_occupancy
  Eu  Eu0  1  0.62538207  0.37461793  0.75000000  1
  Eu  Eu1  1  0.37461945  0.62538055  0.25000000  1
  In  In0  1  0.82106940  0.17893060  0.95087601  1
  In  In1  1  0.17893273  0.82106727  0.04914481  1
  In  In2  1  0.82106940  0.17893060  0.54912399  1
  In  In3  1  0.17893273  0.82106727  0.45085519  1
  In  In4  1  0.43759710  0.56240290  0.75000000  1
  In  In5  1  0.56239833  0.43760167  0.25000000  1
  In  In6  1  -0.00000218  0.00000218  0.00000316  1
  In  In7  1  -0.00000218  0.00000218  0.49999684  1
  Au  Au0  1  0.27511295  0.72488705  0.75000000  1
  Au  Au1  1  0.72488819  0.27511181  0.25000000  1
loop_
_geom_bond_atom_site_label_1
_geom_bond_atom_site_label_2
_geom_bond_distance
_geom_bond_site_symmetry_2
Eu0 In4 3.210715 1_555
Eu0 In1 3.368983 1_546
Eu0 In1 3.368983 1_656
Eu0 In3 3.368984 1_545
Eu0 In3 3.368984 1_655
Eu0 In0 3.675970 1_555
Eu0 In2 3.675972 1_555
Eu0 In7 3.682014 1_555
Eu0 In7 3.682014 1_665
Eu0 In6 3.682016 1_556
Eu0 In6 3.682016 1_666
Eu0 In5 3.939836 1_555
Eu0 In5 3.939838 1_556
Eu1 In5 3.210611 1_555
Eu1 In0 3.368874 1_564
Eu1 In0 3.368874 1_454
Eu1 In2 3.368875 1_565
Eu1 In2 3.368875 1_455
Eu1 In1 3.675895 1_555
Eu1 In3 3.675897 1_555
Eu1 In7 3.681931 1_665
Eu1 In7 3.681931 1_555
Eu1 In6 3.681933 1_665
Eu1 In6 3.681933 1_555
Eu1 In4 3.939807 1_555
Eu1 In4 3.939809 1_554
In0 In6 3.081865 1_656
In1 In6 3.081989 1_565
In2 In7 3.081866 1_655
In3 In7 3.081989 1_565
In4 In6 3.177998 1_556
In4 In6 3.177998 1_666
In4 In7 3.177999 1_555
In4 In7 3.177999 1_665
In5 In6 3.177968 1_555
In5 In6 3.177968 1_665
In5 In7 3.177970 1_555
In5 In7 3.177970 1_665
Au0 In4 2.778126 1_555
Au0 In3 2.800963 1_555
Au0 In1 2.800966 1_556
Au0 In0 2.882052 1_455
Au0 In0 2.882052 1_565
Au0 In2 2.882052 1_565
Au0 In2 2.882052 1_455
Au0 Eu0 3.453200 1_565
Au0 Eu0 3.453200 1_455
Au1 In5 2.778224 1_555
Au1 In2 2.800846 1_555
Au1 In0 2.800848 1_554
Au1 In1 2.881964 1_545
Au1 In1 2.881964 1_655
Au1 In3 2.881964 1_545
Au1 In3 2.881964 1_655
Au1 Eu1 3.453205 1_655
Au1 Eu1 3.453205 1_545
