# generated using pymatgen
data_Co2SbN3
_symmetry_space_group_name_H-M   'P 1'
_cell_length_a   8.94971192
_cell_length_b   17.04572359
_cell_length_c   7.57214333
_cell_angle_alpha   90.00000396
_cell_angle_beta   90.42659752
_cell_angle_gamma   162.23306804
_symmetry_Int_Tables_number   1
_chemical_formula_structural   Co2SbN3
_chemical_formula_sum   'Co8 Sb4 N12'
_cell_volume   352.38816271
_cell_formula_units_Z   4
loop_
 _symmetry_equiv_pos_site_id
 _symmetry_equiv_pos_as_xyz
  1  'x, y, z'
loop_
 _atom_site_type_symbol
 _atom_site_label
 _atom_site_symmetry_multiplicity
 _atom_site_fract_x
 _atom_site_fract_y
 _atom_site_fract_z
 _atom_site_occupancy
  Co  Co0  1  0.64358700  0.08468200  0.85193500  1
  Co  Co1  1  0.35641300  0.44109500  0.64806500  1
  Co  Co2  1  0.35641300  0.91531800  0.14806500  1
  Co  Co3  1  0.64358700  0.55890500  0.35193500  1
  Co  Co4  1  0.61923700  0.98427100  0.57484100  1
  Co  Co5  1  0.38076300  0.36503400  0.92515900  1
  Co  Co6  1  0.38076300  0.01572900  0.42515900  1
  Co  Co7  1  0.61923700  0.63496600  0.07484100  1
  Sb  Sb0  1  0.54459000  0.34273500  0.58287000  1
  Sb  Sb1  1  0.45541000  0.79814400  0.91713000  1
  Sb  Sb2  1  0.45541000  0.65726500  0.41713000  1
  Sb  Sb3  1  0.54459000  0.20185600  0.08287000  1
  N  N0  1  0.00000000  0.63784500  0.75000000  1
  N  N1  1  0.00000000  0.36215500  0.25000000  1
  N  N2  1  0.70123800  0.13656800  0.62053100  1
  N  N3  1  0.29876200  0.43533000  0.87946900  1
  N  N4  1  0.29876200  0.86343200  0.37946900  1
  N  N5  1  0.70123800  0.56467000  0.12053100  1
  N  N6  1  0.25659400  0.95373700  0.97771700  1
  N  N7  1  0.74340600  0.69714200  0.52228300  1
  N  N8  1  0.74340600  0.04626300  0.02228300  1
  N  N9  1  0.25659400  0.30285800  0.47771700  1
  N  N10  1  0.00000000  0.10278600  0.75000000  1
  N  N11  1  0.00000000  0.89721400  0.25000000  1
loop_
_geom_bond_atom_site_label_1
_geom_bond_atom_site_label_2
_geom_bond_distance
_geom_bond_site_symmetry_2
Co0 N6 1.791671 1_545
Co0 N2 1.806393 1_555
Co0 N3 1.838813 1_655
Co0 N8 1.996971 1_556
Co1 N7 1.791661 1_555
Co1 N3 1.806393 1_555
Co1 N2 1.838813 1_455
Co1 N9 1.996958 1_555
Co2 N8 1.791671 1_565
Co2 N4 1.806393 1_555
Co2 N5 1.838813 1_455
Co2 N6 1.996971 1_554
Co3 N9 1.791661 1_555
Co3 N5 1.806393 1_555
Co3 N4 1.838813 1_655
Co3 N7 1.996958 1_555
Co4 N4 1.828222 1_555
Co4 N9 1.906051 1_665
Co4 N2 1.940403 1_565
Co4 N10 2.067317 1_665
Co4 N0 2.263210 1_555
Co5 N5 1.828222 1_556
Co5 N8 1.906051 1_456
Co5 N3 1.940403 1_555
Co5 N10 2.067317 1_555
Co5 N0 2.263210 1_655
Co6 N2 1.828222 1_555
Co6 N7 1.906051 1_445
Co6 N4 1.940403 1_545
Co6 N11 2.067317 1_545
Co6 N1 2.263210 1_655
Co7 N3 1.828222 1_554
Co7 N6 1.906051 1_654
Co7 N5 1.940403 1_555
Co7 N11 2.067317 1_655
Co7 N1 2.263210 1_555
N0 Sb0 2.095639 1_455
N0 Sb1 2.095648 1_555
N1 Sb2 2.095639 1_555
N1 Sb3 2.095648 1_455
N6 Sb3 2.090933 1_566
N7 Sb2 2.090933 1_555
N8 Sb1 2.090933 1_544
N9 Sb0 2.090933 1_555
N10 Sb0 2.051671 1_555
N10 Sb1 2.051676 1_445
N11 Sb2 2.051671 1_455
N11 Sb3 2.051676 1_565
