# generated using pymatgen
data_MnH7C3NO6
_symmetry_space_group_name_H-M   'P 1'
_cell_length_a   7.08480700
_cell_length_b   9.57208000
_cell_length_c   11.18143000
_cell_angle_alpha   90.00000000
_cell_angle_beta   90.00000000
_cell_angle_gamma   90.00000000
_symmetry_Int_Tables_number   1
_chemical_formula_structural   MnH7C3NO6
_chemical_formula_sum   'Mn4 H28 C12 N4 O24'
_cell_volume   758.28365173
_cell_formula_units_Z   4
loop_
 _symmetry_equiv_pos_site_id
 _symmetry_equiv_pos_as_xyz
  1  'x, y, z'
loop_
 _atom_site_type_symbol
 _atom_site_label
 _atom_site_symmetry_multiplicity
 _atom_site_fract_x
 _atom_site_fract_y
 _atom_site_fract_z
 _atom_site_occupancy
  Mn  Mn0  1  0.89731400  0.00201600  0.47208200  1
  Mn  Mn1  1  0.10268600  0.99798400  0.97208200  1
  Mn  Mn2  1  0.60268600  0.50201600  0.97208200  1
  Mn  Mn3  1  0.39731400  0.49798400  0.47208200  1
  H  H0  1  0.35535600  0.77670400  0.33999800  1
  H  H1  1  0.64464400  0.22329600  0.83999800  1
  H  H2  1  0.14464400  0.27670400  0.83999800  1
  H  H3  1  0.85535600  0.72329600  0.33999800  1
  H  H4  1  0.28345700  0.98187500  0.61686900  1
  H  H5  1  0.71654300  0.01812500  0.11686900  1
  H  H6  1  0.21654300  0.48187500  0.11686900  1
  H  H7  1  0.78345700  0.51812500  0.61686900  1
  H  H8  1  0.45809800  0.23015700  0.62322600  1
  H  H9  1  0.54190200  0.76984300  0.12322600  1
  H  H10  1  0.04190200  0.73015700  0.12322600  1
  H  H11  1  0.95809800  0.26984300  0.62322600  1
  H  H12  1  0.25798400  0.04385500  0.27014300  1
  H  H13  1  0.74201600  0.95614500  0.77014300  1
  H  H14  1  0.24201600  0.54385500  0.77014300  1
  H  H15  1  0.75798400  0.45614500  0.27014300  1
  H  H16  1  0.34384500  0.16359200  0.17468900  1
  H  H17  1  0.65615500  0.83640800  0.67468900  1
  H  H18  1  0.15615500  0.66359200  0.67468900  1
  H  H19  1  0.84384500  0.33640800  0.17468900  1
  H  H20  1  0.31218600  0.20282800  0.32115300  1
  H  H21  1  0.68781400  0.79717200  0.82115300  1
  H  H22  1  0.18781400  0.70282800  0.82115300  1
  H  H23  1  0.81218600  0.29717200  0.32115300  1
  H  H24  1  0.48978600  0.09412200  0.28003000  1
  H  H25  1  0.51021400  0.90587800  0.78003000  1
  H  H26  1  0.01021400  0.59412200  0.78003000  1
  H  H27  1  0.98978600  0.40587800  0.28003000  1
  C  C0  1  0.24464300  0.78936100  0.40945300  1
  C  C1  1  0.75535700  0.21063900  0.90945300  1
  C  C2  1  0.25535700  0.28936100  0.90945300  1
  C  C3  1  0.74464300  0.71063900  0.40945300  1
  C  C4  1  0.17588400  0.96850800  0.68780900  1
  C  C5  1  0.82411600  0.03149200  0.18780900  1
  C  C6  1  0.32411600  0.46850800  0.18780900  1
  C  C7  1  0.67588400  0.53149200  0.68780900  1
  C  C8  1  0.55869800  0.21067300  0.54887100  1
  C  C9  1  0.44130200  0.78932700  0.04887100  1
  C  C10  1  0.94130200  0.71067300  0.04887100  1
  C  C11  1  0.05869800  0.28932700  0.54887100  1
  N  N0  1  0.35216300  0.12625400  0.26134600  1
  N  N1  1  0.64783700  0.87374600  0.76134600  1
  N  N2  1  0.14783700  0.62625400  0.76134600  1
  N  N3  1  0.85216300  0.37374600  0.26134600  1
  O  O0  1  0.14558900  0.89919600  0.39969200  1
  O  O1  1  0.85441100  0.10080400  0.89969200  1
  O  O2  1  0.35441100  0.39919600  0.89969200  1
  O  O3  1  0.64558900  0.60080400  0.39969200  1
  O  O4  1  0.23084700  0.69485700  0.48849800  1
  O  O5  1  0.76915300  0.30514300  0.98849800  1
  O  O6  1  0.26915300  0.19485700  0.98849800  1
  O  O7  1  0.73084700  0.80514300  0.48849800  1
  O  O8  1  0.00410500  0.96542800  0.65751600  1
  O  O9  1  0.99589500  0.03457200  0.15751600  1
  O  O10  1  0.49589500  0.46542800  0.15751600  1
  O  O11  1  0.50410500  0.53457200  0.65751600  1
  O  O12  1  0.24008300  0.95569300  0.79420700  1
  O  O13  1  0.75991700  0.04430700  0.29420700  1
  O  O14  1  0.25991700  0.45569300  0.29420700  1
  O  O15  1  0.74008300  0.54430700  0.79420700  1
  O  O16  1  0.65885100  0.10200200  0.55886000  1
  O  O17  1  0.34114900  0.89799800  0.05886000  1
  O  O18  1  0.84114900  0.60200200  0.05886000  1
  O  O19  1  0.15885100  0.39799800  0.55886000  1
  O  O20  1  0.56170400  0.29862500  0.46355800  1
  O  O21  1  0.43829600  0.70137500  0.96355800  1
  O  O22  1  0.93829600  0.79862500  0.96355800  1
  O  O23  1  0.06170400  0.20137500  0.46355800  1
loop_
_geom_bond_atom_site_label_1
_geom_bond_atom_site_label_2
_geom_bond_distance
_geom_bond_site_symmetry_2
Mn0 O16 2.170660 1_555
Mn0 O0 2.172057 1_645
Mn0 O7 2.230678 1_545
Mn0 O8 2.234759 1_645
Mn0 O23 2.237650 1_655
Mn0 O13 2.251034 1_555
Mn1 O17 2.170660 1_556
Mn1 O1 2.172057 1_465
Mn1 O6 2.230678 1_565
Mn1 O9 2.234759 1_466
Mn1 O22 2.237650 1_455
Mn1 O12 2.251034 1_555
Mn2 O18 2.170660 1_556
Mn2 O2 2.172057 1_555
Mn2 O5 2.230678 1_555
Mn2 O10 2.234759 1_556
Mn2 O21 2.237650 1_555
Mn2 O15 2.251034 1_555
Mn3 O19 2.170660 1_555
Mn3 O3 2.172057 1_555
Mn3 O4 2.230678 1_555
Mn3 O11 2.234759 1_555
Mn3 O20 2.237650 1_555
Mn3 O14 2.251034 1_555
H12 N0 1.037776 1_555
H13 N1 1.037776 1_555
H14 N2 1.037776 1_555
H15 N3 1.037776 1_555
H16 N0 1.034443 1_555
H17 N1 1.034443 1_555
H18 N2 1.034443 1_555
H19 N3 1.034443 1_555
H20 N0 1.031826 1_555
H21 N1 1.031826 1_555
H22 N2 1.031826 1_555
H23 N3 1.031826 1_555
H24 N0 1.043519 1_555
H25 N1 1.043519 1_555
H26 N2 1.043519 1_555
H27 N3 1.043519 1_555
C0 H0 1.110427 1_555
C0 O4 1.268472 1_555
C0 O0 1.268756 1_555
C1 H1 1.110427 1_555
C1 O5 1.268472 1_555
C1 O1 1.268756 1_555
C2 H2 1.110427 1_555
C2 O6 1.268472 1_555
C2 O2 1.268756 1_555
C3 H3 1.110427 1_555
C3 O7 1.268472 1_555
C3 O3 1.268756 1_555
C4 H4 1.107431 1_555
C4 O8 1.263622 1_555
C4 O12 1.279557 1_555
C5 H5 1.107431 1_555
C5 O9 1.263622 1_555
C5 O13 1.279557 1_555
C6 H6 1.107431 1_555
C6 O10 1.263622 1_555
C6 O14 1.279557 1_555
C7 H7 1.107431 1_555
C7 O11 1.263622 1_555
C7 O15 1.279557 1_555
C8 H8 1.110850 1_555
C8 O16 1.264116 1_555
C8 O20 1.272473 1_555
C9 H9 1.110850 1_555
C9 O17 1.264116 1_555
C9 O21 1.272473 1_554
C10 H10 1.110850 1_655
C10 O18 1.264116 1_555
C10 O22 1.272473 1_554
C11 H11 1.110850 1_455
C11 O19 1.264116 1_555
C11 O23 1.272473 1_555
