# generated using pymatgen
data_K2LiV5H10O19
_symmetry_space_group_name_H-M   'P 1'
_cell_length_a   8.64308000
_cell_length_b   10.25403156
_cell_length_c   10.93922700
_cell_angle_alpha   110.95532756
_cell_angle_beta   87.05715620
_cell_angle_gamma   112.95602670
_symmetry_Int_Tables_number   1
_chemical_formula_structural   K2LiV5H10O19
_chemical_formula_sum   'K4 Li2 V10 H20 O38'
_cell_volume   829.28702957
_cell_formula_units_Z   2
loop_
 _symmetry_equiv_pos_site_id
 _symmetry_equiv_pos_as_xyz
  1  'x, y, z'
loop_
 _atom_site_type_symbol
 _atom_site_label
 _atom_site_symmetry_multiplicity
 _atom_site_fract_x
 _atom_site_fract_y
 _atom_site_fract_z
 _atom_site_occupancy
  K  K0  1  0.67841800  0.29206700  0.98915900  1
  K  K1  1  0.32158200  0.70793300  0.01084100  1
  K  K2  1  0.23545900  0.32866500  0.57940500  1
  K  K3  1  0.76454100  0.67133500  0.42059500  1
  Li  Li0  1  0.56039700  0.16139700  0.63567200  1
  Li  Li1  1  0.43960300  0.83860300  0.36432800  1
  V  V0  1  0.81331500  0.00341600  0.01889800  1
  V  V1  1  0.18668500  0.99658400  0.98110200  1
  V  V2  1  0.87580000  0.70940100  0.00250600  1
  V  V3  1  0.12420000  0.29059900  0.99749400  1
  V  V4  1  0.97362800  0.99271500  0.74746000  1
  V  V5  1  0.02637200  0.00728500  0.25254000  1
  V  V6  1  0.67077000  0.70862600  0.77217400  1
  V  V7  1  0.32923000  0.29137400  0.22782600  1
  V  V8  1  0.03039100  0.69951000  0.73002400  1
  V  V9  1  0.96960900  0.30049000  0.26997600  1
  H  H0  1  0.89138400  0.25395600  0.73703900  1
  H  H1  1  0.10861600  0.74604400  0.26296100  1
  H  H2  1  0.87750300  0.41157500  0.77616600  1
  H  H3  1  0.12249700  0.58842500  0.22383400  1
  H  H4  1  0.42427400  0.96417200  0.77999400  1
  H  H5  1  0.57572600  0.03582800  0.22000600  1
  H  H6  1  0.60434700  0.97262700  0.74142800  1
  H  H7  1  0.39565300  0.02737300  0.25857200  1
  H  H8  1  0.73558700  0.98573800  0.54191000  1
  H  H9  1  0.26441300  0.01426200  0.45809000  1
  H  H10  1  0.76356400  0.06716500  0.44263100  1
  H  H11  1  0.23643600  0.93283500  0.55736900  1
  H  H12  1  0.59762700  0.25769000  0.43750800  1
  H  H13  1  0.40237300  0.74231000  0.56249200  1
  H  H14  1  0.66581900  0.39779700  0.56789200  1
  H  H15  1  0.33418100  0.60220300  0.43210800  1
  H  H16  1  0.36154500  0.24728900  0.82021200  1
  H  H17  1  0.63845500  0.75271100  0.17978800  1
  H  H18  1  0.50178500  0.40873600  0.82878700  1
  H  H19  1  0.49821500  0.59126400  0.17121300  1
  O  O0  1  0.11228700  0.58916800  0.62987000  1
  O  O1  1  0.88771300  0.41083200  0.37013000  1
  O  O2  1  0.00399700  0.09987700  0.65853500  1
  O  O3  1  0.99600300  0.90012300  0.34146500  1
  O  O4  1  0.83997800  0.60833300  0.09636800  1
  O  O5  1  0.16002200  0.39166700  0.90363200  1
  O  O6  1  0.81794400  0.88300200  0.12244900  1
  O  O7  1  0.18205600  0.11699800  0.87755100  1
  O  O8  1  0.47782800  0.60621600  0.70134000  1
  O  O9  1  0.52217200  0.39378400  0.29866000  1
  O  O10  1  0.93343700  0.87561800  0.89358100  1
  O  O11  1  0.06656300  0.12438200  0.10641900  1
  O  O12  1  0.79953400  0.61082400  0.67042600  1
  O  O13  1  0.20046600  0.38917600  0.32957400  1
  O  O14  1  0.89767300  0.12266500  0.91179200  1
  O  O15  1  0.10232700  0.87733500  0.08820800  1
  O  O16  1  0.62644700  0.87362100  0.92407600  1
  O  O17  1  0.37355300  0.12637900  0.07592400  1
  O  O18  1  0.23581000  0.86166600  0.85276700  1
  O  O19  1  0.76419000  0.13833400  0.14723300  1
  O  O20  1  0.98158700  0.62173300  0.86656900  1
  O  O21  1  0.01841300  0.37826700  0.13343100  1
  O  O22  1  0.75032200  0.86190100  0.69613800  1
  O  O23  1  0.24967800  0.13809900  0.30386200  1
  O  O24  1  0.67228700  0.62787800  0.90268200  1
  O  O25  1  0.32771300  0.37212200  0.09731800  1
  O  O26  1  0.05954800  0.85243300  0.65808100  1
  O  O27  1  0.94045200  0.14756700  0.34191900  1
  O  O28  1  0.81032700  0.30071900  0.74391600  1
  O  O29  1  0.18967300  0.69928100  0.25608400  1
  O  O30  1  0.52670400  0.02366300  0.74898700  1
  O  O31  1  0.47329600  0.97633700  0.25101300  1
  O  O32  1  0.67488900  0.01054600  0.48671700  1
  O  O33  1  0.32511100  0.98945400  0.51328300  1
  O  O34  1  0.57530200  0.29548500  0.52880400  1
  O  O35  1  0.42469800  0.70451500  0.47119600  1
  O  O36  1  0.45939900  0.29863900  0.77966400  1
  O  O37  1  0.54060100  0.70136100  0.22033600  1
loop_
_geom_bond_atom_site_label_1
_geom_bond_atom_site_label_2
_geom_bond_distance
_geom_bond_site_symmetry_2
K0 O4 2.785253 1_556
K0 O17 2.852194 1_556
K0 O28 2.877887 1_555
K0 O30 2.926319 1_555
K0 O14 2.945560 1_555
K0 O19 3.002950 1_556
K0 O21 3.059369 1_656
K1 O5 2.785253 1_554
K1 O16 2.852194 1_554
K1 O29 2.877887 1_555
K1 O31 2.926319 1_555
K1 O15 2.945560 1_555
K1 O18 3.002950 1_554
K1 O20 3.059369 1_454
K2 O8 2.681094 1_555
K2 O2 2.805164 1_555
K2 O23 2.975793 1_555
K2 O13 3.064266 1_555
K2 O34 3.086701 1_555
K2 O0 3.110718 1_555
K2 O36 3.165884 1_555
K2 O27 3.199198 1_455
K3 O9 2.681094 1_555
K3 O3 2.805164 1_555
K3 O22 2.975793 1_555
K3 O12 3.064266 1_555
K3 O35 3.086701 1_555
K3 O1 3.110718 1_555
K3 O37 3.165884 1_555
K3 O26 3.199198 1_655
Li0 O34 2.066360 1_555
Li0 O36 2.110714 1_555
Li0 O30 2.123765 1_555
Li0 O28 2.180537 1_555
Li0 O33 2.197922 1_545
Li0 O32 2.291862 1_555
Li1 O35 2.066360 1_555
Li1 O37 2.110714 1_555
Li1 O31 2.123765 1_555
Li1 O29 2.180537 1_555
Li1 O32 2.197922 1_565
Li1 O33 2.291862 1_555
H0 O28 0.978384 1_555
H1 O29 0.978384 1_555
H2 O28 0.986440 1_555
H3 O29 0.986440 1_555
H4 O30 0.983285 1_565
H5 O31 0.983285 1_545
H6 O30 0.984044 1_565
H7 O31 0.984044 1_545
H8 O32 0.975168 1_565
H9 O33 0.975168 1_545
H10 O32 0.986042 1_555
H11 O33 0.986042 1_555
H12 O34 0.972904 1_555
H13 O35 0.972904 1_555
H14 O34 0.984263 1_555
H15 O35 0.984263 1_555
H16 O36 0.985122 1_555
H17 O37 0.985122 1_555
H18 O36 0.980381 1_555
H19 O37 0.980381 1_555
O0 V8 1.624802 1_555
O1 V9 1.624802 1_555
O2 V4 1.654088 1_445
O3 V5 1.654088 1_665
O4 V2 1.643886 1_555
O5 V3 1.643886 1_555
O6 V0 1.962891 1_565
O6 V5 2.017359 1_665
O6 V2 2.024045 1_555
O7 V1 1.962891 1_545
O7 V4 2.017359 1_445
O7 V3 2.024045 1_555
O8 V6 1.633629 1_555
O9 V7 1.633629 1_555
O10 V0 2.074763 1_566
O10 V1 2.119936 1_655
O10 V4 2.260064 1_555
O10 V2 2.302676 1_556
O10 V6 2.345322 1_555
O10 V8 2.424830 1_655
O11 V1 2.074763 1_544
O11 V0 2.119936 1_455
O11 V5 2.260064 1_555
O11 V3 2.302676 1_554
O11 V7 2.345322 1_555
O11 V9 2.424830 1_455
O12 V6 1.851539 1_555
O12 V8 1.878138 1_655
O13 V7 1.851539 1_555
O13 V9 1.878138 1_455
O14 V0 1.908189 1_556
O14 V3 2.020236 1_655
O14 V4 2.070256 1_545
O15 V1 1.908189 1_554
O15 V2 2.020236 1_455
O15 V5 2.070256 1_565
O16 V0 1.721529 1_566
O16 V6 2.049312 1_555
O17 V1 1.721529 1_544
O17 V7 2.049312 1_555
O18 V1 1.752966 1_555
O18 V8 2.016158 1_555
O19 V0 1.752966 1_555
O19 V9 2.016158 1_555
O20 V2 1.844119 1_556
O20 V8 1.889467 1_655
O21 V3 1.844119 1_554
O21 V9 1.889467 1_455
O22 V4 1.841926 1_555
O22 V6 1.915255 1_555
O23 V5 1.841926 1_555
O23 V7 1.915255 1_555
O24 V2 1.839175 1_556
O24 V6 1.892052 1_555
O25 V3 1.839175 1_554
O25 V7 1.892052 1_555
O26 V4 1.824641 1_455
O26 V8 1.922457 1_555
O27 V5 1.824641 1_655
O27 V9 1.922457 1_555
