# generated using pymatgen
data_Sr2B11HO21
_symmetry_space_group_name_H-M   'P 1'
_cell_length_a   6.80612082
_cell_length_b   6.80612082
_cell_length_c   21.23559971
_cell_angle_alpha   89.17398927
_cell_angle_beta   89.17398927
_cell_angle_gamma   120.87323961
_symmetry_Int_Tables_number   1
_chemical_formula_structural   Sr2B11HO21
_chemical_formula_sum   'Sr4 B22 H2 O42'
_cell_volume   843.95608119
_cell_formula_units_Z   2
loop_
 _symmetry_equiv_pos_site_id
 _symmetry_equiv_pos_as_xyz
  1  'x, y, z'
loop_
 _atom_site_type_symbol
 _atom_site_label
 _atom_site_symmetry_multiplicity
 _atom_site_fract_x
 _atom_site_fract_y
 _atom_site_fract_z
 _atom_site_occupancy
  Sr  Sr0  1  0.24122300  0.61803200  0.12950000  1
  Sr  Sr1  1  0.61803200  0.24122300  0.62950000  1
  Sr  Sr2  1  0.92317700  0.99211100  0.02137900  1
  Sr  Sr3  1  0.99211100  0.92317700  0.52137900  1
  B  B0  1  0.40144800  0.43188400  0.47882200  1
  B  B1  1  0.43188400  0.40144800  0.97882200  1
  B  B2  1  0.64391100  0.25114200  0.48025100  1
  B  B3  1  0.25114200  0.64391100  0.98025100  1
  B  B4  1  0.53426900  0.34108400  0.38002700  1
  B  B5  1  0.34108400  0.53426900  0.88002700  1
  B  B6  1  0.91314300  0.96456400  0.15943000  1
  B  B7  1  0.96456400  0.91314300  0.65943000  1
  B  B8  1  0.73070100  0.20582500  0.16219500  1
  B  B9  1  0.20582500  0.73070100  0.66219500  1
  B  B10  1  0.34263500  0.13141200  0.13826200  1
  B  B11  1  0.13141200  0.34263500  0.63826200  1
  B  B12  1  0.50727300  0.08341700  0.99647700  1
  B  B13  1  0.08341700  0.50727300  0.49647700  1
  B  B14  1  0.82052900  0.06748000  0.25933900  1
  B  B15  1  0.06748000  0.82052900  0.75933900  1
  B  B16  1  0.52488600  0.65687300  0.64354600  1
  B  B17  1  0.65687300  0.52488600  0.14354600  1
  B  B18  1  0.47938300  0.82223400  0.50136900  1
  B  B19  1  0.82223400  0.47938300  0.00137000  1
  B  B20  1  0.23561900  0.64240200  0.29001100  1
  B  B21  1  0.64240200  0.23561900  0.79001100  1
  H  H0  1  0.03437500  0.89236600  0.39862600  1
  H  H1  1  0.89236600  0.03437500  0.89862600  1
  O  O0  1  0.55379900  0.66912200  0.50165900  1
  O  O1  1  0.66912200  0.55379900  0.00165900  1
  O  O2  1  0.70837100  0.74715500  0.13709900  1
  O  O3  1  0.74715500  0.70837100  0.63709900  1
  O  O4  1  0.15620000  0.35375400  0.49458100  1
  O  O5  1  0.35375400  0.15620000  0.99458100  1
  O  O6  1  0.89506500  0.15589200  0.13202400  1
  O  O7  1  0.15589200  0.89506500  0.63202400  1
  O  O8  1  0.32593300  0.54861700  0.25052500  1
  O  O9  1  0.54861700  0.32593300  0.75052500  1
  O  O10  1  0.21864100  0.65089400  0.35255900  1
  O  O11  1  0.65089400  0.21864100  0.85255900  1
  O  O12  1  0.82159800  0.04974000  0.32449400  1
  O  O13  1  0.04974000  0.82159800  0.82449400  1
  O  O14  1  0.15808500  0.73509100  0.24455700  1
  O  O15  1  0.73509100  0.15808500  0.74455700  1
  O  O16  1  0.11618000  0.97183200  0.12941300  1
  O  O17  1  0.97183200  0.11618000  0.62941300  1
  O  O18  1  0.92195400  0.96780200  0.22729600  1
  O  O19  1  0.96780200  0.92195400  0.72729600  1
  O  O20  1  0.26675100  0.45152700  0.00796500  1
  O  O21  1  0.45152700  0.26675100  0.50796500  1
  O  O22  1  0.42952000  0.44208900  0.40958300  1
  O  O23  1  0.44208900  0.42952000  0.90958300  1
  O  O24  1  0.52796200  0.34243300  0.31476400  1
  O  O25  1  0.34243300  0.52796200  0.81476400  1
  O  O26  1  0.42039300  0.36338500  0.14216900  1
  O  O27  1  0.36338500  0.42039300  0.64216900  1
  O  O28  1  0.45111700  0.80886300  0.64586400  1
  O  O29  1  0.80886300  0.45111700  0.14586400  1
  O  O30  1  0.64197700  0.04842700  0.50807100  1
  O  O31  1  0.04842700  0.64197700  0.00807100  1
  O  O32  1  0.72316000  0.17677400  0.23098500  1
  O  O33  1  0.17677400  0.72316000  0.73098500  1
  O  O34  1  0.45804900  0.86203500  0.00120800  1
  O  O35  1  0.86203500  0.45804900  0.50120800  1
  O  O36  1  0.74441700  0.24626900  0.99859400  1
  O  O37  1  0.24626900  0.74441700  0.49859400  1
  O  O38  1  0.63726900  0.24274900  0.41169500  1
  O  O39  1  0.24274900  0.63726900  0.91169500  1
  O  O40  1  0.49453400  0.05637400  0.13826200  1
  O  O41  1  0.05637400  0.49453400  0.63826200  1
loop_
_geom_bond_atom_site_label_1
_geom_bond_atom_site_label_2
_geom_bond_distance
_geom_bond_site_symmetry_2
B0 O21 1.463398 1_555
B0 O22 1.475988 1_555
B0 O0 1.495439 1_555
B0 O4 1.499592 1_555
B1 O20 1.463398 1_556
B1 O23 1.475988 1_555
B1 O1 1.495439 1_556
B1 O5 1.499592 1_555
B2 O38 1.458213 1_555
B2 O21 1.481381 1_555
B2 O30 1.486743 1_555
B2 O35 1.508871 1_555
B3 O39 1.458213 1_555
B3 O20 1.481381 1_556
B3 O31 1.486743 1_556
B3 O34 1.508871 1_556
B4 O38 1.368851 1_555
B4 O22 1.370155 1_555
B4 O24 1.387226 1_555
B5 O39 1.368851 1_555
B5 O23 1.370155 1_555
B5 O25 1.387226 1_555
B6 O18 1.443301 1_555
B6 O6 1.481290 1_565
B6 O16 1.490615 1_655
B6 O2 1.509848 1_555
B7 O19 1.443301 1_555
B7 O7 1.481290 1_655
B7 O17 1.490615 1_565
B7 O3 1.509848 1_555
B8 O6 1.467389 1_555
B8 O32 1.467908 1_555
B8 O40 1.495702 1_555
B8 O29 1.502322 1_555
B9 O7 1.467389 1_555
B9 O33 1.467908 1_555
B9 O41 1.495702 1_555
B9 O28 1.502322 1_555
B10 O40 1.368043 1_555
B10 O16 1.373586 1_545
B10 O26 1.388239 1_555
B11 O41 1.368043 1_555
B11 O17 1.373586 1_455
B11 O27 1.388239 1_555
B12 O34 1.367201 1_546
B12 O5 1.367699 1_555
B12 O36 1.415338 1_555
B13 O35 1.367201 1_455
B13 O4 1.367699 1_555
B13 O37 1.415338 1_555
B14 O32 1.363661 1_555
B14 O18 1.371202 1_545
B14 O12 1.387577 1_555
B15 O33 1.363661 1_555
B15 O19 1.371202 1_455
B15 O13 1.387577 1_555
B16 O28 1.363235 1_555
B16 O3 1.370621 1_555
B16 O27 1.409338 1_555
B17 O29 1.363235 1_555
B17 O2 1.370621 1_555
B17 O26 1.409338 1_555
B18 O30 1.370172 1_565
B18 O0 1.372631 1_555
B18 O37 1.393731 1_555
B19 O31 1.370169 1_655
B19 O1 1.372631 1_555
B19 O36 1.393732 1_554
B20 O10 1.336252 1_555
B20 O8 1.375364 1_555
B20 O14 1.395323 1_555
B21 O11 1.336252 1_555
B21 O9 1.375364 1_555
B21 O15 1.395323 1_555
H0 Sr3 2.641558 1_455
H1 Sr2 2.641558 1_546
O0 Sr3 2.612996 1_555
O1 Sr2 2.612996 1_555
O2 Sr0 2.838772 1_555
O2 Sr2 2.869236 1_555
O3 Sr1 2.838772 1_555
O3 Sr3 2.869236 1_555
O4 Sr3 2.594992 1_445
O5 Sr2 2.594992 1_446
O6 Sr2 2.661074 1_545
O6 Sr0 2.798793 1_655
O7 Sr3 2.661074 1_455
O7 Sr1 2.798793 1_565
O8 Sr0 2.729097 1_555
O9 Sr1 2.729097 1_555
O14 Sr0 2.720958 1_555
O15 Sr1 2.720958 1_555
O16 Sr2 2.696596 1_455
O16 Sr0 2.936992 1_555
O17 Sr3 2.696596 1_545
O17 Sr1 2.936992 1_555
O20 Sr2 2.788826 1_445
O20 Sr0 2.872073 1_555
O21 Sr3 2.788826 1_445
O21 Sr1 2.872073 1_555
O26 Sr0 2.593906 1_555
O27 Sr1 2.593906 1_555
O28 Sr1 2.568861 1_565
O29 Sr0 2.568861 1_655
O30 Sr3 2.929650 1_545
O30 Sr1 2.950016 1_555
O31 Sr2 2.929650 1_455
O31 Sr0 2.950016 1_555
O34 Sr2 2.857052 1_555
O34 Sr0 3.097798 1_555
O35 Sr3 2.857052 1_555
O35 Sr1 3.097798 1_555
O36 Sr2 2.619058 1_546
O37 Sr3 2.619058 1_455
O40 Sr0 2.579580 1_545
O41 Sr1 2.579580 1_455
