# generated using pymatgen
data_Gd8MgAlNi2
_symmetry_space_group_name_H-M   'P 1'
_cell_length_a   9.63804673
_cell_length_b   9.64592505
_cell_length_c   9.63761693
_cell_angle_alpha   89.97712148
_cell_angle_beta   59.58567098
_cell_angle_gamma   119.59453814
_symmetry_Int_Tables_number   1
_chemical_formula_structural   Gd8MgAlNi2
_chemical_formula_sum   'Gd16 Mg2 Al2 Ni4'
_cell_volume   633.31575967
_cell_formula_units_Z   2
loop_
 _symmetry_equiv_pos_site_id
 _symmetry_equiv_pos_as_xyz
  1  'x, y, z'
loop_
 _atom_site_type_symbol
 _atom_site_label
 _atom_site_symmetry_multiplicity
 _atom_site_fract_x
 _atom_site_fract_y
 _atom_site_fract_z
 _atom_site_occupancy
  Gd  Gd0  1  0.69300468  0.34795570  0.95744890  1
  Gd  Gd1  1  0.30575952  0.34812652  0.34567683  1
  Gd  Gd2  1  0.30178997  0.95474558  0.34725271  1
  Gd  Gd3  1  0.69808446  0.35121015  0.34836822  1
  Gd  Gd4  1  0.37954417  0.19036221  0.81084719  1
  Gd  Gd5  1  0.99887033  0.81003933  0.80999805  1
  Gd  Gd6  1  0.00186632  0.18702923  0.81345939  1
  Gd  Gd7  1  0.62016354  0.80921063  0.18785035  1
  Gd  Gd8  1  0.00084372  0.18975462  0.18989865  1
  Gd  Gd9  1  0.00118819  0.80704740  0.19329077  1
  Gd  Gd10  1  0.12879932  0.56377343  0.93971888  1
  Gd  Gd11  1  0.49592169  0.93141453  0.94048886  1
  Gd  Gd12  1  0.49952221  0.56457184  0.93727973  1
  Gd  Gd13  1  0.86929157  0.93073848  0.56559699  1
  Gd  Gd14  1  0.50315301  0.56370778  0.56566793  1
  Gd  Gd15  1  0.49904250  0.93425895  0.56549845  1
  Mg  Mg0  1  0.84561296  0.27191152  0.57447584  1
  Mg  Mg1  1  0.15439564  0.58075815  0.57340526  1
  Al  Al0  1  0.15524125  0.58099249  0.26308466  1
  Al  Al1  1  0.84617466  0.58241769  0.57200843  1
  Ni  Ni0  1  0.28440901  0.14115449  0.57330718  1
  Ni  Ni1  1  0.71591927  0.14252907  0.14209558  1
  Ni  Ni2  1  0.71820839  0.57460819  0.14136879  1
  Ni  Ni3  1  0.28319362  0.14168203  0.14191236  1
loop_
_geom_bond_atom_site_label_1
_geom_bond_atom_site_label_2
_geom_bond_distance
_geom_bond_site_symmetry_2
Gd0 Ni3 2.800960 1_556
Gd0 Ni2 2.809845 1_556
Gd0 Ni1 2.823015 1_556
Gd0 Mg0 3.449009 1_555
Gd0 Mg1 3.461531 1_655
Gd0 Gd12 3.477980 1_555
Gd0 Gd11 3.543320 1_545
Gd0 Gd10 3.555458 1_655
Gd1 Ni3 2.806615 1_555
Gd1 Ni2 2.818806 1_555
Gd1 Ni0 2.823928 1_555
Gd1 Mg0 3.456602 1_455
Gd1 Mg1 3.460633 1_555
Gd1 Gd12 3.469649 1_554
Gd1 Gd14 3.552306 1_555
Gd1 Gd13 3.554592 1_445
Gd2 Ni3 2.806327 1_565
Gd2 Ni0 2.817572 1_565
Gd2 Ni1 2.826173 1_565
Gd2 Mg1 3.402837 1_555
Gd3 Ni2 2.802330 1_555
Gd3 Ni0 2.822645 1_555
Gd3 Ni1 2.834152 1_555
Gd3 Mg0 3.400828 1_555
Gd4 Ni3 2.798462 1_556
Gd4 Ni0 2.829022 1_555
Gd4 Mg0 3.483371 1_555
Gd5 Ni2 2.802406 1_556
Gd5 Ni0 2.816825 1_665
Gd5 Mg1 3.486441 1_655
Gd6 Ni0 2.788872 1_555
Gd6 Ni1 2.793506 1_456
Gd6 Mg0 3.601609 1_455
Gd6 Mg1 3.601705 1_555
Gd7 Ni2 2.810507 1_555
Gd7 Ni1 2.835395 1_565
Gd7 Mg1 3.485512 1_555
Gd8 Ni3 2.794043 1_555
Gd8 Ni1 2.829569 1_455
Gd8 Mg0 3.487513 1_455
Gd9 Ni3 2.832355 1_565
Gd9 Ni2 2.838797 1_455
Gd10 Mg1 3.410153 1_555
Gd10 Gd3 3.461325 1_456
Gd10 Ni2 3.474167 1_456
Gd10 Ni1 3.509175 1_456
Gd10 Gd12 3.557392 1_555
Gd10 Gd11 3.567722 1_555
Gd10 Gd9 3.578203 1_556
Gd10 Gd14 3.584206 1_555
Gd10 Gd15 3.588252 1_555
Gd10 Gd8 3.596965 1_556
Gd10 Gd5 3.646220 1_455
Gd10 Gd6 3.647360 1_555
Gd11 Mg0 3.407260 1_565
Gd11 Gd2 3.451042 1_556
Gd11 Ni3 3.488042 1_566
Gd11 Ni1 3.511087 1_566
Gd11 Gd12 3.555797 1_555
Gd11 Gd9 3.563236 1_556
Gd11 Gd7 3.576174 1_556
Gd11 Gd13 3.586469 1_555
Gd11 Gd15 3.598861 1_555
Gd11 Gd4 3.638935 1_565
Gd11 Gd6 3.665267 1_665
Gd12 Ni3 3.507976 1_556
Gd12 Ni2 3.509526 1_556
Gd12 Gd13 3.555141 1_555
Gd12 Gd14 3.563918 1_555
Gd12 Gd7 3.590223 1_556
Gd12 Gd5 3.610847 1_555
Gd12 Gd8 3.616771 1_556
Gd12 Gd4 3.627473 1_555
Gd13 Mg0 3.407623 1_565
Gd13 Gd2 3.467346 1_655
Gd13 Ni3 3.494375 1_665
Gd13 Ni0 3.523177 1_665
Gd13 Gd14 3.555916 1_555
Gd13 Gd9 3.577356 1_655
Gd13 Gd15 3.585849 1_555
Gd13 Gd5 3.588279 1_555
Gd13 Gd8 3.629865 1_665
Gd13 Gd6 3.664122 1_665
Gd14 Mg1 3.409322 1_555
Gd14 Gd3 3.455483 1_555
Gd14 Ni2 3.497381 1_555
Gd14 Ni0 3.523965 1_555
Gd14 Gd9 3.585074 1_655
Gd14 Gd4 3.588479 1_555
Gd14 Gd15 3.594048 1_555
Gd14 Gd6 3.635843 1_555
Gd14 Gd7 3.651853 1_555
Gd15 Mg1 3.350036 1_555
Gd15 Mg0 3.364524 1_565
Gd15 Ni0 3.491127 1_565
Gd15 Ni1 3.502286 1_565
Gd15 Gd2 3.535110 1_555
Gd15 Gd3 3.541567 1_565
Gd15 Gd5 3.608097 1_455
Gd15 Gd8 3.614134 1_665
Gd15 Gd4 3.616332 1_565
Gd15 Gd7 3.627255 1_555
Mg0 Mg1 2.990638 1_655
Al0 Al1 2.966238 1_455
Al0 Mg1 2.986630 1_555
Al0 Mg0 2.989621 1_455
Al0 Gd11 3.250540 1_554
Al0 Gd10 3.250802 1_554
Al0 Gd12 3.296243 1_554
Al0 Gd9 3.408731 1_555
Al0 Gd3 3.418735 1_455
Al0 Gd2 3.432673 1_555
Al0 Gd1 3.488538 1_555
Al0 Gd7 3.523724 1_555
Al0 Gd8 3.531553 1_555
Al1 Mg1 2.985406 1_655
Al1 Mg0 2.992513 1_555
Al1 Gd14 3.252930 1_555
Al1 Gd13 3.254033 1_555
Al1 Gd12 3.332848 1_555
Al1 Gd9 3.394699 1_655
Al1 Gd3 3.410447 1_555
Al1 Gd2 3.414572 1_655
Al1 Gd0 3.498075 1_555
Al1 Gd5 3.532369 1_555
Al1 Gd4 3.541031 1_555
