# generated using pymatgen
data_Ce6Cd4Pd13
_symmetry_space_group_name_H-M   'P 1'
_cell_length_a   8.53966173
_cell_length_b   8.53966173
_cell_length_c   8.53966173
_cell_angle_alpha   109.47122063
_cell_angle_beta   109.47122063
_cell_angle_gamma   109.47122063
_symmetry_Int_Tables_number   1
_chemical_formula_structural   Ce6Cd4Pd13
_chemical_formula_sum   'Ce6 Cd4 Pd13'
_cell_volume   479.40230007
_cell_formula_units_Z   1
loop_
 _symmetry_equiv_pos_site_id
 _symmetry_equiv_pos_as_xyz
  1  'x, y, z'
loop_
 _atom_site_type_symbol
 _atom_site_label
 _atom_site_symmetry_multiplicity
 _atom_site_fract_x
 _atom_site_fract_y
 _atom_site_fract_z
 _atom_site_occupancy
  Ce  Ce0  1  0.30009000  0.00000000  0.30009000  1
  Ce  Ce1  1  0.69991000  0.00000000  0.69991000  1
  Ce  Ce2  1  0.30009000  0.30009000  0.00000000  1
  Ce  Ce3  1  0.69991000  0.69991000  0.00000000  1
  Ce  Ce4  1  0.00000000  0.30009000  0.30009000  1
  Ce  Ce5  1  0.00000000  0.69991000  0.69991000  1
  Cd  Cd0  1  0.50000000  0.00000000  0.00000000  1
  Cd  Cd1  1  0.00000000  0.00000000  0.50000000  1
  Cd  Cd2  1  0.00000000  0.50000000  0.00000000  1
  Cd  Cd3  1  0.50000000  0.50000000  0.50000000  1
  Pd  Pd0  1  0.00000000  0.00000000  0.00000000  1
  Pd  Pd1  1  0.34565000  0.00000000  0.65435000  1
  Pd  Pd2  1  0.65435000  0.00000000  0.34565000  1
  Pd  Pd3  1  0.34565000  0.69130000  0.34565000  1
  Pd  Pd4  1  0.65435000  0.30870000  0.65435000  1
  Pd  Pd5  1  0.65435000  0.34565000  0.00000000  1
  Pd  Pd6  1  0.34565000  0.65435000  0.00000000  1
  Pd  Pd7  1  0.34565000  0.34565000  0.69130000  1
  Pd  Pd8  1  0.65435000  0.65435000  0.30870000  1
  Pd  Pd9  1  0.00000000  0.65435000  0.34565000  1
  Pd  Pd10  1  0.00000000  0.34565000  0.65435000  1
  Pd  Pd11  1  0.69130000  0.34565000  0.34565000  1
  Pd  Pd12  1  0.30870000  0.65435000  0.65435000  1
loop_
_geom_bond_atom_site_label_1
_geom_bond_atom_site_label_2
_geom_bond_distance
_geom_bond_site_symmetry_2
Ce0 Pd3 2.918714 1_545
Ce0 Pd4 2.918714 1_555
Ce0 Pd1 2.918714 1_555
Ce0 Pd2 2.918714 1_555
Ce0 Pd0 2.959113 1_555
Ce0 Pd9 3.437850 1_545
Ce0 Pd6 3.437850 1_545
Ce0 Pd7 3.437850 1_555
Ce0 Pd11 3.437850 1_555
Ce1 Pd4 2.918714 1_555
Ce1 Pd2 2.918714 1_555
Ce1 Pd3 2.918714 1_545
Ce1 Pd1 2.918714 1_555
Ce1 Pd0 2.959113 1_656
Ce1 Pd5 3.437850 1_556
Ce1 Pd10 3.437850 1_655
Ce1 Pd8 3.437850 1_545
Ce1 Pd12 3.437850 1_545
Ce2 Pd7 2.918714 1_554
Ce2 Pd6 2.918714 1_555
Ce2 Pd8 2.918714 1_555
Ce2 Pd5 2.918714 1_555
Ce2 Pd0 2.959113 1_555
Ce2 Pd1 3.437850 1_554
Ce2 Pd10 3.437850 1_554
Ce2 Pd3 3.437850 1_555
Ce2 Pd11 3.437850 1_555
Ce3 Pd7 2.918714 1_554
Ce3 Pd8 2.918714 1_555
Ce3 Pd5 2.918714 1_555
Ce3 Pd6 2.918714 1_555
Ce3 Pd0 2.959113 1_665
Ce3 Pd9 3.437850 1_655
Ce3 Pd2 3.437850 1_565
Ce3 Pd4 3.437850 1_554
Ce3 Pd12 3.437850 1_554
Ce4 Pd11 2.918714 1_455
Ce4 Pd10 2.918714 1_555
Ce4 Pd12 2.918714 1_555
Ce4 Pd9 2.918714 1_555
Ce4 Pd0 2.959113 1_555
Ce4 Pd2 3.437850 1_455
Ce4 Pd5 3.437850 1_455
Ce4 Pd3 3.437850 1_555
Ce4 Pd7 3.437850 1_555
Ce5 Pd12 2.918714 1_555
Ce5 Pd11 2.918714 1_455
Ce5 Pd9 2.918714 1_555
Ce5 Pd10 2.918714 1_555
Ce5 Pd0 2.959113 1_566
Ce5 Pd1 3.437850 1_565
Ce5 Pd6 3.437850 1_556
Ce5 Pd4 3.437850 1_455
Ce5 Pd8 3.437850 1_455
Cd0 Pd12 2.802915 1_544
Cd0 Pd1 2.802915 1_554
Cd0 Pd6 2.802915 1_545
Cd0 Pd11 2.802915 1_555
Cd0 Pd5 2.802915 1_555
Cd0 Pd2 2.802915 1_555
Cd1 Pd8 2.802915 1_445
Cd1 Pd9 2.802915 1_545
Cd1 Pd2 2.802915 1_455
Cd1 Pd10 2.802915 1_555
Cd1 Pd7 2.802915 1_555
Cd1 Pd1 2.802915 1_555
Cd2 Pd4 2.802915 1_454
Cd2 Pd10 2.802915 1_554
Cd2 Pd5 2.802915 1_455
Cd2 Pd6 2.802915 1_555
Cd2 Pd3 2.802915 1_555
Cd2 Pd9 2.802915 1_555
Cd3 Pd7 2.802915 1_555
Cd3 Pd11 2.802915 1_555
Cd3 Pd3 2.802915 1_555
Cd3 Pd4 2.802915 1_555
Cd3 Pd8 2.802915 1_555
Cd3 Pd12 2.802915 1_555
Pd1 Pd12 2.862057 1_545
Pd1 Pd9 2.862057 1_545
Pd1 Pd5 2.862057 1_556
Pd1 Pd7 2.862057 1_555
Pd1 Pd3 3.044014 1_545
Pd1 Pd4 3.044014 1_555
Pd2 Pd8 2.862057 1_545
Pd2 Pd6 2.862057 1_545
Pd2 Pd3 3.044014 1_545
Pd2 Pd4 3.044014 1_555
Pd3 Pd9 2.862057 1_555
Pd3 Pd6 2.862057 1_555
Pd3 Pd8 2.862057 1_555
Pd4 Pd5 2.862057 1_556
Pd4 Pd7 2.862057 1_555
Pd5 Pd9 2.862057 1_655
Pd5 Pd8 3.044014 1_555
Pd5 Pd7 3.044014 1_554
Pd6 Pd8 3.044014 1_555
Pd6 Pd7 3.044014 1_554
Pd8 Pd9 2.862057 1_655
Pd10 Pd4 2.862057 1_455
Pd10 Pd2 2.862057 1_455
Pd10 Pd6 2.862057 1_556
Pd10 Pd7 2.862057 1_555
Pd10 Pd11 3.044014 1_455
Pd10 Pd12 3.044014 1_555
Pd11 Pd5 2.862057 1_555
Pd11 Pd2 2.862057 1_555
Pd11 Pd8 2.862057 1_555
Pd11 Pd4 2.862057 1_555
Pd11 Pd9 3.044014 1_655
Pd12 Pd6 2.862057 1_556
Pd12 Pd7 2.862057 1_555
Pd12 Pd3 2.862057 1_555
Pd12 Pd9 3.044014 1_555
