# generated using pymatgen
data_CsSm(WO4)2
_symmetry_space_group_name_H-M   'P 1'
_cell_length_a   7.74736584
_cell_length_b   7.74736584
_cell_length_c   7.59499899
_cell_angle_alpha   62.98827434
_cell_angle_beta   62.98827434
_cell_angle_gamma   89.45515508
_symmetry_Int_Tables_number   1
_chemical_formula_structural   CsSm(WO4)2
_chemical_formula_sum   'Cs2 Sm2 W4 O16'
_cell_volume   350.53781650
_cell_formula_units_Z   2
loop_
 _symmetry_equiv_pos_site_id
 _symmetry_equiv_pos_as_xyz
  1  'x, y, z'
loop_
 _atom_site_type_symbol
 _atom_site_label
 _atom_site_symmetry_multiplicity
 _atom_site_fract_x
 _atom_site_fract_y
 _atom_site_fract_z
 _atom_site_occupancy
  Cs  Cs0  1  0.19817900  0.80182100  0.75000000  1
  Cs  Cs1  1  0.80182100  0.19817900  0.25000000  1
  Sm  Sm0  1  0.77557800  0.22442200  0.75000000  1
  Sm  Sm1  1  0.22442200  0.77557800  0.25000000  1
  W  W0  1  0.69692600  0.68503400  0.78233700  1
  W  W1  1  0.30307400  0.31496600  0.21766300  1
  W  W2  1  0.31496600  0.30307400  0.71766300  1
  W  W3  1  0.68503400  0.69692600  0.28233700  1
  O  O0  1  0.62073400  0.74633900  0.56497100  1
  O  O1  1  0.37926600  0.25366100  0.43502900  1
  O  O2  1  0.25366100  0.37926600  0.93502900  1
  O  O3  1  0.74633900  0.62073400  0.06497100  1
  O  O4  1  0.37816600  0.06729200  0.86868700  1
  O  O5  1  0.62183400  0.93270800  0.13131300  1
  O  O6  1  0.93270800  0.62183400  0.63131300  1
  O  O7  1  0.06729200  0.37816600  0.36868700  1
  O  O8  1  0.58699700  0.37197900  0.96874800  1
  O  O9  1  0.41300300  0.62802100  0.03125200  1
  O  O10  1  0.62802100  0.41300300  0.53125200  1
  O  O11  1  0.37197900  0.58699700  0.46874800  1
  O  O12  1  0.78227200  0.94444600  0.69928600  1
  O  O13  1  0.21772800  0.05555400  0.30071400  1
  O  O14  1  0.05555400  0.21772800  0.80071400  1
  O  O15  1  0.94444600  0.78227200  0.19928600  1
loop_
_geom_bond_atom_site_label_1
_geom_bond_atom_site_label_2
_geom_bond_distance
_geom_bond_site_symmetry_2
Cs0 O13 2.995719 1_565
Cs0 O15 2.995719 1_456
Cs0 O2 3.036401 1_555
Cs0 O0 3.036401 1_555
Cs0 O3 3.063201 1_456
Cs0 O1 3.063201 1_565
Cs0 O11 3.117697 1_555
Cs0 O9 3.117697 1_556
Cs0 O4 3.141236 1_565
Cs0 O6 3.141236 1_455
Cs0 O14 3.524885 1_565
Cs0 O12 3.524885 1_455
Cs1 O14 2.995719 1_654
Cs1 O12 2.995719 1_545
Cs1 O3 3.036401 1_555
Cs1 O1 3.036401 1_555
Cs1 O0 3.063201 1_545
Cs1 O2 3.063201 1_654
Cs1 O10 3.117697 1_555
Cs1 O8 3.117697 1_554
Cs1 O7 3.141236 1_655
Cs1 O5 3.141236 1_545
Cs1 O13 3.524885 1_655
Cs1 O15 3.524885 1_545
O0 W0 1.862013 1_555
O0 W3 2.184974 1_555
O1 W1 1.862013 1_555
O1 W2 2.184974 1_555
O2 W2 1.862013 1_555
O2 W1 2.184974 1_556
O3 W3 1.862013 1_555
O3 W0 2.184974 1_554
O4 W2 1.866044 1_555
O4 Sm1 2.426147 1_546
O4 Sm0 2.885756 1_555
O5 W3 1.866044 1_555
O5 Sm0 2.426147 1_564
O5 Sm1 2.885756 1_555
O6 W0 1.866044 1_555
O6 Sm1 2.426147 1_655
O6 Sm0 2.885756 1_555
O7 W1 1.866044 1_555
O7 Sm0 2.426147 1_455
O7 Sm1 2.885756 1_555
O8 W1 2.022438 1_556
O8 W0 2.106437 1_555
O8 Sm0 2.385416 1_555
O9 W0 2.022438 1_554
O9 W1 2.106437 1_555
O9 Sm1 2.385416 1_555
O10 W3 2.022438 1_555
O10 W2 2.106437 1_555
O10 Sm0 2.385416 1_555
O11 W2 2.022438 1_555
O11 W3 2.106437 1_555
O11 Sm1 2.385416 1_555
O12 W0 1.835516 1_555
O12 Sm0 2.365280 1_565
O13 W1 1.835516 1_555
O13 Sm1 2.365280 1_545
O14 W2 1.835516 1_555
O14 Sm0 2.365280 1_455
O15 W3 1.835516 1_555
O15 Sm1 2.365280 1_655
