# generated using pymatgen
data_HfGa4Co
_symmetry_space_group_name_H-M   'P 1'
_cell_length_a   4.09590300
_cell_length_b   4.09590300
_cell_length_c   6.40737200
_cell_angle_alpha   90.00000000
_cell_angle_beta   90.00000000
_cell_angle_gamma   90.00000000
_symmetry_Int_Tables_number   1
_chemical_formula_structural   HfGa4Co
_chemical_formula_sum   'Hf1 Ga4 Co1'
_cell_volume   107.49277265
_cell_formula_units_Z   1
loop_
 _symmetry_equiv_pos_site_id
 _symmetry_equiv_pos_as_xyz
  1  'x, y, z'
loop_
 _atom_site_type_symbol
 _atom_site_label
 _atom_site_symmetry_multiplicity
 _atom_site_fract_x
 _atom_site_fract_y
 _atom_site_fract_z
 _atom_site_occupancy
  Hf  Hf0  1  0.00000000  0.00000000  0.00000000  1
  Ga  Ga0  1  0.50000000  0.00000000  0.70678800  1
  Ga  Ga1  1  0.00000000  0.50000000  0.70678800  1
  Ga  Ga2  1  0.50000000  0.00000000  0.29321200  1
  Ga  Ga3  1  0.00000000  0.50000000  0.29321200  1
  Co  Co0  1  0.00000000  0.00000000  0.50000000  1
loop_
_geom_bond_atom_site_label_1
_geom_bond_atom_site_label_2
_geom_bond_distance
_geom_bond_site_symmetry_2
Ga0 Ga2 2.649935 1_555
Ga0 Hf0 2.779152 1_656
Ga0 Hf0 2.779152 1_556
Ga0 Ga1 2.896241 1_545
Ga0 Ga1 2.896241 1_555
Ga0 Ga1 2.896241 1_645
Ga0 Ga1 2.896241 1_655
Ga1 Ga3 2.649935 1_555
Ga1 Hf0 2.779152 1_566
Ga1 Hf0 2.779152 1_556
Ga2 Hf0 2.779152 1_655
Ga2 Hf0 2.779152 1_555
Ga2 Ga3 2.896241 1_645
Ga2 Ga3 2.896241 1_655
Ga2 Ga3 2.896241 1_545
Ga2 Ga3 2.896241 1_555
Ga3 Hf0 2.779152 1_565
Ga3 Hf0 2.779152 1_555
Co0 Ga0 2.439189 1_555
Co0 Ga1 2.439189 1_545
Co0 Ga0 2.439189 1_455
Co0 Ga1 2.439189 1_555
Co0 Ga3 2.439189 1_545
Co0 Ga2 2.439189 1_455
Co0 Ga2 2.439189 1_555
Co0 Ga3 2.439189 1_555
