# generated using pymatgen
data_BaSrCaWO6
_symmetry_space_group_name_H-M   'P 1'
_cell_length_a   5.93057098
_cell_length_b   5.93057098
_cell_length_c   5.98633769
_cell_angle_alpha   60.22622977
_cell_angle_beta   60.22622977
_cell_angle_gamma   60.32128729
_symmetry_Int_Tables_number   1
_chemical_formula_structural   BaSrCaWO6
_chemical_formula_sum   'Ba1 Sr1 Ca1 W1 O6'
_cell_volume   149.74987944
_cell_formula_units_Z   1
loop_
 _symmetry_equiv_pos_site_id
 _symmetry_equiv_pos_as_xyz
  1  'x, y, z'
loop_
 _atom_site_type_symbol
 _atom_site_label
 _atom_site_symmetry_multiplicity
 _atom_site_fract_x
 _atom_site_fract_y
 _atom_site_fract_z
 _atom_site_occupancy
  Ba  Ba0  1  0.75056900  0.75056900  0.24610700  1
  Sr  Sr0  1  0.24791200  0.24791200  0.76809100  1
  Ca  Ca0  1  0.00089700  0.00089700  0.50005400  1
  W  W0  1  0.50025800  0.50025800  0.99919100  1
  O  O0  1  0.29827800  0.78014400  0.17719500  1
  O  O1  1  0.23648800  0.68260300  0.80364600  1
  O  O2  1  0.68260300  0.23648800  0.80364600  1
  O  O3  1  0.78014400  0.29827800  0.17719500  1
  O  O4  1  0.27462000  0.27462000  0.31145500  1
  O  O5  1  0.72823100  0.72823100  0.71341800  1
loop_
_geom_bond_atom_site_label_1
_geom_bond_atom_site_label_2
_geom_bond_distance
_geom_bond_site_symmetry_2
Ba0 O5 2.672499 1_555
Ba0 O1 2.795017 1_654
Ba0 O2 2.795017 1_564
Ba0 O3 2.820838 1_555
Ba0 O0 2.820838 1_555
Ba0 O4 3.033671 1_565
Ba0 O4 3.033671 1_655
Ba0 O3 3.148560 1_565
Ba0 O0 3.148560 1_655
Ba0 O2 3.220575 1_555
Ba0 O1 3.220575 1_555
Ba0 O5 3.325718 1_554
Ca0 O1 2.306798 1_545
Ca0 O2 2.306798 1_455
Ca0 O5 2.312597 1_445
Ca0 O3 2.324028 1_455
Ca0 O0 2.324028 1_545
Ca0 O4 2.348241 1_555
O0 W0 1.961011 1_554
O0 Sr0 2.634638 1_564
O1 W0 1.967997 1_555
O1 Sr0 2.655836 1_555
O2 W0 1.967997 1_555
O2 Sr0 2.655836 1_555
O3 W0 1.961011 1_554
O3 Sr0 2.634638 1_654
O4 W0 1.969852 1_554
O4 Sr0 2.586007 1_555
O5 W0 1.948957 1_555
