# generated using pymatgen
data_BaCu4O7
_symmetry_space_group_name_H-M   'P 1'
_cell_length_a   6.39614247
_cell_length_b   6.39614247
_cell_length_c   10.32056900
_cell_angle_alpha   90.00000000
_cell_angle_beta   90.00000000
_cell_angle_gamma   120.00000485
_symmetry_Int_Tables_number   1
_chemical_formula_structural   BaCu4O7
_chemical_formula_sum   'Ba2 Cu8 O14'
_cell_volume   365.65415244
_cell_formula_units_Z   2
loop_
 _symmetry_equiv_pos_site_id
 _symmetry_equiv_pos_as_xyz
  1  'x, y, z'
loop_
 _atom_site_type_symbol
 _atom_site_label
 _atom_site_symmetry_multiplicity
 _atom_site_fract_x
 _atom_site_fract_y
 _atom_site_fract_z
 _atom_site_occupancy
  Ba  Ba0  1  0.66666700  0.33333300  0.49251600  1
  Ba  Ba1  1  0.33333300  0.66666700  0.99251600  1
  Cu  Cu0  1  0.83037400  0.16962600  0.19014100  1
  Cu  Cu1  1  0.66074800  0.83037400  0.69014100  1
  Cu  Cu2  1  0.16962600  0.33925200  0.69014100  1
  Cu  Cu3  1  0.83037400  0.66074800  0.19014100  1
  Cu  Cu4  1  0.33925200  0.16962600  0.19014100  1
  Cu  Cu5  1  0.16962600  0.83037400  0.69014100  1
  Cu  Cu6  1  0.00000000  0.00000000  0.43738500  1
  Cu  Cu7  1  0.00000000  0.00000000  0.93738500  1
  O  O0  1  0.84833500  0.15166500  0.01254500  1
  O  O1  1  0.69667100  0.84833500  0.51254500  1
  O  O2  1  0.15166500  0.30332900  0.51254500  1
  O  O3  1  0.84833500  0.69667100  0.01254500  1
  O  O4  1  0.30332900  0.15166500  0.01254500  1
  O  O5  1  0.15166500  0.84833500  0.51254500  1
  O  O6  1  0.00000000  0.00000000  0.75272200  1
  O  O7  1  0.00000000  0.00000000  0.25272200  1
  O  O8  1  0.51868700  0.48131300  0.25445600  1
  O  O9  1  0.03737500  0.51868700  0.75445600  1
  O  O10  1  0.48131300  0.96262500  0.75445600  1
  O  O11  1  0.51868700  0.03737500  0.25445600  1
  O  O12  1  0.48131300  0.51868700  0.75445600  1
  O  O13  1  0.96262500  0.48131300  0.25445600  1
loop_
_geom_bond_atom_site_label_1
_geom_bond_atom_site_label_2
_geom_bond_distance
_geom_bond_site_symmetry_2
Ba0 O13 2.953640 1_555
Ba0 O11 2.953640 1_555
Ba0 O8 2.953646 1_555
Ba0 O5 3.209051 1_655
Ba0 O5 3.209051 1_545
Ba0 O2 3.209051 1_555
Ba0 O1 3.209051 1_555
Ba0 O2 3.209051 1_655
Ba0 O1 3.209051 1_545
Ba0 O9 3.394819 1_655
Ba0 O10 3.394819 1_545
Ba0 O12 3.394819 1_555
Ba1 O9 2.953640 1_555
Ba1 O10 2.953640 1_555
Ba1 O12 2.953646 1_555
Ba1 O0 3.209051 1_566
Ba1 O0 3.209051 1_456
Ba1 O4 3.209051 1_556
Ba1 O3 3.209051 1_556
Ba1 O4 3.209051 1_566
Ba1 O3 3.209051 1_456
Ba1 O11 3.394819 1_566
Ba1 O13 3.394819 1_456
Ba1 O8 3.394819 1_556
Cu0 O0 1.843661 1_555
Cu0 O11 1.855848 1_555
Cu0 O13 1.855848 1_555
Cu0 O7 1.987087 1_655
Cu1 O1 1.843661 1_555
Cu1 O10 1.855843 1_555
Cu1 O12 1.855848 1_555
Cu1 O6 1.987086 1_665
Cu2 O2 1.843661 1_555
Cu2 O9 1.855843 1_555
Cu2 O12 1.855848 1_555
Cu2 O6 1.987086 1_555
Cu3 O3 1.843661 1_555
Cu3 O13 1.855843 1_555
Cu3 O8 1.855848 1_555
Cu3 O7 1.987086 1_665
Cu4 O4 1.843661 1_555
Cu4 O11 1.855843 1_555
Cu4 O8 1.855848 1_555
Cu4 O7 1.987086 1_555
Cu5 O5 1.843661 1_555
Cu5 O9 1.855848 1_555
Cu5 O10 1.855848 1_555
Cu5 O6 1.987087 1_565
Cu6 O1 1.850620 1_445
Cu6 O2 1.850620 1_555
Cu6 O5 1.850625 1_545
Cu6 O7 1.905827 1_555
Cu7 O3 1.850620 1_446
Cu7 O4 1.850620 1_556
Cu7 O0 1.850625 1_456
Cu7 O6 1.905827 1_555
