# generated using pymatgen
data_U3Te5
_symmetry_space_group_name_H-M   'P 1'
_cell_length_a   13.20709300
_cell_length_b   8.79990800
_cell_length_c   8.33348800
_cell_angle_alpha   90.00000000
_cell_angle_beta   90.00000000
_cell_angle_gamma   90.00000000
_symmetry_Int_Tables_number   1
_chemical_formula_structural   U3Te5
_chemical_formula_sum   'U12 Te20'
_cell_volume   968.52800344
_cell_formula_units_Z   4
loop_
 _symmetry_equiv_pos_site_id
 _symmetry_equiv_pos_as_xyz
  1  'x, y, z'
loop_
 _atom_site_type_symbol
 _atom_site_label
 _atom_site_symmetry_multiplicity
 _atom_site_fract_x
 _atom_site_fract_y
 _atom_site_fract_z
 _atom_site_occupancy
  U  U0  1  0.18113100  0.99679800  0.02536600  1
  U  U1  1  0.68113100  0.50320200  0.47463400  1
  U  U2  1  0.81886900  0.49679800  0.97463400  1
  U  U3  1  0.31886900  0.00320200  0.52536600  1
  U  U4  1  0.81886900  0.00320200  0.97463400  1
  U  U5  1  0.31886900  0.49679800  0.52536600  1
  U  U6  1  0.18113100  0.50320200  0.02536600  1
  U  U7  1  0.68113100  0.99679800  0.47463400  1
  U  U8  1  0.00555700  0.25000000  0.58200200  1
  U  U9  1  0.50555700  0.25000000  0.91799800  1
  U  U10  1  0.99444300  0.75000000  0.41799800  1
  U  U11  1  0.49444300  0.75000000  0.08200200  1
  Te  Te0  1  0.90089000  0.45116200  0.32924800  1
  Te  Te1  1  0.40089000  0.04883800  0.17075200  1
  Te  Te2  1  0.09911000  0.95116200  0.67075200  1
  Te  Te3  1  0.59911000  0.54883800  0.82924800  1
  Te  Te4  1  0.09911000  0.54883800  0.67075200  1
  Te  Te5  1  0.59911000  0.95116200  0.82924800  1
  Te  Te6  1  0.90089000  0.04883800  0.32924800  1
  Te  Te7  1  0.40089000  0.45116200  0.17075200  1
  Te  Te8  1  0.18121900  0.25000000  0.32891000  1
  Te  Te9  1  0.68121900  0.25000000  0.17109000  1
  Te  Te10  1  0.81878100  0.75000000  0.67109000  1
  Te  Te11  1  0.31878100  0.75000000  0.82891000  1
  Te  Te12  1  0.00037900  0.25000000  0.96363600  1
  Te  Te13  1  0.50037900  0.25000000  0.53636400  1
  Te  Te14  1  0.99962100  0.75000000  0.03636400  1
  Te  Te15  1  0.49962100  0.75000000  0.46363600  1
  Te  Te16  1  0.78137600  0.25000000  0.69828700  1
  Te  Te17  1  0.28137600  0.25000000  0.80171300  1
  Te  Te18  1  0.21862400  0.75000000  0.30171300  1
  Te  Te19  1  0.71862400  0.75000000  0.19828700  1
loop_
_geom_bond_atom_site_label_1
_geom_bond_atom_site_label_2
_geom_bond_distance
_geom_bond_site_symmetry_2
Te0 U10 2.998198 1_555
Te0 U8 3.079141 1_655
Te0 U2 3.172974 1_554
Te0 U1 3.178273 1_555
Te1 U11 2.998198 1_545
Te1 U9 3.079141 1_554
Te1 U3 3.172974 1_555
Te1 U0 3.178273 1_545
Te2 U8 2.998198 1_565
Te2 U10 3.079141 1_455
Te2 U0 3.172974 1_556
Te2 U3 3.178273 1_565
Te3 U9 2.998198 1_555
Te3 U11 3.079141 1_556
Te3 U1 3.172974 1_555
Te3 U2 3.178273 1_555
Te4 U8 2.998198 1_555
Te4 U10 3.079141 1_455
Te4 U6 3.172974 1_556
Te4 U5 3.178273 1_555
Te5 U9 2.998198 1_565
Te5 U11 3.079141 1_556
Te5 U7 3.172974 1_555
Te5 U4 3.178273 1_565
Te6 U10 2.998198 1_545
Te6 U8 3.079141 1_655
Te6 U4 3.172974 1_554
Te6 U7 3.178273 1_545
Te7 U11 2.998198 1_555
Te7 U9 3.079141 1_554
Te7 U5 3.172974 1_555
Te7 U6 3.178273 1_555
Te8 U8 3.135410 1_555
Te8 U5 3.271389 1_555
Te8 U3 3.271389 1_555
Te8 U6 3.370972 1_555
Te8 U0 3.370972 1_545
Te9 U9 3.135410 1_554
Te9 U2 3.271389 1_554
Te9 U4 3.271389 1_554
Te9 U7 3.370972 1_545
Te9 U1 3.370972 1_555
Te10 U10 3.135410 1_555
Te10 U1 3.271389 1_555
Te10 U7 3.271389 1_555
Te10 U4 3.370972 1_565
Te10 U2 3.370972 1_555
Te11 U11 3.135410 1_556
Te11 U6 3.271389 1_556
Te11 U0 3.271389 1_556
Te11 U3 3.370972 1_565
Te11 U5 3.370972 1_555
Te12 U8 3.181078 1_555
Te12 U4 3.236012 1_455
Te12 U2 3.236012 1_455
Te12 U0 3.305763 1_546
Te12 U6 3.305763 1_556
Te13 U9 3.181078 1_555
Te13 U5 3.236012 1_555
Te13 U3 3.236012 1_555
Te13 U1 3.305763 1_555
Te13 U7 3.305763 1_545
Te14 U10 3.181078 1_555
Te14 U0 3.236012 1_655
Te14 U6 3.236012 1_655
Te14 U2 3.305763 1_554
Te14 U4 3.305763 1_564
Te15 U11 3.181078 1_555
Te15 U7 3.236012 1_555
Te15 U1 3.236012 1_555
Te15 U3 3.305763 1_565
Te15 U5 3.305763 1_555
Te16 U8 3.115332 1_655
Te16 U7 3.192380 1_545
Te16 U1 3.192380 1_555
Te16 U4 3.203969 1_555
Te16 U2 3.203969 1_555
Te17 U9 3.115332 1_555
Te17 U6 3.192380 1_556
Te17 U0 3.192380 1_546
Te17 U5 3.203969 1_555
Te17 U3 3.203969 1_555
Te18 U10 3.115332 1_455
Te18 U3 3.192380 1_565
Te18 U5 3.192380 1_555
Te18 U6 3.203969 1_555
Te18 U0 3.203969 1_555
Te19 U11 3.115332 1_555
Te19 U4 3.192380 1_564
Te19 U2 3.192380 1_554
Te19 U7 3.203969 1_555
Te19 U1 3.203969 1_555
