# generated using pymatgen
data_RbMg14Co
_symmetry_space_group_name_H-M   'P 1'
_cell_length_a   6.39210438
_cell_length_b   6.39210386
_cell_length_c   10.68481086
_cell_angle_alpha   90.00000000
_cell_angle_beta   90.00000000
_cell_angle_gamma   120.00000267
_symmetry_Int_Tables_number   1
_chemical_formula_structural   RbMg14Co
_chemical_formula_sum   'Rb1 Mg14 Co1'
_cell_volume   378.08124991
_cell_formula_units_Z   1
loop_
 _symmetry_equiv_pos_site_id
 _symmetry_equiv_pos_as_xyz
  1  'x, y, z'
loop_
 _atom_site_type_symbol
 _atom_site_label
 _atom_site_symmetry_multiplicity
 _atom_site_fract_x
 _atom_site_fract_y
 _atom_site_fract_z
 _atom_site_occupancy
  Rb  Rb0  1  0.16666700  0.33333300  0.62500000  1
  Mg  Mg0  1  0.15549822  0.82774861  0.12500000  1
  Mg  Mg1  1  0.17320109  0.83660005  0.62500000  1
  Mg  Mg2  1  0.67225139  0.34450178  0.12500000  1
  Mg  Mg3  1  0.66339995  0.32679891  0.62500000  1
  Mg  Mg4  1  0.67225139  0.82774861  0.12500000  1
  Mg  Mg5  1  0.66339995  0.83660005  0.62500000  1
  Mg  Mg6  1  0.32938592  0.17061408  0.34112420  1
  Mg  Mg7  1  0.32938592  0.17061408  0.90887580  1
  Mg  Mg8  1  0.32938592  0.65877284  0.34112420  1
  Mg  Mg9  1  0.32938592  0.65877284  0.90887580  1
  Mg  Mg10  1  0.84122716  0.17061408  0.34112420  1
  Mg  Mg11  1  0.84122716  0.17061408  0.90887580  1
  Mg  Mg12  1  0.83333300  0.66666700  0.38527678  1
  Mg  Mg13  1  0.83333300  0.66666700  0.86472322  1
  Co  Co0  1  0.16666700  0.33333300  0.12500000  1
loop_
_geom_bond_atom_site_label_1
_geom_bond_atom_site_label_2
_geom_bond_distance
_geom_bond_site_symmetry_2
Mg0 Mg9 2.989191 1_554
Mg0 Mg8 2.989191 1_555
Mg0 Mg7 2.989197 1_564
Mg0 Mg6 2.989197 1_565
Mg0 Mg2 3.088964 1_455
Mg0 Mg4 3.088964 1_455
Mg0 Mg2 3.303140 1_565
Mg0 Mg4 3.303140 1_555
Mg0 Mg12 3.303723 1_455
Mg0 Mg13 3.303723 1_454
Mg1 Mg3 3.133402 1_565
Mg1 Mg5 3.133402 1_555
Mg1 Mg12 3.178126 1_455
Mg1 Mg13 3.178126 1_455
Mg1 Rb0 3.196257 1_565
Mg1 Rb0 3.196257 1_555
Mg1 Mg3 3.258702 1_455
Mg1 Mg5 3.258702 1_455
Mg1 Mg8 3.552976 1_555
Mg1 Mg9 3.552976 1_555
Mg1 Mg7 3.552981 1_565
Mg1 Mg6 3.552981 1_565
Mg2 Mg7 2.989198 1_554
Mg2 Mg6 2.989198 1_555
Mg2 Mg4 3.088964 1_555
Mg2 Mg4 3.303140 1_545
Mg3 Mg5 3.133402 1_545
Mg3 Rb0 3.196257 1_555
Mg3 Rb0 3.196257 1_655
Mg3 Mg5 3.258702 1_555
Mg3 Mg6 3.552981 1_555
Mg3 Mg7 3.552981 1_555
Mg4 Mg9 2.989198 1_554
Mg4 Mg8 2.989198 1_555
Mg5 Rb0 3.196257 1_555
Mg5 Rb0 3.196257 1_665
Mg5 Mg8 3.552981 1_555
Mg5 Mg9 3.552981 1_555
Mg6 Mg8 3.120361 1_555
Mg6 Mg8 3.271742 1_545
Mg6 Rb0 3.527829 1_555
Mg7 Mg9 3.120361 1_555
Mg7 Mg9 3.271742 1_545
Mg7 Rb0 3.527829 1_555
Mg8 Rb0 3.527835 1_555
Mg9 Rb0 3.527835 1_555
Mg10 Mg2 2.989191 1_555
Mg10 Mg4 2.989197 1_545
Mg10 Mg8 3.120361 1_655
Mg10 Mg6 3.120362 1_655
Mg10 Mg12 3.230978 1_545
Mg10 Mg12 3.230978 1_555
Mg10 Mg8 3.271742 1_545
Mg10 Mg6 3.271743 1_555
Mg10 Rb0 3.527835 1_655
Mg10 Mg3 3.552976 1_555
Mg10 Mg5 3.552981 1_545
Mg11 Mg2 2.989191 1_556
Mg11 Mg4 2.989197 1_546
Mg11 Mg9 3.120361 1_655
Mg11 Mg7 3.120362 1_655
Mg11 Mg13 3.230978 1_545
Mg11 Mg13 3.230978 1_555
Mg11 Mg9 3.271742 1_545
Mg11 Mg7 3.271743 1_555
Mg11 Rb0 3.527835 1_655
Mg11 Mg3 3.552976 1_555
Mg11 Mg5 3.552981 1_545
Mg12 Mg5 3.178119 1_555
Mg12 Mg3 3.178126 1_555
Mg12 Mg6 3.230978 1_665
Mg12 Mg6 3.230978 1_555
Mg12 Mg8 3.230978 1_655
Mg12 Mg8 3.230978 1_555
Mg12 Mg4 3.303717 1_555
Mg12 Mg2 3.303723 1_555
Mg13 Mg5 3.178119 1_555
Mg13 Mg3 3.178126 1_555
Mg13 Mg7 3.230978 1_665
Mg13 Mg7 3.230978 1_555
Mg13 Mg9 3.230978 1_655
Mg13 Mg9 3.230978 1_555
Mg13 Mg4 3.303717 1_556
Mg13 Mg2 3.303723 1_556
Co0 Mg7 2.928847 1_554
Co0 Mg6 2.928847 1_555
Co0 Mg8 2.928854 1_555
Co0 Mg9 2.928854 1_554
Co0 Mg11 2.928854 1_454
Co0 Mg10 2.928854 1_455
Co0 Mg4 3.196650 1_445
Co0 Mg0 3.196650 1_545
Co0 Mg0 3.196650 1_555
Co0 Mg4 3.196650 1_555
Co0 Mg2 3.196650 1_455
Co0 Mg2 3.196650 1_555
