# generated using pymatgen
data_ZrMnSi2
_symmetry_space_group_name_H-M   'P 1'
_cell_length_a   7.89407300
_cell_length_b   9.05190400
_cell_length_c   9.86220600
_cell_angle_alpha   90.00000000
_cell_angle_beta   90.00000000
_cell_angle_gamma   90.00000000
_symmetry_Int_Tables_number   1
_chemical_formula_structural   ZrMnSi2
_chemical_formula_sum   'Zr12 Mn12 Si24'
_cell_volume   704.71764771
_cell_formula_units_Z   12
loop_
 _symmetry_equiv_pos_site_id
 _symmetry_equiv_pos_as_xyz
  1  'x, y, z'
loop_
 _atom_site_type_symbol
 _atom_site_label
 _atom_site_symmetry_multiplicity
 _atom_site_fract_x
 _atom_site_fract_y
 _atom_site_fract_z
 _atom_site_occupancy
  Zr  Zr0  1  0.74588700  0.82560200  0.04843900  1
  Zr  Zr1  1  0.74588700  0.17439800  0.95156100  1
  Zr  Zr2  1  0.25411300  0.67439800  0.54843900  1
  Zr  Zr3  1  0.25411300  0.32560200  0.45156100  1
  Zr  Zr4  1  0.25411300  0.17439800  0.95156100  1
  Zr  Zr5  1  0.25411300  0.82560200  0.04843900  1
  Zr  Zr6  1  0.74588700  0.32560200  0.45156100  1
  Zr  Zr7  1  0.74588700  0.67439800  0.54843900  1
  Zr  Zr8  1  0.50000000  0.83119000  0.32129200  1
  Zr  Zr9  1  0.50000000  0.16881000  0.67870800  1
  Zr  Zr10  1  0.50000000  0.66881000  0.82129200  1
  Zr  Zr11  1  0.50000000  0.33119000  0.17870800  1
  Mn  Mn0  1  0.74991700  0.58402000  0.25146100  1
  Mn  Mn1  1  0.74991700  0.41598000  0.74853900  1
  Mn  Mn2  1  0.25008300  0.91598000  0.75146100  1
  Mn  Mn3  1  0.25008300  0.08402000  0.24853900  1
  Mn  Mn4  1  0.25008300  0.41598000  0.74853900  1
  Mn  Mn5  1  0.25008300  0.58402000  0.25146100  1
  Mn  Mn6  1  0.74991700  0.08402000  0.24853900  1
  Mn  Mn7  1  0.74991700  0.91598000  0.75146100  1
  Mn  Mn8  1  0.74702400  0.00000000  0.50000000  1
  Mn  Mn9  1  0.25297600  0.50000000  0.00000000  1
  Mn  Mn10  1  0.25297600  0.00000000  0.50000000  1
  Mn  Mn11  1  0.74702400  0.50000000  0.00000000  1
  Si  Si0  1  0.85026000  0.83487200  0.31910600  1
  Si  Si1  1  0.85026000  0.16512800  0.68089400  1
  Si  Si2  1  0.14974000  0.66512800  0.81910600  1
  Si  Si3  1  0.14974000  0.33487200  0.18089400  1
  Si  Si4  1  0.14974000  0.16512800  0.68089400  1
  Si  Si5  1  0.14974000  0.83487200  0.31910600  1
  Si  Si6  1  0.85026000  0.33487200  0.18089400  1
  Si  Si7  1  0.85026000  0.66512800  0.81910600  1
  Si  Si8  1  0.50000000  0.53872300  0.37962200  1
  Si  Si9  1  0.50000000  0.46127700  0.62037800  1
  Si  Si10  1  0.50000000  0.96127700  0.87962200  1
  Si  Si11  1  0.50000000  0.03872300  0.12037800  1
  Si  Si12  1  0.00000000  0.53956500  0.37419400  1
  Si  Si13  1  0.00000000  0.46043500  0.62580600  1
  Si  Si14  1  0.00000000  0.96043500  0.87419400  1
  Si  Si15  1  0.00000000  0.03956500  0.12580600  1
  Si  Si16  1  0.50000000  0.62206400  0.10637600  1
  Si  Si17  1  0.50000000  0.37793600  0.89362400  1
  Si  Si18  1  0.50000000  0.87793600  0.60637600  1
  Si  Si19  1  0.50000000  0.12206400  0.39362400  1
  Si  Si20  1  0.00000000  0.60889300  0.10281300  1
  Si  Si21  1  0.00000000  0.39110700  0.89718700  1
  Si  Si22  1  0.00000000  0.89110700  0.60281300  1
  Si  Si23  1  0.00000000  0.10889300  0.39718700  1
loop_
_geom_bond_atom_site_label_1
_geom_bond_atom_site_label_2
_geom_bond_distance
_geom_bond_site_symmetry_2
Mn0 Si12 2.350404 1_655
Mn0 Si8 2.378630 1_555
Mn0 Si16 2.461328 1_555
Mn0 Si20 2.469251 1_655
Mn0 Si6 2.489579 1_555
Mn0 Si0 2.495703 1_555
Mn1 Si13 2.350404 1_655
Mn1 Si9 2.378630 1_555
Mn1 Si17 2.461328 1_555
Mn1 Si21 2.469251 1_655
Mn1 Si7 2.489579 1_555
Mn1 Si1 2.495703 1_555
Mn2 Si14 2.350404 1_555
Mn2 Si10 2.378630 1_555
Mn2 Si18 2.461328 1_555
Mn2 Si22 2.469251 1_555
Mn2 Si4 2.489579 1_565
Mn2 Si2 2.495703 1_555
Mn3 Si15 2.350404 1_555
Mn3 Si11 2.378630 1_555
Mn3 Si19 2.461328 1_555
Mn3 Si23 2.469251 1_555
Mn3 Si5 2.489579 1_545
Mn3 Si3 2.495703 1_555
Mn4 Si13 2.350404 1_555
Mn4 Si9 2.378630 1_555
Mn4 Si17 2.461328 1_555
Mn4 Si21 2.469251 1_555
Mn4 Si2 2.489579 1_555
Mn4 Si4 2.495703 1_555
Mn5 Si12 2.350404 1_555
Mn5 Si8 2.378630 1_555
Mn5 Si16 2.461328 1_555
Mn5 Si20 2.469251 1_555
Mn5 Si3 2.489579 1_555
Mn5 Si5 2.495703 1_555
Mn6 Si15 2.350404 1_655
Mn6 Si11 2.378630 1_555
Mn6 Si19 2.461328 1_555
Mn6 Si23 2.469251 1_655
Mn6 Si0 2.489579 1_545
Mn6 Si6 2.495703 1_555
Mn7 Si14 2.350404 1_655
Mn7 Si10 2.378630 1_555
Mn7 Si18 2.461328 1_555
Mn7 Si22 2.469251 1_655
Mn7 Si1 2.489579 1_565
Mn7 Si7 2.495703 1_555
Mn8 Si22 2.446989 1_645
Mn8 Si23 2.446989 1_655
Mn8 Si0 2.465978 1_545
Mn8 Si1 2.465978 1_555
Mn8 Si19 2.474681 1_555
Mn8 Si18 2.474681 1_545
Mn9 Si20 2.446989 1_555
Mn9 Si21 2.446989 1_554
Mn9 Si2 2.465978 1_554
Mn9 Si3 2.465978 1_555
Mn9 Si16 2.474681 1_555
Mn9 Si17 2.474681 1_554
Mn10 Si22 2.446989 1_545
Mn10 Si23 2.446989 1_555
Mn10 Si4 2.465978 1_555
Mn10 Si5 2.465978 1_545
Mn10 Si19 2.474681 1_555
Mn10 Si18 2.474681 1_545
Mn11 Si20 2.446989 1_655
Mn11 Si21 2.446989 1_654
Mn11 Si7 2.465978 1_554
Mn11 Si6 2.465978 1_555
Mn11 Si16 2.474681 1_555
Mn11 Si17 2.474681 1_554
Si0 Si5 2.364117 1_655
Si0 Zr8 2.765263 1_555
Si0 Zr0 2.794898 1_555
Si0 Zr7 2.811460 1_555
Si1 Si4 2.364117 1_655
Si1 Zr9 2.765263 1_555
Si1 Zr1 2.794898 1_555
Si1 Zr6 2.811460 1_555
Si2 Si7 2.364117 1_455
Si2 Zr10 2.765263 1_555
Si2 Zr2 2.794898 1_555
Si2 Zr5 2.811460 1_556
Si3 Si6 2.364117 1_455
Si3 Zr11 2.765263 1_555
Si3 Zr3 2.794898 1_555
Si3 Zr4 2.811460 1_554
Si4 Zr9 2.765263 1_555
Si4 Zr4 2.794898 1_555
Si4 Zr3 2.811460 1_555
Si5 Zr8 2.765263 1_555
Si5 Zr5 2.794898 1_555
Si5 Zr2 2.811460 1_555
Si6 Zr11 2.765263 1_555
Si6 Zr6 2.794898 1_555
Si6 Zr1 2.811460 1_554
Si7 Zr10 2.765263 1_555
Si7 Zr7 2.794898 1_555
Si7 Zr0 2.811460 1_556
Si8 Si9 2.475713 1_555
Si8 Zr8 2.709163 1_555
Si8 Zr11 2.730419 1_555
Si8 Zr3 2.827129 1_555
Si8 Zr6 2.827129 1_555
Si8 Zr7 2.836876 1_555
Si8 Zr2 2.836876 1_555
Si9 Zr9 2.709163 1_555
Si9 Zr10 2.730419 1_555
Si9 Zr7 2.827129 1_555
Si9 Zr2 2.827129 1_555
Si9 Zr3 2.836876 1_555
Si9 Zr6 2.836876 1_555
Si10 Si11 2.475713 1_566
Si10 Zr10 2.709163 1_555
Si10 Zr9 2.730419 1_565
Si10 Zr1 2.827129 1_565
Si10 Zr4 2.827129 1_565
Si10 Zr0 2.836876 1_556
Si10 Zr5 2.836876 1_556
Si11 Zr11 2.709163 1_555
Si11 Zr8 2.730419 1_545
Si11 Zr5 2.827129 1_545
Si11 Zr0 2.827129 1_545
Si11 Zr1 2.836876 1_554
Si11 Zr4 2.836876 1_554
Si12 Zr3 2.890891 1_555
Si12 Zr6 2.890891 1_455
Si12 Zr2 2.909747 1_555
Si12 Zr7 2.909747 1_455
Si13 Zr2 2.890891 1_555
Si13 Zr7 2.890891 1_455
Si13 Zr3 2.909747 1_555
Si13 Zr6 2.909747 1_455
Si14 Zr4 2.890891 1_565
Si14 Zr1 2.890891 1_465
Si14 Zr5 2.909747 1_556
Si14 Zr0 2.909747 1_456
Si15 Zr0 2.890891 1_445
Si15 Zr5 2.890891 1_545
Si15 Zr4 2.909747 1_554
Si15 Zr1 2.909747 1_454
Si16 Zr11 2.727887 1_555
Si16 Zr0 2.736534 1_555
Si16 Zr5 2.736534 1_555
Si16 Zr8 2.841809 1_555
Si16 Zr10 2.843220 1_554
Si17 Zr10 2.727887 1_555
Si17 Zr1 2.736534 1_555
Si17 Zr4 2.736534 1_555
Si17 Zr9 2.841809 1_555
Si17 Zr11 2.843220 1_556
Si18 Zr9 2.727887 1_565
Si18 Zr7 2.736534 1_555
Si18 Zr2 2.736534 1_555
Si18 Zr10 2.841809 1_555
Si18 Zr8 2.843220 1_555
Si19 Zr8 2.727887 1_545
Si19 Zr6 2.736534 1_555
Si19 Zr3 2.736534 1_555
Si19 Zr11 2.841809 1_555
Si19 Zr9 2.843220 1_555
Si20 Zr5 2.856489 1_555
Si20 Zr0 2.856489 1_455
Si21 Zr4 2.856489 1_555
Si21 Zr1 2.856489 1_455
Si22 Zr2 2.856489 1_555
Si22 Zr7 2.856489 1_455
Si23 Zr3 2.856489 1_555
Si23 Zr6 2.856489 1_455
