# generated using pymatgen
data_K4Na4Mo5W3O20
_symmetry_space_group_name_H-M   'P 1'
_cell_length_a   11.56806250
_cell_length_b   11.73614075
_cell_length_c   17.54086713
_cell_angle_alpha   109.68213285
_cell_angle_beta   109.20726712
_cell_angle_gamma   89.90162219
_symmetry_Int_Tables_number   1
_chemical_formula_structural   K4Na4Mo5W3O20
_chemical_formula_sum   'K16 Na16 Mo20 W12 O80'
_cell_volume   2101.47828726
_cell_formula_units_Z   4
loop_
 _symmetry_equiv_pos_site_id
 _symmetry_equiv_pos_as_xyz
  1  'x, y, z'
loop_
 _atom_site_type_symbol
 _atom_site_label
 _atom_site_symmetry_multiplicity
 _atom_site_fract_x
 _atom_site_fract_y
 _atom_site_fract_z
 _atom_site_occupancy
  K  K0  1  0.30665100  0.06793600  0.10949900  1
  K  K1  1  0.30249700  0.56167100  0.10714000  1
  K  K2  1  0.80693200  0.06393400  0.11100100  1
  K  K3  1  0.80531400  0.56217300  0.10882500  1
  K  K4  1  0.20052500  0.93635300  0.39524900  1
  K  K5  1  0.19233500  0.92883000  0.88246100  1
  K  K6  1  0.70220600  0.43700100  0.39634300  1
  K  K7  1  0.69268000  0.42918300  0.88485600  1
  K  K8  1  0.70027600  0.93403400  0.39644000  1
  K  K9  1  0.05706400  0.29539100  0.10875900  1
  K  K10  1  0.05266100  0.79170900  0.10579100  1
  K  K11  1  0.55579500  0.29422900  0.10839100  1
  K  K12  1  0.55252100  0.79435000  0.10454800  1
  K  K13  1  0.45266500  0.71244000  0.39584500  1
  K  K14  1  0.44031000  0.70558000  0.88289900  1
  K  K15  1  0.94143900  0.70313100  0.88245400  1
  Na  Na0  1  0.29848800  0.07078000  0.60388400  1
  Na  Na1  1  0.30053600  0.56294600  0.59993700  1
  Na  Na2  1  0.80252800  0.06708400  0.60380700  1
  Na  Na3  1  0.79733100  0.56758400  0.60117800  1
  Na  Na4  1  0.20215300  0.43754900  0.40512400  1
  Na  Na5  1  0.19821600  0.43509100  0.89711500  1
  Na  Na6  1  0.69657800  0.93412800  0.89566100  1
  Na  Na7  1  0.05152900  0.28306300  0.60312800  1
  Na  Na8  1  0.04974000  0.78652100  0.60043400  1
  Na  Na9  1  0.55010900  0.28586500  0.60178300  1
  Na  Na10  1  0.55186000  0.78548600  0.60218600  1
  Na  Na11  1  0.45415100  0.21529200  0.40572200  1
  Na  Na12  1  0.44788300  0.21052300  0.89668600  1
  Na  Na13  1  0.95239400  0.21586600  0.40450200  1
  Na  Na14  1  0.94623700  0.21143400  0.89605400  1
  Na  Na15  1  0.95000100  0.71609300  0.40308300  1
  Mo  Mo0  1  0.00615500  0.99894700  0.99610600  1
  Mo  Mo1  1  0.01518800  0.00193400  0.50439000  1
  Mo  Mo2  1  0.00369800  0.49592300  0.99516200  1
  Mo  Mo3  1  0.01439900  0.50160600  0.50166300  1
  Mo  Mo4  1  0.50436700  0.99869900  0.99398000  1
  Mo  Mo5  1  0.51413500  0.00572300  0.50615600  1
  Mo  Mo6  1  0.50483800  0.49612600  0.99509700  1
  Mo  Mo7  1  0.51531400  0.50136100  0.50577800  1
  Mo  Mo8  1  0.25536300  0.24982300  0.99607000  1
  Mo  Mo9  1  0.26471900  0.25376400  0.50451500  1
  Mo  Mo10  1  0.25312000  0.74527000  0.99332800  1
  Mo  Mo11  1  0.26342900  0.74914400  0.50305100  1
  Mo  Mo12  1  0.75637000  0.24492200  0.99419900  1
  Mo  Mo13  1  0.76795900  0.25117000  0.50492100  1
  Mo  Mo14  1  0.75373800  0.74872500  0.99480400  1
  Mo  Mo15  1  0.76519000  0.75282300  0.50629300  1
  Mo  Mo16  1  0.10020600  0.10709000  0.25857500  1
  Mo  Mo17  1  0.09695300  0.59254500  0.25702800  1
  Mo  Mo18  1  0.59947400  0.10003500  0.25632600  1
  Mo  Mo19  1  0.85799700  0.40582100  0.25509000  1
  W  W0  1  0.08817300  0.09861200  0.74770300  1
  W  W1  1  0.08762400  0.58278400  0.73748000  1
  W  W2  1  0.58545200  0.08922400  0.74602200  1
  W  W3  1  0.59929400  0.59253600  0.25056400  1
  W  W4  1  0.58728600  0.58909300  0.74217000  1
  W  W5  1  0.34411300  0.40492900  0.25940500  1
  W  W6  1  0.33670200  0.39939800  0.74799300  1
  W  W7  1  0.34688800  0.91314500  0.25110000  1
  W  W8  1  0.33706300  0.90692300  0.73903500  1
  W  W9  1  0.84187100  0.39862800  0.74323000  1
  W  W10  1  0.84987500  0.90947400  0.25378100  1
  W  W11  1  0.83465300  0.91071400  0.74612600  1
  O  O0  1  0.12947200  0.12536200  0.49024800  1
  O  O1  1  0.12368900  0.12172800  0.98568800  1
  O  O2  1  0.12739400  0.61593600  0.48235300  1
  O  O3  1  0.12286100  0.61352800  0.98311500  1
  O  O4  1  0.63237300  0.12590000  0.49474100  1
  O  O5  1  0.62413400  0.11625400  0.98246800  1
  O  O6  1  0.63171600  0.62244000  0.49344000  1
  O  O7  1  0.62276100  0.61818900  0.98501000  1
  O  O8  1  0.13150300  0.37682900  0.00250600  1
  O  O9  1  0.14705500  0.38747100  0.51998600  1
  O  O10  1  0.13402600  0.87643500  0.00544400  1
  O  O11  1  0.14469000  0.88026500  0.51895700  1
  O  O12  1  0.63278300  0.37383300  0.00434000  1
  O  O13  1  0.64695700  0.38365600  0.52137900  1
  O  O14  1  0.63394400  0.87889600  0.00396700  1
  O  O15  1  0.64795400  0.88740200  0.52536400  1
  O  O16  1  0.38185700  0.12329900  0.48907200  1
  O  O17  1  0.37443000  0.11948200  0.98290600  1
  O  O18  1  0.37978000  0.61691100  0.49163800  1
  O  O19  1  0.37117700  0.61362200  0.98376300  1
  O  O20  1  0.88357800  0.12008700  0.48860600  1
  O  O21  1  0.87443400  0.11579000  0.98342400  1
  O  O22  1  0.88419200  0.62205300  0.49202600  1
  O  O23  1  0.87281600  0.61684000  0.98570300  1
  O  O24  1  0.38277900  0.37741500  0.00305600  1
  O  O25  1  0.39707300  0.38616600  0.52074600  1
  O  O26  1  0.38225900  0.87859600  0.00427900  1
  O  O27  1  0.39762700  0.89004300  0.52523200  1
  O  O28  1  0.88496200  0.37631300  0.00539000  1
  O  O29  1  0.89923100  0.38583100  0.52119600  1
  O  O30  1  0.88123300  0.87900800  0.00366800  1
  O  O31  1  0.89740200  0.88630300  0.52196200  1
  O  O32  1  0.07589500  0.08846600  0.13916500  1
  O  O33  1  0.09281700  0.10609800  0.63887600  1
  O  O34  1  0.07632000  0.58581900  0.14211300  1
  O  O35  1  0.09299300  0.61216300  0.63814000  1
  O  O36  1  0.57426700  0.08836300  0.13833700  1
  O  O37  1  0.58731100  0.11150700  0.64231700  1
  O  O38  1  0.57437600  0.58953700  0.13531100  1
  O  O39  1  0.59503400  0.61181500  0.63959500  1
  O  O40  1  0.44613800  0.39225400  0.36675100  1
  O  O41  1  0.43946900  0.39317400  0.85742600  1
  O  O42  1  0.44787400  0.91435300  0.36605000  1
  O  O43  1  0.44210000  0.91350400  0.85450100  1
  O  O44  1  0.95382000  0.38997700  0.36384000  1
  O  O45  1  0.93566800  0.39751400  0.85665300  1
  O  O46  1  0.94629600  0.89733100  0.36583400  1
  O  O47  1  0.94367300  0.91163000  0.85805200  1
  O  O48  1  0.32516500  0.30912100  0.13849000  1
  O  O49  1  0.33891200  0.28237700  0.63887600  1
  O  O50  1  0.32492800  0.79903500  0.13773300  1
  O  O51  1  0.33826800  0.77535400  0.63893000  1
  O  O52  1  0.83398900  0.29904400  0.13880700  1
  O  O53  1  0.85092000  0.27665800  0.63882600  1
  O  O54  1  0.82804600  0.80071600  0.13811100  1
  O  O55  1  0.83928300  0.78478400  0.64270400  1
  O  O56  1  0.20634500  0.22435600  0.36497500  1
  O  O57  1  0.19027400  0.21285600  0.85796400  1
  O  O58  1  0.20535900  0.70834600  0.36479500  1
  O  O59  1  0.18716100  0.69104200  0.85483200  1
  O  O60  1  0.71110500  0.20878400  0.36480000  1
  O  O61  1  0.70262600  0.19561200  0.85680200  1
  O  O62  1  0.70127200  0.70147600  0.36701200  1
  O  O63  1  0.68245300  0.70629400  0.85579800  1
  O  O64  1  0.44533000  0.07211000  0.27130400  1
  O  O65  1  0.41816300  0.06997600  0.75003200  1
  O  O66  1  0.44051300  0.54490300  0.25114900  1
  O  O67  1  0.41773700  0.53993600  0.73020400  1
  O  O68  1  0.94774700  0.06795700  0.27311500  1
  O  O69  1  0.92240800  0.06578800  0.74972700  1
  O  O70  1  0.93886000  0.56742500  0.26792300  1
  O  O71  1  0.91742500  0.54281900  0.72773200  1
  O  O72  1  0.18611400  0.44455100  0.27021900  1
  O  O73  1  0.17124700  0.43170900  0.75091800  1
  O  O74  1  0.18480300  0.95316200  0.25055400  1
  O  O75  1  0.16651600  0.93922500  0.72890700  1
  O  O76  1  0.69847400  0.45218000  0.25527300  1
  O  O77  1  0.67227900  0.43457600  0.73204000  1
  O  O78  1  0.68687700  0.94852400  0.25179400  1
  O  O79  1  0.66600000  0.93375400  0.74709100  1
loop_
_geom_bond_atom_site_label_1
_geom_bond_atom_site_label_2
_geom_bond_distance
_geom_bond_site_symmetry_2
K0 O10 2.687813 1_545
K0 O48 2.697680 1_555
K0 O26 2.720679 1_545
K0 O1 2.736650 1_554
K0 O64 2.746296 1_555
K0 O17 2.821995 1_554
K0 O32 2.877818 1_555
K0 O36 2.964423 1_555
K1 O66 2.578533 1_555
K1 O8 2.632745 1_555
K1 O50 2.649438 1_555
K1 O24 2.705789 1_555
K1 O3 2.708216 1_554
K1 O19 2.776374 1_554
K1 O34 2.870328 1_555
K1 O38 3.019100 1_555
K1 O48 3.186941 1_555
K2 O52 2.635428 1_555
K2 O14 2.653657 1_545
K2 O30 2.701778 1_545
K2 O68 2.757519 1_555
K2 O5 2.779014 1_554
K2 O21 2.838435 1_554
K2 O36 2.882724 1_555
K2 O32 2.983881 1_655
K2 O54 3.277076 1_545
K3 O12 2.666032 1_555
K3 O54 2.667501 1_555
K3 O70 2.688171 1_555
K3 O28 2.706643 1_555
K3 O7 2.747342 1_554
K3 O23 2.780327 1_554
K3 O38 2.858166 1_555
K3 O34 2.989258 1_655
K3 O52 3.301329 1_555
K4 O58 2.550550 1_555
K4 O74 2.558758 1_555
K4 O0 2.603455 1_565
K4 O16 2.689700 1_565
K4 O11 2.728548 1_555
K4 O46 2.823491 1_455
K4 O27 2.846501 1_555
K4 O42 3.064141 1_555
K5 O75 2.655328 1_555
K5 O59 2.664017 1_555
K5 O1 2.685708 1_565
K5 O10 2.709081 1_556
K5 O17 2.732526 1_565
K5 O26 2.737823 1_556
K5 O47 2.762598 1_455
K5 O43 3.080923 1_555
K6 O76 2.526523 1_555
K6 O60 2.555148 1_555
K6 O6 2.590953 1_555
K6 O22 2.683489 1_555
K6 O13 2.731182 1_555
K6 O29 2.819319 1_555
K6 O40 2.851306 1_555
K6 O44 3.158503 1_555
K7 O61 2.626255 1_555
K7 O77 2.634941 1_555
K7 O7 2.639077 1_555
K7 O12 2.677463 1_556
K7 O23 2.699631 1_555
K7 O28 2.754524 1_556
K7 O41 2.816034 1_555
K7 O45 3.011901 1_555
K8 O78 2.553860 1_555
K8 O62 2.602045 1_555
K8 O4 2.632555 1_565
K8 O20 2.694485 1_565
K8 O15 2.741422 1_555
K8 O42 2.785324 1_555
K8 O31 2.807933 1_555
K8 O46 3.068983 1_555
K9 O28 2.632772 1_455
K9 O32 2.650234 1_555
K9 O72 2.683580 1_555
K9 O8 2.717973 1_555
K9 O1 2.744792 1_554
K9 O21 2.752703 1_454
K9 O52 2.796100 1_455
K9 O48 2.966070 1_555
K9 O34 3.253212 1_555
K10 O74 2.567082 1_555
K10 O30 2.661417 1_455
K10 O23 2.682625 1_454
K10 O34 2.690652 1_555
K10 O10 2.691681 1_555
K10 O3 2.788491 1_554
K10 O54 2.830543 1_455
K10 O50 3.008101 1_555
K11 O76 2.606517 1_555
K11 O36 2.634053 1_555
K11 O24 2.673575 1_555
K11 O12 2.686651 1_555
K11 O17 2.718119 1_554
K11 O5 2.811070 1_554
K11 O48 2.879280 1_555
K11 O52 3.081401 1_555
K12 O78 2.565331 1_555
K12 O26 2.614512 1_555
K12 O38 2.629600 1_555
K12 O14 2.694483 1_555
K12 O19 2.729877 1_554
K12 O7 2.743410 1_554
K12 O50 2.873997 1_555
K12 O54 3.040978 1_555
K13 O42 2.589656 1_555
K13 O66 2.594676 1_555
K13 O18 2.644919 1_555
K13 O6 2.685869 1_555
K13 O58 2.727827 1_555
K13 O27 2.767767 1_555
K13 O15 2.824525 1_555
K13 O62 3.074910 1_555
K14 O43 2.651228 1_555
K14 O67 2.656207 1_555
K14 O26 2.670410 1_556
K14 O19 2.674822 1_555
K14 O7 2.730807 1_555
K14 O14 2.764191 1_556
K14 O59 2.800676 1_555
K14 O63 2.991867 1_555
K15 O47 2.623848 1_555
K15 O71 2.654953 1_555
K15 O23 2.668329 1_555
K15 O30 2.698058 1_556
K15 O3 2.726347 1_655
K15 O10 2.766193 1_656
K15 O63 2.878440 1_555
K15 O59 3.032053 1_655
Na0 O49 2.356003 1_555
Na0 O65 2.483872 1_555
Na0 O11 2.531792 1_545
Na0 O0 2.549072 1_555
Na0 O27 2.603726 1_545
Na0 O33 2.644865 1_555
Na0 O16 2.735315 1_555
Na1 O67 2.346979 1_555
Na1 O51 2.351898 1_555
Na1 O9 2.406032 1_555
Na1 O25 2.559793 1_555
Na1 O2 2.606541 1_555
Na1 O18 2.609290 1_555
Na1 O35 2.709237 1_555
Na2 O53 2.345432 1_555
Na2 O15 2.444818 1_545
Na2 O69 2.483022 1_555
Na2 O4 2.533392 1_555
Na2 O31 2.596924 1_545
Na2 O20 2.728494 1_555
Na2 O37 2.791290 1_555
Na3 O71 2.312222 1_555
Na3 O55 2.405179 1_555
Na3 O13 2.453640 1_555
Na3 O6 2.467672 1_555
Na3 O29 2.640363 1_555
Na3 O39 2.645341 1_555
Na3 O22 2.678909 1_555
Na4 O72 2.341547 1_555
Na4 O56 2.365111 1_555
Na4 O2 2.412530 1_555
Na4 O9 2.540645 1_555
Na4 O18 2.601456 1_555
Na4 O25 2.715037 1_555
Na4 O44 2.730033 1_455
Na5 O57 2.456715 1_555
Na5 O73 2.465814 1_555
Na5 O3 2.480324 1_555
Na5 O8 2.504521 1_556
Na5 O19 2.563559 1_555
Na5 O24 2.588754 1_556
Na5 O45 2.880636 1_455
Na6 O5 2.496131 1_565
Na6 O14 2.508216 1_556
Na6 O79 2.510454 1_555
Na6 O63 2.516392 1_555
Na6 O30 2.593975 1_556
Na6 O21 2.620813 1_565
Na6 O43 2.780682 1_555
Na7 O33 2.368871 1_555
Na7 O29 2.473528 1_455
Na7 O73 2.506275 1_555
Na7 O20 2.514983 1_455
Na7 O53 2.602234 1_455
Na7 O0 2.619032 1_555
Na7 O9 2.668008 1_555
Na8 O75 2.323768 1_555
Na8 O35 2.359131 1_555
Na8 O31 2.419555 1_455
Na8 O22 2.480600 1_455
Na8 O11 2.560393 1_555
Na8 O2 2.744067 1_555
Na8 O55 2.770455 1_455
Na9 O77 2.336986 1_555
Na9 O37 2.377754 1_555
Na9 O25 2.450407 1_555
Na9 O16 2.505412 1_555
Na9 O13 2.587636 1_555
Na9 O4 2.598201 1_555
Na9 O49 2.730962 1_555
Na10 O39 2.348654 1_555
Na10 O27 2.456566 1_555
Na10 O79 2.460135 1_555
Na10 O18 2.554687 1_555
Na10 O15 2.560868 1_555
Na10 O6 2.616902 1_555
Na10 O51 2.763167 1_555
Na11 O64 2.359417 1_555
Na11 O40 2.388128 1_555
Na11 O16 2.423516 1_555
Na11 O25 2.583585 1_555
Na11 O4 2.601391 1_555
Na11 O13 2.707839 1_555
Na11 O56 2.727969 1_555
Na12 O65 2.453208 1_555
Na12 O41 2.455275 1_555
Na12 O17 2.467400 1_555
Na12 O24 2.518470 1_556
Na12 O12 2.594785 1_556
Na12 O5 2.596187 1_555
Na12 O57 2.832517 1_555
Na13 O68 2.356171 1_555
Na13 O44 2.382023 1_555
Na13 O20 2.442640 1_555
Na13 O29 2.573081 1_555
Na13 O0 2.574487 1_655
Na13 O60 2.639272 1_555
Na13 O9 2.737967 1_655
Na14 O69 2.483244 1_555
Na14 O45 2.494399 1_555
Na14 O21 2.509616 1_555
Na14 O28 2.512950 1_556
Na14 O1 2.603508 1_655
Na14 O8 2.605259 1_656
Na14 O61 2.662568 1_555
Na15 O70 2.386422 1_555
Na15 O46 2.422897 1_555
Na15 O22 2.485132 1_555
Na15 O31 2.594933 1_555
Na15 O2 2.596424 1_655
Na15 O11 2.698301 1_655
Na15 O62 2.727529 1_555
Mo0 O21 2.055972 1_465
Mo0 O10 2.067403 1_556
Mo0 O1 2.075093 1_565
Mo0 O30 2.084754 1_456
Mo0 O47 2.148478 1_455
Mo0 O32 2.224099 1_566
Mo1 O20 2.071573 1_455
Mo1 O11 2.082086 1_545
Mo1 O31 2.087492 1_445
Mo1 O0 2.090956 1_555
Mo1 O33 2.129114 1_555
Mo1 O46 2.183614 1_445
Mo2 O8 2.035897 1_556
Mo2 O28 2.056152 1_456
Mo2 O3 2.060235 1_555
Mo2 O23 2.078379 1_455
Mo2 O45 2.170473 1_455
Mo2 O34 2.282429 1_556
Mo3 O9 2.052049 1_555
Mo3 O2 2.056018 1_555
Mo3 O22 2.069221 1_455
Mo3 O29 2.087749 1_455
Mo3 O35 2.172713 1_555
Mo3 O44 2.192469 1_455
Mo4 O14 2.059214 1_556
Mo4 O5 2.059618 1_565
Mo4 O17 2.071842 1_565
Mo4 O26 2.088307 1_556
Mo4 O43 2.167825 1_555
Mo4 O36 2.243613 1_566
Mo5 O4 2.068151 1_555
Mo5 O16 2.074845 1_555
Mo5 O27 2.093000 1_545
Mo5 O15 2.098285 1_545
Mo5 O37 2.153657 1_555
Mo5 O42 2.182961 1_545
Mo6 O24 2.054678 1_556
Mo6 O12 2.066012 1_556
Mo6 O7 2.068971 1_555
Mo6 O19 2.075293 1_555
Mo6 O41 2.167830 1_555
Mo6 O38 2.187004 1_556
Mo7 O25 2.061398 1_555
Mo7 O13 2.067719 1_555
Mo7 O6 2.069960 1_555
Mo7 O18 2.078980 1_555
Mo7 O39 2.137925 1_555
Mo7 O40 2.200708 1_555
Mo8 O24 2.048174 1_556
Mo8 O1 2.062598 1_555
Mo8 O17 2.062659 1_555
Mo8 O8 2.067181 1_556
Mo8 O57 2.171789 1_555
Mo8 O48 2.209243 1_556
Mo9 O16 2.051587 1_555
Mo9 O25 2.064748 1_555
Mo9 O0 2.068274 1_555
Mo9 O9 2.082695 1_555
Mo9 O49 2.130935 1_555
Mo9 O56 2.215932 1_555
Mo10 O19 2.061386 1_555
Mo10 O10 2.068295 1_556
Mo10 O26 2.081763 1_556
Mo10 O3 2.082556 1_555
Mo10 O59 2.151628 1_555
Mo10 O50 2.246097 1_556
Mo11 O18 2.054489 1_555
Mo11 O11 2.070828 1_555
Mo11 O2 2.074241 1_555
Mo11 O27 2.115137 1_555
Mo11 O51 2.162005 1_555
Mo11 O58 2.169977 1_555
Mo12 O21 2.041476 1_555
Mo12 O28 2.059381 1_556
Mo12 O5 2.062566 1_555
Mo12 O12 2.084015 1_556
Mo12 O61 2.146087 1_555
Mo12 O52 2.249857 1_556
Mo13 O20 2.045897 1_555
Mo13 O4 2.073698 1_555
Mo13 O29 2.074678 1_555
Mo13 O13 2.101510 1_555
Mo13 O53 2.138212 1_555
Mo13 O60 2.198849 1_555
Mo14 O30 2.057678 1_556
Mo14 O14 2.062522 1_556
Mo14 O23 2.071152 1_555
Mo14 O7 2.081250 1_555
Mo14 O63 2.175723 1_555
Mo14 O54 2.230903 1_556
Mo15 O22 2.067326 1_555
Mo15 O31 2.076145 1_555
Mo15 O6 2.079195 1_555
Mo15 O15 2.093093 1_555
Mo15 O55 2.155873 1_555
Mo15 O62 2.167918 1_555
Mo16 O56 1.911205 1_555
Mo16 O68 1.940130 1_455
Mo16 O32 1.954039 1_555
Mo16 O74 2.038217 1_545
Mo17 O34 1.924216 1_555
Mo17 O58 1.925764 1_555
Mo17 O70 1.933345 1_455
Mo17 O72 2.059525 1_555
Mo18 O60 1.915737 1_555
Mo18 O64 1.929845 1_555
Mo18 O36 1.949164 1_555
Mo18 O78 2.035175 1_545
Mo19 O76 1.923720 1_555
Mo19 O52 1.927333 1_555
Mo19 O44 1.936252 1_555
Mo19 O70 2.025532 1_555
O33 W0 1.958327 1_555
O35 W1 1.906587 1_555
O37 W2 1.929791 1_555
O38 W3 1.933914 1_555
O39 W4 1.935420 1_555
O40 W5 1.920000 1_555
O41 W6 1.922486 1_555
O42 W7 1.965052 1_555
O43 W8 1.964740 1_555
O45 W9 1.932056 1_555
O46 W10 1.968068 1_555
O47 W11 1.949814 1_555
O48 W5 1.974671 1_555
O49 W6 1.952343 1_555
O50 W7 1.920231 1_555
O51 W8 1.912438 1_555
O53 W9 1.942577 1_555
O54 W10 1.931097 1_555
O55 W11 1.932820 1_555
O57 W0 1.920674 1_555
O59 W1 1.964974 1_555
O61 W2 1.952092 1_555
O62 W3 1.964458 1_555
O63 W4 1.947119 1_555
O64 W7 2.049244 1_545
O65 W2 1.975546 1_555
O65 W8 2.053712 1_545
O66 W3 1.925150 1_555
O66 W5 2.058154 1_555
O67 W4 1.968563 1_555
O67 W6 2.059369 1_555
O68 W10 2.045991 1_545
O69 W0 1.970613 1_655
O69 W11 2.057557 1_545
O71 W1 1.962990 1_655
O71 W9 2.042741 1_555
O72 W5 1.938721 1_555
O73 W6 1.964387 1_555
O73 W1 2.064122 1_555
O74 W7 1.929899 1_555
O75 W8 1.969718 1_555
O75 W0 2.050485 1_565
O76 W3 2.014787 1_555
O77 W9 1.965947 1_555
O77 W4 2.044157 1_555
O78 W10 1.931626 1_555
O79 W11 1.973979 1_555
O79 W2 2.050248 1_565
