# generated using pymatgen
data_Zn4P3O13
_symmetry_space_group_name_H-M   'P 1'
_cell_length_a   5.09726200
_cell_length_b   9.59343055
_cell_length_c   13.40692928
_cell_angle_alpha   102.10788740
_cell_angle_beta   100.31381008
_cell_angle_gamma   102.78906706
_symmetry_Int_Tables_number   1
_chemical_formula_structural   Zn4P3O13
_chemical_formula_sum   'Zn8 P6 O26'
_cell_volume   607.38645172
_cell_formula_units_Z   2
loop_
 _symmetry_equiv_pos_site_id
 _symmetry_equiv_pos_as_xyz
  1  'x, y, z'
loop_
 _atom_site_type_symbol
 _atom_site_label
 _atom_site_symmetry_multiplicity
 _atom_site_fract_x
 _atom_site_fract_y
 _atom_site_fract_z
 _atom_site_occupancy
  Zn  Zn0  1  0.11638100  0.69073000  0.15401300  1
  Zn  Zn1  1  0.87803100  0.30693400  0.84972900  1
  Zn  Zn2  1  0.95191900  0.15885200  0.27684300  1
  Zn  Zn3  1  0.04533900  0.84538500  0.71922700  1
  Zn  Zn4  1  0.54429900  0.47076600  0.20394100  1
  Zn  Zn5  1  0.44482900  0.52549500  0.79513300  1
  Zn  Zn6  1  0.85634700  0.66165500  0.46286000  1
  Zn  Zn7  1  0.13815900  0.33647700  0.53651800  1
  P  P0  1  0.57571300  0.32625900  0.39476300  1
  P  P1  1  0.42082300  0.67353600  0.60659100  1
  P  P2  1  0.95192200  0.32782200  0.09337900  1
  P  P3  1  0.04491800  0.67557400  0.90787500  1
  P  P4  1  0.74712800  0.82179900  0.28566100  1
  P  P5  1  0.24971000  0.18071900  0.71660400  1
  O  O0  1  0.83518400  0.82882000  0.40365000  1
  O  O1  1  0.15709600  0.17227400  0.59871000  1
  O  O2  1  0.04364700  0.74473400  0.02215800  1
  O  O3  1  0.95485700  0.25690000  0.97945100  1
  O  O4  1  0.61886000  0.20232800  0.31282700  1
  O  O5  1  0.37884200  0.79642400  0.69026700  1
  O  O6  1  0.92749100  0.95140600  0.25817200  1
  O  O7  1  0.07241900  0.05195300  0.74605500  1
  O  O8  1  0.79204800  0.67578000  0.21818900  1
  O  O9  1  0.20419900  0.32630500  0.78504200  1
  O  O10  1  0.73127400  0.71571000  0.59756700  1
  O  O11  1  0.26573800  0.28461600  0.40388400  1
  O  O12  1  0.17446700  0.48644900  0.13411600  1
  O  O13  1  0.82732300  0.51910500  0.86192000  1
  O  O14  1  0.50259900  0.99865900  0.49833500  1
  O  O15  1  0.23023400  0.63716300  0.49707000  1
  O  O16  1  0.76748300  0.36552400  0.50460300  1
  O  O17  1  0.66528900  0.34843500  0.09929900  1
  O  O18  1  0.33290000  0.66287800  0.89651500  1
  O  O19  1  0.43821900  0.81589000  0.25916700  1
  O  O20  1  0.56014800  0.18906000  0.74123200  1
  O  O21  1  0.62328500  0.47387300  0.35511800  1
  O  O22  1  0.37337500  0.52539900  0.64507700  1
  O  O23  1  0.05905400  0.23453300  0.16317800  1
  O  O24  1  0.93959600  0.77698200  0.84056900  1
  O  O25  1  0.79085800  0.90980100  0.94979200  1
loop_
_geom_bond_atom_site_label_1
_geom_bond_atom_site_label_2
_geom_bond_distance
_geom_bond_site_symmetry_2
O0 P4 1.547898 1_555
O0 Zn6 1.947711 1_555
O1 P5 1.545920 1_555
O1 Zn7 1.943072 1_555
O2 P3 1.538452 1_554
O2 Zn0 1.940473 1_555
O3 P2 1.540421 1_556
O3 Zn1 1.896845 1_555
O4 P0 1.524144 1_555
O4 Zn2 1.952229 1_555
O5 P1 1.528721 1_555
O5 Zn3 1.942820 1_555
O6 P4 1.527908 1_555
O6 Zn2 1.925846 1_565
O7 P5 1.528632 1_555
O7 Zn3 1.907261 1_545
O8 P4 1.586695 1_555
O8 Zn0 1.987487 1_655
O8 Zn4 2.038605 1_555
O9 P5 1.590110 1_555
O9 Zn5 1.992181 1_555
O9 Zn1 1.999477 1_455
O10 P1 1.577376 1_555
O10 Zn6 2.025535 1_555
O10 Zn3 2.025565 1_655
O11 P0 1.575199 1_555
O11 Zn7 2.004657 1_555
O11 Zn2 2.055075 1_455
O12 P2 1.601912 1_455
O12 Zn4 2.001361 1_555
O12 Zn0 2.016265 1_555
O13 P3 1.579003 1_655
O13 Zn5 2.014339 1_555
O13 Zn1 2.084479 1_555
O15 P1 1.531585 1_555
O15 Zn6 1.956554 1_455
O16 P0 1.534546 1_555
O16 Zn7 1.955587 1_655
O17 P2 1.530655 1_555
O17 Zn4 1.914516 1_555
O18 P3 1.531093 1_555
O18 Zn5 1.941422 1_555
O19 P4 1.536385 1_555
O19 Zn0 1.926165 1_555
O20 P5 1.537899 1_555
O20 Zn1 1.917001 1_555
O21 P0 1.598938 1_555
O21 Zn4 1.986989 1_555
O21 Zn6 2.022265 1_555
O22 P1 1.595150 1_555
O22 Zn5 1.979054 1_555
O22 Zn7 2.036455 1_555
O23 P2 1.536093 1_455
O23 Zn2 1.932414 1_455
O24 P3 1.573196 1_655
O24 Zn3 1.993223 1_655
O24 O25 2.094077 1_555
