# generated using pymatgen
data_Sm2Mn17C2
_symmetry_space_group_name_H-M   'P 1'
_cell_length_a   6.45702347
_cell_length_b   6.45702347
_cell_length_c   6.46727796
_cell_angle_alpha   83.73568522
_cell_angle_beta   83.73568522
_cell_angle_gamma   83.99749191
_symmetry_Int_Tables_number   1
_chemical_formula_structural   Sm2Mn17C2
_chemical_formula_sum   'Sm2 Mn17 C2'
_cell_volume   265.25658263
_cell_formula_units_Z   1
loop_
 _symmetry_equiv_pos_site_id
 _symmetry_equiv_pos_as_xyz
  1  'x, y, z'
loop_
 _atom_site_type_symbol
 _atom_site_label
 _atom_site_symmetry_multiplicity
 _atom_site_fract_x
 _atom_site_fract_y
 _atom_site_fract_z
 _atom_site_occupancy
  Sm  Sm0  1  0.64417600  0.64417600  0.65536100  1
  Sm  Sm1  1  0.35582400  0.35582400  0.34463900  1
  Mn  Mn0  1  0.90523000  0.90523000  0.90538200  1
  Mn  Mn1  1  0.09477000  0.09477000  0.09461800  1
  Mn  Mn2  1  0.27068600  0.72931400  0.00000000  1
  Mn  Mn3  1  0.71860200  0.99341400  0.28028000  1
  Mn  Mn4  1  0.00658600  0.28139800  0.71972000  1
  Mn  Mn5  1  0.28139800  0.00658600  0.71972000  1
  Mn  Mn6  1  0.99341400  0.71860200  0.28028000  1
  Mn  Mn7  1  0.72931400  0.27068600  0.00000000  1
  Mn  Mn8  1  0.86652000  0.33548000  0.33795000  1
  Mn  Mn9  1  0.34559900  0.34559900  0.87141500  1
  Mn  Mn10  1  0.33548000  0.86652000  0.33795000  1
  Mn  Mn11  1  0.13348000  0.66452000  0.66205000  1
  Mn  Mn12  1  0.65440100  0.65440100  0.12858500  1
  Mn  Mn13  1  0.66452000  0.13348000  0.66205000  1
  Mn  Mn14  1  0.00000000  0.00000000  0.50000000  1
  Mn  Mn15  1  0.00000000  0.50000000  0.00000000  1
  Mn  Mn16  1  0.50000000  0.00000000  0.00000000  1
  C  C0  1  0.50000000  0.00000000  0.50000000  1
  C  C1  1  0.00000000  0.50000000  0.50000000  1
loop_
_geom_bond_atom_site_label_1
_geom_bond_atom_site_label_2
_geom_bond_distance
_geom_bond_site_symmetry_2
Mn0 Mn1 2.336767 1_666
Mn0 Mn13 2.571565 1_565
Mn0 Mn11 2.571565 1_655
Mn0 Mn2 2.614574 1_656
Mn0 Mn7 2.614574 1_566
Mn0 Mn12 2.618817 1_556
Mn0 Mn16 2.644394 1_566
Mn0 Mn15 2.644394 1_656
Mn0 Mn14 2.645831 1_665
Mn0 Mn6 2.678636 1_556
Mn0 Mn3 2.678636 1_556
Mn0 Mn5 2.700787 1_665
Mn0 Mn4 2.700787 1_665
Mn0 Sm0 3.175078 1_555
Mn1 Mn10 2.571565 1_545
Mn1 Mn8 2.571565 1_455
Mn1 Mn7 2.614574 1_455
Mn1 Mn2 2.614574 1_545
Mn1 Mn9 2.618817 1_554
Mn1 Mn16 2.644394 1_555
Mn1 Mn15 2.644394 1_555
Mn1 Mn14 2.645831 1_555
Mn1 Mn5 2.678636 1_554
Mn1 Mn4 2.678636 1_554
Mn1 Mn6 2.700787 1_445
Mn1 Mn3 2.700787 1_445
Mn1 Sm1 3.175078 1_555
Mn2 Mn6 2.405444 1_455
Mn2 Mn5 2.405444 1_564
Mn2 Mn9 2.678716 1_554
Mn2 Sm1 3.146929 1_555
Mn2 Sm0 3.146929 1_554
Mn3 Mn7 2.405444 1_565
Mn4 Mn7 2.405444 1_456
Mn4 Mn9 2.583273 1_555
Mn5 Mn9 2.583273 1_555
Mn7 Mn8 2.537024 1_555
Mn7 Mn9 2.678716 1_554
Mn7 Sm0 3.146929 1_554
Mn7 Sm1 3.146929 1_555
Mn9 Sm0 2.997956 1_555
Mn9 Sm1 3.076411 1_556
Mn9 Sm1 3.393787 1_555
Mn10 Mn14 2.417610 1_565
Mn10 Mn16 2.433511 1_565
Mn10 Mn2 2.537024 1_555
Mn10 Mn12 2.675127 1_555
Mn11 Mn14 2.417610 1_565
Mn11 Mn15 2.433511 1_556
Mn11 Mn2 2.537024 1_556
Mn11 Mn9 2.675127 1_555
Mn12 Mn15 2.444571 1_655
Mn12 Mn16 2.444571 1_565
Mn12 Mn6 2.583273 1_555
Mn12 Mn3 2.583273 1_555
Mn12 Mn8 2.675127 1_555
Mn12 Mn2 2.678716 1_555
Mn12 Mn7 2.678716 1_555
Mn12 Sm1 2.997956 1_555
Mn12 Sm0 3.076411 1_554
Mn12 Sm0 3.393787 1_555
Mn13 Mn14 2.417610 1_655
Mn13 Mn16 2.433511 1_556
Mn13 Mn7 2.537024 1_556
Mn13 Mn9 2.675127 1_555
Mn14 Mn8 2.417610 1_455
Mn14 Mn5 2.432137 1_555
Mn14 Mn6 2.432137 1_445
Mn14 Mn3 2.432137 1_445
Mn14 Mn4 2.432137 1_555
Mn14 Sm1 3.415202 1_555
Mn14 Sm0 3.415202 1_445
Mn15 Mn7 2.405948 1_455
Mn15 Mn2 2.405948 1_555
Mn15 Mn6 2.410160 1_455
Mn15 Mn4 2.410160 1_554
Mn15 Mn8 2.433511 1_455
Mn15 Mn9 2.444571 1_554
Mn15 Sm1 3.366117 1_555
Mn15 Sm0 3.366117 1_454
Mn16 Mn2 2.405948 1_545
Mn16 Mn7 2.405948 1_555
Mn16 Mn3 2.410160 1_545
Mn16 Mn5 2.410160 1_554
Mn16 Mn9 2.444571 1_554
Mn16 Sm1 3.366117 1_555
Mn16 Sm0 3.366117 1_544
C0 Mn5 1.891117 1_555
C0 Mn3 1.891117 1_545
C0 Mn13 1.897701 1_555
C0 Mn10 1.897701 1_545
C0 Sm0 2.531405 1_545
C0 Sm1 2.531405 1_555
C1 Mn6 1.891117 1_455
C1 Mn4 1.891117 1_555
C1 Mn11 1.897701 1_555
C1 Mn8 1.897701 1_455
C1 Sm0 2.531405 1_455
C1 Sm1 2.531405 1_555
