# generated using pymatgen
data_Cr(ReO3)2
_symmetry_space_group_name_H-M   'P 1'
_cell_length_a   6.77726142
_cell_length_b   6.77729961
_cell_length_c   9.75198642
_cell_angle_alpha   69.67189424
_cell_angle_beta   69.67129381
_cell_angle_gamma   89.99704671
_symmetry_Int_Tables_number   1
_chemical_formula_structural   Cr(ReO3)2
_chemical_formula_sum   'Cr4 Re8 O24'
_cell_volume   390.14076784
_cell_formula_units_Z   4
loop_
 _symmetry_equiv_pos_site_id
 _symmetry_equiv_pos_as_xyz
  1  'x, y, z'
loop_
 _atom_site_type_symbol
 _atom_site_label
 _atom_site_symmetry_multiplicity
 _atom_site_fract_x
 _atom_site_fract_y
 _atom_site_fract_z
 _atom_site_occupancy
  Cr  Cr0  1  0.41668700  0.91666100  0.16665100  1
  Cr  Cr1  1  0.16665000  0.16668500  0.66665600  1
  Cr  Cr2  1  0.91668800  0.41665900  0.16665000  1
  Cr  Cr3  1  0.66666600  0.66668800  0.66664300  1
  Re  Re0  1  0.24282500  0.74286400  0.51425300  1
  Re  Re1  1  0.74282300  0.24286600  0.51425100  1
  Re  Re2  1  0.09089200  0.59091600  0.81823800  1
  Re  Re3  1  0.59090200  0.09091700  0.81822400  1
  Re  Re4  1  0.49285600  0.49282600  0.01424300  1
  Re  Re5  1  0.99286000  0.99283400  0.01423100  1
  Re  Re6  1  0.34092400  0.34090600  0.31824400  1
  Re  Re7  1  0.84092400  0.84091000  0.31823400  1
  O  O0  1  0.69681400  0.91666600  0.16683900  1
  O  O1  1  0.19682600  0.41667500  0.16683500  1
  O  O2  1  0.13638600  0.91653200  0.16681800  1
  O  O3  1  0.63637200  0.41652000  0.16682000  1
  O  O4  1  0.16653000  0.88641500  0.66679400  1
  O  O5  1  0.66653300  0.38638800  0.66682300  1
  O  O6  1  0.16667000  0.44680300  0.66681000  1
  O  O7  1  0.66664900  0.94679800  0.66683700  1
  O  O8  1  0.54880600  0.75229700  0.49522600  1
  O  O9  1  0.04880300  0.25229800  0.49524100  1
  O  O10  1  0.37695100  0.58075100  0.83843400  1
  O  O11  1  0.87693000  0.08074900  0.83843100  1
  O  O12  1  0.95602200  0.75243200  0.49517900  1
  O  O13  1  0.45599300  0.25242000  0.49519700  1
  O  O14  1  0.78469600  0.58080200  0.83836800  1
  O  O15  1  0.28471800  0.08080400  0.83836500  1
  O  O16  1  0.33078800  0.03465300  0.33838900  1
  O  O17  1  0.83079400  0.53470200  0.33837300  1
  O  O18  1  0.00244800  0.70602600  0.99517600  1
  O  O19  1  0.50245400  0.20600000  0.99516700  1
  O  O20  1  0.00232400  0.29881000  0.99522500  1
  O  O21  1  0.50232300  0.79884100  0.99521400  1
  O  O22  1  0.33073300  0.62696000  0.33847100  1
  O  O23  1  0.83074200  0.12693200  0.33845100  1
loop_
_geom_bond_atom_site_label_1
_geom_bond_atom_site_label_2
_geom_bond_distance
_geom_bond_site_symmetry_2
Cr0 O2 1.899108 1_555
Cr0 O0 1.899132 1_555
Cr0 O21 2.005700 1_554
Cr0 O19 2.006505 1_564
Cr0 O16 2.009059 1_565
Cr0 O22 2.009481 1_555
Cr1 O6 1.898966 1_555
Cr1 O4 1.899007 1_545
Cr1 O9 2.005647 1_555
Cr1 O13 2.006408 1_555
Cr1 O15 2.009175 1_555
Cr1 O11 2.009378 1_455
Cr2 O1 1.899196 1_655
Cr2 O3 1.899200 1_555
Cr2 O20 2.005733 1_654
Cr2 O18 2.006597 1_654
Cr2 O17 2.009169 1_555
Cr2 O23 2.009529 1_555
Cr3 O7 1.899047 1_555
Cr3 O5 1.899068 1_555
Cr3 O8 2.005725 1_555
Cr3 O12 2.006488 1_555
Cr3 O14 2.009134 1_555
Cr3 O10 2.009416 1_555
O0 Re7 1.967848 1_555
O0 Re5 1.974470 1_555
O1 Re6 1.967900 1_555
O1 Re4 1.974340 1_555
O2 Re7 1.967899 1_455
O2 Re5 1.974540 1_455
O3 Re6 1.967851 1_555
O3 Re4 1.974407 1_555
O4 Re2 1.968192 1_555
O4 Re0 1.974286 1_555
O5 Re3 1.967920 1_555
O5 Re1 1.974390 1_555
O6 Re2 1.968124 1_555
O6 Re0 1.974413 1_555
O7 Re3 1.967822 1_565
O7 Re1 1.974536 1_565
O8 Re0 2.015744 1_555
O8 Re7 2.040820 1_555
O9 Re1 2.015783 1_455
O9 Re6 2.040854 1_555
O10 Re2 2.014432 1_555
O10 Re4 2.034074 1_556
O11 Re3 2.014268 1_555
O11 Re5 2.034112 1_546
O12 Re0 2.014880 1_655
O12 Re7 2.040072 1_555
O13 Re1 2.014982 1_555
O13 Re6 2.040007 1_555
O14 Re2 2.014246 1_655
O14 Re4 2.035131 1_556
O15 Re3 2.014136 1_555
O15 Re5 2.035178 1_446
O16 Re6 2.014605 1_555
O16 Re0 2.034872 1_545
O17 Re7 2.014317 1_555
O17 Re1 2.035143 1_555
O18 Re5 2.014846 1_456
O18 Re2 2.040058 1_555
O19 Re4 2.015053 1_556
O19 Re3 2.039977 1_555
O20 Re5 2.015781 1_446
O20 Re2 2.040764 1_555
O21 Re4 2.015982 1_556
O21 Re3 2.040639 1_565
O22 Re6 2.014535 1_555
O22 Re0 2.033830 1_555
O23 Re7 2.014278 1_545
O23 Re1 2.034122 1_555
