# generated using pymatgen
data_Rb4LiH3(SO4)4
_symmetry_space_group_name_H-M   'P 1'
_cell_length_a   7.80652816
_cell_length_b   7.80652816
_cell_length_c   30.07754820
_cell_angle_alpha   90.00000000
_cell_angle_beta   90.00000000
_cell_angle_gamma   90.00000000
_symmetry_Int_Tables_number   1
_chemical_formula_structural   Rb4LiH3(SO4)4
_chemical_formula_sum   'Rb16 Li4 H12 S16 O64'
_cell_volume   1832.98239063
_cell_formula_units_Z   4
loop_
 _symmetry_equiv_pos_site_id
 _symmetry_equiv_pos_as_xyz
  1  'x, y, z'
loop_
 _atom_site_type_symbol
 _atom_site_label
 _atom_site_symmetry_multiplicity
 _atom_site_fract_x
 _atom_site_fract_y
 _atom_site_fract_z
 _atom_site_occupancy
  Rb  Rb0  1  0.11493167  0.86473716  0.28898195  1
  Rb  Rb1  1  0.88506833  0.13526284  0.78898195  1
  Rb  Rb2  1  0.86473716  0.88506833  0.03898195  1
  Rb  Rb3  1  0.13526284  0.11493167  0.53898195  1
  Rb  Rb4  1  0.61569245  0.56419118  0.30231755  1
  Rb  Rb5  1  0.38430755  0.43580882  0.80231755  1
  Rb  Rb6  1  0.56419118  0.38430755  0.05231755  1
  Rb  Rb7  1  0.43580882  0.61569245  0.55231755  1
  Rb  Rb8  1  0.02937695  0.47658217  0.41710952  1
  Rb  Rb9  1  0.97062305  0.52341783  0.91710952  1
  Rb  Rb10  1  0.47658217  0.97062305  0.16710952  1
  Rb  Rb11  1  0.52341783  0.02937695  0.66710952  1
  Rb  Rb12  1  0.72652504  0.97978280  0.40753185  1
  Rb  Rb13  1  0.27347496  0.02021720  0.90753185  1
  Rb  Rb14  1  0.97978280  0.27347496  0.15753185  1
  Rb  Rb15  1  0.02021720  0.72652504  0.65753185  1
  Li  Li0  1  0.37091408  0.22079951  0.35451100  1
  Li  Li1  1  0.62908592  0.77920049  0.85451100  1
  Li  Li2  1  0.22079951  0.62908592  0.10451100  1
  Li  Li3  1  0.77920049  0.37091408  0.60451100  1
  H  H0  1  0.34037720  0.76402126  0.45357669  1
  H  H1  1  0.65962280  0.23597874  0.95357669  1
  H  H2  1  0.76402126  0.65962280  0.20357669  1
  H  H3  1  0.23597874  0.34037720  0.70357669  1
  H  H4  1  0.57551441  0.28687817  0.48361710  1
  H  H5  1  0.42448559  0.71312183  0.98361710  1
  H  H6  1  0.28687817  0.42448559  0.23361710  1
  H  H7  1  0.71312183  0.57551441  0.73361710  1
  H  H8  1  0.81000435  0.81550749  0.50382077  1
  H  H9  1  0.18999565  0.18449251  0.00382077  1
  H  H10  1  0.81550749  0.18999565  0.25382077  1
  H  H11  1  0.18449251  0.81000435  0.75382077  1
  S  S0  1  0.19768120  0.96200884  0.41712393  1
  S  S1  1  0.80231880  0.03799116  0.91712393  1
  S  S2  1  0.96200884  0.80231880  0.16712393  1
  S  S3  1  0.03799116  0.19768120  0.66712393  1
  S  S4  1  0.53584905  0.49357002  0.42129932  1
  S  S5  1  0.46415095  0.50642998  0.92129932  1
  S  S6  1  0.49357002  0.46415095  0.17129932  1
  S  S7  1  0.50642998  0.53584905  0.67129932  1
  S  S8  1  0.62400218  0.09135830  0.53951872  1
  S  S9  1  0.37599782  0.90864170  0.03951872  1
  S  S10  1  0.09135830  0.37599782  0.28951872  1
  S  S11  1  0.90864170  0.62400218  0.78951872  1
  S  S12  1  0.96176920  0.62433937  0.53881530  1
  S  S13  1  0.03823080  0.37566063  0.03881530  1
  S  S14  1  0.62433937  0.03823080  0.28881530  1
  S  S15  1  0.37566063  0.96176920  0.78881530  1
  O  O0  1  0.10018065  0.10673799  0.43502819  1
  O  O1  1  0.89981935  0.89326201  0.93502819  1
  O  O2  1  0.10673799  0.89981935  0.18502819  1
  O  O3  1  0.89326201  0.10018065  0.68502819  1
  O  O4  1  0.09073157  0.83535123  0.39396796  1
  O  O5  1  0.90926843  0.16464877  0.89396796  1
  O  O6  1  0.83535123  0.90926843  0.14396796  1
  O  O7  1  0.16464877  0.09073157  0.64396796  1
  O  O8  1  0.34643879  0.01282901  0.38982347  1
  O  O9  1  0.65356121  0.98717099  0.88982347  1
  O  O10  1  0.01282901  0.65356121  0.13982347  1
  O  O11  1  0.98717099  0.34643879  0.63982347  1
  O  O12  1  0.27335836  0.87393602  0.46058374  1
  O  O13  1  0.72664164  0.12606398  0.96058374  1
  O  O14  1  0.87393602  0.72664164  0.21058374  1
  O  O15  1  0.12606398  0.27335836  0.71058374  1
  O  O16  1  0.66769880  0.60288190  0.40047921  1
  O  O17  1  0.33230120  0.39711810  0.90047921  1
  O  O18  1  0.60288190  0.33230120  0.15047921  1
  O  O19  1  0.39711810  0.66769880  0.65047921  1
  O  O20  1  0.41516479  0.42810218  0.38699773  1
  O  O21  1  0.58483521  0.57189782  0.88699773  1
  O  O22  1  0.42810218  0.58483521  0.13699773  1
  O  O23  1  0.57189782  0.41516479  0.63699773  1
  O  O24  1  0.43692604  0.58848852  0.45606154  1
  O  O25  1  0.56307396  0.41151148  0.95606154  1
  O  O26  1  0.58848852  0.56307396  0.20606154  1
  O  O27  1  0.41151148  0.43692604  0.70606154  1
  O  O28  1  0.62546293  0.34327290  0.44357094  1
  O  O29  1  0.37453707  0.65672710  0.94357094  1
  O  O30  1  0.34327290  0.37453707  0.19357094  1
  O  O31  1  0.65672710  0.62546293  0.69357094  1
  O  O32  1  0.49171013  0.99435680  0.56316429  1
  O  O33  1  0.50828987  0.00564320  0.06316429  1
  O  O34  1  0.99435680  0.50828987  0.31316429  1
  O  O35  1  0.00564320  0.49171013  0.81316429  1
  O  O36  1  0.75381647  0.16247330  0.56995658  1
  O  O37  1  0.24618353  0.83752670  0.06995658  1
  O  O38  1  0.16247330  0.24618353  0.31995658  1
  O  O39  1  0.83752670  0.75381647  0.81995658  1
  O  O40  1  0.52816973  0.24340119  0.51669879  1
  O  O41  1  0.47183027  0.75659881  0.01669879  1
  O  O42  1  0.24340119  0.47183027  0.26669879  1
  O  O43  1  0.75659881  0.52816973  0.76669879  1
  O  O44  1  0.70799410  0.99107560  0.50359401  1
  O  O45  1  0.29200590  0.00892440  0.00359401  1
  O  O46  1  0.99107560  0.29200590  0.25359401  1
  O  O47  1  0.00892440  0.70799410  0.75359401  1
  O  O48  1  0.05644115  0.47843550  0.52077794  1
  O  O49  1  0.94355885  0.52156450  0.02077794  1
  O  O50  1  0.47843550  0.94355885  0.27077794  1
  O  O51  1  0.52156450  0.05644115  0.77077794  1
  O  O52  1  0.07196817  0.75421822  0.55964136  1
  O  O53  1  0.92803183  0.24578178  0.05964136  1
  O  O54  1  0.75421822  0.92803183  0.30964136  1
  O  O55  1  0.24578178  0.07196817  0.80964136  1
  O  O56  1  0.81872038  0.57686039  0.56850002  1
  O  O57  1  0.18127962  0.42313961  0.06850002  1
  O  O58  1  0.57686039  0.18127962  0.31850002  1
  O  O59  1  0.42313961  0.81872038  0.81850002  1
  O  O60  1  0.87721384  0.70795709  0.49589053  1
  O  O61  1  0.12278616  0.29204291  0.99589053  1
  O  O62  1  0.70795709  0.12278616  0.24589053  1
  O  O63  1  0.29204291  0.87721384  0.74589053  1
loop_
_geom_bond_atom_site_label_1
_geom_bond_atom_site_label_2
_geom_bond_distance
_geom_bond_site_symmetry_2
Li0 O20 1.921728 1_555
Li0 O38 1.940931 1_555
Li0 O8 1.949470 1_555
Li0 O58 1.962935 1_555
Li1 O21 1.921728 1_555
Li1 O39 1.940931 1_555
Li1 O9 1.949470 1_555
Li1 O59 1.962935 1_555
Li2 O22 1.921728 1_555
Li2 O37 1.940931 1_555
Li2 O10 1.949470 1_555
Li2 O57 1.962935 1_555
Li3 O23 1.921728 1_555
Li3 O36 1.940931 1_555
Li3 O11 1.949470 1_555
Li3 O56 1.962935 1_555
H0 O12 1.026837 1_555
H0 O24 1.565692 1_555
H1 O13 1.026837 1_555
H1 O25 1.565692 1_555
H2 O14 1.026837 1_555
H2 O26 1.565692 1_555
H3 O15 1.026837 1_555
H3 O27 1.565692 1_555
H4 O40 1.114385 1_555
H4 O28 1.340394 1_555
H5 O41 1.114385 1_556
H5 O29 1.340394 1_555
H6 O42 1.114385 1_555
H6 O30 1.340394 1_555
H7 O43 1.114385 1_555
H7 O31 1.340394 1_555
H8 O60 1.018378 1_555
H8 O44 1.585148 1_555
H9 O61 1.018378 1_554
H9 O45 1.585148 1_555
H10 O62 1.018378 1_555
H10 O46 1.585148 1_555
H11 O63 1.018378 1_555
H11 O47 1.585148 1_555
O0 S0 1.464874 1_545
O0 Rb8 2.988628 1_555
O0 Rb3 3.139297 1_555
O0 Rb12 3.189799 1_445
O1 S1 1.464874 1_565
O1 Rb9 2.988628 1_555
O1 Rb2 3.139297 1_556
O1 Rb13 3.189799 1_665
O2 S2 1.464874 1_455
O2 Rb10 2.988628 1_555
O2 Rb0 3.139297 1_555
O2 Rb14 3.189799 1_465
O3 S3 1.464874 1_655
O3 Rb11 2.988628 1_555
O3 Rb1 3.139297 1_555
O3 Rb15 3.189799 1_645
O4 S0 1.469620 1_555
O4 Rb8 2.925411 1_555
O4 Rb12 3.085682 1_455
O4 Rb0 3.171675 1_555
O5 S1 1.469620 1_555
O5 Rb9 2.925411 1_555
O5 Rb13 3.085682 1_655
O5 Rb1 3.171675 1_555
O6 S2 1.469620 1_555
O6 Rb10 2.925411 1_555
O6 Rb14 3.085682 1_565
O6 Rb2 3.171675 1_555
O7 S3 1.469620 1_555
O7 Rb11 2.925411 1_555
O7 Rb15 3.085682 1_545
O7 Rb3 3.171675 1_555
O8 S0 1.476557 1_545
O8 Rb12 3.025598 1_545
O9 S1 1.476557 1_565
O9 Rb13 3.025598 1_565
O10 S2 1.476557 1_455
O10 Rb14 3.025598 1_455
O11 S3 1.476557 1_655
O11 Rb15 3.025598 1_655
O12 S0 1.590726 1_555
O12 Rb3 3.203421 1_565
O13 S1 1.590726 1_555
O13 Rb2 3.203421 1_546
O14 S2 1.590726 1_555
O14 Rb0 3.203421 1_655
O15 S3 1.590726 1_555
O15 Rb1 3.203421 1_455
O16 S4 1.476409 1_555
O16 Rb12 2.985455 1_555
O16 Rb4 2.995511 1_555
O16 Rb8 3.032193 1_655
O17 S5 1.476409 1_555
O17 Rb13 2.985455 1_555
O17 Rb5 2.995511 1_555
O17 Rb9 3.032193 1_455
O18 S6 1.476409 1_555
O18 Rb14 2.985455 1_555
O18 Rb6 2.995511 1_555
O18 Rb10 3.032193 1_545
O19 S7 1.476409 1_555
O19 Rb15 2.985455 1_555
O19 Rb7 2.995511 1_555
O19 Rb11 3.032193 1_565
O20 S4 1.487689 1_555
O20 Rb8 3.167589 1_555
O20 Rb4 3.172740 1_555
O21 S5 1.487689 1_555
O21 Rb9 3.167589 1_555
O21 Rb5 3.172740 1_555
O22 S6 1.487689 1_555
O22 Rb10 3.167589 1_555
O22 Rb6 3.172740 1_555
O23 S7 1.487689 1_555
O23 Rb11 3.167589 1_555
O23 Rb7 3.172740 1_555
O24 S4 1.496202 1_555
O24 Rb7 2.902936 1_555
O25 S5 1.496202 1_555
O25 Rb6 2.902936 1_556
O26 S6 1.496202 1_555
O26 Rb4 2.902936 1_555
O27 S7 1.496202 1_555
O27 Rb5 2.902936 1_555
O28 S4 1.521436 1_555
O28 Rb12 3.138370 1_545
O28 Rb8 3.414517 1_655
O29 S5 1.521436 1_555
O29 Rb13 3.138370 1_565
O29 Rb9 3.414517 1_455
O30 S6 1.521436 1_555
O30 Rb14 3.138370 1_455
O30 Rb10 3.414517 1_545
O31 S7 1.521436 1_555
O31 Rb15 3.138370 1_655
O31 Rb11 3.414517 1_565
O32 S8 1.464849 1_565
O32 Rb7 3.005849 1_555
O32 Rb3 3.026214 1_565
O32 Rb11 3.148094 1_565
O33 S9 1.464849 1_545
O33 Rb6 3.005849 1_555
O33 Rb2 3.026214 1_545
O33 Rb10 3.148094 1_545
O34 S10 1.464849 1_655
O34 Rb4 3.005849 1_555
O34 Rb0 3.026214 1_655
O34 Rb8 3.148094 1_655
O35 S11 1.464849 1_455
O35 Rb5 3.005849 1_555
O35 Rb1 3.026214 1_455
O35 Rb9 3.148094 1_455
O36 S8 1.474217 1_555
O36 Rb3 3.142105 1_655
O37 S9 1.474217 1_555
O37 Rb2 3.142105 1_455
O38 S10 1.474217 1_555
O38 Rb0 3.142105 1_545
O39 S11 1.474217 1_555
O39 Rb1 3.142105 1_565
O40 S8 1.561915 1_555
O40 Rb7 3.180282 1_555
O40 Rb3 3.295901 1_555
O41 S9 1.561915 1_555
O41 Rb6 3.180282 1_555
O41 Rb2 3.295901 1_555
O42 S10 1.561915 1_555
O42 Rb4 3.180282 1_555
O42 Rb0 3.295901 1_555
O43 S11 1.561915 1_555
O43 Rb5 3.180282 1_555
O43 Rb1 3.295901 1_555
O44 S8 1.486718 1_565
O44 Rb12 2.894276 1_555
O45 S9 1.486718 1_545
O45 Rb13 2.894276 1_554
O46 S10 1.486718 1_655
O46 Rb14 2.894276 1_555
O47 S11 1.486718 1_455
O47 Rb15 2.894276 1_555
O48 S12 1.462143 1_455
O48 Rb3 2.954822 1_555
O48 Rb8 3.125275 1_555
O48 Rb7 3.289189 1_555
O49 S13 1.462143 1_655
O49 Rb2 2.954822 1_555
O49 Rb9 3.125275 1_554
O49 Rb6 3.289189 1_555
O50 S14 1.462143 1_565
O50 Rb0 2.954822 1_555
O50 Rb10 3.125275 1_555
O50 Rb4 3.289189 1_555
O51 S15 1.462143 1_545
O51 Rb1 2.954822 1_555
O51 Rb11 3.125275 1_555
O51 Rb5 3.289189 1_555
O52 S12 1.469843 1_455
O52 Rb3 2.925691 1_565
O52 Rb15 2.979746 1_555
O52 Rb7 3.047204 1_555
O53 S13 1.469843 1_655
O53 Rb2 2.925691 1_545
O53 Rb14 2.979746 1_555
O53 Rb6 3.047204 1_555
O54 S14 1.469843 1_565
O54 Rb0 2.925691 1_655
O54 Rb12 2.979746 1_555
O54 Rb4 3.047204 1_555
O55 S15 1.469843 1_545
O55 Rb1 2.925691 1_455
O55 Rb13 2.979746 1_555
O55 Rb5 3.047204 1_555
O56 S12 1.477024 1_555
O56 Rb7 3.043711 1_555
O56 Rb15 3.318177 1_655
O57 S13 1.477024 1_555
O57 Rb6 3.043711 1_555
O57 Rb14 3.318177 1_455
O58 S14 1.477024 1_555
O58 Rb4 3.043711 1_555
O58 Rb12 3.318177 1_545
O59 S15 1.477024 1_555
O59 Rb5 3.043711 1_555
O59 Rb13 3.318177 1_565
O60 S12 1.590182 1_555
O60 Rb8 3.207527 1_655
O61 S13 1.590182 1_556
O61 Rb9 3.207527 1_455
O62 S14 1.590182 1_555
O62 Rb10 3.207527 1_545
O63 S15 1.590182 1_555
O63 Rb11 3.207527 1_565
