# generated using pymatgen
data_Pr2Mn3Sb3O14
_symmetry_space_group_name_H-M   'P 1'
_cell_length_a   7.29423344
_cell_length_b   7.29423344
_cell_length_c   7.39327947
_cell_angle_alpha   60.91848428
_cell_angle_beta   60.91848428
_cell_angle_gamma   61.43913520
_symmetry_Int_Tables_number   1
_chemical_formula_structural   Pr2Mn3Sb3O14
_chemical_formula_sum   'Pr2 Mn3 Sb3 O14'
_cell_volume   284.97396581
_cell_formula_units_Z   1
loop_
 _symmetry_equiv_pos_site_id
 _symmetry_equiv_pos_as_xyz
  1  'x, y, z'
loop_
 _atom_site_type_symbol
 _atom_site_label
 _atom_site_symmetry_multiplicity
 _atom_site_fract_x
 _atom_site_fract_y
 _atom_site_fract_z
 _atom_site_occupancy
  Pr  Pr0  1  0.50000000  0.00000000  0.00000000  1
  Pr  Pr1  1  0.00000000  0.50000000  0.00000000  1
  Mn  Mn0  1  0.50000000  0.50000000  0.50000000  1
  Mn  Mn1  1  0.00000000  0.00000000  0.00000000  1
  Mn  Mn2  1  0.00000000  0.00000000  0.50000000  1
  Sb  Sb0  1  0.50000000  0.50000000  0.00000000  1
  Sb  Sb1  1  0.00000000  0.50000000  0.50000000  1
  Sb  Sb2  1  0.50000000  0.00000000  0.50000000  1
  O  O0  1  0.58742900  0.58742900  0.15089200  1
  O  O1  1  0.17465800  0.17465800  0.56995400  1
  O  O2  1  0.17538800  0.57225000  0.58069600  1
  O  O3  1  0.57859800  0.17343400  0.17694900  1
  O  O4  1  0.17343400  0.57859800  0.17694900  1
  O  O5  1  0.57225000  0.17538800  0.58069600  1
  O  O6  1  0.41257100  0.41257100  0.84910800  1
  O  O7  1  0.82534200  0.82534200  0.43004600  1
  O  O8  1  0.82461200  0.42775000  0.41930400  1
  O  O9  1  0.42140200  0.82656600  0.82305100  1
  O  O10  1  0.82656600  0.42140200  0.82305100  1
  O  O11  1  0.42775000  0.82461200  0.41930400  1
  O  O12  1  0.89370300  0.89370300  0.85870500  1
  O  O13  1  0.10629700  0.10629700  0.14129500  1
loop_
_geom_bond_atom_site_label_1
_geom_bond_atom_site_label_2
_geom_bond_distance
_geom_bond_site_symmetry_2
Mn0 O8 1.994835 1_555
Mn0 O11 1.994835 1_555
Mn0 O5 1.994835 1_555
Mn0 O2 1.994835 1_555
Mn0 O6 2.159609 1_555
Mn0 O0 2.159609 1_555
Mn1 O13 2.107886 1_555
Mn1 O12 2.107886 1_444
Mn1 O4 2.596480 1_545
Mn1 O3 2.596480 1_455
Mn1 O9 2.596480 1_544
Mn1 O10 2.596480 1_454
Mn1 O1 2.651743 1_554
Mn1 O7 2.651743 1_445
Mn2 O12 2.193750 1_445
Mn2 O13 2.193750 1_555
Mn2 O1 2.519247 1_555
Mn2 O7 2.519247 1_445
Mn2 O2 2.615982 1_545
Mn2 O11 2.615982 1_545
Mn2 O5 2.615982 1_455
Mn2 O8 2.615982 1_455
O0 Sb0 1.957037 1_555
O0 Pr0 2.510095 1_565
O0 Pr1 2.510095 1_655
O1 Sb2 2.019598 1_555
O1 Sb1 2.019598 1_555
O2 Sb1 1.990634 1_555
O2 Pr1 2.593411 1_556
O3 Sb2 2.014632 1_555
O3 Sb0 2.026882 1_555
O3 Pr0 2.583023 1_555
O4 Sb1 2.014632 1_555
O4 Sb0 2.026882 1_555
O4 Pr1 2.583023 1_555
O5 Sb2 1.990634 1_555
O5 Pr0 2.593411 1_556
O6 Sb0 1.957037 1_556
O6 Pr1 2.510095 1_556
O6 Pr0 2.510095 1_556
O7 Sb2 2.019598 1_565
O7 Sb1 2.019598 1_655
O8 Sb1 1.990634 1_655
O8 Pr1 2.593411 1_655
O9 Sb2 2.014632 1_565
O9 Sb0 2.026882 1_556
O9 Pr0 2.583023 1_566
O10 Sb1 2.014632 1_655
O10 Sb0 2.026882 1_556
O10 Pr1 2.583023 1_656
O11 Sb2 1.990634 1_565
O11 Pr0 2.593411 1_565
O12 Pr1 2.383587 1_656
O12 Pr0 2.383587 1_566
O13 Pr0 2.383587 1_555
O13 Pr1 2.383587 1_555
