# generated using pymatgen
data_Sm8Sb3O8
_symmetry_space_group_name_H-M   'P 1'
_cell_length_a   7.11947054
_cell_length_b   7.11947054
_cell_length_c   15.46492922
_cell_angle_alpha   73.38069868
_cell_angle_beta   73.38069868
_cell_angle_gamma   31.52238847
_symmetry_Int_Tables_number   1
_chemical_formula_structural   Sm8Sb3O8
_chemical_formula_sum   'Sm8 Sb3 O8'
_cell_volume   391.31523334
_cell_formula_units_Z   1
loop_
 _symmetry_equiv_pos_site_id
 _symmetry_equiv_pos_as_xyz
  1  'x, y, z'
loop_
 _atom_site_type_symbol
 _atom_site_label
 _atom_site_symmetry_multiplicity
 _atom_site_fract_x
 _atom_site_fract_y
 _atom_site_fract_z
 _atom_site_occupancy
  Sm  Sm0  1  0.71728800  0.72142600  0.91156300  1
  Sm  Sm1  1  0.27857400  0.28271200  0.08843700  1
  Sm  Sm2  1  0.64288600  0.64269600  0.56944700  1
  Sm  Sm3  1  0.35730400  0.35711400  0.43055300  1
  Sm  Sm4  1  0.87643800  0.87656900  0.65373400  1
  Sm  Sm5  1  0.12343100  0.12356200  0.34626600  1
  Sm  Sm6  1  0.45532300  0.45546300  0.83165600  1
  Sm  Sm7  1  0.54453700  0.54467700  0.16834400  1
  Sb  Sb0  1  0.17310700  0.17010800  0.73284900  1
  Sb  Sb1  1  0.82989200  0.82689300  0.26715100  1
  Sb  Sb2  1  0.96433900  0.03566100  0.00000000  1
  O  O0  1  0.46922900  0.46906400  0.63274700  1
  O  O1  1  0.53093600  0.53077100  0.36725300  1
  O  O2  1  0.88032800  0.88459300  0.79975800  1
  O  O3  1  0.11540700  0.11967200  0.20024200  1
  O  O4  1  0.16517400  0.16461000  0.48593800  1
  O  O5  1  0.83539000  0.83482600  0.51406200  1
  O  O6  1  0.29263400  0.30021800  0.93398500  1
  O  O7  1  0.69978200  0.70736600  0.06601500  1
loop_
_geom_bond_atom_site_label_1
_geom_bond_atom_site_label_2
_geom_bond_distance
_geom_bond_site_symmetry_2
Sb0 Sm2 3.294477 1_545
Sb0 Sm2 3.300848 1_455
Sb0 Sm4 3.324950 1_545
Sb0 Sm4 3.331984 1_455
Sb0 Sm6 3.484126 1_545
Sb0 Sm6 3.490858 1_455
Sb0 Sm0 3.581652 1_545
Sb0 Sm0 3.596525 1_455
Sb1 Sm3 3.294477 1_655
Sb1 Sm3 3.300848 1_565
Sb1 Sm5 3.324950 1_655
Sb1 Sm5 3.331984 1_565
Sb1 Sm7 3.484126 1_655
Sb1 Sm7 3.490858 1_565
Sb1 Sm1 3.581652 1_655
Sb1 Sm1 3.596525 1_565
Sb2 Sm7 3.365071 1_555
Sb2 Sm6 3.365071 1_554
Sb2 Sm0 3.423013 1_554
Sb2 Sm1 3.423013 1_555
Sb2 Sm7 3.519733 1_645
Sb2 Sm6 3.519733 1_644
Sb2 Sm0 3.566796 1_644
Sb2 Sm1 3.566796 1_645
O0 Sm4 2.282484 1_545
O0 Sm4 2.283454 1_455
O0 Sm2 2.288240 1_555
O0 Sm6 3.025459 1_555
O1 Sm5 2.282484 1_655
O1 Sm5 2.283454 1_565
O1 Sm3 2.288240 1_555
O1 Sm7 3.025459 1_555
O2 Sm4 2.283855 1_555
O2 Sm6 2.290032 1_565
O2 Sm6 2.303466 1_655
O2 Sm0 2.385018 1_555
O3 Sm5 2.283855 1_555
O3 Sm7 2.290032 1_455
O3 Sm7 2.303466 1_545
O3 Sm1 2.385018 1_555
O4 Sm2 2.294363 1_545
O4 Sm2 2.295582 1_455
O4 Sm5 2.390764 1_555
O4 Sm3 2.517432 1_555
O5 Sm3 2.294363 1_655
O5 Sm3 2.295582 1_565
O5 Sm4 2.390764 1_555
O5 Sm2 2.517432 1_555
O6 Sm0 2.273180 1_455
O6 Sm6 2.280579 1_555
O6 Sm0 2.284491 1_545
O6 Sm1 2.333479 1_556
O7 Sm1 2.273180 1_565
O7 Sm7 2.280579 1_555
O7 Sm1 2.284491 1_655
O7 Sm0 2.333479 1_554
