# generated using pymatgen
data_ZrCoGe
_symmetry_space_group_name_H-M   'P 1'
_cell_length_a   4.03207101
_cell_length_b   6.52833124
_cell_length_c   7.09874032
_cell_angle_alpha   90.00000000
_cell_angle_beta   90.00000000
_cell_angle_gamma   90.00000000
_symmetry_Int_Tables_number   1
_chemical_formula_structural   ZrCoGe
_chemical_formula_sum   'Zr4 Co4 Ge4'
_cell_volume   186.85797730
_cell_formula_units_Z   4
loop_
 _symmetry_equiv_pos_site_id
 _symmetry_equiv_pos_as_xyz
  1  'x, y, z'
loop_
 _atom_site_type_symbol
 _atom_site_label
 _atom_site_symmetry_multiplicity
 _atom_site_fract_x
 _atom_site_fract_y
 _atom_site_fract_z
 _atom_site_occupancy
  Zr  Zr0  1  0.25000000  -0.00190698  0.79571669  1
  Zr  Zr1  1  0.25000000  0.49809302  0.70428331  1
  Zr  Zr2  1  0.75000000  0.00190698  0.20428331  1
  Zr  Zr3  1  0.75000000  0.50190698  0.29571669  1
  Co  Co0  1  0.25000000  0.15251831  0.43461023  1
  Co  Co1  1  0.25000000  0.65251831  0.06538977  1
  Co  Co2  1  0.75000000  0.84748169  0.56538977  1
  Co  Co3  1  0.75000000  0.34748169  0.93461023  1
  Ge  Ge0  1  0.25000000  0.77856987  0.39648519  1
  Ge  Ge1  1  0.25000000  0.27856987  0.10351481  1
  Ge  Ge2  1  0.75000000  0.22143013  0.60351481  1
  Ge  Ge3  1  0.75000000  0.72143013  0.89648519  1
loop_
_geom_bond_atom_site_label_1
_geom_bond_atom_site_label_2
_geom_bond_distance
_geom_bond_site_symmetry_2
Co0 Ge2 2.388392 1_555
Co0 Ge2 2.388392 1_455
Co0 Ge0 2.456215 1_545
Co0 Ge1 2.490255 1_555
Co0 Zr0 2.754518 1_555
Co0 Zr2 2.775696 1_555
Co0 Zr2 2.775696 1_455
Co0 Zr1 2.958775 1_555
Co0 Zr3 3.199868 1_455
Co0 Zr3 3.199868 1_555
Co1 Ge3 2.388392 1_554
Co1 Ge3 2.388392 1_454
Co1 Ge1 2.456215 1_555
Co1 Ge0 2.490255 1_555
Co1 Zr1 2.754518 1_554
Co1 Zr3 2.775696 1_455
Co1 Zr3 2.775696 1_555
Co1 Zr0 2.958775 1_564
Co1 Zr2 3.199868 1_565
Co1 Zr2 3.199868 1_465
Co2 Ge0 2.388392 1_655
Co2 Ge0 2.388392 1_555
Co2 Ge2 2.456215 1_565
Co2 Ge3 2.490255 1_555
Co2 Zr2 2.754518 1_565
Co2 Zr0 2.775696 1_565
Co2 Zr0 2.775696 1_665
Co2 Zr3 2.958775 1_555
Co2 Zr1 3.199868 1_655
Co2 Zr1 3.199868 1_555
Co3 Ge1 2.388392 1_556
Co3 Ge1 2.388392 1_656
Co3 Ge3 2.456215 1_555
Co3 Ge2 2.490255 1_555
Co3 Zr3 2.754518 1_556
Co3 Zr1 2.775696 1_655
Co3 Zr1 2.775696 1_555
Co3 Zr2 2.958775 1_556
Co3 Zr0 3.199868 1_655
Co3 Zr0 3.199868 1_555
Ge0 Zr3 2.799690 1_455
Ge0 Zr3 2.799690 1_555
Ge0 Zr2 2.837566 1_565
Ge0 Zr2 2.837566 1_465
Ge0 Zr1 2.850765 1_555
Ge1 Zr2 2.799690 1_555
Ge1 Zr2 2.799690 1_455
Ge1 Zr3 2.837566 1_555
Ge1 Zr3 2.837566 1_455
Ge1 Zr0 2.850765 1_554
Ge2 Zr1 2.799690 1_655
Ge2 Zr1 2.799690 1_555
Ge2 Zr0 2.837566 1_555
Ge2 Zr0 2.837566 1_655
Ge2 Zr3 2.850765 1_555
Ge3 Zr0 2.799690 1_665
Ge3 Zr0 2.799690 1_565
Ge3 Zr1 2.837566 1_655
Ge3 Zr1 2.837566 1_555
Ge3 Zr2 2.850765 1_566
