# generated using pymatgen
data_La2Mg
_symmetry_space_group_name_H-M   'P 1'
_cell_length_a   6.24491161
_cell_length_b   6.24491161
_cell_length_c   6.72562629
_cell_angle_alpha   62.83084116
_cell_angle_beta   62.83084116
_cell_angle_gamma   60.71277110
_symmetry_Int_Tables_number   1
_chemical_formula_structural   La2Mg
_chemical_formula_sum   'La4 Mg2'
_cell_volume   194.11134527
_cell_formula_units_Z   2
loop_
 _symmetry_equiv_pos_site_id
 _symmetry_equiv_pos_as_xyz
  1  'x, y, z'
loop_
 _atom_site_type_symbol
 _atom_site_label
 _atom_site_symmetry_multiplicity
 _atom_site_fract_x
 _atom_site_fract_y
 _atom_site_fract_z
 _atom_site_occupancy
  La  La0  1  0.24162596  0.41821734  0.74597518  1
  La  La1  1  0.58178266  0.75837404  0.75402482  1
  La  La2  1  0.41821734  0.24162596  0.24597518  1
  La  La3  1  0.75837404  0.58178266  0.25402482  1
  Mg  Mg0  1  0.07761622  0.92238378  0.25000000  1
  Mg  Mg1  1  0.92238378  0.07761622  0.75000000  1
loop_
_geom_bond_atom_site_label_1
_geom_bond_atom_site_label_2
_geom_bond_distance
_geom_bond_site_symmetry_2
La0 Mg0 3.530289 1_555
La0 Mg0 3.531927 1_546
La0 Mg1 3.542106 1_455
La0 La2 3.542735 1_555
La0 La2 3.542735 1_556
La0 La3 3.546928 1_456
La0 La3 3.576620 1_555
La0 La1 3.582246 1_545
La0 La1 3.582246 1_455
La0 Mg1 3.598998 1_465
La0 La1 3.694956 1_555
La0 Mg1 3.715343 1_555
La1 Mg0 3.530289 1_556
La1 Mg0 3.531927 1_655
La1 Mg1 3.542106 1_565
La1 La3 3.542735 1_556
La1 La3 3.542735 1_555
La1 La2 3.546928 1_565
La1 La2 3.576620 1_556
La1 Mg1 3.598998 1_465
La1 Mg1 3.715343 1_555
La2 Mg1 3.530289 1_554
La2 Mg1 3.531927 1_455
La2 Mg0 3.542106 1_545
La2 La3 3.582246 1_455
La2 La3 3.582246 1_545
La2 Mg0 3.598998 1_645
La2 La3 3.694956 1_555
La2 Mg0 3.715343 1_555
La3 Mg1 3.530289 1_555
La3 Mg1 3.531927 1_564
La3 Mg0 3.542106 1_655
La3 Mg0 3.598998 1_645
La3 Mg0 3.715343 1_555
Mg0 Mg1 3.502655 1_465
Mg0 Mg1 3.502655 1_464
