# generated using pymatgen
data_Sr4Y2Fe2Cu4O15
_symmetry_space_group_name_H-M   'P 1'
_cell_length_a   11.98039279
_cell_length_b   11.96590983
_cell_length_c   5.47528729
_cell_angle_alpha   76.93006679
_cell_angle_beta   76.63498426
_cell_angle_gamma   26.43494895
_symmetry_Int_Tables_number   1
_chemical_formula_structural   Sr4Y2Fe2Cu4O15
_chemical_formula_sum   'Sr4 Y2 Fe2 Cu4 O15'
_cell_volume   339.63425667
_cell_formula_units_Z   1
loop_
 _symmetry_equiv_pos_site_id
 _symmetry_equiv_pos_as_xyz
  1  'x, y, z'
loop_
 _atom_site_type_symbol
 _atom_site_label
 _atom_site_symmetry_multiplicity
 _atom_site_fract_x
 _atom_site_fract_y
 _atom_site_fract_z
 _atom_site_occupancy
  Sr  Sr0  1  0.66663200  0.15384200  0.84615800  1
  Sr  Sr1  1  0.15384200  0.66663200  0.33336800  1
  Sr  Sr2  1  0.33336800  0.84615800  0.15384200  1
  Sr  Sr3  1  0.84615800  0.33336800  0.66663200  1
  Y  Y0  1  0.50000000  0.00000000  0.00000000  1
  Y  Y1  1  0.00000000  0.50000000  0.50000000  1
  Fe  Fe0  1  0.24313200  0.75686800  0.75686800  1
  Fe  Fe1  1  0.75686800  0.24313200  0.24313200  1
  Cu  Cu0  1  0.57207700  0.07785700  0.42792300  1
  Cu  Cu1  1  0.07785700  0.57207700  0.92214300  1
  Cu  Cu2  1  0.42792300  0.92214300  0.57207700  1
  Cu  Cu3  1  0.92214300  0.42792300  0.07785700  1
  O  O0  1  0.81972500  0.81972500  0.18027500  1
  O  O1  1  0.30704400  0.30704400  0.69295600  1
  O  O2  1  0.81415000  0.81415000  0.68585000  1
  O  O3  1  0.31415000  0.31415000  0.18585000  1
  O  O4  1  0.69295600  0.69295600  0.30704400  1
  O  O5  1  0.18027500  0.18027500  0.81972500  1
  O  O6  1  0.68585000  0.68585000  0.81415000  1
  O  O7  1  0.18585000  0.18585000  0.31415000  1
  O  O8  1  0.21108800  0.62550300  0.78891200  1
  O  O9  1  0.62550300  0.21108800  0.37449700  1
  O  O10  1  0.78891200  0.37449700  0.21108800  1
  O  O11  1  0.37449700  0.78891200  0.62550300  1
  O  O12  1  0.00000000  0.00000000  0.50000000  1
  O  O13  1  0.50000000  0.50000000  0.00000000  1
  O  O14  1  0.00000000  0.00000000  0.00000000  1
loop_
_geom_bond_atom_site_label_1
_geom_bond_atom_site_label_2
_geom_bond_distance
_geom_bond_site_symmetry_2
Fe0 O14 1.871705 1_566
Fe0 O8 1.890470 1_555
Fe0 O11 1.890470 1_555
Fe0 O13 1.947689 1_556
Fe0 O12 1.947689 1_565
Fe1 O14 1.871705 1_655
Fe1 O9 1.890470 1_555
Fe1 O10 1.890470 1_555
Fe1 O12 1.947689 1_655
Fe1 O13 1.947689 1_555
Cu0 O1 1.945198 1_555
Cu0 O0 1.950445 1_545
Cu0 O3 1.962466 1_555
Cu0 O2 1.962466 1_545
Cu0 O9 2.137001 1_555
Cu1 O1 1.945198 1_555
Cu1 O0 1.950445 1_456
Cu1 O3 1.962466 1_556
Cu1 O2 1.962466 1_455
Cu1 O8 2.137001 1_555
Cu2 O4 1.945198 1_555
Cu2 O5 1.950445 1_565
Cu2 O7 1.962466 1_565
Cu2 O6 1.962466 1_555
Cu2 O11 2.137001 1_555
Cu3 O4 1.945198 1_555
Cu3 O5 1.950445 1_654
Cu3 O6 1.962466 1_554
Cu3 O7 1.962466 1_655
Cu3 O10 2.137001 1_555
O0 Y1 2.507381 1_655
O0 Y0 2.507381 1_565
O0 Sr1 2.793885 1_655
O0 Sr0 2.793885 1_564
O1 Y0 2.336992 1_556
O1 Y1 2.336992 1_555
O1 Sr1 3.074886 1_555
O1 Sr0 3.074886 1_555
O2 Y0 2.411852 1_566
O2 Y1 2.411852 1_655
O2 Sr0 2.906403 1_565
O2 Sr1 2.906403 1_655
O3 Y0 2.411852 1_555
O3 Y1 2.411852 1_555
O3 Sr1 2.906403 1_555
O3 Sr0 2.906403 1_554
O4 Y0 2.336992 1_565
O4 Y1 2.336992 1_655
O4 Sr3 3.074886 1_555
O4 Sr2 3.074886 1_555
O5 Y0 2.507381 1_556
O5 Y1 2.507381 1_555
O5 Sr3 2.793885 1_455
O5 Sr2 2.793885 1_546
O6 Y0 2.411852 1_566
O6 Y1 2.411852 1_655
O6 Sr2 2.906403 1_556
O6 Sr3 2.906403 1_555
O7 Y0 2.411852 1_555
O7 Y1 2.411852 1_555
O7 Sr2 2.906403 1_545
O7 Sr3 2.906403 1_455
O8 Sr1 2.562215 1_555
O8 Sr0 2.562215 1_555
O8 Sr0 2.951802 1_465
O8 Sr1 2.951802 1_556
O9 Sr0 2.562215 1_555
O9 Sr1 2.562215 1_555
O9 Sr1 2.951802 1_645
O9 Sr0 2.951802 1_554
O10 Sr2 2.562215 1_555
O10 Sr3 2.562215 1_555
O10 Sr3 2.951802 1_554
O10 Sr2 2.951802 1_645
O11 Sr3 2.562215 1_555
O11 Sr2 2.562215 1_555
O11 Sr2 2.951802 1_556
O11 Sr3 2.951802 1_465
O12 Sr3 2.800659 1_455
O12 Sr2 2.800659 1_545
O12 Sr0 2.800659 1_455
O12 Sr1 2.800659 1_545
O13 Sr0 2.800659 1_554
O13 Sr1 2.800659 1_555
O13 Sr2 2.800659 1_555
O13 Sr3 2.800659 1_554
O14 Sr2 2.781450 1_545
O14 Sr3 2.781450 1_454
O14 Sr1 2.781450 1_545
O14 Sr0 2.781450 1_454
