# generated using pymatgen
data_K8Cu9S8(ClO18)2
_symmetry_space_group_name_H-M   'P 1'
_cell_length_a   9.88354800
_cell_length_b   10.16966411
_cell_length_c   10.17404615
_cell_angle_alpha   86.62738913
_cell_angle_beta   104.06153882
_cell_angle_gamma   104.05902208
_symmetry_Int_Tables_number   1
_chemical_formula_structural   K8Cu9S8(ClO18)2
_chemical_formula_sum   'K8 Cu9 S8 Cl2 O36'
_cell_volume   962.26138987
_cell_formula_units_Z   1
loop_
 _symmetry_equiv_pos_site_id
 _symmetry_equiv_pos_as_xyz
  1  'x, y, z'
loop_
 _atom_site_type_symbol
 _atom_site_label
 _atom_site_symmetry_multiplicity
 _atom_site_fract_x
 _atom_site_fract_y
 _atom_site_fract_z
 _atom_site_occupancy
  K  K0  1  0.92772200  0.68505600  0.93811900  1
  K  K1  1  0.42191400  0.68503300  0.93796100  1
  K  K2  1  0.11629000  0.31531200  0.06198600  1
  K  K3  1  0.61019200  0.31462500  0.06196200  1
  K  K4  1  0.45282900  0.06212900  0.68506100  1
  K  K5  1  0.95881800  0.06201100  0.68512100  1
  K  K6  1  0.57922300  0.93790000  0.31450200  1
  K  K7  1  0.08528300  0.93776800  0.31525000  1
  Cu  Cu0  1  0.77554700  0.00004900  0.00001400  1
  Cu  Cu1  1  0.46858000  0.53620200  0.34984300  1
  Cu  Cu2  1  0.96943900  0.53664300  0.35013600  1
  Cu  Cu3  1  0.52544600  0.46375900  0.64970800  1
  Cu  Cu4  1  0.02573200  0.46351100  0.64960000  1
  Cu  Cu5  1  0.29366700  0.65011500  0.53573700  1
  Cu  Cu6  1  0.79388700  0.64969800  0.53670900  1
  Cu  Cu7  1  0.70057100  0.35008500  0.46353800  1
  Cu  Cu8  1  0.20108500  0.35013700  0.46343100  1
  S  S0  1  0.78668100  0.32240100  0.79056400  1
  S  S1  1  0.28714200  0.32394800  0.79051500  1
  S  S2  1  0.23004200  0.67624000  0.20935200  1
  S  S3  1  0.72994900  0.67737500  0.20937800  1
  S  S4  1  0.39188300  0.20929300  0.32392100  1
  S  S5  1  0.89134200  0.20926400  0.32232200  1
  S  S6  1  0.62554500  0.79086000  0.67766500  1
  S  S7  1  0.12522500  0.79066000  0.67610600  1
  Cl  Cl0  1  0.55387500  0.00001400  0.99997600  1
  Cl  Cl1  1  0.99732200  0.99996600  0.00002300  1
  O  O0  1  0.40494700  0.45112600  0.78635800  1
  O  O1  1  0.90577500  0.44861500  0.78819200  1
  O  O2  1  0.28641500  0.54900500  0.21359200  1
  O  O3  1  0.78651500  0.55109700  0.21162300  1
  O  O4  1  0.51173200  0.21351700  0.45112200  1
  O  O5  1  0.01157900  0.21163500  0.44831000  1
  O  O6  1  0.68139600  0.78866000  0.55142900  1
  O  O7  1  0.17940100  0.78643100  0.54895500  1
  O  O8  1  0.82117800  0.25004300  0.91954500  1
  O  O9  1  0.32110100  0.25292800  0.91905000  1
  O  O10  1  0.23570500  0.74724800  0.08092700  1
  O  O11  1  0.73588500  0.75000900  0.08052900  1
  O  O12  1  0.36158700  0.08072300  0.25287300  1
  O  O13  1  0.86130500  0.08025500  0.24986700  1
  O  O14  1  0.69631600  0.91979200  0.75020600  1
  O  O15  1  0.19482700  0.91923200  0.74714500  1
  O  O16  1  0.62457300  0.50197600  0.49922900  1
  O  O17  1  0.12392300  0.49746200  0.50181300  1
  O  O18  1  0.37325600  0.49920800  0.49901100  1
  O  O19  1  0.87526000  0.50086900  0.50192200  1
  O  O20  1  0.76740600  0.23747300  0.67111200  1
  O  O21  1  0.26743000  0.23904100  0.67063100  1
  O  O22  1  0.31294400  0.76094300  0.32943400  1
  O  O23  1  0.81273600  0.76231800  0.32890200  1
  O  O24  1  0.43251800  0.32927800  0.23924100  1
  O  O25  1  0.93151300  0.32888700  0.23747000  1
  O  O26  1  0.64875200  0.67120100  0.76229800  1
  O  O27  1  0.14785700  0.67064300  0.76080700  1
  O  O28  1  0.65044900  0.36754100  0.78680600  1
  O  O29  1  0.14975300  0.36874300  0.78580600  1
  O  O30  1  0.57287700  0.63256500  0.21308000  1
  O  O31  1  0.07293100  0.63139200  0.21408000  1
  O  O32  1  0.25691900  0.21409500  0.36853100  1
  O  O33  1  0.75695400  0.21291200  0.36750400  1
  O  O34  1  0.46678000  0.78713800  0.63277200  1
  O  O35  1  0.96547200  0.78594300  0.63132800  1
loop_
_geom_bond_atom_site_label_1
_geom_bond_atom_site_label_2
_geom_bond_distance
_geom_bond_site_symmetry_2
K0 O1 2.858827 1_555
K0 O11 2.861210 1_556
K0 O26 2.875095 1_555
K0 O31 2.912497 1_656
K0 O10 2.966551 1_656
K0 O27 3.178499 1_655
K0 O35 3.307194 1_555
K1 O10 2.806763 1_556
K1 O27 2.841290 1_555
K1 O0 2.859694 1_555
K1 O30 2.920170 1_556
K1 O11 3.016526 1_556
K1 O26 3.220268 1_555
K1 O34 3.313899 1_555
K2 O2 2.843252 1_555
K2 O8 2.857760 1_454
K2 O25 2.877105 1_455
K2 O29 2.912838 1_554
K2 O9 2.962747 1_554
K2 O24 3.180637 1_555
K2 O32 3.305946 1_555
K3 O9 2.808776 1_554
K3 O24 2.838465 1_555
K3 O3 2.871242 1_555
K3 O28 2.923148 1_554
K3 O8 3.020739 1_554
K3 O25 3.216558 1_555
K3 O33 3.316158 1_555
K4 O15 2.808467 1_545
K4 O21 2.838314 1_555
K4 O4 2.860211 1_555
K4 O34 2.919048 1_545
K4 O14 3.021655 1_545
K4 O20 3.218334 1_555
K4 O28 3.313879 1_555
K5 O14 2.856668 1_545
K5 O5 2.861081 1_655
K5 O20 2.874460 1_555
K5 O35 2.911013 1_545
K5 O15 2.961430 1_645
K5 O21 3.175830 1_655
K5 O29 3.304181 1_655
K6 O12 2.808030 1_565
K6 O22 2.837074 1_555
K6 O6 2.874909 1_555
K6 O33 2.920399 1_565
K6 O13 3.019768 1_565
K6 O23 3.216139 1_555
K6 O30 3.310830 1_555
K7 O7 2.842141 1_555
K7 O13 2.858701 1_465
K7 O23 2.876911 1_455
K7 O32 2.912874 1_565
K7 O12 2.962878 1_565
K7 O22 3.177262 1_555
K7 O31 3.303588 1_555
Cu0 O14 2.589464 1_544
Cu0 O13 2.589723 1_555
Cu0 O8 2.591271 1_554
Cu0 O11 2.591778 1_545
Cu1 O18 1.946230 1_555
Cu1 O16 1.966719 1_555
Cu1 O30 2.001198 1_555
Cu1 O2 2.014948 1_555
Cu1 O24 2.353905 1_555
Cu2 O19 1.962511 1_555
Cu2 O31 1.985719 1_655
Cu2 O17 1.987387 1_655
Cu2 O3 2.035408 1_555
Cu2 O25 2.368499 1_555
Cu3 O18 1.954734 1_555
Cu3 O16 1.982088 1_555
Cu3 O28 2.004697 1_555
Cu3 O0 2.019159 1_555
Cu3 O26 2.367433 1_555
Cu4 O19 1.932639 1_455
Cu4 O17 1.951156 1_555
Cu4 O29 1.985720 1_555
Cu4 O1 2.028983 1_455
Cu4 O27 2.357063 1_555
Cu5 O17 1.964703 1_555
Cu5 O18 1.977478 1_555
Cu5 O34 2.006629 1_555
Cu5 O7 2.017844 1_555
Cu5 O22 2.350277 1_555
Cu6 O16 1.933531 1_555
Cu6 O19 1.963578 1_555
Cu6 O35 1.986079 1_555
Cu6 O6 2.030972 1_555
Cu6 O23 2.370499 1_555
Cu7 O16 1.960695 1_555
Cu7 O19 1.985295 1_555
Cu7 O33 2.003458 1_555
Cu7 O4 2.018665 1_555
Cu7 O20 2.369170 1_555
Cu8 O17 1.935852 1_555
Cu8 O18 1.958789 1_555
Cu8 O32 1.984395 1_555
Cu8 O5 2.029642 1_555
Cu8 O21 2.357620 1_555
Cl0 Cu0 2.190726 1_556
Cl0 K3 3.185258 1_556
Cl0 K6 3.186108 1_546
Cl0 K1 3.188749 1_545
Cl0 K4 3.189873 1_555
Cl1 Cu0 2.192107 1_565
Cl1 K0 3.175301 1_554
Cl1 K5 3.177076 1_564
Cl1 K2 3.179661 1_665
Cl1 K7 3.180446 1_655
O0 S1 1.521872 1_555
O1 S0 1.519777 1_555
O2 S2 1.522689 1_555
O3 S3 1.517046 1_555
O4 S4 1.522070 1_555
O5 S5 1.518339 1_455
O6 S6 1.519408 1_555
O7 S7 1.521969 1_555
O8 S0 1.473303 1_555
O9 S1 1.462120 1_555
O10 S2 1.461744 1_555
O11 S3 1.473076 1_555
O12 S4 1.462044 1_555
O13 S5 1.473447 1_555
O14 S6 1.473298 1_555
O15 S7 1.462133 1_555
O20 S0 1.479962 1_555
O21 S1 1.482546 1_555
O22 S2 1.483393 1_555
O23 S3 1.480262 1_555
O24 S4 1.482837 1_555
O25 S5 1.480257 1_555
O26 S6 1.480274 1_555
O27 S7 1.482421 1_555
O28 S0 1.516034 1_555
O29 S1 1.523169 1_555
O30 S3 1.517170 1_555
O31 S2 1.520261 1_555
O32 S4 1.521899 1_555
O33 S5 1.516416 1_555
O34 S6 1.515660 1_555
O35 S7 1.522857 1_655
