# generated using pymatgen
data_Sr2GdCu2IrO8
_symmetry_space_group_name_H-M   'P 1'
_cell_length_a   3.87656802
_cell_length_b   3.87656802
_cell_length_c   11.86502700
_cell_angle_alpha   90.00000000
_cell_angle_beta   90.00000000
_cell_angle_gamma   90.13968887
_symmetry_Int_Tables_number   1
_chemical_formula_structural   Sr2GdCu2IrO8
_chemical_formula_sum   'Sr2 Gd1 Cu2 Ir1 O8'
_cell_volume   178.30448120
_cell_formula_units_Z   1
loop_
 _symmetry_equiv_pos_site_id
 _symmetry_equiv_pos_as_xyz
  1  'x, y, z'
loop_
 _atom_site_type_symbol
 _atom_site_label
 _atom_site_symmetry_multiplicity
 _atom_site_fract_x
 _atom_site_fract_y
 _atom_site_fract_z
 _atom_site_occupancy
  Sr  Sr0  1  0.50671800  0.50671800  0.69474000  1
  Sr  Sr1  1  0.50671800  0.50671800  0.30526000  1
  Gd  Gd0  1  0.50068800  0.50068800  0.00000000  1
  Cu  Cu0  1  0.00120600  0.00120600  0.85902900  1
  Cu  Cu1  1  0.00120600  0.00120600  0.14097100  1
  Ir  Ir0  1  0.98951700  0.98951700  0.50000000  1
  O  O0  1  0.00161000  0.50110700  0.87433500  1
  O  O1  1  0.50110700  0.00161000  0.87433500  1
  O  O2  1  0.00161000  0.50110700  0.12566500  1
  O  O3  1  0.50110700  0.00161000  0.12566500  1
  O  O4  1  0.99603900  0.99603900  0.67110300  1
  O  O5  1  0.99603900  0.99603900  0.32889700  1
  O  O6  1  0.95349200  0.48531500  0.50000000  1
  O  O7  1  0.48531500  0.95349200  0.50000000  1
loop_
_geom_bond_atom_site_label_1
_geom_bond_atom_site_label_2
_geom_bond_distance
_geom_bond_site_symmetry_2
Gd0 O3 2.442592 1_555
Gd0 O0 2.442592 1_554
Gd0 O1 2.442592 1_554
Gd0 O2 2.442592 1_555
Gd0 O0 2.448252 1_654
Gd0 O1 2.448252 1_564
Gd0 O2 2.448252 1_655
Gd0 O3 2.448252 1_565
Cu0 O1 1.946388 1_555
Cu0 O0 1.946388 1_555
Cu0 O1 1.947160 1_455
Cu0 O0 1.947160 1_545
Cu0 O4 2.229927 1_445
Cu1 O2 1.946388 1_555
Cu1 O3 1.946388 1_555
Cu1 O2 1.947160 1_545
Cu1 O3 1.947160 1_455
Cu1 O5 2.229927 1_445
Ir0 O6 1.927401 1_565
Ir0 O7 1.927401 1_655
Ir0 O7 1.959216 1_555
Ir0 O6 1.959216 1_555
Ir0 O4 2.030456 1_555
Ir0 O5 2.030456 1_555
O0 Sr0 2.867400 1_455
O0 Sr0 2.893976 1_555
O1 Sr0 2.867400 1_545
O1 Sr0 2.893976 1_555
O2 Sr1 2.867400 1_455
O2 Sr1 2.893976 1_555
O3 Sr1 2.867400 1_545
O3 Sr1 2.893976 1_555
O4 Sr0 2.693968 1_555
O4 Sr0 2.759399 1_565
O4 Sr0 2.759399 1_655
O4 Sr0 2.810307 1_665
O5 Sr1 2.693968 1_555
O5 Sr1 2.759399 1_655
O5 Sr1 2.759399 1_565
O5 Sr1 2.810307 1_665
O6 Sr0 2.888959 1_555
O6 Sr1 2.888959 1_555
O6 Sr1 3.153451 1_655
O6 Sr0 3.153451 1_655
O7 Sr0 2.888959 1_555
O7 Sr1 2.888959 1_555
O7 Sr0 3.153451 1_565
O7 Sr1 3.153451 1_565
