# generated using pymatgen
data_Li2Ti2AsPO10
_symmetry_space_group_name_H-M   'P 1'
_cell_length_a   6.54531700
_cell_length_b   7.45893200
_cell_length_c   7.58590900
_cell_angle_alpha   90.00000000
_cell_angle_beta   90.00000000
_cell_angle_gamma   90.00000000
_symmetry_Int_Tables_number   1
_chemical_formula_structural   Li2Ti2AsPO10
_chemical_formula_sum   'Li4 Ti4 As2 P2 O20'
_cell_volume   370.35222784
_cell_formula_units_Z   2
loop_
 _symmetry_equiv_pos_site_id
 _symmetry_equiv_pos_as_xyz
  1  'x, y, z'
loop_
 _atom_site_type_symbol
 _atom_site_label
 _atom_site_symmetry_multiplicity
 _atom_site_fract_x
 _atom_site_fract_y
 _atom_site_fract_z
 _atom_site_occupancy
  Li  Li0  1  0.74061600  0.26020300  0.49767400  1
  Li  Li1  1  0.25938400  0.73979700  0.99767400  1
  Li  Li2  1  0.25938400  0.26020300  0.49767400  1
  Li  Li3  1  0.74061600  0.73979700  0.99767400  1
  Ti  Ti0  1  0.50000000  0.03006100  0.83221600  1
  Ti  Ti1  1  0.50000000  0.96993900  0.33221600  1
  Ti  Ti2  1  0.00000000  0.46985800  0.16533500  1
  Ti  Ti3  1  0.00000000  0.53014200  0.66533500  1
  As  As0  1  0.00000000  0.11930100  0.87281500  1
  As  As1  1  0.00000000  0.88069900  0.37281500  1
  P  P0  1  0.50000000  0.37206900  0.12602200  1
  P  P1  1  0.50000000  0.62793100  0.62602200  1
  O  O0  1  0.50000000  0.10622100  0.61787300  1
  O  O1  1  0.50000000  0.89377900  0.11787300  1
  O  O2  1  0.00000000  0.41801800  0.38839500  1
  O  O3  1  0.00000000  0.58198200  0.88839500  1
  O  O4  1  0.20707900  0.01911300  0.37312900  1
  O  O5  1  0.79292100  0.98088700  0.87312900  1
  O  O6  1  0.69230300  0.50599400  0.62650200  1
  O  O7  1  0.30769700  0.49400600  0.12650200  1
  O  O8  1  0.30769700  0.50599400  0.62650200  1
  O  O9  1  0.69230300  0.49400600  0.12650200  1
  O  O10  1  0.79292100  0.01911300  0.37312900  1
  O  O11  1  0.20707900  0.98088700  0.87312900  1
  O  O12  1  0.00000000  0.76550000  0.56774400  1
  O  O13  1  0.00000000  0.23450000  0.06774400  1
  O  O14  1  0.50000000  0.74341300  0.45560500  1
  O  O15  1  0.50000000  0.25658700  0.95560500  1
  O  O16  1  0.50000000  0.24963400  0.29211400  1
  O  O17  1  0.50000000  0.75036600  0.79211400  1
  O  O18  1  0.00000000  0.25263900  0.68727100  1
  O  O19  1  0.00000000  0.74736100  0.18727100  1
loop_
_geom_bond_atom_site_label_1
_geom_bond_atom_site_label_2
_geom_bond_distance
_geom_bond_site_symmetry_2
Li0 O10 2.060004 1_555
Li0 O6 2.101475 1_555
Li0 O0 2.151952 1_555
Li0 O16 2.217691 1_555
Li0 O18 2.225792 1_655
Li0 O2 2.226029 1_655
Li1 O11 2.060004 1_555
Li1 O7 2.101475 1_556
Li1 O1 2.151952 1_556
Li1 O17 2.217691 1_555
Li1 O19 2.225792 1_556
Li1 O3 2.226029 1_555
Li2 O4 2.060004 1_555
Li2 O8 2.101475 1_555
Li2 O0 2.151952 1_555
Li2 O16 2.217691 1_555
Li2 O18 2.225792 1_555
Li2 O2 2.226029 1_555
Li3 O5 2.060004 1_555
Li3 O9 2.101475 1_556
Li3 O1 2.151952 1_556
Li3 O17 2.217691 1_555
Li3 O19 2.225792 1_656
Li3 O3 2.226029 1_655
As0 O5 1.703820 1_445
As0 O11 1.703820 1_545
As0 O13 1.710241 1_556
As0 O18 1.723444 1_555
As1 O4 1.703820 1_565
As1 O10 1.703820 1_465
As1 O12 1.710241 1_555
As1 O19 1.723444 1_555
O0 Ti0 1.722364 1_555
O0 Ti1 2.393545 1_545
O1 Ti1 1.722364 1_555
O1 Ti0 2.393545 1_564
O2 Ti2 1.735731 1_555
O2 Ti3 2.261189 1_555
O3 Ti3 1.735731 1_555
O3 Ti2 2.261189 1_556
O4 Ti1 1.976549 1_545
O5 Ti0 1.976549 1_565
O6 P1 1.552909 1_555
O6 Ti3 2.043359 1_655
O7 P0 1.552909 1_555
O7 Ti2 2.043359 1_555
O8 P1 1.552909 1_555
O8 Ti3 2.043359 1_555
O9 P0 1.552909 1_555
O9 Ti2 2.043359 1_655
O10 Ti1 1.976549 1_545
O11 Ti0 1.976549 1_565
O12 Ti3 1.905234 1_555
O13 Ti2 1.905234 1_555
O14 P1 1.553451 1_555
O14 Ti1 1.931585 1_555
O15 P0 1.553451 1_556
O15 Ti0 1.931585 1_555
O16 P0 1.556115 1_555
O16 Ti1 2.108289 1_545
O17 P1 1.556115 1_555
O17 Ti0 2.108289 1_565
O18 Ti3 2.076554 1_555
O19 Ti2 2.076554 1_555
