# generated using pymatgen
data_CoNiP4(H8O5)4
_symmetry_space_group_name_H-M   'P 1'
_cell_length_a   12.62005561
_cell_length_b   12.62005561
_cell_length_c   12.62005561
_cell_angle_alpha   130.82309524
_cell_angle_beta   130.82309524
_cell_angle_gamma   72.09429466
_symmetry_Int_Tables_number   1
_chemical_formula_structural   CoNiP4(H8O5)4
_chemical_formula_sum   'Co2 Ni2 P8 H64 O40'
_cell_volume   1125.46463487
_cell_formula_units_Z   2
loop_
 _symmetry_equiv_pos_site_id
 _symmetry_equiv_pos_as_xyz
  1  'x, y, z'
loop_
 _atom_site_type_symbol
 _atom_site_label
 _atom_site_symmetry_multiplicity
 _atom_site_fract_x
 _atom_site_fract_y
 _atom_site_fract_z
 _atom_site_occupancy
  Co  Co0  1  0.00000000  0.50000000  0.50000000  1
  Co  Co1  1  0.50000000  0.00000000  0.50000000  1
  Ni  Ni0  1  0.75000000  0.75000000  0.00000000  1
  Ni  Ni1  1  0.25000000  0.25000000  0.00000000  1
  P  P0  1  0.62501900  0.13587600  0.01099600  1
  P  P1  1  0.62488000  0.63587600  0.51085800  1
  P  P2  1  0.86412400  0.87512000  0.48914200  1
  P  P3  1  0.88597700  0.37512000  0.01099600  1
  P  P4  1  0.12501900  0.11402300  0.48914200  1
  P  P5  1  0.12488000  0.61402300  0.98900400  1
  P  P6  1  0.36412400  0.87498100  0.98900400  1
  P  P7  1  0.38597700  0.37498100  0.51085800  1
  H  H0  1  0.77519400  0.58704400  0.30622900  1
  H  H1  1  0.78081500  0.08704400  0.81184900  1
  H  H2  1  0.72037700  0.02795500  0.19197000  1
  H  H3  1  0.33598500  0.52795500  0.30757900  1
  H  H4  1  0.97159300  0.66401500  0.19197000  1
  H  H5  1  0.97204500  0.16401500  0.69242100  1
  H  H6  1  0.03103400  0.21918500  0.30622900  1
  H  H7  1  0.41295600  0.71918500  0.18815100  1
  H  H8  1  0.27519400  0.96896600  0.18815100  1
  H  H9  1  0.28081500  0.46896600  0.69377100  1
  H  H10  1  0.22037700  0.02840700  0.69242100  1
  H  H11  1  0.83598500  0.52840700  0.80803000  1
  H  H12  1  0.47159300  0.27962300  0.30757900  1
  H  H13  1  0.47204500  0.77962300  0.80803000  1
  H  H14  1  0.53103400  0.22480600  0.81184900  1
  H  H15  1  0.91295600  0.72480600  0.69377100  1
  H  H16  1  0.71995800  0.41781900  0.18827700  1
  H  H17  1  0.72954300  0.91781900  0.69786100  1
  H  H18  1  0.78108500  0.97691700  0.30956500  1
  H  H19  1  0.16735200  0.47691700  0.19583300  1
  H  H20  1  0.02848000  0.83264800  0.30956500  1
  H  H21  1  0.02308300  0.33264800  0.80416700  1
  H  H22  1  0.96831900  0.27045700  0.18827700  1
  H  H23  1  0.58218100  0.77045700  0.30213900  1
  H  H24  1  0.21995800  0.03168100  0.30213900  1
  H  H25  1  0.22954300  0.53168100  0.81172300  1
  H  H26  1  0.28108500  0.97152000  0.80416700  1
  H  H27  1  0.66735200  0.47152000  0.69043500  1
  H  H28  1  0.52848000  0.21891500  0.19583300  1
  H  H29  1  0.52308300  0.71891500  0.69043500  1
  H  H30  1  0.46831900  0.28004200  0.69786100  1
  H  H31  1  0.08218100  0.78004200  0.81172300  1
  H  H32  1  0.51040400  0.01555300  0.85264200  1
  H  H33  1  0.66291100  0.51555300  0.50514900  1
  H  H34  1  0.90783900  0.91286500  0.64736500  1
  H  H35  1  0.76550100  0.41286500  0.00502600  1
  H  H36  1  0.23952500  0.23449900  0.64736500  1
  H  H37  1  0.08713500  0.73449900  0.99497400  1
  H  H38  1  0.84223800  0.33708900  0.85264200  1
  H  H39  1  0.98444700  0.83708900  0.49485100  1
  H  H40  1  0.01040400  0.15776200  0.49485100  1
  H  H41  1  0.16291100  0.65776200  0.14735800  1
  H  H42  1  0.40783900  0.76047500  0.99497400  1
  H  H43  1  0.26550100  0.26047500  0.35263500  1
  H  H44  1  0.73952500  0.09216100  0.00502600  1
  H  H45  1  0.58713500  0.59216100  0.35263500  1
  H  H46  1  0.34223800  0.48959600  0.50514900  1
  H  H47  1  0.48444700  0.98959600  0.14735800  1
  H  H48  1  0.81407000  0.31298100  0.38967500  1
  H  H49  1  0.42330600  0.81298100  0.49891000  1
  H  H50  1  0.67651400  0.67555700  0.11013000  1
  H  H51  1  0.06542600  0.17555700  0.99904300  1
  H  H52  1  0.93361700  0.93457400  0.11013000  1
  H  H53  1  0.32444300  0.43457400  0.00095700  1
  H  H54  1  0.07560400  0.57669400  0.38967500  1
  H  H55  1  0.68701900  0.07669400  0.50109000  1
  H  H56  1  0.31407000  0.92439600  0.50109000  1
  H  H57  1  0.92330600  0.42439600  0.61032500  1
  H  H58  1  0.17651400  0.06638300  0.00095700  1
  H  H59  1  0.56542600  0.56638300  0.88987000  1
  H  H60  1  0.43361700  0.32348600  0.99904300  1
  H  H61  1  0.82444300  0.82348600  0.88987000  1
  H  H62  1  0.57560400  0.18593000  0.49891000  1
  H  H63  1  0.18701900  0.68593000  0.61032500  1
  O  O0  1  0.66544000  0.16658300  0.17431800  1
  O  O1  1  0.49226500  0.66658300  0.50114200  1
  O  O2  1  0.74084600  0.74277100  0.32534700  1
  O  O3  1  0.91742400  0.24277100  0.00192600  1
  O  O4  1  0.08450100  0.08257600  0.32534700  1
  O  O5  1  0.25722900  0.58257600  0.99807400  1
  O  O6  1  0.00887700  0.50773500  0.17431800  1
  O  O7  1  0.83341700  0.00773500  0.49885800  1
  O  O8  1  0.16544000  0.99112300  0.49885800  1
  O  O9  1  0.99226500  0.49112300  0.82568200  1
  O  O10  1  0.24084600  0.91549900  0.99807400  1
  O  O11  1  0.41742400  0.41549900  0.67465300  1
  O  O12  1  0.58450100  0.25915400  0.00192600  1
  O  O13  1  0.75722900  0.75915400  0.67465300  1
  O  O14  1  0.50887700  0.33456000  0.50114200  1
  O  O15  1  0.33341700  0.83456000  0.82568200  1
  O  O16  1  0.89599500  0.39599500  0.50000000  1
  O  O17  1  0.39599500  0.89599500  0.50000000  1
  O  O18  1  0.64832300  0.64832300  0.00000000  1
  O  O19  1  0.14832300  0.14832300  0.00000000  1
  O  O20  1  0.85167700  0.85167700  0.00000000  1
  O  O21  1  0.35167700  0.35167700  0.00000000  1
  O  O22  1  0.10400500  0.60400500  0.50000000  1
  O  O23  1  0.60400500  0.10400500  0.50000000  1
  O  O24  1  0.80305000  0.50053000  0.29691900  1
  O  O25  1  0.70361100  0.00053000  0.69747900  1
  O  O26  1  0.75533200  0.95024300  0.20048700  1
  O  O27  1  0.24975700  0.45024300  0.19491100  1
  O  O28  1  0.94515400  0.75024300  0.20048700  1
  O  O29  1  0.04975700  0.25024300  0.80508900  1
  O  O30  1  0.99386900  0.29638900  0.29691900  1
  O  O31  1  0.49947000  0.79638900  0.30252100  1
  O  O32  1  0.30305000  0.00613100  0.30252100  1
  O  O33  1  0.20361100  0.50613100  0.70308100  1
  O  O34  1  0.25533200  0.05484600  0.80508900  1
  O  O35  1  0.74975700  0.55484600  0.79951300  1
  O  O36  1  0.44515400  0.24466800  0.19491100  1
  O  O37  1  0.54975700  0.74466800  0.79951300  1
  O  O38  1  0.49386900  0.19695000  0.69747900  1
  O  O39  1  0.99947000  0.69695000  0.70308100  1
loop_
_geom_bond_atom_site_label_1
_geom_bond_atom_site_label_2
_geom_bond_distance
_geom_bond_site_symmetry_2
Co0 O39 2.104719 1_455
Co0 O30 2.104719 1_455
Co0 O24 2.104719 1_455
Co0 O33 2.104719 1_555
Co0 O16 2.122478 1_455
Co0 O22 2.122478 1_555
Co1 O38 2.104713 1_555
Co1 O32 2.104713 1_555
Co1 O25 2.104714 1_555
Co1 O31 2.104714 1_545
Co1 O17 2.122478 1_545
Co1 O23 2.122478 1_555
Ni0 O18 2.074970 1_555
Ni0 O20 2.074970 1_555
Ni0 O26 2.077159 1_555
Ni0 O37 2.077159 1_554
Ni0 O35 2.077160 1_554
Ni0 O28 2.077160 1_555
Ni1 O19 2.074970 1_555
Ni1 O21 2.074970 1_555
Ni1 O34 2.077154 1_554
Ni1 O36 2.077154 1_555
Ni1 O29 2.077154 1_554
Ni1 O27 2.077154 1_555
H0 O24 0.989804 1_555
H1 O25 0.989804 1_555
H2 O26 0.988831 1_545
H3 O27 0.988826 1_555
H4 O28 0.988820 1_555
H5 O29 0.988826 1_655
H6 O30 0.989802 1_455
H7 O31 0.989804 1_555
H8 O32 0.989808 1_565
H9 O33 0.989802 1_555
H10 O34 0.988836 1_555
H11 O35 0.988820 1_555
H12 O36 0.988836 1_555
H13 O37 0.988831 1_555
H14 O38 0.989808 1_555
H15 O39 0.989804 1_555
H16 O24 0.995556 1_555
H17 O25 0.995562 1_565
H18 O26 0.995169 1_555
H19 O27 0.995187 1_555
H20 O28 0.995181 1_455
H21 O29 0.995187 1_555
H22 O30 0.995550 1_555
H23 O31 0.995562 1_555
H24 O32 0.995550 1_555
H25 O33 0.995550 1_555
H26 O34 0.995175 1_565
H27 O35 0.995181 1_555
H28 O36 0.995175 1_555
H29 O37 0.995169 1_555
H30 O38 0.995550 1_555
H31 O39 0.995556 1_455
H32 P0 1.412580 1_556
H33 P1 1.412574 1_555
H34 P2 1.412841 1_555
H35 P3 1.412818 1_555
H36 P4 1.412819 1_555
H37 P5 1.412818 1_555
H38 P3 1.412580 1_556
H39 P2 1.412574 1_555
H40 P4 1.412586 1_555
H41 P5 1.412580 1_554
H42 P6 1.412818 1_555
H43 P7 1.412819 1_555
H44 P0 1.412818 1_555
H45 P1 1.412841 1_555
H46 P7 1.412586 1_555
H47 P6 1.412580 1_554
H48 O16 0.990894 1_555
H49 O17 0.990889 1_555
H50 O18 0.990213 1_555
H51 O19 0.990225 1_556
H52 O20 0.990224 1_555
H53 O21 0.990225 1_555
H54 O22 0.990889 1_555
H55 O23 0.990889 1_555
H56 O17 0.990900 1_555
H57 O16 0.990889 1_555
H58 O19 0.990225 1_555
H59 O18 0.990224 1_556
H60 O21 0.990225 1_556
H61 O20 0.990213 1_556
H62 O23 0.990900 1_555
H63 O22 0.990894 1_555
O0 P0 1.536629 1_555
O1 P1 1.536618 1_555
O2 P2 1.536932 1_555
O3 P3 1.536938 1_555
O4 P4 1.536920 1_555
O5 P5 1.536938 1_555
O6 P3 1.536623 1_455
O7 P2 1.536618 1_545
O8 P4 1.536630 1_565
O9 P5 1.536623 1_655
O10 P6 1.536925 1_555
O11 P7 1.536920 1_555
O12 P0 1.536925 1_555
O13 P1 1.536932 1_555
O14 P7 1.536630 1_555
O15 P6 1.536629 1_555
