# generated using pymatgen
data_Li2TiCrO4
_symmetry_space_group_name_H-M   'P 1'
_cell_length_a   5.22994615
_cell_length_b   7.96333513
_cell_length_c   7.79001101
_cell_angle_alpha   73.34619564
_cell_angle_beta   105.20203985
_cell_angle_gamma   91.53211243
_symmetry_Int_Tables_number   1
_chemical_formula_structural   Li2TiCrO4
_chemical_formula_sum   'Li8 Ti4 Cr4 O16'
_cell_volume   299.53976985
_cell_formula_units_Z   4
loop_
 _symmetry_equiv_pos_site_id
 _symmetry_equiv_pos_as_xyz
  1  'x, y, z'
loop_
 _atom_site_type_symbol
 _atom_site_label
 _atom_site_symmetry_multiplicity
 _atom_site_fract_x
 _atom_site_fract_y
 _atom_site_fract_z
 _atom_site_occupancy
  Li  Li0  1  0.32361200  0.37099300  0.43504400  1
  Li  Li1  1  0.56114100  0.87488100  0.18823200  1
  Li  Li2  1  0.06110400  0.87526200  0.68770000  1
  Li  Li3  1  0.82312900  0.37075800  0.93550700  1
  Li  Li4  1  0.86990000  0.25283800  0.62568000  1
  Li  Li5  1  0.11339400  0.75466700  0.37728300  1
  Li  Li6  1  0.61312300  0.75465300  0.87746800  1
  Li  Li7  1  0.36906500  0.25288300  0.12610100  1
  Ti  Ti0  1  0.68591100  0.62795500  0.56242600  1
  Ti  Ti1  1  0.93137600  0.12349100  0.31515400  1
  Ti  Ti2  1  0.43143000  0.12336600  0.81515800  1
  Ti  Ti3  1  0.18570100  0.62800100  0.06174500  1
  Cr  Cr0  1  0.49487200  0.00192400  0.50132200  1
  Cr  Cr1  1  0.75770600  0.49674000  0.24848900  1
  Cr  Cr2  1  0.25752800  0.49665100  0.74862900  1
  Cr  Cr3  1  0.99475700  0.00206900  0.00085000  1
  O  O0  1  0.40079700  0.72239600  0.62546400  1
  O  O1  1  0.65690700  0.25583300  0.36220100  1
  O  O2  1  0.15735300  0.25542200  0.86246900  1
  O  O3  1  0.90161900  0.72235500  0.12538200  1
  O  O4  1  0.97726200  0.51010800  0.50401600  1
  O  O5  1  0.21920600  0.01185200  0.25630200  1
  O  O6  1  0.71927000  0.01210100  0.75629400  1
  O  O7  1  0.47739700  0.51022800  0.00418500  1
  O  O8  1  0.80229400  0.87912700  0.43953800  1
  O  O9  1  0.05041800  0.37963600  0.18981500  1
  O  O10  1  0.55019800  0.37953500  0.69017700  1
  O  O11  1  0.30220300  0.87905400  0.93956300  1
  O  O12  1  0.19401500  0.11965100  0.56240800  1
  O  O13  1  0.46148700  0.61758900  0.30651000  1
  O  O14  1  0.96212700  0.61829200  0.80691500  1
  O  O15  1  0.69369800  0.11968900  0.06197100  1
loop_
_geom_bond_atom_site_label_1
_geom_bond_atom_site_label_2
_geom_bond_distance
_geom_bond_site_symmetry_2
Li0 O9 2.047925 1_555
Li0 O10 2.048664 1_555
Li0 O13 2.134167 1_555
Li0 O12 2.142841 1_555
Li0 O1 2.259190 1_555
Li0 O4 2.399162 1_455
Li1 O8 2.040853 1_555
Li1 O11 2.043832 1_554
Li1 O13 2.105059 1_555
Li1 O15 2.105904 1_565
Li1 O5 2.366870 1_565
Li1 O3 2.408229 1_555
Li2 O8 2.041101 1_455
Li2 O11 2.043240 1_555
Li2 O12 2.101915 1_565
Li2 O14 2.103359 1_455
Li2 O6 2.368126 1_465
Li2 O0 2.403911 1_555
Li3 O9 2.045335 1_656
Li3 O10 2.047654 1_555
Li3 O15 2.138816 1_556
Li3 O14 2.142667 1_555
Li3 O2 2.264876 1_655
Li3 O7 2.396770 1_556
Li4 O1 2.056330 1_555
Li4 O2 2.056404 1_655
Li4 O4 2.124960 1_555
Li4 O6 2.133688 1_555
Li4 O10 2.210743 1_555
Li4 O12 2.252813 1_655
Li5 O0 2.067601 1_555
Li5 O3 2.068315 1_455
Li5 O4 2.113476 1_455
Li5 O5 2.120268 1_565
Li5 O8 2.154137 1_455
Li5 O13 2.405699 1_555
Li6 O3 2.068883 1_556
Li6 O0 2.069643 1_555
Li6 O7 2.111687 1_556
Li6 O6 2.122981 1_565
Li6 O11 2.152411 1_555
Li6 O14 2.405624 1_555
Li7 O1 2.054341 1_555
Li7 O2 2.056429 1_554
Li7 O7 2.127734 1_555
Li7 O5 2.132545 1_555
Li7 O9 2.203027 1_555
Li7 O15 2.258761 1_555
Cr0 O6 2.047850 1_555
Cr0 O5 2.050460 1_555
Cr0 O12 2.075671 1_555
Cr0 O8 2.128986 1_545
Cr0 O0 2.255962 1_545
Cr0 O1 2.261642 1_555
Cr1 O1 1.989904 1_555
Cr1 O3 2.008179 1_555
Cr1 O9 2.027242 1_655
Cr1 O4 2.051430 1_555
Cr1 O7 2.051988 1_555
Cr1 O13 2.055905 1_555
Cr2 O2 1.991110 1_555
Cr2 O0 2.007497 1_555
Cr2 O10 2.026153 1_555
Cr2 O7 2.052642 1_556
Cr2 O4 2.053676 1_455
Cr2 O14 2.057012 1_455
Cr3 O6 2.047199 1_554
Cr3 O5 2.050096 1_655
Cr3 O15 2.076242 1_555
Cr3 O11 2.127886 1_644
Cr3 O3 2.256366 1_545
Cr3 O2 2.257887 1_654
O0 Ti0 1.919868 1_555
O1 Ti1 1.970716 1_555
O2 Ti2 1.968801 1_555
O3 Ti3 1.917597 1_655
O4 Ti0 2.023458 1_555
O5 Ti1 1.983353 1_455
O6 Ti2 1.981857 1_555
O7 Ti3 2.020955 1_555
O8 Ti1 2.091271 1_565
O8 Ti0 2.104891 1_555
O9 Ti3 2.138234 1_555
O9 Ti1 2.147314 1_455
O10 Ti0 2.138827 1_555
O10 Ti2 2.146201 1_555
O11 Ti2 2.091308 1_565
O11 Ti3 2.102945 1_556
O12 Ti2 2.041705 1_555
O12 Ti1 2.044150 1_455
O13 Ti3 2.048486 1_555
O13 Ti0 2.054463 1_555
O14 Ti3 2.044440 1_656
O14 Ti0 2.049191 1_555
O15 Ti2 2.041016 1_554
O15 Ti1 2.045113 1_555
