# generated using pymatgen
data_Gd2Mn(GeO3)4
_symmetry_space_group_name_H-M   'P 1'
_cell_length_a   5.05589200
_cell_length_b   10.10617506
_cell_length_c   10.10617506
_cell_angle_alpha   90.68023927
_cell_angle_beta   90.00000000
_cell_angle_gamma   90.00000000
_symmetry_Int_Tables_number   1
_chemical_formula_structural   Gd2Mn(GeO3)4
_chemical_formula_sum   'Gd4 Mn2 Ge8 O24'
_cell_volume   516.34599612
_cell_formula_units_Z   2
loop_
 _symmetry_equiv_pos_site_id
 _symmetry_equiv_pos_as_xyz
  1  'x, y, z'
loop_
 _atom_site_type_symbol
 _atom_site_label
 _atom_site_symmetry_multiplicity
 _atom_site_fract_x
 _atom_site_fract_y
 _atom_site_fract_z
 _atom_site_occupancy
  Gd  Gd0  1  0.50000000  0.00000000  0.50000000  1
  Gd  Gd1  1  0.50000000  0.50000000  0.00000000  1
  Gd  Gd2  1  0.50000000  0.75000000  0.75000000  1
  Gd  Gd3  1  0.50000000  0.25000000  0.25000000  1
  Mn  Mn0  1  0.50000000  0.50000000  0.50000000  1
  Mn  Mn1  1  0.50000000  0.00000000  0.00000000  1
  Ge  Ge0  1  0.99429100  0.74607800  0.47648600  1
  Ge  Ge1  1  0.00570900  0.25392200  0.52351400  1
  Ge  Ge2  1  0.00570900  0.24607800  0.97648600  1
  Ge  Ge3  1  0.99429100  0.75392200  0.02351400  1
  Ge  Ge4  1  0.00570900  0.47648600  0.74607800  1
  Ge  Ge5  1  0.99429100  0.52351400  0.25392200  1
  Ge  Ge6  1  0.99429100  0.97648600  0.24607800  1
  Ge  Ge7  1  0.00570900  0.02351400  0.75392200  1
  O  O0  1  0.26195900  0.55999800  0.66836300  1
  O  O1  1  0.24792300  0.06241300  0.32794900  1
  O  O2  1  0.24792300  0.43758700  0.17205100  1
  O  O3  1  0.26195900  0.94000200  0.83163700  1
  O  O4  1  0.73804100  0.44000200  0.33163700  1
  O  O5  1  0.75207700  0.93758700  0.67205100  1
  O  O6  1  0.75207700  0.56241300  0.82794900  1
  O  O7  1  0.73804100  0.05999800  0.16836300  1
  O  O8  1  0.73804100  0.66836300  0.55999800  1
  O  O9  1  0.75207700  0.32794900  0.06241300  1
  O  O10  1  0.75207700  0.17205100  0.43758700  1
  O  O11  1  0.73804100  0.83163700  0.94000200  1
  O  O12  1  0.26195900  0.33163700  0.44000200  1
  O  O13  1  0.24792300  0.67205100  0.93758700  1
  O  O14  1  0.24792300  0.82794900  0.56241300  1
  O  O15  1  0.26195900  0.16836300  0.05999800  1
  O  O16  1  0.83197000  0.36886200  0.63113800  1
  O  O17  1  0.83337400  0.87174700  0.37174700  1
  O  O18  1  0.83337400  0.62825300  0.12825300  1
  O  O19  1  0.83197000  0.13113800  0.86886200  1
  O  O20  1  0.16803000  0.63113800  0.36886200  1
  O  O21  1  0.16662600  0.12825300  0.62825300  1
  O  O22  1  0.16662600  0.37174700  0.87174700  1
  O  O23  1  0.16803000  0.86886200  0.13113800  1
loop_
_geom_bond_atom_site_label_1
_geom_bond_atom_site_label_2
_geom_bond_distance
_geom_bond_site_symmetry_2
Gd0 O14 2.252005 1_545
Gd0 O5 2.252005 1_545
Gd0 O10 2.252005 1_555
Gd0 O1 2.252005 1_555
Gd0 O17 2.482141 1_545
Gd0 O21 2.482141 1_555
Gd1 O6 2.252005 1_554
Gd1 O13 2.252005 1_554
Gd1 O9 2.252005 1_555
Gd1 O2 2.252005 1_555
Gd1 O22 2.482141 1_554
Gd1 O18 2.482141 1_555
Gd2 O8 2.403882 1_555
Gd2 O11 2.403882 1_555
Gd2 O3 2.403882 1_555
Gd2 O0 2.403882 1_555
Gd2 O13 2.423702 1_555
Gd2 O6 2.423702 1_555
Gd2 O14 2.423702 1_555
Gd2 O5 2.423702 1_555
Gd3 O7 2.403882 1_555
Gd3 O15 2.403882 1_555
Gd3 O12 2.403882 1_555
Gd3 O4 2.403882 1_555
Gd3 O10 2.423702 1_555
Gd3 O1 2.423702 1_555
Gd3 O9 2.423702 1_555
Gd3 O2 2.423702 1_555
Mn0 O4 2.164884 1_555
Mn0 O8 2.164884 1_555
Mn0 O12 2.164884 1_555
Mn0 O0 2.164884 1_555
Mn0 O16 2.524204 1_555
Mn0 O20 2.524204 1_555
Mn1 O11 2.164884 1_544
Mn1 O7 2.164884 1_555
Mn1 O15 2.164884 1_555
Mn1 O3 2.164884 1_544
Mn1 O23 2.524204 1_545
Mn1 O19 2.524204 1_554
Ge0 O8 1.738797 1_555
Ge0 O14 1.751007 1_655
Ge0 O20 1.809403 1_655
Ge0 O17 1.851286 1_555
Ge1 O12 1.738797 1_555
Ge1 O10 1.751007 1_455
Ge1 O16 1.809403 1_455
Ge1 O21 1.851286 1_555
Ge2 O15 1.738797 1_556
Ge2 O9 1.751007 1_456
Ge2 O19 1.809403 1_455
Ge2 O22 1.851286 1_555
Ge3 O11 1.738797 1_554
Ge3 O13 1.751007 1_654
Ge3 O23 1.809403 1_655
Ge3 O18 1.851286 1_555
Ge4 O0 1.738797 1_555
Ge4 O6 1.751007 1_455
Ge4 O16 1.809403 1_455
Ge4 O22 1.851286 1_555
Ge5 O4 1.738797 1_555
Ge5 O2 1.751007 1_655
Ge5 O20 1.809403 1_655
Ge5 O18 1.851286 1_555
Ge6 O7 1.738797 1_565
Ge6 O1 1.751007 1_665
Ge6 O23 1.809403 1_655
Ge6 O17 1.851286 1_555
Ge7 O3 1.738797 1_545
Ge7 O5 1.751007 1_445
Ge7 O19 1.809403 1_455
Ge7 O21 1.851286 1_555
