# generated using pymatgen
data_NaAu2
_symmetry_space_group_name_H-M   'P 1'
_cell_length_a   5.54529496
_cell_length_b   5.54529407
_cell_length_c   5.54529405
_cell_angle_alpha   59.99999412
_cell_angle_beta   59.99999941
_cell_angle_gamma   60.00000485
_symmetry_Int_Tables_number   1
_chemical_formula_structural   NaAu2
_chemical_formula_sum   'Na2 Au4'
_cell_volume   120.57542778
_cell_formula_units_Z   2
loop_
 _symmetry_equiv_pos_site_id
 _symmetry_equiv_pos_as_xyz
  1  'x, y, z'
loop_
 _atom_site_type_symbol
 _atom_site_label
 _atom_site_symmetry_multiplicity
 _atom_site_fract_x
 _atom_site_fract_y
 _atom_site_fract_z
 _atom_site_occupancy
  Na  Na0  1  0.87500000  0.87500000  0.87500000  1
  Na  Na1  1  0.12500000  0.12500000  0.12500000  1
  Au  Au0  1  0.50000000  0.50000000  0.50000000  1
  Au  Au1  1  0.50000000  0.50000000  -0.00000000  1
  Au  Au2  1  0.00000000  0.50000000  0.50000000  1
  Au  Au3  1  0.50000000  0.00000000  0.50000000  1
loop_
_geom_bond_atom_site_label_1
_geom_bond_atom_site_label_2
_geom_bond_distance
_geom_bond_site_symmetry_2
Na0 Na1 3.395785 1_665
Na0 Na1 3.395785 1_656
Na0 Na1 3.395785 1_666
Na0 Na1 3.395786 1_566
Au0 Au1 2.772647 1_555
Au0 Au1 2.772647 1_556
Au0 Au3 2.772647 1_565
Au0 Au3 2.772647 1_555
Au0 Au2 2.772647 1_655
Au0 Au2 2.772647 1_555
Au0 Na1 3.251217 1_556
Au0 Na0 3.251217 1_554
Au0 Na0 3.251217 1_545
Au0 Na1 3.251217 1_565
Au0 Na0 3.251217 1_455
Au0 Na1 3.251217 1_655
Au1 Au3 2.772647 1_555
Au1 Au3 2.772647 1_564
Au1 Au2 2.772647 1_555
Au1 Au2 2.772647 1_654
Au1 Na0 3.251217 1_554
Au1 Na1 3.251217 1_555
Au1 Na0 3.251217 1_544
Au1 Na1 3.251217 1_565
Au1 Na0 3.251217 1_454
Au1 Na1 3.251217 1_655
Au2 Au3 2.772647 1_465
Au2 Au3 2.772647 1_555
Au2 Na0 3.251217 1_445
Au2 Na1 3.251217 1_565
Au2 Na0 3.251217 1_454
Au2 Na1 3.251217 1_556
Au2 Na1 3.251217 1_555
Au2 Na0 3.251217 1_455
Au3 Na0 3.251217 1_544
Au3 Na1 3.251217 1_556
Au3 Na1 3.251217 1_555
Au3 Na0 3.251217 1_545
Au3 Na0 3.251217 1_445
Au3 Na1 3.251217 1_655
