# generated using pymatgen
data_TmMgSn
_symmetry_space_group_name_H-M   'P 1'
_cell_length_a   8.43916932
_cell_length_b   8.43916932
_cell_length_c   8.43916932
_cell_angle_alpha   150.19496183
_cell_angle_beta   150.19496183
_cell_angle_gamma   42.65529546
_symmetry_Int_Tables_number   1
_chemical_formula_structural   TmMgSn
_chemical_formula_sum   'Tm2 Mg2 Sn2'
_cell_volume   148.11797977
_cell_formula_units_Z   2
loop_
 _symmetry_equiv_pos_site_id
 _symmetry_equiv_pos_as_xyz
  1  'x, y, z'
loop_
 _atom_site_type_symbol
 _atom_site_label
 _atom_site_symmetry_multiplicity
 _atom_site_fract_x
 _atom_site_fract_y
 _atom_site_fract_z
 _atom_site_occupancy
  Tm  Tm0  1  0.66769152  0.66769152  0.00000000  1
  Tm  Tm1  1  0.33230848  0.33230848  -0.00000000  1
  Mg  Mg0  1  -0.00000000  0.50000000  0.50000000  1
  Mg  Mg1  1  0.50000000  -0.00000000  0.50000000  1
  Sn  Sn0  1  0.86299141  0.86299141  0.00000000  1
  Sn  Sn1  1  0.13700859  0.13700859  -0.00000000  1
loop_
_geom_bond_atom_site_label_1
_geom_bond_atom_site_label_2
_geom_bond_distance
_geom_bond_site_symmetry_2
Mg0 Sn0 3.057873 1_456
Mg0 Sn1 3.057873 1_566
Mg0 Sn0 3.057873 1_445
Mg0 Sn1 3.057873 1_555
Mg0 Mg1 3.069332 1_566
Mg0 Mg1 3.069332 1_454
Mg0 Mg1 3.069332 1_465
Mg0 Mg1 3.069332 1_555
Mg0 Tm0 3.414914 1_556
Mg0 Tm1 3.414914 1_455
Mg0 Tm0 3.414914 1_455
Mg0 Tm1 3.414914 1_556
Mg1 Sn0 3.057873 1_445
Mg1 Sn0 3.057873 1_546
Mg1 Sn1 3.057873 1_555
Mg1 Sn1 3.057873 1_656
Mg1 Tm0 3.414914 1_556
Mg1 Tm0 3.414914 1_545
Mg1 Tm1 3.414914 1_545
Mg1 Tm1 3.414914 1_556
Sn0 Tm0 3.070591 1_555
Sn0 Tm1 3.107012 1_666
Sn0 Tm1 3.107012 1_554
Sn0 Tm1 3.107012 1_565
Sn0 Tm1 3.107012 1_655
Sn1 Tm1 3.070591 1_555
Sn1 Tm0 3.107012 1_455
Sn1 Tm0 3.107012 1_556
Sn1 Tm0 3.107012 1_444
Sn1 Tm0 3.107012 1_545
