# generated using pymatgen
data_Ho2Cu(WO4)4
_symmetry_space_group_name_H-M   'P 1'
_cell_length_a   10.12601164
_cell_length_b   10.12601164
_cell_length_c   11.29356754
_cell_angle_alpha   70.32470182
_cell_angle_beta   70.32470182
_cell_angle_gamma   32.40162405
_symmetry_Int_Tables_number   1
_chemical_formula_structural   Ho2Cu(WO4)4
_chemical_formula_sum   'Ho4 Cu2 W8 O32'
_cell_volume   581.12453641
_cell_formula_units_Z   2
loop_
 _symmetry_equiv_pos_site_id
 _symmetry_equiv_pos_as_xyz
  1  'x, y, z'
loop_
 _atom_site_type_symbol
 _atom_site_label
 _atom_site_symmetry_multiplicity
 _atom_site_fract_x
 _atom_site_fract_y
 _atom_site_fract_z
 _atom_site_occupancy
  Ho  Ho0  1  0.48128500  0.81808300  0.04415900  1
  Ho  Ho1  1  0.51871500  0.18191700  0.95584100  1
  Ho  Ho2  1  0.18191700  0.51871500  0.45584100  1
  Ho  Ho3  1  0.81808300  0.48128500  0.54415900  1
  Cu  Cu0  1  0.65267300  0.34732700  0.25000000  1
  Cu  Cu1  1  0.34732700  0.65267300  0.75000000  1
  W  W0  1  0.68943900  0.93532800  0.28612600  1
  W  W1  1  0.31056100  0.06467200  0.71387400  1
  W  W2  1  0.06467200  0.31056100  0.21387400  1
  W  W3  1  0.93532800  0.68943900  0.78612600  1
  W  W4  1  0.75593300  0.13162600  0.59170100  1
  W  W5  1  0.24406700  0.86837400  0.40829900  1
  W  W6  1  0.86837400  0.24406700  0.90829900  1
  W  W7  1  0.13162600  0.75593300  0.09170100  1
  O  O0  1  0.77807800  0.95986000  0.10214500  1
  O  O1  1  0.22192200  0.04014000  0.89785500  1
  O  O2  1  0.04014000  0.22192200  0.39785500  1
  O  O3  1  0.95986000  0.77807800  0.60214500  1
  O  O4  1  0.25691200  0.20942200  0.05426500  1
  O  O5  1  0.74308800  0.79057800  0.94573500  1
  O  O6  1  0.79057800  0.74308800  0.44573500  1
  O  O7  1  0.20942200  0.25691200  0.55426500  1
  O  O8  1  0.52783400  0.21381900  0.32491800  1
  O  O9  1  0.47216600  0.78618100  0.67508200  1
  O  O10  1  0.78618100  0.47216600  0.17508200  1
  O  O11  1  0.21381900  0.52783400  0.82491800  1
  O  O12  1  0.87339800  0.10534800  0.41083700  1
  O  O13  1  0.12660200  0.89465200  0.58916300  1
  O  O14  1  0.89465200  0.12660200  0.08916300  1
  O  O15  1  0.10534800  0.87339800  0.91083700  1
  O  O16  1  0.52282000  0.71532200  0.42574900  1
  O  O17  1  0.47718000  0.28467800  0.57425100  1
  O  O18  1  0.28467800  0.47718000  0.07425100  1
  O  O19  1  0.71532200  0.52282000  0.92574900  1
  O  O20  1  0.39444200  0.63347600  0.12064000  1
  O  O21  1  0.60555800  0.36652400  0.87936000  1
  O  O22  1  0.36652400  0.60555800  0.37936000  1
  O  O23  1  0.63347600  0.39444200  0.62064000  1
  O  O24  1  0.41521800  0.07696300  0.26430800  1
  O  O25  1  0.58478200  0.92303700  0.73569200  1
  O  O26  1  0.92303700  0.58478200  0.23569200  1
  O  O27  1  0.07696300  0.41521800  0.76430800  1
  O  O28  1  0.24001300  0.97529900  0.22778300  1
  O  O29  1  0.75998700  0.02470100  0.77221700  1
  O  O30  1  0.02470100  0.75998700  0.27221700  1
  O  O31  1  0.97529900  0.24001300  0.72778300  1
loop_
_geom_bond_atom_site_label_1
_geom_bond_atom_site_label_2
_geom_bond_distance
_geom_bond_site_symmetry_2
Ho0 O19 2.221979 1_554
Ho0 O28 2.246655 1_555
Ho0 O1 2.265364 1_564
Ho0 O10 2.304887 1_555
Ho0 O5 2.306171 1_554
Ho0 O4 2.409320 1_565
Ho0 O20 2.488145 1_555
Ho1 O18 2.221979 1_556
Ho1 O29 2.246655 1_555
Ho1 O0 2.265364 1_546
Ho1 O11 2.304887 1_555
Ho1 O4 2.306171 1_556
Ho1 O5 2.409320 1_545
Ho1 O21 2.488145 1_555
Ho2 O17 2.221979 1_555
Ho2 O30 2.246655 1_555
Ho2 O3 2.265364 1_455
Ho2 O8 2.304887 1_555
Ho2 O7 2.306171 1_555
Ho2 O6 2.409320 1_455
Ho2 O22 2.488145 1_555
Ho3 O16 2.221979 1_555
Ho3 O31 2.246655 1_555
Ho3 O2 2.265364 1_655
Ho3 O9 2.304887 1_555
Ho3 O6 2.306171 1_555
Ho3 O7 2.409320 1_655
Ho3 O23 2.488145 1_555
Cu0 O22 2.072516 1_555
Cu0 O20 2.072516 1_555
Cu0 O12 2.188087 1_555
Cu0 O14 2.188087 1_555
Cu0 O10 2.353056 1_555
Cu0 O8 2.353056 1_555
Cu1 O21 2.072516 1_555
Cu1 O23 2.072516 1_555
Cu1 O13 2.188087 1_555
Cu1 O15 2.188087 1_555
Cu1 O9 2.353056 1_555
Cu1 O11 2.353056 1_555
O0 W0 1.989397 1_555
O0 W7 2.119169 1_655
O1 W1 1.989397 1_555
O1 W6 2.119169 1_455
O2 W2 1.989397 1_555
O2 W5 2.119169 1_545
O3 W3 1.989397 1_555
O3 W4 2.119169 1_565
O4 W2 1.897691 1_555
O5 W3 1.897691 1_555
O6 W0 1.897691 1_555
O7 W1 1.897691 1_555
O8 W0 1.838173 1_545
O9 W1 1.838173 1_565
O10 W2 1.838173 1_655
O11 W3 1.838173 1_455
O12 W4 1.962990 1_555
O12 W5 2.147534 1_645
O13 W5 1.962990 1_555
O13 W4 2.147534 1_465
O14 W6 1.962990 1_554
O14 W7 2.147534 1_645
O15 W7 1.962990 1_556
O15 W6 2.147534 1_465
O16 W5 1.786065 1_555
O17 W4 1.786065 1_555
O18 W7 1.786065 1_555
O19 W6 1.786065 1_555
O20 W7 1.862032 1_555
O21 W6 1.862032 1_555
O22 W5 1.862032 1_555
O23 W4 1.862032 1_555
O24 W0 1.823730 1_545
O24 W2 2.189840 1_555
O25 W1 1.823730 1_565
O25 W3 2.189840 1_555
O26 W2 1.823730 1_655
O26 W0 2.189840 1_555
O27 W3 1.823730 1_455
O27 W1 2.189840 1_555
O28 W5 1.955784 1_555
O28 W2 2.086279 1_565
O29 W4 1.955784 1_555
O29 W3 2.086279 1_545
O30 W7 1.955784 1_555
O30 W0 2.086279 1_455
O31 W6 1.955784 1_555
O31 W1 2.086279 1_655
