# generated using pymatgen
data_Ba2PrPbO6
_symmetry_space_group_name_H-M   'P 1'
_cell_length_a   6.29810408
_cell_length_b   6.29810408
_cell_length_c   6.35550392
_cell_angle_alpha   60.09793114
_cell_angle_beta   60.09793114
_cell_angle_gamma   59.80930497
_symmetry_Int_Tables_number   1
_chemical_formula_structural   Ba2PrPbO6
_chemical_formula_sum   'Ba2 Pr1 Pb1 O6'
_cell_volume   178.26426232
_cell_formula_units_Z   1
loop_
 _symmetry_equiv_pos_site_id
 _symmetry_equiv_pos_as_xyz
  1  'x, y, z'
loop_
 _atom_site_type_symbol
 _atom_site_label
 _atom_site_symmetry_multiplicity
 _atom_site_fract_x
 _atom_site_fract_y
 _atom_site_fract_z
 _atom_site_occupancy
  Ba  Ba0  1  0.75150300  0.75150300  0.23980500  1
  Ba  Ba1  1  0.24849700  0.24849700  0.76019500  1
  Pr  Pr0  1  0.00000000  0.00000000  0.50000000  1
  Pb  Pb0  1  0.50000000  0.50000000  0.00000000  1
  O  O0  1  0.78600000  0.30023500  0.19699100  1
  O  O1  1  0.69976500  0.21400000  0.80300900  1
  O  O2  1  0.21400000  0.69976500  0.80300900  1
  O  O3  1  0.30023500  0.78600000  0.19699100  1
  O  O4  1  0.25916200  0.25916200  0.31653000  1
  O  O5  1  0.74083800  0.74083800  0.68347000  1
loop_
_geom_bond_atom_site_label_1
_geom_bond_atom_site_label_2
_geom_bond_distance
_geom_bond_site_symmetry_2
Ba0 O5 2.754392 1_555
Ba0 O2 2.860485 1_654
Ba0 O1 2.860485 1_564
Ba0 O3 2.879242 1_555
Ba0 O0 2.879242 1_555
Ba0 O4 3.186078 1_655
Ba0 O4 3.186078 1_565
Ba1 O4 2.754392 1_555
Ba1 O3 2.860485 1_546
Ba1 O0 2.860485 1_456
Ba1 O2 2.879242 1_555
Ba1 O1 2.879242 1_555
Ba1 O5 3.186078 1_545
Ba1 O5 3.186078 1_455
O0 Pb0 2.189421 1_555
O0 Pr0 2.344066 1_655
O1 Pb0 2.189421 1_556
O1 Pr0 2.344066 1_655
O2 Pb0 2.189421 1_556
O2 Pr0 2.344066 1_565
O3 Pb0 2.189421 1_555
O3 Pr0 2.344066 1_565
O4 Pb0 2.208561 1_555
O4 Pr0 2.360570 1_555
O5 Pb0 2.208561 1_556
O5 Pr0 2.360570 1_665
