# generated using pymatgen
data_Ba(MnN2)2
_symmetry_space_group_name_H-M   'P 1'
_cell_length_a   10.73464408
_cell_length_b   10.73464408
_cell_length_c   10.73464408
_cell_angle_alpha   90.00000000
_cell_angle_beta   90.00000000
_cell_angle_gamma   90.00000000
_symmetry_Int_Tables_number   1
_chemical_formula_structural   Ba(MnN2)2
_chemical_formula_sum   'Ba12 Mn24 N48'
_cell_volume   1236.98077055
_cell_formula_units_Z   12
loop_
 _symmetry_equiv_pos_site_id
 _symmetry_equiv_pos_as_xyz
  1  'x, y, z'
loop_
 _atom_site_type_symbol
 _atom_site_label
 _atom_site_symmetry_multiplicity
 _atom_site_fract_x
 _atom_site_fract_y
 _atom_site_fract_z
 _atom_site_occupancy
  Ba  Ba0  1  0.50000000  0.50000000  0.00000000  1
  Ba  Ba1  1  0.50000000  0.00000000  0.50000000  1
  Ba  Ba2  1  0.00000000  0.50000000  0.50000000  1
  Ba  Ba3  1  0.00000000  0.00000000  0.00000000  1
  Ba  Ba4  1  0.12479681  0.87520319  0.37520319  1
  Ba  Ba5  1  0.87520319  0.37520319  0.12479681  1
  Ba  Ba6  1  0.37520319  0.12479681  0.87520319  1
  Ba  Ba7  1  0.62479681  0.62479681  0.62479681  1
  Ba  Ba8  1  0.87520319  0.12479681  0.62479681  1
  Ba  Ba9  1  0.12479681  0.62479681  0.87520319  1
  Ba  Ba10  1  0.62479681  0.87520319  0.12479681  1
  Ba  Ba11  1  0.37520319  0.37520319  0.37520319  1
  Mn  Mn0  1  0.38546777  0.69348428  0.34722378  1
  Mn  Mn1  1  0.61453223  0.19348428  0.15277622  1
  Mn  Mn2  1  0.11453223  0.30651572  0.84722378  1
  Mn  Mn3  1  0.88546777  0.80651572  0.65277622  1
  Mn  Mn4  1  0.34722378  0.38546777  0.69348428  1
  Mn  Mn5  1  0.15277622  0.61453223  0.19348428  1
  Mn  Mn6  1  0.84722378  0.11453223  0.30651572  1
  Mn  Mn7  1  0.65277622  0.88546777  0.80651572  1
  Mn  Mn8  1  0.69348428  0.34722378  0.38546777  1
  Mn  Mn9  1  0.19348428  0.15277622  0.61453223  1
  Mn  Mn10  1  0.30651572  0.84722378  0.11453223  1
  Mn  Mn11  1  0.80651572  0.65277622  0.88546777  1
  Mn  Mn12  1  0.61453223  0.30651572  0.65277622  1
  Mn  Mn13  1  0.38546777  0.80651572  0.84722378  1
  Mn  Mn14  1  0.88546777  0.69348428  0.15277622  1
  Mn  Mn15  1  0.11453223  0.19348428  0.34722378  1
  Mn  Mn16  1  0.65277622  0.61453223  0.30651572  1
  Mn  Mn17  1  0.84722378  0.38546777  0.80651572  1
  Mn  Mn18  1  0.15277622  0.88546777  0.69348428  1
  Mn  Mn19  1  0.34722378  0.11453223  0.19348428  1
  Mn  Mn20  1  0.30651572  0.65277622  0.61453223  1
  Mn  Mn21  1  0.80651572  0.84722378  0.38546777  1
  Mn  Mn22  1  0.69348428  0.15277622  0.88546777  1
  Mn  Mn23  1  0.19348428  0.34722378  0.11453223  1
  N  N0  1  0.37426976  0.83049568  0.26125225  1
  N  N1  1  0.62573024  0.33049568  0.23874775  1
  N  N2  1  0.12573024  0.16950432  0.76125225  1
  N  N3  1  0.87426976  0.66950432  0.73874775  1
  N  N4  1  0.26125225  0.37426976  0.83049568  1
  N  N5  1  0.23874775  0.62573024  0.33049568  1
  N  N6  1  0.76125225  0.12573024  0.16950432  1
  N  N7  1  0.73874775  0.87426976  0.66950432  1
  N  N8  1  0.83049568  0.26125225  0.37426976  1
  N  N9  1  0.33049568  0.23874775  0.62573024  1
  N  N10  1  0.16950432  0.76125225  0.12573024  1
  N  N11  1  0.66950432  0.73874775  0.87426976  1
  N  N12  1  0.62573024  0.16950432  0.73874775  1
  N  N13  1  0.37426976  0.66950432  0.76125225  1
  N  N14  1  0.87426976  0.83049568  0.23874775  1
  N  N15  1  0.12573024  0.33049568  0.26125225  1
  N  N16  1  0.73874775  0.62573024  0.16950432  1
  N  N17  1  0.76125225  0.37426976  0.66950432  1
  N  N18  1  0.23874775  0.87426976  0.83049568  1
  N  N19  1  0.26125225  0.12573024  0.33049568  1
  N  N20  1  0.16950432  0.73874775  0.62573024  1
  N  N21  1  0.66950432  0.76125225  0.37426976  1
  N  N22  1  0.83049568  0.23874775  0.87426976  1
  N  N23  1  0.33049568  0.26125225  0.12573024  1
  N  N24  1  0.41077742  0.72606421  0.50342594  1
  N  N25  1  0.58922258  0.22606421  0.99657406  1
  N  N26  1  0.08922258  0.27393579  0.00342594  1
  N  N27  1  0.91077742  0.77393579  0.49657406  1
  N  N28  1  0.50342594  0.41077742  0.72606421  1
  N  N29  1  0.99657406  0.58922258  0.22606421  1
  N  N30  1  0.00342594  0.08922258  0.27393579  1
  N  N31  1  0.49657406  0.91077742  0.77393579  1
  N  N32  1  0.72606421  0.50342594  0.41077742  1
  N  N33  1  0.22606421  0.99657406  0.58922258  1
  N  N34  1  0.27393579  0.00342594  0.08922258  1
  N  N35  1  0.77393579  0.49657406  0.91077742  1
  N  N36  1  0.58922258  0.27393579  0.49657406  1
  N  N37  1  0.41077742  0.77393579  0.00342594  1
  N  N38  1  0.91077742  0.72606421  0.99657406  1
  N  N39  1  0.08922258  0.22606421  0.50342594  1
  N  N40  1  0.49657406  0.58922258  0.27393579  1
  N  N41  1  0.00342594  0.41077742  0.77393579  1
  N  N42  1  0.99657406  0.91077742  0.72606421  1
  N  N43  1  0.50342594  0.08922258  0.22606421  1
  N  N44  1  0.27393579  0.49657406  0.58922258  1
  N  N45  1  0.77393579  0.00342594  0.41077742  1
  N  N46  1  0.72606421  0.99657406  0.91077742  1
  N  N47  1  0.22606421  0.50342594  0.08922258  1
loop_
_geom_bond_atom_site_label_1
_geom_bond_atom_site_label_2
_geom_bond_distance
_geom_bond_site_symmetry_2
Ba0 N28 3.092867 1_554
Ba0 N25 3.092867 1_554
Ba0 N37 3.092867 1_555
Ba0 N35 3.092867 1_554
Ba0 N47 3.092867 1_555
Ba0 N40 3.092867 1_555
Ba0 N23 3.420636 1_555
Ba0 N1 3.420636 1_555
Ba0 N16 3.420636 1_555
Ba0 N4 3.420636 1_554
Ba0 N11 3.420636 1_554
Ba0 N13 3.420636 1_554
Ba1 N31 3.092867 1_545
Ba1 N43 3.092867 1_555
Ba1 N45 3.092867 1_555
Ba1 N33 3.092867 1_545
Ba1 N24 3.092867 1_545
Ba1 N36 3.092867 1_555
Ba1 N19 3.420636 1_555
Ba1 N9 3.420636 1_555
Ba1 N12 3.420636 1_555
Ba1 N0 3.420636 1_545
Ba1 N21 3.420636 1_545
Ba1 N7 3.420636 1_545
Ba2 N27 3.092867 1_455
Ba2 N32 3.092867 1_455
Ba2 N44 3.092867 1_555
Ba2 N41 3.092867 1_555
Ba2 N39 3.092867 1_555
Ba2 N29 3.092867 1_455
Ba2 N5 3.420636 1_555
Ba2 N15 3.420636 1_555
Ba2 N8 3.420636 1_455
Ba2 N3 3.420636 1_455
Ba2 N20 3.420636 1_555
Ba2 N17 3.420636 1_455
Ba3 N26 3.092867 1_555
Ba3 N30 3.092867 1_555
Ba3 N34 3.092867 1_555
Ba3 N42 3.092867 1_444
Ba3 N46 3.092867 1_444
Ba3 N38 3.092867 1_444
Ba3 N18 3.420636 1_544
Ba3 N2 3.420636 1_554
Ba3 N10 3.420636 1_545
Ba3 N6 3.420636 1_455
Ba3 N14 3.420636 1_445
Ba3 N22 3.420636 1_454
Ba4 N30 2.856107 1_565
Ba4 N27 2.856107 1_455
Ba4 N33 2.856107 1_555
Ba4 N0 2.983002 1_555
Ba4 N5 2.983002 1_555
Ba4 N10 2.983002 1_555
Ba4 N20 3.099742 1_555
Ba4 N19 3.099742 1_565
Ba4 N14 3.099742 1_455
Ba5 N26 2.856107 1_655
Ba5 N35 2.856107 1_554
Ba5 N29 2.856107 1_555
Ba5 N1 2.983002 1_555
Ba5 N8 2.983002 1_555
Ba5 N6 2.983002 1_555
Ba5 N16 3.099742 1_555
Ba5 N15 3.099742 1_655
Ba5 N22 3.099742 1_554
Ba6 N34 2.856107 1_556
Ba6 N25 2.856107 1_555
Ba6 N31 2.856107 1_545
Ba6 N2 2.983002 1_555
Ba6 N4 2.983002 1_555
Ba6 N9 2.983002 1_555
Ba6 N23 3.099742 1_556
Ba6 N12 3.099742 1_555
Ba6 N18 3.099742 1_545
Ba7 N28 2.856107 1_555
Ba7 N32 2.856107 1_555
Ba7 N24 2.856107 1_555
Ba7 N7 2.983002 1_555
Ba7 N3 2.983002 1_555
Ba7 N11 2.983002 1_555
Ba7 N17 3.099742 1_555
Ba7 N13 3.099742 1_555
Ba7 N21 3.099742 1_555
Ba8 N39 2.856107 1_655
Ba8 N45 2.856107 1_555
Ba8 N42 2.856107 1_545
Ba8 N12 2.983002 1_555
Ba8 N22 2.983002 1_555
Ba8 N17 2.983002 1_555
Ba8 N8 3.099742 1_555
Ba8 N2 3.099742 1_655
Ba8 N7 3.099742 1_545
Ba9 N47 2.856107 1_556
Ba9 N41 2.856107 1_555
Ba9 N38 2.856107 1_455
Ba9 N20 2.983002 1_555
Ba9 N18 2.983002 1_555
Ba9 N13 2.983002 1_555
Ba9 N4 3.099742 1_555
Ba9 N10 3.099742 1_556
Ba9 N3 3.099742 1_455
Ba10 N43 2.856107 1_565
Ba10 N37 2.856107 1_555
Ba10 N46 2.856107 1_554
Ba10 N14 2.983002 1_555
Ba10 N16 2.983002 1_555
Ba10 N21 2.983002 1_555
Ba10 N6 3.099742 1_565
Ba10 N11 3.099742 1_554
Ba10 N0 3.099742 1_555
Ba11 N44 2.856107 1_555
Ba11 N36 2.856107 1_555
Ba11 N40 2.856107 1_555
Ba11 N15 2.983002 1_555
Ba11 N23 2.983002 1_555
Ba11 N19 2.983002 1_555
Ba11 N5 3.099742 1_555
Ba11 N9 3.099742 1_555
Ba11 N1 3.099742 1_555
Mn0 N24 1.734273 1_555
Mn0 N0 1.740490 1_555
Mn0 N5 1.744081 1_555
Mn0 N40 1.814956 1_555
Mn1 N25 1.734273 1_554
Mn1 N1 1.740490 1_555
Mn1 N6 1.744081 1_555
Mn1 N43 1.814956 1_555
Mn2 N26 1.734273 1_556
Mn2 N2 1.740490 1_555
Mn2 N4 1.744081 1_555
Mn2 N41 1.814956 1_555
Mn3 N27 1.734273 1_555
Mn3 N3 1.740490 1_555
Mn3 N7 1.744081 1_555
Mn3 N42 1.814956 1_555
Mn4 N28 1.734273 1_555
Mn4 N4 1.740490 1_555
Mn4 N9 1.744081 1_555
Mn4 N44 1.814956 1_555
Mn5 N29 1.734273 1_455
Mn5 N5 1.740490 1_555
Mn5 N10 1.744081 1_555
Mn5 N47 1.814956 1_555
Mn6 N30 1.734273 1_655
Mn6 N6 1.740490 1_555
Mn6 N8 1.744081 1_555
Mn6 N45 1.814956 1_555
Mn7 N31 1.734273 1_555
Mn7 N7 1.740490 1_555
Mn7 N11 1.744081 1_555
Mn7 N46 1.814956 1_555
Mn8 N32 1.734273 1_555
Mn8 N8 1.740490 1_555
Mn8 N1 1.744081 1_555
Mn8 N36 1.814956 1_555
Mn9 N33 1.734273 1_545
Mn9 N9 1.740490 1_555
Mn9 N2 1.744081 1_555
Mn9 N39 1.814956 1_555
Mn10 N34 1.734273 1_565
Mn10 N10 1.740490 1_555
Mn10 N0 1.744081 1_555
Mn10 N37 1.814956 1_555
Mn11 N35 1.734273 1_555
Mn11 N11 1.740490 1_555
Mn11 N3 1.744081 1_555
Mn11 N38 1.814956 1_555
Mn12 N36 1.734273 1_555
Mn12 N12 1.740490 1_555
Mn12 N17 1.744081 1_555
Mn12 N28 1.814956 1_555
Mn13 N37 1.734273 1_556
Mn13 N13 1.740490 1_555
Mn13 N18 1.744081 1_555
Mn13 N31 1.814956 1_555
Mn14 N38 1.734273 1_554
Mn14 N14 1.740490 1_555
Mn14 N16 1.744081 1_555
Mn14 N29 1.814956 1_555
Mn15 N39 1.734273 1_555
Mn15 N15 1.740490 1_555
Mn15 N19 1.744081 1_555
Mn15 N30 1.814956 1_555
Mn16 N40 1.734273 1_555
Mn16 N16 1.740490 1_555
Mn16 N21 1.744081 1_555
Mn16 N32 1.814956 1_555
Mn17 N41 1.734273 1_655
Mn17 N17 1.740490 1_555
Mn17 N22 1.744081 1_555
Mn17 N35 1.814956 1_555
Mn18 N42 1.734273 1_455
Mn18 N18 1.740490 1_555
Mn18 N20 1.744081 1_555
Mn18 N33 1.814956 1_555
Mn19 N43 1.734273 1_555
Mn19 N19 1.740490 1_555
Mn19 N23 1.744081 1_555
Mn19 N34 1.814956 1_555
Mn20 N44 1.734273 1_555
Mn20 N20 1.740490 1_555
Mn20 N13 1.744081 1_555
Mn20 N24 1.814956 1_555
Mn21 N45 1.734273 1_565
Mn21 N21 1.740490 1_555
Mn21 N14 1.744081 1_555
Mn21 N27 1.814956 1_555
Mn22 N46 1.734273 1_545
Mn22 N22 1.740490 1_555
Mn22 N12 1.744081 1_555
Mn22 N25 1.814956 1_555
Mn23 N47 1.734273 1_555
Mn23 N23 1.740490 1_555
Mn23 N15 1.744081 1_555
Mn23 N26 1.814956 1_555
