# generated using pymatgen
data_CaEuTiSnO6
_symmetry_space_group_name_H-M   'P 1'
_cell_length_a   5.66104100
_cell_length_b   5.66104100
_cell_length_c   5.66104100
_cell_angle_alpha   60.00000000
_cell_angle_beta   60.00000000
_cell_angle_gamma   60.00000000
_symmetry_Int_Tables_number   1
_chemical_formula_structural   CaEuTiSnO6
_chemical_formula_sum   'Ca1 Eu1 Ti1 Sn1 O6'
_cell_volume   128.28441648
_cell_formula_units_Z   1
loop_
 _symmetry_equiv_pos_site_id
 _symmetry_equiv_pos_as_xyz
  1  'x, y, z'
loop_
 _atom_site_type_symbol
 _atom_site_label
 _atom_site_symmetry_multiplicity
 _atom_site_fract_x
 _atom_site_fract_y
 _atom_site_fract_z
 _atom_site_occupancy
  Ca  Ca0  1  0.75000000  0.75000000  0.75000000  1
  Eu  Eu0  1  0.25000000  0.25000000  0.25000000  1
  Ti  Ti0  1  0.50000000  0.50000000  0.50000000  1
  Sn  Sn0  1  0.00000000  -0.00000000  -0.00000000  1
  O  O0  1  0.74433598  0.25566402  0.25566402  1
  O  O1  1  0.25566402  0.74433598  0.74433598  1
  O  O2  1  0.74433598  0.25566402  0.74433598  1
  O  O3  1  0.25566402  0.74433598  0.25566402  1
  O  O4  1  0.74433598  0.74433598  0.25566402  1
  O  O5  1  0.25566402  0.25566402  0.74433598  1
loop_
_geom_bond_atom_site_label_1
_geom_bond_atom_site_label_2
_geom_bond_distance
_geom_bond_site_symmetry_2
Ca0 O2 2.830884 1_555
Ca0 O2 2.830884 1_565
Ca0 O3 2.830884 1_556
Ca0 O0 2.830884 1_556
Ca0 O4 2.830884 1_555
Ca0 O1 2.830884 1_555
Ca0 O3 2.830884 1_655
Ca0 O4 2.830884 1_556
Ca0 O0 2.830884 1_565
Ca0 O1 2.830884 1_655
Ca0 O5 2.830884 1_655
Ca0 O5 2.830884 1_565
Eu0 O3 2.830884 1_555
Eu0 O0 2.830884 1_555
Eu0 O4 2.830884 1_455
Eu0 O2 2.830884 1_554
Eu0 O1 2.830884 1_554
Eu0 O3 2.830884 1_545
Eu0 O2 2.830884 1_455
Eu0 O5 2.830884 1_555
Eu0 O5 2.830884 1_554
Eu0 O1 2.830884 1_545
Eu0 O0 2.830884 1_455
Eu0 O4 2.830884 1_545
O0 Ti0 1.956135 1_555
O0 Sn0 2.046826 1_655
O1 Ti0 1.956135 1_555
O1 Sn0 2.046826 1_566
O2 Ti0 1.956135 1_555
O2 Sn0 2.046826 1_656
O3 Ti0 1.956135 1_555
O3 Sn0 2.046826 1_565
O4 Ti0 1.956135 1_555
O4 Sn0 2.046826 1_665
O5 Ti0 1.956135 1_555
O5 Sn0 2.046826 1_556
