# generated using pymatgen
data_MgV5(MoO5)5
_symmetry_space_group_name_H-M   'P 1'
_cell_length_a   19.68834843
_cell_length_b   5.60393883
_cell_length_c   6.46831945
_cell_angle_alpha   102.94639614
_cell_angle_beta   108.37116875
_cell_angle_gamma   45.25594991
_symmetry_Int_Tables_number   1
_chemical_formula_structural   MgV5(MoO5)5
_chemical_formula_sum   'Mg1 V5 Mo5 O25'
_cell_volume   481.05019985
_cell_formula_units_Z   1
loop_
 _symmetry_equiv_pos_site_id
 _symmetry_equiv_pos_as_xyz
  1  'x, y, z'
loop_
 _atom_site_type_symbol
 _atom_site_label
 _atom_site_symmetry_multiplicity
 _atom_site_fract_x
 _atom_site_fract_y
 _atom_site_fract_z
 _atom_site_occupancy
  Mg  Mg0  1  0.90996900  0.08662400  0.29441400  1
  V  V0  1  0.03693200  0.16616400  0.60261600  1
  V  V1  1  0.22145700  0.19791100  0.60746300  1
  V  V2  1  0.40460300  0.97015500  0.98631100  1
  V  V3  1  0.59832300  0.96240400  0.98582400  1
  V  V4  1  0.78455100  0.99577400  0.99064400  1
  Mo  Mo0  1  0.99654000  0.03347200  0.97378300  1
  Mo  Mo1  1  0.20321700  0.01478900  0.00339500  1
  Mo  Mo2  1  0.41989200  0.16118700  0.59039600  1
  Mo  Mo3  1  0.62376600  0.13025700  0.59032800  1
  Mo  Mo4  1  0.82776900  0.12318200  0.61952700  1
  O  O0  1  0.00572600  0.09914800  0.29287200  1
  O  O1  1  0.08083200  0.09831500  0.92927000  1
  O  O2  1  0.14920700  0.10449700  0.66196300  1
  O  O3  1  0.08615200  0.59469600  0.98176000  1
  O  O4  1  0.21126300  0.10492700  0.29065800  1
  O  O5  1  0.13786800  0.61740900  0.59836900  1
  O  O6  1  0.27557500  0.08941100  0.93085100  1
  O  O7  1  0.34782500  0.08498300  0.65829200  1
  O  O8  1  0.28729300  0.57977500  0.00191200  1
  O  O9  1  0.41211200  0.07509600  0.30204800  1
  O  O10  1  0.33731800  0.59597500  0.59144200  1
  O  O11  1  0.47708000  0.05826800  0.92114100  1
  O  O12  1  0.54615400  0.06211400  0.65777500  1
  O  O13  1  0.48456100  0.55596700  0.99815200  1
  O  O14  1  0.61201800  0.04472500  0.30271000  1
  O  O15  1  0.53704800  0.56686500  0.59060800  1
  O  O16  1  0.67291400  0.05103500  0.92798600  1
  O  O17  1  0.74212600  0.05820600  0.65953700  1
  O  O18  1  0.68442100  0.54059600  0.99290200  1
  O  O19  1  0.81731000  0.06203800  0.29992200  1
  O  O20  1  0.73602800  0.56398200  0.61152900  1
  O  O21  1  0.88145600  0.06390900  0.95868400  1
  O  O22  1  0.94109300  0.09700100  0.63315400  1
  O  O23  1  0.87985600  0.56954000  0.98190600  1
  O  O24  1  0.94146400  0.59293900  0.61152800  1
loop_
_geom_bond_atom_site_label_1
_geom_bond_atom_site_label_2
_geom_bond_distance
_geom_bond_site_symmetry_2
Mg0 O19 1.935296 1_555
Mg0 O0 1.938511 1_655
Mg0 O21 2.062894 1_554
Mg0 O22 2.080013 1_555
Mo0 O3 1.747365 1_645
Mo0 O0 1.986499 1_656
Mo0 O1 2.041131 1_655
Mo0 O22 2.112146 1_555
Mo0 O21 2.120474 1_555
Mo0 O23 2.143378 1_555
Mo1 O8 1.732419 1_545
Mo1 O4 1.799826 1_555
Mo1 O6 1.942317 1_554
Mo1 O1 2.009825 1_554
Mo1 O2 2.127310 1_554
Mo1 O3 2.312575 1_554
Mo2 O10 1.732754 1_555
Mo2 O9 1.804351 1_555
Mo2 O7 1.928302 1_555
Mo2 O12 2.039664 1_555
Mo2 O11 2.073044 1_555
Mo2 O15 2.365862 1_545
Mo3 O15 1.737862 1_555
Mo3 O14 1.797117 1_555
Mo3 O17 1.972947 1_555
Mo3 O12 1.996868 1_555
Mo3 O16 2.097885 1_555
Mo3 O20 2.259076 1_545
Mo4 O20 1.756079 1_555
Mo4 O19 1.986749 1_555
Mo4 O17 2.055338 1_555
Mo4 O21 2.100189 1_555
Mo4 O22 2.104363 1_555
Mo4 O24 2.117197 1_545
O0 V0 1.935047 1_555
O1 V0 2.025370 1_555
O2 V0 1.897948 1_555
O2 V1 1.966959 1_555
O4 V1 1.980037 1_555
O5 V1 1.671047 1_555
O5 V0 2.190766 1_565
O6 V1 2.033079 1_555
O6 V2 2.042421 1_545
O7 V1 2.014826 1_555
O7 V2 2.066258 1_545
O8 V2 2.428845 1_544
O9 V2 1.983069 1_544
O10 V1 2.398323 1_565
O11 V3 1.956404 1_545
O11 V2 1.980437 1_545
O12 V3 2.054071 1_545
O13 V2 1.652532 1_555
O13 V3 2.364734 1_545
O14 V3 1.972290 1_544
O16 V4 1.904619 1_545
O16 V3 1.999969 1_545
O17 V4 2.050288 1_545
O18 V3 1.679685 1_555
O18 V4 2.175433 1_545
O19 V4 1.935699 1_544
O21 V4 2.266762 1_545
O22 V0 2.246900 1_655
O23 V4 1.710477 1_555
O24 V0 1.712822 1_655
