# generated using pymatgen
data_K2PdN2(ClO2)2
_symmetry_space_group_name_H-M   'P 1'
_cell_length_a   3.73224596
_cell_length_b   7.93131005
_cell_length_c   7.94407363
_cell_angle_alpha   119.76604285
_cell_angle_beta   103.24356446
_cell_angle_gamma   90.66761012
_symmetry_Int_Tables_number   1
_chemical_formula_structural   K2PdN2(ClO2)2
_chemical_formula_sum   'K2 Pd1 N2 Cl2 O4'
_cell_volume   196.50188352
_cell_formula_units_Z   1
loop_
 _symmetry_equiv_pos_site_id
 _symmetry_equiv_pos_as_xyz
  1  'x, y, z'
loop_
 _atom_site_type_symbol
 _atom_site_label
 _atom_site_symmetry_multiplicity
 _atom_site_fract_x
 _atom_site_fract_y
 _atom_site_fract_z
 _atom_site_occupancy
  K  K0  1  0.84571700  0.34571700  0.69143500  1
  K  K1  1  0.15428300  0.65428300  0.30856500  1
  Pd  Pd0  1  0.50000000  0.00000000  0.00000000  1
  N  N0  1  0.86488300  0.86488300  0.72976600  1
  N  N1  1  0.13511700  0.13511700  0.27023400  1
  Cl  Cl0  1  0.48469100  0.70635400  0.00000000  1
  Cl  Cl1  1  0.51530900  0.29364600  0.00000000  1
  O  O0  1  0.83630000  0.95282300  0.63400000  1
  O  O1  1  0.20230000  0.31882200  0.36600000  1
  O  O2  1  0.79770000  0.68117800  0.63400000  1
  O  O3  1  0.16370000  0.04717700  0.36600000  1
loop_
_geom_bond_atom_site_label_1
_geom_bond_atom_site_label_2
_geom_bond_distance
_geom_bond_site_symmetry_2
K0 O0 2.915177 1_545
K0 O2 2.915193 1_555
K0 O1 3.015266 1_555
K0 O3 3.015268 1_655
K0 O3 3.088012 1_555
K0 O1 3.088015 1_655
K1 O3 2.915177 1_565
K1 O1 2.915193 1_555
K1 O2 3.015266 1_555
K1 O0 3.015268 1_455
K1 O0 3.088012 1_555
K1 O2 3.088015 1_455
N0 O2 1.252210 1_555
N0 O0 1.252217 1_555
N0 Pd0 2.588596 1_666
N0 Pd0 2.588596 1_566
N1 O1 1.252210 1_555
N1 O3 1.252217 1_555
N1 Pd0 2.588596 1_555
N1 Pd0 2.588596 1_455
Cl0 Pd0 2.329033 1_565
Cl0 K1 3.174627 1_555
Cl0 K0 3.174633 1_454
Cl0 K1 3.262992 1_655
Cl0 K0 3.262994 1_554
Cl1 Pd0 2.329033 1_555
Cl1 K0 3.174627 1_554
Cl1 K1 3.174633 1_655
Cl1 K0 3.262992 1_454
Cl1 K1 3.262994 1_555
