# generated using pymatgen
data_MgMn2Zn2O12
_symmetry_space_group_name_H-M   'P 1'
_cell_length_a   5.15846233
_cell_length_b   6.18513200
_cell_length_c   8.25661324
_cell_angle_alpha   68.00311164
_cell_angle_beta   95.35949498
_cell_angle_gamma   90.00000000
_symmetry_Int_Tables_number   1
_chemical_formula_structural   MgMn2Zn2O12
_chemical_formula_sum   'Mg1 Mn2 Zn2 O12'
_cell_volume   243.01421443
_cell_formula_units_Z   1
loop_
 _symmetry_equiv_pos_site_id
 _symmetry_equiv_pos_as_xyz
  1  'x, y, z'
loop_
 _atom_site_type_symbol
 _atom_site_label
 _atom_site_symmetry_multiplicity
 _atom_site_fract_x
 _atom_site_fract_y
 _atom_site_fract_z
 _atom_site_occupancy
  Mg  Mg0  1  0.50000000  0.23672600  0.00000000  1
  Mn  Mn0  1  0.00000000  0.95343800  0.00000000  1
  Mn  Mn1  1  0.50000000  0.72650200  0.00000000  1
  Zn  Zn0  1  0.08684900  0.42635700  0.21035000  1
  Zn  Zn1  1  0.91315100  0.63670700  0.78965000  1
  O  O0  1  0.06932500  0.29328800  0.91827000  1
  O  O1  1  0.15776600  0.82405500  0.85867000  1
  O  O2  1  0.84223400  0.68272500  0.14133000  1
  O  O3  1  0.93067500  0.21155800  0.08173000  1
  O  O4  1  0.03490000  0.26023800  0.50432000  1
  O  O5  1  0.96510000  0.76455800  0.49568000  1
  O  O6  1  0.42698200  0.41649100  0.15745000  1
  O  O7  1  0.57301800  0.57394100  0.84255000  1
  O  O8  1  0.34091000  0.89928100  0.12225700  1
  O  O9  1  0.65909000  0.02153900  0.87774300  1
  O  O10  1  0.18852700  0.74431900  0.45595800  1
  O  O11  1  0.81147300  0.20027700  0.54404200  1
loop_
_geom_bond_atom_site_label_1
_geom_bond_atom_site_label_2
_geom_bond_distance
_geom_bond_site_symmetry_2
Mg0 O7 2.059710 1_554
Mg0 O6 2.059710 1_555
Mg0 O9 2.150599 1_554
Mg0 O8 2.150604 1_545
Mg0 O3 2.248656 1_555
Mg0 O0 2.248656 1_554
Mn0 O1 1.881843 1_554
Mn0 O2 1.881843 1_455
Mn0 O8 1.907568 1_555
Mn0 O9 1.907568 1_464
Mn0 O0 1.996052 1_564
Mn0 O3 1.996052 1_465
Mn1 O6 1.932017 1_555
Mn1 O7 1.932017 1_554
Mn1 O8 1.948669 1_555
Mn1 O9 1.948674 1_564
Mn1 O2 1.982448 1_555
Mn1 O1 1.982448 1_554
O0 O3 1.502602 1_456
O0 Zn1 2.106882 1_455
O1 Zn1 1.902652 1_455
O2 Zn0 1.902652 1_655
O3 Zn0 2.106882 1_655
O4 Zn0 2.296107 1_555
O5 Zn1 2.296107 1_555
O6 Zn0 1.853676 1_555
O7 Zn1 1.853676 1_555
O10 O5 1.246174 1_455
O11 O4 1.246174 1_655
