# generated using pymatgen
data_Mg6FeMo
_symmetry_space_group_name_H-M   'P 1'
_cell_length_a   6.05439639
_cell_length_b   6.05439639
_cell_length_c   4.81738800
_cell_angle_alpha   90.00000000
_cell_angle_beta   90.00000000
_cell_angle_gamma   121.44158732
_symmetry_Int_Tables_number   1
_chemical_formula_structural   Mg6FeMo
_chemical_formula_sum   'Mg6 Fe1 Mo1'
_cell_volume   150.65728240
_cell_formula_units_Z   1
loop_
 _symmetry_equiv_pos_site_id
 _symmetry_equiv_pos_as_xyz
  1  'x, y, z'
loop_
 _atom_site_type_symbol
 _atom_site_label
 _atom_site_symmetry_multiplicity
 _atom_site_fract_x
 _atom_site_fract_y
 _atom_site_fract_z
 _atom_site_occupancy
  Mg  Mg0  1  0.32997600  0.16733200  0.50000000  1
  Mg  Mg1  1  0.83266800  0.67002400  0.50000000  1
  Mg  Mg2  1  0.16212700  0.34162800  0.00000000  1
  Mg  Mg3  1  0.65837200  0.83787300  0.00000000  1
  Mg  Mg4  1  0.67715100  0.32284900  0.00000000  1
  Mg  Mg5  1  0.17676300  0.82323700  0.00000000  1
  Fe  Fe0  1  0.83267200  0.16732800  0.50000000  1
  Mo  Mo0  1  0.33027500  0.66972500  0.50000000  1
loop_
_geom_bond_atom_site_label_1
_geom_bond_atom_site_label_2
_geom_bond_distance
_geom_bond_site_symmetry_2
Mg0 Mg1 2.945057 1_445
Mg0 Mg1 2.976941 1_555
Mg0 Mg5 2.997712 1_546
Mg0 Mg5 2.997712 1_545
Mg0 Mg4 3.006952 1_555
Mg0 Mg4 3.006952 1_556
Mg0 Mg2 3.011122 1_555
Mg0 Mg2 3.011122 1_556
Mg0 Mo0 3.013655 1_545
Mg0 Mo0 3.040742 1_555
Mg1 Mg5 2.997712 1_656
Mg1 Mg5 2.997712 1_655
Mg1 Mg4 3.006952 1_555
Mg1 Mg4 3.006952 1_556
Mg1 Mg3 3.011122 1_555
Mg1 Mg3 3.011122 1_556
Mg1 Mo0 3.013655 1_655
Mg1 Mo0 3.040742 1_555
Mg2 Mg5 2.870625 1_555
Mg2 Mg4 2.878565 1_455
Mg2 Mg3 2.938762 1_555
Mg2 Mo0 2.945228 1_554
Mg2 Mo0 2.945228 1_555
Mg2 Mg3 2.983236 1_445
Mg2 Mg4 3.178947 1_555
Mg2 Mg5 3.185664 1_545
Mg3 Mg5 2.870625 1_555
Mg3 Mg4 2.878565 1_565
Mg3 Mo0 2.945228 1_555
Mg3 Mo0 2.945228 1_554
Mg3 Mg4 3.178947 1_555
Mg3 Mg5 3.185664 1_655
Mg4 Mg5 2.961002 1_545
Mg4 Mg5 2.961002 1_655
Mg5 Mo0 2.903559 1_555
Mg5 Mo0 2.903559 1_554
Fe0 Mg4 2.915461 1_555
Fe0 Mg4 2.915461 1_556
Fe0 Mg3 2.949252 1_546
Fe0 Mg3 2.949252 1_545
Fe0 Mg2 2.949252 1_656
Fe0 Mg2 2.949252 1_655
Fe0 Mo0 2.961107 1_655
Fe0 Mo0 2.961107 1_545
Fe0 Mg1 3.010863 1_545
Fe0 Mg0 3.010863 1_655
Fe0 Mg0 3.043533 1_555
Fe0 Mg1 3.043533 1_555
