# generated using pymatgen
data_VSi2
_symmetry_space_group_name_H-M   'P 1'
_cell_length_a   4.53480875
_cell_length_b   4.53479041
_cell_length_c   6.31890063
_cell_angle_alpha   90.00000000
_cell_angle_beta   90.00000000
_cell_angle_gamma   119.99978623
_symmetry_Int_Tables_number   1
_chemical_formula_structural   VSi2
_chemical_formula_sum   'V3 Si6'
_cell_volume   112.53543354
_cell_formula_units_Z   3
loop_
 _symmetry_equiv_pos_site_id
 _symmetry_equiv_pos_as_xyz
  1  'x, y, z'
loop_
 _atom_site_type_symbol
 _atom_site_label
 _atom_site_symmetry_multiplicity
 _atom_site_fract_x
 _atom_site_fract_y
 _atom_site_fract_z
 _atom_site_occupancy
  V  V0  1  0.00000000  0.50000000  0.16667077  1
  V  V1  1  0.50000000  0.50000000  0.83333769  1
  V  V2  1  0.50000000  0.00000000  0.49999833  1
  Si  Si0  1  0.83749814  0.67501355  0.50000428  1
  Si  Si1  1  0.16249609  0.83750102  0.83332905  1
  Si  Si2  1  0.67501804  0.83750565  0.16666228  1
  Si  Si3  1  0.16250186  0.32498645  0.50000428  1
  Si  Si4  1  0.83750391  0.16249898  0.83332905  1
  Si  Si5  1  0.32498196  0.16249435  0.16666228  1
loop_
_geom_bond_atom_site_label_1
_geom_bond_atom_site_label_2
_geom_bond_distance
_geom_bond_site_symmetry_2
Si0 Si1 2.462794 1_655
Si0 Si2 2.462831 1_555
Si0 V1 2.488798 1_555
Si0 V0 2.488831 1_655
Si0 Si3 2.552607 1_665
Si0 V2 2.601896 1_565
Si0 V2 2.601977 1_665
Si0 V2 2.650948 1_555
Si0 Si3 2.651500 1_555
Si0 Si3 2.651620 1_655
Si1 Si5 2.462827 1_566
Si1 V2 2.488795 1_565
Si1 V0 2.488845 1_556
Si1 Si4 2.552672 1_465
Si1 V1 2.601954 1_455
Si1 V1 2.601955 1_565
Si1 V1 2.650911 1_555
Si1 Si4 2.651510 1_455
Si1 Si4 2.651543 1_565
Si2 Si4 2.462827 1_564
Si2 V1 2.488764 1_554
Si2 V2 2.488838 1_565
Si2 Si5 2.552583 1_665
Si2 V0 2.601908 1_655
Si2 V0 2.601937 1_665
Si2 V0 2.650977 1_555
Si2 Si5 2.651549 1_555
Si2 Si5 2.651598 1_565
Si3 Si4 2.462794 1_455
Si3 Si5 2.462831 1_555
Si3 V1 2.488798 1_555
Si3 V0 2.488831 1_555
Si3 V2 2.601896 1_555
Si3 V2 2.601977 1_455
Si3 V2 2.650948 1_565
Si4 V2 2.488795 1_555
Si4 V0 2.488845 1_656
Si4 V1 2.601954 1_655
Si4 V1 2.601955 1_545
Si4 V1 2.650911 1_555
Si5 V1 2.488764 1_554
Si5 V2 2.488838 1_555
Si5 V0 2.601908 1_555
Si5 V0 2.601937 1_545
Si5 V0 2.650977 1_655
