# generated using pymatgen
data_LaZnCrCoO6
_symmetry_space_group_name_H-M   'P 1'
_cell_length_a   5.33005600
_cell_length_b   5.32546600
_cell_length_c   9.47359253
_cell_angle_alpha   56.03311871
_cell_angle_beta   90.00000000
_cell_angle_gamma   90.00000000
_symmetry_Int_Tables_number   1
_chemical_formula_structural   LaZnCrCoO6
_chemical_formula_sum   'La2 Zn2 Cr2 Co2 O12'
_cell_volume   223.02190610
_cell_formula_units_Z   2
loop_
 _symmetry_equiv_pos_site_id
 _symmetry_equiv_pos_as_xyz
  1  'x, y, z'
loop_
 _atom_site_type_symbol
 _atom_site_label
 _atom_site_symmetry_multiplicity
 _atom_site_fract_x
 _atom_site_fract_y
 _atom_site_fract_z
 _atom_site_occupancy
  La  La0  1  0.28399000  0.75284600  0.24891500  1
  La  La1  1  0.71601000  0.75284600  0.74891500  1
  Zn  Zn0  1  0.78307900  0.24335300  0.24737600  1
  Zn  Zn1  1  0.21692100  0.24335300  0.74737600  1
  Cr  Cr0  1  0.23737100  0.99610600  0.49554300  1
  Cr  Cr1  1  0.76262900  0.99610600  0.99554300  1
  Co  Co0  1  0.24912900  0.49040400  0.00195500  1
  Co  Co1  1  0.75087100  0.49040400  0.50195500  1
  O  O0  1  0.80685600  0.31689100  0.75424800  1
  O  O1  1  0.01684100  0.16168000  0.05440900  1
  O  O2  1  0.02459800  0.76731100  0.45382400  1
  O  O3  1  0.54874800  0.25905600  0.05555900  1
  O  O4  1  0.54726800  0.88426400  0.44259900  1
  O  O5  1  0.27080200  0.62808300  0.74557300  1
  O  O6  1  0.19314400  0.31689100  0.25424800  1
  O  O7  1  0.98315900  0.16168000  0.55440900  1
  O  O8  1  0.97540200  0.76731100  0.95382400  1
  O  O9  1  0.45125200  0.25905600  0.55555900  1
  O  O10  1  0.45273200  0.88426400  0.94259900  1
  O  O11  1  0.72919800  0.62808300  0.24557300  1
loop_
_geom_bond_atom_site_label_1
_geom_bond_atom_site_label_2
_geom_bond_distance
_geom_bond_site_symmetry_2
La0 O6 2.344369 1_555
La0 O1 2.383336 1_565
La0 O2 2.419276 1_555
La0 O11 2.469213 1_555
La0 O3 2.663869 1_565
La0 O4 2.694583 1_555
La0 O10 2.729543 1_554
La0 O9 2.759129 1_555
La1 O0 2.344369 1_555
La1 O7 2.383336 1_565
La1 O8 2.419276 1_555
La1 O5 2.469213 1_555
La1 O9 2.663869 1_565
La1 O10 2.694583 1_555
La1 O4 2.729543 1_555
La1 O3 2.759129 1_556
Cr0 O2 1.861472 1_555
Cr0 O7 1.863840 1_465
Cr0 O4 1.915329 1_555
Cr0 O6 1.958506 1_565
Cr0 O5 2.072700 1_555
Cr0 O9 2.115057 1_565
Cr1 O8 1.861472 1_555
Cr1 O1 1.863840 1_666
Cr1 O10 1.915329 1_555
Cr1 O0 1.958506 1_565
Cr1 O11 2.072700 1_556
Cr1 O3 2.115057 1_566
Co0 O3 1.904478 1_555
Co0 O8 1.939018 1_454
Co0 O1 1.967841 1_555
Co0 O6 2.046378 1_555
Co0 O5 2.111946 1_554
Co0 O10 2.139018 1_554
Co1 O9 1.904478 1_555
Co1 O2 1.939018 1_655
Co1 O7 1.967841 1_555
Co1 O0 2.046378 1_555
Co1 O11 2.111946 1_555
Co1 O4 2.139018 1_555
O0 Zn1 2.227835 1_655
O1 Zn0 2.443770 1_455
O2 Zn0 2.523652 1_465
O3 Zn0 2.167805 1_555
O4 Zn0 2.169138 1_565
O5 Zn1 2.059494 1_555
O6 Zn0 2.227835 1_455
O7 Zn1 2.443770 1_655
O8 Zn1 2.523652 1_665
O9 Zn1 2.167805 1_555
O10 Zn1 2.169138 1_565
O11 Zn0 2.059494 1_555
