# generated using pymatgen
data_NbCr3(AgS4)2
_symmetry_space_group_name_H-M   'P 1'
_cell_length_a   6.47371456
_cell_length_b   7.64234178
_cell_length_c   12.52183742
_cell_angle_alpha   82.24869694
_cell_angle_beta   85.82397060
_cell_angle_gamma   89.94461318
_symmetry_Int_Tables_number   1
_chemical_formula_structural   NbCr3(AgS4)2
_chemical_formula_sum   'Nb2 Cr6 Ag4 S16'
_cell_volume   612.19474034
_cell_formula_units_Z   2
loop_
 _symmetry_equiv_pos_site_id
 _symmetry_equiv_pos_as_xyz
  1  'x, y, z'
loop_
 _atom_site_type_symbol
 _atom_site_label
 _atom_site_symmetry_multiplicity
 _atom_site_fract_x
 _atom_site_fract_y
 _atom_site_fract_z
 _atom_site_occupancy
  Nb  Nb0  1  0.14750300  0.70592700  0.69963200  1
  Nb  Nb1  1  0.76421600  0.11300900  0.00010000  1
  Cr  Cr0  1  0.84698000  0.29872900  0.29864900  1
  Cr  Cr1  1  0.24730300  0.88411600  0.00565200  1
  Cr  Cr2  1  0.36218400  0.54998300  0.29207900  1
  Cr  Cr3  1  0.64568400  0.44646100  0.70208900  1
  Cr  Cr4  1  0.37121400  0.05346800  0.29808200  1
  Cr  Cr5  1  0.63341700  0.95073300  0.70532700  1
  Ag  Ag0  1  0.11669200  0.20159900  0.69992000  1
  Ag  Ag1  1  0.87122600  0.79547300  0.30546100  1
  Ag  Ag2  1  0.25497400  0.37540200  0.00304600  1
  Ag  Ag3  1  0.74305700  0.62128300  0.00314700  1
  S  S0  1  0.12279900  0.67475400  0.88593000  1
  S  S1  1  0.86862700  0.32847500  0.12159000  1
  S  S2  1  0.09971200  0.13310000  0.90295800  1
  S  S3  1  0.91731900  0.86029400  0.10164200  1
  S  S4  1  0.23731600  0.78618600  0.36128800  1
  S  S5  1  0.76627900  0.21381800  0.63015300  1
  S  S6  1  0.18395700  0.28916300  0.35204200  1
  S  S7  1  0.80934400  0.71655400  0.63813600  1
  S  S8  1  0.32296300  0.95987800  0.62519400  1
  S  S9  1  0.67749900  0.05295400  0.37122000  1
  S  S10  1  0.32693000  0.47470100  0.63268300  1
  S  S11  1  0.67008100  0.51584500  0.36404700  1
  S  S12  1  0.41162200  0.07442500  0.11424300  1
  S  S13  1  0.57345700  0.92389300  0.89113900  1
  S  S14  1  0.37404200  0.61753000  0.11320600  1
  S  S15  1  0.63360200  0.38224900  0.88134200  1
loop_
_geom_bond_atom_site_label_1
_geom_bond_atom_site_label_2
_geom_bond_distance
_geom_bond_site_symmetry_2
Nb0 S8 2.299511 1_555
Nb0 S0 2.306530 1_555
Nb0 S10 2.329913 1_555
Nb0 S7 2.370700 1_455
Nb1 S2 2.405382 1_654
Nb1 S3 2.417963 1_545
Nb1 S13 2.501244 1_544
Nb1 S1 2.512032 1_555
Nb1 S15 2.552361 1_554
Nb1 S12 2.598554 1_555
Cr0 S1 2.192196 1_555
Cr0 S9 2.226189 1_555
Cr0 S11 2.227450 1_555
Cr0 S6 2.325979 1_655
Cr1 S3 2.368351 1_455
Cr1 S2 2.388014 1_564
Cr1 S12 2.417216 1_565
Cr1 S13 2.459544 1_554
Cr1 S14 2.460750 1_555
Cr1 S0 2.506514 1_554
Cr2 S14 2.225378 1_555
Cr2 S4 2.231628 1_555
Cr2 S11 2.247299 1_555
Cr2 S6 2.311430 1_555
Cr3 S5 2.215590 1_555
Cr3 S15 2.227654 1_555
Cr3 S10 2.295595 1_555
Cr3 S7 2.336508 1_555
Cr4 S4 2.240011 1_545
Cr4 S9 2.243598 1_555
Cr4 S12 2.281714 1_555
Cr4 S6 2.318495 1_555
Cr5 S5 2.245713 1_565
Cr5 S8 2.307704 1_555
Cr5 S13 2.312184 1_555
Cr5 S7 2.338929 1_555
Ag0 S5 2.486785 1_455
Ag0 S10 2.506386 1_555
Ag0 S2 2.519993 1_555
Ag0 S8 2.520074 1_545
Ag1 S11 2.498794 1_555
Ag1 S4 2.517542 1_655
Ag1 S3 2.529118 1_555
Ag1 S9 2.530779 1_565
Ag2 S14 2.601369 1_555
Ag2 S2 2.612102 1_554
Ag2 S0 2.718561 1_554
Ag2 S12 2.755926 1_555
Ag2 S15 2.787100 1_554
Ag2 S1 2.811575 1_455
Ag3 S3 2.635257 1_555
Ag3 S15 2.660263 1_554
Ag3 S14 2.667754 1_555
Ag3 S1 2.672971 1_555
Ag3 S0 2.771176 1_654
Ag3 S13 2.804527 1_554
