# generated using pymatgen
data_Gd4Ga2O9
_symmetry_space_group_name_H-M   'P 1'
_cell_length_a   10.79361700
_cell_length_b   7.54837200
_cell_length_c   11.49917986
_cell_angle_alpha   71.87515194
_cell_angle_beta   90.00000000
_cell_angle_gamma   90.00000000
_symmetry_Int_Tables_number   1
_chemical_formula_structural   Gd4Ga2O9
_chemical_formula_sum   'Gd16 Ga8 O36'
_cell_volume   890.39942076
_cell_formula_units_Z   4
loop_
 _symmetry_equiv_pos_site_id
 _symmetry_equiv_pos_as_xyz
  1  'x, y, z'
loop_
 _atom_site_type_symbol
 _atom_site_label
 _atom_site_symmetry_multiplicity
 _atom_site_fract_x
 _atom_site_fract_y
 _atom_site_fract_z
 _atom_site_occupancy
  Gd  Gd0  1  0.62865000  0.90740400  0.93972600  1
  Gd  Gd1  1  0.87135000  0.90740400  0.43972600  1
  Gd  Gd2  1  0.40440100  0.77468300  0.69711200  1
  Gd  Gd3  1  0.88757700  0.73598300  0.78257400  1
  Gd  Gd4  1  0.09559900  0.77468300  0.19711200  1
  Gd  Gd5  1  0.11597300  0.58320300  0.59078000  1
  Gd  Gd6  1  0.61242300  0.73598300  0.28257400  1
  Gd  Gd7  1  0.61597300  0.41679700  0.90922000  1
  Gd  Gd8  1  0.38402700  0.58320300  0.09078000  1
  Gd  Gd9  1  0.38757700  0.26401700  0.71742600  1
  Gd  Gd10  1  0.88402700  0.41679700  0.40922000  1
  Gd  Gd11  1  0.90440100  0.22531700  0.80288800  1
  Gd  Gd12  1  0.11242300  0.26401700  0.21742600  1
  Gd  Gd13  1  0.59559900  0.22531700  0.30288800  1
  Gd  Gd14  1  0.12865000  0.09259600  0.56027400  1
  Gd  Gd15  1  0.37135000  0.09259600  0.06027400  1
  Ga  Ga0  1  0.17484800  0.94838100  0.87699000  1
  Ga  Ga1  1  0.32515200  0.94838100  0.37699000  1
  Ga  Ga2  1  0.67982200  0.58700400  0.61174100  1
  Ga  Ga3  1  0.17982200  0.41299600  0.88825900  1
  Ga  Ga4  1  0.82017800  0.58700400  0.11174100  1
  Ga  Ga5  1  0.32017800  0.41299600  0.38825900  1
  Ga  Ga6  1  0.67484800  0.05161900  0.62301000  1
  Ga  Ga7  1  0.82515200  0.05161900  0.12301000  1
  O  O0  1  0.00688800  0.93598300  0.85534500  1
  O  O1  1  0.25964900  0.97800300  0.73012400  1
  O  O2  1  0.00251100  0.83351900  0.60763700  1
  O  O3  1  0.73696500  0.82163100  0.61476400  1
  O  O4  1  0.49437500  0.68811800  0.89462200  1
  O  O5  1  0.49311200  0.93598300  0.35534500  1
  O  O6  1  0.24035100  0.97800300  0.23012400  1
  O  O7  1  0.76084200  0.61893200  0.95595800  1
  O  O8  1  0.26410300  0.81262700  0.52709900  1
  O  O9  1  0.27226600  0.53408600  0.75049200  1
  O  O10  1  0.49748900  0.83351900  0.10763700  1
  O  O11  1  0.76303500  0.82163100  0.11476400  1
  O  O12  1  0.02322100  0.47596300  0.82419600  1
  O  O13  1  0.00562500  0.68811800  0.39462200  1
  O  O14  1  0.52322100  0.52403700  0.67580400  1
  O  O15  1  0.73915800  0.61893200  0.45595800  1
  O  O16  1  0.77226600  0.46591400  0.74950800  1
  O  O17  1  0.23589700  0.81262700  0.02709900  1
  O  O18  1  0.76410300  0.18737300  0.97290100  1
  O  O19  1  0.22773400  0.53408600  0.25049200  1
  O  O20  1  0.26084200  0.38106800  0.54404200  1
  O  O21  1  0.47677900  0.47596300  0.32419600  1
  O  O22  1  0.99437500  0.31188200  0.60537800  1
  O  O23  1  0.97677900  0.52403700  0.17580400  1
  O  O24  1  0.23696500  0.17836900  0.88523600  1
  O  O25  1  0.50251100  0.16648100  0.89236300  1
  O  O26  1  0.72773400  0.46591400  0.24950800  1
  O  O27  1  0.73589700  0.18737300  0.47290100  1
  O  O28  1  0.23915800  0.38106800  0.04404200  1
  O  O29  1  0.75964900  0.02199700  0.76987600  1
  O  O30  1  0.50688800  0.06401700  0.64465500  1
  O  O31  1  0.50562500  0.31188200  0.10537800  1
  O  O32  1  0.26303500  0.17836900  0.38523600  1
  O  O33  1  0.99748900  0.16648100  0.39236300  1
  O  O34  1  0.74035100  0.02199700  0.26987600  1
  O  O35  1  0.99311200  0.06401700  0.14465500  1
loop_
_geom_bond_atom_site_label_1
_geom_bond_atom_site_label_2
_geom_bond_distance
_geom_bond_site_symmetry_2
Gd0 O25 2.304784 1_565
Gd0 O10 2.318059 1_556
Gd0 O29 2.347568 1_565
Gd0 O4 2.375610 1_555
Gd0 O11 2.400764 1_556
Gd0 O7 2.561110 1_555
Gd0 O18 2.692719 1_565
Gd1 O33 2.304784 1_565
Gd1 O2 2.318059 1_655
Gd1 O34 2.347568 1_565
Gd1 O13 2.375610 1_655
Gd1 O3 2.400764 1_555
Gd1 O15 2.561110 1_555
Gd1 O27 2.692719 1_565
Gd2 O9 2.239544 1_555
Gd2 O1 2.302843 1_555
Gd2 O30 2.353242 1_565
Gd2 O14 2.360681 1_555
Gd2 O4 2.367509 1_555
Gd2 O8 2.418447 1_555
Gd3 O2 2.281713 1_655
Gd3 O0 2.328902 1_655
Gd3 O7 2.351807 1_555
Gd3 O12 2.374966 1_655
Gd3 O3 2.451155 1_555
Gd3 O16 2.516296 1_555
Gd3 O29 2.528405 1_565
Gd4 O19 2.239544 1_555
Gd4 O6 2.302843 1_555
Gd4 O35 2.353242 1_465
Gd4 O23 2.360681 1_455
Gd4 O13 2.367509 1_555
Gd4 O17 2.418447 1_555
Gd5 O8 2.302743 1_555
Gd5 O2 2.309846 1_555
Gd5 O20 2.360535 1_555
Gd5 O22 2.394018 1_455
Gd5 O9 2.435695 1_555
Gd5 O13 2.454046 1_555
Gd5 O12 2.740448 1_555
Gd6 O10 2.281713 1_555
Gd6 O5 2.328902 1_555
Gd6 O15 2.351807 1_555
Gd6 O21 2.374966 1_555
Gd6 O11 2.451155 1_555
Gd6 O26 2.516296 1_555
Gd6 O34 2.528405 1_565
Gd7 O18 2.302743 1_555
Gd7 O25 2.309846 1_555
Gd7 O7 2.360535 1_555
Gd7 O4 2.394018 1_555
Gd7 O16 2.435695 1_555
Gd7 O31 2.454046 1_556
Gd7 O14 2.740448 1_555
Gd8 O17 2.302743 1_555
Gd8 O10 2.309846 1_555
Gd8 O28 2.360535 1_555
Gd8 O31 2.394018 1_555
Gd8 O19 2.435695 1_555
Gd8 O4 2.454046 1_554
Gd8 O21 2.740448 1_555
Gd9 O25 2.281713 1_555
Gd9 O30 2.328902 1_555
Gd9 O20 2.351807 1_555
Gd9 O14 2.374966 1_555
Gd9 O24 2.451155 1_555
Gd9 O9 2.516296 1_555
Gd9 O1 2.528405 1_545
Gd10 O27 2.302743 1_555
Gd10 O33 2.309846 1_555
Gd10 O15 2.360535 1_555
Gd10 O13 2.394018 1_655
Gd10 O26 2.435695 1_555
Gd10 O22 2.454046 1_555
Gd10 O23 2.740448 1_555
Gd11 O16 2.239544 1_555
Gd11 O29 2.302843 1_555
Gd11 O0 2.353242 1_645
Gd11 O12 2.360681 1_655
Gd11 O22 2.367509 1_555
Gd11 O18 2.418447 1_555
Gd12 O33 2.281713 1_455
Gd12 O35 2.328902 1_455
Gd12 O28 2.351807 1_555
Gd12 O23 2.374966 1_455
Gd12 O32 2.451155 1_555
Gd12 O19 2.516296 1_555
Gd12 O6 2.528405 1_545
Gd13 O26 2.239544 1_555
Gd13 O34 2.302843 1_555
Gd13 O5 2.353242 1_545
Gd13 O21 2.360681 1_555
Gd13 O31 2.367509 1_555
Gd13 O27 2.418447 1_555
Gd14 O2 2.304784 1_545
Gd14 O33 2.318059 1_455
Gd14 O1 2.347568 1_545
Gd14 O22 2.375610 1_455
Gd14 O32 2.400764 1_555
Gd14 O20 2.561110 1_555
Gd14 O8 2.692719 1_545
Gd15 O10 2.304784 1_545
Gd15 O25 2.318059 1_554
Gd15 O6 2.347568 1_545
Gd15 O31 2.375610 1_555
Gd15 O24 2.400764 1_554
Gd15 O28 2.561110 1_555
Gd15 O17 2.692719 1_545
Ga0 O17 1.833923 1_556
Ga0 O0 1.836244 1_555
Ga0 O1 1.872169 1_555
Ga0 O24 1.890702 1_565
Ga1 O8 1.833923 1_555
Ga1 O5 1.836244 1_555
Ga1 O6 1.872169 1_555
Ga1 O32 1.890702 1_565
Ga2 O14 1.846031 1_555
Ga2 O15 1.846260 1_555
Ga2 O16 1.854686 1_555
Ga2 O3 1.885883 1_555
Ga3 O12 1.846031 1_555
Ga3 O28 1.846260 1_556
Ga3 O9 1.854686 1_555
Ga3 O24 1.885883 1_555
Ga4 O23 1.846031 1_555
Ga4 O7 1.846260 1_554
Ga4 O26 1.854686 1_555
Ga4 O11 1.885883 1_555
Ga5 O21 1.846031 1_555
Ga5 O20 1.846260 1_555
Ga5 O19 1.854686 1_555
Ga5 O32 1.885883 1_555
Ga6 O27 1.833923 1_555
Ga6 O30 1.836244 1_555
Ga6 O29 1.872169 1_555
Ga6 O3 1.890702 1_545
Ga7 O18 1.833923 1_554
Ga7 O35 1.836244 1_555
Ga7 O34 1.872169 1_555
Ga7 O11 1.890702 1_545
