# generated using pymatgen
data_KMg30WO32
_symmetry_space_group_name_H-M   'P 1'
_cell_length_a   8.61819300
_cell_length_b   8.61819300
_cell_length_c   8.61104500
_cell_angle_alpha   90.00000000
_cell_angle_beta   90.00000000
_cell_angle_gamma   90.00000000
_symmetry_Int_Tables_number   1
_chemical_formula_structural   KMg30WO32
_chemical_formula_sum   'K1 Mg30 W1 O32'
_cell_volume   639.57030309
_cell_formula_units_Z   1
loop_
 _symmetry_equiv_pos_site_id
 _symmetry_equiv_pos_as_xyz
  1  'x, y, z'
loop_
 _atom_site_type_symbol
 _atom_site_label
 _atom_site_symmetry_multiplicity
 _atom_site_fract_x
 _atom_site_fract_y
 _atom_site_fract_z
 _atom_site_occupancy
  K  K0  1  0.00000000  0.00000000  0.00000000  1
  Mg  Mg0  1  0.50000000  0.00000000  0.00000000  1
  Mg  Mg1  1  0.00000000  0.50000000  0.00000000  1
  Mg  Mg2  1  0.00000000  0.00000000  0.50000000  1
  Mg  Mg3  1  0.50000000  0.00000000  0.50000000  1
  Mg  Mg4  1  0.00000000  0.50000000  0.50000000  1
  Mg  Mg5  1  0.50000000  0.50000000  0.50000000  1
  Mg  Mg6  1  0.24610200  0.24610200  0.00000000  1
  Mg  Mg7  1  0.75389800  0.24610200  0.00000000  1
  Mg  Mg8  1  0.24610200  0.75389800  0.00000000  1
  Mg  Mg9  1  0.75389800  0.75389800  0.00000000  1
  Mg  Mg10  1  0.24907200  0.24907200  0.50000000  1
  Mg  Mg11  1  0.75092800  0.24907200  0.50000000  1
  Mg  Mg12  1  0.24907200  0.75092800  0.50000000  1
  Mg  Mg13  1  0.75092800  0.75092800  0.50000000  1
  Mg  Mg14  1  0.25044500  0.00000000  0.25194600  1
  Mg  Mg15  1  0.74955500  0.00000000  0.25194600  1
  Mg  Mg16  1  0.24475200  0.50000000  0.25410000  1
  Mg  Mg17  1  0.75524800  0.50000000  0.25410000  1
  Mg  Mg18  1  0.25044500  0.00000000  0.74805400  1
  Mg  Mg19  1  0.74955500  0.00000000  0.74805400  1
  Mg  Mg20  1  0.24475200  0.50000000  0.74590000  1
  Mg  Mg21  1  0.75524800  0.50000000  0.74590000  1
  Mg  Mg22  1  0.00000000  0.25044500  0.25194600  1
  Mg  Mg23  1  0.50000000  0.24475200  0.25410000  1
  Mg  Mg24  1  0.00000000  0.74955500  0.25194600  1
  Mg  Mg25  1  0.50000000  0.75524800  0.25410000  1
  Mg  Mg26  1  0.00000000  0.25044500  0.74805400  1
  Mg  Mg27  1  0.50000000  0.24475200  0.74590000  1
  Mg  Mg28  1  0.00000000  0.74955500  0.74805400  1
  Mg  Mg29  1  0.50000000  0.75524800  0.74590000  1
  W  W0  1  0.50000000  0.50000000  0.00000000  1
  O  O0  1  0.00000000  0.00000000  0.27364900  1
  O  O1  1  0.50000000  0.00000000  0.25465900  1
  O  O2  1  0.00000000  0.50000000  0.25465900  1
  O  O3  1  0.50000000  0.50000000  0.25388700  1
  O  O4  1  0.00000000  0.00000000  0.72635100  1
  O  O5  1  0.50000000  0.00000000  0.74534100  1
  O  O6  1  0.00000000  0.50000000  0.74534100  1
  O  O7  1  0.50000000  0.50000000  0.74611300  1
  O  O8  1  0.25092000  0.25092000  0.24917000  1
  O  O9  1  0.74908000  0.25092000  0.24917000  1
  O  O10  1  0.25092000  0.74908000  0.24917000  1
  O  O11  1  0.74908000  0.74908000  0.24917000  1
  O  O12  1  0.25092000  0.25092000  0.75083000  1
  O  O13  1  0.74908000  0.25092000  0.75083000  1
  O  O14  1  0.25092000  0.74908000  0.75083000  1
  O  O15  1  0.74908000  0.74908000  0.75083000  1
  O  O16  1  0.27356400  0.00000000  0.00000000  1
  O  O17  1  0.72643600  0.00000000  0.00000000  1
  O  O18  1  0.24894600  0.50000000  0.00000000  1
  O  O19  1  0.75105400  0.50000000  0.00000000  1
  O  O20  1  0.25499300  0.00000000  0.50000000  1
  O  O21  1  0.74500700  0.00000000  0.50000000  1
  O  O22  1  0.25202800  0.50000000  0.50000000  1
  O  O23  1  0.74797200  0.50000000  0.50000000  1
  O  O24  1  0.00000000  0.27356400  0.00000000  1
  O  O25  1  0.50000000  0.24894600  0.00000000  1
  O  O26  1  0.00000000  0.72643600  0.00000000  1
  O  O27  1  0.50000000  0.75105400  0.00000000  1
  O  O28  1  0.00000000  0.25499300  0.50000000  1
  O  O29  1  0.50000000  0.25202800  0.50000000  1
  O  O30  1  0.00000000  0.74500700  0.50000000  1
  O  O31  1  0.50000000  0.74797200  0.50000000  1
loop_
_geom_bond_atom_site_label_1
_geom_bond_atom_site_label_2
_geom_bond_distance
_geom_bond_site_symmetry_2
K0 O0 2.356404 1_555
K0 O4 2.356404 1_554
K0 O16 2.357627 1_555
K0 O24 2.357627 1_555
K0 O26 2.357627 1_545
K0 O17 2.357627 1_455
Mg0 O17 1.951469 1_555
Mg0 O16 1.951469 1_555
Mg0 O25 2.145465 1_555
Mg0 O27 2.145465 1_545
Mg0 O5 2.192880 1_554
Mg0 O1 2.192880 1_555
Mg1 O26 1.951469 1_555
Mg1 O24 1.951469 1_555
Mg1 O19 2.145465 1_455
Mg1 O18 2.145465 1_555
Mg1 O6 2.192880 1_554
Mg1 O2 2.192880 1_555
Mg2 O4 1.949119 1_555
Mg2 O0 1.949119 1_555
Mg2 O30 2.197579 1_545
Mg2 O21 2.197579 1_455
Mg2 O20 2.197579 1_555
Mg2 O28 2.197579 1_555
Mg3 O21 2.111518 1_555
Mg3 O20 2.111518 1_555
Mg3 O1 2.112642 1_555
Mg3 O5 2.112642 1_555
Mg3 O29 2.172026 1_555
Mg3 O31 2.172026 1_545
Mg4 O30 2.111518 1_555
Mg4 O28 2.111518 1_555
Mg4 O2 2.112642 1_555
Mg4 O6 2.112642 1_555
Mg4 O22 2.172026 1_555
Mg4 O23 2.172026 1_455
Mg5 O3 2.119290 1_555
Mg5 O7 2.119290 1_555
Mg5 O31 2.137071 1_555
Mg5 O23 2.137071 1_555
Mg5 O29 2.137071 1_555
Mg5 O22 2.137071 1_555
Mg6 O24 2.134119 1_555
Mg6 O16 2.134119 1_555
Mg6 O8 2.146417 1_555
Mg6 O12 2.146417 1_554
Mg6 O25 2.188279 1_555
Mg6 O18 2.188279 1_555
Mg7 O17 2.134119 1_555
Mg7 O24 2.134119 1_655
Mg7 O9 2.146417 1_555
Mg7 O13 2.146417 1_554
Mg7 O25 2.188279 1_555
Mg7 O19 2.188279 1_555
Mg8 O26 2.134119 1_555
Mg8 O16 2.134119 1_565
Mg8 O14 2.146417 1_554
Mg8 O10 2.146417 1_555
Mg8 O18 2.188279 1_555
Mg8 O27 2.188279 1_555
Mg9 O17 2.134119 1_565
Mg9 O26 2.134119 1_655
Mg9 O15 2.146417 1_554
Mg9 O11 2.146417 1_555
Mg9 O19 2.188279 1_555
Mg9 O27 2.188279 1_555
Mg10 O20 2.147157 1_555
Mg10 O28 2.147157 1_555
Mg10 O12 2.160026 1_555
Mg10 O8 2.160026 1_555
Mg10 O29 2.162696 1_555
Mg10 O22 2.162696 1_555
Mg11 O28 2.147157 1_655
Mg11 O21 2.147157 1_555
Mg11 O9 2.160026 1_555
Mg11 O13 2.160026 1_555
Mg11 O23 2.162696 1_555
Mg11 O29 2.162696 1_555
Mg12 O20 2.147157 1_565
Mg12 O30 2.147157 1_555
Mg12 O14 2.160026 1_555
Mg12 O10 2.160026 1_555
Mg12 O31 2.162696 1_555
Mg12 O22 2.162696 1_555
Mg13 O21 2.147157 1_565
Mg13 O30 2.147157 1_655
Mg13 O11 2.160026 1_555
Mg13 O15 2.160026 1_555
Mg13 O23 2.162696 1_555
Mg13 O31 2.162696 1_555
Mg14 O20 2.136364 1_555
Mg14 O1 2.150840 1_555
Mg14 O8 2.162613 1_555
Mg14 O10 2.162613 1_545
Mg14 O0 2.166459 1_555
Mg14 O16 2.178648 1_555
Mg15 O21 2.136364 1_555
Mg15 O1 2.150840 1_555
Mg15 O9 2.162613 1_555
Mg15 O11 2.162613 1_545
Mg15 O0 2.166459 1_655
Mg15 O17 2.178648 1_555
Mg16 O2 2.109325 1_555
Mg16 O22 2.118384 1_555
Mg16 O10 2.147697 1_555
Mg16 O8 2.147697 1_555
Mg16 O18 2.188365 1_555
Mg16 O3 2.199777 1_555
Mg17 O2 2.109325 1_655
Mg17 O23 2.118384 1_555
Mg17 O11 2.147697 1_555
Mg17 O9 2.147697 1_555
Mg17 O19 2.188365 1_555
Mg17 O3 2.199777 1_555
Mg18 O20 2.136364 1_555
Mg18 O5 2.150840 1_555
Mg18 O12 2.162613 1_555
Mg18 O14 2.162613 1_545
Mg18 O4 2.166459 1_555
Mg18 O16 2.178648 1_556
Mg19 O21 2.136364 1_555
Mg19 O5 2.150840 1_555
Mg19 O13 2.162613 1_555
Mg19 O15 2.162613 1_545
Mg19 O4 2.166459 1_655
Mg19 O17 2.178648 1_556
Mg20 O6 2.109325 1_555
Mg20 O22 2.118384 1_555
Mg20 O14 2.147697 1_555
Mg20 O12 2.147697 1_555
Mg20 O18 2.188365 1_556
Mg20 O7 2.199777 1_555
Mg21 O6 2.109325 1_655
Mg21 O23 2.118384 1_555
Mg21 O15 2.147697 1_555
Mg21 O13 2.147697 1_555
Mg21 O19 2.188365 1_556
Mg21 O7 2.199777 1_555
Mg22 O28 2.136364 1_555
Mg22 O2 2.150840 1_555
Mg22 O8 2.162613 1_555
Mg22 O9 2.162613 1_455
Mg22 O0 2.166459 1_555
Mg22 O24 2.178648 1_555
Mg23 O1 2.109325 1_555
Mg23 O29 2.118384 1_555
Mg23 O9 2.147697 1_555
Mg23 O8 2.147697 1_555
Mg23 O25 2.188365 1_555
Mg23 O3 2.199777 1_555
Mg24 O30 2.136364 1_555
Mg24 O2 2.150840 1_555
Mg24 O10 2.162613 1_555
Mg24 O11 2.162613 1_455
Mg24 O0 2.166459 1_565
Mg24 O26 2.178648 1_555
Mg25 O1 2.109325 1_565
Mg25 O31 2.118384 1_555
Mg25 O11 2.147697 1_555
Mg25 O10 2.147697 1_555
Mg25 O27 2.188365 1_555
Mg25 O3 2.199777 1_555
Mg26 O28 2.136364 1_555
Mg26 O6 2.150840 1_555
Mg26 O12 2.162613 1_555
Mg26 O13 2.162613 1_455
Mg26 O4 2.166459 1_555
Mg26 O24 2.178648 1_556
Mg27 O5 2.109325 1_555
Mg27 O29 2.118384 1_555
Mg27 O13 2.147697 1_555
Mg27 O12 2.147697 1_555
Mg27 O25 2.188365 1_556
Mg27 O7 2.199777 1_555
Mg28 O30 2.136364 1_555
Mg28 O6 2.150840 1_555
Mg28 O14 2.162613 1_555
Mg28 O15 2.162613 1_455
Mg28 O4 2.166459 1_565
Mg28 O26 2.178648 1_556
Mg29 O5 2.109325 1_565
Mg29 O31 2.118384 1_555
Mg29 O15 2.147697 1_555
Mg29 O14 2.147697 1_555
Mg29 O27 2.188365 1_556
Mg29 O7 2.199777 1_555
O3 W0 2.186232 1_555
O7 W0 2.186232 1_556
O18 W0 2.163632 1_555
O19 W0 2.163632 1_555
O25 W0 2.163632 1_555
O27 W0 2.163632 1_555
