# generated using pymatgen
data_Ce2Co17
_symmetry_space_group_name_H-M   'P 1'
_cell_length_a   6.30282351
_cell_length_b   6.30282351
_cell_length_c   6.30282337
_cell_angle_alpha   83.08561440
_cell_angle_beta   83.08561440
_cell_angle_gamma   83.08561713
_symmetry_Int_Tables_number   1
_chemical_formula_structural   Ce2Co17
_chemical_formula_sum   'Ce2 Co17'
_cell_volume   245.32598017
_cell_formula_units_Z   1
loop_
 _symmetry_equiv_pos_site_id
 _symmetry_equiv_pos_as_xyz
  1  'x, y, z'
loop_
 _atom_site_type_symbol
 _atom_site_label
 _atom_site_symmetry_multiplicity
 _atom_site_fract_x
 _atom_site_fract_y
 _atom_site_fract_z
 _atom_site_occupancy
  Ce  Ce0  1  0.65508100  0.65508100  0.65508100  1
  Ce  Ce1  1  0.34491900  0.34491900  0.34491900  1
  Co  Co0  1  0.00000000  0.00000000  0.50000000  1
  Co  Co1  1  0.00000000  0.50000000  0.00000000  1
  Co  Co2  1  0.50000000  0.00000000  0.00000000  1
  Co  Co3  1  0.28499800  0.71500200  0.00000000  1
  Co  Co4  1  0.71500200  0.00000000  0.28499800  1
  Co  Co5  1  0.00000000  0.28499800  0.71500200  1
  Co  Co6  1  0.28499800  0.00000000  0.71500200  1
  Co  Co7  1  0.00000000  0.71500200  0.28499800  1
  Co  Co8  1  0.71500200  0.28499800  0.00000000  1
  Co  Co9  1  0.34552200  0.34552200  0.85347200  1
  Co  Co10  1  0.34552200  0.85347200  0.34552200  1
  Co  Co11  1  0.85347200  0.34552200  0.34552200  1
  Co  Co12  1  0.65447800  0.65447800  0.14652800  1
  Co  Co13  1  0.65447800  0.14652800  0.65447800  1
  Co  Co14  1  0.14652800  0.65447800  0.65447800  1
  Co  Co15  1  0.90259000  0.90259000  0.90259000  1
  Co  Co16  1  0.09741000  0.09741000  0.09741000  1
loop_
_geom_bond_atom_site_label_1
_geom_bond_atom_site_label_2
_geom_bond_distance
_geom_bond_site_symmetry_2
Ce0 Co9 2.986445 1_555
Ce0 Co10 2.986445 1_555
Ce0 Co11 2.986445 1_555
Ce0 Co15 3.009766 1_555
Ce0 Co7 3.012353 1_655
Ce0 Co4 3.012353 1_565
Ce0 Co3 3.012353 1_556
Ce0 Co8 3.012353 1_556
Ce0 Co6 3.012353 1_565
Ce0 Co5 3.012353 1_655
Ce0 Co12 3.096594 1_556
Ce0 Co13 3.096594 1_565
Ce0 Co14 3.096594 1_655
Ce0 Co12 3.206240 1_555
Ce0 Co13 3.206240 1_555
Ce0 Co14 3.206240 1_555
Ce0 Co0 3.243810 1_665
Ce0 Co2 3.243811 1_566
Ce0 Co1 3.243811 1_656
Ce1 Co12 2.986445 1_555
Ce1 Co14 2.986445 1_555
Ce1 Co13 2.986445 1_555
Ce1 Co16 3.009766 1_555
Ce1 Co6 3.012353 1_555
Ce1 Co5 3.012353 1_555
Ce1 Co3 3.012353 1_555
Ce1 Co8 3.012353 1_555
Ce1 Co7 3.012353 1_555
Ce1 Co4 3.012353 1_555
Ce1 Co9 3.096594 1_554
Ce1 Co10 3.096594 1_545
Ce1 Co11 3.096594 1_455
Ce1 Co9 3.206240 1_555
Ce1 Co10 3.206240 1_555
Ce1 Co11 3.206240 1_555
Ce1 Co0 3.243810 1_555
Ce1 Co2 3.243811 1_555
Ce1 Co1 3.243811 1_555
Co0 Co4 2.376784 1_455
Co0 Co6 2.376784 1_555
Co0 Co5 2.376784 1_555
Co0 Co7 2.376784 1_545
Co0 Co13 2.401103 1_455
Co0 Co10 2.401103 1_545
Co0 Co11 2.401103 1_455
Co0 Co14 2.401103 1_545
Co0 Co15 2.555998 1_445
Co0 Co16 2.555998 1_555
Co1 Co3 2.376783 1_555
Co1 Co8 2.376783 1_455
Co1 Co7 2.376784 1_555
Co1 Co5 2.376784 1_554
Co1 Co14 2.401103 1_554
Co1 Co11 2.401103 1_455
Co1 Co12 2.401103 1_455
Co1 Co9 2.401103 1_554
Co1 Co16 2.555998 1_555
Co1 Co15 2.555998 1_454
Co2 Co3 2.376783 1_545
Co2 Co8 2.376783 1_555
Co2 Co6 2.376784 1_554
Co2 Co4 2.376784 1_555
Co2 Co9 2.401103 1_554
Co3 Co6 2.382528 1_564
Co3 Co7 2.382528 1_555
Co3 Co9 2.576959 1_554
Co4 Co8 2.382528 1_555
Co4 Co7 2.382528 1_645
Co5 Co8 2.382528 1_456
Co5 Co6 2.382528 1_555
Co5 Co9 2.527386 1_555
Co6 Co9 2.527386 1_555
Co8 Co9 2.576959 1_554
Co10 Co2 2.401103 1_565
Co10 Co14 2.478058 1_555
Co10 Co12 2.478058 1_555
Co10 Co3 2.527386 1_555
Co10 Co7 2.527386 1_555
Co10 Co6 2.576959 1_565
Co10 Co4 2.576959 1_565
Co10 Co16 2.585708 1_565
Co11 Co13 2.478058 1_555
Co11 Co12 2.478058 1_555
Co11 Co8 2.527386 1_555
Co11 Co4 2.527386 1_555
Co11 Co5 2.576959 1_655
Co11 Co7 2.576959 1_655
Co11 Co16 2.585708 1_655
Co12 Co2 2.401103 1_565
Co12 Co4 2.527386 1_565
Co12 Co7 2.527386 1_655
Co12 Co3 2.576959 1_555
Co12 Co8 2.576959 1_555
Co12 Co15 2.585708 1_554
Co13 Co2 2.401103 1_556
Co13 Co9 2.478058 1_555
Co13 Co8 2.527386 1_556
Co13 Co5 2.527386 1_655
Co13 Co4 2.576959 1_555
Co13 Co6 2.576959 1_555
Co13 Co15 2.585708 1_545
Co14 Co9 2.478058 1_555
Co14 Co3 2.527386 1_556
Co14 Co6 2.527386 1_565
Co14 Co7 2.576959 1_555
Co14 Co5 2.576959 1_555
Co14 Co15 2.585708 1_455
Co15 Co16 2.369056 1_666
Co15 Co2 2.555998 1_566
Co15 Co6 2.660742 1_665
Co15 Co4 2.660742 1_566
Co15 Co7 2.660742 1_656
Co15 Co5 2.660742 1_665
Co15 Co3 2.660742 1_656
Co15 Co8 2.660742 1_566
Co16 Co2 2.555998 1_555
Co16 Co9 2.585708 1_554
Co16 Co4 2.660742 1_455
Co16 Co5 2.660742 1_554
Co16 Co7 2.660742 1_545
Co16 Co6 2.660742 1_554
Co16 Co8 2.660742 1_455
Co16 Co3 2.660742 1_545
