# generated using pymatgen
data_Nd3(Al3Ru)4
_symmetry_space_group_name_H-M   'P 1'
_cell_length_a   8.84932084
_cell_length_b   8.84933502
_cell_length_c   9.64182369
_cell_angle_alpha   90.00003077
_cell_angle_beta   90.00001162
_cell_angle_gamma   119.99975887
_symmetry_Int_Tables_number   1
_chemical_formula_structural   Nd3(Al3Ru)4
_chemical_formula_sum   'Nd6 Al24 Ru8'
_cell_volume   653.90017032
_cell_formula_units_Z   2
loop_
 _symmetry_equiv_pos_site_id
 _symmetry_equiv_pos_as_xyz
  1  'x, y, z'
loop_
 _atom_site_type_symbol
 _atom_site_label
 _atom_site_symmetry_multiplicity
 _atom_site_fract_x
 _atom_site_fract_y
 _atom_site_fract_z
 _atom_site_occupancy
  Nd  Nd0  1  0.19297354  0.38595219  0.25001886  1
  Nd  Nd1  1  0.80702217  0.61403548  0.74998151  1
  Nd  Nd2  1  0.61404862  0.80702672  0.25002152  1
  Nd  Nd3  1  0.38596900  0.19298390  0.74998059  1
  Nd  Nd4  1  0.19297588  0.80702241  0.25001918  1
  Nd  Nd5  1  0.80701803  0.19298759  0.74998169  1
  Al  Al0  1  0.33333429  0.66666215  0.00276497  1
  Al  Al1  1  0.66666535  0.33332980  0.99722632  1
  Al  Al2  1  0.66666637  0.33333344  0.50276976  1
  Al  Al3  1  0.33333136  0.66665825  0.49723228  1
  Al  Al4  1  0.16245323  0.32490706  0.57525974  1
  Al  Al5  1  0.83754647  0.67509744  0.42476014  1
  Al  Al6  1  0.67508480  0.83754615  0.57526577  1
  Al  Al7  1  0.83754010  0.67509220  0.07525156  1
  Al  Al8  1  0.32490849  0.16245630  0.42475752  1
  Al  Al9  1  0.16245980  0.32491196  0.92473141  1
  Al  Al10  1  0.16245969  0.83754634  0.57526158  1
  Al  Al11  1  0.32490688  0.16245545  0.07524956  1
  Al  Al12  1  0.83754487  0.16245437  0.42475969  1
  Al  Al13  1  0.67508574  0.83754755  0.92472884  1
  Al  Al14  1  0.83754568  0.16245636  0.07524824  1
  Al  Al15  1  0.16245984  0.83754543  0.92473208  1
  Al  Al16  1  0.56256413  0.12512762  0.25001027  1
  Al  Al17  1  0.43743838  0.87487121  0.74998661  1
  Al  Al18  1  0.87486270  0.43743212  0.25001244  1
  Al  Al19  1  0.12513806  0.56256496  0.74998859  1
  Al  Al20  1  0.56255922  0.43743463  0.25001226  1
  Al  Al21  1  0.43743869  0.56255993  0.74998834  1
  Al  Al22  1  0.00000037  -0.00000165  0.25000401  1
  Al  Al23  1  0.00000024  0.00000585  0.74999663  1
  Ru  Ru0  1  0.50000956  0.00001839  -0.00001617  1
  Ru  Ru1  1  -0.00001911  0.49999183  -0.00001619  1
  Ru  Ru2  1  0.50000875  0.00001696  0.50001232  1
  Ru  Ru3  1  0.50001185  0.49998914  -0.00001429  1
  Ru  Ru4  1  -0.00002008  0.49999115  0.50001676  1
  Ru  Ru5  1  0.50001166  0.49998907  0.50001489  1
  Ru  Ru6  1  -0.00000232  0.00000035  -0.00000726  1
  Ru  Ru7  1  -0.00000231  -0.00000010  0.50000798  1
loop_
_geom_bond_atom_site_label_1
_geom_bond_atom_site_label_2
_geom_bond_distance
_geom_bond_site_symmetry_2
Nd0 Ru4 3.386580 1_555
Nd0 Ru5 3.386604 1_555
Nd0 Ru1 3.386833 1_555
Nd0 Ru3 3.386862 1_555
Nd1 Ru4 3.386171 1_655
Nd1 Ru5 3.386234 1_555
Nd1 Ru1 3.386432 1_656
Nd1 Ru3 3.386493 1_556
Nd2 Ru2 3.386517 1_565
Nd2 Ru5 3.386588 1_555
Nd2 Ru0 3.386844 1_565
Nd2 Ru3 3.386877 1_555
Nd3 Ru5 3.386205 1_555
Nd3 Ru2 3.386227 1_555
Nd3 Ru0 3.386464 1_556
Nd3 Ru3 3.386474 1_556
Nd4 Ru2 3.386555 1_565
Nd4 Ru4 3.386583 1_555
Nd4 Ru1 3.386836 1_555
Nd4 Ru0 3.386852 1_565
Nd5 Ru4 3.386193 1_655
Nd5 Ru2 3.386255 1_555
Nd5 Ru1 3.386450 1_656
Nd5 Ru0 3.386477 1_556
Al0 Ru3 2.554850 1_555
Al0 Ru1 2.554880 1_555
Al0 Ru0 2.554905 1_565
Al0 Nd0 3.211142 1_555
Al0 Nd2 3.211179 1_555
Al0 Nd4 3.211181 1_555
Al1 Ru3 2.554559 1_556
Al1 Ru0 2.554560 1_556
Al1 Ru1 2.554587 1_656
Al1 Nd5 3.210991 1_555
Al1 Nd3 3.211010 1_555
Al1 Nd1 3.211055 1_555
Al2 Ru5 2.554540 1_555
Al2 Ru4 2.554571 1_655
Al2 Ru2 2.554598 1_555
Al2 Nd3 3.210767 1_555
Al2 Nd5 3.210771 1_555
Al2 Nd1 3.210798 1_555
Al3 Ru5 2.554842 1_555
Al3 Ru4 2.554865 1_555
Al3 Ru2 2.554924 1_565
Al3 Nd0 3.210830 1_555
Al3 Nd2 3.210868 1_555
Al3 Nd4 3.210893 1_555
Al4 Ru7 2.593570 1_555
Al4 Ru4 2.687331 1_555
Al4 Ru5 2.687350 1_555
Al4 Nd0 3.170621 1_555
Al4 Nd5 3.228352 1_455
Al4 Nd3 3.228363 1_555
Al5 Ru7 2.593525 1_665
Al5 Ru5 2.687209 1_555
Al5 Ru4 2.687241 1_655
Al5 Nd1 3.170454 1_555
Al5 Nd2 3.228363 1_555
Al5 Nd4 3.228401 1_655
Al6 Ru7 2.593625 1_665
Al6 Ru2 2.687279 1_565
Al6 Ru5 2.687357 1_555
Al6 Nd2 3.170642 1_555
Al6 Nd5 3.228353 1_565
Al6 Nd1 3.228387 1_555
Al7 Ru6 2.593597 1_665
Al7 Ru3 2.687188 1_555
Al7 Ru1 2.687279 1_655
Al7 Nd1 3.170911 1_554
Al7 Nd2 3.228506 1_555
Al7 Nd4 3.228573 1_655
Al8 Ru7 2.593590 1_555
Al8 Ru5 2.687203 1_555
Al8 Ru2 2.687234 1_555
Al8 Nd3 3.170468 1_555
Al8 Nd0 3.228384 1_555
Al8 Nd4 3.228413 1_545
Al9 Ru6 2.593630 1_556
Al9 Ru3 2.687326 1_556
Al9 Ru1 2.687364 1_556
Al9 Nd0 3.171059 1_556
Al9 Nd3 3.228496 1_555
Al9 Nd5 3.228531 1_455
Al10 Ru7 2.593627 1_565
Al10 Ru2 2.687292 1_565
Al10 Ru4 2.687328 1_555
Al10 Nd4 3.170629 1_555
Al10 Nd3 3.228349 1_565
Al10 Nd1 3.228354 1_455
Al11 Ru6 2.593595 1_555
Al11 Ru3 2.687227 1_555
Al11 Ru0 2.687264 1_555
Al11 Nd3 3.170908 1_554
Al11 Nd0 3.228534 1_555
Al11 Nd4 3.228569 1_545
Al12 Ru7 2.593552 1_655
Al12 Ru2 2.687210 1_555
Al12 Ru4 2.687230 1_655
Al12 Nd5 3.170457 1_555
Al12 Nd2 3.228372 1_545
Al12 Nd0 3.228392 1_655
Al13 Ru6 2.593634 1_666
Al13 Ru0 2.687284 1_566
Al13 Ru3 2.687384 1_556
Al13 Nd2 3.171106 1_556
Al13 Nd5 3.228503 1_565
Al13 Nd1 3.228549 1_555
Al14 Ru6 2.593576 1_655
Al14 Ru0 2.687240 1_555
Al14 Ru1 2.687241 1_655
Al14 Nd5 3.170881 1_554
Al14 Nd0 3.228533 1_655
Al14 Nd2 3.228564 1_545
Al15 Ru6 2.593657 1_566
Al15 Ru0 2.687302 1_566
Al15 Ru1 2.687335 1_556
Al15 Nd4 3.171054 1_556
Al15 Nd1 3.228506 1_455
Al15 Nd3 3.228520 1_565
Al16 Ru2 2.594172 1_555
Al16 Ru0 2.594386 1_555
Al16 Nd2 3.068257 1_545
Al16 Nd4 3.068296 1_545
Al17 Ru2 2.594023 1_565
Al17 Ru0 2.594231 1_566
Al17 Nd3 3.068279 1_565
Al17 Nd5 3.068288 1_565
Al18 Ru4 2.594210 1_655
Al18 Ru1 2.594431 1_655
Al18 Nd0 3.068315 1_655
Al18 Nd4 3.068336 1_655
Al19 Ru4 2.594034 1_555
Al19 Ru1 2.594242 1_556
Al19 Nd5 3.068290 1_455
Al19 Nd1 3.068309 1_455
Al20 Ru5 2.594151 1_555
Al20 Ru3 2.594365 1_555
Al20 Nd0 3.068265 1_555
Al20 Nd2 3.068303 1_555
Al21 Ru5 2.594008 1_555
Al21 Ru3 2.594223 1_556
Al21 Nd3 3.068229 1_555
Al21 Nd1 3.068269 1_555
Al22 Ru7 2.410494 1_555
Al22 Ru6 2.410565 1_555
Al22 Nd4 2.957829 1_545
Al22 Nd2 2.957840 1_445
Al22 Nd0 2.957861 1_555
Al23 Ru7 2.410346 1_555
Al23 Ru6 2.410418 1_556
Al23 Nd5 2.957925 1_455
Al23 Nd3 2.957970 1_555
Al23 Nd1 2.957987 1_445
