# generated using pymatgen
data_CsVF4
_symmetry_space_group_name_H-M   'P 1'
_cell_length_a   6.57616629
_cell_length_b   7.73666193
_cell_length_c   7.72737641
_cell_angle_alpha   89.65491770
_cell_angle_beta   90.00125355
_cell_angle_gamma   90.00280106
_symmetry_Int_Tables_number   1
_chemical_formula_structural   CsVF4
_chemical_formula_sum   'Cs4 V4 F16'
_cell_volume   393.14304456
_cell_formula_units_Z   4
loop_
 _symmetry_equiv_pos_site_id
 _symmetry_equiv_pos_as_xyz
  1  'x, y, z'
loop_
 _atom_site_type_symbol
 _atom_site_label
 _atom_site_symmetry_multiplicity
 _atom_site_fract_x
 _atom_site_fract_y
 _atom_site_fract_z
 _atom_site_occupancy
  Cs  Cs0  1  0.54756865  0.50001121  0.49998989  1
  Cs  Cs1  1  0.45243692  -0.00001008  0.00000785  1
  Cs  Cs2  1  0.48873425  0.50001692  0.00001667  1
  Cs  Cs3  1  0.51126983  -0.00001819  0.49997601  1
  V  V0  1  0.00000210  0.24998274  0.25000778  1
  V  V1  1  -0.00000676  0.75001677  0.25000651  1
  V  V2  1  -0.00001425  0.24999847  0.74998880  1
  V  V3  1  0.00000889  0.75000545  0.74998665  1
  F  F0  1  0.96703393  0.50449654  0.29754985  1
  F  F1  1  0.96704943  0.49549858  0.70246053  1
  F  F2  1  0.03296202  -0.00451850  0.20247310  1
  F  F3  1  0.03294619  0.00449790  0.79754830  1
  F  F4  1  0.96559805  0.20007164  0.49544788  1
  F  F5  1  0.96560515  0.79992243  0.50452638  1
  F  F6  1  0.03440439  0.29993656  0.00454151  1
  F  F7  1  0.03440828  0.70007120  -0.00451545  1
  F  F8  1  0.71485476  0.23358118  0.22280294  1
  F  F9  1  0.71465076  0.76908139  0.22519942  1
  F  F10  1  0.71464135  0.23094491  0.77480654  1
  F  F11  1  0.71484618  0.76639656  0.77718636  1
  F  F12  1  0.28513801  0.26642191  0.27719810  1
  F  F13  1  0.28535556  0.73091625  0.27478709  1
  F  F14  1  0.28535791  0.26906928  0.72519039  1
  F  F15  1  0.28514842  0.73360890  0.72281691  1
loop_
_geom_bond_atom_site_label_1
_geom_bond_atom_site_label_2
_geom_bond_distance
_geom_bond_site_symmetry_2
Cs0 F13 3.025866 1_555
Cs0 F14 3.025959 1_555
Cs0 F12 3.040601 1_555
Cs0 F15 3.040899 1_555
Cs0 F9 3.161688 1_555
Cs0 F10 3.161820 1_555
Cs0 F0 3.171283 1_555
Cs0 F1 3.171433 1_555
Cs0 F11 3.177824 1_555
Cs0 F8 3.178122 1_555
Cs1 F9 3.025835 1_545
Cs1 F10 3.025998 1_554
Cs1 F8 3.040577 1_555
Cs1 F11 3.040814 1_544
Cs1 F13 3.161646 1_545
Cs1 F14 3.161905 1_554
Cs1 F2 3.171435 1_555
Cs1 F3 3.171448 1_554
Cs1 F15 3.177798 1_544
Cs1 F12 3.178178 1_555
Cs2 F11 3.062722 1_554
Cs2 F8 3.062912 1_555
Cs2 F13 3.087754 1_555
Cs2 F14 3.088147 1_554
Cs2 F12 3.098335 1_555
Cs2 F15 3.098425 1_554
Cs2 F9 3.100254 1_555
Cs2 F10 3.100518 1_554
Cs2 F6 3.364956 1_555
Cs2 F7 3.364974 1_555
Cs3 F15 3.062764 1_545
Cs3 F12 3.062934 1_555
Cs3 F9 3.087798 1_545
Cs3 F10 3.088226 1_555
Cs3 F8 3.098278 1_555
Cs3 F11 3.098424 1_545
Cs3 F13 3.100280 1_545
Cs3 F14 3.100632 1_555
Cs3 F4 3.364980 1_555
Cs3 F5 3.365048 1_545
F0 V1 1.944643 1_655
F0 V0 2.016936 1_655
F1 V2 1.944471 1_655
F1 V3 2.016832 1_655
F2 V1 1.944217 1_545
F2 V0 2.016825 1_555
F3 V2 1.944537 1_555
F3 V3 2.016759 1_545
F4 V0 1.946434 1_655
F4 V2 2.019478 1_655
F5 V3 1.946589 1_655
F5 V1 2.019301 1_655
F6 V0 1.946693 1_555
F6 V2 2.019607 1_554
F7 V3 1.946895 1_554
F7 V1 2.019398 1_555
F8 V0 1.891259 1_655
F9 V1 1.891897 1_655
F10 V2 1.891905 1_655
F11 V3 1.891371 1_655
F12 V0 1.891192 1_555
F13 V1 1.892027 1_555
F14 V2 1.892081 1_555
F15 V3 1.891197 1_555
