# generated using pymatgen
data_NaCaH6S2NO9
_symmetry_space_group_name_H-M   'P 1'
_cell_length_a   7.54763093
_cell_length_b   10.55069513
_cell_length_c   11.29089200
_cell_angle_alpha   90.00000000
_cell_angle_beta   90.00000000
_cell_angle_gamma   105.45789999
_symmetry_Int_Tables_number   1
_chemical_formula_structural   NaCaH6S2NO9
_chemical_formula_sum   'Na4 Ca4 H24 S8 N4 O36'
_cell_volume   866.60037089
_cell_formula_units_Z   4
loop_
 _symmetry_equiv_pos_site_id
 _symmetry_equiv_pos_as_xyz
  1  'x, y, z'
loop_
 _atom_site_type_symbol
 _atom_site_label
 _atom_site_symmetry_multiplicity
 _atom_site_fract_x
 _atom_site_fract_y
 _atom_site_fract_z
 _atom_site_occupancy
  Na  Na0  1  0.10624600  0.71699800  0.18070000  1
  Na  Na1  1  0.10624600  0.21699800  0.31930000  1
  Na  Na2  1  0.88821300  0.78061800  0.68270000  1
  Na  Na3  1  0.88821300  0.28061800  0.81730000  1
  Ca  Ca0  1  0.39944500  0.68336900  0.59880200  1
  Ca  Ca1  1  0.39944500  0.18336900  0.90119800  1
  Ca  Ca2  1  0.59791100  0.81646800  0.09886900  1
  Ca  Ca3  1  0.59791100  0.31646800  0.40113100  1
  H  H0  1  0.18133400  0.93669100  0.55059800  1
  H  H1  1  0.01963200  0.65018700  0.50066400  1
  H  H2  1  0.98502400  0.55170600  0.60624100  1
  H  H3  1  0.18133400  0.43669100  0.94940200  1
  H  H4  1  0.01963200  0.15018700  0.99933600  1
  H  H5  1  0.98502400  0.05170600  0.89375900  1
  H  H6  1  0.14230200  0.54301600  0.86403600  1
  H  H7  1  0.14230200  0.04301600  0.63596400  1
  H  H8  1  0.34374300  0.87795900  0.40207300  1
  H  H9  1  0.46400500  0.96598500  0.49936200  1
  H  H10  1  0.34374300  0.37795900  0.09792700  1
  H  H11  1  0.46400500  0.46598500  0.00063800  1
  H  H12  1  0.64735700  0.62170200  0.90295500  1
  H  H13  1  0.64735700  0.12170200  0.59704500  1
  H  H14  1  0.82964200  0.95886000  0.36148300  1
  H  H15  1  0.73488400  0.58966100  0.02456900  1
  H  H16  1  0.82964200  0.45886000  0.13851700  1
  H  H17  1  0.01439400  0.94801200  0.10688300  1
  H  H18  1  0.97989800  0.85017700  0.00071000  1
  H  H19  1  0.73488400  0.08966100  0.47543100  1
  H  H20  1  0.95988500  0.50420700  0.02615700  1
  H  H21  1  0.01439400  0.44801200  0.39311700  1
  H  H22  1  0.97989800  0.35017700  0.49929000  1
  H  H23  1  0.95988500  0.00420700  0.47384300  1
  S  S0  1  0.25524200  0.80734300  0.87428000  1
  S  S1  1  0.25524200  0.30734300  0.62572000  1
  S  S2  1  0.40207700  0.54404000  0.29846100  1
  S  S3  1  0.59629600  0.95548000  0.79579000  1
  S  S4  1  0.40207700  0.04404000  0.20153900  1
  S  S5  1  0.59629600  0.45548000  0.70421000  1
  S  S6  1  0.74365700  0.69226400  0.37440100  1
  S  S7  1  0.74365700  0.19226400  0.12559900  1
  N  N0  1  0.38379700  0.94587600  0.82660400  1
  N  N1  1  0.38379700  0.44587600  0.67339600  1
  N  N2  1  0.61555500  0.55343400  0.32733400  1
  N  N3  1  0.61555500  0.05343400  0.17266600  1
  O  O0  1  0.07896200  0.96511500  0.58891300  1
  O  O1  1  0.06616800  0.82248500  0.86985300  1
  O  O2  1  0.06269400  0.63786000  0.58267500  1
  O  O3  1  0.07896200  0.46511500  0.91108700  1
  O  O4  1  0.06616800  0.32248500  0.63014700  1
  O  O5  1  0.06269400  0.13786000  0.91732500  1
  O  O6  1  0.30640300  0.78162600  0.99696900  1
  O  O7  1  0.27346900  0.69852200  0.79544100  1
  O  O8  1  0.33196600  0.90473200  0.23847900  1
  O  O9  1  0.36448300  0.88206000  0.48886000  1
  O  O10  1  0.30607700  0.57304900  0.40565600  1
  O  O11  1  0.38417700  0.63367800  0.20103000  1
  O  O12  1  0.30640300  0.28162600  0.50303100  1
  O  O13  1  0.27346900  0.19852200  0.70455900  1
  O  O14  1  0.33196600  0.40473200  0.26152100  1
  O  O15  1  0.36448300  0.38206000  0.01114000  1
  O  O16  1  0.30607700  0.07304900  0.09434400  1
  O  O17  1  0.38417700  0.13367800  0.29897000  1
  O  O18  1  0.61170800  0.86599000  0.69741400  1
  O  O19  1  0.69504000  0.92613800  0.90154100  1
  O  O20  1  0.62919600  0.61971100  0.98980400  1
  O  O21  1  0.66543400  0.59455200  0.74161400  1
  O  O22  1  0.72250900  0.80009800  0.29529800  1
  O  O23  1  0.69382500  0.71804300  0.49739400  1
  O  O24  1  0.61170800  0.36599000  0.80258600  1
  O  O25  1  0.69504000  0.42613800  0.59845900  1
  O  O26  1  0.62919600  0.11971100  0.51019600  1
  O  O27  1  0.66543400  0.09455200  0.75838600  1
  O  O28  1  0.72250900  0.30009800  0.20470200  1
  O  O29  1  0.69382500  0.21804300  0.00260600  1
  O  O30  1  0.93538700  0.86273200  0.08218800  1
  O  O31  1  0.93356500  0.67838500  0.36923800  1
  O  O32  1  0.89539800  0.53716900  0.09254200  1
  O  O33  1  0.93538700  0.36273200  0.41781200  1
  O  O34  1  0.93356500  0.17838500  0.13076200  1
  O  O35  1  0.89539800  0.03716900  0.40745800  1
loop_
_geom_bond_atom_site_label_1
_geom_bond_atom_site_label_2
_geom_bond_distance
_geom_bond_site_symmetry_2
Na0 O8 2.335058 1_555
Na0 O32 2.348117 1_455
Na0 O31 2.472496 1_455
Na0 O11 2.491769 1_555
Na0 O30 2.514236 1_455
Na0 O6 2.549820 1_554
Na1 O14 2.335058 1_555
Na1 O35 2.348117 1_455
Na1 O34 2.472496 1_455
Na1 O17 2.491769 1_555
Na1 O33 2.514236 1_455
Na1 O12 2.549820 1_555
Na2 O21 2.316041 1_555
Na2 O0 2.342935 1_655
Na2 O1 2.479551 1_655
Na2 O18 2.489249 1_555
Na2 O2 2.517087 1_655
Na2 O23 2.539628 1_555
Na3 O27 2.316041 1_555
Na3 O3 2.342935 1_655
Na3 O4 2.479551 1_655
Na3 O24 2.489249 1_555
Na3 O5 2.517087 1_655
Na3 O29 2.539628 1_556
Ca0 O18 2.423502 1_555
Ca0 O7 2.437226 1_555
Ca0 O23 2.438904 1_555
Ca0 O2 2.464398 1_555
Ca0 O10 2.483950 1_555
Ca0 O9 2.509987 1_555
Ca0 N1 2.616136 1_555
Ca0 O21 2.917436 1_555
Ca1 O24 2.423502 1_555
Ca1 O13 2.437226 1_555
Ca1 O29 2.438904 1_556
Ca1 O5 2.464398 1_555
Ca1 O16 2.483950 1_556
Ca1 O15 2.509987 1_556
Ca1 N0 2.616136 1_545
Ca1 O27 2.917436 1_555
Ca2 O6 2.422518 1_554
Ca2 O22 2.433043 1_555
Ca2 O11 2.448231 1_555
Ca2 O30 2.469599 1_555
Ca2 O20 2.478499 1_554
Ca2 O19 2.527478 1_554
Ca2 N3 2.604863 1_565
Ca2 O8 2.894392 1_555
Ca3 O12 2.422518 1_555
Ca3 O28 2.433043 1_555
Ca3 O17 2.448231 1_555
Ca3 O33 2.469599 1_555
Ca3 O26 2.478499 1_555
Ca3 O25 2.527478 1_555
Ca3 N2 2.604863 1_555
Ca3 O14 2.894392 1_555
H0 O0 0.998809 1_555
H1 O2 1.001258 1_555
H1 O31 1.677952 1_455
H2 O2 0.978090 1_655
H3 O3 0.998809 1_555
H4 O5 1.001258 1_555
H4 O34 1.677952 1_456
H5 O5 0.978090 1_655
H6 O3 0.988359 1_555
H7 O0 0.988359 1_545
H8 O9 0.991451 1_555
H9 O9 1.003890 1_555
H10 O15 0.991451 1_555
H11 O15 1.003890 1_555
H12 O20 0.989584 1_555
H13 O26 0.989584 1_555
H14 O35 0.989862 1_565
H15 O20 1.012783 1_554
H16 O32 0.989862 1_555
H17 O30 0.978214 1_455
H18 O30 1.000229 1_555
H18 O1 1.671446 1_654
H19 O26 1.012783 1_555
H20 O32 1.004935 1_555
H21 O33 0.978214 1_455
H22 O33 1.000229 1_555
H22 O4 1.671446 1_655
H23 O35 1.004935 1_555
N0 S0 1.616038 1_555
N0 S3 1.617734 1_555
N1 S1 1.616038 1_555
N1 S5 1.617734 1_555
N2 S6 1.614874 1_555
N2 S2 1.620836 1_555
N3 S7 1.614874 1_555
N3 S4 1.620836 1_555
O1 S0 1.478531 1_555
O4 S1 1.478531 1_555
O6 S0 1.482413 1_555
O7 S0 1.487861 1_555
O8 S4 1.483133 1_565
O10 S2 1.483842 1_555
O11 S2 1.480194 1_555
O12 S1 1.482413 1_555
O13 S1 1.487861 1_555
O14 S2 1.483133 1_555
O16 S4 1.483842 1_555
O17 S4 1.480194 1_555
O18 S3 1.482339 1_555
O19 S3 1.483229 1_555
O21 S5 1.481720 1_555
O22 S6 1.488087 1_555
O23 S6 1.482720 1_555
O24 S5 1.482339 1_555
O25 S5 1.483229 1_555
O27 S3 1.481720 1_545
O28 S7 1.488087 1_555
O29 S7 1.482720 1_555
O31 S6 1.480282 1_555
O34 S7 1.480282 1_555
