# generated using pymatgen
data_CsMg14Cu
_symmetry_space_group_name_H-M   'P 1'
_cell_length_a   6.48830912
_cell_length_b   6.48830858
_cell_length_c   10.77060835
_cell_angle_alpha   90.00000000
_cell_angle_beta   90.00000000
_cell_angle_gamma   120.00000276
_symmetry_Int_Tables_number   1
_chemical_formula_structural   CsMg14Cu
_chemical_formula_sum   'Cs1 Mg14 Cu1'
_cell_volume   392.67556978
_cell_formula_units_Z   1
loop_
 _symmetry_equiv_pos_site_id
 _symmetry_equiv_pos_as_xyz
  1  'x, y, z'
loop_
 _atom_site_type_symbol
 _atom_site_label
 _atom_site_symmetry_multiplicity
 _atom_site_fract_x
 _atom_site_fract_y
 _atom_site_fract_z
 _atom_site_occupancy
  Cs  Cs0  1  0.16666700  0.33333300  0.62500000  1
  Mg  Mg0  1  0.15441399  0.82720650  0.12500000  1
  Mg  Mg1  1  0.17263614  0.83631757  0.62500000  1
  Mg  Mg2  1  0.67279350  0.34558601  0.12500000  1
  Mg  Mg3  1  0.66368243  0.32736386  0.62500000  1
  Mg  Mg4  1  0.67279350  0.82720650  0.12500000  1
  Mg  Mg5  1  0.66368243  0.83631757  0.62500000  1
  Mg  Mg6  1  0.33281817  0.16718183  0.34264259  1
  Mg  Mg7  1  0.33281817  0.16718183  0.90735741  1
  Mg  Mg8  1  0.33281817  0.66563735  0.34264259  1
  Mg  Mg9  1  0.33281817  0.66563735  0.90735741  1
  Mg  Mg10  1  0.83436265  0.16718183  0.34264259  1
  Mg  Mg11  1  0.83436265  0.16718183  0.90735741  1
  Mg  Mg12  1  0.83333300  0.66666700  0.38079097  1
  Mg  Mg13  1  0.83333300  0.66666700  0.86920903  1
  Cu  Cu0  1  0.16666700  0.33333300  0.12500000  1
loop_
_geom_bond_atom_site_label_1
_geom_bond_atom_site_label_2
_geom_bond_distance
_geom_bond_site_symmetry_2
Cs0 Mg1 3.244328 1_555
Cs0 Mg5 3.244328 1_555
Cs0 Mg5 3.244328 1_445
Cs0 Mg1 3.244328 1_545
Cs0 Mg3 3.244328 1_455
Cs0 Mg3 3.244328 1_555
Cs0 Mg6 3.568637 1_555
Cs0 Mg7 3.568637 1_555
Cs0 Mg8 3.568643 1_555
Cs0 Mg9 3.568643 1_555
Cs0 Mg10 3.568643 1_455
Cs0 Mg11 3.568643 1_455
Mg0 Mg9 3.024455 1_554
Mg0 Mg8 3.024455 1_555
Mg0 Mg7 3.024462 1_564
Mg0 Mg6 3.024462 1_565
Mg0 Mg2 3.124902 1_455
Mg0 Mg4 3.124903 1_455
Mg0 Mg13 3.293202 1_454
Mg0 Mg12 3.293202 1_455
Mg0 Mg2 3.363406 1_565
Mg0 Mg4 3.363407 1_555
Mg1 Mg12 3.248590 1_455
Mg1 Mg13 3.248590 1_455
Mg2 Mg7 3.024462 1_554
Mg2 Mg6 3.024462 1_555
Mg2 Mg4 3.124902 1_555
Mg2 Mg4 3.363406 1_545
Mg4 Mg9 3.024462 1_554
Mg4 Mg8 3.024462 1_555
Mg10 Mg2 3.024455 1_555
Mg10 Mg4 3.024462 1_545
Mg10 Mg12 3.270075 1_555
Mg10 Mg12 3.270076 1_545
Mg11 Mg2 3.024455 1_556
Mg11 Mg4 3.024462 1_546
Mg11 Mg13 3.270075 1_555
Mg11 Mg13 3.270076 1_545
Mg12 Mg5 3.248583 1_555
Mg12 Mg3 3.248590 1_555
Mg12 Mg6 3.270076 1_665
Mg12 Mg6 3.270076 1_555
Mg12 Mg8 3.270076 1_655
Mg12 Mg8 3.270076 1_555
Mg12 Mg4 3.293196 1_555
Mg12 Mg2 3.293202 1_555
Mg13 Mg5 3.248583 1_555
Mg13 Mg3 3.248590 1_555
Mg13 Mg7 3.270076 1_665
Mg13 Mg7 3.270076 1_555
Mg13 Mg9 3.270076 1_655
Mg13 Mg9 3.270076 1_555
Mg13 Mg4 3.293196 1_556
Mg13 Mg2 3.293202 1_556
Cu0 Mg7 2.996918 1_554
Cu0 Mg6 2.996918 1_555
Cu0 Mg9 2.996925 1_554
Cu0 Mg8 2.996925 1_555
Cu0 Mg11 2.996925 1_454
Cu0 Mg10 2.996925 1_455
Cu0 Mg0 3.244885 1_545
Cu0 Mg4 3.244885 1_445
Cu0 Mg4 3.244885 1_555
Cu0 Mg0 3.244885 1_555
Cu0 Mg2 3.244885 1_555
Cu0 Mg2 3.244885 1_455
