# generated using pymatgen
data_ErH2Cl3O13
_symmetry_space_group_name_H-M   'P 1'
_cell_length_a   6.96149500
_cell_length_b   8.05003024
_cell_length_c   9.72593202
_cell_angle_alpha   76.67447936
_cell_angle_beta   75.60016991
_cell_angle_gamma   77.31873967
_symmetry_Int_Tables_number   1
_chemical_formula_structural   ErH2Cl3O13
_chemical_formula_sum   'Er2 H4 Cl6 O26'
_cell_volume   506.04178187
_cell_formula_units_Z   2
loop_
 _symmetry_equiv_pos_site_id
 _symmetry_equiv_pos_as_xyz
  1  'x, y, z'
loop_
 _atom_site_type_symbol
 _atom_site_label
 _atom_site_symmetry_multiplicity
 _atom_site_fract_x
 _atom_site_fract_y
 _atom_site_fract_z
 _atom_site_occupancy
  Er  Er0  1  0.86641400  0.32405700  0.31111700  1
  Er  Er1  1  0.13358600  0.67594300  0.68888300  1
  H  H0  1  0.80202500  0.02304700  0.20882900  1
  H  H1  1  0.19797500  0.97695300  0.79117100  1
  H  H2  1  0.68344800  0.18826500  0.12358600  1
  H  H3  1  0.31655200  0.81173500  0.87641400  1
  Cl  Cl0  1  0.70292200  0.67868000  0.52291600  1
  Cl  Cl1  1  0.29707800  0.32132000  0.47708400  1
  Cl  Cl2  1  0.21014900  0.90003900  0.30756900  1
  Cl  Cl3  1  0.78985100  0.09996100  0.69243100  1
  Cl  Cl4  1  0.27061600  0.33160400  0.99084800  1
  Cl  Cl5  1  0.72938400  0.66839600  0.00915200  1
  O  O0  1  0.73402900  0.58221300  0.40472400  1
  O  O1  1  0.26597100  0.41778700  0.59527600  1
  O  O2  1  0.47777700  0.36078500  0.37144100  1
  O  O3  1  0.52222300  0.63921500  0.62855900  1
  O  O4  1  0.87479200  0.61450200  0.59450900  1
  O  O5  1  0.12520800  0.38549800  0.40549100  1
  O  O6  1  0.68809500  0.85996800  0.46454300  1
  O  O7  1  0.31190500  0.14003200  0.53545700  1
  O  O8  1  0.07433200  0.06233700  0.34157200  1
  O  O9  1  0.92566800  0.93766300  0.65842800  1
  O  O10  1  0.76684900  0.21312000  0.55090300  1
  O  O11  1  0.23315100  0.78688000  0.44909700  1
  O  O12  1  0.40322000  0.93864100  0.23055800  1
  O  O13  1  0.59678000  0.06135900  0.76944200  1
  O  O14  1  0.11792600  0.81661100  0.23220800  1
  O  O15  1  0.88207400  0.18338900  0.76779200  1
  O  O16  1  0.12971500  0.39316800  0.11873700  1
  O  O17  1  0.87028500  0.60683200  0.88126300  1
  O  O18  1  0.46909700  0.28030400  0.02007500  1
  O  O19  1  0.53090300  0.71969600  0.97992500  1
  O  O20  1  0.19779400  0.19659100  0.95571700  1
  O  O21  1  0.80220600  0.80340900  0.04428300  1
  O  O22  1  0.27532700  0.48317300  0.87061000  1
  O  O23  1  0.72467300  0.51682700  0.12939000  1
  O  O24  1  0.77566500  0.14951800  0.19038600  1
  O  O25  1  0.22433500  0.85048200  0.80961400  1
loop_
_geom_bond_atom_site_label_1
_geom_bond_atom_site_label_2
_geom_bond_distance
_geom_bond_site_symmetry_2
Er0 O8 2.282163 1_655
Er0 O10 2.285730 1_555
Er0 O24 2.295920 1_555
Er0 O16 2.330728 1_655
Er0 O23 2.331627 1_555
Er0 O0 2.368734 1_555
Er0 O5 2.399133 1_655
Er0 O2 2.586620 1_555
Er1 O9 2.282163 1_455
Er1 O11 2.285730 1_555
Er1 O25 2.295920 1_555
Er1 O17 2.330728 1_455
Er1 O22 2.331627 1_555
Er1 O1 2.368734 1_555
Er1 O4 2.399133 1_455
Er1 O3 2.586620 1_555
H0 O24 0.975977 1_555
H1 O25 0.975977 1_555
H2 O24 0.978585 1_555
H3 O25 0.978585 1_555
Cl0 O6 1.429626 1_555
Cl0 O3 1.456426 1_555
Cl0 O4 1.469846 1_555
Cl0 O0 1.478244 1_555
Cl1 O7 1.429626 1_555
Cl1 O2 1.456426 1_555
Cl1 O5 1.469846 1_555
Cl1 O1 1.478244 1_555
Cl2 O12 1.428094 1_555
Cl2 O14 1.432031 1_555
Cl2 O8 1.487133 1_565
Cl2 O11 1.489212 1_555
Cl3 O13 1.428094 1_555
Cl3 O15 1.432031 1_555
Cl3 O9 1.487133 1_545
Cl3 O10 1.489212 1_555
Cl4 O18 1.432208 1_556
Cl4 O20 1.433267 1_555
Cl4 O22 1.482607 1_555
Cl4 O16 1.489556 1_556
Cl5 O19 1.432208 1_554
Cl5 O21 1.433267 1_555
Cl5 O23 1.482607 1_555
Cl5 O17 1.489556 1_554
