# generated using pymatgen
data_RbNa2Al3Si3O13
_symmetry_space_group_name_H-M   'P 1'
_cell_length_a   8.16190300
_cell_length_b   5.22992400
_cell_length_c   16.31683213
_cell_angle_alpha   71.26815386
_cell_angle_beta   90.00000000
_cell_angle_gamma   90.00000000
_symmetry_Int_Tables_number   1
_chemical_formula_structural   RbNa2Al3Si3O13
_chemical_formula_sum   'Rb2 Na4 Al6 Si6 O26'
_cell_volume   659.61006454
_cell_formula_units_Z   2
loop_
 _symmetry_equiv_pos_site_id
 _symmetry_equiv_pos_as_xyz
  1  'x, y, z'
loop_
 _atom_site_type_symbol
 _atom_site_label
 _atom_site_symmetry_multiplicity
 _atom_site_fract_x
 _atom_site_fract_y
 _atom_site_fract_z
 _atom_site_occupancy
  Rb  Rb0  1  0.56398600  0.48325300  0.23609000  1
  Rb  Rb1  1  0.43601400  0.48325300  0.73609000  1
  Na  Na0  1  0.82024800  0.71681100  0.99917400  1
  Na  Na1  1  0.17975200  0.71681100  0.49917400  1
  Na  Na2  1  0.83530900  0.21870800  0.50034600  1
  Na  Na3  1  0.16469100  0.21870800  0.00034600  1
  Al  Al0  1  0.59660900  0.24651000  0.00011200  1
  Al  Al1  1  0.40339100  0.24651000  0.50011200  1
  Al  Al2  1  0.89984100  0.90128100  0.35408500  1
  Al  Al3  1  0.89801500  0.61006500  0.64580900  1
  Al  Al4  1  0.10198500  0.61006500  0.14580900  1
  Al  Al5  1  0.10015900  0.90128100  0.85408500  1
  Si  Si0  1  0.61594700  0.74941400  0.49948000  1
  Si  Si1  1  0.38405300  0.74941400  0.99948000  1
  Si  Si2  1  0.88356000  0.11403400  0.14262700  1
  Si  Si3  1  0.88225100  0.39958200  0.85723500  1
  Si  Si4  1  0.11774900  0.39958200  0.35723500  1
  Si  Si5  1  0.11644000  0.11403400  0.64262700  1
  O  O0  1  0.71509900  0.24287200  0.09106000  1
  O  O1  1  0.71528900  0.42254900  0.90968500  1
  O  O2  1  0.28471100  0.42254900  0.40968500  1
  O  O3  1  0.28490100  0.24287200  0.59106000  1
  O  O4  1  0.72357900  0.91910700  0.41455000  1
  O  O5  1  0.72312500  0.74650400  0.58475900  1
  O  O6  1  0.27687500  0.74650400  0.08475900  1
  O  O7  1  0.27642100  0.91910700  0.91455000  1
  O  O8  1  0.55485500  0.91405100  0.00084500  1
  O  O9  1  0.44514500  0.91405100  0.50084500  1
  O  O10  1  0.84625800  0.03496300  0.24536000  1
  O  O11  1  0.84760600  0.52488600  0.75441200  1
  O  O12  1  0.15239400  0.52488600  0.25441200  1
  O  O13  1  0.15374200  0.03496300  0.74536000  1
  O  O14  1  0.97083700  0.56545300  0.38824300  1
  O  O15  1  0.97158900  0.34375200  0.61143600  1
  O  O16  1  0.02841100  0.34375200  0.11143600  1
  O  O17  1  0.02916300  0.56545300  0.88824300  1
  O  O18  1  0.94246900  0.85395000  0.11411700  1
  O  O19  1  0.94411200  0.08387400  0.88631600  1
  O  O20  1  0.05588800  0.08387400  0.38631600  1
  O  O21  1  0.05753100  0.85395000  0.61411700  1
  O  O22  1  0.58058300  0.44011200  0.49988100  1
  O  O23  1  0.41941700  0.44011200  0.99988100  1
  O  O24  1  0.56471400  0.95427000  0.76437800  1
  O  O25  1  0.43528600  0.95427000  0.26437800  1
loop_
_geom_bond_atom_site_label_1
_geom_bond_atom_site_label_2
_geom_bond_distance
_geom_bond_site_symmetry_2
Na0 O8 2.403111 1_556
Na0 O19 2.414100 1_565
Na0 O18 2.427143 1_556
Na0 O1 2.584129 1_555
Na0 O0 2.596406 1_556
Na0 O17 2.780405 1_655
Na0 O16 2.784458 1_656
Na1 O9 2.403111 1_555
Na1 O20 2.414100 1_565
Na1 O21 2.427143 1_555
Na1 O2 2.584129 1_555
Na1 O3 2.596406 1_555
Na1 O14 2.780405 1_455
Na1 O15 2.784458 1_455
Na2 O22 2.378582 1_555
Na2 O15 2.389961 1_555
Na2 O14 2.393230 1_555
Na2 O5 2.578693 1_545
Na2 O4 2.579803 1_545
Na2 O20 2.836031 1_655
Na2 O21 2.846135 1_645
Na3 O23 2.378582 1_554
Na3 O16 2.389961 1_555
Na3 O17 2.393230 1_554
Na3 O6 2.578693 1_545
Na3 O7 2.579803 1_544
Na3 O19 2.836031 1_454
Na3 O18 2.846135 1_445
Al0 O1 1.757976 1_554
Al0 O23 1.764747 1_554
Al0 O0 1.766274 1_555
Al0 O8 1.768085 1_545
Al1 O2 1.757976 1_555
Al1 O22 1.764747 1_555
Al1 O3 1.766274 1_555
Al1 O9 1.768085 1_545
Al2 O10 1.740886 1_565
Al2 O14 1.761383 1_555
Al2 O4 1.763748 1_555
Al2 O20 1.770092 1_665
Al3 O11 1.732308 1_555
Al3 O5 1.755707 1_555
Al3 O15 1.765439 1_555
Al3 O21 1.779258 1_655
Al4 O12 1.732308 1_555
Al4 O6 1.755707 1_555
Al4 O16 1.765439 1_555
Al4 O18 1.779258 1_455
Al5 O13 1.740886 1_565
Al5 O17 1.761383 1_555
Al5 O7 1.763748 1_555
Al5 O19 1.770092 1_465
O0 Si2 1.639626 1_555
O1 Si3 1.633984 1_555
O2 Si4 1.633984 1_555
O3 Si5 1.639626 1_555
O4 Si0 1.640076 1_555
O5 Si0 1.639539 1_555
O6 Si1 1.639539 1_554
O7 Si1 1.640076 1_555
O8 Si1 1.642447 1_554
O9 Si0 1.642447 1_555
O10 Si2 1.621229 1_555
O11 Si3 1.618047 1_555
O12 Si4 1.618047 1_555
O13 Si5 1.621229 1_555
O14 Si4 1.651736 1_655
O15 Si5 1.645424 1_655
O16 Si2 1.645424 1_455
O17 Si3 1.651736 1_455
O18 Si2 1.644442 1_565
O19 Si3 1.644112 1_555
O20 Si4 1.644112 1_555
O21 Si5 1.644442 1_565
O22 Si0 1.641119 1_555
O23 Si1 1.641119 1_555
O24 Rb1 2.848685 1_555
O24 Rb1 2.854830 1_565
O25 Rb0 2.848685 1_555
O25 Rb0 2.854830 1_565
