# generated using pymatgen
data_Li4MnCo2O7
_symmetry_space_group_name_H-M   'P 1'
_cell_length_a   5.06682400
_cell_length_b   5.08555297
_cell_length_c   10.05514511
_cell_angle_alpha   101.15871530
_cell_angle_beta   99.28072171
_cell_angle_gamma   98.84713787
_symmetry_Int_Tables_number   1
_chemical_formula_structural   Li4MnCo2O7
_chemical_formula_sum   'Li8 Mn2 Co4 O14'
_cell_volume   246.24904025
_cell_formula_units_Z   2
loop_
 _symmetry_equiv_pos_site_id
 _symmetry_equiv_pos_as_xyz
  1  'x, y, z'
loop_
 _atom_site_type_symbol
 _atom_site_label
 _atom_site_symmetry_multiplicity
 _atom_site_fract_x
 _atom_site_fract_y
 _atom_site_fract_z
 _atom_site_occupancy
  Li  Li0  1  0.29163500  0.56402800  0.08252900  1
  Li  Li1  1  0.41457300  0.86536000  0.34978300  1
  Li  Li2  1  0.86142200  0.71380300  0.21866300  1
  Li  Li3  1  0.99734800  0.00264100  0.49556400  1
  Li  Li4  1  0.56530400  0.14574200  0.64113800  1
  Li  Li5  1  0.14266700  0.28144800  0.78256900  1
  Li  Li6  1  0.71820200  0.42741000  0.93189100  1
  Li  Li7  1  0.13934500  0.28804300  0.28448300  1
  Mn  Mn0  1  0.00585300  0.00137400  0.00638600  1
  Mn  Mn1  1  0.71074800  0.42968600  0.42241100  1
  Co  Co0  1  0.27982000  0.57068500  0.56372100  1
  Co  Co1  1  0.43244700  0.84535900  0.85378900  1
  Co  Co2  1  0.57480800  0.14242700  0.14469900  1
  Co  Co3  1  0.85856000  0.71463800  0.71296800  1
  O  O0  1  0.06249200  0.66412300  0.88502600  1
  O  O1  1  0.22536000  0.93781900  0.16442800  1
  O  O2  1  0.66636900  0.81387100  0.03931500  1
  O  O3  1  0.76342700  0.09769300  0.31882100  1
  O  O4  1  0.37362100  0.24888400  0.46882900  1
  O  O5  1  0.91549300  0.37890700  0.59956300  1
  O  O6  1  0.49476000  0.51452500  0.75647500  1
  O  O7  1  0.51778100  0.48041400  0.25409300  1
  O  O8  1  0.64960100  0.76628600  0.54246800  1
  O  O9  1  0.04887900  0.63607300  0.39852300  1
  O  O10  1  0.22218800  0.91419800  0.67987000  1
  O  O11  1  0.79994000  0.04826700  0.82834500  1
  O  O12  1  0.35287300  0.18455000  0.97213600  1
  O  O13  1  0.91448500  0.32174600  0.10151400  1
loop_
_geom_bond_atom_site_label_1
_geom_bond_atom_site_label_2
_geom_bond_distance
_geom_bond_site_symmetry_2
Li0 O1 2.020920 1_555
Li0 O7 2.065423 1_555
Li0 O12 2.125770 1_554
Li0 O13 2.165823 1_455
Li0 O2 2.268489 1_555
Li0 O0 2.319562 1_554
Li1 O3 2.072384 1_565
Li1 O1 2.080077 1_555
Li1 O4 2.140337 1_565
Li1 O7 2.186279 1_555
Li1 O9 2.209666 1_555
Li1 O8 2.289978 1_555
Li2 O9 2.041395 1_655
Li2 O7 2.072534 1_555
Li2 O2 2.103074 1_555
Li2 O3 2.184191 1_565
Li2 O13 2.189336 1_555
Li2 O1 2.216817 1_655
Li3 O9 2.005832 1_645
Li3 O5 2.129934 1_555
Li3 O8 2.146571 1_545
Li3 O3 2.150850 1_555
Li3 O10 2.175741 1_645
Li3 O4 2.199199 1_655
Li4 O4 2.045970 1_555
Li4 O10 2.080109 1_545
Li4 O6 2.118525 1_555
Li4 O5 2.124396 1_555
Li4 O8 2.130692 1_545
Li4 O11 2.241239 1_555
Li5 O6 2.068181 1_555
Li5 O10 2.082327 1_545
Li5 O11 2.114077 1_455
Li5 O0 2.148462 1_555
Li5 O5 2.191356 1_455
Li5 O12 2.209234 1_555
Li6 O13 2.039332 1_556
Li6 O6 2.098040 1_555
Li6 O2 2.127671 1_556
Li6 O0 2.133805 1_655
Li6 O11 2.140330 1_555
Li6 O12 2.201684 1_555
Li7 O13 2.053841 1_455
Li7 O9 2.071515 1_555
Li7 O4 2.095360 1_555
Li7 O1 2.096598 1_545
Li7 O7 2.110649 1_555
Li7 O3 2.111530 1_455
Mn0 O13 1.885581 1_455
Mn0 O1 1.898977 1_545
Mn0 O2 1.943976 1_445
Mn0 O12 1.973229 1_554
Mn0 O0 1.991818 1_544
Mn0 O11 1.997411 1_454
Mn1 O3 1.885311 1_555
Mn1 O7 1.897310 1_555
Mn1 O9 1.942100 1_655
Mn1 O4 1.980215 1_555
Mn1 O8 1.991854 1_555
Mn1 O5 1.995070 1_555
Co0 O4 1.896226 1_555
Co0 O9 1.986348 1_555
Co0 O10 1.994572 1_555
Co0 O8 2.045421 1_555
Co0 O5 2.070163 1_455
Co0 O6 2.157137 1_555
Co1 O6 1.874489 1_555
Co1 O10 2.016562 1_555
Co1 O12 2.031836 1_565
Co1 O0 2.057283 1_555
Co1 O11 2.064513 1_565
Co1 O2 2.090775 1_556
Co2 O3 1.926613 1_555
Co2 O7 1.941999 1_555
Co2 O2 1.960013 1_545
Co2 O1 1.970675 1_545
Co2 O13 1.973286 1_555
Co2 O12 1.977311 1_554
Co3 O5 1.950045 1_555
Co3 O8 1.950258 1_555
Co3 O0 1.950358 1_655
Co3 O11 1.953755 1_565
Co3 O10 2.070907 1_655
Co3 O6 2.116659 1_555
