# generated using pymatgen
data_Y2Mn3O9
_symmetry_space_group_name_H-M   'P 1'
_cell_length_a   5.24680800
_cell_length_b   7.53507200
_cell_length_c   16.08605600
_cell_angle_alpha   90.00000000
_cell_angle_beta   90.00000000
_cell_angle_gamma   90.00000000
_symmetry_Int_Tables_number   1
_chemical_formula_structural   Y2Mn3O9
_chemical_formula_sum   'Y8 Mn12 O36'
_cell_volume   635.96344731
_cell_formula_units_Z   4
loop_
 _symmetry_equiv_pos_site_id
 _symmetry_equiv_pos_as_xyz
  1  'x, y, z'
loop_
 _atom_site_type_symbol
 _atom_site_label
 _atom_site_symmetry_multiplicity
 _atom_site_fract_x
 _atom_site_fract_y
 _atom_site_fract_z
 _atom_site_occupancy
  Y  Y0  1  0.98309500  0.75000000  0.31274700  1
  Y  Y1  1  0.99064900  0.75000000  0.98568100  1
  Y  Y2  1  0.48309500  0.25000000  0.18725300  1
  Y  Y3  1  0.49064900  0.25000000  0.51431900  1
  Y  Y4  1  0.50935100  0.75000000  0.48568100  1
  Y  Y5  1  0.51690500  0.75000000  0.81274700  1
  Y  Y6  1  0.00935100  0.25000000  0.01431900  1
  Y  Y7  1  0.01690500  0.25000000  0.68725300  1
  Mn  Mn0  1  0.50000000  0.00000000  0.00000000  1
  Mn  Mn1  1  0.49566800  0.00486600  0.33290900  1
  Mn  Mn2  1  0.50433200  0.99513400  0.66709100  1
  Mn  Mn3  1  0.99566800  0.99513400  0.16709100  1
  Mn  Mn4  1  0.00000000  0.00000000  0.50000000  1
  Mn  Mn5  1  0.00433200  0.00486600  0.83290900  1
  Mn  Mn6  1  0.99566800  0.50486600  0.16709100  1
  Mn  Mn7  1  0.00000000  0.50000000  0.50000000  1
  Mn  Mn8  1  0.00433200  0.49513400  0.83290900  1
  Mn  Mn9  1  0.50000000  0.50000000  0.00000000  1
  Mn  Mn10  1  0.49566800  0.49513400  0.33290900  1
  Mn  Mn11  1  0.50433200  0.50486600  0.66709100  1
  O  O0  1  0.28625500  0.06177900  0.09529200  1
  O  O1  1  0.31153000  0.02780000  0.43699300  1
  O  O2  1  0.29598900  0.04475800  0.76380400  1
  O  O3  1  0.81153000  0.97220000  0.06300700  1
  O  O4  1  0.78625500  0.93822100  0.40470800  1
  O  O5  1  0.79598900  0.95524200  0.73619600  1
  O  O6  1  0.20401100  0.45524200  0.26380400  1
  O  O7  1  0.21374500  0.43822100  0.59529200  1
  O  O8  1  0.18847000  0.47220000  0.93699300  1
  O  O9  1  0.70401100  0.54475800  0.23619600  1
  O  O10  1  0.68847000  0.52780000  0.56300700  1
  O  O11  1  0.71374500  0.56177900  0.90470800  1
  O  O12  1  0.70401100  0.95524200  0.23619600  1
  O  O13  1  0.68847000  0.97220000  0.56300700  1
  O  O14  1  0.71374500  0.93822100  0.90470800  1
  O  O15  1  0.20401100  0.04475800  0.26380400  1
  O  O16  1  0.21374500  0.06177900  0.59529200  1
  O  O17  1  0.18847000  0.02780000  0.93699300  1
  O  O18  1  0.81153000  0.52780000  0.06300700  1
  O  O19  1  0.78625500  0.56177900  0.40470800  1
  O  O20  1  0.79598900  0.54475800  0.73619600  1
  O  O21  1  0.28625500  0.43822100  0.09529200  1
  O  O22  1  0.31153000  0.47220000  0.43699300  1
  O  O23  1  0.29598900  0.45524200  0.76380400  1
  O  O24  1  0.90618400  0.25000000  0.15672800  1
  O  O25  1  0.91581700  0.25000000  0.49636300  1
  O  O26  1  0.91446400  0.25000000  0.82768900  1
  O  O27  1  0.41581700  0.75000000  0.00363700  1
  O  O28  1  0.40618400  0.75000000  0.34327200  1
  O  O29  1  0.41446400  0.75000000  0.67231100  1
  O  O30  1  0.08553600  0.75000000  0.17231100  1
  O  O31  1  0.08418300  0.75000000  0.50363700  1
  O  O32  1  0.09381600  0.75000000  0.84327200  1
  O  O33  1  0.58553600  0.25000000  0.32768900  1
  O  O34  1  0.59381600  0.25000000  0.65672800  1
  O  O35  1  0.58418300  0.25000000  0.99636300  1
loop_
_geom_bond_atom_site_label_1
_geom_bond_atom_site_label_2
_geom_bond_distance
_geom_bond_site_symmetry_2
Mn0 O3 1.934644 1_545
Mn0 O17 1.934644 1_554
Mn0 O27 1.935742 1_545
Mn0 O35 1.935742 1_554
Mn0 O0 1.955534 1_555
Mn0 O14 1.955534 1_544
Mn1 O33 1.908185 1_555
Mn1 O15 1.915147 1_555
Mn1 O12 1.937798 1_545
Mn1 O1 1.940765 1_555
Mn1 O4 1.977546 1_545
Mn1 O28 1.984008 1_545
Mn2 O29 1.908185 1_555
Mn2 O5 1.915147 1_555
Mn2 O2 1.937798 1_565
Mn2 O13 1.940765 1_555
Mn2 O16 1.977546 1_565
Mn2 O34 1.984008 1_565
Mn3 O30 1.908185 1_655
Mn3 O12 1.915147 1_555
Mn3 O15 1.937798 1_665
Mn3 O3 1.940765 1_555
Mn3 O0 1.977546 1_665
Mn3 O24 1.984008 1_565
Mn4 O1 1.934644 1_555
Mn4 O13 1.934644 1_445
Mn4 O31 1.935742 1_545
Mn4 O25 1.935742 1_455
Mn4 O4 1.955534 1_445
Mn4 O16 1.955534 1_555
Mn5 O26 1.908185 1_455
Mn5 O2 1.915147 1_555
Mn5 O5 1.937798 1_445
Mn5 O17 1.940765 1_555
Mn5 O14 1.977546 1_445
Mn5 O32 1.984008 1_545
Mn6 O30 1.908185 1_655
Mn6 O9 1.915147 1_555
Mn6 O6 1.937798 1_655
Mn6 O18 1.940765 1_555
Mn6 O21 1.977546 1_655
Mn6 O24 1.984008 1_555
Mn7 O22 1.934644 1_555
Mn7 O10 1.934644 1_455
Mn7 O25 1.935742 1_455
Mn7 O31 1.935742 1_555
Mn7 O19 1.955534 1_455
Mn7 O7 1.955534 1_555
Mn8 O26 1.908185 1_455
Mn8 O23 1.915147 1_555
Mn8 O20 1.937798 1_455
Mn8 O8 1.940765 1_555
Mn8 O11 1.977546 1_455
Mn8 O32 1.984008 1_555
Mn9 O18 1.934644 1_555
Mn9 O8 1.934644 1_554
Mn9 O27 1.935742 1_555
Mn9 O35 1.935742 1_554
Mn9 O21 1.955534 1_555
Mn9 O11 1.955534 1_554
Mn10 O33 1.908185 1_555
Mn10 O6 1.915147 1_555
Mn10 O9 1.937798 1_555
Mn10 O22 1.940765 1_555
Mn10 O19 1.977546 1_555
Mn10 O28 1.984008 1_555
Mn11 O29 1.908185 1_555
Mn11 O20 1.915147 1_555
Mn11 O23 1.937798 1_555
Mn11 O10 1.940765 1_555
Mn11 O7 1.977546 1_555
Mn11 O34 1.984008 1_555
O0 Y2 2.294863 1_555
O0 Y6 2.412233 1_555
O1 Y3 2.287728 1_555
O1 Y4 2.464216 1_545
O2 Y7 2.460129 1_555
O2 Y5 2.626082 1_545
O3 Y1 2.287728 1_554
O3 Y6 2.464216 1_665
O4 Y0 2.294863 1_555
O4 Y4 2.412233 1_555
O5 Y5 2.460129 1_555
O5 Y7 2.626082 1_665
O6 Y2 2.460129 1_555
O6 Y0 2.626082 1_455
O7 Y7 2.294863 1_555
O7 Y3 2.412233 1_555
O8 Y6 2.287728 1_556
O8 Y1 2.464216 1_455
O9 Y0 2.460129 1_555
O9 Y2 2.626082 1_555
O10 Y4 2.287728 1_555
O10 Y3 2.464216 1_555
O11 Y5 2.294863 1_555
O11 Y1 2.412233 1_555
O12 Y0 2.460129 1_555
O12 Y2 2.626082 1_565
O13 Y4 2.287728 1_555
O13 Y3 2.464216 1_565
O14 Y5 2.294863 1_555
O14 Y1 2.412233 1_555
O15 Y2 2.460129 1_555
O15 Y0 2.626082 1_445
O16 Y7 2.294863 1_555
O16 Y3 2.412233 1_555
O17 Y6 2.287728 1_556
O17 Y1 2.464216 1_445
O18 Y1 2.287728 1_554
O18 Y6 2.464216 1_655
O19 Y0 2.294863 1_555
O19 Y4 2.412233 1_555
O20 Y5 2.460129 1_555
O20 Y7 2.626082 1_655
O21 Y2 2.294863 1_555
O21 Y6 2.412233 1_555
O22 Y3 2.287728 1_555
O22 Y4 2.464216 1_555
O23 Y7 2.460129 1_555
O23 Y5 2.626082 1_555
O24 Y2 2.273525 1_555
O24 Y6 2.353883 1_655
O25 Y3 2.249397 1_555
O26 Y7 2.322122 1_655
O27 Y1 2.249397 1_454
O28 Y0 2.273525 1_455
O28 Y4 2.353883 1_555
O29 Y5 2.322122 1_555
O30 Y0 2.322122 1_455
O31 Y4 2.249397 1_555
O32 Y5 2.273525 1_555
O32 Y1 2.353883 1_455
O33 Y2 2.322122 1_555
O34 Y7 2.273525 1_655
O34 Y3 2.353883 1_555
O35 Y6 2.249397 1_656
