# generated using pymatgen
data_MgCd2
_symmetry_space_group_name_H-M   'P 1'
_cell_length_a   5.24862458
_cell_length_b   5.24862458
_cell_length_c   6.27596566
_cell_angle_alpha   63.00026575
_cell_angle_beta   63.00026575
_cell_angle_gamma   59.49443686
_symmetry_Int_Tables_number   1
_chemical_formula_structural   MgCd2
_chemical_formula_sum   'Mg2 Cd4'
_cell_volume   126.97265095
_cell_formula_units_Z   2
loop_
 _symmetry_equiv_pos_site_id
 _symmetry_equiv_pos_as_xyz
  1  'x, y, z'
loop_
 _atom_site_type_symbol
 _atom_site_label
 _atom_site_symmetry_multiplicity
 _atom_site_fract_x
 _atom_site_fract_y
 _atom_site_fract_z
 _atom_site_occupancy
  Mg  Mg0  1  0.08476674  0.91523326  0.25000000  1
  Mg  Mg1  1  0.91523326  0.08476674  0.75000000  1
  Cd  Cd0  1  0.24714224  0.42198533  0.74044913  1
  Cd  Cd1  1  0.57801467  0.75285776  0.75955087  1
  Cd  Cd2  1  0.42198533  0.24714224  0.24044913  1
  Cd  Cd3  1  0.75285776  0.57801467  0.25955087  1
loop_
_geom_bond_atom_site_label_1
_geom_bond_atom_site_label_2
_geom_bond_distance
_geom_bond_site_symmetry_2
Cd0 Cd1 2.996520 1_545
Cd0 Cd1 2.996520 1_455
Cd0 Mg1 3.013586 1_465
Cd0 Mg1 3.018320 1_455
Cd0 Mg1 3.037391 1_555
Cd0 Cd1 3.079936 1_555
Cd0 Cd3 3.084459 1_555
Cd0 Mg0 3.132005 1_555
Cd0 Mg0 3.182940 1_546
Cd0 Cd3 3.256714 1_456
Cd0 Cd2 3.267452 1_555
Cd0 Cd2 3.267452 1_556
Cd1 Mg1 3.013586 1_465
Cd1 Mg1 3.018320 1_565
Cd1 Mg1 3.037391 1_555
Cd1 Cd2 3.084459 1_556
Cd1 Mg0 3.132005 1_556
Cd1 Mg0 3.182940 1_655
Cd1 Cd2 3.256714 1_565
Cd1 Cd3 3.267452 1_556
Cd1 Cd3 3.267452 1_555
Cd2 Cd3 2.996520 1_455
Cd2 Cd3 2.996520 1_545
Cd2 Mg0 3.013586 1_645
Cd2 Mg0 3.018320 1_545
Cd2 Mg0 3.037391 1_555
Cd2 Cd3 3.079936 1_555
Cd2 Mg1 3.132005 1_554
Cd2 Mg1 3.182940 1_455
Cd3 Mg0 3.013586 1_645
Cd3 Mg0 3.018320 1_655
Cd3 Mg0 3.037391 1_555
Cd3 Mg1 3.132005 1_555
Cd3 Mg1 3.182940 1_564
