# generated using pymatgen
data_Ca4Cd3Au
_symmetry_space_group_name_H-M   'P 1'
_cell_length_a   7.78412400
_cell_length_b   7.78412400
_cell_length_c   28.88167000
_cell_angle_alpha   90.00000000
_cell_angle_beta   90.00000000
_cell_angle_gamma   90.00000000
_symmetry_Int_Tables_number   1
_chemical_formula_structural   Ca4Cd3Au
_chemical_formula_sum   'Ca32 Cd24 Au8'
_cell_volume   1750.01508622
_cell_formula_units_Z   8
loop_
 _symmetry_equiv_pos_site_id
 _symmetry_equiv_pos_as_xyz
  1  'x, y, z'
loop_
 _atom_site_type_symbol
 _atom_site_label
 _atom_site_symmetry_multiplicity
 _atom_site_fract_x
 _atom_site_fract_y
 _atom_site_fract_z
 _atom_site_occupancy
  Ca  Ca0_0  1  0.25000000  0.25000000  0.05891450  1
  Ca  Ca0_1  1  0.25000000  0.25000000  0.55891450  1
  Ca  Ca0_2  1  0.25000000  0.75000000  0.05891450  1
  Ca  Ca0_3  1  0.25000000  0.75000000  0.55891450  1
  Ca  Ca0_4  1  0.75000000  0.25000000  0.05891450  1
  Ca  Ca0_5  1  0.75000000  0.25000000  0.55891450  1
  Ca  Ca0_6  1  0.75000000  0.75000000  0.05891450  1
  Ca  Ca0_7  1  0.75000000  0.75000000  0.55891450  1
  Ca  Ca1_0  1  0.25000000  0.25000000  0.18689700  1
  Ca  Ca1_1  1  0.25000000  0.25000000  0.68689700  1
  Ca  Ca1_2  1  0.25000000  0.75000000  0.18689700  1
  Ca  Ca1_3  1  0.25000000  0.75000000  0.68689700  1
  Ca  Ca1_4  1  0.75000000  0.25000000  0.18689700  1
  Ca  Ca1_5  1  0.75000000  0.25000000  0.68689700  1
  Ca  Ca1_6  1  0.75000000  0.75000000  0.18689700  1
  Ca  Ca1_7  1  0.75000000  0.75000000  0.68689700  1
  Ca  Ca2_0  1  0.25000000  0.25000000  0.31310300  1
  Ca  Ca2_1  1  0.25000000  0.25000000  0.81310300  1
  Ca  Ca2_2  1  0.25000000  0.75000000  0.31310300  1
  Ca  Ca2_3  1  0.25000000  0.75000000  0.81310300  1
  Ca  Ca2_4  1  0.75000000  0.25000000  0.31310300  1
  Ca  Ca2_5  1  0.75000000  0.25000000  0.81310300  1
  Ca  Ca2_6  1  0.75000000  0.75000000  0.31310300  1
  Ca  Ca2_7  1  0.75000000  0.75000000  0.81310300  1
  Ca  Ca3_0  1  0.25000000  0.25000000  0.44108550  1
  Ca  Ca3_1  1  0.25000000  0.25000000  0.94108550  1
  Ca  Ca3_2  1  0.25000000  0.75000000  0.44108550  1
  Ca  Ca3_3  1  0.25000000  0.75000000  0.94108550  1
  Ca  Ca3_4  1  0.75000000  0.25000000  0.44108550  1
  Ca  Ca3_5  1  0.75000000  0.25000000  0.94108550  1
  Ca  Ca3_6  1  0.75000000  0.75000000  0.44108550  1
  Ca  Ca3_7  1  0.75000000  0.75000000  0.94108550  1
  Cd  Cd0_0  1  0.00000000  0.00000000  0.12468350  1
  Cd  Cd0_1  1  0.00000000  0.00000000  0.62468350  1
  Cd  Cd0_2  1  0.00000000  0.50000000  0.12468350  1
  Cd  Cd0_3  1  0.00000000  0.50000000  0.62468350  1
  Cd  Cd0_4  1  0.50000000  0.00000000  0.12468350  1
  Cd  Cd0_5  1  0.50000000  0.00000000  0.62468350  1
  Cd  Cd0_6  1  0.50000000  0.50000000  0.12468350  1
  Cd  Cd0_7  1  0.50000000  0.50000000  0.62468350  1
  Cd  Cd1_0  1  0.00000000  0.00000000  0.25000000  1
  Cd  Cd1_1  1  0.00000000  0.00000000  0.75000000  1
  Cd  Cd1_2  1  0.00000000  0.50000000  0.25000000  1
  Cd  Cd1_3  1  0.00000000  0.50000000  0.75000000  1
  Cd  Cd1_4  1  0.50000000  0.00000000  0.25000000  1
  Cd  Cd1_5  1  0.50000000  0.00000000  0.75000000  1
  Cd  Cd1_6  1  0.50000000  0.50000000  0.25000000  1
  Cd  Cd1_7  1  0.50000000  0.50000000  0.75000000  1
  Cd  Cd2_0  1  0.00000000  0.00000000  0.37531650  1
  Cd  Cd2_1  1  0.00000000  0.00000000  0.87531650  1
  Cd  Cd2_2  1  0.00000000  0.50000000  0.37531650  1
  Cd  Cd2_3  1  0.00000000  0.50000000  0.87531650  1
  Cd  Cd2_4  1  0.50000000  0.00000000  0.37531650  1
  Cd  Cd2_5  1  0.50000000  0.00000000  0.87531650  1
  Cd  Cd2_6  1  0.50000000  0.50000000  0.37531650  1
  Cd  Cd2_7  1  0.50000000  0.50000000  0.87531650  1
  Au  Au0_0  1  0.00000000  0.00000000  0.00000000  1
  Au  Au0_1  1  0.00000000  0.00000000  0.50000000  1
  Au  Au0_2  1  0.00000000  0.50000000  0.00000000  1
  Au  Au0_3  1  0.00000000  0.50000000  0.50000000  1
  Au  Au0_4  1  0.50000000  0.00000000  0.00000000  1
  Au  Au0_5  1  0.50000000  0.00000000  0.50000000  1
  Au  Au0_6  1  0.50000000  0.50000000  0.00000000  1
  Au  Au0_7  1  0.50000000  0.50000000  0.50000000  1
loop_
_geom_bond_atom_site_label_1
_geom_bond_atom_site_label_2
_geom_bond_distance
_geom_bond_site_symmetry_2
Ca0_0 Cd0_2 3.343986 1_555
Ca0_0 Cd0_6 3.343986 1_555
Ca0_0 Cd0_0 3.343986 1_555
Ca0_0 Cd0_4 3.343986 1_555
Ca0_0 Ca3_1 3.403098 1_554
Ca0_0 Ca1_0 3.696348 1_555
Ca0_0 Ca0_2 3.892062 1_545
Ca0_0 Ca0_4 3.892062 1_455
Ca0_0 Ca0_4 3.892062 1_555
Ca0_0 Ca0_2 3.892062 1_555
Ca0_1 Cd0_1 3.343986 1_555
Ca0_1 Cd0_5 3.343986 1_555
Ca0_1 Cd0_3 3.343986 1_555
Ca0_1 Cd0_7 3.343986 1_555
Ca0_1 Ca3_0 3.403098 1_555
Ca0_1 Ca1_1 3.696348 1_555
Ca0_1 Ca0_3 3.892062 1_555
Ca0_1 Ca0_3 3.892062 1_545
Ca0_1 Ca0_5 3.892062 1_455
Ca0_1 Ca0_5 3.892062 1_555
Ca0_2 Cd0_0 3.343986 1_565
Ca0_2 Cd0_2 3.343986 1_555
Ca0_2 Cd0_4 3.343986 1_565
Ca0_2 Cd0_6 3.343986 1_555
Ca0_2 Ca3_3 3.403098 1_554
Ca0_2 Ca1_2 3.696348 1_555
Ca0_2 Ca0_6 3.892062 1_555
Ca0_2 Ca0_6 3.892062 1_455
Ca0_3 Cd0_1 3.343986 1_565
Ca0_3 Cd0_3 3.343986 1_555
Ca0_3 Cd0_5 3.343986 1_565
Ca0_3 Cd0_7 3.343986 1_555
Ca0_3 Ca3_2 3.403098 1_555
Ca0_3 Ca1_3 3.696348 1_555
Ca0_3 Ca0_7 3.892062 1_455
Ca0_3 Ca0_7 3.892062 1_555
Ca0_4 Cd0_0 3.343986 1_655
Ca0_4 Cd0_6 3.343986 1_555
Ca0_4 Cd0_2 3.343986 1_655
Ca0_4 Cd0_4 3.343986 1_555
Ca0_4 Ca3_5 3.403098 1_554
Ca0_4 Ca1_4 3.696348 1_555
Ca0_4 Ca0_6 3.892062 1_555
Ca0_4 Ca0_6 3.892062 1_545
Ca0_5 Cd0_5 3.343986 1_555
Ca0_5 Cd0_1 3.343986 1_655
Ca0_5 Cd0_7 3.343986 1_555
Ca0_5 Cd0_3 3.343986 1_655
Ca0_5 Ca3_4 3.403098 1_555
Ca0_5 Ca1_5 3.696348 1_555
Ca0_5 Ca0_7 3.892062 1_555
Ca0_5 Ca0_7 3.892062 1_545
Ca0_6 Cd0_0 3.343986 1_665
Ca0_6 Cd0_4 3.343986 1_565
Ca0_6 Cd0_6 3.343986 1_555
Ca0_6 Cd0_2 3.343986 1_655
Ca0_6 Ca3_7 3.403098 1_554
Ca0_6 Ca1_6 3.696348 1_555
Ca0_7 Cd0_1 3.343986 1_665
Ca0_7 Cd0_5 3.343986 1_565
Ca0_7 Cd0_3 3.343986 1_655
Ca0_7 Cd0_7 3.343986 1_555
Ca0_7 Ca3_6 3.403098 1_555
Ca0_7 Ca1_7 3.696348 1_555
Ca1_0 Cd0_2 3.286742 1_555
Ca1_0 Cd0_6 3.286742 1_555
Ca1_0 Cd0_0 3.286742 1_555
Ca1_0 Cd0_4 3.286742 1_555
Ca1_0 Cd1_2 3.300856 1_555
Ca1_0 Cd1_6 3.300856 1_555
Ca1_0 Cd1_0 3.300856 1_555
Ca1_0 Cd1_4 3.300856 1_555
Ca1_1 Cd0_1 3.286742 1_555
Ca1_1 Cd0_7 3.286742 1_555
Ca1_1 Cd0_5 3.286742 1_555
Ca1_1 Cd0_3 3.286742 1_555
Ca1_1 Cd1_3 3.300856 1_555
Ca1_1 Cd1_7 3.300856 1_555
Ca1_1 Cd1_1 3.300856 1_555
Ca1_1 Cd1_5 3.300856 1_555
Ca1_2 Cd0_2 3.286742 1_555
Ca1_2 Cd0_4 3.286742 1_565
Ca1_2 Cd0_6 3.286742 1_555
Ca1_2 Cd0_0 3.286742 1_565
Ca1_2 Cd1_4 3.300856 1_565
Ca1_2 Cd1_2 3.300856 1_555
Ca1_2 Cd1_6 3.300856 1_555
Ca1_2 Cd1_0 3.300856 1_565
Ca1_3 Cd0_1 3.286742 1_565
Ca1_3 Cd0_7 3.286742 1_555
Ca1_3 Cd0_3 3.286742 1_555
Ca1_3 Cd0_5 3.286742 1_565
Ca1_3 Cd1_1 3.300856 1_565
Ca1_3 Cd1_5 3.300856 1_565
Ca1_3 Cd1_3 3.300856 1_555
Ca1_3 Cd1_7 3.300856 1_555
Ca1_4 Cd0_6 3.286742 1_555
Ca1_4 Cd0_2 3.286742 1_655
Ca1_4 Cd0_4 3.286742 1_555
Ca1_4 Cd0_0 3.286742 1_655
Ca1_4 Cd1_6 3.300856 1_555
Ca1_4 Cd1_2 3.300856 1_655
Ca1_4 Cd1_4 3.300856 1_555
Ca1_4 Cd1_0 3.300856 1_655
Ca1_5 Cd0_7 3.286742 1_555
Ca1_5 Cd0_5 3.286742 1_555
Ca1_5 Cd0_1 3.286742 1_655
Ca1_5 Cd0_3 3.286742 1_655
Ca1_5 Cd1_7 3.300856 1_555
Ca1_5 Cd1_3 3.300856 1_655
Ca1_5 Cd1_5 3.300856 1_555
Ca1_5 Cd1_1 3.300856 1_655
Ca1_6 Cd0_0 3.286742 1_665
Ca1_6 Cd0_4 3.286742 1_565
Ca1_6 Cd0_6 3.286742 1_555
Ca1_6 Cd0_2 3.286742 1_655
Ca1_6 Cd1_4 3.300856 1_565
Ca1_6 Cd1_6 3.300856 1_555
Ca1_6 Cd1_2 3.300856 1_655
Ca1_6 Cd1_0 3.300856 1_665
Ca1_7 Cd0_7 3.286742 1_555
Ca1_7 Cd0_1 3.286742 1_665
Ca1_7 Cd0_5 3.286742 1_565
Ca1_7 Cd0_3 3.286742 1_655
Ca1_7 Cd1_1 3.300856 1_665
Ca1_7 Cd1_5 3.300856 1_565
Ca1_7 Cd1_7 3.300856 1_555
Ca1_7 Cd1_3 3.300856 1_655
Ca2_0 Cd2_4 3.286742 1_555
Ca2_0 Cd2_2 3.286742 1_555
Ca2_0 Cd2_6 3.286742 1_555
Ca2_0 Cd2_0 3.286742 1_555
Ca2_0 Cd1_6 3.300856 1_555
Ca2_0 Cd1_4 3.300856 1_555
Ca2_0 Cd1_2 3.300856 1_555
Ca2_0 Cd1_0 3.300856 1_555
Ca2_0 Ca3_0 3.696348 1_555
Ca2_1 Cd2_1 3.286742 1_555
Ca2_1 Cd2_5 3.286742 1_555
Ca2_1 Cd2_3 3.286742 1_555
Ca2_1 Cd2_7 3.286742 1_555
Ca2_1 Cd1_3 3.300856 1_555
Ca2_1 Cd1_7 3.300856 1_555
Ca2_1 Cd1_1 3.300856 1_555
Ca2_1 Cd1_5 3.300856 1_555
Ca2_1 Ca3_1 3.696348 1_555
Ca2_2 Cd2_0 3.286742 1_565
Ca2_2 Cd2_4 3.286742 1_565
Ca2_2 Cd2_2 3.286742 1_555
Ca2_2 Cd2_6 3.286742 1_555
Ca2_2 Cd1_6 3.300856 1_555
Ca2_2 Cd1_0 3.300856 1_565
Ca2_2 Cd1_4 3.300856 1_565
Ca2_2 Cd1_2 3.300856 1_555
Ca2_2 Ca3_2 3.696348 1_555
Ca2_3 Cd2_3 3.286742 1_555
Ca2_3 Cd2_1 3.286742 1_565
Ca2_3 Cd2_5 3.286742 1_565
Ca2_3 Cd2_7 3.286742 1_555
Ca2_3 Cd1_5 3.300856 1_565
Ca2_3 Cd1_3 3.300856 1_555
Ca2_3 Cd1_7 3.300856 1_555
Ca2_3 Cd1_1 3.300856 1_565
Ca2_3 Ca3_3 3.696348 1_555
Ca2_4 Cd2_0 3.286742 1_655
Ca2_4 Cd2_4 3.286742 1_555
Ca2_4 Cd2_6 3.286742 1_555
Ca2_4 Cd2_2 3.286742 1_655
Ca2_4 Cd1_6 3.300856 1_555
Ca2_4 Cd1_0 3.300856 1_655
Ca2_4 Cd1_4 3.300856 1_555
Ca2_4 Cd1_2 3.300856 1_655
Ca2_4 Ca3_4 3.696348 1_555
Ca2_5 Cd2_3 3.286742 1_655
Ca2_5 Cd2_5 3.286742 1_555
Ca2_5 Cd2_1 3.286742 1_655
Ca2_5 Cd2_7 3.286742 1_555
Ca2_5 Cd1_7 3.300856 1_555
Ca2_5 Cd1_3 3.300856 1_655
Ca2_5 Cd1_5 3.300856 1_555
Ca2_5 Cd1_1 3.300856 1_655
Ca2_5 Ca3_5 3.696348 1_555
Ca2_6 Cd2_0 3.286742 1_665
Ca2_6 Cd2_2 3.286742 1_655
Ca2_6 Cd2_4 3.286742 1_565
Ca2_6 Cd2_6 3.286742 1_555
Ca2_6 Cd1_6 3.300856 1_555
Ca2_6 Cd1_0 3.300856 1_665
Ca2_6 Cd1_4 3.300856 1_565
Ca2_6 Cd1_2 3.300856 1_655
Ca2_6 Ca3_6 3.696348 1_555
Ca2_7 Cd2_3 3.286742 1_655
Ca2_7 Cd2_1 3.286742 1_665
Ca2_7 Cd2_5 3.286742 1_565
Ca2_7 Cd2_7 3.286742 1_555
Ca2_7 Cd1_5 3.300856 1_565
Ca2_7 Cd1_1 3.300856 1_665
Ca2_7 Cd1_7 3.300856 1_555
Ca2_7 Cd1_3 3.300856 1_655
Ca2_7 Ca3_7 3.696348 1_555
Ca3_0 Cd2_0 3.343986 1_555
Ca3_0 Cd2_4 3.343986 1_555
Ca3_0 Cd2_2 3.343986 1_555
Ca3_0 Cd2_6 3.343986 1_555
Ca3_0 Ca3_2 3.892062 1_555
Ca3_0 Ca3_4 3.892062 1_555
Ca3_0 Ca3_2 3.892062 1_545
Ca3_0 Ca3_4 3.892062 1_455
Ca3_1 Cd2_1 3.343986 1_555
Ca3_1 Cd2_5 3.343986 1_555
Ca3_1 Cd2_3 3.343986 1_555
Ca3_1 Cd2_7 3.343986 1_555
Ca3_1 Ca3_5 3.892062 1_455
Ca3_1 Ca3_5 3.892062 1_555
Ca3_1 Ca3_3 3.892062 1_545
Ca3_1 Ca3_3 3.892062 1_555
Ca3_2 Cd2_0 3.343986 1_565
Ca3_2 Cd2_4 3.343986 1_565
Ca3_2 Cd2_2 3.343986 1_555
Ca3_2 Cd2_6 3.343986 1_555
Ca3_2 Ca3_6 3.892062 1_555
Ca3_2 Ca3_6 3.892062 1_455
Ca3_3 Cd2_3 3.343986 1_555
Ca3_3 Cd2_1 3.343986 1_565
Ca3_3 Cd2_5 3.343986 1_565
Ca3_3 Cd2_7 3.343986 1_555
Ca3_3 Ca3_7 3.892062 1_555
Ca3_3 Ca3_7 3.892062 1_455
Ca3_4 Cd2_4 3.343986 1_555
Ca3_4 Cd2_0 3.343986 1_655
Ca3_4 Cd2_2 3.343986 1_655
Ca3_4 Cd2_6 3.343986 1_555
Ca3_4 Ca3_6 3.892062 1_555
Ca3_4 Ca3_6 3.892062 1_545
Ca3_5 Cd2_5 3.343986 1_555
Ca3_5 Cd2_1 3.343986 1_655
Ca3_5 Cd2_7 3.343986 1_555
Ca3_5 Cd2_3 3.343986 1_655
Ca3_5 Ca3_7 3.892062 1_555
Ca3_5 Ca3_7 3.892062 1_545
Ca3_6 Cd2_0 3.343986 1_665
Ca3_6 Cd2_4 3.343986 1_565
Ca3_6 Cd2_6 3.343986 1_555
Ca3_6 Cd2_2 3.343986 1_655
Ca3_7 Cd2_1 3.343986 1_665
Ca3_7 Cd2_5 3.343986 1_565
Ca3_7 Cd2_7 3.343986 1_555
Ca3_7 Cd2_3 3.343986 1_655
Au0_0 Ca0_0 3.235636 1_555
Au0_0 Ca0_2 3.235636 1_545
Au0_0 Ca0_4 3.235636 1_455
Au0_0 Ca0_6 3.235636 1_445
Au0_0 Ca3_7 3.235636 1_444
Au0_0 Ca3_3 3.235636 1_544
Au0_0 Ca3_5 3.235636 1_454
Au0_0 Ca3_1 3.235636 1_554
Au0_1 Ca0_3 3.235636 1_545
Au0_1 Ca0_7 3.235636 1_445
Au0_1 Ca0_1 3.235636 1_555
Au0_1 Ca0_5 3.235636 1_455
Au0_1 Ca3_0 3.235636 1_555
Au0_1 Ca3_2 3.235636 1_545
Au0_1 Ca3_4 3.235636 1_455
Au0_1 Ca3_6 3.235636 1_445
Au0_2 Ca0_2 3.235636 1_555
Au0_2 Ca0_6 3.235636 1_455
Au0_2 Ca0_0 3.235636 1_555
Au0_2 Ca0_4 3.235636 1_455
Au0_2 Ca3_7 3.235636 1_454
Au0_2 Ca3_3 3.235636 1_554
Au0_2 Ca3_5 3.235636 1_454
Au0_2 Ca3_1 3.235636 1_554
Au0_3 Ca0_3 3.235636 1_555
Au0_3 Ca0_7 3.235636 1_455
Au0_3 Ca0_1 3.235636 1_555
Au0_3 Ca0_5 3.235636 1_455
Au0_3 Ca3_2 3.235636 1_555
Au0_3 Ca3_6 3.235636 1_455
Au0_3 Ca3_4 3.235636 1_455
Au0_3 Ca3_0 3.235636 1_555
Au0_4 Ca0_0 3.235636 1_555
Au0_4 Ca0_2 3.235636 1_545
Au0_4 Ca0_6 3.235636 1_545
Au0_4 Ca0_4 3.235636 1_555
Au0_4 Ca3_7 3.235636 1_544
Au0_4 Ca3_3 3.235636 1_544
Au0_4 Ca3_1 3.235636 1_554
Au0_4 Ca3_5 3.235636 1_554
Au0_5 Ca0_5 3.235636 1_555
Au0_5 Ca0_3 3.235636 1_545
Au0_5 Ca0_7 3.235636 1_545
Au0_5 Ca0_1 3.235636 1_555
Au0_5 Ca3_4 3.235636 1_555
Au0_5 Ca3_2 3.235636 1_545
Au0_5 Ca3_6 3.235636 1_545
Au0_5 Ca3_0 3.235636 1_555
Au0_6 Ca0_2 3.235636 1_555
Au0_6 Ca0_0 3.235636 1_555
Au0_6 Ca0_6 3.235636 1_555
Au0_6 Ca0_4 3.235636 1_555
Au0_6 Ca3_3 3.235636 1_554
Au0_6 Ca3_7 3.235636 1_554
Au0_6 Ca3_1 3.235636 1_554
Au0_6 Ca3_5 3.235636 1_554
Au0_7 Ca0_5 3.235636 1_555
Au0_7 Ca0_3 3.235636 1_555
Au0_7 Ca0_7 3.235636 1_555
Au0_7 Ca0_1 3.235636 1_555
Au0_7 Ca3_2 3.235636 1_555
Au0_7 Ca3_4 3.235636 1_555
Au0_7 Ca3_6 3.235636 1_555
Au0_7 Ca3_0 3.235636 1_555
