# generated using pymatgen
data_Al4InAgS8
_symmetry_space_group_name_H-M   'P 1'
_cell_length_a   7.36590611
_cell_length_b   7.36590611
_cell_length_c   7.36590641
_cell_angle_alpha   59.21344404
_cell_angle_beta   59.21344404
_cell_angle_gamma   59.21344782
_symmetry_Int_Tables_number   1
_chemical_formula_structural   Al4InAgS8
_chemical_formula_sum   'Al4 In1 Ag1 S8'
_cell_volume   277.53055119
_cell_formula_units_Z   1
loop_
 _symmetry_equiv_pos_site_id
 _symmetry_equiv_pos_as_xyz
  1  'x, y, z'
loop_
 _atom_site_type_symbol
 _atom_site_label
 _atom_site_symmetry_multiplicity
 _atom_site_fract_x
 _atom_site_fract_y
 _atom_site_fract_z
 _atom_site_occupancy
  Al  Al0  1  0.37525600  0.37525600  0.37525600  1
  Al  Al1  1  0.52287200  0.99158600  0.99158600  1
  Al  Al2  1  0.99158600  0.99158600  0.52287200  1
  Al  Al3  1  0.99158600  0.52287200  0.99158600  1
  In  In0  1  0.99589100  0.99589100  0.99589100  1
  Ag  Ag0  1  0.62760900  0.62760900  0.62760900  1
  S  S0  1  0.21818800  0.75026800  0.75026800  1
  S  S1  1  0.75026800  0.75026800  0.21818800  1
  S  S2  1  0.75026800  0.21818800  0.75026800  1
  S  S3  1  0.76183000  0.76183000  0.76183000  1
  S  S4  1  0.76951700  0.25152300  0.25152300  1
  S  S5  1  0.25152300  0.25152300  0.76951700  1
  S  S6  1  0.25152300  0.76951700  0.25152300  1
  S  S7  1  0.24208100  0.24208100  0.24208100  1
loop_
_geom_bond_atom_site_label_1
_geom_bond_atom_site_label_2
_geom_bond_distance
_geom_bond_site_symmetry_2
Al0 S6 2.350833 1_555
Al0 S4 2.350833 1_555
Al0 S5 2.350833 1_555
Al0 S7 2.417023 1_555
Al1 S2 2.351190 1_565
Al1 S1 2.351190 1_556
Al1 S3 2.378971 1_555
Al1 S6 2.561200 1_556
Al1 S5 2.561201 1_565
Al1 S7 2.599736 1_566
Al2 S2 2.351190 1_565
Al2 S0 2.351190 1_655
Al2 S3 2.378971 1_555
Al2 S6 2.561201 1_655
Al2 S4 2.561201 1_565
Al2 S7 2.599735 1_665
Al3 S0 2.351190 1_655
Al3 S1 2.351190 1_556
Al3 S3 2.378971 1_555
Al3 S4 2.561200 1_556
Al3 S5 2.561201 1_655
Al3 S7 2.599736 1_656
In0 S1 2.552135 1_556
In0 S2 2.552135 1_565
In0 S0 2.552135 1_655
In0 S5 2.659471 1_665
In0 S6 2.659471 1_656
In0 S4 2.659471 1_566
Ag0 S3 2.436007 1_555
Ag0 S0 2.446330 1_555
Ag0 S2 2.446330 1_555
Ag0 S1 2.446330 1_555
