# generated using pymatgen
data_Ba4Nd4Ti3Mn(Cu2O11)2
_symmetry_space_group_name_H-M   'P 1'
_cell_length_a   5.55719321
_cell_length_b   5.55719321
_cell_length_c   15.97814700
_cell_angle_alpha   90.00000000
_cell_angle_beta   90.00000000
_cell_angle_gamma   90.00000000
_symmetry_Int_Tables_number   1
_chemical_formula_structural   Ba4Nd4Ti3Mn(Cu2O11)2
_chemical_formula_sum   'Ba4 Nd4 Ti3 Mn1 Cu4 O22'
_cell_volume   493.44346817
_cell_formula_units_Z   1
loop_
 _symmetry_equiv_pos_site_id
 _symmetry_equiv_pos_as_xyz
  1  'x, y, z'
loop_
 _atom_site_type_symbol
 _atom_site_label
 _atom_site_symmetry_multiplicity
 _atom_site_fract_x
 _atom_site_fract_y
 _atom_site_fract_z
 _atom_site_occupancy
  Ba  Ba0  1  0.50000000  0.00000000  0.76408400  1
  Ba  Ba1  1  0.00000000  0.50000000  0.76408400  1
  Ba  Ba2  1  0.50000000  0.00000000  0.23360400  1
  Ba  Ba3  1  0.00000000  0.50000000  0.23360400  1
  Nd  Nd0  1  0.50000000  0.00000000  0.99953800  1
  Nd  Nd1  1  0.00000000  0.50000000  0.99953800  1
  Nd  Nd2  1  0.50000000  0.00000000  0.50157700  1
  Nd  Nd3  1  0.00000000  0.50000000  0.50157700  1
  Ti  Ti0  1  0.50000000  0.50000000  0.62605800  1
  Ti  Ti1  1  0.00000000  0.00000000  0.37480400  1
  Ti  Ti2  1  0.50000000  0.50000000  0.37453700  1
  Mn  Mn0  1  0.00000000  0.00000000  0.62314300  1
  Cu  Cu0  1  0.00000000  0.00000000  0.89070800  1
  Cu  Cu1  1  0.50000000  0.50000000  0.89207100  1
  Cu  Cu2  1  0.00000000  0.00000000  0.10742800  1
  Cu  Cu3  1  0.50000000  0.50000000  0.10764900  1
  O  O0  1  0.24996600  0.24996600  0.90389800  1
  O  O1  1  0.75003400  0.75003400  0.90389800  1
  O  O2  1  0.24996600  0.75003400  0.90389800  1
  O  O3  1  0.75003400  0.24996600  0.90389800  1
  O  O4  1  0.24988600  0.24988600  0.09635300  1
  O  O5  1  0.75011400  0.75011400  0.09635300  1
  O  O6  1  0.24988600  0.75011400  0.09635300  1
  O  O7  1  0.75011400  0.24988600  0.09635300  1
  O  O8  1  0.00000000  0.00000000  0.74035200  1
  O  O9  1  0.50000000  0.50000000  0.74165400  1
  O  O10  1  0.00000000  0.00000000  0.25910000  1
  O  O11  1  0.50000000  0.50000000  0.25829500  1
  O  O12  1  0.24735800  0.24735800  0.61228800  1
  O  O13  1  0.75264200  0.75264200  0.61228800  1
  O  O14  1  0.24735800  0.75264200  0.61228800  1
  O  O15  1  0.75264200  0.24735800  0.61228800  1
  O  O16  1  0.25004400  0.25004400  0.38823000  1
  O  O17  1  0.74995600  0.74995600  0.38823000  1
  O  O18  1  0.25004400  0.74995600  0.38823000  1
  O  O19  1  0.74995600  0.25004400  0.38823000  1
  O  O20  1  0.00000000  0.00000000  0.50213800  1
  O  O21  1  0.50000000  0.50000000  0.50137700  1
loop_
_geom_bond_atom_site_label_1
_geom_bond_atom_site_label_2
_geom_bond_distance
_geom_bond_site_symmetry_2
Ba0 O9 2.801614 1_555
Ba0 O9 2.801614 1_545
Ba0 O8 2.804351 1_555
Ba0 O8 2.804351 1_655
Ba0 O1 2.975049 1_545
Ba0 O0 2.975049 1_555
Ba0 O3 2.975049 1_555
Ba0 O2 2.975049 1_545
Ba0 O15 3.121440 1_555
Ba0 O13 3.121440 1_545
Ba0 O12 3.121440 1_555
Ba0 O14 3.121440 1_545
Ba1 O9 2.801614 1_455
Ba1 O9 2.801614 1_555
Ba1 O8 2.804351 1_555
Ba1 O8 2.804351 1_565
Ba1 O2 2.975049 1_555
Ba1 O3 2.975049 1_455
Ba1 O1 2.975049 1_455
Ba1 O0 2.975049 1_555
Ba1 O14 3.121440 1_555
Ba1 O13 3.121440 1_455
Ba1 O12 3.121440 1_555
Ba1 O15 3.121440 1_455
Ba2 O11 2.806464 1_545
Ba2 O11 2.806464 1_555
Ba2 O10 2.808301 1_555
Ba2 O10 2.808301 1_655
Ba2 O7 2.944422 1_555
Ba2 O4 2.944422 1_555
Ba2 O6 2.944422 1_545
Ba2 O5 2.944422 1_545
Ba2 O19 3.156635 1_555
Ba2 O16 3.156635 1_555
Ba2 O17 3.156635 1_545
Ba2 O18 3.156635 1_545
Ba3 O11 2.806464 1_455
Ba3 O11 2.806464 1_555
Ba3 O10 2.808301 1_565
Ba3 O10 2.808301 1_555
Ba3 O6 2.944422 1_555
Ba3 O7 2.944422 1_455
Ba3 O5 2.944422 1_455
Ba3 O4 2.944422 1_555
Ba3 O18 3.156635 1_555
Ba3 O17 3.156635 1_455
Ba3 O19 3.156635 1_455
Ba3 O16 3.156635 1_555
Nd0 O3 2.489085 1_555
Nd0 O2 2.489085 1_545
Nd0 O1 2.489085 1_545
Nd0 O0 2.489085 1_555
Nd0 O7 2.500655 1_556
Nd0 O4 2.500655 1_556
Nd0 O6 2.500655 1_546
Nd0 O5 2.500655 1_546
Nd1 O2 2.489085 1_555
Nd1 O3 2.489085 1_455
Nd1 O0 2.489085 1_555
Nd1 O1 2.489085 1_455
Nd1 O6 2.500655 1_556
Nd1 O5 2.500655 1_456
Nd1 O4 2.500655 1_556
Nd1 O7 2.500655 1_456
Nd2 O15 2.643849 1_555
Nd2 O13 2.643849 1_545
Nd2 O12 2.643849 1_555
Nd2 O14 2.643849 1_545
Nd2 O17 2.672133 1_545
Nd2 O19 2.672133 1_555
Nd2 O16 2.672133 1_555
Nd2 O18 2.672133 1_545
Nd2 O21 2.778598 1_545
Nd2 O21 2.778598 1_555
Nd2 O20 2.778611 1_655
Nd2 O20 2.778611 1_555
Nd3 O14 2.643849 1_555
Nd3 O13 2.643849 1_455
Nd3 O12 2.643849 1_555
Nd3 O15 2.643849 1_455
Nd3 O16 2.672133 1_555
Nd3 O18 2.672133 1_555
Nd3 O17 2.672133 1_455
Nd3 O19 2.672133 1_455
Nd3 O21 2.778598 1_455
Nd3 O21 2.778598 1_555
Nd3 O20 2.778611 1_565
Nd3 O20 2.778611 1_555
Mn0 O8 1.872783 1_555
Mn0 O20 1.933436 1_555
Mn0 O12 1.951723 1_555
Mn0 O15 1.951723 1_455
Mn0 O14 1.951723 1_545
Mn0 O13 1.951723 1_445
Cu0 O0 1.975770 1_555
Cu0 O3 1.975770 1_455
Cu0 O2 1.975770 1_545
Cu0 O1 1.975770 1_445
Cu0 O8 2.402410 1_555
Cu1 O0 1.974097 1_555
Cu1 O2 1.974097 1_555
Cu1 O3 1.974097 1_555
Cu1 O1 1.974097 1_555
Cu1 O9 2.403385 1_555
Cu2 O4 1.971825 1_555
Cu2 O6 1.971825 1_545
Cu2 O7 1.971825 1_455
Cu2 O5 1.971825 1_445
Cu2 O10 2.423438 1_555
Cu3 O5 1.973929 1_555
Cu3 O6 1.973929 1_555
Cu3 O7 1.973929 1_555
Cu3 O4 1.973929 1_555
Cu3 O11 2.407044 1_555
O9 Ti0 1.847010 1_555
O10 Ti1 1.848736 1_555
O11 Ti2 1.857332 1_555
O12 Ti0 1.997681 1_555
O13 Ti0 1.997681 1_555
O14 Ti0 1.997681 1_555
O15 Ti0 1.997681 1_555
O16 Ti2 1.976565 1_555
O16 Ti1 1.976785 1_555
O17 Ti2 1.976565 1_555
O17 Ti1 1.976785 1_665
O18 Ti2 1.976565 1_555
O18 Ti1 1.976785 1_565
O19 Ti2 1.976565 1_555
O19 Ti1 1.976785 1_655
O20 Ti1 2.034561 1_555
O21 Ti0 1.992171 1_555
O21 Ti2 2.026668 1_555
