# generated using pymatgen
data_Mg2AlW3S8
_symmetry_space_group_name_H-M   'P 1'
_cell_length_a   7.43896703
_cell_length_b   7.48881486
_cell_length_c   7.43847090
_cell_angle_alpha   56.24140719
_cell_angle_beta   55.68870031
_cell_angle_gamma   56.17945970
_symmetry_Int_Tables_number   1
_chemical_formula_structural   Mg2AlW3S8
_chemical_formula_sum   'Mg2 Al1 W3 S8'
_cell_volume   266.10018466
_cell_formula_units_Z   1
loop_
 _symmetry_equiv_pos_site_id
 _symmetry_equiv_pos_as_xyz
  1  'x, y, z'
loop_
 _atom_site_type_symbol
 _atom_site_label
 _atom_site_symmetry_multiplicity
 _atom_site_fract_x
 _atom_site_fract_y
 _atom_site_fract_z
 _atom_site_occupancy
  Mg  Mg0  1  0.89050000  0.88508274  0.88980454  1
  Mg  Mg1  1  0.14169695  0.13618586  0.14052542  1
  Al  Al0  1  0.48279964  0.48146518  0.48318905  1
  W  W0  1  0.53756188  0.52934647  0.93537045  1
  W  W1  1  0.93433398  0.52960134  0.53758657  1
  W  W2  1  0.52852988  0.94902974  0.52785197  1
  S  S0  1  0.75499777  0.76293034  0.75536708  1
  S  S1  1  0.24579481  0.25283644  0.72287421  1
  S  S2  1  0.24909516  0.72239842  0.25019373  1
  S  S3  1  0.72331798  0.25233321  0.24620126  1
  S  S4  1  0.72182497  0.28366781  0.72241987  1
  S  S5  1  0.29467015  0.72144124  0.72312370  1
  S  S6  1  0.27207860  0.27274090  0.27151454  1
  S  S7  1  0.72280222  0.72093530  0.29397862  1
loop_
_geom_bond_atom_site_label_1
_geom_bond_atom_site_label_2
_geom_bond_distance
_geom_bond_site_symmetry_2
Mg0 S5 2.337355 1_655
Mg0 S7 2.340397 1_556
Mg0 S4 2.344352 1_565
Mg0 S0 2.456102 1_555
Mg1 S1 2.457422 1_554
Mg1 S3 2.459509 1_455
Mg1 S2 2.464865 1_545
Mg1 S6 2.492552 1_555
Al0 S3 2.375201 1_555
Al0 S1 2.375407 1_555
Al0 S2 2.389832 1_555
Al0 S4 2.495625 1_555
Al0 S7 2.512105 1_555
Al0 S5 2.514491 1_555
S0 W1 2.360472 1_555
S0 W0 2.360936 1_555
S0 W2 2.371475 1_555
S1 W2 2.570203 1_545
S1 W1 2.577442 1_455
S2 W0 2.612064 1_554
S2 W1 2.612871 1_455
S3 W2 2.569184 1_545
S3 W0 2.576614 1_554
S4 W0 2.399340 1_555
S4 W1 2.399567 1_555
S5 W0 2.371741 1_555
S5 W2 2.396169 1_555
S6 W2 2.639588 1_545
S6 W0 2.676300 1_554
S6 W1 2.678614 1_455
S7 W1 2.373161 1_555
S7 W2 2.398542 1_555
