# generated using pymatgen
data_Tb2ZnCu
_symmetry_space_group_name_H-M   'P 1'
_cell_length_a   3.52353537
_cell_length_b   3.52353537
_cell_length_c   6.96139919
_cell_angle_alpha   90.00000000
_cell_angle_beta   90.00000000
_cell_angle_gamma   90.00000000
_symmetry_Int_Tables_number   1
_chemical_formula_structural   Tb2ZnCu
_chemical_formula_sum   'Tb2 Zn1 Cu1'
_cell_volume   86.42786983
_cell_formula_units_Z   1
loop_
 _symmetry_equiv_pos_site_id
 _symmetry_equiv_pos_as_xyz
  1  'x, y, z'
loop_
 _atom_site_type_symbol
 _atom_site_label
 _atom_site_symmetry_multiplicity
 _atom_site_fract_x
 _atom_site_fract_y
 _atom_site_fract_z
 _atom_site_occupancy
  Tb  Tb0  1  0.50000000  0.50000000  0.24352571  1
  Tb  Tb1  1  0.50000000  0.50000000  0.75647429  1
  Zn  Zn0  1  0.00000000  -0.00000000  0.50000000  1
  Cu  Cu0  1  0.00000000  -0.00000000  0.00000000  1
loop_
_geom_bond_atom_site_label_1
_geom_bond_atom_site_label_2
_geom_bond_distance
_geom_bond_site_symmetry_2
Tb0 Zn0 3.065188 1_655
Tb0 Zn0 3.065188 1_555
Tb0 Zn0 3.065188 1_565
Tb0 Zn0 3.065188 1_665
Tb1 Zn0 3.065188 1_655
Tb1 Zn0 3.065188 1_555
Tb1 Zn0 3.065188 1_565
Tb1 Zn0 3.065188 1_665
Cu0 Tb1 3.013573 1_544
Cu0 Tb1 3.013573 1_554
Cu0 Tb0 3.013573 1_555
Cu0 Tb1 3.013573 1_444
Cu0 Tb0 3.013573 1_455
Cu0 Tb0 3.013573 1_445
Cu0 Tb0 3.013573 1_545
Cu0 Tb1 3.013573 1_454
