# generated using pymatgen
data_Ca4Mn2O7
_symmetry_space_group_name_H-M   'P 1'
_cell_length_a   5.42212100
_cell_length_b   6.73668340
_cell_length_c   10.10107100
_cell_angle_alpha   89.99998236
_cell_angle_beta   89.99995618
_cell_angle_gamma   66.26631531
_symmetry_Int_Tables_number   1
_chemical_formula_structural   Ca4Mn2O7
_chemical_formula_sum   'Ca8 Mn4 O14'
_cell_volume   337.75833091
_cell_formula_units_Z   2
loop_
 _symmetry_equiv_pos_site_id
 _symmetry_equiv_pos_as_xyz
  1  'x, y, z'
loop_
 _atom_site_type_symbol
 _atom_site_label
 _atom_site_symmetry_multiplicity
 _atom_site_fract_x
 _atom_site_fract_y
 _atom_site_fract_z
 _atom_site_occupancy
  Ca  Ca0  1  0.05466600  0.30440000  0.12515800  1
  Ca  Ca1  1  0.85899400  0.69561400  0.37482200  1
  Ca  Ca2  1  0.44533500  0.69560000  0.62515800  1
  Ca  Ca3  1  0.64100500  0.30438600  0.87482200  1
  Ca  Ca4  1  0.35903600  0.69560400  0.12516700  1
  Ca  Ca5  1  0.55463200  0.30439300  0.37483000  1
  Ca  Ca6  1  0.14096500  0.30439600  0.62516600  1
  Ca  Ca7  1  0.94536600  0.69560700  0.87483000  1
  Mn  Mn0  1  0.23229800  0.00000600  0.37533400  1
  Mn  Mn1  1  0.26770300  0.99999500  0.87532600  1
  Mn  Mn2  1  0.73229700  0.00000100  0.12469800  1
  Mn  Mn3  1  0.76770300  0.00000000  0.62469400  1
  O  O0  1  0.49998400  0.00000100  0.50000300  1
  O  O1  1  0.00001700  0.99999900  0.00000300  1
  O  O2  1  0.08735700  0.00001100  0.69303100  1
  O  O3  1  0.58740500  0.00000900  0.80697300  1
  O  O4  1  0.41264400  0.99999000  0.19303100  1
  O  O5  1  0.91259300  0.99999100  0.30697400  1
  O  O6  1  0.89975500  0.67786700  0.12021900  1
  O  O7  1  0.07750900  0.32213800  0.37977900  1
  O  O8  1  0.60024600  0.32213300  0.62021800  1
  O  O9  1  0.42249100  0.67786200  0.87977800  1
  O  O10  1  0.10026200  0.32213600  0.87977700  1
  O  O11  1  0.92247000  0.67786900  0.62021600  1
  O  O12  1  0.57753100  0.32213100  0.12021700  1
  O  O13  1  0.39973800  0.67786300  0.37977800  1
loop_
_geom_bond_atom_site_label_1
_geom_bond_atom_site_label_2
_geom_bond_distance
_geom_bond_site_symmetry_2
Ca0 O4 2.288843 1_545
Ca0 O6 2.310150 1_455
Ca0 O10 2.498537 1_554
Ca0 O1 2.525928 1_545
Ca0 O12 2.541851 1_455
Ca0 O7 2.580007 1_555
Ca0 O12 2.885618 1_555
Ca1 O5 2.288746 1_555
Ca1 O7 2.310171 1_655
Ca1 O11 2.498758 1_555
Ca1 O0 2.525818 1_565
Ca1 O13 2.541125 1_555
Ca1 O6 2.579890 1_555
Ca1 O13 2.886360 1_655
Ca2 O2 2.288847 1_565
Ca2 O8 2.310150 1_555
Ca2 O13 2.498528 1_555
Ca2 O0 2.525927 1_565
Ca2 O11 2.541851 1_555
Ca2 O9 2.579997 1_555
Ca2 O11 2.885618 1_455
Ca3 O3 2.288752 1_555
Ca3 O9 2.310170 1_555
Ca3 O12 2.498766 1_556
Ca3 O1 2.525823 1_646
Ca3 O10 2.541127 1_655
Ca3 O8 2.579900 1_555
Ca3 O10 2.886357 1_555
Ca4 O4 2.288876 1_555
Ca4 O12 2.310143 1_555
Ca4 O9 2.498694 1_554
Ca4 O1 2.525781 1_555
Ca4 O6 2.541217 1_455
Ca4 O13 2.579949 1_555
Ca4 O6 2.886258 1_555
Ca5 O5 2.288717 1_545
Ca5 O13 2.310178 1_555
Ca5 O8 2.498621 1_555
Ca5 O0 2.525964 1_555
Ca5 O7 2.541753 1_555
Ca5 O12 2.579946 1_555
Ca5 O7 2.885726 1_655
Ca6 O2 2.288872 1_555
Ca6 O11 2.310143 1_455
Ca6 O7 2.498675 1_555
Ca6 O0 2.525775 1_555
Ca6 O8 2.541217 1_555
Ca6 O10 2.579949 1_555
Ca6 O8 2.886258 1_455
Ca7 O3 2.288720 1_565
Ca7 O10 2.310183 1_655
Ca7 O6 2.498629 1_556
Ca7 O1 2.525972 1_656
Ca7 O9 2.541764 1_655
Ca7 O11 2.579955 1_555
Ca7 O9 2.885715 1_555
Mn0 O5 1.865984 1_445
Mn0 O0 1.921565 1_555
Mn0 O7 1.987368 1_555
Mn0 O13 1.987440 1_545
Mn0 O4 2.084964 1_545
Mn1 O3 1.865939 1_565
Mn1 O1 1.921619 1_556
Mn1 O9 1.987376 1_555
Mn1 O10 1.987430 1_565
Mn1 O2 2.084894 1_565
Mn2 O4 1.865610 1_545
Mn2 O1 1.921881 1_645
Mn2 O12 1.987366 1_555
Mn2 O6 1.987395 1_545
Mn2 O5 2.084605 1_545
Mn3 O2 1.865631 1_655
Mn3 O0 1.921854 1_555
Mn3 O11 1.987372 1_545
Mn3 O8 1.987388 1_555
Mn3 O3 2.084637 1_555
