# generated using pymatgen
data_Gd(CuSn)2
_symmetry_space_group_name_H-M   'P 1'
_cell_length_a   4.36987957
_cell_length_b   4.36987957
_cell_length_c   10.70248060
_cell_angle_alpha   90.00000000
_cell_angle_beta   90.00000000
_cell_angle_gamma   90.00000000
_symmetry_Int_Tables_number   1
_chemical_formula_structural   Gd(CuSn)2
_chemical_formula_sum   'Gd2 Cu4 Sn4'
_cell_volume   204.37293694
_cell_formula_units_Z   2
loop_
 _symmetry_equiv_pos_site_id
 _symmetry_equiv_pos_as_xyz
  1  'x, y, z'
loop_
 _atom_site_type_symbol
 _atom_site_label
 _atom_site_symmetry_multiplicity
 _atom_site_fract_x
 _atom_site_fract_y
 _atom_site_fract_z
 _atom_site_occupancy
  Gd  Gd0  1  0.00000000  0.50000000  0.23716957  1
  Gd  Gd1  1  0.50000000  -0.00000000  0.76283143  1
  Cu  Cu0  1  -0.00000000  0.00000000  0.00005722  1
  Cu  Cu1  1  0.50000000  0.50000000  0.00005722  1
  Cu  Cu2  1  0.00000000  0.50000000  0.63852767  1
  Cu  Cu3  1  0.50000000  0.00000000  0.36141767  1
  Sn  Sn0  1  -0.00000000  -0.00000000  0.49995553  1
  Sn  Sn1  1  0.50000000  0.50000000  0.49995553  1
  Sn  Sn2  1  0.00000000  0.50000000  0.87148168  1
  Sn  Sn3  1  0.50000000  -0.00000000  0.12854549  1
loop_
_geom_bond_atom_site_label_1
_geom_bond_atom_site_label_2
_geom_bond_distance
_geom_bond_site_symmetry_2
Gd0 Sn3 3.301430 1_555
Gd0 Sn3 3.301430 1_465
Gd0 Sn3 3.301430 1_455
Gd0 Sn3 3.301430 1_565
Gd0 Sn1 3.561447 1_555
Gd0 Sn0 3.561447 1_565
Gd0 Sn1 3.561447 1_455
Gd0 Sn0 3.561447 1_555
Gd1 Sn2 3.301529 1_545
Gd1 Sn2 3.301529 1_555
Gd1 Sn2 3.301529 1_645
Gd1 Sn2 3.301529 1_655
Gd1 Sn0 3.562207 1_555
Gd1 Sn0 3.562207 1_655
Gd1 Sn1 3.562207 1_545
Gd1 Sn1 3.562207 1_555
Cu0 Sn3 2.581662 1_455
Cu0 Sn3 2.581662 1_555
Cu0 Sn2 2.582160 1_554
Cu0 Sn2 2.582160 1_544
Cu0 Gd0 3.348706 1_555
Cu0 Gd0 3.348706 1_545
Cu0 Gd1 3.349626 1_454
Cu0 Gd1 3.349626 1_554
Cu1 Sn3 2.581662 1_565
Cu1 Sn3 2.581662 1_555
Cu1 Sn2 2.582160 1_654
Cu1 Sn2 2.582160 1_554
Cu1 Gd0 3.348706 1_555
Cu1 Gd0 3.348706 1_655
Cu1 Gd1 3.349626 1_554
Cu1 Gd1 3.349626 1_564
Cu2 Sn2 2.493186 1_555
Cu2 Sn1 2.640728 1_555
Cu2 Sn0 2.640728 1_565
Cu2 Sn1 2.640728 1_455
Cu2 Sn0 2.640728 1_555
Cu2 Gd1 3.364190 1_565
Cu2 Gd1 3.364190 1_455
Cu2 Gd1 3.364190 1_465
Cu2 Gd1 3.364190 1_555
Cu3 Sn3 2.492310 1_555
Cu3 Sn0 2.640522 1_655
Cu3 Sn1 2.640522 1_555
Cu3 Sn1 2.640522 1_545
Cu3 Sn0 2.640522 1_555
Cu3 Gd0 3.363955 1_655
Cu3 Gd0 3.363955 1_545
Cu3 Gd0 3.363955 1_645
Cu3 Gd0 3.363955 1_555
