# generated using pymatgen
data_Mg2CoW3S8
_symmetry_space_group_name_H-M   'P 1'
_cell_length_a   7.38308456
_cell_length_b   7.38033606
_cell_length_c   7.37752107
_cell_angle_alpha   55.93887770
_cell_angle_beta   55.88109313
_cell_angle_gamma   55.79237515
_symmetry_Int_Tables_number   1
_chemical_formula_structural   Mg2CoW3S8
_chemical_formula_sum   'Mg2 Co1 W3 S8'
_cell_volume   257.04667539
_cell_formula_units_Z   1
loop_
 _symmetry_equiv_pos_site_id
 _symmetry_equiv_pos_as_xyz
  1  'x, y, z'
loop_
 _atom_site_type_symbol
 _atom_site_label
 _atom_site_symmetry_multiplicity
 _atom_site_fract_x
 _atom_site_fract_y
 _atom_site_fract_z
 _atom_site_occupancy
  Mg  Mg0  1  0.89217800  0.89188700  0.89253200  1
  Mg  Mg1  1  0.13857800  0.13868800  0.13842900  1
  Co  Co0  1  0.48602700  0.48619400  0.48610800  1
  W  W0  1  0.53222300  0.53201800  0.93956600  1
  W  W1  1  0.93922500  0.53240100  0.53198000  1
  W  W2  1  0.53245400  0.93944100  0.53183300  1
  S  S0  1  0.75930600  0.75985000  0.76049400  1
  S  S1  1  0.25558400  0.25580800  0.71418500  1
  S  S2  1  0.25517300  0.71399000  0.25607100  1
  S  S3  1  0.71359200  0.25575400  0.25647000  1
  S  S4  1  0.71477500  0.29449700  0.71358000  1
  S  S5  1  0.29503600  0.71427600  0.71350600  1
  S  S6  1  0.27178700  0.27153100  0.27087700  1
  S  S7  1  0.71406800  0.71366000  0.29437000  1
loop_
_geom_bond_atom_site_label_1
_geom_bond_atom_site_label_2
_geom_bond_distance
_geom_bond_site_symmetry_2
Mg0 S7 2.334863 1_556
Mg0 S4 2.336095 1_565
Mg0 S5 2.336215 1_655
Mg0 S0 2.463957 1_555
Mg1 S1 2.462813 1_554
Mg1 S2 2.464938 1_545
Mg1 S3 2.465638 1_455
Mg1 S6 2.473596 1_555
Co0 S3 2.325282 1_555
Co0 S2 2.332100 1_555
Co0 S1 2.335262 1_555
Co0 S5 2.340297 1_555
Co0 S7 2.345242 1_555
Co0 S4 2.345961 1_555
S0 W1 2.361165 1_555
S0 W2 2.361508 1_555
S0 W0 2.362261 1_555
S1 W2 2.550905 1_545
S1 W1 2.552833 1_455
S2 W0 2.550658 1_554
S2 W1 2.552151 1_455
S3 W2 2.552568 1_545
S3 W0 2.553215 1_554
S4 W0 2.401150 1_555
S4 W1 2.402043 1_555
S5 W0 2.402558 1_555
S5 W2 2.403181 1_555
S6 W1 2.641824 1_455
S6 W2 2.642854 1_545
S6 W0 2.643461 1_554
S7 W2 2.401299 1_555
S7 W1 2.401611 1_555
