# generated using pymatgen
data_Ta5Zn7O18
_symmetry_space_group_name_H-M   'P 1'
_cell_length_a   8.83756317
_cell_length_b   8.83756317
_cell_length_c   10.58746648
_cell_angle_alpha   87.74635980
_cell_angle_beta   87.74635980
_cell_angle_gamma   63.54046134
_symmetry_Int_Tables_number   1
_chemical_formula_structural   Ta5Zn7O18
_chemical_formula_sum   'Ta10 Zn14 O36'
_cell_volume   739.49630256
_cell_formula_units_Z   2
loop_
 _symmetry_equiv_pos_site_id
 _symmetry_equiv_pos_as_xyz
  1  'x, y, z'
loop_
 _atom_site_type_symbol
 _atom_site_label
 _atom_site_symmetry_multiplicity
 _atom_site_fract_x
 _atom_site_fract_y
 _atom_site_fract_z
 _atom_site_occupancy
  Ta  Ta0  1  0.69980200  0.00124700  0.26519900  1
  Ta  Ta1  1  0.30019800  0.99875300  0.73480100  1
  Ta  Ta2  1  0.99875300  0.30019800  0.23480100  1
  Ta  Ta3  1  0.00124700  0.69980200  0.76519900  1
  Ta  Ta4  1  0.66334700  0.66175300  0.20446000  1
  Ta  Ta5  1  0.33665300  0.33824700  0.79554000  1
  Ta  Ta6  1  0.33824700  0.33665300  0.29554000  1
  Ta  Ta7  1  0.66175300  0.66334700  0.70446000  1
  Ta  Ta8  1  0.00000000  0.00000000  0.00000000  1
  Ta  Ta9  1  0.00000000  0.00000000  0.50000000  1
  Zn  Zn0  1  0.43428500  0.88966800  0.44958700  1
  Zn  Zn1  1  0.56571500  0.11033200  0.55041300  1
  Zn  Zn2  1  0.11033200  0.56571500  0.05041300  1
  Zn  Zn3  1  0.88966800  0.43428500  0.94958700  1
  Zn  Zn4  1  0.34845200  0.03598100  0.06437500  1
  Zn  Zn5  1  0.65154800  0.96401900  0.93562500  1
  Zn  Zn6  1  0.96401900  0.65154800  0.43562500  1
  Zn  Zn7  1  0.03598100  0.34845200  0.56437500  1
  Zn  Zn8  1  0.22986500  0.77013500  0.25000000  1
  Zn  Zn9  1  0.77013500  0.22986500  0.75000000  1
  Zn  Zn10  1  0.62003500  0.32903500  0.03431900  1
  Zn  Zn11  1  0.37996500  0.67096500  0.96568100  1
  Zn  Zn12  1  0.67096500  0.37996500  0.46568100  1
  Zn  Zn13  1  0.32903500  0.62003500  0.53431900  1
  O  O0  1  0.55569200  0.23139400  0.18976900  1
  O  O1  1  0.44430800  0.76860600  0.81023100  1
  O  O2  1  0.76860600  0.44430800  0.31023100  1
  O  O3  1  0.23139400  0.55569200  0.68976900  1
  O  O4  1  0.23545000  0.87745900  0.07891200  1
  O  O5  1  0.76455000  0.12254100  0.92108800  1
  O  O6  1  0.12254100  0.76455000  0.42108800  1
  O  O7  1  0.87745900  0.23545000  0.57891200  1
  O  O8  1  0.75825200  0.77045400  0.33661700  1
  O  O9  1  0.24174800  0.22954600  0.66338300  1
  O  O10  1  0.22954600  0.24174800  0.16338300  1
  O  O11  1  0.77045400  0.75825200  0.83661700  1
  O  O12  1  0.60234500  0.89828000  0.12152200  1
  O  O13  1  0.39765500  0.10172000  0.87847800  1
  O  O14  1  0.10172000  0.39765500  0.37847800  1
  O  O15  1  0.89828000  0.60234500  0.62152200  1
  O  O16  1  0.45520000  0.74819700  0.30416100  1
  O  O17  1  0.54480000  0.25180300  0.69583900  1
  O  O18  1  0.25180300  0.54480000  0.19583900  1
  O  O19  1  0.74819700  0.45520000  0.80416100  1
  O  O20  1  0.76721600  0.06466200  0.42626900  1
  O  O21  1  0.23278400  0.93533800  0.57373100  1
  O  O22  1  0.93533800  0.23278400  0.07373100  1
  O  O23  1  0.06466200  0.76721600  0.92626900  1
  O  O24  1  0.89060700  0.95257100  0.15561200  1
  O  O25  1  0.10939300  0.04742900  0.84438800  1
  O  O26  1  0.04742900  0.10939300  0.34438800  1
  O  O27  1  0.95257100  0.89060700  0.65561200  1
  O  O28  1  0.43097900  0.41016100  0.42746500  1
  O  O29  1  0.56902100  0.58983900  0.57253500  1
  O  O30  1  0.58983900  0.56902100  0.07253500  1
  O  O31  1  0.41016100  0.43097900  0.92746500  1
  O  O32  1  0.46004000  0.09165900  0.37533800  1
  O  O33  1  0.53996000  0.90834100  0.62466200  1
  O  O34  1  0.90834100  0.53996000  0.12466200  1
  O  O35  1  0.09165900  0.46004000  0.87533800  1
loop_
_geom_bond_atom_site_label_1
_geom_bond_atom_site_label_2
_geom_bond_distance
_geom_bond_site_symmetry_2
O0 Zn10 2.007150 1_555
O0 Ta0 2.010116 1_555
O0 Ta6 2.032718 1_555
O1 Zn11 2.007150 1_555
O1 Ta1 2.010116 1_555
O1 Ta7 2.032718 1_555
O2 Zn12 2.007150 1_555
O2 Ta2 2.010116 1_555
O2 Ta4 2.032718 1_555
O3 Zn13 2.007150 1_555
O3 Ta3 2.010116 1_555
O3 Ta5 2.032718 1_555
O4 Zn8 2.020582 1_555
O4 Zn4 2.049728 1_565
O4 Ta8 2.063502 1_565
O4 Zn11 2.091242 1_554
O5 Zn9 2.020582 1_555
O5 Zn5 2.049728 1_545
O5 Ta8 2.063502 1_656
O5 Zn10 2.091242 1_556
O6 Zn8 2.020582 1_555
O6 Zn6 2.049728 1_455
O6 Ta9 2.063502 1_565
O6 Zn13 2.091242 1_555
O7 Zn9 2.020582 1_555
O7 Zn7 2.049728 1_655
O7 Ta9 2.063502 1_655
O7 Zn12 2.091242 1_555
O8 Zn6 1.967318 1_555
O8 Ta0 1.992303 1_565
O8 Ta4 2.121348 1_555
O9 Zn7 1.967318 1_555
O9 Ta1 1.992303 1_545
O9 Ta5 2.121348 1_555
O10 Zn4 1.967318 1_555
O10 Ta2 1.992303 1_455
O10 Ta6 2.121348 1_555
O11 Zn5 1.967318 1_555
O11 Ta3 1.992303 1_655
O11 Ta7 2.121348 1_555
O12 Ta4 2.078412 1_555
O12 Zn5 2.113817 1_554
O12 Zn4 2.120662 1_565
O12 Ta0 2.189559 1_565
O13 Ta5 2.078412 1_555
O13 Zn4 2.113817 1_556
O13 Zn5 2.120662 1_545
O13 Ta1 2.189559 1_545
O14 Ta6 2.078412 1_555
O14 Zn7 2.113817 1_555
O14 Zn6 2.120662 1_455
O14 Ta2 2.189559 1_455
O15 Ta7 2.078412 1_555
O15 Zn6 2.113817 1_555
O15 Zn7 2.120662 1_655
O15 Ta3 2.189559 1_655
O16 Ta4 1.933929 1_555
O16 Zn0 1.972573 1_555
O16 Zn8 2.017210 1_555
O17 Ta5 1.933929 1_555
O17 Zn1 1.972573 1_555
O17 Zn9 2.017210 1_555
O18 Ta6 1.933929 1_555
O18 Zn2 1.972573 1_555
O18 Zn8 2.017210 1_555
O19 Ta7 1.933929 1_555
O19 Zn3 1.972573 1_555
O19 Zn9 2.017210 1_555
O20 Ta0 2.007429 1_555
O20 Ta9 2.052260 1_655
O20 Zn1 2.068523 1_555
O21 Ta1 2.007429 1_555
O21 Ta9 2.052260 1_565
O21 Zn0 2.068523 1_555
O22 Ta2 2.007429 1_555
O22 Ta8 2.052260 1_655
O22 Zn3 2.068523 1_554
O23 Ta3 2.007429 1_555
O23 Ta8 2.052260 1_566
O23 Zn2 2.068523 1_556
O24 Ta0 1.900958 1_565
O24 Ta8 2.001560 1_665
O25 Ta1 1.900958 1_545
O25 Ta8 2.001560 1_556
O26 Ta2 1.900958 1_455
O26 Ta9 2.001560 1_555
O27 Ta3 1.900958 1_655
O27 Ta9 2.001560 1_665
O28 Ta6 1.918430 1_555
O28 Zn13 2.031625 1_555
O28 Zn12 2.070686 1_555
O29 Ta7 1.918430 1_555
O29 Zn12 2.031625 1_555
O29 Zn13 2.070686 1_555
O30 Ta4 1.918430 1_555
O30 Zn11 2.031625 1_554
O30 Zn10 2.070686 1_555
O31 Ta5 1.918430 1_555
O31 Zn10 2.031625 1_556
O31 Zn11 2.070686 1_555
O32 Zn0 2.023370 1_545
O32 Ta6 2.100262 1_555
O32 Zn1 2.152393 1_555
O32 Ta0 2.204136 1_555
O33 Zn1 2.023370 1_565
O33 Ta7 2.100262 1_555
O33 Zn0 2.152393 1_555
O33 Ta1 2.204136 1_555
O34 Zn2 2.023370 1_655
O34 Ta4 2.100262 1_555
O34 Zn3 2.152393 1_554
O34 Ta2 2.204136 1_555
O35 Zn3 2.023370 1_455
O35 Ta5 2.100262 1_555
O35 Zn2 2.152393 1_556
O35 Ta3 2.204136 1_555
