# generated using pymatgen
data_Nb2NiS4
_symmetry_space_group_name_H-M   'P 1'
_cell_length_a   3.37289000
_cell_length_b   10.41037600
_cell_length_c   15.65573400
_cell_angle_alpha   90.00000000
_cell_angle_beta   90.00000000
_cell_angle_gamma   90.00000000
_symmetry_Int_Tables_number   1
_chemical_formula_structural   Nb2NiS4
_chemical_formula_sum   'Nb8 Ni4 S16'
_cell_volume   549.72061937
_cell_formula_units_Z   4
loop_
 _symmetry_equiv_pos_site_id
 _symmetry_equiv_pos_as_xyz
  1  'x, y, z'
loop_
 _atom_site_type_symbol
 _atom_site_label
 _atom_site_symmetry_multiplicity
 _atom_site_fract_x
 _atom_site_fract_y
 _atom_site_fract_z
 _atom_site_occupancy
  Nb  Nb0  1  0.75000000  0.44474400  0.92221800  1
  Nb  Nb1  1  0.75000000  0.94474400  0.57778200  1
  Nb  Nb2  1  0.25000000  0.55525600  0.07778200  1
  Nb  Nb3  1  0.25000000  0.05525600  0.42221800  1
  Nb  Nb4  1  0.75000000  0.36528300  0.43796900  1
  Nb  Nb5  1  0.75000000  0.86528300  0.06203100  1
  Nb  Nb6  1  0.25000000  0.63471700  0.56203100  1
  Nb  Nb7  1  0.25000000  0.13471700  0.93796900  1
  Ni  Ni0  1  0.75000000  0.33427900  0.26504000  1
  Ni  Ni1  1  0.75000000  0.83427900  0.23496000  1
  Ni  Ni2  1  0.25000000  0.66572100  0.73496000  1
  Ni  Ni3  1  0.25000000  0.16572100  0.76504000  1
  S  S0  1  0.75000000  0.16433000  0.51987600  1
  S  S1  1  0.75000000  0.66433000  0.98012400  1
  S  S2  1  0.25000000  0.83567000  0.48012400  1
  S  S3  1  0.25000000  0.33567000  0.01987600  1
  S  S4  1  0.75000000  0.23692200  0.83673200  1
  S  S5  1  0.75000000  0.73692200  0.66326800  1
  S  S6  1  0.25000000  0.76307800  0.16326800  1
  S  S7  1  0.25000000  0.26307800  0.33673200  1
  S  S8  1  0.75000000  0.46304100  0.58662800  1
  S  S9  1  0.75000000  0.96304100  0.91337200  1
  S  S10  1  0.25000000  0.53695900  0.41337200  1
  S  S11  1  0.25000000  0.03695900  0.08662800  1
  S  S12  1  0.75000000  0.49827500  0.18516500  1
  S  S13  1  0.75000000  0.99827500  0.31483500  1
  S  S14  1  0.25000000  0.50172500  0.81483500  1
  S  S15  1  0.25000000  0.00172500  0.68516500  1
loop_
_geom_bond_atom_site_label_1
_geom_bond_atom_site_label_2
_geom_bond_distance
_geom_bond_site_symmetry_2
Nb0 S14 2.454032 1_655
Nb0 S14 2.454032 1_555
Nb0 S1 2.459172 1_555
Nb0 S3 2.543820 1_556
Nb0 S3 2.543820 1_656
Nb0 S4 2.543998 1_555
Nb1 S15 2.454032 1_565
Nb1 S15 2.454032 1_665
Nb1 S0 2.459172 1_565
Nb1 S2 2.543820 1_555
Nb1 S2 2.543820 1_655
Nb1 S5 2.543998 1_555
Nb2 S12 2.454032 1_455
Nb2 S12 2.454032 1_555
Nb2 S3 2.459172 1_555
Nb2 S1 2.543820 1_554
Nb2 S1 2.543820 1_454
Nb2 S6 2.543998 1_555
Nb3 S13 2.454032 1_445
Nb3 S13 2.454032 1_545
Nb3 S2 2.459172 1_545
Nb3 S0 2.543820 1_455
Nb3 S0 2.543820 1_555
Nb3 S7 2.543998 1_555
Nb4 S0 2.453727 1_555
Nb4 S10 2.487270 1_555
Nb4 S10 2.487270 1_655
Nb4 S8 2.540146 1_555
Nb4 S7 2.547197 1_555
Nb4 S7 2.547197 1_655
Nb5 S1 2.453727 1_554
Nb5 S11 2.487270 1_665
Nb5 S11 2.487270 1_565
Nb5 S9 2.540146 1_554
Nb5 S6 2.547197 1_655
Nb5 S6 2.547197 1_555
Nb6 S2 2.453727 1_555
Nb6 S8 2.487270 1_455
Nb6 S8 2.487270 1_555
Nb6 S10 2.540146 1_555
Nb6 S5 2.547197 1_455
Nb6 S5 2.547197 1_555
Nb7 S3 2.453727 1_556
Nb7 S9 2.487270 1_545
Nb7 S9 2.487270 1_445
Nb7 S11 2.540146 1_556
Nb7 S4 2.547197 1_555
Nb7 S4 2.547197 1_455
Ni0 S12 2.116245 1_555
Ni0 S7 2.157146 1_655
Ni0 S7 2.157146 1_555
Ni1 S13 2.116245 1_555
Ni1 S6 2.157146 1_655
Ni1 S6 2.157146 1_555
Ni2 S14 2.116245 1_555
Ni2 S5 2.157146 1_455
Ni2 S5 2.157146 1_555
Ni3 S15 2.116245 1_555
Ni3 S4 2.157146 1_555
Ni3 S4 2.157146 1_455
