# generated using pymatgen
data_Ba4Cd11Ge12
_symmetry_space_group_name_H-M   'P 1'
_cell_length_a   11.55922013
_cell_length_b   11.55922013
_cell_length_c   11.55922013
_cell_angle_alpha   90.00000000
_cell_angle_beta   90.00000000
_cell_angle_gamma   90.00000000
_symmetry_Int_Tables_number   1
_chemical_formula_structural   Ba4Cd11Ge12
_chemical_formula_sum   'Ba8 Cd22 Ge24'
_cell_volume   1544.49178658
_cell_formula_units_Z   2
loop_
 _symmetry_equiv_pos_site_id
 _symmetry_equiv_pos_as_xyz
  1  'x, y, z'
loop_
 _atom_site_type_symbol
 _atom_site_label
 _atom_site_symmetry_multiplicity
 _atom_site_fract_x
 _atom_site_fract_y
 _atom_site_fract_z
 _atom_site_occupancy
  Ba  Ba0  1  -0.00000000  0.00000000  0.00000000  1
  Ba  Ba1  1  0.50000000  0.50000000  0.50000000  1
  Ba  Ba2  1  0.25000000  0.00000000  0.50000000  1
  Ba  Ba3  1  0.75000000  0.00000000  0.50000000  1
  Ba  Ba4  1  0.50000000  0.25000000  0.00000000  1
  Ba  Ba5  1  0.50000000  0.75000000  0.00000000  1
  Ba  Ba6  1  -0.00000000  0.50000000  0.25000000  1
  Ba  Ba7  1  0.00000000  0.50000000  0.75000000  1
  Cd  Cd0  1  0.17886164  0.17886164  0.17886164  1
  Cd  Cd1  1  0.82113836  0.82113836  0.82113836  1
  Cd  Cd2  1  0.82113836  0.82113836  0.17886164  1
  Cd  Cd3  1  0.82113836  0.17886164  0.82113836  1
  Cd  Cd4  1  0.67886164  0.67886164  0.32113836  1
  Cd  Cd5  1  0.17886164  0.17886164  0.82113836  1
  Cd  Cd6  1  0.17886164  0.82113836  0.17886164  1
  Cd  Cd7  1  0.32113836  0.32113836  0.67886164  1
  Cd  Cd8  1  0.17886164  0.82113836  0.82113836  1
  Cd  Cd9  1  0.32113836  0.32113836  0.32113836  1
  Cd  Cd10  1  0.82113836  0.17886164  0.17886164  1
  Cd  Cd11  1  0.67886164  0.67886164  0.67886164  1
  Cd  Cd12  1  0.67886164  0.32113836  0.67886164  1
  Cd  Cd13  1  0.32113836  0.67886164  0.32113836  1
  Cd  Cd14  1  0.32113836  0.67886164  0.67886164  1
  Cd  Cd15  1  0.67886164  0.32113836  0.32113836  1
  Cd  Cd16  1  0.25000000  0.50000000  0.00000000  1
  Cd  Cd17  1  0.75000000  0.50000000  0.00000000  1
  Cd  Cd18  1  -0.00000000  0.25000000  0.50000000  1
  Cd  Cd19  1  0.00000000  0.75000000  0.50000000  1
  Cd  Cd20  1  0.50000000  0.00000000  0.25000000  1
  Cd  Cd21  1  0.50000000  0.00000000  0.75000000  1
  Ge  Ge0  1  -0.00000000  0.10487192  0.31718952  1
  Ge  Ge1  1  -0.00000000  0.89512808  0.68281048  1
  Ge  Ge2  1  0.00000000  0.89512808  0.31718952  1
  Ge  Ge3  1  -0.00000000  0.10487192  0.68281048  1
  Ge  Ge4  1  0.31718952  0.00000000  0.10487192  1
  Ge  Ge5  1  0.60487192  0.50000000  0.18281048  1
  Ge  Ge6  1  0.68281048  0.00000000  0.89512808  1
  Ge  Ge7  1  0.39512808  0.50000000  0.81718952  1
  Ge  Ge8  1  0.31718952  0.00000000  0.89512808  1
  Ge  Ge9  1  0.39512808  0.50000000  0.18281048  1
  Ge  Ge10  1  0.68281048  0.00000000  0.10487192  1
  Ge  Ge11  1  0.60487192  0.50000000  0.81718952  1
  Ge  Ge12  1  0.10487192  0.31718952  0.00000000  1
  Ge  Ge13  1  0.50000000  0.81718952  0.39512808  1
  Ge  Ge14  1  0.89512808  0.68281048  0.00000000  1
  Ge  Ge15  1  0.50000000  0.18281048  0.60487192  1
  Ge  Ge16  1  0.10487192  0.68281048  0.00000000  1
  Ge  Ge17  1  0.50000000  0.18281048  0.39512808  1
  Ge  Ge18  1  0.89512808  0.31718952  0.00000000  1
  Ge  Ge19  1  0.50000000  0.81718952  0.60487192  1
  Ge  Ge20  1  0.18281048  0.60487192  0.50000000  1
  Ge  Ge21  1  0.81718952  0.39512808  0.50000000  1
  Ge  Ge22  1  0.18281048  0.39512808  0.50000000  1
  Ge  Ge23  1  0.81718952  0.60487192  0.50000000  1
loop_
_geom_bond_atom_site_label_1
_geom_bond_atom_site_label_2
_geom_bond_distance
_geom_bond_site_symmetry_2
Ba0 Cd1 3.581017 1_444
Ba0 Cd8 3.581017 1_544
Ba0 Cd3 3.581017 1_454
Ba0 Cd2 3.581017 1_445
Ba0 Cd5 3.581017 1_554
Ba0 Cd6 3.581017 1_545
Ba0 Cd10 3.581017 1_455
Ba0 Cd0 3.581017 1_555
Ba0 Ge3 3.861667 1_554
Ba0 Ge0 3.861667 1_555
Ba0 Ge10 3.861667 1_455
Ba0 Ge6 3.861667 1_454
Ba0 Ge4 3.861667 1_555
Ba0 Ge14 3.861667 1_445
Ba0 Ge2 3.861667 1_545
Ba0 Ge8 3.861667 1_554
Ba0 Ge18 3.861667 1_455
Ba0 Ge16 3.861667 1_545
Ba0 Ge1 3.861667 1_544
Ba0 Ge12 3.861667 1_555
Ba1 Cd9 3.581017 1_555
Ba1 Cd7 3.581017 1_555
Ba1 Cd15 3.581017 1_555
Ba1 Cd13 3.581017 1_555
Ba1 Cd14 3.581017 1_555
Ba1 Cd4 3.581017 1_555
Ba1 Cd12 3.581017 1_555
Ba1 Cd11 3.581017 1_555
Ba1 Ge20 3.861667 1_555
Ba1 Ge23 3.861667 1_555
Ba1 Ge11 3.861667 1_555
Ba1 Ge22 3.861667 1_555
Ba1 Ge7 3.861667 1_555
Ba1 Ge19 3.861667 1_555
Ba1 Ge9 3.861667 1_555
Ba1 Ge15 3.861667 1_555
Ba1 Ge21 3.861667 1_555
Ba1 Ge5 3.861667 1_555
Ba1 Ge17 3.861667 1_555
Ba1 Ge13 3.861667 1_555
Ba2 Ge19 3.779667 1_545
Ba2 Ge17 3.779667 1_555
Ba2 Ge13 3.779667 1_545
Ba2 Ge1 3.779667 1_545
Ba2 Ge0 3.779667 1_555
Ba2 Ge3 3.779667 1_555
Ba2 Ge15 3.779667 1_555
Ba2 Ge2 3.779667 1_545
Ba3 Ge3 3.779667 1_655
Ba3 Ge0 3.779667 1_655
Ba3 Ge19 3.779667 1_545
Ba3 Ge17 3.779667 1_555
Ba3 Ge2 3.779667 1_645
Ba3 Ge13 3.779667 1_545
Ba3 Ge1 3.779667 1_645
Ba3 Ge15 3.779667 1_555
Ba4 Ge7 3.779667 1_554
Ba4 Ge11 3.779667 1_554
Ba4 Ge5 3.779667 1_555
Ba4 Ge4 3.779667 1_555
Ba4 Ge6 3.779667 1_554
Ba4 Ge9 3.779667 1_555
Ba4 Ge8 3.779667 1_554
Ba4 Ge10 3.779667 1_555
Ba5 Ge4 3.779667 1_565
Ba5 Ge7 3.779667 1_554
Ba5 Ge10 3.779667 1_565
Ba5 Ge11 3.779667 1_554
Ba5 Ge5 3.779667 1_555
Ba5 Ge8 3.779667 1_564
Ba5 Ge9 3.779667 1_555
Ba5 Ge6 3.779667 1_564
Ba6 Ge14 3.779667 1_455
Ba6 Ge18 3.779667 1_455
Ba6 Ge21 3.779667 1_455
Ba6 Ge22 3.779667 1_555
Ba6 Ge12 3.779667 1_555
Ba6 Ge23 3.779667 1_455
Ba6 Ge16 3.779667 1_555
Ba6 Ge20 3.779667 1_555
Ba7 Ge14 3.779667 1_456
Ba7 Ge18 3.779667 1_456
Ba7 Ge21 3.779667 1_455
Ba7 Ge23 3.779667 1_455
Ba7 Ge22 3.779667 1_555
Ba7 Ge12 3.779667 1_556
Ba7 Ge16 3.779667 1_556
Ba7 Ge20 3.779667 1_555
Cd0 Ge4 2.750039 1_555
Cd0 Ge0 2.750039 1_555
Cd0 Ge12 2.750039 1_555
Cd0 Cd9 2.848544 1_555
Cd1 Ge6 2.750039 1_565
Cd1 Ge14 2.750039 1_556
Cd1 Ge1 2.750039 1_655
Cd1 Cd11 2.848544 1_555
Cd2 Ge2 2.750039 1_655
Cd2 Ge10 2.750039 1_565
Cd2 Ge14 2.750039 1_555
Cd2 Cd4 2.848544 1_555
Cd3 Ge18 2.750039 1_556
Cd3 Ge3 2.750039 1_655
Cd3 Ge6 2.750039 1_555
Cd4 Ge13 2.750039 1_555
Cd4 Ge23 2.750039 1_555
Cd4 Ge5 2.750039 1_555
Cd5 Ge12 2.750039 1_556
Cd5 Ge8 2.750039 1_555
Cd5 Ge3 2.750039 1_555
Cd5 Cd7 2.848544 1_555
Cd6 Ge4 2.750039 1_565
Cd6 Ge2 2.750039 1_555
Cd6 Ge16 2.750039 1_555
Cd7 Ge7 2.750039 1_555
Cd7 Ge15 2.750039 1_555
Cd7 Ge22 2.750039 1_555
Cd8 Ge8 2.750039 1_565
Cd8 Ge16 2.750039 1_556
Cd8 Ge1 2.750039 1_555
Cd9 Ge17 2.750039 1_555
Cd9 Ge22 2.750039 1_555
Cd9 Ge9 2.750039 1_555
Cd10 Ge0 2.750039 1_655
Cd10 Ge18 2.750039 1_555
Cd10 Ge10 2.750039 1_555
Cd10 Cd15 2.848544 1_555
Cd11 Ge11 2.750039 1_555
Cd11 Ge23 2.750039 1_555
Cd11 Ge19 2.750039 1_555
Cd12 Ge11 2.750039 1_555
Cd12 Ge21 2.750039 1_555
Cd12 Ge15 2.750039 1_555
Cd12 Cd3 2.848544 1_555
Cd13 Ge13 2.750039 1_555
Cd13 Ge20 2.750039 1_555
Cd13 Ge9 2.750039 1_555
Cd13 Cd6 2.848544 1_555
Cd14 Ge19 2.750039 1_555
Cd14 Ge7 2.750039 1_555
Cd14 Ge20 2.750039 1_555
Cd14 Cd8 2.848544 1_555
Cd15 Ge21 2.750039 1_555
Cd15 Ge5 2.750039 1_555
Cd15 Ge17 2.750039 1_555
Cd16 Ge9 2.698077 1_555
Cd16 Ge12 2.698077 1_555
Cd16 Ge7 2.698077 1_554
Cd16 Ge16 2.698077 1_555
Cd17 Ge18 2.698077 1_555
Cd17 Ge11 2.698077 1_554
Cd17 Ge5 2.698077 1_555
Cd17 Ge14 2.698077 1_555
Cd18 Ge3 2.698077 1_555
Cd18 Ge21 2.698077 1_455
Cd18 Ge22 2.698077 1_555
Cd18 Ge0 2.698077 1_555
Cd19 Ge20 2.698077 1_555
Cd19 Ge23 2.698077 1_455
Cd19 Ge1 2.698077 1_555
Cd19 Ge2 2.698077 1_555
Cd20 Ge10 2.698077 1_555
Cd20 Ge17 2.698077 1_555
Cd20 Ge13 2.698077 1_545
Cd20 Ge4 2.698077 1_555
Cd21 Ge19 2.698077 1_545
Cd21 Ge15 2.698077 1_555
Cd21 Ge6 2.698077 1_555
Cd21 Ge8 2.698077 1_555
Ge0 Ge2 2.424475 1_545
Ge1 Ge3 2.424475 1_565
Ge4 Ge8 2.424475 1_554
Ge5 Ge9 2.424475 1_555
Ge10 Ge6 2.424475 1_554
Ge11 Ge7 2.424475 1_555
Ge12 Ge18 2.424475 1_455
Ge13 Ge19 2.424475 1_555
Ge14 Ge16 2.424475 1_655
Ge15 Ge17 2.424475 1_555
Ge20 Ge22 2.424475 1_555
Ge21 Ge23 2.424475 1_555
