# generated using pymatgen
data_Yb2ZnS4
_symmetry_space_group_name_H-M   'P 1'
_cell_length_a   6.29790700
_cell_length_b   8.06647200
_cell_length_c   13.77449600
_cell_angle_alpha   90.00000000
_cell_angle_beta   90.00000000
_cell_angle_gamma   90.00000000
_symmetry_Int_Tables_number   1
_chemical_formula_structural   Yb2ZnS4
_chemical_formula_sum   'Yb8 Zn4 S16'
_cell_volume   699.77043713
_cell_formula_units_Z   4
loop_
 _symmetry_equiv_pos_site_id
 _symmetry_equiv_pos_as_xyz
  1  'x, y, z'
loop_
 _atom_site_type_symbol
 _atom_site_label
 _atom_site_symmetry_multiplicity
 _atom_site_fract_x
 _atom_site_fract_y
 _atom_site_fract_z
 _atom_site_occupancy
  Yb  Yb0  1  0.00000000  0.50000000  0.00000000  1
  Yb  Yb1  1  0.50000000  0.00000000  0.50000000  1
  Yb  Yb2  1  0.00000000  0.00000000  0.00000000  1
  Yb  Yb3  1  0.50000000  0.50000000  0.50000000  1
  Yb  Yb4  1  0.00568200  0.75000000  0.26740500  1
  Yb  Yb5  1  0.49431800  0.75000000  0.76740500  1
  Yb  Yb6  1  0.99431800  0.25000000  0.73259500  1
  Yb  Yb7  1  0.50568200  0.25000000  0.23259500  1
  Zn  Zn0  1  0.59657500  0.75000000  0.09322700  1
  Zn  Zn1  1  0.90342500  0.75000000  0.59322700  1
  Zn  Zn2  1  0.40342500  0.25000000  0.90677300  1
  Zn  Zn3  1  0.09657500  0.25000000  0.40677300  1
  S  S0  1  0.23479700  0.75000000  0.09230200  1
  S  S1  1  0.26520300  0.75000000  0.59230200  1
  S  S2  1  0.76520300  0.25000000  0.90769800  1
  S  S3  1  0.73479700  0.25000000  0.40769800  1
  S  S4  1  0.75955100  0.75000000  0.43388500  1
  S  S5  1  0.74044900  0.75000000  0.93388500  1
  S  S6  1  0.24044900  0.25000000  0.56611500  1
  S  S7  1  0.25955100  0.25000000  0.06611500  1
  S  S8  1  0.75029500  0.51886600  0.16747400  1
  S  S9  1  0.74970500  0.98113400  0.66747400  1
  S  S10  1  0.24970500  0.01886600  0.83252600  1
  S  S11  1  0.25029500  0.48113400  0.33252600  1
  S  S12  1  0.24970500  0.48113400  0.83252600  1
  S  S13  1  0.25029500  0.01886600  0.33252600  1
  S  S14  1  0.75029500  0.98113400  0.16747400  1
  S  S15  1  0.74970500  0.51886600  0.66747400  1
loop_
_geom_bond_atom_site_label_1
_geom_bond_atom_site_label_2
_geom_bond_distance
_geom_bond_site_symmetry_2
S0 Zn0 2.278480 1_555
S0 Yb0 2.805331 1_555
S0 Yb2 2.805331 1_565
S0 Yb4 2.810626 1_555
S1 Zn1 2.278480 1_455
S1 Yb1 2.805331 1_565
S1 Yb3 2.805331 1_555
S1 Yb5 2.810626 1_555
S2 Zn2 2.278480 1_555
S2 Yb0 2.805331 1_656
S2 Yb2 2.805331 1_656
S2 Yb6 2.810626 1_555
S3 Zn3 2.278480 1_655
S3 Yb1 2.805331 1_555
S3 Yb3 2.805331 1_555
S3 Yb7 2.810626 1_555
S4 Zn1 2.374535 1_555
S4 Yb1 2.751024 1_565
S4 Yb3 2.751024 1_555
S4 Yb4 2.767943 1_655
S5 Zn0 2.374535 1_556
S5 Yb0 2.751024 1_656
S5 Yb2 2.751024 1_666
S5 Yb5 2.767943 1_555
S6 Zn3 2.374535 1_555
S6 Yb3 2.751024 1_555
S6 Yb1 2.751024 1_555
S6 Yb6 2.767943 1_455
S7 Zn2 2.374535 1_554
S7 Yb0 2.751024 1_555
S7 Yb2 2.751024 1_555
S7 Yb7 2.767943 1_555
S8 Zn0 2.336517 1_555
S8 Yb0 2.796058 1_655
S8 Yb7 2.807421 1_555
S8 Yb4 2.820963 1_655
S9 Zn1 2.336517 1_555
S9 Yb1 2.796058 1_565
S9 Yb6 2.807421 1_565
S9 Yb5 2.820963 1_555
S10 Zn2 2.336517 1_555
S10 Yb2 2.796058 1_556
S10 Yb5 2.807421 1_545
S10 Yb6 2.820963 1_455
S11 Zn3 2.336517 1_555
S11 Yb3 2.796058 1_555
S11 Yb4 2.807421 1_555
S11 Yb7 2.820963 1_555
S12 Zn2 2.336517 1_555
S12 Yb0 2.796058 1_556
S12 Yb5 2.807421 1_555
S12 Yb6 2.820963 1_455
S13 Zn3 2.336517 1_555
S13 Yb1 2.796058 1_555
S13 Yb4 2.807421 1_545
S13 Yb7 2.820963 1_555
S14 Zn0 2.336517 1_555
S14 Yb2 2.796058 1_665
S14 Yb7 2.807421 1_565
S14 Yb4 2.820963 1_655
S15 Zn1 2.336517 1_555
S15 Yb3 2.796058 1_555
S15 Yb6 2.807421 1_555
S15 Yb5 2.820963 1_555
