# generated using pymatgen
data_Mg7Cu
_symmetry_space_group_name_H-M   'P 1'
_cell_length_a   6.19670976
_cell_length_b   6.19670976
_cell_length_c   5.01070100
_cell_angle_alpha   90.00000000
_cell_angle_beta   90.00000000
_cell_angle_gamma   119.99999741
_symmetry_Int_Tables_number   1
_chemical_formula_structural   Mg7Cu
_chemical_formula_sum   'Mg7 Cu1'
_cell_volume   166.62932742
_cell_formula_units_Z   1
loop_
 _symmetry_equiv_pos_site_id
 _symmetry_equiv_pos_as_xyz
  1  'x, y, z'
loop_
 _atom_site_type_symbol
 _atom_site_label
 _atom_site_symmetry_multiplicity
 _atom_site_fract_x
 _atom_site_fract_y
 _atom_site_fract_z
 _atom_site_occupancy
  Mg  Mg0  1  0.16592400  0.33184700  0.00000000  1
  Mg  Mg1  1  0.16592400  0.83407600  0.00000000  1
  Mg  Mg2  1  0.66815300  0.83407600  0.00000000  1
  Mg  Mg3  1  0.98963500  0.49481700  0.50000000  1
  Mg  Mg4  1  0.50518300  0.49481700  0.50000000  1
  Mg  Mg5  1  0.50518300  0.01036500  0.50000000  1
  Mg  Mg6  1  0.00000000  0.00000000  0.50000000  1
  Cu  Cu0  1  0.66666700  0.33333300  0.00000000  1
loop_
_geom_bond_atom_site_label_1
_geom_bond_atom_site_label_2
_geom_bond_distance
_geom_bond_site_symmetry_2
Mg0 Mg6 3.073799 1_554
Mg0 Mg6 3.073799 1_555
Mg0 Mg1 3.084542 1_545
Mg0 Mg2 3.084543 1_445
Mg0 Mg3 3.097289 1_455
Mg0 Mg3 3.097289 1_454
Mg0 Mg4 3.097289 1_554
Mg0 Mg4 3.097289 1_555
Mg0 Mg1 3.112167 1_555
Mg0 Mg2 3.112167 1_555
Mg1 Mg6 3.073802 1_565
Mg1 Mg6 3.073802 1_564
Mg1 Mg2 3.084542 1_455
Mg1 Mg5 3.097289 1_565
Mg1 Mg5 3.097289 1_564
Mg1 Mg3 3.097289 1_455
Mg1 Mg3 3.097289 1_454
Mg1 Mg2 3.112167 1_555
Mg2 Mg6 3.073799 1_664
Mg2 Mg6 3.073799 1_665
Mg2 Mg5 3.097289 1_565
Mg2 Mg5 3.097289 1_564
Mg2 Mg4 3.097289 1_555
Mg2 Mg4 3.097289 1_554
Mg3 Mg4 3.002008 1_555
Mg3 Mg5 3.002009 1_555
Mg3 Mg6 3.098851 1_655
Mg3 Mg6 3.098857 1_665
Mg3 Mg4 3.194701 1_655
Mg3 Mg5 3.194701 1_665
Mg4 Mg5 3.002008 1_555
Mg4 Mg6 3.098854 1_555
Mg4 Mg6 3.098854 1_665
Mg4 Mg5 3.194701 1_565
Mg5 Mg6 3.098851 1_655
Mg5 Mg6 3.098857 1_555
Cu0 Mg4 3.046440 1_554
Cu0 Mg4 3.046440 1_555
Cu0 Mg3 3.046440 1_554
Cu0 Mg3 3.046440 1_555
Cu0 Mg5 3.046440 1_555
Cu0 Mg5 3.046440 1_554
Cu0 Mg0 3.098365 1_655
Cu0 Mg2 3.098365 1_545
Cu0 Mg2 3.098365 1_555
Cu0 Mg0 3.098365 1_555
Cu0 Mg1 3.098365 1_655
Cu0 Mg1 3.098365 1_545
