# generated using pymatgen
data_CrH20N2O6F5
_symmetry_space_group_name_H-M   'P 1'
_cell_length_a   7.02619357
_cell_length_b   7.02619357
_cell_length_c   13.49756900
_cell_angle_alpha   90.00000000
_cell_angle_beta   90.00000000
_cell_angle_gamma   119.99999596
_symmetry_Int_Tables_number   1
_chemical_formula_structural   CrH20N2O6F5
_chemical_formula_sum   'Cr2 H40 N4 O12 F10'
_cell_volume   577.06724825
_cell_formula_units_Z   2
loop_
 _symmetry_equiv_pos_site_id
 _symmetry_equiv_pos_as_xyz
  1  'x, y, z'
loop_
 _atom_site_type_symbol
 _atom_site_label
 _atom_site_symmetry_multiplicity
 _atom_site_fract_x
 _atom_site_fract_y
 _atom_site_fract_z
 _atom_site_occupancy
  Cr  Cr0  1  0.00000000  0.00000000  0.50000000  1
  Cr  Cr1  1  0.00000000  0.00000000  0.00000000  1
  H  H0  1  0.66666700  0.33333300  0.90310400  1
  H  H1  1  0.33333300  0.66666700  0.59689600  1
  H  H2  1  0.33333300  0.66666700  0.09689600  1
  H  H3  1  0.66666700  0.33333300  0.40310400  1
  H  H4  1  0.51816300  0.31287100  0.79826600  1
  H  H5  1  0.31287100  0.51816300  0.70173400  1
  H  H6  1  0.48183700  0.68712900  0.20173400  1
  H  H7  1  0.68712900  0.48183700  0.29826600  1
  H  H8  1  0.68712900  0.20529300  0.79826600  1
  H  H9  1  0.20529300  0.68712900  0.70173400  1
  H  H10  1  0.31287100  0.79470700  0.20173400  1
  H  H11  1  0.79470700  0.31287100  0.29826600  1
  H  H12  1  0.79470700  0.48183700  0.79826600  1
  H  H13  1  0.48183700  0.79470700  0.70173400  1
  H  H14  1  0.20529300  0.51816300  0.20173400  1
  H  H15  1  0.51816300  0.20529300  0.29826600  1
  H  H16  1  0.76825700  0.58210800  0.55996400  1
  H  H17  1  0.58210800  0.76825700  0.94003600  1
  H  H18  1  0.23174300  0.41789200  0.44003600  1
  H  H19  1  0.41789200  0.23174300  0.05996400  1
  H  H20  1  0.90027900  0.73875500  0.65418500  1
  H  H21  1  0.73875500  0.90027900  0.84581500  1
  H  H22  1  0.09972100  0.26124500  0.34581500  1
  H  H23  1  0.26124500  0.09972100  0.15418500  1
  H  H24  1  0.81385100  0.23174300  0.55996400  1
  H  H25  1  0.23174300  0.81385100  0.94003600  1
  H  H26  1  0.18614900  0.76825700  0.44003600  1
  H  H27  1  0.76825700  0.18614900  0.05996400  1
  H  H28  1  0.83847600  0.09972100  0.65418500  1
  H  H29  1  0.09972100  0.83847600  0.84581500  1
  H  H30  1  0.16152400  0.90027900  0.34581500  1
  H  H31  1  0.90027900  0.16152400  0.15418500  1
  H  H32  1  0.26124500  0.16152400  0.65418500  1
  H  H33  1  0.16152400  0.26124500  0.84581500  1
  H  H34  1  0.73875500  0.83847600  0.34581500  1
  H  H35  1  0.83847600  0.73875500  0.15418500  1
  H  H36  1  0.41789200  0.18614900  0.55996400  1
  H  H37  1  0.18614900  0.41789200  0.94003600  1
  H  H38  1  0.58210800  0.81385100  0.44003600  1
  H  H39  1  0.81385100  0.58210800  0.05996400  1
  N  N0  1  0.66666700  0.33333300  0.82564100  1
  N  N1  1  0.33333300  0.66666700  0.67435900  1
  N  N2  1  0.33333300  0.66666700  0.17435900  1
  N  N3  1  0.66666700  0.33333300  0.32564100  1
  O  O0  1  0.82830300  0.73460600  0.58770800  1
  O  O1  1  0.73460600  0.82830300  0.91229200  1
  O  O2  1  0.17169700  0.26539400  0.41229200  1
  O  O3  1  0.26539400  0.17169700  0.08770800  1
  O  O4  1  0.90630300  0.17169700  0.58770800  1
  O  O5  1  0.17169700  0.90630300  0.91229200  1
  O  O6  1  0.09369700  0.82830300  0.41229200  1
  O  O7  1  0.82830300  0.09369700  0.08770800  1
  O  O8  1  0.26539400  0.09369700  0.58770800  1
  O  O9  1  0.09369700  0.26539400  0.91229200  1
  O  O10  1  0.73460600  0.90630300  0.41229200  1
  O  O11  1  0.90630300  0.73460600  0.08770800  1
  F  F0  1  0.66666700  0.33333300  0.52738800  1
  F  F1  1  0.33333300  0.66666700  0.97261200  1
  F  F2  1  0.33333300  0.66666700  0.47261200  1
  F  F3  1  0.66666700  0.33333300  0.02738800  1
  F  F4  1  0.00000000  0.72092700  0.75000000  1
  F  F5  1  0.72092700  0.00000000  0.75000000  1
  F  F6  1  0.00000000  0.27907300  0.25000000  1
  F  F7  1  0.27907300  0.00000000  0.25000000  1
  F  F8  1  0.27907300  0.27907300  0.75000000  1
  F  F9  1  0.72092700  0.72092700  0.25000000  1
loop_
_geom_bond_atom_site_label_1
_geom_bond_atom_site_label_2
_geom_bond_distance
_geom_bond_site_symmetry_2
Cr0 O4 2.020998 1_455
Cr0 O6 2.020998 1_545
Cr0 O8 2.020998 1_555
Cr0 O10 2.020998 1_445
Cr0 O2 2.020998 1_555
Cr0 O0 2.020998 1_445
Cr1 O7 2.020998 1_455
Cr1 O5 2.020998 1_544
Cr1 O9 2.020998 1_554
Cr1 O11 2.020998 1_445
Cr1 O3 2.020998 1_555
Cr1 O1 2.020998 1_444
H0 N0 1.045562 1_555
H1 N1 1.045562 1_555
H2 N2 1.045562 1_555
H3 N3 1.045562 1_555
H4 N0 1.046855 1_555
H5 N1 1.046855 1_555
H6 N2 1.046855 1_555
H7 N3 1.046855 1_555
H8 N0 1.046842 1_555
H9 N1 1.046842 1_555
H10 N2 1.046842 1_555
H11 N3 1.046842 1_555
H12 N0 1.046850 1_555
H13 N1 1.046850 1_555
H14 N2 1.046850 1_555
H15 N3 1.046850 1_555
H16 O0 1.007098 1_555
H17 O1 1.007098 1_555
H18 O2 1.007098 1_555
H19 O3 1.007098 1_555
H20 O0 1.023213 1_555
H21 O1 1.023213 1_555
H22 O2 1.023213 1_555
H23 O3 1.023213 1_555
H24 O4 1.007098 1_555
H25 O5 1.007098 1_555
H26 O6 1.007098 1_555
H27 O7 1.007098 1_555
H28 O4 1.023213 1_555
H29 O5 1.023213 1_555
H30 O6 1.023213 1_555
H31 O7 1.023213 1_555
H32 O8 1.023213 1_555
H33 O9 1.023213 1_555
H34 O10 1.023213 1_555
H35 O11 1.023213 1_555
H36 O8 1.007098 1_555
H37 O9 1.007098 1_555
H38 O10 1.007098 1_555
H39 O11 1.007098 1_555
F0 H24 1.584438 1_555
F0 H36 1.584444 1_555
F0 H16 1.584445 1_555
F0 H3 1.677532 1_555
F1 H25 1.584438 1_555
F1 H37 1.584444 1_555
F1 H17 1.584445 1_555
F1 H2 1.677532 1_556
F2 H26 1.584438 1_555
F2 H38 1.584444 1_555
F2 H18 1.584445 1_555
F2 H1 1.677532 1_555
F3 H27 1.584438 1_555
F3 H39 1.584444 1_555
F3 H19 1.584445 1_555
F3 H0 1.677532 1_554
F4 H20 1.505632 1_455
F4 H29 1.505632 1_555
F5 H21 1.505632 1_545
F5 H28 1.505632 1_555
F6 H22 1.505632 1_555
F6 H31 1.505632 1_455
F7 H23 1.505632 1_555
F7 H30 1.505632 1_545
F8 H33 1.505632 1_555
F8 H32 1.505632 1_555
F9 H34 1.505632 1_555
F9 H35 1.505632 1_555
