# generated using pymatgen
data_InGeN2
_symmetry_space_group_name_H-M   'P 1'
_cell_length_a   5.79843700
_cell_length_b   10.77225100
_cell_length_c   14.18052600
_cell_angle_alpha   90.00000000
_cell_angle_beta   90.00000000
_cell_angle_gamma   90.00000000
_symmetry_Int_Tables_number   1
_chemical_formula_structural   InGeN2
_chemical_formula_sum   'In16 Ge16 N32'
_cell_volume   885.74711731
_cell_formula_units_Z   16
loop_
 _symmetry_equiv_pos_site_id
 _symmetry_equiv_pos_as_xyz
  1  'x, y, z'
loop_
 _atom_site_type_symbol
 _atom_site_label
 _atom_site_symmetry_multiplicity
 _atom_site_fract_x
 _atom_site_fract_y
 _atom_site_fract_z
 _atom_site_occupancy
  In  In0  1  0.80313900  0.99961200  0.41920400  1
  In  In1  1  0.30313900  0.50038800  0.58079600  1
  In  In2  1  0.19686100  0.49961200  0.08079600  1
  In  In3  1  0.69686100  0.00038800  0.91920400  1
  In  In4  1  0.19686100  0.00038800  0.58079600  1
  In  In5  1  0.69686100  0.49961200  0.41920400  1
  In  In6  1  0.80313900  0.50038800  0.91920400  1
  In  In7  1  0.30313900  0.99961200  0.08079600  1
  In  In8  1  0.89879300  0.22737300  0.32171800  1
  In  In9  1  0.39879300  0.27262700  0.67828200  1
  In  In10  1  0.10120700  0.72737300  0.17828200  1
  In  In11  1  0.60120700  0.77262700  0.82171800  1
  In  In12  1  0.10120700  0.77262700  0.67828200  1
  In  In13  1  0.60120700  0.72737300  0.32171800  1
  In  In14  1  0.89879300  0.27262700  0.82171800  1
  In  In15  1  0.39879300  0.22737300  0.17828200  1
  Ge  Ge0  1  0.79086000  0.99468600  0.18771100  1
  Ge  Ge1  1  0.29086000  0.50531400  0.81228900  1
  Ge  Ge2  1  0.20914000  0.49468600  0.31228900  1
  Ge  Ge3  1  0.70914000  0.00531400  0.68771100  1
  Ge  Ge4  1  0.20914000  0.00531400  0.81228900  1
  Ge  Ge5  1  0.70914000  0.49468600  0.18771100  1
  Ge  Ge6  1  0.79086000  0.50531400  0.68771100  1
  Ge  Ge7  1  0.29086000  0.99468600  0.31228900  1
  Ge  Ge8  1  0.86952000  0.26258700  0.06048800  1
  Ge  Ge9  1  0.36952000  0.23741300  0.93951200  1
  Ge  Ge10  1  0.13048000  0.76258600  0.43951200  1
  Ge  Ge11  1  0.63048000  0.73741400  0.56048800  1
  Ge  Ge12  1  0.13048000  0.73741400  0.93951200  1
  Ge  Ge13  1  0.63048000  0.76258600  0.06048800  1
  Ge  Ge14  1  0.86952000  0.23741300  0.56048800  1
  Ge  Ge15  1  0.36952000  0.26258700  0.43951200  1
  N  N0  1  0.41793100  0.43151500  0.21956500  1
  N  N1  1  0.91793100  0.06848500  0.78043500  1
  N  N2  1  0.58206900  0.93151500  0.28043500  1
  N  N3  1  0.08206900  0.56848500  0.71956500  1
  N  N4  1  0.58206900  0.56848500  0.78043500  1
  N  N5  1  0.08206900  0.93151500  0.21956500  1
  N  N6  1  0.41793100  0.06848500  0.71956500  1
  N  N7  1  0.91793100  0.43151500  0.28043500  1
  N  N8  1  0.69408900  0.29968800  0.45862500  1
  N  N9  1  0.19408900  0.20031200  0.54137500  1
  N  N10  1  0.30591100  0.79968800  0.04137500  1
  N  N11  1  0.80591100  0.70031200  0.95862500  1
  N  N12  1  0.30591100  0.70031200  0.54137500  1
  N  N13  1  0.80591100  0.79968800  0.45862500  1
  N  N14  1  0.69408900  0.20031200  0.95862500  1
  N  N15  1  0.19408900  0.29968800  0.04137500  1
  N  N16  1  0.77438200  0.42666100  0.07166400  1
  N  N17  1  0.27438200  0.07333900  0.92833600  1
  N  N18  1  0.22561800  0.92666100  0.42833600  1
  N  N19  1  0.72561800  0.57333900  0.57166400  1
  N  N20  1  0.22561800  0.57333900  0.92833600  1
  N  N21  1  0.72561800  0.92666100  0.07166400  1
  N  N22  1  0.77438200  0.07333900  0.57166400  1
  N  N23  1  0.27438200  0.42666100  0.42833600  1
  N  N24  1  0.79394700  0.17276000  0.17334000  1
  N  N25  1  0.29394700  0.32724000  0.82666000  1
  N  N26  1  0.20605300  0.67276000  0.32666000  1
  N  N27  1  0.70605300  0.82724000  0.67334000  1
  N  N28  1  0.20605300  0.82724000  0.82666000  1
  N  N29  1  0.70605300  0.67276000  0.17334000  1
  N  N30  1  0.79394700  0.32724000  0.67334000  1
  N  N31  1  0.29394700  0.17276000  0.32666000  1
loop_
_geom_bond_atom_site_label_1
_geom_bond_atom_site_label_2
_geom_bond_distance
_geom_bond_site_symmetry_2
In0 N13 2.225057 1_555
In0 N22 2.309253 1_565
In0 N2 2.460402 1_555
In0 N18 2.575935 1_655
In1 N12 2.225057 1_555
In1 N23 2.309253 1_555
In1 N3 2.460402 1_555
In1 N19 2.575935 1_555
In2 N15 2.225057 1_555
In2 N20 2.309253 1_554
In2 N0 2.460402 1_555
In2 N16 2.575935 1_455
In3 N14 2.225057 1_555
In3 N21 2.309253 1_546
In3 N1 2.460402 1_555
In3 N17 2.575935 1_555
In4 N9 2.225057 1_555
In4 N18 2.309253 1_545
In4 N6 2.460402 1_555
In4 N22 2.575935 1_455
In5 N8 2.225057 1_555
In5 N19 2.309253 1_555
In5 N7 2.460402 1_555
In5 N23 2.575935 1_555
In6 N11 2.225057 1_555
In6 N16 2.309253 1_556
In6 N4 2.460402 1_555
In6 N20 2.575935 1_655
In7 N10 2.225057 1_555
In7 N17 2.309253 1_564
In7 N5 2.460402 1_555
In7 N21 2.575935 1_555
In8 N24 2.267783 1_555
In8 N7 2.278361 1_555
In8 N31 2.366634 1_655
In8 N8 2.405161 1_555
In9 N25 2.267783 1_555
In9 N6 2.278361 1_555
In9 N30 2.366634 1_555
In9 N9 2.405161 1_555
In10 N26 2.267783 1_555
In10 N5 2.278361 1_555
In10 N29 2.366634 1_455
In10 N10 2.405161 1_555
In11 N27 2.267783 1_555
In11 N4 2.278361 1_555
In11 N28 2.366634 1_555
In11 N11 2.405161 1_555
In12 N28 2.267783 1_555
In12 N3 2.278361 1_555
In12 N27 2.366634 1_455
In12 N12 2.405161 1_555
In13 N29 2.267783 1_555
In13 N2 2.278361 1_555
In13 N26 2.366634 1_555
In13 N13 2.405161 1_555
In14 N30 2.267783 1_555
In14 N1 2.278361 1_555
In14 N25 2.366634 1_655
In14 N14 2.405161 1_555
In15 N31 2.267783 1_555
In15 N0 2.278361 1_555
In15 N24 2.366634 1_555
In15 N15 2.405161 1_555
Ge0 N21 1.840681 1_555
Ge0 N5 1.875723 1_655
Ge0 N2 1.912503 1_555
Ge0 N24 1.929135 1_565
Ge1 N20 1.840681 1_555
Ge1 N4 1.875723 1_555
Ge1 N3 1.912503 1_555
Ge1 N25 1.929135 1_555
Ge2 N23 1.840681 1_555
Ge2 N7 1.875723 1_455
Ge2 N0 1.912503 1_555
Ge2 N26 1.929135 1_555
Ge3 N22 1.840681 1_555
Ge3 N6 1.875723 1_555
Ge3 N1 1.912503 1_555
Ge3 N27 1.929135 1_545
Ge4 N17 1.840681 1_555
Ge4 N1 1.875723 1_455
Ge4 N6 1.912503 1_555
Ge4 N28 1.929135 1_545
Ge5 N16 1.840681 1_555
Ge5 N0 1.875723 1_555
Ge5 N7 1.912503 1_555
Ge5 N29 1.929135 1_555
Ge6 N19 1.840681 1_555
Ge6 N3 1.875723 1_655
Ge6 N4 1.912503 1_555
Ge6 N30 1.929135 1_555
Ge7 N18 1.840681 1_555
Ge7 N2 1.875723 1_555
Ge7 N5 1.912503 1_555
Ge7 N31 1.929135 1_565
Ge8 N16 1.858306 1_555
Ge8 N14 1.889781 1_554
Ge8 N24 1.920758 1_555
Ge8 N15 1.942958 1_655
Ge9 N17 1.858306 1_555
Ge9 N15 1.889781 1_556
Ge9 N25 1.920758 1_555
Ge9 N14 1.942958 1_555
Ge10 N18 1.858317 1_555
Ge10 N12 1.889777 1_555
Ge10 N26 1.920753 1_555
Ge10 N13 1.942960 1_455
Ge11 N19 1.858317 1_555
Ge11 N13 1.889777 1_555
Ge11 N27 1.920753 1_555
Ge11 N12 1.942960 1_555
Ge12 N20 1.858317 1_555
Ge12 N10 1.889777 1_556
Ge12 N28 1.920753 1_555
Ge12 N11 1.942960 1_455
Ge13 N21 1.858317 1_555
Ge13 N11 1.889777 1_554
Ge13 N29 1.920753 1_555
Ge13 N10 1.942960 1_555
Ge14 N22 1.858306 1_555
Ge14 N8 1.889781 1_555
Ge14 N30 1.920758 1_555
Ge14 N9 1.942958 1_655
Ge15 N23 1.858306 1_555
Ge15 N9 1.889781 1_555
Ge15 N31 1.920758 1_555
Ge15 N8 1.942958 1_555
