# generated using pymatgen
data_HfTe3
_symmetry_space_group_name_H-M   'P 1'
_cell_length_a   3.98450764
_cell_length_b   5.94675290
_cell_length_c   10.41869666
_cell_angle_alpha   97.82845808
_cell_angle_beta   90.00000000
_cell_angle_gamma   90.00000000
_symmetry_Int_Tables_number   1
_chemical_formula_structural   HfTe3
_chemical_formula_sum   'Hf2 Te6'
_cell_volume   244.56904195
_cell_formula_units_Z   2
loop_
 _symmetry_equiv_pos_site_id
 _symmetry_equiv_pos_as_xyz
  1  'x, y, z'
loop_
 _atom_site_type_symbol
 _atom_site_label
 _atom_site_symmetry_multiplicity
 _atom_site_fract_x
 _atom_site_fract_y
 _atom_site_fract_z
 _atom_site_occupancy
  Hf  Hf0  1  0.75000000  0.71274508  0.84097513  1
  Hf  Hf1  1  0.25000000  0.28725492  0.15902587  1
  Te  Te0  1  0.75000000  0.56135112  0.32002690  1
  Te  Te1  1  0.25000000  0.43864888  0.67997310  1
  Te  Te2  1  0.75000000  0.23737621  0.95047087  1
  Te  Te3  1  0.25000000  0.76262379  0.04952913  1
  Te  Te4  1  0.75000000  0.09764410  0.32667123  1
  Te  Te5  1  0.25000000  0.90235590  0.67332877  1
loop_
_geom_bond_atom_site_label_1
_geom_bond_atom_site_label_2
_geom_bond_distance
_geom_bond_site_symmetry_2
Hf0 Te3 2.933054 1_656
Hf0 Te3 2.933054 1_556
Hf0 Te1 2.948705 1_555
Hf0 Te1 2.948705 1_655
Hf0 Te5 2.971163 1_655
Hf0 Te5 2.971163 1_555
Hf0 Te2 3.172592 1_565
Hf0 Te2 3.189251 1_555
Hf1 Te2 2.933062 1_554
Hf1 Te2 2.933062 1_454
Hf1 Te0 2.948700 1_555
Hf1 Te0 2.948700 1_455
Hf1 Te4 2.971157 1_455
Hf1 Te4 2.971157 1_555
Hf1 Te3 3.172595 1_545
Hf1 Te3 3.189256 1_555
Te0 Te4 2.767830 1_555
Te0 Te4 3.180512 1_565
Te1 Te5 2.767830 1_555
Te1 Te5 3.180512 1_545
