# generated using pymatgen
data_Hf9W4S
_symmetry_space_group_name_H-M   'P 1'
_cell_length_a   8.70054612
_cell_length_b   8.70054612
_cell_length_c   8.59005300
_cell_angle_alpha   90.00000000
_cell_angle_beta   90.00000000
_cell_angle_gamma   120.00000090
_symmetry_Int_Tables_number   1
_chemical_formula_structural   Hf9W4S
_chemical_formula_sum   'Hf18 W8 S2'
_cell_volume   563.14404757
_cell_formula_units_Z   2
loop_
 _symmetry_equiv_pos_site_id
 _symmetry_equiv_pos_as_xyz
  1  'x, y, z'
loop_
 _atom_site_type_symbol
 _atom_site_label
 _atom_site_symmetry_multiplicity
 _atom_site_fract_x
 _atom_site_fract_y
 _atom_site_fract_z
 _atom_site_occupancy
  Hf  Hf0  1  0.19647600  0.80352400  0.44879100  1
  Hf  Hf1  1  0.19647600  0.39295300  0.44879100  1
  Hf  Hf2  1  0.60704700  0.80352400  0.44879100  1
  Hf  Hf3  1  0.80352400  0.19647600  0.55120900  1
  Hf  Hf4  1  0.80352400  0.60704700  0.55120900  1
  Hf  Hf5  1  0.39295300  0.19647600  0.55120900  1
  Hf  Hf6  1  0.80352400  0.19647600  0.94879100  1
  Hf  Hf7  1  0.80352400  0.60704700  0.94879100  1
  Hf  Hf8  1  0.39295300  0.19647600  0.94879100  1
  Hf  Hf9  1  0.19647600  0.80352400  0.05120900  1
  Hf  Hf10  1  0.19647600  0.39295300  0.05120900  1
  Hf  Hf11  1  0.60704700  0.80352400  0.05120900  1
  Hf  Hf12  1  0.54191300  0.45808700  0.25000000  1
  Hf  Hf13  1  0.54191300  0.08382700  0.25000000  1
  Hf  Hf14  1  0.91617300  0.45808700  0.25000000  1
  Hf  Hf15  1  0.45808700  0.54191300  0.75000000  1
  Hf  Hf16  1  0.45808700  0.91617300  0.75000000  1
  Hf  Hf17  1  0.08382700  0.54191300  0.75000000  1
  W  W0  1  0.88930600  0.11069400  0.25000000  1
  W  W1  1  0.88930600  0.77861200  0.25000000  1
  W  W2  1  0.22138800  0.11069400  0.25000000  1
  W  W3  1  0.11069400  0.88930600  0.75000000  1
  W  W4  1  0.11069400  0.22138800  0.75000000  1
  W  W5  1  0.77861200  0.88930600  0.75000000  1
  W  W6  1  0.00000000  0.00000000  0.50000000  1
  W  W7  1  0.00000000  0.00000000  0.00000000  1
  S  S0  1  0.33333300  0.66666700  0.25000000  1
  S  S1  1  0.66666700  0.33333300  0.75000000  1
loop_
_geom_bond_atom_site_label_1
_geom_bond_atom_site_label_2
_geom_bond_distance
_geom_bond_site_symmetry_2
Hf0 S0 2.677593 1_555
Hf0 W3 2.892363 1_555
Hf0 W6 2.993350 1_565
Hf0 W2 3.086454 1_565
Hf0 W1 3.086454 1_455
Hf1 S0 2.677593 1_555
Hf1 W4 2.892366 1_555
Hf1 W6 2.993357 1_555
Hf1 W0 3.086457 1_455
Hf1 W2 3.086462 1_555
Hf2 S0 2.677593 1_555
Hf2 W5 2.892366 1_555
Hf2 W6 2.993357 1_665
Hf2 W0 3.086457 1_565
Hf2 W1 3.086462 1_555
Hf3 S1 2.677593 1_555
Hf3 W0 2.892363 1_555
Hf3 W6 2.993350 1_655
Hf3 W4 3.086454 1_655
Hf3 W5 3.086454 1_545
Hf4 S1 2.677593 1_555
Hf4 W1 2.892366 1_555
Hf4 W6 2.993357 1_665
Hf4 W3 3.086457 1_655
Hf4 W5 3.086462 1_555
Hf5 S1 2.677593 1_555
Hf5 W2 2.892366 1_555
Hf5 W6 2.993357 1_555
Hf5 W3 3.086457 1_545
Hf5 W4 3.086462 1_555
Hf6 S1 2.677593 1_555
Hf6 W0 2.892363 1_556
Hf6 W7 2.993350 1_656
Hf6 W4 3.086454 1_655
Hf6 W5 3.086454 1_545
Hf7 S1 2.677593 1_555
Hf7 W1 2.892366 1_556
Hf7 W7 2.993357 1_666
Hf7 W3 3.086457 1_655
Hf7 W5 3.086462 1_555
Hf8 S1 2.677593 1_555
Hf8 W2 2.892366 1_556
Hf8 W7 2.993357 1_556
Hf8 W3 3.086457 1_545
Hf8 W4 3.086462 1_555
Hf9 S0 2.677593 1_555
Hf9 W3 2.892363 1_554
Hf9 W7 2.993350 1_565
Hf9 W2 3.086454 1_565
Hf9 W1 3.086454 1_455
Hf10 S0 2.677593 1_555
Hf10 W4 2.892366 1_554
Hf10 W7 2.993357 1_555
Hf10 W0 3.086457 1_455
Hf10 W2 3.086462 1_555
Hf11 S0 2.677593 1_555
Hf11 W5 2.892366 1_554
Hf11 W7 2.993357 1_665
Hf11 W0 3.086457 1_565
Hf11 W1 3.086462 1_555
Hf12 W2 2.912670 1_555
Hf12 W1 2.912670 1_555
Hf12 S0 3.143256 1_555
Hf13 W2 2.912665 1_555
Hf13 W0 2.912674 1_555
Hf13 S0 3.143256 1_545
Hf14 W1 2.912665 1_555
Hf14 W0 2.912674 1_555
Hf14 S0 3.143256 1_655
Hf15 W4 2.912670 1_555
Hf15 W5 2.912670 1_555
Hf15 S1 3.143256 1_555
Hf16 W5 2.912665 1_555
Hf16 W3 2.912674 1_555
Hf16 S1 3.143256 1_565
Hf17 W4 2.912665 1_555
Hf17 W3 2.912674 1_555
Hf17 S1 3.143256 1_455
W0 W7 2.719281 1_655
W0 W6 2.719281 1_655
W0 W1 2.889295 1_545
W0 W2 2.889295 1_655
W1 W6 2.719281 1_665
W1 W7 2.719281 1_665
W1 W2 2.889295 1_665
W2 W6 2.719281 1_555
W2 W7 2.719281 1_555
W3 W6 2.719281 1_565
W3 W7 2.719281 1_566
W3 W5 2.889295 1_455
W3 W4 2.889295 1_565
W4 W7 2.719281 1_556
W4 W6 2.719281 1_555
W4 W5 2.889295 1_445
W5 W7 2.719281 1_666
W5 W6 2.719281 1_665
