# generated using pymatgen
data_CaSnS3
_symmetry_space_group_name_H-M   'P 1'
_cell_length_a   6.87389998
_cell_length_b   6.87389998
_cell_length_c   12.25258600
_cell_angle_alpha   90.00000000
_cell_angle_beta   90.00000000
_cell_angle_gamma   119.99999981
_symmetry_Int_Tables_number   1
_chemical_formula_structural   CaSnS3
_chemical_formula_sum   'Ca4 Sn4 S12'
_cell_volume   501.37746379
_cell_formula_units_Z   4
loop_
 _symmetry_equiv_pos_site_id
 _symmetry_equiv_pos_as_xyz
  1  'x, y, z'
loop_
 _atom_site_type_symbol
 _atom_site_label
 _atom_site_symmetry_multiplicity
 _atom_site_fract_x
 _atom_site_fract_y
 _atom_site_fract_z
 _atom_site_occupancy
  Ca  Ca0  1  0.00000000  0.00000000  0.50000000  1
  Ca  Ca1  1  0.00000000  0.00000000  0.00000000  1
  Ca  Ca2  1  0.33333300  0.66666700  0.25000000  1
  Ca  Ca3  1  0.66666700  0.33333300  0.75000000  1
  Sn  Sn0  1  0.33333300  0.66666700  0.87657700  1
  Sn  Sn1  1  0.66666700  0.33333300  0.12342300  1
  Sn  Sn2  1  0.66666700  0.33333300  0.37657700  1
  Sn  Sn3  1  0.33333300  0.66666700  0.62342300  1
  S  S0  1  0.50000000  0.50000000  0.50000000  1
  S  S1  1  0.50000000  0.00000000  0.50000000  1
  S  S2  1  0.00000000  0.50000000  0.50000000  1
  S  S3  1  0.50000000  0.50000000  0.00000000  1
  S  S4  1  0.50000000  0.00000000  0.00000000  1
  S  S5  1  0.00000000  0.50000000  0.00000000  1
  S  S6  1  0.83715300  0.16284700  0.25000000  1
  S  S7  1  0.83715300  0.67430500  0.25000000  1
  S  S8  1  0.32569500  0.16284700  0.25000000  1
  S  S9  1  0.16284700  0.83715300  0.75000000  1
  S  S10  1  0.16284700  0.32569500  0.75000000  1
  S  S11  1  0.67430500  0.83715300  0.75000000  1
loop_
_geom_bond_atom_site_label_1
_geom_bond_atom_site_label_2
_geom_bond_distance
_geom_bond_site_symmetry_2
Ca0 S1 3.436950 1_555
Ca0 S2 3.436950 1_555
Ca0 S2 3.436950 1_545
Ca0 S1 3.436950 1_455
Ca0 S0 3.436950 1_555
Ca0 S0 3.436950 1_445
Ca1 S5 3.436950 1_555
Ca1 S4 3.436950 1_455
Ca1 S5 3.436950 1_545
Ca1 S4 3.436950 1_555
Ca1 S3 3.436950 1_555
Ca1 S3 3.436950 1_445
Ca2 S8 3.437244 1_565
Ca2 S7 3.437244 1_455
Ca2 S6 3.437251 1_565
Ca2 S6 3.437251 1_455
Ca2 S7 3.437258 1_555
Ca2 S8 3.437258 1_555
Ca3 S10 3.437244 1_655
Ca3 S11 3.437244 1_545
Ca3 S9 3.437251 1_655
Ca3 S9 3.437251 1_545
Ca3 S11 3.437258 1_555
Ca3 S10 3.437258 1_555
S0 Sn2 2.494887 1_555
S0 Sn3 2.494887 1_555
S1 Sn3 2.494882 1_545
S1 Sn2 2.494882 1_555
S2 Sn3 2.494882 1_555
S2 Sn2 2.494882 1_455
S3 Sn0 2.494887 1_554
S3 Sn1 2.494887 1_555
S4 Sn0 2.494882 1_544
S4 Sn1 2.494882 1_555
S5 Sn0 2.494882 1_554
S5 Sn1 2.494882 1_455
S6 Sn2 2.554477 1_555
S6 Sn1 2.554477 1_555
S7 Sn1 2.554477 1_555
S7 Sn2 2.554477 1_555
S8 Sn1 2.554477 1_555
S8 Sn2 2.554477 1_555
S9 Sn3 2.554477 1_555
S9 Sn0 2.554477 1_555
S10 Sn0 2.554477 1_555
S10 Sn3 2.554477 1_555
S11 Sn0 2.554477 1_555
S11 Sn3 2.554477 1_555
