# generated using pymatgen
data_HoIn2Ni9
_symmetry_space_group_name_H-M   'P 1'
_cell_length_a   8.24105500
_cell_length_b   8.24105500
_cell_length_c   4.80515000
_cell_angle_alpha   90.00000000
_cell_angle_beta   90.00000000
_cell_angle_gamma   90.00000000
_symmetry_Int_Tables_number   1
_chemical_formula_structural   HoIn2Ni9
_chemical_formula_sum   'Ho2 In4 Ni18'
_cell_volume   326.34170225
_cell_formula_units_Z   2
loop_
 _symmetry_equiv_pos_site_id
 _symmetry_equiv_pos_as_xyz
  1  'x, y, z'
loop_
 _atom_site_type_symbol
 _atom_site_label
 _atom_site_symmetry_multiplicity
 _atom_site_fract_x
 _atom_site_fract_y
 _atom_site_fract_z
 _atom_site_occupancy
  Ho  Ho0  1  0.50000000  0.50000000  0.00000000  1
  Ho  Ho1  1  0.00000000  0.00000000  0.00000000  1
  In  In0  1  0.12440800  0.62440800  0.00000000  1
  In  In1  1  0.87559200  0.37559200  0.00000000  1
  In  In2  1  0.37559200  0.12440800  0.00000000  1
  In  In3  1  0.62440800  0.87559200  0.00000000  1
  Ni  Ni0  1  0.00000000  0.50000000  0.50000000  1
  Ni  Ni1  1  0.50000000  0.00000000  0.50000000  1
  Ni  Ni2  1  0.56326200  0.70603700  0.50000000  1
  Ni  Ni3  1  0.43673800  0.29396300  0.50000000  1
  Ni  Ni4  1  0.93673800  0.20603700  0.50000000  1
  Ni  Ni5  1  0.06326200  0.79396300  0.50000000  1
  Ni  Ni6  1  0.70603700  0.43673800  0.50000000  1
  Ni  Ni7  1  0.29396300  0.56326200  0.50000000  1
  Ni  Ni8  1  0.20603700  0.06326200  0.50000000  1
  Ni  Ni9  1  0.79396300  0.93673800  0.50000000  1
  Ni  Ni10  1  0.32372400  0.82372400  0.75206900  1
  Ni  Ni11  1  0.67627600  0.17627600  0.75206900  1
  Ni  Ni12  1  0.17627600  0.32372400  0.75206900  1
  Ni  Ni13  1  0.82372400  0.67627600  0.75206900  1
  Ni  Ni14  1  0.67627600  0.17627600  0.24793100  1
  Ni  Ni15  1  0.32372400  0.82372400  0.24793100  1
  Ni  Ni16  1  0.82372400  0.67627600  0.24793100  1
  Ni  Ni17  1  0.17627600  0.32372400  0.24793100  1
loop_
_geom_bond_atom_site_label_1
_geom_bond_atom_site_label_2
_geom_bond_distance
_geom_bond_site_symmetry_2
Ho0 Ni2 2.987849 1_554
Ho0 Ni2 2.987849 1_555
Ho0 Ni6 2.987849 1_555
Ho0 Ni6 2.987849 1_554
Ho0 Ni7 2.987849 1_555
Ho0 Ni7 2.987849 1_554
Ho0 Ni3 2.987849 1_555
Ho0 Ni3 2.987849 1_554
Ho0 In3 3.260654 1_555
Ho0 In1 3.260654 1_555
Ho0 In0 3.260654 1_555
Ho0 In2 3.260654 1_555
Ho0 Ni16 3.262966 1_555
Ho0 Ni15 3.262966 1_555
Ho0 Ni17 3.262966 1_555
Ho0 Ni14 3.262966 1_555
Ho0 Ni10 3.262966 1_554
Ho0 Ni11 3.262966 1_554
Ho0 Ni13 3.262966 1_554
Ho0 Ni12 3.262966 1_554
Ho1 Ni9 2.987849 1_444
Ho1 Ni5 2.987849 1_545
Ho1 Ni9 2.987849 1_445
Ho1 Ni4 2.987849 1_454
Ho1 Ni8 2.987849 1_554
Ho1 Ni5 2.987849 1_544
Ho1 Ni8 2.987849 1_555
Ho1 Ni4 2.987849 1_455
Ho1 In2 3.260654 1_555
Ho1 In0 3.260654 1_545
Ho1 In1 3.260654 1_455
Ho1 In3 3.260654 1_445
Ho1 Ni17 3.262966 1_555
Ho1 Ni15 3.262966 1_545
Ho1 Ni16 3.262966 1_445
Ho1 Ni14 3.262966 1_455
Ho1 Ni11 3.262966 1_454
Ho1 Ni10 3.262966 1_544
Ho1 Ni13 3.262966 1_444
Ho1 Ni12 3.262966 1_554
In0 Ni15 2.610633 1_555
In0 Ni10 2.610633 1_554
In0 Ni16 2.782493 1_455
In0 Ni13 2.782493 1_454
In0 Ni17 2.782493 1_555
In0 Ni12 2.782493 1_554
In0 Ni0 2.806182 1_554
In0 Ni0 2.806182 1_555
In0 Ni5 2.824672 1_554
In0 Ni5 2.824672 1_555
In0 Ni7 2.824672 1_554
In0 Ni7 2.824672 1_555
In0 In1 2.899854 1_455
In1 Ni14 2.610633 1_555
In1 Ni11 2.610633 1_554
In1 Ni16 2.782493 1_555
In1 Ni13 2.782493 1_554
In1 Ni17 2.782493 1_655
In1 Ni12 2.782493 1_654
In1 Ni0 2.806182 1_654
In1 Ni0 2.806182 1_655
In1 Ni6 2.824672 1_554
In1 Ni6 2.824672 1_555
In1 Ni4 2.824672 1_554
In1 Ni4 2.824672 1_555
In2 Ni17 2.610633 1_555
In2 Ni12 2.610633 1_554
In2 Ni15 2.782493 1_545
In2 Ni10 2.782493 1_544
In2 Ni14 2.782493 1_555
In2 Ni11 2.782493 1_554
In2 Ni1 2.806182 1_554
In2 Ni1 2.806182 1_555
In2 Ni8 2.824672 1_554
In2 Ni8 2.824672 1_555
In2 Ni3 2.824672 1_555
In2 Ni3 2.824672 1_554
In2 In3 2.899854 1_545
In3 Ni16 2.610633 1_555
In3 Ni13 2.610633 1_554
In3 Ni15 2.782493 1_555
In3 Ni10 2.782493 1_554
In3 Ni14 2.782493 1_565
In3 Ni11 2.782493 1_564
In3 Ni1 2.806182 1_564
In3 Ni1 2.806182 1_565
In3 Ni9 2.824672 1_555
In3 Ni2 2.824672 1_555
In3 Ni2 2.824672 1_554
In3 Ni9 2.824672 1_554
Ni0 Ni13 2.384901 1_455
Ni0 Ni12 2.384901 1_555
Ni0 Ni16 2.384901 1_455
Ni0 Ni17 2.384901 1_555
Ni0 Ni7 2.478028 1_555
Ni0 Ni5 2.478028 1_555
Ni0 Ni4 2.478028 1_455
Ni0 Ni6 2.478028 1_455
Ni1 Ni10 2.384901 1_545
Ni1 Ni11 2.384901 1_555
Ni1 Ni15 2.384901 1_545
Ni1 Ni14 2.384901 1_555
Ni1 Ni8 2.478028 1_555
Ni1 Ni9 2.478028 1_545
Ni1 Ni3 2.478028 1_555
Ni1 Ni2 2.478028 1_545
Ni2 Ni7 2.511922 1_555
Ni2 Ni6 2.511922 1_555
Ni2 Ni9 2.688731 1_555
Ni3 Ni7 2.511922 1_555
Ni3 Ni6 2.511922 1_555
Ni3 Ni8 2.688731 1_555
Ni4 Ni9 2.511922 1_545
Ni4 Ni8 2.511922 1_655
Ni4 Ni6 2.688731 1_555
Ni5 Ni8 2.511922 1_565
Ni5 Ni9 2.511922 1_455
Ni5 Ni7 2.688731 1_555
Ni10 Ni15 2.382691 1_556
Ni10 Ni15 2.422459 1_555
Ni10 Ni5 2.476815 1_555
Ni10 Ni7 2.476815 1_555
Ni10 Ni2 2.510891 1_555
Ni10 Ni8 2.510891 1_565
Ni11 Ni14 2.382691 1_556
Ni11 Ni14 2.422459 1_555
Ni11 Ni6 2.476815 1_555
Ni11 Ni4 2.476815 1_555
Ni11 Ni9 2.510891 1_545
Ni11 Ni3 2.510891 1_555
Ni12 Ni17 2.382691 1_556
Ni12 Ni17 2.422459 1_555
Ni12 Ni3 2.476815 1_555
Ni12 Ni8 2.476815 1_555
Ni12 Ni7 2.510891 1_555
Ni12 Ni4 2.510891 1_455
Ni13 Ni16 2.382691 1_556
Ni13 Ni16 2.422459 1_555
Ni13 Ni9 2.476815 1_555
Ni13 Ni2 2.476815 1_555
Ni13 Ni5 2.510891 1_655
Ni13 Ni6 2.510891 1_555
Ni14 Ni6 2.476815 1_555
Ni14 Ni4 2.476815 1_555
Ni14 Ni9 2.510891 1_545
Ni14 Ni3 2.510891 1_555
Ni15 Ni5 2.476815 1_555
Ni15 Ni7 2.476815 1_555
Ni15 Ni2 2.510891 1_555
Ni15 Ni8 2.510891 1_565
Ni16 Ni9 2.476815 1_555
Ni16 Ni2 2.476815 1_555
Ni16 Ni5 2.510891 1_655
Ni16 Ni6 2.510891 1_555
Ni17 Ni3 2.476815 1_555
Ni17 Ni8 2.476815 1_555
Ni17 Ni7 2.510891 1_555
Ni17 Ni4 2.510891 1_455
