# generated using pymatgen
data_Er(AlSi)2
_symmetry_space_group_name_H-M   'P 1'
_cell_length_a   4.21186964
_cell_length_b   4.21186964
_cell_length_c   6.46276200
_cell_angle_alpha   90.00000000
_cell_angle_beta   90.00000000
_cell_angle_gamma   119.99999432
_symmetry_Int_Tables_number   1
_chemical_formula_structural   Er(AlSi)2
_chemical_formula_sum   'Er1 Al2 Si2'
_cell_volume   99.28843402
_cell_formula_units_Z   1
loop_
 _symmetry_equiv_pos_site_id
 _symmetry_equiv_pos_as_xyz
  1  'x, y, z'
loop_
 _atom_site_type_symbol
 _atom_site_label
 _atom_site_symmetry_multiplicity
 _atom_site_fract_x
 _atom_site_fract_y
 _atom_site_fract_z
 _atom_site_occupancy
  Er  Er0  1  0.00000000  0.00000000  0.00000000  1
  Al  Al0  1  0.66666700  0.33333300  0.35345300  1
  Al  Al1  1  0.33333300  0.66666700  0.64654700  1
  Si  Si0  1  0.66666700  0.33333300  0.74295300  1
  Si  Si1  1  0.33333300  0.66666700  0.25704700  1
loop_
_geom_bond_atom_site_label_1
_geom_bond_atom_site_label_2
_geom_bond_distance
_geom_bond_site_symmetry_2
Er0 Si1 2.944990 1_545
Er0 Si0 2.944990 1_454
Er0 Si1 2.944993 1_555
Er0 Si1 2.944993 1_445
Er0 Si0 2.944993 1_554
Er0 Si0 2.944993 1_444
Al0 Si1 2.510271 1_545
Al0 Si1 2.510271 1_655
Al0 Si1 2.510278 1_555
Al0 Si0 2.517246 1_555
Al1 Si0 2.510271 1_455
Al1 Si0 2.510271 1_565
Al1 Si0 2.510278 1_555
Al1 Si1 2.517246 1_555
