# generated using pymatgen
data_Li6V3P8O29
_symmetry_space_group_name_H-M   'P 1'
_cell_length_a   9.78715700
_cell_length_b   9.82695617
_cell_length_c   13.99780154
_cell_angle_alpha   90.00080349
_cell_angle_beta   90.49571298
_cell_angle_gamma   119.63394890
_symmetry_Int_Tables_number   1
_chemical_formula_structural   Li6V3P8O29
_chemical_formula_sum   'Li12 V6 P16 O58'
_cell_volume   1170.13138119
_cell_formula_units_Z   2
loop_
 _symmetry_equiv_pos_site_id
 _symmetry_equiv_pos_as_xyz
  1  'x, y, z'
loop_
 _atom_site_type_symbol
 _atom_site_label
 _atom_site_symmetry_multiplicity
 _atom_site_fract_x
 _atom_site_fract_y
 _atom_site_fract_z
 _atom_site_occupancy
  Li  Li0  1  0.09484300  0.32690100  0.06197100  1
  Li  Li1  1  0.23630800  0.33820600  0.56086600  1
  Li  Li2  1  0.10132500  0.76748800  0.55623700  1
  Li  Li3  1  0.22486900  0.91049700  0.06398700  1
  Li  Li4  1  0.67788500  0.77256500  0.06004800  1
  Li  Li5  1  0.66936000  0.90164100  0.55679000  1
  Li  Li6  1  0.77885400  0.08690800  0.94021300  1
  Li  Li7  1  0.65891500  0.32158100  0.60976400  1
  Li  Li8  1  0.65440700  0.32435100  0.11228700  1
  Li  Li9  1  0.76813300  0.67830200  0.43518000  1
  Li  Li10  1  0.91871500  0.69297000  0.93824100  1
  Li  Li11  1  0.02624300  0.04473600  0.49104300  1
  V  V0  1  0.43456000  0.00291700  0.25692200  1
  V  V1  1  0.56444700  0.99718500  0.74943900  1
  V  V2  1  0.43083000  0.43108600  0.75298600  1
  V  V3  1  0.56170300  0.56146700  0.24876200  1
  V  V4  1  0.99955700  0.43111600  0.25294900  1
  V  V5  1  0.00494200  0.56839000  0.74890700  1
  P  P0  1  0.08600100  0.31679600  0.84393700  1
  P  P1  1  0.23142000  0.31508800  0.34454700  1
  P  P2  1  0.08524000  0.77220900  0.34192400  1
  P  P3  1  0.33202400  0.67017500  0.12975000  1
  P  P4  1  0.33758400  0.66669600  0.62617200  1
  P  P5  1  0.23336800  0.91497900  0.84480800  1
  P  P6  1  0.30568300  0.08634800  0.65983200  1
  P  P7  1  0.67973000  0.76692300  0.84153300  1
  P  P8  1  0.31328900  0.22507200  0.16012400  1
  P  P9  1  0.68935100  0.91339300  0.34376500  1
  P  P10  1  0.76904200  0.09049300  0.15938800  1
  P  P11  1  0.66935500  0.33468700  0.37050500  1
  P  P12  1  0.67103700  0.33639400  0.87066200  1
  P  P13  1  0.90998800  0.22126500  0.65948400  1
  P  P14  1  0.76913900  0.67767300  0.65799200  1
  P  P15  1  0.90719500  0.67609800  0.15727400  1
  O  O0  1  0.00698900  0.21185300  0.58053700  1
  O  O1  1  0.09144100  0.34472600  0.32972400  1
  O  O2  1  0.22697900  0.24176000  0.07769100  1
  O  O3  1  0.24869000  0.33610000  0.83825200  1
  O  O4  1  0.09495500  0.47665100  0.81909700  1
  O  O5  1  0.18268400  0.52073700  0.16645200  1
  O  O6  1  0.08398400  0.61659600  0.33088000  1
  O  O7  1  0.00143700  0.75289500  0.06939300  1
  O  O8  1  0.08500900  0.74978400  0.83553900  1
  O  O9  1  0.33263800  0.51446500  0.67009700  1
  O  O10  1  0.38687900  0.46986800  0.33353300  1
  O  O11  1  0.19043600  0.67360900  0.66401600  1
  O  O12  1  0.33863300  0.67972600  0.02362000  1
  O  O13  1  0.33998900  0.65987200  0.51989100  1
  O  O14  1  0.33896200  0.82025600  0.17553100  1
  O  O15  1  0.51863800  0.62215800  0.82627700  1
  O  O16  1  0.48162900  0.66342000  0.17094100  1
  O  O17  1  0.24967800  0.91327600  0.33821100  1
  O  O18  1  0.21691000  0.01521400  0.76010000  1
  O  O19  1  0.20062600  0.98814400  0.57988200  1
  O  O20  1  0.24299800  0.98773100  0.93891800  1
  O  O21  1  0.38369100  0.90457300  0.82032900  1
  O  O22  1  0.49078700  0.81190600  0.66672400  1
  O  O23  1  0.33226200  0.07860600  0.15795100  1
  O  O24  1  0.53192000  0.91179700  0.33478100  1
  O  O25  1  0.66697800  0.74666800  0.33514500  1
  O  O26  1  0.21729700  0.20254100  0.25817200  1
  O  O27  1  0.21559900  0.23318300  0.43745900  1
  O  O28  1  0.76588500  0.76423400  0.56987400  1
  O  O29  1  0.33105800  0.25409200  0.65769400  1
  O  O30  1  0.47090800  0.09975500  0.66823600  1
  O  O31  1  0.67064200  0.92013100  0.83842400  1
  O  O32  1  0.51707200  0.18911800  0.32831900  1
  O  O33  1  0.62432700  0.11228900  0.17362100  1
  O  O34  1  0.75435300  0.99723600  0.07037700  1
  O  O35  1  0.78099600  0.98865000  0.43376200  1
  O  O36  1  0.79187800  0.00426300  0.25055000  1
  O  O37  1  0.73893100  0.07899000  0.65729300  1
  O  O38  1  0.52395500  0.33859200  0.82513800  1
  O  O39  1  0.48292700  0.36939800  0.17451100  1
  O  O40  1  0.67200400  0.18712000  0.83166800  1
  O  O41  1  0.66924000  0.33697300  0.97768500  1
  O  O42  1  0.66878000  0.33964400  0.47739400  1
  O  O43  1  0.80961600  0.32566300  0.32758500  1
  O  O44  1  0.62370600  0.51423100  0.66894800  1
  O  O45  1  0.67388300  0.48795200  0.33059800  1
  O  O46  1  0.91785100  0.25426100  0.15693400  1
  O  O47  1  0.98035500  0.19986200  0.75957000  1
  O  O48  1  0.99932800  0.25229600  0.93559400  1
  O  O49  1  0.89593900  0.37108300  0.66662300  1
  O  O50  1  0.81936900  0.48833300  0.83328900  1
  O  O51  1  0.88697700  0.51090400  0.17405700  1
  O  O52  1  0.74184300  0.65901600  0.15293800  1
  O  O53  1  0.76159400  0.76082300  0.93171700  1
  O  O54  1  0.78965100  0.78236600  0.75107400  1
  O  O55  1  0.91827000  0.65871600  0.65827500  1
  O  O56  1  0.99819300  0.77675500  0.43014200  1
  O  O57  1  0.99144900  0.78496900  0.24869300  1
loop_
_geom_bond_atom_site_label_1
_geom_bond_atom_site_label_2
_geom_bond_distance
_geom_bond_site_symmetry_2
Li0 O2 1.867087 1_555
Li0 O48 1.958146 1_454
Li0 O46 2.023426 1_455
Li0 O5 2.205693 1_555
Li1 O27 1.969075 1_555
Li1 O0 1.977277 1_555
Li1 O29 2.028927 1_555
Li1 O9 2.141705 1_555
Li2 O19 1.914767 1_555
Li2 O56 2.050026 1_455
Li2 O55 2.131413 1_455
Li2 O11 2.158877 1_555
Li3 O20 1.882733 1_554
Li3 O23 1.955182 1_565
Li3 O7 1.959579 1_555
Li3 O14 2.328156 1_555
Li4 O34 1.954385 1_555
Li4 O52 2.001073 1_555
Li4 O53 2.007573 1_554
Li4 O16 2.294261 1_555
Li5 O35 1.999826 1_555
Li5 O28 2.001949 1_555
Li5 O37 2.071223 1_565
Li5 O22 2.173162 1_555
Li6 O48 1.958596 1_555
Li6 O34 1.988059 1_546
Li6 O31 2.023642 1_545
Li6 O40 2.315798 1_555
Li7 O42 1.860157 1_555
Li7 O30 2.206139 1_555
Li7 O44 2.244811 1_555
Li7 O49 2.259116 1_555
Li8 O41 1.890330 1_554
Li8 O39 2.128682 1_555
Li8 O33 2.136405 1_555
Li8 O51 2.264688 1_555
Li9 O56 1.964517 1_555
Li9 O25 2.006500 1_555
Li9 O28 2.070612 1_555
Li9 O45 2.182466 1_555
Li10 O53 1.956846 1_555
Li10 O7 1.968586 1_656
Li10 O8 2.041867 1_655
Li10 O50 2.277979 1_555
Li11 O27 2.014125 1_555
Li11 O0 2.147527 1_555
Li11 O35 2.316549 1_445
Li11 O19 2.381279 1_545
O0 P13 1.495341 1_455
O1 P1 1.547399 1_555
O1 V4 1.850041 1_455
O2 P8 1.480552 1_555
O3 P0 1.510334 1_555
O3 V2 1.965943 1_555
O4 P0 1.568653 1_555
O4 V5 1.823351 1_555
O5 P3 1.564354 1_555
O5 V4 1.982551 1_455
O6 P2 1.530973 1_555
O6 V4 1.920923 1_455
O7 P15 1.504934 1_455
O8 P5 1.557628 1_555
O8 V5 1.965763 1_555
O9 P4 1.596006 1_555
O9 V2 1.923682 1_555
O10 P1 1.538739 1_555
O10 V3 1.912585 1_555
O11 P4 1.571383 1_555
O11 V5 1.989487 1_555
O12 P3 1.488497 1_555
O13 P4 1.490123 1_555
O14 P3 1.578168 1_555
O14 V0 1.927715 1_565
O15 P7 1.526852 1_555
O15 V2 1.924989 1_555
O16 P3 1.600709 1_555
O16 V3 1.888469 1_555
O17 P2 1.519765 1_555
O17 V0 1.950454 1_565
O18 P5 1.598673 1_545
O18 P6 1.622941 1_555
O19 P6 1.496582 1_565
O20 P5 1.478704 1_555
O21 P5 1.565216 1_555
O21 V1 1.838701 1_555
O22 P4 1.573552 1_555
O22 V1 1.965399 1_555
O23 P8 1.539947 1_555
O23 V0 2.046307 1_555
O24 P9 1.537166 1_555
O24 V0 1.929610 1_565
O25 P9 1.546485 1_555
O25 V3 1.989962 1_555
O26 P1 1.596886 1_555
O26 P8 1.622317 1_555
O27 P1 1.497844 1_555
O28 P14 1.507364 1_555
O29 P6 1.541144 1_555
O29 V2 2.013896 1_555
O30 P6 1.559543 1_555
O30 V1 2.010132 1_545
O31 P7 1.552065 1_555
O31 V1 1.990229 1_555
O32 P11 1.578835 1_555
O32 V0 1.877175 1_555
O33 P10 1.548062 1_555
O33 V0 2.006924 1_555
O34 P10 1.509804 1_565
O35 P9 1.504286 1_555
O36 P10 1.605844 1_555
O36 P9 1.625853 1_545
O37 P13 1.562975 1_555
O37 V1 1.976546 1_545
O38 P12 1.579118 1_555
O38 V2 1.865542 1_555
O39 P8 1.572949 1_555
O39 V3 1.945292 1_555
O40 P12 1.569598 1_555
O40 V1 1.988139 1_545
O41 P12 1.498386 1_555
O42 P11 1.497153 1_555
O43 P11 1.545290 1_555
O43 V4 1.936425 1_555
O44 P14 1.540190 1_555
O44 V2 2.031748 1_555
O45 P11 1.586467 1_555
O45 V3 1.949924 1_555
O46 P10 1.547672 1_555
O46 V4 2.018223 1_555
O47 P0 1.608743 1_655
O47 P13 1.614883 1_555
O48 P0 1.501518 1_655
O49 P13 1.548177 1_555
O49 V5 2.038945 1_655
O50 P12 1.574859 1_555
O50 V5 1.984161 1_655
O51 P15 1.553311 1_555
O51 V4 1.970189 1_555
O52 P15 1.542885 1_555
O52 V3 2.048431 1_555
O53 P7 1.506365 1_555
O54 P14 1.608604 1_555
O54 P7 1.626610 1_555
O55 P14 1.560079 1_555
O55 V5 1.960341 1_655
O56 P2 1.519380 1_655
O57 P15 1.603559 1_555
O57 P2 1.629280 1_655
