# generated using pymatgen
data_Mg6CdMo
_symmetry_space_group_name_H-M   'P 1'
_cell_length_a   4.90107900
_cell_length_b   6.20427700
_cell_length_c   10.74315100
_cell_angle_alpha   90.00000000
_cell_angle_beta   90.00000000
_cell_angle_gamma   90.00000000
_symmetry_Int_Tables_number   1
_chemical_formula_structural   Mg6CdMo
_chemical_formula_sum   'Mg12 Cd2 Mo2'
_cell_volume   326.67399393
_cell_formula_units_Z   2
loop_
 _symmetry_equiv_pos_site_id
 _symmetry_equiv_pos_as_xyz
  1  'x, y, z'
loop_
 _atom_site_type_symbol
 _atom_site_label
 _atom_site_symmetry_multiplicity
 _atom_site_fract_x
 _atom_site_fract_y
 _atom_site_fract_z
 _atom_site_occupancy
  Mg  Mg0  1  0.50000000  0.25248300  0.08278300  1
  Mg  Mg1  1  0.50000000  0.74751700  0.08278300  1
  Mg  Mg2  1  0.00000000  0.23774200  0.91280100  1
  Mg  Mg3  1  0.00000000  0.76225800  0.91280100  1
  Mg  Mg4  1  0.00000000  0.50000000  0.17526400  1
  Mg  Mg5  1  0.00000000  0.50000000  0.66736000  1
  Mg  Mg6  1  0.50000000  0.75248300  0.58278300  1
  Mg  Mg7  1  0.50000000  0.24751700  0.58278300  1
  Mg  Mg8  1  0.00000000  0.73774200  0.41280100  1
  Mg  Mg9  1  0.00000000  0.26225800  0.41280100  1
  Mg  Mg10  1  0.00000000  0.00000000  0.67526400  1
  Mg  Mg11  1  0.00000000  0.00000000  0.16736000  1
  Cd  Cd0  1  0.50000000  0.50000000  0.83376900  1
  Cd  Cd1  1  0.50000000  0.00000000  0.33376900  1
  Mo  Mo0  1  0.50000000  0.50000000  0.33244200  1
  Mo  Mo1  1  0.50000000  0.00000000  0.83244200  1
loop_
_geom_bond_atom_site_label_1
_geom_bond_atom_site_label_2
_geom_bond_distance
_geom_bond_site_symmetry_2
Mg0 Mg11 3.047061 1_655
Mg0 Mg11 3.047061 1_555
Mg0 Mg2 3.057500 1_654
Mg0 Mg2 3.057500 1_554
Mg0 Mg4 3.057863 1_555
Mg0 Mg4 3.057863 1_655
Mg0 Mg1 3.071328 1_555
Mg0 Mo0 3.090640 1_555
Mg0 Mo1 3.112393 1_554
Mg0 Mg1 3.132949 1_545
Mg1 Mg11 3.047061 1_665
Mg1 Mg11 3.047061 1_565
Mg1 Mg3 3.057500 1_654
Mg1 Mg3 3.057500 1_554
Mg1 Mg4 3.057863 1_555
Mg1 Mg4 3.057863 1_655
Mg1 Mo0 3.090640 1_555
Mg1 Mo1 3.112393 1_564
Mg2 Mg3 2.950034 1_545
Mg2 Mo1 2.987662 1_555
Mg2 Mo1 2.987662 1_455
Mg2 Mg5 3.098433 1_555
Mg2 Mg3 3.254243 1_555
Mg2 Mg4 3.255475 1_556
Mg3 Mo1 2.987662 1_565
Mg3 Mo1 2.987662 1_465
Mg3 Mg5 3.098433 1_555
Mg3 Mg4 3.255475 1_556
Mg4 Mg8 2.947516 1_555
Mg4 Mg9 2.947516 1_555
Mg4 Mo0 2.975982 1_555
Mg4 Mo0 2.975982 1_455
Mg5 Mg7 3.047061 1_455
Mg5 Mg6 3.047061 1_555
Mg5 Mg7 3.047061 1_555
Mg5 Mg6 3.047061 1_455
Mg5 Mg8 3.107188 1_555
Mg5 Mg9 3.107188 1_555
Mg6 Mg8 3.057500 1_555
Mg6 Mg8 3.057500 1_655
Mg6 Mg7 3.071328 1_565
Mg6 Mo1 3.090640 1_565
Mg6 Mo0 3.112393 1_555
Mg6 Mg7 3.132949 1_555
Mg7 Mg9 3.057500 1_655
Mg7 Mg9 3.057500 1_555
Mg7 Mo1 3.090640 1_555
Mg7 Mo0 3.112393 1_555
Mg8 Mg9 2.950034 1_555
Mg8 Mo0 2.987662 1_555
Mg8 Mo0 2.987662 1_455
Mg8 Mg9 3.254243 1_565
Mg9 Mo0 2.987662 1_555
Mg9 Mo0 2.987662 1_455
Mg10 Mg3 2.947516 1_545
Mg10 Mg2 2.947516 1_555
Mg10 Mo1 2.975982 1_555
Mg10 Mo1 2.975982 1_455
Mg10 Mg7 3.057863 1_455
Mg10 Mg6 3.057863 1_545
Mg10 Mg7 3.057863 1_555
Mg10 Mg6 3.057863 1_445
Mg10 Mg5 3.103300 1_555
Mg10 Mg5 3.103300 1_545
Mg10 Mg9 3.255475 1_555
Mg10 Mg8 3.255475 1_545
Mg11 Mg8 3.098433 1_545
Mg11 Mg9 3.098433 1_555
Mg11 Mg4 3.103300 1_555
Mg11 Mg4 3.103300 1_545
Mg11 Mg2 3.107188 1_554
Mg11 Mg3 3.107188 1_544
Cd0 Mg5 3.033351 1_655
Cd0 Mg5 3.033351 1_555
Cd0 Mg2 3.061627 1_555
Cd0 Mg3 3.061627 1_555
Cd0 Mg2 3.061627 1_655
Cd0 Mg3 3.061627 1_655
Cd0 Mg0 3.084628 1_556
Cd0 Mg1 3.084628 1_556
Cd0 Mo1 3.102171 1_565
Cd0 Mo1 3.102171 1_555
Cd0 Mg7 3.118383 1_555
Cd0 Mg6 3.118383 1_555
Cd1 Mg11 3.033351 1_555
Cd1 Mg11 3.033351 1_655
Cd1 Mg8 3.061627 1_545
Cd1 Mg8 3.061627 1_645
Cd1 Mg9 3.061627 1_555
Cd1 Mg9 3.061627 1_655
Cd1 Mg6 3.084628 1_545
Cd1 Mg7 3.084628 1_555
Cd1 Mo0 3.102171 1_545
Cd1 Mo0 3.102171 1_555
Cd1 Mg1 3.118383 1_545
Cd1 Mg0 3.118383 1_555
