# generated using pymatgen
data_LiFe2OF3
_symmetry_space_group_name_H-M   'P 1'
_cell_length_a   6.17614133
_cell_length_b   10.85312686
_cell_length_c   6.18408652
_cell_angle_alpha   106.54398932
_cell_angle_beta   59.96305801
_cell_angle_gamma   106.45404832
_symmetry_Int_Tables_number   1
_chemical_formula_structural   LiFe2OF3
_chemical_formula_sum   'Li4 Fe8 O4 F12'
_cell_volume   339.01581602
_cell_formula_units_Z   4
loop_
 _symmetry_equiv_pos_site_id
 _symmetry_equiv_pos_as_xyz
  1  'x, y, z'
loop_
 _atom_site_type_symbol
 _atom_site_label
 _atom_site_symmetry_multiplicity
 _atom_site_fract_x
 _atom_site_fract_y
 _atom_site_fract_z
 _atom_site_occupancy
  Li  Li0  1  0.51005700  0.53000500  0.50999400  1
  Li  Li1  1  0.01006800  0.03004200  0.01000500  1
  Li  Li2  1  0.36494400  0.09498700  0.36500500  1
  Li  Li3  1  0.86492800  0.59495000  0.86499000  1
  Fe  Fe0  1  0.93750700  0.31249500  0.43748900  1
  Fe  Fe1  1  0.93748700  0.31249700  0.93751000  1
  Fe  Fe2  1  0.93749600  0.81249500  0.43750700  1
  Fe  Fe3  1  0.68713900  0.06241300  0.68764200  1
  Fe  Fe4  1  0.18785900  0.56257000  0.18735200  1
  Fe  Fe5  1  0.43751100  0.81249900  0.93750000  1
  Fe  Fe6  1  0.43749500  0.81249800  0.43749400  1
  Fe  Fe7  1  0.43750300  0.31249700  0.93749600  1
  O  O0  1  0.57609000  0.72653700  0.57524700  1
  O  O1  1  0.07641000  0.22663000  0.07513100  1
  O  O2  1  0.29891200  0.89846900  0.29975500  1
  O  O3  1  0.79859800  0.39837100  0.79986500  1
  F  F0  1  0.55412300  0.67516700  0.06053500  1
  F  F1  1  0.05395300  0.17511900  0.56059900  1
  F  F2  1  0.81466000  0.95054000  0.32114300  1
  F  F3  1  0.31455700  0.45053300  0.82116200  1
  F  F4  1  0.56043500  0.17443200  0.56026000  1
  F  F5  1  0.06033800  0.67441800  0.06032500  1
  F  F6  1  0.32086400  0.94984100  0.81445600  1
  F  F7  1  0.82103200  0.44988500  0.31438900  1
  F  F8  1  0.81469600  0.95058900  0.81470900  1
  F  F9  1  0.31459100  0.45058900  0.31476500  1
  F  F10  1  0.56042100  0.17446700  0.05382600  1
  F  F11  1  0.06032700  0.67446400  0.55384900  1
loop_
_geom_bond_atom_site_label_1
_geom_bond_atom_site_label_2
_geom_bond_distance
_geom_bond_site_symmetry_2
Li0 O0 2.015087 1_555
Li1 O1 2.015667 1_555
Li2 O2 2.014943 1_545
Li3 O3 2.015574 1_555
Fe0 O1 1.991210 1_655
Fe0 O3 1.991328 1_555
Fe1 O1 1.991143 1_656
Fe1 O3 1.991149 1_555
Fe2 O0 1.986866 1_555
Fe2 O2 1.986962 1_655
Fe5 O0 1.990990 1_555
Fe5 O2 1.991023 1_556
Fe6 O2 1.990882 1_555
Fe6 O0 1.990929 1_555
Fe7 O1 1.985096 1_556
Fe7 O3 1.985127 1_555
F0 Li3 1.982001 1_554
F0 Fe4 2.104584 1_555
F0 Fe5 2.263115 1_554
F0 Fe6 2.263409 1_555
F1 Li2 1.982408 1_555
F1 Fe3 2.107495 1_455
F1 Fe0 2.263146 1_455
F1 Fe1 2.263449 1_455
F2 Li1 1.983446 1_665
F2 Fe3 2.102105 1_565
F2 Fe2 2.267703 1_555
F2 Fe6 2.268800 1_555
F3 Li0 1.983417 1_555
F3 Fe4 2.101399 1_556
F3 Fe7 2.267958 1_555
F3 Fe1 2.268371 1_455
F4 Li2 1.983947 1_555
F4 Fe3 2.100587 1_555
F4 Fe7 2.268154 1_555
F4 Fe0 2.268519 1_555
F5 Li3 1.983964 1_454
F5 Fe4 2.101183 1_555
F5 Fe2 2.267985 1_455
F5 Fe5 2.269032 1_554
F6 Li1 1.981864 1_566
F6 Fe3 2.104530 1_565
F6 Fe5 2.263390 1_555
F6 Fe6 2.263480 1_555
F7 Li0 1.982260 1_555
F7 Fe4 2.107467 1_655
F7 Fe0 2.263352 1_555
F7 Fe1 2.263364 1_554
F8 Li1 1.983574 1_666
F8 Fe3 2.101318 1_565
F8 Fe2 2.268152 1_555
F8 Fe5 2.269126 1_555
F9 Li0 1.983670 1_555
F9 Fe4 2.100525 1_555
F9 Fe7 2.268426 1_554
F9 Fe0 2.268723 1_455
F10 Li2 1.983517 1_555
F10 Fe3 2.101441 1_554
F10 Fe7 2.267768 1_554
F10 Fe1 2.268326 1_554
F11 Li3 1.983530 1_455
F11 Fe4 2.102181 1_555
F11 Fe2 2.267462 1_455
F11 Fe6 2.268772 1_555
