# generated using pymatgen
data_La3SiN3O2
_symmetry_space_group_name_H-M   'P 1'
_cell_length_a   6.82709737
_cell_length_b   6.82709737
_cell_length_c   7.41288064
_cell_angle_alpha   62.05498068
_cell_angle_beta   62.05498068
_cell_angle_gamma   88.98774506
_symmetry_Int_Tables_number   1
_chemical_formula_structural   La3SiN3O2
_chemical_formula_sum   'La6 Si2 N6 O4'
_cell_volume   260.44819271
_cell_formula_units_Z   2
loop_
 _symmetry_equiv_pos_site_id
 _symmetry_equiv_pos_as_xyz
  1  'x, y, z'
loop_
 _atom_site_type_symbol
 _atom_site_label
 _atom_site_symmetry_multiplicity
 _atom_site_fract_x
 _atom_site_fract_y
 _atom_site_fract_z
 _atom_site_occupancy
  La  La0  1  0.32269500  0.17730500  0.00000000  1
  La  La1  1  0.66901900  0.83098100  0.00000000  1
  La  La2  1  0.18117400  0.67777400  0.00000000  1
  La  La3  1  0.82222600  0.31882600  0.00000000  1
  La  La4  1  0.24385000  0.25615000  0.50000000  1
  La  La5  1  0.74385000  0.75615000  0.50000000  1
  Si  Si0  1  0.75144900  0.24412800  0.50442300  1
  Si  Si1  1  0.25587200  0.74855100  0.49557700  1
  N  N0  1  0.99044800  0.20785100  0.30170000  1
  N  N1  1  0.48969600  0.98917700  0.30277200  1
  N  N2  1  0.20805100  0.70753200  0.30277200  1
  N  N3  1  0.29214900  0.50955200  0.69830000  1
  N  N4  1  0.51082300  0.01030400  0.69722800  1
  N  N5  1  0.79246800  0.29194900  0.69722800  1
  O  O0  1  0.50848700  0.50757900  0.00000000  1
  O  O1  1  0.99242100  0.99151300  0.00000000  1
  O  O2  1  0.70947600  0.48415400  0.30637000  1
  O  O3  1  0.01584600  0.79052400  0.69363000  1
loop_
_geom_bond_atom_site_label_1
_geom_bond_atom_site_label_2
_geom_bond_distance
_geom_bond_site_symmetry_2
La0 N0 2.419956 1_455
La0 N3 2.419956 1_554
La0 O0 2.606554 1_555
La0 O1 2.606554 1_445
La0 N5 2.762560 1_554
La0 N2 2.762560 1_545
La0 N1 2.762561 1_545
La0 N4 2.762561 1_554
La1 O0 2.482227 1_555
La1 O1 2.482227 1_555
La1 O2 2.522980 1_555
La1 O3 2.522980 1_654
La1 N5 2.711550 1_564
La1 N2 2.711550 1_555
La1 N4 2.711550 1_564
La1 N1 2.711550 1_555
La2 N4 2.434543 1_564
La2 N2 2.434543 1_555
La2 O1 2.480102 1_455
La2 O0 2.500357 1_555
La2 N3 2.771869 1_554
La2 N0 2.771875 1_455
La2 O2 2.785264 1_455
La2 O3 2.785264 1_554
La3 N1 2.434543 1_545
La3 N5 2.434543 1_554
La3 O0 2.480102 1_555
La3 O1 2.500357 1_545
La3 N0 2.771869 1_555
La3 N3 2.771875 1_654
La3 O3 2.785264 1_654
La3 O2 2.785264 1_555
La4 N2 2.789136 1_555
La4 N5 2.789136 1_455
La4 O1 2.796199 1_446
La4 O0 2.796199 1_555
La4 N3 2.849628 1_555
La4 N0 2.849628 1_455
La4 N1 2.892440 1_545
La4 N4 2.892440 1_555
La4 O2 2.897028 1_555
La4 O3 2.897028 1_545
La5 N4 2.789137 1_565
La5 N1 2.789137 1_555
La5 O0 2.796199 1_556
La5 O1 2.796199 1_555
La5 N0 2.849619 1_565
La5 N3 2.849619 1_555
La5 N2 2.892440 1_655
La5 N5 2.892440 1_555
La5 O3 2.897029 1_655
La5 O2 2.897029 1_555
N0 Si0 1.737350 1_555
N1 Si1 1.744544 1_555
N2 Si1 1.744544 1_555
N3 Si1 1.737350 1_555
N4 Si0 1.744544 1_555
N5 Si0 1.744544 1_555
O2 Si0 1.745192 1_555
O3 Si1 1.745192 1_555
