# generated using pymatgen
data_SrSn
_symmetry_space_group_name_H-M   'P 1'
_cell_length_a   4.55719316
_cell_length_b   5.09035678
_cell_length_c   6.54381424
_cell_angle_alpha   112.88882888
_cell_angle_beta   90.00000000
_cell_angle_gamma   90.00000000
_symmetry_Int_Tables_number   1
_chemical_formula_structural   SrSn
_chemical_formula_sum   'Sr2 Sn2'
_cell_volume   139.84902054
_cell_formula_units_Z   2
loop_
 _symmetry_equiv_pos_site_id
 _symmetry_equiv_pos_as_xyz
  1  'x, y, z'
loop_
 _atom_site_type_symbol
 _atom_site_label
 _atom_site_symmetry_multiplicity
 _atom_site_fract_x
 _atom_site_fract_y
 _atom_site_fract_z
 _atom_site_occupancy
  Sr  Sr0  1  0.25000000  0.86517188  0.73034376  1
  Sr  Sr1  1  0.75000000  0.13482812  0.26965624  1
  Sn  Sn0  1  0.25000000  0.57839355  0.15678710  1
  Sn  Sn1  1  0.75000000  0.42160645  0.84321290  1
loop_
_geom_bond_atom_site_label_1
_geom_bond_atom_site_label_2
_geom_bond_distance
_geom_bond_site_symmetry_2
Sn0 Sn1 2.960679 1_554
Sn0 Sn1 2.960679 1_454
Sn0 Sr0 3.457722 1_555
Sn0 Sr1 3.483236 1_465
Sn0 Sr1 3.483236 1_565
Sn0 Sr1 3.483236 1_455
Sn0 Sr1 3.483236 1_555
Sn0 Sr0 3.617617 1_544
Sn0 Sr0 3.617617 1_554
Sn1 Sr1 3.457722 1_555
Sn1 Sr0 3.483236 1_545
Sn1 Sr0 3.483236 1_645
Sn1 Sr0 3.483236 1_555
Sn1 Sr0 3.483236 1_655
Sn1 Sr1 3.617617 1_566
Sn1 Sr1 3.617617 1_556
