# generated using pymatgen
data_La13Al12Si18(N2O)18
_symmetry_space_group_name_H-M   'P 1'
_cell_length_a   11.73583934
_cell_length_b   11.73583934
_cell_length_c   11.73583934
_cell_angle_alpha   109.47122063
_cell_angle_beta   109.47122063
_cell_angle_gamma   109.47122063
_symmetry_Int_Tables_number   1
_chemical_formula_structural   La13Al12Si18(N2O)18
_chemical_formula_sum   'La13 Al12 Si18 N36 O18'
_cell_volume   1244.28703338
_cell_formula_units_Z   1
loop_
 _symmetry_equiv_pos_site_id
 _symmetry_equiv_pos_as_xyz
  1  'x, y, z'
loop_
 _atom_site_type_symbol
 _atom_site_label
 _atom_site_symmetry_multiplicity
 _atom_site_fract_x
 _atom_site_fract_y
 _atom_site_fract_z
 _atom_site_occupancy
  La  La0  1  0.74922200  0.42440600  0.42440600  1
  La  La1  1  0.25077800  0.67518400  0.67518400  1
  La  La2  1  0.00000000  0.57559400  0.32481600  1
  La  La3  1  0.42440600  0.42440600  0.74922200  1
  La  La4  1  0.00000000  0.32481600  0.57559400  1
  La  La5  1  0.67518400  0.67518400  0.25077800  1
  La  La6  1  0.57559400  0.32481600  0.00000000  1
  La  La7  1  0.32481600  0.57559400  0.00000000  1
  La  La8  1  0.42440600  0.74922200  0.42440600  1
  La  La9  1  0.32481600  0.00000000  0.57559400  1
  La  La10  1  0.57559400  0.00000000  0.32481600  1
  La  La11  1  0.67518400  0.25077800  0.67518400  1
  La  La12  1  0.00000000  0.00000000  0.00000000  1
  Al  Al0  1  0.59227100  0.75411800  0.75411800  1
  Al  Al1  1  0.40772900  0.16184600  0.16184600  1
  Al  Al2  1  0.00000000  0.24588200  0.83815400  1
  Al  Al3  1  0.75411800  0.75411800  0.59227100  1
  Al  Al4  1  0.00000000  0.83815400  0.24588200  1
  Al  Al5  1  0.16184600  0.16184600  0.40772900  1
  Al  Al6  1  0.24588200  0.83815400  0.00000000  1
  Al  Al7  1  0.83815400  0.24588200  0.00000000  1
  Al  Al8  1  0.75411800  0.59227100  0.75411800  1
  Al  Al9  1  0.83815400  0.00000000  0.24588200  1
  Al  Al10  1  0.24588200  0.00000000  0.83815400  1
  Al  Al11  1  0.16184600  0.40772900  0.16184600  1
  Si  Si0  1  0.70123500  0.70123500  0.00000000  1
  Si  Si1  1  0.29876500  0.29876500  0.00000000  1
  Si  Si2  1  0.70123500  0.00000000  0.70123500  1
  Si  Si3  1  0.29876500  0.00000000  0.29876500  1
  Si  Si4  1  0.00000000  0.70123500  0.70123500  1
  Si  Si5  1  0.00000000  0.29876500  0.29876500  1
  Si  Si6  1  0.30061300  0.45974200  0.45974200  1
  Si  Si7  1  0.69938700  0.15912900  0.15912900  1
  Si  Si8  1  0.00000000  0.54025800  0.84087100  1
  Si  Si9  1  0.45974200  0.45974200  0.30061300  1
  Si  Si10  1  0.00000000  0.84087100  0.54025800  1
  Si  Si11  1  0.15912900  0.15912900  0.69938700  1
  Si  Si12  1  0.54025800  0.84087100  0.00000000  1
  Si  Si13  1  0.84087100  0.54025800  0.00000000  1
  Si  Si14  1  0.45974200  0.30061300  0.45974200  1
  Si  Si15  1  0.84087100  0.00000000  0.54025800  1
  Si  Si16  1  0.54025800  0.00000000  0.84087100  1
  Si  Si17  1  0.15912900  0.69938700  0.15912900  1
  N  N0  1  0.14604900  0.44833400  0.44833400  1
  N  N1  1  0.85395100  0.30228500  0.30228500  1
  N  N2  1  0.00000000  0.55166600  0.69771500  1
  N  N3  1  0.44833400  0.44833400  0.14604900  1
  N  N4  1  0.00000000  0.69771500  0.55166600  1
  N  N5  1  0.30228500  0.30228500  0.85395100  1
  N  N6  1  0.55166600  0.69771500  0.00000000  1
  N  N7  1  0.69771500  0.55166600  0.00000000  1
  N  N8  1  0.44833400  0.14604900  0.44833400  1
  N  N9  1  0.69771500  0.00000000  0.55166600  1
  N  N10  1  0.55166600  0.00000000  0.69771500  1
  N  N11  1  0.30228500  0.85395100  0.30228500  1
  N  N12  1  0.47627400  0.32626000  0.32626000  1
  N  N13  1  0.52372600  0.84998600  0.84998600  1
  N  N14  1  0.00000000  0.67374000  0.15001400  1
  N  N15  1  0.32626000  0.32626000  0.47627400  1
  N  N16  1  0.00000000  0.15001400  0.67374000  1
  N  N17  1  0.84998600  0.84998600  0.52372600  1
  N  N18  1  0.67374000  0.15001400  0.00000000  1
  N  N19  1  0.15001400  0.67374000  0.00000000  1
  N  N20  1  0.32626000  0.47627400  0.32626000  1
  N  N21  1  0.15001400  0.00000000  0.67374000  1
  N  N22  1  0.67374000  0.00000000  0.15001400  1
  N  N23  1  0.84998600  0.52372600  0.84998600  1
  N  N24  1  0.84499200  0.68737400  0.68737400  1
  N  N25  1  0.15500800  0.84238200  0.84238200  1
  N  N26  1  0.00000000  0.31262600  0.15761800  1
  N  N27  1  0.68737400  0.68737400  0.84499200  1
  N  N28  1  0.00000000  0.15761800  0.31262600  1
  N  N29  1  0.84238200  0.84238200  0.15500800  1
  N  N30  1  0.31262600  0.15761800  0.00000000  1
  N  N31  1  0.15761800  0.31262600  0.00000000  1
  N  N32  1  0.68737400  0.84499200  0.68737400  1
  N  N33  1  0.15761800  0.00000000  0.31262600  1
  N  N34  1  0.31262600  0.00000000  0.15761800  1
  N  N35  1  0.84238200  0.15500800  0.84238200  1
  O  O0  1  0.42376600  0.60818400  0.60818400  1
  O  O1  1  0.57623400  0.18441800  0.18441800  1
  O  O2  1  0.00000000  0.39181600  0.81558200  1
  O  O3  1  0.60818400  0.60818400  0.42376600  1
  O  O4  1  0.00000000  0.81558200  0.39181600  1
  O  O5  1  0.18441800  0.18441800  0.57623400  1
  O  O6  1  0.39181600  0.81558200  0.00000000  1
  O  O7  1  0.81558200  0.39181600  0.00000000  1
  O  O8  1  0.60818400  0.42376600  0.60818400  1
  O  O9  1  0.81558200  0.00000000  0.39181600  1
  O  O10  1  0.39181600  0.00000000  0.81558200  1
  O  O11  1  0.18441800  0.57623400  0.18441800  1
  O  O12  1  0.25000000  0.75000000  0.50000000  1
  O  O13  1  0.75000000  0.25000000  0.50000000  1
  O  O14  1  0.75000000  0.50000000  0.25000000  1
  O  O15  1  0.25000000  0.50000000  0.75000000  1
  O  O16  1  0.50000000  0.25000000  0.75000000  1
  O  O17  1  0.50000000  0.75000000  0.25000000  1
loop_
_geom_bond_atom_site_label_1
_geom_bond_atom_site_label_2
_geom_bond_distance
_geom_bond_site_symmetry_2
La0 O13 2.488804 1_555
La0 O14 2.488804 1_555
La0 N1 2.568667 1_555
La0 O1 2.659761 1_555
La0 N12 2.666536 1_555
La0 N2 2.960265 1_655
La0 N4 2.960265 1_655
La0 N24 3.055728 1_555
La0 O8 3.126329 1_555
La0 O3 3.126329 1_555
La1 O15 2.488804 1_555
La1 O12 2.488804 1_555
La1 N0 2.568667 1_555
La1 O0 2.659761 1_555
La1 N13 2.666536 1_555
La1 N4 2.960265 1_555
La1 N2 2.960265 1_555
La1 N25 3.055728 1_555
La1 O6 3.126329 1_556
La1 O10 3.126329 1_565
La2 O12 2.488804 1_555
La2 O14 2.488804 1_455
La2 N4 2.568667 1_555
La2 O4 2.659761 1_555
La2 N14 2.666536 1_555
La2 N0 2.960265 1_555
La2 N1 2.960265 1_455
La2 N26 3.055728 1_555
La2 O11 3.126329 1_555
La2 O7 3.126329 1_455
La3 O15 2.488804 1_555
La3 O16 2.488804 1_555
La3 N5 2.568667 1_555
La3 O5 2.659761 1_555
La3 N15 2.666536 1_555
La3 N7 2.960265 1_556
La3 N6 2.960265 1_556
La3 N27 3.055728 1_555
La3 O8 3.126329 1_555
La3 O0 3.126329 1_555
La4 O15 2.488804 1_555
La4 O13 2.488804 1_455
La4 N2 2.568667 1_555
La4 O2 2.659761 1_555
La4 N16 2.666536 1_555
La4 N0 2.960265 1_555
La4 N1 2.960265 1_455
La4 N28 3.055728 1_555
La4 O5 3.126329 1_555
La4 O9 3.126329 1_455
La5 O17 2.488804 1_555
La5 O14 2.488804 1_555
La5 N3 2.568667 1_555
La5 O3 2.659761 1_555
La5 N17 2.666536 1_555
La5 N7 2.960265 1_555
La5 N6 2.960265 1_555
La5 N29 3.055728 1_555
La5 O9 3.126329 1_565
La5 O4 3.126329 1_655
La6 O16 2.488804 1_554
La6 O14 2.488804 1_555
La6 N7 2.568667 1_555
La6 O7 2.659761 1_555
La6 N18 2.666536 1_555
La6 N3 2.960265 1_555
La6 N5 2.960265 1_554
La6 N30 3.055728 1_555
La6 O10 3.126329 1_554
La6 O1 3.126329 1_555
La7 O15 2.488804 1_554
La7 O17 2.488804 1_555
La7 N6 2.568667 1_555
La7 O6 2.659761 1_555
La7 N19 2.666536 1_555
La7 N3 2.960265 1_555
La7 N5 2.960265 1_554
La7 N31 3.055728 1_555
La7 O11 3.126329 1_555
La7 O2 3.126329 1_554
La8 O12 2.488804 1_555
La8 O17 2.488804 1_555
La8 N11 2.568667 1_555
La8 O11 2.659761 1_555
La8 N20 2.666536 1_555
La8 N10 2.960265 1_565
La8 N9 2.960265 1_565
La8 N32 3.055728 1_555
La8 O0 3.126329 1_555
La8 O3 3.126329 1_555
La9 O12 2.488804 1_545
La9 O16 2.488804 1_555
La9 N10 2.568667 1_555
La9 O10 2.659761 1_555
La9 N21 2.666536 1_555
La9 N8 2.960265 1_555
La9 N11 2.960265 1_545
La9 N33 3.055728 1_555
La9 O5 3.126329 1_555
La9 O4 3.126329 1_545
La10 O13 2.488804 1_555
La10 O17 2.488804 1_545
La10 N9 2.568667 1_555
La10 O9 2.659761 1_555
La10 N22 2.666536 1_555
La10 N8 2.960265 1_555
La10 N11 2.960265 1_545
La10 N34 3.055728 1_555
La10 O1 3.126329 1_555
La10 O6 3.126329 1_545
La11 O16 2.488804 1_555
La11 O13 2.488804 1_555
La11 N8 2.568667 1_555
La11 O8 2.659761 1_555
La11 N23 2.666536 1_555
La11 N10 2.960265 1_555
La11 N9 2.960265 1_555
La11 N35 3.055728 1_555
La11 O2 3.126329 1_655
La11 O7 3.126329 1_556
La12 N33 3.515430 1_555
La12 N34 3.515430 1_555
La12 N26 3.515430 1_555
La12 N28 3.515430 1_555
La12 N31 3.515430 1_555
La12 N30 3.515430 1_555
La12 N35 3.515430 1_454
La12 N29 3.515430 1_445
La12 N25 3.515430 1_544
La12 N27 3.515430 1_444
La12 N24 3.515430 1_444
La12 N32 3.515430 1_444
Al0 O0 1.818188 1_555
Al0 N27 1.828347 1_555
Al0 N32 1.828347 1_555
Al0 N13 1.881923 1_555
Al1 O1 1.818182 1_555
Al1 N30 1.828343 1_555
Al1 N34 1.828343 1_555
Al1 N12 1.881936 1_555
Al2 O2 1.818193 1_555
Al2 N31 1.828340 1_556
Al2 N35 1.828340 1_455
Al2 N16 1.881933 1_555
Al3 O3 1.818188 1_555
Al3 N24 1.828347 1_555
Al3 N32 1.828347 1_555
Al3 N17 1.881923 1_555
Al4 O4 1.818193 1_555
Al4 N33 1.828340 1_565
Al4 N29 1.828340 1_455
Al4 N14 1.881933 1_555
Al5 O5 1.818182 1_555
Al5 N28 1.828343 1_555
Al5 N33 1.828343 1_555
Al5 N15 1.881936 1_555
Al6 O6 1.818193 1_555
Al6 N34 1.828340 1_565
Al6 N25 1.828340 1_554
Al6 N19 1.881933 1_555
Al7 O7 1.818193 1_555
Al7 N26 1.828340 1_655
Al7 N35 1.828340 1_554
Al7 N18 1.881933 1_555
Al8 O8 1.818188 1_555
Al8 N24 1.828347 1_555
Al8 N27 1.828347 1_555
Al8 N23 1.881923 1_555
Al9 O9 1.818193 1_555
Al9 N28 1.828340 1_655
Al9 N29 1.828340 1_545
Al9 N22 1.881933 1_555
Al10 O10 1.818193 1_555
Al10 N30 1.828340 1_556
Al10 N25 1.828340 1_545
Al10 N21 1.881933 1_555
Al11 O11 1.818182 1_555
Al11 N26 1.828343 1_555
Al11 N31 1.828343 1_555
Al11 N20 1.881936 1_555
N0 Si6 1.729296 1_555
N0 Si5 1.741983 1_555
N1 Si7 1.729296 1_555
N1 Si5 1.741983 1_655
N2 Si8 1.729296 1_555
N2 Si4 1.741983 1_555
N3 Si9 1.729296 1_555
N3 Si1 1.741983 1_555
N4 Si10 1.729296 1_555
N4 Si4 1.741983 1_555
N5 Si11 1.729296 1_555
N5 Si1 1.741983 1_556
N6 Si12 1.729296 1_555
N6 Si0 1.741983 1_555
N7 Si13 1.729296 1_555
N7 Si0 1.741983 1_555
N8 Si14 1.729296 1_555
N8 Si3 1.741983 1_555
N9 Si15 1.729296 1_555
N9 Si2 1.741983 1_555
N10 Si16 1.729296 1_555
N10 Si2 1.741983 1_555
N11 Si17 1.729296 1_555
N11 Si3 1.741983 1_565
N12 Si14 1.749360 1_555
N12 Si9 1.749360 1_555
N13 Si16 1.749360 1_565
N13 Si12 1.749360 1_556
N14 Si17 1.749360 1_555
N14 Si13 1.749360 1_455
N15 Si14 1.749360 1_555
N15 Si6 1.749360 1_555
N16 Si11 1.749360 1_555
N16 Si15 1.749360 1_455
N17 Si15 1.749360 1_565
N17 Si10 1.749360 1_655
N18 Si7 1.749360 1_555
N18 Si16 1.749360 1_554
N19 Si17 1.749360 1_555
N19 Si8 1.749360 1_554
N20 Si9 1.749360 1_555
N20 Si6 1.749360 1_555
N21 Si11 1.749360 1_555
N21 Si10 1.749360 1_545
N22 Si7 1.749360 1_555
N22 Si12 1.749360 1_545
N23 Si13 1.749360 1_556
N23 Si8 1.749360 1_655
N24 Si4 1.717563 1_655
N25 Si4 1.717563 1_555
N26 Si5 1.717563 1_555
N27 Si0 1.717563 1_556
N28 Si5 1.717563 1_555
N29 Si0 1.717563 1_555
N30 Si1 1.717563 1_555
N31 Si1 1.717563 1_555
N32 Si2 1.717563 1_565
N33 Si3 1.717563 1_555
N34 Si3 1.717563 1_555
N35 Si2 1.717563 1_555
O0 Si6 1.666817 1_555
O1 Si7 1.666817 1_555
O2 Si8 1.666817 1_555
O3 Si9 1.666817 1_555
O4 Si10 1.666817 1_555
O5 Si11 1.666817 1_555
O6 Si12 1.666817 1_555
O7 Si13 1.666817 1_555
O8 Si14 1.666817 1_555
O9 Si15 1.666817 1_555
O10 Si16 1.666817 1_555
O11 Si17 1.666817 1_555
