# generated using pymatgen
data_Gd3Te2NO
_symmetry_space_group_name_H-M   'P 1'
_cell_length_a   13.55362200
_cell_length_b   4.11670200
_cell_length_c   12.20745100
_cell_angle_alpha   90.00000000
_cell_angle_beta   90.00000000
_cell_angle_gamma   90.00000000
_symmetry_Int_Tables_number   1
_chemical_formula_structural   Gd3Te2NO
_chemical_formula_sum   'Gd12 Te8 N4 O4'
_cell_volume   681.12965575
_cell_formula_units_Z   4
loop_
 _symmetry_equiv_pos_site_id
 _symmetry_equiv_pos_as_xyz
  1  'x, y, z'
loop_
 _atom_site_type_symbol
 _atom_site_label
 _atom_site_symmetry_multiplicity
 _atom_site_fract_x
 _atom_site_fract_y
 _atom_site_fract_z
 _atom_site_occupancy
  Gd  Gd0  1  0.52164300  0.25000000  0.62131100  1
  Gd  Gd1  1  0.02164300  0.25000000  0.87868900  1
  Gd  Gd2  1  0.47835700  0.75000000  0.37868900  1
  Gd  Gd3  1  0.97835700  0.75000000  0.12131100  1
  Gd  Gd4  1  0.68870600  0.25000000  0.35114900  1
  Gd  Gd5  1  0.18870600  0.25000000  0.14885100  1
  Gd  Gd6  1  0.31129400  0.75000000  0.64885100  1
  Gd  Gd7  1  0.81129400  0.75000000  0.85114900  1
  Gd  Gd8  1  0.89502000  0.25000000  0.61385000  1
  Gd  Gd9  1  0.39502000  0.25000000  0.88615000  1
  Gd  Gd10  1  0.10498000  0.75000000  0.38615000  1
  Gd  Gd11  1  0.60498000  0.75000000  0.11385000  1
  Te  Te0  1  0.77196100  0.25000000  0.07202500  1
  Te  Te1  1  0.27196100  0.25000000  0.42797500  1
  Te  Te2  1  0.22803900  0.75000000  0.92797500  1
  Te  Te3  1  0.72803900  0.75000000  0.57202500  1
  Te  Te4  1  0.93411900  0.25000000  0.34767200  1
  Te  Te5  1  0.43411900  0.25000000  0.15232800  1
  Te  Te6  1  0.06588100  0.75000000  0.65232800  1
  Te  Te7  1  0.56588100  0.75000000  0.84767200  1
  N  N0  1  0.86974100  0.25000000  0.78890900  1
  N  N1  1  0.36974100  0.25000000  0.71109100  1
  N  N2  1  0.13025900  0.75000000  0.21109100  1
  N  N3  1  0.63025900  0.75000000  0.28890900  1
  O  O0  1  0.54051700  0.25000000  0.43301600  1
  O  O1  1  0.04051700  0.25000000  0.06698400  1
  O  O2  1  0.45948300  0.75000000  0.56698400  1
  O  O3  1  0.95948300  0.75000000  0.93301600  1
loop_
_geom_bond_atom_site_label_1
_geom_bond_atom_site_label_2
_geom_bond_distance
_geom_bond_site_symmetry_2
Gd0 O0 2.312793 1_555
Gd0 O2 2.320868 1_555
Gd0 O2 2.320868 1_545
Gd0 N1 2.332366 1_555
Gd0 Te7 3.497440 1_545
Gd0 Te7 3.497440 1_555
Gd0 Te3 3.524815 1_555
Gd0 Te3 3.524815 1_545
Gd1 O1 2.312793 1_556
Gd1 O3 2.320868 1_455
Gd1 O3 2.320868 1_445
Gd1 N0 2.332366 1_455
Gd1 Te6 3.497440 1_545
Gd1 Te6 3.497440 1_555
Gd1 Te2 3.524815 1_555
Gd1 Te2 3.524815 1_545
Gd2 O2 2.312793 1_555
Gd2 O0 2.320868 1_555
Gd2 O0 2.320868 1_565
Gd2 N3 2.332366 1_555
Gd2 Te5 3.497440 1_555
Gd2 Te5 3.497440 1_565
Gd2 Te1 3.524815 1_555
Gd2 Te1 3.524815 1_565
Gd3 O3 2.312793 1_554
Gd3 O1 2.320868 1_655
Gd3 O1 2.320868 1_665
Gd3 N2 2.332366 1_655
Gd3 Te4 3.497440 1_555
Gd3 Te4 3.497440 1_565
Gd3 Te0 3.524815 1_555
Gd3 Te0 3.524815 1_565
Gd4 O0 2.243399 1_555
Gd4 N3 2.332729 1_545
Gd4 N3 2.332729 1_555
Gd4 Te4 3.326506 1_555
Gd4 Te3 3.433835 1_555
Gd4 Te3 3.433835 1_545
Gd4 Te0 3.589377 1_555
Gd5 O1 2.243399 1_555
Gd5 N2 2.332729 1_545
Gd5 N2 2.332729 1_555
Gd5 Te5 3.326506 1_555
Gd5 Te2 3.433835 1_554
Gd5 Te2 3.433835 1_544
Gd5 Te1 3.589377 1_555
Gd6 O2 2.243399 1_555
Gd6 N1 2.332729 1_565
Gd6 N1 2.332729 1_555
Gd6 Te6 3.326506 1_555
Gd6 Te1 3.433835 1_555
Gd6 Te1 3.433835 1_565
Gd6 Te2 3.589377 1_555
Gd7 O3 2.243399 1_555
Gd7 N0 2.332729 1_555
Gd7 N0 2.332729 1_565
Gd7 Te7 3.326506 1_555
Gd7 Te0 3.433835 1_556
Gd7 Te0 3.433835 1_566
Gd7 Te3 3.589377 1_555
Gd8 N0 2.164316 1_555
Gd8 Te3 3.101541 1_555
Gd8 Te3 3.101541 1_545
Gd8 Te6 3.133737 1_645
Gd8 Te6 3.133737 1_655
Gd8 Te4 3.292284 1_555
Gd9 N1 2.164316 1_555
Gd9 Te2 3.101541 1_555
Gd9 Te2 3.101541 1_545
Gd9 Te7 3.133737 1_545
Gd9 Te7 3.133737 1_555
Gd9 Te5 3.292284 1_556
Gd10 N2 2.164316 1_555
Gd10 Te1 3.101541 1_555
Gd10 Te1 3.101541 1_565
Gd10 Te4 3.133737 1_465
Gd10 Te4 3.133737 1_455
Gd10 Te6 3.292284 1_555
Gd11 N3 2.164316 1_555
Gd11 Te0 3.101541 1_555
Gd11 Te0 3.101541 1_565
Gd11 Te5 3.133737 1_565
Gd11 Te5 3.133737 1_555
Gd11 Te7 3.292284 1_554
