# generated using pymatgen
data_Cs3(Na13In24)2
_symmetry_space_group_name_H-M   'P 1'
_cell_length_a   16.52941421
_cell_length_b   16.52941421
_cell_length_c   16.52941421
_cell_angle_alpha   90.00000000
_cell_angle_beta   90.00000000
_cell_angle_gamma   90.00000000
_symmetry_Int_Tables_number   1
_chemical_formula_structural   Cs3(Na13In24)2
_chemical_formula_sum   'Cs6 Na52 In96'
_cell_volume   4516.19190866
_cell_formula_units_Z   2
loop_
 _symmetry_equiv_pos_site_id
 _symmetry_equiv_pos_as_xyz
  1  'x, y, z'
loop_
 _atom_site_type_symbol
 _atom_site_label
 _atom_site_symmetry_multiplicity
 _atom_site_fract_x
 _atom_site_fract_y
 _atom_site_fract_z
 _atom_site_occupancy
  Cs  Cs0  1  0.00000000  0.50000000  0.50000000  1
  Cs  Cs1  1  0.50000000  -0.00000000  0.50000000  1
  Cs  Cs2  1  0.00000000  0.50000000  0.00000000  1
  Cs  Cs3  1  0.50000000  0.50000000  0.00000000  1
  Cs  Cs4  1  0.50000000  -0.00000000  0.00000000  1
  Cs  Cs5  1  0.00000000  -0.00000000  0.50000000  1
  Na  Na0  1  0.00000000  0.13648951  0.29528483  1
  Na  Na1  1  0.00000000  0.86351049  0.70471517  1
  Na  Na2  1  0.00000000  0.86351049  0.29528483  1
  Na  Na3  1  0.00000000  0.13648951  0.70471517  1
  Na  Na4  1  0.29528483  -0.00000000  0.13648951  1
  Na  Na5  1  0.63648951  0.50000000  0.20471517  1
  Na  Na6  1  0.70471517  -0.00000000  0.86351049  1
  Na  Na7  1  0.36351049  0.50000000  0.79528483  1
  Na  Na8  1  0.29528483  -0.00000000  0.86351049  1
  Na  Na9  1  0.36351049  0.50000000  0.20471517  1
  Na  Na10  1  0.70471517  -0.00000000  0.13648951  1
  Na  Na11  1  0.63648951  0.50000000  0.79528483  1
  Na  Na12  1  0.13648951  0.29528483  0.00000000  1
  Na  Na13  1  0.50000000  0.79528483  0.36351049  1
  Na  Na14  1  0.86351049  0.70471517  0.00000000  1
  Na  Na15  1  0.50000000  0.20471517  0.63648951  1
  Na  Na16  1  0.13648951  0.70471517  0.00000000  1
  Na  Na17  1  0.50000000  0.20471517  0.36351049  1
  Na  Na18  1  0.86351049  0.29528483  0.00000000  1
  Na  Na19  1  0.50000000  0.79528483  0.63648951  1
  Na  Na20  1  0.20471517  0.63648951  0.50000000  1
  Na  Na21  1  0.79528483  0.36351049  0.50000000  1
  Na  Na22  1  0.20471517  0.36351049  0.50000000  1
  Na  Na23  1  0.79528483  0.63648951  0.50000000  1
  Na  Na24  1  0.25000000  0.50000000  0.00000000  1
  Na  Na25  1  0.75000000  0.50000000  0.00000000  1
  Na  Na26  1  0.00000000  0.25000000  0.50000000  1
  Na  Na27  1  0.00000000  0.75000000  0.50000000  1
  Na  Na28  1  0.50000000  -0.00000000  0.25000000  1
  Na  Na29  1  0.50000000  -0.00000000  0.75000000  1
  Na  Na30  1  0.25000000  -0.00000000  0.50000000  1
  Na  Na31  1  0.75000000  -0.00000000  0.50000000  1
  Na  Na32  1  0.50000000  0.25000000  0.00000000  1
  Na  Na33  1  0.50000000  0.75000000  0.00000000  1
  Na  Na34  1  0.00000000  0.50000000  0.25000000  1
  Na  Na35  1  0.00000000  0.50000000  0.75000000  1
  Na  Na36  1  0.18903875  0.18903875  0.18903875  1
  Na  Na37  1  0.81096125  0.81096125  0.81096125  1
  Na  Na38  1  0.81096125  0.81096125  0.18903875  1
  Na  Na39  1  0.81096125  0.18903875  0.81096125  1
  Na  Na40  1  0.68903875  0.68903875  0.31096125  1
  Na  Na41  1  0.18903875  0.18903875  0.81096125  1
  Na  Na42  1  0.18903875  0.81096125  0.18903875  1
  Na  Na43  1  0.31096125  0.31096125  0.68903875  1
  Na  Na44  1  0.18903875  0.81096125  0.81096125  1
  Na  Na45  1  0.31096125  0.31096125  0.31096125  1
  Na  Na46  1  0.81096125  0.18903875  0.18903875  1
  Na  Na47  1  0.68903875  0.68903875  0.68903875  1
  Na  Na48  1  0.68903875  0.31096125  0.68903875  1
  Na  Na49  1  0.31096125  0.68903875  0.31096125  1
  Na  Na50  1  0.31096125  0.68903875  0.68903875  1
  Na  Na51  1  0.68903875  0.31096125  0.31096125  1
  In  In0  1  0.00000000  0.15359949  0.09247554  1
  In  In1  1  0.00000000  0.84640051  0.90752446  1
  In  In2  1  0.00000000  0.84640051  0.09247554  1
  In  In3  1  0.00000000  0.15359949  0.90752446  1
  In  In4  1  0.09247554  -0.00000000  0.15359949  1
  In  In5  1  0.65359949  0.50000000  0.40752446  1
  In  In6  1  0.90752446  -0.00000000  0.84640051  1
  In  In7  1  0.34640051  0.50000000  0.59247554  1
  In  In8  1  0.09247554  -0.00000000  0.84640051  1
  In  In9  1  0.34640051  0.50000000  0.40752446  1
  In  In10  1  0.90752446  -0.00000000  0.15359949  1
  In  In11  1  0.65359949  0.50000000  0.59247554  1
  In  In12  1  0.15359949  0.09247554  0.00000000  1
  In  In13  1  0.50000000  0.59247554  0.34640051  1
  In  In14  1  0.84640051  0.90752446  0.00000000  1
  In  In15  1  0.50000000  0.40752446  0.65359949  1
  In  In16  1  0.15359949  0.90752446  0.00000000  1
  In  In17  1  0.50000000  0.40752446  0.34640051  1
  In  In18  1  0.84640051  0.09247554  0.00000000  1
  In  In19  1  0.50000000  0.59247554  0.65359949  1
  In  In20  1  0.40752446  0.65359949  0.50000000  1
  In  In21  1  0.59247554  0.34640051  0.50000000  1
  In  In22  1  0.40752446  0.34640051  0.50000000  1
  In  In23  1  0.59247554  0.65359949  0.50000000  1
  In  In24  1  0.16802773  0.17038542  0.40475915  1
  In  In25  1  0.83197227  0.82961458  0.59524085  1
  In  In26  1  0.83197227  0.82961458  0.40475915  1
  In  In27  1  0.83197227  0.17038542  0.59524085  1
  In  In28  1  0.40475915  0.16802773  0.17038542  1
  In  In29  1  0.67038542  0.66802773  0.09524085  1
  In  In30  1  0.16802773  0.17038542  0.59524085  1
  In  In31  1  0.16802773  0.82961458  0.40475915  1
  In  In32  1  0.59524085  0.83197227  0.82961458  1
  In  In33  1  0.32961458  0.33197227  0.90475915  1
  In  In34  1  0.16802773  0.82961458  0.59524085  1
  In  In35  1  0.40475915  0.83197227  0.82961458  1
  In  In36  1  0.32961458  0.33197227  0.09524085  1
  In  In37  1  0.83197227  0.17038542  0.40475915  1
  In  In38  1  0.59524085  0.16802773  0.17038542  1
  In  In39  1  0.67038542  0.66802773  0.90475915  1
  In  In40  1  0.59524085  0.83197227  0.17038542  1
  In  In41  1  0.67038542  0.33197227  0.90475915  1
  In  In42  1  0.40475915  0.16802773  0.82961458  1
  In  In43  1  0.32961458  0.66802773  0.09524085  1
  In  In44  1  0.59524085  0.16802773  0.82961458  1
  In  In45  1  0.32961458  0.66802773  0.90475915  1
  In  In46  1  0.40475915  0.83197227  0.17038542  1
  In  In47  1  0.67038542  0.33197227  0.09524085  1
  In  In48  1  0.17038542  0.40475915  0.16802773  1
  In  In49  1  0.66802773  0.90475915  0.32961458  1
  In  In50  1  0.82961458  0.59524085  0.83197227  1
  In  In51  1  0.33197227  0.09524085  0.67038542  1
  In  In52  1  0.17038542  0.59524085  0.83197227  1
  In  In53  1  0.33197227  0.09524085  0.32961458  1
  In  In54  1  0.82961458  0.40475915  0.16802773  1
  In  In55  1  0.66802773  0.90475915  0.67038542  1
  In  In56  1  0.82961458  0.59524085  0.16802773  1
  In  In57  1  0.66802773  0.09524085  0.67038542  1
  In  In58  1  0.17038542  0.40475915  0.83197227  1
  In  In59  1  0.33197227  0.90475915  0.32961458  1
  In  In60  1  0.82961458  0.40475915  0.83197227  1
  In  In61  1  0.33197227  0.90475915  0.67038542  1
  In  In62  1  0.17038542  0.59524085  0.16802773  1
  In  In63  1  0.66802773  0.09524085  0.32961458  1
  In  In64  1  0.09524085  0.67038542  0.66802773  1
  In  In65  1  0.90475915  0.32961458  0.33197227  1
  In  In66  1  0.09524085  0.32961458  0.33197227  1
  In  In67  1  0.90475915  0.67038542  0.66802773  1
  In  In68  1  0.90475915  0.32961458  0.66802773  1
  In  In69  1  0.09524085  0.67038542  0.33197227  1
  In  In70  1  0.90475915  0.67038542  0.33197227  1
  In  In71  1  0.09524085  0.32961458  0.66802773  1
  In  In72  1  0.00000000  0.31770638  0.16435296  1
  In  In73  1  0.00000000  0.68229362  0.83564704  1
  In  In74  1  0.00000000  0.68229362  0.16435296  1
  In  In75  1  0.00000000  0.31770638  0.83564704  1
  In  In76  1  0.16435296  -0.00000000  0.31770638  1
  In  In77  1  0.81770638  0.50000000  0.33564704  1
  In  In78  1  0.83564704  -0.00000000  0.68229362  1
  In  In79  1  0.18229362  0.50000000  0.66435296  1
  In  In80  1  0.16435296  -0.00000000  0.68229362  1
  In  In81  1  0.18229362  0.50000000  0.33564704  1
  In  In82  1  0.83564704  -0.00000000  0.31770638  1
  In  In83  1  0.81770638  0.50000000  0.66435296  1
  In  In84  1  0.31770638  0.16435296  0.00000000  1
  In  In85  1  0.50000000  0.66435296  0.18229362  1
  In  In86  1  0.68229362  0.83564704  0.00000000  1
  In  In87  1  0.50000000  0.33564704  0.81770638  1
  In  In88  1  0.31770638  0.83564704  0.00000000  1
  In  In89  1  0.50000000  0.33564704  0.18229362  1
  In  In90  1  0.68229362  0.16435296  0.00000000  1
  In  In91  1  0.50000000  0.66435296  0.81770638  1
  In  In92  1  0.33564704  0.81770638  0.50000000  1
  In  In93  1  0.66435296  0.18229362  0.50000000  1
  In  In94  1  0.33564704  0.18229362  0.50000000  1
  In  In95  1  0.66435296  0.81770638  0.50000000  1
loop_
_geom_bond_atom_site_label_1
_geom_bond_atom_site_label_2
_geom_bond_distance
_geom_bond_site_symmetry_2
Cs0 In81 4.057049 1_555
Cs0 In77 4.057049 1_455
Cs0 In79 4.057049 1_555
Cs0 In83 4.057049 1_455
Cs0 Na23 4.066964 1_455
Cs0 Na21 4.066964 1_455
Cs0 Na20 4.066964 1_555
Cs0 Na22 4.066964 1_555
Cs0 Na26 4.132354 1_555
Cs0 Na35 4.132354 1_555
Cs0 Na27 4.132354 1_555
Cs0 Na34 4.132354 1_555
Cs0 In70 4.257257 1_455
Cs0 In66 4.257257 1_555
Cs0 In69 4.257257 1_555
Cs0 In65 4.257257 1_455
Cs0 In67 4.257257 1_455
Cs0 In71 4.257257 1_555
Cs0 In68 4.257257 1_455
Cs0 In64 4.257257 1_555
Cs1 In94 4.057049 1_555
Cs1 In93 4.057049 1_555
Cs1 In92 4.057049 1_545
Cs1 In95 4.057049 1_545
Cs1 Na19 4.066964 1_545
Cs1 Na13 4.066964 1_545
Cs1 Na17 4.066964 1_555
Cs1 Na15 4.066964 1_555
Cs1 Na30 4.132354 1_555
Cs1 Na28 4.132354 1_555
Cs1 Na29 4.132354 1_555
Cs1 Na31 4.132354 1_555
Cs1 In53 4.257257 1_555
Cs1 In51 4.257257 1_555
Cs1 In61 4.257257 1_545
Cs1 In59 4.257257 1_545
Cs1 In63 4.257257 1_555
Cs1 In49 4.257257 1_545
Cs1 In57 4.257257 1_555
Cs1 In55 4.257257 1_545
Cs2 In72 4.057049 1_555
Cs2 In74 4.057049 1_555
Cs2 In73 4.057049 1_554
Cs2 In75 4.057049 1_554
Cs2 Na16 4.066964 1_555
Cs2 Na14 4.066964 1_455
Cs2 Na18 4.066964 1_455
Cs2 Na12 4.066964 1_555
Cs2 Na25 4.132354 1_455
Cs2 Na24 4.132354 1_555
Cs2 Na35 4.132354 1_554
Cs2 Na34 4.132354 1_555
Cs2 In48 4.257257 1_555
Cs2 In62 4.257257 1_555
Cs2 In54 4.257257 1_455
Cs2 In56 4.257257 1_455
Cs2 In60 4.257257 1_454
Cs2 In50 4.257257 1_454
Cs2 In52 4.257257 1_554
Cs2 In58 4.257257 1_554
Cs3 In85 4.057049 1_555
Cs3 In91 4.057049 1_554
Cs3 In89 4.057049 1_555
Cs3 In87 4.057049 1_554
Cs3 Na7 4.066964 1_554
Cs3 Na11 4.066964 1_554
Cs3 Na5 4.066964 1_555
Cs3 Na9 4.066964 1_555
Cs3 Na24 4.132354 1_555
Cs3 Na32 4.132354 1_555
Cs3 Na25 4.132354 1_555
Cs3 Na33 4.132354 1_555
Cs3 In41 4.257257 1_554
Cs3 In33 4.257257 1_554
Cs3 In47 4.257257 1_555
Cs3 In36 4.257257 1_555
Cs3 In45 4.257257 1_554
Cs3 In43 4.257257 1_555
Cs3 In39 4.257257 1_554
Cs3 In29 4.257257 1_555
Cs4 In88 4.057049 1_545
Cs4 In84 4.057049 1_555
Cs4 In86 4.057049 1_545
Cs4 In90 4.057049 1_555
Cs4 Na6 4.066964 1_554
Cs4 Na10 4.066964 1_555
Cs4 Na8 4.066964 1_554
Cs4 Na4 4.066964 1_555
Cs4 Na32 4.132354 1_555
Cs4 Na28 4.132354 1_555
Cs4 Na33 4.132354 1_545
Cs4 Na29 4.132354 1_554
Cs4 In38 4.257257 1_555
Cs4 In28 4.257257 1_555
Cs4 In44 4.257257 1_554
Cs4 In35 4.257257 1_544
Cs4 In46 4.257257 1_545
Cs4 In42 4.257257 1_554
Cs4 In40 4.257257 1_545
Cs4 In32 4.257257 1_544
Cs5 In78 4.057049 1_455
Cs5 In80 4.057049 1_555
Cs5 In76 4.057049 1_555
Cs5 In82 4.057049 1_455
Cs5 Na3 4.066964 1_555
Cs5 Na1 4.066964 1_545
Cs5 Na2 4.066964 1_545
Cs5 Na0 4.066964 1_555
Cs5 Na30 4.132354 1_555
Cs5 Na26 4.132354 1_555
Cs5 Na31 4.132354 1_455
Cs5 Na27 4.132354 1_545
Cs5 In37 4.257257 1_455
Cs5 In26 4.257257 1_445
Cs5 In30 4.257257 1_555
Cs5 In31 4.257257 1_545
Cs5 In24 4.257257 1_555
Cs5 In34 4.257257 1_545
Cs5 In25 4.257257 1_445
Cs5 In27 4.257257 1_455
Na0 Na36 3.688145 1_555
Na0 Na46 3.688145 1_455
Na0 Na26 3.869187 1_555
Na1 Na44 3.688145 1_555
Na1 Na37 3.688145 1_455
Na1 Na27 3.869187 1_555
Na2 Na42 3.688145 1_555
Na2 Na38 3.688145 1_455
Na2 Na27 3.869187 1_555
Na3 Na41 3.688145 1_555
Na3 Na39 3.688145 1_455
Na4 Na42 3.688145 1_545
Na5 Na51 3.688145 1_555
Na10 Na38 3.688145 1_545
Na10 Na46 3.688145 1_555
Na10 Na28 3.869187 1_555
Na11 Na48 3.688145 1_555
Na11 Na47 3.688145 1_555
Na11 Na25 3.869187 1_556
Na12 Na36 3.688145 1_555
Na12 Na41 3.688145 1_554
Na12 Na24 3.869187 1_555
Na13 Na49 3.688145 1_555
Na13 Na40 3.688145 1_555
Na13 Na28 3.869187 1_565
Na14 Na38 3.688145 1_555
Na14 Na37 3.688145 1_554
Na14 Na25 3.869187 1_555
Na15 Na43 3.688145 1_555
Na15 Na48 3.688145 1_555
Na15 Na29 3.869187 1_555
Na16 Na42 3.688145 1_555
Na16 Na44 3.688145 1_554
Na16 Na24 3.869187 1_555
Na17 Na45 3.688145 1_555
Na17 Na51 3.688145 1_555
Na17 Na28 3.869187 1_555
Na18 Na46 3.688145 1_555
Na18 Na39 3.688145 1_554
Na18 Na25 3.869187 1_555
Na19 Na50 3.688145 1_555
Na19 Na47 3.688145 1_555
Na19 Na29 3.869187 1_565
Na20 Na49 3.688145 1_555
Na20 Na50 3.688145 1_555
Na20 Na27 3.869187 1_555
Na21 Na51 3.688145 1_555
Na21 Na48 3.688145 1_555
Na21 Na26 3.869187 1_655
Na22 Na45 3.688145 1_555
Na22 Na43 3.688145 1_555
Na22 Na26 3.869187 1_555
Na23 Na40 3.688145 1_555
Na23 Na47 3.688145 1_555
Na23 Na27 3.869187 1_655
Na24 Na7 3.869187 1_554
Na24 Na9 3.869187 1_555
Na25 Na5 3.869187 1_555
Na26 Na3 3.869187 1_555
Na28 Na4 3.869187 1_555
Na29 Na6 3.869187 1_555
Na29 Na8 3.869187 1_555
Na36 Na45 3.490615 1_555
Na36 Na4 3.688145 1_555
Na37 Na47 3.490615 1_555
Na37 Na6 3.688145 1_565
Na38 Na40 3.490615 1_555
Na39 Na48 3.490615 1_555
Na39 Na6 3.688145 1_555
Na40 Na5 3.688145 1_555
Na41 Na43 3.490615 1_555
Na41 Na8 3.688145 1_555
Na42 Na49 3.490615 1_555
Na43 Na7 3.688145 1_555
Na44 Na50 3.490615 1_555
Na44 Na8 3.688145 1_565
Na45 Na9 3.688145 1_555
Na46 Na51 3.490615 1_555
Na49 Na9 3.688145 1_555
Na50 Na7 3.688145 1_555
In0 In72 2.961370 1_555
In0 In3 3.057133 1_554
In0 In18 3.131033 1_455
In0 In4 3.131033 1_555
In0 In12 3.131033 1_555
In0 In10 3.131033 1_455
In0 Na0 3.364228 1_555
In0 Na36 3.557322 1_555
In0 Na46 3.557322 1_455
In0 Na18 3.593232 1_455
In0 Na12 3.593232 1_555
In1 In73 2.961370 1_555
In1 In2 3.057133 1_556
In1 In6 3.131033 1_465
In1 In8 3.131033 1_565
In1 In14 3.131033 1_456
In1 In16 3.131033 1_556
In1 Na1 3.364228 1_555
In1 Na37 3.557322 1_455
In1 Na44 3.557322 1_555
In1 Na14 3.593232 1_456
In1 Na16 3.593232 1_556
In2 In74 2.961370 1_555
In2 In4 3.131033 1_565
In2 Na2 3.364228 1_555
In2 Na42 3.557322 1_555
In2 Na38 3.557322 1_455
In2 Na14 3.593232 1_455
In2 Na16 3.593232 1_555
In3 In75 2.961370 1_555
In3 In6 3.131033 1_455
In3 In8 3.131033 1_555
In3 Na3 3.364228 1_555
In3 Na41 3.557322 1_555
In3 Na39 3.557322 1_455
In3 Na18 3.593232 1_456
In3 Na12 3.593232 1_556
In4 In76 2.961370 1_555
In4 Na4 3.364228 1_555
In4 Na36 3.557322 1_555
In4 Na42 3.557322 1_545
In4 Na2 3.593232 1_545
In4 Na0 3.593232 1_555
In5 In77 2.961370 1_555
In5 Na5 3.364228 1_555
In5 Na51 3.557322 1_555
In5 Na40 3.557322 1_555
In5 Na21 3.593232 1_555
In5 Na23 3.593232 1_555
In6 In78 2.961370 1_555
In6 In8 3.057133 1_655
In6 Na6 3.364228 1_555
In6 Na39 3.557322 1_555
In6 Na37 3.557322 1_545
In6 Na1 3.593232 1_645
In6 Na3 3.593232 1_655
In7 In79 2.961370 1_555
In7 In9 3.057133 1_555
In7 Na7 3.364228 1_555
In7 Na43 3.557322 1_555
In7 Na50 3.557322 1_555
In7 Na22 3.593232 1_555
In7 Na20 3.593232 1_555
In8 In80 2.961370 1_555
In8 Na8 3.364228 1_555
In8 Na44 3.557322 1_545
In8 Na41 3.557322 1_555
In8 Na1 3.593232 1_545
In8 Na3 3.593232 1_555
In9 Na9 3.364228 1_555
In9 Na45 3.557322 1_555
In9 Na49 3.557322 1_555
In9 Na22 3.593232 1_555
In9 Na20 3.593232 1_555
In10 In82 2.961370 1_555
In10 In4 3.057133 1_655
In10 In14 3.131033 1_545
In10 In2 3.131033 1_645
In10 In18 3.131033 1_555
In10 Na10 3.364228 1_555
In10 Na46 3.557322 1_555
In10 Na38 3.557322 1_545
In10 Na2 3.593232 1_645
In10 Na0 3.593232 1_655
In11 In83 2.961370 1_555
In11 In5 3.057133 1_555
In11 In23 3.131033 1_555
In11 In15 3.131033 1_555
In11 In19 3.131033 1_555
In11 In21 3.131033 1_555
In11 Na11 3.364228 1_555
In11 Na48 3.557322 1_555
In11 Na47 3.557322 1_555
In11 Na21 3.593232 1_555
In11 Na23 3.593232 1_555
In12 In84 2.961370 1_555
In12 In16 3.057133 1_545
In12 In8 3.131033 1_554
In12 In4 3.131033 1_555
In12 In3 3.131033 1_554
In12 Na12 3.364228 1_555
In12 Na36 3.557322 1_555
In12 Na41 3.557322 1_554
In12 Na8 3.593232 1_554
In12 Na4 3.593232 1_555
In13 In85 2.961370 1_555
In13 In17 3.057133 1_555
In13 In23 3.131033 1_555
In13 In5 3.131033 1_555
In13 In20 3.131033 1_555
In13 In9 3.131033 1_555
In13 Na13 3.364228 1_555
In13 Na49 3.557322 1_555
In13 Na40 3.557322 1_555
In13 Na9 3.593232 1_555
In13 Na5 3.593232 1_555
In14 In86 2.961370 1_555
In14 In18 3.057133 1_565
In14 In2 3.131033 1_655
In14 In6 3.131033 1_564
In14 Na14 3.364228 1_555
In14 Na38 3.557322 1_555
In14 Na37 3.557322 1_554
In14 Na6 3.593232 1_564
In14 Na10 3.593232 1_565
In15 In87 2.961370 1_555
In15 In19 3.057133 1_555
In15 In21 3.131033 1_555
In15 In22 3.131033 1_555
In15 In7 3.131033 1_555
In15 Na15 3.364228 1_555
In15 Na43 3.557322 1_555
In15 Na48 3.557322 1_555
In15 Na7 3.593232 1_555
In15 Na11 3.593232 1_555
In16 In88 2.961370 1_555
In16 In2 3.131033 1_555
In16 In8 3.131033 1_564
In16 In4 3.131033 1_565
In16 Na16 3.364228 1_555
In16 Na42 3.557322 1_555
In16 Na44 3.557322 1_554
In16 Na8 3.593232 1_564
In16 Na4 3.593232 1_565
In17 In89 2.961370 1_555
In17 In5 3.131033 1_555
In17 In21 3.131033 1_555
In17 In22 3.131033 1_555
In17 In9 3.131033 1_555
In17 Na17 3.364228 1_555
In17 Na45 3.557322 1_555
In17 Na51 3.557322 1_555
In17 Na9 3.593232 1_555
In17 Na5 3.593232 1_555
In18 In90 2.961370 1_555
In18 In6 3.131033 1_554
In18 In3 3.131033 1_654
In18 Na18 3.364228 1_555
In18 Na46 3.557322 1_555
In18 Na39 3.557322 1_554
In18 Na6 3.593232 1_554
In18 Na10 3.593232 1_555
In19 In91 2.961370 1_555
In19 In20 3.131033 1_555
In19 In23 3.131033 1_555
In19 In7 3.131033 1_555
In19 Na19 3.364228 1_555
In19 Na50 3.557322 1_555
In19 Na47 3.557322 1_555
In19 Na7 3.593232 1_555
In19 Na11 3.593232 1_555
In20 In92 2.961370 1_555
In20 In23 3.057133 1_555
In20 In9 3.131033 1_555
In20 In7 3.131033 1_555
In20 Na20 3.364228 1_555
In20 Na49 3.557322 1_555
In20 Na50 3.557322 1_555
In20 Na19 3.593232 1_555
In20 Na13 3.593232 1_555
In21 In93 2.961370 1_555
In21 In22 3.057133 1_555
In21 In5 3.131033 1_555
In21 Na21 3.364228 1_555
In21 Na51 3.557322 1_555
In21 Na48 3.557322 1_555
In21 Na17 3.593232 1_555
In21 Na15 3.593232 1_555
In22 In94 2.961370 1_555
In22 In9 3.131033 1_555
In22 In7 3.131033 1_555
In22 Na22 3.364228 1_555
In22 Na45 3.557322 1_555
In22 Na43 3.557322 1_555
In22 Na17 3.593232 1_555
In22 Na15 3.593232 1_555
In23 In95 2.961370 1_555
In23 In5 3.131033 1_555
In23 Na23 3.364228 1_555
In23 Na40 3.557322 1_555
In23 Na47 3.557322 1_555
In23 Na19 3.593232 1_555
In23 Na13 3.593232 1_555
In24 In66 3.134048 1_555
In24 In30 3.148551 1_555
In24 In76 3.163251 1_555
In24 In94 3.192739 1_555
In24 In53 3.229427 1_555
In24 Na0 3.361893 1_555
In24 Na26 3.453129 1_555
In24 Na30 3.499456 1_555
In24 Na36 3.595849 1_555
In24 Na22 3.610611 1_555
In24 Na45 3.658554 1_555
In25 In67 3.134048 1_555
In25 In26 3.148551 1_555
In25 In78 3.163251 1_565
In25 In95 3.192739 1_555
In25 In55 3.229427 1_555
In25 Na1 3.361893 1_655
In25 Na27 3.453129 1_655
In25 Na31 3.499456 1_565
In25 Na37 3.595849 1_555
In25 Na23 3.610611 1_555
In25 Na47 3.658554 1_555
In26 In70 3.134048 1_555
In26 In82 3.163251 1_565
In26 In95 3.192739 1_555
In26 In49 3.229427 1_555
In26 Na2 3.361893 1_655
In26 Na27 3.453129 1_655
In26 Na31 3.499456 1_565
In26 Na38 3.595849 1_555
In26 Na23 3.610611 1_555
In26 Na40 3.658554 1_555
In27 In68 3.134048 1_555
In27 In37 3.148551 1_555
In27 In78 3.163251 1_555
In27 In93 3.192739 1_555
In27 In57 3.229427 1_555
In27 Na3 3.361893 1_655
In27 Na26 3.453129 1_655
In27 Na31 3.499456 1_555
In27 Na39 3.595849 1_555
In27 Na21 3.610611 1_555
In27 Na48 3.658554 1_555
In28 In53 3.134048 1_555
In28 In38 3.148551 1_555
In28 In84 3.163251 1_555
In28 In89 3.192739 1_555
In28 In36 3.229427 1_555
In28 Na4 3.361893 1_555
In28 Na28 3.453129 1_555
In28 Na32 3.499456 1_555
In28 Na36 3.595849 1_555
In28 Na17 3.610611 1_555
In28 Na45 3.658554 1_555
In29 In56 3.134048 1_555
In29 In39 3.148551 1_554
In29 In85 3.163251 1_555
In29 In86 3.192739 1_555
In29 In40 3.229427 1_555
In29 Na5 3.361893 1_555
In29 Na25 3.453129 1_555
In29 Na33 3.499456 1_555
In29 Na40 3.595849 1_555
In29 Na14 3.610611 1_555
In29 Na38 3.658554 1_555
In30 In71 3.134048 1_555
In30 In80 3.163251 1_555
In30 In94 3.192739 1_555
In30 In51 3.229427 1_555
In30 Na3 3.361893 1_555
In30 Na26 3.453129 1_555
In30 Na30 3.499456 1_555
In30 Na41 3.595849 1_555
In30 Na22 3.610611 1_555
In30 Na43 3.658554 1_555
In31 In69 3.134048 1_555
In31 In34 3.148551 1_555
In31 In76 3.163251 1_565
In31 In92 3.192739 1_555
In31 In59 3.229427 1_555
In31 Na2 3.361893 1_555
In31 Na27 3.453129 1_555
In31 Na30 3.499456 1_565
In31 Na42 3.595849 1_555
In31 Na20 3.610611 1_555
In31 Na49 3.658554 1_555
In32 In55 3.134048 1_555
In32 In35 3.148551 1_555
In32 In86 3.163251 1_556
In32 In91 3.192739 1_555
In32 In39 3.229427 1_555
In32 Na6 3.361893 1_565
In32 Na29 3.453129 1_565
In32 Na33 3.499456 1_556
In32 Na37 3.595849 1_555
In32 Na19 3.610611 1_555
In32 Na47 3.658554 1_555
In33 In58 3.134048 1_555
In33 In36 3.148551 1_556
In33 In87 3.163251 1_555
In33 In84 3.192739 1_556
In33 In42 3.229427 1_555
In33 Na7 3.361893 1_555
In33 Na24 3.453129 1_556
In33 Na32 3.499456 1_556
In33 Na43 3.595849 1_555
In33 Na12 3.610611 1_556
In33 Na41 3.658554 1_555
In34 In64 3.134048 1_555
In34 In80 3.163251 1_565
In34 In92 3.192739 1_555
In34 In61 3.229427 1_555
In34 Na1 3.361893 1_555
In34 Na27 3.453129 1_555
In34 Na30 3.499456 1_565
In34 Na44 3.595849 1_555
In34 Na20 3.610611 1_555
In34 Na50 3.658554 1_555
In35 In61 3.134048 1_555
In35 In88 3.163251 1_556
In35 In91 3.192739 1_555
In35 In45 3.229427 1_555
In35 Na8 3.361893 1_565
In35 Na29 3.453129 1_565
In35 Na33 3.499456 1_556
In35 Na44 3.595849 1_555
In35 Na19 3.610611 1_555
In35 Na50 3.658554 1_555
In36 In48 3.134048 1_555
In36 In89 3.163251 1_555
In36 In84 3.192739 1_555
In36 Na9 3.361893 1_555
In36 Na24 3.453129 1_555
In36 Na32 3.499456 1_555
In36 Na45 3.595849 1_555
In36 Na12 3.610611 1_555
In36 Na36 3.658554 1_555
In37 In65 3.134048 1_555
In37 In82 3.163251 1_555
In37 In93 3.192739 1_555
In37 In63 3.229427 1_555
In37 Na0 3.361893 1_655
In37 Na26 3.453129 1_655
In37 Na31 3.499456 1_555
In37 Na46 3.595849 1_555
In37 Na21 3.610611 1_555
In37 Na51 3.658554 1_555
In38 In63 3.134048 1_555
In38 In90 3.163251 1_555
In38 In89 3.192739 1_555
In38 In47 3.229427 1_555
In38 Na10 3.361893 1_555
In38 Na28 3.453129 1_555
In38 Na32 3.499456 1_555
In38 Na46 3.595849 1_555
In38 Na17 3.610611 1_555
In38 Na51 3.658554 1_555
In39 In50 3.134048 1_555
In39 In91 3.163251 1_555
In39 In86 3.192739 1_556
In39 Na11 3.361893 1_555
In39 Na25 3.453129 1_556
In39 Na33 3.499456 1_556
In39 Na47 3.595849 1_555
In39 Na14 3.610611 1_556
In39 Na37 3.658554 1_555
In40 In49 3.134048 1_555
In40 In46 3.148551 1_555
In40 In86 3.163251 1_555
In40 In85 3.192739 1_555
In40 Na10 3.361893 1_565
In40 Na28 3.453129 1_565
In40 Na33 3.499456 1_555
In40 Na38 3.595849 1_555
In40 Na13 3.610611 1_555
In40 Na40 3.658554 1_555
In41 In60 3.134048 1_555
In41 In47 3.148551 1_556
In41 In87 3.163251 1_555
In41 In90 3.192739 1_556
In41 In44 3.229427 1_555
In41 Na11 3.361893 1_555
In41 Na25 3.453129 1_556
In41 Na32 3.499456 1_556
In41 Na48 3.595849 1_555
In41 Na18 3.610611 1_556
In41 Na39 3.658554 1_555
In42 In51 3.134048 1_555
In42 In44 3.148551 1_555
In42 In84 3.163251 1_556
In42 In87 3.192739 1_555
In42 Na8 3.361893 1_555
In42 Na29 3.453129 1_555
In42 Na32 3.499456 1_556
In42 Na41 3.595849 1_555
In42 Na15 3.610611 1_555
In42 Na43 3.658554 1_555
In43 In62 3.134048 1_555
In43 In45 3.148551 1_554
In43 In85 3.163251 1_555
In43 In88 3.192739 1_555
In43 In46 3.229427 1_555
In43 Na9 3.361893 1_555
In43 Na24 3.453129 1_555
In43 Na33 3.499456 1_555
In43 Na49 3.595849 1_555
In43 Na16 3.610611 1_555
In43 Na42 3.658554 1_555
In44 In57 3.134048 1_555
In44 In90 3.163251 1_556
In44 In87 3.192739 1_555
In44 Na6 3.361893 1_555
In44 Na29 3.453129 1_555
In44 Na32 3.499456 1_556
In44 Na39 3.595849 1_555
In44 Na15 3.610611 1_555
In44 Na48 3.658554 1_555
In45 In52 3.134048 1_555
In45 In91 3.163251 1_555
In45 In88 3.192739 1_556
In45 Na7 3.361893 1_555
In45 Na24 3.453129 1_556
In45 Na33 3.499456 1_556
In45 Na50 3.595849 1_555
In45 Na16 3.610611 1_556
In45 Na44 3.658554 1_555
In46 In59 3.134048 1_555
In46 In88 3.163251 1_555
In46 In85 3.192739 1_555
In46 Na4 3.361893 1_565
In46 Na28 3.453129 1_565
In46 Na33 3.499456 1_555
In46 Na42 3.595849 1_555
In46 Na13 3.610611 1_555
In46 Na49 3.658554 1_555
In47 In54 3.134048 1_555
In47 In89 3.163251 1_555
In47 In90 3.192739 1_555
In47 Na5 3.361893 1_555
In47 Na25 3.453129 1_555
In47 Na32 3.499456 1_555
In47 Na51 3.595849 1_555
In47 Na18 3.610611 1_555
In47 Na46 3.658554 1_555
In48 In62 3.148551 1_555
In48 In72 3.163251 1_555
In48 In81 3.192739 1_555
In48 In66 3.229427 1_555
In48 Na12 3.361893 1_555
In48 Na24 3.453129 1_555
In48 Na34 3.499456 1_555
In48 Na36 3.595849 1_555
In48 Na9 3.610611 1_555
In48 Na45 3.658554 1_555
In49 In63 3.148551 1_565
In49 In95 3.163251 1_555
In49 In82 3.192739 1_565
In49 Na13 3.361893 1_555
In49 Na28 3.453129 1_565
In49 Na31 3.499456 1_565
In49 Na40 3.595849 1_555
In49 Na10 3.610611 1_565
In49 Na38 3.658554 1_555
In50 In60 3.148551 1_555
In50 In73 3.163251 1_655
In50 In83 3.192739 1_555
In50 In67 3.229427 1_555
In50 Na14 3.361893 1_556
In50 Na25 3.453129 1_556
In50 Na35 3.499456 1_655
In50 Na37 3.595849 1_555
In50 Na11 3.610611 1_555
In50 Na47 3.658554 1_555
In51 In61 3.148551 1_545
In51 In94 3.163251 1_555
In51 In80 3.192739 1_555
In51 Na15 3.361893 1_555
In51 Na29 3.453129 1_555
In51 Na30 3.499456 1_555
In51 Na43 3.595849 1_555
In51 Na8 3.610611 1_555
In51 Na41 3.658554 1_555
In52 In58 3.148551 1_555
In52 In73 3.163251 1_555
In52 In79 3.192739 1_555
In52 In64 3.229427 1_555
In52 Na16 3.361893 1_556
In52 Na24 3.453129 1_556
In52 Na35 3.499456 1_555
In52 Na44 3.595849 1_555
In52 Na7 3.610611 1_555
In52 Na50 3.658554 1_555
In53 In59 3.148551 1_545
In53 In94 3.163251 1_555
In53 In76 3.192739 1_555
In53 Na17 3.361893 1_555
In53 Na28 3.453129 1_555
In53 Na30 3.499456 1_555
In53 Na45 3.595849 1_555
In53 Na4 3.610611 1_555
In53 Na36 3.658554 1_555
In54 In56 3.148551 1_555
In54 In72 3.163251 1_655
In54 In77 3.192739 1_555
In54 In65 3.229427 1_555
In54 Na18 3.361893 1_555
In54 Na25 3.453129 1_555
In54 Na34 3.499456 1_655
In54 Na46 3.595849 1_555
In54 Na5 3.610611 1_555
In54 Na51 3.658554 1_555
In55 In57 3.148551 1_565
In55 In95 3.163251 1_555
In55 In78 3.192739 1_565
In55 Na19 3.361893 1_555
In55 Na29 3.453129 1_565
In55 Na31 3.499456 1_565
In55 Na47 3.595849 1_555
In55 Na6 3.610611 1_565
In55 Na37 3.658554 1_555
In56 In74 3.163251 1_655
In56 In77 3.192739 1_555
In56 In70 3.229427 1_555
In56 Na14 3.361893 1_555
In56 Na25 3.453129 1_555
In56 Na34 3.499456 1_655
In56 Na38 3.595849 1_555
In56 Na5 3.610611 1_555
In56 Na40 3.658554 1_555
In57 In93 3.163251 1_555
In57 In78 3.192739 1_555
In57 Na15 3.361893 1_555
In57 Na29 3.453129 1_555
In57 Na31 3.499456 1_555
In57 Na48 3.595849 1_555
In57 Na6 3.610611 1_555
In57 Na39 3.658554 1_555
In58 In75 3.163251 1_555
In58 In79 3.192739 1_555
In58 In71 3.229427 1_555
In58 Na12 3.361893 1_556
In58 Na24 3.453129 1_556
In58 Na35 3.499456 1_555
In58 Na41 3.595849 1_555
In58 Na7 3.610611 1_555
In58 Na43 3.658554 1_555
In59 In92 3.163251 1_555
In59 In76 3.192739 1_565
In59 Na13 3.361893 1_555
In59 Na28 3.453129 1_565
In59 Na30 3.499456 1_565
In59 Na49 3.595849 1_555
In59 Na4 3.610611 1_565
In59 Na42 3.658554 1_555
In60 In75 3.163251 1_655
In60 In83 3.192739 1_555
In60 In68 3.229427 1_555
In60 Na18 3.361893 1_556
In60 Na25 3.453129 1_556
In60 Na35 3.499456 1_655
In60 Na39 3.595849 1_555
In60 Na11 3.610611 1_555
In60 Na48 3.658554 1_555
In61 In92 3.163251 1_555
In61 In80 3.192739 1_565
In61 Na19 3.361893 1_555
In61 Na29 3.453129 1_565
In61 Na30 3.499456 1_565
In61 Na50 3.595849 1_555
In61 Na8 3.610611 1_565
In61 Na44 3.658554 1_555
In62 In74 3.163251 1_555
In62 In81 3.192739 1_555
In62 In69 3.229427 1_555
In62 Na16 3.361893 1_555
In62 Na24 3.453129 1_555
In62 Na34 3.499456 1_555
In62 Na42 3.595849 1_555
In62 Na9 3.610611 1_555
In62 Na49 3.658554 1_555
In63 In93 3.163251 1_555
In63 In82 3.192739 1_555
In63 Na17 3.361893 1_555
In63 Na28 3.453129 1_555
In63 Na31 3.499456 1_555
In63 Na51 3.595849 1_555
In63 Na10 3.610611 1_555
In63 Na46 3.658554 1_555
In64 In67 3.148551 1_455
In64 In79 3.163251 1_555
In64 In73 3.192739 1_555
In64 Na20 3.361893 1_555
In64 Na27 3.453129 1_555
In64 Na35 3.499456 1_555
In64 Na50 3.595849 1_555
In64 Na1 3.610611 1_555
In64 Na44 3.658554 1_555
In65 In66 3.148551 1_655
In65 In77 3.163251 1_555
In65 In72 3.192739 1_655
In65 Na21 3.361893 1_555
In65 Na26 3.453129 1_655
In65 Na34 3.499456 1_655
In65 Na51 3.595849 1_555
In65 Na0 3.610611 1_655
In65 Na46 3.658554 1_555
In66 In81 3.163251 1_555
In66 In72 3.192739 1_555
In66 Na22 3.361893 1_555
In66 Na26 3.453129 1_555
In66 Na34 3.499456 1_555
In66 Na45 3.595849 1_555
In66 Na0 3.610611 1_555
In66 Na36 3.658554 1_555
In67 In83 3.163251 1_555
In67 In73 3.192739 1_655
In67 Na23 3.361893 1_555
In67 Na27 3.453129 1_655
In67 Na35 3.499456 1_655
In67 Na47 3.595849 1_555
In67 Na1 3.610611 1_655
In67 Na37 3.658554 1_555
In68 In71 3.148551 1_655
In68 In83 3.163251 1_555
In68 In75 3.192739 1_655
In68 Na21 3.361893 1_555
In68 Na26 3.453129 1_655
In68 Na35 3.499456 1_655
In68 Na48 3.595849 1_555
In68 Na3 3.610611 1_655
In68 Na39 3.658554 1_555
In69 In70 3.148551 1_455
In69 In81 3.163251 1_555
In69 In74 3.192739 1_555
In69 Na20 3.361893 1_555
In69 Na27 3.453129 1_555
In69 Na34 3.499456 1_555
In69 Na49 3.595849 1_555
In69 Na2 3.610611 1_555
In69 Na42 3.658554 1_555
In70 In77 3.163251 1_555
In70 In74 3.192739 1_655
In70 Na23 3.361893 1_555
In70 Na27 3.453129 1_655
In70 Na34 3.499456 1_655
In70 Na40 3.595849 1_555
In70 Na2 3.610611 1_655
In70 Na38 3.658554 1_555
In71 In79 3.163251 1_555
In71 In75 3.192739 1_555
In71 Na22 3.361893 1_555
In71 Na26 3.453129 1_555
In71 Na35 3.499456 1_555
In71 Na43 3.595849 1_555
In71 Na3 3.610611 1_555
In71 Na41 3.658554 1_555
In72 Na34 3.329205 1_555
In72 Na18 3.550709 1_455
In72 Na12 3.550709 1_555
In72 Na0 3.695450 1_555
In72 Na46 3.801780 1_455
In72 Na36 3.801780 1_555
In73 Na35 3.329205 1_555
In73 Na14 3.550709 1_456
In73 Na16 3.550709 1_556
In73 Na1 3.695450 1_555
In73 Na44 3.801780 1_555
In73 Na37 3.801780 1_455
In74 Na34 3.329205 1_555
In74 Na14 3.550709 1_455
In74 Na16 3.550709 1_555
In74 Na2 3.695450 1_555
In74 Na42 3.801780 1_555
In74 Na38 3.801780 1_455
In75 Na35 3.329205 1_555
In75 Na18 3.550709 1_456
In75 Na12 3.550709 1_556
In75 Na3 3.695450 1_555
In75 Na39 3.801780 1_455
In75 Na41 3.801780 1_555
In76 Na30 3.329205 1_555
In76 Na2 3.550709 1_545
In76 Na0 3.550709 1_555
In76 Na4 3.695450 1_555
In76 Na36 3.801780 1_555
In76 Na42 3.801780 1_545
In77 Na34 3.329205 1_655
In77 Na21 3.550709 1_555
In77 Na23 3.550709 1_555
In77 Na5 3.695450 1_555
In77 Na51 3.801780 1_555
In77 Na40 3.801780 1_555
In78 Na31 3.329205 1_555
In78 Na1 3.550709 1_645
In78 Na3 3.550709 1_655
In78 Na6 3.695450 1_555
In78 Na39 3.801780 1_555
In78 Na37 3.801780 1_545
In79 Na35 3.329205 1_555
In79 Na22 3.550709 1_555
In79 Na20 3.550709 1_555
In79 Na7 3.695450 1_555
In79 Na43 3.801780 1_555
In79 Na50 3.801780 1_555
In80 Na30 3.329205 1_555
In80 Na1 3.550709 1_545
In80 Na3 3.550709 1_555
In80 Na8 3.695450 1_555
In80 Na41 3.801780 1_555
In80 Na44 3.801780 1_545
In81 In9 2.961370 1_555
In81 Na34 3.329205 1_555
In81 Na22 3.550709 1_555
In81 Na20 3.550709 1_555
In81 Na9 3.695450 1_555
In81 Na45 3.801780 1_555
In81 Na49 3.801780 1_555
In82 Na31 3.329205 1_555
In82 Na2 3.550709 1_645
In82 Na0 3.550709 1_655
In82 Na10 3.695450 1_555
In82 Na38 3.801780 1_545
In82 Na46 3.801780 1_555
In83 Na35 3.329205 1_655
In83 Na21 3.550709 1_555
In83 Na23 3.550709 1_555
In83 Na11 3.695450 1_555
In83 Na48 3.801780 1_555
In83 Na47 3.801780 1_555
In84 Na32 3.329205 1_555
In84 Na8 3.550709 1_554
In84 Na4 3.550709 1_555
In84 Na12 3.695450 1_555
In84 Na41 3.801780 1_554
In84 Na36 3.801780 1_555
In85 Na33 3.329205 1_555
In85 Na5 3.550709 1_555
In85 Na9 3.550709 1_555
In85 Na13 3.695450 1_555
In85 Na49 3.801780 1_555
In85 Na40 3.801780 1_555
In86 Na33 3.329205 1_555
In86 Na6 3.550709 1_564
In86 Na10 3.550709 1_565
In86 Na14 3.695450 1_555
In86 Na38 3.801780 1_555
In86 Na37 3.801780 1_554
In87 Na32 3.329205 1_556
In87 Na11 3.550709 1_555
In87 Na7 3.550709 1_555
In87 Na15 3.695450 1_555
In87 Na43 3.801780 1_555
In87 Na48 3.801780 1_555
In88 Na33 3.329205 1_555
In88 Na8 3.550709 1_564
In88 Na4 3.550709 1_565
In88 Na16 3.695450 1_555
In88 Na42 3.801780 1_555
In88 Na44 3.801780 1_554
In89 Na32 3.329205 1_555
In89 Na5 3.550709 1_555
In89 Na9 3.550709 1_555
In89 Na17 3.695450 1_555
In89 Na45 3.801780 1_555
In89 Na51 3.801780 1_555
In90 Na32 3.329205 1_555
In90 Na6 3.550709 1_554
In90 Na10 3.550709 1_555
In90 Na18 3.695450 1_555
In90 Na46 3.801780 1_555
In90 Na39 3.801780 1_554
In91 Na33 3.329205 1_556
In91 Na11 3.550709 1_555
In91 Na7 3.550709 1_555
In91 Na19 3.695450 1_555
In91 Na50 3.801780 1_555
In91 Na47 3.801780 1_555
In92 Na30 3.329205 1_565
In92 Na13 3.550709 1_555
In92 Na19 3.550709 1_555
In92 Na20 3.695450 1_555
In92 Na49 3.801780 1_555
In92 Na50 3.801780 1_555
In93 Na31 3.329205 1_555
In93 Na17 3.550709 1_555
In93 Na15 3.550709 1_555
In93 Na21 3.695450 1_555
In93 Na51 3.801780 1_555
In93 Na48 3.801780 1_555
In94 Na30 3.329205 1_555
In94 Na17 3.550709 1_555
In94 Na15 3.550709 1_555
In94 Na22 3.695450 1_555
In94 Na45 3.801780 1_555
In94 Na43 3.801780 1_555
In95 Na31 3.329205 1_565
In95 Na13 3.550709 1_555
In95 Na19 3.550709 1_555
In95 Na23 3.695450 1_555
In95 Na40 3.801780 1_555
In95 Na47 3.801780 1_555
