# generated using pymatgen
data_HoGe2Pd
_symmetry_space_group_name_H-M   'P 1'
_cell_length_a   4.28579776
_cell_length_b   8.68956530
_cell_length_c   9.51654324
_cell_angle_alpha   117.16504323
_cell_angle_beta   102.92779278
_cell_angle_gamma   89.99982096
_symmetry_Int_Tables_number   1
_chemical_formula_structural   HoGe2Pd
_chemical_formula_sum   'Ho4 Ge8 Pd4'
_cell_volume   305.18718757
_cell_formula_units_Z   4
loop_
 _symmetry_equiv_pos_site_id
 _symmetry_equiv_pos_as_xyz
  1  'x, y, z'
loop_
 _atom_site_type_symbol
 _atom_site_label
 _atom_site_symmetry_multiplicity
 _atom_site_fract_x
 _atom_site_fract_y
 _atom_site_fract_z
 _atom_site_occupancy
  Ho  Ho0  1  0.20071867  0.20055152  0.40110483  1
  Ho  Ho1  1  0.79928202  0.79944913  0.59889414  1
  Ho  Ho2  1  -0.00000358  0.76057570  0.00000001  1
  Ho  Ho3  1  0.00000484  0.23942722  0.00000065  1
  Ge  Ge0  1  0.57402922  0.07372501  0.14746018  1
  Ge  Ge1  1  0.42597585  0.92627082  0.85253611  1
  Ge  Ge2  1  0.19898610  0.84948535  0.39841135  1
  Ge  Ge3  1  0.80101913  0.15051715  0.60158996  1
  Ge  Ge4  1  0.19897240  0.54892323  0.39841286  1
  Ge  Ge5  1  0.80101710  0.45107761  0.60158452  1
  Ge  Ge6  1  0.42574091  0.42672264  0.85345058  1
  Ge  Ge7  1  0.57426019  0.57328027  0.14655481  1
  Pd  Pd0  1  0.35243867  0.10365697  0.70501719  1
  Pd  Pd1  1  0.64756636  0.89634417  0.29498367  1
  Pd  Pd2  1  0.35245203  0.60136139  0.70501679  1
  Pd  Pd3  1  0.64753910  0.39863182  0.29498033  1
loop_
_geom_bond_atom_site_label_1
_geom_bond_atom_site_label_2
_geom_bond_distance
_geom_bond_site_symmetry_2
Ho0 Pd3 3.178435 1_555
Ho0 Pd1 3.178512 1_545
Ho0 Pd1 3.181031 1_445
Ho0 Pd3 3.181084 1_455
Ho0 Pd0 3.298272 1_555
Ho0 Pd2 3.298272 1_555
Ho1 Pd2 3.178495 1_555
Ho1 Pd0 3.178504 1_565
Ho1 Pd0 3.181043 1_665
Ho1 Pd2 3.181094 1_655
Ho1 Pd1 3.298258 1_555
Ho1 Pd3 3.298321 1_555
Ho2 Pd1 3.229075 1_455
Ho2 Pd2 3.229143 1_554
Ho2 Pd2 3.234859 1_454
Ho2 Pd1 3.234934 1_555
Ho3 Pd0 3.229084 1_554
Ho3 Pd3 3.229143 1_455
Ho3 Pd3 3.234811 1_555
Ho3 Pd0 3.234922 1_454
Ge0 Ge1 2.416843 1_544
Ge0 Pd1 2.494802 1_545
Ge0 Pd3 2.494810 1_555
Ge0 Ho0 2.983257 1_555
Ge0 Ho0 2.987480 1_655
Ge0 Ho2 3.219654 1_645
Ge0 Ho3 3.219762 1_655
Ge0 Ho2 3.224103 1_545
Ge0 Ho3 3.224148 1_555
Ge1 Pd0 2.494806 1_565
Ge1 Pd2 2.494830 1_555
Ge1 Ho1 2.983224 1_555
Ge1 Ho1 2.987483 1_455
Ge1 Ho3 3.219712 1_566
Ge1 Ho2 3.219765 1_556
Ge1 Ho2 3.224117 1_656
Ge1 Ho3 3.224127 1_666
Ge2 Pd1 2.458323 1_555
Ge2 Pd1 2.458617 1_455
Ge2 Ge4 2.611761 1_555
Ge2 Pd0 2.661060 1_565
Ge2 Ho1 2.997258 1_455
Ge2 Ho1 3.001552 1_555
Ge2 Ho0 3.038990 1_565
Ge2 Ho2 3.402664 1_555
Ge3 Pd0 2.458325 1_555
Ge3 Pd0 2.458619 1_655
Ge3 Ge5 2.611763 1_555
Ge3 Pd1 2.661066 1_545
Ge3 Ho0 2.997255 1_655
Ge3 Ho0 3.001570 1_555
Ge3 Ho1 3.038996 1_545
Ge3 Ho3 3.402657 1_656
Ge4 Pd3 2.458295 1_555
Ge4 Pd3 2.458682 1_455
Ge4 Pd2 2.661039 1_555
Ge4 Ho1 2.997223 1_455
Ge4 Ho1 3.001617 1_555
Ge4 Ho0 3.038975 1_555
Ge4 Ho3 3.402647 1_555
Ge5 Pd2 2.458265 1_555
Ge5 Pd2 2.458665 1_655
Ge5 Pd3 2.661019 1_555
Ge5 Ho0 2.997252 1_655
Ge5 Ho0 3.001582 1_555
Ge5 Ho1 3.038967 1_555
Ge5 Ho2 3.402674 1_656
Ge6 Ge7 2.401953 1_556
Ge6 Pd0 2.481024 1_555
Ge6 Pd2 2.481086 1_555
Ge6 Ho3 3.336812 1_556
Ge6 Ho2 3.336863 1_556
Ge6 Ho3 3.344843 1_656
Ge6 Ho2 3.344867 1_656
Ge7 Pd1 2.481009 1_555
Ge7 Pd3 2.481095 1_555
Ge7 Ho2 3.336847 1_655
Ge7 Ho3 3.336870 1_655
Ge7 Ho3 3.344860 1_555
Ge7 Ho2 3.344864 1_555
