# generated using pymatgen
data_Gd8MgAlNi2
_symmetry_space_group_name_H-M   'P 1'
_cell_length_a   9.63804606
_cell_length_b   9.64592563
_cell_length_c   9.63761709
_cell_angle_alpha   89.97712004
_cell_angle_beta   59.58566929
_cell_angle_gamma   119.59453376
_symmetry_Int_Tables_number   1
_chemical_formula_structural   Gd8MgAlNi2
_chemical_formula_sum   'Gd16 Mg2 Al2 Ni4'
_cell_volume   633.31578147
_cell_formula_units_Z   2
loop_
 _symmetry_equiv_pos_site_id
 _symmetry_equiv_pos_as_xyz
  1  'x, y, z'
loop_
 _atom_site_type_symbol
 _atom_site_label
 _atom_site_symmetry_multiplicity
 _atom_site_fract_x
 _atom_site_fract_y
 _atom_site_fract_z
 _atom_site_occupancy
  Gd  Gd0  1  0.69300500  0.34795600  0.95744900  1
  Gd  Gd1  1  0.30576000  0.34812700  0.34567700  1
  Gd  Gd2  1  0.30179000  0.95474600  0.34725300  1
  Gd  Gd3  1  0.69808400  0.35121000  0.34836800  1
  Gd  Gd4  1  0.37954400  0.19036200  0.81084700  1
  Gd  Gd5  1  0.99887000  0.81003900  0.80999800  1
  Gd  Gd6  1  0.00186600  0.18702900  0.81345900  1
  Gd  Gd7  1  0.62016400  0.80921100  0.18785000  1
  Gd  Gd8  1  0.00084400  0.18975500  0.18989900  1
  Gd  Gd9  1  0.00118800  0.80704700  0.19329100  1
  Gd  Gd10  1  0.12879900  0.56377300  0.93971900  1
  Gd  Gd11  1  0.49592200  0.93141500  0.94048900  1
  Gd  Gd12  1  0.49952200  0.56457200  0.93728000  1
  Gd  Gd13  1  0.86929200  0.93073800  0.56559700  1
  Gd  Gd14  1  0.50315300  0.56370800  0.56566800  1
  Gd  Gd15  1  0.49904200  0.93425900  0.56549800  1
  Mg  Mg0  1  0.84561300  0.27191200  0.57447600  1
  Mg  Mg1  1  0.15439600  0.58075800  0.57340500  1
  Al  Al0  1  0.15524100  0.58099200  0.26308500  1
  Al  Al1  1  0.84617500  0.58241800  0.57200800  1
  Ni  Ni0  1  0.28440900  0.14115400  0.57330700  1
  Ni  Ni1  1  0.71591900  0.14252900  0.14209600  1
  Ni  Ni2  1  0.71820800  0.57460800  0.14136900  1
  Ni  Ni3  1  0.28319400  0.14168200  0.14191200  1
loop_
_geom_bond_atom_site_label_1
_geom_bond_atom_site_label_2
_geom_bond_distance
_geom_bond_site_symmetry_2
Gd0 Ni3 2.800959 1_556
Gd0 Ni2 2.809842 1_556
Gd0 Ni1 2.823015 1_556
Gd0 Mg0 3.449007 1_555
Gd0 Mg1 3.461533 1_655
Gd0 Gd12 3.477982 1_555
Gd0 Gd11 3.543318 1_545
Gd0 Gd10 3.555452 1_655
Gd1 Ni3 2.806622 1_555
Gd1 Ni2 2.818800 1_555
Gd1 Ni0 2.823929 1_555
Gd1 Mg0 3.456605 1_455
Gd1 Mg1 3.460627 1_555
Gd1 Gd12 3.469650 1_554
Gd1 Gd14 3.552302 1_555
Gd1 Gd13 3.554597 1_445
Gd2 Ni3 2.806327 1_565
Gd2 Ni0 2.817563 1_565
Gd2 Ni1 2.826171 1_565
Gd2 Mg1 3.402841 1_555
Gd3 Ni2 2.802327 1_555
Gd3 Ni0 2.822642 1_555
Gd3 Ni1 2.834147 1_555
Gd3 Mg0 3.400833 1_555
Gd4 Ni3 2.798462 1_556
Gd4 Ni0 2.829021 1_555
Gd4 Mg0 3.483370 1_555
Gd5 Ni2 2.802408 1_556
Gd5 Ni0 2.816824 1_665
Gd5 Mg1 3.486444 1_655
Gd6 Ni0 2.788875 1_555
Gd6 Ni1 2.793511 1_456
Gd6 Mg0 3.601605 1_455
Gd6 Mg1 3.601702 1_555
Gd7 Ni2 2.810507 1_555
Gd7 Ni1 2.835393 1_565
Gd7 Mg1 3.485513 1_555
Gd8 Ni3 2.794044 1_555
Gd8 Ni1 2.829573 1_455
Gd8 Mg0 3.487511 1_455
Gd9 Ni3 2.832358 1_565
Gd9 Ni2 2.838798 1_455
Gd10 Mg1 3.410154 1_555
Gd10 Gd3 3.461324 1_456
Gd10 Ni2 3.474169 1_456
Gd10 Ni1 3.509173 1_456
Gd10 Gd12 3.557390 1_555
Gd10 Gd11 3.567730 1_555
Gd10 Gd9 3.578203 1_556
Gd10 Gd14 3.584204 1_555
Gd10 Gd15 3.588257 1_555
Gd10 Gd8 3.596963 1_556
Gd10 Gd5 3.646221 1_455
Gd10 Gd6 3.647361 1_555
Gd11 Mg0 3.407260 1_565
Gd11 Gd2 3.451043 1_556
Gd11 Ni3 3.488036 1_566
Gd11 Ni1 3.511084 1_566
Gd11 Gd12 3.555798 1_555
Gd11 Gd9 3.563237 1_556
Gd11 Gd7 3.576172 1_556
Gd11 Gd13 3.586474 1_555
Gd11 Gd15 3.598870 1_555
Gd11 Gd4 3.638935 1_565
Gd11 Gd6 3.665260 1_665
Gd12 Ni3 3.507977 1_556
Gd12 Ni2 3.509525 1_556
Gd12 Gd13 3.555139 1_555
Gd12 Gd14 3.563919 1_555
Gd12 Gd7 3.590221 1_556
Gd12 Gd5 3.610845 1_555
Gd12 Gd8 3.616768 1_556
Gd12 Gd4 3.627478 1_555
Gd13 Mg0 3.407634 1_565
Gd13 Gd2 3.467338 1_655
Gd13 Ni3 3.494377 1_665
Gd13 Ni0 3.523172 1_665
Gd13 Gd14 3.555914 1_555
Gd13 Gd9 3.577354 1_655
Gd13 Gd15 3.585862 1_555
Gd13 Gd5 3.588271 1_555
Gd13 Gd8 3.629867 1_665
Gd13 Gd6 3.664117 1_665
Gd14 Mg1 3.409318 1_555
Gd14 Gd3 3.455484 1_555
Gd14 Ni2 3.497381 1_555
Gd14 Ni0 3.523972 1_555
Gd14 Gd9 3.585072 1_655
Gd14 Gd4 3.588480 1_555
Gd14 Gd15 3.594049 1_555
Gd14 Gd6 3.635846 1_555
Gd14 Gd7 3.651855 1_555
Gd15 Mg1 3.350032 1_555
Gd15 Mg0 3.364532 1_565
Gd15 Ni0 3.491117 1_565
Gd15 Ni1 3.502278 1_565
Gd15 Gd2 3.535100 1_555
Gd15 Gd3 3.541564 1_565
Gd15 Gd5 3.608094 1_455
Gd15 Gd8 3.614135 1_665
Gd15 Gd4 3.616330 1_565
Gd15 Gd7 3.627253 1_555
Mg0 Mg1 2.990634 1_655
Al0 Al1 2.966235 1_455
Al0 Mg1 2.986628 1_555
Al0 Mg0 2.989615 1_455
Al0 Gd11 3.250546 1_554
Al0 Gd10 3.250805 1_554
Al0 Gd12 3.296240 1_554
Al0 Gd9 3.408731 1_555
Al0 Gd3 3.418739 1_455
Al0 Gd2 3.432681 1_555
Al0 Gd1 3.488535 1_555
Al0 Gd7 3.523727 1_555
Al0 Gd8 3.531546 1_555
Al1 Mg1 2.985409 1_655
Al1 Mg0 2.992510 1_555
Al1 Gd14 3.252931 1_555
Al1 Gd13 3.254025 1_555
Al1 Gd12 3.332854 1_555
Al1 Gd9 3.394693 1_655
Al1 Gd3 3.410450 1_555
Al1 Gd2 3.414571 1_655
Al1 Gd0 3.498080 1_555
Al1 Gd5 3.532367 1_555
Al1 Gd4 3.541035 1_555
