# generated using pymatgen
data_K(V3S4)2
_symmetry_space_group_name_H-M   'P 1'
_cell_length_a   3.24145990
_cell_length_b   9.21744818
_cell_length_c   9.21738041
_cell_angle_alpha   60.00105381
_cell_angle_beta   90.00011594
_cell_angle_gamma   89.99959594
_symmetry_Int_Tables_number   1
_chemical_formula_structural   K(V3S4)2
_chemical_formula_sum   'K1 V6 S8'
_cell_volume   238.50314663
_cell_formula_units_Z   1
loop_
 _symmetry_equiv_pos_site_id
 _symmetry_equiv_pos_as_xyz
  1  'x, y, z'
loop_
 _atom_site_type_symbol
 _atom_site_label
 _atom_site_symmetry_multiplicity
 _atom_site_fract_x
 _atom_site_fract_y
 _atom_site_fract_z
 _atom_site_occupancy
  K  K0  1  0.50000000  0.00000000  0.00000000  1
  V  V0  1  0.74847609  0.37846701  0.51100130  1
  V  V1  1  0.74847313  0.11052084  0.37847141  1
  V  V2  1  0.74847446  0.51099650  0.11052483  1
  V  V3  1  0.25152391  0.62153299  0.48899870  1
  V  V4  1  0.25152687  0.88947916  0.62152859  1
  V  V5  1  0.25152554  0.48900350  0.88947517  1
  S  S0  1  0.75078274  0.66666926  0.66667565  1
  S  S1  1  0.24921726  0.33333074  0.33332435  1
  S  S2  1  0.75330442  0.05366869  0.65231326  1
  S  S3  1  0.75330433  0.29402768  0.05366282  1
  S  S4  1  0.75330070  0.65229501  0.29402417  1
  S  S5  1  0.24669558  0.94633131  0.34768674  1
  S  S6  1  0.24669567  0.70597232  0.94633718  1
  S  S7  1  0.24669930  0.34770499  0.70597583  1
loop_
_geom_bond_atom_site_label_1
_geom_bond_atom_site_label_2
_geom_bond_distance
_geom_bond_site_symmetry_2
K0 S2 3.099046 1_554
K0 S5 3.099046 1_545
K0 S3 3.099105 1_555
K0 S6 3.099105 1_544
K0 S4 3.099205 1_545
K0 S7 3.099205 1_554
S0 V5 2.480979 1_555
S0 V4 2.480989 1_555
S0 V3 2.481033 1_555
S0 V5 2.484102 1_655
S0 V4 2.484158 1_655
S0 V3 2.484170 1_655
S1 V2 2.480979 1_555
S1 V1 2.480989 1_555
S1 V0 2.481033 1_555
S1 V2 2.484102 1_455
S1 V1 2.484158 1_455
S1 V0 2.484170 1_455
S2 V1 2.307225 1_555
S2 V4 2.325604 1_645
S2 V4 2.333635 1_545
S2 V0 2.600064 1_555
S3 V2 2.307096 1_555
S3 V5 2.325641 1_654
S3 V5 2.333641 1_554
S3 V1 2.600145 1_555
S4 V0 2.307143 1_555
S4 V3 2.325664 1_655
S4 V3 2.333685 1_555
S4 V2 2.600020 1_555
S5 V4 2.307225 1_555
S5 V1 2.325604 1_465
S5 V1 2.333635 1_565
S5 V3 2.600064 1_555
S6 V5 2.307096 1_555
S6 V2 2.325641 1_456
S6 V2 2.333641 1_556
S6 V4 2.600145 1_555
S7 V3 2.307143 1_555
S7 V0 2.325664 1_455
S7 V0 2.333685 1_555
S7 V5 2.600020 1_555
