# generated using pymatgen
data_Sm4Au2O9
_symmetry_space_group_name_H-M   'P 1'
_cell_length_a   6.03827504
_cell_length_b   11.84807131
_cell_length_c   11.86039160
_cell_angle_alpha   90.00000000
_cell_angle_beta   90.00000000
_cell_angle_gamma   90.00000000
_symmetry_Int_Tables_number   1
_chemical_formula_structural   Sm4Au2O9
_chemical_formula_sum   'Sm16 Au8 O36'
_cell_volume   848.51510712
_cell_formula_units_Z   4
loop_
 _symmetry_equiv_pos_site_id
 _symmetry_equiv_pos_as_xyz
  1  'x, y, z'
loop_
 _atom_site_type_symbol
 _atom_site_label
 _atom_site_symmetry_multiplicity
 _atom_site_fract_x
 _atom_site_fract_y
 _atom_site_fract_z
 _atom_site_occupancy
  Sm  Sm0  1  0.25833060  0.98849109  0.08996063  1
  Sm  Sm1  1  0.25833060  0.01150891  0.41003937  1
  Sm  Sm2  1  0.24166940  0.51150891  0.58996063  1
  Sm  Sm3  1  0.24166940  0.48849109  0.91003937  1
  Sm  Sm4  1  0.74166940  0.01150891  0.91003937  1
  Sm  Sm5  1  0.74166940  0.98849109  0.58996063  1
  Sm  Sm6  1  0.75833060  0.48849109  0.41003937  1
  Sm  Sm7  1  0.75833060  0.51150891  0.08996063  1
  Sm  Sm8  1  0.19742433  0.65900099  0.26402690  1
  Sm  Sm9  1  0.19742433  0.34099901  0.23597310  1
  Sm  Sm10  1  0.30257567  0.84099901  0.76402690  1
  Sm  Sm11  1  0.30257567  0.15900099  0.73597310  1
  Sm  Sm12  1  0.80257567  0.34099901  0.73597310  1
  Sm  Sm13  1  0.80257567  0.65900099  0.76402690  1
  Sm  Sm14  1  0.69742433  0.15900099  0.23597310  1
  Sm  Sm15  1  0.69742433  0.84099901  0.26402690  1
  Au  Au0  1  0.41876806  0.72823649  0.01065788  1
  Au  Au1  1  0.41876806  0.27176351  0.48934212  1
  Au  Au2  1  0.08123194  0.77176351  0.51065788  1
  Au  Au3  1  0.08123194  0.22823649  0.98934212  1
  Au  Au4  1  0.58123194  0.27176351  0.98934212  1
  Au  Au5  1  0.58123194  0.72823649  0.51065788  1
  Au  Au6  1  0.91876806  0.22823649  0.48934212  1
  Au  Au7  1  0.91876806  0.77176351  0.01065788  1
  O  O0  1  0.06154179  0.61509149  0.44597170  1
  O  O1  1  0.06154179  0.38490851  0.05402830  1
  O  O2  1  0.43845821  0.88490851  0.94597170  1
  O  O3  1  0.43845821  0.11509149  0.55402830  1
  O  O4  1  0.93845821  0.38490851  0.55402830  1
  O  O5  1  0.93845821  0.61509149  0.94597170  1
  O  O6  1  0.56154179  0.11509149  0.05402830  1
  O  O7  1  0.56154179  0.88490851  0.44597170  1
  O  O8  1  0.06125879  0.83682029  0.35127584  1
  O  O9  1  0.06125879  0.16317971  0.14872416  1
  O  O10  1  0.43874121  0.66317971  0.85127584  1
  O  O11  1  0.43874121  0.33682029  0.64872416  1
  O  O12  1  0.93874121  0.16317971  0.64872416  1
  O  O13  1  0.93874121  0.83682029  0.85127584  1
  O  O14  1  0.37306650  0.80290503  0.15847651  1
  O  O15  1  0.56125879  0.33682029  0.14872416  1
  O  O16  1  0.38579566  0.57636252  0.08876233  1
  O  O17  1  0.38579566  0.42363748  0.41123767  1
  O  O18  1  0.11420434  0.92363748  0.58876233  1
  O  O19  1  0.11420434  0.07636252  0.91123767  1
  O  O20  1  0.61420434  0.42363748  0.91123767  1
  O  O21  1  0.61420434  0.57636252  0.58876233  1
  O  O22  1  0.88579566  0.07636252  0.41123767  1
  O  O23  1  0.88579566  0.92363748  0.08876233  1
  O  O24  1  0.97623993  0.50000000  0.25000000  1
  O  O25  1  0.52376007  -0.00000000  0.75000000  1
  O  O26  1  0.02376007  0.50000000  0.75000000  1
  O  O27  1  0.47623993  -0.00000000  0.25000000  1
  O  O28  1  0.87306650  0.69709497  0.15847651  1
  O  O29  1  0.87306650  0.30290503  0.34152349  1
  O  O30  1  0.62693350  0.80290503  0.65847651  1
  O  O31  1  0.62693350  0.19709497  0.84152349  1
  O  O32  1  0.12693350  0.30290503  0.84152349  1
  O  O33  1  0.12693350  0.69709497  0.65847651  1
  O  O34  1  0.37306650  0.19709497  0.34152349  1
  O  O35  1  0.56125879  0.66317971  0.35127584  1
loop_
_geom_bond_atom_site_label_1
_geom_bond_atom_site_label_2
_geom_bond_distance
_geom_bond_site_symmetry_2
Au0 O14 1.983046 1_555
Au0 O2 2.012074 1_554
Au0 O16 2.033630 1_555
Au0 O10 2.045002 1_554
Au1 O34 1.983046 1_555
Au1 O3 2.012074 1_555
Au1 O17 2.033630 1_555
Au1 O11 2.045002 1_555
Au2 O33 1.983046 1_555
Au2 O0 2.012074 1_555
Au2 O18 2.033630 1_555
Au2 O8 2.045002 1_555
Au3 O32 1.983046 1_555
Au3 O1 2.012074 1_556
Au3 O19 2.033630 1_555
Au3 O9 2.045002 1_556
Au4 O31 1.983046 1_555
Au4 O6 2.012074 1_556
Au4 O20 2.033630 1_555
Au4 O15 2.045002 1_556
Au5 O30 1.983046 1_555
Au5 O7 2.012074 1_555
Au5 O21 2.033630 1_555
Au5 O35 2.045002 1_555
Au6 O29 1.983046 1_555
Au6 O4 2.012074 1_555
Au6 O22 2.033630 1_555
Au6 O12 2.045002 1_555
Au7 O28 1.983046 1_555
Au7 O5 2.012074 1_554
Au7 O23 2.033630 1_555
Au7 O13 2.045002 1_554
O0 Sm8 2.366550 1_555
O0 Sm2 2.367619 1_555
O0 Sm6 2.404918 1_455
O1 Sm9 2.366550 1_555
O1 Sm3 2.367619 1_554
O1 Sm7 2.404918 1_455
O2 Sm10 2.366550 1_555
O2 Sm0 2.367619 1_556
O2 Sm4 2.404918 1_565
O3 Sm11 2.366550 1_555
O3 Sm1 2.367619 1_555
O3 Sm5 2.404918 1_545
O4 Sm12 2.366550 1_555
O4 Sm6 2.367619 1_555
O4 Sm2 2.404918 1_655
O5 Sm13 2.366550 1_555
O5 Sm7 2.367619 1_556
O5 Sm3 2.404918 1_655
O6 Sm14 2.366550 1_555
O6 Sm4 2.367619 1_554
O6 Sm0 2.404918 1_545
O7 Sm15 2.366550 1_555
O7 Sm5 2.367619 1_555
O7 Sm1 2.404918 1_565
O8 Sm15 2.428948 1_455
O8 Sm8 2.487070 1_555
O8 Sm1 2.487075 1_565
O9 Sm14 2.428948 1_455
O9 Sm9 2.487070 1_555
O9 Sm0 2.487075 1_545
O10 Sm13 2.428948 1_555
O10 Sm10 2.487070 1_555
O10 Sm3 2.487075 1_555
O11 Sm12 2.428948 1_555
O11 Sm11 2.487070 1_555
O11 Sm2 2.487075 1_555
O12 Sm11 2.428948 1_655
O12 Sm12 2.487070 1_555
O12 Sm5 2.487075 1_545
O13 Sm10 2.428948 1_655
O13 Sm13 2.487070 1_555
O13 Sm4 2.487075 1_565
O14 Sm8 2.366215 1_555
O14 Sm15 2.367878 1_555
O14 Sm0 2.444427 1_555
O15 Sm9 2.428948 1_555
O15 Sm14 2.487070 1_555
O15 Sm7 2.487075 1_555
O16 Sm7 2.377127 1_555
O16 Sm3 2.516846 1_554
O16 Sm8 2.563871 1_555
O17 Sm6 2.377127 1_555
O17 Sm2 2.516846 1_555
O17 Sm9 2.563871 1_555
O18 Sm5 2.377127 1_455
O18 Sm1 2.516846 1_565
O18 Sm10 2.563871 1_555
O19 Sm4 2.377127 1_455
O19 Sm0 2.516846 1_546
O19 Sm11 2.563871 1_555
O20 Sm3 2.377127 1_555
O20 Sm7 2.516846 1_556
O20 Sm12 2.563871 1_555
O21 Sm2 2.377127 1_555
O21 Sm6 2.516846 1_555
O21 Sm13 2.563871 1_555
O22 Sm1 2.377127 1_655
O22 Sm5 2.516846 1_545
O22 Sm14 2.563871 1_555
O23 Sm0 2.377127 1_655
O23 Sm4 2.516846 1_564
O23 Sm15 2.563871 1_555
O24 Sm6 2.313614 1_555
O24 Sm7 2.313614 1_555
O24 Sm9 2.315241 1_655
O24 Sm8 2.315241 1_655
O25 Sm5 2.313614 1_545
O25 Sm4 2.313614 1_555
O25 Sm10 2.315241 1_545
O25 Sm11 2.315241 1_555
O26 Sm2 2.313614 1_555
O26 Sm3 2.313614 1_555
O26 Sm13 2.315241 1_455
O26 Sm12 2.315241 1_455
O27 Sm0 2.313614 1_545
O27 Sm1 2.313614 1_555
O27 Sm14 2.315241 1_555
O27 Sm15 2.315241 1_545
O28 Sm15 2.366215 1_555
O28 Sm8 2.367878 1_655
O28 Sm7 2.444427 1_555
O29 Sm14 2.366215 1_555
O29 Sm9 2.367878 1_655
O29 Sm6 2.444427 1_555
O30 Sm13 2.366215 1_555
O30 Sm10 2.367878 1_555
O30 Sm5 2.444427 1_555
O31 Sm12 2.366215 1_555
O31 Sm11 2.367878 1_555
O31 Sm4 2.444427 1_555
O32 Sm11 2.366215 1_555
O32 Sm12 2.367878 1_455
O32 Sm3 2.444427 1_555
O33 Sm10 2.366215 1_555
O33 Sm13 2.367878 1_455
O33 Sm2 2.444427 1_555
O34 Sm9 2.366215 1_555
O34 Sm14 2.367878 1_555
O34 Sm1 2.444427 1_555
O35 Sm8 2.428948 1_555
O35 Sm15 2.487070 1_555
O35 Sm6 2.487075 1_555
