# generated using pymatgen
data_Li2SeO4
_symmetry_space_group_name_H-M   'P 1'
_cell_length_a   8.17783035
_cell_length_b   8.52308734
_cell_length_c   10.27813279
_cell_angle_alpha   92.20869814
_cell_angle_beta   100.79355468
_cell_angle_gamma   117.37768332
_symmetry_Int_Tables_number   1
_chemical_formula_structural   Li2SeO4
_chemical_formula_sum   'Li12 Se6 O24'
_cell_volume   618.48151905
_cell_formula_units_Z   6
loop_
 _symmetry_equiv_pos_site_id
 _symmetry_equiv_pos_as_xyz
  1  'x, y, z'
loop_
 _atom_site_type_symbol
 _atom_site_label
 _atom_site_symmetry_multiplicity
 _atom_site_fract_x
 _atom_site_fract_y
 _atom_site_fract_z
 _atom_site_occupancy
  Li  Li0  1  0.16555100  0.49245200  0.47506600  1
  Li  Li1  1  0.83844900  0.51972800  0.52809400  1
  Li  Li2  1  0.26647700  0.12175800  0.84118500  1
  Li  Li3  1  0.37102500  0.24145100  0.59222600  1
  Li  Li4  1  0.55018600  0.43049600  0.21281800  1
  Li  Li5  1  0.62926200  0.76255100  0.40009900  1
  Li  Li6  1  0.23154400  0.96338700  0.21899300  1
  Li  Li7  1  0.85410300  0.31735300  0.07776200  1
  Li  Li8  1  0.44455100  0.56255100  0.79298400  1
  Li  Li9  1  0.72430000  0.87270700  0.14662100  1
  Li  Li10  1  0.75705000  0.03499400  0.76435300  1
  Li  Li11  1  0.13730800  0.67165100  0.92339200  1
  Se  Se0  1  0.70135700  0.39600800  0.80317100  1
  Se  Se1  1  0.29377500  0.60242600  0.19720300  1
  Se  Se2  1  0.68653100  0.15915800  0.31842800  1
  Se  Se3  1  0.07420300  0.33991900  0.72046900  1
  Se  Se4  1  0.31919900  0.84307200  0.69499000  1
  Se  Se5  1  0.91894400  0.65653200  0.27248000  1
  O  O0  1  0.13353600  0.66392200  0.59800900  1
  O  O1  1  0.65633100  0.37677200  0.63445400  1
  O  O2  1  0.50935600  0.80722700  0.73366700  1
  O  O3  1  0.26480200  0.88799700  0.83707300  1
  O  O4  1  0.87078100  0.34818400  0.40490500  1
  O  O5  1  0.77327200  0.48767200  0.14314800  1
  O  O6  1  0.75683100  0.62408300  0.37334700  1
  O  O7  1  0.97536300  0.95644500  0.52568100  1
  O  O8  1  0.03774500  0.13982500  0.77767900  1
  O  O9  1  0.49616800  0.35545900  0.84233200  1
  O  O10  1  0.07162000  0.05765800  0.45459000  1
  O  O11  1  0.22915800  0.74854700  0.13058800  1
  O  O12  1  0.34318500  0.63322900  0.36587000  1
  O  O13  1  0.24257200  0.37961900  0.62428800  1
  O  O14  1  0.64873800  0.99646500  0.41027400  1
  O  O15  1  0.86766000  0.60254800  0.86279900  1
  O  O16  1  0.12856600  0.39393000  0.14269400  1
  O  O17  1  0.37824900  0.01992800  0.61676100  1
  O  O18  1  0.21532900  0.50057500  0.85606100  1
  O  O19  1  0.49950500  0.64239400  0.15909000  1
  O  O20  1  0.73311000  0.10647700  0.17495100  1
  O  O21  1  0.48994200  0.18561600  0.27898500  1
  O  O22  1  0.76444100  0.24653900  0.86537400  1
  O  O23  1  0.94992000  0.85069500  0.20704400  1
loop_
_geom_bond_atom_site_label_1
_geom_bond_atom_site_label_2
_geom_bond_distance
_geom_bond_site_symmetry_2
Li0 O12 1.980127 1_555
Li0 O13 1.995705 1_555
Li0 O0 2.033375 1_555
Li0 O4 2.096986 1_455
Li1 O1 1.985255 1_555
Li1 O6 2.005921 1_555
Li1 O4 2.036906 1_555
Li1 O0 2.098807 1_655
Li2 O8 1.940106 1_555
Li2 O3 1.984864 1_545
Li2 O9 2.011161 1_555
Li3 O17 1.940504 1_555
Li3 O13 1.958654 1_555
Li3 O1 2.017315 1_555
Li3 O10 2.335484 1_555
Li3 O9 2.550919 1_555
Li4 O5 1.943468 1_555
Li4 O21 2.085796 1_555
Li4 O19 2.101911 1_555
Li4 O6 2.117050 1_555
Li5 O14 1.922674 1_555
Li5 O6 1.942043 1_555
Li5 O12 2.025370 1_555
Li5 O19 2.476173 1_555
Li5 O7 2.563866 1_555
Li6 O11 2.002795 1_555
Li6 O23 2.022937 1_455
Li6 O21 2.043026 1_565
Li7 O16 1.991805 1_655
Li7 O5 1.992380 1_555
Li7 O20 2.019954 1_555
Li7 O22 2.135211 1_554
Li8 O18 1.945283 1_555
Li8 O2 2.050365 1_555
Li8 O9 2.055466 1_555
Li8 O13 2.125082 1_555
Li9 O23 1.929606 1_555
Li9 O20 1.968554 1_565
Li9 O19 2.009464 1_555
Li10 O22 2.016078 1_555
Li10 O2 2.016951 1_545
Li10 O8 2.018118 1_655
Li11 O15 1.964752 1_455
Li11 O18 1.988790 1_555
Li11 O3 1.994660 1_555
Li11 O11 2.090317 1_556
O0 Se4 1.677491 1_555
O1 Se0 1.689071 1_555
O2 Se4 1.698347 1_555
O3 Se4 1.683446 1_555
O4 Se2 1.676707 1_555
O5 Se5 1.714665 1_555
O6 Se5 1.763099 1_555
O8 Se3 1.737360 1_555
O9 Se0 1.681507 1_555
O10 O7 1.239831 1_445
O11 Se1 1.683604 1_555
O12 Se1 1.685970 1_555
O13 Se3 1.759170 1_555
O14 Se2 1.650901 1_565
O15 Se0 1.651322 1_555
O16 Se1 1.651886 1_555
O17 Se4 1.649607 1_545
O18 Se3 1.716449 1_555
O19 Se1 1.682283 1_555
O20 Se2 1.684643 1_555
O21 Se2 1.701815 1_555
O22 Se0 1.685672 1_555
O23 Se5 1.737570 1_555
