# generated using pymatgen
data_Ti4Al11Ni
_symmetry_space_group_name_H-M   'P 1'
_cell_length_a   3.90073600
_cell_length_b   3.90073600
_cell_length_c   16.35139100
_cell_angle_alpha   90.00000000
_cell_angle_beta   90.00000000
_cell_angle_gamma   90.00000000
_symmetry_Int_Tables_number   1
_chemical_formula_structural   Ti4Al11Ni
_chemical_formula_sum   'Ti4 Al11 Ni1'
_cell_volume   248.79853603
_cell_formula_units_Z   1
loop_
 _symmetry_equiv_pos_site_id
 _symmetry_equiv_pos_as_xyz
  1  'x, y, z'
loop_
 _atom_site_type_symbol
 _atom_site_label
 _atom_site_symmetry_multiplicity
 _atom_site_fract_x
 _atom_site_fract_y
 _atom_site_fract_z
 _atom_site_occupancy
  Ti  Ti0  1  0.50000000  0.50000000  0.38058500  1
  Ti  Ti1  1  0.00000000  0.00000000  0.88705200  1
  Ti  Ti2  1  0.00000000  0.00000000  0.12031300  1
  Ti  Ti3  1  0.50000000  0.50000000  0.61873600  1
  Al  Al0  1  0.50000000  0.00000000  0.00902400  1
  Al  Al1  1  0.00000000  0.50000000  0.49853300  1
  Al  Al2  1  0.00000000  0.50000000  0.00902400  1
  Al  Al3  1  0.50000000  0.00000000  0.49853300  1
  Al  Al4  1  0.00000000  0.50000000  0.23998400  1
  Al  Al5  1  0.50000000  0.00000000  0.75274100  1
  Al  Al6  1  0.50000000  0.00000000  0.23998400  1
  Al  Al7  1  0.00000000  0.50000000  0.75274100  1
  Al  Al8  1  0.00000000  0.00000000  0.62515700  1
  Al  Al9  1  0.00000000  0.00000000  0.36667200  1
  Al  Al10  1  0.50000000  0.50000000  0.87873000  1
  Ni  Ni0  1  0.50000000  0.50000000  0.12218900  1
loop_
_geom_bond_atom_site_label_1
_geom_bond_atom_site_label_2
_geom_bond_distance
_geom_bond_site_symmetry_2
Al0 Ti2 2.667462 1_655
Al0 Ti2 2.667462 1_555
Al0 Ni0 2.688482 1_545
Al0 Ni0 2.688482 1_555
Al0 Al2 2.758237 1_655
Al0 Al2 2.758237 1_645
Al0 Al2 2.758237 1_545
Al0 Al2 2.758237 1_555
Al0 Ti1 2.789554 1_554
Al0 Ti1 2.789554 1_654
Al0 Al10 2.888410 1_554
Al0 Al10 2.888410 1_544
Al1 Ti0 2.742898 1_555
Al1 Ti0 2.742898 1_455
Al1 Al3 2.758237 1_555
Al1 Al3 2.758237 1_465
Al1 Al3 2.758237 1_455
Al1 Al3 2.758237 1_565
Al1 Ti3 2.768948 1_555
Al1 Ti3 2.768948 1_455
Al1 Al8 2.844436 1_555
Al1 Al8 2.844436 1_565
Al1 Al9 2.907361 1_555
Al1 Al9 2.907361 1_565
Al2 Ti2 2.667462 1_565
Al2 Ti2 2.667462 1_555
Al2 Ni0 2.688482 1_555
Al2 Ni0 2.688482 1_455
Al2 Ti1 2.789554 1_554
Al2 Ti1 2.789554 1_564
Al3 Ti0 2.742898 1_555
Al3 Ti0 2.742898 1_545
Al3 Ti3 2.768948 1_545
Al3 Ti3 2.768948 1_555
Al3 Al8 2.844436 1_555
Al3 Al8 2.844436 1_655
Al3 Al9 2.907361 1_555
Al3 Al9 2.907361 1_655
Al4 Ni0 2.741139 1_555
Al4 Ni0 2.741139 1_455
Al4 Al6 2.758237 1_555
Al4 Al6 2.758237 1_465
Al4 Al6 2.758237 1_455
Al4 Al6 2.758237 1_565
Al4 Ti2 2.762780 1_555
Al4 Ti2 2.762780 1_565
Al4 Al9 2.845198 1_565
Al4 Al9 2.845198 1_555
Al4 Ti0 3.014869 1_455
Al4 Ti0 3.014869 1_555
Al5 Al7 2.758237 1_555
Al5 Al7 2.758237 1_655
Al5 Al7 2.758237 1_545
Al5 Al7 2.758237 1_645
Al5 Al8 2.855883 1_555
Al5 Al8 2.855883 1_655
Al5 Ti3 2.933454 1_545
Al5 Ti3 2.933454 1_555
Al5 Ti1 2.937193 1_655
Al5 Ti1 2.937193 1_555
Al6 Ni0 2.741139 1_545
Al6 Ni0 2.741139 1_555
Al6 Ti2 2.762780 1_555
Al6 Ti2 2.762780 1_655
Al6 Al9 2.845198 1_655
Al6 Al9 2.845198 1_555
Al6 Ti0 3.014869 1_555
Al6 Ti0 3.014869 1_545
Al7 Al8 2.855883 1_565
Al7 Al8 2.855883 1_555
Al7 Ti3 2.933454 1_455
Al7 Ti3 2.933454 1_555
Al7 Ti1 2.937193 1_565
Al7 Ti1 2.937193 1_555
Al8 Ti3 2.760234 1_455
Al8 Ti3 2.760234 1_545
Al8 Ti3 2.760234 1_555
Al8 Ti3 2.760234 1_445
Al9 Ti0 2.767603 1_455
Al9 Ti0 2.767603 1_555
Al9 Ti0 2.767603 1_545
Al9 Ti0 2.767603 1_445
Al10 Ti1 2.761591 1_555
Al10 Ti1 2.761591 1_565
Al10 Ti1 2.761591 1_655
Al10 Ti1 2.761591 1_665
Al10 Al7 2.836887 1_555
Al10 Al5 2.836887 1_565
Al10 Al5 2.836887 1_555
Al10 Al7 2.836887 1_655
Al10 Al2 2.888410 1_656
Al10 Al2 2.888410 1_556
Ni0 Ti2 2.758407 1_555
Ni0 Ti2 2.758407 1_565
Ni0 Ti2 2.758407 1_655
Ni0 Ti2 2.758407 1_665
