# generated using pymatgen
data_Mg3Si4
_symmetry_space_group_name_H-M   'P 1'
_cell_length_a   9.98646702
_cell_length_b   9.98646702
_cell_length_c   8.47224483
_cell_angle_alpha   87.73349504
_cell_angle_beta   87.73349504
_cell_angle_gamma   18.44850710
_symmetry_Int_Tables_number   1
_chemical_formula_structural   Mg3Si4
_chemical_formula_sum   'Mg6 Si8'
_cell_volume   267.16623535
_cell_formula_units_Z   2
loop_
 _symmetry_equiv_pos_site_id
 _symmetry_equiv_pos_as_xyz
  1  'x, y, z'
loop_
 _atom_site_type_symbol
 _atom_site_label
 _atom_site_symmetry_multiplicity
 _atom_site_fract_x
 _atom_site_fract_y
 _atom_site_fract_z
 _atom_site_occupancy
  Mg  Mg0  1  0.67106900  0.67106900  0.40155000  1
  Mg  Mg1  1  0.64416300  0.64416300  0.91490500  1
  Mg  Mg2  1  0.05448200  0.05448200  0.16771200  1
  Mg  Mg3  1  0.79859800  0.79859800  0.06590100  1
  Mg  Mg4  1  0.05420200  0.05420200  0.68437000  1
  Mg  Mg5  1  0.40783800  0.40783800  0.66509400  1
  Si  Si0  1  0.52229300  0.52229300  0.43196700  1
  Si  Si1  1  0.93227500  0.93227500  0.35566900  1
  Si  Si2  1  0.40971700  0.40971700  0.13176600  1
  Si  Si3  1  0.49571400  0.49571400  0.92538200  1
  Si  Si4  1  0.19566500  0.19566500  0.66667800  1
  Si  Si5  1  0.19056900  0.19056900  0.14507000  1
  Si  Si6  1  0.81766800  0.81766800  0.45904700  1
  Si  Si7  1  0.78245300  0.78245300  0.73816900  1
loop_
_geom_bond_atom_site_label_1
_geom_bond_atom_site_label_2
_geom_bond_distance
_geom_bond_site_symmetry_2
Mg0 Si5 2.713898 1_565
Mg0 Si5 2.713898 1_655
Mg0 Si4 2.816129 1_565
Mg0 Si4 2.816129 1_655
Mg0 Si0 2.934063 1_555
Mg0 Si6 2.950096 1_555
Mg1 Si5 2.710192 1_656
Mg1 Si5 2.710192 1_566
Mg1 Si4 2.800932 1_565
Mg1 Si4 2.800932 1_655
Mg1 Si3 2.924410 1_555
Mg1 Si7 3.057428 1_555
Mg2 Si5 2.682080 1_555
Mg2 Si0 2.804258 1_545
Mg2 Si0 2.804258 1_455
Mg2 Si1 2.834244 1_445
Mg2 Si3 2.882829 1_454
Mg2 Si3 2.882829 1_544
Mg3 Si5 2.726519 1_565
Mg3 Si5 2.726519 1_655
Mg3 Si2 2.787655 1_655
Mg3 Si2 2.787655 1_565
Mg3 Si7 2.807451 1_554
Mg4 Si0 2.763874 1_455
Mg4 Si0 2.763874 1_545
Mg4 Si4 2.786916 1_555
Mg4 Si3 2.805876 1_545
Mg4 Si3 2.805876 1_455
Mg5 Si3 2.858411 1_555
Mg5 Si0 2.938615 1_555
Mg5 Si7 2.988928 1_545
Mg5 Si7 2.988928 1_455
Mg5 Si6 3.003133 1_545
Mg5 Si6 3.003133 1_455
Mg5 Si1 3.092881 1_545
Mg5 Si1 3.092881 1_455
Si0 Si1 2.494368 1_545
Si0 Si1 2.494368 1_455
Si1 Si6 2.390311 1_555
Si1 Si2 2.535048 1_655
Si1 Si2 2.535048 1_565
Si2 Si3 2.386255 1_554
Si4 Si7 2.437219 1_545
Si4 Si7 2.437219 1_455
Si6 Si7 2.437757 1_555
