# generated using pymatgen
data_Er15Si9C
_symmetry_space_group_name_H-M   'P 1'
_cell_length_a   14.52181414
_cell_length_b   14.52181414
_cell_length_c   6.28277600
_cell_angle_alpha   90.00000000
_cell_angle_beta   90.00000000
_cell_angle_gamma   120.00000066
_symmetry_Int_Tables_number   1
_chemical_formula_structural   Er15Si9C
_chemical_formula_sum   'Er30 Si18 C2'
_cell_volume   1147.42406279
_cell_formula_units_Z   2
loop_
 _symmetry_equiv_pos_site_id
 _symmetry_equiv_pos_as_xyz
  1  'x, y, z'
loop_
 _atom_site_type_symbol
 _atom_site_label
 _atom_site_symmetry_multiplicity
 _atom_site_fract_x
 _atom_site_fract_y
 _atom_site_fract_z
 _atom_site_occupancy
  Er  Er0  1  0.99020300  0.32896700  0.49959100  1
  Er  Er1  1  0.67103300  0.66123600  0.49959100  1
  Er  Er2  1  0.33876400  0.00979700  0.49959100  1
  Er  Er3  1  0.67103300  0.00979700  0.49959100  1
  Er  Er4  1  0.33876400  0.32896700  0.49959100  1
  Er  Er5  1  0.99020300  0.66123600  0.49959100  1
  Er  Er6  1  0.00979700  0.67103300  0.99959100  1
  Er  Er7  1  0.32896700  0.33876400  0.99959100  1
  Er  Er8  1  0.66123600  0.99020300  0.99959100  1
  Er  Er9  1  0.32896700  0.99020300  0.99959100  1
  Er  Er10  1  0.66123600  0.67103300  0.99959100  1
  Er  Er11  1  0.00979700  0.33876400  0.99959100  1
  Er  Er12  1  0.58760800  0.41239200  0.21169300  1
  Er  Er13  1  0.58760800  0.17521600  0.21169300  1
  Er  Er14  1  0.82478400  0.41239200  0.21169300  1
  Er  Er15  1  0.41239200  0.58760800  0.71169300  1
  Er  Er16  1  0.41239200  0.82478400  0.71169300  1
  Er  Er17  1  0.17521600  0.58760800  0.71169300  1
  Er  Er18  1  0.74614600  0.25385400  0.76500300  1
  Er  Er19  1  0.74614600  0.49229300  0.76500300  1
  Er  Er20  1  0.50770700  0.25385400  0.76500300  1
  Er  Er21  1  0.25385400  0.74614600  0.26500300  1
  Er  Er22  1  0.25385400  0.50770700  0.26500300  1
  Er  Er23  1  0.49229300  0.74614600  0.26500300  1
  Er  Er24  1  0.91899500  0.08100500  0.24273700  1
  Er  Er25  1  0.91899500  0.83799000  0.24273700  1
  Er  Er26  1  0.16201000  0.08100500  0.24273700  1
  Er  Er27  1  0.08100500  0.91899500  0.74273700  1
  Er  Er28  1  0.08100500  0.16201000  0.74273700  1
  Er  Er29  1  0.83799000  0.91899500  0.74273700  1
  Si  Si0  1  0.86787000  0.13213000  0.76568300  1
  Si  Si1  1  0.86787000  0.73573900  0.76568300  1
  Si  Si2  1  0.26426100  0.13213000  0.76568300  1
  Si  Si3  1  0.13213000  0.86787000  0.26568300  1
  Si  Si4  1  0.13213000  0.26426100  0.26568300  1
  Si  Si5  1  0.73573900  0.86787000  0.26568300  1
  Si  Si6  1  0.53312200  0.46687800  0.76014800  1
  Si  Si7  1  0.53312200  0.06624300  0.76014800  1
  Si  Si8  1  0.93375700  0.46687800  0.76014800  1
  Si  Si9  1  0.46687800  0.53312200  0.26014800  1
  Si  Si10  1  0.46687800  0.93375700  0.26014800  1
  Si  Si11  1  0.06624300  0.53312200  0.26014800  1
  Si  Si12  1  0.80032500  0.19967500  0.22711700  1
  Si  Si13  1  0.80032500  0.60064900  0.22711700  1
  Si  Si14  1  0.39935100  0.19967500  0.22711700  1
  Si  Si15  1  0.19967500  0.80032500  0.72711700  1
  Si  Si16  1  0.19967500  0.39935100  0.72711700  1
  Si  Si17  1  0.60064900  0.80032500  0.72711700  1
  C  C0  1  0.66666700  0.33333300  0.98631200  1
  C  C1  1  0.33333300  0.66666700  0.48631200  1
loop_
_geom_bond_atom_site_label_1
_geom_bond_atom_site_label_2
_geom_bond_distance
_geom_bond_site_symmetry_2
Er0 Si12 2.980231 1_555
Er0 Si11 2.999696 1_655
Er0 Si8 3.000708 1_555
Er0 Si0 3.007237 1_555
Er0 Si4 3.037625 1_655
Er0 Si16 3.038460 1_655
Er1 Si13 2.980240 1_555
Er1 Si9 2.999694 1_555
Er1 Si6 3.000717 1_555
Er1 Si1 3.007239 1_555
Er1 Si5 3.037637 1_555
Er1 Si17 3.038472 1_555
Er2 Si14 2.980229 1_555
Er2 Si10 2.999684 1_545
Er2 Si7 3.000720 1_555
Er2 Si2 3.007228 1_555
Er2 Si3 3.037634 1_545
Er2 Si15 3.038462 1_545
Er3 Si12 2.980231 1_555
Er3 Si10 2.999696 1_545
Er3 Si7 3.000708 1_555
Er3 Si0 3.007237 1_555
Er3 Si5 3.037625 1_545
Er3 Si17 3.038460 1_545
Er4 Si14 2.980240 1_555
Er4 Si9 2.999694 1_555
Er4 Si6 3.000717 1_555
Er4 Si2 3.007239 1_555
Er4 Si4 3.037637 1_555
Er4 Si16 3.038472 1_555
Er5 Si13 2.980229 1_555
Er5 Si11 2.999684 1_655
Er5 Si8 3.000720 1_555
Er5 Si1 3.007228 1_555
Er5 Si3 3.037634 1_655
Er5 Si15 3.038462 1_655
Er6 Si15 2.980231 1_555
Er6 Si8 2.999696 1_455
Er6 Si11 3.000708 1_556
Er6 Si3 3.007237 1_556
Er6 Si1 3.037625 1_455
Er6 Si13 3.038460 1_456
Er7 Si16 2.980240 1_555
Er7 Si6 2.999694 1_555
Er7 Si9 3.000717 1_556
Er7 Si4 3.007239 1_556
Er7 Si2 3.037637 1_555
Er7 Si14 3.038472 1_556
Er8 Si17 2.980229 1_555
Er8 Si7 2.999684 1_565
Er8 Si10 3.000720 1_556
Er8 Si5 3.007228 1_556
Er8 Si0 3.037634 1_565
Er8 Si12 3.038462 1_566
Er9 Si15 2.980231 1_555
Er9 Si7 2.999696 1_565
Er9 Si10 3.000708 1_556
Er9 Si3 3.007237 1_556
Er9 Si2 3.037625 1_565
Er9 Si14 3.038460 1_566
Er10 Si17 2.980240 1_555
Er10 Si6 2.999694 1_555
Er10 Si9 3.000717 1_556
Er10 Si5 3.007239 1_556
Er10 Si1 3.037637 1_555
Er10 Si13 3.038472 1_556
Er11 Si16 2.980229 1_555
Er11 Si8 2.999684 1_455
Er11 Si11 3.000720 1_556
Er11 Si4 3.007228 1_556
Er11 Si0 3.037634 1_455
Er11 Si12 3.038462 1_456
Er12 Si13 2.929244 1_555
Er12 Si14 2.929244 1_555
Er12 Si9 3.051886 1_555
Er12 Si6 3.150632 1_554
Er13 Si14 2.929236 1_555
Er13 Si12 2.929250 1_555
Er13 Si10 3.051873 1_545
Er13 Si7 3.150637 1_554
Er14 Si13 2.929236 1_555
Er14 Si12 2.929250 1_555
Er14 Si11 3.051873 1_655
Er14 Si8 3.150637 1_554
Er15 Si17 2.929244 1_555
Er15 Si16 2.929244 1_555
Er15 Si6 3.051886 1_555
Er15 Si9 3.150632 1_555
Er16 Si17 2.929236 1_555
Er16 Si15 2.929250 1_555
Er16 Si7 3.051873 1_565
Er16 Si10 3.150637 1_555
Er17 Si16 2.929236 1_555
Er17 Si15 2.929250 1_555
Er17 Si8 3.051873 1_455
Er17 Si11 3.150637 1_555
Er18 Si7 2.926637 1_555
Er18 Si8 2.926637 1_555
Er18 Si0 3.061668 1_555
Er18 Si12 3.207265 1_556
Er18 Si12 3.643833 1_555
Er19 Si6 2.926625 1_555
Er19 Si8 2.926654 1_555
Er19 Si1 3.061643 1_555
Er19 Si13 3.207254 1_556
Er19 Si13 3.643823 1_555
Er20 Si6 2.926625 1_555
Er20 Si7 2.926654 1_555
Er20 Si2 3.061643 1_555
Er20 Si14 3.207254 1_556
Er20 Si14 3.643823 1_555
Er21 Si11 2.926637 1_555
Er21 Si10 2.926637 1_555
Er21 Si3 3.061668 1_555
Er21 Si15 3.207265 1_555
Er21 Si15 3.643833 1_554
Er22 Si9 2.926625 1_555
Er22 Si11 2.926654 1_555
Er22 Si4 3.061643 1_555
Er22 Si16 3.207254 1_555
Er22 Si16 3.643823 1_554
Er23 Si9 2.926625 1_555
Er23 Si10 2.926654 1_555
Er23 Si5 3.061643 1_555
Er23 Si17 3.207254 1_555
Er23 Si17 3.643823 1_554
Er24 Si4 2.906162 1_655
Er24 Si5 2.906162 1_545
Er24 Si12 2.986462 1_555
Er24 Si0 3.261433 1_554
Er24 Si0 3.528236 1_555
Er25 Si3 2.906157 1_655
Er25 Si5 2.906171 1_555
Er25 Si13 2.986475 1_555
Er25 Si1 3.261438 1_554
Er25 Si1 3.528241 1_555
Er26 Si3 2.906157 1_545
Er26 Si4 2.906171 1_555
Er26 Si14 2.986475 1_555
Er26 Si2 3.261438 1_554
Er26 Si2 3.528241 1_555
Er27 Si2 2.906162 1_565
Er27 Si1 2.906162 1_455
Er27 Si15 2.986462 1_555
Er27 Si3 3.261433 1_555
Er27 Si3 3.528236 1_556
Er28 Si0 2.906157 1_455
Er28 Si2 2.906171 1_555
Er28 Si16 2.986475 1_555
Er28 Si4 3.261438 1_555
Er28 Si4 3.528241 1_556
Er29 Si0 2.906157 1_565
Er29 Si1 2.906171 1_555
Er29 Si17 2.986475 1_555
Er29 Si5 3.261438 1_555
Er29 Si5 3.528241 1_556
C0 Er18 2.435097 1_555
C0 Er19 2.435118 1_555
C0 Er20 2.435118 1_555
C0 Er14 2.441172 1_556
C0 Er13 2.441172 1_556
C0 Er12 2.441182 1_556
C1 Er21 2.435097 1_555
C1 Er22 2.435118 1_555
C1 Er23 2.435118 1_555
C1 Er16 2.441172 1_555
C1 Er17 2.441172 1_555
C1 Er15 2.441182 1_555
