# generated using pymatgen
data_Mg16Al12Ir
_symmetry_space_group_name_H-M   'P 1'
_cell_length_a   9.28386268
_cell_length_b   8.97774117
_cell_length_c   8.97774186
_cell_angle_alpha   108.77022643
_cell_angle_beta   110.16343696
_cell_angle_gamma   110.16344331
_symmetry_Int_Tables_number   1
_chemical_formula_structural   Mg16Al12Ir
_chemical_formula_sum   'Mg16 Al12 Ir1'
_cell_volume   571.03050469
_cell_formula_units_Z   1
loop_
 _symmetry_equiv_pos_site_id
 _symmetry_equiv_pos_as_xyz
  1  'x, y, z'
loop_
 _atom_site_type_symbol
 _atom_site_label
 _atom_site_symmetry_multiplicity
 _atom_site_fract_x
 _atom_site_fract_y
 _atom_site_fract_z
 _atom_site_occupancy
  Mg  Mg0  1  0.98447600  0.00000100  0.99999900  1
  Mg  Mg1  1  0.31840100  0.58892600  0.00000000  1
  Mg  Mg2  1  0.00297500  0.35606700  0.00000000  1
  Mg  Mg3  1  0.56286400  0.24804800  0.00000000  1
  Mg  Mg4  1  0.56286400  0.00000000  0.24804800  1
  Mg  Mg5  1  0.68123500  0.67101200  0.27257300  1
  Mg  Mg6  1  0.01022400  0.60156200  0.32898900  1
  Mg  Mg7  1  0.00297500  0.00000100  0.35606700  1
  Mg  Mg8  1  0.40866200  0.72742700  0.39843900  1
  Mg  Mg9  1  0.72947600  0.41107500  0.41107500  1
  Mg  Mg10  1  0.31840100  0.00000000  0.58892600  1
  Mg  Mg11  1  0.01022400  0.32898900  0.60156200  1
  Mg  Mg12  1  0.64690500  0.64393300  0.64393300  1
  Mg  Mg13  1  0.68123500  0.27257300  0.67101100  1
  Mg  Mg14  1  0.40866200  0.39843900  0.72742800  1
  Mg  Mg15  1  0.31481700  0.75195200  0.75195200  1
  Al  Al0  1  0.65436200  0.80805300  0.00000000  1
  Al  Al1  1  0.81188500  0.60747300  0.00000100  1
  Al  Al2  1  0.18338100  0.81795400  0.17838900  1
  Al  Al3  1  0.36542900  0.36043500  0.18204500  1
  Al  Al4  1  0.84630800  0.19194700  0.19194700  1
  Al  Al5  1  0.36542900  0.18204500  0.36043500  1
  Al  Al6  1  0.20441200  0.39252800  0.39252800  1
  Al  Al7  1  0.81188500  0.00000000  0.60747300  1
  Al  Al8  1  0.00499300  0.82161000  0.63956500  1
  Al  Al9  1  0.65436200  0.00000000  0.80805300  1
  Al  Al10  1  0.18338200  0.17838800  0.81795400  1
  Al  Al11  1  0.00499200  0.63956500  0.82161100  1
  Ir  Ir0  1  0.26479300  0.00000100  0.00000000  1
loop_
_geom_bond_atom_site_label_1
_geom_bond_atom_site_label_2
_geom_bond_distance
_geom_bond_site_symmetry_2
Mg0 Mg2 3.141605 1_656
Mg0 Mg12 3.141625 1_545
Mg0 Mg7 3.141626 1_656
Mg1 Mg2 2.953865 1_555
Mg1 Mg4 3.030246 1_565
Mg1 Mg15 3.030247 1_554
Mg1 Mg14 3.053432 1_554
Mg1 Mg5 3.053438 1_555
Mg1 Mg11 3.065385 1_554
Mg1 Mg8 3.065394 1_555
Mg2 Mg6 3.026081 1_555
Mg3 Mg9 3.030253 1_555
Mg3 Mg5 3.302173 1_555
Mg4 Mg9 3.030252 1_555
Mg4 Mg8 3.302173 1_545
Mg5 Mg7 3.026081 1_665
Mg5 Mg9 3.065394 1_555
Mg5 Mg8 3.228556 1_555
Mg5 Mg6 3.228558 1_655
Mg6 Mg9 3.053438 1_455
Mg6 Mg8 3.228550 1_555
Mg10 Mg7 2.953871 1_555
Mg10 Mg3 3.030246 1_556
Mg10 Mg15 3.030247 1_545
Mg10 Mg8 3.053438 1_545
Mg10 Mg13 3.053442 1_555
Mg10 Mg6 3.065385 1_545
Mg10 Mg14 3.065393 1_555
Mg11 Mg7 3.026074 1_555
Mg11 Mg9 3.053438 1_455
Mg11 Mg14 3.228549 1_555
Mg11 Mg13 3.228553 1_455
Mg11 Mg15 3.302169 1_555
Mg12 Mg9 2.953883 1_555
Mg12 Mg8 3.026060 1_555
Mg12 Mg14 3.026067 1_555
Mg13 Mg2 3.026081 1_656
Mg13 Mg9 3.065385 1_555
Mg13 Mg14 3.228561 1_555
Mg13 Mg4 3.302166 1_555
Mg14 Mg3 3.302167 1_556
Mg15 Mg6 3.302169 1_555
Al0 Al1 2.682705 1_555
Al0 Al4 2.801831 1_565
Al0 Al9 2.801831 1_564
Al0 Mg15 2.914429 1_554
Al0 Mg4 2.914435 1_565
Al0 Mg0 2.953184 1_564
Al0 Mg12 3.023323 1_554
Al0 Mg7 3.023336 1_665
Al0 Mg14 3.048346 1_554
Al0 Mg5 3.048348 1_555
Al0 Mg1 3.060766 1_555
Al1 Al2 2.789663 1_655
Al1 Al11 2.789670 1_654
Al1 Mg6 2.921620 1_655
Al1 Mg13 2.921631 1_554
Al1 Mg5 3.067528 1_555
Al1 Mg14 3.067535 1_554
Al1 Mg7 3.211761 1_665
Al1 Mg12 3.211773 1_554
Al1 Mg3 3.257946 1_555
Al1 Mg2 3.316930 1_655
Al1 Mg0 3.330676 1_564
Al2 Al5 2.657300 1_565
Al2 Ir0 2.733989 1_565
Al2 Mg8 2.879974 1_555
Al2 Mg6 3.036806 1_555
Al2 Mg4 3.054181 1_565
Al2 Mg10 3.058232 1_565
Al2 Mg1 3.066855 1_555
Al2 Mg7 3.173646 1_565
Al2 Mg0 3.220612 1_464
Al3 Al5 2.603941 1_555
Al3 Ir0 2.733969 1_555
Al3 Al6 2.789693 1_555
Al3 Mg5 2.879960 1_555
Al3 Mg8 3.036819 1_555
Al3 Mg3 3.054159 1_555
Al3 Mg1 3.058229 1_555
Al3 Mg9 3.066848 1_555
Al3 Mg2 3.173656 1_555
Al3 Mg0 3.220606 1_454
Al4 Al6 2.682712 1_655
Al4 Al9 2.801831 1_554
Al4 Mg4 2.914428 1_555
Al4 Mg3 2.914429 1_555
Al4 Mg0 2.953185 1_554
Al4 Mg7 3.023334 1_655
Al4 Mg2 3.023342 1_655
Al4 Mg6 3.048353 1_655
Al4 Mg11 3.048354 1_655
Al4 Mg9 3.060761 1_555
Al5 Ir0 2.733976 1_555
Al5 Al6 2.789693 1_555
Al5 Mg13 2.879955 1_555
Al5 Mg14 3.036826 1_555
Al5 Mg4 3.054159 1_555
Al5 Mg10 3.058229 1_555
Al5 Mg9 3.066847 1_555
Al5 Mg7 3.173654 1_555
Al5 Mg0 3.220618 1_454
Al6 Mg8 2.921620 1_555
Al6 Mg14 2.921627 1_555
Al6 Mg11 3.067529 1_555
Al6 Mg6 3.067529 1_555
Al6 Mg7 3.211756 1_555
Al6 Mg2 3.211764 1_555
Al6 Mg15 3.257937 1_555
Al6 Mg12 3.316908 1_555
Al6 Mg0 3.330668 1_454
Al7 Al9 2.682705 1_555
Al7 Al8 2.789677 1_645
Al7 Mg5 2.921622 1_545
Al7 Mg11 2.921627 1_655
Al7 Mg13 3.067535 1_555
Al7 Mg8 3.067535 1_545
Al7 Mg2 3.211760 1_656
Al7 Mg12 3.211765 1_545
Al7 Mg4 3.257951 1_555
Al7 Mg7 3.316930 1_655
Al7 Mg0 3.330647 1_555
Al8 Ir0 2.733979 1_566
Al8 Mg6 2.879960 1_555
Al8 Mg5 3.036815 1_455
Al8 Mg15 3.054175 1_555
Al8 Mg9 3.058219 1_455
Al8 Mg10 3.066849 1_565
Al8 Mg12 3.173672 1_455
Al8 Mg0 3.220601 1_465
Al9 Mg15 2.914428 1_545
Al9 Mg3 2.914435 1_556
Al9 Mg0 2.953171 1_555
Al9 Mg12 3.023323 1_545
Al9 Mg2 3.023337 1_656
Al9 Mg8 3.048348 1_545
Al9 Mg13 3.048354 1_555
Al9 Mg10 3.060766 1_555
Al10 Al8 2.603926 1_545
Al10 Al3 2.657300 1_556
Al10 Ir0 2.733965 1_556
Al10 Al7 2.789670 1_455
Al10 Mg14 2.879967 1_555
Al10 Mg11 3.036818 1_555
Al10 Mg3 3.054169 1_556
Al10 Mg1 3.058241 1_556
Al10 Mg10 3.066843 1_555
Al10 Mg2 3.173654 1_556
Al10 Mg0 3.220589 1_455
Al11 Al2 2.603926 1_556
Al11 Al8 2.657300 1_555
Al11 Ir0 2.733989 1_566
Al11 Mg11 2.879969 1_555
Al11 Mg13 3.036805 1_455
Al11 Mg15 3.054189 1_555
Al11 Mg9 3.058223 1_455
Al11 Mg1 3.066855 1_556
Al11 Mg12 3.173665 1_455
Al11 Mg0 3.220606 1_465
Ir0 Mg0 2.602421 1_454
Ir0 Mg3 2.892822 1_555
Ir0 Mg4 2.892831 1_555
Ir0 Mg15 2.892838 1_544
