# generated using pymatgen
data_TiZnSiO5
_symmetry_space_group_name_H-M   'P 1'
_cell_length_a   5.44837300
_cell_length_b   5.44768082
_cell_length_c   7.38560699
_cell_angle_alpha   106.76176667
_cell_angle_beta   107.08822095
_cell_angle_gamma   96.98675162
_symmetry_Int_Tables_number   1
_chemical_formula_structural   TiZnSiO5
_chemical_formula_sum   'Ti2 Zn2 Si2 O10'
_cell_volume   195.46462568
_cell_formula_units_Z   2
loop_
 _symmetry_equiv_pos_site_id
 _symmetry_equiv_pos_as_xyz
  1  'x, y, z'
loop_
 _atom_site_type_symbol
 _atom_site_label
 _atom_site_symmetry_multiplicity
 _atom_site_fract_x
 _atom_site_fract_y
 _atom_site_fract_z
 _atom_site_occupancy
  Ti  Ti0  1  0.00910200  0.49467800  0.50895200  1
  Ti  Ti1  1  0.99154200  0.50872900  0.00976500  1
  Zn  Zn0  1  0.82233200  0.91510700  0.35521800  1
  Zn  Zn1  1  0.41687000  0.33665400  0.86274700  1
  Si  Si0  1  0.32374600  0.13355500  0.23212600  1
  Si  Si1  1  0.63543900  0.82793400  0.72721700  1
  O  O0  1  0.26106800  0.30391500  0.07791500  1
  O  O1  1  0.13228900  0.18649900  0.36922800  1
  O  O2  1  0.69195500  0.64490200  0.87182000  1
  O  O3  1  0.81730500  0.77415800  0.58225700  1
  O  O4  1  0.32513300  0.73133100  0.58289000  1
  O  O5  1  0.69312100  0.14163600  0.85755300  1
  O  O6  1  0.63703600  0.20265900  0.36646500  1
  O  O7  1  0.24322300  0.81922600  0.09819900  1
  O  O8  1  0.07582200  0.40684600  0.73544200  1
  O  O9  1  0.88855400  0.57118700  0.22917900  1
loop_
_geom_bond_atom_site_label_1
_geom_bond_atom_site_label_2
_geom_bond_distance
_geom_bond_site_symmetry_2
O0 Si0 1.653273 1_555
O0 Ti1 1.985659 1_455
O0 Zn1 2.048705 1_554
O1 Si0 1.649884 1_555
O1 Ti0 2.003957 1_555
O1 Zn0 2.061581 1_445
O2 Si1 1.650832 1_555
O2 Ti1 2.001438 1_556
O2 Zn1 2.081926 1_555
O3 Si1 1.651374 1_555
O3 Ti0 1.986773 1_655
O3 Zn0 2.041218 1_555
O4 Si1 1.634752 1_555
O4 Ti0 1.851044 1_555
O5 Si1 1.639695 1_545
O5 Zn1 1.948070 1_555
O5 Ti1 2.178228 1_556
O6 Si0 1.634827 1_555
O6 Zn0 1.959332 1_545
O6 Ti0 2.178000 1_655
O7 Si0 1.639611 1_565
O7 Ti1 1.854782 1_455
O8 Ti0 1.818197 1_555
O8 Zn1 1.958692 1_555
O8 Ti1 2.141005 1_456
O9 Ti1 1.821939 1_555
O9 Zn0 1.965412 1_555
O9 Ti0 2.154167 1_655
