# generated using pymatgen
data_Sr3Nd4O9
_symmetry_space_group_name_H-M   'P 1'
_cell_length_a   8.66798673
_cell_length_b   7.11088553
_cell_length_c   10.05594214
_cell_angle_alpha   99.70118715
_cell_angle_beta   96.86020666
_cell_angle_gamma   107.92844304
_symmetry_Int_Tables_number   1
_chemical_formula_structural   Sr3Nd4O9
_chemical_formula_sum   'Sr6 Nd8 O18'
_cell_volume   571.50718637
_cell_formula_units_Z   2
loop_
 _symmetry_equiv_pos_site_id
 _symmetry_equiv_pos_as_xyz
  1  'x, y, z'
loop_
 _atom_site_type_symbol
 _atom_site_label
 _atom_site_symmetry_multiplicity
 _atom_site_fract_x
 _atom_site_fract_y
 _atom_site_fract_z
 _atom_site_occupancy
  Sr  Sr0  1  0.26397800  0.74345800  0.02119200  1
  Sr  Sr1  1  0.26702700  0.34309800  0.61088600  1
  Sr  Sr2  1  0.40769500  0.35818200  0.93430100  1
  Sr  Sr3  1  0.87537500  0.00780400  0.56482100  1
  Sr  Sr4  1  0.63817400  0.08458300  0.11997900  1
  Sr  Sr5  1  0.97407600  0.40693700  0.33212600  1
  Nd  Nd0  1  0.84841300  0.43572800  0.92628300  1
  Nd  Nd1  1  0.02431900  0.04725100  0.96615400  1
  Nd  Nd2  1  0.45493600  0.89763500  0.39818000  1
  Nd  Nd3  1  0.41844600  0.40884400  0.28963600  1
  Nd  Nd4  1  0.61220400  0.79203400  0.74881900  1
  Nd  Nd5  1  0.13064000  0.76081600  0.64789400  1
  Nd  Nd6  1  0.84127900  0.78860600  0.23259900  1
  Nd  Nd7  1  0.69695900  0.37844500  0.56857500  1
  O  O0  1  0.89620700  0.76609900  0.74324000  1
  O  O1  1  0.01209100  0.80042500  0.42870800  1
  O  O2  1  0.27040200  0.56555700  0.41832000  1
  O  O3  1  0.98034600  0.39263100  0.58857600  1
  O  O4  1  0.34311000  0.68126200  0.78715400  1
  O  O5  1  0.10710900  0.39118500  0.97351000  1
  O  O6  1  0.60468900  0.01222800  0.61156100  1
  O  O7  1  0.49366500  0.71201000  0.17467300  1
  O  O8  1  0.41173700  0.20437300  0.44449200  1
  O  O9  1  0.19752800  0.09424400  0.75335700  1
  O  O10  1  0.35107800  0.13066900  0.09238400  1
  O  O11  1  0.64337500  0.62000300  0.45729900  1
  O  O12  1  0.60253100  0.45088700  0.77551300  1
  O  O13  1  0.99350600  0.74864000  0.05736600  1
  O  O14  1  0.73153000  0.44035600  0.12106800  1
  O  O15  1  0.75816800  0.07083900  0.91024000  1
  O  O16  1  0.71260700  0.11204700  0.36986000  1
  O  O17  1  0.93739600  0.09852100  0.17723200  1
loop_
_geom_bond_atom_site_label_1
_geom_bond_atom_site_label_2
_geom_bond_distance
_geom_bond_site_symmetry_2
Nd0 O13 2.272196 1_556
Nd0 O14 2.310219 1_556
Nd0 O5 2.363824 1_655
Nd0 O15 2.439161 1_555
Nd0 O12 2.505455 1_555
Nd0 O0 3.181020 1_555
Nd1 O5 2.312489 1_555
Nd1 O17 2.344429 1_456
Nd1 O15 2.372052 1_455
Nd1 O13 2.405653 1_446
Nd1 O0 2.604434 1_445
Nd1 O9 2.764864 1_555
Nd1 O10 2.799696 1_556
Nd2 O6 2.246622 1_565
Nd2 O8 2.305816 1_565
Nd2 O16 2.365574 1_565
Nd2 O2 2.467543 1_555
Nd2 O7 2.521863 1_555
Nd2 O11 3.011267 1_555
Nd3 O8 2.296736 1_555
Nd3 O2 2.313907 1_555
Nd3 O11 2.336161 1_555
Nd3 O10 2.424472 1_555
Nd3 O7 2.561953 1_555
Nd4 O15 2.246483 1_565
Nd4 O6 2.265100 1_565
Nd4 O4 2.322850 1_555
Nd4 O12 2.462414 1_555
Nd4 O0 2.531068 1_555
Nd4 O11 3.057337 1_555
Nd5 O9 2.289482 1_565
Nd5 O0 2.355903 1_455
Nd5 O1 2.416555 1_555
Nd5 O4 2.442375 1_555
Nd5 O3 2.468947 1_455
Nd5 O2 3.057521 1_555
Nd6 O17 2.292307 1_565
Nd6 O1 2.293088 1_655
Nd6 O13 2.354680 1_555
Nd6 O14 2.377809 1_555
Nd6 O7 2.859759 1_555
Nd6 O16 3.052226 1_565
Nd6 O11 3.171521 1_555
Nd7 O11 2.330903 1_555
Nd7 O12 2.360273 1_555
Nd7 O3 2.409790 1_555
Nd7 O8 2.461672 1_555
Nd7 O16 2.558736 1_555
Nd7 O6 2.605321 1_555
Nd7 O0 2.894652 1_555
O0 Sr3 2.712685 1_565
O1 Sr3 2.497105 1_465
O1 Sr5 2.705731 1_455
O2 Sr5 2.444577 1_455
O2 Sr1 2.696363 1_555
O3 Sr3 2.562818 1_555
O3 Sr5 2.592699 1_555
O3 Sr1 2.604163 1_655
O4 Sr0 2.535060 1_556
O4 Sr1 2.582066 1_555
O4 Sr2 3.085530 1_555
O5 Sr0 2.386659 1_556
O5 Sr2 2.754944 1_555
O6 Sr3 2.455800 1_555
O7 Sr0 2.460123 1_555
O7 Sr4 2.739161 1_565
O7 Sr2 3.015652 1_554
O8 Sr1 2.460314 1_555
O9 Sr1 2.439501 1_555
O9 Sr2 2.470670 1_555
O9 Sr3 3.009263 1_455
O10 Sr2 2.439171 1_554
O10 Sr0 2.567204 1_545
O10 Sr4 2.597117 1_555
O11 Sr3 2.806968 1_565
O12 Sr2 2.479907 1_555
O12 Sr1 2.972426 1_555
O13 Sr0 2.425391 1_655
O14 Sr4 2.404853 1_555
O14 Sr5 2.897003 1_555
O14 Sr2 3.018098 1_554
O15 Sr4 2.461088 1_556
O16 Sr4 2.477550 1_555
O16 Sr3 2.618492 1_555
O16 Sr5 2.688011 1_555
O17 Sr5 2.374469 1_555
O17 Sr4 2.556189 1_555
