# generated using pymatgen
data_MgVCr2Fe3(PO4)6
_symmetry_space_group_name_H-M   'P 1'
_cell_length_a   8.99670042
_cell_length_b   8.74202842
_cell_length_c   8.73878726
_cell_angle_alpha   59.54242470
_cell_angle_beta   58.45942287
_cell_angle_gamma   58.44842439
_symmetry_Int_Tables_number   1
_chemical_formula_structural   MgVCr2Fe3(PO4)6
_chemical_formula_sum   'Mg1 V1 Cr2 Fe3 P6 O24'
_cell_volume   472.74485078
_cell_formula_units_Z   1
loop_
 _symmetry_equiv_pos_site_id
 _symmetry_equiv_pos_as_xyz
  1  'x, y, z'
loop_
 _atom_site_type_symbol
 _atom_site_label
 _atom_site_symmetry_multiplicity
 _atom_site_fract_x
 _atom_site_fract_y
 _atom_site_fract_z
 _atom_site_occupancy
  Mg  Mg0  1  0.12369900  0.62574200  0.63089600  1
  V  V0  1  0.56997300  0.14269000  0.14388600  1
  Cr  Cr0  1  0.00227500  0.99748800  0.99666400  1
  Cr  Cr1  1  0.52608700  0.49448700  0.49139600  1
  Fe  Fe0  1  0.75873700  0.74885700  0.74366300  1
  Fe  Fe1  1  0.41314300  0.86006600  0.86383400  1
  Fe  Fe2  1  0.95903700  0.34690900  0.34808400  1
  P  P0  1  0.25618900  0.24397100  0.54201000  1
  P  P1  1  0.27725300  0.94678100  0.24958900  1
  P  P2  1  0.26402900  0.53619000  0.95579300  1
  P  P3  1  0.76405600  0.44207800  0.04622800  1
  P  P4  1  0.75008900  0.05545100  0.74348600  1
  P  P5  1  0.77217000  0.74665600  0.43644000  1
  O  O0  1  0.09666200  0.09466900  0.32931600  1
  O  O1  1  0.08871600  0.48869400  0.09825200  1
  O  O2  1  0.08732300  0.31348100  0.49240200  1
  O  O3  1  0.22921500  0.08141000  0.73975200  1
  O  O4  1  0.44084200  0.16111100  0.38799900  1
  O  O5  1  0.28613000  0.39398400  0.55221600  1
  O  O6  1  0.25624500  0.93869000  0.08869700  1
  O  O7  1  0.31281000  0.74831400  0.40082200  1
  O  O8  1  0.59011800  0.60997400  0.99583100  1
  O  O9  1  0.30809800  0.54412600  0.75637700  1
  O  O10  1  0.77497300  0.25188700  0.05851000  1
  O  O11  1  0.58177400  0.00707900  0.79488000  1
  O  O12  1  0.44969300  0.00036500  0.17348000  1
  O  O13  1  0.23111000  0.73364200  0.95195600  1
  O  O14  1  0.74926500  0.42778700  0.23635500  1
  O  O15  1  0.43750300  0.38636100  0.01435600  1
  O  O16  1  0.74255700  0.24571600  0.58020400  1
  O  O17  1  0.75059500  0.07640900  0.90908500  1
  O  O18  1  0.76699800  0.58496600  0.41807800  1
  O  O19  1  0.59365500  0.80329500  0.60751200  1
  O  O20  1  0.77726200  0.91371200  0.24417900  1
  O  O21  1  0.93630900  0.70158400  0.48479700  1
  O  O22  1  0.93289800  0.49355100  0.87626000  1
  O  O23  1  0.92376000  0.88213900  0.69484000  1
loop_
_geom_bond_atom_site_label_1
_geom_bond_atom_site_label_2
_geom_bond_distance
_geom_bond_site_symmetry_2
Mg0 O5 1.993904 1_555
Mg0 O7 2.056755 1_555
Mg0 O9 2.082069 1_555
Mg0 O23 2.137901 1_455
Mg0 O22 2.143096 1_455
Mg0 O21 2.266226 1_455
Cr0 O20 2.162768 1_456
Cr0 O10 2.173179 1_466
Cr0 O13 2.194036 1_555
Cr0 O3 2.202138 1_565
Cr0 O17 2.414860 1_465
Cr0 O6 2.531027 1_556
Cr1 O16 2.135982 1_555
Cr1 O7 2.141153 1_555
Cr1 O14 2.179289 1_555
Cr1 O9 2.184836 1_555
Cr1 O18 2.358239 1_555
Cr1 O5 2.454812 1_555
Fe0 O21 2.077575 1_555
Fe0 O11 2.085294 1_565
Fe0 O8 2.085467 1_555
Fe0 O19 2.093534 1_555
Fe0 O23 2.094640 1_555
Fe0 O22 2.096880 1_555
Fe1 O6 1.943776 1_556
Fe1 O3 2.014275 1_565
Fe1 O13 2.051459 1_555
Fe1 O8 2.089812 1_555
Fe1 O19 2.092562 1_555
Fe1 O11 2.148364 1_565
Fe2 O0 1.928537 1_655
Fe2 O1 1.941415 1_655
Fe2 O2 1.950441 1_655
Fe2 O18 2.027843 1_555
Fe2 O16 2.130981 1_555
Fe2 O14 2.201464 1_555
O0 P1 1.525526 1_545
O1 P2 1.522159 1_554
O2 P0 1.523518 1_555
O3 P0 1.580224 1_555
O4 P0 1.576616 1_555
O4 V0 1.867091 1_555
O5 P0 1.521098 1_555
O6 P1 1.552544 1_555
O7 P1 1.547910 1_555
O8 P3 1.568135 1_556
O9 P2 1.543445 1_555
O10 P3 1.563586 1_555
O10 V0 2.133148 1_555
O11 P4 1.561938 1_555
O12 P1 1.560058 1_545
O12 V0 1.891023 1_555
O13 P2 1.576412 1_555
O14 P3 1.539312 1_555
O15 P2 1.558842 1_554
O15 V0 1.883961 1_555
O16 P4 1.544110 1_555
O17 P4 1.550596 1_555
O17 V0 1.979430 1_556
O18 P5 1.527245 1_555
O19 P5 1.570272 1_555
O20 P5 1.568336 1_555
O20 V0 2.068241 1_565
O21 P5 1.545842 1_555
O22 P3 1.547043 1_556
O23 P4 1.548599 1_565
