# generated using pymatgen
data_CsBa3
_symmetry_space_group_name_H-M   'P 1'
_cell_length_a   8.20762866
_cell_length_b   8.20762866
_cell_length_c   8.20762866
_cell_angle_alpha   133.40029797
_cell_angle_beta   133.40029797
_cell_angle_gamma   68.02619977
_symmetry_Int_Tables_number   1
_chemical_formula_structural   CsBa3
_chemical_formula_sum   'Cs1 Ba3'
_cell_volume   286.81903306
_cell_formula_units_Z   1
loop_
 _symmetry_equiv_pos_site_id
 _symmetry_equiv_pos_as_xyz
  1  'x, y, z'
loop_
 _atom_site_type_symbol
 _atom_site_label
 _atom_site_symmetry_multiplicity
 _atom_site_fract_x
 _atom_site_fract_y
 _atom_site_fract_z
 _atom_site_occupancy
  Cs  Cs0  1  0.00000000  0.00000000  0.00000000  1
  Ba  Ba0  1  0.75000000  0.25000000  0.50000000  1
  Ba  Ba1  1  0.25000000  0.75000000  0.50000000  1
  Ba  Ba2  1  0.50000000  0.50000000  0.00000000  1
loop_
_geom_bond_atom_site_label_1
_geom_bond_atom_site_label_2
_geom_bond_distance
_geom_bond_site_symmetry_2
Ba0 Ba1 4.591203 1_656
Ba0 Ba1 4.591203 1_544
Ba0 Ba1 4.591203 1_645
Ba0 Ba1 4.591203 1_555
Ba0 Ba2 4.702242 1_545
Ba0 Ba2 4.702242 1_555
Ba0 Ba2 4.702242 1_556
Ba0 Cs0 4.702242 1_555
Ba0 Cs0 4.702242 1_656
Ba0 Cs0 4.702242 1_666
Ba0 Cs0 4.702242 1_655
Ba0 Ba2 4.702242 1_656
Ba1 Ba2 4.702242 1_455
Ba1 Ba2 4.702242 1_555
Ba1 Cs0 4.702242 1_565
Ba1 Ba2 4.702242 1_556
Ba1 Cs0 4.702242 1_566
Ba1 Ba2 4.702242 1_566
Ba1 Cs0 4.702242 1_555
Ba1 Cs0 4.702242 1_666
Ba2 Cs0 4.591203 1_565
Ba2 Cs0 4.591203 1_666
Ba2 Cs0 4.591203 1_655
Ba2 Cs0 4.591203 1_554
