# generated using pymatgen
data_NdCd2Pd
_symmetry_space_group_name_H-M   'P 1'
_cell_length_a   5.47814549
_cell_length_b   5.47814549
_cell_length_c   8.38756061
_cell_angle_alpha   90.00000000
_cell_angle_beta   90.00000000
_cell_angle_gamma   134.11077250
_symmetry_Int_Tables_number   1
_chemical_formula_structural   NdCd2Pd
_chemical_formula_sum   'Nd2 Cd4 Pd2'
_cell_volume   180.72760087
_cell_formula_units_Z   2
loop_
 _symmetry_equiv_pos_site_id
 _symmetry_equiv_pos_as_xyz
  1  'x, y, z'
loop_
 _atom_site_type_symbol
 _atom_site_label
 _atom_site_symmetry_multiplicity
 _atom_site_fract_x
 _atom_site_fract_y
 _atom_site_fract_z
 _atom_site_occupancy
  Nd  Nd0  1  0.93450559  0.06549441  0.25000000  1
  Nd  Nd1  1  0.06549441  0.93450559  0.75000000  1
  Cd  Cd0  1  0.64364994  0.35635006  0.45089386  1
  Cd  Cd1  1  0.35635006  0.64364994  0.54910614  1
  Cd  Cd2  1  0.64364994  0.35635006  0.04910614  1
  Cd  Cd3  1  0.35635006  0.64364994  0.95089386  1
  Pd  Pd0  1  0.22286942  0.77713058  0.25000000  1
  Pd  Pd1  1  0.77713058  0.22286942  0.75000000  1
loop_
_geom_bond_atom_site_label_1
_geom_bond_atom_site_label_2
_geom_bond_distance
_geom_bond_site_symmetry_2
Nd0 Pd0 2.909433 1_645
Nd0 Pd0 3.019982 1_655
Nd0 Pd0 3.019982 1_545
Nd1 Pd1 2.909433 1_465
Nd1 Pd1 3.019982 1_455
Nd1 Pd1 3.019982 1_565
Cd0 Pd0 2.835299 1_545
Cd0 Pd0 2.835299 1_655
Cd0 Pd1 2.847395 1_555
Cd0 Nd0 3.383930 1_555
Cd0 Nd1 3.387706 1_655
Cd0 Nd1 3.387706 1_545
Cd0 Nd0 3.442791 1_565
Cd0 Nd0 3.442791 1_455
Cd1 Pd1 2.835299 1_455
Cd1 Pd1 2.835299 1_565
Cd1 Pd0 2.847395 1_555
Cd1 Nd1 3.383930 1_555
Cd1 Nd0 3.387706 1_565
Cd1 Nd0 3.387706 1_455
Cd1 Nd1 3.442791 1_655
Cd1 Nd1 3.442791 1_545
Cd2 Pd0 2.835299 1_655
Cd2 Pd0 2.835299 1_545
Cd2 Pd1 2.847395 1_554
Cd2 Nd0 3.383930 1_555
Cd2 Nd1 3.387706 1_654
Cd2 Nd1 3.387706 1_544
Cd2 Nd0 3.442791 1_565
Cd2 Nd0 3.442791 1_455
Cd3 Pd1 2.835299 1_455
Cd3 Pd1 2.835299 1_565
Cd3 Pd0 2.847395 1_556
Cd3 Nd1 3.383930 1_555
Cd3 Nd0 3.387706 1_456
Cd3 Nd0 3.387706 1_566
Cd3 Nd1 3.442791 1_655
Cd3 Nd1 3.442791 1_545
