# generated using pymatgen
data_YbFeO3
_symmetry_space_group_name_H-M   'P 1'
_cell_length_a   5.28953600
_cell_length_b   5.40804100
_cell_length_c   7.53636400
_cell_angle_alpha   90.00000000
_cell_angle_beta   90.00000000
_cell_angle_gamma   90.00000000
_symmetry_Int_Tables_number   1
_chemical_formula_structural   YbFeO3
_chemical_formula_sum   'Yb4 Fe4 O12'
_cell_volume   215.58543628
_cell_formula_units_Z   4
loop_
 _symmetry_equiv_pos_site_id
 _symmetry_equiv_pos_as_xyz
  1  'x, y, z'
loop_
 _atom_site_type_symbol
 _atom_site_label
 _atom_site_symmetry_multiplicity
 _atom_site_fract_x
 _atom_site_fract_y
 _atom_site_fract_z
 _atom_site_occupancy
  Yb  Yb0  1  0.01174700  0.94767800  0.75000000  1
  Yb  Yb1  1  0.51174700  0.55232200  0.25000000  1
  Yb  Yb2  1  0.48825300  0.44767800  0.75000000  1
  Yb  Yb3  1  0.98825300  0.05232200  0.25000000  1
  Fe  Fe0  1  0.00000000  0.50000000  0.50000000  1
  Fe  Fe1  1  0.50000000  0.00000000  0.50000000  1
  Fe  Fe2  1  0.50000000  0.00000000  0.00000000  1
  Fe  Fe3  1  0.00000000  0.50000000  0.00000000  1
  O  O0  1  0.70666200  0.29322400  0.45860300  1
  O  O1  1  0.20666200  0.20677600  0.54139700  1
  O  O2  1  0.79333800  0.79322400  0.04139700  1
  O  O3  1  0.29333800  0.70677600  0.95860300  1
  O  O4  1  0.29333800  0.70677600  0.54139700  1
  O  O5  1  0.79333800  0.79322400  0.45860300  1
  O  O6  1  0.20666200  0.20677600  0.95860300  1
  O  O7  1  0.70666200  0.29322400  0.04139700  1
  O  O8  1  0.07903800  0.48167700  0.25000000  1
  O  O9  1  0.57903800  0.01832300  0.75000000  1
  O  O10  1  0.42096200  0.98167700  0.25000000  1
  O  O11  1  0.92096200  0.51832300  0.75000000  1
loop_
_geom_bond_atom_site_label_1
_geom_bond_atom_site_label_2
_geom_bond_distance
_geom_bond_site_symmetry_2
Fe0 O11 1.932461 1_455
Fe0 O8 1.932461 1_555
Fe0 O4 1.937874 1_555
Fe0 O0 1.937874 1_455
Fe0 O1 1.951143 1_555
Fe0 O5 1.951143 1_455
Fe1 O9 1.932461 1_555
Fe1 O10 1.932461 1_545
Fe1 O5 1.937874 1_545
Fe1 O1 1.937874 1_555
Fe1 O0 1.951143 1_555
Fe1 O4 1.951143 1_545
Fe2 O9 1.932461 1_554
Fe2 O10 1.932461 1_545
Fe2 O2 1.937874 1_545
Fe2 O6 1.937874 1_554
Fe2 O7 1.951143 1_555
Fe2 O3 1.951143 1_544
Fe3 O11 1.932461 1_454
Fe3 O8 1.932461 1_555
Fe3 O3 1.937874 1_554
Fe3 O7 1.937874 1_455
Fe3 O2 1.951143 1_455
Fe3 O6 1.951143 1_554
O0 Yb1 2.344761 1_555
O0 Yb3 2.527331 1_555
O0 Yb2 2.618231 1_555
O1 Yb0 2.344761 1_545
O1 Yb2 2.527331 1_555
O1 Yb3 2.618231 1_455
O2 Yb3 2.344761 1_565
O2 Yb1 2.527331 1_555
O2 Yb0 2.618231 1_654
O3 Yb2 2.344761 1_555
O3 Yb0 2.527331 1_555
O3 Yb1 2.618231 1_556
O4 Yb2 2.344761 1_555
O4 Yb0 2.527331 1_555
O4 Yb1 2.618231 1_555
O5 Yb3 2.344761 1_565
O5 Yb1 2.527331 1_555
O5 Yb0 2.618231 1_655
O6 Yb0 2.344761 1_545
O6 Yb2 2.527331 1_555
O6 Yb3 2.618231 1_456
O7 Yb1 2.344761 1_555
O7 Yb3 2.527331 1_555
O7 Yb2 2.618231 1_554
O8 Yb1 2.320497 1_555
O8 Yb3 2.371106 1_455
O9 Yb0 2.320497 1_645
O9 Yb2 2.371106 1_555
O10 Yb3 2.320497 1_465
O10 Yb1 2.371106 1_555
O11 Yb2 2.320497 1_555
O11 Yb0 2.371106 1_655
