# generated using pymatgen
data_Li2Fe3SnO8
_symmetry_space_group_name_H-M   'P 1'
_cell_length_a   8.41317466
_cell_length_b   8.41317466
_cell_length_c   8.41317466
_cell_angle_alpha   90.00000000
_cell_angle_beta   90.00000000
_cell_angle_gamma   90.00000000
_symmetry_Int_Tables_number   1
_chemical_formula_structural   Li2Fe3SnO8
_chemical_formula_sum   'Li8 Fe12 Sn4 O32'
_cell_volume   595.49718832
_cell_formula_units_Z   4
loop_
 _symmetry_equiv_pos_site_id
 _symmetry_equiv_pos_as_xyz
  1  'x, y, z'
loop_
 _atom_site_type_symbol
 _atom_site_label
 _atom_site_symmetry_multiplicity
 _atom_site_fract_x
 _atom_site_fract_y
 _atom_site_fract_z
 _atom_site_occupancy
  Li  Li0  1  0.12271048  0.87728952  0.37728952  1
  Li  Li1  1  0.24863596  0.74863596  0.75136404  1
  Li  Li2  1  0.25136404  0.25136404  0.25136404  1
  Li  Li3  1  0.37728952  0.12271048  0.87728952  1
  Li  Li4  1  0.62271048  0.62271048  0.62271048  1
  Li  Li5  1  0.74863596  0.75136404  0.24863596  1
  Li  Li6  1  0.75136404  0.24863596  0.74863596  1
  Li  Li7  1  0.87728952  0.37728952  0.12271048  1
  Fe  Fe0  1  0.11097478  0.62088929  0.12461935  1
  Fe  Fe1  1  0.12088929  0.37538065  0.88902522  1
  Fe  Fe2  1  0.12461935  0.11097478  0.62088929  1
  Fe  Fe3  1  0.37538065  0.88902522  0.12088929  1
  Fe  Fe4  1  0.37911071  0.62461935  0.38902522  1
  Fe  Fe5  1  0.38902522  0.37911071  0.62461935  1
  Fe  Fe6  1  0.61097478  0.87911071  0.87538065  1
  Fe  Fe7  1  0.62088929  0.12461935  0.11097478  1
  Fe  Fe8  1  0.62461935  0.38902522  0.37911071  1
  Fe  Fe9  1  0.87538065  0.61097478  0.87911071  1
  Fe  Fe10  1  0.87911071  0.87538065  0.61097478  1
  Fe  Fe11  1  0.88902522  0.12088929  0.37538065  1
  Sn  Sn0  1  0.00430091  0.49569909  0.50430091  1
  Sn  Sn1  1  0.49569909  0.50430091  0.00430091  1
  Sn  Sn2  1  0.50430091  0.00430091  0.49569909  1
  Sn  Sn3  1  -0.00430091  -0.00430091  -0.00430091  1
  O  O0  1  0.10951156  0.12636386  0.39064927  1
  O  O1  1  0.10935073  0.89048844  0.62636386  1
  O  O2  1  0.11461957  0.61461957  0.88538043  1
  O  O3  1  0.12636386  0.39064927  0.10951156  1
  O  O4  1  0.12717545  0.13666350  0.86324121  1
  O  O5  1  0.14068477  0.35931523  0.64068477  1
  O  O6  1  0.13675879  0.62717545  0.36333650  1
  O  O7  1  0.13666350  0.86324121  0.12717545  1
  O  O8  1  0.36333650  0.13675879  0.62717545  1
  O  O9  1  0.36324121  0.37282455  0.86333650  1
  O  O10  1  0.35931523  0.64068477  0.14068477  1
  O  O11  1  0.37282455  0.86333650  0.36324121  1
  O  O12  1  0.37363614  0.60935073  0.60951156  1
  O  O13  1  0.38538043  0.38538043  0.38538043  1
  O  O14  1  0.39064927  0.10951156  0.12636386  1
  O  O15  1  0.39048844  0.87363614  0.89064927  1
  O  O16  1  0.60951156  0.37363614  0.60935073  1
  O  O17  1  0.60935073  0.60951156  0.37363614  1
  O  O18  1  0.61461957  0.88538043  0.11461957  1
  O  O19  1  0.62636386  0.10935073  0.89048844  1
  O  O20  1  0.62717545  0.36333650  0.13675879  1
  O  O21  1  0.64068477  0.14068477  0.35931523  1
  O  O22  1  0.63675879  0.87282455  0.63666350  1
  O  O23  1  0.63666350  0.63675879  0.87282455  1
  O  O24  1  0.86333650  0.36324121  0.37282455  1
  O  O25  1  0.86324121  0.12717545  0.13666350  1
  O  O26  1  0.85931523  0.85931523  0.85931523  1
  O  O27  1  0.87282455  0.63666350  0.63675879  1
  O  O28  1  0.87363614  0.89064927  0.39048844  1
  O  O29  1  0.88538043  0.11461957  0.61461957  1
  O  O30  1  0.89064927  0.39048844  0.87363614  1
  O  O31  1  0.89048844  0.62636386  0.10935073  1
loop_
_geom_bond_atom_site_label_1
_geom_bond_atom_site_label_2
_geom_bond_distance
_geom_bond_site_symmetry_2
Li0 O1 2.101454 1_555
Li0 O28 2.101454 1_455
Li0 O0 2.101454 1_565
Li0 O7 2.110837 1_555
Li0 O6 2.110837 1_555
Li0 O11 2.110837 1_555
Li1 O2 1.952893 1_555
Li1 O12 1.975709 1_555
Li1 O15 1.975709 1_555
Li1 O1 1.975709 1_555
Li2 O13 1.952893 1_555
Li2 O0 1.975709 1_555
Li2 O3 1.975709 1_555
Li2 O14 1.975709 1_555
Li3 O19 2.101454 1_555
Li3 O15 2.101454 1_545
Li3 O14 2.101454 1_556
Li3 O4 2.110837 1_555
Li3 O9 2.110837 1_555
Li3 O8 2.110837 1_555
Li4 O17 2.101454 1_555
Li4 O12 2.101454 1_555
Li4 O16 2.101454 1_555
Li4 O23 2.110837 1_555
Li4 O27 2.110837 1_555
Li4 O22 2.110837 1_555
Li5 O18 1.952893 1_555
Li5 O17 1.975709 1_555
Li5 O28 1.975709 1_555
Li5 O31 1.975709 1_555
Li6 O29 1.952893 1_555
Li6 O16 1.975709 1_555
Li6 O30 1.975709 1_555
Li6 O19 1.975709 1_555
Li7 O30 2.101454 1_554
Li7 O31 2.101454 1_555
Li7 O3 2.101454 1_655
Li7 O25 2.110837 1_555
Li7 O24 2.110837 1_555
Li7 O20 2.110837 1_555
Fe0 O31 1.860003 1_455
Fe0 O3 1.945528 1_555
Fe0 O2 2.013683 1_554
Fe0 O6 2.020742 1_555
Fe0 O7 2.050484 1_555
Fe0 O10 2.100312 1_555
Fe1 O3 1.860003 1_556
Fe1 O30 1.945528 1_455
Fe1 O2 2.013683 1_555
Fe1 O4 2.020742 1_555
Fe1 O9 2.050484 1_555
Fe1 O5 2.100312 1_555
Fe2 O1 1.860003 1_545
Fe2 O0 1.945528 1_555
Fe2 O29 2.013683 1_455
Fe2 O8 2.020742 1_555
Fe2 O4 2.050484 1_555
Fe2 O5 2.100312 1_555
Fe3 O14 1.860003 1_565
Fe3 O15 1.945528 1_554
Fe3 O18 2.013683 1_555
Fe3 O7 2.020742 1_555
Fe3 O11 2.050484 1_555
Fe3 O10 2.100312 1_555
Fe4 O12 1.860003 1_555
Fe4 O17 1.945528 1_555
Fe4 O13 2.013683 1_555
Fe4 O11 2.020742 1_555
Fe4 O6 2.050484 1_555
Fe4 O10 2.100312 1_555
Fe5 O16 1.860003 1_555
Fe5 O12 1.945528 1_555
Fe5 O13 2.013683 1_555
Fe5 O9 2.020742 1_555
Fe5 O8 2.050484 1_555
Fe5 O5 2.100312 1_555
Fe6 O15 1.860003 1_555
Fe6 O19 1.945528 1_565
Fe6 O18 2.013683 1_556
Fe6 O22 2.020742 1_555
Fe6 O23 2.050484 1_555
Fe6 O26 2.100312 1_555
Fe7 O19 1.860003 1_554
Fe7 O14 1.945528 1_555
Fe7 O18 2.013683 1_545
Fe7 O20 2.020742 1_555
Fe7 O25 2.050484 1_555
Fe7 O21 2.100312 1_555
Fe8 O17 1.860003 1_555
Fe8 O16 1.945528 1_555
Fe8 O13 2.013683 1_555
Fe8 O24 2.020742 1_555
Fe8 O20 2.050484 1_555
Fe8 O21 2.100312 1_555
Fe9 O30 1.860003 1_555
Fe9 O31 1.945528 1_556
Fe9 O2 2.013683 1_655
Fe9 O23 2.020742 1_555
Fe9 O27 2.050484 1_555
Fe9 O26 2.100312 1_555
Fe10 O28 1.860003 1_555
Fe10 O1 1.945528 1_655
Fe10 O29 2.013683 1_565
Fe10 O27 2.020742 1_555
Fe10 O22 2.050484 1_555
Fe10 O26 2.100312 1_555
Fe11 O0 1.860003 1_655
Fe11 O28 1.945528 1_545
Fe11 O29 2.013683 1_555
Fe11 O25 2.020742 1_555
Fe11 O24 2.050484 1_555
Fe11 O21 2.100312 1_555
O4 Sn3 1.967713 1_556
O5 Sn0 1.987392 1_555
O6 Sn0 1.967713 1_555
O7 Sn3 1.967713 1_565
O8 Sn2 1.967713 1_555
O9 Sn1 1.967713 1_556
O10 Sn1 1.987392 1_555
O11 Sn2 1.967713 1_565
O20 Sn1 1.967713 1_555
O21 Sn2 1.987392 1_555
O22 Sn2 1.967713 1_565
O23 Sn1 1.967713 1_556
O24 Sn0 1.967713 1_655
O25 Sn3 1.967713 1_655
O26 Sn3 1.987392 1_666
O27 Sn0 1.967713 1_655
