# generated using pymatgen
data_U4Al
_symmetry_space_group_name_H-M   'P 1'
_cell_length_a   7.19331526
_cell_length_b   7.19331526
_cell_length_c   7.19331526
_cell_angle_alpha   60.00000000
_cell_angle_beta   60.00000000
_cell_angle_gamma   60.00000000
_symmetry_Int_Tables_number   1
_chemical_formula_structural   U4Al
_chemical_formula_sum   'U8 Al2'
_cell_volume   263.19175841
_cell_formula_units_Z   2
loop_
 _symmetry_equiv_pos_site_id
 _symmetry_equiv_pos_as_xyz
  1  'x, y, z'
loop_
 _atom_site_type_symbol
 _atom_site_label
 _atom_site_symmetry_multiplicity
 _atom_site_fract_x
 _atom_site_fract_y
 _atom_site_fract_z
 _atom_site_occupancy
  U  U0  1  0.40903700  0.40903700  0.40903700  1
  U  U1  1  0.40903700  0.40903700  0.77288800  1
  U  U2  1  0.40903700  0.77288800  0.40903700  1
  U  U3  1  0.84096300  0.84096300  0.47711200  1
  U  U4  1  0.84096300  0.84096300  0.84096300  1
  U  U5  1  0.77288800  0.40903700  0.40903700  1
  U  U6  1  0.84096300  0.47711200  0.84096300  1
  U  U7  1  0.47711200  0.84096300  0.84096300  1
  Al  Al0  1  0.00000000  0.00000000  0.00000000  1
  Al  Al1  1  0.25000000  0.25000000  0.25000000  1
loop_
_geom_bond_atom_site_label_1
_geom_bond_atom_site_label_2
_geom_bond_distance
_geom_bond_site_symmetry_2
U0 U2 2.617295 1_555
U0 U1 2.617295 1_555
U0 U5 2.617295 1_555
U1 U5 2.617295 1_555
U1 U2 2.617295 1_555
U2 U5 2.617295 1_555
U3 U7 2.617295 1_555
U3 U6 2.617295 1_555
U3 U4 2.617295 1_555
U4 U6 2.617295 1_555
U4 U7 2.617295 1_555
U6 U7 2.617295 1_555
Al0 U4 2.802224 1_444
Al0 U6 2.802230 1_454
Al0 U7 2.802230 1_544
Al0 U3 2.802230 1_445
Al1 U0 2.802224 1_555
Al1 U5 2.802230 1_455
Al1 U1 2.802230 1_554
Al1 U2 2.802230 1_545
