# generated using pymatgen
data_ErFeRu
_symmetry_space_group_name_H-M   'P 1'
_cell_length_a   5.21663766
_cell_length_b   5.21663766
_cell_length_c   5.21663766
_cell_angle_alpha   120.90799087
_cell_angle_beta   118.18187690
_cell_angle_gamma   90.80601222
_symmetry_Int_Tables_number   1
_chemical_formula_structural   ErFeRu
_chemical_formula_sum   'Er2 Fe2 Ru2'
_cell_volume   100.99162379
_cell_formula_units_Z   2
loop_
 _symmetry_equiv_pos_site_id
 _symmetry_equiv_pos_as_xyz
  1  'x, y, z'
loop_
 _atom_site_type_symbol
 _atom_site_label
 _atom_site_symmetry_multiplicity
 _atom_site_fract_x
 _atom_site_fract_y
 _atom_site_fract_z
 _atom_site_occupancy
  Er  Er0  1  0.37564534  0.12564534  0.25000000  1
  Er  Er1  1  0.62435466  0.87435466  0.75000000  1
  Fe  Fe0  1  0.00000000  0.50000000  0.00000000  1
  Fe  Fe1  1  0.00000000  0.00000000  0.50000000  1
  Ru  Ru0  1  0.50000000  0.50000000  0.00000000  1
  Ru  Ru1  1  0.00000000  0.50000000  0.50000000  1
loop_
_geom_bond_atom_site_label_1
_geom_bond_atom_site_label_2
_geom_bond_distance
_geom_bond_site_symmetry_2
Er0 Fe0 3.037504 1_545
Er0 Fe1 3.037504 1_555
Er0 Ru1 3.042981 1_544
Er0 Ru0 3.042981 1_556
Er0 Ru1 3.042981 1_555
Er0 Ru0 3.042981 1_545
Er0 Ru1 3.052094 1_655
Er0 Ru0 3.052094 1_555
Er0 Fe1 3.108825 1_554
Er0 Fe0 3.108825 1_555
Er0 Fe0 3.108825 1_656
Er0 Fe1 3.108825 1_655
Er0 Er1 3.152256 1_544
Er0 Er1 3.152256 1_555
Er0 Er1 3.251022 1_444
Er0 Er1 3.251022 1_545
Er1 Fe1 3.037504 1_665
Er1 Fe0 3.037504 1_666
Er1 Ru0 3.042981 1_555
Er1 Ru1 3.042981 1_666
Er1 Ru0 3.042981 1_566
Er1 Ru1 3.042981 1_655
Er1 Ru1 3.052094 1_555
Er1 Ru0 3.052094 1_556
Er1 Fe0 3.108825 1_656
Er1 Fe1 3.108825 1_565
Er1 Fe1 3.108825 1_666
Er1 Fe0 3.108825 1_555
Fe0 Fe1 2.572440 1_554
Fe0 Fe1 2.572440 1_565
Fe0 Ru1 2.608319 1_554
Fe0 Ru0 2.608319 1_555
Fe0 Ru1 2.608319 1_555
Fe0 Ru0 2.608319 1_455
Fe1 Ru0 2.608319 1_445
Fe1 Ru1 2.608319 1_545
Fe1 Ru0 2.608319 1_556
Fe1 Ru1 2.608319 1_555
Ru0 Ru1 2.679667 1_655
Ru0 Ru1 2.679667 1_554
