# generated using pymatgen
data_CaSn3O7
_symmetry_space_group_name_H-M   'P 1'
_cell_length_a   5.36997300
_cell_length_b   10.34878900
_cell_length_c   10.80766400
_cell_angle_alpha   90.00000000
_cell_angle_beta   90.00000000
_cell_angle_gamma   90.00000000
_symmetry_Int_Tables_number   1
_chemical_formula_structural   CaSn3O7
_chemical_formula_sum   'Ca4 Sn12 O28'
_cell_volume   600.61125844
_cell_formula_units_Z   4
loop_
 _symmetry_equiv_pos_site_id
 _symmetry_equiv_pos_as_xyz
  1  'x, y, z'
loop_
 _atom_site_type_symbol
 _atom_site_label
 _atom_site_symmetry_multiplicity
 _atom_site_fract_x
 _atom_site_fract_y
 _atom_site_fract_z
 _atom_site_occupancy
  Ca  Ca0  1  0.33249900  0.11887700  0.25000000  1
  Ca  Ca1  1  0.83249900  0.38112300  0.75000000  1
  Ca  Ca2  1  0.66750100  0.88112300  0.75000000  1
  Ca  Ca3  1  0.16750100  0.61887700  0.25000000  1
  Sn  Sn0  1  0.61816100  0.64376500  0.00954800  1
  Sn  Sn1  1  0.11816100  0.85623500  0.99045200  1
  Sn  Sn2  1  0.38183900  0.35623500  0.50954800  1
  Sn  Sn3  1  0.88183900  0.14376500  0.49045200  1
  Sn  Sn4  1  0.67032500  0.84037700  0.25000000  1
  Sn  Sn5  1  0.17032500  0.65962300  0.75000000  1
  Sn  Sn6  1  0.32967500  0.15962300  0.75000000  1
  Sn  Sn7  1  0.82967500  0.34037700  0.25000000  1
  Sn  Sn8  1  0.11816100  0.85623500  0.50954800  1
  Sn  Sn9  1  0.61816100  0.64376500  0.49045200  1
  Sn  Sn10  1  0.88183900  0.14376500  0.00954800  1
  Sn  Sn11  1  0.38183900  0.35623500  0.99045200  1
  O  O0  1  0.10442300  0.25172500  0.88279900  1
  O  O1  1  0.60442300  0.24827500  0.11720100  1
  O  O2  1  0.89557700  0.74827500  0.38279900  1
  O  O3  1  0.39557700  0.75172500  0.61720100  1
  O  O4  1  0.89557700  0.74827500  0.11720100  1
  O  O5  1  0.39557700  0.75172500  0.88279900  1
  O  O6  1  0.10442300  0.25172500  0.61720100  1
  O  O7  1  0.60442300  0.24827500  0.38279900  1
  O  O8  1  0.59000600  0.22581300  0.87711200  1
  O  O9  1  0.09000600  0.27418700  0.12288800  1
  O  O10  1  0.40999400  0.77418700  0.37711200  1
  O  O11  1  0.90999400  0.72581300  0.62288800  1
  O  O12  1  0.40999400  0.77418700  0.12288800  1
  O  O13  1  0.90999400  0.72581300  0.87711200  1
  O  O14  1  0.59000600  0.22581300  0.62288800  1
  O  O15  1  0.09000600  0.27418700  0.37711200  1
  O  O16  1  0.77228700  0.52483200  0.25000000  1
  O  O17  1  0.27228700  0.97516800  0.75000000  1
  O  O18  1  0.22771300  0.47516800  0.75000000  1
  O  O19  1  0.72771300  0.02483200  0.25000000  1
  O  O20  1  0.80433500  0.97278300  0.56732100  1
  O  O21  1  0.30433500  0.52721700  0.43267900  1
  O  O22  1  0.19566500  0.02721700  0.06732100  1
  O  O23  1  0.69566500  0.47278300  0.93267900  1
  O  O24  1  0.19566500  0.02721700  0.43267900  1
  O  O25  1  0.69566500  0.47278300  0.56732100  1
  O  O26  1  0.80433500  0.97278300  0.93267900  1
  O  O27  1  0.30433500  0.52721700  0.06732100  1
loop_
_geom_bond_atom_site_label_1
_geom_bond_atom_site_label_2
_geom_bond_distance
_geom_bond_site_symmetry_2
Ca0 O22 2.310346 1_555
Ca0 O24 2.310346 1_555
Ca0 O19 2.334808 1_555
Ca0 O1 2.446510 1_555
Ca0 O7 2.446510 1_555
Ca0 O9 2.483199 1_555
Ca0 O15 2.483199 1_555
Ca1 O25 2.310346 1_555
Ca1 O23 2.310346 1_555
Ca1 O18 2.334808 1_655
Ca1 O6 2.446510 1_655
Ca1 O0 2.446510 1_655
Ca1 O14 2.483199 1_555
Ca1 O8 2.483199 1_555
Ca2 O26 2.310346 1_555
Ca2 O20 2.310346 1_555
Ca2 O17 2.334808 1_555
Ca2 O5 2.446510 1_555
Ca2 O3 2.446510 1_555
Ca2 O13 2.483199 1_555
Ca2 O11 2.483199 1_555
Ca3 O27 2.310346 1_555
Ca3 O21 2.310346 1_555
Ca3 O16 2.334808 1_455
Ca3 O2 2.446510 1_455
Ca3 O4 2.446510 1_455
Ca3 O12 2.483199 1_555
Ca3 O10 2.483199 1_555
O0 Sn6 2.105123 1_555
O0 Sn10 2.133881 1_456
O0 Sn11 2.177772 1_555
O1 Sn7 2.105123 1_555
O1 Sn11 2.133881 1_554
O1 Sn10 2.177772 1_555
O2 Sn4 2.105123 1_555
O2 Sn8 2.133881 1_655
O2 Sn9 2.177772 1_555
O3 Sn5 2.105123 1_555
O3 Sn9 2.133881 1_555
O3 Sn8 2.177772 1_555
O4 Sn4 2.105123 1_555
O4 Sn1 2.133881 1_654
O4 Sn0 2.177772 1_555
O5 Sn5 2.105123 1_555
O5 Sn0 2.133881 1_556
O5 Sn1 2.177772 1_555
O6 Sn6 2.105123 1_555
O6 Sn3 2.133881 1_455
O6 Sn2 2.177772 1_555
O7 Sn7 2.105123 1_555
O7 Sn2 2.133881 1_555
O7 Sn3 2.177772 1_555
O8 Sn6 2.076249 1_555
O8 Sn11 2.138174 1_555
O8 Sn10 2.285950 1_556
O9 Sn7 2.076249 1_455
O9 Sn10 2.138174 1_455
O9 Sn11 2.285950 1_554
O10 Sn4 2.076249 1_555
O10 Sn9 2.138174 1_555
O10 Sn8 2.285950 1_555
O11 Sn5 2.076249 1_655
O11 Sn8 2.138174 1_655
O11 Sn9 2.285950 1_555
O12 Sn4 2.076249 1_555
O12 Sn0 2.138174 1_555
O12 Sn1 2.285950 1_554
O13 Sn5 2.076249 1_655
O13 Sn1 2.138174 1_655
O13 Sn0 2.285950 1_556
O14 Sn6 2.076249 1_555
O14 Sn2 2.138174 1_555
O14 Sn3 2.285950 1_555
O15 Sn7 2.076249 1_455
O15 Sn3 2.138174 1_455
O15 Sn2 2.285950 1_555
O16 Sn7 1.933602 1_555
O17 Sn6 1.933602 1_565
O18 Sn5 1.933602 1_555
O19 Sn4 1.933602 1_545
O20 Sn3 1.998595 1_565
O20 Sn8 2.164403 1_655
O21 Sn2 1.998595 1_555
O21 Sn9 2.164403 1_555
O22 Sn1 1.998595 1_544
O22 Sn10 2.164403 1_455
O23 Sn0 1.998595 1_556
O23 Sn11 2.164403 1_555
O24 Sn8 1.998595 1_545
O24 Sn3 2.164403 1_455
O25 Sn9 1.998595 1_555
O25 Sn2 2.164403 1_555
O26 Sn10 1.998595 1_566
O26 Sn1 2.164403 1_655
O27 Sn11 1.998595 1_554
O27 Sn0 2.164403 1_555
