# generated using pymatgen
data_Yb(SiAu)2
_symmetry_space_group_name_H-M   'P 1'
_cell_length_a   4.20279045
_cell_length_b   4.20279045
_cell_length_c   5.88761546
_cell_angle_alpha   110.91103263
_cell_angle_beta   110.91103263
_cell_angle_gamma   90.00000000
_symmetry_Int_Tables_number   1
_chemical_formula_structural   Yb(SiAu)2
_chemical_formula_sum   'Yb1 Si2 Au2'
_cell_volume   89.77531614
_cell_formula_units_Z   1
loop_
 _symmetry_equiv_pos_site_id
 _symmetry_equiv_pos_as_xyz
  1  'x, y, z'
loop_
 _atom_site_type_symbol
 _atom_site_label
 _atom_site_symmetry_multiplicity
 _atom_site_fract_x
 _atom_site_fract_y
 _atom_site_fract_z
 _atom_site_occupancy
  Yb  Yb0  1  0.00000000  0.00000000  0.00000000  1
  Si  Si0  1  0.61075633  0.61075633  0.22151265  1
  Si  Si1  1  0.38924467  0.38924467  0.77848935  1
  Au  Au0  1  0.25000000  0.75000000  0.50000000  1
  Au  Au1  1  0.75000000  0.25000000  0.50000000  1
loop_
_geom_bond_atom_site_label_1
_geom_bond_atom_site_label_2
_geom_bond_distance
_geom_bond_site_symmetry_2
Si0 Si1 2.251687 1_554
Si0 Yb0 3.177933 1_665
Si0 Yb0 3.177933 1_655
Si0 Yb0 3.177933 1_565
Si0 Yb0 3.177933 1_555
Si1 Yb0 3.177930 1_556
Si1 Yb0 3.177930 1_566
Si1 Yb0 3.177930 1_656
Si1 Yb0 3.177930 1_666
Au0 Si0 2.533632 1_455
Au0 Si0 2.533632 1_555
Au0 Si1 2.533638 1_565
Au0 Si1 2.533638 1_555
Au0 Yb0 3.297565 1_555
Au0 Yb0 3.297565 1_565
Au0 Yb0 3.297565 1_566
Au0 Yb0 3.297565 1_666
Au1 Si0 2.533632 1_545
Au1 Si0 2.533632 1_555
Au1 Si1 2.533638 1_655
Au1 Si1 2.533638 1_555
Au1 Yb0 3.297565 1_555
Au1 Yb0 3.297565 1_655
Au1 Yb0 3.297565 1_666
Au1 Yb0 3.297565 1_656
