# generated using pymatgen
data_Ba2MgGe2
_symmetry_space_group_name_H-M   'P 1'
_cell_length_a   3.44439551
_cell_length_b   3.44439551
_cell_length_c   15.20011801
_cell_angle_alpha   90.00000000
_cell_angle_beta   90.00000000
_cell_angle_gamma   90.00000000
_symmetry_Int_Tables_number   1
_chemical_formula_structural   Ba2MgGe2
_chemical_formula_sum   'Ba2 Mg1 Ge2'
_cell_volume   180.33207858
_cell_formula_units_Z   1
loop_
 _symmetry_equiv_pos_site_id
 _symmetry_equiv_pos_as_xyz
  1  'x, y, z'
loop_
 _atom_site_type_symbol
 _atom_site_label
 _atom_site_symmetry_multiplicity
 _atom_site_fract_x
 _atom_site_fract_y
 _atom_site_fract_z
 _atom_site_occupancy
  Ba  Ba0  1  0.50000000  0.50000000  0.62419078  1
  Ba  Ba1  1  0.50000000  0.50000000  0.37580922  1
  Mg  Mg0  1  0.50000000  0.50000000  0.00000000  1
  Ge  Ge0  1  0.50000000  0.50000000  0.17002854  1
  Ge  Ge1  1  0.50000000  0.50000000  0.82997146  1
loop_
_geom_bond_atom_site_label_1
_geom_bond_atom_site_label_2
_geom_bond_distance
_geom_bond_site_symmetry_2
Ba0 Ge1 3.127891 1_555
Ba1 Ge0 3.127891 1_555
Ge0 Mg0 2.584454 1_555
Ge1 Mg0 2.584454 1_556
