# generated using pymatgen
data_Ho(BO2)6
_symmetry_space_group_name_H-M   'P 1'
_cell_length_a   8.49919555
_cell_length_b   8.49919555
_cell_length_c   8.49919624
_cell_angle_alpha   59.90925600
_cell_angle_beta   59.90925600
_cell_angle_gamma   59.90926045
_symmetry_Int_Tables_number   1
_chemical_formula_structural   Ho(BO2)6
_chemical_formula_sum   'Ho2 B12 O24'
_cell_volume   433.23503705
_cell_formula_units_Z   2
loop_
 _symmetry_equiv_pos_site_id
 _symmetry_equiv_pos_as_xyz
  1  'x, y, z'
loop_
 _atom_site_type_symbol
 _atom_site_label
 _atom_site_symmetry_multiplicity
 _atom_site_fract_x
 _atom_site_fract_y
 _atom_site_fract_z
 _atom_site_occupancy
  Ho  Ho0  1  0.49993700  0.49993700  0.49993700  1
  Ho  Ho1  1  0.99993700  0.99993700  0.99993700  1
  B  B0  1  0.78612400  0.08860700  0.37194800  1
  B  B1  1  0.37194800  0.78612400  0.08860700  1
  B  B2  1  0.08860700  0.37194800  0.78612400  1
  B  B3  1  0.87194800  0.58860700  0.28612400  1
  B  B4  1  0.28612400  0.87194800  0.58860700  1
  B  B5  1  0.58860700  0.28612400  0.87194800  1
  B  B6  1  0.88384200  0.39386000  0.61577600  1
  B  B7  1  0.61577600  0.88384200  0.39386000  1
  B  B8  1  0.39386000  0.61577600  0.88384200  1
  B  B9  1  0.11577600  0.89386000  0.38384200  1
  B  B10  1  0.38384200  0.11577600  0.89386000  1
  B  B11  1  0.89386000  0.38384200  0.11577600  1
  O  O0  1  0.18965300  0.49181500  0.60755300  1
  O  O1  1  0.60755300  0.18965300  0.49181500  1
  O  O2  1  0.49181500  0.60755300  0.18965300  1
  O  O3  1  0.10755300  0.99181500  0.68965300  1
  O  O4  1  0.68965300  0.10755300  0.99181500  1
  O  O5  1  0.99181500  0.68965300  0.10755300  1
  O  O6  1  0.76142900  0.95356800  0.32918400  1
  O  O7  1  0.32918400  0.76142900  0.95356800  1
  O  O8  1  0.95356800  0.32918400  0.76142900  1
  O  O9  1  0.82918400  0.45356800  0.26142900  1
  O  O10  1  0.26142900  0.82918400  0.45356800  1
  O  O11  1  0.45356800  0.26142900  0.82918400  1
  O  O12  1  0.66847000  0.71875700  0.35755600  1
  O  O13  1  0.35755600  0.66847000  0.71875700  1
  O  O14  1  0.71875700  0.35755600  0.66847000  1
  O  O15  1  0.85755600  0.21875700  0.16847000  1
  O  O16  1  0.16847000  0.85755600  0.21875700  1
  O  O17  1  0.21875700  0.16847000  0.85755600  1
  O  O18  1  0.92878000  0.99189000  0.46565100  1
  O  O19  1  0.46565100  0.92878000  0.99189000  1
  O  O20  1  0.99189000  0.46565100  0.92878000  1
  O  O21  1  0.96565100  0.49189000  0.42878000  1
  O  O22  1  0.42878000  0.96565100  0.49189000  1
  O  O23  1  0.49189000  0.42878000  0.96565100  1
loop_
_geom_bond_atom_site_label_1
_geom_bond_atom_site_label_2
_geom_bond_distance
_geom_bond_site_symmetry_2
Ho0 O0 2.344466 1_555
Ho0 O1 2.344466 1_555
Ho0 O2 2.344466 1_555
Ho0 O12 2.377261 1_555
Ho0 O14 2.377262 1_555
Ho0 O13 2.377262 1_555
Ho0 O9 2.470290 1_555
Ho0 O11 2.470290 1_555
Ho0 O10 2.470290 1_555
Ho1 O5 2.344466 1_556
Ho1 O4 2.344466 1_565
Ho1 O3 2.344466 1_655
Ho1 O17 2.377261 1_665
Ho1 O15 2.377262 1_566
Ho1 O16 2.377262 1_656
Ho1 O8 2.470290 1_565
Ho1 O6 2.470290 1_556
Ho1 O7 2.470290 1_655
B0 O18 1.446525 1_545
B0 O1 1.448719 1_555
B0 O6 1.493240 1_545
B0 O15 1.511740 1_555
B1 O19 1.446525 1_554
B1 O2 1.448719 1_555
B1 O7 1.493240 1_554
B1 O16 1.511740 1_555
B2 O20 1.446525 1_455
B2 O0 1.448719 1_555
B2 O8 1.493240 1_455
B2 O17 1.511740 1_555
B3 O21 1.446525 1_555
B3 O5 1.448719 1_555
B3 O9 1.493240 1_555
B3 O12 1.511740 1_555
B4 O22 1.446525 1_555
B4 O3 1.448719 1_555
B4 O10 1.493240 1_555
B4 O13 1.511740 1_555
B5 O23 1.446525 1_555
B5 O4 1.448719 1_555
B5 O11 1.493240 1_555
B5 O14 1.511740 1_555
B6 O21 1.359617 1_555
B6 O8 1.382919 1_555
B6 O14 1.389203 1_555
B7 O22 1.359617 1_555
B7 O6 1.382919 1_555
B7 O12 1.389203 1_555
B8 O23 1.359617 1_555
B8 O7 1.382919 1_555
B8 O13 1.389204 1_555
B9 O18 1.359617 1_455
B9 O10 1.382919 1_555
B9 O16 1.389204 1_555
B10 O19 1.359617 1_545
B10 O11 1.382919 1_555
B10 O17 1.389203 1_555
B11 O20 1.359617 1_554
B11 O9 1.382919 1_555
B11 O15 1.389203 1_555
