# generated using pymatgen
data_Ba2Tl2Zn2Fe3O10
_symmetry_space_group_name_H-M   'P 1'
_cell_length_a   3.98421800
_cell_length_b   4.01913091
_cell_length_c   17.81846596
_cell_angle_alpha   94.84569309
_cell_angle_beta   94.14315216
_cell_angle_gamma   90.49979915
_symmetry_Int_Tables_number   1
_chemical_formula_structural   Ba2Tl2Zn2Fe3O10
_chemical_formula_sum   'Ba2 Tl2 Zn2 Fe3 O10'
_cell_volume   283.53439189
_cell_formula_units_Z   1
loop_
 _symmetry_equiv_pos_site_id
 _symmetry_equiv_pos_as_xyz
  1  'x, y, z'
loop_
 _atom_site_type_symbol
 _atom_site_label
 _atom_site_symmetry_multiplicity
 _atom_site_fract_x
 _atom_site_fract_y
 _atom_site_fract_z
 _atom_site_occupancy
  Ba  Ba0  1  0.84837800  0.86985100  0.72029600  1
  Ba  Ba1  1  0.19447100  0.18213700  0.28058500  1
  Tl  Tl0  1  0.28111700  0.37235700  0.56427500  1
  Tl  Tl1  1  0.73536500  0.81900100  0.43680300  1
  Zn  Zn0  1  0.05160200  0.12215900  0.08886000  1
  Zn  Zn1  1  0.96958500  0.03010700  0.91221100  1
  Fe  Fe0  1  0.65007100  0.62490400  0.16035600  1
  Fe  Fe1  1  0.40242600  0.41823300  0.83926800  1
  Fe  Fe2  1  0.41727300  0.67447700  0.00056300  1
  O  O0  1  0.15545900  0.61835800  0.16111700  1
  O  O1  1  0.69816400  0.69960800  0.31828700  1
  O  O2  1  0.68516600  0.12532800  0.16414800  1
  O  O3  1  0.24212300  0.15877300  0.44758800  1
  O  O4  1  0.35978900  0.19345500  0.00698400  1
  O  O5  1  0.38175800  0.91007000  0.83732200  1
  O  O6  1  0.33030800  0.35797100  0.68370800  1
  O  O7  1  0.89744500  0.37988800  0.83829900  1
  O  O8  1  0.78014100  0.70215700  0.55371300  1
  O  O9  1  0.90139900  0.74007700  0.99465300  1
loop_
_geom_bond_atom_site_label_1
_geom_bond_atom_site_label_2
_geom_bond_distance
_geom_bond_site_symmetry_2
Ba0 O7 2.804785 1_565
Ba0 O5 2.861310 1_655
Ba0 O6 2.879556 1_665
Ba0 O5 2.887744 1_555
Ba0 O6 2.892681 1_655
Ba0 O6 2.902234 1_555
Ba0 O6 2.937101 1_565
Ba0 O8 2.980086 1_555
Ba0 O7 2.997328 1_555
Ba1 O2 2.788864 1_455
Ba1 O0 2.866525 1_555
Ba1 O1 2.881054 1_555
Ba1 O1 2.886678 1_545
Ba1 O1 2.909917 1_445
Ba1 O2 2.948331 1_555
Ba1 O1 2.952041 1_455
Ba1 O0 2.970038 1_545
Ba1 O3 2.977543 1_555
Fe0 O0 1.971630 1_555
Fe0 O2 2.009998 1_565
Fe0 O0 2.013058 1_655
Fe0 O2 2.020415 1_555
Fe0 O1 2.797193 1_555
Fe1 O7 1.980820 1_555
Fe1 O5 1.982312 1_555
Fe1 O7 2.015225 1_455
Fe1 O5 2.040579 1_545
Fe1 O6 2.755831 1_555
Fe2 O9 1.956090 1_554
Fe2 O4 1.958721 1_555
Fe2 O9 2.070738 1_454
Fe2 O4 2.094774 1_565
O0 Zn0 2.298024 1_555
O0 Zn0 2.511367 1_565
O1 Tl1 2.119941 1_555
O2 Zn0 2.052257 1_655
O3 Tl0 2.175659 1_555
O3 Tl1 2.412625 1_545
O3 Tl1 2.414489 1_445
O4 Zn0 2.010360 1_555
O4 Zn1 2.261691 1_454
O5 Zn1 2.220783 1_465
O6 Tl0 2.128694 1_555
O7 Zn1 2.014587 1_555
O8 Tl1 2.169087 1_555
O8 Tl0 2.407416 1_555
O8 Tl0 2.410482 1_655
O9 Zn1 1.982915 1_565
O9 Zn0 2.222027 1_666
