# generated using pymatgen
data_CaMn4O8
_symmetry_space_group_name_H-M   'P 1'
_cell_length_a   6.60825118
_cell_length_b   6.60825118
_cell_length_c   6.60825034
_cell_angle_alpha   53.90729929
_cell_angle_beta   53.90729929
_cell_angle_gamma   53.90729762
_symmetry_Int_Tables_number   1
_chemical_formula_structural   CaMn4O8
_chemical_formula_sum   'Ca1 Mn4 O8'
_cell_volume   175.00490781
_cell_formula_units_Z   1
loop_
 _symmetry_equiv_pos_site_id
 _symmetry_equiv_pos_as_xyz
  1  'x, y, z'
loop_
 _atom_site_type_symbol
 _atom_site_label
 _atom_site_symmetry_multiplicity
 _atom_site_fract_x
 _atom_site_fract_y
 _atom_site_fract_z
 _atom_site_occupancy
  Ca  Ca0  1  0.50000000  0.50000000  0.50000000  1
  Mn  Mn0  1  0.00000000  0.50000000  0.50000000  1
  Mn  Mn1  1  0.50000000  0.00000000  0.50000000  1
  Mn  Mn2  1  0.50000000  0.50000000  0.00000000  1
  Mn  Mn3  1  0.00000000  0.00000000  0.00000000  1
  O  O0  1  0.30143600  0.75853700  0.75853700  1
  O  O1  1  0.24146300  0.24146300  0.69856400  1
  O  O2  1  0.69856400  0.24146300  0.24146300  1
  O  O3  1  0.24146300  0.69856400  0.24146300  1
  O  O4  1  0.27496000  0.27496000  0.27496000  1
  O  O5  1  0.72504000  0.72504000  0.72504000  1
  O  O6  1  0.75853700  0.30143600  0.75853700  1
  O  O7  1  0.75853700  0.75853700  0.30143600  1
loop_
_geom_bond_atom_site_label_1
_geom_bond_atom_site_label_2
_geom_bond_distance
_geom_bond_site_symmetry_2
Ca0 O6 2.390826 1_555
Ca0 O2 2.390826 1_555
Ca0 O3 2.390826 1_555
Ca0 O0 2.390826 1_555
Ca0 O7 2.390826 1_555
Ca0 O1 2.390826 1_555
Mn0 O1 1.949470 1_555
Mn0 O7 1.949470 1_455
Mn0 O3 1.949470 1_555
Mn0 O6 1.949470 1_455
Mn0 O4 1.990725 1_555
Mn0 O5 1.990725 1_455
Mn1 O1 1.949470 1_555
Mn1 O7 1.949470 1_545
Mn1 O2 1.949470 1_555
Mn1 O0 1.949470 1_545
Mn1 O4 1.990725 1_555
Mn1 O5 1.990725 1_545
Mn2 O3 1.949470 1_555
Mn2 O2 1.949470 1_555
Mn2 O0 1.949470 1_554
Mn2 O6 1.949470 1_554
Mn2 O4 1.990725 1_555
Mn2 O5 1.990725 1_554
Mn3 O6 2.137804 1_454
Mn3 O0 2.137804 1_544
Mn3 O2 2.137804 1_455
Mn3 O3 2.137804 1_545
Mn3 O1 2.137805 1_554
Mn3 O7 2.137805 1_445
