# generated using pymatgen
data_TlAsH2F10
_symmetry_space_group_name_H-M   'P 1'
_cell_length_a   6.04236700
_cell_length_b   5.69203400
_cell_length_c   22.37287230
_cell_angle_alpha   84.61947320
_cell_angle_beta   90.00000000
_cell_angle_gamma   90.00000000
_symmetry_Int_Tables_number   1
_chemical_formula_structural   TlAsH2F10
_chemical_formula_sum   'Tl4 As4 H8 F40'
_cell_volume   766.08781114
_cell_formula_units_Z   4
loop_
 _symmetry_equiv_pos_site_id
 _symmetry_equiv_pos_as_xyz
  1  'x, y, z'
loop_
 _atom_site_type_symbol
 _atom_site_label
 _atom_site_symmetry_multiplicity
 _atom_site_fract_x
 _atom_site_fract_y
 _atom_site_fract_z
 _atom_site_occupancy
  Tl  Tl0  1  0.60677100  0.24695200  0.26858500  1
  Tl  Tl1  1  0.10677100  0.75304800  0.23141500  1
  Tl  Tl2  1  0.39322900  0.75304800  0.73141500  1
  Tl  Tl3  1  0.89322900  0.24695200  0.76858500  1
  As  As0  1  0.72837700  0.51409900  0.10259000  1
  As  As1  1  0.22837700  0.48590100  0.39741000  1
  As  As2  1  0.27162300  0.48590100  0.89741000  1
  As  As3  1  0.77162300  0.51409900  0.60259000  1
  H  H0  1  0.71179700  0.02091900  0.39679900  1
  H  H1  1  0.21179700  0.97908100  0.10320100  1
  H  H2  1  0.28820300  0.97908100  0.60320100  1
  H  H3  1  0.78820300  0.02091900  0.89679900  1
  H  H4  1  0.75619300  0.90610900  0.98738600  1
  H  H5  1  0.25619300  0.09389100  0.51261400  1
  H  H6  1  0.24380700  0.09389100  0.01261400  1
  H  H7  1  0.74380700  0.90610900  0.48738600  1
  F  F0  1  0.65456200  0.28487400  0.16128800  1
  F  F1  1  0.15456200  0.71512600  0.33871200  1
  F  F2  1  0.34543800  0.71512600  0.83871200  1
  F  F3  1  0.84543800  0.28487400  0.66128800  1
  F  F4  1  0.60671500  0.72492900  0.14480900  1
  F  F5  1  0.10671500  0.27507100  0.35519100  1
  F  F6  1  0.39328500  0.27507100  0.85519100  1
  F  F7  1  0.89328500  0.72492900  0.64480900  1
  F  F8  1  0.81368600  0.74167200  0.04692500  1
  F  F9  1  0.31368600  0.25832800  0.45307500  1
  F  F10  1  0.18631400  0.25832800  0.95307500  1
  F  F11  1  0.68631400  0.74167200  0.54692500  1
  F  F12  1  0.86995500  0.30507300  0.06536900  1
  F  F13  1  0.36995500  0.69492700  0.43463100  1
  F  F14  1  0.13004500  0.69492700  0.93463100  1
  F  F15  1  0.63004500  0.30507300  0.56536900  1
  F  F16  1  0.48093700  0.46683400  0.06606300  1
  F  F17  1  0.98093700  0.53316600  0.43393700  1
  F  F18  1  0.51906300  0.53316600  0.93393700  1
  F  F19  1  0.01906300  0.46683400  0.56606300  1
  F  F20  1  0.98387600  0.55876900  0.14429600  1
  F  F21  1  0.48387600  0.44123100  0.35570400  1
  F  F22  1  0.01612400  0.44123100  0.85570400  1
  F  F23  1  0.51612400  0.55876900  0.64429600  1
  F  F24  1  0.30451900  0.44417100  0.23300600  1
  F  F25  1  0.80451900  0.55582900  0.26699400  1
  F  F26  1  0.69548100  0.55582900  0.76699400  1
  F  F27  1  0.19548100  0.44417100  0.73300600  1
  F  F28  1  0.92007600  0.05575000  0.24758100  1
  F  F29  1  0.42007600  0.94425000  0.25241900  1
  F  F30  1  0.07992400  0.94425000  0.75241900  1
  F  F31  1  0.57992400  0.05575000  0.74758100  1
  F  F32  1  0.67307800  0.99519000  0.35429700  1
  F  F33  1  0.17307800  0.00481000  0.14570300  1
  F  F34  1  0.32692200  0.00481000  0.64570300  1
  F  F35  1  0.82692200  0.99519000  0.85429700  1
  F  F36  1  0.73123100  0.03968200  0.95772300  1
  F  F37  1  0.23123100  0.96031800  0.54227700  1
  F  F38  1  0.26876900  0.96031800  0.04227700  1
  F  F39  1  0.76876900  0.03968200  0.45772300  1
loop_
_geom_bond_atom_site_label_1
_geom_bond_atom_site_label_2
_geom_bond_distance
_geom_bond_site_symmetry_2
As0 F16 1.736906 1_555
As0 F12 1.739734 1_555
As0 F4 1.756505 1_555
As0 F8 1.786643 1_555
As0 F0 1.817852 1_555
As0 F20 1.833893 1_555
As1 F17 1.736906 1_455
As1 F13 1.739734 1_555
As1 F5 1.756505 1_555
As1 F9 1.786643 1_555
As1 F1 1.817852 1_555
As1 F21 1.833893 1_555
As2 F18 1.736906 1_555
As2 F14 1.739734 1_555
As2 F6 1.756505 1_555
As2 F10 1.786643 1_555
As2 F2 1.817852 1_555
As2 F22 1.833893 1_555
As3 F19 1.736906 1_655
As3 F15 1.739734 1_555
As3 F7 1.756505 1_555
As3 F11 1.786643 1_555
As3 F3 1.817852 1_555
As3 F23 1.833893 1_555
F0 Tl0 2.407365 1_555
F1 Tl1 2.407365 1_555
F2 Tl2 2.407365 1_555
F3 Tl3 2.407365 1_555
F8 H4 1.592891 1_554
F9 H5 1.592891 1_555
F10 H6 1.592891 1_556
F11 H7 1.592891 1_555
F20 Tl1 2.444899 1_655
F21 Tl0 2.444899 1_555
F22 Tl3 2.444899 1_455
F23 Tl2 2.444899 1_555
F24 Tl1 2.123272 1_555
F24 Tl0 2.249813 1_555
F25 Tl0 2.123272 1_555
F25 Tl1 2.249813 1_655
F26 Tl3 2.123272 1_555
F26 Tl2 2.249813 1_555
F27 Tl2 2.123272 1_555
F27 Tl3 2.249813 1_455
F28 Tl1 2.118712 1_645
F28 Tl0 2.255003 1_555
F29 Tl0 2.118712 1_565
F29 Tl1 2.255003 1_555
F30 Tl3 2.118712 1_465
F30 Tl2 2.255003 1_555
F31 Tl2 2.118712 1_545
F31 Tl3 2.255003 1_555
F32 H0 1.003242 1_565
F32 Tl0 2.318628 1_565
F33 H1 1.003242 1_545
F33 Tl1 2.318628 1_545
F34 H2 1.003242 1_545
F34 Tl2 2.318628 1_545
F35 H3 1.003242 1_565
F35 Tl3 2.318628 1_565
F36 H4 0.972938 1_545
F36 H3 1.419543 1_555
F37 H5 0.972938 1_565
F37 H2 1.419543 1_555
F38 H6 0.972938 1_565
F38 H1 1.419543 1_555
F39 H7 0.972938 1_545
F39 H0 1.419543 1_555
