# generated using pymatgen
data_Cd2InAgTe4
_symmetry_space_group_name_H-M   'P 1'
_cell_length_a   6.61426600
_cell_length_b   6.61426600
_cell_length_c   8.05439426
_cell_angle_alpha   65.75747857
_cell_angle_beta   65.75747857
_cell_angle_gamma   90.00000000
_symmetry_Int_Tables_number   1
_chemical_formula_structural   Cd2InAgTe4
_chemical_formula_sum   'Cd2 In1 Ag1 Te4'
_cell_volume   286.87489172
_cell_formula_units_Z   1
loop_
 _symmetry_equiv_pos_site_id
 _symmetry_equiv_pos_as_xyz
  1  'x, y, z'
loop_
 _atom_site_type_symbol
 _atom_site_label
 _atom_site_symmetry_multiplicity
 _atom_site_fract_x
 _atom_site_fract_y
 _atom_site_fract_z
 _atom_site_occupancy
  Cd  Cd0  1  0.25000000  0.75000000  0.50000000  1
  Cd  Cd1  1  0.75000000  0.25000000  0.50000000  1
  In  In0  1  0.50000000  0.50000000  0.00000000  1
  Ag  Ag0  1  0.00000000  0.00000000  0.00000000  1
  Te  Te0  1  0.37096000  0.87441300  0.75462700  1
  Te  Te1  1  0.62904000  0.62904000  0.24537300  1
  Te  Te2  1  0.87441300  0.37096000  0.75462700  1
  Te  Te3  1  0.12558700  0.12558700  0.24537300  1
loop_
_geom_bond_atom_site_label_1
_geom_bond_atom_site_label_2
_geom_bond_distance
_geom_bond_site_symmetry_2
Cd0 Te1 2.873441 1_555
Cd0 Te3 2.873441 1_565
Cd0 Te2 2.873441 1_455
Cd0 Te0 2.873441 1_555
Cd1 Te3 2.873441 1_655
Cd1 Te1 2.873441 1_555
Cd1 Te0 2.873441 1_545
Cd1 Te2 2.873441 1_555
In0 Te0 2.851883 1_554
In0 Te3 2.851883 1_555
In0 Te2 2.851883 1_554
In0 Te1 2.851883 1_555
Ag0 Te2 2.825274 1_454
Ag0 Te1 2.825274 1_445
Ag0 Te0 2.825274 1_544
Ag0 Te3 2.825274 1_555
