# generated using pymatgen
data_RbP
_symmetry_space_group_name_H-M   'P 1'
_cell_length_a   4.98370621
_cell_length_b   4.98370621
_cell_length_c   4.98370621
_cell_angle_alpha   121.65049427
_cell_angle_beta   118.49725843
_cell_angle_gamma   89.89382910
_symmetry_Int_Tables_number   1
_chemical_formula_structural   RbP
_chemical_formula_sum   'Rb1 P1'
_cell_volume   87.34619677
_cell_formula_units_Z   1
loop_
 _symmetry_equiv_pos_site_id
 _symmetry_equiv_pos_as_xyz
  1  'x, y, z'
loop_
 _atom_site_type_symbol
 _atom_site_label
 _atom_site_symmetry_multiplicity
 _atom_site_fract_x
 _atom_site_fract_y
 _atom_site_fract_z
 _atom_site_occupancy
  Rb  Rb0  1  0.00000000  0.00000000  0.00000000  1
  P  P0  1  0.50000000  0.50000000  0.00000000  1
loop_
_geom_bond_atom_site_label_1
_geom_bond_atom_site_label_2
_geom_bond_distance
_geom_bond_site_symmetry_2
P0 Rb0 3.520746 1_666
P0 Rb0 3.520746 1_565
P0 Rb0 3.520746 1_655
P0 Rb0 3.520746 1_554
P0 Rb0 3.527276 1_555
P0 Rb0 3.527276 1_665
