# generated using pymatgen
data_BaSrCeBiO6
_symmetry_space_group_name_H-M   'P 1'
_cell_length_a   8.77240187
_cell_length_b   8.79059641
_cell_length_c   8.77761548
_cell_angle_alpha   90.00000000
_cell_angle_beta   90.00000000
_cell_angle_gamma   90.00000000
_symmetry_Int_Tables_number   1
_chemical_formula_structural   BaSrCeBiO6
_chemical_formula_sum   'Ba4 Sr4 Ce4 Bi4 O24'
_cell_volume   676.88269629
_cell_formula_units_Z   4
loop_
 _symmetry_equiv_pos_site_id
 _symmetry_equiv_pos_as_xyz
  1  'x, y, z'
loop_
 _atom_site_type_symbol
 _atom_site_label
 _atom_site_symmetry_multiplicity
 _atom_site_fract_x
 _atom_site_fract_y
 _atom_site_fract_z
 _atom_site_occupancy
  Ba  Ba0  1  -0.00000000  0.00000000  -0.00000000  1
  Ba  Ba1  1  0.50000000  0.50000000  0.50000000  1
  Ba  Ba2  1  0.50000000  0.50000000  -0.00000000  1
  Ba  Ba3  1  -0.00000000  0.50000000  -0.00000000  1
  Sr  Sr0  1  -0.00000000  0.50000000  0.50000000  1
  Sr  Sr1  1  0.50000000  0.00000000  0.50000000  1
  Sr  Sr2  1  0.50000000  0.00000000  -0.00000000  1
  Sr  Sr3  1  -0.00000000  0.00000000  0.50000000  1
  Ce  Ce0  1  0.25035223  0.24662308  0.25264223  1
  Ce  Ce1  1  0.74964777  0.75337692  0.25264223  1
  Ce  Ce2  1  0.74964777  0.24662308  0.74735777  1
  Ce  Ce3  1  0.25035223  0.75337692  0.74735777  1
  Bi  Bi0  1  0.74983979  0.75289257  0.74745918  1
  Bi  Bi1  1  0.25016021  0.24710743  0.74745918  1
  Bi  Bi2  1  0.25016021  0.75289257  0.25254082  1
  Bi  Bi3  1  0.74983979  0.24710743  0.25254082  1
  O  O0  1  0.00143440  0.20263423  0.29052335  1
  O  O1  1  0.99856560  0.79736577  0.29052335  1
  O  O2  1  0.99856560  0.20263423  0.70947665  1
  O  O3  1  0.00143440  0.79736577  0.70947665  1
  O  O4  1  0.28999420  0.00064643  0.20556198  1
  O  O5  1  0.28999420  0.99935357  0.79443802  1
  O  O6  1  0.71000580  0.99935357  0.20556198  1
  O  O7  1  0.71000580  0.00064643  0.79443802  1
  O  O8  1  0.21570153  0.27876416  0.00192033  1
  O  O9  1  0.78429847  0.27876416  0.99807967  1
  O  O10  1  0.21570153  0.72123584  0.99807967  1
  O  O11  1  0.78429847  0.72123584  0.00192033  1
  O  O12  1  0.49856025  0.28689467  0.22291071  1
  O  O13  1  0.50143975  0.71310533  0.22291071  1
  O  O14  1  0.50143975  0.28689467  0.77708929  1
  O  O15  1  0.49856025  0.71310533  0.77708929  1
  O  O16  1  0.21177024  0.49863239  0.29529657  1
  O  O17  1  0.21177024  0.50136761  0.70470343  1
  O  O18  1  0.78822976  0.50136761  0.29529657  1
  O  O19  1  0.78822976  0.49863239  0.70470343  1
  O  O20  1  0.29431813  0.20665614  0.49885632  1
  O  O21  1  0.70568187  0.20665614  0.50114368  1
  O  O22  1  0.29431813  0.79334386  0.50114368  1
  O  O23  1  0.70568187  0.79334386  0.49885632  1
loop_
_geom_bond_atom_site_label_1
_geom_bond_atom_site_label_2
_geom_bond_distance
_geom_bond_site_symmetry_2
Ba0 O9 3.096086 1_454
Ba0 O8 3.096086 1_555
Ba0 O11 3.096086 1_445
Ba0 O10 3.096086 1_544
Ba0 O2 3.110647 1_454
Ba0 O1 3.110647 1_445
Ba0 O0 3.110647 1_555
Ba0 O3 3.110647 1_544
Ba0 O7 3.118870 1_454
Ba0 O6 3.118870 1_445
Ba0 O4 3.118870 1_555
Ba0 O5 3.118870 1_544
Ba1 O12 3.070019 1_555
Ba1 O13 3.070019 1_555
Ba1 O14 3.070019 1_555
Ba1 O15 3.070019 1_555
Ba1 O17 3.101904 1_555
Ba1 O18 3.101904 1_555
Ba1 O19 3.101904 1_555
Ba1 O16 3.101904 1_555
Ba1 O20 3.147255 1_555
Ba1 O23 3.147255 1_555
Ba1 O21 3.147255 1_555
Ba1 O22 3.147255 1_555
Ba2 O14 2.708852 1_554
Ba2 O15 2.708852 1_554
Ba2 O12 2.708852 1_555
Ba2 O13 2.708852 1_555
Ba2 O10 3.162665 1_554
Ba2 O11 3.162665 1_555
Ba2 O9 3.162665 1_554
Ba2 O8 3.162665 1_555
Ba3 O10 2.713487 1_554
Ba3 O11 2.713487 1_455
Ba3 O9 2.713487 1_454
Ba3 O8 2.713487 1_555
Ba3 O18 3.189009 1_455
Ba3 O19 3.189009 1_454
Ba3 O16 3.189009 1_555
Ba3 O17 3.189009 1_554
Ce0 O12 2.221355 1_555
Ce0 O20 2.223254 1_555
Ce0 O4 2.228715 1_555
Ce0 O8 2.239528 1_555
Ce0 O0 2.242371 1_555
Ce0 O16 2.272078 1_555
Ce1 O13 2.221355 1_555
Ce1 O23 2.223254 1_555
Ce1 O6 2.228715 1_555
Ce1 O11 2.239528 1_555
Ce1 O1 2.242371 1_555
Ce1 O18 2.272078 1_555
Ce2 O14 2.221355 1_555
Ce2 O21 2.223254 1_555
Ce2 O7 2.228715 1_555
Ce2 O9 2.239528 1_555
Ce2 O2 2.242371 1_555
Ce2 O19 2.272078 1_555
Ce3 O15 2.221355 1_555
Ce3 O22 2.223254 1_555
Ce3 O5 2.228715 1_555
Ce3 O10 2.239528 1_555
Ce3 O3 2.242371 1_555
Ce3 O17 2.272078 1_555
Bi0 O7 2.243974 1_565
Bi0 O23 2.244602 1_555
Bi0 O15 2.247002 1_555
Bi0 O3 2.266105 1_655
Bi0 O11 2.271039 1_556
Bi0 O19 2.291272 1_555
Bi1 O5 2.243974 1_545
Bi1 O20 2.244602 1_555
Bi1 O14 2.247002 1_555
Bi1 O2 2.266105 1_455
Bi1 O8 2.271039 1_556
Bi1 O17 2.291272 1_555
Bi2 O4 2.243974 1_565
Bi2 O22 2.244602 1_555
Bi2 O13 2.247002 1_555
Bi2 O1 2.266105 1_455
Bi2 O10 2.271039 1_554
Bi2 O16 2.291272 1_555
Bi3 O6 2.243974 1_545
Bi3 O21 2.244602 1_555
Bi3 O12 2.247002 1_555
Bi3 O0 2.266105 1_655
Bi3 O9 2.271039 1_554
Bi3 O18 2.291272 1_555
O0 Sr3 2.560066 1_555
O1 Sr3 2.560066 1_665
O2 Sr3 2.560066 1_655
O3 Sr3 2.560066 1_565
O4 Sr2 2.578681 1_555
O5 Sr2 2.578681 1_566
O6 Sr2 2.578681 1_565
O7 Sr2 2.578681 1_556
O12 Sr2 3.192005 1_555
O13 Sr2 3.192005 1_565
O14 Sr2 3.192005 1_556
O15 Sr2 3.192005 1_566
O16 Sr0 2.584538 1_555
O17 Sr0 2.584538 1_555
O18 Sr0 2.584538 1_655
O19 Sr0 2.584538 1_655
O20 Sr1 2.560436 1_555
O20 Sr3 3.156950 1_555
O21 Sr1 2.560436 1_555
O21 Sr3 3.156950 1_655
O22 Sr1 2.560436 1_565
O22 Sr3 3.156950 1_565
O23 Sr1 2.560436 1_565
O23 Sr3 3.156950 1_665
