# generated using pymatgen
data_Na2LiAu3
_symmetry_space_group_name_H-M   'P 1'
_cell_length_a   5.53746323
_cell_length_b   5.53746463
_cell_length_c   8.65529159
_cell_angle_alpha   90.00000000
_cell_angle_beta   90.00000000
_cell_angle_gamma   119.99999769
_symmetry_Int_Tables_number   1
_chemical_formula_structural   Na2LiAu3
_chemical_formula_sum   'Na4 Li2 Au6'
_cell_volume   229.84452632
_cell_formula_units_Z   2
loop_
 _symmetry_equiv_pos_site_id
 _symmetry_equiv_pos_as_xyz
  1  'x, y, z'
loop_
 _atom_site_type_symbol
 _atom_site_label
 _atom_site_symmetry_multiplicity
 _atom_site_fract_x
 _atom_site_fract_y
 _atom_site_fract_z
 _atom_site_occupancy
  Na  Na0  1  0.66666700  0.33333300  0.06817950  1
  Na  Na1  1  0.33333300  0.66666700  0.93182050  1
  Na  Na2  1  0.33333300  0.66666700  0.56817950  1
  Na  Na3  1  0.66666700  0.33333300  0.43182050  1
  Li  Li0  1  -0.00000000  0.00000000  0.00000000  1
  Li  Li1  1  -0.00000000  0.00000000  0.50000000  1
  Au  Au0  1  0.83217430  0.66434661  0.75000000  1
  Au  Au1  1  0.16782570  0.83217430  0.25000000  1
  Au  Au2  1  0.66434661  0.83217430  0.25000000  1
  Au  Au3  1  0.33565339  0.16782570  0.75000000  1
  Au  Au4  1  0.83217430  0.16782570  0.75000000  1
  Au  Au5  1  0.16782570  0.33565339  0.25000000  1
loop_
_geom_bond_atom_site_label_1
_geom_bond_atom_site_label_2
_geom_bond_distance
_geom_bond_site_symmetry_2
Au0 Li1 2.696872 1_665
Au0 Li0 2.696872 1_666
Au0 Na3 3.178682 1_555
Au0 Na0 3.178682 1_556
Au0 Na1 3.184731 1_655
Au0 Na2 3.184731 1_655
Au0 Na1 3.184746 1_555
Au0 Na2 3.184746 1_555
Au1 Li1 2.696866 1_565
Au1 Li0 2.696866 1_565
Au1 Na1 3.178684 1_554
Au1 Na2 3.178684 1_555
Au1 Na0 3.184739 1_455
Au1 Na3 3.184739 1_455
Au1 Na3 3.184739 1_565
Au1 Na0 3.184739 1_565
Au2 Li0 2.696871 1_665
Au2 Li1 2.696871 1_665
Au2 Na1 3.178681 1_554
Au2 Na2 3.178681 1_555
Au2 Na3 3.184732 1_565
Au2 Na0 3.184732 1_565
Au2 Na0 3.184746 1_555
Au2 Na3 3.184746 1_555
Au3 Li1 2.696871 1_555
Au3 Li0 2.696871 1_556
Au3 Na3 3.178681 1_555
Au3 Na0 3.178681 1_556
Au3 Na1 3.184732 1_545
Au3 Na2 3.184732 1_545
Au3 Na2 3.184746 1_555
Au3 Na1 3.184746 1_555
Au4 Li0 2.696866 1_656
Au4 Li1 2.696866 1_655
Au4 Na3 3.178684 1_555
Au4 Na0 3.178684 1_556
Au4 Na1 3.184739 1_655
Au4 Na2 3.184739 1_655
Au4 Na1 3.184739 1_545
Au4 Na2 3.184739 1_545
Au5 Li0 2.696872 1_555
Au5 Li1 2.696872 1_555
Au5 Na2 3.178682 1_555
Au5 Na1 3.178682 1_554
Au5 Na3 3.184731 1_455
Au5 Na0 3.184731 1_455
Au5 Na0 3.184746 1_555
Au5 Na3 3.184746 1_555
