# generated using pymatgen
data_Ho2SeOF2
_symmetry_space_group_name_H-M   'P 1'
_cell_length_a   13.38017435
_cell_length_b   13.38017435
_cell_length_c   3.73272900
_cell_angle_alpha   90.00000000
_cell_angle_beta   90.00000000
_cell_angle_gamma   120.00000175
_symmetry_Int_Tables_number   1
_chemical_formula_structural   Ho2SeOF2
_chemical_formula_sum   'Ho12 Se6 O6 F12'
_cell_volume   578.73617579
_cell_formula_units_Z   6
loop_
 _symmetry_equiv_pos_site_id
 _symmetry_equiv_pos_as_xyz
  1  'x, y, z'
loop_
 _atom_site_type_symbol
 _atom_site_label
 _atom_site_symmetry_multiplicity
 _atom_site_fract_x
 _atom_site_fract_y
 _atom_site_fract_z
 _atom_site_occupancy
  Ho  Ho0  1  0.60185600  0.48565800  0.75000000  1
  Ho  Ho1  1  0.51434200  0.11619800  0.75000000  1
  Ho  Ho2  1  0.88380200  0.39814400  0.75000000  1
  Ho  Ho3  1  0.39814400  0.51434200  0.25000000  1
  Ho  Ho4  1  0.48565800  0.88380200  0.25000000  1
  Ho  Ho5  1  0.11619800  0.60185600  0.25000000  1
  Ho  Ho6  1  0.94496500  0.71179100  0.75000000  1
  Ho  Ho7  1  0.28820900  0.23317400  0.75000000  1
  Ho  Ho8  1  0.76682600  0.05503500  0.75000000  1
  Ho  Ho9  1  0.05503500  0.28820900  0.25000000  1
  Ho  Ho10  1  0.71179100  0.76682600  0.25000000  1
  Ho  Ho11  1  0.23317400  0.94496500  0.25000000  1
  Se  Se0  1  0.28075100  0.79349300  0.75000000  1
  Se  Se1  1  0.20650700  0.48725800  0.75000000  1
  Se  Se2  1  0.51274200  0.71924900  0.75000000  1
  Se  Se3  1  0.71924900  0.20650700  0.25000000  1
  Se  Se4  1  0.79349300  0.51274200  0.25000000  1
  Se  Se5  1  0.48725800  0.28075100  0.25000000  1
  O  O0  1  0.01418500  0.58788300  0.75000000  1
  O  O1  1  0.41211700  0.42630200  0.75000000  1
  O  O2  1  0.57369800  0.98581500  0.75000000  1
  O  O3  1  0.98581500  0.41211700  0.25000000  1
  O  O4  1  0.58788300  0.57369800  0.25000000  1
  O  O5  1  0.42630200  0.01418500  0.25000000  1
  F  F0  1  0.10463500  0.89965500  0.75000000  1
  F  F1  1  0.10034500  0.20497900  0.75000000  1
  F  F2  1  0.79502100  0.89536500  0.75000000  1
  F  F3  1  0.89536500  0.10034500  0.25000000  1
  F  F4  1  0.89965500  0.79502100  0.25000000  1
  F  F5  1  0.20497900  0.10463500  0.25000000  1
  F  F6  1  0.75266800  0.68606500  0.75000000  1
  F  F7  1  0.31393500  0.06660400  0.75000000  1
  F  F8  1  0.93339600  0.24733200  0.75000000  1
  F  F9  1  0.24733200  0.31393500  0.25000000  1
  F  F10  1  0.68606500  0.93339600  0.25000000  1
  F  F11  1  0.06660400  0.75266800  0.25000000  1
loop_
_geom_bond_atom_site_label_1
_geom_bond_atom_site_label_2
_geom_bond_distance
_geom_bond_site_symmetry_2
Ho0 O1 2.249377 1_555
Ho0 O4 2.264105 1_556
Ho0 O4 2.264105 1_555
Ho0 Se5 3.024463 1_555
Ho0 Se5 3.024463 1_556
Ho0 Se4 3.043062 1_556
Ho0 Se4 3.043062 1_555
Ho1 O2 2.249377 1_545
Ho1 O5 2.264105 1_556
Ho1 O5 2.264105 1_555
Ho1 Se3 3.024463 1_556
Ho1 Se3 3.024463 1_555
Ho1 Se5 3.043062 1_556
Ho1 Se5 3.043062 1_555
Ho2 O0 2.249377 1_655
Ho2 O3 2.264105 1_555
Ho2 O3 2.264105 1_556
Ho2 Se4 3.024463 1_556
Ho2 Se4 3.024463 1_555
Ho2 Se3 3.043062 1_555
Ho2 Se3 3.043062 1_556
Ho3 O4 2.249377 1_555
Ho3 O1 2.264105 1_555
Ho3 O1 2.264105 1_554
Ho3 Se2 3.024463 1_554
Ho3 Se2 3.024463 1_555
Ho3 Se1 3.043062 1_555
Ho3 Se1 3.043062 1_554
Ho4 O5 2.249377 1_565
Ho4 O2 2.264105 1_554
Ho4 O2 2.264105 1_555
Ho4 Se0 3.024463 1_554
Ho4 Se0 3.024463 1_555
Ho4 Se2 3.043062 1_555
Ho4 Se2 3.043062 1_554
Ho5 O3 2.249377 1_455
Ho5 O0 2.264105 1_555
Ho5 O0 2.264105 1_554
Ho5 Se1 3.024463 1_555
Ho5 Se1 3.024463 1_554
Ho5 Se0 3.043062 1_554
Ho5 Se0 3.043062 1_555
Ho6 O0 2.267595 1_655
Ho6 Se4 3.047351 1_556
Ho6 Se4 3.047351 1_555
Ho7 O1 2.267595 1_555
Ho7 Se5 3.047351 1_556
Ho7 Se5 3.047351 1_555
Ho8 O2 2.267595 1_545
Ho8 Se3 3.047351 1_556
Ho8 Se3 3.047351 1_555
Ho9 O3 2.267595 1_455
Ho9 Se1 3.047351 1_555
Ho9 Se1 3.047351 1_554
Ho10 O4 2.267595 1_555
Ho10 Se2 3.047351 1_554
Ho10 Se2 3.047351 1_555
Ho11 O5 2.267595 1_565
Ho11 Se0 3.047351 1_555
Ho11 Se0 3.047351 1_554
F0 Ho6 2.347873 1_455
F0 Ho11 2.401280 1_555
F0 Ho11 2.401280 1_556
F1 Ho7 2.347869 1_555
F1 Ho9 2.401288 1_555
F1 Ho9 2.401288 1_556
F2 Ho8 2.347882 1_565
F2 Ho10 2.401282 1_555
F2 Ho10 2.401282 1_556
F3 Ho9 2.347873 1_655
F3 Ho8 2.401280 1_555
F3 Ho8 2.401280 1_554
F4 Ho10 2.347869 1_555
F4 Ho6 2.401288 1_555
F4 Ho6 2.401288 1_554
F5 Ho11 2.347882 1_545
F5 Ho7 2.401282 1_555
F5 Ho7 2.401282 1_554
F6 Ho10 2.353970 1_556
F6 Ho10 2.353970 1_555
F6 Ho0 2.418943 1_555
F6 Ho6 2.419294 1_555
F7 Ho11 2.353976 1_546
F7 Ho11 2.353976 1_545
F7 Ho1 2.418947 1_555
F7 Ho7 2.419281 1_555
F8 Ho9 2.353977 1_655
F8 Ho9 2.353977 1_656
F8 Ho2 2.418934 1_555
F8 Ho8 2.419289 1_555
F9 Ho7 2.353970 1_554
F9 Ho7 2.353970 1_555
F9 Ho3 2.418943 1_555
F9 Ho9 2.419294 1_555
F10 Ho8 2.353976 1_564
F10 Ho8 2.353976 1_565
F10 Ho4 2.418947 1_555
F10 Ho10 2.419281 1_555
F11 Ho6 2.353977 1_455
F11 Ho6 2.353977 1_454
F11 Ho5 2.418934 1_555
F11 Ho11 2.419289 1_555
