# generated using pymatgen
data_Li5Fe8(BO3)8
_symmetry_space_group_name_H-M   'P 1'
_cell_length_a   5.21135400
_cell_length_b   5.25573875
_cell_length_c   20.26928172
_cell_angle_alpha   90.85428272
_cell_angle_beta   90.11342825
_cell_angle_gamma   119.60163737
_symmetry_Int_Tables_number   1
_chemical_formula_structural   Li5Fe8(BO3)8
_chemical_formula_sum   'Li5 Fe8 B8 O24'
_cell_volume   482.62447533
_cell_formula_units_Z   1
loop_
 _symmetry_equiv_pos_site_id
 _symmetry_equiv_pos_as_xyz
  1  'x, y, z'
loop_
 _atom_site_type_symbol
 _atom_site_label
 _atom_site_symmetry_multiplicity
 _atom_site_fract_x
 _atom_site_fract_y
 _atom_site_fract_z
 _atom_site_occupancy
  Li  Li0  1  0.67434500  0.65054400  0.33068300  1
  Li  Li1  1  0.64883100  0.67508200  0.08367600  1
  Li  Li2  1  0.67373900  0.65107600  0.82914400  1
  Li  Li3  1  0.34035400  0.34930900  0.45807800  1
  Li  Li4  1  0.33327200  0.34396600  0.95392600  1
  Fe  Fe0  1  0.00913700  0.67184000  0.19157700  1
  Fe  Fe1  1  0.99548700  0.67133600  0.69063500  1
  Fe  Fe2  1  0.31486000  0.00628800  0.06625700  1
  Fe  Fe3  1  0.32469800  0.99841700  0.56731200  1
  Fe  Fe4  1  0.67990800  0.00539200  0.44080700  1
  Fe  Fe5  1  0.67951600  0.00752800  0.93988000  1
  Fe  Fe6  1  0.00936600  0.32000600  0.31278900  1
  Fe  Fe7  1  0.00954100  0.31988100  0.81086100  1
  B  B0  1  0.99604700  0.33667300  0.06499100  1
  B  B1  1  0.99891800  0.33922200  0.56472300  1
  B  B2  1  0.66907900  0.00706800  0.18765100  1
  B  B3  1  0.66239300  0.00283100  0.68674300  1
  B  B4  1  0.34275600  0.99941500  0.31334700  1
  B  B5  1  0.34398600  0.99910800  0.81265200  1
  B  B6  1  0.00334000  0.66510900  0.44020600  1
  B  B7  1  0.00415900  0.66879600  0.93852200  1
  O  O0  1  0.90145700  0.27176800  0.20946800  1
  O  O1  1  0.89451200  0.27227800  0.70680500  1
  O  O2  1  0.74225700  0.07339500  0.04995400  1
  O  O3  1  0.97258500  0.57898100  0.08750000  1
  O  O4  1  0.72652400  0.10511100  0.54612700  1
  O  O5  1  0.01081800  0.59889400  0.58626000  1
  O  O6  1  0.39921400  0.98650400  0.17164700  1
  O  O7  1  0.73741600  0.65774000  0.43133100  1
  O  O8  1  0.39577200  0.99100200  0.66707900  1
  O  O9  1  0.73254500  0.65499000  0.93212500  1
  O  O10  1  0.70091200  0.76379100  0.18044300  1
  O  O11  1  0.68709500  0.75772200  0.68666700  1
  O  O12  1  0.35539100  0.26365000  0.31621700  1
  O  O13  1  0.35432300  0.26254000  0.81553700  1
  O  O14  1  0.27157000  0.36332200  0.05662000  1
  O  O15  1  0.58551700  0.97158100  0.33185400  1
  O  O16  1  0.24938900  0.31725600  0.55792200  1
  O  O17  1  0.58760300  0.97309100  0.83094200  1
  O  O18  1  0.02865600  0.42107900  0.42357400  1
  O  O19  1  0.02470700  0.42062000  0.92226900  1
  O  O20  1  0.25225500  0.92043700  0.46438800  1
  O  O21  1  0.25226400  0.92609900  0.95995700  1
  O  O22  1  0.07711000  0.74506000  0.29273300  1
  O  O23  1  0.08071000  0.74473700  0.79109900  1
loop_
_geom_bond_atom_site_label_1
_geom_bond_atom_site_label_2
_geom_bond_distance
_geom_bond_site_symmetry_2
Li0 O12 1.903882 1_555
Li0 O15 1.957622 1_555
Li0 O22 2.057126 1_655
Li0 O7 2.062543 1_555
Li1 O14 1.907154 1_555
Li1 O3 1.987533 1_555
Li1 O10 1.995928 1_555
Li1 O2 2.030699 1_565
Li2 O13 1.907907 1_555
Li2 O17 1.953432 1_555
Li2 O23 2.078810 1_655
Li2 O9 2.107447 1_555
Li3 O18 1.969434 1_555
Li3 O7 1.979953 1_555
Li3 O16 2.069735 1_555
Li3 O20 2.072267 1_545
Li4 O19 1.950251 1_555
Li4 O9 1.965150 1_555
Li4 O21 2.026994 1_545
Li4 O14 2.115462 1_556
Fe0 O10 1.906121 1_455
Fe0 O0 1.930153 1_455
Fe0 O6 1.931961 1_555
Fe0 O22 2.077611 1_555
Fe0 O3 2.144902 1_455
Fe1 O11 1.875354 1_555
Fe1 O1 1.927180 1_555
Fe1 O8 1.991886 1_655
Fe1 O23 2.072789 1_655
Fe1 O5 2.152635 1_655
Fe2 O14 2.009776 1_555
Fe2 O2 2.103529 1_555
Fe2 O3 2.117792 1_445
Fe2 O21 2.181916 1_544
Fe2 O6 2.194399 1_545
Fe3 O16 1.912401 1_565
Fe3 O4 1.932503 1_565
Fe3 O5 1.966096 1_555
Fe3 O8 2.059531 1_555
Fe3 O20 2.116893 1_555
Fe4 O7 1.999000 1_545
Fe4 O18 2.073826 1_655
Fe4 O20 2.102902 1_545
Fe4 O4 2.174787 1_555
Fe4 O15 2.246823 1_545
Fe5 O9 2.007853 1_545
Fe5 O19 2.060183 1_655
Fe5 O21 2.091344 1_545
Fe5 O17 2.244131 1_545
Fe5 O2 2.250979 1_556
Fe6 O12 1.967761 1_555
Fe6 O15 2.100017 1_445
Fe6 O22 2.128149 1_555
Fe6 O0 2.145931 1_455
Fe6 O18 2.290303 1_555
Fe7 O13 1.965545 1_555
Fe7 O17 2.094991 1_445
Fe7 O23 2.119689 1_555
Fe7 O1 2.168296 1_455
Fe7 O19 2.303944 1_555
B0 O14 1.383134 1_655
B0 O2 1.390913 1_555
B0 O3 1.407712 1_555
B1 O16 1.373038 1_655
B1 O4 1.389103 1_555
B1 O5 1.398398 1_655
B2 O10 1.373958 1_545
B2 O0 1.382978 1_555
B2 O6 1.393466 1_545
B3 O11 1.356423 1_545
B3 O1 1.386575 1_555
B3 O8 1.415996 1_545
B4 O12 1.357786 1_565
B4 O15 1.394713 1_555
B4 O22 1.425095 1_555
B5 O13 1.359093 1_565
B5 O17 1.392518 1_555
B5 O23 1.424324 1_555
B6 O7 1.378459 1_455
B6 O18 1.389410 1_555
B6 O20 1.407787 1_555
B7 O9 1.386786 1_455
B7 O21 1.393607 1_555
B7 O19 1.395218 1_555
