# generated using pymatgen
data_Na3CaAl3Si3SO16
_symmetry_space_group_name_H-M   'P 1'
_cell_length_a   7.81100600
_cell_length_b   7.82432828
_cell_length_c   7.83860498
_cell_angle_alpha   110.83493668
_cell_angle_beta   108.32997533
_cell_angle_gamma   109.12096913
_symmetry_Int_Tables_number   1
_chemical_formula_structural   Na3CaAl3Si3SO16
_chemical_formula_sum   'Na3 Ca1 Al3 Si3 S1 O16'
_cell_volume   369.22450814
_cell_formula_units_Z   1
loop_
 _symmetry_equiv_pos_site_id
 _symmetry_equiv_pos_as_xyz
  1  'x, y, z'
loop_
 _atom_site_type_symbol
 _atom_site_label
 _atom_site_symmetry_multiplicity
 _atom_site_fract_x
 _atom_site_fract_y
 _atom_site_fract_z
 _atom_site_occupancy
  Na  Na0  1  0.00951700  0.00207700  0.36201400  1
  Na  Na1  1  0.62745700  0.99874600  0.99777700  1
  Na  Na2  1  0.00511800  0.62662000  0.99951500  1
  Ca  Ca0  1  0.34633800  0.37920500  0.65158500  1
  Al  Al0  1  0.24963500  0.75180500  0.49724900  1
  Al  Al1  1  0.49375200  0.74892900  0.75791200  1
  Al  Al2  1  0.50685300  0.25138900  0.24588000  1
  Si  Si0  1  0.24357900  0.49134700  0.25508200  1
  Si  Si1  1  0.74682400  0.25144700  0.50498100  1
  Si  Si2  1  0.75537900  0.50629100  0.74787300  1
  S  S0  1  0.00604700  0.00142500  0.99314300  1
  O  O0  1  0.00344000  0.01866500  0.79835800  1
  O  O1  1  0.20925200  0.01145200  0.96825000  1
  O  O2  1  0.00976200  0.19082300  0.00576600  1
  O  O3  1  0.82167400  0.80894300  0.18155600  1
  O  O4  1  0.69522800  0.01181000  0.59650200  1
  O  O5  1  0.29475600  0.30207300  0.28867000  1
  O  O6  1  0.98935800  0.70354800  0.58200300  1
  O  O7  1  0.42123400  0.00048800  0.29135000  1
  O  O8  1  0.39260100  0.68961200  0.02073400  1
  O  O9  1  0.71693900  0.31001600  0.69537500  1
  O  O10  1  0.29071900  0.67504400  0.70696200  1
  O  O11  1  0.71504500  0.42314200  0.98384400  1
  O  O12  1  0.99441900  0.40314100  0.30924800  1
  O  O13  1  0.59464100  0.29970100  0.41959300  1
  O  O14  1  0.58705200  0.57664400  0.71918900  1
  O  O15  1  0.27338000  0.56561700  0.41958800  1
loop_
_geom_bond_atom_site_label_1
_geom_bond_atom_site_label_2
_geom_bond_distance
_geom_bond_site_symmetry_2
Na0 O3 1.469259 1_445
Na1 O8 2.618860 1_556
Na1 O12 2.889601 1_566
Na2 Si2 1.907373 1_455
Na2 O11 2.237427 1_455
Na2 O8 2.842333 1_556
Na2 O7 2.947674 1_566
Ca0 O14 1.758012 1_555
Ca0 O8 2.858389 1_556
Al0 O15 1.464382 1_555
Al0 O6 2.289584 1_455
Al0 O12 2.305993 1_455
Al1 O10 1.358499 1_555
Al1 O14 1.712319 1_555
Al1 Na1 1.805483 1_555
Al1 O8 2.558833 1_556
Al2 O13 1.159303 1_555
Al2 O5 1.923459 1_555
Al2 O7 2.053225 1_555
Al2 O1 2.171841 1_554
O0 S0 1.574361 1_555
O1 S0 1.639408 1_555
O2 S0 1.439588 1_554
O4 Si1 2.199172 1_555
O5 Si0 1.738189 1_555
O7 Si1 2.199634 1_555
O9 Si2 1.337378 1_555
O9 Si1 1.514766 1_555
O12 O15 1.824777 1_655
O12 Si0 2.071831 1_655
O13 Si1 1.406026 1_555
O13 O7 1.928244 1_555
O14 Si2 1.567969 1_555
O15 Si0 1.115445 1_555
