# generated using pymatgen
data_TbCrGeO5
_symmetry_space_group_name_H-M   'P 1'
_cell_length_a   5.81362400
_cell_length_b   7.44662800
_cell_length_c   8.51386600
_cell_angle_alpha   90.00000000
_cell_angle_beta   90.00000000
_cell_angle_gamma   90.00000000
_symmetry_Int_Tables_number   1
_chemical_formula_structural   TbCrGeO5
_chemical_formula_sum   'Tb4 Cr4 Ge4 O20'
_cell_volume   368.58139513
_cell_formula_units_Z   4
loop_
 _symmetry_equiv_pos_site_id
 _symmetry_equiv_pos_as_xyz
  1  'x, y, z'
loop_
 _atom_site_type_symbol
 _atom_site_label
 _atom_site_symmetry_multiplicity
 _atom_site_fract_x
 _atom_site_fract_y
 _atom_site_fract_z
 _atom_site_occupancy
  Tb  Tb0  1  0.50000000  0.35781200  0.32617500  1
  Tb  Tb1  1  0.50000000  0.64218800  0.67382500  1
  Tb  Tb2  1  0.50000000  0.14218800  0.82617500  1
  Tb  Tb3  1  0.50000000  0.85781200  0.17382500  1
  Cr  Cr0  1  0.24929000  0.00000000  0.50000000  1
  Cr  Cr1  1  0.75071000  0.00000000  0.50000000  1
  Cr  Cr2  1  0.75071000  0.50000000  0.00000000  1
  Cr  Cr3  1  0.24929000  0.50000000  0.00000000  1
  Ge  Ge0  1  0.00000000  0.11626100  0.14451200  1
  Ge  Ge1  1  0.00000000  0.88373900  0.85548800  1
  Ge  Ge2  1  0.00000000  0.38373900  0.64451200  1
  Ge  Ge3  1  0.00000000  0.61626100  0.35548800  1
  O  O0  1  0.24940100  0.10979600  0.28235400  1
  O  O1  1  0.75059900  0.89020400  0.71764600  1
  O  O2  1  0.24940100  0.89020400  0.71764600  1
  O  O3  1  0.75059900  0.39020400  0.78235400  1
  O  O4  1  0.75059900  0.10979600  0.28235400  1
  O  O5  1  0.24940100  0.60979600  0.21764600  1
  O  O6  1  0.75059900  0.60979600  0.21764600  1
  O  O7  1  0.24940100  0.39020400  0.78235400  1
  O  O8  1  0.00000000  0.34213300  0.08033600  1
  O  O9  1  0.00000000  0.65786700  0.91966400  1
  O  O10  1  0.00000000  0.15786700  0.58033600  1
  O  O11  1  0.00000000  0.84213300  0.41966400  1
  O  O12  1  0.50000000  0.33114300  0.05638800  1
  O  O13  1  0.50000000  0.66885700  0.94361200  1
  O  O14  1  0.50000000  0.16885700  0.55638800  1
  O  O15  1  0.50000000  0.83114300  0.44361200  1
  O  O16  1  0.21138500  0.00000000  0.00000000  1
  O  O17  1  0.78861500  0.00000000  0.00000000  1
  O  O18  1  0.78861500  0.50000000  0.50000000  1
  O  O19  1  0.21138500  0.50000000  0.50000000  1
loop_
_geom_bond_atom_site_label_1
_geom_bond_atom_site_label_2
_geom_bond_distance
_geom_bond_site_symmetry_2
Cr0 O14 1.983929 1_555
Cr0 O15 1.983929 1_545
Cr0 O10 1.987512 1_555
Cr0 O11 1.987512 1_545
Cr0 O0 2.025371 1_555
Cr0 O2 2.025371 1_545
Cr1 O14 1.983929 1_555
Cr1 O15 1.983929 1_545
Cr1 O11 1.987512 1_645
Cr1 O10 1.987512 1_655
Cr1 O4 2.025371 1_555
Cr1 O1 2.025371 1_545
Cr2 O12 1.983929 1_555
Cr2 O13 1.983929 1_554
Cr2 O9 1.987512 1_654
Cr2 O8 1.987512 1_655
Cr2 O6 2.025371 1_555
Cr2 O3 2.025371 1_554
Cr3 O12 1.983929 1_555
Cr3 O13 1.983929 1_554
Cr3 O9 1.987512 1_554
Cr3 O8 1.987512 1_555
Cr3 O5 2.025371 1_555
Cr3 O7 2.025371 1_554
Ge0 O8 1.768505 1_555
Ge0 O0 1.865974 1_555
Ge0 O4 1.865974 1_455
Ge0 O16 1.942557 1_555
Ge0 O17 1.942557 1_455
Ge1 O9 1.768505 1_555
Ge1 O1 1.865974 1_455
Ge1 O2 1.865974 1_555
Ge1 O16 1.942557 1_566
Ge1 O17 1.942557 1_466
Ge2 O10 1.768505 1_555
Ge2 O3 1.865974 1_455
Ge2 O7 1.865974 1_555
Ge2 O19 1.942557 1_555
Ge2 O18 1.942557 1_455
Ge3 O11 1.768505 1_555
Ge3 O6 1.865974 1_455
Ge3 O5 1.865974 1_555
Ge3 O19 1.942557 1_555
Ge3 O18 1.942557 1_455
O0 Tb0 2.381742 1_555
O0 Tb3 2.548979 1_545
O1 Tb1 2.381742 1_555
O1 Tb2 2.548979 1_565
O2 Tb1 2.381742 1_555
O2 Tb2 2.548979 1_565
O3 Tb2 2.381742 1_555
O3 Tb1 2.548979 1_555
O4 Tb0 2.381742 1_555
O4 Tb3 2.548979 1_545
O5 Tb3 2.381742 1_555
O5 Tb0 2.548979 1_555
O6 Tb3 2.381742 1_555
O6 Tb0 2.548979 1_555
O7 Tb2 2.381742 1_555
O7 Tb1 2.548979 1_555
O12 Tb0 2.305500 1_555
O12 Tb2 2.412774 1_554
O13 Tb1 2.305500 1_555
O13 Tb3 2.412774 1_556
O14 Tb2 2.305500 1_555
O14 Tb0 2.412774 1_555
O15 Tb3 2.305500 1_555
O15 Tb1 2.412774 1_555
O16 Tb3 2.475201 1_545
O16 Tb2 2.475201 1_554
O17 Tb3 2.475201 1_545
O17 Tb2 2.475201 1_554
O18 Tb0 2.475201 1_555
O18 Tb1 2.475201 1_555
O19 Tb0 2.475201 1_555
O19 Tb1 2.475201 1_555
