# generated using pymatgen
data_Cs2FeH2Cl5O
_symmetry_space_group_name_H-M   'P 1'
_cell_length_a   7.55844500
_cell_length_b   8.32133000
_cell_length_c   9.72633600
_cell_angle_alpha   90.00000000
_cell_angle_beta   112.86465239
_cell_angle_gamma   90.00000000
_symmetry_Int_Tables_number   1
_chemical_formula_structural   Cs2FeH2Cl5O
_chemical_formula_sum   'Cs4 Fe2 H4 Cl10 O2'
_cell_volume   563.68256267
_cell_formula_units_Z   2
loop_
 _symmetry_equiv_pos_site_id
 _symmetry_equiv_pos_as_xyz
  1  'x, y, z'
loop_
 _atom_site_type_symbol
 _atom_site_label
 _atom_site_symmetry_multiplicity
 _atom_site_fract_x
 _atom_site_fract_y
 _atom_site_fract_z
 _atom_site_occupancy
  Cs  Cs0  1  0.52911000  0.75000000  0.05822000  1
  Cs  Cs1  1  0.47089000  0.25000000  0.94178000  1
  Cs  Cs2  1  0.24718500  0.75000000  0.49436900  1
  Cs  Cs3  1  0.75281500  0.25000000  0.50563100  1
  Fe  Fe0  1  0.87994200  0.75000000  0.75988400  1
  Fe  Fe1  1  0.12005800  0.25000000  0.24011600  1
  H  H0  1  0.03347200  0.65410000  0.06694400  1
  H  H1  1  0.96652800  0.34590000  0.93305600  1
  H  H2  1  0.03347200  0.84590000  0.06694400  1
  H  H3  1  0.96652800  0.15410000  0.93305600  1
  Cl  Cl0  1  0.75012900  0.75000000  0.50025700  1
  Cl  Cl1  1  0.24987100  0.25000000  0.49974300  1
  Cl  Cl2  1  0.11177700  0.95632900  0.77885800  1
  Cl  Cl3  1  0.33291900  0.04367100  0.22114200  1
  Cl  Cl4  1  0.11177700  0.54367100  0.77885800  1
  Cl  Cl5  1  0.33291900  0.45632900  0.22114200  1
  Cl  Cl6  1  0.88822300  0.04367100  0.22114200  1
  Cl  Cl7  1  0.66708100  0.95632900  0.77885800  1
  Cl  Cl8  1  0.88822300  0.45632900  0.22114200  1
  Cl  Cl9  1  0.66708100  0.54367100  0.77885800  1
  O  O0  1  0.00209900  0.75000000  0.00419900  1
  O  O1  1  0.99790100  0.25000000  0.99580100  1
loop_
_geom_bond_atom_site_label_1
_geom_bond_atom_site_label_2
_geom_bond_distance
_geom_bond_site_symmetry_2
Fe0 O0 2.189574 1_656
Fe1 O1 2.189574 1_454
H0 O0 0.976238 1_555
H1 O1 0.976238 1_555
H2 O0 0.976238 1_555
H3 O1 0.976238 1_555
Cl0 Fe0 2.326801 1_555
Cl0 Cs2 3.779591 1_655
Cl0 Cs2 3.779591 1_555
Cl0 Cs0 3.961576 1_555
Cl1 Fe1 2.326801 1_555
Cl1 Cs3 3.779591 1_455
Cl1 Cs3 3.779591 1_555
Cl1 Cs1 3.961576 1_555
Cl2 Fe0 2.408569 1_455
Cl2 Cs1 3.536663 1_565
Cl2 Cs0 3.690583 1_556
Cl2 Cs2 3.721909 1_555
Cl2 Cs3 3.846081 1_465
Cl3 Fe1 2.408569 1_555
Cl3 Cs0 3.536663 1_545
Cl3 Cs1 3.690583 1_554
Cl3 Cs3 3.721905 1_555
Cl3 Cs2 3.846078 1_545
Cl4 Fe0 2.408569 1_455
Cl4 Cs1 3.536663 1_555
Cl4 Cs0 3.690583 1_556
Cl4 Cs2 3.721909 1_555
Cl4 Cs3 3.846081 1_455
Cl5 Fe1 2.408569 1_555
Cl5 Cs0 3.536663 1_555
Cl5 Cs1 3.690583 1_554
Cl5 Cs3 3.721905 1_555
Cl5 Cs2 3.846078 1_555
Cl6 Fe1 2.408569 1_655
Cl6 Cs0 3.536663 1_545
Cl6 Cs1 3.690583 1_554
Cl6 Cs3 3.721909 1_555
Cl6 Cs2 3.846081 1_645
Cl7 Fe0 2.408569 1_555
Cl7 Cs1 3.536663 1_565
Cl7 Cs0 3.690583 1_556
Cl7 Cs2 3.721905 1_555
Cl7 Cs3 3.846078 1_565
Cl8 Fe1 2.408569 1_655
Cl8 Cs0 3.536663 1_555
Cl8 Cs1 3.690583 1_554
Cl8 Cs3 3.721909 1_555
Cl8 Cs2 3.846081 1_655
Cl9 Fe0 2.408569 1_555
Cl9 Cs1 3.536663 1_555
Cl9 Cs0 3.690583 1_556
Cl9 Cs2 3.721905 1_555
Cl9 Cs3 3.846078 1_555
