# generated using pymatgen
data_NaMnH6C3S3(NO)3
_symmetry_space_group_name_H-M   'P 1'
_cell_length_a   10.24828375
_cell_length_b   10.24828375
_cell_length_c   6.72537400
_cell_angle_alpha   90.00000000
_cell_angle_beta   90.00000000
_cell_angle_gamma   119.99999838
_symmetry_Int_Tables_number   1
_chemical_formula_structural   NaMnH6C3S3(NO)3
_chemical_formula_sum   'Na2 Mn2 H12 C6 S6 N6 O6'
_cell_volume   611.71532703
_cell_formula_units_Z   2
loop_
 _symmetry_equiv_pos_site_id
 _symmetry_equiv_pos_as_xyz
  1  'x, y, z'
loop_
 _atom_site_type_symbol
 _atom_site_label
 _atom_site_symmetry_multiplicity
 _atom_site_fract_x
 _atom_site_fract_y
 _atom_site_fract_z
 _atom_site_occupancy
  Na  Na0  1  0.00000000  0.00000000  0.00000000  1
  Na  Na1  1  0.00000000  0.00000000  0.50000000  1
  Mn  Mn0  1  0.33333300  0.66666700  0.97578600  1
  Mn  Mn1  1  0.66666700  0.33333300  0.02421400  1
  H  H0  1  0.10177900  0.28492200  0.23833000  1
  H  H1  1  0.18314300  0.89822100  0.23833000  1
  H  H2  1  0.71507800  0.81685700  0.23833000  1
  H  H3  1  0.89822100  0.71507800  0.76167000  1
  H  H4  1  0.81685700  0.10177900  0.76167000  1
  H  H5  1  0.28492200  0.18314300  0.76167000  1
  H  H6  1  0.92610200  0.18870400  0.25140000  1
  H  H7  1  0.26260200  0.07389800  0.25140000  1
  H  H8  1  0.81129600  0.73739800  0.25140000  1
  H  H9  1  0.07389800  0.81129600  0.74860000  1
  H  H10  1  0.73739800  0.92610200  0.74860000  1
  H  H11  1  0.18870400  0.26260200  0.74860000  1
  C  C0  1  0.57984200  0.97705700  0.20587800  1
  C  C1  1  0.39721500  0.42015800  0.20587800  1
  C  C2  1  0.02294300  0.60278500  0.20587800  1
  C  C3  1  0.42015800  0.02294300  0.79412200  1
  C  C4  1  0.60278500  0.57984200  0.79412200  1
  C  C5  1  0.97705700  0.39721500  0.79412200  1
  S  S0  1  0.67932000  0.14274300  0.30821800  1
  S  S1  1  0.46342300  0.32068000  0.30821800  1
  S  S2  1  0.85725700  0.53657700  0.30821800  1
  S  S3  1  0.32068000  0.85725700  0.69178200  1
  S  S4  1  0.53657700  0.67932000  0.69178200  1
  S  S5  1  0.14274300  0.46342300  0.69178200  1
  N  N0  1  0.50860800  0.85620300  0.13327800  1
  N  N1  1  0.34759600  0.49139200  0.13327800  1
  N  N2  1  0.14379700  0.65240400  0.13327800  1
  N  N3  1  0.49139200  0.14379700  0.86672200  1
  N  N4  1  0.65240400  0.50860800  0.86672200  1
  N  N5  1  0.85620300  0.34759600  0.86672200  1
  O  O0  1  0.01830300  0.18118600  0.24516600  1
  O  O1  1  0.16288200  0.98169700  0.24516600  1
  O  O2  1  0.81881400  0.83711800  0.24516600  1
  O  O3  1  0.98169700  0.81881400  0.75483400  1
  O  O4  1  0.83711800  0.01830300  0.75483400  1
  O  O5  1  0.18118600  0.16288200  0.75483400  1
loop_
_geom_bond_atom_site_label_1
_geom_bond_atom_site_label_2
_geom_bond_distance
_geom_bond_site_symmetry_2
Na0 O1 2.419375 1_545
Na0 O4 2.419375 1_454
Na0 O5 2.419380 1_554
Na0 O2 2.419380 1_445
Na0 O0 2.419383 1_555
Na0 O3 2.419383 1_444
Na1 O1 2.464147 1_545
Na1 O4 2.464147 1_455
Na1 O5 2.464152 1_555
Na1 O2 2.464152 1_445
Na1 O0 2.464155 1_555
Na1 O3 2.464155 1_445
Mn0 N2 2.152282 1_556
Mn0 N0 2.152290 1_556
Mn0 N1 2.152300 1_556
Mn0 S3 2.780897 1_555
Mn0 S5 2.780901 1_555
Mn0 S4 2.780904 1_555
Mn1 N5 2.152282 1_554
Mn1 N3 2.152290 1_554
Mn1 N4 2.152300 1_554
Mn1 S0 2.780897 1_555
Mn1 S2 2.780901 1_555
Mn1 S1 2.780904 1_555
H0 O0 0.977090 1_555
H1 O1 0.977096 1_555
H2 O2 0.977086 1_555
H3 O3 0.977090 1_555
H4 O4 0.977096 1_555
H5 O5 0.977086 1_555
H6 O0 0.986578 1_655
H7 O1 0.986583 1_545
H8 O2 0.986588 1_555
H9 O3 0.986578 1_455
H10 O4 0.986583 1_565
H11 O5 0.986588 1_555
C0 N0 1.183708 1_555
C0 S0 1.632538 1_565
C1 N1 1.183700 1_555
C1 S1 1.632538 1_555
C2 N2 1.183708 1_555
C2 S2 1.632538 1_455
C3 N3 1.183708 1_555
C3 S3 1.632538 1_545
C4 N4 1.183700 1_555
C4 S4 1.632538 1_555
C5 N5 1.183708 1_555
C5 S5 1.632538 1_655
