# generated using pymatgen
data_Nd4FeS6O
_symmetry_space_group_name_H-M   'P 1'
_cell_length_a   9.37577720
_cell_length_b   9.37577720
_cell_length_c   6.74455000
_cell_angle_alpha   90.00000000
_cell_angle_beta   90.00000000
_cell_angle_gamma   119.99999433
_symmetry_Int_Tables_number   1
_chemical_formula_structural   Nd4FeS6O
_chemical_formula_sum   'Nd8 Fe2 S12 O2'
_cell_volume   513.45003970
_cell_formula_units_Z   2
loop_
 _symmetry_equiv_pos_site_id
 _symmetry_equiv_pos_as_xyz
  1  'x, y, z'
loop_
 _atom_site_type_symbol
 _atom_site_label
 _atom_site_symmetry_multiplicity
 _atom_site_fract_x
 _atom_site_fract_y
 _atom_site_fract_z
 _atom_site_occupancy
  Nd  Nd0  1  0.80283100  0.19716900  0.32812900  1
  Nd  Nd1  1  0.39433800  0.19716900  0.32812900  1
  Nd  Nd2  1  0.80283100  0.60566200  0.32812900  1
  Nd  Nd3  1  0.19716900  0.80283100  0.82812900  1
  Nd  Nd4  1  0.60566200  0.80283100  0.82812900  1
  Nd  Nd5  1  0.19716900  0.39433800  0.82812900  1
  Nd  Nd6  1  0.33333300  0.66666700  0.30374300  1
  Nd  Nd7  1  0.66666700  0.33333300  0.80374300  1
  Fe  Fe0  1  0.00000000  0.00000000  0.49777600  1
  Fe  Fe1  1  0.00000000  0.00000000  0.99777600  1
  S  S0  1  0.12289600  0.87710400  0.23094400  1
  S  S1  1  0.75420700  0.87710400  0.23094400  1
  S  S2  1  0.12289600  0.24579300  0.23094400  1
  S  S3  1  0.87710400  0.12289600  0.73094400  1
  S  S4  1  0.24579300  0.12289600  0.73094400  1
  S  S5  1  0.87710400  0.75420700  0.73094400  1
  S  S6  1  0.53135800  0.46864200  0.05290100  1
  S  S7  1  0.93728400  0.46864200  0.05290100  1
  S  S8  1  0.53135800  0.06271600  0.05290100  1
  S  S9  1  0.46864200  0.53135800  0.55290100  1
  S  S10  1  0.06271600  0.53135800  0.55290100  1
  S  S11  1  0.46864200  0.93728400  0.55290100  1
  O  O0  1  0.33333300  0.66666700  0.95483300  1
  O  O1  1  0.66666700  0.33333300  0.45483300  1
loop_
_geom_bond_atom_site_label_1
_geom_bond_atom_site_label_2
_geom_bond_distance
_geom_bond_site_symmetry_2
Nd0 O1 2.370597 1_555
Nd0 S2 2.876555 1_655
Nd0 S1 2.876555 1_545
Nd0 S8 2.881797 1_555
Nd0 S7 2.881797 1_555
Nd0 S3 2.972510 1_555
Nd1 O1 2.370605 1_555
Nd1 S0 2.876559 1_545
Nd1 S2 2.876564 1_555
Nd1 S8 2.881797 1_555
Nd1 S6 2.881797 1_555
Nd1 S4 2.972507 1_555
Nd2 O1 2.370605 1_555
Nd2 S0 2.876559 1_655
Nd2 S1 2.876564 1_555
Nd2 S7 2.881797 1_555
Nd2 S6 2.881797 1_555
Nd2 S5 2.972507 1_555
Nd3 O0 2.370597 1_555
Nd3 S4 2.876555 1_565
Nd3 S5 2.876555 1_455
Nd3 S11 2.881797 1_555
Nd3 S10 2.881797 1_555
Nd3 S0 2.972510 1_556
Nd4 O0 2.370605 1_555
Nd4 S3 2.876559 1_565
Nd4 S5 2.876564 1_555
Nd4 S11 2.881797 1_555
Nd4 S9 2.881797 1_555
Nd4 S1 2.972507 1_556
Nd5 O0 2.370605 1_555
Nd5 S3 2.876559 1_455
Nd5 S4 2.876564 1_555
Nd5 S10 2.881797 1_555
Nd5 S9 2.881797 1_555
Nd5 S2 2.972507 1_556
Nd6 O0 2.353241 1_554
Nd6 S10 2.766252 1_555
Nd6 S11 2.766252 1_555
Nd6 S9 2.766258 1_555
Nd6 S0 3.452447 1_555
Nd6 S1 3.452447 1_555
Nd6 S2 3.452447 1_555
Nd7 O1 2.353241 1_555
Nd7 S7 2.766252 1_556
Nd7 S8 2.766252 1_556
Nd7 S6 2.766258 1_556
Nd7 S3 3.452447 1_555
Nd7 S4 3.452447 1_555
Nd7 S5 3.452447 1_555
Fe0 S3 2.540890 1_455
Fe0 S4 2.540896 1_555
Fe0 S5 2.540896 1_445
Fe0 S0 2.687339 1_545
Fe0 S1 2.687345 1_445
Fe0 S2 2.687345 1_555
Fe1 S0 2.540890 1_546
Fe1 S1 2.540896 1_446
Fe1 S2 2.540896 1_556
Fe1 S3 2.687339 1_455
Fe1 S5 2.687345 1_445
Fe1 S4 2.687345 1_555
