# generated using pymatgen
data_CoHO2
_symmetry_space_group_name_H-M   'P 1'
_cell_length_a   2.94073213
_cell_length_b   3.02773787
_cell_length_c   18.23263813
_cell_angle_alpha   81.77097822
_cell_angle_beta   95.58555936
_cell_angle_gamma   117.55561717
_symmetry_Int_Tables_number   1
_chemical_formula_structural   CoHO2
_chemical_formula_sum   'Co4 H4 O8'
_cell_volume   142.35227865
_cell_formula_units_Z   4
loop_
 _symmetry_equiv_pos_site_id
 _symmetry_equiv_pos_as_xyz
  1  'x, y, z'
loop_
 _atom_site_type_symbol
 _atom_site_label
 _atom_site_symmetry_multiplicity
 _atom_site_fract_x
 _atom_site_fract_y
 _atom_site_fract_z
 _atom_site_occupancy
  Co  Co0  1  0.49974000  0.50190400  0.49945800  1
  Co  Co1  1  0.25708000  0.75863500  0.74765500  1
  Co  Co2  1  0.01165800  0.00032900  0.99868100  1
  Co  Co3  1  0.75021300  0.23696200  0.25031900  1
  H  H0  1  0.09978100  0.84119900  0.38453100  1
  H  H1  1  0.87199300  0.11297700  0.63280700  1
  H  H2  1  0.65187800  0.40130300  0.88095700  1
  H  H3  1  0.37743900  0.62717300  0.13278100  1
  O  O0  1  0.07412700  0.87452000  0.30469800  1
  O  O1  1  0.86494500  0.16458800  0.55183000  1
  O  O2  1  0.62260500  0.42166600  0.79976100  1
  O  O3  1  0.33758200  0.63831100  0.05256700  1
  O  O4  1  0.12843900  0.83437600  0.44292300  1
  O  O5  1  0.88577000  0.09097700  0.69103900  1
  O  O6  1  0.66468700  0.37939100  0.93903200  1
  O  O7  1  0.40206300  0.61568800  0.19096100  1
loop_
_geom_bond_atom_site_label_1
_geom_bond_atom_site_label_2
_geom_bond_distance
_geom_bond_site_symmetry_2
Co0 O1 1.909004 1_555
Co0 O1 1.934819 1_455
Co0 O4 1.941364 1_555
Co0 O4 1.961133 1_655
Co0 O1 2.108576 1_565
Co0 O4 2.162190 1_545
Co1 O2 1.907177 1_555
Co1 O2 1.931606 1_455
Co1 O5 1.941701 1_465
Co1 O5 1.961916 1_565
Co1 O2 2.106808 1_565
Co1 O5 2.163323 1_455
Co2 O3 1.888320 1_546
Co2 O6 2.012776 1_455
Co2 O3 2.038795 1_446
Co2 O6 2.048883 1_555
Co2 O3 2.064502 1_556
Co2 O6 2.086356 1_445
Co3 O0 1.888500 1_645
Co3 O7 2.012364 1_555
Co3 O7 2.043429 1_655
Co3 O0 2.047873 1_545
Co3 O0 2.068677 1_655
Co3 O7 2.084004 1_545
H0 O4 1.057751 1_555
H0 O0 1.441587 1_555
H1 O5 1.052242 1_555
H1 O1 1.461394 1_555
H2 O6 1.049497 1_555
H2 O2 1.468612 1_555
H3 O7 1.052860 1_555
H3 O3 1.452580 1_555
