# generated using pymatgen
data_HfO2
_symmetry_space_group_name_H-M   'P 1'
_cell_length_a   10.76117956
_cell_length_b   11.38438867
_cell_length_c   11.05429597
_cell_angle_alpha   88.60548486
_cell_angle_beta   86.84475185
_cell_angle_gamma   88.66121343
_symmetry_Int_Tables_number   1
_chemical_formula_structural   HfO2
_chemical_formula_sum   'Hf34 O68'
_cell_volume   1351.47316842
_cell_formula_units_Z   34
loop_
 _symmetry_equiv_pos_site_id
 _symmetry_equiv_pos_as_xyz
  1  'x, y, z'
loop_
 _atom_site_type_symbol
 _atom_site_label
 _atom_site_symmetry_multiplicity
 _atom_site_fract_x
 _atom_site_fract_y
 _atom_site_fract_z
 _atom_site_occupancy
  Hf  Hf0  1  0.53762887  0.58849915  0.78056436  1
  Hf  Hf1  1  0.46133333  0.51063551  0.32717211  1
  Hf  Hf2  1  0.78552470  0.48300040  0.36161485  1
  Hf  Hf3  1  0.11341519  0.48134875  0.25097874  1
  Hf  Hf4  1  0.71854445  0.09880351  0.00588177  1
  Hf  Hf5  1  0.56473009  0.69925189  0.50705936  1
  Hf  Hf6  1  0.52536690  0.01207138  0.55508580  1
  Hf  Hf7  1  0.42201090  0.02857521  0.94929575  1
  Hf  Hf8  1  0.02917319  0.54857865  0.88840512  1
  Hf  Hf9  1  0.09740982  0.32079465  0.69635755  1
  Hf  Hf10  1  0.97963714  0.00703143  0.17127042  1
  Hf  Hf11  1  0.05753478  0.78742249  0.34142075  1
  Hf  Hf12  1  0.83072430  0.78711884  0.05215368  1
  Hf  Hf13  1  0.46504527  0.35218895  0.62646256  1
  Hf  Hf14  1  0.96728032  0.20479789  0.42945052  1
  Hf  Hf15  1  0.27974182  0.24335492  0.46506423  1
  Hf  Hf16  1  0.30395256  0.96056640  0.26015580  1
  Hf  Hf17  1  0.79659071  0.39429034  0.64784988  1
  Hf  Hf18  1  0.12337794  0.74730746  0.06499159  1
  Hf  Hf19  1  0.27638349  0.76297813  0.53968598  1
  Hf  Hf20  1  0.49180754  0.72513271  0.06006902  1
  Hf  Hf21  1  0.62153564  0.31800327  0.88289922  1
  Hf  Hf22  1  0.65426561  0.21376207  0.27852285  1
  Hf  Hf23  1  0.30169832  0.81821923  0.81487176  1
  Hf  Hf24  1  0.99818067  0.82660609  0.78557935  1
  Hf  Hf25  1  0.64518869  0.85969608  0.80713059  1
  Hf  Hf26  1  0.62964208  0.91565136  0.24047153  1
  Hf  Hf27  1  0.30000404  0.45061915  0.94953888  1
  Hf  Hf28  1  0.95329284  0.62664242  0.56567208  1
  Hf  Hf29  1  0.82485905  0.90161669  0.48904403  1
  Hf  Hf30  1  0.88816347  0.32665683  0.08537200  1
  Hf  Hf31  1  0.20531217  0.21491135  0.17875763  1
  Hf  Hf32  1  0.08448108  0.07021913  0.90509642  1
  Hf  Hf33  1  0.82342689  0.10070559  0.71040107  1
  O  O0  1  0.16317294  0.54852385  0.03714210  1
  O  O1  1  0.42192123  0.36080157  0.44609847  1
  O  O2  1  0.32137049  0.79921540  0.00803520  1
  O  O3  1  0.61118630  0.07258717  0.39691606  1
  O  O4  1  0.69037244  0.97408657  0.63276106  1
  O  O5  1  0.68955984  0.47272328  0.80147687  1
  O  O6  1  0.41707248  0.58777578  0.93343867  1
  O  O7  1  0.78502318  0.54685581  0.55067762  1
  O  O8  1  0.31243418  0.31717493  0.06510651  1
  O  O9  1  0.93657711  0.94149134  0.34638975  1
  O  O10  1  0.15254747  0.31472154  0.34746948  1
  O  O11  1  0.45610991  0.86143470  0.22568145  1
  O  O12  1  0.28974837  0.48479893  0.27935485  1
  O  O13  1  0.60275457  0.08605237  0.16590803  1
  O  O14  1  0.05831235  0.11939129  0.29183404  1
  O  O15  1  0.14479384  0.72641522  0.87482376  1
  O  O16  1  0.60203457  0.70804352  0.90435363  1
  O  O17  1  0.53157833  0.16408756  0.92165826  1
  O  O18  1  0.25455043  0.99754334  0.86872648  1
  O  O19  1  0.15173889  0.89809458  0.18822085  1
  O  O20  1  0.17621799  0.45160686  0.81945166  1
  O  O21  1  0.97896562  0.51524614  0.38569362  1
  O  O22  1  0.63676276  0.28425120  0.67148102  1
  O  O23  1  0.91650402  0.82843146  0.62332056  1
  O  O24  1  0.76937501  0.21894142  0.84965193  1
  O  O25  1  0.87445845  0.07838957  0.52316013  1
  O  O26  1  0.95563310  0.65858635  0.01686772  1
  O  O27  1  0.63432271  0.59845439  0.37544692  1
  O  O28  1  0.95853333  0.80723562  0.17683408  1
  O  O29  1  0.11207964  0.22586421  0.84146267  1
  O  O30  1  0.34114780  0.06355409  0.10973644  1
  O  O31  1  0.66445060  0.84386242  0.41159528  1
  O  O32  1  0.82200898  0.81164855  0.87185314  1
  O  O33  1  0.06453075  0.33850100  0.14227135  1
  O  O34  1  0.97339865  0.01549643  0.76846536  1
  O  O35  1  0.82058346  0.33333456  0.46515722  1
  O  O36  1  0.02158410  0.89942002  0.97643401  1
  O  O37  1  0.31098151  0.12494258  0.32972231  1
  O  O38  1  0.48639190  0.58978780  0.16671477  1
  O  O39  1  0.11141232  0.20218935  0.54800366  1
  O  O40  1  0.18174308  0.84924259  0.68192569  1
  O  O41  1  0.13333866  0.66461123  0.23212141  1
  O  O42  1  0.63063110  0.72904186  0.67367059  1
  O  O43  1  0.98123872  0.45931259  0.65413765  1
  O  O44  1  0.39961132  0.64906961  0.44327537  1
  O  O45  1  0.42326530  0.15569027  0.57471003  1
  O  O46  1  0.72714328  0.01243175  0.84942915  1
  O  O47  1  0.83339742  0.20419049  0.26472802  1
  O  O48  1  0.52646469  0.51905000  0.60822593  1
  O  O49  1  0.55872305  0.91568020  0.99096075  1
  O  O50  1  0.12275941  0.67924132  0.49612174  1
  O  O51  1  0.46763448  0.92873133  0.77360695  1
  O  O52  1  0.69105293  0.28364548  0.06193029  1
  O  O53  1  0.89336017  0.73563013  0.42574663  1
  O  O54  1  0.27490724  0.33563714  0.63132485  1
  O  O55  1  0.21441571  0.87295783  0.40638015  1
  O  O56  1  0.38104891  0.70125607  0.69776517  1
  O  O57  1  0.79031600  0.95713877  0.12225924  1
  O  O58  1  0.92046885  0.41722268  0.93393233  1
  O  O59  1  0.91406938  0.25253275  0.66859271  1
  O  O60  1  0.97093688  0.65276435  0.74951390  1
  O  O61  1  0.84733184  0.46038814  0.19165396  1
  O  O62  1  0.62009294  0.38370885  0.30763700  1
  O  O63  1  0.45193195  0.39510479  0.81554927  1
  O  O64  1  0.90182252  0.13581194  0.03184961  1
  O  O65  1  0.43964175  0.86722602  0.51606007  1
  O  O66  1  0.66793622  0.76251443  0.14603804  1
  O  O67  1  0.11864769  0.10450672  0.07489426  1
loop_
_geom_bond_atom_site_label_1
_geom_bond_atom_site_label_2
_geom_bond_distance
_geom_bond_site_symmetry_2
Hf0 O6 2.073024 1_555
Hf0 O48 2.090889 1_555
Hf0 O5 2.095191 1_555
Hf0 O16 2.108120 1_555
Hf0 O42 2.193282 1_555
Hf0 O56 2.310032 1_555
Hf0 O63 2.421067 1_555
Hf1 O38 1.977819 1_555
Hf1 O12 1.978815 1_555
Hf1 O44 2.127866 1_555
Hf1 O1 2.163584 1_555
Hf1 O62 2.216437 1_555
Hf1 O27 2.229807 1_555
Hf2 O61 1.979017 1_555
Hf2 O35 2.068360 1_555
Hf2 O27 2.069036 1_555
Hf2 O21 2.154146 1_555
Hf2 O7 2.229110 1_555
Hf2 O62 2.246516 1_555
Hf3 O12 1.941713 1_555
Hf3 O21 2.055384 1_455
Hf3 O41 2.106422 1_555
Hf3 O33 2.137779 1_555
Hf3 O10 2.197066 1_555
Hf3 O0 2.500195 1_555
Hf4 O46 2.006839 1_554
Hf4 O64 2.063219 1_555
Hf4 O13 2.110987 1_555
Hf4 O57 2.191513 1_545
Hf4 O52 2.216691 1_555
Hf4 O24 2.228983 1_554
Hf4 O17 2.360063 1_554
Hf5 O27 1.978760 1_555
Hf5 O44 2.045913 1_555
Hf5 O42 2.048288 1_555
Hf5 O31 2.202008 1_555
Hf5 O65 2.313642 1_555
Hf5 O48 2.346472 1_555
Hf6 O45 1.958220 1_555
Hf6 O65 1.976299 1_545
Hf6 O3 2.044005 1_555
Hf6 O4 2.047219 1_545
Hf6 O51 2.621459 1_545
Hf7 O17 1.971284 1_555
Hf7 O30 1.977269 1_556
Hf7 O49 1.996442 1_545
Hf7 O18 2.094576 1_545
Hf7 O51 2.298100 1_545
Hf8 O58 1.959140 1_455
Hf8 O26 2.031706 1_456
Hf8 O20 2.032289 1_555
Hf8 O60 2.034548 1_455
Hf8 O0 2.245794 1_556
Hf8 O15 2.398292 1_555
Hf9 O29 1.923888 1_555
Hf9 O54 2.012903 1_555
Hf9 O43 2.050292 1_455
Hf9 O39 2.146247 1_555
Hf9 O59 2.177292 1_455
Hf9 O20 2.252382 1_555
Hf10 O9 2.089484 1_545
Hf10 O14 2.094522 1_655
Hf10 O67 2.109217 1_655
Hf10 O19 2.218713 1_645
Hf10 O57 2.226517 1_545
Hf10 O64 2.280489 1_555
Hf10 O28 2.290140 1_545
Hf10 O36 2.517724 1_644
Hf10 O47 2.889750 1_555
Hf11 O41 2.000111 1_555
Hf11 O53 2.044136 1_455
Hf11 O55 2.135010 1_555
Hf11 O9 2.159602 1_455
Hf11 O28 2.162926 1_455
Hf11 O50 2.218816 1_555
Hf11 O19 2.291278 1_555
Hf12 O26 1.994549 1_555
Hf12 O66 2.008223 1_555
Hf12 O32 2.012827 1_554
Hf12 O28 2.020507 1_555
Hf12 O57 2.129011 1_555
Hf12 O36 2.536711 1_654
Hf13 O48 2.027652 1_555
Hf13 O54 2.056788 1_555
Hf13 O22 2.067905 1_555
Hf13 O1 2.071332 1_555
Hf13 O63 2.154449 1_555
Hf13 O45 2.381444 1_555
Hf14 O25 2.005613 1_555
Hf14 O14 2.020559 1_655
Hf14 O39 2.084169 1_655
Hf14 O35 2.154236 1_555
Hf14 O47 2.383546 1_555
Hf14 O10 2.494917 1_655
Hf15 O39 2.043870 1_555
Hf15 O37 2.047004 1_555
Hf15 O1 2.054087 1_555
Hf15 O10 2.077479 1_555
Hf15 O54 2.136627 1_555
Hf15 O45 2.219392 1_555
Hf16 O11 1.991434 1_555
Hf16 O19 2.011598 1_555
Hf16 O30 2.038006 1_565
Hf16 O37 2.044995 1_565
Hf16 O55 2.081077 1_555
Hf17 O7 2.024807 1_555
Hf17 O59 2.042986 1_555
Hf17 O43 2.141848 1_555
Hf17 O35 2.151557 1_555
Hf17 O22 2.151986 1_555
Hf17 O5 2.195068 1_555
Hf18 O41 2.059976 1_555
Hf18 O15 2.120672 1_554
Hf18 O26 2.186032 1_455
Hf18 O28 2.209947 1_455
Hf18 O19 2.253800 1_555
Hf18 O36 2.259200 1_554
Hf18 O2 2.275582 1_555
Hf18 O0 2.318099 1_555
Hf19 O50 2.014273 1_555
Hf19 O55 2.040387 1_555
Hf19 O40 2.079937 1_555
Hf19 O44 2.099352 1_555
Hf19 O65 2.143609 1_555
Hf19 O56 2.221680 1_555
Hf20 O38 1.917167 1_555
Hf20 O16 2.046598 1_554
Hf20 O2 2.103884 1_555
Hf20 O66 2.220867 1_555
Hf20 O6 2.311003 1_554
Hf20 O49 2.395753 1_554
Hf20 O11 2.437202 1_555
Hf21 O24 1.951904 1_555
Hf21 O17 2.046480 1_555
Hf21 O5 2.087830 1_555
Hf21 O63 2.167667 1_555
Hf21 O52 2.177371 1_556
Hf21 O22 2.373825 1_555
Hf22 O47 1.926051 1_555
Hf22 O62 1.991497 1_555
Hf22 O13 2.042676 1_555
Hf22 O3 2.091997 1_555
Hf22 O52 2.517915 1_555
Hf23 O56 2.021654 1_555
Hf23 O40 2.028084 1_555
Hf23 O15 2.075579 1_555
Hf23 O2 2.162453 1_556
Hf23 O18 2.181064 1_555
Hf23 O51 2.228658 1_555
Hf24 O23 2.039864 1_555
Hf24 O60 2.059137 1_555
Hf24 O32 2.083457 1_555
Hf24 O34 2.165662 1_565
Hf24 O15 2.189968 1_655
Hf24 O40 2.245343 1_655
Hf24 O36 2.314097 1_655
Hf25 O46 2.043646 1_565
Hf25 O16 2.060005 1_555
Hf25 O51 2.097464 1_555
Hf25 O32 2.124593 1_555
Hf25 O42 2.134625 1_555
Hf25 O49 2.286624 1_555
Hf25 O4 2.334938 1_555
Hf26 O11 1.996822 1_555
Hf26 O66 2.075218 1_555
Hf26 O31 2.091661 1_555
Hf26 O13 2.109160 1_565
Hf26 O57 2.163252 1_555
Hf26 O3 2.513606 1_565
Hf27 O8 1.967920 1_556
Hf27 O20 2.012925 1_555
Hf27 O6 2.027456 1_555
Hf27 O0 2.041350 1_556
Hf27 O63 2.235383 1_555
Hf28 O50 2.037076 1_655
Hf28 O7 2.061231 1_555
Hf28 O53 2.080137 1_555
Hf28 O60 2.080631 1_555
Hf28 O43 2.142553 1_555
Hf28 O21 2.385116 1_555
Hf28 O23 2.416848 1_555
Hf29 O9 1.979926 1_555
Hf29 O23 1.983073 1_555
Hf29 O31 2.094782 1_555
Hf29 O53 2.132198 1_555
Hf29 O25 2.141580 1_565
Hf29 O4 2.248108 1_555
Hf30 O58 1.963425 1_554
Hf30 O61 1.972364 1_555
Hf30 O33 2.040441 1_655
Hf30 O52 2.218417 1_555
Hf30 O64 2.264983 1_555
Hf30 O47 2.448934 1_555
Hf31 O67 2.002658 1_555
Hf31 O8 2.023537 1_555
Hf31 O33 2.092245 1_555
Hf31 O14 2.245863 1_555
Hf31 O10 2.246809 1_555
Hf31 O37 2.279984 1_555
Hf31 O30 2.347655 1_555
Hf32 O29 1.914068 1_555
Hf32 O67 1.982171 1_556
Hf32 O18 2.014957 1_545
Hf32 O34 2.092265 1_455
Hf32 O36 2.188369 1_545
Hf32 O64 2.462458 1_456
Hf33 O34 1.992021 1_555
Hf33 O59 2.035408 1_555
Hf33 O46 2.059997 1_555
Hf33 O24 2.117869 1_555
Hf33 O25 2.131715 1_555
Hf33 O4 2.270798 1_545
Hf33 O22 2.905437 1_555
