# generated using pymatgen
data_LiVP4(H2O7)2
_symmetry_space_group_name_H-M   'P 1'
_cell_length_a   7.32070403
_cell_length_b   9.72382835
_cell_length_c   8.35107660
_cell_angle_alpha   69.39754332
_cell_angle_beta   102.11270466
_cell_angle_gamma   76.94636353
_symmetry_Int_Tables_number   1
_chemical_formula_structural   LiVP4(H2O7)2
_chemical_formula_sum   'Li2 V2 P8 H8 O28'
_cell_volume   514.06675070
_cell_formula_units_Z   2
loop_
 _symmetry_equiv_pos_site_id
 _symmetry_equiv_pos_as_xyz
  1  'x, y, z'
loop_
 _atom_site_type_symbol
 _atom_site_label
 _atom_site_symmetry_multiplicity
 _atom_site_fract_x
 _atom_site_fract_y
 _atom_site_fract_z
 _atom_site_occupancy
  Li  Li0  1  0.48450100  0.76534300  0.24087000  1
  Li  Li1  1  0.51543300  0.23441600  0.75906500  1
  V  V0  1  0.99996500  0.50000000  0.50003100  1
  V  V1  1  0.99995800  0.99994800  0.99996500  1
  P  P0  1  0.17923700  0.10528800  0.62460900  1
  P  P1  1  0.18085300  0.60462100  0.12477100  1
  P  P2  1  0.81915600  0.39546200  0.87524700  1
  P  P3  1  0.82070300  0.89475100  0.37531300  1
  P  P4  1  0.60573900  0.88220700  0.87951600  1
  P  P5  1  0.60560100  0.38268800  0.38004000  1
  P  P6  1  0.39447000  0.61738300  0.62003200  1
  P  P7  1  0.39433600  0.11777500  0.12047900  1
  H  H0  1  0.74211400  0.84466200  0.67894200  1
  H  H1  1  0.73762000  0.34487000  0.17828300  1
  H  H2  1  0.26236100  0.65508800  0.82177800  1
  H  H3  1  0.25780400  0.15526700  0.32100700  1
  H  H4  1  0.97113900  0.47684100  0.16164100  1
  H  H5  1  0.97154300  0.97564000  0.66137000  1
  H  H6  1  0.02830700  0.02441900  0.33859700  1
  H  H7  1  0.02902700  0.52310100  0.83859900  1
  O  O0  1  0.13208600  0.26982300  0.60919600  1
  O  O1  1  0.13150400  0.77052800  0.10681800  1
  O  O2  1  0.86832300  0.22962600  0.89298900  1
  O  O3  1  0.86801100  0.73018500  0.39081800  1
  O  O4  1  0.14585200  0.08557000  0.45024800  1
  O  O5  1  0.14885400  0.58416600  0.95100300  1
  O  O6  1  0.85127200  0.41573300  0.04912400  1
  O  O7  1  0.85399300  0.91449800  0.54963900  1
  O  O8  1  0.74037700  0.97729200  0.91209200  1
  O  O9  1  0.74567000  0.47281100  0.41350100  1
  O  O10  1  0.25457900  0.52709500  0.58670000  1
  O  O11  1  0.25965600  0.02274200  0.08781900  1
  O  O12  1  0.43763400  0.71993800  0.46421500  1
  O  O13  1  0.43619000  0.22093500  0.96427400  1
  O  O14  1  0.56387200  0.77904300  0.03569100  1
  O  O15  1  0.56231100  0.28012800  0.53574500  1
  O  O16  1  0.40462900  0.02701300  0.74178200  1
  O  O17  1  0.40520800  0.52866700  0.24339100  1
  O  O18  1  0.59485000  0.47149700  0.75664800  1
  O  O19  1  0.59533500  0.97286200  0.25811300  1
  O  O20  1  0.67922800  0.79259000  0.77049500  1
  O  O21  1  0.67408200  0.29297500  0.26897500  1
  O  O22  1  0.32580900  0.70708500  0.73103000  1
  O  O23  1  0.32080100  0.20732700  0.22952800  1
  O  O24  1  0.05450400  0.01860200  0.73796800  1
  O  O25  1  0.05548500  0.51886400  0.23793700  1
  O  O26  1  0.94465600  0.48113700  0.76219200  1
  O  O27  1  0.94535900  0.98150000  0.26191700  1
loop_
_geom_bond_atom_site_label_1
_geom_bond_atom_site_label_2
_geom_bond_distance
_geom_bond_site_symmetry_2
Li0 O12 1.883868 1_555
Li0 O14 1.893009 1_555
Li0 O11 2.369012 1_565
Li0 O19 2.376125 1_555
Li0 O17 2.491651 1_555
Li1 O15 1.883492 1_555
Li1 O13 1.893148 1_555
Li1 O8 2.367359 1_545
Li1 O16 2.375038 1_555
Li1 O18 2.496120 1_555
H0 O20 1.016587 1_555
H0 O7 1.550585 1_555
H1 O21 1.014653 1_555
H1 O6 1.563011 1_555
H2 O22 1.014822 1_555
H2 O5 1.562726 1_555
H3 O23 1.016721 1_555
H3 O4 1.550239 1_555
H4 O25 1.042261 1_655
H4 O6 1.512767 1_555
H5 O24 1.045080 1_665
H5 O7 1.499730 1_555
H6 O27 1.045149 1_445
H6 O4 1.499347 1_555
H7 O26 1.042517 1_455
H7 O5 1.511697 1_555
O0 P0 1.510757 1_555
O0 V0 1.998050 1_455
O1 P1 1.516360 1_555
O1 V1 1.992049 1_454
O2 P2 1.516292 1_555
O2 V1 1.994229 1_545
O3 P3 1.510761 1_555
O3 V0 1.997936 1_555
O4 P0 1.511630 1_555
O5 P1 1.510559 1_556
O6 P2 1.510530 1_554
O7 P3 1.511496 1_555
O8 P4 1.541598 1_555
O8 V1 1.978862 1_555
O9 P5 1.534770 1_555
O9 V0 1.962122 1_555
O10 P6 1.534782 1_555
O10 V0 1.964042 1_455
O11 P7 1.541595 1_555
O11 V1 1.980222 1_444
O12 P6 1.479600 1_555
O13 P7 1.479006 1_556
O14 P4 1.478902 1_554
O15 P5 1.479486 1_555
O16 P0 1.578085 1_555
O16 P4 1.638992 1_545
O17 P1 1.574392 1_555
O17 P5 1.638922 1_555
O18 P2 1.574070 1_555
O18 P6 1.638435 1_555
O19 P3 1.577952 1_555
O19 P7 1.638790 1_565
O20 P4 1.558797 1_555
O21 P5 1.561930 1_555
O22 P6 1.561797 1_555
O23 P7 1.558677 1_555
O24 P0 1.609162 1_555
O24 V1 2.258226 1_445
O25 P1 1.608083 1_555
O25 V0 2.261419 1_455
O26 P2 1.608029 1_555
O26 V0 2.261349 1_555
O27 P3 1.609140 1_555
O27 V1 2.258456 1_554
