# generated using pymatgen
data_Zn(N3O8)2
_symmetry_space_group_name_H-M   'P 1'
_cell_length_a   8.15383100
_cell_length_b   8.34121988
_cell_length_c   11.81554612
_cell_angle_alpha   102.70924610
_cell_angle_beta   90.00000000
_cell_angle_gamma   90.00000000
_symmetry_Int_Tables_number   1
_chemical_formula_structural   Zn(N3O8)2
_chemical_formula_sum   'Zn2 N12 O32'
_cell_volume   783.92033053
_cell_formula_units_Z   2
loop_
 _symmetry_equiv_pos_site_id
 _symmetry_equiv_pos_as_xyz
  1  'x, y, z'
loop_
 _atom_site_type_symbol
 _atom_site_label
 _atom_site_symmetry_multiplicity
 _atom_site_fract_x
 _atom_site_fract_y
 _atom_site_fract_z
 _atom_site_occupancy
  Zn  Zn0  1  0.00000000  0.00000000  0.00000000  1
  Zn  Zn1  1  0.50000000  0.50000000  0.50000000  1
  N  N0  1  0.28384700  0.72291700  0.08721200  1
  N  N1  1  0.21615300  0.22291700  0.58721200  1
  N  N2  1  0.71615300  0.27708300  0.91278800  1
  N  N3  1  0.78384700  0.77708300  0.41278800  1
  N  N4  1  0.45141300  0.72728600  0.08526400  1
  N  N5  1  0.04858700  0.22728700  0.58526400  1
  N  N6  1  0.54858700  0.27271300  0.91473600  1
  N  N7  1  0.95141300  0.77271400  0.41473600  1
  N  N8  1  0.22030000  0.60529600  0.13935600  1
  N  N9  1  0.27970000  0.10529600  0.63935600  1
  N  N10  1  0.77970000  0.39470400  0.86064400  1
  N  N11  1  0.72030000  0.89470400  0.36064400  1
  O  O0  1  0.82524700  0.82855000  0.94507500  1
  O  O1  1  0.67475300  0.32855000  0.44507500  1
  O  O2  1  0.17475300  0.17145000  0.05492500  1
  O  O3  1  0.32524700  0.67145000  0.55492500  1
  O  O4  1  0.82854500  0.93552200  0.87673700  1
  O  O5  1  0.67145500  0.43552200  0.37673700  1
  O  O6  1  0.17145500  0.06447800  0.12326300  1
  O  O7  1  0.32854500  0.56447800  0.62326300  1
  O  O8  1  0.17739700  0.83798800  0.87541900  1
  O  O9  1  0.32260300  0.33798800  0.37541900  1
  O  O10  1  0.82260300  0.16201200  0.12458100  1
  O  O11  1  0.67739700  0.66201200  0.62458100  1
  O  O12  1  0.62901600  0.78389800  0.69588300  1
  O  O13  1  0.87098400  0.28389800  0.19588300  1
  O  O14  1  0.37098400  0.21610200  0.30411700  1
  O  O15  1  0.12901600  0.71610200  0.80411700  1
  O  O16  1  0.51071200  0.83791300  0.04226200  1
  O  O17  1  0.98928800  0.33791300  0.54226200  1
  O  O18  1  0.48928800  0.16208700  0.95773800  1
  O  O19  1  0.01071200  0.66208700  0.45773800  1
  O  O20  1  0.54431700  0.62846600  0.12165400  1
  O  O21  1  0.95568300  0.12846600  0.62165400  1
  O  O22  1  0.45568300  0.37153400  0.87834600  1
  O  O23  1  0.04431700  0.87153400  0.37834600  1
  O  O24  1  0.06827300  0.59718800  0.13903400  1
  O  O25  1  0.43172700  0.09718800  0.63903400  1
  O  O26  1  0.93172700  0.40281200  0.86096600  1
  O  O27  1  0.56827300  0.90281200  0.36096600  1
  O  O28  1  0.30637200  0.51158000  0.18580700  1
  O  O29  1  0.19362800  0.01158000  0.68580700  1
  O  O30  1  0.69362800  0.48842000  0.81419300  1
  O  O31  1  0.80637200  0.98842000  0.31419300  1
loop_
_geom_bond_atom_site_label_1
_geom_bond_atom_site_label_2
_geom_bond_distance
_geom_bond_site_symmetry_2
N0 N4 1.367120 1_555
N0 N8 1.369892 1_555
N1 N5 1.367120 1_555
N1 N9 1.369892 1_555
N2 N6 1.367120 1_555
N3 N7 1.367120 1_555
N4 O16 1.244883 1_555
N4 O20 1.262575 1_555
N5 O17 1.244876 1_455
N5 O21 1.262581 1_455
N6 O18 1.244876 1_555
N6 O22 1.262581 1_555
N7 O19 1.244883 1_655
N7 O23 1.262575 1_655
N8 O24 1.241406 1_555
N8 O28 1.262386 1_555
N9 O25 1.241406 1_555
N9 O29 1.262386 1_555
N10 O26 1.241406 1_555
N10 O30 1.262386 1_555
N10 N2 1.369892 1_555
N11 O27 1.241406 1_555
N11 O31 1.262386 1_555
N11 N3 1.369892 1_555
O0 O4 1.328860 1_555
O0 Zn0 2.021965 1_666
O1 O5 1.328860 1_555
O1 Zn1 2.021965 1_555
O2 O6 1.328860 1_555
O2 Zn0 2.021965 1_555
O3 O7 1.328860 1_555
O3 Zn1 2.021965 1_555
O4 Zn0 2.005044 1_666
O5 Zn1 2.005044 1_555
O6 Zn0 2.005044 1_555
O7 Zn1 2.005044 1_555
O8 Zn0 2.282537 1_566
O9 Zn1 2.282537 1_555
O10 O13 1.233750 1_555
O10 Zn0 2.282537 1_655
O11 O12 1.233750 1_555
O11 Zn1 2.282537 1_555
O14 O9 1.233750 1_555
O15 O8 1.233750 1_555
