# generated using pymatgen
data_Sr3Y2FeCu3BiO12
_symmetry_space_group_name_H-M   'P 1'
_cell_length_a   5.41346385
_cell_length_b   5.41324182
_cell_length_c   10.37331425
_cell_angle_alpha   90.00000000
_cell_angle_beta   74.87462003
_cell_angle_gamma   90.00000000
_symmetry_Int_Tables_number   1
_chemical_formula_structural   Sr3Y2FeCu3BiO12
_chemical_formula_sum   'Sr3 Y2 Fe1 Cu3 Bi1 O12'
_cell_volume   293.45277339
_cell_formula_units_Z   1
loop_
 _symmetry_equiv_pos_site_id
 _symmetry_equiv_pos_as_xyz
  1  'x, y, z'
loop_
 _atom_site_type_symbol
 _atom_site_label
 _atom_site_symmetry_multiplicity
 _atom_site_fract_x
 _atom_site_fract_y
 _atom_site_fract_z
 _atom_site_occupancy
  Sr  Sr0  1  0.17830900  0.00000000  0.64338200  1
  Sr  Sr1  1  0.81976800  0.00000000  0.36046300  1
  Sr  Sr2  1  0.32020400  0.50000000  0.35959300  1
  Y  Y0  1  0.50385000  0.50000000  0.99230000  1
  Y  Y1  1  0.00128000  0.00000000  0.99744000  1
  Fe  Fe0  1  0.40377300  0.00000000  0.19245400  1
  Cu  Cu0  1  0.58674600  0.00000000  0.82650700  1
  Cu  Cu1  1  0.08638800  0.50000000  0.82722500  1
  Cu  Cu2  1  0.91820600  0.50000000  0.16358700  1
  Bi  Bi0  1  0.68843700  0.50000000  0.62312700  1
  O  O0  1  0.31933600  0.24828700  0.85701700  1
  O  O1  1  0.82364700  0.75171300  0.85701700  1
  O  O2  1  0.82364700  0.24828700  0.85701700  1
  O  O3  1  0.31933600  0.75171300  0.85701700  1
  O  O4  1  0.17878700  0.24809600  0.14712700  1
  O  O5  1  0.67408600  0.75190400  0.14712700  1
  O  O6  1  0.67408600  0.24809600  0.14712700  1
  O  O7  1  0.17878700  0.75190400  0.14712700  1
  O  O8  1  0.19937200  0.50000000  0.60125500  1
  O  O9  1  0.69913200  0.00000000  0.60173700  1
  O  O10  1  0.30806400  0.00000000  0.38387200  1
  O  O11  1  0.79475800  0.50000000  0.41048300  1
loop_
_geom_bond_atom_site_label_1
_geom_bond_atom_site_label_2
_geom_bond_distance
_geom_bond_site_symmetry_2
Fe0 O10 1.916851 1_555
Fe0 O4 1.951155 1_555
Fe0 O7 1.951155 1_545
Fe0 O5 1.951155 1_545
Fe0 O6 1.951155 1_555
Cu0 O0 1.939870 1_555
Cu0 O3 1.939870 1_545
Cu0 O2 1.939874 1_555
Cu0 O1 1.939874 1_545
Cu0 O9 2.250836 1_555
Cu1 O3 1.935402 1_555
Cu1 O0 1.935402 1_555
Cu1 O1 1.935406 1_455
Cu1 O2 1.935406 1_455
Cu1 O8 2.262853 1_555
Cu2 O6 1.937219 1_555
Cu2 O5 1.937219 1_555
Cu2 O4 1.937223 1_655
Cu2 O7 1.937223 1_655
Cu2 O11 2.472405 1_555
Bi0 O11 2.129407 1_555
Bi0 O9 2.715083 1_555
Bi0 O9 2.715083 1_565
Bi0 O8 2.715574 1_655
Bi0 O8 2.715584 1_555
O0 Y0 2.356950 1_555
O0 Y1 2.363040 1_555
O0 Sr0 2.860651 1_555
O1 Y0 2.356950 1_555
O1 Y1 2.363040 1_665
O1 Sr0 2.860651 1_665
O2 Y0 2.356950 1_555
O2 Y1 2.363040 1_655
O2 Sr0 2.860651 1_655
O3 Y0 2.356950 1_555
O3 Y1 2.363040 1_565
O3 Sr0 2.860651 1_565
O4 Y1 2.432435 1_554
O4 Y0 2.461830 1_554
O4 Sr2 2.860693 1_555
O4 Sr1 2.869461 1_455
O5 Y1 2.432435 1_664
O5 Y0 2.461830 1_554
O5 Sr2 2.860691 1_555
O5 Sr1 2.869458 1_565
O6 Y1 2.432435 1_654
O6 Y0 2.461830 1_554
O6 Sr2 2.860691 1_555
O6 Sr1 2.869458 1_555
O7 Y1 2.432435 1_564
O7 Y0 2.461830 1_554
O7 Sr2 2.860693 1_555
O7 Sr1 2.869461 1_465
O8 Sr2 2.419992 1_555
O8 Sr0 2.739299 1_565
O8 Sr0 2.739299 1_555
O9 Sr1 2.416106 1_555
O9 Sr0 2.738667 1_655
O9 Sr0 2.738673 1_555
O10 Sr0 2.598721 1_555
O10 Sr1 2.716861 1_555
O10 Sr1 2.716866 1_455
O10 Sr2 2.717519 1_555
O10 Sr2 2.717519 1_545
O11 Sr1 2.752580 1_565
O11 Sr1 2.752580 1_555
O11 Sr2 2.754282 1_555
O11 Sr2 2.754293 1_655
