# generated using pymatgen
data_Sr6Y3Fe(Cu4O11)2
_symmetry_space_group_name_H-M   'P 1'
_cell_length_a   3.77269900
_cell_length_b   11.65099000
_cell_length_c   12.16286729
_cell_angle_alpha   71.38282544
_cell_angle_beta   90.00000000
_cell_angle_gamma   90.00000000
_symmetry_Int_Tables_number   1
_chemical_formula_structural   Sr6Y3Fe(Cu4O11)2
_chemical_formula_sum   'Sr6 Y3 Fe1 Cu8 O22'
_cell_volume   506.65152181
_cell_formula_units_Z   1
loop_
 _symmetry_equiv_pos_site_id
 _symmetry_equiv_pos_as_xyz
  1  'x, y, z'
loop_
 _atom_site_type_symbol
 _atom_site_label
 _atom_site_symmetry_multiplicity
 _atom_site_fract_x
 _atom_site_fract_y
 _atom_site_fract_z
 _atom_site_occupancy
  Sr  Sr0  1  0.50000000  0.10580100  0.17231100  1
  Sr  Sr1  1  0.50000000  0.77946800  0.17211600  1
  Sr  Sr2  1  0.50000000  0.43978300  0.18043500  1
  Sr  Sr3  1  0.50000000  0.89419900  0.82768900  1
  Sr  Sr4  1  0.50000000  0.56021700  0.81956500  1
  Sr  Sr5  1  0.50000000  0.22053200  0.82788400  1
  Y  Y0  1  0.50000000  0.00000000  0.50000000  1
  Y  Y1  1  0.50000000  0.66664100  0.49933100  1
  Y  Y2  1  0.50000000  0.33335900  0.50066900  1
  Fe  Fe0  1  0.00000000  0.00000000  0.00000000  1
  Cu  Cu0  1  0.00000000  0.21774300  0.34613500  1
  Cu  Cu1  1  0.00000000  0.88415100  0.34799800  1
  Cu  Cu2  1  0.00000000  0.55138700  0.34612000  1
  Cu  Cu3  1  0.00000000  0.11584900  0.65200200  1
  Cu  Cu4  1  0.00000000  0.78225700  0.65386500  1
  Cu  Cu5  1  0.00000000  0.44861300  0.65388000  1
  Cu  Cu6  1  0.00000000  0.33668400  0.00001800  1
  Cu  Cu7  1  0.00000000  0.66331600  0.99998200  1
  O  O0  1  0.00000000  0.04286200  0.37316600  1
  O  O1  1  0.00000000  0.70832600  0.37334900  1
  O  O2  1  0.00000000  0.37605000  0.37190900  1
  O  O3  1  0.50000000  0.20864000  0.37669400  1
  O  O4  1  0.50000000  0.87384100  0.37846000  1
  O  O5  1  0.50000000  0.54028500  0.37678200  1
  O  O6  1  0.00000000  0.95713800  0.62683400  1
  O  O7  1  0.00000000  0.62395000  0.62809100  1
  O  O8  1  0.00000000  0.29167400  0.62665100  1
  O  O9  1  0.50000000  0.12615900  0.62154000  1
  O  O10  1  0.50000000  0.79136000  0.62330600  1
  O  O11  1  0.50000000  0.45971500  0.62321800  1
  O  O12  1  0.00000000  0.28055600  0.16352500  1
  O  O13  1  0.00000000  0.94376500  0.16861800  1
  O  O14  1  0.00000000  0.61046900  0.16346900  1
  O  O15  1  0.00000000  0.05623500  0.83138200  1
  O  O16  1  0.00000000  0.71944400  0.83647500  1
  O  O17  1  0.00000000  0.38953100  0.83653100  1
  O  O18  1  0.50000000  0.00000000  0.00000000  1
  O  O19  1  0.00000000  0.17712500  0.00003100  1
  O  O20  1  0.00000000  0.50000000  0.00000000  1
  O  O21  1  0.00000000  0.82287500  0.99996900  1
loop_
_geom_bond_atom_site_label_1
_geom_bond_atom_site_label_2
_geom_bond_distance
_geom_bond_site_symmetry_2
Fe0 O18 1.886349 1_455
Fe0 O18 1.886349 1_555
Fe0 O13 1.943562 1_545
Fe0 O15 1.943562 1_554
Fe0 O21 2.063802 1_544
Fe0 O19 2.063802 1_555
Cu0 O3 1.918995 1_455
Cu0 O3 1.918995 1_555
Cu0 O0 1.957532 1_555
Cu0 O2 1.967075 1_555
Cu0 O12 2.104962 1_555
Cu1 O4 1.918750 1_455
Cu1 O4 1.918750 1_555
Cu1 O0 1.968360 1_565
Cu1 O1 1.971870 1_555
Cu1 O13 2.067610 1_555
Cu2 O5 1.919200 1_555
Cu2 O5 1.919200 1_455
Cu2 O1 1.959521 1_555
Cu2 O2 1.965323 1_555
Cu2 O14 2.105415 1_555
Cu3 O9 1.918750 1_455
Cu3 O9 1.918750 1_555
Cu3 O6 1.968360 1_545
Cu3 O8 1.971870 1_555
Cu3 O15 2.067610 1_555
Cu4 O10 1.918995 1_555
Cu4 O10 1.918995 1_455
Cu4 O6 1.957532 1_555
Cu4 O7 1.967075 1_555
Cu4 O16 2.104962 1_555
Cu5 O11 1.919200 1_555
Cu5 O11 1.919200 1_455
Cu5 O8 1.959521 1_555
Cu5 O7 1.965323 1_555
Cu5 O17 2.105415 1_555
Cu6 O19 1.858970 1_555
Cu6 O17 1.884516 1_554
Cu6 O12 1.884746 1_555
Cu6 O20 1.902723 1_555
Cu7 O21 1.858970 1_555
Cu7 O14 1.884516 1_556
Cu7 O16 1.884746 1_555
Cu7 O20 1.902723 1_556
O0 Y0 2.386553 1_455
O0 Y0 2.386553 1_555
O0 Sr0 2.986696 1_455
O0 Sr0 2.986696 1_555
O1 Y1 2.380543 1_555
O1 Y1 2.380543 1_455
O1 Sr1 2.990089 1_455
O1 Sr1 2.990089 1_555
O2 Y2 2.400208 1_555
O2 Y2 2.400208 1_455
O2 Sr2 2.903309 1_455
O2 Sr2 2.903309 1_555
O3 Y2 2.405044 1_555
O3 Y0 2.414669 1_555
O3 Sr2 2.974239 1_555
O3 Sr0 3.084962 1_555
O4 Y1 2.392300 1_555
O4 Y0 2.394409 1_565
O4 Sr0 3.043704 1_565
O4 Sr1 3.044617 1_555
O5 Y2 2.400714 1_555
O5 Y1 2.406259 1_555
O5 Sr2 2.976542 1_555
O5 Sr1 3.087609 1_555
O6 Y0 2.386553 1_465
O6 Y0 2.386553 1_565
O6 Sr3 2.986696 1_455
O6 Sr3 2.986696 1_555
O7 Y1 2.400208 1_455
O7 Y1 2.400208 1_555
O7 Sr4 2.903309 1_555
O7 Sr4 2.903309 1_455
O8 Y2 2.380543 1_555
O8 Y2 2.380543 1_455
O8 Sr5 2.990089 1_455
O8 Sr5 2.990089 1_555
O9 Y2 2.392300 1_555
O9 Y0 2.394409 1_555
O9 Sr3 3.043704 1_545
O9 Sr5 3.044617 1_555
O10 Y1 2.405044 1_555
O10 Y0 2.414669 1_565
O10 Sr4 2.974239 1_555
O10 Sr3 3.084962 1_555
O11 Y1 2.400714 1_555
O11 Y2 2.406259 1_555
O11 Sr4 2.976542 1_555
O11 Sr5 3.087609 1_555
O12 Sr2 2.699227 1_455
O12 Sr2 2.699227 1_555
O12 Sr0 2.752524 1_455
O12 Sr0 2.752524 1_555
O13 Sr1 2.678129 1_455
O13 Sr1 2.678129 1_555
O13 Sr0 2.679284 1_565
O13 Sr0 2.679284 1_465
O14 Sr2 2.700676 1_455
O14 Sr2 2.700676 1_555
O14 Sr1 2.752922 1_555
O14 Sr1 2.752922 1_455
O15 Sr5 2.678129 1_555
O15 Sr5 2.678129 1_455
O15 Sr3 2.679284 1_445
O15 Sr3 2.679284 1_545
O16 Sr4 2.699227 1_455
O16 Sr4 2.699227 1_555
O16 Sr3 2.752524 1_455
O16 Sr3 2.752524 1_555
O17 Sr4 2.700676 1_455
O17 Sr4 2.700676 1_555
O17 Sr5 2.752922 1_555
O17 Sr5 2.752922 1_455
O18 Sr1 2.747723 1_545
O18 Sr5 2.747723 1_554
O18 Sr0 2.749796 1_555
O18 Sr3 2.749796 1_544
O19 Sr5 2.742624 1_454
O19 Sr5 2.742624 1_554
O19 Sr0 2.743695 1_555
O19 Sr0 2.743695 1_455
O20 Sr4 2.807803 1_554
O20 Sr2 2.807803 1_455
O20 Sr2 2.807803 1_555
O20 Sr4 2.807803 1_454
O21 Sr1 2.742624 1_556
O21 Sr1 2.742624 1_456
O21 Sr3 2.743695 1_455
O21 Sr3 2.743695 1_555
