# generated using pymatgen
data_Fe3Ge2
_symmetry_space_group_name_H-M   'P 1'
_cell_length_a   4.01018158
_cell_length_b   4.01018158
_cell_length_c   4.88318300
_cell_angle_alpha   90.00000000
_cell_angle_beta   90.00000000
_cell_angle_gamma   119.99999306
_symmetry_Int_Tables_number   1
_chemical_formula_structural   Fe3Ge2
_chemical_formula_sum   'Fe3 Ge2'
_cell_volume   68.00827159
_cell_formula_units_Z   1
loop_
 _symmetry_equiv_pos_site_id
 _symmetry_equiv_pos_as_xyz
  1  'x, y, z'
loop_
 _atom_site_type_symbol
 _atom_site_label
 _atom_site_symmetry_multiplicity
 _atom_site_fract_x
 _atom_site_fract_y
 _atom_site_fract_z
 _atom_site_occupancy
  Fe  Fe0  1  0.66666700  0.33333300  0.33440000  1
  Fe  Fe1  1  0.33333300  0.66666700  0.66560000  1
  Fe  Fe2  1  0.00000000  0.00000000  0.50000000  1
  Ge  Ge0  1  0.66666700  0.33333300  0.83343100  1
  Ge  Ge1  1  0.33333300  0.66666700  0.16656900  1
loop_
_geom_bond_atom_site_label_1
_geom_bond_atom_site_label_2
_geom_bond_distance
_geom_bond_site_symmetry_2
Fe0 Ge0 2.436860 1_555
Fe0 Ge0 2.446323 1_554
Fe0 Fe2 2.452434 1_655
Fe0 Fe2 2.452437 1_665
Fe0 Fe2 2.452437 1_555
Fe0 Ge1 2.456048 1_545
Fe0 Ge1 2.456048 1_655
Fe0 Ge1 2.456054 1_555
Fe1 Ge1 2.436860 1_555
Fe1 Ge1 2.446323 1_556
Fe1 Fe2 2.452434 1_565
Fe1 Fe2 2.452437 1_665
Fe1 Fe2 2.452437 1_555
Fe1 Ge0 2.456048 1_455
Fe1 Ge0 2.456048 1_565
Fe1 Ge0 2.456054 1_555
Fe2 Ge1 2.830470 1_545
Fe2 Ge0 2.830470 1_455
Fe2 Ge0 2.830473 1_555
Fe2 Ge0 2.830473 1_445
Fe2 Ge1 2.830473 1_445
Fe2 Ge1 2.830473 1_555
