# generated using pymatgen
data_KSrLaMnO6
_symmetry_space_group_name_H-M   'P 1'
_cell_length_a   8.47793408
_cell_length_b   8.43688606
_cell_length_c   8.39845185
_cell_angle_alpha   90.00000000
_cell_angle_beta   90.00000000
_cell_angle_gamma   90.00000000
_symmetry_Int_Tables_number   1
_chemical_formula_structural   KSrLaMnO6
_chemical_formula_sum   'K4 Sr4 La4 Mn4 O24'
_cell_volume   600.71912131
_cell_formula_units_Z   4
loop_
 _symmetry_equiv_pos_site_id
 _symmetry_equiv_pos_as_xyz
  1  'x, y, z'
loop_
 _atom_site_type_symbol
 _atom_site_label
 _atom_site_symmetry_multiplicity
 _atom_site_fract_x
 _atom_site_fract_y
 _atom_site_fract_z
 _atom_site_occupancy
  K  K0  1  -0.00000000  0.50000000  0.50000000  1
  K  K1  1  0.50000000  0.50000000  0.00000000  1
  K  K2  1  0.50000000  0.00000000  0.00000000  1
  K  K3  1  -0.00000000  -0.00000000  0.50000000  1
  Sr  Sr0  1  0.50000000  0.00000000  0.50000000  1
  Sr  Sr1  1  -0.00000000  0.50000000  0.00000000  1
  Sr  Sr2  1  -0.00000000  0.00000000  0.00000000  1
  Sr  Sr3  1  0.50000000  0.50000000  0.50000000  1
  La  La0  1  0.75000000  0.75000000  0.75000000  1
  La  La1  1  0.25000000  0.25000000  0.75000000  1
  La  La2  1  0.25000000  0.75000000  0.25000000  1
  La  La3  1  0.75000000  0.25000000  0.25000000  1
  Mn  Mn0  1  0.25000000  0.25000000  0.25000000  1
  Mn  Mn1  1  0.75000000  0.75000000  0.25000000  1
  Mn  Mn2  1  0.75000000  0.25000000  0.75000000  1
  Mn  Mn3  1  0.25000000  0.75000000  0.75000000  1
  O  O0  1  0.02645692  0.22660545  0.25653446  1
  O  O1  1  0.97354308  0.77339455  0.25653446  1
  O  O2  1  0.97354308  0.22660545  0.74346554  1
  O  O3  1  0.02645692  0.77339455  0.74346554  1
  O  O4  1  0.26779944  0.02713469  0.23041407  1
  O  O5  1  0.26779944  0.97286531  0.76958593  1
  O  O6  1  0.73220056  0.97286531  0.23041407  1
  O  O7  1  0.73220056  0.02713469  0.76958593  1
  O  O8  1  0.21192799  0.26956162  0.02372904  1
  O  O9  1  0.78807201  0.26956162  0.97627096  1
  O  O10  1  0.21192799  0.73043838  0.97627096  1
  O  O11  1  0.78807201  0.73043838  0.02372904  1
  O  O12  1  0.47354308  0.27339455  0.24346554  1
  O  O13  1  0.52645692  0.72660545  0.24346554  1
  O  O14  1  0.52645692  0.27339455  0.75653446  1
  O  O15  1  0.47354308  0.72660545  0.75653446  1
  O  O16  1  0.23220056  0.47286531  0.26958593  1
  O  O17  1  0.23220056  0.52713469  0.73041407  1
  O  O18  1  0.76779944  0.52713469  0.26958593  1
  O  O19  1  0.76779944  0.47286531  0.73041407  1
  O  O20  1  0.28807201  0.23043838  0.47627096  1
  O  O21  1  0.71192799  0.23043838  0.52372904  1
  O  O22  1  0.28807201  0.76956162  0.52372904  1
  O  O23  1  0.71192799  0.76956162  0.47627096  1
loop_
_geom_bond_atom_site_label_1
_geom_bond_atom_site_label_2
_geom_bond_distance
_geom_bond_site_symmetry_2
K0 O16 2.769913 1_555
K0 O17 2.769913 1_555
K0 O18 2.769913 1_455
K0 O19 2.769913 1_455
K0 O1 3.090573 1_455
K0 O0 3.090573 1_555
K0 O3 3.090573 1_555
K0 O2 3.090573 1_455
K1 O12 2.808273 1_555
K1 O13 2.808273 1_555
K1 O14 2.808273 1_554
K1 O15 2.808273 1_554
K1 O9 3.127966 1_554
K1 O8 3.127966 1_555
K1 O10 3.127966 1_554
K1 O11 3.127966 1_555
K1 O18 3.214534 1_555
K1 O19 3.214534 1_554
K1 O16 3.214534 1_555
K1 O17 3.214534 1_554
K2 O7 2.769913 1_554
K2 O5 2.769913 1_544
K2 O4 2.769913 1_555
K2 O6 2.769913 1_545
K2 O15 3.090573 1_544
K2 O14 3.090573 1_554
K2 O13 3.090573 1_545
K2 O12 3.090573 1_555
K3 O3 2.808273 1_545
K3 O1 2.808273 1_445
K3 O0 2.808273 1_555
K3 O2 2.808273 1_455
K3 O20 3.127966 1_555
K3 O21 3.127966 1_455
K3 O22 3.127966 1_545
K3 O23 3.127966 1_445
K3 O4 3.214534 1_555
K3 O5 3.214534 1_545
K3 O7 3.214534 1_455
K3 O6 3.214534 1_445
La0 O23 2.327308 1_555
La0 O11 2.327308 1_556
La0 O7 2.348785 1_565
La0 O19 2.348785 1_555
La0 O3 2.352720 1_655
La0 O15 2.352720 1_555
La1 O20 2.327308 1_555
La1 O8 2.327308 1_556
La1 O5 2.348785 1_545
La1 O17 2.348785 1_555
La1 O2 2.352720 1_455
La1 O14 2.352720 1_555
La2 O22 2.327308 1_555
La2 O10 2.327308 1_554
La2 O4 2.348785 1_565
La2 O16 2.348785 1_555
La2 O1 2.352720 1_455
La2 O13 2.352720 1_555
La3 O21 2.327308 1_555
La3 O9 2.327308 1_554
La3 O6 2.348785 1_545
La3 O18 2.348785 1_555
La3 O12 2.352720 1_555
La3 O0 2.352720 1_655
Mn0 O16 1.893493 1_555
Mn0 O4 1.893493 1_555
Mn0 O12 1.906224 1_555
Mn0 O0 1.906224 1_555
Mn0 O8 1.934595 1_555
Mn0 O20 1.934595 1_555
Mn1 O6 1.893493 1_555
Mn1 O18 1.893493 1_555
Mn1 O1 1.906224 1_555
Mn1 O13 1.906224 1_555
Mn1 O11 1.934595 1_555
Mn1 O23 1.934595 1_555
Mn2 O19 1.893493 1_555
Mn2 O7 1.893493 1_555
Mn2 O2 1.906224 1_555
Mn2 O14 1.906224 1_555
Mn2 O21 1.934595 1_555
Mn2 O9 1.934595 1_555
Mn3 O5 1.893493 1_555
Mn3 O17 1.893493 1_555
Mn3 O3 1.906224 1_555
Mn3 O15 1.906224 1_555
Mn3 O10 1.934595 1_555
Mn3 O22 1.934595 1_555
O0 Sr2 2.889169 1_555
O0 Sr1 3.164261 1_555
O1 Sr2 2.889169 1_665
O1 Sr1 3.164261 1_655
O2 Sr2 2.889169 1_656
O2 Sr1 3.164261 1_656
O3 Sr2 2.889169 1_566
O3 Sr1 3.164261 1_556
O4 Sr2 2.991949 1_555
O4 Sr0 3.008968 1_555
O5 Sr2 2.991949 1_566
O5 Sr0 3.008968 1_565
O6 Sr2 2.991949 1_665
O6 Sr0 3.008968 1_565
O7 Sr2 2.991949 1_656
O7 Sr0 3.008968 1_555
O8 Sr1 2.654757 1_555
O8 Sr2 2.905194 1_555
O9 Sr1 2.654757 1_656
O9 Sr2 2.905194 1_656
O10 Sr1 2.654757 1_556
O10 Sr2 2.905194 1_566
O11 Sr1 2.654757 1_655
O11 Sr2 2.905194 1_665
O12 Sr3 2.889169 1_555
O12 Sr0 3.164261 1_555
O13 Sr3 2.889169 1_555
O13 Sr0 3.164261 1_565
O14 Sr3 2.889169 1_555
O14 Sr0 3.164261 1_555
O15 Sr3 2.889169 1_555
O15 Sr0 3.164261 1_565
O16 Sr3 2.991949 1_555
O16 Sr1 3.008968 1_555
O17 Sr3 2.991949 1_555
O17 Sr1 3.008968 1_556
O18 Sr3 2.991949 1_555
O18 Sr1 3.008968 1_655
O19 Sr3 2.991949 1_555
O19 Sr1 3.008968 1_656
O20 Sr0 2.654757 1_555
O20 Sr3 2.905194 1_555
O21 Sr0 2.654757 1_555
O21 Sr3 2.905194 1_555
O22 Sr0 2.654757 1_565
O22 Sr3 2.905194 1_555
O23 Sr0 2.654757 1_565
O23 Sr3 2.905194 1_555
