# generated using pymatgen
data_Mg14BiB
_symmetry_space_group_name_H-M   'P 1'
_cell_length_a   6.38824110
_cell_length_b   6.55754526
_cell_length_c   9.98308362
_cell_angle_alpha   90.00000000
_cell_angle_beta   90.00000000
_cell_angle_gamma   120.88064199
_symmetry_Int_Tables_number   1
_chemical_formula_structural   Mg14BiB
_chemical_formula_sum   'Mg14 Bi1 B1'
_cell_volume   358.91799020
_cell_formula_units_Z   1
loop_
 _symmetry_equiv_pos_site_id
 _symmetry_equiv_pos_as_xyz
  1  'x, y, z'
loop_
 _atom_site_type_symbol
 _atom_site_label
 _atom_site_symmetry_multiplicity
 _atom_site_fract_x
 _atom_site_fract_y
 _atom_site_fract_z
 _atom_site_occupancy
  Mg  Mg0  1  0.17398748  0.33699324  0.62500000  1
  Mg  Mg1  1  0.17683117  0.83841508  0.62500000  1
  Mg  Mg2  1  0.70504660  0.34767238  0.12500000  1
  Mg  Mg3  1  0.66759042  0.32770050  0.62500000  1
  Mg  Mg4  1  0.70504660  0.85737322  0.12500000  1
  Mg  Mg5  1  0.66759042  0.83988892  0.62500000  1
  Mg  Mg6  1  0.32732062  0.18227581  0.35913694  1
  Mg  Mg7  1  0.32732062  0.18227581  0.89086306  1
  Mg  Mg8  1  0.32732062  0.64504581  0.35913694  1
  Mg  Mg9  1  0.32732062  0.64504581  0.89086306  1
  Mg  Mg10  1  0.84667566  0.17333833  0.36390035  1
  Mg  Mg11  1  0.84667566  0.17333833  0.88609965  1
  Mg  Mg12  1  0.82961798  0.66480949  0.38224804  1
  Mg  Mg13  1  0.82961798  0.66480949  0.86775196  1
  Bi  Bi0  1  0.17261328  0.83630614  0.12500000  1
  B  B0  1  0.06942427  0.28471163  0.12500000  1
loop_
_geom_bond_atom_site_label_1
_geom_bond_atom_site_label_2
_geom_bond_distance
_geom_bond_site_symmetry_2
Mg0 Mg11 3.164585 1_455
Mg0 Mg10 3.164585 1_455
Mg0 Mg6 3.170707 1_555
Mg0 Mg7 3.170707 1_555
Mg0 Mg8 3.170713 1_555
Mg0 Mg9 3.170713 1_555
Mg0 Mg5 3.184960 1_555
Mg0 Mg3 3.184960 1_555
Mg0 Mg5 3.204137 1_445
Mg0 Mg3 3.204137 1_455
Mg0 Mg1 3.278810 1_555
Mg0 Mg1 3.278810 1_545
Mg1 Mg12 3.081686 1_455
Mg1 Mg13 3.081686 1_455
Mg1 Mg3 3.130139 1_565
Mg1 Mg5 3.130139 1_555
Mg1 Mg3 3.258123 1_455
Mg1 Mg5 3.258124 1_455
Mg1 Mg8 3.290574 1_555
Mg1 Mg9 3.290574 1_555
Mg1 Mg7 3.290581 1_565
Mg1 Mg6 3.290581 1_565
Mg3 Mg5 3.198847 1_545
Mg3 Mg6 3.248238 1_555
Mg3 Mg7 3.248238 1_555
Mg3 Mg5 3.358699 1_555
Mg5 Mg8 3.248237 1_555
Mg5 Mg9 3.248237 1_555
Mg10 Mg3 3.211921 1_555
Mg10 Mg5 3.211928 1_545
Mg10 Mg12 3.285216 1_545
Mg10 Mg12 3.285216 1_555
Mg11 Mg3 3.211921 1_555
Mg11 Mg5 3.211928 1_545
Mg11 Mg13 3.285216 1_545
Mg11 Mg13 3.285216 1_555
Mg12 Mg5 3.079329 1_555
Mg12 Mg3 3.079336 1_555
Mg12 Mg4 3.139205 1_555
Mg12 Mg2 3.139212 1_555
Mg12 Mg6 3.152700 1_555
Mg12 Mg8 3.152700 1_555
Mg12 Mg6 3.256052 1_665
Mg12 Mg8 3.256052 1_655
Mg13 Mg5 3.079329 1_555
Mg13 Mg3 3.079336 1_555
Mg13 Mg4 3.139205 1_556
Mg13 Mg2 3.139212 1_556
Mg13 Mg7 3.152700 1_555
Mg13 Mg9 3.152700 1_555
Mg13 Mg7 3.256052 1_665
Mg13 Mg9 3.256052 1_655
Bi0 Mg9 3.047233 1_554
Bi0 Mg8 3.047233 1_555
Bi0 Mg7 3.047241 1_564
Bi0 Mg6 3.047241 1_565
Bi0 Mg2 3.060131 1_455
Bi0 Mg4 3.060131 1_455
Bi0 Mg12 3.183022 1_455
Bi0 Mg13 3.183022 1_454
Bi0 Mg2 3.332517 1_565
Bi0 Mg4 3.332517 1_555
B0 Mg4 2.564237 1_445
B0 Mg2 2.564238 1_455
B0 Mg11 2.679458 1_454
B0 Mg10 2.679458 1_455
