# generated using pymatgen
data_Ce3UO8
_symmetry_space_group_name_H-M   'P 1'
_cell_length_a   12.74175838
_cell_length_b   12.74175838
_cell_length_c   12.74175869
_cell_angle_alpha   17.50789590
_cell_angle_beta   17.50789590
_cell_angle_gamma   17.50789430
_symmetry_Int_Tables_number   1
_chemical_formula_structural   Ce3UO8
_chemical_formula_sum   'Ce3 U1 O8'
_cell_volume   163.39830241
_cell_formula_units_Z   1
loop_
 _symmetry_equiv_pos_site_id
 _symmetry_equiv_pos_as_xyz
  1  'x, y, z'
loop_
 _atom_site_type_symbol
 _atom_site_label
 _atom_site_symmetry_multiplicity
 _atom_site_fract_x
 _atom_site_fract_y
 _atom_site_fract_z
 _atom_site_occupancy
  Ce  Ce0  1  0.24998600  0.24998600  0.24998600  1
  Ce  Ce1  1  0.50000000  0.50000000  0.50000000  1
  Ce  Ce2  1  0.75001400  0.75001400  0.75001400  1
  U  U0  1  0.00000000  0.00000000  0.00000000  1
  O  O0  1  0.81161300  0.81161300  0.81161300  1
  O  O1  1  0.05708300  0.05708300  0.05708300  1
  O  O2  1  0.31593500  0.31593500  0.31593500  1
  O  O3  1  0.56481000  0.56481000  0.56481000  1
  O  O4  1  0.43519000  0.43519000  0.43519000  1
  O  O5  1  0.68406500  0.68406500  0.68406500  1
  O  O6  1  0.94291700  0.94291700  0.94291700  1
  O  O7  1  0.18838700  0.18838700  0.18838700  1
loop_
_geom_bond_atom_site_label_1
_geom_bond_atom_site_label_2
_geom_bond_distance
_geom_bond_site_symmetry_2
Ce0 O7 2.317994 1_555
Ce0 O3 2.345007 1_545
Ce0 O3 2.345007 1_455
Ce0 O3 2.345008 1_554
Ce0 O6 2.447599 1_454
Ce0 O6 2.447599 1_544
Ce0 O6 2.447599 1_445
Ce0 O2 2.481687 1_555
Ce1 O7 2.383691 1_655
Ce1 O7 2.383691 1_565
Ce1 O0 2.383691 1_545
Ce1 O0 2.383691 1_455
Ce1 O7 2.383691 1_556
Ce1 O0 2.383691 1_554
Ce1 O4 2.438826 1_555
Ce1 O3 2.438826 1_555
Ce2 O0 2.317994 1_555
Ce2 O4 2.345007 1_655
Ce2 O4 2.345007 1_565
Ce2 O4 2.345008 1_556
Ce2 O1 2.447599 1_656
Ce2 O1 2.447599 1_566
Ce2 O1 2.447599 1_665
Ce2 O5 2.481687 1_555
O1 U0 2.148056 1_555
O2 U0 2.332931 1_655
O2 U0 2.332931 1_565
O2 U0 2.332932 1_556
O5 U0 2.332931 1_656
O5 U0 2.332931 1_566
O5 U0 2.332932 1_665
O6 U0 2.148056 1_666
