# generated using pymatgen
data_LuCo5P3
_symmetry_space_group_name_H-M   'P 1'
_cell_length_a   3.61187700
_cell_length_b   10.22218600
_cell_length_c   11.66397500
_cell_angle_alpha   90.00000000
_cell_angle_beta   90.00000000
_cell_angle_gamma   90.00000000
_symmetry_Int_Tables_number   1
_chemical_formula_structural   LuCo5P3
_chemical_formula_sum   'Lu4 Co20 P12'
_cell_volume   430.64886943
_cell_formula_units_Z   4
loop_
 _symmetry_equiv_pos_site_id
 _symmetry_equiv_pos_as_xyz
  1  'x, y, z'
loop_
 _atom_site_type_symbol
 _atom_site_label
 _atom_site_symmetry_multiplicity
 _atom_site_fract_x
 _atom_site_fract_y
 _atom_site_fract_z
 _atom_site_occupancy
  Lu  Lu0  1  0.25000000  0.58283700  0.70332200  1
  Lu  Lu1  1  0.25000000  0.91716300  0.20332200  1
  Lu  Lu2  1  0.75000000  0.41716300  0.29667800  1
  Lu  Lu3  1  0.75000000  0.08283700  0.79667800  1
  Co  Co0  1  0.25000000  0.71624400  0.98988400  1
  Co  Co1  1  0.25000000  0.78375600  0.48988400  1
  Co  Co2  1  0.75000000  0.28375600  0.01011600  1
  Co  Co3  1  0.75000000  0.21624400  0.51011600  1
  Co  Co4  1  0.25000000  0.40693100  0.48668400  1
  Co  Co5  1  0.25000000  0.09306900  0.98668400  1
  Co  Co6  1  0.75000000  0.59306900  0.51331600  1
  Co  Co7  1  0.75000000  0.90693100  0.01331600  1
  Co  Co8  1  0.25000000  0.22086000  0.17648100  1
  Co  Co9  1  0.25000000  0.27914000  0.67648100  1
  Co  Co10  1  0.75000000  0.77914000  0.82351900  1
  Co  Co11  1  0.75000000  0.72086000  0.32351900  1
  Co  Co12  1  0.25000000  0.88286600  0.69859400  1
  Co  Co13  1  0.25000000  0.61713400  0.19859400  1
  Co  Co14  1  0.75000000  0.11713400  0.30140600  1
  Co  Co15  1  0.75000000  0.38286600  0.80140600  1
  Co  Co16  1  0.25000000  0.46704800  0.93137700  1
  Co  Co17  1  0.25000000  0.03295200  0.43137700  1
  Co  Co18  1  0.75000000  0.53295200  0.06862300  1
  Co  Co19  1  0.75000000  0.96704800  0.56862300  1
  P  P0  1  0.25000000  0.41815200  0.11297900  1
  P  P1  1  0.25000000  0.08184800  0.61297900  1
  P  P2  1  0.75000000  0.58184800  0.88702100  1
  P  P3  1  0.75000000  0.91815200  0.38702100  1
  P  P4  1  0.25000000  0.26890600  0.86967200  1
  P  P5  1  0.25000000  0.23109400  0.36967200  1
  P  P6  1  0.75000000  0.73109400  0.13032800  1
  P  P7  1  0.75000000  0.76890600  0.63032800  1
  P  P8  1  0.25000000  0.60032100  0.39040700  1
  P  P9  1  0.25000000  0.89967900  0.89040700  1
  P  P10  1  0.75000000  0.39967900  0.60959300  1
  P  P11  1  0.75000000  0.10032100  0.10959300  1
loop_
_geom_bond_atom_site_label_1
_geom_bond_atom_site_label_2
_geom_bond_distance
_geom_bond_site_symmetry_2
Lu0 P7 2.757539 1_555
Lu0 P7 2.757539 1_455
Lu0 P2 2.802233 1_455
Lu0 P2 2.802233 1_555
Lu0 P10 2.821707 1_555
Lu0 P10 2.821707 1_455
Lu1 P6 2.757539 1_455
Lu1 P6 2.757539 1_555
Lu1 P3 2.802233 1_555
Lu1 P3 2.802233 1_455
Lu1 P11 2.821707 1_565
Lu1 P11 2.821707 1_465
Lu2 P5 2.757539 1_655
Lu2 P5 2.757539 1_555
Lu2 P0 2.802233 1_655
Lu2 P0 2.802233 1_555
Lu2 P8 2.821707 1_555
Lu2 P8 2.821707 1_655
Lu3 P4 2.757539 1_655
Lu3 P4 2.757539 1_555
Lu3 P1 2.802233 1_655
Lu3 P1 2.802233 1_555
Lu3 P9 2.821707 1_545
Lu3 P9 2.821707 1_645
Co0 P9 2.205066 1_555
Co0 P6 2.442938 1_556
Co0 P6 2.442938 1_456
Co0 P2 2.566768 1_455
Co0 P2 2.566768 1_555
Co0 Lu1 3.227384 1_556
Co1 P8 2.205066 1_555
Co1 P7 2.442938 1_555
Co1 P7 2.442938 1_455
Co1 P3 2.566768 1_455
Co1 P3 2.566768 1_555
Co1 Lu0 3.227384 1_555
Co2 P11 2.205066 1_555
Co2 P4 2.442938 1_654
Co2 P4 2.442938 1_554
Co2 P0 2.566768 1_555
Co2 P0 2.566768 1_655
Co2 Lu3 3.227384 1_554
Co3 P10 2.205066 1_555
Co3 P5 2.442938 1_655
Co3 P5 2.442938 1_555
Co3 P1 2.566768 1_655
Co3 P1 2.566768 1_555
Co3 Lu2 3.227384 1_555
Co4 P5 2.256886 1_555
Co4 P8 2.273560 1_555
Co4 P10 2.306976 1_555
Co4 P10 2.306976 1_455
Co4 Lu2 2.860771 1_455
Co4 Lu2 2.860771 1_555
Co4 Lu0 3.101345 1_555
Co5 P4 2.256886 1_555
Co5 P9 2.273560 1_545
Co5 P11 2.306976 1_456
Co5 P11 2.306976 1_556
Co5 Lu3 2.860771 1_455
Co5 Lu3 2.860771 1_555
Co5 Lu1 3.101345 1_546
Co6 P7 2.256886 1_555
Co6 P10 2.273560 1_555
Co6 P8 2.306976 1_555
Co6 P8 2.306976 1_655
Co6 Lu0 2.860771 1_555
Co6 Lu0 2.860771 1_655
Co6 Lu2 3.101345 1_555
Co7 P6 2.256886 1_555
Co7 P11 2.273560 1_565
Co7 P9 2.306976 1_654
Co7 P9 2.306976 1_554
Co7 Lu1 2.860771 1_655
Co7 Lu1 2.860771 1_555
Co7 Lu3 3.101345 1_564
Co8 P0 2.148469 1_555
Co8 P5 2.255802 1_555
Co8 P11 2.321280 1_455
Co8 P11 2.321280 1_555
Co8 Lu2 3.041969 1_555
Co8 Lu2 3.041969 1_455
Co8 Lu1 3.120193 1_545
Co9 P1 2.148469 1_555
Co9 P4 2.255802 1_555
Co9 P10 2.321280 1_555
Co9 P10 2.321280 1_455
Co9 Lu3 3.041969 1_455
Co9 Lu3 3.041969 1_555
Co9 Lu0 3.120193 1_555
Co10 P2 2.148469 1_555
Co10 P7 2.255802 1_555
Co10 P9 2.321280 1_555
Co10 P9 2.321280 1_655
Co10 Lu0 3.041969 1_555
Co10 Lu0 3.041969 1_655
Co10 Lu3 3.120193 1_565
Co11 P3 2.148469 1_555
Co11 P6 2.255802 1_555
Co11 P8 2.321280 1_555
Co11 P8 2.321280 1_655
Co11 Lu1 3.041969 1_655
Co11 Lu1 3.041969 1_555
Co11 Lu2 3.120193 1_555
Co12 P9 2.243894 1_555
Co12 P1 2.265945 1_565
Co12 P7 2.291827 1_555
Co12 P7 2.291827 1_455
Co12 Lu3 2.957833 1_465
Co12 Lu3 2.957833 1_565
Co12 Lu0 3.067448 1_555
Co13 P8 2.243894 1_555
Co13 P0 2.265945 1_555
Co13 P6 2.291827 1_555
Co13 P6 2.291827 1_455
Co13 Lu2 2.957833 1_455
Co13 Lu2 2.957833 1_555
Co13 Lu1 3.067448 1_555
Co14 P11 2.243894 1_555
Co14 P3 2.265945 1_545
Co14 P5 2.291827 1_555
Co14 P5 2.291827 1_655
Co14 Lu1 2.957833 1_645
Co14 Lu1 2.957833 1_545
Co14 Lu2 3.067448 1_555
Co15 P10 2.243894 1_555
Co15 P2 2.265945 1_555
Co15 P4 2.291827 1_555
Co15 P4 2.291827 1_655
Co15 Lu0 2.957833 1_555
Co15 Lu0 2.957833 1_655
Co15 Lu3 3.067448 1_555
Co16 P4 2.149519 1_555
Co16 P0 2.176373 1_556
Co16 P2 2.214995 1_555
Co16 P2 2.214995 1_455
Co16 Lu0 2.911477 1_555
Co17 P5 2.149519 1_555
Co17 P1 2.176373 1_555
Co17 P3 2.214995 1_445
Co17 P3 2.214995 1_545
Co17 Lu1 2.911477 1_545
Co18 P6 2.149519 1_555
Co18 P2 2.176373 1_554
Co18 P0 2.214995 1_555
Co18 P0 2.214995 1_655
Co18 Lu2 2.911477 1_555
Co19 P7 2.149519 1_555
Co19 P3 2.176373 1_555
Co19 P1 2.214995 1_665
Co19 P1 2.214995 1_565
Co19 Lu3 2.911477 1_565
