# generated using pymatgen
data_GdAlZn
_symmetry_space_group_name_H-M   'P 1'
_cell_length_a   4.49768195
_cell_length_b   4.49918534
_cell_length_c   7.18415207
_cell_angle_alpha   90.00817620
_cell_angle_beta   89.99203847
_cell_angle_gamma   119.98514106
_symmetry_Int_Tables_number   1
_chemical_formula_structural   GdAlZn
_chemical_formula_sum   'Gd2 Al2 Zn2'
_cell_volume   125.91972749
_cell_formula_units_Z   2
loop_
 _symmetry_equiv_pos_site_id
 _symmetry_equiv_pos_as_xyz
  1  'x, y, z'
loop_
 _atom_site_type_symbol
 _atom_site_label
 _atom_site_symmetry_multiplicity
 _atom_site_fract_x
 _atom_site_fract_y
 _atom_site_fract_z
 _atom_site_occupancy
  Gd  Gd0  1  0.00000286  0.00000860  0.49998815  1
  Gd  Gd1  1  0.00000217  0.00000760  0.00001012  1
  Al  Al0  1  0.33340897  0.66678501  0.25000046  1
  Al  Al1  1  0.66658652  0.33318495  0.74996655  1
  Zn  Zn0  1  0.33337535  0.66677404  0.75000959  1
  Zn  Zn1  1  0.66662612  0.33323980  0.25002712  1
loop_
_geom_bond_atom_site_label_1
_geom_bond_atom_site_label_2
_geom_bond_distance
_geom_bond_site_symmetry_2
Gd0 Zn1 3.157247 1_555
Gd0 Zn1 3.157430 1_455
Gd0 Zn0 3.157507 1_445
Gd0 Zn0 3.157674 1_545
Gd0 Zn1 3.158418 1_445
Gd0 Zn0 3.158654 1_555
Gd1 Zn0 3.157108 1_544
Gd1 Zn1 3.157180 1_455
Gd1 Zn0 3.157650 1_444
Gd1 Zn1 3.157708 1_555
Gd1 Zn0 3.158821 1_554
Gd1 Zn1 3.158893 1_445
Al0 Zn1 2.597169 1_565
Al0 Zn1 2.597351 1_555
Al0 Zn1 2.597580 1_455
Al0 Gd0 3.157129 1_565
Al0 Gd1 3.157270 1_665
Al0 Gd0 3.157492 1_665
Al0 Gd1 3.157619 1_565
Al0 Gd1 3.158565 1_555
Al0 Gd0 3.158801 1_555
Al1 Zn0 2.596998 1_545
Al1 Zn0 2.597498 1_555
Al1 Zn0 2.597603 1_655
Al1 Gd0 3.156972 1_655
Al1 Gd0 3.157422 1_555
Al1 Gd1 3.157459 1_556
Al1 Gd1 3.157720 1_656
Al1 Gd0 3.158914 1_665
Al1 Gd1 3.158927 1_666
