# generated using pymatgen
data_U2B6Os
_symmetry_space_group_name_H-M   'P 1'
_cell_length_a   3.59245100
_cell_length_b   9.31605500
_cell_length_c   11.39649800
_cell_angle_alpha   90.00000000
_cell_angle_beta   90.00000000
_cell_angle_gamma   90.00000000
_symmetry_Int_Tables_number   1
_chemical_formula_structural   U2B6Os
_chemical_formula_sum   'U8 B24 Os4'
_cell_volume   381.41196747
_cell_formula_units_Z   4
loop_
 _symmetry_equiv_pos_site_id
 _symmetry_equiv_pos_as_xyz
  1  'x, y, z'
loop_
 _atom_site_type_symbol
 _atom_site_label
 _atom_site_symmetry_multiplicity
 _atom_site_fract_x
 _atom_site_fract_y
 _atom_site_fract_z
 _atom_site_occupancy
  U  U0  1  0.00000000  0.33737900  0.40702300  1
  U  U1  1  0.00000000  0.66262100  0.59297700  1
  U  U2  1  0.00000000  0.83737900  0.09297700  1
  U  U3  1  0.00000000  0.16262100  0.90702300  1
  U  U4  1  0.00000000  0.95694700  0.39556900  1
  U  U5  1  0.00000000  0.04305300  0.60443100  1
  U  U6  1  0.00000000  0.45694700  0.10443100  1
  U  U7  1  0.00000000  0.54305300  0.89556900  1
  B  B0  1  0.50000000  0.54930800  0.43356000  1
  B  B1  1  0.50000000  0.45069200  0.56644000  1
  B  B2  1  0.50000000  0.04930800  0.06644000  1
  B  B3  1  0.50000000  0.95069200  0.93356000  1
  B  B4  1  0.50000000  0.74224600  0.42379000  1
  B  B5  1  0.50000000  0.25775400  0.57621000  1
  B  B6  1  0.50000000  0.24224600  0.07621000  1
  B  B7  1  0.50000000  0.75775400  0.92379000  1
  B  B8  1  0.50000000  0.80521100  0.27278800  1
  B  B9  1  0.50000000  0.19478900  0.72721200  1
  B  B10  1  0.50000000  0.30521100  0.22721200  1
  B  B11  1  0.50000000  0.69478900  0.77278800  1
  B  B12  1  0.50000000  0.64570800  0.18873000  1
  B  B13  1  0.50000000  0.35429200  0.81127000  1
  B  B14  1  0.50000000  0.14570800  0.31127000  1
  B  B15  1  0.50000000  0.85429200  0.68873000  1
  B  B16  1  0.50000000  0.98499900  0.21893400  1
  B  B17  1  0.50000000  0.01500100  0.78106600  1
  B  B18  1  0.50000000  0.48499900  0.28106600  1
  B  B19  1  0.50000000  0.51500100  0.71893400  1
  B  B20  1  0.50000000  0.64455900  0.04020000  1
  B  B21  1  0.50000000  0.35544100  0.95980000  1
  B  B22  1  0.50000000  0.14455900  0.45980000  1
  B  B23  1  0.50000000  0.85544100  0.54020000  1
  Os  Os0  1  0.00000000  0.64453600  0.31959900  1
  Os  Os1  1  0.00000000  0.35546400  0.68040100  1
  Os  Os2  1  0.00000000  0.14453600  0.18040100  1
  Os  Os3  1  0.00000000  0.85546400  0.81959900  1
loop_
_geom_bond_atom_site_label_1
_geom_bond_atom_site_label_2
_geom_bond_distance
_geom_bond_site_symmetry_2
U4 U5 2.511828 1_565
U6 U7 2.511828 1_554
B0 B1 1.771253 1_555
B0 B4 1.800866 1_555
B0 B18 1.838264 1_555
B0 Os0 2.387515 1_555
B0 Os0 2.387515 1_655
B0 U0 2.686246 1_555
B0 U0 2.686246 1_655
B0 U1 2.764331 1_655
B0 U1 2.764331 1_555
B1 B5 1.800866 1_555
B1 B19 1.838264 1_555
B1 Os1 2.387515 1_655
B1 Os1 2.387515 1_555
B1 U1 2.686246 1_555
B1 U1 2.686246 1_655
B1 U0 2.764331 1_555
B1 U0 2.764331 1_655
B2 B3 1.771253 1_544
B2 B6 1.800866 1_555
B2 Os2 2.387515 1_655
B2 Os2 2.387515 1_555
B2 U2 2.686246 1_545
B2 U2 2.686246 1_645
B2 U3 2.764331 1_654
B2 U3 2.764331 1_554
B3 B7 1.800866 1_555
B3 Os3 2.387515 1_655
B3 Os3 2.387515 1_555
B3 U3 2.686246 1_665
B3 U3 2.686246 1_565
B3 U2 2.764331 1_656
B3 U2 2.764331 1_556
B4 B8 1.818120 1_555
B4 Os0 2.337727 1_655
B4 Os0 2.337727 1_555
B4 U4 2.707495 1_555
B4 U4 2.707495 1_655
B4 U1 2.737590 1_655
B4 U1 2.737590 1_555
B5 B9 1.818120 1_555
B5 Os1 2.337727 1_655
B5 Os1 2.337727 1_555
B5 U5 2.707495 1_555
B5 U5 2.707495 1_655
B5 U0 2.737590 1_555
B5 U0 2.737590 1_655
B6 Os2 2.337727 1_555
B6 Os2 2.337727 1_655
B6 U6 2.707495 1_555
B6 U6 2.707495 1_655
B6 U3 2.737590 1_654
B6 U3 2.737590 1_554
B7 Os3 2.337727 1_655
B7 Os3 2.337727 1_555
B7 U7 2.707495 1_555
B7 U7 2.707495 1_655
B7 U2 2.737590 1_656
B7 U2 2.737590 1_556
B8 Os0 2.398251 1_655
B8 Os0 2.398251 1_555
B8 U4 2.680038 1_655
B8 U4 2.680038 1_555
B8 U2 2.741445 1_555
B8 U2 2.741445 1_655
B9 Os1 2.398251 1_655
B9 Os1 2.398251 1_555
B9 U5 2.680038 1_555
B9 U5 2.680038 1_655
B9 U3 2.741445 1_655
B9 U3 2.741445 1_555
B10 B14 1.767969 1_555
B10 B18 1.783823 1_555
B10 B6 1.818120 1_555
B10 Os2 2.398251 1_555
B10 Os2 2.398251 1_655
B10 U6 2.680038 1_555
B10 U6 2.680038 1_655
B10 U0 2.741445 1_655
B10 U0 2.741445 1_555
B11 B15 1.767969 1_555
B11 B19 1.783823 1_555
B11 B7 1.818120 1_555
B11 Os3 2.398251 1_555
B11 Os3 2.398251 1_655
B11 U7 2.680038 1_655
B11 U7 2.680038 1_555
B11 U1 2.741445 1_555
B11 U1 2.741445 1_655
B12 B20 1.692756 1_555
B12 B8 1.767969 1_555
B12 B18 1.829994 1_555
B12 Os0 2.334730 1_655
B12 Os0 2.334730 1_555
B12 U6 2.691049 1_555
B12 U6 2.691049 1_655
B12 U2 2.757840 1_555
B12 U2 2.757840 1_655
B13 B21 1.692756 1_555
B13 B9 1.767969 1_555
B13 B19 1.829994 1_555
B13 Os1 2.334730 1_655
B13 Os1 2.334730 1_555
B13 U7 2.691049 1_655
B13 U7 2.691049 1_555
B13 U3 2.757840 1_655
B13 U3 2.757840 1_555
B14 B22 1.692756 1_555
B14 B16 1.829994 1_545
B14 Os2 2.334730 1_555
B14 Os2 2.334730 1_655
B14 U4 2.691049 1_645
B14 U4 2.691049 1_545
B14 U0 2.757840 1_555
B14 U0 2.757840 1_655
B15 B23 1.692756 1_555
B15 B17 1.829994 1_565
B15 Os3 2.334730 1_555
B15 Os3 2.334730 1_655
B15 U5 2.691049 1_565
B15 U5 2.691049 1_665
B15 U1 2.757840 1_555
B15 U1 2.757840 1_655
B16 B8 1.783823 1_555
B16 B2 1.838264 1_565
B16 Os2 2.372388 1_665
B16 Os2 2.372388 1_565
B16 U2 2.679229 1_655
B16 U2 2.679229 1_555
B16 U4 2.710530 1_555
B16 U4 2.710530 1_655
B17 B9 1.783823 1_555
B17 B3 1.838264 1_545
B17 Os3 2.372388 1_645
B17 Os3 2.372388 1_545
B17 U3 2.679229 1_655
B17 U3 2.679229 1_555
B17 U5 2.710530 1_655
B17 U5 2.710530 1_555
B18 Os0 2.372388 1_555
B18 Os0 2.372388 1_655
B18 U0 2.679229 1_655
B18 U0 2.679229 1_555
B18 U6 2.710530 1_555
B18 U6 2.710530 1_655
B19 Os1 2.372388 1_655
B19 Os1 2.372388 1_555
B19 U1 2.679229 1_555
B19 U1 2.679229 1_655
B19 U7 2.710530 1_555
B19 U7 2.710530 1_655
B20 B7 1.694721 1_554
B20 U2 2.610549 1_555
B20 U2 2.610549 1_655
B20 U6 2.610954 1_555
B20 U6 2.610954 1_655
B20 U7 2.614862 1_554
B20 U7 2.614862 1_654
B21 B6 1.694721 1_556
B21 U3 2.610549 1_555
B21 U3 2.610549 1_655
B21 U7 2.610954 1_655
B21 U7 2.610954 1_555
B21 U6 2.614862 1_556
B21 U6 2.614862 1_656
B22 B5 1.694721 1_555
B22 U0 2.610549 1_655
B22 U0 2.610549 1_555
B22 U4 2.610954 1_545
B22 U4 2.610954 1_645
B22 U5 2.614862 1_555
B22 U5 2.614862 1_655
B23 B4 1.694721 1_555
B23 U1 2.610549 1_555
B23 U1 2.610549 1_655
B23 U5 2.610954 1_565
B23 U5 2.610954 1_665
B23 U4 2.614862 1_555
B23 U4 2.614862 1_655
Os0 U6 3.011173 1_555
Os0 U0 3.029984 1_555
Os0 U4 3.036486 1_555
Os0 U1 3.120104 1_555
Os0 U2 3.146087 1_555
Os1 U7 3.011173 1_555
Os1 U1 3.029984 1_555
Os1 U5 3.036486 1_555
Os1 U0 3.120104 1_555
Os1 U3 3.146087 1_555
Os2 U4 3.011173 1_545
Os2 U2 3.029984 1_545
Os2 U6 3.036486 1_555
Os2 U3 3.120104 1_554
Os2 U0 3.146087 1_555
Os3 U5 3.011173 1_565
Os3 U3 3.029984 1_565
Os3 U7 3.036486 1_555
Os3 U2 3.120104 1_556
Os3 U1 3.146087 1_555
