# generated using pymatgen
data_HfMnN2
_symmetry_space_group_name_H-M   'P 1'
_cell_length_a   6.30149500
_cell_length_b   7.37954700
_cell_length_c   4.36235400
_cell_angle_alpha   90.00000000
_cell_angle_beta   90.00000000
_cell_angle_gamma   90.00000000
_symmetry_Int_Tables_number   1
_chemical_formula_structural   HfMnN2
_chemical_formula_sum   'Hf4 Mn4 N8'
_cell_volume   202.85896449
_cell_formula_units_Z   4
loop_
 _symmetry_equiv_pos_site_id
 _symmetry_equiv_pos_as_xyz
  1  'x, y, z'
loop_
 _atom_site_type_symbol
 _atom_site_label
 _atom_site_symmetry_multiplicity
 _atom_site_fract_x
 _atom_site_fract_y
 _atom_site_fract_z
 _atom_site_occupancy
  Hf  Hf0  1  0.59832300  0.37190700  0.93522200  1
  Hf  Hf1  1  0.40167700  0.62809300  0.43522200  1
  Hf  Hf2  1  0.90167700  0.87190700  0.43522200  1
  Hf  Hf3  1  0.09832300  0.12809300  0.93522200  1
  Mn  Mn0  1  0.56897600  0.87147400  0.93526300  1
  Mn  Mn1  1  0.43102400  0.12852600  0.43526300  1
  Mn  Mn2  1  0.93102400  0.37147400  0.43526300  1
  Mn  Mn3  1  0.06897600  0.62852600  0.93526300  1
  N  N0  1  0.58515200  0.38431600  0.43529700  1
  N  N1  1  0.41484800  0.61568400  0.93529700  1
  N  N2  1  0.91484800  0.88431600  0.93529700  1
  N  N3  1  0.08515200  0.11568400  0.43529700  1
  N  N4  1  0.56755100  0.87151200  0.43521700  1
  N  N5  1  0.43244900  0.12848800  0.93521700  1
  N  N6  1  0.93244900  0.37151200  0.93521700  1
  N  N7  1  0.06755100  0.62848800  0.43521700  1
loop_
_geom_bond_atom_site_label_1
_geom_bond_atom_site_label_2
_geom_bond_distance
_geom_bond_site_symmetry_2
Hf0 N5 2.078300 1_555
Hf0 N6 2.105495 1_555
Hf0 N1 2.138456 1_555
Hf0 N0 2.184349 1_555
Hf0 N0 2.185002 1_556
Hf1 N4 2.078300 1_555
Hf1 N7 2.105495 1_555
Hf1 N0 2.138456 1_555
Hf1 N1 2.184349 1_554
Hf1 N1 2.185002 1_555
Hf2 N7 2.078300 1_655
Hf2 N4 2.105495 1_555
Hf2 N3 2.138456 1_665
Hf2 N2 2.184349 1_554
Hf2 N2 2.185002 1_555
Hf3 N6 2.078300 1_455
Hf3 N5 2.105495 1_555
Hf3 N2 2.138456 1_445
Hf3 N3 2.184349 1_555
Hf3 N3 2.185002 1_556
Mn0 N5 2.082649 1_565
Mn0 N1 2.122826 1_555
Mn0 N4 2.180995 1_556
Mn0 N4 2.181396 1_555
Mn0 N2 2.181570 1_555
Mn1 N4 2.082649 1_545
Mn1 N0 2.122826 1_555
Mn1 N5 2.180995 1_555
Mn1 N5 2.181396 1_554
Mn1 N3 2.181570 1_555
Mn2 N7 2.082649 1_655
Mn2 N3 2.122826 1_655
Mn2 N6 2.180995 1_555
Mn2 N6 2.181396 1_554
Mn2 N0 2.181570 1_555
Mn3 N6 2.082649 1_455
Mn3 N2 2.122826 1_455
Mn3 N7 2.180995 1_556
Mn3 N7 2.181396 1_555
Mn3 N1 2.181570 1_555
