# generated using pymatgen
data_ErCo9Si2
_symmetry_space_group_name_H-M   'P 1'
_cell_length_a   6.25726000
_cell_length_b   7.50549520
_cell_length_c   7.50549520
_cell_angle_alpha   79.99349647
_cell_angle_beta   65.36442565
_cell_angle_gamma   65.36442565
_symmetry_Int_Tables_number   1
_chemical_formula_structural   ErCo9Si2
_chemical_formula_sum   'Er2 Co18 Si4'
_cell_volume   291.23873836
_cell_formula_units_Z   2
loop_
 _symmetry_equiv_pos_site_id
 _symmetry_equiv_pos_as_xyz
  1  'x, y, z'
loop_
 _atom_site_type_symbol
 _atom_site_label
 _atom_site_symmetry_multiplicity
 _atom_site_fract_x
 _atom_site_fract_y
 _atom_site_fract_z
 _atom_site_occupancy
  Er  Er0  1  0.37500000  0.25000000  0.75000000  1
  Er  Er1  1  0.62500000  0.75000000  0.25000000  1
  Co  Co0  1  0.12500000  0.75000000  0.25000000  1
  Co  Co1  1  0.87500000  0.25000000  0.75000000  1
  Co  Co2  1  0.55883000  0.57864500  0.66817800  1
  Co  Co3  1  0.55883000  0.16817800  0.07864500  1
  Co  Co4  1  0.13747400  0.42135500  0.16817800  1
  Co  Co5  1  0.13747400  0.66817800  0.92135500  1
  Co  Co6  1  0.80565300  0.33182200  0.42135500  1
  Co  Co7  1  0.80565300  0.92135500  0.83182200  1
  Co  Co8  1  0.72700800  0.83182200  0.57864500  1
  Co  Co9  1  0.72700800  0.07864500  0.33182200  1
  Co  Co10  1  0.44117000  0.42135500  0.33182200  1
  Co  Co11  1  0.44117000  0.83182200  0.92135500  1
  Co  Co12  1  0.86252600  0.57864500  0.83182200  1
  Co  Co13  1  0.86252600  0.33182200  0.07864500  1
  Co  Co14  1  0.19434700  0.66817800  0.57864500  1
  Co  Co15  1  0.19434700  0.07864500  0.16817800  1
  Co  Co16  1  0.27299200  0.16817800  0.42135500  1
  Co  Co17  1  0.27299200  0.92135500  0.66817800  1
  Si  Si0  1  0.50000000  0.50000000  0.00000000  1
  Si  Si1  1  0.00000000  0.50000000  0.50000000  1
  Si  Si2  1  0.00000000  0.00000000  0.00000000  1
  Si  Si3  1  0.00000000  0.00000000  0.50000000  1
loop_
_geom_bond_atom_site_label_1
_geom_bond_atom_site_label_2
_geom_bond_distance
_geom_bond_site_symmetry_2
Co0 Si2 2.535702 1_565
Co0 Si3 2.535702 1_565
Co0 Si0 2.535702 1_555
Co0 Si1 2.535702 1_555
Co0 Co8 2.606434 1_455
Co0 Co14 2.606434 1_555
Co0 Co11 2.606434 1_554
Co0 Co15 2.606434 1_565
Co0 Co10 2.606434 1_555
Co0 Co9 2.606434 1_465
Co0 Co5 2.606437 1_554
Co0 Co4 2.606437 1_555
Co0 Er1 3.128630 1_555
Co0 Er1 3.128630 1_455
Co1 Si2 2.535702 1_656
Co1 Si1 2.535702 1_655
Co1 Si0 2.535702 1_556
Co1 Si3 2.535702 1_655
Co1 Co17 2.606434 1_645
Co1 Co2 2.606434 1_555
Co1 Co7 2.606434 1_545
Co1 Co16 2.606434 1_655
Co1 Co3 2.606434 1_556
Co1 Co6 2.606434 1_555
Co1 Co12 2.606437 1_555
Co1 Co13 2.606437 1_556
Co1 Er0 3.128630 1_555
Co1 Er0 3.128630 1_655
Co2 Si1 2.357467 1_655
Co2 Si0 2.364830 1_556
Co2 Co6 2.381404 1_555
Co2 Co8 2.409066 1_555
Co2 Co5 2.409070 1_555
Co2 Er0 3.005776 1_555
Co2 Er1 3.103908 1_555
Co3 Si2 2.357467 1_655
Co3 Si0 2.364830 1_555
Co3 Co7 2.381404 1_544
Co3 Co9 2.409066 1_555
Co3 Co4 2.409070 1_555
Co3 Er0 3.005776 1_554
Co3 Er1 3.103908 1_545
Co4 Si0 2.357472 1_555
Co4 Si1 2.364831 1_555
Co4 Co5 2.381404 1_554
Co4 Co6 2.409062 1_455
Co4 Er1 3.005772 1_455
Co4 Er0 3.103908 1_554
Co5 Si0 2.357472 1_556
Co5 Si2 2.364831 1_566
Co5 Co7 2.409062 1_455
Co5 Er1 3.005772 1_456
Co5 Er0 3.103908 1_555
Co6 Si1 2.357467 1_655
Co6 Si3 2.364830 1_655
Co6 Co9 2.409066 1_555
Co6 Er0 3.005776 1_555
Co6 Er1 3.103908 1_555
Co7 Si2 2.357467 1_666
Co7 Si3 2.364830 1_665
Co7 Co8 2.409066 1_555
Co7 Er0 3.005776 1_565
Co7 Er1 3.103908 1_556
Co8 Si3 2.357467 1_665
Co8 Si1 2.364830 1_655
Co8 Co9 2.381404 1_565
Co8 Er1 3.005776 1_555
Co8 Er0 3.103908 1_565
Co9 Si3 2.357467 1_655
Co9 Si2 2.364830 1_655
Co9 Er1 3.005776 1_545
Co9 Er0 3.103908 1_555
Co10 Si1 2.357467 1_555
Co10 Si0 2.364830 1_555
Co10 Co14 2.381404 1_555
Co10 Co16 2.409066 1_555
Co10 Co13 2.409070 1_555
Co10 Co6 2.438779 1_555
Co10 Co9 2.445357 1_555
Co10 Co3 2.585705 1_555
Co10 Co4 2.658110 1_555
Co10 Er1 3.005776 1_555
Co10 Er0 3.103908 1_555
Co11 Si2 2.357467 1_566
Co11 Si0 2.364830 1_556
Co11 Co15 2.381404 1_566
Co11 Co17 2.409066 1_555
Co11 Co12 2.409070 1_555
Co11 Co7 2.438779 1_555
Co11 Co8 2.445357 1_555
Co11 Co2 2.585705 1_555
Co11 Co5 2.658110 1_555
Co11 Er1 3.005776 1_556
Co11 Er0 3.103908 1_565
Co12 Si0 2.357472 1_556
Co12 Si1 2.364831 1_655
Co12 Co13 2.381404 1_556
Co12 Co14 2.409062 1_655
Co12 Co5 2.438767 1_655
Co12 Co7 2.445355 1_555
Co12 Co8 2.585707 1_555
Co12 Co2 2.658110 1_555
Co12 Er0 3.005772 1_655
Co12 Er1 3.103908 1_556
Co13 Si0 2.357472 1_555
Co13 Si2 2.364831 1_655
Co13 Co15 2.409062 1_655
Co13 Co4 2.438767 1_655
Co13 Co6 2.445355 1_555
Co13 Co9 2.585707 1_555
Co13 Co3 2.658110 1_555
Co13 Er0 3.005772 1_654
Co13 Er1 3.103908 1_555
Co14 Si1 2.357467 1_555
Co14 Si3 2.364830 1_565
Co14 Co17 2.409066 1_555
Co14 Co2 2.438779 1_555
Co14 Co5 2.445355 1_555
Co14 Co7 2.585705 1_455
Co14 Co8 2.658104 1_455
Co14 Er1 3.005776 1_555
Co14 Er0 3.103908 1_555
Co15 Si2 2.357467 1_555
Co15 Si3 2.364830 1_555
Co15 Co16 2.409066 1_555
Co15 Co3 2.438779 1_555
Co15 Co4 2.445355 1_555
Co15 Co6 2.585705 1_455
Co15 Co9 2.658104 1_455
Co15 Er1 3.005776 1_545
Co15 Er0 3.103908 1_554
Co16 Si3 2.357467 1_555
Co16 Si1 2.364830 1_555
Co16 Co17 2.381404 1_545
Co16 Co9 2.438779 1_555
Co16 Co3 2.445357 1_555
Co16 Co4 2.585707 1_555
Co16 Co6 2.658104 1_455
Co16 Er0 3.005776 1_555
Co16 Er1 3.103908 1_545
Co17 Si3 2.357467 1_565
Co17 Si2 2.364830 1_566
Co17 Co8 2.438779 1_555
Co17 Co2 2.445357 1_555
Co17 Co5 2.585707 1_555
Co17 Co7 2.658104 1_455
Co17 Er0 3.005776 1_565
Co17 Er1 3.103908 1_555
