# generated using pymatgen
data_Zn2InCuSe4
_symmetry_space_group_name_H-M   'P 1'
_cell_length_a   7.10354895
_cell_length_b   7.10354895
_cell_length_c   7.10354895
_cell_angle_alpha   131.77319747
_cell_angle_beta   131.77319747
_cell_angle_gamma   70.58747355
_symmetry_Int_Tables_number   1
_chemical_formula_structural   Zn2InCuSe4
_chemical_formula_sum   'Zn2 In1 Cu1 Se4'
_cell_volume   195.32628843
_cell_formula_units_Z   1
loop_
 _symmetry_equiv_pos_site_id
 _symmetry_equiv_pos_as_xyz
  1  'x, y, z'
loop_
 _atom_site_type_symbol
 _atom_site_label
 _atom_site_symmetry_multiplicity
 _atom_site_fract_x
 _atom_site_fract_y
 _atom_site_fract_z
 _atom_site_occupancy
  Zn  Zn0  1  0.75000000  0.25000000  0.50000000  1
  Zn  Zn1  1  0.25000000  0.75000000  0.50000000  1
  In  In0  1  0.50000000  0.50000000  0.00000000  1
  Cu  Cu0  1  0.00000000  0.00000000  0.00000000  1
  Se  Se0  1  0.36393000  0.36393000  0.47169900  1
  Se  Se1  1  0.10776900  0.63607000  0.00000000  1
  Se  Se2  1  0.89223100  0.89223100  0.52830100  1
  Se  Se3  1  0.63607000  0.10776900  0.00000000  1
loop_
_geom_bond_atom_site_label_1
_geom_bond_atom_site_label_2
_geom_bond_distance
_geom_bond_site_symmetry_2
In0 Se0 2.628147 1_554
In0 Se3 2.628147 1_555
In0 Se2 2.628147 1_555
In0 Se1 2.628147 1_555
Cu0 Se3 2.440026 1_455
Cu0 Se2 2.440026 1_444
Cu0 Se1 2.440026 1_545
Cu0 Se0 2.440026 1_555
Se0 Zn0 2.494661 1_555
Se0 Zn1 2.494661 1_555
Se1 Zn0 2.494661 1_454
Se1 Zn1 2.494661 1_555
Se2 Zn0 2.494661 1_565
Se2 Zn1 2.494661 1_655
Se3 Zn0 2.494661 1_555
Se3 Zn1 2.494661 1_544
