# generated using pymatgen
data_K3ZrC7O16
_symmetry_space_group_name_H-M   'P 1'
_cell_length_a   13.68948400
_cell_length_b   9.16616500
_cell_length_c   15.60686029
_cell_angle_alpha   58.37750113
_cell_angle_beta   90.00000000
_cell_angle_gamma   90.00000000
_symmetry_Int_Tables_number   1
_chemical_formula_structural   K3ZrC7O16
_chemical_formula_sum   'K12 Zr4 C28 O64'
_cell_volume   1667.57628751
_cell_formula_units_Z   4
loop_
 _symmetry_equiv_pos_site_id
 _symmetry_equiv_pos_as_xyz
  1  'x, y, z'
loop_
 _atom_site_type_symbol
 _atom_site_label
 _atom_site_symmetry_multiplicity
 _atom_site_fract_x
 _atom_site_fract_y
 _atom_site_fract_z
 _atom_site_occupancy
  K  K0  1  0.23633800  0.70501900  0.47071400  1
  K  K1  1  0.26366200  0.70501900  0.97071400  1
  K  K2  1  0.76366200  0.29498100  0.52928600  1
  K  K3  1  0.73633800  0.29498100  0.02928600  1
  K  K4  1  0.97904000  0.96470200  0.80573400  1
  K  K5  1  0.52096000  0.96470200  0.30573400  1
  K  K6  1  0.02096000  0.03529800  0.19426600  1
  K  K7  1  0.47904000  0.03529800  0.69426600  1
  K  K8  1  0.77718300  0.68142700  0.74839300  1
  K  K9  1  0.72281700  0.68142700  0.24839300  1
  K  K10  1  0.22281700  0.31857300  0.25160700  1
  K  K11  1  0.27718300  0.31857300  0.75160700  1
  Zr  Zr0  1  0.07324800  0.67673600  0.69118600  1
  Zr  Zr1  1  0.42675200  0.67673600  0.19118600  1
  Zr  Zr2  1  0.92675200  0.32326400  0.30881400  1
  Zr  Zr3  1  0.57324800  0.32326400  0.80881400  1
  C  C0  1  0.96970400  0.49478800  0.89686100  1
  C  C1  1  0.53029600  0.49478800  0.39686100  1
  C  C2  1  0.03029600  0.50521200  0.10313900  1
  C  C3  1  0.46970400  0.50521200  0.60313900  1
  C  C4  1  0.05954000  0.38010300  0.91248500  1
  C  C5  1  0.44046000  0.38010300  0.41248500  1
  C  C6  1  0.94046000  0.61989700  0.08751500  1
  C  C7  1  0.55954000  0.61989700  0.58751500  1
  C  C8  1  0.03391300  0.40872200  0.63300700  1
  C  C9  1  0.46608700  0.40872200  0.13300700  1
  C  C10  1  0.96608700  0.59127800  0.36699300  1
  C  C11  1  0.53391300  0.59127800  0.86699300  1
  C  C12  1  0.93267800  0.49233700  0.62541700  1
  C  C13  1  0.56732200  0.49233700  0.12541700  1
  C  C14  1  0.06732200  0.50766300  0.37458300  1
  C  C15  1  0.43267800  0.50766300  0.87458300  1
  C  C16  1  0.23430600  0.87624200  0.72766600  1
  C  C17  1  0.26569400  0.87624200  0.22766600  1
  C  C18  1  0.76569400  0.12375800  0.27233400  1
  C  C19  1  0.73430600  0.12375800  0.77233400  1
  C  C20  1  0.29031500  0.78378200  0.68206100  1
  C  C21  1  0.20968500  0.78378200  0.18206100  1
  C  C22  1  0.70968500  0.21621800  0.31793900  1
  C  C23  1  0.79031500  0.21621800  0.81793900  1
  C  C24  1  0.03509300  0.98163600  0.46852400  1
  C  C25  1  0.46490700  0.98163600  0.96852400  1
  C  C26  1  0.96490700  0.01836400  0.53147600  1
  C  C27  1  0.53509300  0.01836400  0.03147600  1
  O  O0  1  0.97185700  0.64120800  0.81139000  1
  O  O1  1  0.52814300  0.64120800  0.31139000  1
  O  O2  1  0.02814300  0.35879200  0.18861000  1
  O  O3  1  0.47185700  0.35879200  0.68861000  1
  O  O4  1  0.90305800  0.44819700  0.95920700  1
  O  O5  1  0.59694200  0.44819700  0.45920700  1
  O  O6  1  0.09694200  0.55180300  0.04079300  1
  O  O7  1  0.40305800  0.55180300  0.54079300  1
  O  O8  1  0.11230300  0.44105300  0.83044200  1
  O  O9  1  0.38769700  0.44105300  0.33044200  1
  O  O10  1  0.88769700  0.55894700  0.16955800  1
  O  O11  1  0.61230300  0.55894700  0.66955800  1
  O  O12  1  0.07554400  0.24804200  0.99375300  1
  O  O13  1  0.42445600  0.24804200  0.49375300  1
  O  O14  1  0.92445600  0.75195800  0.00624700  1
  O  O15  1  0.57554400  0.75195800  0.50624700  1
  O  O16  1  0.10642400  0.49240700  0.64304900  1
  O  O17  1  0.39357600  0.49240700  0.14304900  1
  O  O18  1  0.89357600  0.50759300  0.35695100  1
  O  O19  1  0.60642400  0.50759300  0.85695100  1
  O  O20  1  0.04169900  0.27520600  0.63252200  1
  O  O21  1  0.45830100  0.27520600  0.13252200  1
  O  O22  1  0.95830100  0.72479400  0.36747800  1
  O  O23  1  0.54169900  0.72479400  0.86747800  1
  O  O24  1  0.93580000  0.60499100  0.65265900  1
  O  O25  1  0.56420000  0.60499100  0.15265900  1
  O  O26  1  0.06420000  0.39500900  0.34734100  1
  O  O27  1  0.43580000  0.39500900  0.84734100  1
  O  O28  1  0.85845300  0.45070400  0.59907000  1
  O  O29  1  0.64154700  0.45070400  0.09907000  1
  O  O30  1  0.14154700  0.54929600  0.40093000  1
  O  O31  1  0.35845300  0.54929600  0.90093000  1
  O  O32  1  0.14122400  0.84254200  0.73890600  1
  O  O33  1  0.35877600  0.84254200  0.23890600  1
  O  O34  1  0.85877600  0.15745800  0.26109400  1
  O  O35  1  0.64122400  0.15745800  0.76109400  1
  O  O36  1  0.27767400  0.96753200  0.75261000  1
  O  O37  1  0.22232600  0.96753200  0.25261000  1
  O  O38  1  0.72232600  0.03246800  0.24739000  1
  O  O39  1  0.77767400  0.03246800  0.74739000  1
  O  O40  1  0.23347000  0.68665700  0.66513500  1
  O  O41  1  0.26653000  0.68665700  0.16513500  1
  O  O42  1  0.76653000  0.31334300  0.33486500  1
  O  O43  1  0.73347000  0.31334300  0.83486500  1
  O  O44  1  0.37872500  0.80384600  0.66504500  1
  O  O45  1  0.12127500  0.80384600  0.16504500  1
  O  O46  1  0.62127500  0.19615400  0.33495500  1
  O  O47  1  0.87872500  0.19615400  0.83495500  1
  O  O48  1  0.09190900  0.85499200  0.51784900  1
  O  O49  1  0.40809100  0.85499200  0.01784900  1
  O  O50  1  0.90809100  0.14500800  0.48215100  1
  O  O51  1  0.59190900  0.14500800  0.98215100  1
  O  O52  1  0.03090900  0.08098700  0.37400800  1
  O  O53  1  0.46909100  0.08098700  0.87400800  1
  O  O54  1  0.96909100  0.91901300  0.62599200  1
  O  O55  1  0.53090900  0.91901300  0.12599200  1
  O  O56  1  0.18712000  0.02892100  0.94136000  1
  O  O57  1  0.31288000  0.02892100  0.44136000  1
  O  O58  1  0.81288000  0.97107900  0.05864000  1
  O  O59  1  0.68712000  0.97107900  0.55864000  1
  O  O60  1  0.26654400  0.10116100  0.47670200  1
  O  O61  1  0.23345600  0.10116100  0.97670200  1
  O  O62  1  0.73345600  0.89883900  0.52329800  1
  O  O63  1  0.76654400  0.89883900  0.02329800  1
loop_
_geom_bond_atom_site_label_1
_geom_bond_atom_site_label_2
_geom_bond_distance
_geom_bond_site_symmetry_2
K0 O30 2.556881 1_555
K0 O7 2.601302 1_555
K0 O48 2.720383 1_555
K0 O57 2.948916 1_565
K0 O16 2.949288 1_555
K0 O40 2.949799 1_555
K0 O37 2.970589 1_555
K1 O31 2.556881 1_555
K1 O6 2.601302 1_556
K1 O49 2.720383 1_556
K1 O56 2.948916 1_565
K1 O17 2.949288 1_556
K1 O41 2.949799 1_556
K1 O36 2.970589 1_555
K2 O28 2.556881 1_555
K2 O5 2.601302 1_555
K2 O50 2.720383 1_555
K2 O59 2.948916 1_545
K2 O18 2.949288 1_555
K2 O42 2.949799 1_555
K2 O39 2.970589 1_555
K3 O29 2.556881 1_555
K3 O4 2.601302 1_554
K3 O51 2.720383 1_554
K3 O58 2.948916 1_545
K3 O19 2.949288 1_554
K3 O43 2.949799 1_554
K3 O38 2.970589 1_555
K4 O47 2.758493 1_565
K4 O14 2.784740 1_556
K4 O20 2.841807 1_665
K4 O39 2.867172 1_565
K4 O32 2.914727 1_655
K4 O0 2.921539 1_555
K4 O54 3.048783 1_555
K5 O46 2.758493 1_565
K5 O15 2.784740 1_555
K5 O21 2.841807 1_565
K5 O38 2.867172 1_565
K5 O33 2.914727 1_555
K5 O1 2.921539 1_555
K5 O55 3.048783 1_555
K6 O45 2.758493 1_545
K6 O12 2.784740 1_554
K6 O22 2.841807 1_445
K6 O37 2.867172 1_545
K6 O34 2.914727 1_455
K6 O2 2.921539 1_555
K6 O52 3.048783 1_555
K7 O44 2.758493 1_545
K7 O13 2.784740 1_555
K7 O23 2.841807 1_545
K7 O36 2.867172 1_545
K7 O35 2.914727 1_555
K7 O3 2.921539 1_555
K7 O53 3.048783 1_555
K8 O0 2.797254 1_555
K8 O19 2.835992 1_555
K8 O24 2.921621 1_555
K8 O43 2.964448 1_555
K8 O59 3.015657 1_555
K8 O11 3.052422 1_555
K8 O62 3.054449 1_555
K8 O39 3.209527 1_565
K8 O54 3.306221 1_555
K8 O4 3.314930 1_555
K9 O1 2.797254 1_555
K9 O18 2.835992 1_555
K9 O25 2.921621 1_555
K9 O42 2.964448 1_555
K9 O58 3.015657 1_555
K9 O10 3.052422 1_555
K9 O63 3.054449 1_555
K9 O38 3.209527 1_565
K9 O55 3.306221 1_555
K9 O5 3.314930 1_555
K10 O2 2.797254 1_555
K10 O17 2.835992 1_555
K10 O26 2.921621 1_555
K10 O41 2.964448 1_555
K10 O57 3.015657 1_555
K10 O9 3.052422 1_555
K10 O60 3.054449 1_555
K10 O37 3.209527 1_545
K10 O52 3.306221 1_555
K10 O6 3.314930 1_555
K11 O3 2.797254 1_555
K11 O16 2.835992 1_555
K11 O27 2.921621 1_555
K11 O40 2.964448 1_555
K11 O56 3.015657 1_555
K11 O8 3.052422 1_555
K11 O61 3.054449 1_555
K11 O36 3.209527 1_545
K11 O53 3.306221 1_555
K11 O7 3.314930 1_555
C0 O4 1.235228 1_555
C0 O0 1.305427 1_555
C1 O5 1.235228 1_555
C1 O1 1.305427 1_555
C2 O6 1.235228 1_555
C2 O2 1.305427 1_555
C3 O7 1.235228 1_555
C3 O3 1.305427 1_555
C4 O12 1.229626 1_555
C4 O8 1.312708 1_555
C5 O13 1.229626 1_555
C5 O9 1.312708 1_555
C6 O14 1.229626 1_555
C6 O10 1.312708 1_555
C7 O15 1.229626 1_555
C7 O11 1.312708 1_555
C8 O20 1.232433 1_555
C8 O16 1.313147 1_555
C9 O21 1.232433 1_555
C9 O17 1.313147 1_555
C10 O22 1.232433 1_555
C10 O18 1.313147 1_555
C11 O23 1.232433 1_555
C11 O19 1.313147 1_555
C12 O28 1.229522 1_555
C12 O24 1.307380 1_555
C13 O29 1.229522 1_555
C13 O25 1.307380 1_555
C14 O30 1.229522 1_555
C14 O26 1.307380 1_555
C15 O31 1.229522 1_555
C15 O27 1.307380 1_555
C16 O36 1.243308 1_555
C16 O32 1.301179 1_555
C17 O37 1.243308 1_555
C17 O33 1.301179 1_555
C18 O38 1.243308 1_555
C18 O34 1.301179 1_555
C19 O39 1.243308 1_555
C19 O35 1.301179 1_555
C20 O44 1.232042 1_555
C20 O40 1.309399 1_555
C21 O45 1.232042 1_555
C21 O41 1.309399 1_555
C22 O46 1.232042 1_555
C22 O42 1.309399 1_555
C23 O47 1.232042 1_555
C23 O43 1.309399 1_555
C24 O52 1.264850 1_565
C24 O48 1.268072 1_555
C25 O53 1.264850 1_565
C25 O49 1.268072 1_556
C26 O54 1.264850 1_545
C26 O50 1.268072 1_555
C27 O55 1.264850 1_545
C27 O51 1.268072 1_554
O0 Zr0 2.216151 1_655
O1 Zr1 2.216151 1_555
O2 Zr2 2.216151 1_455
O3 Zr3 2.216151 1_555
O8 Zr0 2.180079 1_555
O9 Zr1 2.180079 1_555
O10 Zr2 2.180079 1_555
O11 Zr3 2.180079 1_555
O16 Zr0 2.226310 1_555
O17 Zr1 2.226310 1_555
O18 Zr2 2.226310 1_555
O19 Zr3 2.226310 1_555
O24 Zr0 2.179234 1_655
O25 Zr1 2.179234 1_555
O26 Zr2 2.179234 1_455
O27 Zr3 2.179234 1_555
O32 Zr0 2.217511 1_555
O33 Zr1 2.217511 1_555
O34 Zr2 2.217511 1_555
O35 Zr3 2.217511 1_555
O40 Zr0 2.223874 1_555
O41 Zr1 2.223874 1_555
O42 Zr2 2.223874 1_555
O43 Zr3 2.223874 1_555
O48 Zr0 2.327694 1_555
O49 Zr1 2.327694 1_555
O50 Zr2 2.327694 1_555
O51 Zr3 2.327694 1_555
O52 Zr2 2.372886 1_455
O53 Zr3 2.372886 1_555
O54 Zr0 2.372886 1_655
O55 Zr1 2.372886 1_555
O56 O61 1.236145 1_555
O57 O60 1.236145 1_555
O58 O63 1.236145 1_555
O59 O62 1.236145 1_555
