# generated using pymatgen
data_Li9Mn2Co5O16
_symmetry_space_group_name_H-M   'P 1'
_cell_length_a   3.02167800
_cell_length_b   9.75864732
_cell_length_c   9.97890335
_cell_angle_alpha   87.48256067
_cell_angle_beta   88.22331073
_cell_angle_gamma   82.71234565
_symmetry_Int_Tables_number   1
_chemical_formula_structural   Li9Mn2Co5O16
_chemical_formula_sum   'Li9 Mn2 Co5 O16'
_cell_volume   291.49804290
_cell_formula_units_Z   1
loop_
 _symmetry_equiv_pos_site_id
 _symmetry_equiv_pos_as_xyz
  1  'x, y, z'
loop_
 _atom_site_type_symbol
 _atom_site_label
 _atom_site_symmetry_multiplicity
 _atom_site_fract_x
 _atom_site_fract_y
 _atom_site_fract_z
 _atom_site_occupancy
  Li  Li0  1  0.87508800  0.24719300  0.81032100  1
  Li  Li1  1  0.11992500  0.75311400  0.68874000  1
  Li  Li2  1  0.37857500  0.24436500  0.56297500  1
  Li  Li3  1  0.62143700  0.75594400  0.43705100  1
  Li  Li4  1  0.88064500  0.24688600  0.31128600  1
  Li  Li5  1  0.12652200  0.75133900  0.18866600  1
  Li  Li6  1  0.37771300  0.25136400  0.06554900  1
  Li  Li7  1  0.62151500  0.74997700  0.93615800  1
  Li  Li8  1  0.00018600  0.00006100  0.49993000  1
  Mn  Mn0  1  0.99976400  0.00029900  0.00010000  1
  Mn  Mn1  1  0.25006300  0.49938900  0.87486900  1
  Co  Co0  1  0.49190900  0.00095000  0.73893200  1
  Co  Co1  1  0.74823900  0.49905100  0.62275900  1
  Co  Co2  1  0.24975800  0.50020800  0.37539000  1
  Co  Co3  1  0.50847500  0.99878100  0.26115600  1
  Co  Co4  1  0.75315400  0.50123000  0.12726100  1
  O  O0  1  0.42042700  0.11094300  0.89754000  1
  O  O1  1  0.65953500  0.61525900  0.77690400  1
  O  O2  1  0.91504800  0.11378100  0.66331800  1
  O  O3  1  0.19406000  0.61683900  0.52707000  1
  O  O4  1  0.43865700  0.11534100  0.38899000  1
  O  O5  1  0.70108400  0.61549400  0.27944400  1
  O  O6  1  0.91742000  0.11433900  0.15389300  1
  O  O7  1  0.19964600  0.61601700  0.02951300  1
  O  O8  1  0.29780800  0.38526400  0.71918300  1
  O  O9  1  0.56100300  0.88462600  0.61094900  1
  O  O10  1  0.80166000  0.38280400  0.47105500  1
  O  O11  1  0.08619400  0.88567800  0.33650500  1
  O  O12  1  0.30289300  0.38553100  0.22198300  1
  O  O13  1  0.57934400  0.88937300  0.10213000  1
  O  O14  1  0.84213600  0.38269600  0.97383900  1
  O  O15  1  0.08011800  0.88586300  0.84654000  1
loop_
_geom_bond_atom_site_label_1
_geom_bond_atom_site_label_2
_geom_bond_distance
_geom_bond_site_symmetry_2
Li0 O2 1.994584 1_555
Li0 O8 2.128631 1_655
Li0 O14 2.137071 1_555
Li0 O0 2.161521 1_655
Li0 O0 2.168052 1_555
Li0 O8 2.253836 1_555
Li1 O15 2.073686 1_555
Li1 O9 2.075640 1_555
Li1 O3 2.124122 1_555
Li1 O9 2.132103 1_455
Li1 O1 2.161224 1_555
Li1 O1 2.194088 1_455
Li2 O8 2.111755 1_555
Li2 O10 2.134826 1_555
Li2 O2 2.172280 1_555
Li2 O4 2.178786 1_555
Li2 O2 2.200467 1_455
Li2 O10 2.257927 1_455
Li3 O5 2.119482 1_555
Li3 O3 2.140810 1_555
Li3 O11 2.166757 1_555
Li3 O9 2.176050 1_555
Li3 O11 2.198593 1_655
Li3 O3 2.244305 1_655
Li4 O6 2.069645 1_555
Li4 O4 2.077527 1_555
Li4 O10 2.107119 1_555
Li4 O12 2.124657 1_655
Li4 O4 2.129947 1_655
Li4 O12 2.250282 1_555
Li5 O11 2.007020 1_555
Li5 O7 2.098438 1_555
Li5 O5 2.117837 1_455
Li5 O13 2.171451 1_455
Li5 O13 2.173595 1_555
Li5 O5 2.236132 1_555
Li6 O12 2.069966 1_555
Li6 O14 2.135816 1_454
Li6 O6 2.158042 1_555
Li6 O14 2.173261 1_554
Li6 O6 2.189055 1_455
Li6 O0 2.201992 1_554
Li7 O1 2.097840 1_555
Li7 O7 2.108067 1_556
Li7 O15 2.161164 1_555
Li7 O13 2.179590 1_556
Li7 O15 2.182586 1_655
Li7 O7 2.245683 1_656
Li8 O2 2.004135 1_455
Li8 O11 2.008244 1_545
Li8 O4 2.103413 1_555
Li8 O9 2.106155 1_445
Li8 O9 2.211443 1_545
Li8 O4 2.212001 1_455
Mn0 O6 1.926595 1_555
Mn0 O15 1.926826 1_644
Mn0 O13 1.998528 1_545
Mn0 O0 1.999856 1_654
Mn0 O13 2.192774 1_645
Mn0 O0 2.193680 1_554
Mn1 O8 1.942186 1_555
Mn1 O7 1.948248 1_556
Mn1 O1 1.986946 1_555
Mn1 O14 1.993328 1_455
Mn1 O1 2.217529 1_455
Mn1 O14 2.228626 1_555
Co0 O9 1.736072 1_545
Co0 O2 1.908105 1_555
Co0 O0 1.942440 1_555
Co0 O15 2.031855 1_545
Co0 O2 2.083678 1_455
Co0 O15 2.253764 1_645
Co1 O10 1.921955 1_555
Co1 O1 1.942803 1_555
Co1 O8 2.054186 1_555
Co1 O3 2.065051 1_655
Co1 O8 2.110429 1_655
Co1 O3 2.133434 1_555
Co2 O3 1.923971 1_555
Co2 O12 1.926465 1_555
Co2 O5 2.062982 1_555
Co2 O10 2.067518 1_455
Co2 O5 2.112267 1_455
Co2 O10 2.126731 1_555
Co3 O4 1.736521 1_565
Co3 O11 1.907002 1_555
Co3 O13 1.942631 1_555
Co3 O6 2.027265 1_565
Co3 O11 2.085820 1_655
Co3 O6 2.260227 1_465
Co4 O5 1.914093 1_555
Co4 O14 1.950736 1_554
Co4 O7 2.057245 1_655
Co4 O12 2.058043 1_555
Co4 O12 2.110778 1_655
Co4 O7 2.129181 1_555
