# generated using pymatgen
data_K2LiNd4Nb2O12
_symmetry_space_group_name_H-M   'P 1'
_cell_length_a   5.78599600
_cell_length_b   6.99460779
_cell_length_c   8.86069419
_cell_angle_alpha   102.77159365
_cell_angle_beta   90.00000000
_cell_angle_gamma   114.43143658
_symmetry_Int_Tables_number   1
_chemical_formula_structural   K2LiNd4Nb2O12
_chemical_formula_sum   'K2 Li1 Nd4 Nb2 O12'
_cell_volume   316.71876565
_cell_formula_units_Z   1
loop_
 _symmetry_equiv_pos_site_id
 _symmetry_equiv_pos_as_xyz
  1  'x, y, z'
loop_
 _atom_site_type_symbol
 _atom_site_label
 _atom_site_symmetry_multiplicity
 _atom_site_fract_x
 _atom_site_fract_y
 _atom_site_fract_z
 _atom_site_occupancy
  K  K0  1  0.12033300  0.24066800  0.48032800  1
  K  K1  1  0.87966700  0.75933200  0.51967200  1
  Li  Li0  1  0.50000000  0.00000000  0.50000000  1
  Nd  Nd0  1  0.12687100  0.25374200  0.91999400  1
  Nd  Nd1  1  0.58227700  0.16455300  0.19576100  1
  Nd  Nd2  1  0.41772300  0.83544700  0.80423900  1
  Nd  Nd3  1  0.87312900  0.74625900  0.08000600  1
  Nb  Nb0  1  0.67290100  0.34580200  0.71924300  1
  Nb  Nb1  1  0.32709900  0.65419800  0.28075700  1
  O  O0  1  0.00808400  0.53841900  0.83666200  1
  O  O1  1  0.21903400  0.90066200  0.29870200  1
  O  O2  1  0.24670700  0.00000000  0.00000000  1
  O  O3  1  0.78096600  0.09933800  0.70129800  1
  O  O4  1  0.68162900  0.90066200  0.29870200  1
  O  O5  1  0.75329300  0.00000000  0.00000000  1
  O  O6  1  0.31837100  0.09933800  0.70129800  1
  O  O7  1  0.99191600  0.46158100  0.16333800  1
  O  O8  1  0.66342300  0.32684500  0.49939600  1
  O  O9  1  0.33657700  0.67315500  0.50060400  1
  O  O10  1  0.46966400  0.46158100  0.16333800  1
  O  O11  1  0.53033600  0.53841900  0.83666200  1
loop_
_geom_bond_atom_site_label_1
_geom_bond_atom_site_label_2
_geom_bond_distance
_geom_bond_site_symmetry_2
K0 O9 2.716177 1_555
K0 O3 2.813625 1_455
K0 O6 2.813628 1_555
K0 O4 2.828995 1_445
K0 O1 2.829004 1_545
K0 O8 2.941783 1_455
K0 O8 2.941800 1_555
K1 O8 2.716177 1_555
K1 O1 2.813625 1_655
K1 O4 2.813628 1_555
K1 O6 2.828995 1_665
K1 O3 2.829004 1_565
K1 O9 2.941783 1_655
K1 O9 2.941800 1_555
Li0 O8 2.082749 1_555
Li0 O9 2.082749 1_545
Li0 O1 2.196504 1_545
Li0 O3 2.196504 1_555
Li0 O6 2.196508 1_555
Li0 O4 2.196508 1_545
Nd0 O2 2.389053 1_556
Nd0 O5 2.389053 1_456
Nd0 O6 2.492738 1_555
Nd0 O3 2.492742 1_455
Nd0 O0 2.600886 1_555
Nd0 O11 2.600890 1_555
Nd0 O10 2.631618 1_556
Nd0 O7 2.631621 1_456
Nd1 O5 2.317765 1_555
Nd1 O2 2.317769 1_555
Nd1 O1 2.488285 1_545
Nd1 O4 2.488285 1_545
Nd1 O7 2.491416 1_555
Nd1 O10 2.491423 1_555
Nd1 O8 2.637463 1_555
Nd2 O2 2.317765 1_566
Nd2 O5 2.317769 1_566
Nd2 O6 2.488285 1_565
Nd2 O3 2.488285 1_565
Nd2 O0 2.491416 1_555
Nd2 O11 2.491423 1_555
Nd2 O9 2.637463 1_555
Nd3 O5 2.389047 1_565
Nd3 O2 2.389050 1_665
Nd3 O4 2.492735 1_555
Nd3 O1 2.492742 1_655
Nd3 O7 2.600893 1_555
Nd3 O10 2.600893 1_555
Nd3 O11 2.631619 1_554
Nd3 O0 2.631625 1_654
Nb0 O8 1.922255 1_555
Nb0 O11 1.969167 1_555
Nb0 O0 1.969172 1_655
Nb0 O3 2.039263 1_555
Nb0 O6 2.039266 1_555
Nb1 O9 1.922255 1_555
Nb1 O10 1.969167 1_555
Nb1 O7 1.969172 1_455
Nb1 O1 2.039263 1_555
Nb1 O4 2.039266 1_555
