# generated using pymatgen
data_Er2MgSi2
_symmetry_space_group_name_H-M   'P 1'
_cell_length_a   7.09758586
_cell_length_b   7.09758586
_cell_length_c   4.16018223
_cell_angle_alpha   90.00000000
_cell_angle_beta   90.00000000
_cell_angle_gamma   90.00000000
_symmetry_Int_Tables_number   1
_chemical_formula_structural   Er2MgSi2
_chemical_formula_sum   'Er4 Mg2 Si4'
_cell_volume   209.57219614
_cell_formula_units_Z   2
loop_
 _symmetry_equiv_pos_site_id
 _symmetry_equiv_pos_as_xyz
  1  'x, y, z'
loop_
 _atom_site_type_symbol
 _atom_site_label
 _atom_site_symmetry_multiplicity
 _atom_site_fract_x
 _atom_site_fract_y
 _atom_site_fract_z
 _atom_site_occupancy
  Er  Er0  1  0.67805646  0.17805646  0.50000000  1
  Er  Er1  1  0.32194354  0.82194354  0.50000000  1
  Er  Er2  1  0.17805646  0.32194354  0.50000000  1
  Er  Er3  1  0.82194354  0.67805646  0.50000000  1
  Mg  Mg0  1  0.00000000  -0.00000000  0.00000000  1
  Mg  Mg1  1  0.50000000  0.50000000  0.00000000  1
  Si  Si0  1  0.11832556  0.61832556  0.00000000  1
  Si  Si1  1  0.88167444  0.38167444  -0.00000000  1
  Si  Si2  1  0.61832556  0.88167444  0.00000000  1
  Si  Si3  1  0.38167444  0.11832556  -0.00000000  1
loop_
_geom_bond_atom_site_label_1
_geom_bond_atom_site_label_2
_geom_bond_distance
_geom_bond_site_symmetry_2
Er0 Si1 2.916155 1_555
Er0 Si1 2.916155 1_556
Er0 Si3 2.988583 1_555
Er0 Si3 2.988583 1_556
Er0 Si2 2.988583 1_545
Er0 Si2 2.988583 1_546
Er1 Si0 2.916155 1_555
Er1 Si0 2.916155 1_556
Er1 Si3 2.988583 1_566
Er1 Si3 2.988583 1_565
Er1 Si2 2.988583 1_556
Er1 Si2 2.988583 1_555
Er2 Si3 2.916155 1_555
Er2 Si3 2.916155 1_556
Er2 Si1 2.988583 1_455
Er2 Si1 2.988583 1_456
Er2 Si0 2.988583 1_555
Er2 Si0 2.988583 1_556
Er3 Si2 2.916155 1_556
Er3 Si2 2.916155 1_555
Er3 Si0 2.988583 1_655
Er3 Si0 2.988583 1_656
Er3 Si1 2.988583 1_555
Er3 Si1 2.988583 1_556
Mg0 Si0 2.836161 1_545
Mg0 Si2 2.836161 1_445
Mg0 Si3 2.836161 1_555
Mg0 Si1 2.836161 1_455
Mg1 Si1 2.836161 1_555
Mg1 Si2 2.836161 1_555
Mg1 Si3 2.836161 1_555
Mg1 Si0 2.836161 1_555
Si0 Si1 2.375386 1_455
Si2 Si3 2.375386 1_565
