# generated using pymatgen
data_Li4Mn5Sb(PO4)6
_symmetry_space_group_name_H-M   'P 1'
_cell_length_a   8.61008200
_cell_length_b   8.68537991
_cell_length_c   8.68867589
_cell_angle_alpha   63.57363812
_cell_angle_beta   63.94437223
_cell_angle_gamma   63.93945417
_symmetry_Int_Tables_number   1
_chemical_formula_structural   Li4Mn5Sb(PO4)6
_chemical_formula_sum   'Li4 Mn5 Sb1 P6 O24'
_cell_volume   498.13628287
_cell_formula_units_Z   1
loop_
 _symmetry_equiv_pos_site_id
 _symmetry_equiv_pos_as_xyz
  1  'x, y, z'
loop_
 _atom_site_type_symbol
 _atom_site_label
 _atom_site_symmetry_multiplicity
 _atom_site_fract_x
 _atom_site_fract_y
 _atom_site_fract_z
 _atom_site_occupancy
  Li  Li0  1  0.74684200  0.14490900  0.35375100  1
  Li  Li1  1  0.28914600  0.84616500  0.64557200  1
  Li  Li2  1  0.64233300  0.28530500  0.84934300  1
  Li  Li3  1  0.84797100  0.64131800  0.29347900  1
  Mn  Mn0  1  0.01561100  0.00277200  0.99851900  1
  Mn  Mn1  1  0.34578000  0.35030000  0.34627700  1
  Mn  Mn2  1  0.48657400  0.50418400  0.49875400  1
  Mn  Mn3  1  0.15126200  0.15328500  0.15064700  1
  Mn  Mn4  1  0.65569200  0.65510100  0.66001600  1
  Sb  Sb0  1  0.84684400  0.84127200  0.84715300  1
  P  P0  1  0.06706300  0.74659600  0.43223300  1
  P  P1  1  0.43233700  0.06664000  0.74734300  1
  P  P2  1  0.74678300  0.43135700  0.06704200  1
  P  P3  1  0.24798300  0.55258600  0.94262500  1
  P  P4  1  0.56350300  0.94546700  0.24985200  1
  P  P5  1  0.93148900  0.24435600  0.55076500  1
  O  O0  1  0.47228500  0.90646300  0.68787900  1
  O  O1  1  0.68459400  0.47200700  0.90902500  1
  O  O2  1  0.90806500  0.68041400  0.47681500  1
  O  O3  1  0.06400100  0.90712900  0.25519900  1
  O  O4  1  0.04616400  0.80761500  0.58849000  1
  O  O5  1  0.25205000  0.59801800  0.41498100  1
  O  O6  1  0.24817300  0.08370200  0.89598200  1
  O  O7  1  0.43531500  0.24416800  0.58672200  1
  O  O8  1  0.17318300  0.40837600  0.97845500  1
  O  O9  1  0.59999700  0.41304300  0.25530600  1
  O  O10  1  0.09835100  0.75354100  0.91357900  1
  O  O11  1  0.40517000  0.00215400  0.18460200  1
  O  O12  1  0.58756000  0.03957100  0.81601600  1
  O  O13  1  0.89341500  0.24323800  0.08538300  1
  O  O14  1  0.39857300  0.57638900  0.75242700  1
  O  O15  1  0.81077900  0.58530200  0.04552700  1
  O  O16  1  0.57583100  0.75551400  0.40054700  1
  O  O17  1  0.75962700  0.90833700  0.09643500  1
  O  O18  1  0.74684800  0.40012100  0.58091600  1
  O  O19  1  0.93967000  0.17622900  0.41242400  1
  O  O20  1  0.91416500  0.09472100  0.75038100  1
  O  O21  1  0.09769100  0.29719300  0.50022200  1
  O  O22  1  0.31145700  0.52253500  0.09391600  1
  O  O23  1  0.55982600  0.08960400  0.30840000  1
loop_
_geom_bond_atom_site_label_1
_geom_bond_atom_site_label_2
_geom_bond_distance
_geom_bond_site_symmetry_2
Li0 O9 2.084129 1_555
Li0 O13 2.085300 1_555
Li0 O19 2.086664 1_555
Li0 O23 2.093867 1_555
Li0 O7 2.605191 1_555
Li1 O14 2.032794 1_555
Li1 O0 2.074120 1_555
Li1 O10 2.213943 1_555
Li1 O4 2.531749 1_555
Li1 O16 2.532409 1_555
Li2 O18 2.029360 1_555
Li2 O1 2.112695 1_555
Li2 O20 2.247702 1_555
Li2 O12 2.532964 1_555
Li2 O14 2.549739 1_555
Li3 O16 2.050338 1_555
Li3 O2 2.068911 1_555
Li3 O17 2.224437 1_555
Li3 O18 2.533651 1_555
Li3 O15 2.580014 1_555
Mn0 O6 2.099863 1_555
Mn0 O3 2.168100 1_546
Mn0 O13 2.193928 1_456
Mn0 O10 2.311516 1_545
Mn0 O20 2.357516 1_455
Mn0 O17 2.361005 1_446
Mn1 O21 2.090746 1_555
Mn1 O22 2.096239 1_555
Mn1 O5 2.197967 1_555
Mn1 O9 2.203970 1_555
Mn1 O7 2.210177 1_555
Mn1 O23 2.257334 1_555
Mn2 O5 2.142119 1_555
Mn2 O7 2.218575 1_555
Mn2 O9 2.247449 1_555
Mn2 O14 2.274005 1_555
Mn2 O16 2.307321 1_555
Mn2 O18 2.323780 1_555
Mn3 O11 2.071207 1_555
Mn3 O8 2.086056 1_554
Mn3 O19 2.230767 1_455
Mn3 O3 2.245807 1_545
Mn3 O13 2.246847 1_455
Mn3 O6 2.254503 1_554
Mn4 O1 2.081972 1_555
Mn4 O2 2.091293 1_555
Mn4 O0 2.103331 1_555
Mn4 O14 2.300587 1_555
Mn4 O18 2.312244 1_555
Mn4 O16 2.323953 1_555
O0 P1 1.543991 1_565
O1 P2 1.531219 1_556
O2 P0 1.543359 1_655
O3 P0 1.550847 1_555
O4 P0 1.580680 1_555
O4 Sb0 2.199393 1_455
O5 P0 1.543084 1_555
O6 P1 1.539184 1_555
O7 P1 1.553614 1_555
O8 P3 1.505344 1_555
O9 P2 1.557955 1_555
O10 P3 1.639407 1_555
O10 Sb0 2.204493 1_455
O11 P4 1.504351 1_545
O12 P1 1.580218 1_555
O12 Sb0 2.181942 1_545
O13 P2 1.556098 1_555
O14 P3 1.582390 1_555
O15 P2 1.568656 1_555
O15 Sb0 2.176114 1_554
O16 P4 1.578922 1_555
O17 P4 1.630675 1_555
O17 Sb0 2.214552 1_554
O18 P5 1.576746 1_555
O19 P5 1.523795 1_555
O20 P5 1.629771 1_555
O20 Sb0 2.221300 1_545
O21 P5 1.515522 1_455
O22 P3 1.514976 1_554
O23 P4 1.531298 1_545
