# generated using pymatgen
data_Ba3(MoN2)2
_symmetry_space_group_name_H-M   'P 1'
_cell_length_a   6.27672942
_cell_length_b   10.85026901
_cell_length_c   10.36081736
_cell_angle_alpha   90.00000000
_cell_angle_beta   90.00000000
_cell_angle_gamma   90.00000000
_symmetry_Int_Tables_number   1
_chemical_formula_structural   Ba3(MoN2)2
_chemical_formula_sum   'Ba12 Mo8 N16'
_cell_volume   705.61520573
_cell_formula_units_Z   4
loop_
 _symmetry_equiv_pos_site_id
 _symmetry_equiv_pos_as_xyz
  1  'x, y, z'
loop_
 _atom_site_type_symbol
 _atom_site_label
 _atom_site_symmetry_multiplicity
 _atom_site_fract_x
 _atom_site_fract_y
 _atom_site_fract_z
 _atom_site_occupancy
  Ba  Ba0  1  0.62498547  0.15859893  0.41927836  1
  Ba  Ba1  1  0.87501453  0.84140107  0.41927836  1
  Ba  Ba2  1  0.62498547  0.34140107  0.08072164  1
  Ba  Ba3  1  0.87501453  0.65859893  0.08072164  1
  Ba  Ba4  1  0.37501453  0.84140107  0.58072164  1
  Ba  Ba5  1  0.12498547  0.15859893  0.58072164  1
  Ba  Ba6  1  0.37501453  0.65859893  0.91927836  1
  Ba  Ba7  1  0.12498547  0.34140107  0.91927836  1
  Ba  Ba8  1  0.75000000  0.50000000  0.40198875  1
  Ba  Ba9  1  0.75000000  0.00000000  0.09801125  1
  Ba  Ba10  1  0.25000000  0.50000000  0.59801125  1
  Ba  Ba11  1  0.25000000  0.00000000  0.90198875  1
  Mo  Mo0  1  0.75000000  0.50000000  0.73661965  1
  Mo  Mo1  1  0.75000000  0.00000000  0.76338035  1
  Mo  Mo2  1  0.25000000  0.50000000  0.26338035  1
  Mo  Mo3  1  0.25000000  0.00000000  0.23661965  1
  Mo  Mo4  1  0.65087673  0.25000000  0.75000000  1
  Mo  Mo5  1  0.84912327  0.75000000  0.75000000  1
  Mo  Mo6  1  0.34912327  0.75000000  0.25000000  1
  Mo  Mo7  1  0.15087673  0.25000000  0.25000000  1
  N  N0  1  0.84430415  0.35125324  0.63612773  1
  N  N1  1  0.65569585  0.64874676  0.63612773  1
  N  N2  1  0.84430415  0.14874676  0.86387227  1
  N  N3  1  0.65569585  0.85125324  0.86387227  1
  N  N4  1  0.15569585  0.64874676  0.36387227  1
  N  N5  1  0.34430415  0.35125324  0.36387227  1
  N  N6  1  0.15569585  0.85125324  0.13612773  1
  N  N7  1  0.34430415  0.14874676  0.13612773  1
  N  N8  1  0.52686761  0.41159037  0.83220012  1
  N  N9  1  0.97313239  0.58840963  0.83220012  1
  N  N10  1  0.52686761  0.08840963  0.66779988  1
  N  N11  1  0.97313239  0.91159037  0.66779988  1
  N  N12  1  0.47313239  0.58840963  0.16779988  1
  N  N13  1  0.02686761  0.41159037  0.16779988  1
  N  N14  1  0.47313239  0.91159037  0.33220012  1
  N  N15  1  0.02686761  0.08840963  0.33220012  1
loop_
_geom_bond_atom_site_label_1
_geom_bond_atom_site_label_2
_geom_bond_distance
_geom_bond_site_symmetry_2
Ba0 N10 2.754871 1_555
Ba0 N15 2.785138 1_655
Ba0 N5 2.793368 1_555
Ba0 N14 2.984197 1_545
Ba0 N0 3.363396 1_555
Ba0 N7 3.423691 1_555
Ba1 N11 2.754871 1_555
Ba1 N14 2.785138 1_555
Ba1 N4 2.793368 1_655
Ba1 N15 2.984197 1_665
Ba1 N1 3.363396 1_555
Ba1 N6 3.423691 1_655
Ba2 N8 2.754871 1_554
Ba2 N13 2.785138 1_655
Ba2 N7 2.793368 1_555
Ba2 N12 2.984197 1_555
Ba2 N2 3.363396 1_554
Ba2 N5 3.423691 1_555
Ba3 N9 2.754871 1_554
Ba3 N12 2.785138 1_555
Ba3 N6 2.793368 1_655
Ba3 N13 2.984197 1_655
Ba3 N3 3.363396 1_554
Ba3 N4 3.423691 1_655
Ba4 N14 2.754871 1_555
Ba4 N11 2.785138 1_455
Ba4 N1 2.793368 1_555
Ba4 N10 2.984197 1_565
Ba4 N4 3.363396 1_555
Ba4 N3 3.423691 1_555
Ba5 N15 2.754871 1_555
Ba5 N10 2.785138 1_555
Ba5 N0 2.793368 1_455
Ba5 N11 2.984197 1_445
Ba5 N5 3.363396 1_555
Ba5 N2 3.423691 1_455
Ba6 N12 2.754871 1_556
Ba6 N9 2.785138 1_455
Ba6 N3 2.793368 1_555
Ba6 N8 2.984197 1_555
Ba6 N6 3.363396 1_556
Ba6 N1 3.423691 1_555
Ba7 N13 2.754871 1_556
Ba7 N8 2.785138 1_555
Ba7 N2 2.793368 1_455
Ba7 N9 2.984197 1_455
Ba7 N7 3.363396 1_556
Ba7 N0 3.423691 1_455
Ba8 N1 2.973219 1_555
Ba8 N0 2.973219 1_555
Ba8 N5 3.040583 1_555
Ba8 N4 3.040583 1_655
Ba8 N12 3.134898 1_555
Ba8 N13 3.134898 1_655
Ba9 N3 2.973219 1_544
Ba9 N2 2.973219 1_554
Ba9 N7 3.040583 1_555
Ba9 N6 3.040583 1_645
Ba9 N15 3.134898 1_655
Ba9 N14 3.134898 1_545
Ba10 N5 2.973219 1_555
Ba10 N4 2.973219 1_555
Ba10 N0 3.040583 1_455
Ba10 N1 3.040583 1_555
Ba10 N9 3.134898 1_455
Ba10 N8 3.134898 1_555
Ba11 N6 2.973219 1_546
Ba11 N7 2.973219 1_556
Ba11 N2 3.040583 1_455
Ba11 N3 3.040583 1_545
Ba11 N11 3.134898 1_445
Ba11 N10 3.134898 1_555
Mo0 N8 1.965296 1_555
Mo0 N9 1.965296 1_555
Mo0 N1 2.009784 1_555
Mo0 N0 2.009784 1_555
Mo1 N10 1.965296 1_555
Mo1 N11 1.965296 1_545
Mo1 N2 2.009784 1_555
Mo1 N3 2.009784 1_545
Mo2 N12 1.965296 1_555
Mo2 N13 1.965296 1_555
Mo2 N5 2.009784 1_555
Mo2 N4 2.009784 1_555
Mo3 N14 1.965296 1_545
Mo3 N15 1.965296 1_555
Mo3 N6 2.009784 1_545
Mo3 N7 2.009784 1_555
Mo4 N0 2.018154 1_555
Mo4 N2 2.018154 1_555
Mo4 N8 2.098868 1_555
Mo4 N10 2.098868 1_555
Mo5 N1 2.018154 1_555
Mo5 N3 2.018154 1_555
Mo5 N11 2.098868 1_555
Mo5 N9 2.098868 1_555
Mo6 N4 2.018154 1_555
Mo6 N6 2.018154 1_555
Mo6 N14 2.098868 1_555
Mo6 N12 2.098868 1_555
Mo7 N5 2.018154 1_555
Mo7 N7 2.018154 1_555
Mo7 N15 2.098868 1_555
Mo7 N13 2.098868 1_555
