# generated using pymatgen
data_LaAl3O6
_symmetry_space_group_name_H-M   'P 1'
_cell_length_a   7.05859762
_cell_length_b   7.05859762
_cell_length_c   6.24900861
_cell_angle_alpha   68.14826608
_cell_angle_beta   68.14826608
_cell_angle_gamma   79.08154620
_symmetry_Int_Tables_number   1
_chemical_formula_structural   LaAl3O6
_chemical_formula_sum   'La2 Al6 O12'
_cell_volume   267.74772515
_cell_formula_units_Z   2
loop_
 _symmetry_equiv_pos_site_id
 _symmetry_equiv_pos_as_xyz
  1  'x, y, z'
loop_
 _atom_site_type_symbol
 _atom_site_label
 _atom_site_symmetry_multiplicity
 _atom_site_fract_x
 _atom_site_fract_y
 _atom_site_fract_z
 _atom_site_occupancy
  La  La0  1  0.81442600  0.18557400  0.25000000  1
  La  La1  1  0.18557400  0.81442600  0.75000000  1
  Al  Al0  1  0.19247200  0.80752800  0.25000000  1
  Al  Al1  1  0.76392000  0.64512400  0.32264900  1
  Al  Al2  1  0.35487600  0.23608000  0.17735100  1
  Al  Al3  1  0.64512400  0.76392000  0.82264900  1
  Al  Al4  1  0.23608000  0.35487600  0.67735100  1
  Al  Al5  1  0.80752800  0.19247200  0.75000000  1
  O  O0  1  0.18322200  0.61353200  0.52253800  1
  O  O1  1  0.19168900  0.02761400  0.32063400  1
  O  O2  1  0.39795200  0.25613500  0.43827900  1
  O  O3  1  0.97238600  0.80831100  0.17936600  1
  O  O4  1  0.38646800  0.81677800  0.97746200  1
  O  O5  1  0.25613500  0.39795200  0.93827900  1
  O  O6  1  0.74386500  0.60204800  0.06172100  1
  O  O7  1  0.61353200  0.18322200  0.02253800  1
  O  O8  1  0.02761400  0.19168900  0.82063400  1
  O  O9  1  0.60204800  0.74386500  0.56172100  1
  O  O10  1  0.80831100  0.97238600  0.67936600  1
  O  O11  1  0.81677800  0.38646800  0.47746200  1
loop_
_geom_bond_atom_site_label_1
_geom_bond_atom_site_label_2
_geom_bond_distance
_geom_bond_site_symmetry_2
La0 O7 2.357631 1_555
La0 O11 2.357631 1_555
La0 O10 2.529462 1_545
La0 O8 2.529462 1_654
La0 O6 2.753389 1_555
La0 O2 2.753389 1_555
La0 O1 2.813031 1_655
La0 O3 2.813031 1_545
La1 O4 2.357631 1_555
La1 O0 2.357631 1_555
La1 O3 2.529462 1_456
La1 O1 2.529462 1_565
La1 O9 2.753389 1_555
La1 O5 2.753389 1_555
La1 O8 2.813031 1_565
La1 O10 2.813031 1_455
Al0 O0 1.730583 1_555
Al0 O4 1.730583 1_554
Al0 O3 1.764537 1_455
Al0 O1 1.764537 1_565
Al1 O11 1.761898 1_555
Al1 O3 1.785302 1_555
Al1 O9 1.796093 1_555
Al1 O6 1.824376 1_555
Al2 O7 1.761898 1_555
Al2 O1 1.785302 1_555
Al2 O5 1.796093 1_554
Al2 O2 1.824376 1_555
Al3 O4 1.761898 1_555
Al3 O10 1.785302 1_555
Al3 O6 1.796093 1_556
Al3 O9 1.824376 1_555
Al4 O0 1.761898 1_555
Al4 O8 1.785302 1_555
Al4 O2 1.796093 1_555
Al4 O5 1.824376 1_555
Al5 O7 1.730583 1_556
Al5 O11 1.730583 1_555
Al5 O10 1.764537 1_545
Al5 O8 1.764537 1_655
