# generated using pymatgen
data_HfCrCuS4
_symmetry_space_group_name_H-M   'P 1'
_cell_length_a   7.19382541
_cell_length_b   7.19382541
_cell_length_c   7.19382541
_cell_angle_alpha   119.92361044
_cell_angle_beta   119.61475638
_cell_angle_gamma   90.40045982
_symmetry_Int_Tables_number   1
_chemical_formula_structural   HfCrCuS4
_chemical_formula_sum   'Hf2 Cr2 Cu2 S8'
_cell_volume   264.15680964
_cell_formula_units_Z   2
loop_
 _symmetry_equiv_pos_site_id
 _symmetry_equiv_pos_as_xyz
  1  'x, y, z'
loop_
 _atom_site_type_symbol
 _atom_site_label
 _atom_site_symmetry_multiplicity
 _atom_site_fract_x
 _atom_site_fract_y
 _atom_site_fract_z
 _atom_site_occupancy
  Hf  Hf0  1  0.00000000  0.50000000  0.00000000  1
  Hf  Hf1  1  0.00000000  0.00000000  0.50000000  1
  Cr  Cr0  1  0.50000000  0.50000000  0.00000000  1
  Cr  Cr1  1  0.00000000  0.50000000  0.50000000  1
  Cu  Cu0  1  0.62895100  0.87895100  0.75000000  1
  Cu  Cu1  1  0.37104900  0.12104900  0.25000000  1
  S  S0  1  0.23722200  0.74013500  0.49708700  1
  S  S1  1  0.74304800  0.74013500  0.00291300  1
  S  S2  1  0.74903400  0.72861300  0.47958000  1
  S  S3  1  0.74903400  0.26945400  0.02042000  1
  S  S4  1  0.76277800  0.25986500  0.50291300  1
  S  S5  1  0.25695200  0.25986500  0.99708700  1
  S  S6  1  0.25096600  0.27138700  0.52042000  1
  S  S7  1  0.25096600  0.73054600  0.97958000  1
loop_
_geom_bond_atom_site_label_1
_geom_bond_atom_site_label_2
_geom_bond_distance
_geom_bond_site_symmetry_2
Hf0 S1 2.539349 1_455
Hf0 S4 2.539349 1_454
Hf0 S0 2.539349 1_555
Hf0 S5 2.539349 1_554
Hf0 S3 2.548538 1_455
Hf0 S7 2.548538 1_554
Hf1 S5 2.539349 1_555
Hf1 S4 2.539349 1_455
Hf1 S0 2.539349 1_545
Hf1 S1 2.539349 1_445
Hf1 S6 2.548543 1_555
Hf1 S2 2.548543 1_445
Cr0 S5 2.434577 1_554
Cr0 S1 2.434577 1_555
Cr0 S7 2.450761 1_554
Cr0 S3 2.450761 1_555
Cr0 S2 2.450761 1_555
Cr0 S6 2.450761 1_554
Cr1 S0 2.434577 1_555
Cr1 S4 2.434577 1_455
Cr1 S2 2.450756 1_455
Cr1 S6 2.450756 1_555
Cr1 S3 2.450761 1_455
Cr1 S7 2.450761 1_555
Cu0 S3 2.296782 1_566
Cu0 S2 2.296783 1_555
Cu0 S1 2.308554 1_556
Cu0 S0 2.308554 1_555
Cu1 S7 2.296782 1_544
Cu1 S6 2.296783 1_555
Cu1 S4 2.308554 1_555
Cu1 S5 2.308554 1_554
