# generated using pymatgen
data_CoO
_symmetry_space_group_name_H-M   'P 1'
_cell_length_a   10.08110670
_cell_length_b   10.01540327
_cell_length_c   10.17928995
_cell_angle_alpha   92.51852484
_cell_angle_beta   90.00127366
_cell_angle_gamma   84.67099091
_symmetry_Int_Tables_number   1
_chemical_formula_structural   CoO
_chemical_formula_sum   'Co40 O40'
_cell_volume   1022.32656236
_cell_formula_units_Z   40
loop_
 _symmetry_equiv_pos_site_id
 _symmetry_equiv_pos_as_xyz
  1  'x, y, z'
loop_
 _atom_site_type_symbol
 _atom_site_label
 _atom_site_symmetry_multiplicity
 _atom_site_fract_x
 _atom_site_fract_y
 _atom_site_fract_z
 _atom_site_occupancy
  Co  Co0  1  0.35077612  0.06203339  0.03059299  1
  Co  Co1  1  0.01763179  0.59747353  0.58803444  1
  Co  Co2  1  0.05065786  0.13884630  0.66322321  1
  Co  Co3  1  0.68918649  0.71142817  0.05822357  1
  Co  Co4  1  0.14465991  0.99913851  0.16995352  1
  Co  Co5  1  0.87600944  0.55464373  0.29142834  1
  Co  Co6  1  0.95599970  0.84666291  0.82513192  1
  Co  Co7  1  0.66060902  0.36714820  0.27570441  1
  Co  Co8  1  0.50490589  0.52314270  0.73053348  1
  Co  Co9  1  0.94253188  0.32794922  0.47130321  1
  Co  Co10  1  0.32671250  0.06033389  0.43274808  1
  Co  Co11  1  0.63612419  0.15659680  0.14860266  1
  Co  Co12  1  0.20548764  0.63540902  0.25431820  1
  Co  Co13  1  0.82302306  0.93195001  0.07011783  1
  Co  Co14  1  0.77408955  0.66037054  0.79265893  1
  Co  Co15  1  0.31442469  0.65165158  0.52870675  1
  Co  Co16  1  0.44328147  0.30454013  0.94836107  1
  Co  Co17  1  0.65936639  0.56611218  0.52454322  1
  Co  Co18  1  0.22863637  0.85313233  0.68024265  1
  Co  Co19  1  0.89474633  0.16042063  0.92906325  1
  Co  Co20  1  0.47767963  0.56687670  0.27372071  1
  Co  Co21  1  0.99834306  0.83317873  0.40724888  1
  Co  Co22  1  0.44859094  0.72056474  0.95622091  1
  Co  Co23  1  0.19315086  0.85274969  0.97418632  1
  Co  Co24  1  0.41818530  0.84522806  0.22521599  1
  Co  Co25  1  0.71401497  0.44726793  0.98869220  1
  Co  Co26  1  0.99747546  0.66306882  0.06530716  1
  Co  Co27  1  0.60021454  0.98038926  0.89986386  1
  Co  Co28  1  0.99088199  0.45115866  0.82817447  1
  Co  Co29  1  0.11077689  0.32120349  0.05555427  1
  Co  Co30  1  0.26587993  0.35747658  0.65264870  1
  Co  Co31  1  0.67753860  0.96506565  0.39966650  1
  Co  Co32  1  0.36348937  0.07429479  0.70356673  1
  Co  Co33  1  0.80776526  0.02036899  0.62623356  1
  Co  Co34  1  0.78246797  0.35400001  0.67941128  1
  Co  Co35  1  0.55341207  0.21914157  0.51807950  1
  Co  Co36  1  0.91684551  0.13111819  0.25858175  1
  Co  Co37  1  0.35686369  0.27374067  0.24106507  1
  Co  Co38  1  0.21916471  0.56643263  0.83987773  1
  Co  Co39  1  0.50791038  0.86900565  0.57401405  1
  O  O0  1  0.84853590  0.30421854  0.30122673  1
  O  O1  1  0.61531086  0.03566151  0.59656727  1
  O  O2  1  0.21360070  0.02252757  0.60146567  1
  O  O3  1  0.21445137  0.54924387  0.63841374  1
  O  O4  1  0.29237896  0.25230153  0.05220125  1
  O  O5  1  0.32343525  0.46412825  0.26578896  1
  O  O6  1  0.29047351  0.74992521  0.83500382  1
  O  O7  1  0.00146266  0.48894041  0.42496491  1
  O  O8  1  0.00080267  0.85560688  0.01688158  1
  O  O9  1  0.67410993  0.55189601  0.33824854  1
  O  O10  1  0.47785688  0.90524141  0.02813100  1
  O  O11  1  0.24007130  0.80180452  0.14795421  1
  O  O12  1  0.09554922  0.77423190  0.55373450  1
  O  O13  1  0.52217940  0.67592219  0.13092009  1
  O  O14  1  0.61467929  0.59492225  0.87756206  1
  O  O15  1  0.50041201  0.68035382  0.60584520  1
  O  O16  1  0.74817478  0.82643614  0.90902984  1
  O  O17  1  0.02973525  0.99779412  0.32894920  1
  O  O18  1  0.29621343  0.08194467  0.24509742  1
  O  O19  1  0.54571455  0.22560928  0.31837776  1
  O  O20  1  0.60479094  0.38762088  0.60609286  1
  O  O21  1  0.08079784  0.32533180  0.69398478  1
  O  O22  1  0.10748280  0.49724422  0.98620107  1
  O  O23  1  0.48953616  0.92788738  0.38975834  1
  O  O24  1  0.82792086  0.57069058  0.09505219  1
  O  O25  1  0.81958635  0.54746848  0.63554175  1
  O  O26  1  0.94215595  0.02897735  0.77566856  1
  O  O27  1  0.00784026  0.69751530  0.26324110  1
  O  O28  1  0.59044996  0.34109840  0.07767033  1
  O  O29  1  0.84059425  0.34240617  0.86592759  1
  O  O30  1  0.35065370  0.70786373  0.36418792  1
  O  O31  1  0.87387019  0.19584376  0.57457126  1
  O  O32  1  0.72991246  0.09150386  0.98847177  1
  O  O33  1  0.37299125  0.42769523  0.81776174  1
  O  O34  1  0.01482922  0.16275401  0.09041683  1
  O  O35  1  0.76120909  0.01815763  0.23716159  1
  O  O36  1  0.98096258  0.65352071  0.80420312  1
  O  O37  1  0.45308337  0.11391380  0.86003818  1
  O  O38  1  0.83045671  0.87604881  0.49086236  1
  O  O39  1  0.36444172  0.21171321  0.55587056  1
loop_
_geom_bond_atom_site_label_1
_geom_bond_atom_site_label_2
_geom_bond_distance
_geom_bond_site_symmetry_2
Co0 O10 1.931500 1_545
Co0 O4 1.944505 1_555
Co0 O37 2.127617 1_554
Co0 O18 2.247537 1_555
Co1 O7 1.959042 1_555
Co1 O12 2.045855 1_555
Co1 O3 2.068067 1_555
Co1 O25 2.162827 1_455
Co1 O36 2.268621 1_455
Co2 O21 1.932042 1_555
Co2 O2 2.007705 1_555
Co2 O26 2.012894 1_455
Co2 O31 2.042728 1_455
Co3 O13 1.908667 1_555
Co3 O24 1.940015 1_555
Co3 O16 2.065867 1_554
Co3 O14 2.298220 1_554
Co4 O18 1.945945 1_565
Co4 O17 1.991678 1_555
Co4 O11 2.118818 1_555
Co4 O34 2.184484 1_565
Co5 O7 1.950429 1_655
Co5 O24 2.066506 1_555
Co5 O27 2.070128 1_655
Co5 O9 2.093379 1_555
Co5 O0 2.555051 1_555
Co6 O26 1.908024 1_565
Co6 O36 1.929759 1_555
Co6 O8 2.003485 1_656
Co6 O16 2.292156 1_555
Co7 O9 1.946997 1_555
Co7 O0 1.961244 1_555
Co7 O19 1.974561 1_555
Co7 O28 2.149405 1_555
Co8 O33 1.944611 1_555
Co8 O14 2.008621 1_555
Co8 O20 2.013923 1_555
Co8 O15 2.062657 1_555
Co9 O7 1.849330 1_655
Co9 O31 1.904489 1_555
Co9 O0 1.989285 1_555
Co10 O18 1.952947 1_555
Co10 O39 1.988507 1_555
Co10 O23 2.046953 1_545
Co10 O2 2.128527 1_555
Co11 O32 1.941162 1_554
Co11 O19 2.018207 1_555
Co11 O28 2.026606 1_555
Co11 O35 2.027371 1_555
Co12 O5 2.002231 1_555
Co12 O30 2.011193 1_555
Co12 O27 2.032255 1_555
Co12 O11 2.082693 1_555
Co13 O35 1.948380 1_565
Co13 O8 1.949208 1_655
Co13 O32 1.990844 1_564
Co13 O16 2.090619 1_554
Co14 O25 1.947213 1_555
Co14 O16 1.995971 1_555
Co14 O14 2.001167 1_555
Co14 O36 2.083743 1_555
Co15 O30 1.837389 1_555
Co15 O3 1.899352 1_555
Co15 O15 2.072409 1_555
Co15 O12 2.431083 1_555
Co16 O33 1.942307 1_555
Co16 O4 1.975292 1_556
Co16 O28 2.031315 1_556
Co16 O37 2.068147 1_555
Co17 O9 1.900224 1_555
Co17 O25 1.970483 1_555
Co17 O15 2.034239 1_555
Co17 O20 2.121476 1_555
Co18 O2 1.901610 1_565
Co18 O6 1.990527 1_555
Co18 O12 2.047015 1_555
Co19 O32 1.962950 1_555
Co19 O29 1.987774 1_555
Co19 O26 2.025369 1_555
Co19 O34 2.040957 1_656
Co20 O13 1.933272 1_555
Co20 O5 1.942498 1_555
Co20 O30 2.007895 1_555
Co20 O9 2.080554 1_555
Co21 O12 1.871394 1_655
Co21 O38 1.899005 1_555
Co21 O17 1.914682 1_655
Co21 O27 1.950628 1_655
Co22 O13 1.980117 1_556
Co22 O10 2.006561 1_556
Co22 O6 2.023501 1_555
Co22 O14 2.132648 1_555
Co23 O11 1.909791 1_556
Co23 O6 1.927320 1_555
Co23 O8 1.984536 1_556
Co24 O23 1.999204 1_555
Co24 O11 2.036354 1_555
Co24 O13 2.102978 1_555
Co24 O30 2.168512 1_555
Co24 O10 2.218357 1_555
Co24 O18 2.567100 1_565
Co25 O28 1.957921 1_556
Co25 O29 1.982108 1_555
Co25 O24 2.040774 1_556
Co25 O14 2.083577 1_555
Co26 O8 2.014494 1_655
Co26 O27 2.033486 1_655
Co26 O22 2.043756 1_654
Co26 O24 2.046406 1_555
Co26 O36 2.661136 1_554
Co27 O37 1.957528 1_565
Co27 O32 1.985839 1_565
Co27 O10 2.012868 1_556
Co27 O16 2.048531 1_555
Co28 O21 1.977927 1_655
Co28 O29 1.993191 1_555
Co28 O36 2.045244 1_555
Co28 O22 2.053727 1_655
Co29 O4 1.895332 1_555
Co29 O22 1.925251 1_554
Co29 O34 1.978515 1_555
Co30 O39 1.921772 1_555
Co30 O3 1.953994 1_555
Co30 O21 1.971179 1_555
Co30 O33 2.126621 1_555
Co31 O38 1.962259 1_555
Co31 O23 1.966890 1_555
Co31 O35 1.972619 1_565
Co31 O1 2.168832 1_565
Co32 O37 1.876461 1_555
Co32 O2 1.931408 1_555
Co32 O39 2.083012 1_555
Co33 O38 1.950376 1_545
Co33 O1 1.956448 1_555
Co33 O31 2.026840 1_555
Co33 O26 2.041296 1_555
Co34 O20 1.946463 1_555
Co34 O29 1.992043 1_555
Co34 O31 2.019251 1_555
Co34 O25 2.074781 1_555
Co35 O39 1.952315 1_555
Co35 O20 1.986877 1_555
Co35 O19 2.037944 1_555
Co35 O1 2.078603 1_555
Co36 O0 1.838582 1_555
Co36 O17 1.842010 1_645
Co36 O35 2.024161 1_555
Co36 O34 2.027867 1_655
Co37 O5 1.910835 1_555
Co37 O4 2.038211 1_555
Co37 O18 2.071358 1_555
Co37 O19 2.083047 1_555
Co38 O33 1.989598 1_555
Co38 O6 2.037150 1_555
Co38 O22 2.049876 1_555
Co38 O3 2.051341 1_555
Co38 O36 2.509547 1_455
Co39 O15 1.939320 1_555
Co39 O23 1.994200 1_555
Co39 O1 2.076766 1_565
