# generated using pymatgen
data_EuGe3Pd
_symmetry_space_group_name_H-M   'P 1'
_cell_length_a   5.95868149
_cell_length_b   5.95868149
_cell_length_c   5.95868149
_cell_angle_alpha   135.99714543
_cell_angle_beta   135.99714543
_cell_angle_gamma   63.98474846
_symmetry_Int_Tables_number   1
_chemical_formula_structural   EuGe3Pd
_chemical_formula_sum   'Eu1 Ge3 Pd1'
_cell_volume   100.73293533
_cell_formula_units_Z   1
loop_
 _symmetry_equiv_pos_site_id
 _symmetry_equiv_pos_as_xyz
  1  'x, y, z'
loop_
 _atom_site_type_symbol
 _atom_site_label
 _atom_site_symmetry_multiplicity
 _atom_site_fract_x
 _atom_site_fract_y
 _atom_site_fract_z
 _atom_site_occupancy
  Eu  Eu0  1  0.00079378  0.00079378  -0.00000000  1
  Ge  Ge0  1  0.25858672  0.75858672  0.50000000  1
  Ge  Ge1  1  0.75858672  0.25858672  0.50000000  1
  Ge  Ge2  1  0.40591252  0.40591252  0.00000000  1
  Pd  Pd0  1  0.64912127  0.64912127  -0.00000000  1
loop_
_geom_bond_atom_site_label_1
_geom_bond_atom_site_label_2
_geom_bond_distance
_geom_bond_site_symmetry_2
Eu0 Ge2 3.299393 1_455
Eu0 Ge2 3.299393 1_556
Eu0 Ge2 3.299393 1_444
Eu0 Ge2 3.299393 1_545
Eu0 Ge1 3.313035 1_455
Eu0 Ge0 3.313035 1_545
Eu0 Ge0 3.313035 1_444
Eu0 Ge1 3.313035 1_444
Eu0 Ge1 3.431080 1_454
Eu0 Ge0 3.431080 1_544
Eu0 Ge1 3.431080 1_555
Eu0 Ge0 3.431080 1_555
Eu0 Pd0 3.494840 1_444
Eu0 Pd0 3.494840 1_545
Eu0 Pd0 3.494840 1_455
Eu0 Pd0 3.494840 1_556
Eu0 Pd0 3.554473 1_445
Ge0 Pd0 2.491443 1_556
Ge0 Pd0 2.491443 1_455
Ge0 Ge2 2.683373 1_566
Ge0 Ge2 2.683373 1_555
Ge1 Pd0 2.491443 1_545
Ge1 Pd0 2.491443 1_556
Ge1 Ge2 2.683373 1_656
Ge1 Ge2 2.683373 1_555
Ge2 Pd0 2.458193 1_555
