# generated using pymatgen
data_Na3MoCl6
_symmetry_space_group_name_H-M   'P 1'
_cell_length_a   6.83210940
_cell_length_b   6.83211123
_cell_length_c   12.19649788
_cell_angle_alpha   90.00000000
_cell_angle_beta   90.00000000
_cell_angle_gamma   120.00000955
_symmetry_Int_Tables_number   1
_chemical_formula_structural   Na3MoCl6
_chemical_formula_sum   'Na6 Mo2 Cl12'
_cell_volume   493.03241665
_cell_formula_units_Z   2
loop_
 _symmetry_equiv_pos_site_id
 _symmetry_equiv_pos_as_xyz
  1  'x, y, z'
loop_
 _atom_site_type_symbol
 _atom_site_label
 _atom_site_symmetry_multiplicity
 _atom_site_fract_x
 _atom_site_fract_y
 _atom_site_fract_z
 _atom_site_occupancy
  Na  Na0  1  0.66666700  0.33333300  0.03839153  1
  Na  Na1  1  0.33333300  0.66666700  0.53839153  1
  Na  Na2  1  0.33333300  0.66666700  0.96160847  1
  Na  Na3  1  0.66666700  0.33333300  0.46160847  1
  Na  Na4  1  0.00000000  0.00000000  0.25000000  1
  Na  Na5  1  0.00000000  0.00000000  0.75000000  1
  Mo  Mo0  1  0.33333300  0.66666700  0.25000000  1
  Mo  Mo1  1  0.66666700  0.33333300  0.75000000  1
  Cl  Cl0  1  0.32037993  0.95119995  0.13088911  1
  Cl  Cl1  1  0.63081902  0.67962007  0.13088911  1
  Cl  Cl2  1  0.04880005  0.36918098  0.13088911  1
  Cl  Cl3  1  0.36918098  0.04880105  0.63088911  1
  Cl  Cl4  1  0.67962007  0.63081902  0.63088911  1
  Cl  Cl5  1  0.95119995  0.32037993  0.63088911  1
  Cl  Cl6  1  0.67962007  0.04880005  0.86911089  1
  Cl  Cl7  1  0.36918098  0.32037993  0.86911089  1
  Cl  Cl8  1  0.95119995  0.63081902  0.86911089  1
  Cl  Cl9  1  0.63081902  0.95119895  0.36911089  1
  Cl  Cl10  1  0.32037993  0.36918098  0.36911089  1
  Cl  Cl11  1  0.04880005  0.67962007  0.36911089  1
loop_
_geom_bond_atom_site_label_1
_geom_bond_atom_site_label_2
_geom_bond_distance
_geom_bond_site_symmetry_2
Cl0 Mo0 2.463593 1_555
Cl0 Na0 2.740337 1_565
Cl0 Na4 2.782542 1_565
Cl0 Na2 2.867325 1_554
Cl1 Mo0 2.463593 1_555
Cl1 Na0 2.740345 1_555
Cl1 Na4 2.782546 1_665
Cl1 Na2 2.867324 1_554
Cl2 Mo0 2.463593 1_555
Cl2 Na0 2.740332 1_455
Cl2 Na4 2.782549 1_555
Cl2 Na2 2.867324 1_554
Cl3 Mo1 2.463590 1_555
Cl3 Na1 2.740339 1_545
Cl3 Na5 2.782546 1_555
Cl3 Na3 2.867322 1_555
Cl4 Mo1 2.463593 1_555
Cl4 Na1 2.740345 1_555
Cl4 Na5 2.782546 1_665
Cl4 Na3 2.867325 1_555
Cl5 Mo1 2.463593 1_555
Cl5 Na1 2.740337 1_655
Cl5 Na5 2.782543 1_655
Cl5 Na3 2.867324 1_555
Cl6 Mo1 2.463593 1_555
Cl6 Na2 2.740337 1_545
Cl6 Na5 2.782542 1_655
Cl6 Na0 2.867325 1_556
Cl7 Mo1 2.463593 1_555
Cl7 Na2 2.740345 1_555
Cl7 Na5 2.782546 1_555
Cl7 Na0 2.867324 1_556
Cl8 Mo1 2.463593 1_555
Cl8 Na2 2.740332 1_655
Cl8 Na5 2.782549 1_665
Cl8 Na0 2.867324 1_556
Cl9 Mo0 2.463590 1_555
Cl9 Na3 2.740339 1_565
Cl9 Na4 2.782546 1_665
Cl9 Na1 2.867322 1_555
Cl10 Mo0 2.463593 1_555
Cl10 Na3 2.740345 1_555
Cl10 Na4 2.782546 1_555
Cl10 Na1 2.867325 1_555
Cl11 Mo0 2.463593 1_555
Cl11 Na3 2.740337 1_455
Cl11 Na4 2.782543 1_565
Cl11 Na1 2.867324 1_555
