# generated using pymatgen
data_Rb2Cu2Sb2S5
_symmetry_space_group_name_H-M   'P 1'
_cell_length_a   10.46244800
_cell_length_b   6.68386500
_cell_length_c   16.76607479
_cell_angle_alpha   80.20983222
_cell_angle_beta   90.00000000
_cell_angle_gamma   90.00000000
_symmetry_Int_Tables_number   1
_chemical_formula_structural   Rb2Cu2Sb2S5
_chemical_formula_sum   'Rb8 Cu8 Sb8 S20'
_cell_volume   1155.37053220
_cell_formula_units_Z   4
loop_
 _symmetry_equiv_pos_site_id
 _symmetry_equiv_pos_as_xyz
  1  'x, y, z'
loop_
 _atom_site_type_symbol
 _atom_site_label
 _atom_site_symmetry_multiplicity
 _atom_site_fract_x
 _atom_site_fract_y
 _atom_site_fract_z
 _atom_site_occupancy
  Rb  Rb0  1  0.35888900  0.23941000  0.46206300  1
  Rb  Rb1  1  0.85888900  0.26059000  0.53793700  1
  Rb  Rb2  1  0.64111100  0.76059000  0.53793700  1
  Rb  Rb3  1  0.14111100  0.73941000  0.46206300  1
  Rb  Rb4  1  0.11668700  0.73483000  0.06710500  1
  Rb  Rb5  1  0.61668700  0.76517000  0.93289500  1
  Rb  Rb6  1  0.88331300  0.26517000  0.93289500  1
  Rb  Rb7  1  0.38331300  0.23483000  0.06710500  1
  Cu  Cu0  1  0.36072700  0.57683000  0.25398000  1
  Cu  Cu1  1  0.86072700  0.92317000  0.74602000  1
  Cu  Cu2  1  0.63927300  0.42317000  0.74602000  1
  Cu  Cu3  1  0.13927300  0.07683000  0.25398000  1
  Cu  Cu4  1  0.64826700  0.52222200  0.35391900  1
  Cu  Cu5  1  0.14826700  0.97777800  0.64608100  1
  Cu  Cu6  1  0.35173300  0.47777800  0.64608100  1
  Cu  Cu7  1  0.85173300  0.02222200  0.35391900  1
  Sb  Sb0  1  0.53676700  0.01088100  0.28335600  1
  Sb  Sb1  1  0.03676700  0.48911900  0.71664400  1
  Sb  Sb2  1  0.46323300  0.98911900  0.71664400  1
  Sb  Sb3  1  0.96323300  0.51088100  0.28335600  1
  Sb  Sb4  1  0.64991400  0.61909200  0.18253400  1
  Sb  Sb5  1  0.14991400  0.88090800  0.81746600  1
  Sb  Sb6  1  0.35008600  0.38090800  0.81746600  1
  Sb  Sb7  1  0.85008600  0.11909200  0.18253400  1
  S  S0  1  0.65910200  0.17429300  0.38437000  1
  S  S1  1  0.15910200  0.32570700  0.61563000  1
  S  S2  1  0.34089800  0.82570700  0.61563000  1
  S  S3  1  0.84089800  0.67429300  0.38437000  1
  S  S4  1  0.46242300  0.69289300  0.36837300  1
  S  S5  1  0.96242300  0.80710700  0.63162700  1
  S  S6  1  0.53757700  0.30710700  0.63162700  1
  S  S7  1  0.03757700  0.19289300  0.36837300  1
  S  S8  1  0.44545000  0.71891300  0.12394100  1
  S  S9  1  0.94545000  0.78108700  0.87605900  1
  S  S10  1  0.55455000  0.28108700  0.87605900  1
  S  S11  1  0.05455000  0.21891300  0.12394100  1
  S  S12  1  0.34316100  0.22019800  0.26752900  1
  S  S13  1  0.84316100  0.27980200  0.73247100  1
  S  S14  1  0.65683900  0.77980200  0.73247100  1
  S  S15  1  0.15683900  0.72019800  0.26752900  1
  S  S16  1  0.80673200  0.85603600  0.09684200  1
  S  S17  1  0.30673200  0.64396400  0.90315800  1
  S  S18  1  0.19326800  0.14396400  0.90315800  1
  S  S19  1  0.69326800  0.35603600  0.09684200  1
loop_
_geom_bond_atom_site_label_1
_geom_bond_atom_site_label_2
_geom_bond_distance
_geom_bond_site_symmetry_2
Rb0 S12 3.289962 1_555
Rb0 S4 3.347942 1_555
Rb0 S1 3.440363 1_555
Rb0 S2 3.448098 1_545
Rb0 S0 3.456105 1_555
Rb0 S6 3.495639 1_555
Rb0 S7 3.745839 1_555
Rb1 S13 3.289962 1_555
Rb1 S5 3.347942 1_545
Rb1 S0 3.440363 1_555
Rb1 S3 3.448098 1_555
Rb1 S1 3.456105 1_655
Rb1 S7 3.495639 1_655
Rb1 S6 3.745839 1_555
Rb2 S14 3.289962 1_555
Rb2 S6 3.347942 1_555
Rb2 S3 3.440363 1_555
Rb2 S0 3.448098 1_565
Rb2 S2 3.456105 1_555
Rb2 S4 3.495639 1_555
Rb2 S5 3.745839 1_555
Rb3 S15 3.289962 1_555
Rb3 S7 3.347942 1_565
Rb3 S2 3.440363 1_555
Rb3 S1 3.448098 1_555
Rb3 S3 3.456105 1_455
Rb3 S5 3.495639 1_455
Rb3 S4 3.745839 1_555
Rb4 S15 3.371358 1_555
Rb4 S16 3.399788 1_455
Rb4 S11 3.479095 1_555
Rb4 S17 3.527844 1_554
Rb4 S8 3.565977 1_555
Rb4 S11 3.584408 1_565
Rb4 S18 3.622058 1_564
Rb4 S9 3.637070 1_454
Rb5 S14 3.371358 1_555
Rb5 S17 3.399788 1_555
Rb5 S10 3.479095 1_565
Rb5 S16 3.527844 1_556
Rb5 S9 3.565977 1_555
Rb5 S10 3.584408 1_555
Rb5 S19 3.622058 1_556
Rb5 S8 3.637070 1_556
Rb6 S13 3.371358 1_555
Rb6 S18 3.399788 1_655
Rb6 S9 3.479095 1_555
Rb6 S19 3.527844 1_556
Rb6 S10 3.565977 1_555
Rb6 S9 3.584408 1_545
Rb6 S16 3.622058 1_546
Rb6 S11 3.637070 1_656
Rb7 S12 3.371358 1_555
Rb7 S19 3.399788 1_555
Rb7 S8 3.479095 1_545
Rb7 S18 3.527844 1_554
Rb7 S11 3.565977 1_555
Rb7 S8 3.584408 1_555
Rb7 S17 3.622058 1_554
Rb7 S10 3.637070 1_554
Cu0 S12 2.362872 1_555
Cu0 S15 2.365224 1_555
Cu0 S8 2.395185 1_555
Cu0 S4 2.432748 1_555
Cu1 S13 2.362872 1_565
Cu1 S14 2.365224 1_555
Cu1 S9 2.395185 1_555
Cu1 S5 2.432748 1_555
Cu2 S14 2.362872 1_555
Cu2 S13 2.365224 1_555
Cu2 S10 2.395185 1_555
Cu2 S6 2.432748 1_555
Cu3 S15 2.362872 1_545
Cu3 S12 2.365224 1_555
Cu3 S11 2.395185 1_555
Cu3 S7 2.432748 1_555
Cu4 S4 2.287938 1_555
Cu4 S0 2.297332 1_555
Cu4 S3 2.352031 1_555
Cu4 Sb4 2.836113 1_555
Cu5 S5 2.287938 1_455
Cu5 S1 2.297332 1_565
Cu5 S2 2.352031 1_555
Cu5 Sb5 2.836113 1_555
Cu6 S6 2.287938 1_555
Cu6 S2 2.297332 1_555
Cu6 S1 2.352031 1_555
Cu6 Sb6 2.836113 1_555
Cu7 S7 2.287938 1_655
Cu7 S3 2.297332 1_545
Cu7 S0 2.352031 1_555
Cu7 Sb7 2.836113 1_555
S0 Sb0 2.515660 1_555
S1 Sb1 2.515660 1_555
S2 Sb2 2.515660 1_555
S3 Sb3 2.515660 1_555
S4 Sb0 2.474624 1_565
S5 Sb1 2.474624 1_655
S6 Sb2 2.474624 1_545
S7 Sb3 2.474624 1_455
S8 Sb4 2.400719 1_555
S9 Sb5 2.400719 1_655
S10 Sb6 2.400719 1_555
S11 Sb7 2.400719 1_455
S12 Sb0 2.450412 1_555
S13 Sb1 2.450412 1_655
S14 Sb2 2.450412 1_555
S15 Sb3 2.450412 1_455
S16 Sb7 2.494063 1_565
S16 Sb4 2.547621 1_555
S17 Sb6 2.494063 1_555
S17 Sb5 2.547621 1_555
S18 Sb5 2.494063 1_545
S18 Sb6 2.547621 1_555
S19 Sb4 2.494063 1_555
S19 Sb7 2.547621 1_555
