# generated using pymatgen
data_SbTeRu
_symmetry_space_group_name_H-M   'P 1'
_cell_length_a   6.56301599
_cell_length_b   6.64626426
_cell_length_c   6.70802933
_cell_angle_alpha   66.05813050
_cell_angle_beta   90.00000000
_cell_angle_gamma   90.00000000
_symmetry_Int_Tables_number   1
_chemical_formula_structural   SbTeRu
_chemical_formula_sum   'Sb4 Te4 Ru4'
_cell_volume   267.42505422
_cell_formula_units_Z   4
loop_
 _symmetry_equiv_pos_site_id
 _symmetry_equiv_pos_as_xyz
  1  'x, y, z'
loop_
 _atom_site_type_symbol
 _atom_site_label
 _atom_site_symmetry_multiplicity
 _atom_site_fract_x
 _atom_site_fract_y
 _atom_site_fract_z
 _atom_site_occupancy
  Sb  Sb0  1  0.63955683  0.85925228  0.38186975  1
  Sb  Sb1  1  0.13955683  0.14074772  0.11813025  1
  Sb  Sb2  1  0.36044317  0.14074772  0.61813025  1
  Sb  Sb3  1  0.86044317  0.85925228  0.88186975  1
  Te  Te0  1  0.36465657  0.65358119  0.17979669  1
  Te  Te1  1  0.86465657  0.34641881  0.32020331  1
  Te  Te2  1  0.63534343  0.34641881  0.82020331  1
  Te  Te3  1  0.13534343  0.65358119  0.67979669  1
  Ru  Ru0  1  0.99958114  0.72330935  0.29374482  1
  Ru  Ru1  1  0.49958114  0.27669065  0.20625518  1
  Ru  Ru2  1  0.00041886  0.27669065  0.70625518  1
  Ru  Ru3  1  0.50041886  0.72330935  0.79374482  1
loop_
_geom_bond_atom_site_label_1
_geom_bond_atom_site_label_2
_geom_bond_distance
_geom_bond_site_symmetry_2
Sb0 Te0 2.909442 1_555
Sb1 Te1 2.909442 1_455
Sb2 Te2 2.909442 1_555
Sb3 Te3 2.909442 1_655
Ru0 Te1 2.594108 1_555
Ru0 Te3 2.596324 1_655
Ru0 Te0 2.612915 1_655
Ru0 Sb0 2.679984 1_555
Ru0 Sb3 2.693997 1_554
Ru0 Sb1 2.697477 1_665
Ru1 Te0 2.594108 1_555
Ru1 Te2 2.596324 1_554
Ru1 Te1 2.612915 1_555
Ru1 Sb1 2.679984 1_555
Ru1 Sb2 2.693997 1_555
Ru1 Sb0 2.697477 1_545
Ru2 Te3 2.594108 1_555
Ru2 Te1 2.596324 1_455
Ru2 Te2 2.612915 1_455
Ru2 Sb2 2.679984 1_555
Ru2 Sb1 2.693997 1_556
Ru2 Sb3 2.697477 1_445
Ru3 Te2 2.594108 1_555
Ru3 Te0 2.596324 1_556
Ru3 Te3 2.612915 1_555
Ru3 Sb3 2.679984 1_555
Ru3 Sb0 2.693997 1_555
Ru3 Sb2 2.697477 1_565
