# generated using pymatgen
data_Ce5GeBi2
_symmetry_space_group_name_H-M   'P 1'
_cell_length_a   12.14980500
_cell_length_b   9.61088200
_cell_length_c   8.08072900
_cell_angle_alpha   90.00000000
_cell_angle_beta   90.00000000
_cell_angle_gamma   90.00000000
_symmetry_Int_Tables_number   1
_chemical_formula_structural   Ce5GeBi2
_chemical_formula_sum   'Ce20 Ge4 Bi8'
_cell_volume   943.58949038
_cell_formula_units_Z   4
loop_
 _symmetry_equiv_pos_site_id
 _symmetry_equiv_pos_as_xyz
  1  'x, y, z'
loop_
 _atom_site_type_symbol
 _atom_site_label
 _atom_site_symmetry_multiplicity
 _atom_site_fract_x
 _atom_site_fract_y
 _atom_site_fract_z
 _atom_site_occupancy
  Ce  Ce0  1  0.05439800  0.55391100  0.81267700  1
  Ce  Ce1  1  0.55439800  0.94608900  0.68732300  1
  Ce  Ce2  1  0.94560200  0.05391100  0.18732300  1
  Ce  Ce3  1  0.44560200  0.44608900  0.31267700  1
  Ce  Ce4  1  0.94560200  0.44608900  0.18732300  1
  Ce  Ce5  1  0.44560200  0.05391100  0.31267700  1
  Ce  Ce6  1  0.05439800  0.94608900  0.81267700  1
  Ce  Ce7  1  0.55439800  0.55391100  0.68732300  1
  Ce  Ce8  1  0.00388900  0.75000000  0.48358400  1
  Ce  Ce9  1  0.50388900  0.75000000  0.01641600  1
  Ce  Ce10  1  0.99611100  0.25000000  0.51641600  1
  Ce  Ce11  1  0.49611100  0.25000000  0.98358400  1
  Ce  Ce12  1  0.21816700  0.75000000  0.16595300  1
  Ce  Ce13  1  0.71816700  0.75000000  0.33404700  1
  Ce  Ce14  1  0.78183300  0.25000000  0.83404700  1
  Ce  Ce15  1  0.28183300  0.25000000  0.66595300  1
  Ce  Ce16  1  0.28667200  0.75000000  0.65156700  1
  Ce  Ce17  1  0.78667200  0.75000000  0.84843300  1
  Ce  Ce18  1  0.71332800  0.25000000  0.34843300  1
  Ce  Ce19  1  0.21332800  0.25000000  0.15156700  1
  Ge  Ge0  1  0.46814500  0.75000000  0.39966900  1
  Ge  Ge1  1  0.96814500  0.75000000  0.10033100  1
  Ge  Ge2  1  0.53185500  0.25000000  0.60033100  1
  Ge  Ge3  1  0.03185500  0.25000000  0.89966900  1
  Bi  Bi0  1  0.32243300  0.50591200  0.93093600  1
  Bi  Bi1  1  0.82243300  0.99408800  0.56906400  1
  Bi  Bi2  1  0.67756700  0.00591200  0.06906400  1
  Bi  Bi3  1  0.17756700  0.49408800  0.43093600  1
  Bi  Bi4  1  0.67756700  0.49408800  0.06906400  1
  Bi  Bi5  1  0.17756700  0.00591200  0.43093600  1
  Bi  Bi6  1  0.32243300  0.99408800  0.93093600  1
  Bi  Bi7  1  0.82243300  0.50591200  0.56906400  1
loop_
_geom_bond_atom_site_label_1
_geom_bond_atom_site_label_2
_geom_bond_distance
_geom_bond_site_symmetry_2
Ce0 Ge3 3.016712 1_555
Ce0 Ge1 3.170642 1_456
Ce1 Ge2 3.016712 1_565
Ce1 Ge0 3.170642 1_555
Ce2 Ge1 3.016712 1_545
Ce2 Ge3 3.170642 1_654
Ce3 Ge0 3.016712 1_555
Ce3 Ge2 3.170642 1_555
Ce4 Ge1 3.016712 1_555
Ce4 Ge3 3.170642 1_654
Ce5 Ge0 3.016712 1_545
Ce5 Ge2 3.170642 1_555
Ce6 Ge3 3.016712 1_565
Ce6 Ge1 3.170642 1_456
Ce7 Ge2 3.016712 1_555
Ce7 Ge0 3.170642 1_555
Ce8 Ge1 3.127265 1_455
Ce9 Ge0 3.127265 1_555
Ce10 Ge3 3.127265 1_655
Ce11 Ge2 3.127265 1_555
Ce12 Ge1 3.083654 1_455
Ce12 Ge0 3.576490 1_555
Ce13 Ge0 3.083654 1_555
Ce13 Ge1 3.576490 1_555
Ce14 Ge3 3.083654 1_655
Ce14 Ge2 3.576490 1_555
Ce15 Ge2 3.083654 1_555
Ce15 Ge3 3.576490 1_555
Ce16 Ge0 3.000792 1_555
Ce17 Ge1 3.000792 1_556
Ce18 Ge2 3.000792 1_555
Ce19 Ge3 3.000792 1_554
Bi0 Ce11 3.268498 1_555
Bi0 Ce12 3.273328 1_556
Bi0 Ce16 3.284564 1_555
Bi0 Ce9 3.292549 1_556
Bi0 Ce15 3.298127 1_555
Bi0 Ce19 3.314386 1_556
Bi0 Ce0 3.425096 1_555
Bi0 Ce7 3.468582 1_555
Bi0 Ce3 3.476446 1_556
Bi1 Ce10 3.268498 1_565
Bi1 Ce13 3.273328 1_555
Bi1 Ce17 3.284564 1_555
Bi1 Ce8 3.292549 1_655
Bi1 Ce14 3.298127 1_565
Bi1 Ce18 3.314386 1_565
Bi1 Ce1 3.425096 1_555
Bi1 Ce6 3.468582 1_655
Bi1 Ce2 3.476446 1_565
Bi2 Ce9 3.268498 1_545
Bi2 Ce14 3.273328 1_554
Bi2 Ce18 3.284564 1_555
Bi2 Ce11 3.292549 1_554
Bi2 Ce13 3.298127 1_545
Bi2 Ce17 3.314386 1_544
Bi2 Ce2 3.425096 1_555
Bi2 Ce5 3.468582 1_555
Bi2 Ce1 3.476446 1_544
Bi3 Ce8 3.268498 1_555
Bi3 Ce15 3.273328 1_555
Bi3 Ce19 3.284564 1_555
Bi3 Ce10 3.292549 1_455
Bi3 Ce12 3.298127 1_555
Bi3 Ce16 3.314386 1_555
Bi3 Ce3 3.425096 1_555
Bi3 Ce4 3.468582 1_455
Bi3 Ce0 3.476446 1_555
Bi4 Ce9 3.268498 1_555
Bi4 Ce14 3.273328 1_554
Bi4 Ce18 3.284564 1_555
Bi4 Ce11 3.292549 1_554
Bi4 Ce13 3.298127 1_555
Bi4 Ce17 3.314386 1_554
Bi4 Ce4 3.425096 1_555
Bi4 Ce3 3.468582 1_555
Bi4 Ce7 3.476446 1_554
Bi5 Ce8 3.268498 1_545
Bi5 Ce15 3.273328 1_555
Bi5 Ce19 3.284564 1_555
Bi5 Ce10 3.292549 1_455
Bi5 Ce12 3.298127 1_545
Bi5 Ce16 3.314386 1_545
Bi5 Ce5 3.425096 1_555
Bi5 Ce2 3.468582 1_455
Bi5 Ce6 3.476446 1_545
Bi6 Ce11 3.268498 1_565
Bi6 Ce12 3.273328 1_556
Bi6 Ce16 3.284564 1_555
Bi6 Ce9 3.292549 1_556
Bi6 Ce15 3.298127 1_565
Bi6 Ce19 3.314386 1_566
Bi6 Ce6 3.425096 1_555
Bi6 Ce1 3.468582 1_555
Bi6 Ce5 3.476446 1_566
Bi7 Ce10 3.268498 1_555
Bi7 Ce13 3.273328 1_555
Bi7 Ce17 3.284564 1_555
Bi7 Ce8 3.292549 1_655
Bi7 Ce14 3.298127 1_555
Bi7 Ce18 3.314386 1_555
Bi7 Ce7 3.425096 1_555
Bi7 Ce0 3.468582 1_655
Bi7 Ce4 3.476446 1_555
