# generated using pymatgen
data_ZnP2O5
_symmetry_space_group_name_H-M   'P 1'
_cell_length_a   7.69327400
_cell_length_b   7.62047700
_cell_length_c   10.36882073
_cell_angle_alpha   78.69555644
_cell_angle_beta   90.00000000
_cell_angle_gamma   90.00000000
_symmetry_Int_Tables_number   1
_chemical_formula_structural   ZnP2O5
_chemical_formula_sum   'Zn4 P8 O20'
_cell_volume   596.09348089
_cell_formula_units_Z   4
loop_
 _symmetry_equiv_pos_site_id
 _symmetry_equiv_pos_as_xyz
  1  'x, y, z'
loop_
 _atom_site_type_symbol
 _atom_site_label
 _atom_site_symmetry_multiplicity
 _atom_site_fract_x
 _atom_site_fract_y
 _atom_site_fract_z
 _atom_site_occupancy
  Zn  Zn0  1  0.54535900  0.80964000  0.60106400  1
  Zn  Zn1  1  0.04535900  0.19036000  0.89893600  1
  Zn  Zn2  1  0.45464100  0.19036000  0.39893600  1
  Zn  Zn3  1  0.95464100  0.80964000  0.10106400  1
  P  P0  1  0.67746200  0.96255400  0.85314500  1
  P  P1  1  0.17746200  0.03744600  0.64685500  1
  P  P2  1  0.32253800  0.03744600  0.14685500  1
  P  P3  1  0.82253800  0.96255400  0.35314500  1
  P  P4  1  0.87749100  0.53637100  0.68986300  1
  P  P5  1  0.37749100  0.46362900  0.81013700  1
  P  P6  1  0.12250900  0.46362900  0.31013700  1
  P  P7  1  0.62250900  0.53637100  0.18986300  1
  O  O0  1  0.85384100  0.97499300  0.92242700  1
  O  O1  1  0.35384100  0.02500700  0.57757300  1
  O  O2  1  0.14615900  0.02500700  0.07757300  1
  O  O3  1  0.64615900  0.97499300  0.42242700  1
  O  O4  1  0.70667700  0.92284700  0.71619100  1
  O  O5  1  0.20667700  0.07715300  0.78380900  1
  O  O6  1  0.29332300  0.07715300  0.28380900  1
  O  O7  1  0.79332300  0.92284700  0.21619100  1
  O  O8  1  0.71520700  0.59030200  0.60748200  1
  O  O9  1  0.21520700  0.40969800  0.89251800  1
  O  O10  1  0.28479300  0.40969800  0.39251800  1
  O  O11  1  0.78479300  0.59030200  0.10748200  1
  O  O12  1  0.89626400  0.33520300  0.73872200  1
  O  O13  1  0.39626400  0.66479700  0.76127800  1
  O  O14  1  0.10373600  0.66479700  0.26127800  1
  O  O15  1  0.60373600  0.33520300  0.23872200  1
  O  O16  1  0.35520900  0.71396800  0.49361900  1
  O  O17  1  0.85520900  0.28603200  0.00638100  1
  O  O18  1  0.64479100  0.28603200  0.50638100  1
  O  O19  1  0.14479100  0.71396800  0.99361900  1
loop_
_geom_bond_atom_site_label_1
_geom_bond_atom_site_label_2
_geom_bond_distance
_geom_bond_site_symmetry_2
O0 P0 1.546934 1_555
O0 Zn3 2.169095 1_556
O0 Zn1 2.183358 1_665
O1 P1 1.546934 1_555
O1 Zn2 2.169095 1_555
O1 Zn0 2.183358 1_545
O2 P2 1.546934 1_555
O2 Zn1 2.169095 1_554
O2 Zn3 2.183358 1_445
O3 P3 1.546934 1_555
O3 Zn0 2.169095 1_555
O3 Zn2 2.183358 1_565
O4 P0 1.525476 1_555
O4 Zn0 2.028104 1_555
O5 P1 1.525476 1_555
O5 Zn1 2.028104 1_555
O6 P2 1.525476 1_555
O6 Zn2 2.028104 1_555
O7 P3 1.525476 1_555
O7 Zn3 2.028104 1_555
O8 P4 1.523044 1_555
O8 Zn0 2.112352 1_555
O9 P5 1.523044 1_555
O9 Zn1 2.112352 1_555
O10 P6 1.523044 1_555
O10 Zn2 2.112352 1_555
O11 P7 1.523044 1_555
O11 Zn3 2.112352 1_555
O12 P4 1.524177 1_555
O12 Zn1 2.138882 1_655
O13 P5 1.524177 1_555
O13 Zn0 2.138882 1_555
O14 P6 1.524177 1_555
O14 Zn3 2.138882 1_455
O15 P7 1.524177 1_555
O15 Zn2 2.138882 1_555
O16 Zn0 2.056975 1_555
O17 Zn1 2.056975 1_654
O18 Zn2 2.056975 1_555
O19 Zn3 2.056975 1_456
