# generated using pymatgen
data_FeHgO2F5
_symmetry_space_group_name_H-M   'P 1'
_cell_length_a   3.88337300
_cell_length_b   7.20674000
_cell_length_c   9.52042700
_cell_angle_alpha   90.00000000
_cell_angle_beta   90.00000000
_cell_angle_gamma   90.00000000
_symmetry_Int_Tables_number   1
_chemical_formula_structural   FeHgO2F5
_chemical_formula_sum   'Fe2 Hg2 O4 F10'
_cell_volume   266.44304498
_cell_formula_units_Z   2
loop_
 _symmetry_equiv_pos_site_id
 _symmetry_equiv_pos_as_xyz
  1  'x, y, z'
loop_
 _atom_site_type_symbol
 _atom_site_label
 _atom_site_symmetry_multiplicity
 _atom_site_fract_x
 _atom_site_fract_y
 _atom_site_fract_z
 _atom_site_occupancy
  Fe  Fe0  1  0.50000000  0.00000000  0.50000000  1
  Fe  Fe1  1  0.50000000  0.50000000  0.00000000  1
  Hg  Hg0  1  0.00000000  0.50000000  0.50000000  1
  Hg  Hg1  1  0.00000000  0.00000000  0.00000000  1
  O  O0  1  0.00000000  0.90860300  0.21210200  1
  O  O1  1  0.00000000  0.09139700  0.78789800  1
  O  O2  1  0.00000000  0.59139700  0.71210200  1
  O  O3  1  0.00000000  0.40860300  0.28789800  1
  F  F0  1  0.50000000  0.02318800  0.29502000  1
  F  F1  1  0.50000000  0.97681200  0.70498000  1
  F  F2  1  0.50000000  0.47681200  0.79502000  1
  F  F3  1  0.50000000  0.52318800  0.20498000  1
  F  F4  1  0.50000000  0.73209600  0.48619900  1
  F  F5  1  0.50000000  0.26790400  0.51380100  1
  F  F6  1  0.50000000  0.76790400  0.98619900  1
  F  F7  1  0.50000000  0.23209600  0.01380100  1
  F  F8  1  0.00000000  0.00000000  0.50000000  1
  F  F9  1  0.00000000  0.50000000  0.00000000  1
loop_
_geom_bond_atom_site_label_1
_geom_bond_atom_site_label_2
_geom_bond_distance
_geom_bond_site_symmetry_2
Hg0 O2 2.124013 1_555
Hg0 O3 2.124013 1_555
Hg1 O0 2.124013 1_545
Hg1 O1 2.124013 1_554
F0 Fe0 1.958639 1_555
F1 Fe0 1.958639 1_565
F2 Fe1 1.958639 1_556
F3 Fe1 1.958639 1_555
F4 Fe0 1.935180 1_565
F4 Hg0 2.566162 1_555
F4 Hg0 2.566162 1_655
F5 Fe0 1.935180 1_555
F5 Hg0 2.566162 1_555
F5 Hg0 2.566162 1_655
F6 Fe1 1.935180 1_556
F6 Hg1 2.566162 1_666
F6 Hg1 2.566162 1_566
F7 Fe1 1.935180 1_555
F7 Hg1 2.566162 1_655
F7 Hg1 2.566162 1_555
F8 Fe0 1.941686 1_455
F8 Fe0 1.941686 1_555
F9 Fe1 1.941686 1_555
F9 Fe1 1.941686 1_455
