# generated using pymatgen
data_CaV3P3O13
_symmetry_space_group_name_H-M   'P 1'
_cell_length_a   6.38583700
_cell_length_b   7.65560900
_cell_length_c   10.49665395
_cell_angle_alpha   80.00606270
_cell_angle_beta   90.00000000
_cell_angle_gamma   90.00000000
_symmetry_Int_Tables_number   1
_chemical_formula_structural   CaV3P3O13
_chemical_formula_sum   'Ca2 V6 P6 O26'
_cell_volume   505.36831825
_cell_formula_units_Z   2
loop_
 _symmetry_equiv_pos_site_id
 _symmetry_equiv_pos_as_xyz
  1  'x, y, z'
loop_
 _atom_site_type_symbol
 _atom_site_label
 _atom_site_symmetry_multiplicity
 _atom_site_fract_x
 _atom_site_fract_y
 _atom_site_fract_z
 _atom_site_occupancy
  Ca  Ca0  1  0.75000000  0.34528700  0.19359600  1
  Ca  Ca1  1  0.25000000  0.65471300  0.80640400  1
  V  V0  1  0.25000000  0.64165000  0.19898900  1
  V  V1  1  0.75000000  0.35835000  0.80101100  1
  V  V2  1  0.25000000  0.22055100  0.43754900  1
  V  V3  1  0.50000000  0.00000000  0.00000000  1
  V  V4  1  0.75000000  0.77944900  0.56245100  1
  V  V5  1  0.00000000  0.00000000  0.00000000  1
  P  P0  1  0.25000000  0.78525700  0.48726200  1
  P  P1  1  0.75000000  0.21474300  0.51273800  1
  P  P2  1  0.25000000  0.26078100  0.76305800  1
  P  P3  1  0.75000000  0.73921900  0.23694200  1
  P  P4  1  0.75000000  0.68312600  0.88791300  1
  P  P5  1  0.25000000  0.31687400  0.11208700  1
  O  O0  1  0.75000000  0.64109400  0.74695900  1
  O  O1  1  0.56014800  0.25026100  0.41717700  1
  O  O2  1  0.25000000  0.20952700  0.62989500  1
  O  O3  1  0.54803400  0.78829800  0.90466300  1
  O  O4  1  0.75000000  0.34177700  0.60965300  1
  O  O5  1  0.75000000  0.12209700  0.91020200  1
  O  O6  1  0.25000000  0.65822300  0.39034700  1
  O  O7  1  0.04803400  0.21170200  0.09533700  1
  O  O8  1  0.25000000  0.97864000  0.41274400  1
  O  O9  1  0.75000000  0.02136000  0.58725600  1
  O  O10  1  0.06226400  0.38055400  0.78748200  1
  O  O11  1  0.25000000  0.87790300  0.08979800  1
  O  O12  1  0.56226400  0.61944600  0.21251800  1
  O  O13  1  0.75000000  0.49263500  0.96735500  1
  O  O14  1  0.75000000  0.79047300  0.37010500  1
  O  O15  1  0.45196600  0.21170200  0.09533700  1
  O  O16  1  0.93985200  0.25026100  0.41717700  1
  O  O17  1  0.43985200  0.74973900  0.58282300  1
  O  O18  1  0.43773600  0.38055400  0.78748200  1
  O  O19  1  0.25000000  0.35890600  0.25304100  1
  O  O20  1  0.75000000  0.91078400  0.13137800  1
  O  O21  1  0.25000000  0.08921600  0.86862200  1
  O  O22  1  0.93773600  0.61944600  0.21251800  1
  O  O23  1  0.95196600  0.78829800  0.90466300  1
  O  O24  1  0.06014800  0.74973900  0.58282300  1
  O  O25  1  0.25000000  0.50736500  0.03264500  1
loop_
_geom_bond_atom_site_label_1
_geom_bond_atom_site_label_2
_geom_bond_distance
_geom_bond_site_symmetry_2
Ca0 O13 2.445859 1_554
Ca0 O22 2.454908 1_555
Ca0 O12 2.454908 1_555
Ca0 O7 2.469390 1_655
Ca0 O15 2.469390 1_555
Ca0 O16 2.629485 1_555
Ca0 O1 2.629485 1_555
Ca1 O25 2.445859 1_556
Ca1 O10 2.454908 1_555
Ca1 O18 2.454908 1_555
Ca1 O3 2.469390 1_555
Ca1 O23 2.469390 1_455
Ca1 O17 2.629485 1_555
Ca1 O24 2.629485 1_555
O0 P4 1.567751 1_555
O0 V4 2.039794 1_555
O0 V1 2.140336 1_555
O1 P1 1.566923 1_555
O1 V2 2.000793 1_555
O2 P2 1.515940 1_555
O2 V2 2.006066 1_555
O3 P4 1.546514 1_555
O3 V3 2.070061 1_566
O4 P1 1.524484 1_555
O4 V1 2.034478 1_555
O5 V1 1.966058 1_555
O5 V3 2.001262 1_556
O5 V5 2.001262 1_656
O6 P0 1.524484 1_555
O6 V0 2.034478 1_555
O7 P5 1.546514 1_555
O7 V5 2.070061 1_555
O8 P0 1.549731 1_555
O8 V2 1.914412 1_565
O9 P1 1.549731 1_555
O9 V4 1.914412 1_545
O10 P2 1.557348 1_555
O10 V1 2.004242 1_455
O11 V0 1.966058 1_555
O11 V3 2.001262 1_565
O11 V5 2.001262 1_565
O12 P3 1.557348 1_555
O12 V0 2.004242 1_555
O13 P4 1.549186 1_555
O13 V1 2.174531 1_555
O14 P3 1.515940 1_555
O14 V4 2.006066 1_555
O15 P5 1.546514 1_555
O15 V3 2.070061 1_555
O16 P1 1.566923 1_555
O16 V2 2.000793 1_655
O17 P0 1.566923 1_555
O17 V4 2.000793 1_555
O18 P2 1.557348 1_555
O18 V1 2.004242 1_555
O19 P5 1.567751 1_555
O19 V2 2.039794 1_555
O19 V0 2.140336 1_555
O20 P3 1.564539 1_555
O20 V5 2.142424 1_665
O20 V3 2.142424 1_565
O21 P2 1.564539 1_555
O21 V3 2.142424 1_556
O21 V5 2.142424 1_556
O22 P3 1.557348 1_555
O22 V0 2.004242 1_655
O23 P4 1.546514 1_555
O23 V5 2.070061 1_666
O24 P0 1.566923 1_555
O24 V4 2.000793 1_455
O25 P5 1.549186 1_555
O25 V0 2.174531 1_555
