# generated using pymatgen
data_Ce2Co3Ge4Ru
_symmetry_space_group_name_H-M   'P 1'
_cell_length_a   4.12110100
_cell_length_b   4.12110100
_cell_length_c   10.04366100
_cell_angle_alpha   90.00000000
_cell_angle_beta   90.00000000
_cell_angle_gamma   90.00000000
_symmetry_Int_Tables_number   1
_chemical_formula_structural   Ce2Co3Ge4Ru
_chemical_formula_sum   'Ce2 Co3 Ge4 Ru1'
_cell_volume   170.57624996
_cell_formula_units_Z   1
loop_
 _symmetry_equiv_pos_site_id
 _symmetry_equiv_pos_as_xyz
  1  'x, y, z'
loop_
 _atom_site_type_symbol
 _atom_site_label
 _atom_site_symmetry_multiplicity
 _atom_site_fract_x
 _atom_site_fract_y
 _atom_site_fract_z
 _atom_site_occupancy
  Ce  Ce0  1  0.00000000  0.00000000  0.99604800  1
  Ce  Ce1  1  0.50000000  0.50000000  0.50395200  1
  Co  Co0  1  0.50000000  0.00000000  0.75000000  1
  Co  Co1  1  0.50000000  0.00000000  0.25000000  1
  Co  Co2  1  0.00000000  0.50000000  0.75000000  1
  Ge  Ge0  1  0.50000000  0.50000000  0.12510900  1
  Ge  Ge1  1  0.00000000  0.00000000  0.63611800  1
  Ge  Ge2  1  0.00000000  0.00000000  0.37489100  1
  Ge  Ge3  1  0.50000000  0.50000000  0.86388200  1
  Ru  Ru0  1  0.00000000  0.50000000  0.25000000  1
loop_
_geom_bond_atom_site_label_1
_geom_bond_atom_site_label_2
_geom_bond_distance
_geom_bond_site_symmetry_2
Ce0 Ge0 3.189355 1_446
Ce0 Ge0 3.189355 1_546
Ce0 Ge0 3.189355 1_456
Ce0 Ge0 3.189355 1_556
Ce0 Ge3 3.202157 1_455
Ce0 Ge3 3.202157 1_445
Ce0 Ge3 3.202157 1_555
Ce0 Ge3 3.202157 1_545
Ce0 Co0 3.217578 1_555
Ce0 Co2 3.217578 1_545
Ce0 Co2 3.217578 1_555
Ce0 Co0 3.217578 1_455
Ce0 Co1 3.278943 1_456
Ce0 Co1 3.278943 1_556
Ce0 Ru0 3.278943 1_556
Ce0 Ru0 3.278943 1_546
Ce1 Ge2 3.189355 1_565
Ce1 Ge2 3.189355 1_555
Ce1 Ge2 3.189355 1_655
Ce1 Ge2 3.189355 1_665
Ce1 Ge1 3.202157 1_665
Ce1 Ge1 3.202157 1_555
Ce1 Ge1 3.202157 1_655
Ce1 Ge1 3.202157 1_565
Ce1 Co0 3.217578 1_555
Ce1 Co0 3.217578 1_565
Ce1 Co2 3.217578 1_555
Ce1 Co2 3.217578 1_655
Ce1 Ru0 3.278943 1_555
Ce1 Co1 3.278943 1_565
Ce1 Co1 3.278943 1_555
Ce1 Ru0 3.278943 1_655
Co0 Ge1 2.356720 1_655
Co0 Ge1 2.356720 1_555
Co0 Ge3 2.356720 1_545
Co0 Ge3 2.356720 1_555
Co1 Ge0 2.412321 1_555
Co1 Ge2 2.412321 1_655
Co1 Ge0 2.412321 1_545
Co1 Ge2 2.412321 1_555
Co1 Ru0 2.914058 1_645
Co1 Ru0 2.914058 1_545
Co1 Ru0 2.914058 1_555
Co1 Ru0 2.914058 1_655
Co2 Ge1 2.356720 1_565
Co2 Ge3 2.356720 1_455
Co2 Ge1 2.356720 1_555
Co2 Ge3 2.356720 1_555
Ge0 Ru0 2.412321 1_555
Ge0 Ru0 2.412321 1_655
Ge0 Ge3 2.623675 1_554
Ge1 Ge2 2.623675 1_555
Ge2 Ru0 2.412321 1_545
Ge2 Ru0 2.412321 1_555
