# generated using pymatgen
data_KNa4FeO4
_symmetry_space_group_name_H-M   'P 1'
_cell_length_a   5.94682682
_cell_length_b   10.43659066
_cell_length_c   18.68481179
_cell_angle_alpha   90.00000000
_cell_angle_beta   90.00000000
_cell_angle_gamma   90.00000000
_symmetry_Int_Tables_number   1
_chemical_formula_structural   KNa4FeO4
_chemical_formula_sum   'K8 Na32 Fe8 O32'
_cell_volume   1159.66531837
_cell_formula_units_Z   8
loop_
 _symmetry_equiv_pos_site_id
 _symmetry_equiv_pos_as_xyz
  1  'x, y, z'
loop_
 _atom_site_type_symbol
 _atom_site_label
 _atom_site_symmetry_multiplicity
 _atom_site_fract_x
 _atom_site_fract_y
 _atom_site_fract_z
 _atom_site_occupancy
  K  K0  1  0.90979950  0.15542801  0.49608910  1
  K  K1  1  0.59020050  0.65542801  0.50391090  1
  K  K2  1  0.40979950  0.84457199  0.00391090  1
  K  K3  1  0.09020050  0.34457199  0.99608910  1
  K  K4  1  0.09020050  0.84457199  0.50391090  1
  K  K5  1  0.40979950  0.34457199  0.49608910  1
  K  K6  1  0.59020050  0.15542801  0.99608910  1
  K  K7  1  0.90979950  0.65542801  0.00391090  1
  Na  Na0  1  0.90126624  0.19714337  0.14361731  1
  Na  Na1  1  0.59873376  0.69714337  0.85638269  1
  Na  Na2  1  0.40126624  0.80285663  0.35638269  1
  Na  Na3  1  0.09873376  0.30285663  0.64361731  1
  Na  Na4  1  0.09873376  0.80285663  0.85638269  1
  Na  Na5  1  0.40126624  0.30285663  0.14361731  1
  Na  Na6  1  0.59873376  0.19714337  0.64361731  1
  Na  Na7  1  0.90126624  0.69714337  0.35638269  1
  Na  Na8  1  0.58097301  0.32582368  0.32295475  1
  Na  Na9  1  0.91902699  0.82582368  0.67704525  1
  Na  Na10  1  0.08097301  0.67417632  0.17704525  1
  Na  Na11  1  0.41902699  0.17417632  0.82295475  1
  Na  Na12  1  0.41902699  0.67417632  0.67704525  1
  Na  Na13  1  0.08097301  0.17417632  0.32295475  1
  Na  Na14  1  0.91902699  0.32582368  0.82295475  1
  Na  Na15  1  0.58097301  0.82582368  0.17704525  1
  Na  Na16  1  0.57492443  0.07566503  0.25152542  1
  Na  Na17  1  0.92507557  0.57566503  0.74847458  1
  Na  Na18  1  0.07492443  0.92433497  0.24847458  1
  Na  Na19  1  0.42507557  0.42433497  0.75152542  1
  Na  Na20  1  0.42507557  0.92433497  0.74847458  1
  Na  Na21  1  0.07492443  0.42433497  0.25152542  1
  Na  Na22  1  0.92507557  0.07566503  0.75152542  1
  Na  Na23  1  0.57492443  0.57566503  0.24847458  1
  Na  Na24  1  0.90909771  0.44370512  0.43285839  1
  Na  Na25  1  0.59090229  0.94370512  0.56714161  1
  Na  Na26  1  0.40909771  0.55629488  0.06714161  1
  Na  Na27  1  0.09090229  0.05629488  0.93285839  1
  Na  Na28  1  0.09090229  0.55629488  0.56714161  1
  Na  Na29  1  0.40909771  0.05629488  0.43285839  1
  Na  Na30  1  0.59090229  0.44370512  0.93285839  1
  Na  Na31  1  0.90909771  0.94370512  0.06714161  1
  Fe  Fe0  1  0.80346563  0.46239403  0.12852488  1
  Fe  Fe1  1  0.69653437  0.96239403  0.87147512  1
  Fe  Fe2  1  0.30346563  0.53760597  0.37147512  1
  Fe  Fe3  1  0.19653437  0.03760597  0.62852488  1
  Fe  Fe4  1  0.19653437  0.53760597  0.87147512  1
  Fe  Fe5  1  0.30346563  0.03760597  0.12852488  1
  Fe  Fe6  1  0.69653437  0.46239403  0.62852488  1
  Fe  Fe7  1  0.80346563  0.96239403  0.37147512  1
  O  O0  1  0.62018965  0.03877688  0.12576899  1
  O  O1  1  0.87981035  0.53877688  0.87423101  1
  O  O2  1  0.12018965  0.96122312  0.37423101  1
  O  O3  1  0.37981035  0.46122312  0.62576899  1
  O  O4  1  0.37981035  0.96122312  0.87423101  1
  O  O5  1  0.12018965  0.46122312  0.12576899  1
  O  O6  1  0.87981035  0.03877688  0.62576899  1
  O  O7  1  0.62018965  0.53877688  0.37423101  1
  O  O8  1  0.66525481  0.38500528  0.04864496  1
  O  O9  1  0.83474519  0.88500528  0.95135504  1
  O  O10  1  0.16525481  0.61499472  0.45135504  1
  O  O11  1  0.33474519  0.11499472  0.54864496  1
  O  O12  1  0.33474519  0.61499472  0.95135504  1
  O  O13  1  0.16525481  0.11499472  0.04864496  1
  O  O14  1  0.83474519  0.38500528  0.54864496  1
  O  O15  1  0.66525481  0.88500528  0.45135504  1
  O  O16  1  0.71305277  0.36931390  0.21076074  1
  O  O17  1  0.78694723  0.86931390  0.78923926  1
  O  O18  1  0.21305277  0.63068610  0.28923926  1
  O  O19  1  0.28694723  0.13068610  0.71076074  1
  O  O20  1  0.28694723  0.63068610  0.78923926  1
  O  O21  1  0.21305277  0.13068610  0.21076074  1
  O  O22  1  0.78694723  0.36931390  0.71076074  1
  O  O23  1  0.71305277  0.86931390  0.28923926  1
  O  O24  1  0.70580642  0.13519960  0.36422972  1
  O  O25  1  0.79419358  0.63519960  0.63577028  1
  O  O26  1  0.20580642  0.86480040  0.13577028  1
  O  O27  1  0.29419358  0.36480040  0.86422972  1
  O  O28  1  0.29419358  0.86480040  0.63577028  1
  O  O29  1  0.20580642  0.36480040  0.36422972  1
  O  O30  1  0.79419358  0.13519960  0.86422972  1
  O  O31  1  0.70580642  0.63519960  0.13577028  1
loop_
_geom_bond_atom_site_label_1
_geom_bond_atom_site_label_2
_geom_bond_distance
_geom_bond_site_symmetry_2
K0 O14 2.627616 1_555
K0 O6 2.717556 1_555
K0 O11 2.743814 1_655
K0 O24 2.754335 1_555
K1 O15 2.627616 1_555
K1 O7 2.717556 1_555
K1 O10 2.743814 1_555
K1 O25 2.754335 1_555
K2 O12 2.627616 1_554
K2 O4 2.717556 1_554
K2 O9 2.743814 1_554
K2 O26 2.754335 1_555
K3 O13 2.627616 1_556
K3 O5 2.717556 1_556
K3 O8 2.743814 1_456
K3 O27 2.754335 1_555
K4 O10 2.627616 1_555
K4 O2 2.717556 1_555
K4 O15 2.743814 1_455
K4 O28 2.754335 1_555
K5 O11 2.627616 1_555
K5 O3 2.717556 1_555
K5 O14 2.743814 1_555
K5 O29 2.754335 1_555
K6 O8 2.627616 1_556
K6 O0 2.717556 1_556
K6 O13 2.743814 1_556
K6 O30 2.754335 1_555
K7 O9 2.627616 1_554
K7 O1 2.717556 1_554
K7 O12 2.743814 1_654
K7 O31 2.754335 1_555
Na0 O21 2.343678 1_655
Na0 O0 2.374225 1_555
Na0 O16 2.460783 1_555
Na0 O13 2.519646 1_655
Na1 O20 2.343678 1_555
Na1 O1 2.374225 1_555
Na1 O17 2.460783 1_555
Na1 O12 2.519646 1_555
Na2 O23 2.343678 1_555
Na2 O2 2.374225 1_555
Na2 O18 2.460783 1_555
Na2 O15 2.519646 1_555
Na3 O22 2.343678 1_455
Na3 O3 2.374225 1_555
Na3 O19 2.460783 1_555
Na3 O14 2.519646 1_455
Na4 O17 2.343678 1_455
Na4 O4 2.374225 1_555
Na4 O20 2.460783 1_555
Na4 O9 2.519646 1_455
Na5 O16 2.343678 1_555
Na5 O5 2.374225 1_555
Na5 O21 2.460783 1_555
Na5 O8 2.519646 1_555
Na6 O19 2.343678 1_555
Na6 O6 2.374225 1_555
Na6 O22 2.460783 1_555
Na6 O11 2.519646 1_555
Na7 O18 2.343678 1_655
Na7 O7 2.374225 1_555
Na7 O23 2.460783 1_555
Na7 O10 2.519646 1_655
Na8 O24 2.259170 1_555
Na8 O16 2.284191 1_555
Na8 O29 2.395377 1_555
Na8 O7 2.431430 1_555
Na9 O25 2.259170 1_555
Na9 O17 2.284191 1_555
Na9 O28 2.395377 1_655
Na9 O6 2.431430 1_565
Na10 O26 2.259170 1_555
Na10 O18 2.284191 1_555
Na10 O31 2.395377 1_455
Na10 O5 2.431430 1_555
Na11 O27 2.259170 1_555
Na11 O19 2.284191 1_555
Na11 O30 2.395377 1_555
Na11 O4 2.431430 1_545
Na12 O28 2.259170 1_555
Na12 O20 2.284191 1_555
Na12 O25 2.395377 1_555
Na12 O3 2.431430 1_555
Na13 O29 2.259170 1_555
Na13 O21 2.284191 1_555
Na13 O24 2.395377 1_455
Na13 O2 2.431430 1_545
Na14 O30 2.259170 1_555
Na14 O22 2.284191 1_555
Na14 O27 2.395377 1_655
Na14 O1 2.431430 1_555
Na15 O31 2.259170 1_555
Na15 O23 2.284191 1_555
Na15 O26 2.395377 1_555
Na15 O0 2.431430 1_565
Na16 O24 2.329486 1_555
Na16 O21 2.353923 1_555
Na16 O0 2.396233 1_555
Na16 O23 2.410251 1_545
Na17 O25 2.329486 1_555
Na17 O20 2.353923 1_655
Na17 O1 2.396233 1_555
Na17 O22 2.410251 1_555
Na18 O26 2.329486 1_555
Na18 O23 2.353923 1_455
Na18 O2 2.396233 1_555
Na18 O21 2.410251 1_565
Na19 O27 2.329486 1_555
Na19 O22 2.353923 1_555
Na19 O3 2.396233 1_555
Na19 O20 2.410251 1_555
Na20 O28 2.329486 1_555
Na20 O17 2.353923 1_555
Na20 O4 2.396233 1_555
Na20 O19 2.410251 1_565
Na21 O29 2.329486 1_555
Na21 O16 2.353923 1_455
Na21 O5 2.396233 1_555
Na21 O18 2.410251 1_555
Na22 O30 2.329486 1_555
Na22 O19 2.353923 1_655
Na22 O6 2.396233 1_555
Na22 O17 2.410251 1_545
Na23 O31 2.329486 1_555
Na23 O18 2.353923 1_555
Na23 O7 2.396233 1_555
Na23 O16 2.410251 1_555
Na24 O7 2.266346 1_555
Na24 O14 2.291579 1_555
Na24 O29 2.331490 1_655
Na24 O10 2.373974 1_655
Na25 O6 2.266346 1_565
Na25 O15 2.291579 1_555
Na25 O28 2.331490 1_555
Na25 O11 2.373974 1_565
Na26 O5 2.266346 1_555
Na26 O12 2.291579 1_554
Na26 O31 2.331490 1_555
Na26 O8 2.373974 1_555
Na27 O4 2.266346 1_545
Na27 O13 2.291579 1_556
Na27 O30 2.331490 1_455
Na27 O9 2.373974 1_445
Na28 O3 2.266346 1_555
Na28 O10 2.291579 1_555
Na28 O25 2.331490 1_455
Na28 O14 2.373974 1_455
Na29 O2 2.266346 1_545
Na29 O11 2.291579 1_555
Na29 O24 2.331490 1_555
Na29 O15 2.373974 1_545
Na30 O1 2.266346 1_555
Na30 O8 2.291579 1_556
Na30 O27 2.331490 1_555
Na30 O12 2.373974 1_555
Na31 O0 2.266346 1_565
Na31 O9 2.291579 1_554
Na31 O26 2.331490 1_655
Na31 O13 2.373974 1_665
Fe0 O5 1.884246 1_655
Fe0 O8 1.885620 1_555
Fe0 O16 1.895733 1_555
Fe0 O31 1.899534 1_555
Fe1 O4 1.884246 1_555
Fe1 O9 1.885620 1_555
Fe1 O17 1.895733 1_555
Fe1 O30 1.899534 1_565
Fe2 O7 1.884246 1_555
Fe2 O10 1.885620 1_555
Fe2 O18 1.895733 1_555
Fe2 O29 1.899534 1_555
Fe3 O6 1.884246 1_455
Fe3 O11 1.885620 1_555
Fe3 O19 1.895733 1_555
Fe3 O28 1.899534 1_545
Fe4 O1 1.884246 1_455
Fe4 O12 1.885620 1_555
Fe4 O20 1.895733 1_555
Fe4 O27 1.899534 1_555
Fe5 O0 1.884246 1_555
Fe5 O13 1.885620 1_555
Fe5 O21 1.895733 1_555
Fe5 O26 1.899534 1_545
Fe6 O3 1.884246 1_555
Fe6 O14 1.885620 1_555
Fe6 O22 1.895733 1_555
Fe6 O25 1.899534 1_555
Fe7 O2 1.884246 1_655
Fe7 O15 1.885620 1_555
Fe7 O23 1.895733 1_555
Fe7 O24 1.899534 1_565
