# generated using pymatgen
data_Sm3Sc2Al3O12
_symmetry_space_group_name_H-M   'P 1'
_cell_length_a   10.89599388
_cell_length_b   10.89599388
_cell_length_c   10.89599388
_cell_angle_alpha   109.47122063
_cell_angle_beta   109.47122063
_cell_angle_gamma   109.47122063
_symmetry_Int_Tables_number   1
_chemical_formula_structural   Sm3Sc2Al3O12
_chemical_formula_sum   'Sm12 Sc8 Al12 O48'
_cell_volume   995.81499412
_cell_formula_units_Z   4
loop_
 _symmetry_equiv_pos_site_id
 _symmetry_equiv_pos_as_xyz
  1  'x, y, z'
loop_
 _atom_site_type_symbol
 _atom_site_label
 _atom_site_symmetry_multiplicity
 _atom_site_fract_x
 _atom_site_fract_y
 _atom_site_fract_z
 _atom_site_occupancy
  Sm  Sm0  1  0.25000000  0.37500000  0.12500000  1
  Sm  Sm1  1  0.75000000  0.62500000  0.87500000  1
  Sm  Sm2  1  0.75000000  0.12500000  0.37500000  1
  Sm  Sm3  1  0.12500000  0.25000000  0.37500000  1
  Sm  Sm4  1  0.37500000  0.75000000  0.12500000  1
  Sm  Sm5  1  0.25000000  0.87500000  0.62500000  1
  Sm  Sm6  1  0.87500000  0.75000000  0.62500000  1
  Sm  Sm7  1  0.62500000  0.25000000  0.87500000  1
  Sm  Sm8  1  0.37500000  0.12500000  0.25000000  1
  Sm  Sm9  1  0.62500000  0.87500000  0.75000000  1
  Sm  Sm10  1  0.12500000  0.37500000  0.75000000  1
  Sm  Sm11  1  0.87500000  0.62500000  0.25000000  1
  Sc  Sc0  1  0.00000000  0.00000000  0.00000000  1
  Sc  Sc1  1  0.50000000  0.00000000  0.50000000  1
  Sc  Sc2  1  0.00000000  0.50000000  0.50000000  1
  Sc  Sc3  1  0.50000000  0.00000000  0.00000000  1
  Sc  Sc4  1  0.50000000  0.50000000  0.00000000  1
  Sc  Sc5  1  0.50000000  0.50000000  0.50000000  1
  Sc  Sc6  1  0.00000000  0.00000000  0.50000000  1
  Sc  Sc7  1  0.00000000  0.50000000  0.00000000  1
  Al  Al0  1  0.25000000  0.62500000  0.37500000  1
  Al  Al1  1  0.75000000  0.37500000  0.62500000  1
  Al  Al2  1  0.75000000  0.87500000  0.12500000  1
  Al  Al3  1  0.37500000  0.25000000  0.62500000  1
  Al  Al4  1  0.62500000  0.75000000  0.37500000  1
  Al  Al5  1  0.25000000  0.12500000  0.87500000  1
  Al  Al6  1  0.12500000  0.75000000  0.87500000  1
  Al  Al7  1  0.87500000  0.25000000  0.12500000  1
  Al  Al8  1  0.62500000  0.37500000  0.25000000  1
  Al  Al9  1  0.37500000  0.62500000  0.75000000  1
  Al  Al10  1  0.87500000  0.12500000  0.75000000  1
  Al  Al11  1  0.12500000  0.87500000  0.25000000  1
  O  O0  1  0.47798700  0.37693400  0.28927000  1
  O  O1  1  0.52201300  0.62306600  0.71073000  1
  O  O2  1  0.58766400  0.18871800  0.21073000  1
  O  O3  1  0.91233600  0.12306600  0.60105400  1
  O  O4  1  0.28927000  0.47798700  0.37693400  1
  O  O5  1  0.31128200  0.91233600  0.28927000  1
  O  O6  1  0.41233600  0.81128200  0.78927000  1
  O  O7  1  0.08766400  0.87693400  0.39894600  1
  O  O8  1  0.71073000  0.52201300  0.62306600  1
  O  O9  1  0.68871800  0.08766400  0.71073000  1
  O  O10  1  0.02201300  0.31128200  0.89894600  1
  O  O11  1  0.21073100  0.58766400  0.18871800  1
  O  O12  1  0.12306600  0.02201300  0.21073000  1
  O  O13  1  0.97798700  0.68871800  0.10105400  1
  O  O14  1  0.78927000  0.41233600  0.81128200  1
  O  O15  1  0.87693400  0.97798700  0.78927000  1
  O  O16  1  0.60105400  0.91233600  0.12306600  1
  O  O17  1  0.18871800  0.47798700  0.60105400  1
  O  O18  1  0.39894600  0.08766400  0.87693400  1
  O  O19  1  0.81128200  0.52201300  0.39894600  1
  O  O20  1  0.89894600  0.02201300  0.31128200  1
  O  O21  1  0.37693400  0.58766400  0.89894600  1
  O  O22  1  0.10105400  0.97798700  0.68871800  1
  O  O23  1  0.62306600  0.41233600  0.10105400  1
  O  O24  1  0.37693400  0.28927000  0.47798700  1
  O  O25  1  0.58766400  0.89894600  0.37693400  1
  O  O26  1  0.62306600  0.71073000  0.52201300  1
  O  O27  1  0.41233600  0.10105400  0.62306600  1
  O  O28  1  0.12306600  0.60105400  0.91233600  1
  O  O29  1  0.02201300  0.21073000  0.12306600  1
  O  O30  1  0.87693400  0.39894600  0.08766400  1
  O  O31  1  0.97798700  0.78926900  0.87693400  1
  O  O32  1  0.31128200  0.89894600  0.02201300  1
  O  O33  1  0.91233600  0.28927000  0.31128200  1
  O  O34  1  0.68871800  0.10105400  0.97798700  1
  O  O35  1  0.08766400  0.71073000  0.68871800  1
  O  O36  1  0.18871800  0.21073000  0.58766400  1
  O  O37  1  0.47798700  0.60105400  0.18871800  1
  O  O38  1  0.81128200  0.78927000  0.41233600  1
  O  O39  1  0.52201300  0.39894600  0.81128200  1
  O  O40  1  0.28927000  0.31128200  0.91233600  1
  O  O41  1  0.71073000  0.68871800  0.08766400  1
  O  O42  1  0.21073000  0.12306600  0.02201300  1
  O  O43  1  0.78927000  0.87693400  0.97798700  1
  O  O44  1  0.89894600  0.37693400  0.58766400  1
  O  O45  1  0.10105400  0.62306600  0.41233600  1
  O  O46  1  0.60105400  0.18871800  0.47798700  1
  O  O47  1  0.39894600  0.81128200  0.52201300  1
loop_
_geom_bond_atom_site_label_1
_geom_bond_atom_site_label_2
_geom_bond_distance
_geom_bond_site_symmetry_2
Al0 O45 1.795232 1_555
Al0 O47 1.795234 1_555
Al0 O11 1.795234 1_555
Al0 O4 1.795242 1_555
Al1 O44 1.795232 1_555
Al1 O14 1.795232 1_555
Al1 O46 1.795234 1_555
Al1 O8 1.795242 1_555
Al2 O16 1.795232 1_555
Al2 O41 1.795232 1_555
Al2 O20 1.795234 1_565
Al2 O43 1.795242 1_554
Al3 O36 1.795232 1_555
Al3 O27 1.795232 1_555
Al3 O39 1.795234 1_555
Al3 O24 1.795242 1_555
Al4 O25 1.795232 1_555
Al4 O38 1.795232 1_555
Al4 O37 1.795234 1_555
Al4 O26 1.795242 1_555
Al5 O18 1.795232 1_555
Al5 O40 1.795232 1_555
Al5 O22 1.795234 1_545
Al5 O42 1.795242 1_556
Al6 O28 1.795232 1_555
Al6 O35 1.795232 1_555
Al6 O32 1.795234 1_556
Al6 O31 1.795237 1_455
Al7 O30 1.795232 1_555
Al7 O33 1.795232 1_555
Al7 O34 1.795234 1_554
Al7 O29 1.795242 1_655
Al8 O2 1.795232 1_555
Al8 O23 1.795232 1_555
Al8 O19 1.795234 1_555
Al8 O0 1.795242 1_555
Al9 O21 1.795232 1_555
Al9 O6 1.795232 1_555
Al9 O17 1.795234 1_555
Al9 O1 1.795242 1_555
Al10 O3 1.795232 1_555
Al10 O9 1.795232 1_555
Al10 O10 1.795234 1_655
Al10 O15 1.795242 1_545
Al11 O7 1.795232 1_555
Al11 O5 1.795232 1_555
Al11 O13 1.795234 1_455
Al11 O12 1.795242 1_565
O0 Sc5 2.119803 1_555
O0 Sm8 2.412671 1_555
O0 Sm0 2.520088 1_555
O1 Sc5 2.119803 1_555
O1 Sm9 2.412671 1_555
O1 Sm1 2.520088 1_555
O2 Sc3 2.119808 1_555
O2 Sm8 2.412672 1_555
O2 Sm2 2.520096 1_555
O3 Sc6 2.119808 1_655
O3 Sm10 2.412672 1_655
O3 Sm2 2.520096 1_555
O4 Sc5 2.119803 1_555
O4 Sm0 2.412671 1_555
O4 Sm3 2.520088 1_555
O5 Sc1 2.119808 1_565
O5 Sm8 2.412672 1_565
O5 Sm4 2.520096 1_555
O6 Sc3 2.119808 1_566
O6 Sm9 2.412672 1_555
O6 Sm5 2.520096 1_555
O7 Sc6 2.119808 1_565
O7 Sm11 2.412672 1_455
O7 Sm5 2.520096 1_555
O8 Sc5 2.119803 1_555
O8 Sm1 2.412671 1_555
O8 Sm6 2.520088 1_555
O9 Sc1 2.119808 1_555
O9 Sm9 2.412672 1_545
O9 Sm7 2.520096 1_555
O10 Sc7 2.119814 1_556
O10 Sm10 2.412665 1_555
O10 Sm0 2.520090 1_556
O11 Sc7 2.119814 1_555
O11 Sm0 2.412665 1_555
O11 Sm4 2.520090 1_555
O12 Sc0 2.119803 1_555
O12 Sm8 2.412671 1_555
O12 Sm3 2.520088 1_555
O13 Sc7 2.119814 1_655
O13 Sm11 2.412665 1_555
O13 Sm1 2.520090 1_554
O14 Sc7 2.119808 1_656
O14 Sm1 2.412672 1_555
O14 Sm7 2.520096 1_555
O15 Sc0 2.119803 1_666
O15 Sm9 2.412671 1_555
O15 Sm6 2.520088 1_555
O16 Sc3 2.119808 1_565
O16 Sm2 2.412672 1_565
O16 Sm4 2.520096 1_555
O17 Sc2 2.119814 1_555
O17 Sm10 2.412665 1_555
O17 Sm3 2.520090 1_555
O18 Sc3 2.119808 1_556
O18 Sm5 2.412672 1_545
O18 Sm7 2.520096 1_555
O19 Sc2 2.119814 1_655
O19 Sm11 2.412665 1_555
O19 Sm6 2.520090 1_555
O20 Sc6 2.119814 1_655
O20 Sm2 2.412665 1_555
O20 Sm3 2.520090 1_655
O21 Sc4 2.119808 1_556
O21 Sm10 2.412672 1_555
O21 Sm4 2.520096 1_556
O22 Sc6 2.119814 1_565
O22 Sm5 2.412665 1_555
O22 Sm6 2.520090 1_455
O23 Sc4 2.119808 1_555
O23 Sm11 2.412672 1_555
O23 Sm7 2.520096 1_554
O24 Sc5 2.119803 1_555
O24 Sm3 2.412671 1_555
O24 Sm8 2.520088 1_555
O25 Sc1 2.119808 1_565
O25 Sm4 2.412672 1_555
O25 Sm2 2.520096 1_565
O26 Sc5 2.119803 1_555
O26 Sm6 2.412671 1_555
O26 Sm9 2.520088 1_555
O27 Sc1 2.119808 1_555
O27 Sm7 2.412672 1_555
O27 Sm5 2.520096 1_545
O28 Sc7 2.119808 1_556
O28 Sm4 2.412672 1_556
O28 Sm10 2.520096 1_555
O29 Sc0 2.119803 1_555
O29 Sm3 2.412671 1_555
O29 Sm0 2.520088 1_555
O30 Sc7 2.119808 1_655
O30 Sm7 2.412672 1_554
O30 Sm11 2.520096 1_555
O31 Sc0 2.119812 1_666
O31 Sm6 2.412675 1_555
O31 Sm1 2.520084 1_555
O32 Sc3 2.119814 1_565
O32 Sm4 2.412665 1_555
O32 Sm8 2.520090 1_565
O33 Sc2 2.119808 1_655
O33 Sm3 2.412672 1_655
O33 Sm2 2.520096 1_555
O34 Sc3 2.119814 1_556
O34 Sm7 2.412665 1_555
O34 Sm9 2.520090 1_545
O35 Sc2 2.119808 1_555
O35 Sm6 2.412672 1_455
O35 Sm5 2.520096 1_555
O36 Sc6 2.119808 1_555
O36 Sm3 2.412672 1_555
O36 Sm10 2.520096 1_555
O37 Sc4 2.119814 1_555
O37 Sm4 2.412665 1_555
O37 Sm0 2.520090 1_555
O38 Sc6 2.119808 1_665
O38 Sm6 2.412672 1_555
O38 Sm11 2.520096 1_555
O39 Sc4 2.119814 1_556
O39 Sm7 2.412665 1_555
O39 Sm1 2.520090 1_555
O40 Sc4 2.119808 1_556
O40 Sm0 2.412672 1_556
O40 Sm10 2.520096 1_555
O41 Sc4 2.119808 1_555
O41 Sm1 2.412672 1_554
O41 Sm11 2.520096 1_555
O42 Sc0 2.119803 1_555
O42 Sm0 2.412671 1_555
O42 Sm8 2.520088 1_555
O43 Sc0 2.119803 1_666
O43 Sm1 2.412671 1_555
O43 Sm9 2.520088 1_555
O44 Sc2 2.119808 1_655
O44 Sm2 2.412672 1_555
O44 Sm10 2.520096 1_655
O45 Sc2 2.119808 1_555
O45 Sm5 2.412672 1_555
O45 Sm11 2.520096 1_455
O46 Sc1 2.119814 1_555
O46 Sm2 2.412665 1_555
O46 Sm8 2.520090 1_555
O47 Sc1 2.119814 1_565
O47 Sm5 2.412665 1_555
O47 Sm9 2.520090 1_555
