# generated using pymatgen
data_Na2Fe3(PO4)3
_symmetry_space_group_name_H-M   'P 1'
_cell_length_a   5.00996700
_cell_length_b   12.13303400
_cell_length_c   16.07969150
_cell_angle_alpha   80.75551944
_cell_angle_beta   90.00000000
_cell_angle_gamma   90.00000000
_symmetry_Int_Tables_number   1
_chemical_formula_structural   Na2Fe3(PO4)3
_chemical_formula_sum   'Na8 Fe12 P12 O48'
_cell_volume   964.72683125
_cell_formula_units_Z   4
loop_
 _symmetry_equiv_pos_site_id
 _symmetry_equiv_pos_as_xyz
  1  'x, y, z'
loop_
 _atom_site_type_symbol
 _atom_site_label
 _atom_site_symmetry_multiplicity
 _atom_site_fract_x
 _atom_site_fract_y
 _atom_site_fract_z
 _atom_site_occupancy
  Na  Na0  1  0.51483300  0.13996700  0.84150800  1
  Na  Na1  1  0.98516700  0.13996700  0.34150800  1
  Na  Na2  1  0.48516700  0.86003300  0.15849200  1
  Na  Na3  1  0.01483300  0.86003300  0.65849200  1
  Na  Na4  1  0.50229100  0.33422800  0.66250600  1
  Na  Na5  1  0.99770900  0.33422800  0.16250600  1
  Na  Na6  1  0.49770900  0.66577200  0.33749400  1
  Na  Na7  1  0.00229100  0.66577200  0.83749400  1
  Fe  Fe0  1  0.51840700  0.94021800  0.34540000  1
  Fe  Fe1  1  0.98159300  0.94021800  0.84540000  1
  Fe  Fe2  1  0.48159300  0.05978200  0.65460000  1
  Fe  Fe3  1  0.01840700  0.05978200  0.15460000  1
  Fe  Fe4  1  0.51550100  0.60280100  0.67746800  1
  Fe  Fe5  1  0.98449900  0.60280100  0.17746800  1
  Fe  Fe6  1  0.48449900  0.39719900  0.32253200  1
  Fe  Fe7  1  0.01550100  0.39719900  0.82253200  1
  Fe  Fe8  1  0.49621900  0.72455700  0.99125300  1
  Fe  Fe9  1  0.00378100  0.72455700  0.49125300  1
  Fe  Fe10  1  0.50378100  0.27544300  0.00874700  1
  Fe  Fe11  1  0.99621900  0.27544300  0.50874700  1
  P  P0  1  0.05746300  0.81995800  0.28762100  1
  P  P1  1  0.44253700  0.81995800  0.78762100  1
  P  P2  1  0.94253700  0.18004200  0.71237900  1
  P  P3  1  0.55746300  0.18004200  0.21237900  1
  P  P4  1  0.93438300  0.84194000  0.04567800  1
  P  P5  1  0.56561700  0.84194000  0.54567800  1
  P  P6  1  0.06561700  0.15806000  0.95432200  1
  P  P7  1  0.43438300  0.15806000  0.45432200  1
  P  P8  1  0.05399200  0.48659100  0.61531800  1
  P  P9  1  0.44600800  0.48659100  0.11531800  1
  P  P10  1  0.94600800  0.51340900  0.38468200  1
  P  P11  1  0.55399200  0.51340900  0.88468200  1
  O  O0  1  0.75065700  0.82816900  0.28771800  1
  O  O1  1  0.74934300  0.82816900  0.78771800  1
  O  O2  1  0.24934300  0.17183100  0.71228200  1
  O  O3  1  0.25065700  0.17183100  0.21228200  1
  O  O4  1  0.23800300  0.82565000  0.04036600  1
  O  O5  1  0.26199700  0.82565000  0.54036600  1
  O  O6  1  0.76199700  0.17435000  0.95963400  1
  O  O7  1  0.73800300  0.17435000  0.45963400  1
  O  O8  1  0.75054400  0.49005500  0.62107400  1
  O  O9  1  0.74945600  0.49005500  0.12107400  1
  O  O10  1  0.24945600  0.50994500  0.37892600  1
  O  O11  1  0.25054400  0.50994500  0.87892600  1
  O  O12  1  0.37047200  0.06192000  0.40598700  1
  O  O13  1  0.12952800  0.06192000  0.90598700  1
  O  O14  1  0.62952800  0.93808000  0.59401300  1
  O  O15  1  0.87047200  0.93808000  0.09401300  1
  O  O16  1  0.64895300  0.60974600  0.93163900  1
  O  O17  1  0.85104700  0.60974600  0.43163900  1
  O  O18  1  0.35104700  0.39025400  0.06836100  1
  O  O19  1  0.14895300  0.39025400  0.56836100  1
  O  O20  1  0.34225600  0.73154200  0.73527700  1
  O  O21  1  0.15774400  0.73154200  0.23527700  1
  O  O22  1  0.65774400  0.26845800  0.26472300  1
  O  O23  1  0.84225600  0.26845800  0.76472300  1
  O  O24  1  0.17932500  0.79209900  0.37910200  1
  O  O25  1  0.32067500  0.79209900  0.87910200  1
  O  O26  1  0.82067500  0.20790100  0.62089800  1
  O  O27  1  0.67932500  0.20790100  0.12089800  1
  O  O28  1  0.80549900  0.06609700  0.74856700  1
  O  O29  1  0.69450100  0.06609700  0.24856700  1
  O  O30  1  0.19450100  0.93390300  0.25143300  1
  O  O31  1  0.30549900  0.93390300  0.75143300  1
  O  O32  1  0.19581000  0.46552300  0.70390100  1
  O  O33  1  0.30419000  0.46552300  0.20390100  1
  O  O34  1  0.80419000  0.53447700  0.29609900  1
  O  O35  1  0.69581000  0.53447700  0.79609900  1
  O  O36  1  0.78387800  0.73317000  0.08993200  1
  O  O37  1  0.71612200  0.73317000  0.58993200  1
  O  O38  1  0.21612200  0.26683000  0.91006800  1
  O  O39  1  0.28387800  0.26683000  0.41006800  1
  O  O40  1  0.20932300  0.14326800  0.04187900  1
  O  O41  1  0.29067700  0.14326800  0.54187900  1
  O  O42  1  0.79067700  0.85673200  0.95812100  1
  O  O43  1  0.70932300  0.85673200  0.45812100  1
  O  O44  1  0.82032000  0.39916600  0.42704500  1
  O  O45  1  0.67968000  0.39916600  0.92704500  1
  O  O46  1  0.17968000  0.60083400  0.57295500  1
  O  O47  1  0.32032000  0.60083400  0.07295500  1
loop_
_geom_bond_atom_site_label_1
_geom_bond_atom_site_label_2
_geom_bond_distance
_geom_bond_site_symmetry_2
Na0 O13 2.320028 1_555
Na0 O6 2.360042 1_555
Na0 O28 2.363824 1_555
Na0 O2 2.445044 1_555
Na0 O23 2.455049 1_555
Na0 O38 2.523764 1_555
Na1 O12 2.320028 1_655
Na1 O7 2.360042 1_555
Na1 O29 2.363824 1_555
Na1 O3 2.445044 1_655
Na1 O22 2.455049 1_555
Na1 O39 2.523764 1_655
Na2 O15 2.320028 1_555
Na2 O4 2.360042 1_555
Na2 O30 2.363824 1_555
Na2 O0 2.445044 1_555
Na2 O21 2.455049 1_555
Na2 O36 2.523764 1_555
Na3 O14 2.320028 1_455
Na3 O5 2.360042 1_555
Na3 O31 2.363824 1_555
Na3 O1 2.445044 1_455
Na3 O20 2.455049 1_555
Na3 O37 2.523764 1_455
Na4 O8 2.271697 1_555
Na4 O19 2.357279 1_555
Na4 O2 2.371121 1_555
Na4 O26 2.381319 1_555
Na4 O32 2.383073 1_555
Na4 O23 2.412011 1_555
Na5 O9 2.271697 1_555
Na5 O18 2.357279 1_655
Na5 O3 2.371121 1_655
Na5 O27 2.381319 1_555
Na5 O33 2.383073 1_655
Na5 O22 2.412011 1_555
Na6 O10 2.271697 1_555
Na6 O17 2.357279 1_555
Na6 O0 2.371121 1_555
Na6 O24 2.381319 1_555
Na6 O34 2.383073 1_555
Na6 O21 2.412011 1_555
Na7 O11 2.271697 1_555
Na7 O16 2.357279 1_455
Na7 O1 2.371121 1_455
Na7 O25 2.381319 1_555
Na7 O35 2.383073 1_455
Na7 O20 2.412011 1_555
Fe0 O12 2.034944 1_565
Fe0 O0 2.113650 1_555
Fe0 O43 2.153193 1_555
Fe0 O29 2.184325 1_565
Fe0 O30 2.226974 1_555
Fe0 O24 2.469077 1_555
Fe1 O13 2.034944 1_665
Fe1 O1 2.113650 1_555
Fe1 O42 2.153193 1_555
Fe1 O28 2.184325 1_565
Fe1 O31 2.226974 1_655
Fe1 O25 2.469077 1_655
Fe2 O14 2.034944 1_545
Fe2 O2 2.113650 1_555
Fe2 O41 2.153193 1_555
Fe2 O31 2.184325 1_545
Fe2 O28 2.226974 1_555
Fe2 O26 2.469077 1_555
Fe3 O15 2.034944 1_445
Fe3 O3 2.113650 1_555
Fe3 O40 2.153193 1_555
Fe3 O30 2.184325 1_545
Fe3 O29 2.226974 1_455
Fe3 O27 2.469077 1_455
Fe4 O8 2.116310 1_555
Fe4 O20 2.126928 1_555
Fe4 O35 2.152651 1_555
Fe4 O37 2.185886 1_555
Fe4 O32 2.300581 1_555
Fe4 O46 2.380820 1_555
Fe5 O9 2.116310 1_555
Fe5 O21 2.126928 1_655
Fe5 O34 2.152651 1_555
Fe5 O36 2.185886 1_555
Fe5 O33 2.300581 1_655
Fe5 O47 2.380820 1_655
Fe6 O10 2.116310 1_555
Fe6 O22 2.126928 1_555
Fe6 O33 2.152651 1_555
Fe6 O39 2.185886 1_555
Fe6 O34 2.300581 1_555
Fe6 O44 2.380820 1_555
Fe7 O11 2.116310 1_555
Fe7 O23 2.126928 1_455
Fe7 O32 2.152651 1_555
Fe7 O38 2.185886 1_555
Fe7 O35 2.300581 1_455
Fe7 O45 2.380820 1_455
Fe8 O16 1.968216 1_555
Fe8 O4 2.028024 1_556
Fe8 O47 2.030344 1_556
Fe8 O25 2.054822 1_555
Fe8 O36 2.158437 1_556
Fe8 O42 2.181149 1_555
Fe9 O17 1.968216 1_455
Fe9 O5 2.028024 1_555
Fe9 O46 2.030344 1_555
Fe9 O24 2.054822 1_555
Fe9 O37 2.158437 1_455
Fe9 O43 2.181149 1_455
Fe10 O18 1.968216 1_555
Fe10 O6 2.028024 1_554
Fe10 O45 2.030344 1_554
Fe10 O27 2.054822 1_555
Fe10 O38 2.158437 1_554
Fe10 O40 2.181149 1_555
Fe11 O19 1.968216 1_655
Fe11 O7 2.028024 1_555
Fe11 O44 2.030344 1_555
Fe11 O26 2.054822 1_555
Fe11 O39 2.158437 1_655
Fe11 O41 2.181149 1_655
O0 P0 1.540330 1_655
O1 P1 1.540330 1_555
O2 P2 1.540330 1_455
O3 P3 1.540330 1_555
O4 P4 1.538054 1_455
O5 P5 1.538054 1_555
O6 P6 1.538054 1_655
O7 P7 1.538054 1_555
O8 P8 1.524069 1_655
O9 P9 1.524069 1_555
O10 P10 1.524069 1_455
O11 P11 1.524069 1_555
O12 P7 1.535747 1_555
O13 P6 1.535747 1_555
O14 P5 1.535747 1_555
O15 P4 1.535747 1_555
O16 P11 1.564046 1_555
O17 P10 1.564046 1_555
O18 P9 1.564046 1_555
O19 P8 1.564046 1_555
O20 P1 1.549752 1_555
O21 P0 1.549752 1_555
O22 P3 1.549752 1_555
O23 P2 1.549752 1_555
O24 P0 1.578304 1_555
O25 P1 1.578304 1_555
O26 P2 1.578304 1_555
O27 P3 1.578304 1_555
O28 P2 1.569328 1_555
O29 P3 1.569328 1_555
O30 P0 1.569328 1_555
O31 P1 1.569328 1_555
O32 P8 1.575453 1_555
O33 P9 1.575453 1_555
O34 P10 1.575453 1_555
O35 P11 1.575453 1_555
O36 P4 1.585820 1_555
O37 P5 1.585820 1_555
O38 P6 1.585820 1_555
O39 P7 1.585820 1_555
O40 P6 1.565735 1_554
O41 P7 1.565735 1_555
O42 P4 1.565735 1_556
O43 P5 1.565735 1_555
O44 P10 1.574316 1_555
O45 P11 1.574316 1_555
O46 P8 1.574316 1_555
O47 P9 1.574316 1_555
