# generated using pymatgen
data_AcTh3
_symmetry_space_group_name_H-M   'P 1'
_cell_length_a   7.32049780
_cell_length_b   7.32049780
_cell_length_c   6.01151900
_cell_angle_alpha   90.00000000
_cell_angle_beta   90.00000000
_cell_angle_gamma   119.99999815
_symmetry_Int_Tables_number   1
_chemical_formula_structural   AcTh3
_chemical_formula_sum   'Ac2 Th6'
_cell_volume   278.99478933
_cell_formula_units_Z   2
loop_
 _symmetry_equiv_pos_site_id
 _symmetry_equiv_pos_as_xyz
  1  'x, y, z'
loop_
 _atom_site_type_symbol
 _atom_site_label
 _atom_site_symmetry_multiplicity
 _atom_site_fract_x
 _atom_site_fract_y
 _atom_site_fract_z
 _atom_site_occupancy
  Ac  Ac0  1  0.33333300  0.66666700  0.75000000  1
  Ac  Ac1  1  0.66666700  0.33333300  0.25000000  1
  Th  Th0  1  0.16100900  0.32201800  0.25000000  1
  Th  Th1  1  0.67798200  0.83899100  0.25000000  1
  Th  Th2  1  0.16100900  0.83899100  0.25000000  1
  Th  Th3  1  0.83899100  0.67798200  0.75000000  1
  Th  Th4  1  0.32201800  0.16100900  0.75000000  1
  Th  Th5  1  0.83899100  0.16100900  0.75000000  1
loop_
_geom_bond_atom_site_label_1
_geom_bond_atom_site_label_2
_geom_bond_distance
_geom_bond_site_symmetry_2
Ac0 Th4 3.660948 1_565
Ac0 Th3 3.660948 1_455
Ac0 Th5 3.660952 1_565
Ac0 Th5 3.660952 1_455
Ac0 Th3 3.660955 1_555
Ac0 Th4 3.660955 1_555
Ac0 Th2 3.716008 1_556
Ac0 Th2 3.716008 1_555
Ac0 Th1 3.716012 1_556
Ac0 Th1 3.716012 1_555
Ac0 Th0 3.716012 1_555
Ac0 Th0 3.716012 1_556
Ac1 Th0 3.660948 1_655
Ac1 Th1 3.660948 1_545
Ac1 Th2 3.660952 1_655
Ac1 Th2 3.660952 1_545
Ac1 Th1 3.660955 1_555
Ac1 Th0 3.660955 1_555
Ac1 Th5 3.716008 1_555
Ac1 Th5 3.716008 1_554
Ac1 Th3 3.716012 1_555
Ac1 Th3 3.716012 1_554
Ac1 Th4 3.716012 1_555
Ac1 Th4 3.716012 1_554
Th0 Th2 3.535998 1_545
Th0 Th1 3.535998 1_445
Th0 Th4 3.633504 1_555
Th0 Th4 3.633504 1_554
Th0 Th5 3.633504 1_454
Th0 Th5 3.633504 1_455
Th0 Th2 3.784500 1_555
Th0 Th1 3.784500 1_555
Th1 Th2 3.535998 1_655
Th1 Th3 3.633504 1_555
Th1 Th3 3.633504 1_554
Th1 Th5 3.633504 1_564
Th1 Th5 3.633504 1_565
Th1 Th2 3.784500 1_555
Th2 Th3 3.633504 1_455
Th2 Th3 3.633504 1_454
Th2 Th4 3.633504 1_564
Th2 Th4 3.633504 1_565
Th3 Th5 3.535998 1_565
Th3 Th4 3.535998 1_665
Th3 Th5 3.784500 1_555
Th3 Th4 3.784500 1_555
Th4 Th5 3.535998 1_455
Th4 Th5 3.784500 1_555
