# generated using pymatgen
data_CaIrN2
_symmetry_space_group_name_H-M   'P 1'
_cell_length_a   5.22065200
_cell_length_b   10.46520200
_cell_length_c   16.64349500
_cell_angle_alpha   90.00000000
_cell_angle_beta   90.00000000
_cell_angle_gamma   90.00000000
_symmetry_Int_Tables_number   1
_chemical_formula_structural   CaIrN2
_chemical_formula_sum   'Ca16 Ir16 N32'
_cell_volume   909.32030773
_cell_formula_units_Z   16
loop_
 _symmetry_equiv_pos_site_id
 _symmetry_equiv_pos_as_xyz
  1  'x, y, z'
loop_
 _atom_site_type_symbol
 _atom_site_label
 _atom_site_symmetry_multiplicity
 _atom_site_fract_x
 _atom_site_fract_y
 _atom_site_fract_z
 _atom_site_occupancy
  Ca  Ca0  1  0.73030600  0.96536700  0.44173800  1
  Ca  Ca1  1  0.23030600  0.53463300  0.55826200  1
  Ca  Ca2  1  0.26969400  0.46536700  0.05826200  1
  Ca  Ca3  1  0.76969400  0.03463300  0.94173800  1
  Ca  Ca4  1  0.26969400  0.03463300  0.55826200  1
  Ca  Ca5  1  0.76969400  0.46536700  0.44173800  1
  Ca  Ca6  1  0.73030600  0.53463300  0.94173800  1
  Ca  Ca7  1  0.23030600  0.96536700  0.05826200  1
  Ca  Ca8  1  0.75693900  0.22109000  0.31217200  1
  Ca  Ca9  1  0.25693900  0.27891000  0.68782800  1
  Ca  Ca10  1  0.24306100  0.72109000  0.18782800  1
  Ca  Ca11  1  0.74306100  0.77891000  0.81217200  1
  Ca  Ca12  1  0.24306100  0.77891000  0.68782800  1
  Ca  Ca13  1  0.74306100  0.72109000  0.31217200  1
  Ca  Ca14  1  0.75693900  0.27891000  0.81217200  1
  Ca  Ca15  1  0.25693900  0.22109000  0.18782800  1
  Ir  Ir0  1  0.66326400  0.00130000  0.19215500  1
  Ir  Ir1  1  0.16326400  0.49870000  0.80784500  1
  Ir  Ir2  1  0.33673600  0.50130000  0.30784500  1
  Ir  Ir3  1  0.83673600  0.99870000  0.69215500  1
  Ir  Ir4  1  0.33673600  0.99870000  0.80784500  1
  Ir  Ir5  1  0.83673600  0.50130000  0.19215500  1
  Ir  Ir6  1  0.66326400  0.49870000  0.69215500  1
  Ir  Ir7  1  0.16326400  0.00130000  0.30784500  1
  Ir  Ir8  1  0.81789200  0.27424400  0.07197500  1
  Ir  Ir9  1  0.31789200  0.22575600  0.92802500  1
  Ir  Ir10  1  0.18210800  0.77424400  0.42802500  1
  Ir  Ir11  1  0.68210800  0.72575600  0.57197500  1
  Ir  Ir12  1  0.18210800  0.72575600  0.92802500  1
  Ir  Ir13  1  0.68210800  0.77424400  0.07197500  1
  Ir  Ir14  1  0.81789200  0.22575600  0.57197500  1
  Ir  Ir15  1  0.31789200  0.27424400  0.42802500  1
  N  N0  1  0.70930300  0.45625600  0.29884000  1
  N  N1  1  0.20930300  0.04374400  0.70116000  1
  N  N2  1  0.29069700  0.95625600  0.20116000  1
  N  N3  1  0.79069700  0.54374400  0.79884000  1
  N  N4  1  0.29069700  0.54374400  0.70116000  1
  N  N5  1  0.79069700  0.95625600  0.29884000  1
  N  N6  1  0.70930300  0.04374400  0.79884000  1
  N  N7  1  0.20930300  0.45625600  0.20116000  1
  N  N8  1  0.66647300  0.22924300  0.45649800  1
  N  N9  1  0.16647300  0.27075700  0.54350200  1
  N  N10  1  0.33352700  0.72924300  0.04350200  1
  N  N11  1  0.83352700  0.77075700  0.95649800  1
  N  N12  1  0.33352700  0.77075700  0.54350200  1
  N  N13  1  0.83352700  0.72924300  0.45649800  1
  N  N14  1  0.66647300  0.27075700  0.95649800  1
  N  N15  1  0.16647300  0.22924300  0.04350200  1
  N  N16  1  0.74329800  0.45637600  0.07894400  1
  N  N17  1  0.24329800  0.04362400  0.92105600  1
  N  N18  1  0.25670200  0.95637600  0.42105600  1
  N  N19  1  0.75670200  0.54362400  0.57894400  1
  N  N20  1  0.25670200  0.54362400  0.92105600  1
  N  N21  1  0.75670200  0.95637600  0.07894400  1
  N  N22  1  0.74329800  0.04362400  0.57894400  1
  N  N23  1  0.24329800  0.45637600  0.42105600  1
  N  N24  1  0.70731700  0.18713900  0.16682400  1
  N  N25  1  0.20731700  0.31286100  0.83317600  1
  N  N26  1  0.29268300  0.68713900  0.33317600  1
  N  N27  1  0.79268300  0.81286100  0.66682400  1
  N  N28  1  0.29268300  0.81286100  0.83317600  1
  N  N29  1  0.79268300  0.68713900  0.16682400  1
  N  N30  1  0.70731700  0.31286100  0.66682400  1
  N  N31  1  0.20731700  0.18713900  0.33317600  1
loop_
_geom_bond_atom_site_label_1
_geom_bond_atom_site_label_2
_geom_bond_distance
_geom_bond_site_symmetry_2
Ca0 N5 2.401023 1_555
Ca0 N22 2.426951 1_565
Ca0 N18 2.498140 1_555
Ca0 N13 2.541063 1_555
Ca0 N18 2.771202 1_655
Ca0 N8 2.792377 1_565
Ca1 N4 2.401023 1_555
Ca1 N23 2.426951 1_555
Ca1 N19 2.498140 1_455
Ca1 N12 2.541063 1_555
Ca1 N19 2.771202 1_555
Ca1 N9 2.792377 1_555
Ca2 N7 2.401023 1_555
Ca2 N20 2.426951 1_554
Ca2 N16 2.498140 1_555
Ca2 N15 2.541063 1_555
Ca2 N16 2.771202 1_455
Ca2 N10 2.792377 1_555
Ca3 N6 2.401023 1_555
Ca3 N21 2.426951 1_546
Ca3 N17 2.498140 1_655
Ca3 N14 2.541063 1_555
Ca3 N17 2.771202 1_555
Ca3 N11 2.792377 1_545
Ca4 N1 2.401023 1_555
Ca4 N18 2.426951 1_545
Ca4 N22 2.498140 1_555
Ca4 N9 2.541063 1_555
Ca4 N22 2.771202 1_455
Ca4 N12 2.792377 1_545
Ca5 N0 2.401023 1_555
Ca5 N19 2.426951 1_555
Ca5 N23 2.498140 1_655
Ca5 N8 2.541063 1_555
Ca5 N23 2.771202 1_555
Ca5 N13 2.792377 1_555
Ca6 N3 2.401023 1_555
Ca6 N16 2.426951 1_556
Ca6 N20 2.498140 1_555
Ca6 N11 2.541063 1_555
Ca6 N20 2.771202 1_655
Ca6 N14 2.792377 1_555
Ca7 N2 2.401023 1_555
Ca7 N17 2.426951 1_564
Ca7 N21 2.498140 1_455
Ca7 N10 2.541063 1_555
Ca7 N21 2.771202 1_555
Ca7 N15 2.792377 1_565
Ca8 N31 2.403519 1_655
Ca8 N8 2.449565 1_555
Ca8 N24 2.458738 1_555
Ca8 N0 2.483525 1_555
Ca8 N5 2.785989 1_545
Ca8 N31 2.912356 1_555
Ca9 N30 2.403519 1_555
Ca9 N9 2.449565 1_555
Ca9 N25 2.458738 1_555
Ca9 N1 2.483525 1_555
Ca9 N4 2.785989 1_555
Ca9 N30 2.912356 1_455
Ca10 N29 2.403519 1_455
Ca10 N10 2.449565 1_555
Ca10 N26 2.458738 1_555
Ca10 N2 2.483525 1_555
Ca10 N7 2.785989 1_555
Ca10 N29 2.912356 1_555
Ca11 N28 2.403519 1_555
Ca11 N11 2.449565 1_555
Ca11 N27 2.458738 1_555
Ca11 N3 2.483525 1_555
Ca11 N6 2.785989 1_565
Ca11 N28 2.912356 1_655
Ca12 N27 2.403519 1_455
Ca12 N12 2.449565 1_555
Ca12 N28 2.458738 1_555
Ca12 N4 2.483525 1_555
Ca12 N1 2.785989 1_565
Ca12 N27 2.912356 1_555
Ca13 N26 2.403519 1_555
Ca13 N13 2.449565 1_555
Ca13 N29 2.458738 1_555
Ca13 N5 2.483525 1_555
Ca13 N0 2.785989 1_555
Ca13 N26 2.912356 1_655
Ca14 N25 2.403519 1_655
Ca14 N14 2.449565 1_555
Ca14 N30 2.458738 1_555
Ca14 N6 2.483525 1_555
Ca14 N3 2.785989 1_555
Ca14 N25 2.912356 1_555
Ca15 N24 2.403519 1_555
Ca15 N15 2.449565 1_555
Ca15 N31 2.458738 1_555
Ca15 N7 2.483525 1_555
Ca15 N2 2.785989 1_545
Ca15 N24 2.912356 1_455
Ir0 N5 1.953871 1_545
Ir0 N21 2.002323 1_545
Ir0 N24 2.003260 1_555
Ir0 N2 2.006954 1_545
Ir1 N4 1.953871 1_555
Ir1 N20 2.002323 1_555
Ir1 N25 2.003260 1_555
Ir1 N3 2.006954 1_455
Ir2 N7 1.953871 1_555
Ir2 N23 2.002323 1_555
Ir2 N26 2.003260 1_555
Ir2 N0 2.006954 1_555
Ir3 N6 1.953871 1_565
Ir3 N22 2.002323 1_565
Ir3 N27 2.003260 1_555
Ir3 N1 2.006954 1_665
Ir4 N1 1.953871 1_565
Ir4 N17 2.002323 1_565
Ir4 N28 2.003260 1_555
Ir4 N6 2.006954 1_565
Ir5 N0 1.953871 1_555
Ir5 N16 2.002323 1_555
Ir5 N29 2.003260 1_555
Ir5 N7 2.006954 1_655
Ir6 N3 1.953871 1_555
Ir6 N19 2.002323 1_555
Ir6 N30 2.003260 1_555
Ir6 N4 2.006954 1_555
Ir7 N2 1.953871 1_545
Ir7 N18 2.002323 1_545
Ir7 N31 2.003260 1_555
Ir7 N5 2.006954 1_445
Ir8 N24 1.912131 1_555
Ir8 N15 1.938583 1_655
Ir8 N16 1.948879 1_555
Ir8 N14 2.078482 1_554
Ir9 N25 1.912131 1_555
Ir9 N14 1.938583 1_555
Ir9 N17 1.948879 1_555
Ir9 N15 2.078482 1_556
Ir10 N26 1.912131 1_555
Ir10 N13 1.938583 1_455
Ir10 N18 1.948879 1_555
Ir10 N12 2.078482 1_555
Ir11 N27 1.912131 1_555
Ir11 N12 1.938583 1_555
Ir11 N19 1.948879 1_555
Ir11 N13 2.078482 1_555
Ir12 N28 1.912131 1_555
Ir12 N11 1.938583 1_455
Ir12 N20 1.948879 1_555
Ir12 N10 2.078482 1_556
Ir13 N29 1.912131 1_555
Ir13 N10 1.938583 1_555
Ir13 N21 1.948879 1_555
Ir13 N11 2.078482 1_554
Ir14 N30 1.912131 1_555
Ir14 N9 1.938583 1_655
Ir14 N22 1.948879 1_555
Ir14 N8 2.078482 1_555
Ir15 N31 1.912131 1_555
Ir15 N8 1.938583 1_555
Ir15 N23 1.948879 1_555
Ir15 N9 2.078482 1_555
