# generated using pymatgen
data_Ti2ReOs
_symmetry_space_group_name_H-M   'P 1'
_cell_length_a   3.09212794
_cell_length_b   3.09212794
_cell_length_c   6.21257634
_cell_angle_alpha   90.00000000
_cell_angle_beta   90.00000000
_cell_angle_gamma   90.00000000
_symmetry_Int_Tables_number   1
_chemical_formula_structural   Ti2ReOs
_chemical_formula_sum   'Ti2 Re1 Os1'
_cell_volume   59.40002782
_cell_formula_units_Z   1
loop_
 _symmetry_equiv_pos_site_id
 _symmetry_equiv_pos_as_xyz
  1  'x, y, z'
loop_
 _atom_site_type_symbol
 _atom_site_label
 _atom_site_symmetry_multiplicity
 _atom_site_fract_x
 _atom_site_fract_y
 _atom_site_fract_z
 _atom_site_occupancy
  Ti  Ti0  1  0.50000000  0.50000000  0.24909794  1
  Ti  Ti1  1  0.50000000  0.50000000  0.75090206  1
  Re  Re0  1  0.00000000  -0.00000000  0.50000000  1
  Os  Os0  1  0.00000000  -0.00000000  -0.00000000  1
loop_
_geom_bond_atom_site_label_1
_geom_bond_atom_site_label_2
_geom_bond_distance
_geom_bond_site_symmetry_2
Re0 Ti0 2.685205 1_555
Re0 Ti1 2.685205 1_545
Re0 Ti0 2.685205 1_545
Re0 Ti1 2.685205 1_455
Re0 Ti0 2.685205 1_445
Re0 Ti1 2.685205 1_445
Re0 Ti1 2.685205 1_555
Re0 Ti0 2.685205 1_455
Os0 Ti0 2.678714 1_555
Os0 Ti1 2.678714 1_444
Os0 Ti0 2.678714 1_545
Os0 Ti1 2.678714 1_454
Os0 Ti0 2.678714 1_445
Os0 Ti1 2.678714 1_544
Os0 Ti1 2.678714 1_554
Os0 Ti0 2.678714 1_455
