# generated using pymatgen
data_DyVO2
_symmetry_space_group_name_H-M   'P 1'
_cell_length_a   7.28280760
_cell_length_b   7.28280760
_cell_length_c   7.28280760
_cell_angle_alpha   129.69243674
_cell_angle_beta   129.69243674
_cell_angle_gamma   73.89893591
_symmetry_Int_Tables_number   1
_chemical_formula_structural   DyVO2
_chemical_formula_sum   'Dy4 V4 O8'
_cell_volume   223.08584678
_cell_formula_units_Z   4
loop_
 _symmetry_equiv_pos_site_id
 _symmetry_equiv_pos_as_xyz
  1  'x, y, z'
loop_
 _atom_site_type_symbol
 _atom_site_label
 _atom_site_symmetry_multiplicity
 _atom_site_fract_x
 _atom_site_fract_y
 _atom_site_fract_z
 _atom_site_occupancy
  Dy  Dy0  1  0.87500000  0.62500000  0.25000000  1
  Dy  Dy1  1  0.37500000  0.62500000  0.75000000  1
  Dy  Dy2  1  0.37500000  0.62500000  0.25000000  1
  Dy  Dy3  1  0.37500000  0.12500000  0.75000000  1
  V  V0  1  0.37500000  0.12500000  0.25000000  1
  V  V1  1  0.87500000  0.12500000  0.75000000  1
  V  V2  1  0.87500000  0.12500000  0.25000000  1
  V  V3  1  0.87500000  0.62500000  0.75000000  1
  O  O0  1  0.17522400  0.40938800  0.23416400  1
  O  O1  1  0.17522400  0.94106000  0.76583600  1
  O  O2  1  0.15938800  0.42522400  0.73416400  1
  O  O3  1  0.57477600  0.84061200  0.26583600  1
  O  O4  1  0.69106000  0.42522400  0.26583600  1
  O  O5  1  0.57477600  0.30894000  0.73416400  1
  O  O6  1  0.59061200  0.82477600  0.76583600  1
  O  O7  1  0.05894000  0.82477600  0.23416400  1
loop_
_geom_bond_atom_site_label_1
_geom_bond_atom_site_label_2
_geom_bond_distance
_geom_bond_site_symmetry_2
Dy0 O4 2.327527 1_555
Dy0 O7 2.327527 1_655
Dy0 O3 2.333691 1_555
Dy0 O1 2.333691 1_655
Dy0 O0 2.333691 1_655
Dy0 O5 2.333691 1_554
Dy1 O2 2.327527 1_555
Dy1 O6 2.327527 1_555
Dy1 O3 2.333691 1_556
Dy1 O5 2.333691 1_555
Dy1 O1 2.333691 1_555
Dy1 O0 2.333691 1_555
Dy2 O0 2.327527 1_555
Dy2 O3 2.327527 1_555
Dy2 O7 2.333691 1_555
Dy2 O6 2.333691 1_555
Dy2 O4 2.333691 1_555
Dy2 O2 2.333691 1_554
Dy3 O1 2.327527 1_545
Dy3 O5 2.327527 1_555
Dy3 O4 2.333691 1_556
Dy3 O6 2.333691 1_545
Dy3 O2 2.333691 1_555
Dy3 O7 2.333691 1_545
O0 V1 2.199801 1_454
O0 V0 2.199801 1_555
O1 V1 2.199801 1_465
O1 V0 2.199801 1_566
O2 V2 2.199801 1_455
O2 V3 2.199801 1_455
O3 V0 2.199801 1_565
O3 V1 2.199801 1_565
O4 V2 2.199801 1_555
O4 V3 2.199801 1_555
O5 V0 2.199801 1_555
O5 V1 2.199801 1_555
O6 V3 2.199801 1_555
O6 V2 2.199801 1_566
O7 V3 2.199801 1_454
O7 V2 2.199801 1_465
