# generated using pymatgen
data_Li4V3P8O29
_symmetry_space_group_name_H-M   'P 1'
_cell_length_a   9.77855500
_cell_length_b   9.79807549
_cell_length_c   14.21678503
_cell_angle_alpha   89.98641831
_cell_angle_beta   90.58957302
_cell_angle_gamma   119.89824954
_symmetry_Int_Tables_number   1
_chemical_formula_structural   Li4V3P8O29
_chemical_formula_sum   'Li8 V6 P16 O58'
_cell_volume   1180.76087859
_cell_formula_units_Z   2
loop_
 _symmetry_equiv_pos_site_id
 _symmetry_equiv_pos_as_xyz
  1  'x, y, z'
loop_
 _atom_site_type_symbol
 _atom_site_label
 _atom_site_symmetry_multiplicity
 _atom_site_fract_x
 _atom_site_fract_y
 _atom_site_fract_z
 _atom_site_occupancy
  Li  Li0  1  0.76763500  0.67024800  0.55486400  1
  Li  Li1  1  0.77050200  0.09016600  0.06065700  1
  Li  Li2  1  0.31863100  0.22147600  0.06052000  1
  Li  Li3  1  0.67220100  0.91012400  0.43781400  1
  Li  Li4  1  0.33059700  0.09848700  0.55862300  1
  Li  Li5  1  0.69535400  0.77279100  0.94056700  1
  Li  Li6  1  0.09242600  0.31703000  0.94072400  1
  Li  Li7  1  0.04583300  0.06418900  0.49097600  1
  V  V0  1  0.56431100  0.00058100  0.24908900  1
  V  V1  1  0.42996300  0.99588700  0.75252800  1
  V  V2  1  0.56869000  0.56487300  0.75051600  1
  V  V3  1  0.43080400  0.43673500  0.25326500  1
  V  V4  1  0.00173600  0.56702500  0.25212200  1
  V  V5  1  0.99487400  0.43684300  0.74297700  1
  P  P0  1  0.91992500  0.68727200  0.84675600  1
  P  P1  1  0.77480900  0.68679700  0.33742400  1
  P  P2  1  0.91776400  0.22287900  0.33980000  1
  P  P3  1  0.66611500  0.33455100  0.13197600  1
  P  P4  1  0.66103500  0.32975100  0.63000500  1
  P  P5  1  0.77255800  0.08989400  0.83807700  1
  P  P6  1  0.68209100  0.91079400  0.65688600  1
  P  P7  1  0.32187200  0.23225700  0.84257100  1
  P  P8  1  0.67882300  0.76823600  0.15624200  1
  P  P9  1  0.31377600  0.08901400  0.34353300  1
  P  P10  1  0.22299000  0.91023600  0.16408000  1
  P  P11  1  0.33534400  0.66754200  0.37083400  1
  P  P12  1  0.33397400  0.66414600  0.86768300  1
  P  P13  1  0.08055000  0.77772100  0.66067900  1
  P  P14  1  0.22254600  0.31001100  0.66269900  1
  P  P15  1  0.08562400  0.31702100  0.15731700  1
  O  O0  1  0.99143400  0.78487200  0.57741100  1
  O  O1  1  0.91471600  0.65610800  0.33548200  1
  O  O2  1  0.74651300  0.75394200  0.06684200  1
  O  O3  1  0.74963800  0.66239700  0.83907600  1
  O  O4  1  0.91078700  0.52703500  0.81879300  1
  O  O5  1  0.81588600  0.47524900  0.18242100  1
  O  O6  1  0.92492100  0.38346200  0.33034200  1
  O  O7  1  0.00038200  0.24262100  0.06656300  1
  O  O8  1  0.91800000  0.25706400  0.83819600  1
  O  O9  1  0.67563400  0.48589400  0.66853800  1
  O  O10  1  0.61733400  0.52821300  0.32548900  1
  O  O11  1  0.80909900  0.32556800  0.67622900  1
  O  O12  1  0.66903400  0.34085100  0.02762600  1
  O  O13  1  0.66124600  0.32538000  0.52559500  1
  O  O14  1  0.66839400  0.18326200  0.16771300  1
  O  O15  1  0.48234400  0.38066000  0.82329900  1
  O  O16  1  0.51765900  0.33659900  0.17238000  1
  O  O17  1  0.74294700  0.08601900  0.33425100  1
  O  O18  1  0.79243600  0.00208200  0.74780700  1
  O  O19  1  0.75929400  0.98479600  0.56677500  1
  O  O20  1  0.76025300  0.00199100  0.92690700  1
  O  O21  1  0.61907400  0.09767600  0.81994900  1
  O  O22  1  0.50906400  0.18253600  0.67054400  1
  O  O23  1  0.66167400  0.91714000  0.16040300  1
  O  O24  1  0.46856800  0.08898300  0.33231700  1
  O  O25  1  0.34201900  0.25887100  0.32547900  1
  O  O26  1  0.79325700  0.79019400  0.24606000  1
  O  O27  1  0.77390500  0.77177900  0.42539800  1
  O  O28  1  0.20303600  0.20126300  0.58361700  1
  O  O29  1  0.65688500  0.74152800  0.66396300  1
  O  O30  1  0.52584400  0.91106600  0.67479700  1
  O  O31  1  0.34244200  0.08565700  0.83228300  1
  O  O32  1  0.48856600  0.81327000  0.33443300  1
  O  O33  1  0.37846300  0.90472200  0.18031700  1
  O  O34  1  0.22988900  0.00378300  0.08110700  1
  O  O35  1  0.23090000  0.03135000  0.43512300  1
  O  O36  1  0.19776200  0.98723800  0.25897900  1
  O  O37  1  0.25482700  0.91566800  0.66160200  1
  O  O38  1  0.48671800  0.67033500  0.82883500  1
  O  O39  1  0.51997400  0.61916400  0.18034000  1
  O  O40  1  0.33775500  0.81608800  0.82083100  1
  O  O41  1  0.33489300  0.66989000  0.97181400  1
  O  O42  1  0.33217100  0.65502800  0.47463600  1
  O  O43  1  0.18853200  0.66788200  0.32442100  1
  O  O44  1  0.38157300  0.46174500  0.66917500  1
  O  O45  1  0.33141200  0.51650100  0.32308000  1
  O  O46  1  0.08307400  0.73914800  0.16837700  1
  O  O47  1  0.00700900  0.79772500  0.75572300  1
  O  O48  1  0.00585800  0.75907700  0.93440500  1
  O  O49  1  0.08121000  0.61811000  0.67023800  1
  O  O50  1  0.18415800  0.51782000  0.82484700  1
  O  O51  1  0.09347300  0.47545900  0.17723600  1
  O  O52  1  0.25415300  0.33920600  0.15870400  1
  O  O53  1  0.25102300  0.24207500  0.93341400  1
  O  O54  1  0.20179600  0.21358000  0.75979200  1
  O  O55  1  0.08475100  0.34572000  0.66773200  1
  O  O56  1  0.99881800  0.20058700  0.42162700  1
  O  O57  1  0.99374900  0.20242100  0.24275300  1
loop_
_geom_bond_atom_site_label_1
_geom_bond_atom_site_label_2
_geom_bond_distance
_geom_bond_site_symmetry_2
Li0 O0 1.920626 1_555
Li0 O27 2.078900 1_555
Li0 O29 2.203505 1_555
Li0 O9 2.256621 1_555
Li1 O7 1.984967 1_655
Li1 O23 2.061274 1_545
Li1 O20 2.069461 1_554
Li1 O14 2.255068 1_555
Li2 O34 1.883602 1_555
Li2 O53 1.962512 1_554
Li2 O52 2.102504 1_555
Li2 O16 2.310348 1_555
Li3 O19 1.992314 1_555
Li3 O27 2.050684 1_555
Li3 O17 2.108964 1_565
Li3 O32 2.129019 1_555
Li4 O35 1.947273 1_555
Li4 O28 1.989414 1_555
Li4 O37 2.144524 1_545
Li4 O22 2.183173 1_555
Li5 O2 1.892265 1_556
Li5 O20 2.016246 1_565
Li5 O3 2.030398 1_555
Li5 O38 2.363377 1_555
Li6 O7 1.980048 1_556
Li6 O53 2.023392 1_555
Li6 O8 2.080681 1_455
Li6 O50 2.378782 1_555
Li7 O56 1.889982 1_455
Li7 O28 1.949985 1_555
Li7 O35 2.149232 1_555
O0 P13 1.485019 1_655
O1 P1 1.540693 1_555
O1 V4 1.911049 1_655
O2 P8 1.477480 1_555
O3 P0 1.560692 1_555
O3 V2 1.974394 1_555
O4 P0 1.578188 1_555
O4 V5 1.833548 1_555
O5 P3 1.589264 1_555
O5 V4 1.851342 1_655
O6 P2 1.545606 1_555
O6 V4 1.924863 1_655
O7 P15 1.504475 1_555
O8 P5 1.543752 1_555
O8 V5 2.049437 1_555
O9 P4 1.562733 1_555
O9 V2 1.970537 1_555
O10 P1 1.556851 1_555
O10 V3 1.875284 1_555
O11 P4 1.602927 1_555
O11 V5 1.838416 1_555
O12 P3 1.484767 1_555
O13 P4 1.485055 1_555
O14 P3 1.577436 1_555
O14 V0 1.945569 1_555
O15 P7 1.544570 1_555
O15 V2 1.881273 1_555
O16 P3 1.576056 1_555
O16 V3 1.964095 1_555
O17 P2 1.561622 1_555
O17 V0 1.927985 1_555
O18 P5 1.611651 1_555
O18 P6 1.626293 1_545
O19 P6 1.486813 1_555
O20 P5 1.500146 1_555
O21 P5 1.559136 1_555
O21 V1 1.859684 1_545
O22 P4 1.581587 1_555
O22 V1 1.977028 1_545
O23 P8 1.550604 1_555
O23 V0 1.991408 1_565
O24 P9 1.523799 1_555
O24 V0 1.964316 1_555
O25 P9 1.566841 1_555
O25 V3 1.831390 1_555
O26 P1 1.602513 1_555
O26 P8 1.630858 1_555
O27 P1 1.505234 1_555
O28 P14 1.493072 1_555
O29 P6 1.553816 1_555
O29 V2 1.945902 1_555
O30 P6 1.552836 1_555
O30 V1 1.894605 1_555
O31 P7 1.553651 1_555
O31 V1 1.887491 1_545
O32 P11 1.560225 1_555
O32 V0 2.012781 1_565
O33 P10 1.562747 1_555
O33 V0 1.844719 1_565
O34 P10 1.475002 1_545
O35 P9 1.495455 1_555
O36 P9 1.603469 1_565
O36 P10 1.625791 1_555
O37 P13 1.560289 1_555
O37 V1 1.958241 1_555
O38 P12 1.570433 1_555
O38 V2 1.947992 1_555
O39 P8 1.553210 1_555
O39 V3 1.869253 1_555
O40 P12 1.614479 1_555
O40 V1 1.814694 1_555
O41 P12 1.481255 1_555
O42 P11 1.480149 1_555
O43 P11 1.575326 1_555
O43 V4 1.879319 1_555
O44 P14 1.526199 1_555
O44 V2 1.954497 1_555
O45 P11 1.611131 1_555
O45 V3 1.821555 1_555
O46 P10 1.549497 1_555
O46 V4 1.890924 1_555
O47 P13 1.594362 1_555
O47 P0 1.635415 1_455
O48 P0 1.464006 1_455
O49 P13 1.572951 1_555
O49 V5 1.859794 1_455
O50 P12 1.568672 1_555
O50 V5 1.975405 1_455
O51 P15 1.541743 1_555
O51 V4 1.888258 1_555
O52 P15 1.551019 1_555
O52 V3 2.002883 1_555
O53 P7 1.497365 1_555
O54 P7 1.598311 1_555
O54 P14 1.628889 1_555
O55 P14 1.554061 1_555
O55 V5 1.875091 1_455
O56 P2 1.477397 1_555
O57 P15 1.599810 1_655
O57 P2 1.632646 1_555
