# generated using pymatgen
data_CaH6(SO4)4
_symmetry_space_group_name_H-M   'P 1'
_cell_length_a   5.49317000
_cell_length_b   7.88285267
_cell_length_c   8.76211495
_cell_angle_alpha   88.34548554
_cell_angle_beta   76.63401628
_cell_angle_gamma   80.24587141
_symmetry_Int_Tables_number   1
_chemical_formula_structural   CaH6(SO4)4
_chemical_formula_sum   'Ca1 H6 S4 O16'
_cell_volume   363.78138034
_cell_formula_units_Z   1
loop_
 _symmetry_equiv_pos_site_id
 _symmetry_equiv_pos_as_xyz
  1  'x, y, z'
loop_
 _atom_site_type_symbol
 _atom_site_label
 _atom_site_symmetry_multiplicity
 _atom_site_fract_x
 _atom_site_fract_y
 _atom_site_fract_z
 _atom_site_occupancy
  Ca  Ca0  1  0.00000000  0.00000000  0.00000000  1
  H  H0  1  0.68587500  0.47150600  0.80018800  1
  H  H1  1  0.31412500  0.52849400  0.19981200  1
  H  H2  1  0.28107400  0.47467300  0.67090900  1
  H  H3  1  0.71892600  0.52532700  0.32909100  1
  H  H4  1  0.72110200  0.96948300  0.60865100  1
  H  H5  1  0.27889800  0.03051700  0.39134900  1
  S  S0  1  0.53230900  0.17826600  0.76458400  1
  S  S1  1  0.46769100  0.82173400  0.23541600  1
  S  S2  1  0.93501100  0.66232600  0.73947700  1
  S  S3  1  0.06498900  0.33767400  0.26052300  1
  O  O0  1  0.49682900  0.63355300  0.26324800  1
  O  O1  1  0.50317100  0.36644700  0.73675200  1
  O  O2  1  0.68499100  0.09881500  0.60060400  1
  O  O3  1  0.31500900  0.90118500  0.39939600  1
  O  O4  1  0.71141700  0.88227700  0.19716900  1
  O  O5  1  0.28858300  0.11772300  0.80283100  1
  O  O6  1  0.68520800  0.12924400  0.87995200  1
  O  O7  1  0.31479200  0.87075600  0.12004800  1
  O  O8  1  0.04427500  0.75742400  0.83821400  1
  O  O9  1  0.95572500  0.24257600  0.16178600  1
  O  O10  1  0.22961100  0.24151700  0.35104800  1
  O  O11  1  0.77038900  0.75848300  0.64895200  1
  O  O12  1  0.85225400  0.45167300  0.37905300  1
  O  O13  1  0.14774600  0.54832700  0.62094700  1
  O  O14  1  0.20864100  0.46265700  0.14768400  1
  O  O15  1  0.79135900  0.53734300  0.85231600  1
loop_
_geom_bond_atom_site_label_1
_geom_bond_atom_site_label_2
_geom_bond_distance
_geom_bond_site_symmetry_2
Ca0 O6 2.305796 1_454
Ca0 O7 2.305796 1_545
Ca0 O4 2.344885 1_445
Ca0 O5 2.344885 1_554
Ca0 O8 2.358967 1_544
Ca0 O9 2.358967 1_455
H0 O15 1.025508 1_555
H0 O1 1.602560 1_555
H1 O14 1.025508 1_555
H1 O0 1.602560 1_555
H2 O13 1.026947 1_555
H2 O1 1.579061 1_555
H3 O12 1.026947 1_555
H3 O0 1.579061 1_555
H4 O2 1.008713 1_565
H4 O11 1.679941 1_555
H5 O3 1.008713 1_545
H5 O10 1.679941 1_555
O0 S1 1.484008 1_555
O1 S0 1.484008 1_555
O2 S0 1.573829 1_555
O3 S1 1.573829 1_555
O4 S1 1.460263 1_555
O5 S0 1.460263 1_555
O6 S0 1.461719 1_555
O7 S1 1.461719 1_555
O8 S2 1.449370 1_455
O9 S3 1.449370 1_655
O10 S3 1.444336 1_555
O11 S2 1.444336 1_555
O12 S3 1.545549 1_655
O13 S2 1.545549 1_455
O14 S3 1.554786 1_555
O15 S2 1.554786 1_555
