# generated using pymatgen
data_TlBiSe2
_symmetry_space_group_name_H-M   'P 1'
_cell_length_a   4.34968000
_cell_length_b   4.34968000
_cell_length_c   6.12611000
_cell_angle_alpha   90.00000000
_cell_angle_beta   90.00000000
_cell_angle_gamma   90.00000000
_symmetry_Int_Tables_number   1
_chemical_formula_structural   TlBiSe2
_chemical_formula_sum   'Tl1 Bi1 Se2'
_cell_volume   115.90426201
_cell_formula_units_Z   1
loop_
 _symmetry_equiv_pos_site_id
 _symmetry_equiv_pos_as_xyz
  1  'x, y, z'
loop_
 _atom_site_type_symbol
 _atom_site_label
 _atom_site_symmetry_multiplicity
 _atom_site_fract_x
 _atom_site_fract_y
 _atom_site_fract_z
 _atom_site_occupancy
  Tl  Tl0  1  0.00000000  0.00000000  0.00000000  1
  Bi  Bi0  1  0.50000000  0.50000000  0.50000000  1
  Se  Se0  1  0.00000000  0.00000000  0.50000000  1
  Se  Se1  1  0.50000000  0.50000000  0.00000000  1
loop_
_geom_bond_atom_site_label_1
_geom_bond_atom_site_label_2
_geom_bond_distance
_geom_bond_site_symmetry_2
Bi0 Se1 3.063055 1_555
Bi0 Se1 3.063055 1_556
Bi0 Se0 3.075688 1_665
Bi0 Se0 3.075688 1_655
Bi0 Se0 3.075688 1_565
Bi0 Se0 3.075688 1_555
Se0 Tl0 3.063055 1_555
Se0 Tl0 3.063055 1_556
Se1 Tl0 3.075688 1_555
Se1 Tl0 3.075688 1_565
Se1 Tl0 3.075688 1_655
Se1 Tl0 3.075688 1_665
