# generated using pymatgen
data_Al41V4
_symmetry_space_group_name_H-M   'P 1'
_cell_length_a   10.13341311
_cell_length_b   10.13340434
_cell_length_c   10.13343431
_cell_angle_alpha   60.00027868
_cell_angle_beta   60.00000942
_cell_angle_gamma   60.00008363
_symmetry_Int_Tables_number   1
_chemical_formula_structural   Al41V4
_chemical_formula_sum   'Al41 V4'
_cell_volume   735.79019997
_cell_formula_units_Z   1
loop_
 _symmetry_equiv_pos_site_id
 _symmetry_equiv_pos_as_xyz
  1  'x, y, z'
loop_
 _atom_site_type_symbol
 _atom_site_label
 _atom_site_symmetry_multiplicity
 _atom_site_fract_x
 _atom_site_fract_y
 _atom_site_fract_z
 _atom_site_occupancy
  Al  Al0  1  0.37852178  0.87383045  0.87382256  1
  Al  Al1  1  0.87383784  0.37854070  0.87380145  1
  Al  Al2  1  0.87382824  0.87382680  0.37851621  1
  Al  Al3  1  0.87381991  0.87383700  0.87380183  1
  Al  Al4  1  0.81789276  0.55166194  0.55165884  1
  Al  Al5  1  0.55166200  0.81788641  0.07879028  1
  Al  Al6  1  0.55166285  0.07878535  0.81788777  1
  Al  Al7  1  0.07879035  0.55165988  0.55165911  1
  Al  Al8  1  0.55166562  0.55166430  0.81788797  1
  Al  Al9  1  0.81788927  0.07878730  0.55165912  1
  Al  Al10  1  0.07878669  0.81788922  0.55166083  1
  Al  Al11  1  0.55166309  0.55166198  0.07878661  1
  Al  Al12  1  0.55166334  0.81789112  0.55165959  1
  Al  Al13  1  0.07878587  0.55166106  0.81788945  1
  Al  Al14  1  0.81788796  0.55166064  0.07879038  1
  Al  Al15  1  0.55166083  0.07878949  0.55165982  1
  Al  Al16  1  0.93204706  0.19844013  0.19844446  1
  Al  Al17  1  0.19843670  0.93204923  0.67107706  1
  Al  Al18  1  0.19843434  0.67107880  0.93205424  1
  Al  Al19  1  0.67106624  0.19844156  0.19844525  1
  Al  Al20  1  0.19843293  0.19843134  0.93205327  1
  Al  Al21  1  0.93204691  0.67106547  0.19844556  1
  Al  Al22  1  0.67106730  0.93204495  0.19844617  1
  Al  Al23  1  0.19843472  0.19844293  0.67106845  1
  Al  Al24  1  0.19843989  0.93204647  0.19844513  1
  Al  Al25  1  0.67108028  0.19843387  0.93205293  1
  Al  Al26  1  0.93204960  0.19843588  0.67107644  1
  Al  Al27  1  0.19844169  0.67106421  0.19844546  1
  Al  Al28  1  0.11004031  0.11004047  0.38995971  1
  Al  Al29  1  0.38996200  0.38996119  0.11004099  1
  Al  Al30  1  0.11003932  0.38995723  0.11004448  1
  Al  Al31  1  0.38995686  0.11004204  0.38995921  1
  Al  Al32  1  0.38995773  0.11003934  0.11004406  1
  Al  Al33  1  0.11004172  0.38995643  0.38995875  1
  Al  Al34  1  0.63968088  0.63967898  0.36031986  1
  Al  Al35  1  0.36032045  0.36031882  0.63967893  1
  Al  Al36  1  0.63968260  0.36031888  0.63967850  1
  Al  Al37  1  0.36032115  0.63967907  0.36032040  1
  Al  Al38  1  0.36032052  0.63968089  0.63967860  1
  Al  Al39  1  0.63968005  0.36031996  0.36032021  1
  Al  Al40  1  0.74999964  0.74999906  0.74999997  1
  V  V0  1  0.87478223  0.37506964  0.37507396  1
  V  V1  1  0.37507134  0.87478127  0.37507516  1
  V  V2  1  0.37507277  0.37507239  0.87478196  1
  V  V3  1  0.37507234  0.37507187  0.37507402  1
loop_
_geom_bond_atom_site_label_1
_geom_bond_atom_site_label_2
_geom_bond_distance
_geom_bond_site_symmetry_2
Al0 Al6 3.030726 1_565
Al0 Al15 3.030756 1_565
Al0 Al12 3.030768 1_555
Al0 Al8 3.030768 1_555
Al0 Al5 3.030800 1_556
Al0 Al11 3.030815 1_556
Al0 Al20 3.059325 1_565
Al0 Al17 3.059379 1_555
Al0 Al18 3.059388 1_555
Al0 Al23 3.059434 1_565
Al0 Al24 3.059461 1_556
Al0 Al27 3.059504 1_556
Al0 Al40 3.073570 1_555
Al1 Al7 3.030557 1_655
Al1 Al13 3.030594 1_655
Al1 Al4 3.030633 1_555
Al1 Al8 3.030746 1_555
Al1 Al14 3.030785 1_556
Al1 Al11 3.030845 1_556
Al1 Al23 3.059301 1_655
Al1 Al20 3.059365 1_655
Al1 Al26 3.059388 1_555
Al1 Al25 3.059516 1_555
Al1 Al16 3.059616 1_556
Al1 Al19 3.059696 1_556
Al1 Al40 3.073414 1_555
Al2 Al4 3.030768 1_555
Al2 Al9 3.030772 1_565
Al2 Al7 3.030804 1_655
Al2 Al24 3.059382 1_655
Al2 Al21 3.059388 1_555
Al2 Al22 3.059390 1_555
Al2 Al27 3.059397 1_655
Al2 Al40 3.073631 1_555
Al3 Al9 3.030570 1_565
Al3 Al6 3.030614 1_565
Al3 Al5 3.030781 1_556
Al3 Al40 3.073421 1_555
Al4 Al7 2.643774 1_655
Al4 Al8 2.697803 1_555
Al4 V0 2.806330 1_555
Al4 Al40 3.134696 1_555
Al5 Al6 2.643828 1_564
Al5 V1 2.806334 1_555
Al6 Al9 2.697797 1_555
Al6 V2 2.806345 1_555
Al7 V3 2.806289 1_555
Al8 V2 2.806376 1_555
Al9 V0 2.806306 1_555
Al10 Al9 2.643787 1_465
Al10 Al28 2.667851 1_565
Al10 Al7 2.697800 1_555
Al10 Al13 2.697815 1_555
Al10 V1 2.806318 1_555
Al10 Al37 2.824464 1_555
Al10 Al38 2.824474 1_555
Al10 Al24 2.922651 1_555
Al10 Al17 2.922726 1_555
Al10 Al3 3.030619 1_455
Al10 Al2 3.030782 1_455
Al10 Al40 3.134703 1_455
Al11 Al8 2.643775 1_554
Al11 Al29 2.667814 1_555
Al11 Al5 2.697773 1_555
Al11 Al14 2.697779 1_555
Al11 V3 2.806356 1_555
Al11 Al37 2.824466 1_555
Al11 Al39 2.824476 1_555
Al11 Al19 2.922684 1_555
Al11 Al27 2.922687 1_555
Al11 Al40 3.134695 1_554
Al12 Al15 2.643777 1_565
Al12 Al31 2.667861 1_565
Al12 Al8 2.697807 1_555
Al12 Al4 2.697814 1_555
Al12 V1 2.806328 1_555
Al12 Al34 2.824469 1_555
Al12 Al38 2.824475 1_555
Al12 Al22 2.922633 1_555
Al12 Al17 2.922730 1_555
Al12 Al2 3.030764 1_555
Al12 Al40 3.134696 1_555
Al13 Al14 2.643805 1_456
Al13 Al30 2.667891 1_556
Al13 Al7 2.697811 1_555
Al13 V2 2.806343 1_555
Al13 Al35 2.824475 1_555
Al13 Al38 2.824487 1_555
Al13 Al20 2.922761 1_555
Al13 Al18 2.922764 1_555
Al13 Al3 3.030769 1_455
Al13 Al40 3.134697 1_455
Al14 Al30 2.667852 1_655
Al14 Al5 2.697779 1_555
Al14 V0 2.806331 1_555
Al14 Al34 2.824436 1_555
Al14 Al39 2.824447 1_555
Al14 Al21 2.922665 1_555
Al14 Al16 2.922685 1_555
Al14 Al3 3.030869 1_554
Al14 Al40 3.134739 1_554
Al15 Al31 2.667853 1_555
Al15 Al9 2.697788 1_555
Al15 Al6 2.697793 1_555
Al15 V3 2.806307 1_555
Al15 Al35 2.824434 1_555
Al15 Al39 2.824452 1_555
Al15 Al19 2.922642 1_555
Al15 Al23 2.922725 1_555
Al15 Al2 3.030799 1_545
Al15 Al40 3.134736 1_545
Al16 Al19 2.644615 1_555
Al16 Al39 2.670231 1_555
Al16 Al20 2.699428 1_654
Al16 Al24 2.699475 1_645
Al16 V0 2.805396 1_555
Al16 Al30 2.822815 1_655
Al16 Al28 2.822816 1_655
Al16 Al9 2.922643 1_555
Al16 Al2 3.059397 1_545
Al17 Al18 2.644568 1_555
Al17 Al38 2.670279 1_555
Al17 Al26 2.699410 1_465
Al17 Al23 2.699421 1_565
Al17 V1 2.805482 1_555
Al17 Al31 2.822871 1_565
Al17 Al28 2.822880 1_565
Al17 Al3 3.059382 1_455
Al18 Al38 2.670346 1_555
Al18 Al27 2.699421 1_556
Al18 Al21 2.699437 1_456
Al18 V2 2.805534 1_555
Al18 Al29 2.822883 1_556
Al18 Al30 2.822900 1_556
Al18 Al8 2.922768 1_555
Al18 Al3 3.059539 1_455
Al19 Al39 2.670222 1_555
Al19 Al25 2.699437 1_554
Al19 Al22 2.699495 1_545
Al19 V3 2.805396 1_555
Al19 Al29 2.822800 1_555
Al19 Al31 2.822814 1_555
Al19 Al2 3.059413 1_545
Al20 Al23 2.644605 1_555
Al20 Al35 2.670350 1_555
Al20 Al24 2.699436 1_546
Al20 V2 2.805557 1_555
Al20 Al30 2.822902 1_556
Al20 Al32 2.822904 1_556
Al20 Al6 2.922757 1_555
Al21 Al22 2.644616 1_555
Al21 Al34 2.670216 1_555
Al21 Al27 2.699481 1_655
Al21 V0 2.805417 1_555
Al21 Al30 2.822809 1_655
Al21 Al33 2.822819 1_655
Al21 Al4 2.922632 1_555
Al21 Al3 3.059702 1_554
Al22 Al34 2.670220 1_555
Al22 Al25 2.699464 1_564
Al22 V1 2.805410 1_555
Al22 Al31 2.822821 1_565
Al22 Al32 2.822833 1_565
Al22 Al5 2.922672 1_555
Al22 Al3 3.059612 1_554
Al23 Al35 2.670278 1_555
Al23 Al26 2.699386 1_455
Al23 V3 2.805441 1_555
Al23 Al33 2.822797 1_555
Al23 Al31 2.822822 1_555
Al23 Al7 2.922655 1_555
Al24 Al27 2.644628 1_555
Al24 Al37 2.670247 1_555
Al24 V1 2.805423 1_555
Al24 Al28 2.822808 1_565
Al24 Al32 2.822822 1_565
Al24 Al5 2.922693 1_555
Al25 Al26 2.644549 1_555
Al25 Al36 2.670344 1_555
Al25 V2 2.805544 1_555
Al25 Al29 2.822877 1_556
Al25 Al32 2.822903 1_556
Al25 Al6 2.922765 1_555
Al25 Al8 2.922766 1_555
Al25 Al3 3.059372 1_545
Al26 Al36 2.670270 1_555
Al26 V0 2.805495 1_555
Al26 Al28 2.822858 1_655
Al26 Al33 2.822870 1_655
Al26 Al9 2.922725 1_555
Al26 Al4 2.922731 1_555
Al26 Al3 3.059306 1_545
Al27 Al37 2.670243 1_555
Al27 V3 2.805402 1_555
Al27 Al29 2.822783 1_555
Al27 Al33 2.822807 1_555
Al27 Al7 2.922634 1_555
Al28 V0 2.543772 1_455
Al28 V1 2.543786 1_545
Al28 Al9 2.667843 1_455
Al28 Al33 2.836504 1_555
Al28 Al32 2.836513 1_555
Al28 Al31 2.836515 1_555
Al28 Al30 2.836518 1_555
Al29 V3 2.543779 1_555
Al29 V2 2.543822 1_554
Al29 Al8 2.667871 1_554
Al29 Al33 2.836538 1_555
Al29 Al31 2.836545 1_555
Al29 Al32 2.836567 1_555
Al29 Al30 2.836575 1_555
Al30 V0 2.543770 1_455
Al30 V2 2.543815 1_554
Al30 Al33 2.836501 1_555
Al30 Al32 2.836529 1_555
Al31 V3 2.543780 1_555
Al31 V1 2.543785 1_545
Al31 Al33 2.836494 1_555
Al31 Al32 2.836511 1_555
Al32 V1 2.543793 1_545
Al32 V2 2.543821 1_554
Al32 Al5 2.667860 1_545
Al32 Al6 2.667896 1_554
Al33 V0 2.543786 1_455
Al33 V3 2.543792 1_555
Al33 Al4 2.667836 1_455
Al33 Al7 2.667846 1_555
Al34 V0 2.540703 1_555
Al34 V1 2.540708 1_555
Al34 Al5 2.824451 1_555
Al34 Al4 2.824471 1_555
Al34 Al39 2.830860 1_555
Al34 Al37 2.830864 1_555
Al34 Al38 2.830869 1_555
Al34 Al36 2.830878 1_555
Al35 V3 2.540676 1_555
Al35 V2 2.540710 1_555
Al35 Al7 2.824453 1_555
Al35 Al6 2.824476 1_555
Al35 Al39 2.830865 1_555
Al35 Al37 2.830878 1_555
Al35 Al38 2.830887 1_555
Al35 Al36 2.830890 1_555
Al36 V0 2.540670 1_555
Al36 V2 2.540715 1_555
Al36 Al9 2.824455 1_555
Al36 Al4 2.824474 1_555
Al36 Al6 2.824480 1_555
Al36 Al8 2.824497 1_555
Al36 Al39 2.830866 1_555
Al36 Al38 2.830893 1_555
Al37 V1 2.540689 1_555
Al37 V3 2.540692 1_555
Al37 Al5 2.824446 1_555
Al37 Al7 2.824450 1_555
Al37 Al39 2.830863 1_555
Al37 Al38 2.830864 1_555
Al38 V1 2.540676 1_555
Al38 V2 2.540716 1_555
Al38 Al8 2.824504 1_555
Al39 V0 2.540683 1_555
Al39 V3 2.540694 1_555
Al39 Al9 2.824458 1_555
Al40 Al8 3.134637 1_555
Al40 Al6 3.134683 1_565
Al40 Al9 3.134716 1_565
Al40 Al5 3.134722 1_556
Al40 Al7 3.134729 1_655
