# generated using pymatgen
data_MnAl(WO4)2
_symmetry_space_group_name_H-M   'P 1'
_cell_length_a   5.12278566
_cell_length_b   5.67427800
_cell_length_c   9.27022947
_cell_angle_alpha   90.00001643
_cell_angle_beta   91.56680176
_cell_angle_gamma   90.00004220
_symmetry_Int_Tables_number   1
_chemical_formula_structural   MnAl(WO4)2
_chemical_formula_sum   'Mn2 Al2 W4 O16'
_cell_volume   269.36730250
_cell_formula_units_Z   2
loop_
 _symmetry_equiv_pos_site_id
 _symmetry_equiv_pos_as_xyz
  1  'x, y, z'
loop_
 _atom_site_type_symbol
 _atom_site_label
 _atom_site_symmetry_multiplicity
 _atom_site_fract_x
 _atom_site_fract_y
 _atom_site_fract_z
 _atom_site_occupancy
  Mn  Mn0  1  0.25000100  0.64301400  0.75000000  1
  Mn  Mn1  1  0.74999900  0.34652000  0.25000000  1
  Al  Al0  1  0.25000000  0.65630400  0.25000000  1
  Al  Al1  1  0.75000000  0.33538100  0.75000000  1
  W  W0  1  0.24800800  0.16949100  0.50120000  1
  W  W1  1  0.25199100  0.16949100  0.99880000  1
  W  W2  1  0.74327000  0.83791500  0.49784400  1
  W  W3  1  0.75673000  0.83791500  0.00215600  1
  O  O0  1  0.37670900  0.39738800  0.13046800  1
  O  O1  1  0.12329000  0.39738800  0.36953200  1
  O  O2  1  0.62444500  0.60892800  0.87519100  1
  O  O3  1  0.87555500  0.60892800  0.62481000  1
  O  O4  1  0.43153300  0.88565900  0.60752000  1
  O  O5  1  0.06846600  0.88566000  0.89248000  1
  O  O6  1  0.58421500  0.11504800  0.39272800  1
  O  O7  1  0.91578600  0.11504800  0.10727200  1
  O  O8  1  0.93103300  0.64460600  0.13931500  1
  O  O9  1  0.56896700  0.64460600  0.36068500  1
  O  O10  1  0.06117600  0.35871300  0.85605300  1
  O  O11  1  0.43882400  0.35871300  0.64394700  1
  O  O12  1  0.42828300  0.87857900  0.11307500  1
  O  O13  1  0.58153800  0.11306400  0.88331400  1
  O  O14  1  0.07171700  0.87857800  0.38692500  1
  O  O15  1  0.91846100  0.11306500  0.61668500  1
loop_
_geom_bond_atom_site_label_1
_geom_bond_atom_site_label_2
_geom_bond_distance
_geom_bond_site_symmetry_2
Mn0 O11 2.134632 1_555
Mn0 O10 2.134636 1_555
Mn0 O4 2.138275 1_555
Mn0 O5 2.138286 1_555
Mn0 O2 2.223066 1_555
Mn0 O3 2.223070 1_455
Mn1 O6 2.063609 1_555
Mn1 O7 2.063616 1_555
Mn1 O9 2.196777 1_555
Mn1 O8 2.196781 1_555
Mn1 O0 2.202755 1_555
Mn1 O1 2.202759 1_655
Al0 O8 1.906700 1_455
Al0 O9 1.906700 1_555
Al0 O0 1.961368 1_555
Al0 O1 1.961370 1_555
Al0 O14 2.024710 1_555
Al0 O12 2.024713 1_555
Al1 O10 1.854588 1_655
Al1 O11 1.854588 1_555
Al1 O13 1.980344 1_555
Al1 O15 1.980345 1_555
Al1 O3 2.051983 1_555
Al1 O2 2.051989 1_555
O0 W1 1.878200 1_554
O1 W0 1.878201 1_555
O2 W3 1.867941 1_556
O3 W2 1.867948 1_555
O4 W2 1.935509 1_555
O4 W0 2.097261 1_565
O5 W3 1.935505 1_456
O5 W1 2.097255 1_565
O6 W2 2.010694 1_545
O6 W0 2.041487 1_555
O7 W3 2.010695 1_545
O7 W1 2.041478 1_654
O8 W3 1.885493 1_555
O9 W2 1.885492 1_555
O10 W1 1.946465 1_555
O11 W0 1.946466 1_555
O12 W3 2.009019 1_555
O12 W1 2.147180 1_564
O13 W1 2.048783 1_555
O13 W3 2.098258 1_546
O14 W2 2.009018 1_455
O14 W0 2.147181 1_565
O15 W0 2.048777 1_655
O15 W2 2.098254 1_545
