# generated using pymatgen
data_TiO
_symmetry_space_group_name_H-M   'P 1'
_cell_length_a   10.42649089
_cell_length_b   10.75088039
_cell_length_c   10.67691342
_cell_angle_alpha   91.88886874
_cell_angle_beta   89.34707635
_cell_angle_gamma   89.42376961
_symmetry_Int_Tables_number   1
_chemical_formula_structural   TiO
_chemical_formula_sum   'Ti50 O50'
_cell_volume   1196.02432423
_cell_formula_units_Z   50
loop_
 _symmetry_equiv_pos_site_id
 _symmetry_equiv_pos_as_xyz
  1  'x, y, z'
loop_
 _atom_site_type_symbol
 _atom_site_label
 _atom_site_symmetry_multiplicity
 _atom_site_fract_x
 _atom_site_fract_y
 _atom_site_fract_z
 _atom_site_occupancy
  Ti  Ti0  1  0.25160400  0.48708700  0.00928000  1
  Ti  Ti1  1  0.57797400  0.69374000  0.13381300  1
  Ti  Ti2  1  0.67032000  0.07026400  0.26503900  1
  Ti  Ti3  1  0.64389900  0.11038200  0.58865600  1
  Ti  Ti4  1  0.43871800  0.18071100  0.13604800  1
  Ti  Ti5  1  0.62123000  0.10867500  0.91161800  1
  Ti  Ti6  1  0.56939900  0.81013500  0.91724900  1
  Ti  Ti7  1  0.16889500  0.24662200  0.12077100  1
  Ti  Ti8  1  0.01053000  0.64596400  0.42841400  1
  Ti  Ti9  1  0.08521100  0.88078800  0.11494700  1
  Ti  Ti10  1  0.14683300  0.27160300  0.83577900  1
  Ti  Ti11  1  0.77302300  0.55885400  0.36439700  1
  Ti  Ti12  1  0.30013600  0.74444800  0.32072400  1
  Ti  Ti13  1  0.11727200  0.12799700  0.55141900  1
  Ti  Ti14  1  0.36112500  0.26434900  0.43887900  1
  Ti  Ti15  1  0.92981400  0.45982000  0.64314100  1
  Ti  Ti16  1  0.42643400  0.56540900  0.48756500  1
  Ti  Ti17  1  0.56783600  0.87152000  0.67411200  1
  Ti  Ti18  1  0.32824600  0.72612500  0.03290900  1
  Ti  Ti19  1  0.96936900  0.44600100  0.92052300  1
  Ti  Ti20  1  0.38624100  0.30013100  0.90199400  1
  Ti  Ti21  1  0.79652500  0.56589500  0.07498800  1
  Ti  Ti22  1  0.57524500  0.80021300  0.39884100  1
  Ti  Ti23  1  0.85661300  0.80084500  0.63441200  1
  Ti  Ti24  1  0.80212400  0.64430500  0.83892700  1
  Ti  Ti25  1  0.04948600  0.60587200  0.13290900  1
  Ti  Ti26  1  0.37518700  0.12894200  0.73365500  1
  Ti  Ti27  1  0.93629500  0.35222100  0.15869700  1
  Ti  Ti28  1  0.07985000  0.88487600  0.41389100  1
  Ti  Ti29  1  0.46832300  0.91413400  0.15480200  1
  Ti  Ti30  1  0.08680700  0.94581200  0.74284800  1
  Ti  Ti31  1  0.64051400  0.34733000  0.29916600  1
  Ti  Ti32  1  0.88251900  0.24747300  0.43220100  1
  Ti  Ti33  1  0.86441100  0.13052400  0.70120600  1
  Ti  Ti34  1  0.43454400  0.60143900  0.78042200  1
  Ti  Ti35  1  0.26261600  0.02983800  0.26542300  1
  Ti  Ti36  1  0.66954700  0.63089500  0.60825700  1
  Ti  Ti37  1  0.43988800  0.00291100  0.46735700  1
  Ti  Ti38  1  0.28525400  0.79259000  0.59437300  1
  Ti  Ti39  1  0.21302700  0.43991500  0.62369900  1
  Ti  Ti40  1  0.64466500  0.37989300  0.57008900  1
  Ti  Ti41  1  0.88119900  0.96579400  0.91876400  1
  Ti  Ti42  1  0.08307900  0.66019100  0.84819400  1
  Ti  Ti43  1  0.73518100  0.37424500  0.85411000  1
  Ti  Ti44  1  0.95128300  0.07480700  0.23932800  1
  Ti  Ti45  1  0.83761800  0.82135900  0.23375600  1
  Ti  Ti46  1  0.82832000  0.97224900  0.45847800  1
  Ti  Ti47  1  0.53761800  0.46314500  0.03454600  1
  Ti  Ti48  1  0.26494700  0.03264600  0.98137800  1
  Ti  Ti49  1  0.32336800  0.43290200  0.23095500  1
  O  O0  1  0.49544700  0.35158800  0.18029700  1
  O  O1  1  0.45873800  0.17446200  0.56599800  1
  O  O2  1  0.15133600  0.77260900  0.72798700  1
  O  O3  1  0.13853400  0.43542100  0.16545600  1
  O  O4  1  0.08853700  0.96654700  0.92650900  1
  O  O5  1  0.50425900  0.39400900  0.42463800  1
  O  O6  1  0.54714000  0.04552100  0.74935900  1
  O  O7  1  0.29656500  0.56787500  0.35652000  1
  O  O8  1  0.32032000  0.32324900  0.73728400  1
  O  O9  1  0.80970600  0.13430500  0.88017400  1
  O  O10  1  0.91480800  0.80309800  0.81952600  1
  O  O11  1  0.13058100  0.06627400  0.13261300  1
  O  O12  1  0.08752600  0.73593500  0.28282900  1
  O  O13  1  0.27171200  0.61467200  0.87947400  1
  O  O14  1  0.69083200  0.23688500  0.44019800  1
  O  O15  1  0.17670400  0.11788500  0.73222000  1
  O  O16  1  0.58504300  0.06341900  0.09843900  1
  O  O17  1  0.96369500  0.25657400  0.60345800  1
  O  O18  1  0.27301300  0.08984500  0.43590900  1
  O  O19  1  0.98905100  0.06652500  0.42607600  1
  O  O20  1  0.07151600  0.51217700  0.53083800  1
  O  O21  1  0.63173800  0.99392000  0.42956700  1
  O  O22  1  0.09192700  0.45112900  0.77329000  1
  O  O23  1  0.16452000  0.93897400  0.57025700  1
  O  O24  1  0.58218500  0.29829600  0.94382600  1
  O  O25  1  0.50371200  0.64447600  0.95473600  1
  O  O26  1  0.79806000  0.17886700  0.19951800  1
  O  O27  1  0.04098300  0.28975000  0.99152400  1
  O  O28  1  0.30483700  0.60440500  0.62645500  1
  O  O29  1  0.42299300  0.12169000  0.94127300  1
  O  O30  1  0.60566800  0.62572000  0.43295800  1
  O  O31  1  0.72771300  0.71650500  0.00235800  1
  O  O32  1  0.28020800  0.85705800  0.17436100  1
  O  O33  1  0.20013900  0.29230000  0.52075900  1
  O  O34  1  0.69602000  0.93593700  0.90901900  1
  O  O35  1  0.75322500  0.49823900  0.71543000  1
  O  O36  1  0.81298300  0.38248100  0.02332600  1
  O  O37  1  0.75519900  0.96396500  0.64238700  1
  O  O38  1  0.39935800  0.89047200  0.97226400  1
  O  O39  1  0.11467500  0.73163400  0.01807000  1
  O  O40  1  0.39368600  0.56978600  0.12599400  1
  O  O41  1  0.85438500  0.62904400  0.53461900  1
  O  O42  1  0.02463700  0.24253500  0.28120100  1
  O  O43  1  0.69959300  0.26144200  0.69790200  1
  O  O44  1  0.64905400  0.85849800  0.22397800  1
  O  O45  1  0.52567400  0.50758600  0.64775100  1
  O  O46  1  0.82987800  0.38984500  0.31267000  1
  O  O47  1  0.65520000  0.51998000  0.19891300  1
  O  O48  1  0.29865200  0.24542500  0.26365400  1
  O  O49  1  0.89970100  0.94361800  0.10287200  1
loop_
_geom_bond_atom_site_label_1
_geom_bond_atom_site_label_2
_geom_bond_distance
_geom_bond_site_symmetry_2
O0 Ti4 1.979627 1_555
O0 Ti31 1.986658 1_555
O0 Ti47 2.042414 1_555
O0 Ti49 2.047196 1_555
O1 Ti14 1.977361 1_555
O1 Ti26 2.057542 1_555
O1 Ti3 2.062801 1_555
O1 Ti37 2.105543 1_555
O2 Ti42 1.926951 1_555
O2 Ti30 1.974361 1_555
O2 Ti38 2.002939 1_555
O3 Ti49 2.057836 1_555
O3 Ti25 2.087092 1_555
O3 Ti7 2.089865 1_555
O3 Ti0 2.123275 1_555
O3 Ti27 2.299743 1_455
O4 Ti30 1.966557 1_555
O4 Ti48 2.062704 1_565
O4 Ti41 2.164416 1_455
O4 Ti9 2.240643 1_556
O5 Ti31 1.990668 1_555
O5 Ti14 2.060121 1_555
O5 Ti16 2.093149 1_555
O5 Ti40 2.154239 1_555
O6 Ti5 2.005629 1_555
O6 Ti26 2.007796 1_555
O6 Ti17 2.019966 1_545
O6 Ti3 2.121702 1_555
O7 Ti12 1.949354 1_555
O7 Ti49 1.958602 1_555
O7 Ti16 1.958767 1_555
O8 Ti20 1.918272 1_555
O8 Ti39 2.097222 1_555
O8 Ti26 2.159326 1_555
O8 Ti10 2.168298 1_555
O9 Ti33 1.986911 1_555
O9 Ti41 2.009105 1_545
O9 Ti5 2.013052 1_555
O10 Ti41 2.040081 1_555
O10 Ti23 2.073540 1_555
O10 Ti24 2.096620 1_555
O10 Ti42 2.349755 1_655
O10 Ti30 2.518949 1_655
O11 Ti7 1.991354 1_555
O11 Ti35 2.032149 1_555
O11 Ti9 2.057219 1_545
O11 Ti48 2.144881 1_554
O11 Ti44 2.177745 1_455
O12 Ti8 2.020530 1_555
O12 Ti28 2.091818 1_555
O12 Ti25 2.133727 1_555
O12 Ti12 2.260145 1_555
O12 Ti9 2.413073 1_555
O12 Ti45 2.814629 1_455
O13 Ti34 1.991333 1_555
O13 Ti0 1.992651 1_556
O13 Ti42 2.055634 1_555
O13 Ti18 2.091347 1_556
O14 Ti32 2.004013 1_555
O14 Ti31 2.018874 1_555
O14 Ti40 2.085221 1_555
O14 Ti3 2.177013 1_555
O14 Ti2 2.558915 1_555
O15 Ti10 1.977876 1_555
O15 Ti13 2.040093 1_555
O15 Ti26 2.074287 1_555
O15 Ti30 2.088057 1_545
O16 Ti2 1.997186 1_555
O16 Ti4 1.998232 1_555
O16 Ti5 2.099598 1_554
O16 Ti29 2.122568 1_545
O17 Ti33 2.023378 1_555
O17 Ti32 2.023481 1_555
O17 Ti13 2.160588 1_655
O17 Ti15 2.235819 1_555
O18 Ti35 1.915671 1_555
O18 Ti37 2.003713 1_555
O18 Ti13 2.057593 1_555
O18 Ti14 2.096680 1_555
O19 Ti46 1.999885 1_545
O19 Ti13 2.003815 1_655
O19 Ti44 2.041445 1_555
O19 Ti28 2.161069 1_645
O19 Ti32 2.229111 1_555
O20 Ti8 1.941690 1_555
O20 Ti39 1.955660 1_555
O20 Ti15 1.989541 1_455
O21 Ti2 2.001721 1_565
O21 Ti37 2.036805 1_565
O21 Ti3 2.082506 1_565
O21 Ti46 2.088116 1_555
O21 Ti22 2.185293 1_555
O22 Ti19 2.017041 1_455
O22 Ti39 2.024364 1_555
O22 Ti10 2.137612 1_555
O22 Ti15 2.203546 1_455
O22 Ti42 2.361242 1_555
O23 Ti28 1.970983 1_555
O23 Ti30 2.003367 1_555
O23 Ti38 2.030251 1_555
O23 Ti13 2.102830 1_565
O24 Ti47 2.038404 1_556
O24 Ti43 2.042520 1_555
O24 Ti5 2.091351 1_555
O24 Ti20 2.096264 1_555
O25 Ti6 1.966324 1_555
O25 Ti34 2.044147 1_555
O25 Ti1 2.123906 1_556
O25 Ti18 2.167675 1_556
O25 Ti47 2.180374 1_556
O26 Ti2 1.921046 1_555
O26 Ti44 1.998842 1_555
O26 Ti27 2.415365 1_555
O26 Ti31 2.623688 1_555
O27 Ti10 1.988393 1_555
O27 Ti7 1.992396 1_556
O27 Ti19 2.006408 1_455
O27 Ti27 2.165680 1_456
O28 Ti16 1.971719 1_555
O28 Ti39 2.018848 1_555
O28 Ti38 2.071508 1_555
O28 Ti34 2.141404 1_555
O29 Ti48 1.964156 1_555
O29 Ti20 2.011189 1_555
O29 Ti5 2.090052 1_555
O29 Ti4 2.162661 1_556
O29 Ti26 2.281265 1_555
O30 Ti22 1.946335 1_555
O30 Ti36 1.993005 1_555
O30 Ti11 2.002088 1_555
O30 Ti16 2.068128 1_555
O31 Ti21 1.951914 1_555
O31 Ti24 2.029039 1_554
O31 Ti1 2.108958 1_555
O31 Ti6 2.150519 1_554
O32 Ti12 2.019398 1_555
O32 Ti29 2.071344 1_555
O32 Ti35 2.073501 1_565
O32 Ti18 2.083671 1_555
O32 Ti9 2.151920 1_555
O33 Ti14 1.900287 1_555
O33 Ti39 1.907158 1_555
O33 Ti13 2.009035 1_555
O34 Ti6 1.902892 1_555
O34 Ti41 1.963814 1_555
O34 Ti5 2.006141 1_565
O35 Ti15 2.021792 1_555
O35 Ti43 2.033129 1_555
O35 Ti36 2.051788 1_555
O35 Ti24 2.087929 1_555
O35 Ti40 2.290614 1_555
O36 Ti27 1.978091 1_555
O36 Ti43 1.988560 1_554
O36 Ti21 2.035012 1_555
O36 Ti19 2.088265 1_554
O37 Ti23 2.037533 1_555
O37 Ti3 2.047336 1_565
O37 Ti46 2.103236 1_555
O37 Ti33 2.209219 1_565
O37 Ti17 2.228223 1_555
O38 Ti6 2.036247 1_555
O38 Ti18 2.044915 1_556
O38 Ti48 2.062472 1_565
O38 Ti29 2.093580 1_556
O39 Ti9 1.899761 1_555
O39 Ti25 1.975396 1_555
O39 Ti42 1.978644 1_554
O39 Ti18 2.234555 1_555
O40 Ti49 2.017619 1_555
O40 Ti47 2.092384 1_555
O40 Ti18 2.093046 1_555
O40 Ti0 2.129196 1_555
O40 Ti1 2.350049 1_555
O41 Ti8 1.986686 1_655
O41 Ti36 2.072766 1_555
O41 Ti23 2.102127 1_555
O41 Ti11 2.133023 1_555
O41 Ti15 2.324196 1_555
O42 Ti44 2.004704 1_455
O42 Ti27 2.014210 1_455
O42 Ti32 2.176256 1_455
O42 Ti7 2.268447 1_555
O43 Ti40 1.982332 1_555
O43 Ti3 2.060270 1_555
O43 Ti43 2.068778 1_555
O43 Ti33 2.211653 1_555
O44 Ti45 2.006827 1_555
O44 Ti29 2.119522 1_555
O44 Ti22 2.127119 1_555
O44 Ti1 2.131607 1_555
O44 Ti2 2.317577 1_565
O45 Ti34 1.945056 1_555
O45 Ti40 1.994658 1_555
O45 Ti36 2.061054 1_555
O45 Ti16 2.116526 1_555
O46 Ti11 1.965355 1_555
O46 Ti27 2.000721 1_555
O46 Ti31 2.036729 1_555
O46 Ti32 2.097771 1_555
O47 Ti21 2.044231 1_555
O47 Ti1 2.165468 1_555
O47 Ti31 2.178852 1_555
O47 Ti11 2.194706 1_555
O47 Ti47 2.224758 1_555
O48 Ti14 1.992775 1_555
O48 Ti7 2.050808 1_555
O48 Ti49 2.074969 1_555
O48 Ti4 2.084411 1_555
O48 Ti35 2.352389 1_555
O49 Ti41 1.999166 1_554
O49 Ti9 2.049204 1_655
O49 Ti45 2.053545 1_555
O49 Ti44 2.073347 1_565
