# generated using pymatgen
data_KLaV4O12
_symmetry_space_group_name_H-M   'P 1'
_cell_length_a   5.98428141
_cell_length_b   5.98428141
_cell_length_c   7.28762465
_cell_angle_alpha   90.00000000
_cell_angle_beta   90.00000000
_cell_angle_gamma   75.25713091
_symmetry_Int_Tables_number   1
_chemical_formula_structural   KLaV4O12
_chemical_formula_sum   'K1 La1 V4 O12'
_cell_volume   252.38953580
_cell_formula_units_Z   1
loop_
 _symmetry_equiv_pos_site_id
 _symmetry_equiv_pos_as_xyz
  1  'x, y, z'
loop_
 _atom_site_type_symbol
 _atom_site_label
 _atom_site_symmetry_multiplicity
 _atom_site_fract_x
 _atom_site_fract_y
 _atom_site_fract_z
 _atom_site_occupancy
  K  K0  1  0.02887120  0.02887120  0.50000000  1
  La  La0  1  0.54950209  0.54950209  -0.00000000  1
  V  V0  1  0.53642228  0.03783070  0.75063509  1
  V  V1  1  0.53642228  0.03783070  0.24936491  1
  V  V2  1  0.03783070  0.53642228  0.24936491  1
  V  V3  1  0.03783070  0.53642228  0.75063509  1
  O  O0  1  0.71790523  0.20658620  0.77243322  1
  O  O1  1  0.20658620  0.71790523  0.77243322  1
  O  O2  1  0.20658620  0.71790523  0.22756678  1
  O  O3  1  0.71790523  0.20658620  0.22756678  1
  O  O4  1  0.72570895  0.72570895  0.74989774  1
  O  O5  1  0.25604121  0.25604121  0.76265148  1
  O  O6  1  0.25604121  0.25604121  0.23734852  1
  O  O7  1  0.72570895  0.72570895  0.25010226  1
  O  O8  1  0.48435233  0.96563788  -0.00000000  1
  O  O9  1  0.50194443  0.00960291  0.50000000  1
  O  O10  1  0.96563788  0.48435233  -0.00000000  1
  O  O11  1  0.00960291  0.50194443  0.50000000  1
loop_
_geom_bond_atom_site_label_1
_geom_bond_atom_site_label_2
_geom_bond_distance
_geom_bond_site_symmetry_2
K0 O3 2.743813 1_455
K0 O2 2.743813 1_545
K0 O1 2.743813 1_545
K0 O0 2.743813 1_455
K0 O9 2.803878 1_555
K0 O11 2.803878 1_555
K0 O6 2.881080 1_555
K0 O5 2.881080 1_555
K0 O9 3.184574 1_455
K0 O11 3.184574 1_545
La0 O10 2.420602 1_555
La0 O8 2.420602 1_555
La0 O4 2.472205 1_554
La0 O7 2.472205 1_555
La0 O1 2.631452 1_554
La0 O0 2.631452 1_554
La0 O2 2.631452 1_555
La0 O3 2.631452 1_555
O0 V0 1.668174 1_555
O1 V3 1.668174 1_555
O2 V2 1.668174 1_555
O3 V1 1.668174 1_555
O4 V3 1.922254 1_655
O4 V0 1.922254 1_565
O5 V3 1.847429 1_555
O5 V0 1.847429 1_555
O6 V2 1.847429 1_555
O6 V1 1.847429 1_555
O7 V2 1.922254 1_655
O7 V1 1.922254 1_565
O8 V0 1.911741 1_564
O8 V1 1.911741 1_565
O9 V1 1.850695 1_555
O9 V0 1.850695 1_555
O10 V3 1.911741 1_654
O10 V2 1.911741 1_655
O11 V2 1.850695 1_555
O11 V3 1.850695 1_555
