# generated using pymatgen
data_KNaV2O6
_symmetry_space_group_name_H-M   'P 1'
_cell_length_a   7.47269925
_cell_length_b   7.47269925
_cell_length_c   5.93297937
_cell_angle_alpha   79.28910732
_cell_angle_beta   79.28910732
_cell_angle_gamma   87.03322198
_symmetry_Int_Tables_number   1
_chemical_formula_structural   KNaV2O6
_chemical_formula_sum   'K2 Na2 V4 O12'
_cell_volume   319.81026920
_cell_formula_units_Z   2
loop_
 _symmetry_equiv_pos_site_id
 _symmetry_equiv_pos_as_xyz
  1  'x, y, z'
loop_
 _atom_site_type_symbol
 _atom_site_label
 _atom_site_symmetry_multiplicity
 _atom_site_fract_x
 _atom_site_fract_y
 _atom_site_fract_z
 _atom_site_occupancy
  K  K0  1  0.19803700  0.80196300  0.25000000  1
  K  K1  1  0.80196300  0.19803700  0.75000000  1
  Na  Na0  1  0.59456800  0.40543200  0.25000000  1
  Na  Na1  1  0.40543200  0.59456800  0.75000000  1
  V  V0  1  0.87066300  0.70105300  0.77761500  1
  V  V1  1  0.29894700  0.12933700  0.72238500  1
  V  V2  1  0.12933700  0.29894700  0.22238500  1
  V  V3  1  0.70105300  0.87066300  0.27761500  1
  O  O0  1  0.61285900  0.08023100  0.21443200  1
  O  O1  1  0.91976900  0.38714100  0.28556800  1
  O  O2  1  0.38714100  0.91976900  0.78556800  1
  O  O3  1  0.08023100  0.61285900  0.71443200  1
  O  O4  1  0.16876900  0.14163700  0.48601100  1
  O  O5  1  0.85836300  0.83123100  0.01398900  1
  O  O6  1  0.83123100  0.85836300  0.51398900  1
  O  O7  1  0.14163700  0.16876900  0.98601100  1
  O  O8  1  0.71291800  0.53773600  0.85059300  1
  O  O9  1  0.46226400  0.28708200  0.64940700  1
  O  O10  1  0.28708200  0.46226400  0.14940700  1
  O  O11  1  0.53773600  0.71291800  0.35059300  1
loop_
_geom_bond_atom_site_label_1
_geom_bond_atom_site_label_2
_geom_bond_distance
_geom_bond_site_symmetry_2
K0 O10 2.735590 1_555
K0 O11 2.735590 1_555
K0 O3 2.853811 1_555
K0 O2 2.853811 1_554
K0 O6 2.945165 1_455
K0 O7 2.945165 1_564
K0 O5 3.098586 1_455
K0 O4 3.098586 1_565
K1 O8 2.735590 1_555
K1 O9 2.735590 1_555
K1 O0 2.853811 1_556
K1 O1 2.853811 1_555
K1 O5 2.945165 1_546
K1 O4 2.945165 1_655
K1 O7 3.098586 1_655
K1 O6 3.098586 1_545
Na0 O9 2.411564 1_555
Na0 O8 2.411564 1_554
Na0 O0 2.472702 1_555
Na0 O1 2.472702 1_555
Na0 O11 2.476028 1_555
Na0 O10 2.476028 1_555
Na1 O10 2.411564 1_556
Na1 O11 2.411564 1_555
Na1 O2 2.472702 1_555
Na1 O3 2.472702 1_555
Na1 O9 2.476028 1_555
Na1 O8 2.476028 1_555
O0 V3 1.671564 1_545
O1 V2 1.671564 1_655
O2 V1 1.671564 1_565
O3 V0 1.671564 1_455
O4 V2 1.834964 1_555
O4 V1 1.836139 1_555
O5 V3 1.834964 1_555
O5 V0 1.836139 1_554
O6 V0 1.834964 1_555
O6 V3 1.836139 1_555
O7 V1 1.834964 1_555
O7 V2 1.836139 1_556
O8 V0 1.682023 1_555
O9 V1 1.682023 1_555
O10 V2 1.682023 1_555
O11 V3 1.682023 1_555
