# generated using pymatgen
data_YMg
_symmetry_space_group_name_H-M   'P 1'
_cell_length_a   5.85325353
_cell_length_b   5.85325353
_cell_length_c   6.48405190
_cell_angle_alpha   64.47495635
_cell_angle_beta   64.47495635
_cell_angle_gamma   60.48831034
_symmetry_Int_Tables_number   1
_chemical_formula_structural   YMg
_chemical_formula_sum   'Y3 Mg3'
_cell_volume   167.55815327
_cell_formula_units_Z   3
loop_
 _symmetry_equiv_pos_site_id
 _symmetry_equiv_pos_as_xyz
  1  'x, y, z'
loop_
 _atom_site_type_symbol
 _atom_site_label
 _atom_site_symmetry_multiplicity
 _atom_site_fract_x
 _atom_site_fract_y
 _atom_site_fract_z
 _atom_site_occupancy
  Y  Y0  1  0.35288300  0.64711700  0.00000000  1
  Y  Y1  1  0.82859100  0.84498400  0.48786100  1
  Y  Y2  1  0.15501600  0.17140900  0.51213900  1
  Mg  Mg0  1  0.00024700  0.33418600  0.00373700  1
  Mg  Mg1  1  0.66581400  0.99975300  0.99626300  1
  Mg  Mg2  1  0.49744900  0.50255100  0.50000000  1
loop_
_geom_bond_atom_site_label_1
_geom_bond_atom_site_label_2
_geom_bond_distance
_geom_bond_site_symmetry_2
Y0 Y1 3.466371 1_554
Y0 Y2 3.466371 1_555
Y0 Y1 3.472054 1_455
Y0 Y2 3.472054 1_564
Y1 Y2 3.382442 1_665
Y1 Y2 3.394461 1_655
Y1 Y2 3.394461 1_565
Mg0 Y0 3.304024 1_455
Mg0 Y2 3.341752 1_554
Mg0 Y0 3.355494 1_555
Mg0 Mg1 3.378889 1_454
Mg0 Mg1 3.378889 1_544
Mg0 Y1 3.381191 1_445
Mg0 Mg1 3.406585 1_444
Mg0 Y2 3.407620 1_555
Mg0 Mg2 3.420647 1_455
Mg0 Mg2 3.459572 1_554
Mg0 Y0 3.506711 1_545
Mg0 Y1 3.529217 1_454
Mg1 Y0 3.304024 1_566
Mg1 Y1 3.341752 1_556
Mg1 Y0 3.355494 1_556
Mg1 Y2 3.381191 1_665
Mg1 Y1 3.407620 1_555
Mg1 Mg2 3.420647 1_565
Mg1 Mg2 3.459572 1_556
Mg1 Y0 3.506711 1_656
Mg1 Y2 3.529217 1_566
Mg2 Y0 3.352216 1_555
Mg2 Y0 3.352216 1_556
Mg2 Y2 3.367560 1_555
Mg2 Y1 3.367560 1_555
Mg2 Y1 3.370007 1_545
Mg2 Y2 3.370007 1_655
Mg2 Y1 3.427755 1_455
Mg2 Y2 3.427755 1_565
