# generated using pymatgen
data_La(Ge2Rh3)2
_symmetry_space_group_name_H-M   'P 1'
_cell_length_a   7.17778440
_cell_length_b   7.17778440
_cell_length_c   3.88722639
_cell_angle_alpha   90.00000000
_cell_angle_beta   90.00000000
_cell_angle_gamma   120.00001514
_symmetry_Int_Tables_number   1
_chemical_formula_structural   La(Ge2Rh3)2
_chemical_formula_sum   'La1 Ge4 Rh6'
_cell_volume   173.44078029
_cell_formula_units_Z   1
loop_
 _symmetry_equiv_pos_site_id
 _symmetry_equiv_pos_as_xyz
  1  'x, y, z'
loop_
 _atom_site_type_symbol
 _atom_site_label
 _atom_site_symmetry_multiplicity
 _atom_site_fract_x
 _atom_site_fract_y
 _atom_site_fract_z
 _atom_site_occupancy
  La  La0  1  0.00000000  0.00000000  -0.00000000  1
  Ge  Ge0  1  0.66666700  0.33333300  -0.00000000  1
  Ge  Ge1  1  0.20012085  0.40024170  0.50000000  1
  Ge  Ge2  1  0.59975830  0.79987915  0.50000000  1
  Ge  Ge3  1  0.20012085  0.79987915  0.50000000  1
  Rh  Rh0  1  0.46705912  0.93411824  0.00000000  1
  Rh  Rh1  1  0.06588176  0.53294088  0.00000000  1
  Rh  Rh2  1  0.46705912  0.53294088  -0.00000000  1
  Rh  Rh3  1  0.79870066  0.59740132  0.50000000  1
  Rh  Rh4  1  0.40259868  0.20129934  0.50000000  1
  Rh  Rh5  1  0.79870066  0.20129934  0.50000000  1
loop_
_geom_bond_atom_site_label_1
_geom_bond_atom_site_label_2
_geom_bond_distance
_geom_bond_site_symmetry_2
La0 Rh3 3.168705 1_445
La0 Rh4 3.168705 1_554
La0 Rh4 3.168705 1_555
La0 Rh3 3.168705 1_444
La0 Rh5 3.168706 1_455
La0 Rh5 3.168706 1_454
Ge0 Rh1 2.481576 1_655
Ge0 Rh0 2.481576 1_545
Ge0 Rh2 2.481583 1_555
Ge0 Rh5 2.544030 1_555
Ge0 Rh5 2.544030 1_554
Ge0 Rh3 2.544034 1_554
Ge0 Rh3 2.544034 1_555
Ge0 Rh4 2.544034 1_554
Ge0 Rh4 2.544034 1_555
Ge1 Rh5 2.495317 1_455
Ge1 Rh4 2.495318 1_555
Ge1 Rh2 2.555587 1_556
Ge1 Rh2 2.555587 1_555
Ge1 Rh1 2.555588 1_556
Ge1 Rh1 2.555588 1_555
Ge1 La0 3.157147 1_555
Ge1 La0 3.157147 1_556
Ge2 Rh5 2.495317 1_565
Ge2 Rh3 2.495318 1_555
Ge2 Rh2 2.555587 1_556
Ge2 Rh2 2.555587 1_555
Ge2 Rh0 2.555588 1_555
Ge2 Rh0 2.555588 1_556
Ge2 La0 3.157147 1_666
Ge2 La0 3.157147 1_665
Ge3 Rh3 2.495317 1_455
Ge3 Rh4 2.495317 1_565
Ge3 Rh0 2.555587 1_556
Ge3 Rh1 2.555587 1_556
Ge3 Rh0 2.555587 1_555
Ge3 Rh1 2.555587 1_555
Ge3 La0 3.157147 1_565
Ge3 La0 3.157147 1_566
