# generated using pymatgen
data_K2ScP2Se7
_symmetry_space_group_name_H-M   'P 1'
_cell_length_a   12.03296229
_cell_length_b   12.03296229
_cell_length_c   20.20117222
_cell_angle_alpha   67.24758771
_cell_angle_beta   67.24758771
_cell_angle_gamma   33.53375687
_symmetry_Int_Tables_number   1
_chemical_formula_structural   K2ScP2Se7
_chemical_formula_sum   'K8 Sc4 P8 Se28'
_cell_volume   1478.15698321
_cell_formula_units_Z   4
loop_
 _symmetry_equiv_pos_site_id
 _symmetry_equiv_pos_as_xyz
  1  'x, y, z'
loop_
 _atom_site_type_symbol
 _atom_site_label
 _atom_site_symmetry_multiplicity
 _atom_site_fract_x
 _atom_site_fract_y
 _atom_site_fract_z
 _atom_site_occupancy
  K  K0  1  0.61196100  0.98421000  0.66882800  1
  K  K1  1  0.01579000  0.38803900  0.83117200  1
  K  K2  1  0.38803900  0.01579000  0.33117200  1
  K  K3  1  0.98421000  0.61196100  0.16882800  1
  K  K4  1  0.97017100  0.03893100  0.14191200  1
  K  K5  1  0.96106900  0.02982900  0.35808800  1
  K  K6  1  0.02982900  0.96106900  0.85808800  1
  K  K7  1  0.03893100  0.97017100  0.64191200  1
  Sc  Sc0  1  0.16608700  0.49910100  0.50154800  1
  Sc  Sc1  1  0.50089900  0.83391300  0.99845200  1
  Sc  Sc2  1  0.83391300  0.50089900  0.49845200  1
  Sc  Sc3  1  0.49910100  0.16608700  0.00154800  1
  P  P0  1  0.43318900  0.46537300  0.54305300  1
  P  P1  1  0.53462700  0.56681100  0.95694700  1
  P  P2  1  0.56681100  0.53462700  0.45694700  1
  P  P3  1  0.46537300  0.43318900  0.04305300  1
  P  P4  1  0.08623300  0.27082300  0.64179200  1
  P  P5  1  0.72917700  0.91376700  0.85820800  1
  P  P6  1  0.91376700  0.72917700  0.35820800  1
  P  P7  1  0.27082300  0.08623300  0.14179200  1
  Se  Se0  1  0.10093800  0.75255500  0.53108500  1
  Se  Se1  1  0.24744500  0.89906200  0.96891500  1
  Se  Se2  1  0.89906200  0.24744500  0.46891500  1
  Se  Se3  1  0.75255500  0.10093800  0.03108500  1
  Se  Se4  1  0.56263100  0.22331000  0.49961600  1
  Se  Se5  1  0.77669000  0.43736900  0.00038400  1
  Se  Se6  1  0.43736900  0.77669000  0.50038400  1
  Se  Se7  1  0.22331000  0.56263100  0.99961600  1
  Se  Se8  1  0.22496700  0.20900300  0.52374400  1
  Se  Se9  1  0.79099700  0.77503300  0.97625600  1
  Se  Se10  1  0.77503300  0.79099700  0.47625600  1
  Se  Se11  1  0.20900300  0.22496700  0.02374400  1
  Se  Se12  1  0.06882500  0.46756700  0.64835900  1
  Se  Se13  1  0.53243300  0.93117500  0.85164100  1
  Se  Se14  1  0.93117500  0.53243300  0.35164100  1
  Se  Se15  1  0.46756700  0.06882500  0.14835900  1
  Se  Se16  1  0.21802800  0.55504300  0.35432800  1
  Se  Se17  1  0.44495700  0.78197200  0.14567200  1
  Se  Se18  1  0.78197200  0.44495700  0.64567200  1
  Se  Se19  1  0.55504300  0.21802800  0.85432800  1
  Se  Se20  1  0.49637300  0.38518000  0.65087600  1
  Se  Se21  1  0.61482000  0.50362700  0.84912400  1
  Se  Se22  1  0.50362700  0.61482000  0.34912400  1
  Se  Se23  1  0.38518000  0.49637300  0.15087600  1
  Se  Se24  1  0.72301800  0.00528400  0.28247800  1
  Se  Se25  1  0.99471600  0.27698200  0.21752200  1
  Se  Se26  1  0.27698200  0.99471600  0.71752200  1
  Se  Se27  1  0.00528400  0.72301800  0.78247800  1
loop_
_geom_bond_atom_site_label_1
_geom_bond_atom_site_label_2
_geom_bond_distance
_geom_bond_site_symmetry_2
K0 Se13 3.379805 1_555
K0 Se4 3.380804 1_565
K0 Se12 3.506419 1_655
K0 Se20 3.632410 1_565
K0 Se26 3.662052 1_555
K0 Se12 3.684005 1_565
K1 Se12 3.379805 1_555
K1 Se5 3.380804 1_456
K1 Se13 3.506419 1_545
K1 Se21 3.632410 1_455
K1 Se27 3.662052 1_555
K1 Se13 3.684005 1_455
K2 Se15 3.379805 1_555
K2 Se6 3.380804 1_545
K2 Se14 3.506419 1_455
K2 Se22 3.632410 1_545
K2 Se24 3.662052 1_555
K2 Se14 3.684005 1_545
K3 Se14 3.379805 1_555
K3 Se7 3.380804 1_654
K3 Se15 3.506419 1_565
K3 Se23 3.632410 1_655
K3 Se25 3.662052 1_555
K3 Se15 3.684005 1_655
K4 Se24 3.414346 1_555
K4 Se1 3.513792 1_644
K4 Se3 3.522975 1_555
K4 Se5 3.538082 1_555
K4 Se17 3.593072 1_645
K4 Se23 3.609160 1_645
K5 Se25 3.414346 1_555
K5 Se0 3.513792 1_645
K5 Se2 3.522975 1_555
K5 Se4 3.538082 1_555
K5 Se16 3.593072 1_645
K5 Se22 3.609160 1_645
K6 Se26 3.414346 1_555
K6 Se3 3.513792 1_466
K6 Se1 3.522975 1_555
K6 Se7 3.538082 1_555
K6 Se19 3.593072 1_465
K6 Se21 3.609160 1_465
K7 Se27 3.414346 1_555
K7 Se2 3.513792 1_465
K7 Se0 3.522975 1_555
K7 Se6 3.538082 1_555
K7 Se18 3.593072 1_465
K7 Se20 3.609160 1_465
Sc0 Se0 2.707733 1_555
Sc0 Se4 2.709250 1_555
Sc0 Se16 2.720966 1_555
Sc0 Se12 2.737607 1_555
Sc0 Se10 2.767295 1_455
Sc0 Se8 2.792887 1_555
Sc1 Se1 2.707733 1_555
Sc1 Se5 2.709250 1_556
Sc1 Se17 2.720966 1_556
Sc1 Se13 2.737607 1_555
Sc1 Se11 2.767295 1_566
Sc1 Se9 2.792887 1_555
Sc2 Se2 2.707733 1_555
Sc2 Se6 2.709250 1_555
Sc2 Se18 2.720966 1_555
Sc2 Se14 2.737607 1_555
Sc2 Se8 2.767295 1_655
Sc2 Se10 2.792887 1_555
Sc3 Se3 2.707733 1_555
Sc3 Se7 2.709250 1_554
Sc3 Se19 2.720966 1_554
Sc3 Se15 2.737607 1_555
Sc3 Se9 2.767295 1_544
Sc3 Se11 2.792887 1_555
P0 Se20 2.164630 1_555
P0 Se4 2.244199 1_555
P0 Se0 2.247862 1_555
P0 P2 2.292283 1_555
P1 Se21 2.164630 1_555
P1 Se5 2.244199 1_556
P1 Se1 2.247862 1_555
P1 P3 2.292283 1_556
P2 Se22 2.164630 1_555
P2 Se6 2.244199 1_555
P2 Se2 2.247862 1_555
P3 Se23 2.164630 1_555
P3 Se7 2.244199 1_554
P3 Se3 2.247862 1_555
P4 Se26 2.172190 1_545
P4 Se18 2.217348 1_455
P4 Se12 2.249628 1_555
P4 Se8 2.291202 1_555
P5 Se27 2.172190 1_655
P5 Se19 2.217348 1_565
P5 Se13 2.249628 1_555
P5 Se9 2.291202 1_555
P6 Se24 2.172190 1_565
P6 Se16 2.217348 1_655
P6 Se14 2.249628 1_555
P6 Se10 2.291202 1_555
P7 Se25 2.172190 1_455
P7 Se17 2.217348 1_545
P7 Se15 2.249628 1_555
P7 Se11 2.291202 1_555
