# generated using pymatgen
data_ZnS
_symmetry_space_group_name_H-M   'P 1'
_cell_length_a   3.87486876
_cell_length_b   3.87486876
_cell_length_c   56.55700154
_cell_angle_alpha   88.03687406
_cell_angle_beta   88.03687406
_cell_angle_gamma   59.99998705
_symmetry_Int_Tables_number   1
_chemical_formula_structural   ZnS
_chemical_formula_sum   'Zn18 S18'
_cell_volume   734.83683709
_cell_formula_units_Z   18
loop_
 _symmetry_equiv_pos_site_id
 _symmetry_equiv_pos_as_xyz
  1  'x, y, z'
loop_
 _atom_site_type_symbol
 _atom_site_label
 _atom_site_symmetry_multiplicity
 _atom_site_fract_x
 _atom_site_fract_y
 _atom_site_fract_z
 _atom_site_occupancy
  Zn  Zn0  1  0.99999300  0.99999300  0.00002100  1
  Zn  Zn1  1  0.94443800  0.94443800  0.16668600  1
  Zn  Zn2  1  0.88887900  0.88887900  0.33336300  1
  Zn  Zn3  1  0.85183800  0.85183800  0.44448700  1
  Zn  Zn4  1  0.75925600  0.75925600  0.72223300  1
  Zn  Zn5  1  0.72220900  0.72220900  0.83337400  1
  Zn  Zn6  1  0.62962900  0.62962900  0.11111400  1
  Zn  Zn7  1  0.57406300  0.57406300  0.27781000  1
  Zn  Zn8  1  0.49999200  0.49999200  0.50002500  1
  Zn  Zn9  1  0.46295300  0.46295300  0.61114000  1
  Zn  Zn10  1  0.40740500  0.40740500  0.77778600  1
  Zn  Zn11  1  0.35184500  0.35184500  0.94446600  1
  Zn  Zn12  1  0.31480700  0.31480700  0.05558000  1
  Zn  Zn13  1  0.25925300  0.25925300  0.22224100  1
  Zn  Zn14  1  0.20369200  0.20369200  0.38892400  1
  Zn  Zn15  1  0.14814300  0.14814300  0.55557100  1
  Zn  Zn16  1  0.11110200  0.11110200  0.66669300  1
  Zn  Zn17  1  0.03703000  0.03703000  0.88891100  1
  S  S0  1  0.98611100  0.98611100  0.04166600  1
  S  S1  1  0.93056500  0.93056500  0.20830400  1
  S  S2  1  0.87502400  0.87502400  0.37492900  1
  S  S3  1  0.83797900  0.83797900  0.48606300  1
  S  S4  1  0.74539700  0.74539700  0.76380900  1
  S  S5  1  0.70835100  0.70835100  0.87494800  1
  S  S6  1  0.61575000  0.61575000  0.15274900  1
  S  S7  1  0.56019900  0.56019900  0.31940300  1
  S  S8  1  0.48614000  0.48614000  0.54157900  1
  S  S9  1  0.44907500  0.44907500  0.65277400  1
  S  S10  1  0.39352700  0.39352700  0.81941900  1
  S  S11  1  0.33797900  0.33797900  0.98606300  1
  S  S12  1  0.30093100  0.30093100  0.09720600  1
  S  S13  1  0.24538500  0.24538500  0.26384400  1
  S  S14  1  0.18981900  0.18981900  0.43054400  1
  S  S15  1  0.13427800  0.13427800  0.59716700  1
  S  S16  1  0.09723400  0.09723400  0.70829900  1
  S  S17  1  0.02318000  0.02318000  0.93046100  1
loop_
_geom_bond_atom_site_label_1
_geom_bond_atom_site_label_2
_geom_bond_distance
_geom_bond_site_symmetry_2
S0 Zn0 2.353473 1_555
S0 Zn12 2.371319 1_565
S0 Zn12 2.371319 1_655
S0 Zn12 2.371326 1_665
S1 Zn1 2.351947 1_555
S1 Zn13 2.371751 1_565
S1 Zn13 2.371751 1_655
S1 Zn13 2.371755 1_665
S2 Zn2 2.349008 1_555
S2 Zn14 2.372841 1_665
S2 Zn14 2.372844 1_565
S2 Zn14 2.372844 1_655
S3 Zn3 2.349574 1_555
S3 Zn8 2.372220 1_555
S3 Zn8 2.372223 1_655
S3 Zn8 2.372223 1_565
S4 Zn4 2.349574 1_555
S4 Zn10 2.372502 1_555
S4 Zn10 2.372505 1_565
S4 Zn10 2.372505 1_655
S5 Zn5 2.349461 1_555
S5 Zn17 2.372241 1_565
S5 Zn17 2.372241 1_655
S5 Zn17 2.372241 1_665
S6 Zn6 2.352908 1_555
S6 Zn1 2.371751 1_455
S6 Zn1 2.371751 1_545
S6 Zn1 2.371755 1_555
S7 Zn7 2.350534 1_555
S7 Zn2 2.372185 1_545
S7 Zn2 2.372185 1_455
S7 Zn2 2.372185 1_555
S8 Zn8 2.348330 1_555
S8 Zn15 2.372785 1_555
S8 Zn15 2.372788 1_565
S8 Zn15 2.372788 1_655
S9 Zn9 2.352851 1_555
S9 Zn16 2.371415 1_655
S9 Zn16 2.371415 1_565
S9 Zn16 2.371415 1_555
S10 Zn10 2.352795 1_555
S10 Zn5 2.372089 1_455
S10 Zn5 2.372089 1_545
S10 Zn5 2.372093 1_555
S11 Zn11 2.350760 1_555
S11 Zn0 2.372147 1_546
S11 Zn0 2.372147 1_456
S11 Zn0 2.372147 1_446
S12 Zn12 2.352399 1_555
S12 Zn6 2.371207 1_545
S12 Zn6 2.371207 1_455
S12 Zn6 2.371213 1_555
S13 Zn13 2.351099 1_555
S13 Zn7 2.372297 1_455
S13 Zn7 2.372297 1_545
S13 Zn7 2.372298 1_555
S14 Zn14 2.352060 1_555
S14 Zn3 2.371865 1_455
S14 Zn3 2.371865 1_545
S14 Zn3 2.371866 1_445
S15 Zn15 2.350704 1_555
S15 Zn9 2.372425 1_555
S15 Zn9 2.372431 1_545
S15 Zn9 2.372431 1_455
S16 Zn16 2.351269 1_555
S16 Zn4 2.371696 1_455
S16 Zn4 2.371696 1_545
S16 Zn4 2.371697 1_445
S17 Zn17 2.348104 1_555
S17 Zn11 2.373031 1_455
S17 Zn11 2.373031 1_545
S17 Zn11 2.373032 1_555
