# generated using pymatgen
data_AlO3
_symmetry_space_group_name_H-M   'P 1'
_cell_length_a   5.52540500
_cell_length_b   7.94933700
_cell_length_c   9.76287800
_cell_angle_alpha   90.00000000
_cell_angle_beta   90.00000000
_cell_angle_gamma   90.00000000
_symmetry_Int_Tables_number   1
_chemical_formula_structural   AlO3
_chemical_formula_sum   'Al8 O24'
_cell_volume   428.81788180
_cell_formula_units_Z   8
loop_
 _symmetry_equiv_pos_site_id
 _symmetry_equiv_pos_as_xyz
  1  'x, y, z'
loop_
 _atom_site_type_symbol
 _atom_site_label
 _atom_site_symmetry_multiplicity
 _atom_site_fract_x
 _atom_site_fract_y
 _atom_site_fract_z
 _atom_site_occupancy
  Al  Al0  1  0.97745700  0.51011800  0.19669200  1
  Al  Al1  1  0.02254300  0.48988200  0.80330800  1
  Al  Al2  1  0.52254300  0.48988200  0.69669200  1
  Al  Al3  1  0.47745700  0.51011800  0.30330800  1
  Al  Al4  1  0.97745700  0.98988200  0.69669200  1
  Al  Al5  1  0.02254300  0.01011800  0.30330800  1
  Al  Al6  1  0.52254300  0.01011800  0.19669200  1
  Al  Al7  1  0.47745700  0.98988200  0.80330800  1
  O  O0  1  0.56431900  0.42601800  0.49419900  1
  O  O1  1  0.43568100  0.57398200  0.50580100  1
  O  O2  1  0.93568100  0.57398200  0.99419900  1
  O  O3  1  0.06431900  0.42601800  0.00580100  1
  O  O4  1  0.18388800  0.39844200  0.30986400  1
  O  O5  1  0.81611200  0.60155800  0.69013600  1
  O  O6  1  0.31611200  0.60155800  0.80986400  1
  O  O7  1  0.68388800  0.39844200  0.19013600  1
  O  O8  1  0.23406700  0.36802200  0.70029200  1
  O  O9  1  0.76593300  0.63197800  0.29970800  1
  O  O10  1  0.26593300  0.63197800  0.20029200  1
  O  O11  1  0.73406700  0.36802200  0.79970800  1
  O  O12  1  0.06431900  0.07398200  0.50580100  1
  O  O13  1  0.93568100  0.92601800  0.49419900  1
  O  O14  1  0.43568100  0.92601800  0.00580100  1
  O  O15  1  0.56431900  0.07398200  0.99419900  1
  O  O16  1  0.18388800  0.10155800  0.80986400  1
  O  O17  1  0.81611200  0.89844200  0.19013600  1
  O  O18  1  0.31611200  0.89844200  0.30986400  1
  O  O19  1  0.68388800  0.10155800  0.69013600  1
  O  O20  1  0.26593300  0.86802200  0.70029200  1
  O  O21  1  0.73406700  0.13197800  0.29970800  1
  O  O22  1  0.23406700  0.13197800  0.20029200  1
  O  O23  1  0.76593300  0.86802200  0.79970800  1
loop_
_geom_bond_atom_site_label_1
_geom_bond_atom_site_label_2
_geom_bond_distance
_geom_bond_site_symmetry_2
Al0 O4 1.819305 1_655
Al0 O9 1.820956 1_555
Al0 O7 1.850234 1_555
Al0 O10 1.865554 1_655
Al0 O3 2.037270 1_655
Al0 O2 2.054071 1_554
Al1 O5 1.819305 1_455
Al1 O8 1.820956 1_555
Al1 O6 1.850234 1_555
Al1 O11 1.865554 1_455
Al1 O2 2.037270 1_455
Al1 O3 2.054071 1_556
Al2 O6 1.819305 1_555
Al2 O11 1.820956 1_555
Al2 O5 1.850234 1_555
Al2 O8 1.865554 1_555
Al2 O1 2.037270 1_555
Al2 O0 2.054071 1_555
Al3 O7 1.819305 1_555
Al3 O10 1.820956 1_555
Al3 O4 1.850234 1_555
Al3 O9 1.865554 1_555
Al3 O0 2.037270 1_555
Al3 O1 2.054071 1_555
Al4 O16 1.819305 1_665
Al4 O23 1.820956 1_555
Al4 O19 1.850234 1_565
Al4 O20 1.865554 1_655
Al4 O12 2.037270 1_665
Al4 O13 2.054071 1_555
Al5 O17 1.819305 1_445
Al5 O22 1.820956 1_555
Al5 O18 1.850234 1_545
Al5 O21 1.865554 1_455
Al5 O13 2.037270 1_445
Al5 O12 2.054071 1_555
Al6 O18 1.819305 1_545
Al6 O21 1.820956 1_555
Al6 O17 1.850234 1_545
Al6 O22 1.865554 1_555
Al6 O14 2.037270 1_545
Al6 O15 2.054071 1_554
Al7 O19 1.819305 1_565
Al7 O20 1.820956 1_555
Al7 O16 1.850234 1_565
Al7 O23 1.865554 1_555
Al7 O15 2.037270 1_565
Al7 O14 2.054071 1_556
O0 O1 1.378955 1_555
O2 O3 1.378955 1_656
O12 O13 1.378955 1_445
O14 O15 1.378955 1_564
