# generated using pymatgen
data_Ta5Ge3
_symmetry_space_group_name_H-M   'P 1'
_cell_length_a   7.65459052
_cell_length_b   7.65459052
_cell_length_c   5.34656800
_cell_angle_alpha   90.00000000
_cell_angle_beta   90.00000000
_cell_angle_gamma   120.00000452
_symmetry_Int_Tables_number   1
_chemical_formula_structural   Ta5Ge3
_chemical_formula_sum   'Ta10 Ge6'
_cell_volume   271.29989985
_cell_formula_units_Z   2
loop_
 _symmetry_equiv_pos_site_id
 _symmetry_equiv_pos_as_xyz
  1  'x, y, z'
loop_
 _atom_site_type_symbol
 _atom_site_label
 _atom_site_symmetry_multiplicity
 _atom_site_fract_x
 _atom_site_fract_y
 _atom_site_fract_z
 _atom_site_occupancy
  Ta  Ta0  1  0.00000000  0.76250600  0.75000000  1
  Ta  Ta1  1  0.00000000  0.23749400  0.25000000  1
  Ta  Ta2  1  0.76250600  0.76250600  0.25000000  1
  Ta  Ta3  1  0.76250600  0.00000000  0.75000000  1
  Ta  Ta4  1  0.23749400  0.23749400  0.75000000  1
  Ta  Ta5  1  0.23749400  0.00000000  0.25000000  1
  Ta  Ta6  1  0.33333300  0.66666700  0.50000000  1
  Ta  Ta7  1  0.66666700  0.33333300  0.00000000  1
  Ta  Ta8  1  0.66666700  0.33333300  0.50000000  1
  Ta  Ta9  1  0.33333300  0.66666700  0.00000000  1
  Ge  Ge0  1  0.39704000  0.00000000  0.75000000  1
  Ge  Ge1  1  0.39704000  0.39704000  0.25000000  1
  Ge  Ge2  1  0.00000000  0.60296000  0.25000000  1
  Ge  Ge3  1  0.00000000  0.39704000  0.75000000  1
  Ge  Ge4  1  0.60296000  0.60296000  0.75000000  1
  Ge  Ge5  1  0.60296000  0.00000000  0.25000000  1
loop_
_geom_bond_atom_site_label_1
_geom_bond_atom_site_label_2
_geom_bond_distance
_geom_bond_site_symmetry_2
Ge0 Ta0 2.648859 1_545
Ge0 Ta4 2.648859 1_555
Ge0 Ta6 2.700084 1_545
Ge0 Ta9 2.700084 1_546
Ge0 Ta7 2.700086 1_556
Ge0 Ta8 2.700086 1_555
Ge0 Ta3 2.797493 1_555
Ge0 Ta5 2.939034 1_555
Ge0 Ta5 2.939034 1_556
Ge1 Ta1 2.648859 1_555
Ge1 Ta5 2.648859 1_555
Ge1 Ta6 2.700091 1_555
Ge1 Ta7 2.700091 1_555
Ge1 Ta8 2.700091 1_555
Ge1 Ta9 2.700091 1_555
Ge1 Ta2 2.797492 1_555
Ge1 Ta4 2.939034 1_555
Ge1 Ta4 2.939034 1_554
Ge2 Ta5 2.648859 1_565
Ge2 Ta2 2.648859 1_455
Ge2 Ta9 2.700084 1_555
Ge2 Ta6 2.700084 1_555
Ge2 Ta8 2.700086 1_455
Ge2 Ta7 2.700086 1_455
Ge2 Ta1 2.797493 1_555
Ge2 Ta0 2.939034 1_555
Ge2 Ta0 2.939034 1_554
Ge3 Ta3 2.648859 1_455
Ge3 Ta4 2.648859 1_555
Ge3 Ta8 2.700084 1_455
Ge3 Ta7 2.700084 1_456
Ge3 Ta9 2.700086 1_556
Ge3 Ta6 2.700086 1_555
Ge3 Ta0 2.797493 1_555
Ge3 Ta1 2.939034 1_555
Ge3 Ta1 2.939034 1_556
Ge4 Ta0 2.648859 1_655
Ge4 Ta3 2.648859 1_565
Ge4 Ta8 2.700091 1_555
Ge4 Ta9 2.700091 1_556
Ge4 Ta6 2.700091 1_555
Ge4 Ta7 2.700091 1_556
Ge4 Ta4 2.797492 1_555
Ge4 Ta2 2.939034 1_556
Ge4 Ta2 2.939034 1_555
Ge5 Ta1 2.648859 1_655
Ge5 Ta2 2.648859 1_545
Ge5 Ta8 2.700084 1_555
Ge5 Ta7 2.700084 1_555
Ge5 Ta9 2.700086 1_545
Ge5 Ta6 2.700086 1_545
Ge5 Ta5 2.797493 1_555
Ge5 Ta3 2.939034 1_554
Ge5 Ta3 2.939034 1_555
