# generated using pymatgen
data_Sr2SmSbO6
_symmetry_space_group_name_H-M   'P 1'
_cell_length_a   8.44967410
_cell_length_b   8.44967410
_cell_length_c   8.44967410
_cell_angle_alpha   90.00000000
_cell_angle_beta   90.00000000
_cell_angle_gamma   90.00000000
_symmetry_Int_Tables_number   1
_chemical_formula_structural   Sr2SmSbO6
_chemical_formula_sum   'Sr8 Sm4 Sb4 O24'
_cell_volume   603.28131747
_cell_formula_units_Z   4
loop_
 _symmetry_equiv_pos_site_id
 _symmetry_equiv_pos_as_xyz
  1  'x, y, z'
loop_
 _atom_site_type_symbol
 _atom_site_label
 _atom_site_symmetry_multiplicity
 _atom_site_fract_x
 _atom_site_fract_y
 _atom_site_fract_z
 _atom_site_occupancy
  Sr  Sr0  1  0.50000000  0.50000000  0.50000000  1
  Sr  Sr1  1  -0.00000000  -0.00000000  -0.00000000  1
  Sr  Sr2  1  -0.00000000  -0.00000000  0.50000000  1
  Sr  Sr3  1  -0.00000000  0.50000000  -0.00000000  1
  Sr  Sr4  1  0.50000000  -0.00000000  -0.00000000  1
  Sr  Sr5  1  0.50000000  0.50000000  -0.00000000  1
  Sr  Sr6  1  0.50000000  -0.00000000  0.50000000  1
  Sr  Sr7  1  -0.00000000  0.50000000  0.50000000  1
  Sm  Sm0  1  0.25000000  0.25000000  0.25000000  1
  Sm  Sm1  1  0.25000000  0.75000000  0.75000000  1
  Sm  Sm2  1  0.75000000  0.25000000  0.75000000  1
  Sm  Sm3  1  0.75000000  0.75000000  0.25000000  1
  Sb  Sb0  1  0.75000000  0.75000000  0.75000000  1
  Sb  Sb1  1  0.75000000  0.25000000  0.25000000  1
  Sb  Sb2  1  0.25000000  0.75000000  0.25000000  1
  Sb  Sb3  1  0.25000000  0.25000000  0.75000000  1
  O  O0  1  0.21728186  0.28885395  0.51696675  1
  O  O1  1  0.21728186  0.71114605  0.48303325  1
  O  O2  1  0.78271814  0.28885395  0.48303325  1
  O  O3  1  0.78271814  0.71114605  0.51696675  1
  O  O4  1  0.28885395  0.51696675  0.21728186  1
  O  O5  1  0.71114605  0.48303325  0.21728186  1
  O  O6  1  0.28885395  0.48303325  0.78271814  1
  O  O7  1  0.71114605  0.51696675  0.78271814  1
  O  O8  1  0.51696675  0.21728186  0.28885395  1
  O  O9  1  0.48303325  0.21728186  0.71114605  1
  O  O10  1  0.48303325  0.78271814  0.28885395  1
  O  O11  1  0.51696675  0.78271814  0.71114605  1
  O  O12  1  0.28271814  0.21114605  0.98303325  1
  O  O13  1  0.28271814  0.78885395  0.01696675  1
  O  O14  1  0.71728186  0.21114605  0.01696675  1
  O  O15  1  0.71728186  0.78885395  0.98303325  1
  O  O16  1  0.21114605  0.98303325  0.28271814  1
  O  O17  1  0.78885395  0.01696675  0.28271814  1
  O  O18  1  0.21114605  0.01696675  0.71728186  1
  O  O19  1  0.78885395  0.98303325  0.71728186  1
  O  O20  1  0.98303325  0.28271814  0.21114605  1
  O  O21  1  0.01696675  0.28271814  0.78885395  1
  O  O22  1  0.01696675  0.71728186  0.21114605  1
  O  O23  1  0.98303325  0.71728186  0.78885395  1
loop_
_geom_bond_atom_site_label_1
_geom_bond_atom_site_label_2
_geom_bond_distance
_geom_bond_site_symmetry_2
O0 Sb3 2.015289 1_555
O0 Sm0 2.296250 1_555
O0 Sr7 2.564054 1_555
O0 Sr0 2.985021 1_555
O0 Sr2 3.057520 1_555
O1 Sb2 2.015289 1_555
O1 Sm1 2.296250 1_555
O1 Sr7 2.564054 1_555
O1 Sr0 2.985021 1_555
O1 Sr2 3.057520 1_565
O2 Sb1 2.015289 1_555
O2 Sm2 2.296250 1_555
O2 Sr7 2.564054 1_655
O2 Sr0 2.985021 1_555
O2 Sr2 3.057520 1_655
O3 Sb0 2.015289 1_555
O3 Sm3 2.296250 1_555
O3 Sr7 2.564054 1_655
O3 Sr0 2.985021 1_555
O3 Sr2 3.057520 1_665
O4 Sb2 2.015289 1_555
O4 Sm0 2.296250 1_555
O4 Sr5 2.564054 1_555
O4 Sr0 2.985021 1_555
O4 Sr3 3.057520 1_555
O5 Sb1 2.015289 1_555
O5 Sm3 2.296250 1_555
O5 Sr5 2.564054 1_555
O5 Sr0 2.985021 1_555
O5 Sr3 3.057520 1_655
O6 Sb3 2.015289 1_555
O6 Sm1 2.296250 1_555
O6 Sr5 2.564054 1_556
O6 Sr0 2.985021 1_555
O6 Sr3 3.057520 1_556
O7 Sb0 2.015289 1_555
O7 Sm2 2.296250 1_555
O7 Sr5 2.564054 1_556
O7 Sr0 2.985021 1_555
O7 Sr3 3.057520 1_656
O8 Sb1 2.015289 1_555
O8 Sm0 2.296250 1_555
O8 Sr6 2.564054 1_555
O8 Sr0 2.985021 1_555
O8 Sr4 3.057520 1_555
O9 Sb3 2.015289 1_555
O9 Sm2 2.296250 1_555
O9 Sr6 2.564054 1_555
O9 Sr0 2.985021 1_555
O9 Sr4 3.057520 1_556
O10 Sb2 2.015289 1_555
O10 Sm3 2.296250 1_555
O10 Sr6 2.564054 1_565
O10 Sr0 2.985021 1_555
O10 Sr4 3.057520 1_565
O11 Sb0 2.015289 1_555
O11 Sm1 2.296250 1_555
O11 Sr6 2.564054 1_565
O11 Sr0 2.985021 1_555
O11 Sr4 3.057520 1_566
O12 Sb3 2.015289 1_555
O12 Sm0 2.296250 1_556
O12 Sr4 2.564054 1_556
O12 Sr1 2.985021 1_556
O12 Sr5 3.057520 1_556
O13 Sb2 2.015289 1_555
O13 Sm1 2.296250 1_554
O13 Sr4 2.564054 1_565
O13 Sr1 2.985021 1_565
O13 Sr5 3.057520 1_555
O14 Sb1 2.015289 1_555
O14 Sm2 2.296250 1_554
O14 Sr4 2.564054 1_555
O14 Sr1 2.985021 1_655
O14 Sr5 3.057520 1_555
O15 Sb0 2.015289 1_555
O15 Sm3 2.296250 1_556
O15 Sr4 2.564054 1_566
O15 Sr1 2.985021 1_666
O15 Sr5 3.057520 1_556
O16 Sb2 2.015289 1_555
O16 Sm0 2.296250 1_565
O16 Sr2 2.564054 1_565
O16 Sr1 2.985021 1_565
O16 Sr6 3.057520 1_565
O17 Sb1 2.015289 1_555
O17 Sm3 2.296250 1_545
O17 Sr2 2.564054 1_655
O17 Sr1 2.985021 1_655
O17 Sr6 3.057520 1_555
O18 Sb3 2.015289 1_555
O18 Sm1 2.296250 1_545
O18 Sr2 2.564054 1_555
O18 Sr1 2.985021 1_556
O18 Sr6 3.057520 1_555
O19 Sb0 2.015289 1_555
O19 Sm2 2.296250 1_565
O19 Sr2 2.564054 1_665
O19 Sr1 2.985021 1_666
O19 Sr6 3.057520 1_565
O20 Sb1 2.015289 1_555
O20 Sm0 2.296250 1_655
O20 Sr3 2.564054 1_655
O20 Sr1 2.985021 1_655
O20 Sr7 3.057520 1_655
O21 Sb3 2.015289 1_555
O21 Sm2 2.296250 1_455
O21 Sr3 2.564054 1_556
O21 Sr1 2.985021 1_556
O21 Sr7 3.057520 1_555
O22 Sb2 2.015289 1_555
O22 Sm3 2.296250 1_455
O22 Sr3 2.564054 1_555
O22 Sr1 2.985021 1_565
O22 Sr7 3.057520 1_555
O23 Sb0 2.015289 1_555
O23 Sm1 2.296250 1_655
O23 Sr3 2.564054 1_656
O23 Sr1 2.985021 1_666
O23 Sr7 3.057520 1_655
