# generated using pymatgen
data_YAlCu2
_symmetry_space_group_name_H-M   'P 1'
_cell_length_a   10.93891215
_cell_length_b   10.93891215
_cell_length_c   10.93891215
_cell_angle_alpha   122.71028250
_cell_angle_beta   119.61780450
_cell_angle_gamma   88.01697717
_symmetry_Int_Tables_number   1
_chemical_formula_structural   YAlCu2
_chemical_formula_sum   'Y1 Al1 Cu2'
_cell_volume   907.82616435
_cell_formula_units_Z   1
loop_
 _symmetry_equiv_pos_site_id
 _symmetry_equiv_pos_as_xyz
  1  'x, y, z'
loop_
 _atom_site_type_symbol
 _atom_site_label
 _atom_site_symmetry_multiplicity
 _atom_site_fract_x
 _atom_site_fract_y
 _atom_site_fract_z
 _atom_site_occupancy
  Y  Y0  1  0.00000000  0.50000000  0.50000000  1
  Al  Al0  1  0.00000000  0.00000000  0.00000000  1
  Cu  Cu0  1  0.00000000  0.23260000  0.23260000  1
  Cu  Cu1  1  0.00000000  0.76740000  0.76740000  1
loop_
_geom_bond_atom_site_label_1
_geom_bond_atom_site_label_2
_geom_bond_distance
_geom_bond_site_symmetry_2
Al0 Cu1 2.439456 1_544
Al0 Cu0 2.439456 1_555
Cu0 Y0 2.804430 1_555
Cu1 Y0 2.804430 1_555
