# generated using pymatgen
data_NbPt2
_symmetry_space_group_name_H-M   'P 1'
_cell_length_a   5.62189027
_cell_length_b   7.98743251
_cell_length_c   9.82940705
_cell_angle_alpha   113.97278257
_cell_angle_beta   106.61701717
_cell_angle_gamma   89.99999731
_symmetry_Int_Tables_number   1
_chemical_formula_structural   NbPt2
_chemical_formula_sum   'Nb8 Pt16'
_cell_volume   383.04876049
_cell_formula_units_Z   8
loop_
 _symmetry_equiv_pos_site_id
 _symmetry_equiv_pos_as_xyz
  1  'x, y, z'
loop_
 _atom_site_type_symbol
 _atom_site_label
 _atom_site_symmetry_multiplicity
 _atom_site_fract_x
 _atom_site_fract_y
 _atom_site_fract_z
 _atom_site_occupancy
  Nb  Nb0_0  1  0.00000000  0.00000000  0.00000000  1
  Nb  Nb0_1  1  0.00000000  0.00000000  0.50000000  1
  Nb  Nb0_2  1  0.00000000  0.50000000  0.00000000  1
  Nb  Nb0_3  1  0.00000000  0.50000000  0.50000000  1
  Nb  Nb0_4  1  0.50000000  0.00000000  0.00000000  1
  Nb  Nb0_5  1  0.50000000  0.00000000  0.50000000  1
  Nb  Nb0_6  1  0.50000000  0.50000000  0.00000000  1
  Nb  Nb0_7  1  0.50000000  0.50000000  0.50000000  1
  Pt  Pt0_0  1  0.16758864  0.16758865  0.33517680  1
  Pt  Pt0_1  1  0.16758865  0.16758864  0.83517680  1
  Pt  Pt0_2  1  0.16758864  0.66758864  0.33517680  1
  Pt  Pt0_3  1  0.16758865  0.66758864  0.83517679  1
  Pt  Pt0_4  1  0.66758864  0.16758864  0.33517680  1
  Pt  Pt0_5  1  0.66758865  0.16758865  0.83517680  1
  Pt  Pt0_6  1  0.66758865  0.66758865  0.33517679  1
  Pt  Pt0_7  1  0.66758865  0.66758864  0.83517679  1
  Pt  Pt1_0  1  0.33241136  0.33241135  0.16482320  1
  Pt  Pt1_1  1  0.33241136  0.33241135  0.66482320  1
  Pt  Pt1_2  1  0.33241136  0.83241135  0.16482320  1
  Pt  Pt1_3  1  0.33241136  0.83241135  0.66482321  1
  Pt  Pt1_4  1  0.83241136  0.33241135  0.16482320  1
  Pt  Pt1_5  1  0.83241135  0.33241135  0.66482320  1
  Pt  Pt1_6  1  0.83241136  0.83241135  0.16482320  1
  Pt  Pt1_7  1  0.83241135  0.83241135  0.66482320  1
loop_
_geom_bond_atom_site_label_1
_geom_bond_atom_site_label_2
_geom_bond_distance
_geom_bond_site_symmetry_2
Nb0_0 Nb0_4 2.810945 1_555
Nb0_0 Nb0_4 2.810945 1_455
Nb0_0 Pt1_0 2.817729 1_555
Nb0_0 Pt0_7 2.817729 1_444
Nb0_0 Pt1_4 2.817731 1_455
Nb0_0 Pt0_3 2.817731 1_544
Nb0_0 Pt0_5 2.817732 1_454
Nb0_0 Pt1_2 2.817732 1_545
Nb0_0 Pt0_1 2.817733 1_554
Nb0_0 Pt1_6 2.817733 1_445
Nb0_0 Pt0_0 2.859160 1_555
Nb0_0 Pt1_7 2.859160 1_444
Nb0_1 Nb0_5 2.810945 1_455
Nb0_1 Nb0_5 2.810945 1_555
Nb0_1 Pt0_6 2.817729 1_445
Nb0_1 Pt1_1 2.817729 1_555
Nb0_1 Pt1_5 2.817731 1_455
Nb0_1 Pt0_2 2.817731 1_545
Nb0_1 Pt0_4 2.817732 1_455
Nb0_1 Pt1_3 2.817732 1_545
Nb0_1 Pt0_0 2.817733 1_555
Nb0_1 Pt1_7 2.817733 1_445
Nb0_1 Pt1_6 2.859160 1_445
Nb0_1 Pt0_1 2.859160 1_555
Nb0_2 Nb0_6 2.810945 1_455
Nb0_2 Nb0_6 2.810945 1_555
Nb0_2 Pt1_2 2.817729 1_555
Nb0_2 Pt0_5 2.817729 1_454
Nb0_2 Pt1_6 2.817731 1_455
Nb0_2 Pt0_1 2.817731 1_554
Nb0_2 Pt0_7 2.817732 1_454
Nb0_2 Pt1_0 2.817732 1_555
Nb0_2 Pt1_4 2.817733 1_455
Nb0_2 Pt0_3 2.817733 1_554
Nb0_2 Pt0_2 2.859160 1_555
Nb0_2 Pt1_5 2.859160 1_454
Nb0_3 Nb0_7 2.810945 1_555
Nb0_3 Nb0_7 2.810945 1_455
Nb0_3 Pt0_4 2.817729 1_455
Nb0_3 Pt1_3 2.817729 1_555
Nb0_3 Pt1_7 2.817731 1_455
Nb0_3 Pt0_0 2.817731 1_555
Nb0_3 Pt1_1 2.817732 1_555
Nb0_3 Pt0_6 2.817732 1_455
Nb0_3 Pt1_5 2.817733 1_455
Nb0_3 Pt0_2 2.817733 1_555
Nb0_3 Pt0_3 2.859160 1_555
Nb0_3 Pt1_4 2.859160 1_455
Nb0_4 Pt1_4 2.817729 1_555
Nb0_4 Pt0_3 2.817729 1_544
Nb0_4 Pt1_0 2.817731 1_555
Nb0_4 Pt0_7 2.817731 1_544
Nb0_4 Pt0_1 2.817732 1_554
Nb0_4 Pt1_6 2.817732 1_545
Nb0_4 Pt0_5 2.817733 1_554
Nb0_4 Pt1_2 2.817733 1_545
Nb0_4 Pt1_3 2.859160 1_544
Nb0_4 Pt0_4 2.859160 1_555
Nb0_5 Pt1_5 2.817729 1_555
Nb0_5 Pt0_2 2.817729 1_545
Nb0_5 Pt0_6 2.817731 1_545
Nb0_5 Pt1_1 2.817731 1_555
Nb0_5 Pt1_7 2.817732 1_545
Nb0_5 Pt0_0 2.817732 1_555
Nb0_5 Pt0_4 2.817733 1_555
Nb0_5 Pt1_3 2.817733 1_545
Nb0_5 Pt0_5 2.859160 1_555
Nb0_5 Pt1_2 2.859160 1_545
Nb0_6 Pt0_1 2.817729 1_554
Nb0_6 Pt1_6 2.817729 1_555
Nb0_6 Pt1_2 2.817731 1_555
Nb0_6 Pt0_5 2.817731 1_554
Nb0_6 Pt0_3 2.817732 1_554
Nb0_6 Pt1_4 2.817732 1_555
Nb0_6 Pt1_0 2.817733 1_555
Nb0_6 Pt0_7 2.817733 1_554
Nb0_6 Pt0_6 2.859160 1_555
Nb0_6 Pt1_1 2.859160 1_554
Nb0_7 Pt0_0 2.817729 1_555
Nb0_7 Pt1_7 2.817729 1_555
Nb0_7 Pt0_4 2.817731 1_555
Nb0_7 Pt1_3 2.817731 1_555
Nb0_7 Pt0_2 2.817732 1_555
Nb0_7 Pt1_5 2.817732 1_555
Nb0_7 Pt1_1 2.817733 1_555
Nb0_7 Pt0_6 2.817733 1_555
Nb0_7 Pt1_0 2.859160 1_555
Nb0_7 Pt0_7 2.859160 1_555
Pt0_0 Pt0_4 2.810945 1_555
Pt0_0 Pt0_4 2.810945 1_455
Pt0_0 Pt1_1 2.811984 1_555
Pt0_0 Pt1_0 2.841561 1_555
Pt0_0 Pt1_4 2.841563 1_455
Pt0_0 Pt1_2 2.841567 1_545
Pt0_0 Pt1_6 2.841570 1_445
Pt0_1 Pt0_5 2.810945 1_455
Pt0_1 Pt0_5 2.810945 1_555
Pt0_1 Pt1_0 2.811984 1_556
Pt0_1 Pt1_1 2.841561 1_555
Pt0_1 Pt1_5 2.841563 1_455
Pt0_1 Pt1_3 2.841567 1_545
Pt0_1 Pt1_7 2.841570 1_445
Pt0_2 Pt0_6 2.810945 1_455
Pt0_2 Pt0_6 2.810945 1_555
Pt0_2 Pt1_3 2.811984 1_555
Pt0_2 Pt1_2 2.841561 1_555
Pt0_2 Pt1_6 2.841563 1_455
Pt0_2 Pt1_0 2.841567 1_555
Pt0_2 Pt1_4 2.841570 1_455
Pt0_3 Pt0_7 2.810945 1_455
Pt0_3 Pt0_7 2.810945 1_555
Pt0_3 Pt1_2 2.811984 1_556
Pt0_3 Pt1_3 2.841561 1_555
Pt0_3 Pt1_7 2.841563 1_455
Pt0_3 Pt1_1 2.841567 1_555
Pt0_3 Pt1_5 2.841570 1_455
Pt0_4 Pt1_5 2.811984 1_555
Pt0_4 Pt1_4 2.841561 1_555
Pt0_4 Pt1_0 2.841563 1_555
Pt0_4 Pt1_6 2.841567 1_545
Pt0_4 Pt1_2 2.841570 1_545
Pt0_5 Pt1_4 2.811984 1_556
Pt0_5 Pt1_5 2.841561 1_555
Pt0_5 Pt1_1 2.841563 1_555
Pt0_5 Pt1_7 2.841567 1_545
Pt0_5 Pt1_3 2.841570 1_545
Pt0_6 Pt1_7 2.811984 1_555
Pt0_6 Pt1_6 2.841561 1_555
Pt0_6 Pt1_2 2.841563 1_555
Pt0_6 Pt1_4 2.841567 1_555
Pt0_6 Pt1_0 2.841570 1_555
Pt0_7 Pt1_6 2.811984 1_556
Pt0_7 Pt1_7 2.841561 1_555
Pt0_7 Pt1_3 2.841563 1_555
Pt0_7 Pt1_5 2.841567 1_555
Pt0_7 Pt1_1 2.841570 1_555
Pt1_0 Pt1_4 2.810945 1_455
Pt1_0 Pt1_4 2.810945 1_555
Pt1_1 Pt1_5 2.810945 1_555
Pt1_1 Pt1_5 2.810945 1_455
Pt1_2 Pt1_6 2.810945 1_455
Pt1_2 Pt1_6 2.810945 1_555
Pt1_3 Pt1_7 2.810945 1_455
Pt1_3 Pt1_7 2.810945 1_555
