# generated using pymatgen
data_K2CoC4S4N4O3
_symmetry_space_group_name_H-M   'P 1'
_cell_length_a   12.52613226
_cell_length_b   6.65753102
_cell_length_c   11.61793658
_cell_angle_alpha   89.98921576
_cell_angle_beta   90.11840293
_cell_angle_gamma   89.99911108
_symmetry_Int_Tables_number   1
_chemical_formula_structural   K2CoC4S4N4O3
_chemical_formula_sum   'K4 Co2 C8 S8 N8 O6'
_cell_volume   968.85382464
_cell_formula_units_Z   2
loop_
 _symmetry_equiv_pos_site_id
 _symmetry_equiv_pos_as_xyz
  1  'x, y, z'
loop_
 _atom_site_type_symbol
 _atom_site_label
 _atom_site_symmetry_multiplicity
 _atom_site_fract_x
 _atom_site_fract_y
 _atom_site_fract_z
 _atom_site_occupancy
  K  K0  1  0.20204400  0.33828200  0.64445200  1
  K  K1  1  0.79793100  0.33827400  0.35558200  1
  K  K2  1  0.70130100  0.66236900  0.85524700  1
  K  K3  1  0.29869400  0.66229400  0.14469500  1
  Co  Co0  1  0.50000200  0.03534400  0.49998700  1
  Co  Co1  1  0.00000100  0.96451900  0.00001700  1
  C  C0  1  0.37086900  0.95062900  0.67669800  1
  C  C1  1  0.62912700  0.95061200  0.32327800  1
  C  C2  1  0.87082300  0.04895000  0.82302100  1
  C  C3  1  0.12916700  0.04896600  0.17700500  1
  C  C4  1  0.19248900  0.52706500  0.90089900  1
  C  C5  1  0.80752100  0.52704200  0.09910900  1
  C  C6  1  0.69247400  0.47314000  0.59923300  1
  C  C7  1  0.30751800  0.47318400  0.40075900  1
  S  S0  1  0.37836200  0.80393100  0.78458600  1
  S  S1  1  0.62161200  0.80394900  0.21541200  1
  S  S2  1  0.87859200  0.19549500  0.71512600  1
  S  S3  1  0.12138500  0.19550100  0.28487300  1
  S  S4  1  0.28289300  0.35340400  0.91460800  1
  S  S5  1  0.71709500  0.35343100  0.08540400  1
  S  S6  1  0.78283300  0.64683700  0.58555900  1
  S  S7  1  0.21712900  0.64683700  0.41443000  1
  N  N0  1  0.36464400  0.05813900  0.59301600  1
  N  N1  1  0.63536300  0.05810100  0.40694900  1
  N  N2  1  0.86443400  0.94161600  0.90671500  1
  N  N3  1  0.13556800  0.94163300  0.09333900  1
  N  N4  1  0.13393200  0.66449600  0.88717200  1
  N  N5  1  0.86608800  0.66443400  0.11285100  1
  N  N6  1  0.63409200  0.33567400  0.61305300  1
  N  N7  1  0.36589900  0.33574400  0.38692400  1
  O  O0  1  0.05666100  0.78639100  0.87385500  1
  O  O1  1  0.94338500  0.78627800  0.12615000  1
  O  O2  1  0.55682400  0.21371500  0.62621100  1
  O  O3  1  0.44321600  0.21386000  0.37380600  1
  O  O4  1  0.50001100  0.78889900  0.50003100  1
  O  O5  1  0.00002100  0.21096600  0.99994800  1
loop_
_geom_bond_atom_site_label_1
_geom_bond_atom_site_label_2
_geom_bond_distance
_geom_bond_site_symmetry_2
K0 N0 2.826523 1_555
K0 S4 3.297558 1_555
K0 S7 3.375967 1_555
K1 N1 2.826089 1_555
K1 S5 3.297722 1_555
K1 S6 3.376204 1_555
K2 N2 2.825749 1_555
K2 S6 3.299107 1_555
K2 S5 3.378632 1_556
K3 N3 2.825626 1_555
K3 S7 3.299703 1_555
K3 S4 3.378416 1_554
Co0 O4 1.640715 1_545
Co0 O3 2.015562 1_555
Co0 O2 2.015853 1_555
Co0 N0 2.018306 1_555
Co0 N1 2.018348 1_555
Co1 O5 1.640729 1_564
Co1 O1 2.015475 1_455
Co1 O0 2.015784 1_554
Co1 N2 2.018505 1_454
Co1 N3 2.018586 1_555
C0 N0 1.209545 1_565
C0 S0 1.591477 1_555
C1 N1 1.209586 1_565
C1 S1 1.591440 1_555
C2 N2 1.209363 1_545
C2 S2 1.591437 1_555
C3 N3 1.209322 1_545
C3 S3 1.591447 1_555
C4 N4 1.183225 1_555
C4 S4 1.625903 1_555
C5 N5 1.183189 1_555
C5 S5 1.625921 1_555
C6 N6 1.182621 1_555
C6 S6 1.626124 1_555
C7 N7 1.182533 1_555
C7 S7 1.626191 1_555
N4 O0 1.272263 1_555
N5 O1 1.272326 1_555
N6 O2 1.272786 1_555
N7 O3 1.272896 1_555
