# generated using pymatgen
data_CaGaSn
_symmetry_space_group_name_H-M   'P 1'
_cell_length_a   4.47159519
_cell_length_b   4.47159519
_cell_length_c   17.80338059
_cell_angle_alpha   90.00000000
_cell_angle_beta   90.00000000
_cell_angle_gamma   119.99999334
_symmetry_Int_Tables_number   1
_chemical_formula_structural   CaGaSn
_chemical_formula_sum   'Ca4 Ga4 Sn4'
_cell_volume   308.28904860
_cell_formula_units_Z   4
loop_
 _symmetry_equiv_pos_site_id
 _symmetry_equiv_pos_as_xyz
  1  'x, y, z'
loop_
 _atom_site_type_symbol
 _atom_site_label
 _atom_site_symmetry_multiplicity
 _atom_site_fract_x
 _atom_site_fract_y
 _atom_site_fract_z
 _atom_site_occupancy
  Ca  Ca0  1  -0.00000000  0.00000000  0.50000000  1
  Ca  Ca1  1  -0.00000000  0.00000000  -0.00000000  1
  Ca  Ca2  1  -0.00000000  0.00000000  0.25000000  1
  Ca  Ca3  1  -0.00000000  -0.00000000  0.75000000  1
  Ga  Ga0  1  0.33333300  0.66666700  0.33337815  1
  Ga  Ga1  1  0.66666700  0.33333300  0.66662185  1
  Ga  Ga2  1  0.66666700  0.33333300  0.83337815  1
  Ga  Ga3  1  0.33333300  0.66666700  0.16662185  1
  Sn  Sn0  1  0.33333300  0.66666700  0.88528163  1
  Sn  Sn1  1  0.66666700  0.33333300  0.11471837  1
  Sn  Sn2  1  0.66666700  0.33333300  0.38528163  1
  Sn  Sn3  1  0.33333300  0.66666700  0.61471837  1
loop_
_geom_bond_atom_site_label_1
_geom_bond_atom_site_label_2
_geom_bond_distance
_geom_bond_site_symmetry_2
Ca0 Sn3 3.291859 1_545
Ca0 Sn2 3.291859 1_455
Ca0 Sn3 3.291862 1_445
Ca0 Sn3 3.291862 1_555
Ca0 Sn2 3.291862 1_445
Ca0 Sn2 3.291862 1_555
Ca1 Sn0 3.291859 1_544
Ca1 Sn1 3.291859 1_455
Ca1 Sn1 3.291862 1_445
Ca1 Sn1 3.291862 1_555
Ca1 Sn0 3.291862 1_554
Ca1 Sn0 3.291862 1_444
Ca2 Ga0 2.978006 1_545
Ca2 Ga3 2.978006 1_545
Ca2 Ga0 2.978010 1_555
Ca2 Ga3 2.978010 1_555
Ca2 Ga3 2.978010 1_445
Ca2 Ga0 2.978010 1_445
Ca3 Ga2 2.978006 1_455
Ca3 Ga1 2.978006 1_455
Ca3 Ga1 2.978010 1_555
Ca3 Ga1 2.978010 1_445
Ca3 Ga2 2.978010 1_555
Ca3 Ga2 2.978010 1_445
Ga0 Sn2 2.742066 1_455
Ga0 Sn2 2.742066 1_565
Ga0 Sn2 2.742073 1_555
Ga0 Ga3 2.968826 1_555
Ga1 Sn3 2.742066 1_545
Ga1 Sn3 2.742066 1_655
Ga1 Sn3 2.742073 1_555
Ga1 Ga2 2.968826 1_555
Ga2 Sn0 2.742066 1_545
Ga2 Sn0 2.742066 1_655
Ga2 Sn0 2.742073 1_555
Ga3 Sn1 2.742066 1_455
Ga3 Sn1 2.742066 1_565
Ga3 Sn1 2.742073 1_555
