# generated using pymatgen
data_Ce2In8Rh
_symmetry_space_group_name_H-M   'P 1'
_cell_length_a   4.70506691
_cell_length_b   4.70506796
_cell_length_c   12.22475593
_cell_angle_alpha   90.00000000
_cell_angle_beta   90.00000000
_cell_angle_gamma   90.00000000
_symmetry_Int_Tables_number   1
_chemical_formula_structural   Ce2In8Rh
_chemical_formula_sum   'Ce2 In8 Rh1'
_cell_volume   270.62748508
_cell_formula_units_Z   1
loop_
 _symmetry_equiv_pos_site_id
 _symmetry_equiv_pos_as_xyz
  1  'x, y, z'
loop_
 _atom_site_type_symbol
 _atom_site_label
 _atom_site_symmetry_multiplicity
 _atom_site_fract_x
 _atom_site_fract_y
 _atom_site_fract_z
 _atom_site_occupancy
  Ce  Ce0  1  0.00000000  -0.00000000  0.30752201  1
  Ce  Ce1  1  -0.00000000  0.00000000  0.69247799  1
  In  In0  1  0.00000000  0.50000000  0.12028951  1
  In  In1  1  -0.00000000  0.50000000  0.87971049  1
  In  In2  1  0.50000000  0.00000000  0.12028951  1
  In  In3  1  0.50000000  -0.00000000  0.87971049  1
  In  In4  1  0.50000000  0.50000000  0.30693816  1
  In  In5  1  0.50000000  0.50000000  0.69306184  1
  In  In6  1  0.00000000  0.50000000  0.50000000  1
  In  In7  1  0.50000000  -0.00000000  0.50000000  1
  Rh  Rh0  1  0.00000000  -0.00000000  0.00000000  1
loop_
_geom_bond_atom_site_label_1
_geom_bond_atom_site_label_2
_geom_bond_distance
_geom_bond_site_symmetry_2
Ce0 In2 3.282278 1_455
Ce0 In2 3.282278 1_555
Ce0 In0 3.282278 1_555
Ce0 In0 3.282278 1_545
Ce0 In4 3.326993 1_455
Ce0 In4 3.326993 1_445
Ce0 In4 3.326993 1_545
Ce0 In4 3.326993 1_555
Ce0 In7 3.327312 1_455
Ce0 In7 3.327312 1_555
Ce0 In6 3.327312 1_545
Ce0 In6 3.327312 1_555
Ce1 In3 3.282278 1_455
Ce1 In3 3.282278 1_555
Ce1 In1 3.282278 1_555
Ce1 In1 3.282278 1_545
Ce1 In5 3.326993 1_445
Ce1 In5 3.326993 1_555
Ce1 In5 3.326993 1_455
Ce1 In5 3.326993 1_545
Ce1 In7 3.327312 1_455
Ce1 In7 3.327312 1_555
Ce1 In6 3.327312 1_545
Ce1 In6 3.327312 1_555
In0 Rh0 2.774314 1_555
In0 Rh0 2.774314 1_565
In0 In4 3.277304 1_455
In0 In4 3.277304 1_555
In1 Rh0 2.774314 1_556
In1 Rh0 2.774314 1_566
In1 In5 3.277304 1_455
In1 In5 3.277304 1_555
In2 Rh0 2.774313 1_655
In2 Rh0 2.774313 1_555
In2 In4 3.277305 1_545
In2 In4 3.277305 1_555
In3 Rh0 2.774313 1_656
In3 Rh0 2.774313 1_556
In3 In5 3.277305 1_555
In3 In5 3.277305 1_545
In4 In6 3.332363 1_655
In4 In6 3.332363 1_555
In4 In7 3.332364 1_565
In4 In7 3.332364 1_555
In5 In6 3.332363 1_555
In5 In6 3.332363 1_655
In5 In7 3.332364 1_555
In5 In7 3.332364 1_565
In6 In7 3.326985 1_455
In6 In7 3.326985 1_555
In6 In7 3.326985 1_565
In6 In7 3.326985 1_465
