# generated using pymatgen
data_Hf3(Cu2Si)2
_symmetry_space_group_name_H-M   'P 1'
_cell_length_a   6.25424808
_cell_length_b   6.25424702
_cell_length_c   3.95601738
_cell_angle_alpha   90.00000000
_cell_angle_beta   90.00000000
_cell_angle_gamma   120.00000563
_symmetry_Int_Tables_number   1
_chemical_formula_structural   Hf3(Cu2Si)2
_chemical_formula_sum   'Hf3 Cu4 Si2'
_cell_volume   134.01053219
_cell_formula_units_Z   1
loop_
 _symmetry_equiv_pos_site_id
 _symmetry_equiv_pos_as_xyz
  1  'x, y, z'
loop_
 _atom_site_type_symbol
 _atom_site_label
 _atom_site_symmetry_multiplicity
 _atom_site_fract_x
 _atom_site_fract_y
 _atom_site_fract_z
 _atom_site_occupancy
  Hf  Hf0  1  0.00000000  0.58721154  0.50000000  1
  Hf  Hf1  1  0.41278846  0.41278846  0.50000000  1
  Hf  Hf2  1  0.58721154  0.00000000  0.50000000  1
  Cu  Cu0  1  0.24686076  0.00000000  -0.00000000  1
  Cu  Cu1  1  0.00000000  0.24686076  0.00000000  1
  Cu  Cu2  1  0.00000000  0.00000000  0.50000000  1
  Cu  Cu3  1  0.75313924  0.75313924  -0.00000000  1
  Si  Si0  1  0.66666700  0.33333300  0.00000000  1
  Si  Si1  1  0.33333300  0.66666700  -0.00000000  1
loop_
_geom_bond_atom_site_label_1
_geom_bond_atom_site_label_2
_geom_bond_distance
_geom_bond_site_symmetry_2
Hf0 Si1 2.733066 1_556
Hf0 Si1 2.733066 1_555
Hf0 Si0 2.733067 1_455
Hf0 Si0 2.733067 1_456
Hf1 Si1 2.733070 1_555
Hf1 Si1 2.733070 1_556
Hf1 Si0 2.733070 1_555
Hf1 Si0 2.733070 1_556
Hf2 Si0 2.733066 1_555
Hf2 Si0 2.733066 1_556
Hf2 Si1 2.733067 1_545
Hf2 Si1 2.733067 1_546
Cu0 Si1 2.401276 1_545
Cu0 Si0 2.401280 1_555
Cu0 Cu2 2.509230 1_554
Cu0 Cu2 2.509230 1_555
Cu0 Cu1 2.674162 1_555
Cu0 Cu3 2.674162 1_445
Cu0 Hf2 2.905791 1_555
Cu0 Hf2 2.905791 1_554
Cu0 Hf1 2.995894 1_555
Cu0 Hf0 2.995894 1_544
Cu0 Hf1 2.995894 1_554
Cu0 Hf0 2.995894 1_545
Cu1 Si0 2.401276 1_455
Cu1 Si1 2.401280 1_555
Cu1 Cu2 2.509229 1_555
Cu1 Cu2 2.509229 1_554
Cu1 Cu3 2.674162 1_445
Cu1 Hf0 2.905790 1_555
Cu1 Hf0 2.905790 1_554
Cu1 Hf2 2.995894 1_454
Cu1 Hf2 2.995894 1_455
Cu1 Hf1 2.995894 1_555
Cu1 Hf1 2.995894 1_554
Cu2 Cu3 2.509229 1_445
Cu2 Cu3 2.509229 1_446
Cu2 Hf0 2.581681 1_545
Cu2 Hf1 2.581681 1_555
Cu2 Hf2 2.581681 1_455
Cu3 Si0 2.401282 1_555
Cu3 Si1 2.401282 1_555
Cu3 Hf1 2.905790 1_554
Cu3 Hf1 2.905790 1_555
Cu3 Hf2 2.995894 1_564
Cu3 Hf2 2.995894 1_565
Cu3 Hf0 2.995894 1_654
Cu3 Hf0 2.995894 1_655
