# generated using pymatgen
data_Ba2ZnSe3
_symmetry_space_group_name_H-M   'P 1'
_cell_length_a   4.44401323
_cell_length_b   9.22608162
_cell_length_c   17.81171133
_cell_angle_alpha   90.00000000
_cell_angle_beta   90.00000000
_cell_angle_gamma   90.00000000
_symmetry_Int_Tables_number   1
_chemical_formula_structural   Ba2ZnSe3
_chemical_formula_sum   'Ba8 Zn4 Se12'
_cell_volume   730.29492653
_cell_formula_units_Z   4
loop_
 _symmetry_equiv_pos_site_id
 _symmetry_equiv_pos_as_xyz
  1  'x, y, z'
loop_
 _atom_site_type_symbol
 _atom_site_label
 _atom_site_symmetry_multiplicity
 _atom_site_fract_x
 _atom_site_fract_y
 _atom_site_fract_z
 _atom_site_occupancy
  Ba  Ba0  1  0.25000000  0.24865286  0.54370715  1
  Ba  Ba1  1  0.25000000  0.74865286  0.95629285  1
  Ba  Ba2  1  0.75000000  0.75134714  0.45629285  1
  Ba  Ba3  1  0.75000000  0.25134714  0.04370715  1
  Ba  Ba4  1  0.25000000  0.41735222  0.28734748  1
  Ba  Ba5  1  0.25000000  0.91735222  0.21265252  1
  Ba  Ba6  1  0.75000000  0.58264778  0.71265252  1
  Ba  Ba7  1  0.75000000  0.08264778  0.78734748  1
  Zn  Zn0  1  0.25000000  0.36329440  0.86396956  1
  Zn  Zn1  1  0.25000000  0.86329440  0.63603044  1
  Zn  Zn2  1  0.75000000  0.63670560  0.13603044  1
  Zn  Zn3  1  0.75000000  0.13670560  0.36396956  1
  Se  Se0  1  0.25000000  0.00735272  0.39790106  1
  Se  Se1  1  0.25000000  0.50735272  0.10209894  1
  Se  Se2  1  0.75000000  0.99264728  0.60209894  1
  Se  Se3  1  0.75000000  0.49264728  0.89790106  1
  Se  Se4  1  0.25000000  0.12812123  0.92885643  1
  Se  Se5  1  0.25000000  0.62812123  0.57114357  1
  Se  Se6  1  0.75000000  0.87187877  0.07114357  1
  Se  Se7  1  0.75000000  0.37187877  0.42885643  1
  Se  Se8  1  0.25000000  0.31949753  0.72722227  1
  Se  Se9  1  0.25000000  0.81949753  0.77277773  1
  Se  Se10  1  0.75000000  0.68050247  0.27277773  1
  Se  Se11  1  0.75000000  0.18050247  0.22722227  1
loop_
_geom_bond_atom_site_label_1
_geom_bond_atom_site_label_2
_geom_bond_distance
_geom_bond_site_symmetry_2
Ba0 Se7 3.227178 1_455
Ba0 Se7 3.227178 1_555
Ba0 Se8 3.333427 1_555
Ba0 Se2 3.405545 1_545
Ba0 Se2 3.405545 1_445
Ba0 Se0 3.420659 1_555
Ba0 Se5 3.534949 1_555
Ba1 Se6 3.227178 1_456
Ba1 Se6 3.227178 1_556
Ba1 Se9 3.333427 1_555
Ba1 Se3 3.405545 1_555
Ba1 Se3 3.405545 1_455
Ba1 Se1 3.420659 1_556
Ba1 Se4 3.534949 1_565
Ba2 Se5 3.227178 1_655
Ba2 Se5 3.227178 1_555
Ba2 Se10 3.333427 1_555
Ba2 Se0 3.405545 1_665
Ba2 Se0 3.405545 1_565
Ba2 Se2 3.420659 1_555
Ba2 Se7 3.534949 1_555
Ba3 Se4 3.227178 1_554
Ba3 Se4 3.227178 1_654
Ba3 Se11 3.333427 1_555
Ba3 Se1 3.405545 1_655
Ba3 Se1 3.405545 1_555
Ba3 Se3 3.420659 1_554
Ba3 Se6 3.534949 1_545
Ba4 Se11 3.295343 1_455
Ba4 Se11 3.295343 1_555
Ba4 Se10 3.301378 1_455
Ba4 Se10 3.301378 1_555
Ba4 Se7 3.386197 1_555
Ba4 Se7 3.386197 1_455
Ba4 Se1 3.402470 1_555
Ba5 Se10 3.295343 1_455
Ba5 Se10 3.295343 1_555
Ba5 Se11 3.301378 1_565
Ba5 Se11 3.301378 1_465
Ba5 Se6 3.386197 1_455
Ba5 Se6 3.386197 1_555
Ba5 Se0 3.402470 1_565
Ba6 Se9 3.295343 1_555
Ba6 Se9 3.295343 1_655
Ba6 Se8 3.301378 1_655
Ba6 Se8 3.301378 1_555
Ba6 Se5 3.386197 1_555
Ba6 Se5 3.386197 1_655
Ba6 Se3 3.402470 1_555
Ba7 Se8 3.295343 1_655
Ba7 Se8 3.295343 1_555
Ba7 Se9 3.301378 1_545
Ba7 Se9 3.301378 1_645
Ba7 Se4 3.386197 1_655
Ba7 Se4 3.386197 1_555
Ba7 Se2 3.402470 1_545
Se0 Zn3 2.593615 1_455
Se0 Zn3 2.593615 1_555
Se1 Zn2 2.593615 1_555
Se1 Zn2 2.593615 1_455
Se2 Zn1 2.593615 1_555
Se2 Zn1 2.593615 1_655
Se3 Zn0 2.593615 1_655
Se3 Zn0 2.593615 1_555
Se4 Zn0 2.458346 1_555
Se5 Zn1 2.458346 1_555
Se6 Zn2 2.458346 1_555
Se7 Zn3 2.458346 1_555
Se8 Zn0 2.468993 1_555
Se9 Zn1 2.468993 1_555
Se10 Zn2 2.468993 1_555
Se11 Zn3 2.468993 1_555
