# generated using pymatgen
data_K3LuF6
_symmetry_space_group_name_H-M   'P 1'
_cell_length_a   6.48791858
_cell_length_b   6.20268898
_cell_length_c   10.72366488
_cell_angle_alpha   55.62158561
_cell_angle_beta   90.00000000
_cell_angle_gamma   90.00000000
_symmetry_Int_Tables_number   1
_chemical_formula_structural   K3LuF6
_chemical_formula_sum   'K6 Lu2 F12'
_cell_volume   356.16751508
_cell_formula_units_Z   2
loop_
 _symmetry_equiv_pos_site_id
 _symmetry_equiv_pos_as_xyz
  1  'x, y, z'
loop_
 _atom_site_type_symbol
 _atom_site_label
 _atom_site_symmetry_multiplicity
 _atom_site_fract_x
 _atom_site_fract_y
 _atom_site_fract_z
 _atom_site_occupancy
  K  K0  1  0.50000000  0.50000000  -0.00000000  1
  K  K1  1  0.00000000  0.50000000  0.50000000  1
  K  K2  1  0.05710322  0.72812078  0.75390146  1
  K  K3  1  0.94289678  0.27187922  0.24609854  1
  K  K4  1  0.55710322  0.27187922  0.74609854  1
  K  K5  1  0.44289678  0.72812078  0.25390146  1
  Lu  Lu0  1  0.50000000  0.00000000  0.50000000  1
  Lu  Lu1  1  0.00000000  0.00000000  -0.00000000  1
  F  F0  1  0.76799764  0.76625379  0.56882885  1
  F  F1  1  0.23200236  0.23374621  0.43117115  1
  F  F2  1  0.26799764  0.23374621  0.93117115  1
  F  F3  1  0.73200236  0.76625379  0.06882885  1
  F  F4  1  0.44553123  0.89050106  0.72197905  1
  F  F5  1  0.55446877  0.10949894  0.27802095  1
  F  F6  1  0.94553123  0.10949894  0.77802095  1
  F  F7  1  0.05446877  0.89050106  0.22197905  1
  F  F8  1  0.32684947  0.67438537  0.54894315  1
  F  F9  1  0.67315053  0.32561463  0.45105685  1
  F  F10  1  0.82684947  0.32561463  0.95105685  1
  F  F11  1  0.17315053  0.67438537  0.04894315  1
loop_
_geom_bond_atom_site_label_1
_geom_bond_atom_site_label_2
_geom_bond_distance
_geom_bond_site_symmetry_2
F0 Lu0 2.112248 1_565
F0 K1 2.629535 1_655
F0 K2 2.642519 1_655
F0 K4 2.882004 1_555
F1 Lu0 2.112248 1_555
F1 K1 2.629535 1_555
F1 K3 2.642519 1_455
F1 K5 2.882004 1_555
F2 Lu1 2.112248 1_556
F2 K0 2.629535 1_556
F2 K4 2.642519 1_555
F2 K2 2.882004 1_555
F3 Lu1 2.112248 1_665
F3 K0 2.629535 1_555
F3 K5 2.642519 1_555
F3 K3 2.882004 1_555
F4 Lu0 2.103995 1_565
F4 K0 2.593308 1_556
F4 K4 2.622553 1_565
F4 K2 2.663288 1_555
F5 Lu0 2.103995 1_555
F5 K0 2.593308 1_555
F5 K5 2.622553 1_545
F5 K3 2.663288 1_555
F6 Lu1 2.103995 1_656
F6 K1 2.593308 1_655
F6 K2 2.622553 1_645
F6 K4 2.663288 1_555
F7 Lu1 2.103995 1_565
F7 K1 2.593308 1_555
F7 K3 2.622553 1_465
F7 K5 2.663288 1_555
F8 Lu0 2.102258 1_565
F8 K1 2.565814 1_555
F8 K4 2.640781 1_555
F8 K2 2.971867 1_555
F8 K5 3.081799 1_555
F9 Lu0 2.102258 1_555
F9 K1 2.565814 1_655
F9 K5 2.640781 1_555
F9 K3 2.971867 1_555
F9 K4 3.081799 1_555
F10 Lu1 2.102258 1_656
F10 K0 2.565814 1_556
F10 K2 2.640781 1_655
F10 K4 2.971867 1_555
F10 K3 3.081799 1_556
F11 Lu1 2.102258 1_565
F11 K0 2.565814 1_555
F11 K3 2.640781 1_455
F11 K5 2.971867 1_555
F11 K2 3.081799 1_554
