# generated using pymatgen
data_Al2CdBr8
_symmetry_space_group_name_H-M   'P 1'
_cell_length_a   7.10775147
_cell_length_b   7.49616844
_cell_length_c   13.71379040
_cell_angle_alpha   87.86123155
_cell_angle_beta   90.00000000
_cell_angle_gamma   90.00000000
_symmetry_Int_Tables_number   1
_chemical_formula_structural   Al2CdBr8
_chemical_formula_sum   'Al4 Cd2 Br16'
_cell_volume   730.17411003
_cell_formula_units_Z   2
loop_
 _symmetry_equiv_pos_site_id
 _symmetry_equiv_pos_as_xyz
  1  'x, y, z'
loop_
 _atom_site_type_symbol
 _atom_site_label
 _atom_site_symmetry_multiplicity
 _atom_site_fract_x
 _atom_site_fract_y
 _atom_site_fract_z
 _atom_site_occupancy
  Al  Al0  1  0.93300637  0.22401542  0.57908774  1
  Al  Al1  1  0.06699363  0.22401542  0.07908774  1
  Al  Al2  1  0.57664363  0.63834033  0.77652883  1
  Al  Al3  1  0.42335637  0.63834033  0.27652883  1
  Cd  Cd0  1  0.75587487  0.07618694  0.81327532  1
  Cd  Cd1  1  0.24412513  0.07618694  0.31327532  1
  Br  Br0  1  0.41964882  0.61124124  0.63565086  1
  Br  Br1  1  0.58035118  0.61124124  0.13565086  1
  Br  Br2  1  0.88780883  0.73328664  0.75777553  1
  Br  Br3  1  0.11219117  0.73328664  0.25777553  1
  Br  Br4  1  0.93595914  0.48592936  0.49436785  1
  Br  Br5  1  0.06404086  0.48592936  0.99436785  1
  Br  Br6  1  0.91245756  0.99677844  0.99812058  1
  Br  Br7  1  0.08754244  0.99677844  0.49812058  1
  Br  Br8  1  0.62912016  0.12324244  0.61730455  1
  Br  Br9  1  0.37087984  0.12324244  0.11730455  1
  Br  Br10  1  0.56719838  0.37678962  0.87646373  1
  Br  Br11  1  0.43280162  0.37678962  0.37646373  1
  Br  Br12  1  0.44523453  0.86487673  0.86921509  1
  Br  Br13  1  0.55476547  0.86487673  0.36921509  1
  Br  Br14  1  0.92690961  0.23671184  0.23441091  1
  Br  Br15  1  0.07309039  0.23671184  0.73441091  1
loop_
_geom_bond_atom_site_label_1
_geom_bond_atom_site_label_2
_geom_bond_distance
_geom_bond_site_symmetry_2
Al0 Br4 2.243831 1_555
Al0 Br8 2.341185 1_555
Al0 Br7 2.341404 1_645
Al0 Br15 2.356431 1_655
Al1 Br5 2.243831 1_554
Al1 Br9 2.341185 1_555
Al1 Br6 2.341404 1_444
Al1 Br14 2.356431 1_455
Al2 Br0 2.246833 1_555
Al2 Br2 2.334651 1_555
Al2 Br10 2.350797 1_555
Al2 Br12 2.352208 1_555
Al3 Br1 2.246833 1_555
Al3 Br3 2.334651 1_555
Al3 Br11 2.350797 1_555
Al3 Br13 2.352208 1_555
Br2 Cd0 2.865633 1_565
Br3 Cd1 2.865633 1_565
Br6 Cd0 2.811802 1_565
Br7 Cd1 2.811802 1_565
Br8 Cd0 2.843946 1_555
Br9 Cd1 2.843946 1_555
Br10 Cd0 2.787972 1_555
Br11 Cd1 2.787972 1_555
Br12 Cd0 2.807487 1_565
Br13 Cd1 2.807487 1_565
Br14 Cd1 2.757567 1_655
Br15 Cd0 2.757567 1_455
