# generated using pymatgen
data_Sr10Cu5Mo(W2O15)2
_symmetry_space_group_name_H-M   'P 1'
_cell_length_a   21.60982880
_cell_length_b   21.60982880
_cell_length_c   21.60982892
_cell_angle_alpha   165.34270388
_cell_angle_beta   165.34270121
_cell_angle_gamma   20.78586861
_symmetry_Int_Tables_number   1
_chemical_formula_structural   Sr10Cu5Mo(W2O15)2
_chemical_formula_sum   'Sr10 Cu5 Mo1 W4 O30'
_cell_volume   646.04462579
_cell_formula_units_Z   1
loop_
 _symmetry_equiv_pos_site_id
 _symmetry_equiv_pos_as_xyz
  1  'x, y, z'
loop_
 _atom_site_type_symbol
 _atom_site_label
 _atom_site_symmetry_multiplicity
 _atom_site_fract_x
 _atom_site_fract_y
 _atom_site_fract_z
 _atom_site_occupancy
  Sr  Sr0  1  0.64998000  0.14998000  0.50000000  1
  Sr  Sr1  1  0.25000000  0.75000000  0.50000000  1
  Sr  Sr2  1  0.85002000  0.35002000  0.50000000  1
  Sr  Sr3  1  0.45025200  0.95025200  0.50000000  1
  Sr  Sr4  1  0.04974800  0.54974800  0.50000000  1
  Sr  Sr5  1  0.14998000  0.64998000  0.50000000  1
  Sr  Sr6  1  0.75000000  0.25000000  0.50000000  1
  Sr  Sr7  1  0.35002000  0.85002000  0.50000000  1
  Sr  Sr8  1  0.95025200  0.45025200  0.50000000  1
  Sr  Sr9  1  0.54974800  0.04974800  0.50000000  1
  Cu  Cu0  1  0.09988900  0.09988900  0.00000000  1
  Cu  Cu1  1  0.70000000  0.70000000  0.00000000  1
  Cu  Cu2  1  0.30000000  0.30000000  0.00000000  1
  Cu  Cu3  1  0.90011100  0.90011100  0.00000000  1
  Cu  Cu4  1  0.50000000  0.50000000  0.00000000  1
  Mo  Mo0  1  0.00000000  0.00000000  0.00000000  1
  W  W0  1  0.60000600  0.60000600  0.00000000  1
  W  W1  1  0.20000300  0.20000300  0.00000000  1
  W  W2  1  0.79999700  0.79999700  0.00000000  1
  W  W3  1  0.39999400  0.39999400  0.00000000  1
  O  O0  1  0.64593800  0.64593800  0.00000000  1
  O  O1  1  0.24596000  0.24596000  0.00000000  1
  O  O2  1  0.84599200  0.84599200  0.00000000  1
  O  O3  1  0.44601200  0.44601200  0.00000000  1
  O  O4  1  0.04589900  0.04589900  0.00000000  1
  O  O5  1  0.15400800  0.15400800  0.00000000  1
  O  O6  1  0.75404000  0.75404000  0.00000000  1
  O  O7  1  0.35406200  0.35406200  0.00000000  1
  O  O8  1  0.95410100  0.95410100  0.00000000  1
  O  O9  1  0.55398800  0.55398800  0.00000000  1
  O  O10  1  0.89079100  0.80203400  0.49283700  1
  O  O11  1  0.49081900  0.40212300  0.49294900  1
  O  O12  1  0.09082700  0.00213000  0.49294900  1
  O  O13  1  0.69080300  0.60204500  0.49283700  1
  O  O14  1  0.29031900  0.20215700  0.49247600  1
  O  O15  1  0.30919700  0.39795500  0.50716300  1
  O  O16  1  0.90917300  0.99787000  0.50705100  1
  O  O17  1  0.50918100  0.59787700  0.50705100  1
  O  O18  1  0.10920900  0.19796600  0.50716300  1
  O  O19  1  0.70968100  0.79784300  0.50752400  1
  O  O20  1  0.80203400  0.30919700  0.91124200  1
  O  O21  1  0.40212300  0.90917300  0.91130300  1
  O  O22  1  0.00213000  0.50918100  0.91130300  1
  O  O23  1  0.60204500  0.10920900  0.91124200  1
  O  O24  1  0.20215700  0.70968100  0.91183800  1
  O  O25  1  0.99787000  0.49081900  0.08869700  1
  O  O26  1  0.59787700  0.09082700  0.08869700  1
  O  O27  1  0.19796600  0.69080300  0.08875800  1
  O  O28  1  0.79784300  0.29031900  0.08816200  1
  O  O29  1  0.39795500  0.89079100  0.08875800  1
loop_
_geom_bond_atom_site_label_1
_geom_bond_atom_site_label_2
_geom_bond_distance
_geom_bond_site_symmetry_2
Cu0 O10 2.007161 1_444
Cu0 O20 2.007162 1_454
Cu0 O15 2.007162 1_555
Cu0 O29 2.007165 1_545
Cu0 O4 2.295146 1_555
Cu0 O5 2.300630 1_555
Cu1 O21 2.006682 1_554
Cu1 O11 2.006685 1_554
Cu1 O25 2.006685 1_555
Cu1 O16 2.006686 1_555
Cu1 O6 2.297272 1_555
Cu1 O0 2.298207 1_555
Cu2 O26 2.006682 1_555
Cu2 O17 2.006685 1_555
Cu2 O22 2.006685 1_554
Cu2 O12 2.006686 1_554
Cu2 O1 2.297272 1_555
Cu2 O7 2.298207 1_555
Cu3 O18 2.007161 1_665
Cu3 O27 2.007162 1_655
Cu3 O13 2.007162 1_554
Cu3 O23 2.007165 1_564
Cu3 O8 2.295146 1_555
Cu3 O2 2.300630 1_555
Cu4 O28 2.008144 1_555
Cu4 O24 2.008144 1_554
Cu4 O19 2.008144 1_555
Cu4 O14 2.008144 1_554
Cu4 O9 2.295061 1_555
Cu4 O3 2.295061 1_555
Mo0 O28 1.950372 1_455
Mo0 O24 1.950372 1_544
Mo0 O14 1.950373 1_555
Mo0 O19 1.950373 1_444
Mo0 O4 1.951193 1_555
Mo0 O8 1.951193 1_445
O0 W0 1.952596 1_555
O0 Sr0 2.761912 1_554
O0 Sr0 2.761912 1_565
O0 Sr5 2.761912 1_655
O0 Sr5 2.761912 1_554
O1 W1 1.953659 1_555
O1 Sr1 2.761906 1_544
O1 Sr1 2.761906 1_555
O1 Sr6 2.761907 1_454
O1 Sr6 2.761907 1_555
O2 W2 1.955274 1_555
O2 Sr2 2.761875 1_565
O2 Sr2 2.761875 1_554
O2 Sr7 2.761875 1_554
O2 Sr7 2.761875 1_655
O3 W3 1.956252 1_555
O3 Sr3 2.762448 1_544
O3 Sr3 2.762448 1_555
O3 Sr8 2.762449 1_555
O3 Sr8 2.762449 1_454
O4 Sr4 2.761413 1_555
O4 Sr4 2.761413 1_544
O4 Sr9 2.761414 1_454
O4 Sr9 2.761414 1_555
O5 W1 1.955274 1_555
O5 Sr5 2.761875 1_544
O5 Sr5 2.761875 1_555
O5 Sr0 2.761875 1_555
O5 Sr0 2.761875 1_454
O6 W2 1.953659 1_555
O6 Sr6 2.761906 1_554
O6 Sr6 2.761906 1_565
O6 Sr1 2.761907 1_655
O6 Sr1 2.761907 1_554
O7 W3 1.952596 1_555
O7 Sr7 2.761912 1_544
O7 Sr7 2.761912 1_555
O7 Sr2 2.761912 1_454
O7 Sr2 2.761912 1_555
O8 Sr8 2.761413 1_554
O8 Sr8 2.761413 1_565
O8 Sr3 2.761414 1_554
O8 Sr3 2.761414 1_655
O9 W0 1.956252 1_555
O9 Sr9 2.762448 1_554
O9 Sr9 2.762448 1_565
O9 Sr4 2.762449 1_554
O9 Sr4 2.762449 1_655
O10 W0 1.952168 1_555
O10 Sr5 2.662010 1_655
O10 Sr4 2.670841 1_655
O11 W1 1.952556 1_555
O11 Sr6 2.662743 1_555
O11 Sr0 2.663184 1_555
O12 W2 1.952556 1_445
O12 Sr1 2.662757 1_545
O12 Sr7 2.663165 1_545
O13 W3 1.952169 1_555
O13 Sr2 2.661991 1_555
O13 Sr8 2.670856 1_555
O14 Sr9 2.655358 1_555
O14 Sr3 2.655358 1_545
O15 W0 1.952169 1_556
O15 Sr5 2.661991 1_555
O15 Sr4 2.670856 1_555
O16 W1 1.952556 1_666
O16 Sr6 2.662757 1_565
O16 Sr0 2.663165 1_565
O17 W2 1.952556 1_556
O17 Sr1 2.662743 1_555
O17 Sr7 2.663184 1_555
O18 W3 1.952168 1_556
O18 Sr2 2.662010 1_455
O18 Sr8 2.670841 1_455
O19 Sr9 2.655358 1_565
O19 Sr3 2.655358 1_555
O20 W0 1.952168 1_556
O20 Sr0 2.661991 1_555
O20 Sr9 2.670856 1_555
O21 W1 1.952560 1_566
O21 Sr1 2.662740 1_555
O21 Sr5 2.663182 1_555
O22 W2 1.952556 1_456
O22 Sr6 2.662757 1_455
O22 Sr2 2.663165 1_455
O23 W3 1.952165 1_556
O23 Sr7 2.662008 1_545
O23 Sr3 2.670839 1_545
O24 Sr4 2.655358 1_555
O24 Sr8 2.655358 1_455
O25 W1 1.952556 1_655
O25 Sr1 2.662757 1_655
O25 Sr5 2.663165 1_655
O26 W2 1.952560 1_545
O26 Sr6 2.662740 1_555
O26 Sr2 2.663182 1_555
O27 W3 1.952168 1_555
O27 Sr7 2.661991 1_555
O27 Sr3 2.670856 1_555
O28 Sr4 2.655358 1_655
O28 Sr8 2.655358 1_555
O29 W0 1.952165 1_555
O29 Sr0 2.662008 1_565
O29 Sr9 2.670839 1_565
