# generated using pymatgen
data_HoCuGe
_symmetry_space_group_name_H-M   'P 1'
_cell_length_a   4.21187274
_cell_length_b   4.21187274
_cell_length_c   3.66802200
_cell_angle_alpha   90.00000000
_cell_angle_beta   90.00000000
_cell_angle_gamma   120.00001157
_symmetry_Int_Tables_number   1
_chemical_formula_structural   HoCuGe
_chemical_formula_sum   'Ho1 Cu1 Ge1'
_cell_volume   56.35247481
_cell_formula_units_Z   1
loop_
 _symmetry_equiv_pos_site_id
 _symmetry_equiv_pos_as_xyz
  1  'x, y, z'
loop_
 _atom_site_type_symbol
 _atom_site_label
 _atom_site_symmetry_multiplicity
 _atom_site_fract_x
 _atom_site_fract_y
 _atom_site_fract_z
 _atom_site_occupancy
  Ho  Ho0  1  0.00000000  0.00000000  0.00000000  1
  Cu  Cu0  1  0.33333300  0.66666700  0.50000000  1
  Ge  Ge0  1  0.66666700  0.33333300  0.50000000  1
loop_
_geom_bond_atom_site_label_1
_geom_bond_atom_site_label_2
_geom_bond_distance
_geom_bond_site_symmetry_2
Cu0 Ge0 2.431723 1_455
Cu0 Ge0 2.431723 1_565
Cu0 Ge0 2.431731 1_555
Cu0 Ho0 3.045796 1_565
Cu0 Ho0 3.045796 1_566
Cu0 Ho0 3.045799 1_666
Cu0 Ho0 3.045799 1_555
Cu0 Ho0 3.045799 1_556
Cu0 Ho0 3.045799 1_665
Ge0 Ho0 3.045796 1_655
Ge0 Ho0 3.045796 1_656
Ge0 Ho0 3.045799 1_666
Ge0 Ho0 3.045799 1_555
Ge0 Ho0 3.045799 1_556
Ge0 Ho0 3.045799 1_665
