# generated using pymatgen
data_SmW4S2NO8
_symmetry_space_group_name_H-M   'P 1'
_cell_length_a   20.53541500
_cell_length_b   6.39054000
_cell_length_c   9.00794881
_cell_angle_alpha   88.85018437
_cell_angle_beta   90.00000000
_cell_angle_gamma   90.00000000
_symmetry_Int_Tables_number   1
_chemical_formula_structural   SmW4S2NO8
_chemical_formula_sum   'Sm4 W16 S8 N4 O32'
_cell_volume   1181.89662949
_cell_formula_units_Z   4
loop_
 _symmetry_equiv_pos_site_id
 _symmetry_equiv_pos_as_xyz
  1  'x, y, z'
loop_
 _atom_site_type_symbol
 _atom_site_label
 _atom_site_symmetry_multiplicity
 _atom_site_fract_x
 _atom_site_fract_y
 _atom_site_fract_z
 _atom_site_occupancy
  Sm  Sm0  1  0.13766200  0.61864400  0.29608000  1
  Sm  Sm1  1  0.86233800  0.38135600  0.70392000  1
  Sm  Sm2  1  0.63766200  0.38135600  0.20392000  1
  Sm  Sm3  1  0.36233800  0.61864400  0.79608000  1
  W  W0  1  0.41678500  0.73319800  0.15297800  1
  W  W1  1  0.58321500  0.26680200  0.84702200  1
  W  W2  1  0.91678500  0.26680200  0.34702200  1
  W  W3  1  0.08321500  0.73319800  0.65297800  1
  W  W4  1  0.99758300  0.70821900  0.08764300  1
  W  W5  1  0.00241700  0.29178100  0.91235700  1
  W  W6  1  0.49758300  0.29178100  0.41235700  1
  W  W7  1  0.50241700  0.70821900  0.58764300  1
  W  W8  1  0.34775600  0.27243700  0.25807200  1
  W  W9  1  0.65224400  0.72756300  0.74192800  1
  W  W10  1  0.84775600  0.72756300  0.24192800  1
  W  W11  1  0.15224400  0.27243700  0.75807200  1
  W  W12  1  0.47033200  0.27992600  0.07590000  1
  W  W13  1  0.52966800  0.72007400  0.92410000  1
  W  W14  1  0.97033200  0.72007400  0.42410000  1
  W  W15  1  0.02966800  0.27992600  0.57590000  1
  S  S0  1  0.27785300  0.64603400  0.42298900  1
  S  S1  1  0.72214700  0.35396600  0.57701100  1
  S  S2  1  0.77785300  0.35396600  0.07701100  1
  S  S3  1  0.22214700  0.64603400  0.92298900  1
  S  S4  1  0.09446300  0.17183400  0.21744300  1
  S  S5  1  0.90553700  0.82816600  0.78255700  1
  S  S6  1  0.59446300  0.82816600  0.28255700  1
  S  S7  1  0.40553700  0.17183400  0.71744300  1
  N  N0  1  0.39675200  0.05258300  0.18565600  1
  N  N1  1  0.60324800  0.94741700  0.81434400  1
  N  N2  1  0.89675200  0.94741700  0.31434400  1
  N  N3  1  0.10324800  0.05258300  0.68565600  1
  O  O0  1  0.08594100  0.28443700  0.36290100  1
  O  O1  1  0.91405900  0.71556300  0.63709900  1
  O  O2  1  0.58594100  0.71556300  0.13709900  1
  O  O3  1  0.41405900  0.28443700  0.86290100  1
  O  O4  1  0.73584300  0.18268400  0.13173900  1
  O  O5  1  0.26415700  0.81731600  0.86826100  1
  O  O6  1  0.23584300  0.81731600  0.36826100  1
  O  O7  1  0.76415700  0.18268400  0.63173900  1
  O  O8  1  0.33511500  0.60923300  0.31616800  1
  O  O9  1  0.66488500  0.39076700  0.68383200  1
  O  O10  1  0.83511500  0.39076700  0.18383200  1
  O  O11  1  0.16488500  0.60923300  0.81616800  1
  O  O12  1  0.13673900  0.31568100  0.12967600  1
  O  O13  1  0.86326100  0.68431900  0.87032400  1
  O  O14  1  0.63673900  0.68431900  0.37032400  1
  O  O15  1  0.36326100  0.31568100  0.62967600  1
  O  O16  1  0.19631000  0.68824400  0.07029800  1
  O  O17  1  0.80369000  0.31175600  0.92970200  1
  O  O18  1  0.69631000  0.31175600  0.42970200  1
  O  O19  1  0.30369000  0.68824400  0.57029800  1
  O  O20  1  0.23974400  0.44433400  0.41425900  1
  O  O21  1  0.76025600  0.55566600  0.58574100  1
  O  O22  1  0.73974400  0.55566600  0.08574100  1
  O  O23  1  0.26025600  0.44433400  0.91425900  1
  O  O24  1  0.03007700  0.13997200  0.14218900  1
  O  O25  1  0.96992300  0.86002800  0.85781100  1
  O  O26  1  0.53007700  0.86002800  0.35781100  1
  O  O27  1  0.46992300  0.13997200  0.64218900  1
  O  O28  1  0.12491900  0.96978200  0.24728800  1
  O  O29  1  0.87508100  0.03021800  0.75271200  1
  O  O30  1  0.62491900  0.03021800  0.25271200  1
  O  O31  1  0.37508100  0.96978200  0.74728800  1
loop_
_geom_bond_atom_site_label_1
_geom_bond_atom_site_label_2
_geom_bond_distance
_geom_bond_site_symmetry_2
N0 W8 1.857049 1_555
N0 W0 2.108520 1_545
N0 W12 2.305146 1_555
N1 W9 1.857049 1_555
N1 W1 2.108520 1_565
N1 W13 2.305146 1_555
N2 W10 1.857049 1_555
N2 W2 2.108520 1_565
N2 W14 2.305146 1_555
N3 W11 1.857049 1_555
N3 W3 2.108520 1_545
N3 W15 2.305146 1_555
O0 S4 1.517600 1_555
O0 W15 2.239497 1_555
O0 Sm0 2.449547 1_555
O1 S5 1.517600 1_555
O1 W14 2.239497 1_555
O1 Sm1 2.449547 1_555
O2 S6 1.517600 1_555
O2 W13 2.239497 1_554
O2 Sm2 2.449547 1_555
O3 S7 1.517600 1_555
O3 W12 2.239497 1_556
O3 Sm3 2.449547 1_555
O4 S2 1.470963 1_555
O4 Sm2 2.476458 1_555
O5 S3 1.470963 1_555
O5 Sm3 2.476458 1_555
O6 S0 1.470963 1_555
O6 Sm0 2.476458 1_555
O7 S1 1.470963 1_555
O7 Sm1 2.476458 1_555
O8 S0 1.540465 1_555
O8 W8 2.240288 1_555
O8 W0 2.356804 1_555
O9 S1 1.540465 1_555
O9 W9 2.240288 1_555
O9 W1 2.356804 1_555
O10 S2 1.540465 1_555
O10 W10 2.240288 1_555
O10 W2 2.356804 1_555
O11 S3 1.540465 1_555
O11 W11 2.240288 1_555
O11 W3 2.356804 1_555
O12 S4 1.481423 1_555
O12 Sm0 2.472283 1_555
O13 S5 1.481423 1_555
O13 Sm1 2.472283 1_555
O14 S6 1.481423 1_555
O14 Sm2 2.472283 1_555
O15 S7 1.481423 1_555
O15 Sm3 2.472283 1_555
O16 S3 1.459259 1_554
O16 Sm0 2.397600 1_555
O17 S2 1.459259 1_556
O17 Sm1 2.397600 1_555
O18 S1 1.459259 1_555
O18 Sm2 2.397600 1_555
O19 S0 1.459259 1_555
O19 Sm3 2.397600 1_555
O20 S0 1.511337 1_555
O20 Sm0 2.592486 1_555
O21 S1 1.511337 1_555
O21 Sm1 2.592486 1_555
O22 S2 1.511337 1_555
O22 Sm2 2.592486 1_555
O23 S3 1.511337 1_555
O23 Sm3 2.592486 1_555
O24 S4 1.501573 1_555
O24 W5 2.338676 1_554
O25 S5 1.501573 1_555
O25 W4 2.338676 1_556
O26 S6 1.501573 1_555
O26 W7 2.338676 1_555
O27 S7 1.501573 1_555
O27 W6 2.338676 1_555
O28 S4 1.454907 1_565
O28 Sm0 2.292909 1_555
O29 S5 1.454907 1_545
O29 Sm1 2.292909 1_555
O30 S6 1.454907 1_545
O30 Sm2 2.292909 1_555
O31 S7 1.454907 1_565
O31 Sm3 2.292909 1_555
