# generated using pymatgen
data_Rb3Cr(HO)6
_symmetry_space_group_name_H-M   'P 1'
_cell_length_a   7.63883748
_cell_length_b   7.63883748
_cell_length_c   7.63883712
_cell_angle_alpha   95.43711978
_cell_angle_beta   95.43711978
_cell_angle_gamma   95.43712485
_symmetry_Int_Tables_number   1
_chemical_formula_structural   Rb3Cr(HO)6
_chemical_formula_sum   'Rb6 Cr2 H12 O12'
_cell_volume   439.31172377
_cell_formula_units_Z   2
loop_
 _symmetry_equiv_pos_site_id
 _symmetry_equiv_pos_as_xyz
  1  'x, y, z'
loop_
 _atom_site_type_symbol
 _atom_site_label
 _atom_site_symmetry_multiplicity
 _atom_site_fract_x
 _atom_site_fract_y
 _atom_site_fract_z
 _atom_site_occupancy
  Rb  Rb0  1  0.62613000  0.87387000  0.25000000  1
  Rb  Rb1  1  0.87387000  0.25000000  0.62613000  1
  Rb  Rb2  1  0.25000000  0.62613000  0.87387000  1
  Rb  Rb3  1  0.12613000  0.75000000  0.37387000  1
  Rb  Rb4  1  0.75000000  0.37387000  0.12613000  1
  Rb  Rb5  1  0.37387000  0.12613000  0.75000000  1
  Cr  Cr0  1  0.50000000  0.50000000  0.50000000  1
  Cr  Cr1  1  0.00000000  0.00000000  0.00000000  1
  H  H0  1  0.07509600  0.12446100  0.31225300  1
  H  H1  1  0.12446100  0.31225300  0.07509600  1
  H  H2  1  0.31225300  0.07509600  0.12446100  1
  H  H3  1  0.57509600  0.81225300  0.62446100  1
  H  H4  1  0.81225300  0.62446100  0.57509600  1
  H  H5  1  0.62446100  0.57509600  0.81225300  1
  H  H6  1  0.92490400  0.87553900  0.68774700  1
  H  H7  1  0.87553900  0.68774700  0.92490400  1
  H  H8  1  0.68774700  0.92490400  0.87553900  1
  H  H9  1  0.42490400  0.18774700  0.37553900  1
  H  H10  1  0.18774700  0.37553900  0.42490400  1
  H  H11  1  0.37553900  0.42490400  0.18774700  1
  O  O0  1  0.95653200  0.09523500  0.25159500  1
  O  O1  1  0.09523500  0.25159500  0.95653200  1
  O  O2  1  0.25159500  0.95653200  0.09523500  1
  O  O3  1  0.45653200  0.75159500  0.59523500  1
  O  O4  1  0.75159500  0.59523500  0.45653200  1
  O  O5  1  0.59523500  0.45653200  0.75159500  1
  O  O6  1  0.04346800  0.90476500  0.74840500  1
  O  O7  1  0.90476500  0.74840500  0.04346800  1
  O  O8  1  0.74840500  0.04346800  0.90476500  1
  O  O9  1  0.54346800  0.24840500  0.40476500  1
  O  O10  1  0.24840500  0.40476500  0.54346800  1
  O  O11  1  0.40476500  0.54346800  0.24840500  1
loop_
_geom_bond_atom_site_label_1
_geom_bond_atom_site_label_2
_geom_bond_distance
_geom_bond_site_symmetry_2
Cr0 O11 2.057891 1_555
Cr0 O5 2.057891 1_555
Cr0 O10 2.057891 1_555
Cr0 O4 2.057891 1_555
Cr0 O3 2.057891 1_555
Cr0 O9 2.057891 1_555
Cr1 O6 2.057891 1_544
Cr1 O0 2.057891 1_455
Cr1 O7 2.057891 1_445
Cr1 O1 2.057891 1_554
Cr1 O2 2.057891 1_545
Cr1 O8 2.057891 1_454
H0 O0 0.973328 1_455
H0 Rb3 2.997894 1_545
H0 Rb1 3.094059 1_455
H1 O1 0.973328 1_554
H1 Rb4 2.997894 1_455
H1 Rb2 3.094059 1_554
H2 O2 0.973328 1_545
H2 Rb5 2.997894 1_554
H2 Rb0 3.094059 1_545
H3 O3 0.973328 1_555
H3 Rb0 2.997894 1_555
H3 Rb5 3.094059 1_565
H4 O4 0.973328 1_555
H4 Rb1 2.997894 1_555
H4 Rb3 3.094059 1_655
H5 O5 0.973328 1_555
H5 Rb2 2.997894 1_555
H5 Rb4 3.094059 1_556
H6 O6 0.973328 1_655
H6 Rb1 2.997894 1_565
H6 Rb3 3.094059 1_655
H7 O7 0.973328 1_556
H7 Rb2 2.997894 1_655
H7 Rb4 3.094059 1_556
H8 O8 0.973328 1_565
H8 Rb0 2.997894 1_556
H8 Rb5 3.094059 1_565
H9 O9 0.973328 1_555
H9 Rb5 2.997894 1_555
H9 Rb0 3.094059 1_545
H10 O10 0.973328 1_555
H10 Rb3 2.997894 1_555
H10 Rb1 3.094059 1_455
H11 O11 0.973328 1_555
H11 Rb4 2.997894 1_555
H11 Rb2 3.094059 1_554
O0 Rb0 2.900177 1_545
O0 Rb4 2.945208 1_555
O0 Rb1 3.134423 1_555
O0 Rb3 3.223440 1_645
O1 Rb1 2.900177 1_455
O1 Rb5 2.945208 1_555
O1 Rb2 3.134423 1_555
O1 Rb4 3.223440 1_456
O2 Rb2 2.900177 1_554
O2 Rb3 2.945208 1_555
O2 Rb0 3.134423 1_555
O2 Rb5 3.223440 1_564
O3 Rb3 2.900177 1_555
O3 Rb2 2.945208 1_555
O3 Rb5 3.134423 1_565
O3 Rb0 3.223440 1_555
O4 Rb4 2.900177 1_555
O4 Rb0 2.945208 1_555
O4 Rb3 3.134423 1_655
O4 Rb1 3.223440 1_555
O5 Rb5 2.900177 1_555
O5 Rb1 2.945208 1_555
O5 Rb4 3.134423 1_556
O5 Rb2 3.223440 1_555
O6 Rb5 2.900177 1_565
O6 Rb2 2.945208 1_555
O6 Rb3 3.134423 1_555
O6 Rb1 3.223440 1_465
O7 Rb3 2.900177 1_655
O7 Rb0 2.945208 1_555
O7 Rb4 3.134423 1_555
O7 Rb2 3.223440 1_654
O8 Rb4 2.900177 1_556
O8 Rb1 2.945208 1_555
O8 Rb5 3.134423 1_555
O8 Rb0 3.223440 1_546
O9 Rb1 2.900177 1_555
O9 Rb4 2.945208 1_555
O9 Rb0 3.134423 1_545
O9 Rb5 3.223440 1_555
O10 Rb2 2.900177 1_555
O10 Rb5 2.945208 1_555
O10 Rb1 3.134423 1_455
O10 Rb3 3.223440 1_555
O11 Rb0 2.900177 1_555
O11 Rb3 2.945208 1_555
O11 Rb2 3.134423 1_554
O11 Rb4 3.223440 1_555
