# generated using pymatgen
data_Ge2TeSe
_symmetry_space_group_name_H-M   'P 1'
_cell_length_a   7.13195160
_cell_length_b   7.13195160
_cell_length_c   7.13195225
_cell_angle_alpha   33.58316974
_cell_angle_beta   33.58316974
_cell_angle_gamma   33.58316992
_symmetry_Int_Tables_number   1
_chemical_formula_structural   Ge2TeSe
_chemical_formula_sum   'Ge2 Te1 Se1'
_cell_volume   98.87067811
_cell_formula_units_Z   1
loop_
 _symmetry_equiv_pos_site_id
 _symmetry_equiv_pos_as_xyz
  1  'x, y, z'
loop_
 _atom_site_type_symbol
 _atom_site_label
 _atom_site_symmetry_multiplicity
 _atom_site_fract_x
 _atom_site_fract_y
 _atom_site_fract_z
 _atom_site_occupancy
  Ge  Ge0  1  0.24514900  0.24514900  0.24514900  1
  Ge  Ge1  1  0.75485100  0.75485100  0.75485100  1
  Te  Te0  1  0.00000000  0.00000000  0.00000000  1
  Se  Se0  1  0.50000000  0.50000000  0.50000000  1
loop_
_geom_bond_atom_site_label_1
_geom_bond_atom_site_label_2
_geom_bond_distance
_geom_bond_site_symmetry_2
Ge0 Se0 2.857627 1_545
Ge0 Se0 2.857627 1_455
Ge0 Se0 2.857627 1_554
Ge0 Te0 2.970504 1_565
Ge0 Te0 2.970504 1_655
Ge0 Te0 2.970505 1_556
Ge1 Se0 2.857627 1_565
Ge1 Se0 2.857627 1_655
Ge1 Se0 2.857627 1_556
Ge1 Te0 2.970504 1_566
Ge1 Te0 2.970504 1_656
Ge1 Te0 2.970505 1_665
