# generated using pymatgen
data_Sr2YTlFe2O7
_symmetry_space_group_name_H-M   'P 1'
_cell_length_a   3.87295800
_cell_length_b   3.87295800
_cell_length_c   13.00392200
_cell_angle_alpha   90.00000000
_cell_angle_beta   90.00000000
_cell_angle_gamma   90.00000000
_symmetry_Int_Tables_number   1
_chemical_formula_structural   Sr2YTlFe2O7
_chemical_formula_sum   'Sr2 Y1 Tl1 Fe2 O7'
_cell_volume   195.05627694
_cell_formula_units_Z   1
loop_
 _symmetry_equiv_pos_site_id
 _symmetry_equiv_pos_as_xyz
  1  'x, y, z'
loop_
 _atom_site_type_symbol
 _atom_site_label
 _atom_site_symmetry_multiplicity
 _atom_site_fract_x
 _atom_site_fract_y
 _atom_site_fract_z
 _atom_site_occupancy
  Sr  Sr0  1  0.50000000  0.50000000  0.81118300  1
  Sr  Sr1  1  0.50000000  0.50000000  0.18881700  1
  Y  Y0  1  0.50000000  0.50000000  0.50000000  1
  Tl  Tl0  1  0.00000000  0.00000000  0.00000000  1
  Fe  Fe0  1  0.00000000  0.00000000  0.64797400  1
  Fe  Fe1  1  0.00000000  0.00000000  0.35202600  1
  O  O0  1  0.50000000  0.00000000  0.60932700  1
  O  O1  1  0.00000000  0.50000000  0.60932700  1
  O  O2  1  0.50000000  0.00000000  0.39067300  1
  O  O3  1  0.00000000  0.50000000  0.39067300  1
  O  O4  1  0.00000000  0.00000000  0.79451500  1
  O  O5  1  0.00000000  0.00000000  0.20548500  1
  O  O6  1  0.50000000  0.50000000  0.00000000  1
loop_
_geom_bond_atom_site_label_1
_geom_bond_atom_site_label_2
_geom_bond_distance
_geom_bond_site_symmetry_2
Fe0 O4 1.905608 1_555
Fe0 O1 2.000630 1_555
Fe0 O0 2.000630 1_555
Fe0 O1 2.000630 1_545
Fe0 O0 2.000630 1_455
Fe1 O5 1.905608 1_555
Fe1 O3 2.000630 1_545
Fe1 O2 2.000630 1_555
Fe1 O2 2.000630 1_455
Fe1 O3 2.000630 1_555
O0 Y0 2.402316 1_545
O0 Y0 2.402316 1_555
O1 Y0 2.402316 1_555
O1 Y0 2.402316 1_455
O2 Y0 2.402316 1_545
O2 Y0 2.402316 1_555
O3 Y0 2.402316 1_455
O3 Y0 2.402316 1_555
O4 Tl0 2.672111 1_556
O4 Sr0 2.747159 1_555
O4 Sr0 2.747159 1_445
O4 Sr0 2.747159 1_545
O4 Sr0 2.747159 1_455
O5 Tl0 2.672111 1_555
O5 Sr1 2.747159 1_455
O5 Sr1 2.747159 1_555
O5 Sr1 2.747159 1_445
O5 Sr1 2.747159 1_545
O6 Sr1 2.455362 1_555
O6 Sr0 2.455362 1_554
O6 Tl0 2.738595 1_565
O6 Tl0 2.738595 1_655
O6 Tl0 2.738595 1_665
O6 Tl0 2.738595 1_555
