# generated using pymatgen
data_LiDySe2
_symmetry_space_group_name_H-M   'P 1'
_cell_length_a   4.08958800
_cell_length_b   4.08958800
_cell_length_c   5.57014900
_cell_angle_alpha   90.00000000
_cell_angle_beta   90.00000000
_cell_angle_gamma   90.00000000
_symmetry_Int_Tables_number   1
_chemical_formula_structural   LiDySe2
_chemical_formula_sum   'Li1 Dy1 Se2'
_cell_volume   93.15923814
_cell_formula_units_Z   1
loop_
 _symmetry_equiv_pos_site_id
 _symmetry_equiv_pos_as_xyz
  1  'x, y, z'
loop_
 _atom_site_type_symbol
 _atom_site_label
 _atom_site_symmetry_multiplicity
 _atom_site_fract_x
 _atom_site_fract_y
 _atom_site_fract_z
 _atom_site_occupancy
  Li  Li0  1  0.00000000  0.00000000  0.00000000  1
  Dy  Dy0  1  0.50000000  0.50000000  0.50000000  1
  Se  Se0  1  0.00000000  0.00000000  0.50000000  1
  Se  Se1  1  0.50000000  0.50000000  0.00000000  1
loop_
_geom_bond_atom_site_label_1
_geom_bond_atom_site_label_2
_geom_bond_distance
_geom_bond_site_symmetry_2
Li0 Se0 2.785074 1_555
Li0 Se0 2.785074 1_554
Li0 Se1 2.891775 1_455
Li0 Se1 2.891775 1_445
Li0 Se1 2.891775 1_555
Li0 Se1 2.891775 1_545
Dy0 Se1 2.785074 1_555
Dy0 Se1 2.785074 1_556
Dy0 Se0 2.891775 1_565
Dy0 Se0 2.891775 1_665
Dy0 Se0 2.891775 1_555
Dy0 Se0 2.891775 1_655
