# generated using pymatgen
data_Na5Lu(SiO3)4
_symmetry_space_group_name_H-M   'P 1'
_cell_length_a   13.52766755
_cell_length_b   13.52766622
_cell_length_c   13.52766607
_cell_angle_alpha   110.66087015
_cell_angle_beta   110.66086660
_cell_angle_gamma   110.66086445
_symmetry_Int_Tables_number   1
_chemical_formula_structural   Na5Lu(SiO3)4
_chemical_formula_sum   'Na30 Lu6 Si24 O72'
_cell_volume   1816.89480997
_cell_formula_units_Z   6
loop_
 _symmetry_equiv_pos_site_id
 _symmetry_equiv_pos_as_xyz
  1  'x, y, z'
loop_
 _atom_site_type_symbol
 _atom_site_label
 _atom_site_symmetry_multiplicity
 _atom_site_fract_x
 _atom_site_fract_y
 _atom_site_fract_z
 _atom_site_occupancy
  Na  Na0  1  0.58807029  0.68974226  0.17072727  1
  Na  Na1  1  0.83124043  0.35904122  0.86578135  1
  Na  Na2  1  0.35904122  0.86578135  0.83124043  1
  Na  Na3  1  0.25529285  0.25529285  0.25529285  1
  Na  Na4  1  0.65782831  0.65437565  0.46550550  1
  Na  Na5  1  0.31025774  0.41192971  0.82927273  1
  Na  Na6  1  0.00000000  0.71727791  0.28272209  1
  Na  Na7  1  0.13421865  0.64095878  0.16875957  1
  Na  Na8  1  0.81716749  0.82548931  0.03253630  1
  Na  Na9  1  0.46550550  0.65782831  0.65437565  1
  Na  Na10  1  0.17451069  0.18283251  0.96746370  1
  Na  Na11  1  0.64095878  0.16875957  0.13421865  1
  Na  Na12  1  0.18283251  0.96746370  0.17451069  1
  Na  Na13  1  0.96746370  0.17451069  0.18283251  1
  Na  Na14  1  0.34217169  0.53449450  0.34562435  1
  Na  Na15  1  0.65437565  0.46550550  0.65782831  1
  Na  Na16  1  0.16875957  0.13421865  0.64095878  1
  Na  Na17  1  0.82548931  0.03253630  0.81716749  1
  Na  Na18  1  0.53449450  0.34562435  0.34217169  1
  Na  Na19  1  0.68974226  0.17072727  0.58807029  1
  Na  Na20  1  0.17072727  0.58807029  0.68974226  1
  Na  Na21  1  0.82927273  0.31025774  0.41192971  1
  Na  Na22  1  0.28272209  1.00000000  0.71727791  1
  Na  Na23  1  0.71727791  0.28272209  0.00000000  1
  Na  Na24  1  0.41192971  0.82927273  0.31025774  1
  Na  Na25  1  0.86578135  0.83124043  0.35904122  1
  Na  Na26  1  0.34562435  0.34217169  0.53449450  1
  Na  Na27  1  -0.00000000  -0.00000000  -0.00000000  1
  Na  Na28  1  0.74470715  0.74470715  0.74470715  1
  Na  Na29  1  0.03253630  0.81716749  0.82548931  1
  Lu  Lu0  1  0.00000000  0.25036360  0.74963640  1
  Lu  Lu1  1  0.25222814  0.74777186  0.50000000  1
  Lu  Lu2  1  0.74777186  0.50000000  0.25222814  1
  Lu  Lu3  1  0.50000000  0.25222814  0.74777186  1
  Lu  Lu4  1  0.74963640  1.00000000  0.25036360  1
  Lu  Lu5  1  0.25036360  0.74963640  0.00000000  1
  Si  Si0  1  0.81799882  0.53857703  0.54248902  1
  Si  Si1  1  0.51101496  0.05934250  0.25442657  1
  Si  Si2  1  0.74557343  0.94065750  0.48898504  1
  Si  Si3  1  0.03592452  0.31350004  0.04241158  1
  Si  Si4  1  0.54248902  0.81799882  0.53857703  1
  Si  Si5  1  0.94065750  0.48898504  0.74557343  1
  Si  Si6  1  0.53857703  0.54248902  0.81799882  1
  Si  Si7  1  0.75565777  0.55713420  0.01528430  1
  Si  Si8  1  0.25442657  0.51101496  0.05934250  1
  Si  Si9  1  0.95758842  0.68649996  0.96407548  1
  Si  Si10  1  0.31350004  0.04241158  0.03592452  1
  Si  Si11  1  0.68649996  0.96407548  0.95758842  1
  Si  Si12  1  0.05934250  0.25442657  0.51101496  1
  Si  Si13  1  0.44286580  0.24434223  0.98471570  1
  Si  Si14  1  0.55713420  0.01528430  0.75565777  1
  Si  Si15  1  0.96407548  0.95758842  0.68649996  1
  Si  Si16  1  0.04241158  0.03592452  0.31350004  1
  Si  Si17  1  0.01528430  0.75565777  0.55713420  1
  Si  Si18  1  0.24434223  0.98471570  0.44286580  1
  Si  Si19  1  0.98471570  0.44286580  0.24434223  1
  Si  Si20  1  0.18200118  0.45751098  0.46142297  1
  Si  Si21  1  0.46142297  0.18200118  0.45751098  1
  Si  Si22  1  0.45751098  0.46142297  0.18200118  1
  Si  Si23  1  0.48898504  0.74557343  0.94065750  1
  O  O0  1  0.78100914  0.93495417  0.92613943  1
  O  O1  1  0.95015788  0.25459511  0.89193398  1
  O  O2  1  0.33091356  0.04281844  0.39161635  1
  O  O3  1  0.91454424  0.69506328  0.41009865  1
  O  O4  1  0.10091181  0.95536263  0.35459841  1
  O  O5  1  0.21899086  0.07386057  0.06504583  1
  O  O6  1  0.92613943  0.78100914  0.93495417  1
  O  O7  1  0.11523634  0.17120045  0.45336651  1
  O  O8  1  0.64530333  0.09382786  0.26959499  1
  O  O9  1  0.09382786  0.26959499  0.64530333  1
  O  O10  1  0.26959499  0.64530333  0.09382786  1
  O  O11  1  0.39075294  0.75170089  0.44776143  1
  O  O12  1  0.80957380  0.08618246  0.59361547  1
  O  O13  1  0.95536263  0.35459841  0.10091181  1
  O  O14  1  0.54663349  0.82879955  0.88476366  1
  O  O15  1  0.40702410  0.21969163  0.84747987  1
  O  O16  1  0.57900916  0.72976960  0.57438133  1
  O  O17  1  0.60838365  0.95718156  0.66908644  1
  O  O18  1  0.60924706  0.55223857  0.24829911  1
  O  O19  1  0.55223857  0.24829911  0.60924706  1
  O  O20  1  0.25459511  0.89193398  0.95015788  1
  O  O21  1  0.54340270  0.14451820  0.39944003  1
  O  O22  1  0.64540159  0.04463737  0.89908819  1
  O  O23  1  0.35459841  0.10091181  0.95536263  1
  O  O24  1  0.84747987  0.40702410  0.21969163  1
  O  O25  1  0.59297590  0.15252013  0.78030837  1
  O  O26  1  0.39944003  0.54340270  0.14451820  1
  O  O27  1  0.72976960  0.57438133  0.57900916  1
  O  O28  1  0.44776143  0.39075294  0.75170089  1
  O  O29  1  0.04463737  0.89908819  0.64540159  1
  O  O30  1  0.15252013  0.78030837  0.59297590  1
  O  O31  1  0.82879955  0.88476366  0.54663349  1
  O  O32  1  0.73040501  0.90617214  0.35469667  1
  O  O33  1  0.35469667  0.73040501  0.90617214  1
  O  O34  1  0.27023040  0.42099084  0.42561867  1
  O  O35  1  0.75170089  0.44776143  0.39075294  1
  O  O36  1  0.90617214  0.35469667  0.73040501  1
  O  O37  1  0.58990135  0.30493672  0.08545576  1
  O  O38  1  0.40638453  0.91381754  0.19042620  1
  O  O39  1  0.41009865  0.91454424  0.69506328  1
  O  O40  1  0.21969163  0.84747987  0.40702410  1
  O  O41  1  0.74540489  0.04984212  0.10806602  1
  O  O42  1  0.78030837  0.59297590  0.15252013  1
  O  O43  1  0.42099084  0.42561867  0.27023040  1
  O  O44  1  0.95718156  0.66908644  0.60838365  1
  O  O45  1  0.88476366  0.54663349  0.82879955  1
  O  O46  1  0.07386057  0.06504583  0.21899086  1
  O  O47  1  0.30493672  0.08545576  0.58990135  1
  O  O48  1  0.59361547  0.80957380  0.08618246  1
  O  O49  1  0.66908644  0.60838365  0.95718156  1
  O  O50  1  0.69506328  0.41009865  0.91454424  1
  O  O51  1  0.10806602  0.74540489  0.04984212  1
  O  O52  1  0.45336651  0.11523634  0.17120045  1
  O  O53  1  0.08545576  0.58990135  0.30493672  1
  O  O54  1  0.17120045  0.45336651  0.11523634  1
  O  O55  1  0.57438133  0.57900916  0.72976960  1
  O  O56  1  0.89908819  0.64540159  0.04463737  1
  O  O57  1  0.42561867  0.27023040  0.42099084  1
  O  O58  1  0.04281844  0.39161635  0.33091356  1
  O  O59  1  0.08618246  0.59361547  0.80957380  1
  O  O60  1  0.04984212  0.10806602  0.74540489  1
  O  O61  1  0.24829911  0.60924706  0.55223857  1
  O  O62  1  0.06504583  0.21899086  0.07386057  1
  O  O63  1  0.19042620  0.40638453  0.91381754  1
  O  O64  1  0.39161635  0.33091356  0.04281844  1
  O  O65  1  0.60055997  0.85548180  0.45659730  1
  O  O66  1  0.14451820  0.39944003  0.54340270  1
  O  O67  1  0.91381754  0.19042620  0.40638453  1
  O  O68  1  0.45659730  0.60055997  0.85548180  1
  O  O69  1  0.85548180  0.45659730  0.60055997  1
  O  O70  1  0.89193398  0.95015788  0.25459511  1
  O  O71  1  0.93495417  0.92613943  0.78100914  1
loop_
_geom_bond_atom_site_label_1
_geom_bond_atom_site_label_2
_geom_bond_distance
_geom_bond_site_symmetry_2
Na0 O48 2.285709 1_555
Na0 O26 2.420238 1_555
Na0 O32 2.443671 1_555
Na0 O18 2.486873 1_555
Na1 O36 2.379231 1_555
Na1 O50 2.395748 1_555
Na1 O1 2.502875 1_555
Na1 O45 2.658808 1_555
Na1 O25 2.875233 1_555
Na2 O33 2.379231 1_555
Na2 O39 2.395747 1_555
Na2 O20 2.502875 1_555
Na2 O14 2.658808 1_555
Na2 O30 2.875233 1_555
Na3 O34 2.466041 1_555
Na3 O57 2.466042 1_555
Na3 O43 2.466042 1_555
Na3 O5 2.586240 1_555
Na3 O62 2.586240 1_555
Na3 O46 2.586240 1_555
Na4 O16 2.271974 1_555
Na4 O27 2.310176 1_555
Na4 O18 2.471074 1_555
Na4 O31 2.641106 1_555
Na4 O43 2.842842 1_555
Na5 O63 2.285709 1_555
Na5 O68 2.420238 1_555
Na5 O9 2.443671 1_555
Na5 O28 2.486873 1_555
Na6 O42 2.334897 1_455
Na6 O40 2.334897 1_555
Na6 O53 2.433454 1_555
Na6 O3 2.433454 1_455
Na6 O56 2.633045 1_455
Na6 O4 2.633045 1_555
Na7 O10 2.379232 1_555
Na7 O53 2.395747 1_555
Na7 O51 2.502875 1_555
Na7 O54 2.658808 1_555
Na7 O40 2.875232 1_555
Na8 O6 2.390881 1_554
Na8 O70 2.442978 1_555
Na8 O49 2.443807 1_554
Na8 O0 2.453969 1_554
Na9 O55 2.271974 1_555
Na9 O16 2.310176 1_555
Na9 O61 2.471075 1_555
Na9 O14 2.641106 1_555
Na9 O34 2.842842 1_555
Na10 O5 2.390881 1_556
Na10 O60 2.442979 1_555
Na10 O64 2.443807 1_556
Na10 O62 2.453969 1_556
Na11 O8 2.379231 1_555
Na11 O37 2.395747 1_555
Na11 O41 2.502875 1_555
Na11 O52 2.658808 1_555
Na11 O24 2.875233 1_555
Na12 O46 2.390881 1_565
Na12 O51 2.442978 1_555
Na12 O2 2.443807 1_565
Na12 O5 2.453969 1_565
Na13 O62 2.390881 1_655
Na13 O41 2.442979 1_555
Na13 O58 2.443807 1_655
Na13 O46 2.453969 1_655
Na14 O43 2.271974 1_555
Na14 O34 2.310176 1_555
Na14 O11 2.471074 1_555
Na14 O54 2.641106 1_555
Na14 O16 2.842842 1_555
Na15 O27 2.271974 1_555
Na15 O55 2.310176 1_555
Na15 O19 2.471074 1_555
Na15 O45 2.641106 1_555
Na15 O57 2.842842 1_555
Na16 O9 2.379231 1_555
Na16 O47 2.395748 1_555
Na16 O60 2.502875 1_555
Na16 O7 2.658808 1_555
Na16 O15 2.875233 1_555
Na17 O0 2.390881 1_545
Na17 O1 2.442979 1_555
Na17 O17 2.443807 1_545
Na17 O71 2.453969 1_545
Na18 O57 2.271974 1_555
Na18 O43 2.310176 1_555
Na18 O35 2.471075 1_555
Na18 O52 2.641106 1_555
Na18 O27 2.842842 1_555
Na19 O12 2.285709 1_555
Na19 O21 2.420238 1_555
Na19 O36 2.443671 1_555
Na19 O19 2.486873 1_555
Na20 O59 2.285709 1_555
Na20 O66 2.420238 1_555
Na20 O33 2.443671 1_555
Na20 O61 2.486873 1_555
Na21 O67 2.285709 1_555
Na21 O69 2.420238 1_555
Na21 O8 2.443671 1_555
Na21 O35 2.486873 1_555
Na22 O15 2.334897 1_565
Na22 O30 2.334897 1_555
Na22 O47 2.433454 1_565
Na22 O39 2.433454 1_555
Na22 O23 2.633045 1_565
Na22 O29 2.633045 1_555
Na23 O25 2.334897 1_554
Na23 O24 2.334897 1_555
Na23 O50 2.433454 1_554
Na23 O37 2.433454 1_555
Na23 O22 2.633045 1_554
Na23 O13 2.633045 1_555
Na24 O38 2.285709 1_555
Na24 O65 2.420238 1_555
Na24 O10 2.443671 1_555
Na24 O11 2.486873 1_555
Na25 O32 2.379232 1_555
Na25 O3 2.395747 1_555
Na25 O70 2.502875 1_555
Na25 O31 2.658808 1_555
Na25 O42 2.875232 1_555
Na26 O34 2.271974 1_555
Na26 O57 2.310176 1_555
Na26 O28 2.471074 1_555
Na26 O7 2.641106 1_555
Na26 O55 2.842842 1_555
Na27 O71 2.449482 1_444
Na27 O46 2.449482 1_555
Na27 O62 2.449482 1_555
Na27 O6 2.449482 1_444
Na27 O0 2.449482 1_444
Na27 O5 2.449482 1_555
Na28 O27 2.466041 1_555
Na28 O16 2.466042 1_555
Na28 O55 2.466042 1_555
Na28 O0 2.586240 1_555
Na28 O6 2.586240 1_555
Na28 O71 2.586240 1_555
Na29 O71 2.390881 1_455
Na29 O20 2.442979 1_555
Na29 O44 2.443807 1_455
Na29 O6 2.453969 1_455
Lu0 O63 2.200299 1_555
Lu0 O12 2.200299 1_455
Lu0 O36 2.227327 1_455
Lu0 O9 2.227327 1_555
Lu0 O1 2.242477 1_455
Lu0 O60 2.242477 1_555
Lu1 O40 2.195540 1_555
Lu1 O30 2.195540 1_555
Lu1 O61 2.214602 1_555
Lu1 O11 2.214602 1_555
Lu1 O39 2.244096 1_555
Lu1 O53 2.244096 1_555
Lu2 O42 2.195540 1_555
Lu2 O24 2.195540 1_555
Lu2 O35 2.214602 1_555
Lu2 O18 2.214602 1_555
Lu2 O37 2.244096 1_555
Lu2 O3 2.244096 1_555
Lu3 O25 2.195540 1_555
Lu3 O15 2.195540 1_555
Lu3 O28 2.214602 1_555
Lu3 O19 2.214602 1_555
Lu3 O50 2.244096 1_555
Lu3 O47 2.244096 1_555
Lu4 O48 2.200299 1_555
Lu4 O67 2.200299 1_565
Lu4 O32 2.227327 1_555
Lu4 O8 2.227327 1_565
Lu4 O41 2.242477 1_565
Lu4 O70 2.242477 1_555
Lu5 O38 2.200299 1_555
Lu5 O59 2.200299 1_554
Lu5 O10 2.227327 1_555
Lu5 O33 2.227327 1_554
Lu5 O20 2.242477 1_554
Lu5 O51 2.242477 1_555
O0 Si11 1.609871 1_555
O1 Si3 1.631290 1_656
O2 Si18 1.666686 1_545
O2 Si21 1.678068 1_555
O3 Si17 1.622880 1_655
O4 Si18 1.683733 1_555
O4 Si16 1.687825 1_565
O5 Si10 1.609871 1_555
O6 Si9 1.609871 1_555
O7 Si12 1.686614 1_555
O7 Si16 1.693622 1_555
O8 Si1 1.622090 1_555
O9 Si12 1.622090 1_555
O10 Si8 1.622090 1_555
O11 Si4 1.634268 1_555
O12 Si2 1.610784 1_545
O13 Si19 1.683733 1_555
O13 Si3 1.687825 1_655
O14 Si23 1.686614 1_555
O14 Si11 1.693623 1_555
O15 Si13 1.614514 1_555
O16 Si4 1.599490 1_555
O17 Si14 1.666686 1_565
O17 Si4 1.678068 1_555
O18 Si22 1.634268 1_555
O19 Si21 1.634268 1_555
O20 Si10 1.631290 1_566
O21 Si1 1.676316 1_555
O21 Si21 1.683623 1_555
O22 Si14 1.683733 1_555
O22 Si11 1.687825 1_545
O23 Si13 1.683733 1_555
O23 Si10 1.687825 1_556
O24 Si19 1.614514 1_555
O25 Si14 1.614514 1_555
O26 Si8 1.676317 1_555
O26 Si22 1.683623 1_555
O27 Si0 1.599490 1_555
O28 Si6 1.634268 1_555
O29 Si17 1.683733 1_555
O29 Si15 1.687825 1_455
O30 Si17 1.614514 1_555
O31 Si2 1.686614 1_555
O31 Si15 1.693622 1_555
O32 Si2 1.622090 1_555
O33 Si23 1.622090 1_555
O34 Si20 1.599490 1_555
O35 Si0 1.634268 1_555
O36 Si5 1.622090 1_555
O37 Si13 1.622880 1_554
O38 Si1 1.610784 1_565
O39 Si14 1.622880 1_565
O40 Si18 1.614514 1_555
O41 Si11 1.631290 1_544
O42 Si7 1.614514 1_555
O43 Si22 1.599490 1_555
O44 Si17 1.666686 1_655
O44 Si0 1.678068 1_555
O45 Si5 1.686614 1_555
O45 Si9 1.693622 1_555
O46 Si16 1.609871 1_555
O47 Si18 1.622880 1_545
O48 Si23 1.610784 1_554
O49 Si7 1.666686 1_556
O49 Si6 1.678068 1_555
O50 Si7 1.622880 1_556
O51 Si9 1.631291 1_454
O52 Si1 1.686614 1_555
O52 Si10 1.693622 1_555
O53 Si19 1.622880 1_455
O54 Si8 1.686614 1_555
O54 Si3 1.693623 1_555
O55 Si6 1.599490 1_555
O56 Si7 1.683733 1_555
O56 Si9 1.687825 1_554
O57 Si21 1.599490 1_555
O58 Si19 1.666686 1_455
O58 Si20 1.678068 1_555
O59 Si5 1.610785 1_455
O60 Si15 1.631290 1_445
O61 Si20 1.634268 1_555
O62 Si3 1.609871 1_555
O63 Si8 1.610784 1_556
O64 Si13 1.666686 1_554
O64 Si22 1.678068 1_555
O65 Si2 1.676317 1_555
O65 Si4 1.683623 1_555
O66 Si12 1.676316 1_555
O66 Si20 1.683623 1_555
O67 Si12 1.610785 1_655
O68 Si23 1.676316 1_555
O68 Si6 1.683623 1_555
O69 Si5 1.676316 1_555
O69 Si0 1.683623 1_555
O70 Si16 1.631291 1_665
O71 Si15 1.609871 1_555
