# generated using pymatgen
data_CsMg14C
_symmetry_space_group_name_H-M   'P 1'
_cell_length_a   6.67022757
_cell_length_b   6.25603643
_cell_length_c   10.51255681
_cell_angle_alpha   90.00000000
_cell_angle_beta   90.00000000
_cell_angle_gamma   117.96631172
_symmetry_Int_Tables_number   1
_chemical_formula_structural   CsMg14C
_chemical_formula_sum   'Cs1 Mg14 C1'
_cell_volume   387.45286795
_cell_formula_units_Z   1
loop_
 _symmetry_equiv_pos_site_id
 _symmetry_equiv_pos_as_xyz
  1  'x, y, z'
loop_
 _atom_site_type_symbol
 _atom_site_label
 _atom_site_symmetry_multiplicity
 _atom_site_fract_x
 _atom_site_fract_y
 _atom_site_fract_z
 _atom_site_occupancy
  Cs  Cs0  1  0.09947165  0.29973532  0.12500000  1
  Mg  Mg0  1  0.17287876  0.33643888  0.62500000  1
  Mg  Mg1  1  0.15418911  0.82709405  0.62500000  1
  Mg  Mg2  1  0.60271107  0.30211317  0.12500000  1
  Mg  Mg3  1  0.65514174  0.33365713  0.62500000  1
  Mg  Mg4  1  0.60271107  0.80059691  0.12500000  1
  Mg  Mg5  1  0.65514174  0.82148362  0.62500000  1
  Mg  Mg6  1  0.34367823  0.16133024  0.38154188  1
  Mg  Mg7  1  0.34367823  0.16133024  0.86845812  1
  Mg  Mg8  1  0.34367823  0.68234899  0.38154188  1
  Mg  Mg9  1  0.34367823  0.68234899  0.86845812  1
  Mg  Mg10  1  0.82418993  0.16209547  0.40266169  1
  Mg  Mg11  1  0.82418993  0.16209547  0.84733831  1
  Mg  Mg12  1  0.83987665  0.66993883  0.35839337  1
  Mg  Mg13  1  0.83987665  0.66993883  0.89160663  1
  C  C0  1  0.35490877  0.92745389  0.12500000  1
loop_
_geom_bond_atom_site_label_1
_geom_bond_atom_site_label_2
_geom_bond_distance
_geom_bond_site_symmetry_2
Cs0 Mg4 3.320508 1_445
Cs0 Mg2 3.320508 1_455
Cs0 Mg11 3.339208 1_454
Cs0 Mg10 3.339208 1_455
Cs0 Mg4 3.349771 1_555
Cs0 Mg2 3.349771 1_555
Cs0 Mg7 3.463994 1_554
Cs0 Mg6 3.463994 1_555
Cs0 Mg8 3.464000 1_555
Cs0 Mg9 3.464000 1_554
Mg0 Mg10 3.111759 1_455
Mg0 Mg11 3.111759 1_455
Mg0 Mg1 3.129955 1_555
Mg0 Mg1 3.129956 1_545
Mg0 Mg6 3.196709 1_555
Mg0 Mg7 3.196709 1_555
Mg0 Mg8 3.196715 1_555
Mg0 Mg9 3.196715 1_555
Mg0 Mg5 3.225001 1_555
Mg0 Mg3 3.225002 1_555
Mg0 Mg5 3.445297 1_445
Mg0 Mg3 3.445297 1_455
Mg1 Mg9 3.168808 1_555
Mg1 Mg8 3.168808 1_555
Mg1 Mg6 3.168813 1_565
Mg1 Mg7 3.168813 1_565
Mg1 Mg3 3.312444 1_455
Mg1 Mg5 3.312445 1_455
Mg1 Mg3 3.358071 1_565
Mg1 Mg5 3.358071 1_555
Mg1 Mg12 3.359174 1_455
Mg1 Mg13 3.359174 1_455
Mg3 Mg5 3.051860 1_555
Mg3 Mg6 3.150887 1_555
Mg3 Mg7 3.150887 1_555
Mg3 Mg5 3.204176 1_545
Mg5 Mg8 3.150888 1_555
Mg5 Mg9 3.150888 1_555
Mg10 Mg3 3.003613 1_555
Mg10 Mg5 3.003619 1_545
Mg10 Mg12 3.163797 1_555
Mg10 Mg12 3.163797 1_545
Mg11 Mg3 3.003613 1_555
Mg11 Mg5 3.003619 1_545
Mg11 Mg13 3.163797 1_555
Mg11 Mg13 3.163797 1_545
Mg12 Mg4 3.225440 1_555
Mg12 Mg2 3.225446 1_555
Mg12 Mg6 3.333663 1_665
Mg12 Mg8 3.333664 1_655
Mg12 Mg6 3.355703 1_555
Mg12 Mg8 3.355703 1_555
Mg12 Mg5 3.371666 1_555
Mg12 Mg3 3.371671 1_555
Mg13 Mg4 3.225440 1_556
Mg13 Mg2 3.225446 1_556
Mg13 Mg7 3.333663 1_665
Mg13 Mg9 3.333664 1_655
Mg13 Mg7 3.355703 1_555
Mg13 Mg9 3.355703 1_555
Mg13 Mg5 3.371666 1_555
Mg13 Mg3 3.371671 1_555
C0 Mg2 2.142948 1_565
C0 Mg4 2.142948 1_555
C0 Cs0 3.471180 1_555
C0 Cs0 3.471180 1_565
