# generated using pymatgen
data_K3NbO8
_symmetry_space_group_name_H-M   'P 1'
_cell_length_a   6.19378575
_cell_length_b   6.19378614
_cell_length_c   6.19378595
_cell_angle_alpha   102.59317867
_cell_angle_beta   113.01588704
_cell_angle_gamma   113.01590371
_symmetry_Int_Tables_number   1
_chemical_formula_structural   K3NbO8
_chemical_formula_sum   'K3 Nb1 O8'
_cell_volume   180.96990938
_cell_formula_units_Z   1
loop_
 _symmetry_equiv_pos_site_id
 _symmetry_equiv_pos_as_xyz
  1  'x, y, z'
loop_
 _atom_site_type_symbol
 _atom_site_label
 _atom_site_symmetry_multiplicity
 _atom_site_fract_x
 _atom_site_fract_y
 _atom_site_fract_z
 _atom_site_occupancy
  K  K0  1  0.50000000  0.25000000  0.75000000  1
  K  K1  1  0.50000000  0.75000000  0.25000000  1
  K  K2  1  0.00000000  0.50000000  0.50000000  1
  Nb  Nb0  1  0.00000000  -0.00000000  0.00000000  1
  O  O0  1  0.57123722  0.80726940  0.80726940  1
  O  O1  1  -0.00000000  0.19273060  0.76396782  1
  O  O2  1  0.00000000  0.76396782  0.19273060  1
  O  O3  1  0.42876278  0.23603218  0.23603218  1
  O  O4  1  0.28438438  0.33470485  0.33470485  1
  O  O5  1  -0.00000000  0.66529515  0.94967853  1
  O  O6  1  0.00000000  0.94967853  0.66529515  1
  O  O7  1  0.71561562  0.05032147  0.05032147  1
loop_
_geom_bond_atom_site_label_1
_geom_bond_atom_site_label_2
_geom_bond_distance
_geom_bond_site_symmetry_2
K0 O7 2.669334 1_556
K0 O4 2.669335 1_555
K0 O6 2.669336 1_545
K0 O5 2.669336 1_655
K0 O1 3.014620 1_555
K0 O2 3.014620 1_656
K0 O3 3.014621 1_555
K0 O0 3.014621 1_545
K0 O3 3.222876 1_556
K0 O1 3.222876 1_655
K0 O2 3.222876 1_545
K0 O0 3.222876 1_555
K1 O7 2.669333 1_565
K1 O4 2.669335 1_555
K1 O6 2.669336 1_655
K1 O5 2.669336 1_554
K1 O0 3.014620 1_554
K1 O2 3.014620 1_555
K1 O1 3.014620 1_665
K1 O3 3.014620 1_555
K1 O2 3.222876 1_655
K1 O1 3.222876 1_554
K1 O0 3.222876 1_555
K1 O3 3.222877 1_565
K2 O7 2.749939 1_455
K2 O5 2.749940 1_555
K2 O6 2.749940 1_555
K2 O4 2.749946 1_555
K2 O3 2.766214 1_455
K2 O0 2.766214 1_555
K2 O2 2.766214 1_555
K2 O1 2.766214 1_555
Nb0 O6 2.028077 1_544
Nb0 O5 2.028077 1_544
Nb0 O4 2.028077 1_555
Nb0 O7 2.028083 1_455
Nb0 O0 2.079237 1_444
Nb0 O3 2.079237 1_555
Nb0 O1 2.079237 1_554
Nb0 O2 2.079237 1_545
O0 O7 1.496193 1_566
O1 O6 1.496192 1_545
O2 O5 1.496192 1_554
O3 O4 1.496187 1_555
