# generated using pymatgen
data_SbOsSe
_symmetry_space_group_name_H-M   'P 1'
_cell_length_a   6.37581400
_cell_length_b   6.45422090
_cell_length_c   6.49828249
_cell_angle_alpha   112.91481499
_cell_angle_beta   90.00000000
_cell_angle_gamma   90.00000000
_symmetry_Int_Tables_number   1
_chemical_formula_structural   SbOsSe
_chemical_formula_sum   'Sb4 Os4 Se4'
_cell_volume   246.30750612
_cell_formula_units_Z   4
loop_
 _symmetry_equiv_pos_site_id
 _symmetry_equiv_pos_as_xyz
  1  'x, y, z'
loop_
 _atom_site_type_symbol
 _atom_site_label
 _atom_site_symmetry_multiplicity
 _atom_site_fract_x
 _atom_site_fract_y
 _atom_site_fract_z
 _atom_site_occupancy
  Sb  Sb0  1  0.13538400  0.85603500  0.12064700  1
  Sb  Sb1  1  0.63538400  0.14396500  0.37935300  1
  Sb  Sb2  1  0.86461600  0.14396500  0.87935300  1
  Sb  Sb3  1  0.36461600  0.85603500  0.62064700  1
  Os  Os0  1  0.50459600  0.71317600  0.19982400  1
  Os  Os1  1  0.00459600  0.28682400  0.30017600  1
  Os  Os2  1  0.49540400  0.28682400  0.80017600  1
  Os  Os3  1  0.99540400  0.71317600  0.69982400  1
  Se  Se0  1  0.86550400  0.65047100  0.31778600  1
  Se  Se1  1  0.36550400  0.34952900  0.18221400  1
  Se  Se2  1  0.13449600  0.34952900  0.68221400  1
  Se  Se3  1  0.63449600  0.65047100  0.81778600  1
loop_
_geom_bond_atom_site_label_1
_geom_bond_atom_site_label_2
_geom_bond_distance
_geom_bond_site_symmetry_2
Sb0 Se0 2.772327 1_455
Sb1 Se1 2.772327 1_555
Sb2 Se2 2.772327 1_655
Sb3 Se3 2.772327 1_555
Os0 Se1 2.469632 1_555
Os0 Se3 2.496114 1_554
Os0 Se0 2.507580 1_555
Os0 Sb0 2.650616 1_555
Os0 Sb3 2.676074 1_555
Os0 Sb1 2.694642 1_565
Os1 Se0 2.469632 1_455
Os1 Se2 2.496114 1_555
Os1 Se1 2.507580 1_555
Os1 Sb1 2.650616 1_455
Os1 Sb2 2.676074 1_454
Os1 Sb0 2.694642 1_545
Os2 Se3 2.469632 1_555
Os2 Se1 2.496114 1_556
Os2 Se2 2.507580 1_555
Os2 Sb2 2.650616 1_555
Os2 Sb1 2.676074 1_555
Os2 Sb3 2.694642 1_545
Os3 Se2 2.469632 1_655
Os3 Se0 2.496114 1_555
Os3 Se3 2.507580 1_555
Os3 Sb3 2.650616 1_655
Os3 Sb0 2.676074 1_656
Os3 Sb2 2.694642 1_565
