# generated using pymatgen
data_V(Mo3Se4)2
_symmetry_space_group_name_H-M   'P 1'
_cell_length_a   6.68459888
_cell_length_b   6.68459888
_cell_length_c   6.68459857
_cell_angle_alpha   90.80176318
_cell_angle_beta   90.80176318
_cell_angle_gamma   90.80176983
_symmetry_Int_Tables_number   1
_chemical_formula_structural   V(Mo3Se4)2
_chemical_formula_sum   'V1 Mo6 Se8'
_cell_volume   298.60512165
_cell_formula_units_Z   1
loop_
 _symmetry_equiv_pos_site_id
 _symmetry_equiv_pos_as_xyz
  1  'x, y, z'
loop_
 _atom_site_type_symbol
 _atom_site_label
 _atom_site_symmetry_multiplicity
 _atom_site_fract_x
 _atom_site_fract_y
 _atom_site_fract_z
 _atom_site_occupancy
  V  V0  1  0.00000000  0.00000000  0.00000000  1
  Mo  Mo0  1  0.22686400  0.54998800  0.42351600  1
  Mo  Mo1  1  0.77313600  0.45001200  0.57648400  1
  Mo  Mo2  1  0.42351600  0.22686400  0.54998800  1
  Mo  Mo3  1  0.57648400  0.77313600  0.45001200  1
  Mo  Mo4  1  0.54998800  0.42351600  0.22686400  1
  Mo  Mo5  1  0.45001200  0.57648400  0.77313600  1
  Se  Se0  1  0.12210900  0.35990200  0.75861400  1
  Se  Se1  1  0.87789100  0.64009800  0.24138600  1
  Se  Se2  1  0.22449400  0.22449400  0.22449400  1
  Se  Se3  1  0.77550600  0.77550600  0.77550600  1
  Se  Se4  1  0.35990200  0.75861400  0.12210900  1
  Se  Se5  1  0.64009800  0.24138600  0.87789100  1
  Se  Se6  1  0.75861400  0.12210900  0.35990200  1
  Se  Se7  1  0.24138600  0.87789100  0.64009800  1
loop_
_geom_bond_atom_site_label_1
_geom_bond_atom_site_label_2
_geom_bond_distance
_geom_bond_site_symmetry_2
Mo0 Se2 2.534107 1_555
Mo0 Se7 2.609822 1_555
Mo0 Se4 2.624719 1_555
Mo0 Se0 2.687215 1_555
Mo0 Se1 2.695758 1_455
Mo1 Se3 2.534107 1_555
Mo1 Se6 2.609822 1_555
Mo1 Se5 2.624719 1_555
Mo1 Se1 2.687215 1_555
Mo1 Se0 2.695758 1_655
Mo2 Se2 2.534106 1_555
Mo2 Se5 2.609822 1_555
Mo2 Se0 2.624719 1_555
Mo2 Se6 2.687215 1_555
Mo2 Se7 2.695758 1_545
Mo3 Se3 2.534106 1_555
Mo3 Se4 2.609822 1_555
Mo3 Se1 2.624719 1_555
Mo3 Se7 2.687215 1_555
Mo3 Se6 2.695758 1_565
Mo4 Se2 2.534106 1_555
Mo4 Se1 2.609822 1_555
Mo4 Se6 2.624719 1_555
Mo4 Se4 2.687215 1_555
Mo4 Se5 2.695758 1_554
Mo5 Se3 2.534106 1_555
Mo5 Se0 2.609822 1_555
Mo5 Se7 2.624719 1_555
Mo5 Se5 2.687215 1_555
Mo5 Se4 2.695758 1_556
Se0 V0 3.024613 1_556
Se1 V0 3.024613 1_665
Se2 V0 2.562577 1_555
Se3 V0 2.562577 1_666
Se4 V0 3.024613 1_565
Se5 V0 3.024613 1_656
Se6 V0 3.024613 1_655
Se7 V0 3.024613 1_566
