# generated using pymatgen
data_Ba2Mo2F11
_symmetry_space_group_name_H-M   'P 1'
_cell_length_a   8.03345825
_cell_length_b   8.03345825
_cell_length_c   14.64604800
_cell_angle_alpha   90.00000000
_cell_angle_beta   90.00000000
_cell_angle_gamma   120.00000208
_symmetry_Int_Tables_number   1
_chemical_formula_structural   Ba2Mo2F11
_chemical_formula_sum   'Ba6 Mo6 F33'
_cell_volume   818.57062948
_cell_formula_units_Z   3
loop_
 _symmetry_equiv_pos_site_id
 _symmetry_equiv_pos_as_xyz
  1  'x, y, z'
loop_
 _atom_site_type_symbol
 _atom_site_label
 _atom_site_symmetry_multiplicity
 _atom_site_fract_x
 _atom_site_fract_y
 _atom_site_fract_z
 _atom_site_occupancy
  Ba  Ba0  1  0.93504500  0.85968500  0.64998100  1
  Ba  Ba1  1  0.48726000  0.07631000  0.80750100  1
  Ba  Ba2  1  0.92464000  0.06495500  0.98331400  1
  Ba  Ba3  1  0.92369000  0.41095100  0.47416800  1
  Ba  Ba4  1  0.58904900  0.51274000  0.14083400  1
  Ba  Ba5  1  0.14031500  0.07536000  0.31664800  1
  Mo  Mo0  1  0.93560600  0.60009800  0.88854100  1
  Mo  Mo1  1  0.18897100  0.43993800  0.72941500  1
  Mo  Mo2  1  0.56006200  0.74903300  0.39608200  1
  Mo  Mo3  1  0.66449200  0.06439400  0.22187400  1
  Mo  Mo4  1  0.25096700  0.81102900  0.06274800  1
  Mo  Mo5  1  0.39990200  0.33550800  0.55520700  1
  F  F0  1  0.95997900  0.68094000  0.03352500  1
  F  F1  1  0.82895800  0.32925000  0.94442200  1
  F  F2  1  0.72096100  0.04002100  0.36685900  1
  F  F3  1  0.53026600  0.19671400  0.50116600  1
  F  F4  1  0.84691800  0.96566200  0.17792700  1
  F  F5  1  0.25616600  0.25112900  0.16357200  1
  F  F6  1  0.80328600  0.33355100  0.16783300  1
  F  F7  1  0.74887100  0.00503700  0.83023800  1
  F  F8  1  0.11874400  0.15308200  0.51126000  1
  F  F9  1  0.54562600  0.98240200  0.08692300  1
  F  F10  1  0.66644900  0.46973400  0.83450000  1
  F  F11  1  0.31906000  0.27903900  0.70019200  1
  F  F12  1  0.66067200  0.72135200  0.00478000  1
  F  F13  1  0.28009500  0.04933100  0.00711600  1
  F  F14  1  0.06068000  0.33932800  0.33811300  1
  F  F15  1  0.67075000  0.49970800  0.61108800  1
  F  F16  1  0.24926700  0.74684100  0.92461800  1
  F  F17  1  0.43677600  0.45437400  0.42025600  1
  F  F18  1  0.32232800  0.74764400  0.41183400  1
  F  F19  1  0.27864800  0.93932000  0.67144700  1
  F  F20  1  0.42531600  0.67767200  0.74516700  1
  F  F21  1  0.95066900  0.23076400  0.67378300  1
  F  F22  1  0.76923600  0.71990500  0.34045000  1
  F  F23  1  0.49757400  0.75073300  0.25795100  1
  F  F24  1  0.01759800  0.56322400  0.75359000  1
  F  F25  1  0.03433800  0.88125600  0.84459400  1
  F  F26  1  0.50029200  0.17104200  0.27775500  1
  F  F27  1  0.15527900  0.35579000  0.85474800  1
  F  F28  1  0.20051000  0.84472100  0.18808200  1
  F  F29  1  0.25235600  0.57468400  0.07850000  1
  F  F30  1  0.99496300  0.74383400  0.49690500  1
  F  F31  1  0.25315900  0.50242600  0.59128500  1
  F  F32  1  0.64421000  0.79949000  0.52141500  1
loop_
_geom_bond_atom_site_label_1
_geom_bond_atom_site_label_2
_geom_bond_distance
_geom_bond_site_symmetry_2
Ba0 F19 2.522218 1_655
Ba0 F30 2.563636 1_555
Ba0 F15 2.656185 1_555
Ba0 F32 2.847536 1_555
Ba0 F8 2.895302 1_665
Ba0 F21 2.941047 1_565
Ba0 F25 2.941487 1_655
Ba1 F7 2.461495 1_555
Ba1 F19 2.479118 1_545
Ba1 F10 2.769118 1_555
Ba1 F16 2.922786 1_545
Ba1 F11 3.024719 1_555
Ba1 F20 3.121397 1_545
Ba1 F1 3.179258 1_555
Ba1 F25 3.207487 1_545
Ba1 F13 3.317118 1_556
Ba2 F12 2.522218 1_546
Ba2 F7 2.563636 1_555
Ba2 F1 2.656182 1_555
Ba2 F27 2.847534 1_655
Ba2 F25 2.895292 1_645
Ba2 F13 2.941047 1_656
Ba2 F4 2.941487 1_546
Ba3 F30 2.461487 1_555
Ba3 F14 2.479134 1_655
Ba3 F3 2.769116 1_555
Ba3 F31 2.922788 1_655
Ba3 F2 3.024725 1_555
Ba3 F18 3.121394 1_655
Ba3 F15 3.179244 1_555
Ba3 F8 3.207492 1_655
Ba3 F21 3.317122 1_555
Ba4 F5 2.461492 1_555
Ba4 F12 2.479118 1_555
Ba4 F6 2.769132 1_555
Ba4 F23 2.922781 1_555
Ba4 F0 3.024725 1_555
Ba4 F29 3.121390 1_555
Ba4 F26 3.179259 1_555
Ba4 F4 3.207487 1_555
Ba4 F22 3.317132 1_555
Ba5 F14 2.522216 1_555
Ba5 F5 2.563636 1_555
Ba5 F26 2.656185 1_555
Ba5 F28 2.847530 1_545
Ba5 F4 2.895303 1_445
Ba5 F22 2.941047 1_445
Ba5 F8 2.941473 1_555
F0 Mo4 2.072902 1_655
F0 Mo0 2.200445 1_554
F1 Mo0 2.067367 1_555
F2 Mo2 2.072902 1_545
F2 Mo3 2.200459 1_555
F3 Mo5 2.033262 1_555
F4 Mo3 2.086503 1_565
F6 Mo3 2.033256 1_555
F8 Mo5 2.086503 1_555
F9 Mo4 2.089295 1_555
F9 Mo3 2.150180 1_565
F10 Mo0 2.033256 1_555
F11 Mo1 2.072902 1_555
F11 Mo5 2.200459 1_555
F13 Mo4 1.983824 1_545
F15 Mo5 2.067367 1_555
F16 Mo4 2.086099 1_556
F16 Mo0 2.246717 1_455
F17 Mo2 2.089292 1_555
F17 Mo5 2.150180 1_555
F18 Mo2 1.918196 1_555
F20 Mo1 1.918196 1_555
F21 Mo1 1.983824 1_655
F22 Mo2 1.983824 1_555
F23 Mo2 2.086113 1_555
F23 Mo3 2.246717 1_565
F24 Mo1 2.089295 1_555
F24 Mo0 2.150180 1_455
F25 Mo0 2.086503 1_455
F26 Mo3 2.067367 1_555
F27 Mo1 1.927904 1_555
F28 Mo4 1.927920 1_555
F29 Mo4 1.918196 1_555
F31 Mo1 2.086099 1_555
F31 Mo5 2.246720 1_555
F32 Mo2 1.927904 1_555
