# generated using pymatgen
data_TbCoO3
_symmetry_space_group_name_H-M   'P 1'
_cell_length_a   5.14811318
_cell_length_b   5.40980175
_cell_length_c   7.38391903
_cell_angle_alpha   90.00000000
_cell_angle_beta   90.00000000
_cell_angle_gamma   90.00000000
_symmetry_Int_Tables_number   1
_chemical_formula_structural   TbCoO3
_chemical_formula_sum   'Tb4 Co4 O12'
_cell_volume   205.64415113
_cell_formula_units_Z   4
loop_
 _symmetry_equiv_pos_site_id
 _symmetry_equiv_pos_as_xyz
  1  'x, y, z'
loop_
 _atom_site_type_symbol
 _atom_site_label
 _atom_site_symmetry_multiplicity
 _atom_site_fract_x
 _atom_site_fract_y
 _atom_site_fract_z
 _atom_site_occupancy
  Tb  Tb0  1  0.51742737  0.56773299  0.25000000  1
  Tb  Tb1  1  0.98257263  0.06773299  0.25000000  1
  Tb  Tb2  1  0.48257263  0.43226701  0.75000000  1
  Tb  Tb3  1  0.01742737  0.93226701  0.75000000  1
  Co  Co0  1  -0.00000000  0.50000000  0.00000000  1
  Co  Co1  1  0.50000000  0.00000000  0.50000000  1
  Co  Co2  1  -0.00000000  0.50000000  0.50000000  1
  Co  Co3  1  0.50000000  0.00000000  0.00000000  1
  O  O0  1  0.40591657  0.97651334  0.25000000  1
  O  O1  1  0.09408343  0.47651334  0.25000000  1
  O  O2  1  0.59408343  0.02348666  0.75000000  1
  O  O3  1  0.90591657  0.52348666  0.75000000  1
  O  O4  1  0.80423834  0.79926283  0.04770195  1
  O  O5  1  0.69576166  0.29926283  0.45229805  1
  O  O6  1  0.19576166  0.20073717  0.54770195  1
  O  O7  1  0.30423834  0.70073717  0.95229805  1
  O  O8  1  0.19576166  0.20073717  0.95229805  1
  O  O9  1  0.30423834  0.70073717  0.54770195  1
  O  O10  1  0.80423834  0.79926283  0.45229805  1
  O  O11  1  0.69576166  0.29926283  0.04770195  1
loop_
_geom_bond_atom_site_label_1
_geom_bond_atom_site_label_2
_geom_bond_distance
_geom_bond_site_symmetry_2
Co0 O3 1.912690 1_454
Co0 O1 1.912690 1_555
Co0 O7 1.938169 1_554
Co0 O11 1.938169 1_455
Co0 O4 1.939262 1_455
Co0 O8 1.939262 1_554
Co1 O2 1.912690 1_555
Co1 O0 1.912690 1_545
Co1 O6 1.938169 1_555
Co1 O10 1.938169 1_545
Co1 O5 1.939262 1_555
Co1 O9 1.939262 1_545
Co2 O1 1.912690 1_555
Co2 O3 1.912690 1_455
Co2 O9 1.938169 1_555
Co2 O5 1.938169 1_455
Co2 O10 1.939262 1_455
Co2 O6 1.939262 1_555
Co3 O2 1.912690 1_554
Co3 O0 1.912690 1_545
Co3 O8 1.938169 1_554
Co3 O4 1.938169 1_545
Co3 O11 1.939262 1_555
Co3 O7 1.939262 1_544
O0 Tb1 2.234593 1_465
O0 Tb0 2.284718 1_555
O1 Tb0 2.234593 1_555
O1 Tb1 2.284718 1_455
O2 Tb3 2.234593 1_645
O2 Tb2 2.284718 1_555
O3 Tb2 2.234593 1_555
O3 Tb3 2.284718 1_655
O4 Tb1 2.276742 1_565
O4 Tb0 2.445462 1_555
O4 Tb3 2.560153 1_654
O5 Tb0 2.276742 1_555
O5 Tb1 2.445462 1_555
O5 Tb2 2.560153 1_555
O6 Tb3 2.276742 1_545
O6 Tb2 2.445462 1_555
O6 Tb1 2.560153 1_455
O7 Tb2 2.276742 1_555
O7 Tb3 2.445462 1_555
O7 Tb0 2.560153 1_556
O8 Tb3 2.276742 1_545
O8 Tb2 2.445462 1_555
O8 Tb1 2.560153 1_456
O9 Tb2 2.276742 1_555
O9 Tb3 2.445462 1_555
O9 Tb0 2.560153 1_555
O10 Tb1 2.276742 1_565
O10 Tb0 2.445462 1_555
O10 Tb3 2.560153 1_655
O11 Tb0 2.276742 1_555
O11 Tb1 2.445462 1_555
O11 Tb2 2.560153 1_554
