# generated using pymatgen
data_Eu5Ga9
_symmetry_space_group_name_H-M   'P 1'
_cell_length_a   5.85951832
_cell_length_b   5.85951832
_cell_length_c   25.61244200
_cell_angle_alpha   90.00000000
_cell_angle_beta   90.00000000
_cell_angle_gamma   133.85022527
_symmetry_Int_Tables_number   1
_chemical_formula_structural   Eu5Ga9
_chemical_formula_sum   'Eu10 Ga18'
_cell_volume   634.16514367
_cell_formula_units_Z   2
loop_
 _symmetry_equiv_pos_site_id
 _symmetry_equiv_pos_as_xyz
  1  'x, y, z'
loop_
 _atom_site_type_symbol
 _atom_site_label
 _atom_site_symmetry_multiplicity
 _atom_site_fract_x
 _atom_site_fract_y
 _atom_site_fract_z
 _atom_site_occupancy
  Eu  Eu0  1  0.34938300  0.65061700  0.04144300  1
  Eu  Eu1  1  0.65061700  0.34938300  0.95855700  1
  Eu  Eu2  1  0.34938300  0.65061700  0.45855700  1
  Eu  Eu3  1  0.65061700  0.34938300  0.54144300  1
  Eu  Eu4  1  0.84356600  0.15643400  0.83282200  1
  Eu  Eu5  1  0.15643400  0.84356600  0.16717800  1
  Eu  Eu6  1  0.84356600  0.15643400  0.66717800  1
  Eu  Eu7  1  0.15643400  0.84356600  0.33282200  1
  Eu  Eu8  1  0.87180400  0.12819600  0.25000000  1
  Eu  Eu9  1  0.12819600  0.87180400  0.75000000  1
  Ga  Ga0  1  0.45553000  0.54447000  0.16078000  1
  Ga  Ga1  1  0.54447000  0.45553000  0.83922000  1
  Ga  Ga2  1  0.45553000  0.54447000  0.33922000  1
  Ga  Ga3  1  0.54447000  0.45553000  0.66078000  1
  Ga  Ga4  1  0.95248500  0.04751500  0.95288600  1
  Ga  Ga5  1  0.04751500  0.95248500  0.04711400  1
  Ga  Ga6  1  0.95248500  0.04751500  0.54711400  1
  Ga  Ga7  1  0.04751500  0.95248500  0.45288600  1
  Ga  Ga8  1  0.86580600  0.13419400  0.12310100  1
  Ga  Ga9  1  0.13419400  0.86580600  0.87689900  1
  Ga  Ga10  1  0.86580600  0.13419400  0.37689900  1
  Ga  Ga11  1  0.13419400  0.86580600  0.62310100  1
  Ga  Ga12  1  0.36298200  0.63701800  0.91589600  1
  Ga  Ga13  1  0.63701800  0.36298200  0.08410400  1
  Ga  Ga14  1  0.36298200  0.63701800  0.58410400  1
  Ga  Ga15  1  0.63701800  0.36298200  0.41589600  1
  Ga  Ga16  1  0.42263200  0.57736800  0.75000000  1
  Ga  Ga17  1  0.57736800  0.42263200  0.25000000  1
loop_
_geom_bond_atom_site_label_1
_geom_bond_atom_site_label_2
_geom_bond_distance
_geom_bond_site_symmetry_2
Eu0 Ga8 3.111217 1_565
Eu0 Ga8 3.111217 1_455
Eu0 Ga5 3.139799 1_655
Eu0 Ga5 3.139799 1_545
Eu0 Ga12 3.218906 1_554
Eu0 Ga5 3.257810 1_555
Eu0 Ga0 3.263733 1_555
Eu0 Ga13 3.287982 1_555
Eu0 Ga4 3.413839 1_564
Eu0 Ga4 3.413839 1_454
Eu0 Ga13 3.422027 1_565
Eu0 Ga13 3.422027 1_455
Eu1 Ga9 3.111217 1_655
Eu1 Ga9 3.111217 1_545
Eu1 Ga4 3.139799 1_565
Eu1 Ga4 3.139799 1_455
Eu1 Ga13 3.218906 1_556
Eu1 Ga4 3.257810 1_555
Eu1 Ga1 3.263733 1_555
Eu1 Ga12 3.287982 1_555
Eu1 Ga5 3.413839 1_656
Eu1 Ga5 3.413839 1_546
Eu1 Ga12 3.422027 1_655
Eu1 Ga12 3.422027 1_545
Eu2 Ga10 3.111217 1_455
Eu2 Ga10 3.111217 1_565
Eu2 Ga7 3.139799 1_655
Eu2 Ga7 3.139799 1_545
Eu2 Ga14 3.218906 1_555
Eu2 Ga7 3.257810 1_555
Eu2 Ga2 3.263733 1_555
Eu2 Ga15 3.287982 1_555
Eu2 Ga6 3.413839 1_565
Eu2 Ga6 3.413839 1_455
Eu2 Ga15 3.422027 1_565
Eu2 Ga15 3.422027 1_455
Eu3 Ga11 3.111217 1_655
Eu3 Ga11 3.111217 1_545
Eu3 Ga6 3.139799 1_565
Eu3 Ga6 3.139799 1_455
Eu3 Ga15 3.218906 1_555
Eu3 Ga6 3.257810 1_555
Eu3 Ga3 3.263733 1_555
Eu3 Ga14 3.287982 1_555
Eu3 Ga7 3.413839 1_655
Eu3 Ga7 3.413839 1_545
Eu3 Ga14 3.422027 1_655
Eu3 Ga14 3.422027 1_545
Eu4 Ga12 3.137700 1_545
Eu4 Ga12 3.137700 1_655
Eu4 Ga1 3.161118 1_545
Eu4 Ga1 3.161118 1_655
Eu4 Ga1 3.228845 1_555
Eu4 Ga16 3.240460 1_545
Eu4 Ga16 3.240460 1_655
Eu4 Ga4 3.291721 1_555
Eu4 Ga9 3.330552 1_645
Eu4 Ga9 3.412348 1_545
Eu4 Ga9 3.412348 1_655
Eu5 Ga13 3.137700 1_565
Eu5 Ga13 3.137700 1_455
Eu5 Ga0 3.161118 1_455
Eu5 Ga0 3.161118 1_565
Eu5 Ga0 3.228845 1_555
Eu5 Ga17 3.240460 1_455
Eu5 Ga17 3.240460 1_565
Eu5 Ga5 3.291721 1_555
Eu5 Ga8 3.330552 1_465
Eu5 Ga8 3.412348 1_455
Eu5 Ga8 3.412348 1_565
Eu6 Ga14 3.137700 1_545
Eu6 Ga14 3.137700 1_655
Eu6 Ga3 3.161118 1_545
Eu6 Ga3 3.161118 1_655
Eu6 Ga3 3.228845 1_555
Eu6 Ga16 3.240460 1_545
Eu6 Ga16 3.240460 1_655
Eu6 Ga6 3.291721 1_555
Eu6 Ga11 3.330552 1_645
Eu6 Ga11 3.412348 1_545
Eu6 Ga11 3.412348 1_655
Eu7 Ga15 3.137700 1_455
Eu7 Ga15 3.137700 1_565
Eu7 Ga2 3.161118 1_455
Eu7 Ga2 3.161118 1_565
Eu7 Ga2 3.228845 1_555
Eu7 Ga17 3.240460 1_455
Eu7 Ga17 3.240460 1_565
Eu7 Ga7 3.291721 1_555
Eu7 Ga10 3.330552 1_465
Eu7 Ga10 3.412348 1_455
Eu7 Ga10 3.412348 1_565
Eu8 Ga17 3.174443 1_555
Eu8 Ga17 3.191550 1_545
Eu8 Ga17 3.191550 1_655
Eu8 Ga10 3.250837 1_555
Eu8 Ga8 3.250837 1_555
Eu8 Ga0 3.363158 1_545
Eu8 Ga2 3.363158 1_545
Eu8 Ga0 3.363158 1_655
Eu8 Ga2 3.363158 1_655
Eu9 Ga16 3.174443 1_555
Eu9 Ga16 3.191550 1_455
Eu9 Ga16 3.191550 1_565
Eu9 Ga11 3.250837 1_555
Eu9 Ga9 3.250837 1_555
Eu9 Ga3 3.363158 1_455
Eu9 Ga1 3.363158 1_455
Eu9 Ga3 3.363158 1_565
Eu9 Ga1 3.363158 1_565
Ga0 Ga17 2.635790 1_555
Ga0 Ga8 2.672304 1_565
Ga0 Ga8 2.672304 1_455
Ga0 Ga13 2.772260 1_555
Ga1 Ga16 2.635790 1_555
Ga1 Ga9 2.672304 1_655
Ga1 Ga9 2.672304 1_545
Ga1 Ga12 2.772260 1_555
Ga4 Ga5 2.621882 1_646
Ga4 Ga9 2.761477 1_645
Ga5 Ga8 2.761477 1_465
Ga6 Ga7 2.621882 1_645
Ga10 Ga15 2.661211 1_555
Ga10 Ga2 2.672304 1_655
Ga10 Ga2 2.672304 1_545
Ga10 Ga7 2.761477 1_645
Ga11 Ga14 2.661211 1_555
Ga11 Ga3 2.672304 1_455
Ga11 Ga3 2.672304 1_565
Ga11 Ga6 2.761477 1_465
Ga12 Ga9 2.661211 1_555
Ga12 Ga4 2.665119 1_565
Ga12 Ga4 2.665119 1_455
Ga13 Ga8 2.661211 1_555
Ga13 Ga5 2.665119 1_655
Ga13 Ga5 2.665119 1_545
Ga14 Ga6 2.665119 1_565
Ga14 Ga6 2.665119 1_455
Ga14 Ga3 2.772260 1_555
Ga15 Ga7 2.665119 1_655
Ga15 Ga7 2.665119 1_545
Ga15 Ga2 2.772260 1_555
Ga16 Ga3 2.635790 1_555
Ga17 Ga2 2.635790 1_555
