# generated using pymatgen
data_Yb5Zr3(Ni4As3)4
_symmetry_space_group_name_H-M   'P 1'
_cell_length_a   12.63602153
_cell_length_b   12.63602153
_cell_length_c   3.87052979
_cell_angle_alpha   90.00000000
_cell_angle_beta   90.00000000
_cell_angle_gamma   120.00000169
_symmetry_Int_Tables_number   1
_chemical_formula_structural   Yb5Zr3(Ni4As3)4
_chemical_formula_sum   'Yb5 Zr3 Ni16 As12'
_cell_volume   535.20695996
_cell_formula_units_Z   1
loop_
 _symmetry_equiv_pos_site_id
 _symmetry_equiv_pos_as_xyz
  1  'x, y, z'
loop_
 _atom_site_type_symbol
 _atom_site_label
 _atom_site_symmetry_multiplicity
 _atom_site_fract_x
 _atom_site_fract_y
 _atom_site_fract_z
 _atom_site_occupancy
  Yb  Yb0  1  0.00000000  0.18306887  0.50000000  1
  Yb  Yb1  1  0.81693113  0.81693113  0.50000000  1
  Yb  Yb2  1  0.18306887  0.00000000  0.50000000  1
  Yb  Yb3  1  0.66666700  0.33333300  0.00000000  1
  Yb  Yb4  1  0.33333300  0.66666700  0.00000000  1
  Zr  Zr0  1  1.00000000  0.56349672  0.00000000  1
  Zr  Zr1  1  0.43650328  0.43650328  0.00000000  1
  Zr  Zr2  1  0.56349672  1.00000000  0.00000000  1
  Ni  Ni0  1  0.00000000  0.72399573  0.50000000  1
  Ni  Ni1  1  0.27600427  0.27600427  0.50000000  1
  Ni  Ni2  1  0.72399573  0.00000000  0.50000000  1
  Ni  Ni3  1  0.80777109  0.18313971  0.00000000  1
  Ni  Ni4  1  0.81686029  0.62463138  0.00000000  1
  Ni  Ni5  1  0.37536862  0.19222891  0.00000000  1
  Ni  Ni6  1  0.18313971  0.80777109  0.00000000  1
  Ni  Ni7  1  0.62463138  0.81686029  0.00000000  1
  Ni  Ni8  1  0.19222891  0.37536862  0.00000000  1
  Ni  Ni9  1  0.87865739  0.36213884  0.50000000  1
  Ni  Ni10  1  0.63786116  0.51651855  0.50000000  1
  Ni  Ni11  1  0.48348145  0.12134261  0.50000000  1
  Ni  Ni12  1  0.36213884  0.87865739  0.50000000  1
  Ni  Ni13  1  0.51651855  0.63786116  0.50000000  1
  Ni  Ni14  1  0.12134261  0.48348145  0.50000000  1
  Ni  Ni15  1  0.00000000  0.00000000  0.00000000  1
  As  As0  1  0.00000000  0.82267837  0.00000000  1
  As  As1  1  0.17732163  0.17732163  0.00000000  1
  As  As2  1  0.82267837  0.00000000  0.00000000  1
  As  As3  1  0.69367057  0.17371863  0.50000000  1
  As  As4  1  0.82628137  0.51995194  0.50000000  1
  As  As5  1  0.48004806  0.30632943  0.50000000  1
  As  As6  1  0.17371863  0.69367057  0.50000000  1
  As  As7  1  0.51995194  0.82628137  0.50000000  1
  As  As8  1  0.30632943  0.48004806  0.50000000  1
  As  As9  1  0.00000000  0.35375881  0.00000000  1
  As  As10  1  0.64624119  0.64624119  0.00000000  1
  As  As11  1  0.35375881  0.00000000  0.00000000  1
loop_
_geom_bond_atom_site_label_1
_geom_bond_atom_site_label_2
_geom_bond_distance
_geom_bond_site_symmetry_2
Ni0 Zr0 2.803268 1_455
Ni0 Zr0 2.803268 1_456
Ni0 Yb2 3.073562 1_565
Ni0 Yb1 3.073562 1_455
Ni1 Zr1 2.803268 1_556
Ni1 Zr1 2.803268 1_555
Ni1 Yb2 3.073562 1_555
Ni1 Yb0 3.073562 1_555
Ni2 Zr2 2.803268 1_545
Ni2 Zr2 2.803268 1_546
Ni2 Yb0 3.073562 1_655
Ni2 Yb1 3.073562 1_545
Ni3 Zr2 2.782043 1_545
Ni3 Yb0 3.106044 1_655
Ni3 Yb0 3.106044 1_654
Ni3 Yb3 3.188218 1_555
Ni4 Zr0 2.782043 1_555
Ni4 Yb1 3.106044 1_554
Ni4 Yb1 3.106044 1_555
Ni4 Yb3 3.188229 1_555
Ni5 Zr1 2.782043 1_555
Ni5 Yb2 3.106044 1_555
Ni5 Yb2 3.106044 1_554
Ni5 Yb3 3.188229 1_555
Ni6 Zr0 2.782043 1_455
Ni6 Yb2 3.106044 1_564
Ni6 Yb2 3.106044 1_565
Ni6 Yb4 3.188218 1_555
Ni7 Zr2 2.782043 1_555
Ni7 Yb1 3.106044 1_554
Ni7 Yb1 3.106044 1_555
Ni7 Yb4 3.188229 1_555
Ni8 Zr1 2.782043 1_555
Ni8 Yb0 3.106044 1_554
Ni8 Yb0 3.106044 1_555
Ni8 Yb4 3.188229 1_555
Ni9 Zr0 2.944276 1_556
Ni9 Zr0 2.944276 1_555
Ni9 Yb3 3.174622 1_555
Ni9 Yb3 3.174622 1_556
Ni9 Yb0 3.307620 1_655
Ni10 Zr1 2.944276 1_556
Ni10 Zr1 2.944276 1_555
Ni10 Yb3 3.174632 1_555
Ni10 Yb3 3.174632 1_556
Ni10 Yb1 3.307619 1_555
Ni11 Zr2 2.944276 1_545
Ni11 Zr2 2.944276 1_546
Ni11 Yb3 3.174626 1_555
Ni11 Yb3 3.174626 1_556
Ni11 Yb2 3.307619 1_555
Ni12 Zr2 2.944276 1_556
Ni12 Zr2 2.944276 1_555
Ni12 Yb4 3.174622 1_555
Ni12 Yb4 3.174622 1_556
Ni12 Yb2 3.307620 1_565
Ni13 Zr1 2.944276 1_556
Ni13 Zr1 2.944276 1_555
Ni13 Yb4 3.174632 1_556
Ni13 Yb4 3.174632 1_555
Ni13 Yb1 3.307619 1_555
Ni14 Zr0 2.944276 1_455
Ni14 Zr0 2.944276 1_456
Ni14 Yb4 3.174626 1_555
Ni14 Yb4 3.174626 1_556
Ni14 Yb0 3.307619 1_555
Ni15 Yb1 3.016029 1_444
Ni15 Yb1 3.016029 1_445
Ni15 Yb0 3.016029 1_554
Ni15 Yb2 3.016029 1_554
Ni15 Yb2 3.016029 1_555
Ni15 Yb0 3.016029 1_555
As0 Ni15 2.240640 1_565
As0 Ni0 2.302205 1_555
As0 Ni0 2.302205 1_554
As0 Ni4 2.413860 1_455
As0 Ni6 2.413860 1_555
As0 Yb2 2.988932 1_565
As0 Yb2 2.988932 1_564
As0 Yb1 2.988932 1_455
As0 Yb1 2.988932 1_454
As1 Ni15 2.240640 1_555
As1 Ni1 2.302205 1_555
As1 Ni1 2.302205 1_554
As1 Ni8 2.413860 1_555
As1 Ni5 2.413860 1_555
As1 Yb2 2.988932 1_554
As1 Yb2 2.988932 1_555
As1 Yb0 2.988932 1_555
As1 Yb0 2.988932 1_554
As2 Ni15 2.240640 1_655
As2 Ni2 2.302205 1_554
As2 Ni2 2.302205 1_555
As2 Ni7 2.413860 1_545
As2 Ni3 2.413860 1_555
As2 Yb0 2.988932 1_655
As2 Yb0 2.988932 1_654
As2 Yb1 2.988932 1_545
As2 Yb1 2.988932 1_544
As3 Ni9 2.359489 1_555
As3 Ni3 2.380442 1_555
As3 Ni3 2.380442 1_556
As3 Ni11 2.394646 1_555
As3 Ni2 2.409667 1_555
As3 Zr2 2.767436 1_545
As3 Zr2 2.767436 1_546
As3 Yb3 2.935596 1_555
As3 Yb3 2.935596 1_556
As4 Ni10 2.359489 1_555
As4 Ni4 2.380442 1_556
As4 Ni4 2.380442 1_555
As4 Ni9 2.394646 1_555
As4 Ni0 2.409667 1_655
As4 Zr0 2.767436 1_556
As4 Zr0 2.767436 1_555
As4 Yb3 2.935602 1_555
As4 Yb3 2.935602 1_556
As5 Ni11 2.359489 1_555
As5 Ni5 2.380442 1_556
As5 Ni5 2.380442 1_555
As5 Ni10 2.394646 1_555
As5 Ni1 2.409667 1_555
As5 Zr1 2.767436 1_555
As5 Zr1 2.767436 1_556
As5 Yb3 2.935606 1_555
As5 Yb3 2.935606 1_556
As6 Ni12 2.359489 1_555
As6 Ni6 2.380442 1_555
As6 Ni6 2.380442 1_556
As6 Ni14 2.394646 1_555
As6 Ni0 2.409667 1_555
As6 Zr0 2.767436 1_455
As6 Zr0 2.767436 1_456
As6 Yb4 2.935596 1_555
As6 Yb4 2.935596 1_556
As7 Ni13 2.359489 1_555
As7 Ni7 2.380442 1_555
As7 Ni7 2.380442 1_556
As7 Ni12 2.394646 1_555
As7 Ni2 2.409667 1_565
As7 Zr2 2.767436 1_555
As7 Zr2 2.767436 1_556
As7 Yb4 2.935602 1_555
As7 Yb4 2.935602 1_556
As8 Ni14 2.359489 1_555
As8 Ni8 2.380442 1_555
As8 Ni8 2.380442 1_556
As8 Ni13 2.394646 1_555
As8 Ni1 2.409667 1_555
As8 Zr1 2.767436 1_556
As8 Zr1 2.767436 1_555
As8 Yb4 2.935606 1_556
As8 Yb4 2.935606 1_555
As9 Ni3 2.304642 1_455
As9 Ni8 2.304642 1_555
As9 Ni14 2.503956 1_554
As9 Ni14 2.503956 1_555
As9 Ni9 2.503956 1_455
As9 Ni9 2.503956 1_454
As9 Zr0 2.650253 1_455
As9 Yb0 2.897795 1_555
As9 Yb0 2.897795 1_554
As10 Ni7 2.304642 1_555
As10 Ni4 2.304642 1_555
As10 Ni10 2.503956 1_554
As10 Ni13 2.503956 1_555
As10 Ni10 2.503956 1_555
As10 Ni13 2.503956 1_554
As10 Zr1 2.650253 1_555
As10 Yb1 2.897795 1_554
As10 Yb1 2.897795 1_555
As11 Ni6 2.304642 1_545
As11 Ni5 2.304642 1_555
As11 Ni11 2.503956 1_554
As11 Ni11 2.503956 1_555
As11 Ni12 2.503956 1_544
As11 Ni12 2.503956 1_545
As11 Zr2 2.650253 1_545
As11 Yb2 2.897795 1_555
As11 Yb2 2.897795 1_554
