# generated using pymatgen
data_Nd2CuGe6
_symmetry_space_group_name_H-M   'P 1'
_cell_length_a   11.15721371
_cell_length_b   11.15721371
_cell_length_c   4.16393100
_cell_angle_alpha   90.00000000
_cell_angle_beta   90.00000000
_cell_angle_gamma   158.75310895
_symmetry_Int_Tables_number   1
_chemical_formula_structural   Nd2CuGe6
_chemical_formula_sum   'Nd2 Cu1 Ge6'
_cell_volume   187.84005036
_cell_formula_units_Z   1
loop_
 _symmetry_equiv_pos_site_id
 _symmetry_equiv_pos_as_xyz
  1  'x, y, z'
loop_
 _atom_site_type_symbol
 _atom_site_label
 _atom_site_symmetry_multiplicity
 _atom_site_fract_x
 _atom_site_fract_y
 _atom_site_fract_z
 _atom_site_occupancy
  Nd  Nd0  1  0.99693700  0.00306300  0.00000000  1
  Nd  Nd1  1  0.33004800  0.66995200  0.00000000  1
  Cu  Cu0  1  0.77380800  0.22619200  0.50000000  1
  Ge  Ge0  1  0.71601500  0.28398500  0.00000000  1
  Ge  Ge1  1  0.60273700  0.39726300  0.00000000  1
  Ge  Ge2  1  0.45087600  0.54912400  0.50000000  1
  Ge  Ge3  1  0.88175800  0.11824200  0.50000000  1
  Ge  Ge4  1  0.10142800  0.89857200  0.50000000  1
  Ge  Ge5  1  0.21539200  0.78460800  0.50000000  1
loop_
_geom_bond_atom_site_label_1
_geom_bond_atom_site_label_2
_geom_bond_distance
_geom_bond_site_symmetry_2
Cu0 Ge3 2.367555 1_555
Cu0 Ge5 2.423249 1_545
Cu0 Ge5 2.423249 1_655
Cu0 Ge0 2.437452 1_555
Cu0 Ge0 2.437452 1_556
Cu0 Nd1 3.175958 1_546
Cu0 Nd1 3.175958 1_545
Cu0 Nd1 3.175958 1_656
Cu0 Nd1 3.175958 1_655
Ge0 Ge1 2.484408 1_555
Ge0 Ge5 2.926686 1_655
Ge0 Ge5 2.926686 1_654
Ge0 Ge5 2.926686 1_545
Ge0 Ge5 2.926686 1_544
Ge0 Nd1 3.238141 1_545
Ge0 Nd1 3.238141 1_655
Ge1 Ge4 2.926795 1_655
Ge1 Ge4 2.926795 1_545
Ge1 Ge4 2.926795 1_654
Ge1 Ge4 2.926795 1_544
Ge1 Nd0 3.100804 1_455
Ge1 Nd0 3.100804 1_565
Ge2 Ge3 2.555123 1_565
Ge2 Ge3 2.555123 1_455
Ge2 Nd0 3.096098 1_565
Ge2 Nd0 3.096098 1_456
Ge2 Nd0 3.096098 1_566
Ge2 Nd0 3.096098 1_455
Ge2 Nd1 3.370023 1_555
Ge2 Nd1 3.370023 1_556
Ge3 Nd1 3.138708 1_545
Ge3 Nd1 3.138708 1_546
Ge3 Nd1 3.138708 1_656
Ge3 Nd1 3.138708 1_655
Ge3 Nd0 3.273495 1_555
Ge3 Nd0 3.273495 1_556
Ge4 Ge5 2.499454 1_555
Ge4 Nd0 3.096197 1_466
Ge4 Nd0 3.096197 1_465
Ge5 Nd1 3.264651 1_555
Ge5 Nd1 3.264651 1_556
