# generated using pymatgen
data_KNa2FeF6
_symmetry_space_group_name_H-M   'P 1'
_cell_length_a   6.09911600
_cell_length_b   6.09911566
_cell_length_c   6.09911567
_cell_angle_alpha   59.99999882
_cell_angle_beta   59.99999820
_cell_angle_gamma   59.99999814
_symmetry_Int_Tables_number   1
_chemical_formula_structural   KNa2FeF6
_chemical_formula_sum   'K1 Na2 Fe1 F6'
_cell_volume   160.43001280
_cell_formula_units_Z   1
loop_
 _symmetry_equiv_pos_site_id
 _symmetry_equiv_pos_as_xyz
  1  'x, y, z'
loop_
 _atom_site_type_symbol
 _atom_site_label
 _atom_site_symmetry_multiplicity
 _atom_site_fract_x
 _atom_site_fract_y
 _atom_site_fract_z
 _atom_site_occupancy
  K  K0  1  0.50000000  0.50000000  0.50000000  1
  Na  Na0  1  0.25000000  0.25000000  0.25000000  1
  Na  Na1  1  0.75000000  0.75000000  0.75000000  1
  Fe  Fe0  1  0.00000000  0.00000000  0.00000000  1
  F  F0  1  0.21708400  0.78291600  0.21708400  1
  F  F1  1  0.78291600  0.78291600  0.21708400  1
  F  F2  1  0.78291600  0.21708400  0.78291600  1
  F  F3  1  0.78291600  0.21708400  0.21708400  1
  F  F4  1  0.21708400  0.78291600  0.78291600  1
  F  F5  1  0.21708400  0.21708400  0.78291600  1
loop_
_geom_bond_atom_site_label_1
_geom_bond_atom_site_label_2
_geom_bond_distance
_geom_bond_site_symmetry_2
F0 Fe0 1.872448 1_565
F0 K0 2.440278 1_555
F1 Fe0 1.872448 1_665
F1 K0 2.440278 1_555
F2 Fe0 1.872448 1_656
F2 K0 2.440278 1_555
F3 Fe0 1.872448 1_655
F3 K0 2.440278 1_555
F4 Fe0 1.872448 1_566
F4 K0 2.440278 1_555
F5 Fe0 1.872448 1_556
F5 K0 2.440278 1_555
