# generated using pymatgen
data_SrEuS2
_symmetry_space_group_name_H-M   'P 1'
_cell_length_a   7.32488169
_cell_length_b   7.32488169
_cell_length_c   7.32488256
_cell_angle_alpha   33.52431393
_cell_angle_beta   33.52431393
_cell_angle_gamma   33.52431501
_symmetry_Int_Tables_number   1
_chemical_formula_structural   SrEuS2
_chemical_formula_sum   'Sr1 Eu1 S2'
_cell_volume   106.77188259
_cell_formula_units_Z   1
loop_
 _symmetry_equiv_pos_site_id
 _symmetry_equiv_pos_as_xyz
  1  'x, y, z'
loop_
 _atom_site_type_symbol
 _atom_site_label
 _atom_site_symmetry_multiplicity
 _atom_site_fract_x
 _atom_site_fract_y
 _atom_site_fract_z
 _atom_site_occupancy
  Sr  Sr0  1  0.50000000  0.50000000  0.50000000  1
  Eu  Eu0  1  -0.00000000  -0.00000000  0.00000000  1
  S  S0  1  0.25195434  0.25195434  0.25195434  1
  S  S1  1  0.74804566  0.74804566  0.74804566  1
loop_
_geom_bond_atom_site_label_1
_geom_bond_atom_site_label_2
_geom_bond_distance
_geom_bond_site_symmetry_2
Eu0 S0 2.965374 1_545
Eu0 S0 2.965374 1_455
Eu0 S1 2.965374 1_544
Eu0 S1 2.965374 1_454
Eu0 S0 2.965374 1_554
Eu0 S1 2.965374 1_445
S0 Sr0 3.012163 1_545
S0 Sr0 3.012163 1_455
S0 Sr0 3.012164 1_554
S1 Sr0 3.012163 1_565
S1 Sr0 3.012163 1_655
S1 Sr0 3.012164 1_556
