# generated using pymatgen
data_Sr2GaP2(O4F)2
_symmetry_space_group_name_H-M   'P 1'
_cell_length_a   7.36818600
_cell_length_b   8.27311400
_cell_length_c   13.68754711
_cell_angle_alpha   73.46819023
_cell_angle_beta   90.00000000
_cell_angle_gamma   90.00000000
_symmetry_Int_Tables_number   1
_chemical_formula_structural   Sr2GaP2(O4F)2
_chemical_formula_sum   'Sr8 Ga4 P8 O32 F8'
_cell_volume   799.87235396
_cell_formula_units_Z   4
loop_
 _symmetry_equiv_pos_site_id
 _symmetry_equiv_pos_as_xyz
  1  'x, y, z'
loop_
 _atom_site_type_symbol
 _atom_site_label
 _atom_site_symmetry_multiplicity
 _atom_site_fract_x
 _atom_site_fract_y
 _atom_site_fract_z
 _atom_site_occupancy
  Sr  Sr0  1  0.66564900  0.86821400  0.42249300  1
  Sr  Sr1  1  0.83435100  0.86821400  0.92249300  1
  Sr  Sr2  1  0.33435100  0.13178600  0.57750700  1
  Sr  Sr3  1  0.16564900  0.13178600  0.07750700  1
  Sr  Sr4  1  0.67020800  0.32827400  0.94508900  1
  Sr  Sr5  1  0.82979200  0.32827400  0.44508900  1
  Sr  Sr6  1  0.32979200  0.67172600  0.05491100  1
  Sr  Sr7  1  0.17020800  0.67172600  0.55491100  1
  Ga  Ga0  1  0.50276200  0.26908000  0.21166800  1
  Ga  Ga1  1  0.99723800  0.26908000  0.71166800  1
  Ga  Ga2  1  0.49723800  0.73092000  0.78833200  1
  Ga  Ga3  1  0.00276200  0.73092000  0.28833200  1
  P  P0  1  0.69747000  0.96049100  0.12996300  1
  P  P1  1  0.80253000  0.96049100  0.62996300  1
  P  P2  1  0.30253000  0.03950900  0.87003700  1
  P  P3  1  0.19747000  0.03950900  0.37003700  1
  P  P4  1  0.60505300  0.48297100  0.65453800  1
  P  P5  1  0.89494700  0.48297100  0.15453800  1
  P  P6  1  0.39494700  0.51702900  0.34546200  1
  P  P7  1  0.10505300  0.51702900  0.84546200  1
  O  O0  1  0.56019900  0.09687200  0.14213000  1
  O  O1  1  0.93980100  0.09687200  0.64213000  1
  O  O2  1  0.43980100  0.90312800  0.85787000  1
  O  O3  1  0.06019900  0.90312800  0.35787000  1
  O  O4  1  0.83961400  0.05399300  0.04998200  1
  O  O5  1  0.66038600  0.05399300  0.54998200  1
  O  O6  1  0.16038600  0.94600700  0.95001800  1
  O  O7  1  0.33961400  0.94600700  0.45001800  1
  O  O8  1  0.99779200  0.31375900  0.17189700  1
  O  O9  1  0.50220800  0.31375900  0.67189700  1
  O  O10  1  0.00220800  0.68624100  0.82810300  1
  O  O11  1  0.49779200  0.68624100  0.32810300  1
  O  O12  1  0.52895400  0.62417800  0.56722300  1
  O  O13  1  0.97104600  0.62417800  0.06722300  1
  O  O14  1  0.47104600  0.37582200  0.43277700  1
  O  O15  1  0.02895400  0.37582200  0.93277700  1
  O  O16  1  0.79305200  0.87952300  0.23436200  1
  O  O17  1  0.70694800  0.87952300  0.73436200  1
  O  O18  1  0.20694800  0.12047700  0.76563800  1
  O  O19  1  0.29305200  0.12047700  0.26563800  1
  O  O20  1  0.60727100  0.53456300  0.75586200  1
  O  O21  1  0.89272900  0.53456300  0.25586200  1
  O  O22  1  0.39272900  0.46543700  0.24413800  1
  O  O23  1  0.10727100  0.46543700  0.74413800  1
  O  O24  1  0.10046600  0.16799800  0.41277900  1
  O  O25  1  0.39953400  0.16799800  0.91277900  1
  O  O26  1  0.89953400  0.83200200  0.58722100  1
  O  O27  1  0.60046600  0.83200200  0.08722100  1
  O  O28  1  0.70100600  0.42617100  0.13036600  1
  O  O29  1  0.79899400  0.42617100  0.63036600  1
  O  O30  1  0.29899400  0.57382900  0.86963400  1
  O  O31  1  0.20100600  0.57382900  0.36963400  1
  F  F0  1  0.87617300  0.63372700  0.42095700  1
  F  F1  1  0.62382700  0.63372700  0.92095700  1
  F  F2  1  0.12382700  0.36627300  0.57904300  1
  F  F3  1  0.37617300  0.36627300  0.07904300  1
  F  F4  1  0.66364000  0.18410300  0.32300100  1
  F  F5  1  0.83636000  0.18410300  0.82300100  1
  F  F6  1  0.33636000  0.81589700  0.67699900  1
  F  F7  1  0.16364000  0.81589700  0.17699900  1
loop_
_geom_bond_atom_site_label_1
_geom_bond_atom_site_label_2
_geom_bond_distance
_geom_bond_site_symmetry_2
Ga0 O0 1.971423 1_555
Ga0 O22 1.976018 1_555
Ga0 O19 1.981892 1_555
Ga0 O28 2.058641 1_555
Ga1 O1 1.971423 1_555
Ga1 O23 1.976018 1_655
Ga1 O18 1.981892 1_655
Ga1 O29 2.058641 1_555
Ga2 O2 1.971423 1_555
Ga2 O20 1.976018 1_555
Ga2 O17 1.981892 1_555
Ga2 O30 2.058641 1_555
Ga3 O3 1.971423 1_555
Ga3 O21 1.976018 1_455
Ga3 O16 1.981892 1_455
Ga3 O31 2.058641 1_555
O0 P0 1.559079 1_545
O0 Sr4 2.942364 1_554
O0 Sr3 3.028491 1_555
O1 P1 1.559079 1_545
O1 Sr5 2.942364 1_555
O1 Sr2 3.028491 1_655
O2 P2 1.559079 1_565
O2 Sr6 2.942364 1_556
O2 Sr1 3.028491 1_555
O3 P3 1.559079 1_565
O3 Sr7 2.942364 1_555
O3 Sr0 3.028491 1_455
O4 P0 1.553011 1_545
O4 Sr3 2.542660 1_655
O4 Sr4 2.629521 1_554
O4 Sr1 2.633473 1_544
O5 P1 1.553011 1_545
O5 Sr2 2.542660 1_555
O5 Sr5 2.629521 1_555
O5 Sr0 2.633473 1_545
O6 P2 1.553011 1_565
O6 Sr1 2.542660 1_455
O6 Sr6 2.629521 1_556
O6 Sr3 2.633473 1_566
O7 P3 1.553011 1_565
O7 Sr0 2.542660 1_555
O7 Sr7 2.629521 1_555
O7 Sr2 2.633473 1_565
O8 P5 1.549562 1_555
O8 Sr3 2.563640 1_655
O9 P4 1.549562 1_555
O9 Sr2 2.563640 1_555
O10 P7 1.549562 1_555
O10 Sr1 2.563640 1_455
O11 P6 1.549562 1_555
O11 Sr0 2.563640 1_555
O12 P4 1.520827 1_555
O12 Sr0 2.595920 1_555
O12 Sr7 2.670672 1_555
O13 P5 1.520827 1_555
O13 Sr1 2.595920 1_554
O13 Sr6 2.670672 1_655
O14 P6 1.520827 1_555
O14 Sr2 2.595920 1_555
O14 Sr5 2.670672 1_555
O15 P7 1.520827 1_555
O15 Sr3 2.595920 1_556
O15 Sr4 2.670672 1_455
O16 P0 1.562659 1_555
O16 Sr0 2.717306 1_555
O17 P1 1.562659 1_555
O17 Sr1 2.717306 1_555
O18 P2 1.562659 1_555
O18 Sr2 2.717306 1_555
O19 P3 1.562659 1_555
O19 Sr3 2.717306 1_555
O20 P4 1.562932 1_555
O20 Sr4 2.705643 1_555
O21 P5 1.562932 1_555
O21 Sr5 2.705643 1_555
O22 P6 1.562932 1_555
O22 Sr6 2.705643 1_555
O23 P7 1.562932 1_555
O23 Sr7 2.705643 1_555
O24 P3 1.528730 1_555
O24 Sr5 2.503012 1_455
O24 Sr2 2.785480 1_555
O25 P2 1.528730 1_555
O25 Sr4 2.503012 1_555
O25 Sr3 2.785480 1_556
O26 P1 1.528730 1_555
O26 Sr7 2.503012 1_655
O26 Sr0 2.785480 1_555
O27 P0 1.528730 1_555
O27 Sr6 2.503012 1_555
O27 Sr1 2.785480 1_554
O28 P5 1.568689 1_555
O28 Sr4 2.882285 1_554
O29 P4 1.568689 1_555
O29 Sr5 2.882285 1_555
O30 P7 1.568689 1_555
O30 Sr6 2.882285 1_556
O31 P6 1.568689 1_555
O31 Sr7 2.882285 1_555
F0 Ga3 1.995297 1_655
F0 Sr5 2.477264 1_555
F0 Sr0 2.488608 1_555
F0 Sr7 2.912443 1_655
F1 Ga2 1.995297 1_555
F1 Sr4 2.477264 1_555
F1 Sr1 2.488608 1_555
F1 Sr6 2.912443 1_556
F2 Ga1 1.995297 1_455
F2 Sr7 2.477264 1_555
F2 Sr2 2.488608 1_555
F2 Sr5 2.912443 1_455
F3 Ga0 1.995297 1_555
F3 Sr6 2.477264 1_555
F3 Sr3 2.488608 1_555
F3 Sr4 2.912443 1_554
F4 Ga0 1.900495 1_555
F4 Sr0 2.580532 1_545
F4 Sr5 2.616912 1_555
F5 Ga1 1.900495 1_555
F5 Sr1 2.580532 1_545
F5 Sr4 2.616912 1_555
F6 Ga2 1.900495 1_555
F6 Sr2 2.580532 1_565
F6 Sr7 2.616912 1_555
F7 Ga3 1.900495 1_555
F7 Sr3 2.580532 1_565
F7 Sr6 2.616912 1_555
