# generated using pymatgen
data_Mg6ZrCo
_symmetry_space_group_name_H-M   'P 1'
_cell_length_a   4.81649800
_cell_length_b   6.12294200
_cell_length_c   11.09214100
_cell_angle_alpha   90.00000000
_cell_angle_beta   90.00000000
_cell_angle_gamma   90.00000000
_symmetry_Int_Tables_number   1
_chemical_formula_structural   Mg6ZrCo
_chemical_formula_sum   'Mg12 Zr2 Co2'
_cell_volume   327.11985981
_cell_formula_units_Z   2
loop_
 _symmetry_equiv_pos_site_id
 _symmetry_equiv_pos_as_xyz
  1  'x, y, z'
loop_
 _atom_site_type_symbol
 _atom_site_label
 _atom_site_symmetry_multiplicity
 _atom_site_fract_x
 _atom_site_fract_y
 _atom_site_fract_z
 _atom_site_occupancy
  Mg  Mg0  1  0.00000000  0.25870100  0.07500500  1
  Mg  Mg1  1  0.00000000  0.74129900  0.07500500  1
  Mg  Mg2  1  0.00000000  0.00000000  0.33349500  1
  Mg  Mg3  1  0.50000000  0.74440000  0.42006900  1
  Mg  Mg4  1  0.50000000  0.25560000  0.42006900  1
  Mg  Mg5  1  0.50000000  0.00000000  0.17230300  1
  Mg  Mg6  1  0.00000000  0.75870100  0.57500500  1
  Mg  Mg7  1  0.00000000  0.24129900  0.57500500  1
  Mg  Mg8  1  0.00000000  0.50000000  0.83349500  1
  Mg  Mg9  1  0.50000000  0.24440000  0.92006900  1
  Mg  Mg10  1  0.50000000  0.75560000  0.92006900  1
  Mg  Mg11  1  0.50000000  0.50000000  0.67230300  1
  Zr  Zr0  1  0.00000000  0.50000000  0.30879700  1
  Zr  Zr1  1  0.00000000  0.00000000  0.80879700  1
  Co  Co0  1  0.50000000  0.50000000  0.19525800  1
  Co  Co1  1  0.50000000  0.00000000  0.69525800  1
loop_
_geom_bond_atom_site_label_1
_geom_bond_atom_site_label_2
_geom_bond_distance
_geom_bond_site_symmetry_2
Mg0 Mg1 2.954920 1_555
Mg0 Mg9 2.959868 1_554
Mg0 Mg9 2.959868 1_454
Mg0 Zr0 2.984603 1_555
Mg0 Mg8 3.059280 1_554
Mg0 Mg5 3.077908 1_455
Mg0 Mg5 3.077908 1_555
Mg0 Mg1 3.168022 1_545
Mg0 Mg2 3.275663 1_555
Mg0 Zr1 3.350853 1_554
Mg1 Mg10 2.959868 1_454
Mg1 Mg10 2.959868 1_554
Mg1 Zr0 2.984603 1_555
Mg1 Mg8 3.059280 1_554
Mg1 Mg5 3.077908 1_465
Mg1 Mg5 3.077908 1_565
Mg1 Mg2 3.275663 1_565
Mg1 Zr1 3.350853 1_564
Mg2 Mg5 2.999413 1_455
Mg2 Mg5 2.999413 1_555
Mg2 Mg4 3.028386 1_455
Mg2 Mg4 3.028386 1_555
Mg2 Mg3 3.028386 1_545
Mg2 Mg3 3.028386 1_445
Mg2 Mg7 3.059280 1_555
Mg2 Mg6 3.059280 1_545
Mg2 Zr0 3.073704 1_545
Mg2 Zr0 3.073704 1_555
Mg3 Mg6 2.959868 1_655
Mg3 Mg6 2.959868 1_555
Mg3 Mg5 3.162627 1_565
Mg4 Mg7 2.959868 1_555
Mg4 Mg7 2.959868 1_655
Mg4 Mg5 3.162627 1_555
Mg5 Mg9 3.172873 1_554
Mg6 Mg7 2.954920 1_565
Mg6 Zr1 2.984603 1_565
Mg6 Mg7 3.168022 1_555
Mg6 Mg8 3.275663 1_555
Mg6 Zr0 3.350853 1_555
Mg7 Zr1 2.984603 1_555
Mg7 Mg8 3.275663 1_555
Mg7 Zr0 3.350853 1_555
Mg8 Mg9 3.028386 1_455
Mg8 Mg9 3.028386 1_555
Mg8 Zr1 3.073704 1_555
Mg8 Zr1 3.073704 1_565
Mg10 Mg8 3.028386 1_555
Mg10 Mg8 3.028386 1_655
Mg10 Mg11 3.162627 1_555
Mg10 Mg5 3.172873 1_566
Mg11 Mg8 2.999413 1_655
Mg11 Mg8 2.999413 1_555
Mg11 Mg7 3.077908 1_555
Mg11 Mg7 3.077908 1_655
Mg11 Mg6 3.077908 1_555
Mg11 Mg6 3.077908 1_655
Mg11 Mg9 3.162627 1_555
Mg11 Mg3 3.172873 1_555
Mg11 Mg4 3.172873 1_555
Co0 Zr0 2.717670 1_555
Co0 Zr0 2.717670 1_655
Co0 Mg3 2.908190 1_555
Co0 Mg4 2.908190 1_555
Co0 Mg5 3.072041 1_555
Co0 Mg5 3.072041 1_565
Co0 Mg0 3.124379 1_655
Co0 Mg0 3.124379 1_555
Co0 Mg1 3.124379 1_555
Co0 Mg1 3.124379 1_655
Co0 Mg9 3.430257 1_554
Co0 Mg10 3.430257 1_554
Co1 Zr1 2.717670 1_655
Co1 Zr1 2.717670 1_555
Co1 Mg9 2.908190 1_555
Co1 Mg10 2.908190 1_545
Co1 Mg11 3.072041 1_555
Co1 Mg11 3.072041 1_545
Co1 Mg7 3.124379 1_655
Co1 Mg6 3.124379 1_645
Co1 Mg6 3.124379 1_545
Co1 Mg7 3.124379 1_555
Co1 Mg4 3.430257 1_555
Co1 Mg3 3.430257 1_545
