# generated using pymatgen
data_Li2FeCo3O8
_symmetry_space_group_name_H-M   'P 1'
_cell_length_a   8.13441527
_cell_length_b   8.09851723
_cell_length_c   8.08414502
_cell_angle_alpha   89.86583490
_cell_angle_beta   89.89317750
_cell_angle_gamma   89.92585854
_symmetry_Int_Tables_number   1
_chemical_formula_structural   Li2FeCo3O8
_chemical_formula_sum   'Li8 Fe4 Co12 O32'
_cell_volume   532.55398564
_cell_formula_units_Z   4
loop_
 _symmetry_equiv_pos_site_id
 _symmetry_equiv_pos_as_xyz
  1  'x, y, z'
loop_
 _atom_site_type_symbol
 _atom_site_label
 _atom_site_symmetry_multiplicity
 _atom_site_fract_x
 _atom_site_fract_y
 _atom_site_fract_z
 _atom_site_occupancy
  Li  Li0  1  0.00015000  0.99883700  0.00156100  1
  Li  Li1  1  0.25034900  0.24818400  0.24835600  1
  Li  Li2  1  0.24847800  0.74928400  0.74695200  1
  Li  Li3  1  0.49838800  0.00120600  0.50274300  1
  Li  Li4  1  0.49858200  0.50177200  0.00339000  1
  Li  Li5  1  0.74993200  0.24786200  0.74771300  1
  Li  Li6  1  0.74994900  0.75019200  0.24591600  1
  Li  Li7  1  0.00191400  0.50241300  0.50374300  1
  Fe  Fe0  1  0.12599500  0.87533800  0.37504900  1
  Fe  Fe1  1  0.37484300  0.12425500  0.87485500  1
  Fe  Fe2  1  0.62758900  0.62600600  0.62733900  1
  Fe  Fe3  1  0.87513900  0.37581900  0.12498700  1
  Co  Co0  1  0.12432500  0.12650700  0.62482600  1
  Co  Co1  1  0.12526300  0.37686400  0.87257600  1
  Co  Co2  1  0.12622100  0.62360900  0.12463200  1
  Co  Co3  1  0.37223700  0.37299400  0.62250400  1
  Co  Co4  1  0.37319800  0.62238400  0.37241800  1
  Co  Co5  1  0.37580600  0.87437700  0.12532300  1
  Co  Co6  1  0.62154600  0.37181200  0.37488100  1
  Co  Co7  1  0.62462900  0.12401300  0.12586100  1
  Co  Co8  1  0.62769400  0.87548100  0.87780100  1
  Co  Co9  1  0.87405800  0.12433700  0.37803400  1
  Co  Co10  1  0.87614700  0.87804900  0.62630500  1
  Co  Co11  1  0.87771700  0.62739600  0.87615700  1
  O  O0  1  0.10839400  0.11197500  0.38694400  1
  O  O1  1  0.11271400  0.88929000  0.60683500  1
  O  O2  1  0.11326600  0.60994900  0.88707400  1
  O  O3  1  0.13668100  0.14165100  0.86399900  1
  O  O4  1  0.11218800  0.38512000  0.10787800  1
  O  O5  1  0.13771300  0.36323200  0.64003400  1
  O  O6  1  0.14176100  0.63833000  0.36351000  1
  O  O7  1  0.13827000  0.86155100  0.14250700  1
  O  O8  1  0.35922600  0.13672300  0.64002300  1
  O  O9  1  0.35919400  0.36318200  0.86131300  1
  O  O10  1  0.36162700  0.63892300  0.14052300  1
  O  O11  1  0.38097400  0.60957400  0.60310100  1
  O  O12  1  0.36156200  0.85927700  0.36338400  1
  O  O13  1  0.38672700  0.38529900  0.38604200  1
  O  O14  1  0.38978900  0.11186000  0.11024300  1
  O  O15  1  0.39037900  0.88700200  0.88739700  1
  O  O16  1  0.60791900  0.37767600  0.60381000  1
  O  O17  1  0.60515900  0.60346300  0.37299900  1
  O  O18  1  0.61064200  0.88842600  0.11074500  1
  O  O19  1  0.63806500  0.36215500  0.14134700  1
  O  O20  1  0.61302600  0.10980300  0.88815900  1
  O  O21  1  0.63874200  0.13901900  0.36327100  1
  O  O22  1  0.64121700  0.87376700  0.64562400  1
  O  O23  1  0.64127200  0.64473200  0.87517900  1
  O  O24  1  0.85931500  0.35996700  0.36615100  1
  O  O25  1  0.86196800  0.13849000  0.14211700  1
  O  O26  1  0.86329000  0.86308700  0.86253900  1
  O  O27  1  0.88849900  0.89236900  0.38432200  1
  O  O28  1  0.86855600  0.64227900  0.63915600  1
  O  O29  1  0.89015100  0.11629200  0.60836800  1
  O  O30  1  0.89089800  0.38791800  0.88713400  1
  O  O31  1  0.89066500  0.60876900  0.11449100  1
loop_
_geom_bond_atom_site_label_1
_geom_bond_atom_site_label_2
_geom_bond_distance
_geom_bond_site_symmetry_2
Li0 O26 1.929953 1_454
Li0 O7 1.947393 1_555
Li0 O3 1.949490 1_564
Li0 O25 1.957460 1_465
Li1 O13 1.927753 1_555
Li1 O14 1.936455 1_555
Li1 O4 1.943763 1_555
Li1 O0 1.948870 1_555
Li2 O2 1.938752 1_555
Li2 O1 1.945170 1_555
Li2 O11 1.947426 1_555
Li2 O15 1.969649 1_555
Li3 O8 1.927523 1_555
Li3 O22 1.935334 1_545
Li3 O21 1.952690 1_555
Li3 O12 1.960407 1_545
Li4 O10 1.923997 1_555
Li4 O23 1.937859 1_554
Li4 O19 1.950670 1_555
Li4 O9 1.969446 1_554
Li5 O29 1.924307 1_555
Li5 O20 1.942156 1_555
Li5 O16 1.946583 1_555
Li5 O30 1.971270 1_555
Li6 O18 1.930556 1_555
Li6 O31 1.936116 1_555
Li6 O17 1.961646 1_555
Li6 O27 1.965191 1_555
Li7 O28 1.912160 1_455
Li7 O5 1.923587 1_555
Li7 O6 1.945110 1_555
Li7 O24 1.981875 1_455
Fe0 O1 1.880356 1_555
Fe0 O7 1.885929 1_555
Fe0 O12 1.922595 1_555
Fe0 O0 1.924180 1_565
Fe0 O6 1.925994 1_555
Fe0 O27 1.937954 1_455
Fe1 O8 1.905331 1_555
Fe1 O14 1.909414 1_556
Fe1 O15 1.927829 1_545
Fe1 O9 1.941819 1_555
Fe1 O20 1.944022 1_555
Fe1 O3 1.944372 1_555
Fe2 O28 1.967235 1_555
Fe2 O23 2.012957 1_555
Fe2 O22 2.015489 1_555
Fe2 O11 2.020568 1_555
Fe2 O16 2.027082 1_555
Fe2 O17 2.073041 1_555
Fe3 O31 1.892630 1_555
Fe3 O30 1.929137 1_554
Fe3 O25 1.929772 1_555
Fe3 O4 1.934504 1_655
Fe3 O19 1.936032 1_555
Fe3 O24 1.957535 1_555
Co0 O29 1.911668 1_455
Co0 O8 1.916862 1_555
Co0 O5 1.924584 1_555
Co0 O1 1.929391 1_545
Co0 O0 1.931549 1_555
Co0 O3 1.940482 1_555
Co1 O5 1.885925 1_555
Co1 O2 1.893930 1_555
Co1 O4 1.906313 1_556
Co1 O9 1.907989 1_555
Co1 O3 1.908435 1_555
Co1 O30 1.911827 1_455
Co2 O31 1.921945 1_455
Co2 O10 1.923615 1_555
Co2 O2 1.926983 1_554
Co2 O7 1.935349 1_555
Co2 O6 1.939449 1_555
Co2 O4 1.939990 1_555
Co3 O5 1.914430 1_555
Co3 O13 1.917371 1_555
Co3 O8 1.921387 1_555
Co3 O16 1.923217 1_555
Co3 O11 1.923386 1_555
Co3 O9 1.934735 1_555
Co4 O11 1.868700 1_555
Co4 O10 1.881661 1_555
Co4 O6 1.888358 1_555
Co4 O17 1.892895 1_555
Co4 O12 1.921917 1_555
Co4 O13 1.925952 1_555
Co5 O10 1.914109 1_555
Co5 O18 1.917176 1_555
Co5 O15 1.929337 1_554
Co5 O14 1.930323 1_565
Co5 O12 1.931388 1_555
Co5 O7 1.939845 1_555
Co6 O16 1.854521 1_555
Co6 O17 1.880615 1_555
Co6 O21 1.892814 1_555
Co6 O19 1.894239 1_555
Co6 O13 1.915065 1_555
Co6 O24 1.937528 1_555
Co7 O18 1.915643 1_545
Co7 O14 1.917359 1_555
Co7 O21 1.927030 1_555
Co7 O20 1.927824 1_554
Co7 O19 1.936190 1_555
Co7 O25 1.939044 1_555
Co8 O23 1.872010 1_555
Co8 O22 1.880051 1_555
Co8 O18 1.891140 1_556
Co8 O20 1.903283 1_565
Co8 O26 1.922681 1_555
Co8 O15 1.933972 1_555
Co9 O29 1.867871 1_555
Co9 O27 1.882688 1_545
Co9 O0 1.910168 1_655
Co9 O25 1.913065 1_555
Co9 O24 1.914062 1_555
Co9 O21 1.921608 1_555
Co10 O28 1.913039 1_555
Co10 O26 1.915977 1_555
Co10 O22 1.917451 1_555
Co10 O1 1.932713 1_655
Co10 O29 1.938000 1_565
Co10 O27 1.961784 1_555
Co11 O26 1.915122 1_555
Co11 O28 1.921035 1_555
Co11 O2 1.923249 1_655
Co11 O23 1.928308 1_555
Co11 O31 1.935324 1_556
Co11 O30 1.944068 1_555
