# generated using pymatgen
data_LuUB8
_symmetry_space_group_name_H-M   'P 1'
_cell_length_a   7.03208310
_cell_length_b   7.03208310
_cell_length_c   3.95663400
_cell_angle_alpha   90.00000000
_cell_angle_beta   90.00000000
_cell_angle_gamma   90.62789722
_symmetry_Int_Tables_number   1
_chemical_formula_structural   LuUB8
_chemical_formula_sum   'Lu2 U2 B16'
_cell_volume   195.64456515
_cell_formula_units_Z   2
loop_
 _symmetry_equiv_pos_site_id
 _symmetry_equiv_pos_as_xyz
  1  'x, y, z'
loop_
 _atom_site_type_symbol
 _atom_site_label
 _atom_site_symmetry_multiplicity
 _atom_site_fract_x
 _atom_site_fract_y
 _atom_site_fract_z
 _atom_site_occupancy
  Lu  Lu0  1  0.68135800  0.31864200  0.00000000  1
  Lu  Lu1  1  0.31864200  0.68135800  0.00000000  1
  U  U0  1  0.18788400  0.18788400  0.00000000  1
  U  U1  1  0.81211600  0.81211600  0.00000000  1
  B  B0  1  0.82234100  0.54063100  0.50000000  1
  B  B1  1  0.17765900  0.45936900  0.50000000  1
  B  B2  1  0.32130600  0.96322500  0.50000000  1
  B  B3  1  0.67869400  0.03677500  0.50000000  1
  B  B4  1  0.03677500  0.67869400  0.50000000  1
  B  B5  1  0.96322500  0.32130600  0.50000000  1
  B  B6  1  0.45936900  0.17765900  0.50000000  1
  B  B7  1  0.54063100  0.82234100  0.50000000  1
  B  B8  1  0.00000000  0.50000000  0.79990700  1
  B  B9  1  0.50000000  0.00000000  0.79990700  1
  B  B10  1  0.00000000  0.50000000  0.20009300  1
  B  B11  1  0.50000000  0.00000000  0.20009300  1
  B  B12  1  0.91407200  0.08592800  0.50000000  1
  B  B13  1  0.08592800  0.91407200  0.50000000  1
  B  B14  1  0.41163700  0.41163700  0.50000000  1
  B  B15  1  0.58836300  0.58836300  0.50000000  1
loop_
_geom_bond_atom_site_label_1
_geom_bond_atom_site_label_2
_geom_bond_distance
_geom_bond_site_symmetry_2
B0 B15 1.682841 1_555
B0 B8 1.748804 1_655
B0 B10 1.748804 1_655
B0 B4 1.784466 1_655
B0 B5 1.842204 1_555
B0 Lu0 2.701770 1_555
B0 Lu0 2.701770 1_556
B0 U1 2.750745 1_555
B0 U1 2.750745 1_556
B1 B14 1.682841 1_555
B1 B8 1.748804 1_555
B1 B10 1.748804 1_555
B1 B5 1.784466 1_455
B1 B4 1.842204 1_555
B1 Lu1 2.701770 1_556
B1 Lu1 2.701770 1_555
B1 U0 2.750745 1_555
B1 U0 2.750745 1_556
B2 B9 1.745522 1_565
B2 B6 1.784466 1_565
B2 B7 1.842204 1_555
B2 U0 2.705983 1_566
B2 U0 2.705983 1_565
B2 Lu1 2.800365 1_555
B2 Lu1 2.800365 1_556
B3 B9 1.745522 1_555
B3 B7 1.784466 1_545
B3 B6 1.842204 1_555
B3 U1 2.705983 1_546
B3 U1 2.705983 1_545
B3 Lu0 2.800365 1_556
B3 Lu0 2.800365 1_555
B4 B8 1.745522 1_555
B4 U1 2.705983 1_455
B4 U1 2.705983 1_456
B4 Lu1 2.800365 1_556
B4 Lu1 2.800365 1_555
B5 B8 1.745522 1_655
B5 U0 2.705983 1_655
B5 U0 2.705983 1_656
B5 Lu0 2.800365 1_556
B5 Lu0 2.800365 1_555
B6 B9 1.748804 1_555
B6 Lu0 2.701770 1_556
B6 Lu0 2.701770 1_555
B6 U0 2.750745 1_555
B6 U0 2.750745 1_556
B7 B9 1.748804 1_565
B7 Lu1 2.701770 1_556
B7 Lu1 2.701770 1_555
B7 U1 2.750745 1_555
B7 U1 2.750745 1_556
B8 Lu0 2.685408 1_456
B8 Lu1 2.685408 1_556
B8 U0 2.693178 1_556
B8 U1 2.693178 1_456
B9 Lu1 2.685408 1_546
B9 Lu0 2.685408 1_556
B9 U1 2.693178 1_546
B9 U0 2.693178 1_556
B10 B8 1.583390 1_554
B10 B4 1.745522 1_555
B10 B5 1.745522 1_455
B10 Lu1 2.685408 1_555
B10 Lu0 2.685408 1_455
B10 U1 2.693178 1_455
B10 U0 2.693178 1_555
B11 B9 1.583390 1_554
B11 B3 1.745522 1_555
B11 B2 1.745522 1_545
B11 B6 1.748804 1_555
B11 B7 1.748804 1_545
B11 Lu1 2.685408 1_545
B11 Lu0 2.685408 1_555
B11 U1 2.693178 1_545
B11 U0 2.693178 1_555
B12 B3 1.687191 1_555
B12 B5 1.687191 1_555
B12 B13 1.718424 1_645
B12 U1 2.846919 1_545
B12 U1 2.846919 1_546
B12 U0 2.846919 1_656
B12 U0 2.846919 1_655
B12 Lu0 3.054253 1_556
B12 Lu0 3.054253 1_555
B13 B4 1.687191 1_555
B13 B2 1.687191 1_555
B13 U1 2.846919 1_456
B13 U1 2.846919 1_455
B13 U0 2.846919 1_565
B13 U0 2.846919 1_566
B13 Lu1 3.054253 1_556
B13 Lu1 3.054253 1_555
B14 B6 1.682841 1_555
B14 B15 1.747860 1_555
B14 Lu1 2.822418 1_556
B14 Lu1 2.822418 1_555
B14 Lu0 2.822418 1_556
B14 Lu0 2.822418 1_555
B14 U0 2.968327 1_555
B14 U0 2.968327 1_556
B15 B7 1.682841 1_555
B15 Lu0 2.822418 1_556
B15 Lu0 2.822418 1_555
B15 Lu1 2.822418 1_556
B15 Lu1 2.822418 1_555
B15 U1 2.968327 1_555
B15 U1 2.968327 1_556
