# generated using pymatgen
data_CuBO2
_symmetry_space_group_name_H-M   'P 1'
_cell_length_a   5.75184243
_cell_length_b   5.75184243
_cell_length_c   5.75184188
_cell_angle_alpha   25.45386585
_cell_angle_beta   25.45386585
_cell_angle_gamma   25.45386182
_symmetry_Int_Tables_number   1
_chemical_formula_structural   CuBO2
_chemical_formula_sum   'Cu1 B1 O2'
_cell_volume   30.94081989
_cell_formula_units_Z   1
loop_
 _symmetry_equiv_pos_site_id
 _symmetry_equiv_pos_as_xyz
  1  'x, y, z'
loop_
 _atom_site_type_symbol
 _atom_site_label
 _atom_site_symmetry_multiplicity
 _atom_site_fract_x
 _atom_site_fract_y
 _atom_site_fract_z
 _atom_site_occupancy
  Cu  Cu0  1  0.00000000  0.00000000  0.00000000  1
  B  B0  1  0.50000000  0.50000000  0.50000000  1
  O  O0  1  0.88567800  0.88567800  0.88567800  1
  O  O1  1  0.11432200  0.11432200  0.11432200  1
loop_
_geom_bond_atom_site_label_1
_geom_bond_atom_site_label_2
_geom_bond_distance
_geom_bond_site_symmetry_2
Cu0 O1 1.907790 1_555
Cu0 O0 1.907790 1_444
B0 O0 1.704100 1_455
B0 O0 1.704100 1_545
B0 O1 1.704100 1_655
B0 O1 1.704100 1_565
B0 O0 1.704101 1_554
B0 O1 1.704101 1_556
