# generated using pymatgen
data_K2VOF4
_symmetry_space_group_name_H-M   'P 1'
_cell_length_a   5.75143600
_cell_length_b   7.55104300
_cell_length_c   11.71590500
_cell_angle_alpha   90.00000000
_cell_angle_beta   90.00000000
_cell_angle_gamma   90.00000000
_symmetry_Int_Tables_number   1
_chemical_formula_structural   K2VOF4
_chemical_formula_sum   'K8 V4 O4 F16'
_cell_volume   508.81402807
_cell_formula_units_Z   4
loop_
 _symmetry_equiv_pos_site_id
 _symmetry_equiv_pos_as_xyz
  1  'x, y, z'
loop_
 _atom_site_type_symbol
 _atom_site_label
 _atom_site_symmetry_multiplicity
 _atom_site_fract_x
 _atom_site_fract_y
 _atom_site_fract_z
 _atom_site_occupancy
  K  K0  1  0.00236000  0.23618200  0.22349500  1
  K  K1  1  0.99764000  0.73618200  0.27650500  1
  K  K2  1  0.50236000  0.26381800  0.77650500  1
  K  K3  1  0.49764000  0.76381800  0.72349500  1
  K  K4  1  0.00374800  0.92017100  0.91059500  1
  K  K5  1  0.99625200  0.42017100  0.58940500  1
  K  K6  1  0.50374800  0.57982900  0.08940500  1
  K  K7  1  0.49625200  0.07982900  0.41059500  1
  V  V0  1  0.02752400  0.43302200  0.93429200  1
  V  V1  1  0.97247600  0.93302200  0.56570800  1
  V  V2  1  0.52752400  0.06697800  0.06570800  1
  V  V3  1  0.47247600  0.56697800  0.43429200  1
  O  O0  1  0.23315200  0.56768500  0.88694400  1
  O  O1  1  0.76684800  0.06768500  0.61305600  1
  O  O2  1  0.73315200  0.93231500  0.11305600  1
  O  O3  1  0.26684800  0.43231500  0.38694400  1
  F  F0  1  0.99314600  0.52579900  0.09056200  1
  F  F1  1  0.00685400  0.02579900  0.40943800  1
  F  F2  1  0.49314600  0.97420100  0.90943800  1
  F  F3  1  0.50685400  0.47420100  0.59056200  1
  F  F4  1  0.24231400  0.24916900  0.99996700  1
  F  F5  1  0.75768600  0.74916900  0.50003300  1
  F  F6  1  0.74231400  0.25083100  0.00003300  1
  F  F7  1  0.25768600  0.75083100  0.49996700  1
  F  F8  1  0.99236100  0.27773900  0.80445000  1
  F  F9  1  0.00763900  0.77773900  0.69555000  1
  F  F10  1  0.49236100  0.22226100  0.19555000  1
  F  F11  1  0.50763900  0.72226100  0.30445000  1
  F  F12  1  0.25688600  0.93452400  0.11218100  1
  F  F13  1  0.74311400  0.43452400  0.38781900  1
  F  F14  1  0.75688600  0.56547600  0.88781900  1
  F  F15  1  0.24311400  0.06547600  0.61218100  1
loop_
_geom_bond_atom_site_label_1
_geom_bond_atom_site_label_2
_geom_bond_distance
_geom_bond_site_symmetry_2
K0 O3 2.859097 1_555
K0 O2 3.055533 1_445
K1 O2 2.859097 1_555
K1 O3 3.055533 1_655
K2 O1 2.859097 1_555
K2 O0 3.055533 1_555
K3 O0 2.859097 1_555
K3 O1 3.055533 1_565
K4 O2 2.838481 1_456
K4 O0 2.983608 1_555
K5 O3 2.838481 1_655
K5 O1 2.983608 1_555
K6 O0 2.838481 1_554
K6 O2 2.983608 1_555
K7 O1 2.838481 1_555
K7 O3 2.983608 1_555
O0 V0 1.655407 1_555
O1 V1 1.655407 1_545
O2 V2 1.655407 1_565
O3 V3 1.655407 1_555
F0 V0 1.970247 1_654
F0 K0 2.685326 1_655
F0 K1 2.696326 1_555
F0 K6 2.844187 1_555
F0 K6 2.964930 1_655
F1 V1 1.970247 1_445
F1 K1 2.685326 1_445
F1 K0 2.696326 1_555
F1 K7 2.844187 1_555
F1 K7 2.964930 1_455
F2 V2 1.970247 1_566
F2 K2 2.685326 1_565
F2 K3 2.696326 1_555
F2 K4 2.844187 1_555
F2 K4 2.964930 1_655
F3 V3 1.970247 1_555
F3 K3 2.685326 1_555
F3 K2 2.696326 1_555
F3 K5 2.844187 1_555
F3 K5 2.964930 1_455
F4 V0 2.011333 1_555
F4 V2 2.275231 1_556
F4 K0 2.961845 1_556
F4 K2 3.017185 1_555
F4 K4 3.025004 1_545
F4 K6 3.097258 1_556
F5 V1 2.011333 1_555
F5 V3 2.275231 1_555
F5 K1 2.961845 1_555
F5 K3 3.017185 1_555
F5 K5 3.025004 1_555
F5 K7 3.097258 1_565
F6 V2 2.011333 1_555
F6 V0 2.275231 1_654
F6 K2 2.961845 1_554
F6 K0 3.017185 1_655
F6 K6 3.025004 1_555
F6 K4 3.097258 1_644
F7 V3 2.011333 1_555
F7 V1 2.275231 1_455
F7 K3 2.961845 1_555
F7 K1 3.017185 1_455
F7 K7 3.025004 1_565
F7 K5 3.097258 1_455
F8 V0 1.931287 1_655
F8 K5 2.739495 1_555
F8 K2 2.839110 1_555
F8 K2 2.953313 1_655
F8 K4 2.973357 1_645
F9 V1 1.931287 1_455
F9 K4 2.739495 1_555
F9 K3 2.839110 1_555
F9 K3 2.953313 1_455
F9 K5 2.973357 1_455
F10 V2 1.931287 1_555
F10 K7 2.739495 1_555
F10 K0 2.839110 1_555
F10 K0 2.953313 1_655
F10 K6 2.973357 1_555
F11 V3 1.931287 1_555
F11 K6 2.739495 1_555
F11 K1 2.839110 1_555
F11 K1 2.953313 1_455
F11 K7 2.973357 1_565
F12 V2 1.928640 1_565
F12 K4 2.776569 1_554
F12 K1 2.858789 1_455
F12 K0 3.005376 1_565
F12 K6 3.043099 1_555
F13 V3 1.928640 1_555
F13 K5 2.776569 1_555
F13 K0 2.858789 1_655
F13 K1 3.005376 1_555
F13 K7 3.043099 1_555
F14 V0 1.928640 1_655
F14 K6 2.776569 1_556
F14 K3 2.858789 1_555
F14 K2 3.005376 1_555
F14 K4 3.043099 1_655
F15 V1 1.928640 1_445
F15 K7 2.776569 1_555
F15 K2 2.858789 1_555
F15 K3 3.005376 1_545
F15 K5 3.043099 1_455
