# generated using pymatgen
data_Nd3AlFeS7
_symmetry_space_group_name_H-M   'P 1'
_cell_length_a   9.81536797
_cell_length_b   9.81536797
_cell_length_c   6.24413700
_cell_angle_alpha   90.00000000
_cell_angle_beta   90.00000000
_cell_angle_gamma   119.99999979
_symmetry_Int_Tables_number   1
_chemical_formula_structural   Nd3AlFeS7
_chemical_formula_sum   'Nd6 Al2 Fe2 S14'
_cell_volume   520.97421251
_cell_formula_units_Z   2
loop_
 _symmetry_equiv_pos_site_id
 _symmetry_equiv_pos_as_xyz
  1  'x, y, z'
loop_
 _atom_site_type_symbol
 _atom_site_label
 _atom_site_symmetry_multiplicity
 _atom_site_fract_x
 _atom_site_fract_y
 _atom_site_fract_z
 _atom_site_occupancy
  Nd  Nd0  1  0.62661200  0.84629700  0.27679300  1
  Nd  Nd1  1  0.15370300  0.78031400  0.27679300  1
  Nd  Nd2  1  0.21968600  0.37338800  0.27679300  1
  Nd  Nd3  1  0.37338800  0.15370300  0.77679300  1
  Nd  Nd4  1  0.84629700  0.21968600  0.77679300  1
  Nd  Nd5  1  0.78031400  0.62661200  0.77679300  1
  Al  Al0  1  0.33333300  0.66666700  0.85050800  1
  Al  Al1  1  0.66666700  0.33333300  0.35050800  1
  Fe  Fe0  1  0.00000000  0.00000000  0.43366300  1
  Fe  Fe1  1  0.00000000  0.00000000  0.93366300  1
  S  S0  1  0.78960300  0.91176600  0.68110200  1
  S  S1  1  0.08823400  0.87783700  0.68110200  1
  S  S2  1  0.12216300  0.21039700  0.68110200  1
  S  S3  1  0.21039700  0.08823400  0.18110200  1
  S  S4  1  0.91176600  0.12216300  0.18110200  1
  S  S5  1  0.87783700  0.78960300  0.18110200  1
  S  S6  1  0.47882500  0.56994100  0.99544400  1
  S  S7  1  0.43005900  0.90888300  0.99544400  1
  S  S8  1  0.09111700  0.52117500  0.99544400  1
  S  S9  1  0.52117500  0.43005900  0.49544400  1
  S  S10  1  0.56994100  0.09111700  0.49544400  1
  S  S11  1  0.90888300  0.47882500  0.49544400  1
  S  S12  1  0.33333300  0.66666700  0.49175500  1
  S  S13  1  0.66666700  0.33333300  0.99175500  1
loop_
_geom_bond_atom_site_label_1
_geom_bond_atom_site_label_2
_geom_bond_distance
_geom_bond_site_symmetry_2
Nd0 S4 2.818503 1_565
Nd0 S5 2.849449 1_555
Nd0 S12 2.849812 1_555
Nd0 S0 2.884044 1_555
Nd0 S7 2.893227 1_554
Nd0 S6 2.934888 1_554
Nd0 S10 3.047044 1_565
Nd1 S5 2.818508 1_455
Nd1 S3 2.849458 1_565
Nd1 S12 2.849798 1_555
Nd1 S1 2.884049 1_555
Nd1 S8 2.893227 1_554
Nd1 S7 2.934888 1_554
Nd1 S11 3.047033 1_455
Nd2 S3 2.818498 1_555
Nd2 S4 2.849455 1_455
Nd2 S12 2.849814 1_555
Nd2 S2 2.884045 1_555
Nd2 S6 2.893227 1_554
Nd2 S8 2.934888 1_554
Nd2 S9 3.047027 1_555
Nd3 S1 2.818503 1_545
Nd3 S2 2.849449 1_555
Nd3 S13 2.849812 1_555
Nd3 S3 2.884044 1_556
Nd3 S10 2.893227 1_555
Nd3 S9 2.934888 1_555
Nd3 S7 3.047044 1_545
Nd4 S2 2.818508 1_655
Nd4 S0 2.849458 1_545
Nd4 S13 2.849798 1_555
Nd4 S4 2.884049 1_556
Nd4 S11 2.893227 1_555
Nd4 S10 2.934888 1_555
Nd4 S8 3.047033 1_655
Nd5 S0 2.818498 1_555
Nd5 S1 2.849455 1_655
Nd5 S13 2.849814 1_555
Nd5 S5 2.884045 1_556
Nd5 S9 2.893227 1_555
Nd5 S11 2.934888 1_555
Nd5 S6 3.047027 1_555
Al0 S12 2.240103 1_555
Al0 S7 2.261739 1_555
Al0 S8 2.261741 1_555
Al0 S6 2.261755 1_555
Al1 S13 2.240103 1_554
Al1 S10 2.261739 1_555
Al1 S11 2.261741 1_555
Al1 S9 2.261755 1_555
Fe0 S1 2.369269 1_545
Fe0 S0 2.369269 1_445
Fe0 S2 2.369269 1_555
Fe0 S4 2.390249 1_455
Fe0 S3 2.390249 1_555
Fe0 S5 2.390249 1_445
Fe1 S4 2.369269 1_456
Fe1 S3 2.369269 1_556
Fe1 S5 2.369269 1_446
Fe1 S1 2.390249 1_545
Fe1 S0 2.390249 1_445
Fe1 S2 2.390249 1_555
