# generated using pymatgen
data_Mg7Si4
_symmetry_space_group_name_H-M   'P 1'
_cell_length_a   5.14427300
_cell_length_b   6.04525506
_cell_length_c   14.59116940
_cell_angle_alpha   101.85675527
_cell_angle_beta   90.64429794
_cell_angle_gamma   99.50005886
_symmetry_Int_Tables_number   1
_chemical_formula_structural   Mg7Si4
_chemical_formula_sum   'Mg14 Si8'
_cell_volume   437.51137115
_cell_formula_units_Z   2
loop_
 _symmetry_equiv_pos_site_id
 _symmetry_equiv_pos_as_xyz
  1  'x, y, z'
loop_
 _atom_site_type_symbol
 _atom_site_label
 _atom_site_symmetry_multiplicity
 _atom_site_fract_x
 _atom_site_fract_y
 _atom_site_fract_z
 _atom_site_occupancy
  Mg  Mg0  1  0.50795400  0.78033100  0.89113200  1
  Mg  Mg1  1  0.17277500  0.30534200  0.64808800  1
  Mg  Mg2  1  0.74246800  0.03464000  0.51102400  1
  Mg  Mg3  1  0.62409300  0.06841700  0.70510400  1
  Mg  Mg4  1  0.43632200  0.27939800  0.88029300  1
  Mg  Mg5  1  0.73359400  0.94308100  0.30202600  1
  Mg  Mg6  1  0.77444300  0.43960800  0.32330100  1
  Mg  Mg7  1  0.72163400  0.53072600  0.54211700  1
  Mg  Mg8  1  0.97288000  0.54481800  0.95509800  1
  Mg  Mg9  1  0.96625900  0.03663000  0.99167600  1
  Mg  Mg10  1  0.44827500  0.39957400  0.08391900  1
  Mg  Mg11  1  0.48318300  0.89306500  0.10477100  1
  Mg  Mg12  1  0.23063800  0.76913800  0.42266700  1
  Mg  Mg13  1  0.26567800  0.26861400  0.44322500  1
  Si  Si0  1  0.92715700  0.24175100  0.13823100  1
  Si  Si1  1  0.04896700  0.96665100  0.81706400  1
  Si  Si2  1  0.60694300  0.56925300  0.72372800  1
  Si  Si3  1  0.29388700  0.59880900  0.26783200  1
  Si  Si4  1  0.93677400  0.65216400  0.13793800  1
  Si  Si5  1  0.09897700  0.62992900  0.75314100  1
  Si  Si6  1  0.22406800  0.86929100  0.59476900  1
  Si  Si7  1  0.28304200  0.17877200  0.26649700  1
loop_
_geom_bond_atom_site_label_1
_geom_bond_atom_site_label_2
_geom_bond_distance
_geom_bond_site_symmetry_2
Mg0 Si2 2.610669 1_555
Mg0 Si5 2.797860 1_555
Mg0 Si1 3.054904 1_555
Mg0 Si1 3.116970 1_655
Mg1 Si5 2.316682 1_555
Mg1 Si2 2.607030 1_555
Mg1 Si6 2.648598 1_545
Mg1 Mg2 2.989577 1_455
Mg2 Mg3 2.876478 1_555
Mg2 Mg7 2.959595 1_555
Mg2 Mg5 2.983783 1_545
Mg2 Si6 3.049482 1_545
Mg2 Si6 3.143486 1_645
Mg2 Mg7 3.155699 1_545
Mg3 Si6 2.566516 1_545
Mg3 Si1 2.932729 1_645
Mg3 Si2 2.999850 1_555
Mg3 Si2 3.071972 1_545
Mg4 Si1 2.528761 1_545
Mg4 Si2 3.200297 1_555
Mg5 Si3 2.773235 1_555
Mg5 Si4 2.974981 1_555
Mg5 Si7 3.006239 1_565
Mg5 Si7 3.048787 1_665
Mg6 Si7 2.768331 1_555
Mg6 Si3 2.870811 1_655
Mg6 Si0 2.893186 1_555
Mg6 Si3 2.958561 1_555
Mg7 Si2 2.692826 1_555
Mg7 Si6 3.003775 1_655
Mg8 Si4 2.629171 1_556
Mg9 Si0 2.270075 1_556
Mg9 Si1 2.547965 1_645
Mg10 Si4 2.731692 1_555
Mg10 Si0 2.870371 1_455
Mg10 Si3 2.884121 1_555
Mg10 Si0 2.941048 1_555
Mg11 Si0 2.803701 1_565
Mg11 Si7 2.928903 1_565
Mg11 Si4 3.030793 1_555
Mg11 Si4 3.037272 1_455
Mg12 Si3 2.332678 1_555
Mg12 Si6 2.461214 1_555
Mg12 Mg2 2.974764 1_565
Mg12 Mg2 3.331331 1_465
Mg13 Si7 2.529459 1_555
Mg13 Mg2 3.098682 1_455
Mg13 Mg2 3.265088 1_555
Si0 Si4 2.474253 1_555
Si0 Si7 2.728590 1_655
Si1 Si5 2.116070 1_555
Si2 Si5 2.515928 1_655
Si2 Si5 2.724708 1_555
Si3 Si7 2.526672 1_555
Si3 Si4 2.727564 1_455
