# generated using pymatgen
data_CaSi4WO10
_symmetry_space_group_name_H-M   'P 1'
_cell_length_a   7.59949100
_cell_length_b   7.59949100
_cell_length_c   15.52793800
_cell_angle_alpha   90.00000000
_cell_angle_beta   90.00000000
_cell_angle_gamma   90.00000000
_symmetry_Int_Tables_number   1
_chemical_formula_structural   CaSi4WO10
_chemical_formula_sum   'Ca4 Si16 W4 O40'
_cell_volume   896.77356635
_cell_formula_units_Z   4
loop_
 _symmetry_equiv_pos_site_id
 _symmetry_equiv_pos_as_xyz
  1  'x, y, z'
loop_
 _atom_site_type_symbol
 _atom_site_label
 _atom_site_symmetry_multiplicity
 _atom_site_fract_x
 _atom_site_fract_y
 _atom_site_fract_z
 _atom_site_occupancy
  Ca  Ca0  1  0.50000000  0.50000000  0.50000000  1
  Ca  Ca1  1  0.00000000  0.00000000  0.50000000  1
  Ca  Ca2  1  0.00000000  0.00000000  0.00000000  1
  Ca  Ca3  1  0.50000000  0.50000000  0.00000000  1
  Si  Si0  1  0.16173300  0.25194900  0.65030900  1
  Si  Si1  1  0.83826700  0.74805100  0.65030900  1
  Si  Si2  1  0.25194900  0.16173300  0.84969100  1
  Si  Si3  1  0.75194900  0.33826700  0.65030900  1
  Si  Si4  1  0.24805100  0.66173300  0.65030900  1
  Si  Si5  1  0.33826700  0.75194900  0.84969100  1
  Si  Si6  1  0.66173300  0.24805100  0.84969100  1
  Si  Si7  1  0.74805100  0.83826700  0.84969100  1
  Si  Si8  1  0.33826700  0.24805100  0.34969100  1
  Si  Si9  1  0.66173300  0.75194900  0.34969100  1
  Si  Si10  1  0.24805100  0.33826700  0.15030900  1
  Si  Si11  1  0.74805100  0.16173300  0.34969100  1
  Si  Si12  1  0.25194900  0.83826700  0.34969100  1
  Si  Si13  1  0.16173300  0.74805100  0.15030900  1
  Si  Si14  1  0.83826700  0.25194900  0.15030900  1
  Si  Si15  1  0.75194900  0.66173300  0.15030900  1
  W  W0  1  0.50000000  0.00000000  0.58217300  1
  W  W1  1  0.00000000  0.50000000  0.91782700  1
  W  W2  1  0.00000000  0.50000000  0.41782700  1
  W  W3  1  0.50000000  0.00000000  0.08217300  1
  O  O0  1  0.23523600  0.10959700  0.58229000  1
  O  O1  1  0.76476400  0.89040300  0.58229000  1
  O  O2  1  0.10959700  0.23523600  0.91771000  1
  O  O3  1  0.60959700  0.26476400  0.58229000  1
  O  O4  1  0.39040300  0.73523600  0.58229000  1
  O  O5  1  0.26476400  0.60959700  0.91771000  1
  O  O6  1  0.73523600  0.39040300  0.91771000  1
  O  O7  1  0.89040300  0.76476400  0.91771000  1
  O  O8  1  0.26476400  0.39040300  0.41771000  1
  O  O9  1  0.73523600  0.60959700  0.41771000  1
  O  O10  1  0.39040300  0.26476400  0.08229000  1
  O  O11  1  0.89040300  0.23523600  0.41771000  1
  O  O12  1  0.10959700  0.76476400  0.41771000  1
  O  O13  1  0.23523600  0.89040300  0.08229000  1
  O  O14  1  0.76476400  0.10959700  0.08229000  1
  O  O15  1  0.25585800  0.05178000  0.36771300  1
  O  O16  1  0.60959700  0.73523600  0.08229000  1
  O  O17  1  0.75585800  0.55178000  0.63228700  1
  O  O18  1  0.44822000  0.24414200  0.86771300  1
  O  O19  1  0.94822000  0.25585800  0.63228700  1
  O  O20  1  0.05178000  0.74414200  0.63228700  1
  O  O21  1  0.25585800  0.94822000  0.86771300  1
  O  O22  1  0.74414200  0.05178000  0.86771300  1
  O  O23  1  0.55178000  0.75585800  0.86771300  1
  O  O24  1  0.69877700  0.69877700  0.25000000  1
  O  O25  1  0.80122300  0.19877700  0.25000000  1
  O  O26  1  0.19877700  0.80122300  0.25000000  1
  O  O27  1  0.30122300  0.30122300  0.25000000  1
  O  O28  1  0.80122300  0.80122300  0.75000000  1
  O  O29  1  0.69877700  0.30122300  0.75000000  1
  O  O30  1  0.30122300  0.69877700  0.75000000  1
  O  O31  1  0.19877700  0.19877700  0.75000000  1
  O  O32  1  0.94822000  0.74414200  0.13228700  1
  O  O33  1  0.75585800  0.44822000  0.13228700  1
  O  O34  1  0.24414200  0.55178000  0.13228700  1
  O  O35  1  0.44822000  0.75585800  0.36771300  1
  O  O36  1  0.55178000  0.24414200  0.36771300  1
  O  O37  1  0.05178000  0.25585800  0.13228700  1
  O  O38  1  0.74414200  0.94822000  0.36771300  1
  O  O39  1  0.24414200  0.44822000  0.63228700  1
loop_
_geom_bond_atom_site_label_1
_geom_bond_atom_site_label_2
_geom_bond_distance
_geom_bond_site_symmetry_2
Ca0 O9 2.349942 1_555
Ca0 O3 2.349942 1_555
Ca0 O8 2.349942 1_555
Ca0 O4 2.349942 1_555
Ca0 O17 2.855697 1_555
Ca0 O39 2.855697 1_555
Ca0 O35 2.855697 1_555
Ca0 O36 2.855697 1_555
Ca1 O12 2.349942 1_545
Ca1 O11 2.349942 1_455
Ca1 O1 2.349942 1_445
Ca1 O0 2.349942 1_555
Ca1 O19 2.855697 1_455
Ca1 O20 2.855697 1_545
Ca1 O15 2.855697 1_555
Ca1 O38 2.855697 1_445
Ca2 O7 2.349942 1_444
Ca2 O2 2.349942 1_554
Ca2 O13 2.349942 1_545
Ca2 O14 2.349942 1_455
Ca2 O37 2.855697 1_555
Ca2 O32 2.855697 1_445
Ca2 O21 2.855697 1_544
Ca2 O22 2.855697 1_454
Ca3 O5 2.349942 1_554
Ca3 O16 2.349942 1_555
Ca3 O6 2.349942 1_554
Ca3 O10 2.349942 1_555
Ca3 O33 2.855697 1_555
Ca3 O23 2.855697 1_554
Ca3 O34 2.855697 1_555
Ca3 O18 2.855697 1_554
O0 Si0 1.611789 1_555
O0 W0 2.177643 1_555
O1 Si1 1.611789 1_555
O1 W0 2.177643 1_565
O2 Si2 1.611789 1_555
O2 W1 2.177643 1_555
O3 Si3 1.611789 1_555
O3 W0 2.177643 1_555
O4 Si4 1.611789 1_555
O4 W0 2.177643 1_565
O5 Si5 1.611789 1_555
O5 W1 2.177643 1_555
O6 Si6 1.611789 1_555
O6 W1 2.177643 1_655
O7 Si7 1.611789 1_555
O7 W1 2.177643 1_655
O8 Si8 1.611789 1_555
O8 W2 2.177643 1_555
O9 Si9 1.611789 1_555
O9 W2 2.177643 1_655
O10 Si10 1.611789 1_555
O10 W3 2.177643 1_555
O11 Si11 1.611789 1_555
O11 W2 2.177643 1_655
O12 Si12 1.611789 1_555
O12 W2 2.177643 1_555
O13 Si13 1.611789 1_555
O13 W3 2.177643 1_565
O14 Si14 1.611789 1_555
O14 W3 2.177643 1_555
O15 Si8 1.641729 1_555
O15 Si12 1.646813 1_545
O16 Si15 1.611789 1_555
O16 W3 2.177643 1_565
O17 Si1 1.641729 1_555
O17 Si3 1.646813 1_555
O18 Si2 1.641729 1_555
O18 Si6 1.646813 1_555
O19 Si3 1.641729 1_555
O19 Si0 1.646813 1_655
O20 Si4 1.641729 1_555
O20 Si1 1.646813 1_455
O21 Si5 1.641729 1_555
O21 Si2 1.646813 1_565
O22 Si6 1.641729 1_555
O22 Si7 1.646813 1_545
O23 Si7 1.641729 1_555
O23 Si5 1.646813 1_555
O24 Si9 1.624445 1_555
O24 Si15 1.624445 1_555
O25 Si11 1.624445 1_555
O25 Si14 1.624445 1_555
O26 Si13 1.624445 1_555
O26 Si12 1.624445 1_555
O27 Si8 1.624445 1_555
O27 Si10 1.624445 1_555
O28 Si1 1.624445 1_555
O28 Si7 1.624445 1_555
O29 Si6 1.624445 1_555
O29 Si3 1.624445 1_555
O30 Si4 1.624445 1_555
O30 Si5 1.624445 1_555
O31 Si0 1.624445 1_555
O31 Si2 1.624445 1_555
O32 Si15 1.641729 1_555
O32 Si13 1.646813 1_655
O33 Si14 1.641729 1_555
O33 Si15 1.646813 1_555
O34 Si13 1.641729 1_555
O34 Si10 1.646813 1_555
O35 Si12 1.641729 1_555
O35 Si9 1.646813 1_555
O36 Si11 1.641729 1_555
O36 Si8 1.646813 1_555
O37 Si10 1.641729 1_555
O37 Si14 1.646813 1_455
O38 Si9 1.641729 1_555
O38 Si11 1.646813 1_565
O39 Si0 1.641729 1_555
O39 Si4 1.646813 1_555
