# generated using pymatgen
data_Li4P4O17
_symmetry_space_group_name_H-M   'P 1'
_cell_length_a   12.18420028
_cell_length_b   12.18420028
_cell_length_c   13.97197301
_cell_angle_alpha   62.24580504
_cell_angle_beta   117.75419496
_cell_angle_gamma   95.69538428
_symmetry_Int_Tables_number   1
_chemical_formula_structural   Li4P4O17
_chemical_formula_sum   'Li16 P16 O68'
_cell_volume   1605.97460990
_cell_formula_units_Z   4
loop_
 _symmetry_equiv_pos_site_id
 _symmetry_equiv_pos_as_xyz
  1  'x, y, z'
loop_
 _atom_site_type_symbol
 _atom_site_label
 _atom_site_symmetry_multiplicity
 _atom_site_fract_x
 _atom_site_fract_y
 _atom_site_fract_z
 _atom_site_occupancy
  Li  Li0  1  0.81546858  0.42629875  0.61870787  1
  Li  Li1  1  0.42629875  0.81546858  0.88129213  1
  Li  Li2  1  0.18453142  0.57370125  0.38129213  1
  Li  Li3  1  0.57370125  0.18453142  0.11870787  1
  Li  Li4  1  0.19930276  0.55214583  0.81582122  1
  Li  Li5  1  0.55214583  0.19930276  0.68417878  1
  Li  Li6  1  0.80069724  0.44785417  0.18417878  1
  Li  Li7  1  0.44785417  0.80069724  0.31582122  1
  Li  Li8  1  0.67300430  0.68016113  0.97987159  1
  Li  Li9  1  0.68016113  0.67300430  0.52012841  1
  Li  Li10  1  0.32699570  0.31983887  0.02012841  1
  Li  Li11  1  0.31983887  0.32699570  0.47987159  1
  Li  Li12  1  0.18909264  0.60237008  0.58158939  1
  Li  Li13  1  0.60237008  0.18909264  0.91841061  1
  Li  Li14  1  0.81090736  0.39762992  0.41841061  1
  Li  Li15  1  0.39762992  0.81090736  0.08158939  1
  P  P0  1  0.89196051  0.68572704  0.22394990  1
  P  P1  1  0.68572704  0.89196051  0.27605010  1
  P  P2  1  0.10803949  0.31427296  0.77605010  1
  P  P3  1  0.31427296  0.10803949  0.72394990  1
  P  P4  1  0.88703429  0.67482292  0.44016627  1
  P  P5  1  0.67482292  0.88703429  0.05983373  1
  P  P6  1  0.11296571  0.32517708  0.55983373  1
  P  P7  1  0.32517708  0.11296571  0.94016627  1
  P  P8  1  0.63507211  0.42897419  0.72676504  1
  P  P9  1  0.42897419  0.63507211  0.77323496  1
  P  P10  1  0.36492789  0.57102581  0.27323496  1
  P  P11  1  0.57102581  0.36492789  0.22676504  1
  P  P12  1  0.64205116  0.42712862  0.93966834  1
  P  P13  1  0.42712862  0.64205116  0.56033166  1
  P  P14  1  0.35794884  0.57287138  0.06033166  1
  P  P15  1  0.57287138  0.35794884  0.43966834  1
  O  O0  1  0.15167720  0.02219791  0.17966338  1
  O  O1  1  0.02219791  0.15167720  0.32033662  1
  O  O2  1  0.84832280  0.97780209  0.82033662  1
  O  O3  1  0.97780209  0.84832280  0.67966338  1
  O  O4  1  0.76737384  0.80087752  0.86024243  1
  O  O5  1  0.80087752  0.76737384  0.63975757  1
  O  O6  1  0.23262616  0.19912248  0.13975757  1
  O  O7  1  0.19912248  0.23262616  0.36024243  1
  O  O8  1  0.77847265  0.06137680  0.56179398  1
  O  O9  1  0.06137680  0.77847265  0.93820602  1
  O  O10  1  0.22152735  0.93862320  0.43820602  1
  O  O11  1  0.93862320  0.22152735  0.06179398  1
  O  O12  1  0.86574203  0.05518964  0.54317790  1
  O  O13  1  0.05518964  0.86574203  0.95682210  1
  O  O14  1  0.13425797  0.94481036  0.45682210  1
  O  O15  1  0.94481036  0.13425797  0.04317790  1
  O  O16  1  0.90296687  0.78718343  0.62873196  1
  O  O17  1  0.78718343  0.90296687  0.87126804  1
  O  O18  1  0.09703313  0.21281657  0.37126804  1
  O  O19  1  0.21281657  0.09703313  0.12873196  1
  O  O20  1  0.68599291  0.02911842  0.22925419  1
  O  O21  1  0.02911842  0.68599291  0.27074581  1
  O  O22  1  0.31400709  0.97088158  0.77074581  1
  O  O23  1  0.97088158  0.31400709  0.72925419  1
  O  O24  1  0.82508440  0.61353506  0.15526156  1
  O  O25  1  0.61353506  0.82508440  0.34473844  1
  O  O26  1  0.17491560  0.38646494  0.84473844  1
  O  O27  1  0.38646494  0.17491560  0.65526156  1
  O  O28  1  0.85448693  0.63395375  0.33478107  1
  O  O29  1  0.63395375  0.85448693  0.16521893  1
  O  O30  1  0.14551307  0.36604625  0.66521893  1
  O  O31  1  0.36604625  0.14551307  0.83478107  1
  O  O32  1  0.82338234  0.83086521  0.13931943  1
  O  O33  1  0.83086521  0.82338234  0.36068057  1
  O  O34  1  0.17661766  0.16913479  0.86068057  1
  O  O35  1  0.16913479  0.17661766  0.63931943  1
  O  O36  1  0.81125815  0.60269414  0.50256231  1
  O  O37  1  0.60269414  0.81125815  0.99743769  1
  O  O38  1  0.18874185  0.39730586  0.49743769  1
  O  O39  1  0.39730586  0.18874185  0.00256231  1
  O  O40  1  0.02478580  0.66369467  0.51593852  1
  O  O41  1  0.66369467  0.02478580  0.98406148  1
  O  O42  1  0.97521420  0.33630533  0.48406148  1
  O  O43  1  0.33630533  0.97521420  0.01593852  1
  O  O44  1  0.70600534  0.48954286  0.65692623  1
  O  O45  1  0.48954286  0.70600534  0.84307377  1
  O  O46  1  0.29399466  0.51045714  0.34307377  1
  O  O47  1  0.51045714  0.29399466  0.15692623  1
  O  O48  1  0.62869801  0.29060017  0.77523266  1
  O  O49  1  0.29060017  0.62869801  0.72476734  1
  O  O50  1  0.37130199  0.70939983  0.22476734  1
  O  O51  1  0.70939983  0.37130199  0.27523266  1
  O  O52  1  0.49030460  0.49585789  0.64413845  1
  O  O53  1  0.49585789  0.49030460  0.85586155  1
  O  O54  1  0.50969540  0.50414211  0.35586155  1
  O  O55  1  0.50414211  0.50969540  0.14413845  1
  O  O56  1  0.64104321  0.28850973  0.00149724  1
  O  O57  1  0.28850973  0.64104321  0.49850276  1
  O  O58  1  0.35895679  0.71149027  0.99850276  1
  O  O59  1  0.71149027  0.35895679  0.50149724  1
  O  O60  1  0.28505363  0.50849249  0.98596028  1
  O  O61  1  0.50849249  0.28505363  0.51403972  1
  O  O62  1  0.71494637  0.49150751  0.01403972  1
  O  O63  1  0.49150751  0.71494637  0.48596028  1
  O  O64  1  0.46373746  0.68838194  0.66202875  1
  O  O65  1  0.68838194  0.46373746  0.83797125  1
  O  O66  1  0.53626254  0.31161806  0.33797125  1
  O  O67  1  0.31161806  0.53626254  0.16202875  1
loop_
_geom_bond_atom_site_label_1
_geom_bond_atom_site_label_2
_geom_bond_distance
_geom_bond_site_symmetry_2
Li0 O23 1.914493 1_555
Li0 O44 1.976934 1_555
Li0 O36 1.987783 1_555
Li0 O59 2.018174 1_555
Li1 O22 1.914493 1_555
Li1 O45 1.976934 1_555
Li1 O37 1.987783 1_555
Li1 O58 2.018174 1_555
Li2 O21 1.914493 1_555
Li2 O46 1.976934 1_555
Li2 O38 1.987783 1_555
Li2 O57 2.018174 1_555
Li3 O20 1.914493 1_555
Li3 O47 1.976934 1_555
Li3 O39 1.987783 1_555
Li3 O56 2.018174 1_555
Li4 O26 1.886735 1_555
Li4 O60 1.909188 1_555
Li4 O49 1.932051 1_555
Li5 O27 1.886735 1_555
Li5 O61 1.909188 1_555
Li5 O48 1.932051 1_555
Li6 O24 1.886735 1_555
Li6 O62 1.909188 1_555
Li6 O51 1.932051 1_555
Li7 O25 1.886735 1_555
Li7 O63 1.909188 1_555
Li7 O50 1.932051 1_555
Li8 O37 2.044034 1_555
Li8 O24 2.077103 1_556
Li8 O45 2.085431 1_555
Li8 O62 2.180940 1_556
Li8 O4 2.333194 1_555
Li9 O36 2.044034 1_555
Li9 O25 2.077103 1_555
Li9 O44 2.085431 1_555
Li9 O63 2.180940 1_555
Li9 O5 2.333194 1_555
Li10 O39 2.044034 1_555
Li10 O26 2.077103 1_554
Li10 O47 2.085431 1_555
Li10 O60 2.180940 1_554
Li10 O6 2.333194 1_555
Li11 O38 2.044034 1_555
Li11 O27 2.077103 1_555
Li11 O46 2.085431 1_555
Li11 O61 2.180940 1_555
Li11 O7 2.333194 1_555
Li12 O40 1.831872 1_555
Li12 O57 1.929741 1_555
Li12 O49 1.961900 1_555
Li13 O41 1.831872 1_555
Li13 O56 1.929741 1_556
Li13 O48 1.961900 1_555
Li14 O42 1.831872 1_555
Li14 O59 1.929741 1_555
Li14 O51 1.961900 1_555
Li15 O43 1.831872 1_555
Li15 O58 1.929741 1_554
Li15 O50 1.961900 1_555
O0 O19 1.283472 1_555
O1 O18 1.283472 1_555
O10 O14 1.222995 1_555
O11 O15 1.222995 1_555
O12 O8 1.222995 1_555
O13 O9 1.222995 1_555
O16 O3 1.283472 1_555
O16 O5 1.308994 1_555
O17 O2 1.283472 1_555
O17 O4 1.308994 1_555
O18 O7 1.308994 1_555
O19 O6 1.308994 1_555
O20 P1 1.484427 1_545
O21 P0 1.484427 1_455
O22 P3 1.484427 1_565
O23 P2 1.484427 1_655
O24 P0 1.508090 1_555
O25 P1 1.508090 1_555
O26 P2 1.508090 1_555
O27 P3 1.508090 1_555
O28 P4 1.634979 1_555
O28 P0 1.641919 1_555
O29 P5 1.634979 1_555
O29 P1 1.641919 1_555
O30 P6 1.634979 1_555
O30 P2 1.641919 1_555
O31 P7 1.634979 1_555
O31 P3 1.641919 1_555
O32 P5 1.626000 1_555
O32 P0 1.627620 1_555
O33 P4 1.626000 1_555
O33 P1 1.627620 1_555
O34 P7 1.626000 1_555
O34 P2 1.627620 1_555
O35 P6 1.626000 1_555
O35 P3 1.627620 1_555
O36 P4 1.503277 1_555
O37 P5 1.503277 1_556
O38 P6 1.503277 1_555
O39 P7 1.503277 1_554
O40 P4 1.487533 1_455
O41 P5 1.487533 1_546
O42 P6 1.487533 1_655
O43 P7 1.487533 1_564
O44 P8 1.493955 1_555
O45 P9 1.493955 1_555
O46 P10 1.493955 1_555
O47 P11 1.493955 1_555
O48 P8 1.505581 1_555
O49 P9 1.505581 1_555
O50 P10 1.505581 1_555
O51 P11 1.505581 1_555
O52 P8 1.618848 1_555
O52 P13 1.620669 1_555
O53 P9 1.618848 1_555
O53 P12 1.620669 1_555
O54 P10 1.618848 1_555
O54 P15 1.620669 1_555
O55 P11 1.618848 1_555
O55 P14 1.620669 1_555
O56 P12 1.498627 1_554
O57 P13 1.498627 1_555
O58 P14 1.498627 1_556
O59 P15 1.498627 1_555
O60 P14 1.498398 1_556
O61 P15 1.498398 1_555
O62 P12 1.498398 1_554
O63 P13 1.498398 1_555
O64 P9 1.622926 1_555
O64 P13 1.625850 1_555
O65 P8 1.622926 1_555
O65 P12 1.625850 1_555
O66 P11 1.622926 1_555
O66 P15 1.625850 1_555
O67 P10 1.622926 1_555
O67 P14 1.625850 1_555
