# generated using pymatgen
data_K2Fe2P2O7F2
_symmetry_space_group_name_H-M   'P 1'
_cell_length_a   6.66942200
_cell_length_b   9.74357000
_cell_length_c   16.58624700
_cell_angle_alpha   90.00000000
_cell_angle_beta   90.00000000
_cell_angle_gamma   90.00000000
_symmetry_Int_Tables_number   1
_chemical_formula_structural   K2Fe2P2O7F2
_chemical_formula_sum   'K8 Fe8 P8 O28 F8'
_cell_volume   1077.84034526
_cell_formula_units_Z   4
loop_
 _symmetry_equiv_pos_site_id
 _symmetry_equiv_pos_as_xyz
  1  'x, y, z'
loop_
 _atom_site_type_symbol
 _atom_site_label
 _atom_site_symmetry_multiplicity
 _atom_site_fract_x
 _atom_site_fract_y
 _atom_site_fract_z
 _atom_site_occupancy
  K  K0  1  0.41222900  0.02574200  0.83044000  1
  K  K1  1  0.08777100  0.52574200  0.66956000  1
  K  K2  1  0.08777100  0.02574200  0.33044000  1
  K  K3  1  0.41222900  0.52574200  0.16956000  1
  K  K4  1  0.91222900  0.97425800  0.66956000  1
  K  K5  1  0.58777100  0.97425800  0.16956000  1
  K  K6  1  0.91222900  0.47425800  0.33044000  1
  K  K7  1  0.58777100  0.47425800  0.83044000  1
  Fe  Fe0  1  0.00000000  0.75000000  0.84256900  1
  Fe  Fe1  1  0.50000000  0.25000000  0.65743100  1
  Fe  Fe2  1  0.50000000  0.75000000  0.34256900  1
  Fe  Fe3  1  0.00000000  0.50000000  0.00000000  1
  Fe  Fe4  1  0.00000000  0.00000000  0.00000000  1
  Fe  Fe5  1  0.00000000  0.25000000  0.15743100  1
  Fe  Fe6  1  0.50000000  0.00000000  0.50000000  1
  Fe  Fe7  1  0.50000000  0.50000000  0.50000000  1
  P  P0  1  0.22630500  0.71221300  0.47185400  1
  P  P1  1  0.72630500  0.78778700  0.97185400  1
  P  P2  1  0.72630500  0.28778700  0.02814600  1
  P  P3  1  0.27369500  0.21221300  0.02814600  1
  P  P4  1  0.22630500  0.21221300  0.52814600  1
  P  P5  1  0.77369500  0.28778700  0.52814600  1
  P  P6  1  0.27369500  0.71221300  0.97185400  1
  P  P7  1  0.77369500  0.78778700  0.47185400  1
  O  O0  1  0.82400100  0.65102100  0.94469300  1
  O  O1  1  0.67599900  0.65102100  0.44469300  1
  O  O2  1  0.17599900  0.34897900  0.05530700  1
  O  O3  1  0.24242200  0.11171600  0.59921700  1
  O  O4  1  0.32400200  0.34897900  0.55530700  1
  O  O5  1  0.18848100  0.14959500  0.95091000  1
  O  O6  1  0.00000000  0.25000000  0.50368500  1
  O  O7  1  0.00000000  0.75000000  0.49631500  1
  O  O8  1  0.75757800  0.38828400  0.59921700  1
  O  O9  1  0.18848100  0.64959500  0.04909000  1
  O  O10  1  0.31151900  0.64959500  0.54909000  1
  O  O11  1  0.81151900  0.35040500  0.95091000  1
  O  O12  1  0.81151900  0.85040500  0.04909000  1
  O  O13  1  0.74242200  0.88828400  0.90078300  1
  O  O14  1  0.82400100  0.15102100  0.05530700  1
  O  O15  1  0.24242200  0.61171600  0.40078300  1
  O  O16  1  0.31151900  0.14959500  0.45091000  1
  O  O17  1  0.75757800  0.88828400  0.40078300  1
  O  O18  1  0.17599900  0.84897900  0.94469300  1
  O  O19  1  0.32400200  0.84897900  0.44469300  1
  O  O20  1  0.67599900  0.15102100  0.55530700  1
  O  O21  1  0.50000000  0.25000000  0.00368500  1
  O  O22  1  0.68848100  0.35040500  0.45091000  1
  O  O23  1  0.74242200  0.38828400  0.09921700  1
  O  O24  1  0.25757800  0.11171600  0.09921700  1
  O  O25  1  0.68848100  0.85040500  0.54909000  1
  O  O26  1  0.25757800  0.61171600  0.90078300  1
  O  O27  1  0.50000000  0.75000000  0.99631500  1
  F  F0  1  0.16701500  0.84281200  0.76091200  1
  F  F1  1  0.83298500  0.15718800  0.23908800  1
  F  F2  1  0.33298500  0.34281200  0.73908800  1
  F  F3  1  0.16701500  0.34281200  0.23908800  1
  F  F4  1  0.66701500  0.65718800  0.26091200  1
  F  F5  1  0.33298500  0.84281200  0.26091200  1
  F  F6  1  0.83298500  0.65718800  0.76091200  1
  F  F7  1  0.66701500  0.15718800  0.73908800  1
loop_
_geom_bond_atom_site_label_1
_geom_bond_atom_site_label_2
_geom_bond_distance
_geom_bond_site_symmetry_2
K0 O5 2.770514 1_555
K0 O13 2.829263 1_545
K0 O18 3.006612 1_545
K1 O10 2.770514 1_555
K1 O8 2.829263 1_455
K1 O4 3.006615 1_555
K2 O16 2.770514 1_555
K2 O17 2.829263 1_445
K2 O19 3.006615 1_545
K3 O9 2.770514 1_555
K3 O23 2.829263 1_555
K3 O2 3.006612 1_555
K4 O25 2.770514 1_555
K4 O3 2.829263 1_665
K4 O20 3.006612 1_565
K5 O12 2.770514 1_555
K5 O24 2.829263 1_565
K5 O14 3.006612 1_565
K6 O22 2.770514 1_555
K6 O15 2.829263 1_655
K6 O1 3.006612 1_555
K7 O11 2.770514 1_555
K7 O26 2.829263 1_555
K7 O0 3.006612 1_555
Fe0 O18 2.275315 1_555
Fe0 O0 2.275315 1_455
Fe0 O13 2.387235 1_455
Fe0 O26 2.387235 1_555
Fe1 O4 2.275312 1_555
Fe1 O20 2.275315 1_555
Fe1 O8 2.387235 1_555
Fe1 O3 2.387235 1_555
Fe2 O19 2.275312 1_555
Fe2 O1 2.275315 1_555
Fe2 O17 2.387235 1_555
Fe2 O15 2.387235 1_555
Fe3 O9 2.089908 1_555
Fe3 O11 2.089908 1_454
Fe3 O2 2.093944 1_555
Fe3 O0 2.093944 1_454
Fe3 O26 2.616133 1_554
Fe3 O23 2.616133 1_455
Fe4 O5 2.089908 1_554
Fe4 O12 2.089908 1_445
Fe4 O14 2.093944 1_455
Fe4 O18 2.093944 1_544
Fe4 O24 2.616133 1_555
Fe4 O13 2.616133 1_444
Fe5 O14 2.275315 1_455
Fe5 O2 2.275315 1_555
Fe5 O23 2.387235 1_455
Fe5 O24 2.387235 1_555
Fe6 O16 2.089908 1_555
Fe6 O25 2.089908 1_545
Fe6 O19 2.093940 1_545
Fe6 O20 2.093944 1_555
Fe6 O3 2.616133 1_555
Fe6 O17 2.616133 1_545
Fe7 O10 2.089908 1_555
Fe7 O22 2.089908 1_555
Fe7 O4 2.093940 1_555
Fe7 O1 2.093944 1_555
Fe7 O15 2.616133 1_555
Fe7 O8 2.616133 1_555
O0 P1 1.550256 1_555
O1 P7 1.550256 1_555
O2 P3 1.550256 1_555
O3 P4 1.536216 1_555
O4 P4 1.550259 1_555
O5 P3 1.528512 1_556
O6 P4 1.605684 1_555
O6 P5 1.605684 1_455
O7 P0 1.605684 1_555
O7 P7 1.605684 1_455
O8 P5 1.536216 1_555
O9 P6 1.528512 1_554
O10 P0 1.528512 1_555
O11 P2 1.528512 1_556
O12 P1 1.528512 1_554
O13 P1 1.536216 1_555
O14 P2 1.550256 1_555
O15 P0 1.536216 1_555
O16 P4 1.528512 1_555
O17 P7 1.536216 1_555
O18 P6 1.550256 1_555
O19 P0 1.550259 1_555
O20 P5 1.550256 1_555
O21 P2 1.605684 1_555
O21 P3 1.605684 1_555
O22 P5 1.528512 1_555
O23 P2 1.536216 1_555
O24 P3 1.536216 1_555
O25 P7 1.528512 1_555
O26 P6 1.536216 1_555
O27 P1 1.605684 1_555
O27 P6 1.605684 1_555
F0 Fe0 1.973045 1_555
F0 K4 2.612213 1_455
F0 K0 2.679824 1_565
F1 Fe5 1.973045 1_655
F1 K2 2.612213 1_655
F1 K5 2.679824 1_545
F2 Fe1 1.973045 1_555
F2 K7 2.612213 1_555
F2 K1 2.679824 1_555
F3 Fe5 1.973045 1_555
F3 K6 2.612213 1_455
F3 K3 2.679824 1_555
F4 Fe2 1.973045 1_555
F4 K3 2.612213 1_555
F4 K6 2.679824 1_555
F5 Fe2 1.973045 1_555
F5 K5 2.612213 1_555
F5 K2 2.679824 1_565
F6 Fe0 1.973045 1_655
F6 K1 2.612213 1_655
F6 K7 2.679824 1_555
F7 Fe1 1.973045 1_555
F7 K0 2.612213 1_555
F7 K4 2.679824 1_545
