# generated using pymatgen
data_KTaTiO5
_symmetry_space_group_name_H-M   'P 1'
_cell_length_a   3.82744900
_cell_length_b   6.48201400
_cell_length_c   18.96781200
_cell_angle_alpha   90.00000000
_cell_angle_beta   90.00000000
_cell_angle_gamma   90.00000000
_symmetry_Int_Tables_number   1
_chemical_formula_structural   KTaTiO5
_chemical_formula_sum   'K4 Ta4 Ti4 O20'
_cell_volume   470.58341135
_cell_formula_units_Z   4
loop_
 _symmetry_equiv_pos_site_id
 _symmetry_equiv_pos_as_xyz
  1  'x, y, z'
loop_
 _atom_site_type_symbol
 _atom_site_label
 _atom_site_symmetry_multiplicity
 _atom_site_fract_x
 _atom_site_fract_y
 _atom_site_fract_z
 _atom_site_occupancy
  K  K0  1  0.25000000  0.77690600  0.19516600  1
  K  K1  1  0.25000000  0.27690600  0.30483400  1
  K  K2  1  0.75000000  0.22309400  0.80483400  1
  K  K3  1  0.75000000  0.72309400  0.69516600  1
  Ta  Ta0  1  0.25000000  0.77228900  0.89223400  1
  Ta  Ta1  1  0.25000000  0.27228900  0.60776600  1
  Ta  Ta2  1  0.75000000  0.22771100  0.10776600  1
  Ta  Ta3  1  0.75000000  0.72771100  0.39223400  1
  Ti  Ti0  1  0.25000000  0.31852600  0.96605000  1
  Ti  Ti1  1  0.25000000  0.81852600  0.53395000  1
  Ti  Ti2  1  0.75000000  0.68147400  0.03395000  1
  Ti  Ti3  1  0.75000000  0.18147400  0.46605000  1
  O  O0  1  0.25000000  0.64719900  0.00909800  1
  O  O1  1  0.25000000  0.14719900  0.49090200  1
  O  O2  1  0.75000000  0.35280100  0.99090200  1
  O  O3  1  0.75000000  0.85280100  0.50909800  1
  O  O4  1  0.25000000  0.84121100  0.79942000  1
  O  O5  1  0.25000000  0.34121100  0.70058000  1
  O  O6  1  0.75000000  0.15878900  0.20058000  1
  O  O7  1  0.75000000  0.65878900  0.29942000  1
  O  O8  1  0.25000000  0.06394700  0.92938600  1
  O  O9  1  0.25000000  0.56394700  0.57061400  1
  O  O10  1  0.75000000  0.93605300  0.07061400  1
  O  O11  1  0.75000000  0.43605300  0.42938600  1
  O  O12  1  0.25000000  0.23820800  0.07971900  1
  O  O13  1  0.25000000  0.73820800  0.42028100  1
  O  O14  1  0.75000000  0.76179200  0.92028100  1
  O  O15  1  0.75000000  0.26179200  0.57971900  1
  O  O16  1  0.25000000  0.46357500  0.88153700  1
  O  O17  1  0.25000000  0.96357500  0.61846300  1
  O  O18  1  0.75000000  0.53642500  0.11846300  1
  O  O19  1  0.75000000  0.03642500  0.38153700  1
loop_
_geom_bond_atom_site_label_1
_geom_bond_atom_site_label_2
_geom_bond_distance
_geom_bond_site_symmetry_2
K0 O7 2.856384 1_455
K0 O7 2.856384 1_555
K0 O18 2.865118 1_555
K0 O18 2.865118 1_455
K0 O6 3.130551 1_565
K0 O6 3.130551 1_465
K0 O10 3.210581 1_455
K0 O10 3.210581 1_555
K1 O6 2.856384 1_555
K1 O6 2.856384 1_455
K1 O19 2.865118 1_555
K1 O19 2.865118 1_455
K1 O7 3.130551 1_555
K1 O7 3.130551 1_455
K1 O11 3.210581 1_555
K1 O11 3.210581 1_455
K2 O5 2.856384 1_655
K2 O5 2.856384 1_555
K2 O16 2.865118 1_655
K2 O16 2.865118 1_555
K2 O4 3.130551 1_545
K2 O4 3.130551 1_645
K2 O8 3.210581 1_555
K2 O8 3.210581 1_655
K3 O4 2.856384 1_555
K3 O4 2.856384 1_655
K3 O17 2.865118 1_555
K3 O17 2.865118 1_655
K3 O5 3.130551 1_655
K3 O5 3.130551 1_555
K3 O9 3.210581 1_555
K3 O9 3.210581 1_655
O0 Ti2 1.983408 1_555
O0 Ti2 1.983408 1_455
O0 Ti0 2.281576 1_554
O0 Ta0 2.360299 1_554
O1 Ti3 1.983408 1_455
O1 Ti3 1.983408 1_555
O1 Ti1 2.281576 1_545
O1 Ta1 2.360299 1_555
O2 Ti0 1.983408 1_555
O2 Ti0 1.983408 1_655
O2 Ti2 2.281576 1_556
O2 Ta2 2.360299 1_556
O3 Ti1 1.983408 1_655
O3 Ti1 1.983408 1_555
O3 Ti3 2.281576 1_565
O3 Ta3 2.360299 1_555
O4 Ta0 1.816280 1_555
O5 Ta1 1.816280 1_555
O6 Ta2 1.816280 1_555
O7 Ta3 1.816280 1_555
O8 Ti0 1.790737 1_555
O8 Ta0 2.017597 1_545
O9 Ti1 1.790737 1_555
O9 Ta1 2.017597 1_555
O10 Ti2 1.790737 1_555
O10 Ta2 2.017597 1_565
O11 Ti3 1.790737 1_555
O11 Ta3 2.017597 1_555
O12 Ta2 1.987457 1_555
O12 Ta2 1.987457 1_455
O12 Ti0 2.218019 1_554
O13 Ta3 1.987457 1_555
O13 Ta3 1.987457 1_455
O13 Ti1 2.218019 1_555
O14 Ta0 1.987457 1_555
O14 Ta0 1.987457 1_655
O14 Ti2 2.218019 1_556
O15 Ta1 1.987457 1_655
O15 Ta1 1.987457 1_555
O15 Ti3 2.218019 1_555
O16 Ti0 1.858410 1_555
O16 Ta0 2.011349 1_555
O17 Ti1 1.858410 1_555
O17 Ta1 2.011349 1_565
O18 Ti2 1.858410 1_555
O18 Ta2 2.011349 1_555
O19 Ti3 1.858410 1_555
O19 Ta3 2.011349 1_545
