# generated using pymatgen
data_Ba2MnSe3
_symmetry_space_group_name_H-M   'P 1'
_cell_length_a   4.50948462
_cell_length_b   9.23153840
_cell_length_c   17.90986086
_cell_angle_alpha   90.00000000
_cell_angle_beta   90.00000000
_cell_angle_gamma   90.00000000
_symmetry_Int_Tables_number   1
_chemical_formula_structural   Ba2MnSe3
_chemical_formula_sum   'Ba8 Mn4 Se12'
_cell_volume   745.57820224
_cell_formula_units_Z   4
loop_
 _symmetry_equiv_pos_site_id
 _symmetry_equiv_pos_as_xyz
  1  'x, y, z'
loop_
 _atom_site_type_symbol
 _atom_site_label
 _atom_site_symmetry_multiplicity
 _atom_site_fract_x
 _atom_site_fract_y
 _atom_site_fract_z
 _atom_site_occupancy
  Ba  Ba0  1  0.25000000  0.25512855  0.54273270  1
  Ba  Ba1  1  0.75000000  0.74487145  0.45726730  1
  Ba  Ba2  1  0.25000000  0.75512855  0.95726730  1
  Ba  Ba3  1  0.75000000  0.24487145  0.04273270  1
  Ba  Ba4  1  0.25000000  0.41753358  0.28647486  1
  Ba  Ba5  1  0.75000000  0.58246642  0.71352514  1
  Ba  Ba6  1  0.25000000  0.91753358  0.21352514  1
  Ba  Ba7  1  0.75000000  0.08246642  0.78647486  1
  Mn  Mn0  1  0.75000000  0.12913651  0.36586661  1
  Mn  Mn1  1  0.25000000  0.37086349  0.86586661  1
  Mn  Mn2  1  0.75000000  0.62913651  0.13413339  1
  Mn  Mn3  1  0.25000000  0.87086349  0.63413339  1
  Se  Se0  1  0.25000000  0.12588161  0.92777629  1
  Se  Se1  1  0.75000000  0.87411839  0.07222371  1
  Se  Se2  1  0.25000000  0.62588161  0.57222371  1
  Se  Se3  1  0.75000000  0.37411839  0.42777629  1
  Se  Se4  1  0.25000000  0.00160707  0.39908165  1
  Se  Se5  1  0.75000000  0.49839293  0.89908165  1
  Se  Se6  1  0.25000000  0.50160707  0.10091835  1
  Se  Se7  1  0.75000000  0.99839293  0.60091835  1
  Se  Se8  1  0.75000000  0.18081668  0.22701867  1
  Se  Se9  1  0.25000000  0.81918332  0.77298133  1
  Se  Se10  1  0.75000000  0.68081668  0.27298133  1
  Se  Se11  1  0.25000000  0.31918332  0.72701867  1
loop_
_geom_bond_atom_site_label_1
_geom_bond_atom_site_label_2
_geom_bond_distance
_geom_bond_site_symmetry_2
Ba0 Se3 3.244896 1_555
Ba0 Se3 3.244896 1_455
Ba0 Se11 3.353089 1_555
Ba0 Se7 3.433225 1_545
Ba0 Se7 3.433225 1_445
Ba0 Se2 3.463136 1_555
Ba0 Se4 3.478015 1_555
Ba1 Se2 3.244896 1_655
Ba1 Se2 3.244896 1_555
Ba1 Se10 3.353089 1_555
Ba1 Se4 3.433225 1_665
Ba1 Se4 3.433225 1_565
Ba1 Se3 3.463136 1_555
Ba1 Se7 3.478015 1_555
Ba2 Se1 3.244896 1_556
Ba2 Se1 3.244896 1_456
Ba2 Se9 3.353089 1_555
Ba2 Se5 3.433225 1_555
Ba2 Se5 3.433225 1_455
Ba2 Se0 3.463136 1_565
Ba2 Se6 3.478015 1_556
Ba3 Se0 3.244896 1_554
Ba3 Se0 3.244896 1_654
Ba3 Se8 3.353089 1_555
Ba3 Se6 3.433225 1_555
Ba3 Se6 3.433225 1_655
Ba3 Se1 3.463136 1_545
Ba3 Se5 3.478015 1_554
Ba4 Se8 3.315590 1_455
Ba4 Se8 3.315590 1_555
Ba4 Se10 3.324099 1_455
Ba4 Se10 3.324099 1_555
Ba4 Se6 3.412717 1_555
Ba4 Se3 3.413046 1_455
Ba4 Se3 3.413046 1_555
Ba5 Se9 3.315590 1_655
Ba5 Se9 3.315590 1_555
Ba5 Se11 3.324099 1_555
Ba5 Se11 3.324099 1_655
Ba5 Se5 3.412717 1_555
Ba5 Se2 3.413046 1_555
Ba5 Se2 3.413046 1_655
Ba6 Se10 3.315590 1_555
Ba6 Se10 3.315590 1_455
Ba6 Se8 3.324099 1_465
Ba6 Se8 3.324099 1_565
Ba6 Se4 3.412717 1_565
Ba6 Se1 3.413046 1_555
Ba6 Se1 3.413046 1_455
Ba7 Se11 3.315590 1_555
Ba7 Se11 3.315590 1_655
Ba7 Se9 3.324099 1_645
Ba7 Se9 3.324099 1_545
Ba7 Se7 3.412717 1_545
Ba7 Se0 3.413046 1_555
Ba7 Se0 3.413046 1_655
Mn0 Se3 2.518745 1_555
Mn0 Se8 2.532099 1_555
Mn0 Se4 2.612233 1_555
Mn0 Se4 2.612233 1_655
Mn1 Se0 2.518745 1_555
Mn1 Se11 2.532099 1_555
Mn1 Se5 2.612233 1_555
Mn1 Se5 2.612233 1_455
Mn2 Se1 2.518745 1_555
Mn2 Se10 2.532099 1_555
Mn2 Se6 2.612233 1_655
Mn2 Se6 2.612233 1_555
Mn3 Se2 2.518745 1_555
Mn3 Se9 2.532099 1_555
Mn3 Se7 2.612233 1_455
Mn3 Se7 2.612233 1_555
