# generated using pymatgen
data_Co2OF3
_symmetry_space_group_name_H-M   'P 1'
_cell_length_a   4.73061998
_cell_length_b   4.73061998
_cell_length_c   15.65146400
_cell_angle_alpha   90.00000000
_cell_angle_beta   90.00000000
_cell_angle_gamma   92.58482561
_symmetry_Int_Tables_number   1
_chemical_formula_structural   Co2OF3
_chemical_formula_sum   'Co10 O5 F15'
_cell_volume   349.90406770
_cell_formula_units_Z   5
loop_
 _symmetry_equiv_pos_site_id
 _symmetry_equiv_pos_as_xyz
  1  'x, y, z'
loop_
 _atom_site_type_symbol
 _atom_site_label
 _atom_site_symmetry_multiplicity
 _atom_site_fract_x
 _atom_site_fract_y
 _atom_site_fract_z
 _atom_site_occupancy
  Co  Co0  1  0.96623300  0.96623300  0.00000000  1
  Co  Co1  1  0.02732400  0.02732400  0.20039300  1
  Co  Co2  1  0.00598900  0.00598900  0.39925300  1
  Co  Co3  1  0.00598900  0.00598900  0.60074700  1
  Co  Co4  1  0.02732400  0.02732400  0.79960700  1
  Co  Co5  1  0.50045200  0.50045200  0.10097200  1
  Co  Co6  1  0.48652500  0.48652500  0.50000000  1
  Co  Co7  1  0.47427000  0.47427000  0.30379500  1
  Co  Co8  1  0.50045200  0.50045200  0.89902800  1
  Co  Co9  1  0.47427000  0.47427000  0.69620500  1
  O  O0  1  0.30313600  0.30313600  0.20013300  1
  O  O1  1  0.31097500  0.31097500  0.60518500  1
  O  O2  1  0.30313600  0.30313600  0.79986700  1
  O  O3  1  0.31097500  0.31097500  0.39481500  1
  O  O4  1  0.69333700  0.69333700  0.00000000  1
  F  F0  1  0.80595300  0.19262200  0.10016600  1
  F  F1  1  0.80456800  0.20009900  0.50000000  1
  F  F2  1  0.80369400  0.19899600  0.29603100  1
  F  F3  1  0.80369400  0.19899600  0.70396900  1
  F  F4  1  0.80595300  0.19262200  0.89983400  1
  F  F5  1  0.28351600  0.28351600  0.00000000  1
  F  F6  1  0.71021300  0.71021300  0.20376900  1
  F  F7  1  0.69923700  0.69923700  0.39687900  1
  F  F8  1  0.69923700  0.69923700  0.60312100  1
  F  F9  1  0.71021300  0.71021300  0.79623100  1
  F  F10  1  0.19262200  0.80595300  0.10016600  1
  F  F11  1  0.20009900  0.80456800  0.50000000  1
  F  F12  1  0.19899600  0.80369400  0.29603100  1
  F  F13  1  0.19262200  0.80595300  0.89983400  1
  F  F14  1  0.19899600  0.80369400  0.70396900  1
loop_
_geom_bond_atom_site_label_1
_geom_bond_atom_site_label_2
_geom_bond_distance
_geom_bond_site_symmetry_2
Co0 O4 1.784060 1_555
Co0 F0 2.062262 1_565
Co0 F10 2.062262 1_655
Co0 F4 2.062262 1_564
Co0 F13 2.062262 1_654
Co0 F5 2.074241 1_665
Co1 O0 1.803128 1_555
Co1 F2 2.024062 1_455
Co1 F12 2.024062 1_545
Co1 F10 2.059810 1_545
Co1 F0 2.059810 1_455
Co1 F6 2.073790 1_445
Co2 O3 1.995059 1_555
Co2 F7 2.005738 1_445
Co2 F11 2.077608 1_545
Co2 F1 2.077608 1_455
Co2 F2 2.106740 1_455
Co2 F12 2.106740 1_545
Co3 O1 1.995059 1_555
Co3 F8 2.005738 1_445
Co3 F11 2.077608 1_545
Co3 F1 2.077608 1_455
Co3 F3 2.106740 1_455
Co3 F14 2.106740 1_545
Co4 O2 1.803128 1_555
Co4 F3 2.024062 1_455
Co4 F14 2.024062 1_545
Co4 F4 2.059810 1_455
Co4 F13 2.059810 1_545
Co4 F9 2.073790 1_445
Co5 O0 2.018102 1_555
Co5 O4 2.021788 1_555
Co5 F10 2.097429 1_555
Co5 F0 2.097429 1_555
Co5 F6 2.114034 1_555
Co5 F5 2.123414 1_555
Co6 O1 2.006844 1_555
Co6 O3 2.006844 1_555
Co6 F11 2.069654 1_555
Co6 F1 2.069654 1_555
Co6 F7 2.130438 1_555
Co6 F8 2.130438 1_555
Co7 O3 1.780203 1_555
Co7 O0 1.970806 1_555
Co7 F7 2.070166 1_555
Co7 F12 2.078972 1_555
Co7 F2 2.078972 1_555
Co7 F6 2.197772 1_555
Co8 O2 2.018102 1_555
Co8 O4 2.021788 1_556
Co8 F4 2.097429 1_555
Co8 F13 2.097429 1_555
Co8 F9 2.114034 1_555
Co8 F5 2.123414 1_556
Co9 O1 1.780203 1_555
Co9 O2 1.970806 1_555
Co9 F8 2.070166 1_555
Co9 F3 2.078972 1_555
Co9 F14 2.078972 1_555
Co9 F9 2.197772 1_555
