# generated using pymatgen
data_Y3Fe29
_symmetry_space_group_name_H-M   'P 1'
_cell_length_a   6.41619733
_cell_length_b   6.41619733
_cell_length_c   10.47133232
_cell_angle_alpha   85.13818324
_cell_angle_beta   85.13818324
_cell_angle_gamma   82.67279058
_symmetry_Int_Tables_number   1
_chemical_formula_structural   Y3Fe29
_chemical_formula_sum   'Y3 Fe29'
_cell_volume   424.82676387
_cell_formula_units_Z   1
loop_
 _symmetry_equiv_pos_site_id
 _symmetry_equiv_pos_as_xyz
  1  'x, y, z'
loop_
 _atom_site_type_symbol
 _atom_site_label
 _atom_site_symmetry_multiplicity
 _atom_site_fract_x
 _atom_site_fract_y
 _atom_site_fract_z
 _atom_site_occupancy
  Y  Y0  1  0.00000000  0.00000000  0.00000000  1
  Y  Y1  1  0.18794100  0.18794100  0.40182300  1
  Y  Y2  1  0.81205900  0.81205900  0.59817700  1
  Fe  Fe0  1  0.50000000  0.50000000  0.50000000  1
  Fe  Fe1  1  0.29047200  0.29047200  0.85940900  1
  Fe  Fe2  1  0.70952800  0.70952800  0.14059100  1
  Fe  Fe3  1  0.52029400  0.52029400  0.74582800  1
  Fe  Fe4  1  0.47970600  0.47970600  0.25417200  1
  Fe  Fe5  1  0.12687300  0.68901500  0.80243000  1
  Fe  Fe6  1  0.31098500  0.87312700  0.19757000  1
  Fe  Fe7  1  0.87312700  0.31098500  0.19757000  1
  Fe  Fe8  1  0.68901500  0.12687300  0.80243000  1
  Fe  Fe9  1  0.16468100  0.46066300  0.62185900  1
  Fe  Fe10  1  0.53933700  0.83531900  0.37814100  1
  Fe  Fe11  1  0.83531900  0.53933700  0.37814100  1
  Fe  Fe12  1  0.46066300  0.16468100  0.62185900  1
  Fe  Fe13  1  0.64161500  0.35838500  0.00000000  1
  Fe  Fe14  1  0.35838500  0.64161500  0.00000000  1
  Fe  Fe15  1  0.27796400  0.27796400  0.10801600  1
  Fe  Fe16  1  0.72203600  0.72203600  0.89198400  1
  Fe  Fe17  1  0.40729200  0.90221900  0.80186700  1
  Fe  Fe18  1  0.09778100  0.59270800  0.19813300  1
  Fe  Fe19  1  0.59270800  0.09778100  0.19813300  1
  Fe  Fe20  1  0.90221900  0.40729200  0.80186700  1
  Fe  Fe21  1  0.90781900  0.90781900  0.29165800  1
  Fe  Fe22  1  0.09218100  0.09218100  0.70834200  1
  Fe  Fe23  1  0.31398600  0.81253400  0.59514200  1
  Fe  Fe24  1  0.18746600  0.68601400  0.40485800  1
  Fe  Fe25  1  0.68601400  0.18746600  0.40485800  1
  Fe  Fe26  1  0.81253400  0.31398600  0.59514200  1
  Fe  Fe27  1  0.50000000  0.00000000  0.00000000  1
  Fe  Fe28  1  0.00000000  0.50000000  0.00000000  1
loop_
_geom_bond_atom_site_label_1
_geom_bond_atom_site_label_2
_geom_bond_distance
_geom_bond_site_symmetry_2
Fe0 Fe11 2.437078 1_555
Fe0 Fe10 2.437078 1_555
Fe0 Fe9 2.437078 1_555
Fe0 Fe12 2.437078 1_555
Fe0 Fe23 2.442286 1_555
Fe0 Fe25 2.442286 1_555
Fe0 Fe26 2.442286 1_555
Fe0 Fe24 2.442286 1_555
Fe0 Fe3 2.603478 1_555
Fe0 Fe4 2.603478 1_555
Fe0 Y2 3.285593 1_555
Fe0 Y1 3.285593 1_555
Fe1 Fe3 2.392364 1_555
Fe1 Fe27 2.584457 1_556
Fe1 Fe28 2.584457 1_556
Fe1 Fe15 2.592410 1_556
Fe1 Fe17 2.613827 1_545
Fe1 Fe20 2.613827 1_455
Fe1 Fe22 2.614355 1_555
Fe1 Fe5 2.675748 1_555
Fe1 Fe8 2.675748 1_555
Fe1 Fe9 2.772434 1_555
Fe1 Fe12 2.772434 1_555
Fe1 Fe13 2.890426 1_556
Fe1 Fe14 2.890426 1_556
Fe1 Y0 3.011656 1_556
Fe2 Fe4 2.392364 1_555
Fe2 Fe27 2.584457 1_565
Fe2 Fe28 2.584457 1_655
Fe2 Fe21 2.614355 1_555
Fe2 Fe6 2.675748 1_555
Fe2 Fe7 2.675748 1_555
Fe2 Y0 3.011656 1_665
Fe3 Fe5 2.655798 1_555
Fe3 Fe8 2.655798 1_555
Fe3 Fe9 2.801161 1_555
Fe3 Y2 3.051563 1_555
Fe4 Fe6 2.655798 1_555
Fe4 Fe7 2.655798 1_555
Fe4 Y1 3.051563 1_555
Fe5 Fe9 2.466149 1_555
Fe5 Y0 2.987309 1_566
Fe5 Y2 3.052392 1_455
Fe6 Y0 2.987309 1_565
Fe6 Y1 3.052392 1_565
Fe7 Y0 2.987309 1_655
Fe7 Y1 3.052392 1_655
Fe8 Y0 2.987309 1_656
Fe8 Y2 3.052392 1_545
Fe9 Y1 2.991898 1_555
Fe9 Y2 2.993810 1_455
Fe10 Fe19 2.450656 1_565
Fe10 Fe6 2.466149 1_555
Fe10 Fe11 2.508603 1_555
Fe10 Fe21 2.544087 1_555
Fe10 Fe24 2.547987 1_555
Fe10 Fe23 2.591522 1_555
Fe10 Fe25 2.600615 1_565
Fe10 Fe2 2.772434 1_555
Fe10 Fe4 2.801161 1_555
Fe10 Y2 2.991898 1_555
Fe10 Y1 2.993810 1_565
Fe11 Fe18 2.450656 1_655
Fe11 Fe7 2.466149 1_555
Fe11 Fe21 2.544087 1_555
Fe11 Fe25 2.547987 1_555
Fe11 Fe26 2.591522 1_555
Fe11 Fe24 2.600615 1_655
Fe11 Fe2 2.772434 1_555
Fe11 Fe4 2.801161 1_555
Fe11 Y2 2.991898 1_555
Fe11 Y1 2.993810 1_655
Fe12 Fe17 2.450656 1_545
Fe12 Fe8 2.466149 1_555
Fe12 Fe9 2.508603 1_555
Fe12 Fe22 2.544087 1_555
Fe12 Fe26 2.547987 1_555
Fe12 Fe25 2.591522 1_555
Fe12 Fe23 2.600615 1_545
Fe12 Fe3 2.801161 1_555
Fe12 Y1 2.991898 1_555
Fe12 Y2 2.993810 1_545
Fe13 Fe14 2.400523 1_555
Fe13 Fe19 2.575701 1_555
Fe13 Fe20 2.575701 1_554
Fe13 Fe27 2.578004 1_555
Fe13 Fe28 2.578004 1_655
Fe13 Fe15 2.598170 1_555
Fe13 Fe16 2.598170 1_554
Fe13 Fe8 2.622600 1_554
Fe13 Fe7 2.622600 1_555
Fe13 Fe2 2.890426 1_555
Fe13 Fe4 2.906039 1_555
Fe13 Fe3 2.906039 1_554
Fe13 Y0 3.037501 1_655
Fe14 Fe18 2.575701 1_555
Fe14 Fe17 2.575701 1_554
Fe14 Fe28 2.578004 1_555
Fe14 Fe27 2.578004 1_565
Fe14 Fe15 2.598170 1_555
Fe14 Fe16 2.598170 1_554
Fe14 Fe5 2.622600 1_554
Fe14 Fe6 2.622600 1_555
Fe14 Fe2 2.890426 1_555
Fe14 Fe4 2.906039 1_555
Fe14 Fe3 2.906039 1_554
Fe14 Y0 3.037501 1_565
Fe15 Fe18 2.418226 1_555
Fe15 Fe19 2.418226 1_555
Fe15 Fe28 2.431126 1_555
Fe15 Fe27 2.431126 1_555
Fe15 Fe4 2.606198 1_555
Fe15 Fe7 2.674278 1_455
Fe15 Fe6 2.674278 1_545
Fe15 Y0 3.022591 1_555
Fe15 Y1 3.100820 1_555
Fe16 Fe17 2.418226 1_555
Fe16 Fe20 2.418226 1_555
Fe16 Fe28 2.431126 1_656
Fe16 Fe27 2.431126 1_566
Fe16 Fe2 2.592410 1_556
Fe16 Fe3 2.606198 1_555
Fe16 Fe5 2.674278 1_655
Fe16 Fe8 2.674278 1_565
Fe16 Y0 3.022591 1_666
Fe16 Y2 3.100820 1_555
Fe17 Fe27 2.361545 1_566
Fe17 Fe5 2.394407 1_555
Fe17 Fe23 2.427773 1_555
Fe17 Fe8 2.452133 1_565
Fe17 Fe22 2.457054 1_565
Fe17 Fe3 2.567770 1_555
Fe17 Y0 3.226551 1_566
Fe17 Y2 3.242787 1_555
Fe18 Fe28 2.361545 1_555
Fe18 Fe6 2.394407 1_555
Fe18 Fe24 2.427773 1_555
Fe18 Fe7 2.452133 1_455
Fe18 Fe21 2.457054 1_455
Fe18 Fe4 2.567770 1_555
Fe18 Fe2 2.613827 1_455
Fe18 Y0 3.226551 1_565
Fe18 Y1 3.242787 1_555
Fe19 Fe27 2.361545 1_555
Fe19 Fe7 2.394407 1_555
Fe19 Fe25 2.427773 1_555
Fe19 Fe6 2.452133 1_545
Fe19 Fe21 2.457054 1_545
Fe19 Fe4 2.567770 1_555
Fe19 Fe2 2.613827 1_545
Fe19 Y0 3.226551 1_655
Fe19 Y1 3.242787 1_555
Fe20 Fe28 2.361545 1_656
Fe20 Fe8 2.394407 1_555
Fe20 Fe26 2.427773 1_555
Fe20 Fe9 2.450656 1_655
Fe20 Fe5 2.452133 1_655
Fe20 Fe22 2.457054 1_655
Fe20 Fe3 2.567770 1_555
Fe20 Y0 3.226551 1_656
Fe20 Y2 3.242787 1_555
Fe21 Fe25 2.464357 1_565
Fe21 Fe24 2.464357 1_655
Fe21 Fe6 2.677689 1_655
Fe21 Fe7 2.677689 1_565
Fe21 Y1 3.052588 1_665
Fe21 Y0 3.082807 1_665
Fe21 Y2 3.238006 1_555
Fe22 Fe23 2.464357 1_545
Fe22 Fe26 2.464357 1_455
Fe22 Fe9 2.544087 1_555
Fe22 Fe8 2.677689 1_455
Fe22 Fe5 2.677689 1_545
Fe22 Y2 3.052588 1_445
Fe22 Y0 3.082807 1_556
Fe22 Y1 3.238006 1_555
Fe23 Fe24 2.450421 1_555
Fe23 Fe5 2.508034 1_555
Fe23 Fe9 2.547987 1_555
Fe23 Fe3 2.641448 1_555
Fe23 Y1 3.083466 1_565
Fe23 Y2 3.198195 1_555
Fe23 Y2 3.218313 1_455
Fe24 Fe6 2.508034 1_555
Fe24 Fe9 2.591522 1_555
Fe24 Fe4 2.641448 1_555
Fe24 Y2 3.083466 1_455
Fe24 Y1 3.198195 1_555
Fe24 Y1 3.218313 1_565
Fe25 Fe26 2.450421 1_555
Fe25 Fe7 2.508034 1_555
Fe25 Fe4 2.641448 1_555
Fe25 Y2 3.083466 1_545
Fe25 Y1 3.198195 1_555
Fe25 Y1 3.218313 1_655
Fe26 Fe8 2.508034 1_555
Fe26 Fe9 2.600615 1_655
Fe26 Fe3 2.641448 1_555
Fe26 Y1 3.083466 1_655
Fe26 Y2 3.198195 1_555
Fe26 Y2 3.218313 1_545
Fe27 Fe8 2.440190 1_554
Fe27 Fe6 2.440190 1_545
Fe27 Y0 3.208099 1_555
Fe27 Y0 3.208099 1_655
Fe28 Fe5 2.440190 1_554
Fe28 Fe7 2.440190 1_455
Fe28 Y0 3.208099 1_555
Fe28 Y0 3.208099 1_565
