# generated using pymatgen
data_DyAlSi
_symmetry_space_group_name_H-M   'P 1'
_cell_length_a   7.80492298
_cell_length_b   7.80492298
_cell_length_c   7.80492298
_cell_angle_alpha   149.58224990
_cell_angle_beta   149.58224990
_cell_angle_gamma   43.55496213
_symmetry_Int_Tables_number   1
_chemical_formula_structural   DyAlSi
_chemical_formula_sum   'Dy2 Al2 Si2'
_cell_volume   121.54411734
_cell_formula_units_Z   2
loop_
 _symmetry_equiv_pos_site_id
 _symmetry_equiv_pos_as_xyz
  1  'x, y, z'
loop_
 _atom_site_type_symbol
 _atom_site_label
 _atom_site_symmetry_multiplicity
 _atom_site_fract_x
 _atom_site_fract_y
 _atom_site_fract_z
 _atom_site_occupancy
  Dy  Dy0  1  0.62404300  0.12404300  0.50000000  1
  Dy  Dy1  1  0.87404300  0.87404300  0.00000000  1
  Al  Al0  1  0.45777600  0.45777600  0.00000000  1
  Al  Al1  1  0.20777600  0.70777600  0.50000000  1
  Si  Si0  1  0.04318200  0.54318200  0.50000000  1
  Si  Si1  1  0.29318200  0.29318200  0.00000000  1
loop_
_geom_bond_atom_site_label_1
_geom_bond_atom_site_label_2
_geom_bond_distance
_geom_bond_site_symmetry_2
Dy0 Si0 3.123893 1_656
Dy0 Si0 3.123893 1_645
Dy0 Si0 3.123893 1_544
Dy0 Si0 3.123893 1_555
Dy0 Si1 3.194329 1_555
Dy0 Si1 3.194329 1_656
Dy1 Si1 3.123893 1_666
Dy1 Si1 3.123893 1_554
Dy1 Si1 3.123893 1_655
Dy1 Si1 3.123893 1_565
Dy1 Si0 3.194329 1_654
Dy1 Si0 3.194329 1_665
Al0 Si1 2.385921 1_555
Al0 Si0 2.392719 1_554
Al0 Si0 2.392719 1_655
Al0 Dy1 3.139751 1_455
Al0 Dy1 3.139751 1_444
Al0 Dy1 3.139751 1_545
Al0 Dy1 3.139751 1_556
Al0 Dy0 3.162487 1_554
Al0 Dy0 3.162487 1_565
Al1 Si0 2.385921 1_555
Al1 Si1 2.392719 1_555
Al1 Si1 2.392719 1_566
Al1 Dy0 3.139751 1_555
Al1 Dy0 3.139751 1_454
Al1 Dy0 3.139751 1_465
Al1 Dy0 3.139751 1_566
Al1 Dy1 3.162487 1_455
Al1 Dy1 3.162487 1_556
