# generated using pymatgen
data_Yb2MgSe4
_symmetry_space_group_name_H-M   'P 1'
_cell_length_a   8.31212082
_cell_length_b   8.31212082
_cell_length_c   8.31212082
_cell_angle_alpha   60.00000000
_cell_angle_beta   60.00000000
_cell_angle_gamma   60.00000000
_symmetry_Int_Tables_number   1
_chemical_formula_structural   Yb2MgSe4
_chemical_formula_sum   'Yb4 Mg2 Se8'
_cell_volume   406.08836298
_cell_formula_units_Z   2
loop_
 _symmetry_equiv_pos_site_id
 _symmetry_equiv_pos_as_xyz
  1  'x, y, z'
loop_
 _atom_site_type_symbol
 _atom_site_label
 _atom_site_symmetry_multiplicity
 _atom_site_fract_x
 _atom_site_fract_y
 _atom_site_fract_z
 _atom_site_occupancy
  Yb  Yb0  1  0.62500000  0.62500000  0.62500000  1
  Yb  Yb1  1  0.62500000  0.62500000  0.12500000  1
  Yb  Yb2  1  0.62500000  0.12500000  0.62500000  1
  Yb  Yb3  1  0.12500000  0.62500000  0.62500000  1
  Mg  Mg0  1  0.00000000  0.00000000  0.00000000  1
  Mg  Mg1  1  0.25000000  0.25000000  0.25000000  1
  Se  Se0  1  0.86830000  0.37723300  0.37723300  1
  Se  Se1  1  0.87276700  0.87276700  0.87276700  1
  Se  Se2  1  0.38170000  0.87276700  0.87276700  1
  Se  Se3  1  0.37723300  0.37723300  0.86830000  1
  Se  Se4  1  0.37723300  0.37723300  0.37723300  1
  Se  Se5  1  0.87276700  0.38170000  0.87276700  1
  Se  Se6  1  0.87276700  0.87276700  0.38170000  1
  Se  Se7  1  0.37723300  0.86830000  0.37723300  1
loop_
_geom_bond_atom_site_label_1
_geom_bond_atom_site_label_2
_geom_bond_distance
_geom_bond_site_symmetry_2
Mg0 Se1 2.590522 1_444
Mg0 Se2 2.590529 1_544
Mg0 Se6 2.590529 1_445
Mg0 Se5 2.590529 1_454
Mg1 Se4 2.590522 1_555
Mg1 Se7 2.590529 1_545
Mg1 Se3 2.590529 1_554
Mg1 Se0 2.590529 1_455
Se0 Yb1 2.912760 1_555
Se0 Yb2 2.912760 1_555
Se0 Yb0 2.912766 1_555
Se1 Yb3 2.912766 1_655
Se1 Yb1 2.912766 1_556
Se1 Yb2 2.912766 1_565
Se2 Yb2 2.912760 1_565
Se2 Yb1 2.912760 1_556
Se2 Yb0 2.912766 1_555
Se3 Yb2 2.912760 1_555
Se3 Yb3 2.912760 1_555
Se3 Yb0 2.912766 1_555
Se4 Yb3 2.912766 1_555
Se4 Yb2 2.912766 1_555
Se4 Yb1 2.912766 1_555
Se5 Yb3 2.912760 1_655
Se5 Yb1 2.912760 1_556
Se5 Yb0 2.912766 1_555
Se6 Yb3 2.912760 1_655
Se6 Yb2 2.912760 1_565
Se6 Yb0 2.912766 1_555
Se7 Yb1 2.912760 1_555
Se7 Yb3 2.912760 1_555
Se7 Yb0 2.912766 1_555
