# generated using pymatgen
data_DyMnFe
_symmetry_space_group_name_H-M   'P 1'
_cell_length_a   5.13996060
_cell_length_b   5.13996060
_cell_length_c   5.13996060
_cell_angle_alpha   120.73867755
_cell_angle_beta   119.11118191
_cell_angle_gamma   90.13584024
_symmetry_Int_Tables_number   1
_chemical_formula_structural   DyMnFe
_chemical_formula_sum   'Dy2 Mn2 Fe2'
_cell_volume   96.10508260
_cell_formula_units_Z   2
loop_
 _symmetry_equiv_pos_site_id
 _symmetry_equiv_pos_as_xyz
  1  'x, y, z'
loop_
 _atom_site_type_symbol
 _atom_site_label
 _atom_site_symmetry_multiplicity
 _atom_site_fract_x
 _atom_site_fract_y
 _atom_site_fract_z
 _atom_site_occupancy
  Dy  Dy0  1  0.12624700  0.87624700  0.25000000  1
  Dy  Dy1  1  0.87375300  0.12375300  0.75000000  1
  Mn  Mn0  1  0.50000000  0.50000000  0.00000000  1
  Mn  Mn1  1  0.00000000  0.50000000  0.50000000  1
  Fe  Fe0  1  0.50000000  0.50000000  0.50000000  1
  Fe  Fe1  1  0.50000000  0.00000000  0.00000000  1
loop_
_geom_bond_atom_site_label_1
_geom_bond_atom_site_label_2
_geom_bond_distance
_geom_bond_site_symmetry_2
Dy0 Mn1 2.993479 1_554
Dy0 Mn1 2.993479 1_565
Dy0 Mn0 2.993479 1_555
Dy0 Mn0 2.993479 1_566
Dy0 Fe1 2.996336 1_565
Dy0 Fe0 2.996336 1_565
Dy0 Mn0 3.026207 1_455
Dy0 Mn1 3.026207 1_555
Dy0 Fe1 3.039354 1_465
Dy0 Fe0 3.039354 1_454
Dy0 Fe0 3.039354 1_555
Dy0 Fe1 3.039354 1_566
Dy0 Dy1 3.133448 1_454
Dy0 Dy1 3.133448 1_465
Dy0 Dy1 3.164208 1_565
Dy0 Dy1 3.164208 1_464
Dy1 Mn1 2.993479 1_656
Dy1 Mn0 2.993479 1_556
Dy1 Mn1 2.993479 1_645
Dy1 Mn0 2.993479 1_545
Dy1 Fe1 2.996336 1_556
Dy1 Fe0 2.996336 1_545
Dy1 Mn1 3.026207 1_655
Dy1 Mn0 3.026207 1_656
Dy1 Fe1 3.039354 1_555
Dy1 Fe0 3.039354 1_656
Dy1 Fe1 3.039354 1_656
Dy1 Fe0 3.039354 1_555
Mn0 Mn1 2.604429 1_655
Mn0 Mn1 2.604429 1_554
Fe0 Fe1 2.541233 1_566
Fe0 Fe1 2.541233 1_555
Fe0 Mn0 2.569980 1_555
Fe0 Mn0 2.569980 1_556
Fe0 Mn1 2.569980 1_555
Fe0 Mn1 2.569980 1_655
Fe1 Mn0 2.569980 1_555
Fe1 Mn0 2.569980 1_545
Fe1 Mn1 2.569980 1_544
Fe1 Mn1 2.569980 1_655
