# generated using pymatgen
data_Sr3Li4Nb6O20
_symmetry_space_group_name_H-M   'P 1'
_cell_length_a   13.61707307
_cell_length_b   13.61707307
_cell_length_c   5.65871500
_cell_angle_alpha   90.00000000
_cell_angle_beta   90.00000000
_cell_angle_gamma   156.01731543
_symmetry_Int_Tables_number   1
_chemical_formula_structural   Sr3Li4Nb6O20
_chemical_formula_sum   'Sr3 Li4 Nb6 O20'
_cell_volume   426.48498669
_cell_formula_units_Z   1
loop_
 _symmetry_equiv_pos_site_id
 _symmetry_equiv_pos_as_xyz
  1  'x, y, z'
loop_
 _atom_site_type_symbol
 _atom_site_label
 _atom_site_symmetry_multiplicity
 _atom_site_fract_x
 _atom_site_fract_y
 _atom_site_fract_z
 _atom_site_occupancy
  Sr  Sr0  1  0.91583300  0.08416700  0.50000000  1
  Sr  Sr1  1  0.07741600  0.92258400  0.50000000  1
  Sr  Sr2  1  0.57701500  0.42298500  0.00000000  1
  Li  Li0  1  0.50217600  0.99876600  0.25044400  1
  Li  Li1  1  0.00123400  0.49782400  0.74955600  1
  Li  Li2  1  0.00123400  0.49782400  0.25044400  1
  Li  Li3  1  0.50217600  0.99876600  0.74955600  1
  Nb  Nb0  1  0.84246200  0.15753800  0.00000000  1
  Nb  Nb1  1  0.34246200  0.65753800  0.50000000  1
  Nb  Nb2  1  0.65671100  0.34328900  0.50000000  1
  Nb  Nb3  1  0.15676900  0.84323100  0.00000000  1
  Nb  Nb4  1  0.49673800  0.50326200  0.50000000  1
  Nb  Nb5  1  0.99674200  0.00325800  0.00000000  1
  O  O0  1  0.92571800  0.07428200  0.00000000  1
  O  O1  1  0.42571700  0.57428300  0.50000000  1
  O  O2  1  0.57615300  0.42384700  0.50000000  1
  O  O3  1  0.07617100  0.92382900  0.00000000  1
  O  O4  1  0.09246100  0.39327800  0.25713200  1
  O  O5  1  0.60672200  0.90753900  0.74286800  1
  O  O6  1  0.60672200  0.90753900  0.25713200  1
  O  O7  1  0.09246100  0.39327800  0.74286800  1
  O  O8  1  0.39916900  0.10127700  0.24975700  1
  O  O9  1  0.89872300  0.60083100  0.75024300  1
  O  O10  1  0.89872300  0.60083100  0.24975700  1
  O  O11  1  0.39916900  0.10127700  0.75024300  1
  O  O12  1  0.24734500  0.24008300  0.25629000  1
  O  O13  1  0.75991700  0.75265500  0.74371000  1
  O  O14  1  0.75991700  0.75265500  0.25629000  1
  O  O15  1  0.24734500  0.24008300  0.74371000  1
  O  O16  1  0.77136300  0.22863700  0.00000000  1
  O  O17  1  0.27136100  0.72863900  0.50000000  1
  O  O18  1  0.72796800  0.27203200  0.50000000  1
  O  O19  1  0.22804700  0.77195300  0.00000000  1
loop_
_geom_bond_atom_site_label_1
_geom_bond_atom_site_label_2
_geom_bond_distance
_geom_bond_site_symmetry_2
Li0 O16 2.067885 1_565
Li0 O17 2.068080 1_555
Li0 O18 2.094648 1_565
Li0 O19 2.100998 1_555
Li0 O6 2.608230 1_555
Li1 O16 2.067885 1_456
Li1 O17 2.068080 1_555
Li1 O18 2.094648 1_455
Li1 O19 2.100998 1_556
Li1 O7 2.608230 1_555
Li2 O16 2.067885 1_455
Li2 O17 2.068080 1_555
Li2 O18 2.094648 1_455
Li2 O19 2.100998 1_555
Li2 O4 2.608230 1_555
Li3 O16 2.067885 1_566
Li3 O17 2.068080 1_555
Li3 O18 2.094648 1_565
Li3 O19 2.100998 1_556
Li3 O5 2.608230 1_555
Nb0 O16 1.894068 1_555
Nb0 O7 2.010396 1_654
Nb0 O4 2.010396 1_655
Nb0 O6 2.010396 1_545
Nb0 O5 2.010396 1_544
Nb0 O0 2.217929 1_555
Nb1 O17 1.894121 1_555
Nb1 O5 2.010375 1_555
Nb1 O6 2.010375 1_555
Nb1 O7 2.010375 1_555
Nb1 O4 2.010375 1_555
Nb1 O1 2.217902 1_555
Nb2 O18 1.898277 1_555
Nb2 O9 2.011326 1_555
Nb2 O10 2.011326 1_555
Nb2 O8 2.011326 1_555
Nb2 O11 2.011326 1_555
Nb2 O2 2.146055 1_555
Nb3 O19 1.898837 1_555
Nb3 O9 2.011326 1_454
Nb3 O10 2.011326 1_455
Nb3 O11 2.011326 1_564
Nb3 O8 2.011326 1_565
Nb3 O3 2.147120 1_555
Nb4 O1 1.891990 1_555
Nb4 O15 2.009600 1_555
Nb4 O14 2.009600 1_555
Nb4 O12 2.009600 1_555
Nb4 O13 2.009600 1_555
Nb4 O2 2.115605 1_555
Nb5 O0 1.892070 1_555
Nb5 O15 2.009629 1_654
Nb5 O12 2.009629 1_655
Nb5 O14 2.009629 1_545
Nb5 O13 2.009629 1_544
Nb5 O3 2.115978 1_645
O0 Sr0 2.841586 1_555
O0 Sr0 2.841586 1_554
O1 Sr0 2.841363 1_455
O1 Sr0 2.841363 1_565
O2 Sr1 2.829336 1_545
O2 Sr1 2.829336 1_655
O2 Sr2 2.829451 1_555
O2 Sr2 2.829451 1_556
O3 Sr2 2.829225 1_455
O3 Sr2 2.829225 1_565
O3 Sr1 2.829552 1_554
O3 Sr1 2.829552 1_555
O4 Sr0 2.625126 1_455
O5 Sr0 2.625126 1_565
O6 Sr0 2.625126 1_565
O7 Sr0 2.625126 1_455
O8 Sr1 2.764218 1_545
O8 Sr2 2.768900 1_555
O9 Sr1 2.764218 1_655
O9 Sr2 2.768900 1_556
O10 Sr1 2.764218 1_655
O10 Sr2 2.768900 1_555
O11 Sr1 2.764218 1_545
O11 Sr2 2.768900 1_556
O12 Sr1 2.768969 1_545
O12 Sr2 2.833368 1_555
O12 Sr0 3.045341 1_455
O13 Sr1 2.768969 1_655
O13 Sr2 2.833368 1_556
O13 Sr0 3.045341 1_565
O14 Sr1 2.768969 1_655
O14 Sr2 2.833368 1_555
O14 Sr0 3.045341 1_565
O15 Sr1 2.768969 1_545
O15 Sr2 2.833368 1_556
O15 Sr0 3.045341 1_455
