# generated using pymatgen
data_Ho3Mn3Ga2Ge
_symmetry_space_group_name_H-M   'P 1'
_cell_length_a   6.98249024
_cell_length_b   6.98249024
_cell_length_c   4.12314900
_cell_angle_alpha   90.00000000
_cell_angle_beta   90.00000000
_cell_angle_gamma   120.00000228
_symmetry_Int_Tables_number   1
_chemical_formula_structural   Ho3Mn3Ga2Ge
_chemical_formula_sum   'Ho3 Mn3 Ga2 Ge1'
_cell_volume   174.09260582
_cell_formula_units_Z   1
loop_
 _symmetry_equiv_pos_site_id
 _symmetry_equiv_pos_as_xyz
  1  'x, y, z'
loop_
 _atom_site_type_symbol
 _atom_site_label
 _atom_site_symmetry_multiplicity
 _atom_site_fract_x
 _atom_site_fract_y
 _atom_site_fract_z
 _atom_site_occupancy
  Ho  Ho0  1  0.42189500  0.42035800  0.50000000  1
  Ho  Ho1  1  0.57964200  0.00153700  0.50000000  1
  Ho  Ho2  1  0.99846300  0.57810500  0.50000000  1
  Mn  Mn0  1  0.77148300  0.76780100  0.00000000  1
  Mn  Mn1  1  0.23219900  0.00368200  0.00000000  1
  Mn  Mn2  1  0.99631800  0.22851700  0.00000000  1
  Ga  Ga0  1  0.33333300  0.66666700  0.00000000  1
  Ga  Ga1  1  0.00000000  0.00000000  0.50000000  1
  Ge  Ge0  1  0.66666700  0.33333300  0.00000000  1
loop_
_geom_bond_atom_site_label_1
_geom_bond_atom_site_label_2
_geom_bond_distance
_geom_bond_site_symmetry_2
Ho0 Mn0 3.189390 1_555
Ho0 Mn0 3.189390 1_556
Ho0 Mn1 3.258166 1_555
Ho0 Mn1 3.258166 1_556
Ho0 Mn2 3.300641 1_456
Ho0 Mn2 3.300641 1_455
Ho1 Mn1 3.189390 1_555
Ho1 Mn1 3.189390 1_556
Ho1 Mn2 3.258166 1_555
Ho1 Mn2 3.258166 1_556
Ho1 Mn0 3.300641 1_545
Ho1 Mn0 3.300641 1_546
Ho2 Mn2 3.189390 1_555
Ho2 Mn2 3.189390 1_556
Ho2 Mn0 3.258166 1_556
Ho2 Mn0 3.258166 1_555
Ho2 Mn1 3.300641 1_666
Ho2 Mn1 3.300641 1_665
Mn0 Mn1 2.786223 1_665
Mn0 Mn2 2.786223 1_565
Mn1 Mn2 2.786223 1_455
Ga0 Mn1 2.774526 1_565
Ga0 Mn2 2.774531 1_455
Ga0 Mn0 2.774533 1_555
Ga0 Ho2 2.941746 1_454
Ga0 Ho2 2.941746 1_455
Ga0 Ho1 2.941747 1_565
Ga0 Ho1 2.941747 1_564
Ga0 Ho0 2.941751 1_555
Ga0 Ho0 2.941751 1_554
Ga1 Mn0 2.614913 1_446
Ga1 Mn0 2.614913 1_445
Ga1 Mn1 2.614913 1_555
Ga1 Mn1 2.614913 1_556
Ga1 Mn2 2.614913 1_456
Ga1 Mn2 2.614913 1_455
Ga1 Ho0 2.940526 1_555
Ga1 Ho2 2.940526 1_445
Ga1 Ho1 2.940526 1_455
Ge0 Mn2 2.741985 1_555
Ge0 Mn1 2.741989 1_555
Ge0 Mn0 2.741991 1_555
Ge0 Ho1 2.928982 1_555
Ge0 Ho1 2.928982 1_554
Ge0 Ho2 2.928983 1_554
Ge0 Ho2 2.928983 1_555
Ge0 Ho0 2.928986 1_555
Ge0 Ho0 2.928986 1_554
