# generated using pymatgen
data_Ni2Ge
_symmetry_space_group_name_H-M   'P 1'
_cell_length_a   3.97981058
_cell_length_b   3.97980998
_cell_length_c   5.02387811
_cell_angle_alpha   90.00000000
_cell_angle_beta   90.00000000
_cell_angle_gamma   120.00001332
_symmetry_Int_Tables_number   1
_chemical_formula_structural   Ni2Ge
_chemical_formula_sum   'Ni4 Ge2'
_cell_volume   68.91192885
_cell_formula_units_Z   2
loop_
 _symmetry_equiv_pos_site_id
 _symmetry_equiv_pos_as_xyz
  1  'x, y, z'
loop_
 _atom_site_type_symbol
 _atom_site_label
 _atom_site_symmetry_multiplicity
 _atom_site_fract_x
 _atom_site_fract_y
 _atom_site_fract_z
 _atom_site_occupancy
  Ni  Ni0  1  0.66666700  0.33333300  0.25000000  1
  Ni  Ni1  1  0.33333300  0.66666700  0.75000000  1
  Ni  Ni2  1  0.00000000  0.00000000  -0.00000000  1
  Ni  Ni3  1  0.00000000  0.00000000  0.50000000  1
  Ge  Ge0  1  0.66666700  0.33333300  0.75000000  1
  Ge  Ge1  1  0.33333300  0.66666700  0.25000000  1
loop_
_geom_bond_atom_site_label_1
_geom_bond_atom_site_label_2
_geom_bond_distance
_geom_bond_site_symmetry_2
Ni0 Ni2 2.618603 1_655
Ni0 Ni3 2.618603 1_655
Ni0 Ni3 2.618605 1_665
Ni0 Ni2 2.618605 1_665
Ni0 Ni2 2.618605 1_555
Ni0 Ni3 2.618605 1_555
Ni1 Ni3 2.618603 1_565
Ni1 Ni2 2.618603 1_566
Ni1 Ni3 2.618605 1_555
Ni1 Ni2 2.618605 1_556
Ni1 Ni2 2.618605 1_666
Ni1 Ni3 2.618605 1_665
Ni2 Ni3 2.511939 1_555
Ni2 Ni3 2.511939 1_554
Ge0 Ni1 2.297742 1_545
Ge0 Ni1 2.297742 1_655
Ge0 Ni1 2.297749 1_555
Ge0 Ni0 2.511939 1_555
Ge0 Ni0 2.511939 1_556
Ge0 Ni3 2.618603 1_655
Ge0 Ni2 2.618603 1_656
Ge0 Ni3 2.618605 1_665
Ge0 Ni2 2.618605 1_666
Ge0 Ni2 2.618605 1_556
Ge0 Ni3 2.618605 1_555
Ge1 Ni0 2.297742 1_565
Ge1 Ni0 2.297742 1_455
Ge1 Ni0 2.297749 1_555
Ge1 Ni1 2.511939 1_554
Ge1 Ni1 2.511939 1_555
Ge1 Ni2 2.618603 1_565
Ge1 Ni3 2.618603 1_565
Ge1 Ni2 2.618605 1_555
Ge1 Ni3 2.618605 1_555
Ge1 Ni2 2.618605 1_665
Ge1 Ni3 2.618605 1_665
