# generated using pymatgen
data_BaNd2Sc2O7
_symmetry_space_group_name_H-M   'P 1'
_cell_length_a   5.85393900
_cell_length_b   5.85393900
_cell_length_c   20.45404100
_cell_angle_alpha   90.00000000
_cell_angle_beta   90.00000000
_cell_angle_gamma   90.00000000
_symmetry_Int_Tables_number   1
_chemical_formula_structural   BaNd2Sc2O7
_chemical_formula_sum   'Ba4 Nd8 Sc8 O28'
_cell_volume   700.93138655
_cell_formula_units_Z   4
loop_
 _symmetry_equiv_pos_site_id
 _symmetry_equiv_pos_as_xyz
  1  'x, y, z'
loop_
 _atom_site_type_symbol
 _atom_site_label
 _atom_site_symmetry_multiplicity
 _atom_site_fract_x
 _atom_site_fract_y
 _atom_site_fract_z
 _atom_site_occupancy
  Ba  Ba0  1  0.23848200  0.76151800  0.50000000  1
  Ba  Ba1  1  0.76151800  0.23848200  0.50000000  1
  Ba  Ba2  1  0.26151800  0.26151800  0.00000000  1
  Ba  Ba3  1  0.73848200  0.73848200  0.00000000  1
  Nd  Nd0  1  0.22341300  0.77658700  0.31559400  1
  Nd  Nd1  1  0.77658700  0.22341300  0.31559400  1
  Nd  Nd2  1  0.27658700  0.27658700  0.81559400  1
  Nd  Nd3  1  0.72341300  0.72341300  0.81559400  1
  Nd  Nd4  1  0.77658700  0.22341300  0.68440600  1
  Nd  Nd5  1  0.22341300  0.77658700  0.68440600  1
  Nd  Nd6  1  0.72341300  0.72341300  0.18440600  1
  Nd  Nd7  1  0.27658700  0.27658700  0.18440600  1
  Sc  Sc0  1  0.24164200  0.75835800  0.10174700  1
  Sc  Sc1  1  0.75835800  0.24164200  0.10174700  1
  Sc  Sc2  1  0.25835800  0.25835800  0.60174700  1
  Sc  Sc3  1  0.74164200  0.74164200  0.60174700  1
  Sc  Sc4  1  0.75835800  0.24164200  0.89825300  1
  Sc  Sc5  1  0.24164200  0.75835800  0.89825300  1
  Sc  Sc6  1  0.74164200  0.74164200  0.39825300  1
  Sc  Sc7  1  0.25835800  0.25835800  0.39825300  1
  O  O0  1  0.28442700  0.28442700  0.50000000  1
  O  O1  1  0.71557300  0.71557300  0.50000000  1
  O  O2  1  0.21557300  0.78442700  0.00000000  1
  O  O3  1  0.78442700  0.21557300  0.00000000  1
  O  O4  1  0.31443500  0.68556500  0.20981400  1
  O  O5  1  0.68556500  0.31443500  0.20981400  1
  O  O6  1  0.18556500  0.18556500  0.70981400  1
  O  O7  1  0.81443500  0.81443500  0.70981400  1
  O  O8  1  0.68556500  0.31443500  0.79018600  1
  O  O9  1  0.31443500  0.68556500  0.79018600  1
  O  O10  1  0.81443500  0.81443500  0.29018600  1
  O  O11  1  0.18556500  0.18556500  0.29018600  1
  O  O12  1  0.00000000  0.50000000  0.38631400  1
  O  O13  1  0.50000000  0.00000000  0.88631400  1
  O  O14  1  0.00000000  0.50000000  0.61368600  1
  O  O15  1  0.50000000  0.00000000  0.11368600  1
  O  O16  1  0.50000000  0.00000000  0.38631400  1
  O  O17  1  0.00000000  0.50000000  0.88631400  1
  O  O18  1  0.50000000  0.00000000  0.61368600  1
  O  O19  1  0.00000000  0.50000000  0.11368600  1
  O  O20  1  0.50000000  0.50000000  0.37000900  1
  O  O21  1  0.00000000  0.00000000  0.87000900  1
  O  O22  1  0.50000000  0.50000000  0.62999100  1
  O  O23  1  0.00000000  0.00000000  0.12999100  1
  O  O24  1  0.50000000  0.50000000  0.09353200  1
  O  O25  1  0.00000000  0.00000000  0.59353200  1
  O  O26  1  0.50000000  0.50000000  0.90646800  1
  O  O27  1  0.00000000  0.00000000  0.40646800  1
loop_
_geom_bond_atom_site_label_1
_geom_bond_atom_site_label_2
_geom_bond_distance
_geom_bond_site_symmetry_2
Ba0 O25 2.749171 1_565
Ba0 O27 2.749171 1_565
Ba0 O0 2.805782 1_555
Ba0 O1 2.805782 1_555
Ba0 O0 3.072871 1_565
Ba0 O1 3.072871 1_455
Ba0 O14 3.114461 1_555
Ba0 O18 3.114461 1_565
Ba0 O16 3.114461 1_565
Ba0 O12 3.114461 1_555
Ba1 O25 2.749171 1_655
Ba1 O27 2.749171 1_655
Ba1 O0 2.805782 1_555
Ba1 O1 2.805782 1_555
Ba1 O1 3.072871 1_545
Ba1 O0 3.072871 1_655
Ba1 O18 3.114461 1_555
Ba1 O14 3.114461 1_655
Ba1 O12 3.114461 1_655
Ba1 O16 3.114461 1_555
Ba2 O26 2.749171 1_554
Ba2 O24 2.749171 1_555
Ba2 O2 2.805782 1_545
Ba2 O3 2.805782 1_455
Ba2 O2 3.072871 1_555
Ba2 O3 3.072871 1_555
Ba2 O17 3.114461 1_554
Ba2 O13 3.114461 1_554
Ba2 O19 3.114461 1_555
Ba2 O15 3.114461 1_555
Ba3 O26 2.749171 1_554
Ba3 O24 2.749171 1_555
Ba3 O2 2.805782 1_655
Ba3 O3 2.805782 1_565
Ba3 O3 3.072871 1_555
Ba3 O2 3.072871 1_555
Ba3 O13 3.114461 1_564
Ba3 O17 3.114461 1_654
Ba3 O15 3.114461 1_565
Ba3 O19 3.114461 1_655
Nd0 O4 2.291096 1_555
Nd0 O10 2.459887 1_455
Nd0 O11 2.459887 1_565
Nd0 O16 2.534642 1_565
Nd0 O12 2.534642 1_555
Nd0 O20 2.545959 1_555
Nd0 O27 2.622182 1_565
Nd1 O5 2.291096 1_555
Nd1 O10 2.459887 1_545
Nd1 O11 2.459887 1_655
Nd1 O12 2.534642 1_655
Nd1 O16 2.534642 1_555
Nd1 O20 2.545959 1_555
Nd1 O27 2.622182 1_655
Nd2 O6 2.291096 1_555
Nd2 O8 2.459887 1_555
Nd2 O9 2.459887 1_555
Nd2 O13 2.534642 1_555
Nd2 O17 2.534642 1_555
Nd2 O21 2.545959 1_555
Nd2 O26 2.622182 1_555
Nd3 O7 2.291096 1_555
Nd3 O8 2.459887 1_555
Nd3 O9 2.459887 1_555
Nd3 O13 2.534642 1_565
Nd3 O17 2.534642 1_655
Nd3 O21 2.545959 1_665
Nd3 O26 2.622182 1_555
Nd4 O8 2.291096 1_555
Nd4 O6 2.459887 1_655
Nd4 O7 2.459887 1_545
Nd4 O14 2.534642 1_655
Nd4 O18 2.534642 1_555
Nd4 O22 2.545959 1_555
Nd4 O25 2.622182 1_655
Nd5 O9 2.291096 1_555
Nd5 O6 2.459887 1_565
Nd5 O7 2.459887 1_455
Nd5 O18 2.534642 1_565
Nd5 O14 2.534642 1_555
Nd5 O22 2.545959 1_555
Nd5 O25 2.622182 1_565
Nd6 O10 2.291096 1_555
Nd6 O5 2.459887 1_555
Nd6 O4 2.459887 1_555
Nd6 O19 2.534642 1_655
Nd6 O15 2.534642 1_565
Nd6 O23 2.545959 1_665
Nd6 O24 2.622182 1_555
Nd7 O11 2.291096 1_555
Nd7 O5 2.459887 1_555
Nd7 O4 2.459887 1_555
Nd7 O19 2.534642 1_555
Nd7 O15 2.534642 1_555
Nd7 O23 2.545959 1_555
Nd7 O24 2.622182 1_555
O0 Sc7 2.092298 1_555
O0 Sc2 2.092298 1_555
O1 Sc6 2.092298 1_555
O1 Sc3 2.092298 1_555
O2 Sc0 2.092298 1_555
O2 Sc5 2.092298 1_554
O3 Sc1 2.092298 1_555
O3 Sc4 2.092298 1_554
O4 Sc0 2.291084 1_555
O5 Sc1 2.291084 1_555
O6 Sc2 2.291084 1_555
O7 Sc3 2.291084 1_555
O8 Sc4 2.291084 1_555
O9 Sc5 2.291084 1_555
O10 Sc6 2.291084 1_555
O11 Sc7 2.291084 1_555
O12 Sc6 2.085185 1_455
O12 Sc7 2.085185 1_555
O13 Sc4 2.085185 1_555
O13 Sc5 2.085185 1_545
O14 Sc2 2.085185 1_555
O14 Sc3 2.085185 1_455
O15 Sc1 2.085185 1_555
O15 Sc0 2.085185 1_545
O16 Sc6 2.085185 1_545
O16 Sc7 2.085185 1_555
O17 Sc5 2.085185 1_555
O17 Sc4 2.085185 1_455
O18 Sc2 2.085185 1_555
O18 Sc3 2.085185 1_545
O19 Sc1 2.085185 1_455
O19 Sc0 2.085185 1_555
O20 Sc7 2.082231 1_555
O20 Sc6 2.082231 1_555
O21 Sc4 2.082231 1_455
O21 Sc5 2.082231 1_545
O22 Sc2 2.082231 1_555
O22 Sc3 2.082231 1_555
O23 Sc1 2.082231 1_455
O23 Sc0 2.082231 1_545
O24 Sc0 2.145464 1_555
O24 Sc1 2.145464 1_555
O25 Sc2 2.145464 1_555
O25 Sc3 2.145464 1_445
O26 Sc4 2.145464 1_555
O26 Sc5 2.145464 1_555
O27 Sc6 2.145464 1_445
O27 Sc7 2.145464 1_555
