# generated using pymatgen
data_K2AgF4
_symmetry_space_group_name_H-M   'P 1'
_cell_length_a   3.73815599
_cell_length_b   6.37864583
_cell_length_c   10.14621485
_cell_angle_alpha   90.00000000
_cell_angle_beta   90.00000000
_cell_angle_gamma   91.36867661
_symmetry_Int_Tables_number   1
_chemical_formula_structural   K2AgF4
_chemical_formula_sum   'K4 Ag2 F8'
_cell_volume   241.86110925
_cell_formula_units_Z   2
loop_
 _symmetry_equiv_pos_site_id
 _symmetry_equiv_pos_as_xyz
  1  'x, y, z'
loop_
 _atom_site_type_symbol
 _atom_site_label
 _atom_site_symmetry_multiplicity
 _atom_site_fract_x
 _atom_site_fract_y
 _atom_site_fract_z
 _atom_site_occupancy
  K  K0  1  0.47948008  0.08446185  0.68202023  1
  K  K1  1  0.52051992  0.41553815  0.18202023  1
  K  K2  1  0.52051992  0.91553815  0.31797977  1
  K  K3  1  0.47948008  0.58446185  0.81797977  1
  Ag  Ag0  1  0.00000000  0.50000000  0.50000000  1
  Ag  Ag1  1  0.00000000  0.00000000  0.00000000  1
  F  F0  1  0.59503116  0.27805803  0.44689718  1
  F  F1  1  0.40496884  0.22194197  0.94689718  1
  F  F2  1  0.40496884  0.72194197  0.55310282  1
  F  F3  1  0.59503116  0.77805803  0.05310282  1
  F  F4  1  0.98279517  0.37541651  0.69036798  1
  F  F5  1  0.01720483  0.12458349  0.19036798  1
  F  F6  1  0.01720483  0.62458349  0.30963202  1
  F  F7  1  0.98279517  0.87541651  0.80963202  1
loop_
_geom_bond_atom_site_label_1
_geom_bond_atom_site_label_2
_geom_bond_distance
_geom_bond_site_symmetry_2
Ag0 F6 2.089007 1_555
Ag0 F4 2.089007 1_455
Ag0 F0 2.117497 1_455
Ag0 F2 2.117497 1_555
Ag0 F0 2.718915 1_555
Ag0 F2 2.718915 1_455
Ag1 F5 2.089007 1_555
Ag1 F7 2.089007 1_444
Ag1 F3 2.117497 1_445
Ag1 F1 2.117497 1_554
Ag1 F3 2.718915 1_545
Ag1 F1 2.718915 1_454
F0 K2 2.665496 1_545
F0 K0 2.716093 1_555
F0 K1 2.842695 1_555
F1 K3 2.665496 1_555
F1 K1 2.716093 1_556
F1 K0 2.842695 1_555
F2 K0 2.665496 1_565
F2 K2 2.716093 1_555
F2 K3 2.842695 1_555
F3 K1 2.665496 1_555
F3 K3 2.716093 1_554
F3 K2 2.842695 1_555
F4 K3 2.604512 1_655
F4 K0 2.612403 1_555
F4 K0 2.657709 1_655
F4 K3 2.667255 1_555
F5 K2 2.604512 1_445
F5 K1 2.612403 1_555
F5 K1 2.657709 1_455
F5 K2 2.667255 1_545
F6 K1 2.604512 1_455
F6 K2 2.612403 1_555
F6 K2 2.657709 1_455
F6 K1 2.667255 1_555
F7 K0 2.604512 1_665
F7 K3 2.612403 1_555
F7 K3 2.657709 1_655
F7 K0 2.667255 1_565
