# generated using pymatgen
data_Sr4CaMn2Ga2O11
_symmetry_space_group_name_H-M   'P 1'
_cell_length_a   5.77782256
_cell_length_b   5.79644936
_cell_length_c   8.85360412
_cell_angle_alpha   71.99900998
_cell_angle_beta   73.78662571
_cell_angle_gamma   89.13301903
_symmetry_Int_Tables_number   1
_chemical_formula_structural   Sr4CaMn2Ga2O11
_chemical_formula_sum   'Sr4 Ca1 Mn2 Ga2 O11'
_cell_volume   269.96192324
_cell_formula_units_Z   1
loop_
 _symmetry_equiv_pos_site_id
 _symmetry_equiv_pos_as_xyz
  1  'x, y, z'
loop_
 _atom_site_type_symbol
 _atom_site_label
 _atom_site_symmetry_multiplicity
 _atom_site_fract_x
 _atom_site_fract_y
 _atom_site_fract_z
 _atom_site_occupancy
  Sr  Sr0  1  0.06762800  0.57898100  0.83658900  1
  Sr  Sr1  1  0.63097400  0.12996900  0.72907000  1
  Sr  Sr2  1  0.43237200  0.92101900  0.16341100  1
  Sr  Sr3  1  0.86902600  0.37003100  0.27093000  1
  Ca  Ca0  1  0.25000000  0.75000000  0.50000000  1
  Mn  Mn0  1  0.25000000  0.25000000  0.50000000  1
  Mn  Mn1  1  0.75000000  0.75000000  0.50000000  1
  Ga  Ga0  1  0.50975900  0.48647800  0.99936500  1
  Ga  Ga1  1  0.99024100  0.01352200  0.00063500  1
  O  O0  1  0.16481100  0.04418100  0.77136600  1
  O  O1  1  0.53929300  0.66993500  0.76826900  1
  O  O2  1  0.33518900  0.45581900  0.22863400  1
  O  O3  1  0.96070700  0.83006500  0.23173100  1
  O  O4  1  0.54633800  0.01510200  0.43109000  1
  O  O5  1  0.95366200  0.48489800  0.56891000  1
  O  O6  1  0.99136000  0.03245800  0.49872400  1
  O  O7  1  0.50864000  0.46754200  0.50127600  1
  O  O8  1  0.75000000  0.25000000  0.00000000  1
  O  O9  1  0.75000000  0.75000000  0.00000000  1
  O  O10  1  0.25000000  0.25000000  0.00000000  1
loop_
_geom_bond_atom_site_label_1
_geom_bond_atom_site_label_2
_geom_bond_distance
_geom_bond_site_symmetry_2
Ca0 O4 2.140547 1_565
Ca0 O5 2.140547 1_455
Ca0 O7 2.199509 1_555
Ca0 O6 2.199509 1_465
Mn0 O6 1.974485 1_455
Mn0 O7 1.974485 1_555
Mn0 O5 2.239918 1_455
Mn0 O4 2.239918 1_555
Mn0 O2 2.241364 1_555
Mn0 O0 2.241364 1_555
Mn1 O4 1.971025 1_565
Mn1 O5 1.971025 1_555
Mn1 O7 2.162018 1_555
Mn1 O6 2.162018 1_565
Mn1 O3 2.249424 1_555
Mn1 O1 2.249424 1_555
Ga0 O8 1.935896 1_556
Ga0 O2 1.951510 1_556
Ga0 O1 1.952421 1_555
Ga0 O10 2.045543 1_556
Ga0 O9 2.081785 1_556
Ga1 O8 1.935896 1_555
Ga1 O0 1.951510 1_654
Ga1 O3 1.952421 1_545
Ga1 O10 2.045543 1_655
Ga1 O9 2.081785 1_545
O0 Sr0 2.611944 1_545
O0 Sr1 2.646535 1_555
O0 Sr1 3.222517 1_455
O1 Sr1 2.622920 1_565
O1 Sr0 2.645067 1_555
O1 Sr1 3.273493 1_555
O2 Sr2 2.611944 1_555
O2 Sr3 2.646535 1_455
O2 Sr3 3.222517 1_555
O3 Sr3 2.622920 1_555
O3 Sr2 2.645067 1_655
O3 Sr3 3.273493 1_565
O4 Sr3 2.560482 1_555
O4 Sr2 2.833489 1_545
O4 Sr1 3.075467 1_555
O5 Sr1 2.560482 1_555
O5 Sr0 2.833489 1_655
O5 Sr3 3.075467 1_555
O6 Sr3 2.590552 1_555
O6 Sr1 2.668293 1_555
O7 Sr1 2.590552 1_555
O7 Sr3 2.668293 1_555
O8 Sr0 2.452650 1_654
O8 Sr2 2.452650 1_545
O8 Sr3 2.945843 1_555
O8 Sr1 2.945843 1_554
O9 Sr0 2.406755 1_654
O9 Sr2 2.406755 1_555
O9 Sr1 2.947487 1_564
O9 Sr3 2.947487 1_555
O10 Sr0 2.434165 1_554
O10 Sr2 2.434165 1_545
O10 Sr3 3.019896 1_455
O10 Sr1 3.019896 1_554
