# generated using pymatgen
data_TiWC2
_symmetry_space_group_name_H-M   'P 1'
_cell_length_a   5.35699507
_cell_length_b   5.35699507
_cell_length_c   5.35699476
_cell_angle_alpha   33.28914869
_cell_angle_beta   33.28914869
_cell_angle_gamma   33.28915776
_symmetry_Int_Tables_number   1
_chemical_formula_structural   TiWC2
_chemical_formula_sum   'Ti1 W1 C2'
_cell_volume   41.23312061
_cell_formula_units_Z   1
loop_
 _symmetry_equiv_pos_site_id
 _symmetry_equiv_pos_as_xyz
  1  'x, y, z'
loop_
 _atom_site_type_symbol
 _atom_site_label
 _atom_site_symmetry_multiplicity
 _atom_site_fract_x
 _atom_site_fract_y
 _atom_site_fract_z
 _atom_site_occupancy
  Ti  Ti0  1  0.50000000  0.50000000  0.50000000  1
  W  W0  1  0.00000000  0.00000000  0.00000000  1
  C  C0  1  0.24937200  0.24937200  0.24937200  1
  C  C1  1  0.75062800  0.75062800  0.75062800  1
loop_
_geom_bond_atom_site_label_1
_geom_bond_atom_site_label_2
_geom_bond_distance
_geom_bond_site_symmetry_2
C0 Ti0 2.170870 1_554
C0 Ti0 2.170870 1_455
C0 Ti0 2.170870 1_545
C0 W0 2.181932 1_556
C0 W0 2.181932 1_565
C0 W0 2.181932 1_655
C1 Ti0 2.170870 1_556
C1 Ti0 2.170870 1_565
C1 Ti0 2.170870 1_655
C1 W0 2.181932 1_665
C1 W0 2.181932 1_656
C1 W0 2.181932 1_566
