# generated using pymatgen
data_HfGaCo
_symmetry_space_group_name_H-M   'P 1'
_cell_length_a   5.02791086
_cell_length_b   5.02791086
_cell_length_c   8.18314800
_cell_angle_alpha   90.00000000
_cell_angle_beta   90.00000000
_cell_angle_gamma   119.25285826
_symmetry_Int_Tables_number   1
_chemical_formula_structural   HfGaCo
_chemical_formula_sum   'Hf4 Ga4 Co4'
_cell_volume   180.48738745
_cell_formula_units_Z   4
loop_
 _symmetry_equiv_pos_site_id
 _symmetry_equiv_pos_as_xyz
  1  'x, y, z'
loop_
 _atom_site_type_symbol
 _atom_site_label
 _atom_site_symmetry_multiplicity
 _atom_site_fract_x
 _atom_site_fract_y
 _atom_site_fract_z
 _atom_site_occupancy
  Hf  Hf0  1  0.33378400  0.66621600  0.18063900  1
  Hf  Hf1  1  0.66244200  0.33755800  0.28863400  1
  Hf  Hf2  1  0.66244200  0.33755800  0.71136600  1
  Hf  Hf3  1  0.33378400  0.66621600  0.81936100  1
  Ga  Ga0  1  0.83954100  0.16045900  0.00000000  1
  Ga  Ga1  1  0.16682700  0.33466700  0.50000000  1
  Ga  Ga2  1  0.66533300  0.83317300  0.50000000  1
  Ga  Ga3  1  0.16655200  0.83344800  0.50000000  1
  Co  Co0  1  0.99470400  0.00529600  0.25342500  1
  Co  Co1  1  0.99470400  0.00529600  0.74657500  1
  Co  Co2  1  0.84392600  0.66460700  0.00000000  1
  Co  Co3  1  0.33539300  0.15607400  0.00000000  1
loop_
_geom_bond_atom_site_label_1
_geom_bond_atom_site_label_2
_geom_bond_distance
_geom_bond_site_symmetry_2
Hf0 Hf3 2.956391 1_554
Hf0 Hf1 2.985129 1_555
Hf0 Hf1 3.074724 1_565
Hf0 Hf1 3.074724 1_455
Hf2 Hf3 2.985129 1_555
Hf2 Hf3 3.074724 1_545
Hf2 Hf3 3.074724 1_655
Ga0 Hf2 2.817694 1_554
Ga0 Hf1 2.817694 1_555
Ga0 Hf3 2.941225 1_544
Ga0 Hf0 2.941225 1_545
Ga0 Hf0 2.941225 1_655
Ga0 Hf3 2.941225 1_654
Ga1 Ga3 2.508502 1_555
Ga1 Ga3 2.519409 1_545
Ga1 Ga2 2.534696 1_555
Ga1 Ga2 2.549888 1_445
Ga1 Hf0 2.990931 1_555
Ga1 Hf3 2.990931 1_555
Ga1 Hf1 3.027552 1_555
Ga1 Hf2 3.027552 1_555
Ga1 Hf2 3.075581 1_455
Ga1 Hf1 3.075581 1_455
Ga2 Ga3 2.508502 1_555
Ga2 Ga3 2.519409 1_655
Ga2 Hf3 2.990931 1_555
Ga2 Hf0 2.990931 1_555
Ga2 Hf2 3.027552 1_555
Ga2 Hf1 3.027552 1_555
Ga2 Hf2 3.075581 1_565
Ga2 Hf1 3.075581 1_565
Ga3 Hf0 2.989095 1_555
Ga3 Hf3 2.989095 1_555
Ga3 Hf1 3.075089 1_565
Ga3 Hf2 3.075089 1_565
Ga3 Hf1 3.075089 1_455
Ga3 Hf2 3.075089 1_455
Co0 Ga0 2.472406 1_555
Co0 Ga1 2.482361 1_655
Co0 Ga2 2.482361 1_545
Co0 Ga3 2.508806 1_645
Co0 Co3 2.557437 1_655
Co0 Co2 2.557437 1_545
Co0 Hf1 2.896946 1_555
Co0 Hf1 2.943461 1_655
Co0 Hf1 2.943461 1_545
Co0 Hf0 2.960922 1_545
Co0 Hf0 2.960922 1_655
Co0 Hf0 3.001425 1_645
Co1 Ga0 2.472406 1_556
Co1 Ga1 2.482361 1_655
Co1 Ga2 2.482361 1_545
Co1 Ga3 2.508806 1_645
Co1 Co2 2.557437 1_546
Co1 Co3 2.557437 1_656
Co1 Hf2 2.896946 1_555
Co1 Hf2 2.943461 1_655
Co1 Hf2 2.943461 1_545
Co1 Hf3 2.960922 1_545
Co1 Hf3 2.960922 1_655
Co1 Hf3 3.001425 1_645
Co2 Co3 2.498905 1_665
Co2 Ga0 2.503947 1_565
Co2 Ga0 2.524111 1_555
Co2 Co3 2.585679 1_555
Co2 Hf2 2.765661 1_554
Co2 Hf1 2.765661 1_555
Co2 Hf0 2.869118 1_655
Co2 Hf3 2.869118 1_654
Co2 Hf0 2.963844 1_555
Co2 Hf3 2.963844 1_554
Co3 Ga0 2.503947 1_455
Co3 Ga0 2.524111 1_555
Co3 Hf2 2.765661 1_554
Co3 Hf1 2.765661 1_555
Co3 Hf3 2.869118 1_544
Co3 Hf0 2.869118 1_545
Co3 Hf3 2.963844 1_554
Co3 Hf0 2.963844 1_555
