# generated using pymatgen
data_NaNd9(Ge3O13)2
_symmetry_space_group_name_H-M   'P 1'
_cell_length_a   9.86209182
_cell_length_b   9.86209182
_cell_length_c   7.18344900
_cell_angle_alpha   90.00000000
_cell_angle_beta   90.00000000
_cell_angle_gamma   119.99999880
_symmetry_Int_Tables_number   1
_chemical_formula_structural   NaNd9(Ge3O13)2
_chemical_formula_sum   'Na1 Nd9 Ge6 O26'
_cell_volume   605.06458381
_cell_formula_units_Z   1
loop_
 _symmetry_equiv_pos_site_id
 _symmetry_equiv_pos_as_xyz
  1  'x, y, z'
loop_
 _atom_site_type_symbol
 _atom_site_label
 _atom_site_symmetry_multiplicity
 _atom_site_fract_x
 _atom_site_fract_y
 _atom_site_fract_z
 _atom_site_occupancy
  Na  Na0  1  0.00000000  0.00000000  0.49154100  1
  Nd  Nd0  1  0.33333300  0.66666700  0.99786700  1
  Nd  Nd1  1  0.33333300  0.66666700  0.50009200  1
  Nd  Nd2  1  0.00000000  0.00000000  0.00020200  1
  Nd  Nd3  1  0.66125000  0.09745900  0.74836200  1
  Nd  Nd4  1  0.90254100  0.56379100  0.74836200  1
  Nd  Nd5  1  0.43620900  0.33875000  0.74836200  1
  Nd  Nd6  1  0.67115000  0.57216100  0.24918900  1
  Nd  Nd7  1  0.42783900  0.09899000  0.24918900  1
  Nd  Nd8  1  0.90101000  0.32885000  0.24918900  1
  Ge  Ge0  1  0.26441700  0.96106700  0.74774600  1
  Ge  Ge1  1  0.03893300  0.30335000  0.74774600  1
  Ge  Ge2  1  0.69665000  0.73558300  0.74774600  1
  Ge  Ge3  1  0.06374500  0.70574800  0.24775300  1
  Ge  Ge4  1  0.29425200  0.35799700  0.24775300  1
  Ge  Ge5  1  0.64200300  0.93625500  0.24775300  1
  O  O0  1  0.34818000  0.09613900  0.56268600  1
  O  O1  1  0.90386100  0.25204100  0.56268600  1
  O  O2  1  0.74795900  0.65182000  0.56268600  1
  O  O3  1  0.01361300  0.57484000  0.05505000  1
  O  O4  1  0.42516000  0.43877300  0.05505000  1
  O  O5  1  0.56122700  0.98638700  0.05505000  1
  O  O6  1  0.01342800  0.58028500  0.44442500  1
  O  O7  1  0.41971500  0.43314400  0.44442500  1
  O  O8  1  0.56685600  0.98657200  0.44442500  1
  O  O9  1  0.32825800  0.08905200  0.94296400  1
  O  O10  1  0.91094800  0.23920600  0.94296400  1
  O  O11  1  0.76079400  0.67174200  0.94296400  1
  O  O12  1  0.34841200  0.83825400  0.74831600  1
  O  O13  1  0.16174600  0.51015800  0.74831600  1
  O  O14  1  0.48984200  0.65158800  0.74831600  1
  O  O15  1  0.97005300  0.81449300  0.24055400  1
  O  O16  1  0.18550700  0.15556000  0.24055400  1
  O  O17  1  0.84444000  0.02994700  0.24055400  1
  O  O18  1  0.66666700  0.33333300  0.75819800  1
  O  O19  1  0.66666700  0.33333300  0.25023900  1
  O  O20  1  0.05959800  0.85333000  0.76367300  1
  O  O21  1  0.14667000  0.20626800  0.76367300  1
  O  O22  1  0.79373200  0.94040200  0.76367300  1
  O  O23  1  0.27286600  0.80678700  0.24990300  1
  O  O24  1  0.19321300  0.46607800  0.24990300  1
  O  O25  1  0.53392200  0.72713400  0.24990300  1
loop_
_geom_bond_atom_site_label_1
_geom_bond_atom_site_label_2
_geom_bond_distance
_geom_bond_site_symmetry_2
Na0 O17 2.478823 1_455
Na0 O15 2.478823 1_445
Na0 O16 2.478823 1_555
Na0 O20 2.666337 1_545
Na0 O22 2.666337 1_445
Na0 O21 2.666337 1_555
Nd0 O12 2.418176 1_555
Nd0 O13 2.418179 1_555
Nd0 O14 2.418183 1_555
Nd0 O23 2.523314 1_556
Nd0 O24 2.523324 1_556
Nd0 O25 2.523327 1_556
Nd0 O3 2.841737 1_556
Nd0 O5 2.841740 1_556
Nd0 O4 2.841747 1_556
Nd1 O12 2.411118 1_555
Nd1 O13 2.411121 1_555
Nd1 O14 2.411125 1_555
Nd1 O23 2.513811 1_555
Nd1 O24 2.513822 1_555
Nd1 O25 2.513825 1_555
Nd1 O7 2.855090 1_555
Nd1 O6 2.855090 1_555
Nd1 O8 2.855090 1_555
Nd2 O17 2.423824 1_455
Nd2 O15 2.423824 1_445
Nd2 O16 2.423824 1_555
Nd2 O20 2.484924 1_544
Nd2 O22 2.484924 1_444
Nd2 O21 2.484924 1_554
Nd2 O10 2.928721 1_454
Nd2 O9 2.928721 1_554
Nd2 O11 2.928721 1_444
Nd3 O18 2.301050 1_555
Nd3 O8 2.410677 1_545
Nd3 O5 2.438436 1_546
Nd3 O22 2.478310 1_545
Nd3 O1 2.486020 1_555
Nd3 O10 2.555392 1_555
Nd3 O12 2.857722 1_545
Nd4 O18 2.301055 1_555
Nd4 O6 2.410675 1_655
Nd4 O3 2.438436 1_656
Nd4 O20 2.478310 1_655
Nd4 O2 2.486020 1_555
Nd4 O11 2.555392 1_555
Nd4 O13 2.857722 1_655
Nd5 O18 2.301060 1_555
Nd5 O7 2.410679 1_555
Nd5 O4 2.438436 1_556
Nd5 O21 2.478310 1_555
Nd5 O0 2.486020 1_555
Nd5 O9 2.555392 1_555
Nd5 O14 2.857722 1_555
Nd6 O19 2.333564 1_555
Nd6 O2 2.380618 1_555
Nd6 O11 2.390971 1_554
Nd6 O25 2.497176 1_555
Nd6 O4 2.523767 1_555
Nd6 O7 2.568212 1_555
Nd6 O15 2.712947 1_555
Nd7 O19 2.333555 1_555
Nd7 O0 2.380616 1_555
Nd7 O9 2.390970 1_554
Nd7 O23 2.497192 1_545
Nd7 O5 2.523774 1_545
Nd7 O8 2.568212 1_545
Nd7 O16 2.712940 1_555
Nd8 O19 2.333544 1_555
Nd8 O1 2.380619 1_555
Nd8 O10 2.390973 1_554
Nd8 O24 2.497193 1_655
Nd8 O3 2.523767 1_655
Nd8 O6 2.568212 1_655
Nd8 O17 2.712950 1_555
Ge0 O20 1.753847 1_555
Ge0 O0 1.767395 1_565
Ge0 O12 1.776656 1_555
Ge0 O9 1.778037 1_565
Ge1 O21 1.753847 1_555
Ge1 O1 1.767395 1_455
Ge1 O13 1.776656 1_555
Ge1 O10 1.778037 1_455
Ge2 O22 1.753847 1_555
Ge2 O2 1.767395 1_555
Ge2 O14 1.776656 1_555
Ge2 O11 1.778037 1_555
Ge3 O15 1.731343 1_455
Ge3 O6 1.777409 1_555
Ge3 O3 1.785807 1_555
Ge3 O23 1.786470 1_555
Ge4 O16 1.731344 1_555
Ge4 O7 1.777409 1_555
Ge4 O4 1.785807 1_555
Ge4 O24 1.786461 1_555
Ge5 O17 1.731343 1_565
Ge5 O8 1.777414 1_555
Ge5 O5 1.785807 1_555
Ge5 O25 1.786469 1_555
