# generated using pymatgen
data_MoH8(S2N)2
_symmetry_space_group_name_H-M   'P 1'
_cell_length_a   7.08526854
_cell_length_b   9.65275779
_cell_length_c   12.17018087
_cell_angle_alpha   90.00000000
_cell_angle_beta   90.00000000
_cell_angle_gamma   90.00000000
_symmetry_Int_Tables_number   1
_chemical_formula_structural   MoH8(S2N)2
_chemical_formula_sum   'Mo4 H32 S16 N8'
_cell_volume   832.34764804
_cell_formula_units_Z   4
loop_
 _symmetry_equiv_pos_site_id
 _symmetry_equiv_pos_as_xyz
  1  'x, y, z'
loop_
 _atom_site_type_symbol
 _atom_site_label
 _atom_site_symmetry_multiplicity
 _atom_site_fract_x
 _atom_site_fract_y
 _atom_site_fract_z
 _atom_site_occupancy
  Mo  Mo0  1  0.75000000  0.25337863  0.56936329  1
  Mo  Mo1  1  0.75000000  0.75337863  0.93063671  1
  Mo  Mo2  1  0.25000000  0.74662137  0.43063671  1
  Mo  Mo3  1  0.25000000  0.24662137  0.06936329  1
  H  H0  1  0.75000000  0.76736870  0.63593228  1
  H  H1  1  0.75000000  0.26736870  0.86406772  1
  H  H2  1  0.25000000  0.23263130  0.36406772  1
  H  H3  1  0.25000000  0.73263130  0.13593228  1
  H  H4  1  0.75000000  0.60018092  0.67458682  1
  H  H5  1  0.75000000  0.10018092  0.82541318  1
  H  H6  1  0.25000000  0.39981908  0.32541318  1
  H  H7  1  0.25000000  0.89981908  0.17458682  1
  H  H8  1  0.86798354  0.64999546  0.56102496  1
  H  H9  1  0.63201646  0.14999546  0.93897504  1
  H  H10  1  0.36798354  0.35000454  0.43897504  1
  H  H11  1  0.13201646  0.85000454  0.06102496  1
  H  H12  1  0.13201646  0.35000454  0.43897504  1
  H  H13  1  0.36798354  0.85000454  0.06102496  1
  H  H14  1  0.63201646  0.64999546  0.56102496  1
  H  H15  1  0.86798354  0.14999546  0.93897504  1
  H  H16  1  0.75000000  0.00045785  0.26792469  1
  H  H17  1  0.75000000  0.50045885  0.23207531  1
  H  H18  1  0.25000000  0.99954115  0.73207531  1
  H  H19  1  0.25000000  0.49954215  0.76792469  1
  H  H20  1  0.75000000  0.00666348  0.40546535  1
  H  H21  1  0.75000000  0.50666348  0.09453465  1
  H  H22  1  0.25000000  0.99333652  0.59453465  1
  H  H23  1  0.25000000  0.49333652  0.90546535  1
  H  H24  1  0.63256107  0.87932834  0.33976206  1
  H  H25  1  0.86743893  0.37932834  0.16023794  1
  H  H26  1  0.13256107  0.12067166  0.66023794  1
  H  H27  1  0.36743893  0.62067166  0.83976206  1
  H  H28  1  0.36743893  0.12067166  0.66023794  1
  H  H29  1  0.13256107  0.62067166  0.83976206  1
  H  H30  1  0.86743893  0.87932834  0.33976206  1
  H  H31  1  0.63256107  0.37932834  0.16023794  1
  S  S0  1  0.75000000  0.03254888  0.61495138  1
  S  S1  1  0.75000000  0.53254888  0.88504862  1
  S  S2  1  0.25000000  0.96745112  0.38504862  1
  S  S3  1  0.25000000  0.46745112  0.11495138  1
  S  S4  1  0.75000000  0.27474444  0.39181612  1
  S  S5  1  0.75000000  0.77474444  0.10818388  1
  S  S6  1  0.25000000  0.72525556  0.60818388  1
  S  S7  1  0.25000000  0.22525556  0.89181612  1
  S  S8  1  0.49923969  0.35462858  0.63612487  1
  S  S9  1  0.00076031  0.85462858  0.86387513  1
  S  S10  1  0.99923969  0.64537142  0.36387513  1
  S  S11  1  0.50076031  0.14537142  0.13612487  1
  S  S12  1  0.50076031  0.64537142  0.36387513  1
  S  S13  1  0.99923969  0.14537142  0.13612487  1
  S  S14  1  0.00076031  0.35462858  0.63612487  1
  S  S15  1  0.49923969  0.85462858  0.86387513  1
  N  N0  1  0.75000000  0.66679290  0.60861204  1
  N  N1  1  0.75000000  0.16679290  0.89138796  1
  N  N2  1  0.25000000  0.33320710  0.39138796  1
  N  N3  1  0.25000000  0.83320710  0.10861204  1
  N  N4  1  0.75000000  0.94212036  0.33809627  1
  N  N5  1  0.75000000  0.44212036  0.16190373  1
  N  N6  1  0.25000000  0.05787964  0.66190373  1
  N  N7  1  0.25000000  0.55787964  0.83809627  1
loop_
_geom_bond_atom_site_label_1
_geom_bond_atom_site_label_2
_geom_bond_distance
_geom_bond_site_symmetry_2
Mo0 S4 2.170601 1_555
Mo0 S14 2.184498 1_655
Mo0 S8 2.184498 1_555
Mo0 S0 2.202636 1_555
Mo1 S5 2.170601 1_556
Mo1 S9 2.184498 1_655
Mo1 S15 2.184498 1_555
Mo1 S1 2.202636 1_555
Mo2 S6 2.170601 1_555
Mo2 S12 2.184498 1_555
Mo2 S10 2.184498 1_455
Mo2 S2 2.202636 1_555
Mo3 S7 2.170601 1_554
Mo3 S11 2.184498 1_555
Mo3 S13 2.184498 1_455
Mo3 S3 2.202636 1_555
H0 N0 1.026192 1_555
H1 N1 1.026192 1_555
H2 N2 1.026192 1_555
H3 N3 1.026192 1_555
H4 N0 1.028651 1_555
H5 N1 1.028651 1_555
H6 N2 1.028651 1_555
H7 N3 1.028651 1_555
H8 N0 1.029806 1_555
H9 N1 1.029806 1_555
H10 N2 1.029806 1_555
H11 N3 1.029806 1_555
H12 N2 1.029806 1_555
H13 N3 1.029806 1_555
H14 N0 1.029806 1_555
H15 N1 1.029806 1_555
H16 N4 1.022946 1_545
H17 N5 1.022952 1_555
H18 N6 1.022952 1_565
H19 N7 1.022946 1_555
H20 N4 1.029747 1_545
H21 N5 1.029747 1_555
H22 N6 1.029747 1_565
H23 N7 1.029747 1_555
H24 N4 1.029639 1_555
H25 N5 1.029639 1_555
H26 N6 1.029639 1_555
H27 N7 1.029639 1_555
H28 N6 1.029639 1_555
H29 N7 1.029639 1_555
H30 N4 1.029639 1_555
H31 N5 1.029639 1_555
