# generated using pymatgen
data_Zr4Ir2N
_symmetry_space_group_name_H-M   'P 1'
_cell_length_a   8.78735445
_cell_length_b   8.78736234
_cell_length_c   8.78738897
_cell_angle_alpha   59.99998653
_cell_angle_beta   59.99996018
_cell_angle_gamma   59.99987484
_symmetry_Int_Tables_number   1
_chemical_formula_structural   Zr4Ir2N
_chemical_formula_sum   'Zr16 Ir8 N4'
_cell_volume   479.80077638
_cell_formula_units_Z   4
loop_
 _symmetry_equiv_pos_site_id
 _symmetry_equiv_pos_as_xyz
  1  'x, y, z'
loop_
 _atom_site_type_symbol
 _atom_site_label
 _atom_site_symmetry_multiplicity
 _atom_site_fract_x
 _atom_site_fract_y
 _atom_site_fract_z
 _atom_site_occupancy
  Zr  Zr0  1  0.12496285  0.62502382  0.62500863  1
  Zr  Zr1  1  0.62500789  0.12494575  0.62502544  1
  Zr  Zr2  1  0.62500106  0.62503362  0.12495371  1
  Zr  Zr3  1  0.62499947  0.62503131  0.62501298  1
  Zr  Zr4  1  0.81641616  0.81642605  0.18357775  1
  Zr  Zr5  1  0.18358936  0.18356371  0.81642307  1
  Zr  Zr6  1  0.81642243  0.18356850  0.81642482  1
  Zr  Zr7  1  0.18358510  0.81642443  0.18357268  1
  Zr  Zr8  1  0.18358553  0.81642326  0.81641574  1
  Zr  Zr9  1  0.81642351  0.18356818  0.18358162  1
  Zr  Zr10  1  0.43358432  0.43359568  0.06640746  1
  Zr  Zr11  1  0.06642356  0.06639758  0.43359040  1
  Zr  Zr12  1  0.43358787  0.06639909  0.43359539  1
  Zr  Zr13  1  0.06641856  0.43359085  0.06640579  1
  Zr  Zr14  1  0.06641602  0.43358958  0.43358583  1
  Zr  Zr15  1  0.43358871  0.06640196  0.06641526  1
  Ir  Ir0  1  0.77263399  0.40912654  0.40912045  1
  Ir  Ir1  1  0.40912006  0.77264246  0.40911960  1
  Ir  Ir2  1  0.40911823  0.40912382  0.77264154  1
  Ir  Ir3  1  0.40911841  0.40912383  0.40911799  1
  Ir  Ir4  1  0.47736186  0.84087923  0.84087820  1
  Ir  Ir5  1  0.84087370  0.47736892  0.84087756  1
  Ir  Ir6  1  0.84087580  0.84088109  0.47736613  1
  Ir  Ir7  1  0.84087639  0.84088058  0.84087988  1
  N  N0  1  0.62499955  0.12499619  0.12500149  1
  N  N1  1  0.12500055  0.62500538  0.12499634  1
  N  N2  1  0.12500368  0.12499396  0.62500199  1
  N  N3  1  0.12500440  0.12499465  0.12499927  1
loop_
_geom_bond_atom_site_label_1
_geom_bond_atom_site_label_2
_geom_bond_distance
_geom_bond_site_symmetry_2
Ir0 Zr3 2.749260 1_555
Ir0 Zr2 2.749281 1_555
Ir0 Zr1 2.749341 1_555
Ir0 Zr14 2.813021 1_655
Ir0 Zr13 2.813056 1_655
Ir0 Zr11 2.813137 1_655
Ir1 Zr3 2.749132 1_555
Ir1 Zr0 2.749136 1_555
Ir1 Zr2 2.749152 1_555
Ir1 Zr11 2.812845 1_565
Ir1 Zr12 2.812877 1_565
Ir1 Zr15 2.812913 1_565
Ir2 Zr0 2.749195 1_555
Ir2 Zr3 2.749208 1_555
Ir2 Zr1 2.749269 1_555
Ir2 Zr13 2.812902 1_556
Ir2 Zr10 2.812937 1_556
Ir2 Zr15 2.813051 1_556
Ir3 Zr0 2.749208 1_555
Ir3 Zr2 2.749237 1_555
Ir3 Zr1 2.749284 1_555
Ir3 Zr14 2.812929 1_555
Ir3 Zr10 2.812997 1_555
Ir3 Zr12 2.813078 1_555
Ir4 Zr1 2.748641 1_565
Ir4 Zr3 2.748663 1_555
Ir4 Zr2 2.748672 1_556
Ir4 Zr5 2.812850 1_565
Ir4 Zr8 2.812921 1_555
Ir4 Zr7 2.812925 1_556
Ir5 Zr3 2.748795 1_555
Ir5 Zr2 2.748807 1_556
Ir5 Zr0 2.748843 1_655
Ir5 Zr6 2.813060 1_555
Ir5 Zr9 2.813064 1_556
Ir5 Zr5 2.813127 1_655
Ir6 Zr1 2.748694 1_565
Ir6 Zr3 2.748733 1_555
Ir6 Zr0 2.748764 1_655
Ir6 Zr9 2.812916 1_565
Ir6 Zr4 2.813016 1_555
Ir6 Zr7 2.813058 1_655
Ir7 Zr1 2.748690 1_565
Ir7 Zr2 2.748706 1_556
Ir7 Zr0 2.748756 1_655
Ir7 Zr6 2.812896 1_565
Ir7 Zr4 2.812972 1_556
Ir7 Zr8 2.813033 1_655
N0 Zr4 2.314247 1_545
N0 Zr9 2.314304 1_555
N0 Zr6 2.314310 1_554
N0 Zr15 2.314368 1_555
N0 Zr12 2.314390 1_555
N0 Zr10 2.314424 1_555
N1 Zr10 2.314313 1_555
N1 Zr7 2.314318 1_555
N1 Zr8 2.314324 1_554
N1 Zr4 2.314342 1_455
N1 Zr13 2.314352 1_555
N1 Zr14 2.314373 1_555
N2 Zr8 2.314248 1_545
N2 Zr5 2.314305 1_555
N2 Zr12 2.314312 1_555
N2 Zr6 2.314330 1_455
N2 Zr11 2.314355 1_555
N2 Zr14 2.314406 1_555
N3 Zr7 2.314249 1_545
N3 Zr5 2.314308 1_554
N3 Zr15 2.314314 1_555
N3 Zr9 2.314331 1_455
N3 Zr11 2.314380 1_555
N3 Zr13 2.314410 1_555
