# generated using pymatgen
data_GdBe2B5O11
_symmetry_space_group_name_H-M   'P 1'
_cell_length_a   4.37052400
_cell_length_b   6.73763500
_cell_length_c   25.94868700
_cell_angle_alpha   90.00000000
_cell_angle_beta   90.00000000
_cell_angle_gamma   90.00000000
_symmetry_Int_Tables_number   1
_chemical_formula_structural   GdBe2B5O11
_chemical_formula_sum   'Gd4 Be8 B20 O44'
_cell_volume   764.11086856
_cell_formula_units_Z   4
loop_
 _symmetry_equiv_pos_site_id
 _symmetry_equiv_pos_as_xyz
  1  'x, y, z'
loop_
 _atom_site_type_symbol
 _atom_site_label
 _atom_site_symmetry_multiplicity
 _atom_site_fract_x
 _atom_site_fract_y
 _atom_site_fract_z
 _atom_site_occupancy
  Gd  Gd0  1  0.36103900  0.04983000  0.91965000  1
  Gd  Gd1  1  0.63896100  0.54983000  0.08035000  1
  Gd  Gd2  1  0.86103900  0.54983000  0.58035000  1
  Gd  Gd3  1  0.13896100  0.04983000  0.41965000  1
  Be  Be0  1  0.16945300  0.91018700  0.79255800  1
  Be  Be1  1  0.83054700  0.41018700  0.20744200  1
  Be  Be2  1  0.66945300  0.41018700  0.70744200  1
  Be  Be3  1  0.33054700  0.91018700  0.29255800  1
  Be  Be4  1  0.67247500  0.13314300  0.79058200  1
  Be  Be5  1  0.32752500  0.63314300  0.20941800  1
  Be  Be6  1  0.17247500  0.63314300  0.70941800  1
  Be  Be7  1  0.82752500  0.13314300  0.29058200  1
  B  B0  1  0.87808200  0.72008500  0.86847100  1
  B  B1  1  0.12191800  0.22008500  0.13152900  1
  B  B2  1  0.37808200  0.22008500  0.63152900  1
  B  B3  1  0.62191800  0.72008500  0.36847100  1
  B  B4  1  0.53203500  0.61990600  0.94207300  1
  B  B5  1  0.46796500  0.11990600  0.05792700  1
  B  B6  1  0.03203500  0.11990600  0.55792700  1
  B  B7  1  0.96796500  0.61990600  0.44207300  1
  B  B8  1  0.65183400  0.39039500  0.86983600  1
  B  B9  1  0.34816600  0.89039500  0.13016400  1
  B  B10  1  0.15183400  0.89039500  0.63016400  1
  B  B11  1  0.84816600  0.39039500  0.36983600  1
  B  B12  1  0.04285000  0.64018900  0.99636600  1
  B  B13  1  0.95715000  0.14018900  0.00363400  1
  B  B14  1  0.54285000  0.14018900  0.50363400  1
  B  B15  1  0.45715000  0.64018900  0.49636600  1
  B  B16  1  0.18379200  0.26930000  0.74842300  1
  B  B17  1  0.81620800  0.76930000  0.25157700  1
  B  B18  1  0.68379200  0.76930000  0.75157700  1
  B  B19  1  0.31620800  0.26930000  0.24842300  1
  O  O0  1  0.85607000  0.52688200  0.84879600  1
  O  O1  1  0.14393000  0.02688200  0.15120400  1
  O  O2  1  0.35607000  0.02688200  0.65120400  1
  O  O3  1  0.64393000  0.52688200  0.34879600  1
  O  O4  1  0.59371100  0.20851200  0.84903300  1
  O  O5  1  0.40628900  0.70851200  0.15096700  1
  O  O6  1  0.09371100  0.70851200  0.65096700  1
  O  O7  1  0.90628900  0.20851200  0.34903300  1
  O  O8  1  0.72763400  0.60761800  0.98893700  1
  O  O9  1  0.27236600  0.10761800  0.01106300  1
  O  O10  1  0.22763400  0.10761800  0.51106300  1
  O  O11  1  0.77236600  0.60761800  0.48893700  1
  O  O12  1  0.49887400  0.42688100  0.91607500  1
  O  O13  1  0.50112600  0.92688100  0.08392500  1
  O  O14  1  0.99887400  0.92688100  0.58392500  1
  O  O15  1  0.00112600  0.42688100  0.41607500  1
  O  O16  1  0.66268100  0.76754700  0.90641900  1
  O  O17  1  0.33731900  0.26754700  0.09358100  1
  O  O18  1  0.16268100  0.26754700  0.59358100  1
  O  O19  1  0.83731900  0.76754700  0.40641900  1
  O  O20  1  0.13597800  0.60776500  0.04542700  1
  O  O21  1  0.86402200  0.10776500  0.95457300  1
  O  O22  1  0.63597800  0.10776500  0.45457300  1
  O  O23  1  0.36402200  0.60776500  0.54542700  1
  O  O24  1  0.08212800  0.85918900  0.85272400  1
  O  O25  1  0.91787200  0.35918900  0.14727600  1
  O  O26  1  0.58212800  0.35918900  0.64727600  1
  O  O27  1  0.41787200  0.85918900  0.35272400  1
  O  O28  1  0.22899300  0.70075800  0.95587900  1
  O  O29  1  0.77100700  0.20075800  0.04412100  1
  O  O30  1  0.72899300  0.20075800  0.54412100  1
  O  O31  1  0.27100700  0.70075800  0.45587900  1
  O  O32  1  0.03459900  0.40466300  0.71712900  1
  O  O33  1  0.96540100  0.90466300  0.28287100  1
  O  O34  1  0.53459900  0.90466300  0.78287100  1
  O  O35  1  0.46540100  0.40466300  0.21712900  1
  O  O36  1  0.49833100  0.26804700  0.74824100  1
  O  O37  1  0.50166900  0.76804700  0.25175900  1
  O  O38  1  0.99833100  0.76804700  0.75175900  1
  O  O39  1  0.00166900  0.26804700  0.24824100  1
  O  O40  1  0.03370800  0.13537100  0.77925900  1
  O  O41  1  0.96629200  0.63537100  0.22074100  1
  O  O42  1  0.53370800  0.63537100  0.72074100  1
  O  O43  1  0.46629200  0.13537100  0.27925900  1
loop_
_geom_bond_atom_site_label_1
_geom_bond_atom_site_label_2
_geom_bond_distance
_geom_bond_site_symmetry_2
Gd0 O16 2.339482 1_545
Gd0 O4 2.352638 1_555
Gd0 O21 2.385820 1_455
Gd0 O21 2.409585 1_555
Gd0 O9 2.434830 1_556
Gd0 O24 2.480265 1_545
Gd0 O28 2.597761 1_545
Gd0 O12 2.612527 1_555
Gd1 O17 2.339482 1_555
Gd1 O5 2.352638 1_555
Gd1 O20 2.385820 1_655
Gd1 O20 2.409585 1_555
Gd1 O8 2.434830 1_554
Gd1 O25 2.480265 1_555
Gd1 O29 2.597761 1_555
Gd1 O13 2.612527 1_555
Gd2 O18 2.339482 1_655
Gd2 O6 2.352638 1_655
Gd2 O23 2.385820 1_555
Gd2 O23 2.409585 1_655
Gd2 O11 2.434830 1_555
Gd2 O26 2.480265 1_555
Gd2 O30 2.597761 1_555
Gd2 O14 2.612527 1_555
Gd3 O19 2.339482 1_445
Gd3 O7 2.352638 1_455
Gd3 O22 2.385820 1_555
Gd3 O22 2.409585 1_455
Gd3 O10 2.434830 1_555
Gd3 O27 2.480265 1_545
Gd3 O31 2.597761 1_545
Gd3 O15 2.612527 1_555
Be0 O38 1.611618 1_455
Be0 O34 1.615983 1_555
Be0 O24 1.643521 1_555
Be0 O40 1.665228 1_565
Be1 O39 1.611618 1_655
Be1 O35 1.615983 1_555
Be1 O25 1.643521 1_555
Be1 O41 1.665228 1_555
Be2 O36 1.611618 1_555
Be2 O32 1.615983 1_655
Be2 O26 1.643521 1_555
Be2 O42 1.665228 1_555
Be3 O37 1.611618 1_555
Be3 O33 1.615983 1_455
Be3 O27 1.643521 1_555
Be3 O43 1.665228 1_565
Be4 O40 1.605955 1_655
Be4 O36 1.616342 1_555
Be4 O4 1.636102 1_555
Be4 O34 1.665218 1_545
Be5 O41 1.605955 1_455
Be5 O37 1.616342 1_555
Be5 O5 1.636102 1_555
Be5 O35 1.665218 1_555
Be6 O42 1.605955 1_555
Be6 O38 1.616342 1_455
Be6 O6 1.636102 1_555
Be6 O32 1.665218 1_555
Be7 O43 1.605955 1_555
Be7 O39 1.616342 1_655
Be7 O7 1.636102 1_555
Be7 O33 1.665218 1_545
B0 O24 1.356707 1_655
B0 O16 1.399342 1_555
B0 O0 1.401575 1_555
B1 O25 1.356707 1_455
B1 O17 1.399342 1_555
B1 O1 1.401575 1_555
B2 O26 1.356707 1_555
B2 O18 1.399342 1_555
B2 O2 1.401575 1_555
B3 O27 1.356707 1_555
B3 O19 1.399342 1_555
B3 O3 1.401575 1_555
B4 O12 1.472241 1_555
B4 O16 1.473604 1_555
B4 O28 1.476235 1_555
B4 O8 1.488777 1_555
B5 O13 1.472241 1_545
B5 O17 1.473604 1_555
B5 O29 1.476235 1_555
B5 O9 1.488777 1_555
B6 O14 1.472241 1_445
B6 O18 1.473604 1_555
B6 O30 1.476235 1_455
B6 O10 1.488777 1_555
B7 O15 1.472241 1_655
B7 O19 1.473604 1_555
B7 O31 1.476235 1_655
B7 O11 1.488777 1_555
B8 O4 1.362968 1_555
B8 O0 1.393020 1_555
B8 O12 1.395337 1_555
B9 O5 1.362968 1_555
B9 O1 1.393020 1_565
B9 O13 1.395337 1_555
B10 O6 1.362968 1_555
B10 O2 1.393020 1_565
B10 O14 1.395337 1_455
B11 O7 1.362968 1_555
B11 O3 1.393020 1_555
B11 O15 1.395337 1_655
B12 O20 1.354287 1_556
B12 O28 1.390006 1_555
B12 O8 1.408284 1_455
B13 O21 1.354287 1_554
B13 O29 1.390006 1_555
B13 O9 1.408284 1_655
B14 O22 1.354287 1_555
B14 O30 1.390006 1_555
B14 O10 1.408284 1_555
B15 O23 1.354287 1_555
B15 O31 1.390006 1_555
B15 O11 1.408284 1_555
B16 O40 1.372870 1_555
B16 O36 1.374734 1_555
B16 O32 1.384330 1_555
B17 O41 1.372870 1_555
B17 O37 1.374734 1_555
B17 O33 1.384330 1_555
B18 O42 1.372870 1_555
B18 O38 1.374734 1_555
B18 O34 1.384330 1_555
B19 O43 1.372870 1_555
B19 O39 1.374734 1_555
B19 O35 1.384330 1_555
