# generated using pymatgen
data_RbMg14B
_symmetry_space_group_name_H-M   'P 1'
_cell_length_a   6.68388414
_cell_length_b   6.31438217
_cell_length_c   10.29942648
_cell_angle_alpha   90.00000000
_cell_angle_beta   90.00000000
_cell_angle_gamma   118.18752219
_symmetry_Int_Tables_number   1
_chemical_formula_structural   RbMg14B
_chemical_formula_sum   'Rb1 Mg14 B1'
_cell_volume   383.13249689
_cell_formula_units_Z   1
loop_
 _symmetry_equiv_pos_site_id
 _symmetry_equiv_pos_as_xyz
  1  'x, y, z'
loop_
 _atom_site_type_symbol
 _atom_site_label
 _atom_site_symmetry_multiplicity
 _atom_site_fract_x
 _atom_site_fract_y
 _atom_site_fract_z
 _atom_site_occupancy
  Rb  Rb0  1  0.10496512  0.30248206  0.12500000  1
  Mg  Mg0  1  0.17174909  0.33587404  0.62500000  1
  Mg  Mg1  1  0.15699273  0.82849587  0.62500000  1
  Mg  Mg2  1  0.60879658  0.30204185  0.12500000  1
  Mg  Mg3  1  0.65831374  0.33541858  0.62500000  1
  Mg  Mg4  1  0.60879658  0.80675373  0.12500000  1
  Mg  Mg5  1  0.65831374  0.82289417  0.62500000  1
  Mg  Mg6  1  0.34139079  0.15809845  0.37727828  1
  Mg  Mg7  1  0.34139079  0.15809845  0.87272172  1
  Mg  Mg8  1  0.34139079  0.68329334  0.37727828  1
  Mg  Mg9  1  0.34139079  0.68329334  0.87272172  1
  Mg  Mg10  1  0.81899253  0.15949677  0.39712037  1
  Mg  Mg11  1  0.81899253  0.15949677  0.85287963  1
  Mg  Mg12  1  0.85885225  0.67942662  0.34822806  1
  Mg  Mg13  1  0.85885225  0.67942662  0.90177194  1
  B  B0  1  0.31081968  0.90540934  0.12500000  1
loop_
_geom_bond_atom_site_label_1
_geom_bond_atom_site_label_2
_geom_bond_distance
_geom_bond_site_symmetry_2
Mg0 Mg11 3.134856 1_455
Mg0 Mg10 3.134856 1_455
Mg0 Mg1 3.158388 1_545
Mg0 Mg1 3.158388 1_555
Mg0 Mg6 3.202780 1_555
Mg0 Mg7 3.202780 1_555
Mg0 Mg8 3.202787 1_555
Mg0 Mg9 3.202787 1_555
Mg0 Mg5 3.253501 1_555
Mg0 Mg3 3.253501 1_555
Mg0 Mg5 3.430385 1_445
Mg0 Mg3 3.430385 1_455
Mg1 Mg9 3.152276 1_555
Mg1 Mg8 3.152276 1_555
Mg1 Mg6 3.152282 1_565
Mg1 Mg7 3.152282 1_565
Mg1 Mg3 3.316551 1_455
Mg1 Mg5 3.316551 1_455
Mg1 Mg12 3.348261 1_455
Mg1 Mg13 3.348261 1_455
Mg1 Mg3 3.367624 1_565
Mg1 Mg5 3.367624 1_555
Mg2 Rb0 3.315021 1_655
Mg2 Rb0 3.368865 1_555
Mg3 Mg5 3.078107 1_555
Mg3 Mg6 3.163811 1_555
Mg3 Mg7 3.163811 1_555
Mg3 Mg5 3.236275 1_545
Mg4 Rb0 3.315021 1_665
Mg4 Rb0 3.368865 1_555
Mg5 Mg9 3.163812 1_555
Mg5 Mg8 3.163812 1_555
Mg6 Rb0 3.382407 1_555
Mg7 Rb0 3.382407 1_556
Mg8 Rb0 3.382413 1_555
Mg9 Rb0 3.382413 1_556
Mg10 Mg3 3.003820 1_555
Mg10 Mg5 3.003827 1_545
Mg10 Rb0 3.270067 1_655
Mg11 Mg3 3.003820 1_555
Mg11 Mg5 3.003827 1_545
Mg11 Rb0 3.270067 1_656
Mg12 Mg5 3.448230 1_555
Mg12 Mg3 3.448235 1_555
Mg13 Mg5 3.448230 1_555
Mg13 Mg3 3.448235 1_555
B0 Mg2 2.350917 1_565
B0 Mg4 2.350917 1_555
B0 Rb0 3.382097 1_555
B0 Rb0 3.382097 1_565
