# generated using pymatgen
data_Na3LiFe4(SiO3)8
_symmetry_space_group_name_H-M   'P 1'
_cell_length_a   8.86536100
_cell_length_b   5.36360300
_cell_length_c   9.59558372
_cell_angle_alpha   76.10847183
_cell_angle_beta   90.00000000
_cell_angle_gamma   90.00000000
_symmetry_Int_Tables_number   1
_chemical_formula_structural   Na3LiFe4(SiO3)8
_chemical_formula_sum   'Na3 Li1 Fe4 Si8 O24'
_cell_volume   442.92759549
_cell_formula_units_Z   1
loop_
 _symmetry_equiv_pos_site_id
 _symmetry_equiv_pos_as_xyz
  1  'x, y, z'
loop_
 _atom_site_type_symbol
 _atom_site_label
 _atom_site_symmetry_multiplicity
 _atom_site_fract_x
 _atom_site_fract_y
 _atom_site_fract_z
 _atom_site_occupancy
  Na  Na0  1  0.29669800  0.00000000  0.00000000  1
  Na  Na1  1  0.20327400  0.00000000  0.50000000  1
  Na  Na2  1  0.70360700  0.50000000  0.00000000  1
  Li  Li0  1  0.78185100  0.50000000  0.50000000  1
  Fe  Fe0  1  0.40006500  0.50000000  0.50000000  1
  Fe  Fe1  1  0.90017100  0.00000000  0.00000000  1
  Fe  Fe2  1  0.60280400  0.00000000  0.50000000  1
  Fe  Fe3  1  0.09987900  0.50000000  0.00000000  1
  Si  Si0  1  0.08799000  0.69897300  0.29240800  1
  Si  Si1  1  0.59079900  0.19941200  0.79008000  1
  Si  Si2  1  0.08799000  0.30102700  0.70759200  1
  Si  Si3  1  0.59079900  0.80058800  0.20992000  1
  Si  Si4  1  0.91025100  0.79849900  0.70678100  1
  Si  Si5  1  0.41083700  0.30205700  0.20957700  1
  Si  Si6  1  0.91025100  0.20150100  0.29321900  1
  Si  Si7  1  0.41083700  0.69794300  0.79042300  1
  O  O0  1  0.99423300  0.92064700  0.35248900  1
  O  O1  1  0.49477800  0.41717700  0.85162200  1
  O  O2  1  0.99423300  0.07935300  0.64751100  1
  O  O3  1  0.49477800  0.58282300  0.14837800  1
  O  O4  1  0.00250200  0.57854400  0.64453500  1
  O  O5  1  0.50590400  0.08097400  0.14990600  1
  O  O6  1  0.00250200  0.42145600  0.35546500  1
  O  O7  1  0.50590400  0.91902600  0.85009400  1
  O  O8  1  0.25548900  0.69196000  0.35995400  1
  O  O9  1  0.75617900  0.19152400  0.86092600  1
  O  O10  1  0.25548900  0.30804000  0.64004600  1
  O  O11  1  0.75617900  0.80847600  0.13907400  1
  O  O12  1  0.74532500  0.79622800  0.63546700  1
  O  O13  1  0.24455500  0.30775600  0.14012400  1
  O  O14  1  0.74532500  0.20377200  0.36453300  1
  O  O15  1  0.24455500  0.69224400  0.85987600  1
  O  O16  1  0.07822600  0.77378500  0.11540800  1
  O  O17  1  0.58604000  0.27967600  0.61321000  1
  O  O18  1  0.07822600  0.22621500  0.88459200  1
  O  O19  1  0.58604000  0.72032400  0.38679000  1
  O  O20  1  0.92095400  0.72471900  0.88372200  1
  O  O21  1  0.42176300  0.22480800  0.38597800  1
  O  O22  1  0.92095400  0.27528100  0.11627800  1
  O  O23  1  0.42176300  0.77519200  0.61402200  1
loop_
_geom_bond_atom_site_label_1
_geom_bond_atom_site_label_2
_geom_bond_distance
_geom_bond_site_symmetry_2
Na0 O18 2.409286 1_554
Na0 O16 2.409286 1_545
Na0 O13 2.410814 1_555
Na0 O15 2.410814 1_544
Na0 O7 2.448992 1_544
Na0 O5 2.448992 1_555
Na0 O1 2.930504 1_554
Na0 O3 2.930504 1_545
Na1 O23 2.401962 1_545
Na1 O21 2.401962 1_555
Na1 O8 2.411644 1_545
Na1 O10 2.411644 1_555
Na1 O2 2.430715 1_455
Na1 O0 2.430715 1_445
Na2 O20 2.400981 1_554
Na2 O22 2.400981 1_555
Na2 O11 2.407450 1_555
Na2 O9 2.407450 1_554
Na2 O1 2.440419 1_554
Na2 O3 2.440419 1_555
Li0 O19 2.230164 1_555
Li0 O17 2.230164 1_555
Li0 O12 2.304496 1_555
Li0 O14 2.304496 1_555
Li0 O4 2.491593 1_655
Li0 O6 2.491593 1_655
Fe0 O8 1.960707 1_555
Fe0 O10 1.960707 1_555
Fe0 O23 2.046497 1_555
Fe0 O21 2.046497 1_555
Fe0 O17 2.162982 1_555
Fe0 O19 2.162982 1_555
Fe1 O11 1.951268 1_545
Fe1 O9 1.951268 1_554
Fe1 O20 2.061538 1_544
Fe1 O22 2.061538 1_555
Fe1 O18 2.131916 1_654
Fe1 O16 2.131916 1_645
Fe2 O12 1.948973 1_545
Fe2 O14 1.948973 1_555
Fe2 O19 2.057873 1_545
Fe2 O17 2.057873 1_555
Fe2 O23 2.143250 1_545
Fe2 O21 2.143250 1_555
Fe3 O13 1.962255 1_555
Fe3 O15 1.962255 1_554
Fe3 O16 2.049504 1_555
Fe3 O18 2.049504 1_554
Fe3 O20 2.137303 1_454
Fe3 O22 2.137303 1_455
O0 Si6 1.653969 1_565
O0 Si0 1.663139 1_655
O1 Si7 1.655836 1_555
O1 Si1 1.663972 1_555
O2 Si4 1.653969 1_545
O2 Si2 1.663139 1_655
O3 Si5 1.655836 1_555
O3 Si3 1.663972 1_555
O4 Si2 1.650345 1_555
O4 Si4 1.660053 1_455
O5 Si3 1.656465 1_545
O5 Si5 1.664423 1_555
O6 Si0 1.650345 1_555
O6 Si6 1.660053 1_455
O7 Si1 1.656465 1_565
O7 Si7 1.664423 1_555
O8 Si0 1.617047 1_555
O9 Si1 1.612366 1_555
O10 Si2 1.617047 1_555
O11 Si3 1.612366 1_555
O12 Si4 1.615623 1_555
O13 Si5 1.615059 1_555
O14 Si6 1.615623 1_555
O15 Si7 1.615059 1_555
O16 Si0 1.651027 1_555
O17 Si1 1.648233 1_555
O18 Si2 1.651027 1_555
O19 Si3 1.648233 1_555
O20 Si4 1.650965 1_555
O21 Si5 1.646035 1_555
O22 Si6 1.650965 1_555
O23 Si7 1.646035 1_555
