# generated using pymatgen
data_Na2NiH20C12(N2O3)6
_symmetry_space_group_name_H-M   'P 1'
_cell_length_a   7.27403800
_cell_length_b   10.48826303
_cell_length_c   10.55247009
_cell_angle_alpha   112.64445653
_cell_angle_beta   108.92354963
_cell_angle_gamma   95.15784955
_symmetry_Int_Tables_number   1
_chemical_formula_structural   Na2NiH20C12(N2O3)6
_chemical_formula_sum   'Na2 Ni1 H20 C12 N12 O18'
_cell_volume   681.25203575
_cell_formula_units_Z   1
loop_
 _symmetry_equiv_pos_site_id
 _symmetry_equiv_pos_as_xyz
  1  'x, y, z'
loop_
 _atom_site_type_symbol
 _atom_site_label
 _atom_site_symmetry_multiplicity
 _atom_site_fract_x
 _atom_site_fract_y
 _atom_site_fract_z
 _atom_site_occupancy
  Na  Na0  1  0.70387300  0.40170000  0.46606700  1
  Na  Na1  1  0.29612700  0.59830000  0.53393300  1
  Ni  Ni0  1  0.00000000  0.00000000  0.00000000  1
  H  H0  1  0.74173800  0.69017700  0.68552400  1
  H  H1  1  0.25826200  0.30982300  0.31447600  1
  H  H2  1  0.30061200  0.90180500  0.72917600  1
  H  H3  1  0.69938800  0.09819500  0.27082400  1
  H  H4  1  0.72113200  0.83771100  0.03274000  1
  H  H5  1  0.27886800  0.16228900  0.96726000  1
  H  H6  1  0.30502300  0.40526700  0.23952400  1
  H  H7  1  0.69497700  0.59473300  0.76047600  1
  H  H8  1  0.81342300  0.43977400  0.11630400  1
  H  H9  1  0.18657700  0.56022600  0.88369600  1
  H  H10  1  0.39189100  0.11690700  0.10094200  1
  H  H11  1  0.60810900  0.88309300  0.89905800  1
  H  H12  1  0.25909600  0.62988100  0.13777200  1
  H  H13  1  0.74090400  0.37011900  0.86222800  1
  H  H14  1  0.25464100  0.80568200  0.80317300  1
  H  H15  1  0.74535900  0.19431800  0.19682700  1
  H  H16  1  0.26538800  0.98688100  0.49308100  1
  H  H17  1  0.73461200  0.01311900  0.50691900  1
  H  H18  1  0.80131900  0.78835900  0.46612100  1
  H  H19  1  0.19868100  0.21164100  0.53387900  1
  C  C0  1  0.81600000  0.60390100  0.30502600  1
  C  C1  1  0.18400000  0.39609900  0.69497400  1
  C  C2  1  0.18354600  0.79857500  0.08688100  1
  C  C3  1  0.81645400  0.20142500  0.91311900  1
  C  C4  1  0.74440000  0.61062000  0.06632400  1
  C  C5  1  0.25560000  0.38938000  0.93367600  1
  C  C6  1  0.27293600  0.79881100  0.32980900  1
  C  C7  1  0.72706400  0.20118900  0.67019100  1
  C  C8  1  0.81304500  0.99649500  0.70907200  1
  C  C9  1  0.18695500  0.00350500  0.29092800  1
  C  C10  1  0.74025200  0.81099900  0.26745200  1
  C  C11  1  0.25974800  0.18900100  0.73254800  1
  N  N0  1  0.15185500  0.93091800  0.14419200  1
  N  N1  1  0.84814500  0.06908200  0.85580800  1
  N  N2  1  0.24797700  0.93563000  0.38120800  1
  N  N3  1  0.75202300  0.06437000  0.61879200  1
  N  N4  1  0.72295500  0.74572000  0.12404200  1
  N  N5  1  0.27704500  0.25428000  0.87595800  1
  N  N6  1  0.24359500  0.73488600  0.18144000  1
  N  N7  1  0.75640500  0.26511400  0.81855900  1
  N  N8  1  0.79275400  0.54283500  0.15851200  1
  N  N9  1  0.20724600  0.45716500  0.84148800  1
  N  N10  1  0.78412000  0.73812700  0.35480500  1
  N  N11  1  0.21588000  0.26187300  0.64519500  1
  O  O0  1  0.71867000  0.93563300  0.32532100  1
  O  O1  1  0.28133000  0.06436700  0.67467900  1
  O  O2  1  0.27634100  0.45570000  0.06756700  1
  O  O3  1  0.72365900  0.54430000  0.93243300  1
  O  O4  1  0.15606700  0.73434800  0.95185500  1
  O  O5  1  0.84393300  0.26565200  0.04814500  1
  O  O6  1  0.33610400  0.82136000  0.75014300  1
  O  O7  1  0.66389600  0.17864000  0.24985700  1
  O  O8  1  0.83766100  0.87273700  0.65627100  1
  O  O9  1  0.16233900  0.12726300  0.34372900  1
  O  O10  1  0.86370600  0.54290300  0.38678600  1
  O  O11  1  0.13629400  0.45709700  0.61321400  1
  O  O12  1  0.34004600  0.40075800  0.33574600  1
  O  O13  1  0.65995400  0.59924200  0.66425400  1
  O  O14  1  0.26320300  0.09763800  0.01827700  1
  O  O15  1  0.73679700  0.90236200  0.98172300  1
  O  O16  1  0.68150600  0.26214900  0.58871500  1
  O  O17  1  0.31849400  0.73785100  0.41128500  1
loop_
_geom_bond_atom_site_label_1
_geom_bond_atom_site_label_2
_geom_bond_distance
_geom_bond_site_symmetry_2
Na0 O16 2.322976 1_555
Na0 O10 2.349526 1_555
Na0 O13 2.446291 1_555
Na0 O7 2.469926 1_555
Na0 O12 2.553319 1_555
Na0 O11 2.907109 1_655
Na1 O17 2.322976 1_555
Na1 O11 2.349526 1_555
Na1 O12 2.446291 1_555
Na1 O6 2.469926 1_555
Na1 O13 2.553319 1_555
Na1 O10 2.907109 1_455
Ni0 O14 2.001818 1_555
Ni0 O15 2.001818 1_444
H0 O13 0.980032 1_555
H1 O12 0.980032 1_555
H2 O6 0.986582 1_555
H3 O7 0.986582 1_555
H4 O15 1.034209 1_554
H4 N4 1.602850 1_555
H5 O14 1.034209 1_556
H5 N5 1.602850 1_555
H6 O12 0.984630 1_555
H7 O13 0.984630 1_555
H8 N8 1.044665 1_555
H9 N9 1.044665 1_555
H10 O14 0.989260 1_555
H11 O15 0.989260 1_555
H12 N6 1.050337 1_555
H13 N7 1.050337 1_555
H14 O6 0.979661 1_555
H15 O7 0.979661 1_555
H16 N2 1.049187 1_555
H17 N3 1.049187 1_555
H18 N10 1.043711 1_555
H19 N11 1.043711 1_555
C0 O10 1.242917 1_555
C0 N8 1.370270 1_555
C0 N10 1.371085 1_555
C1 O11 1.242917 1_555
C1 N9 1.370270 1_555
C1 N11 1.371085 1_555
C2 O4 1.255358 1_554
C2 N0 1.359090 1_555
C2 N6 1.384081 1_555
C3 O5 1.255358 1_556
C3 N1 1.359090 1_555
C3 N7 1.384089 1_555
C4 O3 1.260532 1_554
C4 N4 1.356429 1_555
C4 N8 1.389644 1_555
C5 O2 1.260532 1_556
C5 N5 1.356429 1_555
C5 N9 1.389644 1_555
C6 O17 1.238708 1_555
C6 N6 1.376804 1_555
C6 N2 1.377584 1_555
C7 O16 1.238708 1_555
C7 N7 1.376795 1_555
C7 N3 1.377584 1_555
C8 O8 1.255760 1_555
C8 N1 1.357684 1_565
C8 N3 1.384260 1_565
C9 O9 1.255760 1_555
C9 N0 1.357684 1_545
C9 N2 1.384260 1_545
C10 O0 1.261235 1_555
C10 N4 1.355705 1_555
C10 N10 1.389692 1_555
C11 O1 1.261235 1_555
C11 N5 1.355705 1_555
C11 N11 1.389692 1_555
N0 Ni0 1.990728 1_565
N1 Ni0 1.990728 1_656
