# generated using pymatgen
data_BaCrO4
_symmetry_space_group_name_H-M   'P 1'
_cell_length_a   6.50057589
_cell_length_b   7.92551690
_cell_length_c   7.10942820
_cell_angle_alpha   90.00000000
_cell_angle_beta   90.00000000
_cell_angle_gamma   90.00000000
_symmetry_Int_Tables_number   1
_chemical_formula_structural   BaCrO4
_chemical_formula_sum   'Ba4 Cr4 O16'
_cell_volume   366.28075580
_cell_formula_units_Z   4
loop_
 _symmetry_equiv_pos_site_id
 _symmetry_equiv_pos_as_xyz
  1  'x, y, z'
loop_
 _atom_site_type_symbol
 _atom_site_label
 _atom_site_symmetry_multiplicity
 _atom_site_fract_x
 _atom_site_fract_y
 _atom_site_fract_z
 _atom_site_occupancy
  Ba  Ba0  1  0.22266892  0.14054120  0.59073609  1
  Ba  Ba1  1  0.77733108  0.35945880  0.09073609  1
  Ba  Ba2  1  0.27733108  0.64054120  0.40926391  1
  Ba  Ba3  1  0.72266892  0.85945880  0.90926391  1
  Cr  Cr0  1  0.25047836  0.10472881  0.08799611  1
  Cr  Cr1  1  0.74952164  0.39527119  0.58799611  1
  Cr  Cr2  1  0.24952164  0.60472881  0.91200389  1
  Cr  Cr3  1  0.75047836  0.89527119  0.41200389  1
  O  O0  1  0.28425515  0.94809076  0.23534449  1
  O  O1  1  0.71574485  0.55190924  0.73534449  1
  O  O2  1  0.21574485  0.44809076  0.76465551  1
  O  O3  1  0.78425515  0.05190924  0.26465551  1
  O  O4  1  0.20076647  0.27474966  0.21064001  1
  O  O5  1  0.79923353  0.22525034  0.71064001  1
  O  O6  1  0.29923353  0.77474966  0.78935999  1
  O  O7  1  0.70076647  0.72525034  0.28935999  1
  O  O8  1  0.55508476  0.92973305  0.55461681  1
  O  O9  1  0.44491524  0.57026695  0.05461681  1
  O  O10  1  0.94491524  0.42973305  0.44538319  1
  O  O11  1  0.05508476  0.07026695  0.94538319  1
  O  O12  1  0.45862073  0.13333863  0.95673136  1
  O  O13  1  0.54137927  0.36666137  0.45673136  1
  O  O14  1  0.04137927  0.63333863  0.04326864  1
  O  O15  1  0.95862073  0.86666137  0.54326864  1
loop_
_geom_bond_atom_site_label_1
_geom_bond_atom_site_label_2
_geom_bond_distance
_geom_bond_site_symmetry_2
Ba0 O2 2.733538 1_555
Ba0 O8 2.743511 1_545
Ba0 O15 2.787797 1_445
Ba0 O11 2.802522 1_555
Ba0 O13 2.900290 1_555
Ba0 O4 2.907561 1_555
Ba0 O5 2.958726 1_455
Ba0 O0 2.978353 1_545
Ba0 O12 3.020987 1_555
Ba0 O10 3.095343 1_455
Ba0 O6 3.262891 1_545
Ba1 O3 2.733538 1_555
Ba1 O9 2.743511 1_555
Ba1 O14 2.787797 1_655
Ba1 O10 2.802522 1_555
Ba1 O12 2.900290 1_554
Ba1 O5 2.907561 1_554
Ba1 O4 2.958726 1_655
Ba1 O1 2.978353 1_554
Ba1 O13 3.020987 1_555
Ba1 O11 3.095343 1_654
Ba1 O7 3.262891 1_555
Ba2 O0 2.733538 1_555
Ba2 O10 2.743511 1_455
Ba2 O13 2.787797 1_555
Ba2 O9 2.802522 1_555
Ba2 O15 2.900290 1_455
Ba2 O6 2.907561 1_555
Ba2 O7 2.958726 1_555
Ba2 O2 2.978353 1_555
Ba2 O14 3.020987 1_555
Ba2 O8 3.095343 1_555
Ba2 O4 3.262891 1_555
Ba3 O1 2.733538 1_555
Ba3 O11 2.743511 1_665
Ba3 O12 2.787797 1_565
Ba3 O8 2.802522 1_555
Ba3 O14 2.900290 1_656
Ba3 O7 2.907561 1_556
Ba3 O6 2.958726 1_555
Ba3 O3 2.978353 1_566
Ba3 O15 3.020987 1_555
Ba3 O9 3.095343 1_556
Ba3 O5 3.262891 1_565
Cr0 O4 1.637209 1_555
Cr0 O0 1.639135 1_545
Cr0 O11 1.648005 1_554
Cr0 O12 1.659229 1_554
Cr1 O5 1.637209 1_555
Cr1 O1 1.639135 1_555
Cr1 O10 1.648005 1_555
Cr1 O13 1.659229 1_555
Cr2 O6 1.637209 1_555
Cr2 O2 1.639135 1_555
Cr2 O9 1.648005 1_556
Cr2 O14 1.659229 1_556
Cr3 O7 1.637209 1_555
Cr3 O3 1.639135 1_565
Cr3 O8 1.648005 1_555
Cr3 O15 1.659229 1_555
