# generated using pymatgen
data_La2(WO4)3
_symmetry_space_group_name_H-M   'P 1'
_cell_length_a   7.12200556
_cell_length_b   7.12200556
_cell_length_c   11.70736215
_cell_angle_alpha   79.29301354
_cell_angle_beta   79.29301354
_cell_angle_gamma   112.41467115
_symmetry_Int_Tables_number   1
_chemical_formula_structural   La2(WO4)3
_chemical_formula_sum   'La4 W6 O24'
_cell_volume   517.43492796
_cell_formula_units_Z   2
loop_
 _symmetry_equiv_pos_site_id
 _symmetry_equiv_pos_as_xyz
  1  'x, y, z'
loop_
 _atom_site_type_symbol
 _atom_site_label
 _atom_site_symmetry_multiplicity
 _atom_site_fract_x
 _atom_site_fract_y
 _atom_site_fract_z
 _atom_site_occupancy
  La  La0  1  0.05497074  0.30773485  0.40367069  1
  La  La1  1  0.69226515  0.94502926  0.09632931  1
  La  La2  1  0.94502926  0.69226515  0.59632931  1
  La  La3  1  0.30773485  0.05497074  0.90367069  1
  W  W0  1  0.20071465  0.49333052  0.04534011  1
  W  W1  1  0.50666948  0.79928535  0.45465989  1
  W  W2  1  0.79928535  0.50666948  0.95465989  1
  W  W3  1  0.49333052  0.20071465  0.54534011  1
  W  W4  1  0.11765379  0.88234621  0.25000000  1
  W  W5  1  0.88234621  0.11765379  0.75000000  1
  O  O0  1  0.67054978  0.09518215  0.42777860  1
  O  O1  1  0.90481785  0.32945022  0.07222140  1
  O  O2  1  0.32945022  0.90481785  0.57222140  1
  O  O3  1  0.09518215  0.67054978  0.92777860  1
  O  O4  1  0.23053273  0.62858194  0.46222589  1
  O  O5  1  0.37141806  0.76946727  0.03777411  1
  O  O6  1  0.76946727  0.37141806  0.53777411  1
  O  O7  1  0.62858194  0.23053273  0.96222589  1
  O  O8  1  0.20137840  0.35659257  0.19026648  1
  O  O9  1  0.64340743  0.79862160  0.30973352  1
  O  O10  1  0.79862160  0.64340743  0.80973352  1
  O  O11  1  0.35659257  0.20137840  0.69026648  1
  O  O12  1  0.01334348  0.60396170  0.27985683  1
  O  O13  1  0.39603830  0.98665652  0.22014317  1
  O  O14  1  0.98665652  0.39603830  0.72014317  1
  O  O15  1  0.60396170  0.01334348  0.77985683  1
  O  O16  1  0.40185992  0.32605158  0.43958819  1
  O  O17  1  0.67394842  0.59814008  0.06041181  1
  O  O18  1  0.59814008  0.67394842  0.56041181  1
  O  O19  1  0.32605158  0.40185992  0.93958819  1
  O  O20  1  0.02735897  0.94703985  0.38652879  1
  O  O21  1  0.05296015  0.97264103  0.11347121  1
  O  O22  1  0.97264103  0.05296015  0.61347121  1
  O  O23  1  0.94703985  0.02735897  0.88652879  1
loop_
_geom_bond_atom_site_label_1
_geom_bond_atom_site_label_2
_geom_bond_distance
_geom_bond_site_symmetry_2
La0 O8 2.425411 1_555
La0 O4 2.444698 1_555
La0 O12 2.477974 1_555
La0 O0 2.502096 1_455
La0 O16 2.541270 1_555
La0 O20 2.549318 1_545
La0 O6 2.566485 1_455
La0 O22 2.581989 1_455
La1 O9 2.425411 1_555
La1 O5 2.444698 1_555
La1 O13 2.477974 1_555
La1 O1 2.502096 1_565
La1 O17 2.541270 1_555
La1 O21 2.549318 1_655
La1 O7 2.566485 1_564
La1 O23 2.581989 1_564
La2 O10 2.425411 1_555
La2 O6 2.444698 1_555
La2 O14 2.477974 1_555
La2 O2 2.502096 1_655
La2 O18 2.541270 1_555
La2 O22 2.549318 1_565
La2 O4 2.566485 1_655
La2 O20 2.581989 1_655
La3 O11 2.425411 1_555
La3 O7 2.444698 1_555
La3 O15 2.477974 1_555
La3 O3 2.502096 1_545
La3 O19 2.541270 1_555
La3 O23 2.549318 1_455
La3 O5 2.566485 1_546
La3 O21 2.581989 1_546
O0 W1 1.908840 1_545
O0 W3 2.124756 1_555
O1 W0 1.908840 1_655
O1 W2 2.124756 1_554
O2 W3 1.908840 1_565
O2 W1 2.124756 1_555
O3 W2 1.908840 1_455
O3 W0 2.124756 1_556
O4 W1 1.850805 1_555
O5 W0 1.850805 1_555
O6 W3 1.850805 1_555
O7 W2 1.850805 1_555
O8 W0 1.794364 1_555
O9 W1 1.794364 1_555
O10 W2 1.794364 1_555
O11 W3 1.794364 1_555
O12 W4 1.768542 1_555
O13 W4 1.768542 1_555
O14 W5 1.768542 1_555
O15 W5 1.768542 1_555
O16 W3 1.756863 1_555
O17 W2 1.756863 1_554
O18 W1 1.756863 1_555
O19 W0 1.756863 1_556
O20 W4 1.816141 1_555
O21 W4 1.816141 1_555
O22 W5 1.816141 1_555
O23 W5 1.816141 1_555
