# generated using pymatgen
data_Li9Mn2Co5O16
_symmetry_space_group_name_H-M   'P 1'
_cell_length_a   2.97263000
_cell_length_b   8.09042262
_cell_length_c   11.92128714
_cell_angle_alpha   90.62611358
_cell_angle_beta   94.20250316
_cell_angle_gamma   91.03877725
_symmetry_Int_Tables_number   1
_chemical_formula_structural   Li9Mn2Co5O16
_chemical_formula_sum   'Li9 Mn2 Co5 O16'
_cell_volume   285.86550709
_cell_formula_units_Z   1
loop_
 _symmetry_equiv_pos_site_id
 _symmetry_equiv_pos_as_xyz
  1  'x, y, z'
loop_
 _atom_site_type_symbol
 _atom_site_label
 _atom_site_symmetry_multiplicity
 _atom_site_fract_x
 _atom_site_fract_y
 _atom_site_fract_z
 _atom_site_occupancy
  Li  Li0  1  0.99920300  0.00034200  0.25140400  1
  Li  Li1  1  0.50747900  0.74367500  0.62295300  1
  Li  Li2  1  0.00689500  0.49585800  0.99388100  1
  Li  Li3  1  0.49904300  0.25055100  0.37606100  1
  Li  Li4  1  0.99780600  0.00339700  0.74984600  1
  Li  Li5  1  0.49484000  0.74620200  0.13067800  1
  Li  Li6  1  0.99392500  0.49765300  0.49993500  1
  Li  Li7  1  0.50040000  0.26312500  0.86986300  1
  Li  Li8  1  0.99052000  0.49393000  0.75460900  1
  Mn  Mn0  1  0.00732700  0.00372500  0.99939500  1
  Mn  Mn1  1  0.50246800  0.74062000  0.87046400  1
  Co  Co0  1  0.50019500  0.75052300  0.37579200  1
  Co  Co1  1  0.50142000  0.25262400  0.12678300  1
  Co  Co2  1  0.99872100  0.00077400  0.50000900  1
  Co  Co3  1  0.00176800  0.50086100  0.25091600  1
  Co  Co4  1  0.49433200  0.25932300  0.62847300  1
  O  O0  1  0.47497400  0.01053600  0.12299700  1
  O  O1  1  0.97327600  0.76175500  0.49659700  1
  O  O2  1  0.49296900  0.51521200  0.87614100  1
  O  O3  1  0.97439200  0.26214000  0.24557100  1
  O  O4  1  0.47272800  0.01756400  0.61752200  1
  O  O5  1  0.02827400  0.75678200  0.98555400  1
  O  O6  1  0.47520200  0.51336900  0.36934700  1
  O  O7  1  0.97086300  0.24828100  0.73887400  1
  O  O8  1  0.52513200  0.98741600  0.38114400  1
  O  O9  1  0.97599300  0.74843800  0.76368600  1
  O  O10  1  0.52767300  0.49010200  0.13357800  1
  O  O11  1  0.02291700  0.23658700  0.50499100  1
  O  O12  1  0.53291900  0.98928500  0.87906400  1
  O  O13  1  0.02535600  0.73977000  0.25559800  1
  O  O14  1  0.50348500  0.47433900  0.62060200  1
  O  O15  1  0.02750800  0.24524000  0.00767000  1
loop_
_geom_bond_atom_site_label_1
_geom_bond_atom_site_label_2
_geom_bond_distance
_geom_bond_site_symmetry_2
Li0 O0 2.106252 1_555
Li0 O13 2.111981 1_645
Li0 O8 2.121881 1_645
Li0 O3 2.122397 1_555
Li0 O0 2.160123 1_655
Li0 O8 2.169496 1_545
Li1 O9 2.100017 1_555
Li1 O1 2.115366 1_455
Li1 O1 2.123867 1_555
Li1 O14 2.178722 1_555
Li1 O4 2.221583 1_565
Li1 O9 2.387808 1_455
Li2 O2 2.006925 1_455
Li2 O15 2.037713 1_556
Li2 O2 2.091956 1_555
Li2 O5 2.114425 1_555
Li2 O10 2.190576 1_556
Li2 O10 2.269793 1_456
Li3 O11 2.111792 1_655
Li3 O3 2.124606 1_455
Li3 O6 2.130955 1_555
Li3 O8 2.133051 1_545
Li3 O11 2.166842 1_555
Li3 O3 2.178516 1_555
Li4 O7 1.989628 1_555
Li4 O9 2.071333 1_545
Li4 O12 2.137195 1_645
Li4 O4 2.141825 1_555
Li4 O12 2.146132 1_545
Li4 O4 2.195251 1_655
Li5 O10 2.076567 1_555
Li5 O13 2.089958 1_655
Li5 O13 2.114668 1_555
Li5 O5 2.140067 1_554
Li5 O0 2.143230 1_565
Li5 O5 2.432138 1_654
Li6 O14 2.023914 1_655
Li6 O6 2.115894 1_555
Li6 O11 2.116788 1_655
Li6 O14 2.129242 1_555
Li6 O1 2.139411 1_555
Li6 O6 2.193323 1_655
Li7 O2 2.040625 1_555
Li7 O7 2.135302 1_455
Li7 O7 2.175037 1_555
Li7 O15 2.193435 1_656
Li7 O12 2.222894 1_545
Li7 O15 2.243263 1_556
Li8 O7 1.993593 1_555
Li8 O2 2.006891 1_655
Li8 O9 2.062138 1_555
Li8 O14 2.078571 1_555
Li8 O2 2.152698 1_555
Li8 O14 2.294054 1_655
Mn0 O12 1.937545 1_445
Mn0 O0 1.949859 1_556
Mn0 O15 1.954982 1_556
Mn0 O5 2.005346 1_545
Mn0 O12 2.200896 1_545
Mn0 O0 2.240901 1_456
Mn1 O2 1.825424 1_555
Mn1 O9 1.946021 1_455
Mn1 O9 1.966438 1_555
Mn1 O5 2.004234 1_655
Mn1 O12 2.013354 1_555
Mn1 O5 2.042728 1_555
Co0 O8 1.916838 1_555
Co0 O6 1.919248 1_555
Co0 O13 1.936353 1_555
Co0 O1 1.937945 1_555
Co0 O13 2.197221 1_655
Co0 O1 2.206493 1_455
Co1 O3 1.920917 1_555
Co1 O10 1.922049 1_555
Co1 O15 1.925211 1_555
Co1 O0 1.958641 1_555
Co1 O15 2.189198 1_655
Co1 O3 2.189259 1_455
Co2 O11 1.907990 1_655
Co2 O4 1.914680 1_655
Co2 O8 1.923619 1_545
Co2 O1 1.933739 1_545
Co2 O4 2.179532 1_555
Co2 O8 2.189997 1_645
Co3 O10 1.911645 1_455
Co3 O6 1.919551 1_555
Co3 O3 1.931751 1_455
Co3 O13 1.932923 1_555
Co3 O10 2.175092 1_555
Co3 O6 2.186367 1_455
Co4 O14 1.742950 1_555
Co4 O7 1.865659 1_555
Co4 O4 1.958437 1_555
Co4 O11 1.961368 1_555
Co4 O7 2.111689 1_455
Co4 O11 2.239045 1_655
