# generated using pymatgen
data_Sr4CaMn2(GaO5)2
_symmetry_space_group_name_H-M   'P 1'
_cell_length_a   6.76065386
_cell_length_b   6.15769904
_cell_length_c   9.46960646
_cell_angle_alpha   62.68012713
_cell_angle_beta   68.91930408
_cell_angle_gamma   91.73037670
_symmetry_Int_Tables_number   1
_chemical_formula_structural   Sr4CaMn2(GaO5)2
_chemical_formula_sum   'Sr4 Ca1 Mn2 Ga2 O10'
_cell_volume   317.61175508
_cell_formula_units_Z   1
loop_
 _symmetry_equiv_pos_site_id
 _symmetry_equiv_pos_as_xyz
  1  'x, y, z'
loop_
 _atom_site_type_symbol
 _atom_site_label
 _atom_site_symmetry_multiplicity
 _atom_site_fract_x
 _atom_site_fract_y
 _atom_site_fract_z
 _atom_site_occupancy
  Sr  Sr0  1  0.19923900  0.70710900  0.78308900  1
  Sr  Sr1  1  0.71876700  0.36173900  0.20743500  1
  Sr  Sr2  1  0.76051300  0.05804200  0.74469600  1
  Sr  Sr3  1  0.31148400  0.83669400  0.21110300  1
  Ca  Ca0  1  0.17902900  0.32250400  0.20343900  1
  Mn  Mn0  1  0.60466100  0.43359900  0.89094100  1
  Mn  Mn1  1  0.00924200  0.03165900  0.00550100  1
  Ga  Ga0  1  0.67496600  0.72638400  0.49165700  1
  Ga  Ga1  1  0.35596300  0.38201100  0.54079900  1
  O  O0  1  0.29659400  0.25923300  0.96736600  1
  O  O1  1  0.08443900  0.67490900  0.09370400  1
  O  O2  1  0.68254100  0.11688000  0.02266200  1
  O  O3  1  0.81008200  0.63006400  0.90240100  1
  O  O4  1  0.59809800  0.74681500  0.69531900  1
  O  O5  1  0.34940200  0.39474000  0.34164900  1
  O  O6  1  0.12906100  0.13380600  0.73253500  1
  O  O7  1  0.90906300  0.98520900  0.30582000  1
  O  O8  1  0.38686200  0.72861500  0.48244200  1
  O  O9  1  0.65427800  0.39856000  0.51315500  1
loop_
_geom_bond_atom_site_label_1
_geom_bond_atom_site_label_2
_geom_bond_distance
_geom_bond_site_symmetry_2
Ca0 O1 2.165566 1_555
Ca0 O5 2.196679 1_555
Ca0 O7 2.287944 1_445
Ca0 O0 2.306741 1_554
Mn0 O3 1.879228 1_555
Mn0 O2 1.984465 1_556
Mn0 O4 1.984484 1_555
Mn0 O0 2.020333 1_555
Mn1 O1 2.114360 1_545
Mn1 O6 2.168864 1_554
Mn1 O0 2.175909 1_554
Mn1 O2 2.251726 1_455
Mn1 O7 2.546442 1_445
Ga0 O7 1.847001 1_555
Ga0 O4 1.873784 1_555
Ga0 O9 1.929033 1_555
Ga0 O8 1.981010 1_555
Ga1 O6 1.814748 1_555
Ga1 O5 1.867974 1_555
Ga1 O8 1.926549 1_555
Ga1 O9 1.931249 1_555
O0 Sr3 2.603401 1_546
O0 Sr0 2.757275 1_555
O1 Sr3 2.595450 1_555
O1 Sr1 2.623112 1_455
O1 Sr0 2.665832 1_554
O2 Sr3 2.479185 1_545
O2 Sr2 2.688222 1_554
O2 Sr1 2.846487 1_555
O3 Sr0 2.391189 1_655
O3 Sr1 2.393644 1_556
O3 Sr2 2.467476 1_565
O4 Sr2 2.482306 1_565
O4 Sr0 2.486633 1_555
O5 Sr1 2.424251 1_555
O5 Sr3 2.486376 1_555
O6 Sr2 2.472485 1_455
O6 Sr0 2.538104 1_545
O7 Sr1 2.637885 1_565
O7 Sr3 2.861890 1_655
O8 Sr3 2.587967 1_555
O8 Sr0 2.603442 1_555
O9 Sr2 2.592998 1_555
O9 Sr1 2.885013 1_555
