# generated using pymatgen
data_Na2GeF6
_symmetry_space_group_name_H-M   'P 1'
_cell_length_a   9.56393057
_cell_length_b   9.56393057
_cell_length_c   4.67316900
_cell_angle_alpha   90.00000000
_cell_angle_beta   90.00000000
_cell_angle_gamma   120.00000395
_symmetry_Int_Tables_number   1
_chemical_formula_structural   Na2GeF6
_chemical_formula_sum   'Na6 Ge3 F18'
_cell_volume   370.18168758
_cell_formula_units_Z   3
loop_
 _symmetry_equiv_pos_site_id
 _symmetry_equiv_pos_as_xyz
  1  'x, y, z'
loop_
 _atom_site_type_symbol
 _atom_site_label
 _atom_site_symmetry_multiplicity
 _atom_site_fract_x
 _atom_site_fract_y
 _atom_site_fract_z
 _atom_site_occupancy
  Na  Na0  1  0.34281500  0.34281500  0.00000000  1
  Na  Na1  1  0.00000000  0.65718500  0.00000000  1
  Na  Na2  1  0.65718500  0.00000000  0.00000000  1
  Na  Na3  1  0.65718500  0.65718500  0.00000000  1
  Na  Na4  1  0.00000000  0.34281500  0.00000000  1
  Na  Na5  1  0.34281500  0.00000000  0.00000000  1
  Ge  Ge0  1  0.66666700  0.33333300  0.49968900  1
  Ge  Ge1  1  0.33333300  0.66666700  0.50031100  1
  Ge  Ge2  1  0.00000000  0.00000000  0.00000000  1
  F  F0  1  0.57524200  0.42475800  0.72482300  1
  F  F1  1  0.57524200  0.15048300  0.72482300  1
  F  F2  1  0.84951700  0.42475800  0.72482300  1
  F  F3  1  0.15048300  0.57524200  0.27517700  1
  F  F4  1  0.42475800  0.84951700  0.27517700  1
  F  F5  1  0.42475800  0.57524200  0.27517700  1
  F  F6  1  0.75805200  0.24194800  0.27654400  1
  F  F7  1  0.75805200  0.51610500  0.27654400  1
  F  F8  1  0.48389500  0.24194800  0.27654400  1
  F  F9  1  0.09303000  0.90697000  0.21414400  1
  F  F10  1  0.09303000  0.18606000  0.21414400  1
  F  F11  1  0.81394000  0.90697000  0.21414400  1
  F  F12  1  0.18606000  0.09303000  0.78585600  1
  F  F13  1  0.90697000  0.81394000  0.78585600  1
  F  F14  1  0.90697000  0.09303000  0.78585600  1
  F  F15  1  0.24194800  0.75805200  0.72345600  1
  F  F16  1  0.24194800  0.48389500  0.72345600  1
  F  F17  1  0.51610500  0.75805200  0.72345600  1
loop_
_geom_bond_atom_site_label_1
_geom_bond_atom_site_label_2
_geom_bond_distance
_geom_bond_site_symmetry_2
F0 Ge0 1.844051 1_555
F0 Na0 2.338184 1_556
F0 Na3 2.338184 1_556
F1 Ge0 1.844051 1_555
F1 Na2 2.338177 1_556
F1 Na5 2.338183 1_556
F2 Ge0 1.844051 1_555
F2 Na4 2.338177 1_656
F2 Na1 2.338183 1_656
F3 Ge1 1.844051 1_555
F3 Na1 2.338177 1_555
F3 Na4 2.338183 1_555
F4 Ge1 1.844051 1_555
F4 Na5 2.338177 1_565
F4 Na2 2.338183 1_565
F5 Ge1 1.844051 1_555
F5 Na0 2.338184 1_555
F5 Na3 2.338184 1_555
F6 Ge0 1.838218 1_555
F6 Na2 2.392273 1_555
F6 Na4 2.392273 1_655
F7 Ge0 1.838232 1_555
F7 Na3 2.392266 1_555
F7 Na1 2.392272 1_655
F8 Ge0 1.838232 1_555
F8 Na0 2.392266 1_555
F8 Na5 2.392272 1_555
F9 Ge2 1.837480 1_565
F9 Na5 2.318308 1_565
F9 Na1 2.318308 1_555
F10 Ge2 1.837480 1_555
F10 Na0 2.318308 1_555
F10 Na4 2.318308 1_555
F11 Ge2 1.837480 1_665
F11 Na3 2.318308 1_555
F11 Na2 2.318308 1_565
F12 Ge2 1.837480 1_556
F12 Na0 2.318308 1_556
F12 Na5 2.318308 1_556
F13 Ge2 1.837480 1_666
F13 Na3 2.318308 1_556
F13 Na1 2.318308 1_656
F14 Ge2 1.837480 1_656
F14 Na4 2.318308 1_656
F14 Na2 2.318308 1_556
F15 Ge1 1.838218 1_555
F15 Na1 2.392273 1_556
F15 Na5 2.392273 1_566
F16 Ge1 1.838232 1_555
F16 Na0 2.392266 1_556
F16 Na4 2.392272 1_556
F17 Ge1 1.838232 1_555
F17 Na3 2.392266 1_556
F17 Na2 2.392272 1_566
