# generated using pymatgen
data_V2ZnH18(N3O5)2
_symmetry_space_group_name_H-M   'P 1'
_cell_length_a   7.76411400
_cell_length_b   12.65145500
_cell_length_c   16.58614555
_cell_angle_alpha   90.00000000
_cell_angle_beta   115.28696474
_cell_angle_gamma   90.00000000
_symmetry_Int_Tables_number   1
_chemical_formula_structural   V2ZnH18(N3O5)2
_chemical_formula_sum   'V8 Zn4 H72 N24 O40'
_cell_volume   1473.10135476
_cell_formula_units_Z   4
loop_
 _symmetry_equiv_pos_site_id
 _symmetry_equiv_pos_as_xyz
  1  'x, y, z'
loop_
 _atom_site_type_symbol
 _atom_site_label
 _atom_site_symmetry_multiplicity
 _atom_site_fract_x
 _atom_site_fract_y
 _atom_site_fract_z
 _atom_site_occupancy
  V  V0  1  0.84925200  0.61937900  0.04410600  1
  V  V1  1  0.84925200  0.88062100  0.54410600  1
  V  V2  1  0.15074800  0.38062100  0.95589400  1
  V  V3  1  0.15074800  0.11937900  0.45589400  1
  V  V4  1  0.87139800  0.98839100  0.11615600  1
  V  V5  1  0.87139800  0.51160900  0.61615600  1
  V  V6  1  0.12860200  0.01160900  0.88384400  1
  V  V7  1  0.12860200  0.48839100  0.38384400  1
  Zn  Zn0  1  0.48853000  0.68440100  0.20466700  1
  Zn  Zn1  1  0.48853000  0.81559900  0.70466700  1
  Zn  Zn2  1  0.51147000  0.31559900  0.79533300  1
  Zn  Zn3  1  0.51147000  0.18440100  0.29533300  1
  H  H0  1  0.92050900  0.46612300  0.16706700  1
  H  H1  1  0.92050900  0.03387700  0.66706700  1
  H  H2  1  0.07949100  0.53387700  0.83293300  1
  H  H3  1  0.07949100  0.96612300  0.33293300  1
  H  H4  1  0.89728000  0.41375000  0.07055600  1
  H  H5  1  0.89728000  0.08625000  0.57055600  1
  H  H6  1  0.10272000  0.58625000  0.92944400  1
  H  H7  1  0.10272000  0.91375000  0.42944400  1
  H  H8  1  0.70436300  0.44513000  0.08611900  1
  H  H9  1  0.70436300  0.05487000  0.58611900  1
  H  H10  1  0.29563700  0.55487000  0.91388100  1
  H  H11  1  0.29563700  0.94513000  0.41388100  1
  H  H12  1  0.60346700  0.96315700  0.94813900  1
  H  H13  1  0.60346700  0.53684300  0.44813900  1
  H  H14  1  0.39653300  0.03684300  0.05186100  1
  H  H15  1  0.39653300  0.46315700  0.55186100  1
  H  H16  1  0.74066700  0.85530100  0.97913300  1
  H  H17  1  0.74066700  0.64469900  0.47913300  1
  H  H18  1  0.25933300  0.14469900  0.02086700  1
  H  H19  1  0.25933300  0.35530100  0.52086700  1
  H  H20  1  0.81569100  0.96535100  0.94647000  1
  H  H21  1  0.81569100  0.53464900  0.44647000  1
  H  H22  1  0.18430900  0.03464900  0.05353000  1
  H  H23  1  0.18430900  0.46535100  0.55353000  1
  H  H24  1  0.86154300  0.69648300  0.31246200  1
  H  H25  1  0.86154300  0.80351700  0.81246200  1
  H  H26  1  0.13845700  0.30351700  0.68753800  1
  H  H27  1  0.13845700  0.19648300  0.18753800  1
  H  H28  1  0.74253000  0.78606600  0.34131400  1
  H  H29  1  0.74253000  0.71393400  0.84131400  1
  H  H30  1  0.25747000  0.21393400  0.65868600  1
  H  H31  1  0.25747000  0.28606600  0.15868600  1
  H  H32  1  0.78569000  0.80556400  0.25295100  1
  H  H33  1  0.78569000  0.69443600  0.75295100  1
  H  H34  1  0.21431000  0.19443600  0.74704900  1
  H  H35  1  0.21431000  0.30556400  0.24704900  1
  H  H36  1  0.46999900  0.69611600  0.04630000  1
  H  H37  1  0.46999900  0.80388400  0.54630000  1
  H  H38  1  0.53000100  0.30388400  0.95370000  1
  H  H39  1  0.53000100  0.19611600  0.45370000  1
  H  H40  1  0.48845300  0.81705300  0.08616600  1
  H  H41  1  0.48845300  0.68294700  0.58616600  1
  H  H42  1  0.51154700  0.18294700  0.91383400  1
  H  H43  1  0.51154700  0.31705300  0.41383400  1
  H  H44  1  0.27827400  0.75346200  0.04670900  1
  H  H45  1  0.27827400  0.74653800  0.54670900  1
  H  H46  1  0.72172600  0.24653800  0.95329100  1
  H  H47  1  0.72172600  0.25346200  0.45329100  1
  H  H48  1  0.44566500  0.49253500  0.14548300  1
  H  H49  1  0.44566500  0.00746500  0.64548300  1
  H  H50  1  0.55433500  0.50746500  0.85451700  1
  H  H51  1  0.55433500  0.99253500  0.35451700  1
  H  H52  1  0.41028000  0.49833600  0.23738900  1
  H  H53  1  0.41028000  0.00166400  0.73738900  1
  H  H54  1  0.58972000  0.50166400  0.76261100  1
  H  H55  1  0.58972000  0.99833600  0.26261100  1
  H  H56  1  0.63298100  0.49560700  0.24455800  1
  H  H57  1  0.63298100  0.00439300  0.74455800  1
  H  H58  1  0.36701900  0.50439300  0.75544200  1
  H  H59  1  0.36701900  0.99560700  0.25544200  1
  H  H60  1  0.20416200  0.77901600  0.22436300  1
  H  H61  1  0.20416200  0.72098400  0.72436300  1
  H  H62  1  0.79583800  0.22098400  0.77563700  1
  H  H63  1  0.79583800  0.27901600  0.27563700  1
  H  H64  1  0.38533100  0.76104300  0.32306200  1
  H  H65  1  0.38533100  0.73895700  0.82306200  1
  H  H66  1  0.61466900  0.23895700  0.67693800  1
  H  H67  1  0.61466900  0.26104300  0.17693800  1
  H  H68  1  0.24360400  0.66126900  0.27192700  1
  H  H69  1  0.24360400  0.83873100  0.77192700  1
  H  H70  1  0.75639600  0.33873100  0.72807300  1
  H  H71  1  0.75639600  0.16126900  0.22807300  1
  N  N0  1  0.84086600  0.46816800  0.09952300  1
  N  N1  1  0.84086600  0.03183200  0.59952300  1
  N  N2  1  0.15913400  0.53183200  0.90047700  1
  N  N3  1  0.15913400  0.96816800  0.40047700  1
  N  N4  1  0.74208400  0.93643000  0.98090100  1
  N  N5  1  0.74208400  0.56357000  0.48090100  1
  N  N6  1  0.25791600  0.06357000  0.01909900  1
  N  N7  1  0.25791600  0.43643000  0.51909900  1
  N  N8  1  0.74985100  0.74895400  0.28746800  1
  N  N9  1  0.74985100  0.75104600  0.78746800  1
  N  N10  1  0.25014900  0.25104600  0.71253200  1
  N  N11  1  0.25014900  0.24895400  0.21253200  1
  N  N12  1  0.42324200  0.74511900  0.08214600  1
  N  N13  1  0.42324200  0.75488100  0.58214600  1
  N  N14  1  0.57675800  0.25488100  0.91785400  1
  N  N15  1  0.57675800  0.24511900  0.41785400  1
  N  N16  1  0.49666600  0.52431500  0.20869800  1
  N  N17  1  0.49666600  0.97568500  0.70869800  1
  N  N18  1  0.50333400  0.47568500  0.79130200  1
  N  N19  1  0.50333400  0.02431500  0.29130200  1
  N  N20  1  0.30951800  0.72702100  0.26189800  1
  N  N21  1  0.30951800  0.77297900  0.76189800  1
  N  N22  1  0.69048200  0.27297900  0.73810200  1
  N  N23  1  0.69048200  0.22702100  0.23810200  1
  O  O0  1  0.03988900  0.66637200  0.00928800  1
  O  O1  1  0.03988900  0.83362800  0.50928800  1
  O  O2  1  0.96011100  0.33362800  0.99071200  1
  O  O3  1  0.96011100  0.16637200  0.49071200  1
  O  O4  1  0.10516000  0.57919000  0.07368500  1
  O  O5  1  0.10516000  0.92081000  0.57368500  1
  O  O6  1  0.89484000  0.42081000  0.92631500  1
  O  O7  1  0.89484000  0.07919000  0.42631500  1
  O  O8  1  0.65893800  0.68460700  0.93793300  1
  O  O9  1  0.65893800  0.81539300  0.43793300  1
  O  O10  1  0.34106200  0.31539300  0.06206700  1
  O  O11  1  0.34106200  0.18460700  0.56206700  1
  O  O12  1  0.58789600  0.58958300  0.96518900  1
  O  O13  1  0.58789600  0.91041700  0.46518900  1
  O  O14  1  0.41210400  0.41041700  0.03481100  1
  O  O15  1  0.41210400  0.08958300  0.53481100  1
  O  O16  1  0.11695200  0.94949700  0.20502700  1
  O  O17  1  0.11695200  0.55050300  0.70502700  1
  O  O18  1  0.88304800  0.05050300  0.79497300  1
  O  O19  1  0.88304800  0.44949700  0.29497300  1
  O  O20  1  0.08859200  0.92257100  0.11403400  1
  O  O21  1  0.08859200  0.57742900  0.61403400  1
  O  O22  1  0.91140800  0.07742900  0.88596600  1
  O  O23  1  0.91140800  0.42257100  0.38596600  1
  O  O24  1  0.76664600  0.97507700  0.20229700  1
  O  O25  1  0.76664600  0.52492300  0.70229700  1
  O  O26  1  0.23335400  0.02492300  0.79770300  1
  O  O27  1  0.23335400  0.47507700  0.29770300  1
  O  O28  1  0.62771200  0.95297600  0.11033800  1
  O  O29  1  0.62771200  0.54702400  0.61033800  1
  O  O30  1  0.37228800  0.04702400  0.88966200  1
  O  O31  1  0.37228800  0.45297600  0.38966200  1
  O  O32  1  0.85144900  0.69354400  0.12565600  1
  O  O33  1  0.85144900  0.80645600  0.62565600  1
  O  O34  1  0.14855100  0.30645600  0.87434400  1
  O  O35  1  0.14855100  0.19354400  0.37434400  1
  O  O36  1  0.88129600  0.11537300  0.09820200  1
  O  O37  1  0.88129600  0.38462700  0.59820200  1
  O  O38  1  0.11870400  0.88462700  0.90179800  1
  O  O39  1  0.11870400  0.61537300  0.40179800  1
loop_
_geom_bond_atom_site_label_1
_geom_bond_atom_site_label_2
_geom_bond_distance
_geom_bond_site_symmetry_2
H0 N0 1.022879 1_555
H1 N1 1.022879 1_555
H2 N2 1.022879 1_555
H3 N3 1.022879 1_555
H4 N0 1.037520 1_555
H5 N1 1.037520 1_555
H6 N2 1.037520 1_555
H7 N3 1.037520 1_555
H8 N0 1.027772 1_555
H9 N1 1.027772 1_555
H10 N2 1.027772 1_555
H11 N3 1.027772 1_555
H12 N4 1.033579 1_555
H13 N5 1.033579 1_555
H14 N6 1.033579 1_555
H15 N7 1.033579 1_555
H16 N4 1.026743 1_555
H17 N5 1.026743 1_555
H18 N6 1.026743 1_555
H19 N7 1.026743 1_555
H20 N4 1.032196 1_555
H21 N5 1.032196 1_555
H22 N6 1.032196 1_555
H23 N7 1.032196 1_555
H24 N8 1.028314 1_555
H25 N9 1.028314 1_555
H26 N10 1.028314 1_555
H27 N11 1.028314 1_555
H28 N8 1.031830 1_555
H29 N9 1.031830 1_555
H30 N10 1.031830 1_555
H31 N11 1.031830 1_555
H32 N8 1.026754 1_555
H33 N9 1.026754 1_555
H34 N10 1.026754 1_555
H35 N11 1.026754 1_555
H36 N12 1.026652 1_555
H37 N13 1.026652 1_555
H38 N14 1.026652 1_555
H39 N15 1.026652 1_555
H40 N12 1.029649 1_555
H41 N13 1.029649 1_555
H42 N14 1.029649 1_555
H43 N15 1.029649 1_555
H44 N12 1.028735 1_555
H45 N13 1.028735 1_555
H46 N14 1.028735 1_555
H47 N15 1.028735 1_555
H48 N16 1.031068 1_555
H49 N17 1.031068 1_545
H50 N18 1.031068 1_555
H51 N19 1.031068 1_565
H52 N16 1.028107 1_555
H53 N17 1.028107 1_545
H54 N18 1.028107 1_555
H55 N19 1.028107 1_565
H56 N16 1.033457 1_555
H57 N17 1.033457 1_545
H58 N18 1.033457 1_555
H59 N19 1.033457 1_565
H60 N20 1.026820 1_555
H61 N21 1.026820 1_555
H62 N22 1.026820 1_555
H63 N23 1.026820 1_555
H64 N20 1.025067 1_555
H65 N21 1.025067 1_555
H66 N22 1.025067 1_555
H67 N23 1.025067 1_555
H68 N20 1.026784 1_555
H69 N21 1.026784 1_555
H70 N22 1.026784 1_555
H71 N23 1.026784 1_555
N0 V0 2.135399 1_555
N1 V1 2.135399 1_545
N2 V2 2.135399 1_555
N3 V3 2.135399 1_565
N4 V4 2.132757 1_556
N5 V5 2.132757 1_555
N6 V6 2.132757 1_554
N7 V7 2.132757 1_555
N8 Zn0 2.071028 1_555
N9 Zn1 2.071028 1_555
N10 Zn2 2.071028 1_555
N11 Zn3 2.071028 1_555
N12 Zn0 2.024019 1_555
N13 Zn1 2.024019 1_555
N14 Zn2 2.024019 1_555
N15 Zn3 2.024019 1_555
N16 Zn0 2.026518 1_555
N17 Zn1 2.026518 1_555
N18 Zn2 2.026518 1_555
N19 Zn3 2.026518 1_555
N20 Zn0 2.061708 1_555
N21 Zn1 2.061708 1_555
N22 Zn2 2.061708 1_555
N23 Zn3 2.061708 1_555
O0 O4 1.466900 1_555
O0 V0 1.899468 1_455
O1 O5 1.466900 1_555
O1 V1 1.899468 1_455
O2 O6 1.466900 1_555
O2 V2 1.899468 1_655
O3 O7 1.466900 1_555
O3 V3 1.899468 1_655
O4 V0 1.901111 1_455
O5 V1 1.901111 1_455
O6 V2 1.901111 1_655
O7 V3 1.901111 1_655
O8 V0 1.934557 1_556
O9 V1 1.934557 1_555
O10 O14 1.472038 1_555
O10 V2 1.934557 1_554
O11 O15 1.472038 1_555
O11 V3 1.934557 1_555
O12 O8 1.472038 1_555
O12 V0 1.924563 1_556
O13 O9 1.472038 1_555
O13 V1 1.924563 1_555
O14 V2 1.924563 1_554
O15 V3 1.924563 1_555
O16 O20 1.469144 1_555
O16 V4 1.910198 1_455
O17 O21 1.469144 1_555
O17 V5 1.910198 1_455
O18 O22 1.469144 1_555
O18 V6 1.910198 1_655
O19 O23 1.469144 1_555
O19 V7 1.910198 1_655
O20 V4 1.894475 1_455
O21 V5 1.894475 1_455
O22 V6 1.894475 1_655
O23 V7 1.894475 1_655
O24 O28 1.470570 1_555
O24 V4 1.929733 1_555
O25 O29 1.470570 1_555
O25 V5 1.929733 1_555
O26 O30 1.470570 1_555
O26 V6 1.929733 1_555
O27 O31 1.470570 1_555
O27 V7 1.929733 1_555
O28 V4 1.906246 1_555
O29 V5 1.906246 1_555
O30 V6 1.906246 1_555
O31 V7 1.906246 1_555
O32 V0 1.640276 1_555
O33 V1 1.640276 1_555
O34 V2 1.640276 1_555
O35 V3 1.640276 1_555
O36 V4 1.641645 1_545
O37 V5 1.641645 1_555
O38 V6 1.641645 1_565
O39 V7 1.641645 1_555
