# generated using pymatgen
data_SrMn2V2O8
_symmetry_space_group_name_H-M   'P 1'
_cell_length_a   9.97121092
_cell_length_b   9.97121092
_cell_length_c   9.97121092
_cell_angle_alpha   101.29416607
_cell_angle_beta   101.29416607
_cell_angle_gamma   127.46721795
_symmetry_Int_Tables_number   1
_chemical_formula_structural   SrMn2V2O8
_chemical_formula_sum   'Sr4 Mn8 V8 O32'
_cell_volume   705.61930157
_cell_formula_units_Z   4
loop_
 _symmetry_equiv_pos_site_id
 _symmetry_equiv_pos_as_xyz
  1  'x, y, z'
loop_
 _atom_site_type_symbol
 _atom_site_label
 _atom_site_symmetry_multiplicity
 _atom_site_fract_x
 _atom_site_fract_y
 _atom_site_fract_z
 _atom_site_occupancy
  Sr  Sr0  1  0.24631000  0.24631000  0.00000000  1
  Sr  Sr1  1  0.74631000  0.74631000  0.00000000  1
  Sr  Sr2  1  0.49631000  0.99631000  0.50000000  1
  Sr  Sr3  1  0.99631000  0.49631000  0.50000000  1
  Mn  Mn0  1  0.70670000  0.37125300  0.99693900  1
  Mn  Mn1  1  0.20670000  0.20976100  0.33544700  1
  Mn  Mn2  1  0.62125300  0.12431400  0.16455300  1
  Mn  Mn3  1  0.45976100  0.62431400  0.50306100  1
  Mn  Mn4  1  0.37431400  0.70976100  0.00306100  1
  Mn  Mn5  1  0.87431400  0.87125300  0.66455300  1
  Mn  Mn6  1  0.95976100  0.45670000  0.83544700  1
  Mn  Mn7  1  0.12125300  0.95670000  0.49693900  1
  V  V0  1  0.09322800  0.43631300  0.18520100  1
  V  V1  1  0.59322800  0.40802700  0.65691500  1
  V  V2  1  0.68631300  0.00111300  0.84308500  1
  V  V3  1  0.65802700  0.50111300  0.31479900  1
  V  V4  1  0.25111300  0.90802700  0.81479900  1
  V  V5  1  0.75111300  0.93631300  0.34308500  1
  V  V6  1  0.15802700  0.84322800  0.15691500  1
  V  V7  1  0.18631300  0.34322800  0.68520100  1
  O  O0  1  0.75992600  0.39765200  0.64352500  1
  O  O1  1  0.25992600  0.61640100  0.36227400  1
  O  O2  1  0.64765200  0.50412700  0.13772600  1
  O  O3  1  0.86640100  0.00412700  0.85647500  1
  O  O4  1  0.75412700  0.11640100  0.35647500  1
  O  O5  1  0.25412700  0.89765200  0.63772600  1
  O  O6  1  0.36640100  0.50992600  0.86227400  1
  O  O7  1  0.14765200  0.00992600  0.14352500  1
  O  O8  1  0.11883700  0.12985500  0.67521800  1
  O  O9  1  0.61883700  0.94361800  0.98898200  1
  O  O10  1  0.37985500  0.20463600  0.51101800  1
  O  O11  1  0.19361800  0.70463600  0.82478200  1
  O  O12  1  0.45463600  0.44361800  0.32478200  1
  O  O13  1  0.95463600  0.62985500  0.01101800  1
  O  O14  1  0.69361800  0.86883700  0.48898200  1
  O  O15  1  0.87985500  0.36883700  0.17521800  1
  O  O16  1  0.86347100  0.70400100  0.46612100  1
  O  O17  1  0.36347100  0.89735000  0.15947000  1
  O  O18  1  0.95400100  0.98788000  0.34053000  1
  O  O19  1  0.14735000  0.48788000  0.03387900  1
  O  O20  1  0.23788000  0.39735000  0.53387900  1
  O  O21  1  0.73788000  0.20400100  0.84053000  1
  O  O22  1  0.64735000  0.61347100  0.65947000  1
  O  O23  1  0.45400100  0.11347100  0.96612100  1
  O  O24  1  0.58069600  0.40439400  0.82643000  1
  O  O25  1  0.08069600  0.25426600  0.17630200  1
  O  O26  1  0.65439400  0.32796400  0.32369800  1
  O  O27  1  0.50426600  0.82796400  0.67357000  1
  O  O28  1  0.57796400  0.75426600  0.17357000  1
  O  O29  1  0.07796400  0.90439400  0.82369800  1
  O  O30  1  0.00426600  0.33069600  0.67630200  1
  O  O31  1  0.15439400  0.83069600  0.32643000  1
loop_
_geom_bond_atom_site_label_1
_geom_bond_atom_site_label_2
_geom_bond_distance
_geom_bond_site_symmetry_2
Mn0 O24 2.113498 1_555
Mn0 O23 2.134961 1_555
Mn0 O2 2.148732 1_556
Mn0 O13 2.178811 1_556
Mn0 O15 2.237600 1_556
Mn0 O21 2.261012 1_555
Mn1 O25 2.113498 1_555
Mn1 O18 2.134961 1_445
Mn1 O7 2.148732 1_555
Mn1 O12 2.178807 1_555
Mn1 O10 2.237606 1_555
Mn1 O20 2.261012 1_555
Mn2 O26 2.113498 1_555
Mn2 O17 2.134961 1_545
Mn2 O4 2.148732 1_555
Mn2 O15 2.178815 1_555
Mn2 O9 2.237606 1_544
Mn2 O23 2.261012 1_554
Mn3 O27 2.113498 1_555
Mn3 O20 2.134961 1_555
Mn3 O1 2.148732 1_555
Mn3 O14 2.178811 1_555
Mn3 O12 2.237600 1_555
Mn3 O22 2.261012 1_555
Mn4 O28 2.113498 1_555
Mn4 O19 2.134961 1_555
Mn4 O6 2.148732 1_554
Mn4 O9 2.178811 1_554
Mn4 O11 2.237600 1_554
Mn4 O17 2.261012 1_555
Mn5 O29 2.113498 1_655
Mn5 O22 2.134961 1_555
Mn5 O3 2.148732 1_565
Mn5 O8 2.178815 1_665
Mn5 O14 2.237606 1_555
Mn5 O16 2.261012 1_555
Mn6 O30 2.113498 1_655
Mn6 O21 2.134961 1_555
Mn6 O0 2.148732 1_555
Mn6 O11 2.178807 1_655
Mn6 O13 2.237606 1_556
Mn6 O19 2.261012 1_656
Mn7 O31 2.113498 1_555
Mn7 O16 2.134961 1_455
Mn7 O5 2.148732 1_555
Mn7 O10 2.178811 1_565
Mn7 O8 2.237600 1_565
Mn7 O18 2.261012 1_455
O0 V1 1.755589 1_555
O0 Sr3 2.761011 1_555
O0 Sr2 2.908241 1_545
O1 V0 1.755589 1_555
O1 Sr2 2.761011 1_555
O1 Sr3 2.908241 1_455
O2 V3 1.755587 1_555
O2 Sr1 2.761011 1_555
O2 Sr0 2.908241 1_555
O3 V2 1.755595 1_555
O3 Sr0 2.761011 1_656
O3 Sr1 2.908241 1_546
O4 V5 1.755595 1_545
O4 Sr3 2.761011 1_555
O4 Sr2 2.908241 1_545
O5 V4 1.755587 1_555
O5 Sr2 2.761011 1_555
O5 Sr3 2.908241 1_455
O6 V7 1.755589 1_555
O6 Sr1 2.761011 1_556
O6 Sr0 2.908241 1_556
O7 V6 1.755589 1_545
O7 Sr0 2.761011 1_555
O7 Sr1 2.908241 1_445
O8 V7 1.771574 1_555
O8 Sr0 2.927578 1_556
O9 V2 1.771579 1_565
O9 Sr1 2.927569 1_556
O10 V1 1.771576 1_555
O10 Sr2 2.927569 1_545
O11 V4 1.771576 1_555
O11 Sr3 2.927577 1_455
O12 V3 1.771576 1_555
O12 Sr0 2.927577 1_555
O13 V6 1.771576 1_655
O13 Sr1 2.927569 1_555
O14 V5 1.771579 1_555
O14 Sr2 2.927569 1_555
O15 V0 1.771574 1_655
O15 Sr3 2.927578 1_555
O16 V3 1.765651 1_555
O16 Sr3 3.097319 1_555
O17 V6 1.765653 1_555
O17 Sr2 3.097319 1_555
O18 V5 1.765644 1_555
O18 Sr1 3.097319 1_555
O19 V0 1.765653 1_555
O19 Sr0 3.097319 1_555
O20 V7 1.765653 1_555
O20 Sr3 3.097319 1_455
O21 V2 1.765644 1_555
O21 Sr2 3.097319 1_545
O22 V1 1.765653 1_555
O22 Sr1 3.097319 1_556
O23 V4 1.765651 1_545
O23 Sr0 3.097319 1_556
O24 V1 1.724861 1_555
O24 Sr1 2.658109 1_556
O25 V0 1.724861 1_555
O25 Sr0 2.658109 1_555
O26 V3 1.724871 1_555
O26 Sr3 2.658109 1_555
O27 V2 1.724863 1_565
O27 Sr2 2.658109 1_555
O28 V5 1.724863 1_555
O28 Sr1 2.658109 1_555
O29 V4 1.724871 1_555
O29 Sr0 2.658109 1_566
O30 V7 1.724861 1_555
O30 Sr3 2.658109 1_455
O31 V6 1.724861 1_555
O31 Sr2 2.658109 1_555
