# generated using pymatgen
data_Hf5Si3
_symmetry_space_group_name_H-M   'P 1'
_cell_length_a   7.85042359
_cell_length_b   7.85042353
_cell_length_c   5.47632421
_cell_angle_alpha   90.00000000
_cell_angle_beta   90.00000000
_cell_angle_gamma   119.99999322
_symmetry_Int_Tables_number   1
_chemical_formula_structural   Hf5Si3
_chemical_formula_sum   'Hf10 Si6'
_cell_volume   292.28463881
_cell_formula_units_Z   2
loop_
 _symmetry_equiv_pos_site_id
 _symmetry_equiv_pos_as_xyz
  1  'x, y, z'
loop_
 _atom_site_type_symbol
 _atom_site_label
 _atom_site_symmetry_multiplicity
 _atom_site_fract_x
 _atom_site_fract_y
 _atom_site_fract_z
 _atom_site_occupancy
  Hf  Hf0  1  0.00002513  0.74698281  0.75000000  1
  Hf  Hf1  1  0.00002513  0.25304203  0.25000000  1
  Hf  Hf2  1  0.74695750  0.74698237  0.25000000  1
  Hf  Hf3  1  0.74695797  -0.00002513  0.75000000  1
  Hf  Hf4  1  0.25301763  0.25304250  0.75000000  1
  Hf  Hf5  1  0.25301719  -0.00002513  0.25000000  1
  Hf  Hf6  1  0.33333336  0.66666664  0.50000000  1
  Hf  Hf7  1  0.66666669  0.33333331  0.00000000  1
  Hf  Hf8  1  0.66666669  0.33333331  0.50000000  1
  Hf  Hf9  1  0.33333336  0.66666664  -0.00000000  1
  Si  Si0  1  0.39068681  -0.00000466  0.75000000  1
  Si  Si1  1  0.39068693  0.39069153  0.25000000  1
  Si  Si2  1  0.00000466  0.60931319  0.25000000  1
  Si  Si3  1  0.00000480  0.39069132  0.75000000  1
  Si  Si4  1  0.60930847  0.60931307  0.75000000  1
  Si  Si5  1  0.60930868  -0.00000480  0.25000000  1
loop_
_geom_bond_atom_site_label_1
_geom_bond_atom_site_label_2
_geom_bond_distance
_geom_bond_site_symmetry_2
Hf0 Si0 2.694304 1_565
Hf0 Si4 2.694681 1_455
Hf0 Si3 2.796959 1_555
Hf0 Si2 2.943707 1_555
Hf0 Si2 2.943707 1_556
Hf1 Si1 2.694304 1_555
Hf1 Si5 2.694680 1_455
Hf1 Si2 2.796960 1_555
Hf1 Si3 2.943707 1_554
Hf1 Si3 2.943707 1_555
Hf2 Si5 2.694304 1_565
Hf2 Si2 2.694680 1_655
Hf2 Si1 2.796955 1_555
Hf2 Si4 2.943706 1_554
Hf2 Si4 2.943706 1_555
Hf3 Si4 2.694304 1_545
Hf3 Si3 2.694680 1_655
Hf3 Si0 2.796960 1_555
Hf3 Si5 2.943707 1_555
Hf3 Si5 2.943707 1_556
Hf4 Si3 2.694304 1_555
Hf4 Si0 2.694680 1_555
Hf4 Si4 2.796955 1_555
Hf4 Si1 2.943706 1_555
Hf4 Si1 2.943706 1_556
Hf5 Si2 2.694304 1_545
Hf5 Si1 2.694681 1_555
Hf5 Si5 2.796959 1_555
Hf5 Si0 2.943707 1_554
Hf5 Si0 2.943707 1_555
Hf6 Si1 2.783235 1_555
Hf6 Si4 2.783235 1_555
Hf6 Si5 2.783236 1_565
Hf6 Si3 2.783236 1_555
Hf6 Si0 2.783236 1_565
Hf6 Si2 2.783236 1_555
Hf7 Si4 2.783287 1_554
Hf7 Si1 2.783287 1_555
Hf7 Si0 2.783287 1_554
Hf7 Si2 2.783287 1_655
Hf7 Si5 2.783288 1_555
Hf7 Si3 2.783288 1_654
Hf8 Si4 2.783287 1_555
Hf8 Si1 2.783287 1_555
Hf8 Si0 2.783287 1_555
Hf8 Si2 2.783287 1_655
Hf8 Si5 2.783288 1_555
Hf8 Si3 2.783288 1_655
Hf9 Si1 2.783235 1_555
Hf9 Si4 2.783235 1_554
Hf9 Si5 2.783236 1_565
Hf9 Si3 2.783236 1_554
Hf9 Si0 2.783236 1_564
Hf9 Si2 2.783236 1_555
