# generated using pymatgen
data_Rb2AlOF5
_symmetry_space_group_name_H-M   'P 1'
_cell_length_a   6.39481619
_cell_length_b   6.39481619
_cell_length_c   7.63563900
_cell_angle_alpha   90.00000000
_cell_angle_beta   90.00000000
_cell_angle_gamma   99.49042250
_symmetry_Int_Tables_number   1
_chemical_formula_structural   Rb2AlOF5
_chemical_formula_sum   'Rb4 Al2 O2 F10'
_cell_volume   307.97563144
_cell_formula_units_Z   2
loop_
 _symmetry_equiv_pos_site_id
 _symmetry_equiv_pos_as_xyz
  1  'x, y, z'
loop_
 _atom_site_type_symbol
 _atom_site_label
 _atom_site_symmetry_multiplicity
 _atom_site_fract_x
 _atom_site_fract_y
 _atom_site_fract_z
 _atom_site_occupancy
  Rb  Rb0  1  0.50136700  0.95551800  0.25000000  1
  Rb  Rb1  1  0.04448200  0.49863300  0.75000000  1
  Rb  Rb2  1  0.49863300  0.04448200  0.75000000  1
  Rb  Rb3  1  0.95551800  0.50136700  0.25000000  1
  Al  Al0  1  0.00000000  0.00000000  0.50000000  1
  Al  Al1  1  0.00000000  0.00000000  0.00000000  1
  O  O0  1  0.42966400  0.42966400  0.25000000  1
  O  O1  1  0.57033600  0.57033600  0.75000000  1
  F  F0  1  0.18433300  0.81566700  0.50000000  1
  F  F1  1  0.18433300  0.81566700  0.00000000  1
  F  F2  1  0.81566700  0.18433300  0.50000000  1
  F  F3  1  0.81566700  0.18433300  0.00000000  1
  F  F4  1  0.21914700  0.21914700  0.49167300  1
  F  F5  1  0.78085300  0.78085300  0.50832700  1
  F  F6  1  0.21914700  0.21914700  0.00832700  1
  F  F7  1  0.78085300  0.78085300  0.99167300  1
  F  F8  1  0.98921400  0.98921400  0.25000000  1
  F  F9  1  0.01078600  0.01078600  0.75000000  1
loop_
_geom_bond_atom_site_label_1
_geom_bond_atom_site_label_2
_geom_bond_distance
_geom_bond_site_symmetry_2
Al0 F0 1.799232 1_545
Al0 F2 1.799232 1_455
Al0 F4 1.812257 1_555
Al0 F5 1.812257 1_445
Al0 F9 1.910990 1_555
Al0 F8 1.910990 1_445
Al1 F3 1.799232 1_455
Al1 F1 1.799232 1_545
Al1 F6 1.812257 1_555
Al1 F7 1.812257 1_444
Al1 F9 1.910990 1_554
Al1 F8 1.910990 1_445
O0 Rb0 3.140415 1_545
O0 Rb3 3.140415 1_455
O0 Rb3 3.318101 1_555
O0 Rb0 3.318101 1_555
O1 Rb1 3.140415 1_655
O1 Rb2 3.140415 1_565
O1 Rb1 3.318101 1_555
O1 Rb2 3.318101 1_555
F0 Rb1 2.820654 1_555
F0 Rb0 2.820654 1_555
F0 Rb3 2.975705 1_455
F0 Rb2 2.975705 1_565
F1 Rb1 2.820654 1_554
F1 Rb0 2.820654 1_555
F1 Rb3 2.975705 1_455
F1 Rb2 2.975705 1_564
F2 Rb2 2.820654 1_555
F2 Rb3 2.820654 1_555
F2 Rb0 2.975705 1_545
F2 Rb1 2.975705 1_655
F3 Rb2 2.820654 1_554
F3 Rb3 2.820654 1_555
F3 Rb0 2.975705 1_545
F3 Rb1 2.975705 1_654
F4 Rb2 2.998485 1_555
F4 Rb1 2.998485 1_555
F4 Rb0 3.241572 1_545
F4 Rb3 3.241572 1_455
F5 Rb0 2.998485 1_555
F5 Rb3 2.998485 1_555
F5 Rb1 3.241572 1_655
F5 Rb2 3.241572 1_565
F6 Rb1 2.998485 1_554
F6 Rb2 2.998485 1_554
F6 Rb3 3.241572 1_455
F6 Rb0 3.241572 1_545
F7 Rb0 2.998485 1_556
F7 Rb3 2.998485 1_556
F7 Rb1 3.241572 1_655
F7 Rb2 3.241572 1_565
F8 Rb3 3.091477 1_555
F8 Rb0 3.091477 1_555
F8 Rb3 3.317468 1_565
F8 Rb0 3.317468 1_655
F9 Rb2 3.091477 1_555
F9 Rb1 3.091477 1_555
F9 Rb2 3.317468 1_455
F9 Rb1 3.317468 1_545
