# generated using pymatgen
data_CsEuTa6Cl18
_symmetry_space_group_name_H-M   'P 1'
_cell_length_a   9.46518656
_cell_length_b   9.46518656
_cell_length_c   17.62161788
_cell_angle_alpha   90.00000000
_cell_angle_beta   90.00000000
_cell_angle_gamma   119.99999901
_symmetry_Int_Tables_number   1
_chemical_formula_structural   CsEuTa6Cl18
_chemical_formula_sum   'Cs2 Eu2 Ta12 Cl36'
_cell_volume   1367.20857030
_cell_formula_units_Z   2
loop_
 _symmetry_equiv_pos_site_id
 _symmetry_equiv_pos_as_xyz
  1  'x, y, z'
loop_
 _atom_site_type_symbol
 _atom_site_label
 _atom_site_symmetry_multiplicity
 _atom_site_fract_x
 _atom_site_fract_y
 _atom_site_fract_z
 _atom_site_occupancy
  Cs  Cs0  1  0.33333300  0.66666700  0.75000000  1
  Cs  Cs1  1  0.66666700  0.33333300  0.25000000  1
  Eu  Eu0  1  0.66666700  0.33333300  0.75000000  1
  Eu  Eu1  1  0.33333300  0.66666700  0.25000000  1
  Ta  Ta0  1  0.96263137  0.15672969  0.93249381  1
  Ta  Ta1  1  0.03736863  0.84327031  0.06750619  1
  Ta  Ta2  1  0.19409832  0.03736863  0.93249381  1
  Ta  Ta3  1  0.19409832  0.15672969  0.56750619  1
  Ta  Ta4  1  0.80590168  0.96263137  0.06750619  1
  Ta  Ta5  1  0.80590168  0.84327031  0.43249381  1
  Ta  Ta6  1  0.84327031  0.80590168  0.93249381  1
  Ta  Ta7  1  0.84327031  0.03736863  0.56750619  1
  Ta  Ta8  1  0.15672969  0.19409832  0.06750619  1
  Ta  Ta9  1  0.15672969  0.96263137  0.43249381  1
  Ta  Ta10  1  0.96263137  0.80590168  0.56750619  1
  Ta  Ta11  1  0.03736863  0.19409832  0.43249381  1
  Cl  Cl0  1  0.92681455  0.35999259  0.84478271  1
  Cl  Cl1  1  0.07318545  0.64000741  0.15521729  1
  Cl  Cl2  1  0.43317804  0.07318545  0.84478271  1
  Cl  Cl3  1  0.43317804  0.35999259  0.65521729  1
  Cl  Cl4  1  0.56682196  0.92681455  0.15521729  1
  Cl  Cl5  1  0.56682196  0.64000741  0.34478271  1
  Cl  Cl6  1  0.64000741  0.56682196  0.84478271  1
  Cl  Cl7  1  0.64000741  0.07318545  0.65521729  1
  Cl  Cl8  1  0.35999259  0.43317804  0.15521729  1
  Cl  Cl9  1  0.35999259  0.92681455  0.34478271  1
  Cl  Cl10  1  0.92681455  0.56682196  0.65521729  1
  Cl  Cl11  1  0.07318545  0.43317804  0.34478271  1
  Cl  Cl12  1  0.77148550  0.95656745  0.84143889  1
  Cl  Cl13  1  0.22851450  0.04343255  0.15856111  1
  Cl  Cl14  1  0.18508195  0.22851450  0.84143889  1
  Cl  Cl15  1  0.18508195  0.95656745  0.65856111  1
  Cl  Cl16  1  0.81491805  0.77148550  0.15856111  1
  Cl  Cl17  1  0.81491805  0.04343255  0.34143889  1
  Cl  Cl18  1  0.04343255  0.81491805  0.84143889  1
  Cl  Cl19  1  0.04343255  0.22851450  0.65856111  1
  Cl  Cl20  1  0.95656745  0.18508195  0.15856111  1
  Cl  Cl21  1  0.95656745  0.77148550  0.34143889  1
  Cl  Cl22  1  0.77148550  0.81491805  0.65856111  1
  Cl  Cl23  1  0.22851450  0.18508195  0.34143889  1
  Cl  Cl24  1  0.58802202  0.72784859  -0.00002225  1
  Cl  Cl25  1  0.41197798  0.27215141  0.00002225  1
  Cl  Cl26  1  0.13982657  0.41197798  -0.00002225  1
  Cl  Cl27  1  0.13982657  0.72784859  0.50002225  1
  Cl  Cl28  1  0.86017343  0.58802202  0.00002225  1
  Cl  Cl29  1  0.86017343  0.27215141  0.49997775  1
  Cl  Cl30  1  0.27215141  0.86017343  -0.00002225  1
  Cl  Cl31  1  0.27215141  0.41197798  0.50002225  1
  Cl  Cl32  1  0.72784859  0.13982657  0.00002225  1
  Cl  Cl33  1  0.72784859  0.58802202  0.49997775  1
  Cl  Cl34  1  0.58802202  0.86017343  0.50002225  1
  Cl  Cl35  1  0.41197798  0.13982657  0.49997775  1
loop_
_geom_bond_atom_site_label_1
_geom_bond_atom_site_label_2
_geom_bond_distance
_geom_bond_site_symmetry_2
Cl0 Ta0 2.618693 1_555
Cl0 Eu0 2.880126 1_555
Cl0 Cs0 3.853804 1_655
Cl1 Ta1 2.618693 1_555
Cl1 Eu1 2.880126 1_555
Cl1 Cs1 3.853804 1_455
Cl2 Ta2 2.618693 1_555
Cl2 Eu0 2.880129 1_555
Cl2 Cs0 3.853801 1_545
Cl3 Ta3 2.618693 1_555
Cl3 Eu0 2.880134 1_555
Cl3 Cs0 3.853810 1_555
Cl4 Ta4 2.618693 1_555
Cl4 Eu1 2.880129 1_555
Cl4 Cs1 3.853801 1_565
Cl5 Ta5 2.618693 1_555
Cl5 Eu1 2.880134 1_555
Cl5 Cs1 3.853810 1_555
Cl6 Ta6 2.618693 1_555
Cl6 Eu0 2.880134 1_555
Cl6 Cs0 3.853810 1_555
Cl7 Ta7 2.618693 1_555
Cl7 Eu0 2.880126 1_555
Cl7 Cs0 3.853804 1_545
Cl8 Ta8 2.618693 1_555
Cl8 Eu1 2.880134 1_555
Cl8 Cs1 3.853810 1_555
Cl9 Ta9 2.618693 1_555
Cl9 Eu1 2.880126 1_555
Cl9 Cs1 3.853804 1_565
Cl10 Ta10 2.618693 1_555
Cl10 Eu0 2.880129 1_555
Cl10 Cs0 3.853801 1_655
Cl11 Ta11 2.618693 1_555
Cl11 Eu1 2.880129 1_555
Cl11 Cs1 3.853801 1_455
Cl12 Ta0 2.451436 1_565
Cl12 Ta6 2.457408 1_555
Cl12 Cs0 3.993132 1_555
Cl13 Ta1 2.451436 1_545
Cl13 Ta8 2.457408 1_555
Cl13 Cs1 3.993132 1_555
Cl14 Ta2 2.451436 1_555
Cl14 Ta0 2.457408 1_455
Cl14 Cs0 3.993133 1_555
Cl15 Ta3 2.451436 1_565
Cl15 Ta10 2.457408 1_455
Cl15 Cs0 3.993125 1_555
Cl16 Ta4 2.451436 1_555
Cl16 Ta1 2.457408 1_655
Cl16 Cs1 3.993133 1_555
Cl17 Ta5 2.451436 1_545
Cl17 Ta11 2.457408 1_655
Cl17 Cs1 3.993125 1_555
Cl18 Ta6 2.451436 1_455
Cl18 Ta2 2.457408 1_565
Cl18 Cs0 3.993125 1_555
Cl19 Ta7 2.451436 1_455
Cl19 Ta3 2.457408 1_555
Cl19 Cs0 3.993132 1_555
Cl20 Ta8 2.451436 1_655
Cl20 Ta4 2.457408 1_545
Cl20 Cs1 3.993125 1_555
Cl21 Ta9 2.451436 1_655
Cl21 Ta5 2.457408 1_555
Cl21 Cs1 3.993132 1_555
Cl22 Ta10 2.451436 1_555
Cl22 Ta7 2.457408 1_565
Cl22 Cs0 3.993133 1_555
Cl23 Ta11 2.451436 1_555
Cl23 Ta9 2.457408 1_545
Cl23 Cs1 3.993133 1_555
Cl24 Ta6 2.451934 1_554
Cl24 Ta4 2.454488 1_555
Cl25 Ta8 2.451934 1_555
Cl25 Ta2 2.454488 1_554
Cl26 Ta0 2.451934 1_454
Cl26 Ta8 2.454488 1_555
Cl27 Ta10 2.451934 1_455
Cl27 Ta9 2.454488 1_555
Cl28 Ta1 2.451934 1_655
Cl28 Ta6 2.454488 1_554
Cl29 Ta11 2.451934 1_655
Cl29 Ta7 2.454488 1_555
Cl30 Ta2 2.451934 1_564
Cl30 Ta1 2.454488 1_555
Cl31 Ta3 2.451934 1_555
Cl31 Ta11 2.454488 1_555
Cl32 Ta4 2.451934 1_545
Cl32 Ta0 2.454488 1_554
Cl33 Ta5 2.451934 1_555
Cl33 Ta10 2.454488 1_555
Cl34 Ta7 2.451934 1_565
Cl34 Ta5 2.454488 1_555
Cl35 Ta9 2.451934 1_545
Cl35 Ta3 2.454488 1_555
