# generated using pymatgen
data_BaSrNdWO6
_symmetry_space_group_name_H-M   'P 1'
_cell_length_a   8.60060743
_cell_length_b   8.59157873
_cell_length_c   8.55504583
_cell_angle_alpha   90.00000000
_cell_angle_beta   90.00000000
_cell_angle_gamma   90.00000000
_symmetry_Int_Tables_number   1
_chemical_formula_structural   BaSrNdWO6
_chemical_formula_sum   'Ba4 Sr4 Nd4 W4 O24'
_cell_volume   632.15625509
_cell_formula_units_Z   4
loop_
 _symmetry_equiv_pos_site_id
 _symmetry_equiv_pos_as_xyz
  1  'x, y, z'
loop_
 _atom_site_type_symbol
 _atom_site_label
 _atom_site_symmetry_multiplicity
 _atom_site_fract_x
 _atom_site_fract_y
 _atom_site_fract_z
 _atom_site_occupancy
  Ba  Ba0  1  -0.00000000  -0.00000000  0.00000000  1
  Ba  Ba1  1  0.50000000  0.50000000  0.50000000  1
  Ba  Ba2  1  0.50000000  -0.00000000  0.00000000  1
  Ba  Ba3  1  -0.00000000  -0.00000000  0.50000000  1
  Sr  Sr0  1  -0.00000000  0.50000000  0.50000000  1
  Sr  Sr1  1  0.50000000  -0.00000000  0.50000000  1
  Sr  Sr2  1  0.50000000  0.50000000  0.00000000  1
  Sr  Sr3  1  -0.00000000  0.50000000  0.00000000  1
  Nd  Nd0  1  0.74939866  0.74748020  0.74945119  1
  Nd  Nd1  1  0.25060134  0.25251980  0.74945119  1
  Nd  Nd2  1  0.25060134  0.74748020  0.25054881  1
  Nd  Nd3  1  0.74939866  0.25251980  0.25054881  1
  W  W0  1  0.24966215  0.25334389  0.25057829  1
  W  W1  1  0.75033785  0.74665611  0.25057829  1
  W  W2  1  0.75033785  0.25334389  0.74942171  1
  W  W3  1  0.24966215  0.74665611  0.74942171  1
  O  O0  1  0.01723560  0.22578327  0.27934029  1
  O  O1  1  0.98276440  0.77421673  0.27934029  1
  O  O2  1  0.98276440  0.22578327  0.72065971  1
  O  O3  1  0.01723560  0.77421673  0.72065971  1
  O  O4  1  0.27662472  0.02043454  0.22398664  1
  O  O5  1  0.27662472  0.97956546  0.77601336  1
  O  O6  1  0.72337528  0.97956546  0.22398664  1
  O  O7  1  0.72337528  0.02043454  0.77601336  1
  O  O8  1  0.21684221  0.28844780  0.02020228  1
  O  O9  1  0.78315779  0.28844780  0.97979772  1
  O  O10  1  0.21684221  0.71155220  0.97979772  1
  O  O11  1  0.78315779  0.71155220  0.02020228  1
  O  O12  1  0.48121950  0.28892586  0.21227149  1
  O  O13  1  0.51878050  0.71107414  0.21227149  1
  O  O14  1  0.51878050  0.28892586  0.78772851  1
  O  O15  1  0.48121950  0.71107414  0.78772851  1
  O  O16  1  0.21410251  0.48153127  0.28928911  1
  O  O17  1  0.21410251  0.51846873  0.71071089  1
  O  O18  1  0.78589749  0.51846873  0.28928911  1
  O  O19  1  0.78589749  0.48153127  0.71071089  1
  O  O20  1  0.28862111  0.21525279  0.47946380  1
  O  O21  1  0.71137889  0.21525279  0.52053620  1
  O  O22  1  0.28862111  0.78474721  0.52053620  1
  O  O23  1  0.71137889  0.78474721  0.47946380  1
loop_
_geom_bond_atom_site_label_1
_geom_bond_atom_site_label_2
_geom_bond_distance
_geom_bond_site_symmetry_2
Ba0 O5 3.059905 1_544
Ba0 O7 3.059905 1_454
Ba0 O6 3.059905 1_445
Ba0 O4 3.059905 1_555
Ba0 O1 3.081546 1_445
Ba0 O0 3.081546 1_555
Ba0 O2 3.081546 1_454
Ba0 O3 3.081546 1_544
Ba0 O9 3.106378 1_454
Ba0 O8 3.106378 1_555
Ba0 O10 3.106378 1_544
Ba0 O11 3.106378 1_445
Ba1 O18 3.053006 1_555
Ba1 O19 3.053006 1_555
Ba1 O16 3.053006 1_555
Ba1 O17 3.053006 1_555
Ba1 O20 3.053024 1_555
Ba1 O23 3.053024 1_555
Ba1 O21 3.053024 1_555
Ba1 O22 3.053024 1_555
Ba1 O14 3.061676 1_555
Ba1 O15 3.061676 1_555
Ba1 O12 3.061676 1_555
Ba1 O13 3.061676 1_555
Ba2 O6 2.719113 1_545
Ba2 O4 2.719113 1_555
Ba2 O7 2.719113 1_554
Ba2 O5 2.719113 1_544
Ba2 O15 3.079915 1_544
Ba2 O13 3.079915 1_545
Ba2 O12 3.079915 1_555
Ba2 O14 3.079915 1_554
Ba3 O3 2.710821 1_545
Ba3 O1 2.710821 1_445
Ba3 O0 2.710821 1_555
Ba3 O2 2.710821 1_455
Ba3 O21 3.100468 1_455
Ba3 O20 3.100468 1_555
Ba3 O22 3.100468 1_545
Ba3 O23 3.100468 1_445
Ba3 O5 3.356621 1_545
Ba3 O7 3.356621 1_455
Ba3 O6 3.356621 1_445
Ba3 O4 3.356621 1_555
Nd0 O3 2.328052 1_655
Nd0 O19 2.330075 1_555
Nd0 O15 2.350538 1_555
Nd0 O23 2.354656 1_555
Nd0 O11 2.354735 1_556
Nd0 O7 2.366700 1_565
Nd1 O2 2.328052 1_455
Nd1 O17 2.330075 1_555
Nd1 O14 2.350538 1_555
Nd1 O20 2.354656 1_555
Nd1 O8 2.354735 1_556
Nd1 O5 2.366700 1_545
Nd2 O1 2.328052 1_455
Nd2 O16 2.330075 1_555
Nd2 O13 2.350538 1_555
Nd2 O22 2.354656 1_555
Nd2 O10 2.354735 1_554
Nd2 O4 2.366700 1_565
Nd3 O0 2.328052 1_655
Nd3 O18 2.330075 1_555
Nd3 O12 2.350538 1_555
Nd3 O21 2.354656 1_555
Nd3 O9 2.354735 1_554
Nd3 O6 2.366700 1_545
O0 W0 2.027968 1_555
O0 Sr0 3.022600 1_555
O1 W1 2.027968 1_555
O1 Sr0 3.022600 1_655
O2 W2 2.027968 1_555
O2 Sr0 3.022600 1_655
O3 W3 2.027968 1_555
O3 Sr0 3.022600 1_555
O4 W0 2.027256 1_555
O4 Sr1 3.049174 1_555
O5 W3 2.027256 1_555
O5 Sr1 3.049174 1_565
O6 W1 2.027256 1_555
O6 Sr1 3.049174 1_565
O7 W2 2.027256 1_555
O7 Sr1 3.049174 1_555
O8 W0 2.013702 1_555
O8 Sr3 2.609895 1_555
O8 Sr2 3.043723 1_555
O9 W2 2.013702 1_555
O9 Sr3 2.609895 1_656
O9 Sr2 3.043723 1_556
O10 W3 2.013702 1_555
O10 Sr3 2.609895 1_556
O10 Sr2 3.043723 1_556
O11 W1 2.013702 1_555
O11 Sr3 2.609895 1_655
O11 Sr2 3.043723 1_555
O12 W0 2.041338 1_555
O12 Sr2 2.571489 1_555
O13 W1 2.041338 1_555
O13 Sr2 2.571489 1_555
O14 W2 2.041338 1_555
O14 Sr2 2.571489 1_556
O15 W3 2.041338 1_555
O15 Sr2 2.571489 1_556
O16 W0 2.011649 1_555
O16 Sr0 2.581761 1_555
O16 Sr3 3.088853 1_555
O17 W3 2.011649 1_555
O17 Sr0 2.581761 1_555
O17 Sr3 3.088853 1_556
O18 W1 2.011649 1_555
O18 Sr0 2.581761 1_655
O18 Sr3 3.088853 1_655
O19 W2 2.011649 1_555
O19 Sr0 2.581761 1_655
O19 Sr3 3.088853 1_656
O20 W0 2.013363 1_555
O20 Sr1 2.599246 1_555
O21 W2 2.013363 1_555
O21 Sr1 2.599246 1_555
O22 W3 2.013363 1_555
O22 Sr1 2.599246 1_565
O23 W1 2.013363 1_555
O23 Sr1 2.599246 1_565
