# generated using pymatgen
data_U3Ga2Si3
_symmetry_space_group_name_H-M   'P 1'
_cell_length_a   7.66831291
_cell_length_b   7.54099054
_cell_length_c   7.35388262
_cell_angle_alpha   61.95699475
_cell_angle_beta   60.22020161
_cell_angle_gamma   57.82280364
_symmetry_Int_Tables_number   1
_chemical_formula_structural   U3Ga2Si3
_chemical_formula_sum   'U6 Ga4 Si6'
_cell_volume   299.91264913
_cell_formula_units_Z   2
loop_
 _symmetry_equiv_pos_site_id
 _symmetry_equiv_pos_as_xyz
  1  'x, y, z'
loop_
 _atom_site_type_symbol
 _atom_site_label
 _atom_site_symmetry_multiplicity
 _atom_site_fract_x
 _atom_site_fract_y
 _atom_site_fract_z
 _atom_site_occupancy
  U  U0  1  0.14997600  0.55176600  0.85002400  1
  U  U1  1  0.44823400  0.85002400  0.55176600  1
  U  U2  1  0.02551900  0.97448100  0.66273600  1
  U  U3  1  0.33726400  0.66273600  0.97448100  1
  U  U4  1  0.81584700  0.48805400  0.18415300  1
  U  U5  1  0.51194600  0.18415300  0.48805400  1
  Ga  Ga0  1  0.50740600  0.99259400  0.99259400  1
  Ga  Ga1  1  0.00740600  0.49259400  0.49259400  1
  Ga  Ga2  1  0.01100100  0.98899900  0.26458900  1
  Ga  Ga3  1  0.73541100  0.26458900  0.98899900  1
  Si  Si0  1  0.33204500  0.66795500  0.37251400  1
  Si  Si1  1  0.62748600  0.37251400  0.66795500  1
  Si  Si2  1  0.14098800  0.16665300  0.85901200  1
  Si  Si3  1  0.83334700  0.85901200  0.16665300  1
  Si  Si4  1  0.25806300  0.24193700  0.24193700  1
  Si  Si5  1  0.75806300  0.74193700  0.74193700  1
loop_
_geom_bond_atom_site_label_1
_geom_bond_atom_site_label_2
_geom_bond_distance
_geom_bond_site_symmetry_2
U0 U4 2.603967 1_456
U0 U2 2.628013 1_555
U0 U3 2.628013 1_555
U1 U5 2.603967 1_565
U1 U2 2.628013 1_555
U1 U3 2.628013 1_555
Ga0 Si4 2.546306 1_566
Ga0 Si5 2.559725 1_555
Ga0 Si3 2.860804 1_556
Ga0 Si2 2.860804 1_565
Ga0 Si1 2.991722 1_565
Ga0 Si0 2.991722 1_556
Ga1 Si5 2.546306 1_455
Ga1 Si4 2.559725 1_555
Ga1 Si3 2.860804 1_455
Ga1 Si2 2.860804 1_555
Ga1 Si0 2.991722 1_555
Ga1 Si1 2.991722 1_455
Ga2 Si0 2.517547 1_555
Ga2 Si3 2.529056 1_455
Ga2 Si2 2.529056 1_564
Ga2 Ga3 2.916989 1_464
Ga2 U2 2.933690 1_555
Ga2 U4 3.088710 1_465
Ga2 U5 3.088710 1_465
Ga2 U3 3.153021 1_554
Ga3 Si1 2.517547 1_555
Ga3 Si3 2.529056 1_546
Ga3 Si2 2.529056 1_655
Ga3 U3 2.933690 1_555
Ga3 U4 3.088710 1_556
Ga3 U5 3.088710 1_556
Ga3 U2 3.153021 1_645
Si0 U3 2.925965 1_554
Si0 U0 2.930506 1_555
Si0 U1 2.930506 1_555
Si0 U5 2.970611 1_555
Si0 U4 2.970611 1_555
Si0 U2 3.048235 1_555
Si1 U2 2.925965 1_645
Si1 U0 2.930506 1_555
Si1 U1 2.930506 1_555
Si1 U5 2.970611 1_555
Si1 U4 2.970611 1_555
Si1 U3 3.048235 1_555
Si2 U5 2.811430 1_555
Si2 U0 2.910547 1_555
Si2 U3 3.093618 1_545
Si2 U2 3.093618 1_545
Si2 U1 3.185951 1_545
Si2 U4 3.301329 1_456
Si3 U4 2.811430 1_555
Si3 U1 2.910547 1_555
Si3 U2 3.093618 1_654
Si3 U3 3.093618 1_654
Si3 U0 3.185951 1_654
Si3 U5 3.301329 1_565
Si4 U1 2.903623 1_545
Si4 U0 2.903623 1_554
Si4 U5 3.018438 1_555
Si4 U4 3.018438 1_455
Si4 U2 3.050311 1_545
Si4 U3 3.050311 1_554
Si5 U1 2.903623 1_555
Si5 U0 2.903623 1_655
Si5 U5 3.018438 1_565
Si5 U4 3.018438 1_556
Si5 U3 3.050311 1_555
Si5 U2 3.050311 1_655
