# generated using pymatgen
data_As9Pb5S18
_symmetry_space_group_name_H-M   'P 1'
_cell_length_a   7.91519600
_cell_length_b   8.52217869
_cell_length_c   23.21283692
_cell_angle_alpha   97.08347761
_cell_angle_beta   90.12414224
_cell_angle_gamma   90.48688203
_symmetry_Int_Tables_number   1
_chemical_formula_structural   As9Pb5S18
_chemical_formula_sum   'As18 Pb10 S36'
_cell_volume   1553.80001406
_cell_formula_units_Z   2
loop_
 _symmetry_equiv_pos_site_id
 _symmetry_equiv_pos_as_xyz
  1  'x, y, z'
loop_
 _atom_site_type_symbol
 _atom_site_label
 _atom_site_symmetry_multiplicity
 _atom_site_fract_x
 _atom_site_fract_y
 _atom_site_fract_z
 _atom_site_occupancy
  As  As0  1  0.62675200  0.06787400  0.61261700  1
  As  As1  1  0.37324800  0.93212600  0.38738300  1
  As  As2  1  0.12785400  0.06416700  0.61412800  1
  As  As3  1  0.87214600  0.93583300  0.38587200  1
  As  As4  1  0.63160100  0.62471600  0.82014400  1
  As  As5  1  0.36839900  0.37528400  0.17985600  1
  As  As6  1  0.16448700  0.61501200  0.82648000  1
  As  As7  1  0.83551300  0.38498800  0.17352000  1
  As  As8  1  0.65920400  0.32393400  0.93265200  1
  As  As9  1  0.34079600  0.67606600  0.06734800  1
  As  As10  1  0.12791000  0.34239600  0.93247500  1
  As  As11  1  0.87209000  0.65760400  0.06752500  1
  As  As12  1  0.36503900  0.95342800  0.94243400  1
  As  As13  1  0.63496100  0.04657200  0.05756600  1
  As  As14  1  0.12684300  0.69429900  0.50786800  1
  As  As15  1  0.87315700  0.30570100  0.49213200  1
  As  As16  1  0.62863100  0.69389400  0.50805400  1
  As  As17  1  0.37136900  0.30610600  0.49194600  1
  Pb  Pb0  1  0.87503500  0.21255400  0.76619000  1
  Pb  Pb1  1  0.12496500  0.78744600  0.23381000  1
  Pb  Pb2  1  0.37637300  0.20606700  0.76608000  1
  Pb  Pb3  1  0.62362700  0.79393300  0.23392000  1
  Pb  Pb4  1  0.87407600  0.67871500  0.65502700  1
  Pb  Pb5  1  0.12592400  0.32128500  0.34497300  1
  Pb  Pb6  1  0.37560600  0.67472100  0.65251200  1
  Pb  Pb7  1  0.62439400  0.32527900  0.34748800  1
  Pb  Pb8  1  0.87462500  0.91603500  0.91669900  1
  Pb  Pb9  1  0.12537500  0.08396500  0.08330100  1
  S  S0  1  0.62654900  0.93062500  0.68952900  1
  S  S1  1  0.37345100  0.06937500  0.31047100  1
  S  S2  1  0.12721900  0.92626600  0.69173900  1
  S  S3  1  0.87278100  0.07373400  0.30826100  1
  S  S4  1  0.59862000  0.82239100  0.99550500  1
  S  S5  1  0.40138000  0.17760900  0.00449500  1
  S  S6  1  0.15911200  0.81463900  0.99227200  1
  S  S7  1  0.84088800  0.18536100  0.00772800  1
  S  S8  1  0.84077600  0.77396900  0.79206800  1
  S  S9  1  0.15922400  0.22603100  0.20793200  1
  S  S10  1  0.38508300  0.76552600  0.79577300  1
  S  S11  1  0.61491700  0.23447400  0.20422700  1
  S  S12  1  0.87731600  0.22827800  0.64124800  1
  S  S13  1  0.12268400  0.77172200  0.35875200  1
  S  S14  1  0.37388200  0.22782200  0.64147300  1
  S  S15  1  0.62611800  0.77217800  0.35852700  1
  S  S16  1  0.62463700  0.43334400  0.74161700  1
  S  S17  1  0.37536300  0.56665600  0.25838300  1
  S  S18  1  0.13269800  0.43931300  0.74510900  1
  S  S19  1  0.86730200  0.56068700  0.25489100  1
  S  S20  1  0.89255500  0.45459800  0.89231400  1
  S  S21  1  0.10744500  0.54540200  0.10768600  1
  S  S22  1  0.34158400  0.46898600  0.88663600  1
  S  S23  1  0.65841600  0.53101400  0.11336400  1
  S  S24  1  0.63200300  0.11532500  0.86659500  1
  S  S25  1  0.36799700  0.88467500  0.13340500  1
  S  S26  1  0.14185200  0.10536700  0.87626300  1
  S  S27  1  0.85814800  0.89463300  0.12373700  1
  S  S28  1  0.87435800  0.84600800  0.55046300  1
  S  S29  1  0.12564200  0.15399200  0.44953700  1
  S  S30  1  0.37399100  0.84564200  0.55061800  1
  S  S31  1  0.62600900  0.15435800  0.44938200  1
  S  S32  1  0.62668900  0.50824300  0.56769800  1
  S  S33  1  0.37331100  0.49175700  0.43230200  1
  S  S34  1  0.12634700  0.50775400  0.56709100  1
  S  S35  1  0.87365300  0.49224600  0.43290900  1
loop_
_geom_bond_atom_site_label_1
_geom_bond_atom_site_label_2
_geom_bond_distance
_geom_bond_site_symmetry_2
As0 S0 2.251794 1_545
As0 S12 2.442918 1_555
As0 S14 2.477859 1_555
As0 S28 2.983301 1_545
As0 S30 2.985228 1_545
As1 S1 2.251794 1_565
As1 S13 2.442918 1_555
As1 S15 2.477859 1_555
As1 S29 2.983301 1_565
As1 S31 2.985228 1_565
As2 S2 2.269126 1_545
As2 S14 2.422901 1_555
As2 S12 2.473916 1_455
As2 S30 2.972230 1_545
As2 S28 2.985406 1_445
As3 S3 2.269126 1_565
As3 S15 2.422901 1_555
As3 S13 2.473916 1_655
As3 S31 2.972230 1_565
As3 S29 2.985406 1_665
As4 S8 2.226471 1_555
As4 S16 2.291387 1_555
As4 S10 2.402047 1_555
As5 S9 2.226471 1_555
As5 S17 2.291387 1_555
As5 S11 2.402047 1_555
As6 S18 2.273125 1_555
As6 S10 2.322708 1_555
As6 S22 2.431720 1_555
As7 S19 2.273125 1_555
As7 S11 2.322708 1_555
As7 S23 2.431720 1_555
As8 S24 2.208598 1_555
As8 S20 2.399566 1_555
As8 S7 2.650536 1_556
As9 S25 2.208598 1_555
As9 S21 2.399566 1_555
As9 S6 2.650536 1_554
As10 S26 2.269261 1_555
As10 S22 2.327310 1_555
As10 S20 2.344429 1_455
As11 S27 2.269261 1_555
As11 S23 2.327310 1_555
As11 S21 2.344429 1_655
As12 S5 2.262347 1_566
As12 S6 2.388929 1_555
As12 S4 2.558795 1_555
As12 S26 2.770270 1_565
As13 S4 2.262347 1_544
As13 S7 2.388929 1_555
As13 S5 2.558795 1_555
As13 S27 2.770270 1_545
As14 S34 2.226254 1_555
As14 S30 2.471463 1_555
As14 S28 2.525919 1_455
As15 S35 2.226254 1_555
As15 S31 2.471463 1_555
As15 S29 2.525919 1_655
As16 S32 2.227155 1_555
As16 S28 2.463059 1_555
As16 S30 2.539443 1_555
As17 S33 2.227155 1_555
As17 S29 2.463059 1_555
As17 S31 2.539443 1_555
Pb0 S16 2.849059 1_555
Pb0 S18 2.881646 1_655
Pb0 S12 2.919900 1_555
Pb0 S24 3.207448 1_555
Pb1 S17 2.849059 1_555
Pb1 S19 2.881646 1_455
Pb1 S13 2.919900 1_555
Pb1 S25 3.207448 1_555
Pb2 S16 2.854276 1_555
Pb2 S18 2.864949 1_555
Pb2 S14 2.921179 1_555
Pb3 S17 2.854276 1_555
Pb3 S19 2.864949 1_555
Pb3 S15 2.921179 1_555
Pb4 S2 2.944321 1_655
Pb4 S0 2.956867 1_555
Pb4 S28 2.962684 1_555
Pb4 S32 3.043402 1_555
Pb4 S34 3.100023 1_655
Pb4 S8 3.196607 1_555
Pb5 S3 2.944321 1_455
Pb5 S1 2.956867 1_555
Pb5 S29 2.962684 1_555
Pb5 S33 3.043402 1_555
Pb5 S35 3.100023 1_455
Pb5 S9 3.196607 1_555
Pb6 S30 2.926807 1_555
Pb6 S2 2.981255 1_555
Pb6 S0 2.982708 1_555
Pb6 S34 3.014698 1_555
Pb6 S32 3.035550 1_555
Pb7 S31 2.926807 1_555
Pb7 S3 2.981255 1_555
Pb7 S1 2.982708 1_555
Pb7 S35 3.014698 1_555
Pb7 S33 3.035550 1_555
Pb8 S26 2.877931 1_665
Pb8 S24 2.908277 1_565
Pb8 S7 2.936173 1_566
Pb8 S8 3.005753 1_555
Pb8 S4 3.017222 1_555
Pb8 S6 3.047035 1_655
Pb9 S27 2.877931 1_445
Pb9 S25 2.908277 1_545
Pb9 S6 2.936173 1_544
Pb9 S9 3.005753 1_555
Pb9 S5 3.017222 1_555
Pb9 S7 3.047035 1_455
