# generated using pymatgen
data_NbB4Mo3
_symmetry_space_group_name_H-M   'P 1'
_cell_length_a   4.57178059
_cell_length_b   4.57178059
_cell_length_c   6.20367460
_cell_angle_alpha   90.00000000
_cell_angle_beta   90.00000000
_cell_angle_gamma   139.12458206
_symmetry_Int_Tables_number   1
_chemical_formula_structural   NbB4Mo3
_chemical_formula_sum   'Nb1 B4 Mo3'
_cell_volume   84.85432541
_cell_formula_units_Z   1
loop_
 _symmetry_equiv_pos_site_id
 _symmetry_equiv_pos_as_xyz
  1  'x, y, z'
loop_
 _atom_site_type_symbol
 _atom_site_label
 _atom_site_symmetry_multiplicity
 _atom_site_fract_x
 _atom_site_fract_y
 _atom_site_fract_z
 _atom_site_occupancy
  Nb  Nb0  1  0.85321388  0.14678612  0.00000000  1
  B  B0  1  0.55983204  0.44016796  0.00000000  1
  B  B1  1  0.55995624  0.44004376  0.50000000  1
  B  B2  1  0.44176095  0.55823905  0.25279493  1
  B  B3  1  0.44176095  0.55823905  0.74720507  1
  Mo  Mo0  1  0.85558182  0.14441818  0.50000000  1
  Mo  Mo1  1  0.14394656  0.85605344  0.25405859  1
  Mo  Mo2  1  0.14394656  0.85605344  0.74594141  1
loop_
_geom_bond_atom_site_label_1
_geom_bond_atom_site_label_2
_geom_bond_distance
_geom_bond_site_symmetry_2
B0 B2 1.866235 1_555
B0 B3 1.866235 1_554
B0 Mo2 2.356272 1_654
B0 Mo1 2.356272 1_545
B0 Mo2 2.356272 1_544
B0 Mo1 2.356272 1_655
B0 Nb0 2.383803 1_455
B0 Nb0 2.383803 1_565
B0 Nb0 2.513694 1_555
B1 B3 1.837776 1_555
B1 B2 1.837776 1_555
B1 Mo1 2.322561 1_545
B1 Mo2 2.322561 1_545
B1 Mo1 2.322561 1_655
B1 Mo2 2.322561 1_655
B1 Mo0 2.369561 1_455
B1 Mo0 2.369561 1_565
B1 Mo0 2.532919 1_555
B2 Mo0 2.333584 1_455
B2 Mo0 2.333584 1_565
B2 Mo1 2.355749 1_545
B2 Mo1 2.355749 1_655
B2 Nb0 2.362954 1_565
B2 Nb0 2.362954 1_455
B2 Mo1 2.551684 1_555
B3 Mo0 2.333584 1_455
B3 Mo0 2.333584 1_565
B3 Mo2 2.355749 1_545
B3 Mo2 2.355749 1_655
B3 Nb0 2.362954 1_566
B3 Nb0 2.362954 1_456
B3 Mo2 2.551684 1_555
Mo1 Nb0 2.871842 1_565
Mo1 Nb0 2.871842 1_455
Mo2 Nb0 2.871842 1_566
Mo2 Nb0 2.871842 1_456
