# generated using pymatgen
data_K3La(PS4)2
_symmetry_space_group_name_H-M   'P 1'
_cell_length_a   17.38061200
_cell_length_b   9.29248400
_cell_length_c   9.71115890
_cell_angle_alpha   89.40541743
_cell_angle_beta   90.00000000
_cell_angle_gamma   90.00000000
_symmetry_Int_Tables_number   1
_chemical_formula_structural   K3La(PS4)2
_chemical_formula_sum   'K12 La4 P8 S32'
_cell_volume   1568.35568188
_cell_formula_units_Z   4
loop_
 _symmetry_equiv_pos_site_id
 _symmetry_equiv_pos_as_xyz
  1  'x, y, z'
loop_
 _atom_site_type_symbol
 _atom_site_label
 _atom_site_symmetry_multiplicity
 _atom_site_fract_x
 _atom_site_fract_y
 _atom_site_fract_z
 _atom_site_occupancy
  K  K0  1  0.52844400  0.26874200  0.01194700  1
  K  K1  1  0.02844400  0.73125800  0.48805300  1
  K  K2  1  0.47155600  0.73125800  0.98805300  1
  K  K3  1  0.97155600  0.26874200  0.51194700  1
  K  K4  1  0.78601100  0.37874400  0.12811200  1
  K  K5  1  0.28601100  0.62125600  0.37188800  1
  K  K6  1  0.21398900  0.62125600  0.87188800  1
  K  K7  1  0.71398900  0.37874400  0.62811200  1
  K  K8  1  0.29229000  0.12876800  0.88209300  1
  K  K9  1  0.79229000  0.87123200  0.61790700  1
  K  K10  1  0.70771000  0.87123200  0.11790700  1
  K  K11  1  0.20771000  0.12876800  0.38209300  1
  La  La0  1  0.48676100  0.22719400  0.47272900  1
  La  La1  1  0.98676100  0.77280600  0.02727100  1
  La  La2  1  0.51323900  0.77280600  0.52727100  1
  La  La3  1  0.01323900  0.22719400  0.97272900  1
  P  P0  1  0.39867800  0.99595200  0.25712200  1
  P  P1  1  0.89867800  0.00404800  0.24287800  1
  P  P2  1  0.60132200  0.00404800  0.74287800  1
  P  P3  1  0.10132200  0.99595200  0.75712200  1
  P  P4  1  0.59895900  0.52388300  0.28058100  1
  P  P5  1  0.09895900  0.47611700  0.21941900  1
  P  P6  1  0.40104100  0.47611700  0.71941900  1
  P  P7  1  0.90104100  0.52388300  0.78058100  1
  S  S0  1  0.34406900  0.33537300  0.59320100  1
  S  S1  1  0.84406900  0.66462700  0.90679900  1
  S  S2  1  0.65593100  0.66462700  0.40679900  1
  S  S3  1  0.15593100  0.33537300  0.09320100  1
  S  S4  1  0.62523200  0.56326900  0.08077000  1
  S  S5  1  0.12523200  0.43673100  0.41923000  1
  S  S6  1  0.37476800  0.43673100  0.91923000  1
  S  S7  1  0.87476800  0.56326900  0.58077000  1
  S  S8  1  0.12468900  0.96372700  0.96463800  1
  S  S9  1  0.62468900  0.03627300  0.53536200  1
  S  S10  1  0.87531100  0.03627300  0.03536200  1
  S  S11  1  0.37531100  0.96372700  0.46463800  1
  S  S12  1  0.01515400  0.04861000  0.25121300  1
  S  S13  1  0.51515400  0.95139000  0.24878700  1
  S  S14  1  0.98484600  0.95139000  0.74878700  1
  S  S15  1  0.48484600  0.04861000  0.75121300  1
  S  S16  1  0.01850800  0.53834000  0.81949500  1
  S  S17  1  0.51850800  0.46166000  0.68050500  1
  S  S18  1  0.98149200  0.46166000  0.18050500  1
  S  S19  1  0.48149200  0.53834000  0.31949500  1
  S  S20  1  0.86990100  0.31619100  0.83134500  1
  S  S21  1  0.36990100  0.68380900  0.66865500  1
  S  S22  1  0.13009900  0.68380900  0.16865500  1
  S  S23  1  0.63009900  0.31619100  0.33134500  1
  S  S24  1  0.11509100  0.21238900  0.72384200  1
  S  S25  1  0.61509100  0.78761100  0.77615800  1
  S  S26  1  0.88490900  0.78761100  0.27615800  1
  S  S27  1  0.38490900  0.21238900  0.22384200  1
  S  S28  1  0.17177300  0.87910900  0.63675300  1
  S  S29  1  0.67177300  0.12089100  0.86324700  1
  S  S30  1  0.82822700  0.12089100  0.36324700  1
  S  S31  1  0.32822700  0.87910900  0.13675300  1
loop_
_geom_bond_atom_site_label_1
_geom_bond_atom_site_label_2
_geom_bond_distance
_geom_bond_site_symmetry_2
K0 S29 3.196853 1_554
K0 S6 3.217532 1_554
K0 S27 3.272588 1_555
K0 S4 3.287115 1_555
K0 S15 3.358160 1_554
K0 S23 3.600717 1_555
K0 S17 3.672021 1_554
K0 S13 3.728146 1_545
K1 S28 3.196853 1_555
K1 S7 3.217532 1_455
K1 S26 3.272588 1_455
K1 S5 3.287115 1_555
K1 S14 3.358160 1_455
K1 S22 3.600717 1_555
K1 S16 3.672021 1_555
K1 S12 3.728146 1_565
K2 S31 3.196853 1_556
K2 S4 3.217532 1_556
K2 S25 3.272588 1_555
K2 S6 3.287115 1_555
K2 S13 3.358160 1_556
K2 S21 3.600717 1_555
K2 S19 3.672021 1_556
K2 S15 3.728146 1_565
K3 S30 3.196853 1_555
K3 S5 3.217532 1_655
K3 S24 3.272588 1_655
K3 S7 3.287115 1_555
K3 S12 3.358160 1_655
K3 S20 3.600717 1_555
K3 S18 3.672021 1_555
K3 S14 3.728146 1_545
K4 S20 3.286979 1_554
K4 S4 3.308182 1_555
K4 S30 3.373449 1_555
K4 S23 3.398903 1_555
K4 S18 3.521962 1_555
K4 S1 3.546289 1_554
K4 S10 3.661620 1_555
K5 S21 3.286979 1_555
K5 S5 3.308182 1_555
K5 S31 3.373449 1_555
K5 S22 3.398903 1_555
K5 S19 3.521962 1_555
K5 S0 3.546289 1_555
K5 S11 3.661620 1_555
K6 S22 3.286979 1_556
K6 S6 3.308182 1_555
K6 S28 3.373449 1_555
K6 S21 3.398903 1_555
K6 S16 3.521962 1_555
K6 S3 3.546289 1_556
K6 S8 3.661620 1_555
K7 S23 3.286979 1_555
K7 S7 3.308182 1_555
K7 S29 3.373449 1_555
K7 S20 3.398903 1_555
K7 S17 3.521962 1_555
K7 S2 3.546289 1_555
K7 S9 3.661620 1_555
K8 S6 3.224286 1_555
K8 S8 3.384484 1_545
K8 S31 3.430624 1_546
K8 S0 3.500676 1_555
K8 S24 3.525069 1_555
K8 S15 3.659315 1_555
K8 S3 3.686115 1_556
K8 S27 3.776638 1_556
K9 S7 3.224286 1_555
K9 S9 3.384484 1_565
K9 S30 3.430624 1_565
K9 S1 3.500676 1_555
K9 S25 3.525069 1_555
K9 S14 3.659315 1_555
K9 S2 3.686115 1_555
K9 S26 3.776638 1_555
K10 S4 3.224286 1_555
K10 S10 3.384484 1_565
K10 S29 3.430624 1_564
K10 S2 3.500676 1_555
K10 S26 3.525069 1_555
K10 S13 3.659315 1_555
K10 S1 3.686115 1_554
K10 S25 3.776638 1_554
K11 S5 3.224286 1_555
K11 S11 3.384484 1_545
K11 S28 3.430624 1_545
K11 S3 3.500676 1_555
K11 S27 3.525069 1_555
K11 S12 3.659315 1_555
K11 S0 3.686115 1_555
K11 S24 3.776638 1_555
La0 S0 2.924795 1_555
La0 S23 2.958393 1_555
La0 S27 3.000235 1_555
La0 S17 3.035465 1_555
La0 S9 3.040068 1_555
La0 S11 3.123523 1_545
La0 S15 3.158427 1_555
La0 S19 3.239321 1_555
La0 S13 3.414259 1_545
La1 S1 2.924795 1_554
La1 S22 2.958393 1_655
La1 S26 3.000235 1_555
La1 S16 3.035465 1_654
La1 S8 3.040068 1_654
La1 S10 3.123523 1_565
La1 S14 3.158427 1_554
La1 S18 3.239321 1_555
La1 S12 3.414259 1_665
La2 S2 2.924795 1_555
La2 S21 2.958393 1_555
La2 S25 3.000235 1_555
La2 S19 3.035465 1_555
La2 S11 3.040068 1_555
La2 S9 3.123523 1_565
La2 S13 3.158427 1_555
La2 S17 3.239321 1_555
La2 S15 3.414259 1_565
La3 S3 2.924795 1_556
La3 S20 2.958393 1_455
La3 S24 3.000235 1_555
La3 S18 3.035465 1_456
La3 S10 3.040068 1_456
La3 S8 3.123523 1_545
La3 S12 3.158427 1_556
La3 S16 3.239321 1_555
La3 S14 3.414259 1_445
P0 S31 2.017661 1_555
P0 S27 2.047756 1_565
P0 S13 2.068094 1_555
P0 S11 2.074417 1_555
P1 S30 2.017661 1_555
P1 S26 2.047756 1_545
P1 S12 2.068094 1_655
P1 S10 2.074417 1_555
P2 S29 2.017661 1_555
P2 S25 2.047756 1_545
P2 S15 2.068094 1_555
P2 S9 2.074417 1_555
P3 S28 2.017661 1_555
P3 S24 2.047756 1_565
P3 S14 2.068094 1_455
P3 S8 2.074417 1_555
P4 S4 2.023085 1_555
P4 S2 2.055890 1_555
P4 S23 2.059372 1_555
P4 S19 2.080922 1_555
P5 S5 2.023085 1_555
P5 S3 2.055890 1_555
P5 S22 2.059372 1_555
P5 S18 2.080922 1_455
P6 S6 2.023085 1_555
P6 S0 2.055890 1_555
P6 S21 2.059372 1_555
P6 S17 2.080922 1_555
P7 S7 2.023085 1_555
P7 S1 2.055890 1_555
P7 S20 2.059372 1_555
P7 S16 2.080922 1_655
