# generated using pymatgen
data_Dy3Y
_symmetry_space_group_name_H-M   'P 1'
_cell_length_a   7.29690746
_cell_length_b   7.29690746
_cell_length_c   5.60996122
_cell_angle_alpha   90.00000000
_cell_angle_beta   90.00000000
_cell_angle_gamma   120.00000472
_symmetry_Int_Tables_number   1
_chemical_formula_structural   Dy3Y
_chemical_formula_sum   'Dy6 Y2'
_cell_volume   258.68315389
_cell_formula_units_Z   2
loop_
 _symmetry_equiv_pos_site_id
 _symmetry_equiv_pos_as_xyz
  1  'x, y, z'
loop_
 _atom_site_type_symbol
 _atom_site_label
 _atom_site_symmetry_multiplicity
 _atom_site_fract_x
 _atom_site_fract_y
 _atom_site_fract_z
 _atom_site_occupancy
  Dy  Dy0  1  0.16618715  0.33237431  0.25000000  1
  Dy  Dy1  1  0.66762569  0.83381285  0.25000000  1
  Dy  Dy2  1  0.16618715  0.83381285  0.25000000  1
  Dy  Dy3  1  0.83381285  0.66762569  0.75000000  1
  Dy  Dy4  1  0.33237431  0.16618715  0.75000000  1
  Dy  Dy5  1  0.83381285  0.16618715  0.75000000  1
  Y  Y0  1  0.33333300  0.66666700  0.75000000  1
  Y  Y1  1  0.66666700  0.33333300  0.25000000  1
loop_
_geom_bond_atom_site_label_1
_geom_bond_atom_site_label_2
_geom_bond_distance
_geom_bond_site_symmetry_2
Dy0 Dy5 3.504211 1_455
Dy0 Dy5 3.504211 1_454
Dy0 Dy4 3.504211 1_554
Dy0 Dy4 3.504211 1_555
Dy0 Y0 3.511490 1_554
Dy0 Y0 3.511490 1_555
Dy0 Dy1 3.637957 1_445
Dy0 Dy2 3.637957 1_545
Dy0 Y1 3.648455 1_455
Dy0 Y1 3.648462 1_555
Dy0 Dy1 3.658950 1_555
Dy0 Dy2 3.658951 1_555
Dy1 Dy5 3.504211 1_565
Dy1 Dy5 3.504211 1_564
Dy1 Dy3 3.504211 1_555
Dy1 Dy3 3.504211 1_554
Dy1 Y0 3.511490 1_554
Dy1 Y0 3.511490 1_555
Dy1 Dy2 3.637957 1_655
Dy1 Y1 3.648455 1_565
Dy1 Y1 3.648462 1_555
Dy1 Dy2 3.658951 1_555
Dy2 Dy4 3.504211 1_564
Dy2 Dy3 3.504211 1_454
Dy2 Dy3 3.504211 1_455
Dy2 Dy4 3.504211 1_565
Dy2 Y0 3.511487 1_555
Dy2 Y0 3.511487 1_554
Dy2 Y1 3.648459 1_455
Dy2 Y1 3.648459 1_565
Dy3 Y1 3.511490 1_556
Dy3 Y1 3.511490 1_555
Dy3 Dy4 3.637957 1_665
Dy3 Dy5 3.637957 1_565
Dy3 Y0 3.648455 1_655
Dy3 Y0 3.648462 1_555
Dy3 Dy4 3.658950 1_555
Dy3 Dy5 3.658951 1_555
Dy4 Y1 3.511490 1_556
Dy4 Y1 3.511490 1_555
Dy4 Dy5 3.637957 1_455
Dy4 Y0 3.648455 1_545
Dy4 Y0 3.648462 1_555
Dy4 Dy5 3.658951 1_555
Dy5 Y1 3.511487 1_556
Dy5 Y1 3.511487 1_555
Dy5 Y0 3.648459 1_655
Dy5 Y0 3.648459 1_545
