# generated using pymatgen
data_Er4CdPd
_symmetry_space_group_name_H-M   'P 1'
_cell_length_a   9.54203224
_cell_length_b   9.54232590
_cell_length_c   9.54211701
_cell_angle_alpha   60.00023059
_cell_angle_beta   59.99959886
_cell_angle_gamma   60.00005718
_symmetry_Int_Tables_number   1
_chemical_formula_structural   Er4CdPd
_chemical_formula_sum   'Er16 Cd4 Pd4'
_cell_volume   614.36220778
_cell_formula_units_Z   4
loop_
 _symmetry_equiv_pos_site_id
 _symmetry_equiv_pos_as_xyz
  1  'x, y, z'
loop_
 _atom_site_type_symbol
 _atom_site_label
 _atom_site_symmetry_multiplicity
 _atom_site_fract_x
 _atom_site_fract_y
 _atom_site_fract_z
 _atom_site_occupancy
  Er  Er0  1  0.35433790  0.35430609  0.35432394  1
  Er  Er1  1  0.35434466  0.35432807  0.93703396  1
  Er  Er2  1  0.35435984  0.93700200  0.35433424  1
  Er  Er3  1  0.93707063  0.35432340  0.35430294  1
  Er  Er4  1  0.81058230  0.18942596  0.18942906  1
  Er  Er5  1  0.18949160  0.81057515  0.81053384  1
  Er  Er6  1  0.18947494  0.81057569  0.18941806  1
  Er  Er7  1  0.81058993  0.18942990  0.81057048  1
  Er  Er8  1  0.18947642  0.18940841  0.81054742  1
  Er  Er9  1  0.81056149  0.81058496  0.18943041  1
  Er  Er10  1  0.93474104  0.56529258  0.56527282  1
  Er  Er11  1  0.56524838  0.93475153  0.93473591  1
  Er  Er12  1  0.56523426  0.93475619  0.56526389  1
  Er  Er13  1  0.93473587  0.56529532  0.93470796  1
  Er  Er14  1  0.56525460  0.56530253  0.93471402  1
  Er  Er15  1  0.93475430  0.93472272  0.56525752  1
  Cd  Cd0  1  0.58199049  0.58207949  0.58208442  1
  Cd  Cd1  1  0.58202977  0.58204737  0.25382558  1
  Cd  Cd2  1  0.58201575  0.25384386  0.58209353  1
  Cd  Cd3  1  0.25364006  0.58205335  0.58209108  1
  Pd  Pd0  1  0.14480363  0.14469662  0.14477050  1
  Pd  Pd1  1  0.14481381  0.14470868  0.56571753  1
  Pd  Pd2  1  0.14477796  0.56575083  0.14473136  1
  Pd  Pd3  1  0.56566838  0.14473730  0.14480650  1
loop_
_geom_bond_atom_site_label_1
_geom_bond_atom_site_label_2
_geom_bond_distance
_geom_bond_site_symmetry_2
Er0 Pd3 2.827769 1_555
Er0 Pd1 2.828004 1_555
Er0 Pd2 2.828205 1_555
Er0 Er12 3.473447 1_545
Er0 Er10 3.473895 1_455
Er0 Er14 3.473929 1_554
Er1 Pd3 2.827819 1_556
Er1 Pd2 2.828003 1_556
Er1 Pd0 2.828349 1_556
Er1 Er14 3.473621 1_555
Er1 Er11 3.473715 1_545
Er1 Er13 3.473954 1_455
Er2 Pd3 2.827477 1_565
Er2 Pd1 2.827797 1_565
Er2 Pd0 2.827984 1_565
Er3 Pd2 2.828096 1_655
Er3 Pd1 2.828238 1_655
Er3 Pd0 2.828265 1_655
Er4 Pd0 2.827739 1_655
Er4 Pd3 2.828042 1_555
Er5 Pd1 2.827238 1_565
Er5 Pd2 2.827621 1_556
Er6 Pd0 2.827131 1_565
Er6 Pd2 2.827713 1_555
Er7 Pd1 2.827816 1_655
Er7 Pd3 2.828124 1_556
Er8 Pd1 2.827588 1_555
Er8 Pd0 2.827796 1_556
Er9 Pd3 2.827587 1_565
Er9 Pd2 2.827742 1_655
Er10 Pd2 3.473961 1_655
Er10 Er3 3.474032 1_555
Er10 Pd1 3.474441 1_655
Er10 Er13 3.525182 1_555
Er10 Er15 3.525213 1_555
Er10 Er14 3.525430 1_555
Er10 Er12 3.525697 1_555
Er10 Er9 3.581379 1_555
Er10 Er6 3.581392 1_655
Er10 Er7 3.581457 1_555
Er10 Er8 3.581482 1_655
Er11 Pd0 3.473133 1_566
Er11 Pd3 3.473576 1_566
Er11 Er2 3.473671 1_556
Er11 Er14 3.525478 1_555
Er11 Er13 3.525570 1_555
Er11 Er12 3.525590 1_555
Er11 Er15 3.525700 1_555
Er11 Er6 3.580775 1_556
Er11 Er8 3.580832 1_565
Er11 Er9 3.581280 1_556
Er11 Er7 3.581416 1_565
Er12 Pd1 3.472958 1_565
Er12 Er2 3.473332 1_555
Er12 Pd3 3.473354 1_565
Er12 Er14 3.525404 1_555
Er12 Er15 3.525782 1_555
Er12 Er5 3.580553 1_555
Er12 Er8 3.580683 1_565
Er12 Er9 3.581249 1_555
Er12 Er4 3.581327 1_565
Er13 Pd2 3.473805 1_656
Er13 Er3 3.473901 1_556
Er13 Pd0 3.474483 1_656
Er13 Er15 3.525280 1_555
Er13 Er14 3.525539 1_555
Er13 Er9 3.581343 1_556
Er13 Er5 3.581517 1_655
Er13 Er4 3.581521 1_556
Er13 Er8 3.581690 1_655
Er14 Pd2 3.473421 1_556
Er14 Pd3 3.474377 1_556
Er14 Er5 3.580722 1_555
Er14 Er6 3.580951 1_556
Er14 Er7 3.581492 1_555
Er14 Er4 3.581610 1_556
Er15 Pd0 3.473510 1_665
Er15 Pd1 3.473694 1_665
Er15 Er2 3.473780 1_655
Er15 Er3 3.473972 1_565
Er15 Er6 3.581186 1_655
Er15 Er4 3.581232 1_565
Er15 Er5 3.581392 1_655
Er15 Er7 3.581439 1_565
Cd0 Cd2 3.131967 1_555
Cd0 Cd1 3.132250 1_555
Cd0 Cd3 3.133223 1_555
Cd0 Er14 3.212907 1_555
Cd0 Er12 3.213158 1_555
Cd0 Er10 3.213660 1_555
Cd0 Er2 3.303785 1_555
Cd0 Er1 3.303924 1_555
Cd0 Er3 3.305005 1_555
Cd0 Er5 3.457659 1_555
Cd0 Er9 3.458853 1_555
Cd0 Er7 3.458912 1_555
Cd1 Cd2 3.132109 1_555
Cd1 Cd3 3.132908 1_555
Cd1 Er14 3.212898 1_554
Cd1 Er11 3.213235 1_554
Cd1 Er13 3.213276 1_554
Cd1 Er0 3.304049 1_555
Cd1 Er2 3.304291 1_555
Cd1 Er3 3.304770 1_555
Cd1 Er6 3.457959 1_555
Cd1 Er4 3.458550 1_555
Cd1 Er9 3.458930 1_555
Cd2 Cd3 3.132630 1_555
Cd2 Er11 3.212910 1_545
Cd2 Er12 3.213211 1_545
Cd2 Er15 3.213512 1_545
Cd2 Er1 3.304003 1_555
Cd2 Er0 3.304257 1_555
Cd2 Er3 3.304880 1_555
Cd2 Er8 3.457925 1_555
Cd2 Er7 3.458666 1_555
Cd2 Er4 3.458906 1_555
Cd3 Er10 3.211158 1_455
Cd3 Er13 3.211900 1_455
Cd3 Er15 3.212160 1_455
Cd3 Er0 3.304016 1_555
Cd3 Er1 3.305036 1_555
Cd3 Er2 3.305203 1_555
Cd3 Er8 3.457851 1_555
Cd3 Er6 3.458023 1_555
Cd3 Er5 3.459155 1_555
