# generated using pymatgen
data_MgFeO2
_symmetry_space_group_name_H-M   'P 1'
_cell_length_a   2.96220107
_cell_length_b   8.24466675
_cell_length_c   8.15663413
_cell_angle_alpha   87.24060207
_cell_angle_beta   79.43178808
_cell_angle_gamma   100.31452013
_symmetry_Int_Tables_number   1
_chemical_formula_structural   MgFeO2
_chemical_formula_sum   'Mg4 Fe4 O8'
_cell_volume   191.98405664
_cell_formula_units_Z   4
loop_
 _symmetry_equiv_pos_site_id
 _symmetry_equiv_pos_as_xyz
  1  'x, y, z'
loop_
 _atom_site_type_symbol
 _atom_site_label
 _atom_site_symmetry_multiplicity
 _atom_site_fract_x
 _atom_site_fract_y
 _atom_site_fract_z
 _atom_site_occupancy
  Mg  Mg0  1  0.38057900  0.05132000  0.31231400  1
  Mg  Mg1  1  0.61645000  0.92855400  0.71582900  1
  Mg  Mg2  1  0.32156400  0.75917800  0.12670500  1
  Mg  Mg3  1  0.67601900  0.22064300  0.90150000  1
  Fe  Fe0  1  0.34249700  0.26324800  0.59062600  1
  Fe  Fe1  1  0.08706200  0.38828600  0.21886000  1
  Fe  Fe2  1  0.90739400  0.59128900  0.80998000  1
  Fe  Fe3  1  0.65127200  0.71679800  0.43751100  1
  O  O0  1  0.12689400  0.81735500  0.57419500  1
  O  O1  1  0.34139400  0.41322800  0.77894900  1
  O  O2  1  0.65292300  0.56655900  0.24929400  1
  O  O3  1  0.87108100  0.16339500  0.45359900  1
  O  O4  1  0.15650400  0.08524900  0.79973000  1
  O  O5  1  0.56344300  0.24600500  0.13802700  1
  O  O6  1  0.84070100  0.89449900  0.22837600  1
  O  O7  1  0.43249900  0.73372700  0.89012800  1
loop_
_geom_bond_atom_site_label_1
_geom_bond_atom_site_label_2
_geom_bond_distance
_geom_bond_site_symmetry_2
Mg0 O5 2.019212 1_555
Mg0 O6 2.090964 1_545
Mg0 O3 2.103236 1_455
Mg0 O6 2.108168 1_445
Mg0 O3 2.128125 1_555
Mg0 O0 2.709939 1_545
Mg1 O7 2.020099 1_555
Mg1 O4 2.089746 1_565
Mg1 O0 2.102152 1_655
Mg1 O4 2.107876 1_665
Mg1 O0 2.125679 1_555
Mg1 O3 2.716466 1_565
Mg2 O7 1.925287 1_554
Mg2 O6 2.046043 1_455
Mg2 O6 2.059062 1_555
Mg2 O2 2.291417 1_555
Mg2 O2 2.332177 1_455
Mg3 O5 1.924788 1_556
Mg3 O4 2.045898 1_655
Mg3 O4 2.060587 1_555
Mg3 O1 2.297190 1_555
Mg3 O1 2.325695 1_655
Fe0 O1 2.017688 1_555
Fe0 O3 2.031351 1_455
Fe0 O3 2.070474 1_555
Fe0 O4 2.119201 1_555
Fe1 O5 2.003648 1_455
Fe1 O5 2.031762 1_555
Fe1 O2 2.082565 1_555
Fe1 O2 2.114394 1_455
Fe1 O3 2.509431 1_455
Fe2 O7 2.004679 1_655
Fe2 O7 2.028190 1_555
Fe2 O1 2.083333 1_555
Fe2 O1 2.112883 1_655
Fe2 O0 2.521429 1_655
Fe3 O2 2.018349 1_555
Fe3 O0 2.040133 1_655
Fe3 O0 2.063494 1_555
Fe3 O6 2.117801 1_555
