# generated using pymatgen
data_Rb2MgSi5O12
_symmetry_space_group_name_H-M   'P 1'
_cell_length_a   13.64715300
_cell_length_b   13.72487300
_cell_length_c   13.92872200
_cell_angle_alpha   90.00000000
_cell_angle_beta   90.00000000
_cell_angle_gamma   90.00000000
_symmetry_Int_Tables_number   1
_chemical_formula_structural   Rb2MgSi5O12
_chemical_formula_sum   'Rb16 Mg8 Si40 O96'
_cell_volume   2608.92542704
_cell_formula_units_Z   8
loop_
 _symmetry_equiv_pos_site_id
 _symmetry_equiv_pos_as_xyz
  1  'x, y, z'
loop_
 _atom_site_type_symbol
 _atom_site_label
 _atom_site_symmetry_multiplicity
 _atom_site_fract_x
 _atom_site_fract_y
 _atom_site_fract_z
 _atom_site_occupancy
  Rb  Rb0  1  0.34673200  0.63852900  0.14432500  1
  Rb  Rb1  1  0.65326800  0.13852900  0.35567500  1
  Rb  Rb2  1  0.15326800  0.36147100  0.64432500  1
  Rb  Rb3  1  0.84673200  0.86147100  0.85567500  1
  Rb  Rb4  1  0.65326800  0.36147100  0.85567500  1
  Rb  Rb5  1  0.34673200  0.86147100  0.64432500  1
  Rb  Rb6  1  0.84673200  0.63852900  0.35567500  1
  Rb  Rb7  1  0.15326800  0.13852900  0.14432500  1
  Rb  Rb8  1  0.10794900  0.89639300  0.40976600  1
  Rb  Rb9  1  0.89205100  0.39639300  0.09023400  1
  Rb  Rb10  1  0.39205100  0.10360700  0.90976600  1
  Rb  Rb11  1  0.60794900  0.60360700  0.59023400  1
  Rb  Rb12  1  0.89205100  0.10360700  0.59023400  1
  Rb  Rb13  1  0.10794900  0.60360700  0.90976600  1
  Rb  Rb14  1  0.60794900  0.89639300  0.09023400  1
  Rb  Rb15  1  0.39205100  0.39639300  0.40976600  1
  Mg  Mg0  1  0.56025300  0.87405200  0.83428500  1
  Mg  Mg1  1  0.43974700  0.37405200  0.66571500  1
  Mg  Mg2  1  0.93974700  0.12594800  0.33428500  1
  Mg  Mg3  1  0.06025300  0.62594800  0.16571500  1
  Mg  Mg4  1  0.43974700  0.12594800  0.16571500  1
  Mg  Mg5  1  0.56025300  0.62594800  0.33428500  1
  Mg  Mg6  1  0.06025300  0.87405200  0.66571500  1
  Mg  Mg7  1  0.93974700  0.37405200  0.83428500  1
  Si  Si0  1  0.89288800  0.62208400  0.66288100  1
  Si  Si1  1  0.10711200  0.12208400  0.83711900  1
  Si  Si2  1  0.60711200  0.37791600  0.16288100  1
  Si  Si3  1  0.39288800  0.87791600  0.33711900  1
  Si  Si4  1  0.10711200  0.37791600  0.33711900  1
  Si  Si5  1  0.89288800  0.87791600  0.16288100  1
  Si  Si6  1  0.39288800  0.62208400  0.83711900  1
  Si  Si7  1  0.60711200  0.12208400  0.66288100  1
  Si  Si8  1  0.87374900  0.09653500  0.11340600  1
  Si  Si9  1  0.12625100  0.59653500  0.38659400  1
  Si  Si10  1  0.62625100  0.90346500  0.61340600  1
  Si  Si11  1  0.37374900  0.40346500  0.88659400  1
  Si  Si12  1  0.12625100  0.90346500  0.88659400  1
  Si  Si13  1  0.87374900  0.40346500  0.61340600  1
  Si  Si14  1  0.37374900  0.09653500  0.38659400  1
  Si  Si15  1  0.62625100  0.59653500  0.11340600  1
  Si  Si16  1  0.39614400  0.15150600  0.59959500  1
  Si  Si17  1  0.60385600  0.65150600  0.90040500  1
  Si  Si18  1  0.10385600  0.84849400  0.09959500  1
  Si  Si19  1  0.89614400  0.34849400  0.40040500  1
  Si  Si20  1  0.60385600  0.84849400  0.40040500  1
  Si  Si21  1  0.39614400  0.34849400  0.09959500  1
  Si  Si22  1  0.89614400  0.15150600  0.90040500  1
  Si  Si23  1  0.10385600  0.65150600  0.59959500  1
  Si  Si24  1  0.68511000  0.41189500  0.36795300  1
  Si  Si25  1  0.31489000  0.91189500  0.13204700  1
  Si  Si26  1  0.81489000  0.58810500  0.86795300  1
  Si  Si27  1  0.18511000  0.08810500  0.63204700  1
  Si  Si28  1  0.31489000  0.58810500  0.63204700  1
  Si  Si29  1  0.68511000  0.08810500  0.86795300  1
  Si  Si30  1  0.18511000  0.41189500  0.13204700  1
  Si  Si31  1  0.81489000  0.91189500  0.36795300  1
  Si  Si32  1  0.15724500  0.32444700  0.92747900  1
  Si  Si33  1  0.84275500  0.82444700  0.57252100  1
  Si  Si34  1  0.34275500  0.67555300  0.42747900  1
  Si  Si35  1  0.65724500  0.17555300  0.07252100  1
  Si  Si36  1  0.84275500  0.67555300  0.07252100  1
  Si  Si37  1  0.15724500  0.17555300  0.42747900  1
  Si  Si38  1  0.65724500  0.32444700  0.57252100  1
  Si  Si39  1  0.34275500  0.82444700  0.92747900  1
  O  O0  1  0.34511700  0.97884800  0.37756700  1
  O  O1  1  0.65488300  0.47884800  0.12243300  1
  O  O2  1  0.15488300  0.02115200  0.87756700  1
  O  O3  1  0.84511700  0.52115200  0.62243300  1
  O  O4  1  0.65488300  0.02115200  0.62243300  1
  O  O5  1  0.34511700  0.52115200  0.87756700  1
  O  O6  1  0.84511700  0.97884800  0.12243300  1
  O  O7  1  0.15488300  0.47884800  0.37756700  1
  O  O8  1  0.07400600  0.61195800  0.49187000  1
  O  O9  1  0.92599400  0.11195800  0.00813000  1
  O  O10  1  0.42599400  0.38804200  0.99187000  1
  O  O11  1  0.57400600  0.88804200  0.50813000  1
  O  O12  1  0.92599400  0.38804200  0.50813000  1
  O  O13  1  0.07400600  0.88804200  0.99187000  1
  O  O14  1  0.57400600  0.61195800  0.00813000  1
  O  O15  1  0.42599400  0.11195800  0.49187000  1
  O  O16  1  0.01205900  0.88169800  0.17097900  1
  O  O17  1  0.98794100  0.38169800  0.32902100  1
  O  O18  1  0.48794100  0.11830200  0.67097900  1
  O  O19  1  0.51205900  0.61830200  0.82902100  1
  O  O20  1  0.98794100  0.11830200  0.82902100  1
  O  O21  1  0.01205900  0.61830200  0.67097900  1
  O  O22  1  0.51205900  0.88169800  0.32902100  1
  O  O23  1  0.48794100  0.38169800  0.17097900  1
  O  O24  1  0.87399800  0.23463700  0.39798300  1
  O  O25  1  0.12600200  0.73463700  0.10201700  1
  O  O26  1  0.62600200  0.76536300  0.89798300  1
  O  O27  1  0.37399800  0.26536300  0.60201700  1
  O  O28  1  0.12600200  0.76536300  0.60201700  1
  O  O29  1  0.87399800  0.26536300  0.89798300  1
  O  O30  1  0.37399800  0.23463700  0.10201700  1
  O  O31  1  0.62600200  0.73463700  0.39798300  1
  O  O32  1  0.14902000  0.14720100  0.72994500  1
  O  O33  1  0.85098000  0.64720100  0.77005500  1
  O  O34  1  0.35098000  0.85279900  0.22994500  1
  O  O35  1  0.64902000  0.35279900  0.27005500  1
  O  O36  1  0.85098000  0.85279900  0.27005500  1
  O  O37  1  0.14902000  0.35279900  0.22994500  1
  O  O38  1  0.64902000  0.14720100  0.77005500  1
  O  O39  1  0.35098000  0.64720100  0.72994500  1
  O  O40  1  0.73260900  0.84715600  0.61423400  1
  O  O41  1  0.26739100  0.34715600  0.88576600  1
  O  O42  1  0.76739100  0.15284400  0.11423400  1
  O  O43  1  0.23260900  0.65284400  0.38576600  1
  O  O44  1  0.26739100  0.15284400  0.38576600  1
  O  O45  1  0.73260900  0.65284400  0.11423400  1
  O  O46  1  0.23260900  0.84715600  0.88576600  1
  O  O47  1  0.76739100  0.34715600  0.61423400  1
  O  O48  1  0.86253500  0.48353800  0.88222300  1
  O  O49  1  0.13746500  0.98353800  0.61777700  1
  O  O50  1  0.63746500  0.51646200  0.38222300  1
  O  O51  1  0.36253500  0.01646200  0.11777700  1
  O  O52  1  0.13746500  0.51646200  0.11777700  1
  O  O53  1  0.86253500  0.01646200  0.38222300  1
  O  O54  1  0.36253500  0.48353800  0.61777700  1
  O  O55  1  0.63746500  0.98353800  0.88222300  1
  O  O56  1  0.65639900  0.16537200  0.95427600  1
  O  O57  1  0.34360100  0.66537200  0.54572400  1
  O  O58  1  0.84360100  0.83462800  0.45427600  1
  O  O59  1  0.15639900  0.33462800  0.04572400  1
  O  O60  1  0.34360100  0.83462800  0.04572400  1
  O  O61  1  0.65639900  0.33462800  0.45427600  1
  O  O62  1  0.15639900  0.16537200  0.54572400  1
  O  O63  1  0.84360100  0.66537200  0.95427600  1
  O  O64  1  0.57587600  0.38979800  0.62332200  1
  O  O65  1  0.42412400  0.88979800  0.87667800  1
  O  O66  1  0.92412400  0.61020200  0.12332200  1
  O  O67  1  0.07587600  0.11020200  0.37667800  1
  O  O68  1  0.42412400  0.61020200  0.37667800  1
  O  O69  1  0.57587600  0.11020200  0.12332200  1
  O  O70  1  0.07587600  0.38979800  0.87667800  1
  O  O71  1  0.92412400  0.88979800  0.62332200  1
  O  O72  1  0.35689600  0.70545500  0.91262700  1
  O  O73  1  0.64310400  0.20545500  0.58737300  1
  O  O74  1  0.14310400  0.29454500  0.41262700  1
  O  O75  1  0.85689600  0.79454500  0.08737300  1
  O  O76  1  0.64310400  0.29454500  0.08737300  1
  O  O77  1  0.35689600  0.79454500  0.41262700  1
  O  O78  1  0.85689600  0.70545500  0.58737300  1
  O  O79  1  0.14310400  0.20545500  0.91262700  1
  O  O80  1  0.55523100  0.63404700  0.19578800  1
  O  O81  1  0.44476900  0.13404700  0.30421200  1
  O  O82  1  0.94476900  0.36595300  0.69578800  1
  O  O83  1  0.05523100  0.86595300  0.80421200  1
  O  O84  1  0.44476900  0.36595300  0.80421200  1
  O  O85  1  0.55523100  0.86595300  0.69578800  1
  O  O86  1  0.05523100  0.63404700  0.30421200  1
  O  O87  1  0.94476900  0.13404700  0.19578800  1
  O  O88  1  0.30573300  0.41877400  0.13912300  1
  O  O89  1  0.69426700  0.91877400  0.36087700  1
  O  O90  1  0.19426700  0.58122600  0.63912300  1
  O  O91  1  0.80573300  0.08122600  0.86087700  1
  O  O92  1  0.69426700  0.58122600  0.86087700  1
  O  O93  1  0.30573300  0.08122600  0.63912300  1
  O  O94  1  0.80573300  0.41877400  0.36087700  1
  O  O95  1  0.19426700  0.91877400  0.13912300  1
loop_
_geom_bond_atom_site_label_1
_geom_bond_atom_site_label_2
_geom_bond_distance
_geom_bond_site_symmetry_2
Mg0 O85 1.933501 1_555
Mg0 O55 1.953005 1_555
Mg0 O26 1.953868 1_555
Mg0 O65 1.961299 1_555
Mg1 O84 1.933501 1_555
Mg1 O54 1.953005 1_555
Mg1 O27 1.953868 1_555
Mg1 O64 1.961299 1_555
Mg2 O87 1.933501 1_555
Mg2 O53 1.953005 1_555
Mg2 O24 1.953868 1_555
Mg2 O67 1.961299 1_655
Mg3 O86 1.933501 1_555
Mg3 O52 1.953005 1_555
Mg3 O25 1.953868 1_555
Mg3 O66 1.961299 1_455
Mg4 O81 1.933501 1_555
Mg4 O51 1.953005 1_555
Mg4 O30 1.953868 1_555
Mg4 O69 1.961299 1_555
Mg5 O80 1.933501 1_555
Mg5 O50 1.953005 1_555
Mg5 O31 1.953868 1_555
Mg5 O68 1.961299 1_555
Mg6 O83 1.933501 1_555
Mg6 O49 1.953005 1_555
Mg6 O28 1.953868 1_555
Mg6 O71 1.961299 1_455
Mg7 O82 1.933501 1_555
Mg7 O48 1.953005 1_555
Mg7 O29 1.953868 1_555
Mg7 O70 1.961299 1_655
O0 Si3 1.631388 1_555
O0 Si14 1.666580 1_565
O0 Rb8 3.458016 1_555
O1 Si2 1.631388 1_555
O1 Si15 1.666580 1_555
O1 Rb9 3.458016 1_555
O2 Si1 1.631388 1_555
O2 Si12 1.666580 1_545
O2 Rb10 3.458016 1_555
O3 Si0 1.631388 1_555
O3 Si13 1.666580 1_555
O3 Rb11 3.458016 1_555
O4 Si7 1.631388 1_555
O4 Si10 1.666580 1_545
O4 Rb12 3.458016 1_555
O5 Si6 1.631388 1_555
O5 Si11 1.666580 1_555
O5 Rb13 3.458016 1_555
O6 Si5 1.631388 1_555
O6 Si8 1.666580 1_565
O6 Rb14 3.458016 1_555
O7 Si4 1.631388 1_555
O7 Si9 1.666580 1_555
O7 Rb15 3.458016 1_555
O8 Si9 1.644197 1_555
O8 Si23 1.646811 1_555
O9 Si8 1.644197 1_555
O9 Si22 1.646811 1_554
O10 Si11 1.644197 1_555
O10 Si21 1.646811 1_556
O11 Si10 1.644197 1_555
O11 Si20 1.646811 1_555
O12 Si13 1.644197 1_555
O12 Si19 1.646811 1_555
O13 Si12 1.644197 1_555
O13 Si18 1.646811 1_556
O14 Si15 1.644197 1_555
O14 Si17 1.646811 1_554
O15 Si14 1.644197 1_555
O15 Si16 1.646811 1_555
O16 Si5 1.631078 1_455
O16 Si18 1.663044 1_555
O16 Rb8 3.579866 1_555
O17 Si4 1.631078 1_655
O17 Si19 1.663044 1_555
O17 Rb9 3.579866 1_555
O18 Si7 1.631078 1_555
O18 Si16 1.663044 1_555
O18 Rb10 3.579866 1_555
O19 Si6 1.631078 1_555
O19 Si17 1.663044 1_555
O19 Rb11 3.579866 1_555
O20 Si1 1.631078 1_655
O20 Si22 1.663044 1_555
O20 Rb12 3.579866 1_555
O21 Si0 1.631078 1_455
O21 Si23 1.663044 1_555
O21 Rb13 3.579866 1_555
O22 Si3 1.631078 1_555
O22 Si20 1.663044 1_555
O22 Rb14 3.579866 1_555
O23 Si2 1.631078 1_555
O23 Si21 1.663044 1_555
O23 Rb15 3.579866 1_555
O24 Si19 1.591989 1_555
O24 Rb12 3.235043 1_555
O24 Rb1 3.340866 1_555
O25 Si18 1.591989 1_555
O25 Rb13 3.235043 1_554
O25 Rb0 3.340866 1_555
O26 Si17 1.591989 1_555
O26 Rb14 3.235043 1_556
O26 Rb3 3.340866 1_555
O27 Si16 1.591989 1_555
O27 Rb15 3.235043 1_555
O27 Rb2 3.340866 1_555
O28 Si23 1.591989 1_555
O28 Rb8 3.235043 1_555
O28 Rb5 3.340866 1_555
O29 Si22 1.591989 1_555
O29 Rb9 3.235043 1_556
O29 Rb4 3.340866 1_555
O30 Si21 1.591989 1_555
O30 Rb10 3.235043 1_554
O30 Rb7 3.340866 1_555
O31 Si20 1.591989 1_555
O31 Rb11 3.235043 1_555
O31 Rb6 3.340866 1_555
O32 Si1 1.635352 1_555
O32 Si27 1.661273 1_555
O32 Rb2 3.173968 1_555
O33 Si0 1.635352 1_555
O33 Si26 1.661273 1_555
O33 Rb3 3.173968 1_555
O34 Si3 1.635352 1_555
O34 Si25 1.661273 1_555
O34 Rb0 3.173968 1_555
O35 Si2 1.635352 1_555
O35 Si24 1.661273 1_555
O35 Rb1 3.173968 1_555
O36 Si5 1.635352 1_555
O36 Si31 1.661273 1_555
O36 Rb6 3.173968 1_555
O37 Si4 1.635352 1_555
O37 Si30 1.661273 1_555
O37 Rb7 3.173968 1_555
O38 Si7 1.635352 1_555
O38 Si29 1.661273 1_555
O38 Rb4 3.173968 1_555
O39 Si6 1.635352 1_555
O39 Si28 1.661273 1_555
O39 Rb5 3.173968 1_555
O40 Si33 1.641421 1_555
O40 Si10 1.644448 1_555
O41 Si32 1.641421 1_555
O41 Si11 1.644448 1_555
O42 Si35 1.641421 1_555
O42 Si8 1.644448 1_555
O43 Si34 1.641421 1_555
O43 Si9 1.644448 1_555
O44 Si37 1.641421 1_555
O44 Si14 1.644448 1_555
O45 Si36 1.641421 1_555
O45 Si15 1.644448 1_555
O46 Si39 1.641421 1_555
O46 Si12 1.644448 1_555
O47 Si38 1.641421 1_555
O47 Si13 1.644448 1_555
O48 Si26 1.588081 1_555
O48 Rb9 3.160270 1_556
O48 Rb4 3.331622 1_555
O49 Si27 1.588081 1_565
O49 Rb8 3.160270 1_555
O49 Rb5 3.331622 1_555
O50 Si24 1.588081 1_555
O50 Rb11 3.160270 1_555
O50 Rb6 3.331622 1_555
O51 Si25 1.588081 1_545
O51 Rb10 3.160270 1_554
O51 Rb7 3.331622 1_555
O52 Si30 1.588081 1_555
O52 Rb13 3.160270 1_554
O52 Rb0 3.331622 1_555
O53 Si31 1.588081 1_545
O53 Rb12 3.160270 1_555
O53 Rb1 3.331622 1_555
O54 Si28 1.588081 1_555
O54 Rb15 3.160270 1_555
O54 Rb2 3.331622 1_555
O55 Si29 1.588081 1_565
O55 Rb14 3.160270 1_556
O55 Rb3 3.331622 1_555
O56 Si29 1.650404 1_555
O56 Si35 1.652959 1_556
O56 Rb4 3.021892 1_555
O57 Si28 1.650404 1_555
O57 Si34 1.652959 1_555
O57 Rb5 3.021892 1_555
O58 Si31 1.650404 1_555
O58 Si33 1.652959 1_555
O58 Rb6 3.021892 1_555
O59 Si30 1.650404 1_555
O59 Si32 1.652959 1_554
O59 Rb7 3.021892 1_555
O60 Si25 1.650404 1_555
O60 Si39 1.652959 1_554
O60 Rb0 3.021892 1_555
O61 Si24 1.650404 1_555
O61 Si38 1.652959 1_555
O61 Rb1 3.021892 1_555
O62 Si27 1.650404 1_555
O62 Si37 1.652959 1_555
O62 Rb2 3.021892 1_555
O63 Si26 1.650404 1_555
O63 Si36 1.652959 1_556
O63 Rb3 3.021892 1_555
O64 Si38 1.593201 1_555
O64 Rb11 3.002547 1_555
O64 Rb4 3.426489 1_555
O65 Si39 1.593201 1_555
O65 Rb10 3.002547 1_565
O65 Rb5 3.426489 1_555
O66 Si36 1.593201 1_555
O66 Rb9 3.002547 1_555
O66 Rb6 3.426489 1_555
O67 Si37 1.593201 1_555
O67 Rb8 3.002547 1_545
O67 Rb7 3.426489 1_555
O68 Si34 1.593201 1_555
O68 Rb15 3.002547 1_555
O68 Rb0 3.426489 1_555
O69 Si35 1.593201 1_555
O69 Rb14 3.002547 1_545
O69 Rb1 3.426489 1_555
O70 Si32 1.593201 1_555
O70 Rb13 3.002547 1_555
O70 Rb2 3.426489 1_555
O71 Si33 1.593201 1_555
O71 Rb12 3.002547 1_565
O71 Rb3 3.426489 1_555
O72 Si6 1.629946 1_555
O72 Si39 1.657473 1_555
O72 Rb0 3.358298 1_556
O73 Si7 1.629946 1_555
O73 Si38 1.657473 1_555
O73 Rb1 3.358298 1_555
O74 Si4 1.629946 1_555
O74 Si37 1.657473 1_555
O74 Rb2 3.358298 1_555
O75 Si5 1.629946 1_555
O75 Si36 1.657473 1_555
O75 Rb3 3.358298 1_554
O76 Si2 1.629946 1_555
O76 Si35 1.657473 1_555
O76 Rb4 3.358298 1_554
O77 Si3 1.629946 1_555
O77 Si34 1.657473 1_555
O77 Rb5 3.358298 1_555
O78 Si0 1.629946 1_555
O78 Si33 1.657473 1_555
O78 Rb6 3.358298 1_555
O79 Si1 1.629946 1_555
O79 Si32 1.657473 1_555
O79 Rb7 3.358298 1_556
O80 Si15 1.587815 1_555
O80 Rb0 2.934963 1_555
O81 Si14 1.587815 1_555
O81 Rb1 2.934963 1_555
O82 Si13 1.587815 1_555
O82 Rb2 2.934963 1_655
O83 Si12 1.587815 1_555
O83 Rb3 2.934963 1_455
O84 Si11 1.587815 1_555
O84 Rb4 2.934963 1_555
O85 Si10 1.587815 1_555
O85 Rb5 2.934963 1_555
O86 Si9 1.587815 1_555
O86 Rb6 2.934963 1_455
O87 Si8 1.587815 1_555
O87 Rb7 2.934963 1_655
O88 Si30 1.651809 1_555
O88 Si21 1.660105 1_555
O88 Rb0 3.068424 1_555
O89 Si31 1.651809 1_555
O89 Si20 1.660105 1_555
O89 Rb1 3.068424 1_565
O90 Si28 1.651809 1_555
O90 Si23 1.660105 1_555
O90 Rb2 3.068424 1_555
O91 Si29 1.651809 1_555
O91 Si22 1.660105 1_555
O91 Rb3 3.068424 1_545
O92 Si26 1.651809 1_555
O92 Si17 1.660105 1_555
O92 Rb4 3.068424 1_555
O93 Si27 1.651809 1_555
O93 Si16 1.660105 1_555
O93 Rb5 3.068424 1_545
O94 Si24 1.651809 1_555
O94 Si19 1.660105 1_555
O94 Rb6 3.068424 1_555
O95 Si25 1.651809 1_555
O95 Si18 1.660105 1_555
O95 Rb7 3.068424 1_565
