# generated using pymatgen
data_CsMg14W
_symmetry_space_group_name_H-M   'P 1'
_cell_length_a   6.42664484
_cell_length_b   6.56490885
_cell_length_c   10.43839351
_cell_angle_alpha   90.00000000
_cell_angle_beta   90.00000000
_cell_angle_gamma   120.71427787
_symmetry_Int_Tables_number   1
_chemical_formula_structural   CsMg14W
_chemical_formula_sum   'Cs1 Mg14 W1'
_cell_volume   378.62233696
_cell_formula_units_Z   1
loop_
 _symmetry_equiv_pos_site_id
 _symmetry_equiv_pos_as_xyz
  1  'x, y, z'
loop_
 _atom_site_type_symbol
 _atom_site_label
 _atom_site_symmetry_multiplicity
 _atom_site_fract_x
 _atom_site_fract_y
 _atom_site_fract_z
 _atom_site_occupancy
  Cs  Cs0  1  0.15679603  0.32839752  0.12500000  1
  Mg  Mg0  1  0.17345149  0.33672525  0.62500000  1
  Mg  Mg1  1  0.16713260  0.83356580  0.62500000  1
  Mg  Mg2  1  0.66063385  0.32714838  0.12500000  1
  Mg  Mg3  1  0.66573637  0.33975199  0.62500000  1
  Mg  Mg4  1  0.66063385  0.83348447  0.12500000  1
  Mg  Mg5  1  0.66573637  0.82598338  0.62500000  1
  Mg  Mg6  1  0.33164731  0.14653977  0.37842918  1
  Mg  Mg7  1  0.33164731  0.14653977  0.87157082  1
  Mg  Mg8  1  0.33164731  0.68510854  0.37842918  1
  Mg  Mg9  1  0.33164731  0.68510854  0.87157082  1
  Mg  Mg10  1  0.81868513  0.15934306  0.39657559  1
  Mg  Mg11  1  0.81868513  0.15934306  0.85342441  1
  Mg  Mg12  1  0.84629410  0.67314755  0.36028988  1
  Mg  Mg13  1  0.84629410  0.67314755  0.88971012  1
  W  W0  1  0.19333175  0.84666537  0.12500000  1
loop_
_geom_bond_atom_site_label_1
_geom_bond_atom_site_label_2
_geom_bond_distance
_geom_bond_site_symmetry_2
Cs0 Mg4 3.184477 1_445
Cs0 Mg2 3.184477 1_455
Cs0 Mg4 3.242183 1_555
Cs0 Mg2 3.242183 1_555
Cs0 W0 3.288656 1_555
Cs0 W0 3.288656 1_545
Cs0 Mg6 3.325148 1_555
Cs0 Mg7 3.325148 1_554
Cs0 Mg8 3.325154 1_555
Cs0 Mg9 3.325154 1_554
Cs0 Mg10 3.394998 1_455
Cs0 Mg11 3.394998 1_454
Mg0 Mg10 3.086652 1_455
Mg0 Mg11 3.086652 1_455
Mg0 Mg5 3.153637 1_555
Mg0 Mg3 3.153637 1_555
Mg0 Mg7 3.242472 1_555
Mg0 Mg6 3.242472 1_555
Mg0 Mg9 3.242479 1_555
Mg0 Mg8 3.242479 1_555
Mg0 Mg5 3.273098 1_445
Mg0 Mg3 3.273098 1_455
Mg0 Mg1 3.282640 1_555
Mg0 Mg1 3.282640 1_545
Mg1 Mg9 3.121660 1_555
Mg1 Mg8 3.121660 1_555
Mg1 Mg7 3.121666 1_565
Mg1 Mg6 3.121666 1_565
Mg1 Mg3 3.197157 1_455
Mg1 Mg5 3.197158 1_455
Mg1 Mg3 3.230057 1_565
Mg1 Mg5 3.230057 1_555
Mg1 Mg12 3.282893 1_455
Mg1 Mg13 3.282893 1_455
Mg2 W0 3.048289 1_545
Mg2 Mg6 3.211437 1_555
Mg2 Mg7 3.211437 1_554
Mg2 Mg4 3.240859 1_545
Mg2 Mg4 3.324050 1_555
Mg2 W0 3.380082 1_655
Mg3 Mg7 3.171954 1_555
Mg3 Mg6 3.171954 1_555
Mg3 Mg5 3.192065 1_555
Mg3 Mg5 3.372844 1_545
Mg4 W0 3.048289 1_555
Mg4 Mg8 3.211438 1_555
Mg4 Mg9 3.211438 1_554
Mg4 W0 3.380082 1_655
Mg5 Mg9 3.171954 1_555
Mg5 Mg8 3.171954 1_555
Mg6 W0 3.142649 1_545
Mg7 W0 3.142649 1_546
Mg8 W0 3.142643 1_555
Mg9 W0 3.142643 1_556
Mg10 Mg3 3.040299 1_555
Mg10 Mg5 3.040306 1_545
Mg10 Mg8 3.093738 1_545
Mg10 Mg6 3.093739 1_555
Mg10 Mg12 3.307754 1_545
Mg10 Mg12 3.307754 1_555
Mg10 Mg8 3.345704 1_655
Mg10 Mg6 3.345704 1_655
Mg10 Mg2 3.380016 1_555
Mg10 Mg4 3.380023 1_545
Mg11 Mg3 3.040299 1_555
Mg11 Mg5 3.040306 1_545
Mg11 Mg9 3.093738 1_545
Mg11 Mg7 3.093739 1_555
Mg11 Mg13 3.307754 1_545
Mg11 Mg13 3.307754 1_555
Mg11 Mg9 3.345704 1_655
Mg11 Mg7 3.345704 1_655
Mg11 Mg2 3.380016 1_556
Mg11 Mg4 3.380023 1_546
Mg12 W0 3.115883 1_655
Mg12 Mg4 3.137952 1_555
Mg12 Mg2 3.137959 1_555
Mg12 Mg5 3.343278 1_555
Mg12 Mg3 3.343284 1_555
Mg13 W0 3.115883 1_656
Mg13 Mg4 3.137952 1_556
Mg13 Mg2 3.137959 1_556
Mg13 Mg5 3.343278 1_555
Mg13 Mg3 3.343284 1_555
