# generated using pymatgen
data_RbBi3Se5
_symmetry_space_group_name_H-M   'P 1'
_cell_length_a   4.16644261
_cell_length_b   12.46480101
_cell_length_c   22.18007722
_cell_angle_alpha   90.00000000
_cell_angle_beta   90.00000000
_cell_angle_gamma   90.00000000
_symmetry_Int_Tables_number   1
_chemical_formula_structural   RbBi3Se5
_chemical_formula_sum   'Rb4 Bi12 Se20'
_cell_volume   1151.89742555
_cell_formula_units_Z   4
loop_
 _symmetry_equiv_pos_site_id
 _symmetry_equiv_pos_as_xyz
  1  'x, y, z'
loop_
 _atom_site_type_symbol
 _atom_site_label
 _atom_site_symmetry_multiplicity
 _atom_site_fract_x
 _atom_site_fract_y
 _atom_site_fract_z
 _atom_site_occupancy
  Rb  Rb0  1  0.25000000  0.49025344  0.21236145  1
  Rb  Rb1  1  0.75000000  0.50974656  0.78763855  1
  Rb  Rb2  1  0.75000000  0.99025344  0.28763855  1
  Rb  Rb3  1  0.25000000  0.00974656  0.71236145  1
  Bi  Bi0  1  0.25000000  0.36381569  0.02539417  1
  Bi  Bi1  1  0.75000000  0.63618431  0.97460583  1
  Bi  Bi2  1  0.75000000  0.86381569  0.47460583  1
  Bi  Bi3  1  0.25000000  0.13618431  0.52539417  1
  Bi  Bi4  1  0.25000000  0.80345630  0.12657037  1
  Bi  Bi5  1  0.75000000  0.19654370  0.87342963  1
  Bi  Bi6  1  0.75000000  0.30345630  0.37342963  1
  Bi  Bi7  1  0.25000000  0.69654370  0.62657037  1
  Bi  Bi8  1  0.25000000  0.59268227  0.42428911  1
  Bi  Bi9  1  0.75000000  0.40731773  0.57571089  1
  Bi  Bi10  1  0.75000000  0.09268227  0.07571089  1
  Bi  Bi11  1  0.25000000  0.90731773  0.92428911  1
  Se  Se0  1  0.25000000  0.80582471  0.38546296  1
  Se  Se1  1  0.75000000  0.19417529  0.61453704  1
  Se  Se2  1  0.75000000  0.30582471  0.11453704  1
  Se  Se3  1  0.25000000  0.69417529  0.88546296  1
  Se  Se4  1  0.25000000  0.24837994  0.29584030  1
  Se  Se5  1  0.75000000  0.75162006  0.70415970  1
  Se  Se6  1  0.75000000  0.74837994  0.20415970  1
  Se  Se7  1  0.25000000  0.25162006  0.79584030  1
  Se  Se8  1  0.25000000  0.36102686  0.48049936  1
  Se  Se9  1  0.75000000  0.63897314  0.51950064  1
  Se  Se10  1  0.75000000  0.86102686  0.01950064  1
  Se  Se11  1  0.25000000  0.13897314  0.98049936  1
  Se  Se12  1  0.25000000  0.02525406  0.15882577  1
  Se  Se13  1  0.75000000  0.97474594  0.84117423  1
  Se  Se14  1  0.75000000  0.52525406  0.34117423  1
  Se  Se15  1  0.25000000  0.47474594  0.65882577  1
  Se  Se16  1  0.25000000  0.58404297  0.06411135  1
  Se  Se17  1  0.75000000  0.41595703  0.93588865  1
  Se  Se18  1  0.75000000  0.08404297  0.43588865  1
  Se  Se19  1  0.25000000  0.91595703  0.56411135  1
loop_
_geom_bond_atom_site_label_1
_geom_bond_atom_site_label_2
_geom_bond_distance
_geom_bond_site_symmetry_2
Rb0 Se16 3.489838 1_555
Rb0 Se4 3.538072 1_555
Rb0 Se14 3.562729 1_455
Rb0 Se14 3.562729 1_555
Rb0 Se2 3.785820 1_555
Rb0 Se2 3.785820 1_455
Rb0 Se6 3.837340 1_455
Rb0 Se6 3.837340 1_555
Rb1 Se17 3.489838 1_555
Rb1 Se5 3.538072 1_555
Rb1 Se15 3.562729 1_655
Rb1 Se15 3.562729 1_555
Rb1 Se3 3.785820 1_655
Rb1 Se3 3.785820 1_555
Rb1 Se7 3.837340 1_555
Rb1 Se7 3.837340 1_655
Rb2 Se18 3.489838 1_565
Rb2 Se6 3.538072 1_555
Rb2 Se12 3.562729 1_665
Rb2 Se12 3.562729 1_565
Rb2 Se0 3.785820 1_655
Rb2 Se0 3.785820 1_555
Rb2 Se4 3.837340 1_665
Rb2 Se4 3.837340 1_565
Rb3 Se19 3.489838 1_545
Rb3 Se7 3.538072 1_555
Rb3 Se13 3.562729 1_445
Rb3 Se13 3.562729 1_545
Rb3 Se1 3.785820 1_555
Rb3 Se1 3.785820 1_455
Rb3 Se5 3.837340 1_545
Rb3 Se5 3.837340 1_445
Bi0 Se16 2.876276 1_555
Bi0 Se17 2.950152 1_454
Bi0 Se17 2.950152 1_554
Bi0 Se2 2.961692 1_555
Bi0 Se2 2.961692 1_455
Bi0 Se11 2.974260 1_554
Bi1 Se17 2.876276 1_555
Bi1 Se16 2.950152 1_556
Bi1 Se16 2.950152 1_656
Bi1 Se3 2.961692 1_555
Bi1 Se3 2.961692 1_655
Bi1 Se10 2.974260 1_556
Bi2 Se18 2.876276 1_565
Bi2 Se19 2.950152 1_555
Bi2 Se19 2.950152 1_655
Bi2 Se0 2.961692 1_555
Bi2 Se0 2.961692 1_655
Bi2 Se9 2.974260 1_555
Bi3 Se19 2.876276 1_545
Bi3 Se18 2.950152 1_455
Bi3 Se18 2.950152 1_555
Bi3 Se1 2.961692 1_555
Bi3 Se1 2.961692 1_455
Bi3 Se8 2.974260 1_555
Bi4 Se6 2.787963 1_555
Bi4 Se6 2.787963 1_455
Bi4 Se12 2.855733 1_565
Bi4 Se16 3.065795 1_555
Bi4 Se10 3.239524 1_455
Bi4 Se10 3.239524 1_555
Bi5 Se7 2.787963 1_555
Bi5 Se7 2.787963 1_655
Bi5 Se13 2.855733 1_545
Bi5 Se17 3.065795 1_555
Bi5 Se11 3.239524 1_555
Bi5 Se11 3.239524 1_655
Bi6 Se4 2.787963 1_555
Bi6 Se4 2.787963 1_655
Bi6 Se14 2.855733 1_555
Bi6 Se18 3.065795 1_555
Bi6 Se8 3.239524 1_555
Bi6 Se8 3.239524 1_655
Bi7 Se5 2.787963 1_455
Bi7 Se5 2.787963 1_555
Bi7 Se15 2.855733 1_555
Bi7 Se19 3.065795 1_555
Bi7 Se9 3.239524 1_455
Bi7 Se9 3.239524 1_555
Bi8 Se0 2.792862 1_555
Bi8 Se14 2.905975 1_455
Bi8 Se14 2.905975 1_555
Bi8 Se9 3.021993 1_555
Bi8 Se9 3.021993 1_455
Bi8 Se8 3.145196 1_555
Bi9 Se1 2.792862 1_555
Bi9 Se15 2.905975 1_655
Bi9 Se15 2.905975 1_555
Bi9 Se8 3.021993 1_555
Bi9 Se8 3.021993 1_655
Bi9 Se9 3.145196 1_555
Bi10 Se2 2.792862 1_555
Bi10 Se12 2.905975 1_555
Bi10 Se12 2.905975 1_655
Bi10 Se11 3.021993 1_654
Bi10 Se11 3.021993 1_554
Bi10 Se10 3.145196 1_545
Bi11 Se3 2.792862 1_555
Bi11 Se13 2.905975 1_455
Bi11 Se13 2.905975 1_555
Bi11 Se10 3.021993 1_556
Bi11 Se10 3.021993 1_456
Bi11 Se11 3.145196 1_565
