# generated using pymatgen
data_Mg4Si3
_symmetry_space_group_name_H-M   'P 1'
_cell_length_a   5.48757600
_cell_length_b   6.93672235
_cell_length_c   8.22634691
_cell_angle_alpha   108.01834886
_cell_angle_beta   103.93902669
_cell_angle_gamma   103.50987357
_symmetry_Int_Tables_number   1
_chemical_formula_structural   Mg4Si3
_chemical_formula_sum   'Mg8 Si6'
_cell_volume   272.43452840
_cell_formula_units_Z   2
loop_
 _symmetry_equiv_pos_site_id
 _symmetry_equiv_pos_as_xyz
  1  'x, y, z'
loop_
 _atom_site_type_symbol
 _atom_site_label
 _atom_site_symmetry_multiplicity
 _atom_site_fract_x
 _atom_site_fract_y
 _atom_site_fract_z
 _atom_site_occupancy
  Mg  Mg0  1  0.09856400  0.22933000  0.73573700  1
  Mg  Mg1  1  0.46368000  0.06499600  0.06487700  1
  Mg  Mg2  1  0.98321900  0.43589900  0.42246900  1
  Mg  Mg3  1  0.57677200  0.41780800  0.61235800  1
  Mg  Mg4  1  0.58262300  0.60627800  0.12283200  1
  Mg  Mg5  1  0.39669600  0.90426600  0.60319000  1
  Mg  Mg6  1  0.09889500  0.00109100  0.29734900  1
  Mg  Mg7  1  0.85530800  0.88606900  0.87844100  1
  Si  Si0  1  0.28862500  0.65163500  0.79723100  1
  Si  Si1  1  0.71904900  0.27536600  0.90421700  1
  Si  Si2  1  0.14240300  0.31257800  0.13559800  1
  Si  Si3  1  0.84129400  0.80608700  0.51574200  1
  Si  Si4  1  0.06472400  0.61830200  0.02427300  1
  Si  Si5  1  0.63837800  0.04043400  0.38573400  1
loop_
_geom_bond_atom_site_label_1
_geom_bond_atom_site_label_2
_geom_bond_distance
_geom_bond_site_symmetry_2
Mg0 Si0 2.706784 1_555
Mg0 Si3 2.726427 1_445
Mg0 Si1 2.790655 1_455
Mg0 Si5 3.000193 1_455
Mg0 Si4 3.071334 1_556
Mg0 Si2 3.096803 1_556
Mg0 Si1 3.249801 1_555
Mg1 Si1 2.640080 1_554
Mg1 Si5 2.655255 1_555
Mg1 Si2 2.772537 1_555
Mg1 Si0 2.789396 1_544
Mg1 Si4 3.216167 1_545
Mg2 Si2 2.675329 1_655
Mg2 Si3 2.791553 1_555
Mg2 Si5 2.825563 1_555
Mg2 Si0 2.835041 1_655
Mg3 Si5 2.853143 1_555
Mg3 Si0 2.876612 1_555
Mg3 Si1 2.876683 1_555
Mg3 Si3 3.169633 1_555
Mg4 Si4 2.789946 1_555
Mg4 Si2 2.820029 1_555
Mg4 Si1 2.821617 1_554
Mg4 Si3 2.912396 1_555
Mg4 Si0 2.924523 1_554
Mg4 Si4 2.938619 1_655
Mg4 Si5 3.010334 1_565
Mg5 Si5 2.730239 1_565
Mg5 Si0 2.769796 1_555
Mg5 Si1 2.776041 1_565
Mg5 Si3 2.818024 1_455
Mg5 Si3 2.872733 1_555
Mg6 Si5 2.798239 1_555
Mg6 Si4 2.829566 1_545
Mg6 Si5 2.841513 1_455
Mg6 Si2 2.861265 1_555
Mg6 Si3 2.981493 1_445
Mg7 Si4 2.814512 1_656
Mg7 Si2 2.838134 1_666
Mg7 Si3 2.839287 1_555
Mg7 Si1 2.926097 1_565
Mg7 Si0 2.953882 1_555
Si0 Si4 2.508292 1_556
Si1 Si4 2.401719 1_656
Si1 Si2 2.524335 1_656
Si2 Si4 2.636978 1_555
Si3 Si5 2.524649 1_565
