# generated using pymatgen
data_Ce(PPt)2
_symmetry_space_group_name_H-M   'P 1'
_cell_length_a   10.10030178
_cell_length_b   10.10030178
_cell_length_c   10.10030178
_cell_angle_alpha   155.41687402
_cell_angle_beta   155.41687402
_cell_angle_gamma   35.04340061
_symmetry_Int_Tables_number   1
_chemical_formula_structural   Ce(PPt)2
_chemical_formula_sum   'Ce2 P4 Pt4'
_cell_volume   178.12584299
_cell_formula_units_Z   2
loop_
 _symmetry_equiv_pos_site_id
 _symmetry_equiv_pos_as_xyz
  1  'x, y, z'
loop_
 _atom_site_type_symbol
 _atom_site_label
 _atom_site_symmetry_multiplicity
 _atom_site_fract_x
 _atom_site_fract_y
 _atom_site_fract_z
 _atom_site_occupancy
  Ce  Ce0  1  0.37280800  0.37280800  0.00000000  1
  Ce  Ce1  1  0.62719200  0.62719200  0.00000000  1
  P  P0  1  0.07038700  0.07038700  0.00000000  1
  P  P1  1  0.92961300  0.92961300  0.00000000  1
  P  P2  1  0.75000000  0.25000000  0.50000000  1
  P  P3  1  0.25000000  0.75000000  0.50000000  1
  Pt  Pt0  1  0.19282600  0.19282600  0.00000000  1
  Pt  Pt1  1  0.80717400  0.80717400  0.00000000  1
  Pt  Pt2  1  0.50000000  0.00000000  0.50000000  1
  Pt  Pt3  1  0.00000000  0.50000000  0.50000000  1
loop_
_geom_bond_atom_site_label_1
_geom_bond_atom_site_label_2
_geom_bond_distance
_geom_bond_site_symmetry_2
Ce0 P3 3.196865 1_555
Ce0 P2 3.196865 1_555
Ce0 P3 3.196865 1_544
Ce0 P2 3.196865 1_454
Ce0 P1 3.231759 1_455
Ce0 P1 3.231759 1_556
Ce0 P1 3.231759 1_444
Ce0 P1 3.231759 1_545
Ce0 Pt2 3.259854 1_565
Ce0 Pt3 3.259854 1_554
Ce0 Pt3 3.259854 1_655
Ce0 Pt2 3.259854 1_554
Ce0 Pt1 3.293237 1_444
Ce0 Pt1 3.293237 1_455
Ce0 Pt1 3.293237 1_545
Ce0 Pt1 3.293237 1_556
Ce1 P3 3.196865 1_655
Ce1 P3 3.196865 1_554
Ce1 P2 3.196865 1_565
Ce1 P2 3.196865 1_554
Ce1 P0 3.231759 1_565
Ce1 P0 3.231759 1_666
Ce1 P0 3.231759 1_554
Ce1 P0 3.231759 1_655
Ce1 Pt3 3.259854 1_655
Ce1 Pt2 3.259854 1_554
Ce1 Pt3 3.259854 1_554
Ce1 Pt2 3.259854 1_565
Ce1 Pt0 3.293237 1_666
Ce1 Pt0 3.293237 1_655
Ce1 Pt0 3.293237 1_565
Ce1 Pt0 3.293237 1_554
P0 Pt0 2.358586 1_555
P0 Pt2 2.542022 1_454
P0 Pt3 2.542022 1_544
P0 Pt2 2.542022 1_555
P0 Pt3 2.542022 1_555
P0 P1 2.711780 1_445
P1 Pt1 2.358586 1_555
P1 Pt3 2.542022 1_654
P1 Pt3 2.542022 1_665
P1 Pt2 2.542022 1_665
P1 Pt2 2.542022 1_564
P2 Pt1 2.415872 1_545
P2 Pt1 2.415872 1_556
P2 Pt0 2.415872 1_656
P2 Pt0 2.415872 1_555
P3 Pt1 2.415872 1_455
P3 Pt1 2.415872 1_556
P3 Pt0 2.415872 1_566
P3 Pt0 2.415872 1_555
