# generated using pymatgen
data_Li7Mn2(CoO4)3
_symmetry_space_group_name_H-M   'P 1'
_cell_length_a   7.88127341
_cell_length_b   7.88127341
_cell_length_c   10.24662932
_cell_angle_alpha   68.97945917
_cell_angle_beta   68.97945917
_cell_angle_gamma   21.51411994
_symmetry_Int_Tables_number   1
_chemical_formula_structural   Li7Mn2(CoO4)3
_chemical_formula_sum   'Li7 Mn2 Co3 O12'
_cell_volume   217.29629817
_cell_formula_units_Z   1
loop_
 _symmetry_equiv_pos_site_id
 _symmetry_equiv_pos_as_xyz
  1  'x, y, z'
loop_
 _atom_site_type_symbol
 _atom_site_label
 _atom_site_symmetry_multiplicity
 _atom_site_fract_x
 _atom_site_fract_y
 _atom_site_fract_z
 _atom_site_occupancy
  Li  Li0  1  0.17117700  0.17117700  0.58022300  1
  Li  Li1  1  0.83514400  0.83514400  0.90276000  1
  Li  Li2  1  0.49892800  0.49892800  0.25887200  1
  Li  Li3  1  0.17017800  0.17017800  0.09076600  1
  Li  Li4  1  0.83439500  0.83439500  0.43112400  1
  Li  Li5  1  0.49655800  0.49655800  0.73471300  1
  Li  Li6  1  0.33460100  0.33460100  0.65992200  1
  Mn  Mn0  1  0.99940100  0.99940100  0.00122600  1
  Mn  Mn1  1  0.67280500  0.67280500  0.82539600  1
  Co  Co0  1  0.65799600  0.65799600  0.34159300  1
  Co  Co1  1  0.98766900  0.98766900  0.51061000  1
  Co  Co2  1  0.32535200  0.32535200  0.17877000  1
  O  O0  1  0.23766900  0.23766900  0.87355600  1
  O  O1  1  0.91817400  0.91817400  0.18922500  1
  O  O2  1  0.58795800  0.58795800  0.53064900  1
  O  O3  1  0.25317100  0.25317100  0.36566000  1
  O  O4  1  0.92350900  0.92350900  0.70013800  1
  O  O5  1  0.57535000  0.57535000  0.03057600  1
  O  O6  1  0.08604200  0.08604200  0.29547500  1
  O  O7  1  0.74220300  0.74220300  0.64220600  1
  O  O8  1  0.42758900  0.42758900  0.96402800  1
  O  O9  1  0.09021000  0.09021000  0.80635600  1
  O  O10  1  0.75348700  0.75348700  0.12835600  1
  O  O11  1  0.42043500  0.42043500  0.45780200  1
loop_
_geom_bond_atom_site_label_1
_geom_bond_atom_site_label_2
_geom_bond_distance
_geom_bond_site_symmetry_2
Li0 O7 2.070520 1_545
Li0 O7 2.070520 1_455
Li0 O3 2.099361 1_555
Li0 O2 2.135562 1_455
Li0 O2 2.135562 1_545
Li0 O9 2.195339 1_555
Li1 O4 2.026924 1_555
Li1 O10 2.192705 1_556
Li1 O0 2.204923 1_655
Li1 O0 2.204923 1_565
Li1 O8 2.294257 1_565
Li1 O8 2.294257 1_655
Li2 O11 1.955277 1_555
Li2 O6 2.119860 1_655
Li2 O6 2.119860 1_565
Li2 O5 2.202524 1_555
Li2 O1 2.211023 1_545
Li2 O1 2.211023 1_455
Li3 O6 2.025261 1_555
Li3 O10 2.083118 1_545
Li3 O10 2.083118 1_455
Li3 O0 2.085016 1_554
Li3 O5 2.315590 1_545
Li3 O5 2.315590 1_455
Li4 O11 2.068759 1_655
Li4 O11 2.068759 1_565
Li4 O7 2.112196 1_555
Li4 O3 2.193619 1_655
Li4 O3 2.193619 1_565
Li4 O1 2.340646 1_555
Li5 O4 1.965103 1_545
Li5 O4 1.965103 1_455
Li5 O2 2.052876 1_555
Li5 O8 2.197551 1_555
Li5 O9 2.362925 1_655
Li5 O9 2.362925 1_565
Li6 O11 2.011411 1_555
Li6 O7 2.105648 1_545
Li6 O7 2.105648 1_455
Li6 O4 2.154878 1_545
Li6 O4 2.154878 1_455
Li6 O0 2.155353 1_555
Mn0 O1 1.877129 1_555
Mn0 O8 1.963491 1_654
Mn0 O8 1.963491 1_564
Mn0 O5 1.973782 1_655
Mn0 O5 1.973782 1_565
Mn0 O9 1.978407 1_664
Mn1 O7 1.790329 1_555
Mn1 O0 1.943774 1_655
Mn1 O0 1.943774 1_565
Mn1 O9 2.005004 1_565
Mn1 O9 2.005004 1_655
Mn1 O5 2.093012 1_556
Co0 O2 1.842485 1_555
Co0 O6 2.003297 1_655
Co0 O6 2.003297 1_565
Co0 O10 2.145070 1_555
Co0 O3 2.159228 1_565
Co0 O3 2.159228 1_655
Co1 O4 1.830193 1_555
Co1 O11 1.987974 1_655
Co1 O11 1.987974 1_565
Co1 O6 2.174357 1_665
Co1 O2 2.202447 1_565
Co1 O2 2.202447 1_655
Co2 O3 1.831260 1_555
Co2 O10 2.022120 1_545
Co2 O10 2.022120 1_455
Co2 O1 2.086597 1_455
Co2 O1 2.086597 1_545
Co2 O8 2.191874 1_554
