# generated using pymatgen
data_Ho7Cu5Sb
_symmetry_space_group_name_H-M   'P 1'
_cell_length_a   4.33270205
_cell_length_b   4.33270205
_cell_length_c   16.19208800
_cell_angle_alpha   90.00000000
_cell_angle_beta   90.00000000
_cell_angle_gamma   90.00000000
_symmetry_Int_Tables_number   1
_chemical_formula_structural   Ho7Cu5Sb
_chemical_formula_sum   'Ho7 Cu5 Sb1'
_cell_volume   303.96284770
_cell_formula_units_Z   1
loop_
 _symmetry_equiv_pos_site_id
 _symmetry_equiv_pos_as_xyz
  1  'x, y, z'
loop_
 _atom_site_type_symbol
 _atom_site_label
 _atom_site_symmetry_multiplicity
 _atom_site_fract_x
 _atom_site_fract_y
 _atom_site_fract_z
 _atom_site_occupancy
  Ho  Ho0  1  0.50000000  0.00000000  0.40994800  1
  Ho  Ho1  1  0.50000000  0.00000000  0.86270800  1
  Ho  Ho2  1  0.50000000  0.00000000  0.21066500  1
  Ho  Ho3  1  0.50000000  0.00000000  0.65341900  1
  Ho  Ho4  1  0.00000000  0.50000000  0.34227700  1
  Ho  Ho5  1  0.00000000  0.50000000  0.81457100  1
  Ho  Ho6  1  0.00000000  0.50000000  0.08708900  1
  Cu  Cu0  1  0.00000000  0.00000000  0.96554000  1
  Cu  Cu1  1  0.00000000  0.00000000  0.51427200  1
  Cu  Cu2  1  0.50000000  0.50000000  0.96554000  1
  Cu  Cu3  1  0.50000000  0.50000000  0.51427200  1
  Cu  Cu4  1  0.50000000  0.00000000  0.04418800  1
  Sb  Sb0  1  0.00000000  0.50000000  0.61551200  1
loop_
_geom_bond_atom_site_label_1
_geom_bond_atom_site_label_2
_geom_bond_distance
_geom_bond_site_symmetry_2
Ho0 Ho4 3.253735 1_645
Ho0 Ho4 3.253735 1_545
Ho0 Ho4 3.253735 1_655
Ho0 Ho4 3.253735 1_555
Ho1 Ho5 3.161278 1_545
Ho1 Ho5 3.161278 1_645
Ho1 Ho5 3.161278 1_655
Ho1 Ho5 3.161278 1_555
Ho2 Ho4 3.731973 1_555
Ho2 Ho4 3.731973 1_645
Ho2 Ho4 3.731973 1_545
Ho2 Ho4 3.731973 1_655
Ho3 Sb0 3.124563 1_645
Ho3 Sb0 3.124563 1_555
Ho3 Sb0 3.124563 1_545
Ho3 Sb0 3.124563 1_655
Ho5 Sb0 3.223181 1_555
Cu0 Cu4 2.512930 1_456
Cu0 Cu4 2.512930 1_556
Cu0 Ho1 2.732310 1_555
Cu0 Ho1 2.732310 1_455
Cu0 Ho6 2.926879 1_556
Cu0 Ho6 2.926879 1_546
Cu0 Ho5 3.266294 1_555
Cu0 Ho5 3.266294 1_545
Cu1 Sb0 2.716678 1_555
Cu1 Sb0 2.716678 1_545
Cu1 Ho0 2.747099 1_555
Cu1 Ho0 2.747099 1_455
Cu1 Cu3 3.063683 1_445
Cu1 Cu3 3.063683 1_555
Cu1 Cu3 3.063683 1_545
Cu1 Cu3 3.063683 1_455
Cu1 Ho3 3.125612 1_455
Cu1 Ho3 3.125612 1_555
Cu1 Ho4 3.528324 1_555
Cu1 Ho4 3.528324 1_545
Cu2 Cu4 2.512930 1_566
Cu2 Cu4 2.512930 1_556
Cu2 Ho1 2.732310 1_555
Cu2 Ho1 2.732310 1_565
Cu2 Ho6 2.926879 1_556
Cu2 Ho6 2.926879 1_656
Cu2 Ho5 3.266294 1_655
Cu2 Ho5 3.266294 1_555
Cu3 Sb0 2.716678 1_555
Cu3 Sb0 2.716678 1_655
Cu3 Ho0 2.747099 1_565
Cu3 Ho0 2.747099 1_555
Cu3 Ho3 3.125612 1_555
Cu3 Ho3 3.125612 1_565
Cu3 Ho4 3.528324 1_555
Cu3 Ho4 3.528324 1_655
Cu4 Ho2 2.695610 1_555
Cu4 Ho1 2.938540 1_554
Cu4 Ho6 3.141449 1_645
Cu4 Ho6 3.141449 1_545
Cu4 Ho6 3.141449 1_655
Cu4 Ho6 3.141449 1_555
