# generated using pymatgen
data_LiCe(WO4)2
_symmetry_space_group_name_H-M   'P 1'
_cell_length_a   7.22579700
_cell_length_b   7.46240077
_cell_length_c   7.55870926
_cell_angle_alpha   113.81134223
_cell_angle_beta   115.71107997
_cell_angle_gamma   91.48247396
_symmetry_Int_Tables_number   1
_chemical_formula_structural   LiCe(WO4)2
_chemical_formula_sum   'Li2 Ce2 W4 O16'
_cell_volume   325.82420356
_cell_formula_units_Z   2
loop_
 _symmetry_equiv_pos_site_id
 _symmetry_equiv_pos_as_xyz
  1  'x, y, z'
loop_
 _atom_site_type_symbol
 _atom_site_label
 _atom_site_symmetry_multiplicity
 _atom_site_fract_x
 _atom_site_fract_y
 _atom_site_fract_z
 _atom_site_occupancy
  Li  Li0  1  0.25085300  0.67677700  0.01001500  1
  Li  Li1  1  0.74914700  0.32322300  0.98998500  1
  Ce  Ce0  1  0.18401800  0.28814400  0.46308000  1
  Ce  Ce1  1  0.81598200  0.71185600  0.53692000  1
  W  W0  1  0.26220400  0.29248800  0.03044300  1
  W  W1  1  0.73779600  0.70751200  0.96955700  1
  W  W2  1  0.64811300  0.10430700  0.28582100  1
  W  W3  1  0.35188700  0.89569300  0.71417900  1
  O  O0  1  0.18456400  0.36463600  0.80651700  1
  O  O1  1  0.81543600  0.63536400  0.19348300  1
  O  O2  1  0.44860600  0.53793200  0.25184700  1
  O  O3  1  0.55139400  0.46206800  0.74815300  1
  O  O4  1  0.86471200  0.01148300  0.20026700  1
  O  O5  1  0.13528800  0.98851700  0.79973300  1
  O  O6  1  0.70607900  0.00883300  0.48278400  1
  O  O7  1  0.29392100  0.99116700  0.51721600  1
  O  O8  1  0.17853800  0.63715300  0.56044800  1
  O  O9  1  0.82146200  0.36284700  0.43955200  1
  O  O10  1  0.48073800  0.82723600  0.00826600  1
  O  O11  1  0.51926200  0.17276400  0.99173400  1
  O  O12  1  0.04166600  0.30397000  0.09144600  1
  O  O13  1  0.95833400  0.69603000  0.90855400  1
  O  O14  1  0.38269500  0.17235700  0.25846400  1
  O  O15  1  0.61730500  0.82764300  0.74153600  1
loop_
_geom_bond_atom_site_label_1
_geom_bond_atom_site_label_2
_geom_bond_distance
_geom_bond_site_symmetry_2
Li0 O13 1.942843 1_454
Li0 O10 1.988623 1_555
Li0 O0 2.105025 1_554
Li0 O2 2.407545 1_555
Li1 O12 1.942843 1_656
Li1 O11 1.988623 1_555
Li1 O1 2.105025 1_556
Li1 O3 2.407545 1_555
Ce0 O8 2.410239 1_555
Ce0 O0 2.420592 1_555
Ce0 O3 2.444356 1_555
Ce0 O4 2.448899 1_455
Ce0 O14 2.472094 1_555
Ce0 O7 2.500163 1_545
Ce0 O12 2.594218 1_555
Ce0 O9 2.637591 1_455
Ce1 O9 2.410239 1_555
Ce1 O1 2.420592 1_555
Ce1 O2 2.444356 1_555
Ce1 O5 2.448899 1_655
Ce1 O15 2.472094 1_555
Ce1 O6 2.500163 1_565
Ce1 O13 2.594218 1_555
Ce1 O8 2.637591 1_655
O0 W0 1.843100 1_556
O1 W1 1.843100 1_554
O2 W0 1.846926 1_555
O3 W1 1.846926 1_555
O4 W2 1.979932 1_555
O4 W1 2.082840 1_544
O5 W3 1.979932 1_555
O5 W0 2.082840 1_566
O6 W2 1.797326 1_555
O7 W3 1.797326 1_555
O8 W3 1.855633 1_555
O9 W2 1.855633 1_555
O10 W2 2.075013 1_565
O10 W1 2.163396 1_554
O10 W3 2.283630 1_554
O11 W3 2.075013 1_545
O11 W0 2.163396 1_556
O11 W2 2.283630 1_556
O12 W0 1.836334 1_555
O13 W1 1.836334 1_555
O14 W2 1.941621 1_555
O14 W0 2.125615 1_555
O15 W3 1.941621 1_555
O15 W1 2.125615 1_555
