# generated using pymatgen
data_GdFe11W
_symmetry_space_group_name_H-M   'P 1'
_cell_length_a   4.71303800
_cell_length_b   6.47023057
_cell_length_c   6.47023057
_cell_angle_alpha   98.13079017
_cell_angle_beta   111.35893788
_cell_angle_gamma   68.64106212
_symmetry_Int_Tables_number   1
_chemical_formula_structural   GdFe11W
_chemical_formula_sum   'Gd1 Fe11 W1'
_cell_volume   171.12494003
_cell_formula_units_Z   1
loop_
 _symmetry_equiv_pos_site_id
 _symmetry_equiv_pos_as_xyz
  1  'x, y, z'
loop_
 _atom_site_type_symbol
 _atom_site_label
 _atom_site_symmetry_multiplicity
 _atom_site_fract_x
 _atom_site_fract_y
 _atom_site_fract_z
 _atom_site_occupancy
  Gd  Gd0  1  0.00607700  0.99392300  0.00607700  1
  Fe  Fe0  1  0.72960800  0.77039200  0.22960800  1
  Fe  Fe1  1  0.27207600  0.22792400  0.77207600  1
  Fe  Fe2  1  0.49866800  0.77862700  0.77596200  1
  Fe  Fe3  1  0.49866800  0.22403800  0.22137300  1
  Fe  Fe4  1  0.50093900  0.99836100  0.50093200  1
  Fe  Fe5  1  0.00163100  0.99836100  0.50093200  1
  Fe  Fe6  1  0.50093900  0.49906800  0.00163900  1
  Fe  Fe7  1  0.00163100  0.49906800  0.00163900  1
  Fe  Fe8  1  0.35726600  0.64273400  0.35726600  1
  Fe  Fe9  1  0.99976600  0.35909500  0.35862700  1
  Fe  Fe10  1  0.99976600  0.64137300  0.64090500  1
  W  W0  1  0.63296600  0.36703400  0.63296600  1
loop_
_geom_bond_atom_site_label_1
_geom_bond_atom_site_label_2
_geom_bond_distance
_geom_bond_site_symmetry_2
Gd0 W0 3.195646 1_464
Fe0 Fe7 2.430386 1_655
Fe0 Fe5 2.430386 1_655
Fe0 Fe6 2.430389 1_555
Fe0 Fe4 2.430389 1_555
Fe0 Fe8 2.597816 1_555
Fe0 Fe8 2.597816 1_655
Fe0 Fe9 2.604988 1_555
Fe0 Fe10 2.604988 1_555
Fe0 Fe2 2.734549 1_554
Fe0 Fe3 2.734549 1_565
Fe0 Gd0 3.036205 1_555
Fe0 Gd0 3.036205 1_655
Fe1 Fe4 2.433463 1_545
Fe1 Fe6 2.433463 1_556
Fe1 Fe5 2.433465 1_545
Fe1 Fe7 2.433465 1_556
Fe1 Fe10 2.621374 1_455
Fe1 Fe9 2.621374 1_455
Fe1 W0 2.640598 1_455
Fe1 W0 2.640598 1_555
Fe1 Fe2 2.707729 1_545
Fe1 Fe3 2.707729 1_556
Fe1 Gd0 3.093533 1_546
Fe1 Gd0 3.093533 1_646
Fe2 Fe4 2.434888 1_555
Fe2 Fe5 2.434893 1_555
Fe2 Fe7 2.475003 1_656
Fe2 Fe6 2.475008 1_556
Fe2 W0 2.617353 1_555
Fe2 Fe8 2.644654 1_555
Fe2 Gd0 3.020360 1_656
Fe2 Gd0 3.020364 1_556
Fe3 Fe6 2.434888 1_555
Fe3 Fe7 2.434893 1_555
Fe3 Fe5 2.475003 1_645
Fe3 Fe4 2.475008 1_545
Fe3 W0 2.617353 1_555
Fe3 Fe9 2.624100 1_555
Fe3 Fe9 2.624105 1_455
Fe3 Fe8 2.644654 1_555
Fe3 Gd0 3.020360 1_645
Fe3 Gd0 3.020364 1_545
Fe4 Fe5 2.353258 1_555
Fe4 Fe5 2.359780 1_655
Fe4 Fe8 2.586224 1_555
Fe4 Fe9 2.623471 1_465
Fe4 W0 2.631480 1_565
Fe4 Gd0 3.205521 1_555
Fe4 Gd0 3.264960 1_656
Fe5 Fe8 2.586226 1_555
Fe5 Fe9 2.623473 1_465
Fe5 W0 2.631478 1_465
Fe5 Gd0 3.205523 1_555
Fe5 Gd0 3.264959 1_556
Fe6 Fe7 2.353258 1_555
Fe6 Fe7 2.359780 1_655
Fe6 Fe8 2.586224 1_555
Fe6 Fe9 2.601493 1_555
Fe6 W0 2.631480 1_554
Fe6 Gd0 3.205521 1_555
Fe6 Gd0 3.264960 1_645
Fe7 Fe8 2.586226 1_555
Fe7 Fe9 2.601491 1_455
Fe7 W0 2.631478 1_454
Fe7 Gd0 3.205523 1_555
Fe7 Gd0 3.264959 1_545
Fe8 W0 2.361334 1_555
Fe8 Fe9 2.911146 1_455
Fe8 Fe9 2.911146 1_555
Fe8 Gd0 3.007887 1_555
Fe9 W0 2.878659 1_555
Fe9 W0 2.878659 1_655
Fe9 Gd0 3.043102 1_645
Fe10 Fe9 2.393309 1_555
Fe10 Fe5 2.601491 1_655
Fe10 Fe4 2.601493 1_555
Fe10 Fe6 2.623471 1_656
Fe10 Fe7 2.623473 1_656
Fe10 Fe2 2.624100 1_555
Fe10 Fe2 2.624105 1_655
Fe10 W0 2.878659 1_555
Fe10 W0 2.878659 1_655
Fe10 Fe8 2.911146 1_555
Fe10 Fe8 2.911146 1_655
Fe10 Gd0 3.043102 1_656
