# generated using pymatgen
data_Sm2CdRh2
_symmetry_space_group_name_H-M   'P 1'
_cell_length_a   7.53147090
_cell_length_b   7.53147090
_cell_length_c   3.84914857
_cell_angle_alpha   90.00000000
_cell_angle_beta   90.00000000
_cell_angle_gamma   89.99992666
_symmetry_Int_Tables_number   1
_chemical_formula_structural   Sm2CdRh2
_chemical_formula_sum   'Sm4 Cd2 Rh4'
_cell_volume   218.33546187
_cell_formula_units_Z   2
loop_
 _symmetry_equiv_pos_site_id
 _symmetry_equiv_pos_as_xyz
  1  'x, y, z'
loop_
 _atom_site_type_symbol
 _atom_site_label
 _atom_site_symmetry_multiplicity
 _atom_site_fract_x
 _atom_site_fract_y
 _atom_site_fract_z
 _atom_site_occupancy
  Sm  Sm0  1  0.66746454  0.16746454  0.50000000  1
  Sm  Sm1  1  0.33253546  0.83253546  0.50000000  1
  Sm  Sm2  1  0.16746957  0.33253043  0.50000000  1
  Sm  Sm3  1  0.83253043  0.66746957  0.50000000  1
  Cd  Cd0  1  -0.00000000  0.00000000  -0.00000000  1
  Cd  Cd1  1  0.50000000  0.50000000  -0.00000000  1
  Rh  Rh0  1  0.13477440  0.63477440  0.00000000  1
  Rh  Rh1  1  0.86522560  0.36522560  0.00000000  1
  Rh  Rh2  1  0.63476183  0.86523817  -0.00000000  1
  Rh  Rh3  1  0.36523817  0.13476183  -0.00000000  1
loop_
_geom_bond_atom_site_label_1
_geom_bond_atom_site_label_2
_geom_bond_distance
_geom_bond_site_symmetry_2
Cd0 Rh0 2.931994 1_545
Cd0 Rh1 2.931994 1_455
Cd0 Rh2 2.932053 1_445
Cd0 Rh3 2.932053 1_555
Cd0 Sm3 3.401042 1_444
Cd0 Sm3 3.401042 1_445
Cd0 Sm2 3.401042 1_555
Cd0 Sm2 3.401042 1_554
Cd0 Sm1 3.401054 1_544
Cd0 Sm1 3.401054 1_545
Cd0 Sm0 3.401054 1_455
Cd0 Sm0 3.401054 1_454
Cd1 Rh1 2.931994 1_555
Cd1 Rh0 2.931994 1_555
Cd1 Rh3 2.932053 1_555
Cd1 Rh2 2.932053 1_555
Cd1 Sm2 3.401042 1_555
Cd1 Sm2 3.401042 1_554
Cd1 Sm3 3.401042 1_554
Cd1 Sm3 3.401042 1_555
Cd1 Sm0 3.401054 1_554
Cd1 Sm1 3.401054 1_555
Cd1 Sm0 3.401054 1_555
Cd1 Sm1 3.401054 1_554
Rh0 Sm1 2.853210 1_554
Rh0 Sm1 2.853210 1_555
Rh0 Sm3 2.991045 1_455
Rh0 Sm3 2.991045 1_454
Rh0 Sm2 2.991045 1_555
Rh0 Sm2 2.991045 1_554
Rh1 Sm0 2.853210 1_555
Rh1 Sm0 2.853210 1_554
Rh1 Sm3 2.991045 1_554
Rh1 Sm3 2.991045 1_555
Rh1 Sm2 2.991045 1_655
Rh1 Sm2 2.991045 1_654
Rh2 Sm3 2.853267 1_554
Rh2 Sm3 2.853267 1_555
Rh2 Sm1 2.990950 1_555
Rh2 Sm1 2.990950 1_554
Rh2 Sm0 2.990950 1_565
Rh2 Sm0 2.990950 1_564
Rh3 Sm2 2.853267 1_555
Rh3 Sm2 2.853267 1_554
Rh3 Sm1 2.990950 1_545
Rh3 Sm0 2.990950 1_555
Rh3 Sm0 2.990950 1_554
Rh3 Sm1 2.990950 1_544
