# generated using pymatgen
data_MnFeP2
_symmetry_space_group_name_H-M   'P 1'
_cell_length_a   3.00011846
_cell_length_b   5.18331645
_cell_length_c   5.77608661
_cell_angle_alpha   90.00753128
_cell_angle_beta   90.00000000
_cell_angle_gamma   90.00000000
_symmetry_Int_Tables_number   1
_chemical_formula_structural   MnFeP2
_chemical_formula_sum   'Mn2 Fe2 P4'
_cell_volume   89.82140012
_cell_formula_units_Z   2
loop_
 _symmetry_equiv_pos_site_id
 _symmetry_equiv_pos_as_xyz
  1  'x, y, z'
loop_
 _atom_site_type_symbol
 _atom_site_label
 _atom_site_symmetry_multiplicity
 _atom_site_fract_x
 _atom_site_fract_y
 _atom_site_fract_z
 _atom_site_occupancy
  Mn  Mn0  1  0.00000000  0.50063407  0.44872065  1
  Mn  Mn1  1  0.00000000  0.00061718  0.55122830  1
  Fe  Fe0  1  0.50000000  0.50122425  0.04965745  1
  Fe  Fe1  1  0.50000000  0.00122427  0.95037163  1
  P  P0  1  0.50000000  0.30952153  0.68555191  1
  P  P1  1  0.50000000  0.80947905  0.31446017  1
  P  P2  1  0.00000000  0.68863850  0.81652152  1
  P  P3  1  -0.00000000  0.18865915  0.18348937  1
loop_
_geom_bond_atom_site_label_1
_geom_bond_atom_site_label_2
_geom_bond_distance
_geom_bond_site_symmetry_2
Mn0 P3 2.227390 1_555
Mn0 P0 2.259010 1_555
Mn0 P0 2.259010 1_455
Mn0 P1 2.326929 1_555
Mn0 P1 2.326929 1_455
Mn0 P2 2.337171 1_555
Mn1 P2 2.227943 1_545
Mn1 P1 2.258689 1_445
Mn1 P1 2.258689 1_545
Mn1 P0 2.327122 1_455
Mn1 P0 2.327122 1_555
Mn1 P3 2.337159 1_555
Fe0 P1 2.211720 1_555
Fe0 P2 2.237758 1_654
Fe0 P2 2.237758 1_554
Fe0 P0 2.325909 1_554
Fe0 P3 2.339418 1_555
Fe0 P3 2.339418 1_655
Fe1 P0 2.212238 1_555
Fe1 P3 2.237587 1_556
Fe1 P3 2.237587 1_656
Fe1 P1 2.326151 1_546
Fe1 P2 2.339386 1_545
Fe1 P2 2.339386 1_645
