# generated using pymatgen
data_CoHgN6Cl5
_symmetry_space_group_name_H-M   'P 1'
_cell_length_a   9.24237000
_cell_length_b   6.63495200
_cell_length_c   12.02475634
_cell_angle_alpha   74.79467226
_cell_angle_beta   90.00000000
_cell_angle_gamma   90.00000000
_symmetry_Int_Tables_number   1
_chemical_formula_structural   CoHgN6Cl5
_chemical_formula_sum   'Co2 Hg2 N12 Cl10'
_cell_volume   711.57582284
_cell_formula_units_Z   2
loop_
 _symmetry_equiv_pos_site_id
 _symmetry_equiv_pos_as_xyz
  1  'x, y, z'
loop_
 _atom_site_type_symbol
 _atom_site_label
 _atom_site_symmetry_multiplicity
 _atom_site_fract_x
 _atom_site_fract_y
 _atom_site_fract_z
 _atom_site_occupancy
  Co  Co0  1  0.25000000  0.74459200  0.23910900  1
  Co  Co1  1  0.75000000  0.25540800  0.76089100  1
  Hg  Hg0  1  0.25000000  0.76512200  0.77462000  1
  Hg  Hg1  1  0.75000000  0.23487800  0.22538000  1
  N  N0  1  0.37968600  0.85576100  0.12996800  1
  N  N1  1  0.87968600  0.14423900  0.87003200  1
  N  N2  1  0.62031400  0.14423900  0.87003200  1
  N  N3  1  0.12031400  0.85576100  0.12996800  1
  N  N4  1  0.37930400  0.80190900  0.39258900  1
  N  N5  1  0.87930400  0.19809100  0.60741100  1
  N  N6  1  0.62069600  0.19809100  0.60741100  1
  N  N7  1  0.12069600  0.80190900  0.39258900  1
  N  N8  1  0.25000000  0.45604300  0.23150400  1
  N  N9  1  0.75000000  0.54395700  0.76849600  1
  N  N10  1  0.25000000  0.80459300  0.40049500  1
  N  N11  1  0.75000000  0.19540700  0.59950500  1
  Cl  Cl0  1  0.25000000  0.07821300  0.64008900  1
  Cl  Cl1  1  0.75000000  0.92178700  0.35991100  1
  Cl  Cl2  1  0.25000000  0.46048900  0.91851400  1
  Cl  Cl3  1  0.75000000  0.53951100  0.08148600  1
  Cl  Cl4  1  0.25000000  0.93524100  0.02768500  1
  Cl  Cl5  1  0.75000000  0.06475900  0.97231500  1
  Cl  Cl6  1  0.59669700  0.64206900  0.68532400  1
  Cl  Cl7  1  0.09669700  0.35793100  0.31467600  1
  Cl  Cl8  1  0.40330300  0.35793100  0.31467600  1
  Cl  Cl9  1  0.90330300  0.64206900  0.68532400  1
loop_
_geom_bond_atom_site_label_1
_geom_bond_atom_site_label_2
_geom_bond_distance
_geom_bond_site_symmetry_2
Co0 N3 1.787542 1_555
Co0 N0 1.787542 1_555
Co0 N8 1.940501 1_555
Co0 N10 2.080812 1_555
Co0 N7 2.312377 1_555
Co0 N4 2.312377 1_555
Co1 N2 1.787542 1_555
Co1 N1 1.787542 1_555
Co1 N9 1.940501 1_555
Co1 N11 2.080812 1_555
Co1 N5 2.312377 1_555
Co1 N6 2.312377 1_555
N10 N4 1.199353 1_555
N10 N7 1.199353 1_555
N11 N6 1.199353 1_555
N11 N5 1.199353 1_555
Cl0 Hg0 2.273660 1_545
Cl1 Hg1 2.273660 1_565
Cl2 Hg0 2.290135 1_555
Cl3 Hg1 2.290135 1_555
Cl4 N3 1.699190 1_555
Cl4 N0 1.699190 1_555
Cl5 N1 1.699190 1_555
Cl5 N2 1.699190 1_555
Cl6 N9 1.757854 1_555
Cl7 N8 1.757854 1_555
Cl8 N8 1.757854 1_555
Cl9 N9 1.757854 1_555
