# generated using pymatgen
data_YTlSe2
_symmetry_space_group_name_H-M   'P 1'
_cell_length_a   4.17551269
_cell_length_b   4.17551269
_cell_length_c   8.09402122
_cell_angle_alpha   75.05224589
_cell_angle_beta   75.05224589
_cell_angle_gamma   59.99997705
_symmetry_Int_Tables_number   1
_chemical_formula_structural   YTlSe2
_chemical_formula_sum   'Y1 Tl1 Se2'
_cell_volume   116.66562811
_cell_formula_units_Z   1
loop_
 _symmetry_equiv_pos_site_id
 _symmetry_equiv_pos_as_xyz
  1  'x, y, z'
loop_
 _atom_site_type_symbol
 _atom_site_label
 _atom_site_symmetry_multiplicity
 _atom_site_fract_x
 _atom_site_fract_y
 _atom_site_fract_z
 _atom_site_occupancy
  Y  Y0  1  0.50000000  0.50000000  0.50000000  1
  Tl  Tl0  1  -0.00000000  -0.00000000  -0.00000000  1
  Se  Se0  1  0.23461324  0.23461324  0.29616129  1
  Se  Se1  1  0.76538676  0.76538676  0.70383871  1
loop_
_geom_bond_atom_site_label_1
_geom_bond_atom_site_label_2
_geom_bond_distance
_geom_bond_site_symmetry_2
Se0 Y0 2.879624 1_555
Se0 Y0 2.879627 1_455
Se0 Y0 2.879627 1_545
Se0 Tl0 3.323874 1_565
Se0 Tl0 3.323874 1_655
Se0 Tl0 3.323877 1_555
Se1 Y0 2.879624 1_555
Se1 Y0 2.879627 1_565
Se1 Y0 2.879627 1_655
Se1 Tl0 3.323874 1_566
Se1 Tl0 3.323874 1_656
Se1 Tl0 3.323877 1_666
