# generated using pymatgen
data_MgSi2
_symmetry_space_group_name_H-M   'P 1'
_cell_length_a   5.00142830
_cell_length_b   5.00142830
_cell_length_c   11.51347466
_cell_angle_alpha   74.49547629
_cell_angle_beta   74.49547629
_cell_angle_gamma   45.84130225
_symmetry_Int_Tables_number   1
_chemical_formula_structural   MgSi2
_chemical_formula_sum   'Mg4 Si8'
_cell_volume   197.72254439
_cell_formula_units_Z   4
loop_
 _symmetry_equiv_pos_site_id
 _symmetry_equiv_pos_as_xyz
  1  'x, y, z'
loop_
 _atom_site_type_symbol
 _atom_site_label
 _atom_site_symmetry_multiplicity
 _atom_site_fract_x
 _atom_site_fract_y
 _atom_site_fract_z
 _atom_site_occupancy
  Mg  Mg0  1  0.50000000  0.50000000  0.50000000  1
  Mg  Mg1  1  0.82478700  0.82478700  0.67573300  1
  Mg  Mg2  1  0.50000000  0.50000000  0.00000000  1
  Mg  Mg3  1  0.17521300  0.17521300  0.32426700  1
  Si  Si0  1  0.49378600  0.49378600  0.76083400  1
  Si  Si1  1  0.17540800  0.17540800  0.57702800  1
  Si  Si2  1  0.50621400  0.50621400  0.23916600  1
  Si  Si3  1  0.16854600  0.16854600  0.08458600  1
  Si  Si4  1  0.82459200  0.82459200  0.42297200  1
  Si  Si5  1  0.15583900  0.15583900  0.83413600  1
  Si  Si6  1  0.83145400  0.83145400  0.91541400  1
  Si  Si7  1  0.84416100  0.84416100  0.16586400  1
loop_
_geom_bond_atom_site_label_1
_geom_bond_atom_site_label_2
_geom_bond_distance
_geom_bond_site_symmetry_2
Mg0 Si1 2.832687 1_655
Mg0 Si1 2.832687 1_565
Mg0 Si4 2.832687 1_455
Mg0 Si4 2.832687 1_545
Mg0 Si4 2.861836 1_555
Mg0 Si1 2.861836 1_555
Mg0 Mg1 2.932194 1_455
Mg0 Mg1 2.932194 1_545
Mg0 Mg3 2.932194 1_565
Mg0 Mg3 2.932194 1_655
Mg0 Si0 2.986992 1_555
Mg0 Si2 2.986992 1_555
Mg1 Si6 2.778010 1_555
Mg1 Si1 2.808459 1_655
Mg1 Si1 2.808459 1_565
Mg1 Si5 2.809841 1_655
Mg1 Si5 2.809841 1_565
Mg1 Si0 2.839695 1_565
Mg1 Si0 2.839695 1_655
Mg1 Si4 2.910679 1_555
Mg1 Si0 2.919816 1_555
Mg1 Si1 3.097651 1_665
Mg2 Si2 2.770789 1_555
Mg2 Si0 2.770789 1_554
Mg2 Si7 2.812613 1_455
Mg2 Si7 2.812613 1_545
Mg2 Si5 2.812613 1_564
Mg2 Si5 2.812613 1_654
Mg2 Si3 2.834006 1_655
Mg2 Si3 2.834006 1_565
Mg2 Si6 2.834006 1_544
Mg2 Si6 2.834006 1_454
Mg2 Si6 2.923585 1_554
Mg2 Si3 2.923585 1_555
Mg3 Si3 2.778010 1_555
Mg3 Si4 2.808459 1_545
Mg3 Si4 2.808459 1_455
Mg3 Si7 2.809841 1_455
Mg3 Si7 2.809841 1_545
Mg3 Si2 2.839695 1_545
Mg3 Si2 2.839695 1_455
Mg3 Si1 2.910679 1_555
Mg3 Si2 2.919816 1_555
Mg3 Si4 3.097651 1_445
Si0 Si5 2.732546 1_655
Si0 Si5 2.732546 1_565
Si0 Si6 2.766459 1_455
Si0 Si6 2.766459 1_545
Si1 Si4 2.722895 1_545
Si1 Si4 2.722895 1_455
Si2 Si7 2.732546 1_455
Si2 Si7 2.732546 1_545
Si2 Si3 2.766459 1_565
Si2 Si3 2.766459 1_655
