# generated using pymatgen
data_NbCr3(CuS4)2
_symmetry_space_group_name_H-M   'P 1'
_cell_length_a   3.38931200
_cell_length_b   11.07900300
_cell_length_c   12.44061800
_cell_angle_alpha   90.00000000
_cell_angle_beta   90.00000000
_cell_angle_gamma   90.00000000
_symmetry_Int_Tables_number   1
_chemical_formula_structural   NbCr3(CuS4)2
_chemical_formula_sum   'Nb2 Cr6 Cu4 S16'
_cell_volume   467.14766685
_cell_formula_units_Z   2
loop_
 _symmetry_equiv_pos_site_id
 _symmetry_equiv_pos_as_xyz
  1  'x, y, z'
loop_
 _atom_site_type_symbol
 _atom_site_label
 _atom_site_symmetry_multiplicity
 _atom_site_fract_x
 _atom_site_fract_y
 _atom_site_fract_z
 _atom_site_occupancy
  Nb  Nb0  1  0.00000000  0.83596200  0.57246400  1
  Nb  Nb1  1  0.50000000  0.16403800  0.07246400  1
  Cr  Cr0  1  0.50000000  0.68529900  0.88525900  1
  Cr  Cr1  1  0.00000000  0.80292400  0.11956000  1
  Cr  Cr2  1  0.00000000  0.31470100  0.38525900  1
  Cr  Cr3  1  0.50000000  0.19707600  0.61956000  1
  Cr  Cr4  1  0.50000000  0.67189000  0.41634400  1
  Cr  Cr5  1  0.00000000  0.32811000  0.91634400  1
  Cu  Cu0  1  0.50000000  0.46695600  0.68322400  1
  Cu  Cu1  1  0.00000000  0.03754900  0.33820700  1
  Cu  Cu2  1  0.00000000  0.53304400  0.18322400  1
  Cu  Cu3  1  0.50000000  0.96245100  0.83820700  1
  S  S0  1  0.00000000  0.69996800  0.29035000  1
  S  S1  1  0.50000000  0.80492800  0.71575000  1
  S  S2  1  0.50000000  0.30003200  0.79035000  1
  S  S3  1  0.00000000  0.19507200  0.21575000  1
  S  S4  1  0.50000000  0.65357800  0.07281900  1
  S  S5  1  0.00000000  0.83276000  0.93307100  1
  S  S6  1  0.00000000  0.34642200  0.57281900  1
  S  S7  1  0.50000000  0.16724000  0.43307100  1
  S  S8  1  0.00000000  0.62297800  0.54629100  1
  S  S9  1  0.50000000  0.88528200  0.43225500  1
  S  S10  1  0.50000000  0.37702200  0.04629100  1
  S  S11  1  0.00000000  0.11471800  0.93225500  1
  S  S12  1  0.00000000  0.54338600  0.83925100  1
  S  S13  1  0.50000000  0.94495000  0.15515600  1
  S  S14  1  0.50000000  0.45661400  0.33925100  1
  S  S15  1  0.00000000  0.05505000  0.65515600  1
loop_
_geom_bond_atom_site_label_1
_geom_bond_atom_site_label_2
_geom_bond_distance
_geom_bond_site_symmetry_2
Nb0 S8 2.382010 1_555
Nb0 S1 2.483469 1_555
Nb0 S1 2.483469 1_455
Nb0 S9 2.492582 1_455
Nb0 S9 2.492582 1_555
Nb0 S15 2.636281 1_565
Nb1 S10 2.382010 1_555
Nb1 S3 2.483469 1_555
Nb1 S3 2.483469 1_655
Nb1 S11 2.492582 1_654
Nb1 S11 2.492582 1_554
Nb1 S13 2.636281 1_545
Cr0 S4 2.359680 1_556
Cr0 S12 2.381480 1_655
Cr0 S12 2.381480 1_555
Cr0 S5 2.427901 1_555
Cr0 S5 2.427901 1_655
Cr0 S1 2.490709 1_555
Cr1 S5 2.343468 1_554
Cr1 S13 2.354546 1_555
Cr1 S13 2.354546 1_455
Cr1 S0 2.411550 1_555
Cr1 S4 2.438791 1_555
Cr1 S4 2.438791 1_455
Cr2 S6 2.359680 1_555
Cr2 S14 2.381480 1_555
Cr2 S14 2.381480 1_455
Cr2 S7 2.427901 1_455
Cr2 S7 2.427901 1_555
Cr2 S3 2.490709 1_555
Cr3 S7 2.343468 1_555
Cr3 S15 2.354546 1_555
Cr3 S15 2.354546 1_655
Cr3 S2 2.411550 1_555
Cr3 S6 2.438791 1_555
Cr3 S6 2.438791 1_655
Cr4 S0 2.329271 1_655
Cr4 S0 2.329271 1_555
Cr4 S9 2.372443 1_555
Cr4 S8 2.403950 1_655
Cr4 S8 2.403950 1_555
Cr4 S14 2.570657 1_555
Cr5 S2 2.329271 1_455
Cr5 S2 2.329271 1_555
Cr5 S11 2.372443 1_555
Cr5 S10 2.403950 1_556
Cr5 S10 2.403950 1_456
Cr5 S12 2.570657 1_555
Cu0 S2 2.279523 1_555
Cu0 S6 2.557667 1_655
Cu0 S6 2.557667 1_555
Cu0 S12 2.712312 1_655
Cu0 S12 2.712312 1_555
Cu0 S8 2.960038 1_555
Cu0 S8 2.960038 1_655
Cu1 S3 2.316590 1_555
Cu1 S7 2.515787 1_455
Cu1 S7 2.515787 1_555
Cu1 S9 2.662076 1_545
Cu1 S9 2.662076 1_445
Cu1 S13 3.018325 1_445
Cu1 S13 3.018325 1_545
Cu2 S0 2.279523 1_555
Cu2 S4 2.557667 1_455
Cu2 S4 2.557667 1_555
Cu2 S14 2.712312 1_555
Cu2 S14 2.712312 1_455
Cu2 S10 2.960038 1_555
Cu2 S10 2.960038 1_455
Cu3 S1 2.316590 1_555
Cu3 S5 2.515787 1_555
Cu3 S5 2.515787 1_655
Cu3 S11 2.662076 1_565
Cu3 S11 2.662076 1_665
Cu3 S15 3.018325 1_565
Cu3 S15 3.018325 1_665
