# generated using pymatgen
data_Si5H15C4NO12
_symmetry_space_group_name_H-M   'P 1'
_cell_length_a   9.43953800
_cell_length_b   8.95292600
_cell_length_c   9.00407951
_cell_angle_alpha   83.89719154
_cell_angle_beta   90.00000000
_cell_angle_gamma   90.00000000
_symmetry_Int_Tables_number   1
_chemical_formula_structural   Si5H15C4NO12
_chemical_formula_sum   'Si10 H30 C8 N2 O24'
_cell_volume   756.63563698
_cell_formula_units_Z   2
loop_
 _symmetry_equiv_pos_site_id
 _symmetry_equiv_pos_as_xyz
  1  'x, y, z'
loop_
 _atom_site_type_symbol
 _atom_site_label
 _atom_site_symmetry_multiplicity
 _atom_site_fract_x
 _atom_site_fract_y
 _atom_site_fract_z
 _atom_site_occupancy
  Si  Si0  1  0.75311100  0.95731100  0.26320400  1
  Si  Si1  1  0.25311100  0.04268900  0.73679600  1
  Si  Si2  1  0.51601900  0.21881200  0.24902100  1
  Si  Si3  1  0.01601900  0.78118800  0.75097900  1
  Si  Si4  1  0.48880500  0.78483100  0.75111800  1
  Si  Si5  1  0.98880500  0.21516900  0.24888200  1
  Si  Si6  1  0.75363500  0.76369100  0.97866500  1
  Si  Si7  1  0.25363500  0.23630900  0.02133500  1
  Si  Si8  1  0.75455400  0.46740400  0.19993800  1
  Si  Si9  1  0.25455400  0.53259600  0.80006200  1
  H  H0  1  0.41542200  0.78583100  0.09769900  1
  H  H1  1  0.91542200  0.21416900  0.90230100  1
  H  H2  1  0.32605400  0.94307600  0.15728100  1
  H  H3  1  0.82605400  0.05692400  0.84271900  1
  H  H4  1  0.23787800  0.82517700  0.03899500  1
  H  H5  1  0.73787800  0.17482300  0.96100500  1
  H  H6  1  0.37103500  0.57995300  0.42948400  1
  H  H7  1  0.87103500  0.42004700  0.57051600  1
  H  H8  1  0.45879700  0.62395700  0.25464400  1
  H  H9  1  0.95879700  0.37604300  0.74535600  1
  H  H10  1  0.31179900  0.49894500  0.26842300  1
  H  H11  1  0.81179900  0.50105500  0.73157700  1
  H  H12  1  0.05747700  0.75736600  0.15763600  1
  H  H13  1  0.55747700  0.24263400  0.84236400  1
  H  H14  1  0.12069800  0.56878800  0.18604800  1
  H  H15  1  0.62069800  0.43121200  0.81395200  1
  H  H16  1  0.05029200  0.65610800  0.34010300  1
  H  H17  1  0.55029200  0.34389200  0.65989700  1
  H  H18  1  0.14684600  0.80345400  0.45708900  1
  H  H19  1  0.64684600  0.19654600  0.54291100  1
  H  H20  1  0.25501500  0.94522500  0.36053600  1
  H  H21  1  0.75501500  0.05477500  0.63946400  1
  H  H22  1  0.33696600  0.79579800  0.47530600  1
  H  H23  1  0.83696600  0.20420200  0.52469400  1
  H  H24  1  0.36935700  0.19854300  0.47627400  1
  H  H25  1  0.86935700  0.80145700  0.52372600  1
  H  H26  1  0.12251400  0.20202200  0.47788600  1
  H  H27  1  0.62251400  0.79797800  0.52211400  1
  H  H28  1  0.75574500  0.65497600  0.36691400  1
  H  H29  1  0.25574500  0.34502400  0.63308600  1
  C  C0  1  0.31295000  0.82785700  0.13077600  1
  C  C1  1  0.81295000  0.17214300  0.86922400  1
  C  C2  1  0.35678300  0.59921000  0.30875400  1
  C  C3  1  0.85678300  0.40079000  0.69124600  1
  C  C4  1  0.11078800  0.67423400  0.23606800  1
  C  C5  1  0.61078800  0.32576600  0.76393200  1
  C  C6  1  0.24827900  0.82599300  0.40006500  1
  C  C7  1  0.74827900  0.17400700  0.59993500  1
  N  N0  1  0.25755600  0.73199100  0.26864500  1
  N  N1  1  0.75755600  0.26800900  0.73135500  1
  O  O0  1  0.75048200  0.83584100  0.40792000  1
  O  O1  1  0.25048200  0.16415900  0.59208000  1
  O  O2  1  0.74719200  0.87512600  0.10819200  1
  O  O3  1  0.24719200  0.12487400  0.89180800  1
  O  O4  1  0.44937400  0.24460500  0.40858800  1
  O  O5  1  0.94937400  0.75539500  0.59141200  1
  O  O6  1  0.54228100  0.75313900  0.58720900  1
  O  O7  1  0.04228100  0.24686100  0.41279100  1
  O  O8  1  0.39764500  0.20165000  0.11824900  1
  O  O9  1  0.89764500  0.79835000  0.88175100  1
  O  O10  1  0.61804600  0.79719100  0.86944100  1
  O  O11  1  0.11804600  0.20280900  0.13055900  1
  O  O12  1  0.76413000  0.54495400  0.35366700  1
  O  O13  1  0.26413000  0.45504600  0.64633300  1
  O  O14  1  0.61099400  0.36692600  0.19304900  1
  O  O15  1  0.11099400  0.63307400  0.80695100  1
  O  O16  1  0.39032600  0.64259500  0.81592600  1
  O  O17  1  0.89032600  0.35740500  0.18407400  1
  O  O18  1  0.61503700  0.06902100  0.25671300  1
  O  O19  1  0.11503700  0.93097900  0.74328700  1
  O  O20  1  0.39773600  0.93987100  0.74893800  1
  O  O21  1  0.89773600  0.06012900  0.25106200  1
  O  O22  1  0.75238100  0.58858000  0.04981200  1
  O  O23  1  0.25238100  0.41142000  0.95018800  1
loop_
_geom_bond_atom_site_label_1
_geom_bond_atom_site_label_2
_geom_bond_distance
_geom_bond_site_symmetry_2
H24 O4 1.028868 1_555
H24 O1 1.540440 1_555
H25 O5 1.028868 1_555
H25 O0 1.540440 1_555
H26 O7 1.014032 1_555
H26 O1 1.599120 1_555
H27 O6 1.014032 1_555
H27 O0 1.599120 1_555
H28 O12 1.007837 1_555
H28 O0 1.699398 1_555
H29 O13 1.007837 1_555
H29 O1 1.699398 1_555
C0 H2 1.090271 1_555
C0 H0 1.090754 1_555
C0 H4 1.090831 1_555
C0 N0 1.524649 1_555
C1 H3 1.090271 1_555
C1 H1 1.090754 1_555
C1 H5 1.090831 1_555
C1 N1 1.524649 1_555
C2 H10 1.089632 1_555
C2 H6 1.090724 1_555
C2 H8 1.091243 1_555
C2 N0 1.526323 1_555
C3 H11 1.089632 1_555
C3 H7 1.090724 1_555
C3 H9 1.091243 1_555
C3 N1 1.526323 1_555
C4 H14 1.092352 1_555
C4 H12 1.092775 1_555
C4 H16 1.094348 1_555
C4 N0 1.518246 1_555
C5 H15 1.092352 1_555
C5 H13 1.092775 1_555
C5 H17 1.094348 1_555
C5 N1 1.518246 1_555
C6 H20 1.090616 1_555
C6 H22 1.092683 1_555
C6 H18 1.095029 1_555
C6 N0 1.525756 1_555
C7 H21 1.090616 1_555
C7 H23 1.092683 1_555
C7 H19 1.095029 1_555
C7 N1 1.525756 1_555
O0 Si0 1.606204 1_555
O1 Si1 1.606204 1_555
O2 Si6 1.614507 1_554
O2 Si0 1.646503 1_555
O3 Si7 1.614507 1_556
O3 Si1 1.646503 1_555
O4 Si2 1.607450 1_555
O5 Si3 1.607450 1_655
O6 Si4 1.613223 1_555
O7 Si5 1.613223 1_455
O8 Si7 1.627303 1_555
O8 Si2 1.642289 1_555
O9 Si6 1.627303 1_555
O9 Si3 1.642289 1_655
O10 Si6 1.622520 1_555
O10 Si4 1.631168 1_555
O11 Si7 1.622520 1_555
O11 Si5 1.631168 1_455
O12 Si8 1.615717 1_555
O13 Si9 1.615717 1_555
O14 Si8 1.631363 1_555
O14 Si2 1.635256 1_555
O15 Si9 1.631363 1_555
O15 Si3 1.635256 1_555
O16 Si9 1.631788 1_555
O16 Si4 1.633488 1_555
O17 Si8 1.631788 1_555
O17 Si5 1.633488 1_555
O18 Si2 1.630075 1_555
O18 Si0 1.640117 1_545
O19 Si3 1.630075 1_555
O19 Si1 1.640117 1_565
O20 Si4 1.631044 1_555
O20 Si1 1.643675 1_565
O21 Si5 1.631044 1_555
O21 Si0 1.643675 1_545
O22 Si6 1.629368 1_554
O22 Si8 1.640973 1_555
O23 Si7 1.629368 1_556
O23 Si9 1.640973 1_555
