# generated using pymatgen
data_BaYCuSe3
_symmetry_space_group_name_H-M   'P 1'
_cell_length_a   7.37658718
_cell_length_b   7.37658718
_cell_length_c   10.70069300
_cell_angle_alpha   90.00000000
_cell_angle_beta   90.00000000
_cell_angle_gamma   146.98805838
_symmetry_Int_Tables_number   1
_chemical_formula_structural   BaYCuSe3
_chemical_formula_sum   'Ba2 Y2 Cu2 Se6'
_cell_volume   317.22760956
_cell_formula_units_Z   2
loop_
 _symmetry_equiv_pos_site_id
 _symmetry_equiv_pos_as_xyz
  1  'x, y, z'
loop_
 _atom_site_type_symbol
 _atom_site_label
 _atom_site_symmetry_multiplicity
 _atom_site_fract_x
 _atom_site_fract_y
 _atom_site_fract_z
 _atom_site_occupancy
  Ba  Ba0  1  0.25253600  0.74746400  0.25000000  1
  Ba  Ba1  1  0.74746400  0.25253600  0.75000000  1
  Y  Y0  1  0.00000000  0.00000000  0.50000000  1
  Y  Y1  1  0.00000000  0.00000000  0.00000000  1
  Cu  Cu0  1  0.53299200  0.46700800  0.25000000  1
  Cu  Cu1  1  0.46700800  0.53299200  0.75000000  1
  Se  Se0  1  0.63395300  0.36604700  0.43948300  1
  Se  Se1  1  0.36604700  0.63395300  0.56051700  1
  Se  Se2  1  0.63395300  0.36604700  0.06051700  1
  Se  Se3  1  0.36604700  0.63395300  0.93948300  1
  Se  Se4  1  0.93141900  0.06858100  0.25000000  1
  Se  Se5  1  0.06858100  0.93141900  0.75000000  1
loop_
_geom_bond_atom_site_label_1
_geom_bond_atom_site_label_2
_geom_bond_distance
_geom_bond_site_symmetry_2
Ba0 Se4 3.285571 1_565
Ba0 Se4 3.285571 1_455
Ba0 Se0 3.364096 1_565
Ba0 Se0 3.364096 1_455
Ba0 Se2 3.364096 1_565
Ba0 Se2 3.364096 1_455
Ba0 Se1 3.690354 1_555
Ba0 Se3 3.690354 1_554
Ba1 Se5 3.285571 1_545
Ba1 Se5 3.285571 1_655
Ba1 Se3 3.364096 1_655
Ba1 Se3 3.364096 1_545
Ba1 Se1 3.364096 1_655
Ba1 Se1 3.364096 1_545
Ba1 Se2 3.690354 1_556
Ba1 Se0 3.690354 1_555
Cu0 Se0 2.480054 1_555
Cu0 Se2 2.480054 1_555
Cu0 Se4 2.541002 1_455
Cu0 Se4 2.541002 1_565
Cu1 Se3 2.480054 1_555
Cu1 Se1 2.480054 1_555
Cu1 Se5 2.541002 1_655
Cu1 Se5 2.541002 1_545
Se0 Y0 2.898615 1_555
Se0 Y0 2.898615 1_665
Se1 Y0 2.898615 1_555
Se1 Y0 2.898615 1_665
Se2 Y1 2.898615 1_555
Se2 Y1 2.898615 1_665
Se3 Y1 2.898615 1_556
Se3 Y1 2.898615 1_666
Se4 Y0 2.845634 1_655
Se4 Y1 2.845634 1_655
Se5 Y1 2.845634 1_566
Se5 Y0 2.845634 1_565
