# generated using pymatgen
data_Li7Mn2(CoO4)3
_symmetry_space_group_name_H-M   'P 1'
_cell_length_a   5.02323500
_cell_length_b   5.19120761
_cell_length_c   8.72223013
_cell_angle_alpha   73.96468299
_cell_angle_beta   85.29307621
_cell_angle_gamma   79.63646034
_symmetry_Int_Tables_number   1
_chemical_formula_structural   Li7Mn2(CoO4)3
_chemical_formula_sum   'Li7 Mn2 Co3 O12'
_cell_volume   214.90479649
_cell_formula_units_Z   1
loop_
 _symmetry_equiv_pos_site_id
 _symmetry_equiv_pos_as_xyz
  1  'x, y, z'
loop_
 _atom_site_type_symbol
 _atom_site_label
 _atom_site_symmetry_multiplicity
 _atom_site_fract_x
 _atom_site_fract_y
 _atom_site_fract_z
 _atom_site_occupancy
  Li  Li0  1  0.25016800  0.41655300  0.08707500  1
  Li  Li1  1  0.75151900  0.58730300  0.90868600  1
  Li  Li2  1  0.25590600  0.75473500  0.73575300  1
  Li  Li3  1  0.25433700  0.07911800  0.42646500  1
  Li  Li4  1  0.74142400  0.24606600  0.26639600  1
  Li  Li5  1  0.74596100  0.91824300  0.57958300  1
  Li  Li6  1  0.50842300  0.50475000  0.49772600  1
  Mn  Mn0  1  0.99698700  0.99361600  0.99846100  1
  Mn  Mn1  1  0.49956400  0.83025300  0.17121900  1
  Co  Co0  1  0.49805200  0.17385000  0.81876300  1
  Co  Co1  1  0.99481000  0.33291200  0.66414400  1
  Co  Co2  1  0.01249600  0.66151900  0.35372800  1
  O  O0  1  0.13703100  0.02981500  0.19353100  1
  O  O1  1  0.63046200  0.17162000  0.03708600  1
  O  O2  1  0.10988900  0.33488700  0.87666800  1
  O  O3  1  0.11586700  0.71575900  0.53495900  1
  O  O4  1  0.62246000  0.88000900  0.35735000  1
  O  O5  1  0.64254600  0.51291900  0.71114500  1
  O  O6  1  0.35805700  0.80479400  0.96821000  1
  O  O7  1  0.87421700  0.95308500  0.80649700  1
  O  O8  1  0.36053100  0.13559200  0.63645200  1
  O  O9  1  0.38021600  0.49839300  0.27842100  1
  O  O10  1  0.86513800  0.65875000  0.12610900  1
  O  O11  1  0.89393900  0.30545900  0.46557200  1
loop_
_geom_bond_atom_site_label_1
_geom_bond_atom_site_label_2
_geom_bond_distance
_geom_bond_site_symmetry_2
Li0 O9 2.015738 1_555
Li0 O0 2.123627 1_555
Li0 O6 2.139387 1_554
Li0 O10 2.165860 1_455
Li0 O1 2.179854 1_555
Li0 O2 2.189484 1_554
Li1 O5 2.003965 1_555
Li1 O7 2.043488 1_555
Li1 O2 2.075236 1_655
Li1 O10 2.168425 1_556
Li1 O6 2.191624 1_555
Li1 O1 2.303426 1_556
Li2 O3 2.013021 1_555
Li2 O8 2.070853 1_565
Li2 O7 2.136263 1_455
Li2 O5 2.144114 1_555
Li2 O6 2.225213 1_555
Li2 O2 2.397128 1_555
Li3 O11 2.032020 1_455
Li3 O8 2.058726 1_555
Li3 O3 2.077312 1_545
Li3 O4 2.079619 1_545
Li3 O0 2.253568 1_555
Li3 O9 2.369182 1_555
Li4 O4 2.023717 1_545
Li4 O9 2.051469 1_555
Li4 O11 2.073500 1_555
Li4 O0 2.235504 1_655
Li4 O1 2.268901 1_555
Li4 O10 2.319265 1_555
Li5 O3 2.028207 1_655
Li5 O8 2.152495 1_565
Li5 O4 2.153074 1_555
Li5 O7 2.194076 1_555
Li5 O11 2.212228 1_565
Li5 O5 2.230579 1_555
Li6 O5 2.044645 1_555
Li6 O11 2.061429 1_555
Li6 O9 2.078329 1_555
Li6 O3 2.123213 1_555
Li6 O4 2.142623 1_555
Li6 O8 2.184521 1_555
Mn0 O7 1.907572 1_555
Mn0 O6 1.935145 1_655
Mn0 O2 1.952338 1_665
Mn0 O1 1.953268 1_566
Mn0 O0 1.961056 1_666
Mn0 O10 1.980936 1_556
Mn1 O4 1.880696 1_555
Mn1 O9 1.895063 1_555
Mn1 O0 1.949850 1_565
Mn1 O10 1.951003 1_555
Mn1 O6 2.006922 1_554
Mn1 O1 2.022141 1_565
Co0 O8 1.857248 1_555
Co0 O5 1.985247 1_555
Co0 O7 2.037337 1_545
Co0 O2 2.059363 1_555
Co0 O1 2.064380 1_556
Co0 O6 2.195166 1_545
Co1 O11 1.892940 1_555
Co1 O5 1.915746 1_555
Co1 O8 1.967067 1_655
Co1 O2 1.989699 1_655
Co1 O3 2.162063 1_655
Co1 O7 2.179499 1_545
Co2 O3 1.811312 1_555
Co2 O11 2.006831 1_455
Co2 O9 2.026299 1_555
Co2 O4 2.082357 1_455
Co2 O10 2.179564 1_455
Co2 O0 2.193187 1_565
