# generated using pymatgen
data_CrI3
_symmetry_space_group_name_H-M   'P 1'
_cell_length_a   6.96846010
_cell_length_b   6.96863726
_cell_length_c   20.75585635
_cell_angle_alpha   90.00103624
_cell_angle_beta   90.01169106
_cell_angle_gamma   120.00126505
_symmetry_Int_Tables_number   1
_chemical_formula_structural   CrI3
_chemical_formula_sum   'Cr6 I18'
_cell_volume   872.87170333
_cell_formula_units_Z   6
loop_
 _symmetry_equiv_pos_site_id
 _symmetry_equiv_pos_as_xyz
  1  'x, y, z'
loop_
 _atom_site_type_symbol
 _atom_site_label
 _atom_site_symmetry_multiplicity
 _atom_site_fract_x
 _atom_site_fract_y
 _atom_site_fract_z
 _atom_site_occupancy
  Cr  Cr0  1  0.22278869  0.44556935  0.66667978  1
  Cr  Cr1  1  0.22283973  0.77722354  0.33332746  1
  Cr  Cr2  1  0.55434146  0.77716103  -0.00001387  1
  Cr  Cr3  1  0.55588629  0.11183074  0.66667217  1
  Cr  Cr4  1  0.55591702  0.44402782  0.33333474  1
  Cr  Cr5  1  0.88806418  0.44402690  0.99999299  1
  I  I0  1  0.53421776  0.77885355  0.74179739  1
  I  I1  1  0.24462534  0.46569462  0.40849738  1
  I  I2  1  0.24458678  0.77883039  0.59155551  1
  I  I3  1  0.22116547  0.75535523  0.07515664  1
  I  I4  1  0.22119227  0.46580806  0.92485994  1
  I  I5  1  0.53406024  0.75527706  0.25813842  1
  I  I6  1  0.88911969  0.42243451  0.74200033  1
  I  I7  1  0.53309896  0.11090169  0.40869960  1
  I  I8  1  0.53327154  0.42236426  0.59129958  1
  I  I9  1  0.57782524  0.46687022  0.07534267  1
  I  I10  1  0.57786231  0.11098163  0.92463808  1
  I  I11  1  0.88910461  0.46667236  0.25799451  1
  I  I12  1  0.88938606  0.13478567  0.59101383  1
  I  I13  1  0.24545660  0.11056871  0.25762609  1
  I  I14  1  0.24543611  0.13483972  0.74236711  1
  I  I15  1  0.86519560  0.75462039  0.92430163  1
  I  I16  1  0.86525369  0.11072074  0.07568712  1
  I  I17  1  0.88930633  0.75457981  0.40902890  1
loop_
_geom_bond_atom_site_label_1
_geom_bond_atom_site_label_2
_geom_bond_distance
_geom_bond_site_symmetry_2
Cr0 I0 2.737283 1_555
Cr0 I2 2.737748 1_555
Cr0 I6 2.739163 1_455
Cr0 I8 2.739786 1_555
Cr0 I12 2.742480 1_455
Cr0 I14 2.742876 1_555
Cr1 I5 2.737763 1_555
Cr1 I7 2.738551 1_565
Cr1 I1 2.738591 1_555
Cr1 I11 2.738986 1_455
Cr1 I13 2.742976 1_565
Cr1 I17 2.744162 1_455
Cr2 I4 2.736742 1_554
Cr2 I3 2.737969 1_555
Cr2 I9 2.739087 1_555
Cr2 I10 2.739193 1_564
Cr2 I15 2.743420 1_554
Cr2 I16 2.743742 1_565
Cr3 I2 2.736046 1_545
Cr3 I0 2.736470 1_545
Cr3 I6 2.737479 1_555
Cr3 I8 2.737917 1_555
Cr3 I12 2.742665 1_555
Cr3 I14 2.742717 1_555
Cr4 I1 2.736977 1_555
Cr4 I7 2.737217 1_555
Cr4 I5 2.737528 1_555
Cr4 I11 2.737898 1_555
Cr4 I17 2.742182 1_555
Cr4 I13 2.742365 1_555
Cr5 I10 2.736200 1_555
Cr5 I9 2.736888 1_556
Cr5 I3 2.736971 1_656
Cr5 I4 2.737316 1_655
Cr5 I16 2.742174 1_556
Cr5 I15 2.742845 1_555
