# generated using pymatgen
data_Y3Cr2(GaO4)3
_symmetry_space_group_name_H-M   'P 1'
_cell_length_a   10.78219121
_cell_length_b   10.78219121
_cell_length_c   10.78219121
_cell_angle_alpha   109.47122063
_cell_angle_beta   109.47122063
_cell_angle_gamma   109.47122063
_symmetry_Int_Tables_number   1
_chemical_formula_structural   Y3Cr2(GaO4)3
_chemical_formula_sum   'Y12 Cr8 Ga12 O48'
_cell_volume   964.93752902
_cell_formula_units_Z   4
loop_
 _symmetry_equiv_pos_site_id
 _symmetry_equiv_pos_as_xyz
  1  'x, y, z'
loop_
 _atom_site_type_symbol
 _atom_site_label
 _atom_site_symmetry_multiplicity
 _atom_site_fract_x
 _atom_site_fract_y
 _atom_site_fract_z
 _atom_site_occupancy
  Y  Y0  1  0.25000000  0.37500000  0.12500000  1
  Y  Y1  1  0.75000000  0.62500000  0.87500000  1
  Y  Y2  1  0.75000000  0.12500000  0.37500000  1
  Y  Y3  1  0.12500000  0.25000000  0.37500000  1
  Y  Y4  1  0.37500000  0.75000000  0.12500000  1
  Y  Y5  1  0.25000000  0.87500000  0.62500000  1
  Y  Y6  1  0.87500000  0.75000000  0.62500000  1
  Y  Y7  1  0.62500000  0.25000000  0.87500000  1
  Y  Y8  1  0.37500000  0.12500000  0.25000000  1
  Y  Y9  1  0.62500000  0.87500000  0.75000000  1
  Y  Y10  1  0.12500000  0.37500000  0.75000000  1
  Y  Y11  1  0.87500000  0.62500000  0.25000000  1
  Cr  Cr0  1  0.00000000  0.00000000  0.00000000  1
  Cr  Cr1  1  0.50000000  0.00000000  0.50000000  1
  Cr  Cr2  1  0.00000000  0.50000000  0.50000000  1
  Cr  Cr3  1  0.50000000  0.00000000  0.00000000  1
  Cr  Cr4  1  0.50000000  0.50000000  0.00000000  1
  Cr  Cr5  1  0.50000000  0.50000000  0.50000000  1
  Cr  Cr6  1  0.00000000  0.00000000  0.50000000  1
  Cr  Cr7  1  0.00000000  0.50000000  0.00000000  1
  Ga  Ga0  1  0.25000000  0.62500000  0.37500000  1
  Ga  Ga1  1  0.75000000  0.37500000  0.62500000  1
  Ga  Ga2  1  0.75000000  0.87500000  0.12500000  1
  Ga  Ga3  1  0.37500000  0.25000000  0.62500000  1
  Ga  Ga4  1  0.62500000  0.75000000  0.37500000  1
  Ga  Ga5  1  0.25000000  0.12500000  0.87500000  1
  Ga  Ga6  1  0.12500000  0.75000000  0.87500000  1
  Ga  Ga7  1  0.87500000  0.25000000  0.12500000  1
  Ga  Ga8  1  0.62500000  0.37500000  0.25000000  1
  Ga  Ga9  1  0.37500000  0.62500000  0.75000000  1
  Ga  Ga10  1  0.87500000  0.12500000  0.75000000  1
  Ga  Ga11  1  0.12500000  0.87500000  0.25000000  1
  O  O0  1  0.47105100  0.37588200  0.29298600  1
  O  O1  1  0.52894900  0.62411800  0.70701400  1
  O  O2  1  0.58289600  0.17806500  0.20701400  1
  O  O3  1  0.91710400  0.12411800  0.59516900  1
  O  O4  1  0.29298600  0.47105100  0.37588200  1
  O  O5  1  0.32193500  0.91710400  0.29298600  1
  O  O6  1  0.41710400  0.82193500  0.79298600  1
  O  O7  1  0.08289600  0.87588200  0.40483100  1
  O  O8  1  0.70701400  0.52894900  0.62411800  1
  O  O9  1  0.67806500  0.08289600  0.70701400  1
  O  O10  1  0.02894900  0.32193500  0.90483100  1
  O  O11  1  0.20701400  0.58289600  0.17806500  1
  O  O12  1  0.12411800  0.02894900  0.20701400  1
  O  O13  1  0.97105100  0.67806500  0.09516900  1
  O  O14  1  0.79298600  0.41710400  0.82193500  1
  O  O15  1  0.87588200  0.97105100  0.79298600  1
  O  O16  1  0.59516900  0.91710400  0.12411800  1
  O  O17  1  0.17806500  0.47105100  0.59516900  1
  O  O18  1  0.40483100  0.08289600  0.87588200  1
  O  O19  1  0.82193500  0.52894900  0.40483100  1
  O  O20  1  0.90483100  0.02894900  0.32193500  1
  O  O21  1  0.37588200  0.58289600  0.90483100  1
  O  O22  1  0.09516900  0.97105100  0.67806500  1
  O  O23  1  0.62411800  0.41710400  0.09516900  1
  O  O24  1  0.37588200  0.29298600  0.47105100  1
  O  O25  1  0.58289600  0.90483100  0.37588200  1
  O  O26  1  0.62411800  0.70701400  0.52894900  1
  O  O27  1  0.41710400  0.09516900  0.62411800  1
  O  O28  1  0.12411800  0.59516900  0.91710400  1
  O  O29  1  0.02894900  0.20701400  0.12411800  1
  O  O30  1  0.87588200  0.40483100  0.08289600  1
  O  O31  1  0.97105100  0.79298600  0.87588200  1
  O  O32  1  0.32193500  0.90483100  0.02894900  1
  O  O33  1  0.91710400  0.29298600  0.32193500  1
  O  O34  1  0.67806500  0.09516900  0.97105100  1
  O  O35  1  0.08289600  0.70701400  0.67806500  1
  O  O36  1  0.17806500  0.20701400  0.58289600  1
  O  O37  1  0.47105100  0.59516900  0.17806500  1
  O  O38  1  0.82193500  0.79298600  0.41710400  1
  O  O39  1  0.52894900  0.40483100  0.82193500  1
  O  O40  1  0.29298600  0.32193500  0.91710400  1
  O  O41  1  0.70701400  0.67806500  0.08289600  1
  O  O42  1  0.20701400  0.12411800  0.02894900  1
  O  O43  1  0.79298600  0.87588200  0.97105100  1
  O  O44  1  0.90483100  0.37588200  0.58289600  1
  O  O45  1  0.09516900  0.62411800  0.41710400  1
  O  O46  1  0.59516900  0.17806500  0.47105100  1
  O  O47  1  0.40483100  0.82193500  0.52894900  1
loop_
_geom_bond_atom_site_label_1
_geom_bond_atom_site_label_2
_geom_bond_distance
_geom_bond_site_symmetry_2
Cr0 O42 2.033752 1_555
Cr0 O12 2.033752 1_555
Cr0 O29 2.033752 1_555
Cr0 O31 2.033752 1_444
Cr0 O15 2.033752 1_444
Cr0 O43 2.033752 1_444
Cr1 O9 2.033752 1_555
Cr1 O27 2.033752 1_555
Cr1 O46 2.033752 1_555
Cr1 O47 2.033752 1_545
Cr1 O25 2.033752 1_545
Cr1 O5 2.033752 1_545
Cr2 O35 2.033752 1_555
Cr2 O45 2.033752 1_555
Cr2 O17 2.033752 1_555
Cr2 O19 2.033752 1_455
Cr2 O44 2.033752 1_455
Cr2 O33 2.033752 1_455
Cr3 O34 2.033752 1_554
Cr3 O2 2.033752 1_555
Cr3 O6 2.033752 1_544
Cr3 O16 2.033752 1_545
Cr3 O18 2.033752 1_554
Cr3 O32 2.033752 1_545
Cr4 O41 2.033752 1_555
Cr4 O23 2.033752 1_555
Cr4 O39 2.033752 1_554
Cr4 O37 2.033752 1_555
Cr4 O21 2.033752 1_554
Cr4 O40 2.033752 1_554
Cr5 O8 2.033752 1_555
Cr5 O26 2.033752 1_555
Cr5 O1 2.033752 1_555
Cr5 O4 2.033752 1_555
Cr5 O24 2.033752 1_555
Cr5 O0 2.033752 1_555
Cr6 O22 2.033752 1_545
Cr6 O38 2.033752 1_445
Cr6 O36 2.033752 1_555
Cr6 O3 2.033752 1_455
Cr6 O7 2.033752 1_545
Cr6 O20 2.033752 1_455
Cr7 O13 2.033752 1_455
Cr7 O11 2.033752 1_555
Cr7 O14 2.033752 1_454
Cr7 O28 2.033752 1_554
Cr7 O30 2.033752 1_455
Cr7 O10 2.033752 1_554
Ga0 O4 1.868336 1_555
Ga0 O47 1.868336 1_555
Ga0 O11 1.868336 1_555
Ga0 O45 1.868336 1_555
Ga1 O44 1.868336 1_555
Ga1 O14 1.868336 1_555
Ga1 O46 1.868336 1_555
Ga1 O8 1.868336 1_555
Ga2 O20 1.868336 1_565
Ga2 O16 1.868336 1_555
Ga2 O43 1.868336 1_554
Ga2 O41 1.868336 1_555
Ga3 O24 1.868336 1_555
Ga3 O36 1.868336 1_555
Ga3 O39 1.868336 1_555
Ga3 O27 1.868336 1_555
Ga4 O25 1.868336 1_555
Ga4 O38 1.868336 1_555
Ga4 O37 1.868336 1_555
Ga4 O26 1.868336 1_555
Ga5 O40 1.868336 1_555
Ga5 O42 1.868336 1_556
Ga5 O18 1.868336 1_555
Ga5 O22 1.868336 1_545
Ga6 O32 1.868336 1_556
Ga6 O28 1.868336 1_555
Ga6 O31 1.868336 1_455
Ga6 O35 1.868336 1_555
Ga7 O33 1.868336 1_555
Ga7 O29 1.868336 1_655
Ga7 O30 1.868336 1_555
Ga7 O34 1.868336 1_554
Ga8 O0 1.868336 1_555
Ga8 O19 1.868336 1_555
Ga8 O2 1.868336 1_555
Ga8 O23 1.868336 1_555
Ga9 O21 1.868336 1_555
Ga9 O17 1.868336 1_555
Ga9 O6 1.868336 1_555
Ga9 O1 1.868336 1_555
Ga10 O10 1.868336 1_655
Ga10 O3 1.868336 1_555
Ga10 O15 1.868336 1_545
Ga10 O9 1.868336 1_555
Ga11 O5 1.868336 1_555
Ga11 O12 1.868336 1_565
Ga11 O7 1.868336 1_555
Ga11 O13 1.868336 1_455
O0 Y8 2.362462 1_555
O0 Y0 2.461062 1_555
O1 Y9 2.362462 1_555
O1 Y1 2.461062 1_555
O2 Y8 2.362462 1_555
O2 Y2 2.461062 1_555
O3 Y10 2.362462 1_655
O3 Y2 2.461062 1_555
O4 Y0 2.362462 1_555
O4 Y3 2.461062 1_555
O5 Y8 2.362462 1_565
O5 Y4 2.461062 1_555
O6 Y9 2.362462 1_555
O6 Y5 2.461062 1_555
O7 Y11 2.362462 1_455
O7 Y5 2.461062 1_555
O8 Y1 2.362462 1_555
O8 Y6 2.461062 1_555
O9 Y9 2.362462 1_545
O9 Y7 2.461062 1_555
O10 Y10 2.362462 1_555
O10 Y0 2.461062 1_556
O11 Y0 2.362462 1_555
O11 Y4 2.461062 1_555
O12 Y8 2.362462 1_555
O12 Y3 2.461062 1_555
O13 Y11 2.362462 1_555
O13 Y1 2.461062 1_554
O14 Y1 2.362462 1_555
O14 Y7 2.461062 1_555
O15 Y9 2.362462 1_555
O15 Y6 2.461062 1_555
O16 Y2 2.362462 1_565
O16 Y4 2.461062 1_555
O17 Y10 2.362462 1_555
O17 Y3 2.461062 1_555
O18 Y5 2.362462 1_545
O18 Y7 2.461062 1_555
O19 Y11 2.362462 1_555
O19 Y6 2.461062 1_555
O20 Y2 2.362462 1_555
O20 Y3 2.461062 1_655
O21 Y10 2.362462 1_555
O21 Y4 2.461062 1_556
O22 Y5 2.362462 1_555
O22 Y6 2.461062 1_455
O23 Y11 2.362462 1_555
O23 Y7 2.461062 1_554
O24 Y3 2.362462 1_555
O24 Y8 2.461062 1_555
O25 Y4 2.362462 1_555
O25 Y2 2.461062 1_565
O26 Y6 2.362462 1_555
O26 Y9 2.461062 1_555
O27 Y7 2.362462 1_555
O27 Y5 2.461062 1_545
O28 Y4 2.362462 1_556
O28 Y10 2.461062 1_555
O29 Y3 2.362462 1_555
O29 Y0 2.461062 1_555
O30 Y7 2.362462 1_554
O30 Y11 2.461062 1_555
O31 Y6 2.362462 1_555
O31 Y1 2.461062 1_555
O32 Y4 2.362462 1_555
O32 Y8 2.461062 1_565
O33 Y3 2.362462 1_655
O33 Y2 2.461062 1_555
O34 Y7 2.362462 1_555
O34 Y9 2.461062 1_545
O35 Y6 2.362462 1_455
O35 Y5 2.461062 1_555
O36 Y3 2.362462 1_555
O36 Y10 2.461062 1_555
O37 Y4 2.362462 1_555
O37 Y0 2.461062 1_555
O38 Y6 2.362462 1_555
O38 Y11 2.461062 1_555
O39 Y7 2.362462 1_555
O39 Y1 2.461062 1_555
O40 Y0 2.362462 1_556
O40 Y10 2.461062 1_555
O41 Y1 2.362462 1_554
O41 Y11 2.461062 1_555
O42 Y0 2.362462 1_555
O42 Y8 2.461062 1_555
O43 Y1 2.362462 1_555
O43 Y9 2.461062 1_555
O44 Y2 2.362462 1_555
O44 Y10 2.461062 1_655
O45 Y5 2.362462 1_555
O45 Y11 2.461062 1_455
O46 Y2 2.362462 1_555
O46 Y8 2.461062 1_555
O47 Y5 2.362462 1_555
O47 Y9 2.461062 1_555
