# generated using pymatgen
data_CaLa2SbO6
_symmetry_space_group_name_H-M   'P 1'
_cell_length_a   6.01460539
_cell_length_b   6.01460539
_cell_length_c   6.01460499
_cell_angle_alpha   60.80065774
_cell_angle_beta   60.80065774
_cell_angle_gamma   60.80065373
_symmetry_Int_Tables_number   1
_chemical_formula_structural   CaLa2SbO6
_chemical_formula_sum   'Ca1 La2 Sb1 O6'
_cell_volume   156.63156236
_cell_formula_units_Z   1
loop_
 _symmetry_equiv_pos_site_id
 _symmetry_equiv_pos_as_xyz
  1  'x, y, z'
loop_
 _atom_site_type_symbol
 _atom_site_label
 _atom_site_symmetry_multiplicity
 _atom_site_fract_x
 _atom_site_fract_y
 _atom_site_fract_z
 _atom_site_occupancy
  Ca  Ca0  1  0.50000000  0.50000000  0.50000000  1
  La  La0  1  0.76940300  0.76940300  0.76940300  1
  La  La1  1  0.23059700  0.23059700  0.23059700  1
  Sb  Sb0  1  0.00000000  0.00000000  0.00000000  1
  O  O0  1  0.78715400  0.35312300  0.12441000  1
  O  O1  1  0.12441000  0.78715400  0.35312300  1
  O  O2  1  0.35312300  0.12441000  0.78715400  1
  O  O3  1  0.21284600  0.64687700  0.87559000  1
  O  O4  1  0.64687700  0.87559000  0.21284600  1
  O  O5  1  0.87559000  0.21284600  0.64687700  1
loop_
_geom_bond_atom_site_label_1
_geom_bond_atom_site_label_2
_geom_bond_distance
_geom_bond_site_symmetry_2
Ca0 O3 2.349089 1_555
Ca0 O0 2.349089 1_555
Ca0 O5 2.349089 1_555
Ca0 O1 2.349089 1_555
Ca0 O4 2.349090 1_555
Ca0 O2 2.349090 1_555
La0 O2 2.363225 1_565
La0 O1 2.363225 1_655
La0 O0 2.363225 1_556
La0 O4 2.711020 1_556
La0 O3 2.711020 1_655
La0 O5 2.711021 1_565
La1 O4 2.363225 1_545
La1 O5 2.363225 1_455
La1 O3 2.363225 1_554
La1 O2 2.711020 1_554
La1 O0 2.711020 1_455
La1 O1 2.711021 1_545
O0 Sb0 2.161667 1_655
O1 Sb0 2.161667 1_565
O2 Sb0 2.161667 1_556
O3 Sb0 2.161667 1_566
O4 Sb0 2.161667 1_665
O5 Sb0 2.161667 1_656
