# generated using pymatgen
data_Yb2MnCoO6
_symmetry_space_group_name_H-M   'P 1'
_cell_length_a   5.49973122
_cell_length_b   5.11326511
_cell_length_c   8.85568017
_cell_angle_alpha   55.47003748
_cell_angle_beta   90.00000000
_cell_angle_gamma   90.00000000
_symmetry_Int_Tables_number   1
_chemical_formula_structural   Yb2MnCoO6
_chemical_formula_sum   'Yb4 Mn2 Co2 O12'
_cell_volume   205.16309232
_cell_formula_units_Z   2
loop_
 _symmetry_equiv_pos_site_id
 _symmetry_equiv_pos_as_xyz
  1  'x, y, z'
loop_
 _atom_site_type_symbol
 _atom_site_label
 _atom_site_symmetry_multiplicity
 _atom_site_fract_x
 _atom_site_fract_y
 _atom_site_fract_z
 _atom_site_occupancy
  Yb  Yb0  1  0.42169134  0.77304831  0.74923176  1
  Yb  Yb1  1  0.92169134  0.22695169  0.75076824  1
  Yb  Yb2  1  0.57830866  0.22695169  0.25076824  1
  Yb  Yb3  1  0.07830866  0.77304831  0.24923176  1
  Mn  Mn0  1  0.50000000  0.50000000  0.50000000  1
  Mn  Mn1  1  0.00000000  0.50000000  0.00000000  1
  Co  Co0  1  0.50000000  0.00000000  0.00000000  1
  Co  Co1  1  0.00000000  0.00000000  0.50000000  1
  O  O0  1  0.03768650  0.63506054  0.75054871  1
  O  O1  1  0.53768650  0.36493946  0.74945129  1
  O  O2  1  0.96231350  0.36493946  0.24945129  1
  O  O3  1  0.46231350  0.63506054  0.25054871  1
  O  O4  1  0.19157628  0.86454389  0.94519084  1
  O  O5  1  0.69157628  0.13545611  0.55480916  1
  O  O6  1  0.80450869  0.74476076  0.44313700  1
  O  O7  1  0.30450869  0.25523924  0.05686300  1
  O  O8  1  0.80842372  0.13545611  0.05480916  1
  O  O9  1  0.30842372  0.86454389  0.44519084  1
  O  O10  1  0.19549131  0.25523924  0.55686300  1
  O  O11  1  0.69549131  0.74476076  0.94313700  1
loop_
_geom_bond_atom_site_label_1
_geom_bond_atom_site_label_2
_geom_bond_distance
_geom_bond_site_symmetry_2
Mn0 O1 1.915810 1_555
Mn0 O3 1.915810 1_555
Mn0 O9 1.947960 1_555
Mn0 O5 1.947960 1_555
Mn0 O6 1.977398 1_555
Mn0 O10 1.977398 1_555
Mn1 O2 1.915810 1_455
Mn1 O0 1.915810 1_554
Mn1 O4 1.947960 1_554
Mn1 O8 1.947960 1_455
Mn1 O7 1.977398 1_555
Mn1 O11 1.977398 1_454
Co0 O3 1.937589 1_545
Co0 O1 1.937589 1_554
Co0 O7 1.964147 1_555
Co0 O11 1.964147 1_544
Co0 O8 1.993411 1_555
Co0 O4 1.993411 1_544
Co1 O0 1.937589 1_545
Co1 O2 1.937589 1_455
Co1 O10 1.964147 1_555
Co1 O6 1.964147 1_445
Co1 O5 1.993411 1_455
Co1 O9 1.993411 1_545
O0 Yb1 2.181050 1_455
O0 Yb0 2.224602 1_555
O1 Yb0 2.181050 1_555
O1 Yb1 2.224602 1_555
O2 Yb3 2.181050 1_655
O2 Yb2 2.224602 1_555
O3 Yb2 2.181050 1_555
O3 Yb3 2.224602 1_555
O4 Yb1 2.232584 1_465
O4 Yb0 2.398413 1_555
O4 Yb3 2.535427 1_556
O5 Yb0 2.232584 1_545
O5 Yb1 2.398413 1_555
O5 Yb2 2.535427 1_555
O6 Yb3 2.226097 1_655
O6 Yb2 2.401473 1_565
O6 Yb1 2.582650 1_555
O7 Yb2 2.226097 1_555
O7 Yb3 2.401473 1_545
O7 Yb0 2.582650 1_554
O8 Yb3 2.232584 1_645
O8 Yb2 2.398413 1_555
O8 Yb1 2.535427 1_554
O9 Yb2 2.232584 1_565
O9 Yb3 2.398413 1_555
O9 Yb0 2.535427 1_555
O10 Yb1 2.226097 1_455
O10 Yb0 2.401473 1_545
O10 Yb3 2.582650 1_555
O11 Yb0 2.226097 1_555
O11 Yb1 2.401473 1_565
O11 Yb2 2.582650 1_556
