# generated using pymatgen
data_Re4Si7
_symmetry_space_group_name_H-M   'P 1'
_cell_length_a   3.15890000
_cell_length_b   8.34377293
_cell_length_c   11.75621982
_cell_angle_alpha   92.82834520
_cell_angle_beta   97.72104441
_cell_angle_gamma   90.00000000
_symmetry_Int_Tables_number   1
_chemical_formula_structural   Re4Si7
_chemical_formula_sum   'Re8 Si14'
_cell_volume   306.67024893
_cell_formula_units_Z   2
loop_
 _symmetry_equiv_pos_site_id
 _symmetry_equiv_pos_as_xyz
  1  'x, y, z'
loop_
 _atom_site_type_symbol
 _atom_site_label
 _atom_site_symmetry_multiplicity
 _atom_site_fract_x
 _atom_site_fract_y
 _atom_site_fract_z
 _atom_site_occupancy
  Re  Re0  1  0.14910300  0.58871500  0.29820600  1
  Re  Re1  1  0.27428100  0.47987600  0.54856200  1
  Re  Re2  1  0.39832900  0.36661400  0.79665700  1
  Re  Re3  1  0.52284200  0.22369100  0.04568400  1
  Re  Re4  1  0.65236600  0.10969600  0.30473200  1
  Re  Re5  1  0.76856400  0.96996900  0.53712900  1
  Re  Re6  1  0.89846300  0.85008800  0.79692600  1
  Re  Re7  1  0.02376500  0.71598600  0.04753100  1
  Si  Si0  1  0.18296700  0.88946100  0.36593500  1
  Si  Si1  1  0.31627900  0.78811400  0.63255700  1
  Si  Si2  1  0.44199700  0.65522800  0.88399400  1
  Si  Si3  1  0.56770400  0.52363200  0.13540900  1
  Si  Si4  1  0.69019900  0.39445100  0.38039700  1
  Si  Si5  1  0.82654600  0.23494600  0.65309100  1
  Si  Si6  1  0.99563600  0.00023100  0.99127100  1
  Si  Si7  1  0.10490100  0.29412000  0.20980100  1
  Si  Si8  1  0.23474400  0.18422300  0.46948700  1
  Si  Si9  1  0.73007300  0.68476400  0.46014700  1
  Si  Si10  1  0.85552300  0.56036500  0.71104600  1
  Si  Si11  1  0.98086300  0.42154600  0.96172600  1
  Si  Si12  1  0.57844600  0.89682500  0.15689200  1
  Si  Si13  1  0.41427900  0.08085500  0.82855800  1
loop_
_geom_bond_atom_site_label_1
_geom_bond_atom_site_label_2
_geom_bond_distance
_geom_bond_site_symmetry_2
Re0 Si4 2.488638 1_455
Re0 Si4 2.488640 1_555
Re0 Si3 2.506749 1_555
Re0 Si3 2.506751 1_455
Re0 Si9 2.558404 1_555
Re0 Si9 2.558406 1_455
Re0 Si0 2.592728 1_555
Re0 Si7 2.617343 1_555
Re1 Si10 2.530232 1_455
Re1 Si10 2.530232 1_555
Re1 Si9 2.579428 1_555
Re1 Si9 2.579430 1_455
Re1 Si4 2.588735 1_455
Re1 Si4 2.588737 1_555
Re1 Si8 2.589921 1_555
Re1 Si1 2.705801 1_555
Re1 Si5 2.898589 1_455
Re1 Si5 2.898591 1_555
Re2 Si13 2.431313 1_555
Re2 Si10 2.502669 1_555
Re2 Si10 2.502671 1_455
Re2 Si11 2.512939 1_555
Re2 Si11 2.512941 1_455
Re2 Si5 2.513134 1_455
Re2 Si5 2.513134 1_555
Re2 Si2 2.567152 1_555
Re3 Si6 2.501026 1_454
Re3 Si6 2.501028 1_554
Re3 Si11 2.517427 1_454
Re3 Si11 2.517427 1_554
Re3 Si7 2.526552 1_555
Re3 Si7 2.526554 1_655
Re3 Si3 2.663693 1_555
Re3 Si13 2.741935 1_554
Re4 Si12 2.411702 1_545
Re4 Si4 2.492682 1_555
Re4 Si7 2.501012 1_555
Re4 Si7 2.501014 1_655
Re4 Si8 2.538961 1_555
Re4 Si8 2.538963 1_655
Re4 Si0 2.551517 1_645
Re4 Si0 2.551519 1_545
Re5 Si1 2.490160 1_555
Re5 Si1 2.490164 1_655
Re5 Si9 2.500927 1_555
Re5 Si5 2.532910 1_565
Re5 Si8 2.540024 1_565
Re5 Si8 2.540028 1_665
Re5 Si0 2.605744 1_655
Re5 Si0 2.605744 1_555
Re6 Si13 2.503441 1_665
Re6 Si13 2.503441 1_565
Re6 Si1 2.515958 1_555
Re6 Si1 2.515960 1_655
Re6 Si2 2.516182 1_655
Re6 Si2 2.516182 1_555
Re6 Si6 2.532361 1_565
Re6 Si10 2.569790 1_555
Re7 Si12 2.490591 1_455
Re7 Si12 2.490593 1_555
Re7 Si6 2.491829 1_464
Re7 Si3 2.506441 1_555
Re7 Si3 2.506441 1_455
Re7 Si2 2.507001 1_454
Re7 Si2 2.507003 1_554
Re7 Si11 2.605801 1_454
Si0 Si9 2.608258 1_455
Si0 Si9 2.608258 1_555
Si0 Si8 2.684878 1_565
Si0 Si12 2.905839 1_455
Si0 Si12 2.905841 1_555
Si1 Si9 2.664564 1_555
Si1 Si9 2.664568 1_455
Si1 Si10 2.667369 1_555
Si1 Si10 2.667371 1_455
Si3 Si7 2.660490 1_555
Si3 Si7 2.660494 1_655
Si4 Si9 2.550802 1_555
Si4 Si8 2.613424 1_555
Si4 Si8 2.613424 1_655
Si4 Si7 2.641867 1_655
Si4 Si7 2.641867 1_555
Si5 Si8 2.675557 1_655
Si5 Si8 2.675557 1_555
Si10 Si2 2.649846 1_555
Si10 Si2 2.649846 1_655
Si10 Si5 2.765085 1_555
Si11 Si3 2.672540 1_656
Si11 Si3 2.672542 1_556
Si11 Si2 2.700408 1_655
Si11 Si2 2.700408 1_555
Si12 Si6 2.669746 1_464
Si12 Si6 2.669748 1_564
Si13 Si6 2.582109 1_455
Si13 Si6 2.582111 1_555
Si13 Si5 2.930508 1_455
Si13 Si5 2.930509 1_555
