# generated using pymatgen
data_La5AgPb3
_symmetry_space_group_name_H-M   'P 1'
_cell_length_a   9.84926669
_cell_length_b   9.84926669
_cell_length_c   6.98034664
_cell_angle_alpha   90.00000000
_cell_angle_beta   90.00000000
_cell_angle_gamma   119.99999269
_symmetry_Int_Tables_number   1
_chemical_formula_structural   La5AgPb3
_chemical_formula_sum   'La10 Ag2 Pb6'
_cell_volume   586.42901233
_cell_formula_units_Z   2
loop_
 _symmetry_equiv_pos_site_id
 _symmetry_equiv_pos_as_xyz
  1  'x, y, z'
loop_
 _atom_site_type_symbol
 _atom_site_label
 _atom_site_symmetry_multiplicity
 _atom_site_fract_x
 _atom_site_fract_y
 _atom_site_fract_z
 _atom_site_occupancy
  La  La0  1  0.72663299  0.72662107  0.75000000  1
  La  La1  1  0.27337793  0.00001091  0.75000000  1
  La  La2  1  -0.00001091  0.27336801  0.75000000  1
  La  La3  1  0.27337793  0.27336801  0.25000000  1
  La  La4  1  0.72663299  0.00001191  0.25000000  1
  La  La5  1  -0.00001091  0.72662107  0.25000000  1
  La  La6  1  0.66666900  0.33333400  -0.00000000  1
  La  La7  1  0.33333100  0.66666600  -0.00000000  1
  La  La8  1  0.33333100  0.66666600  0.50000000  1
  La  La9  1  0.66666800  0.33333400  0.50000000  1
  Ag  Ag0  1  0.00000000  0.00000000  0.00000000  1
  Ag  Ag1  1  0.00000000  0.00000000  0.50000000  1
  Pb  Pb0  1  0.37714692  0.37714111  0.75000000  1
  Pb  Pb1  1  0.62285889  0.00000682  0.75000000  1
  Pb  Pb2  1  -0.00000582  0.62285208  0.75000000  1
  Pb  Pb3  1  0.62285889  0.62285208  0.25000000  1
  Pb  Pb4  1  0.37714692  0.00000582  0.25000000  1
  Pb  Pb5  1  -0.00000582  0.37714211  0.25000000  1
loop_
_geom_bond_atom_site_label_1
_geom_bond_atom_site_label_2
_geom_bond_distance
_geom_bond_site_symmetry_2
La0 Pb2 3.323464 1_655
La0 Pb1 3.323733 1_565
La0 Pb0 3.442152 1_555
La0 Pb3 3.636749 1_555
La0 Pb3 3.636749 1_556
La1 Pb0 3.323464 1_555
La1 Pb2 3.323721 1_545
La1 Pb1 3.442151 1_555
La1 Pb4 3.636749 1_556
La1 Pb4 3.636749 1_555
La2 Pb1 3.323464 1_455
La2 Pb0 3.323716 1_555
La2 Pb2 3.442137 1_555
La2 Pb5 3.636749 1_556
La2 Pb5 3.636749 1_555
La3 Pb4 3.323473 1_555
La3 Pb5 3.323714 1_555
La3 Pb3 3.442147 1_555
La3 Pb0 3.636748 1_554
La3 Pb0 3.636748 1_555
La4 Pb5 3.323464 1_655
La4 Pb3 3.323733 1_545
La4 Pb4 3.442152 1_555
La4 Pb1 3.636749 1_554
La4 Pb1 3.636749 1_555
La5 Pb3 3.323464 1_455
La5 Pb4 3.323716 1_565
La5 Pb5 3.442137 1_555
La5 Pb2 3.636749 1_554
La5 Pb2 3.636749 1_555
La6 Pb5 3.548676 1_655
La6 Pb2 3.548680 1_654
La6 Pb1 3.548686 1_554
La6 Pb3 3.548695 1_555
La6 Pb4 3.548708 1_555
La6 Pb0 3.548713 1_554
La7 Pb2 3.548756 1_554
La7 Pb5 3.548759 1_555
La7 Pb4 3.548774 1_565
La7 Pb0 3.548783 1_554
La7 Pb1 3.548793 1_564
La7 Pb3 3.548798 1_555
La8 Pb2 3.548756 1_555
La8 Pb5 3.548759 1_555
La8 Pb4 3.548774 1_565
La8 Pb0 3.548783 1_555
La8 Pb1 3.548793 1_565
La8 Pb3 3.548798 1_555
La9 Pb5 3.548684 1_655
La9 Pb2 3.548685 1_655
La9 Pb1 3.548690 1_555
La9 Pb3 3.548690 1_555
La9 Pb0 3.548705 1_555
La9 Pb4 3.548705 1_555
Ag0 La1 3.208580 1_554
Ag0 La4 3.208584 1_455
Ag0 La3 3.208584 1_555
Ag0 La0 3.208584 1_444
Ag0 La2 3.208588 1_554
Ag0 La5 3.208588 1_545
Ag1 La1 3.208580 1_555
Ag1 La4 3.208584 1_455
Ag1 La3 3.208584 1_555
Ag1 La0 3.208584 1_445
Ag1 La2 3.208588 1_555
Ag1 La5 3.208588 1_545
