# generated using pymatgen
data_YbAlRh
_symmetry_space_group_name_H-M   'P 1'
_cell_length_a   4.06777700
_cell_length_b   7.06940400
_cell_length_c   7.88512600
_cell_angle_alpha   90.00000000
_cell_angle_beta   90.00000000
_cell_angle_gamma   90.00000000
_symmetry_Int_Tables_number   1
_chemical_formula_structural   YbAlRh
_chemical_formula_sum   'Yb4 Al4 Rh4'
_cell_volume   226.75066803
_cell_formula_units_Z   4
loop_
 _symmetry_equiv_pos_site_id
 _symmetry_equiv_pos_as_xyz
  1  'x, y, z'
loop_
 _atom_site_type_symbol
 _atom_site_label
 _atom_site_symmetry_multiplicity
 _atom_site_fract_x
 _atom_site_fract_y
 _atom_site_fract_z
 _atom_site_occupancy
  Yb  Yb0  1  0.75000000  0.97053700  0.32685900  1
  Yb  Yb1  1  0.25000000  0.02946300  0.67314100  1
  Yb  Yb2  1  0.25000000  0.52946300  0.82685900  1
  Yb  Yb3  1  0.75000000  0.47053700  0.17314100  1
  Al  Al0  1  0.75000000  0.86366300  0.94000100  1
  Al  Al1  1  0.25000000  0.13633700  0.05999900  1
  Al  Al2  1  0.25000000  0.63633700  0.44000100  1
  Al  Al3  1  0.75000000  0.36366300  0.55999900  1
  Rh  Rh0  1  0.75000000  0.71776400  0.62547800  1
  Rh  Rh1  1  0.25000000  0.28223600  0.37452200  1
  Rh  Rh2  1  0.25000000  0.78223600  0.12547800  1
  Rh  Rh3  1  0.75000000  0.21776400  0.87452200  1
loop_
_geom_bond_atom_site_label_1
_geom_bond_atom_site_label_2
_geom_bond_distance
_geom_bond_site_symmetry_2
Al0 Rh3 2.555974 1_565
Al0 Rh2 2.570408 1_556
Al0 Rh2 2.570408 1_656
Al0 Rh0 2.685980 1_555
Al1 Rh2 2.555974 1_545
Al1 Rh3 2.570408 1_454
Al1 Rh3 2.570408 1_554
Al1 Rh1 2.685980 1_555
Al2 Rh1 2.555974 1_555
Al2 Rh0 2.570408 1_555
Al2 Rh0 2.570408 1_455
Al2 Rh2 2.685980 1_555
Al3 Rh0 2.555974 1_555
Al3 Rh1 2.570408 1_555
Al3 Rh1 2.570408 1_655
Al3 Rh3 2.685980 1_555
Rh0 Yb2 2.903481 1_655
Rh0 Yb2 2.903481 1_555
Rh0 Yb0 2.955939 1_555
Rh0 Yb1 3.022164 1_565
Rh0 Yb1 3.022164 1_665
Rh1 Yb3 2.903481 1_555
Rh1 Yb3 2.903481 1_455
Rh1 Yb1 2.955939 1_555
Rh1 Yb0 3.022164 1_545
Rh1 Yb0 3.022164 1_445
Rh2 Yb0 2.903481 1_555
Rh2 Yb0 2.903481 1_455
Rh2 Yb2 2.955939 1_554
Rh2 Yb3 3.022164 1_455
Rh2 Yb3 3.022164 1_555
Rh3 Yb1 2.903481 1_655
Rh3 Yb1 2.903481 1_555
Rh3 Yb3 2.955939 1_556
Rh3 Yb2 3.022164 1_655
Rh3 Yb2 3.022164 1_555
