# generated using pymatgen
data_YbF3
_symmetry_space_group_name_H-M   'P 1'
_cell_length_a   4.07853339
_cell_length_b   4.07853339
_cell_length_c   4.07853339
_cell_angle_alpha   126.69899911
_cell_angle_beta   126.69899911
_cell_angle_gamma   78.74229105
_symmetry_Int_Tables_number   1
_chemical_formula_structural   YbF3
_chemical_formula_sum   'Yb1 F3'
_cell_volume   42.20825062
_cell_formula_units_Z   1
loop_
 _symmetry_equiv_pos_site_id
 _symmetry_equiv_pos_as_xyz
  1  'x, y, z'
loop_
 _atom_site_type_symbol
 _atom_site_label
 _atom_site_symmetry_multiplicity
 _atom_site_fract_x
 _atom_site_fract_y
 _atom_site_fract_z
 _atom_site_occupancy
  Yb  Yb0  1  0.00000000  0.00000000  0.00000000  1
  F  F0  1  0.75000000  0.25000000  0.50000000  1
  F  F1  1  0.25000000  0.75000000  0.50000000  1
  F  F2  1  0.50000000  0.50000000  0.00000000  1
loop_
_geom_bond_atom_site_label_1
_geom_bond_atom_site_label_2
_geom_bond_distance
_geom_bond_site_symmetry_2
F0 Yb0 2.414951 1_666
F0 Yb0 2.414951 1_555
F0 Yb0 2.414951 1_656
F0 Yb0 2.414951 1_655
F1 Yb0 2.414951 1_666
F1 Yb0 2.414951 1_555
F1 Yb0 2.414951 1_565
F1 Yb0 2.414951 1_566
F2 Yb0 2.587182 1_655
F2 Yb0 2.587182 1_565
F2 Yb0 2.587182 1_554
F2 Yb0 2.587182 1_666
