# generated using pymatgen
data_Mn3Fe8N9
_symmetry_space_group_name_H-M   'P 1'
_cell_length_a   6.51995241
_cell_length_b   7.32057100
_cell_length_c   16.10163081
_cell_angle_alpha   90.00000000
_cell_angle_beta   96.20978040
_cell_angle_gamma   90.00000000
_symmetry_Int_Tables_number   1
_chemical_formula_structural   Mn3Fe8N9
_chemical_formula_sum   'Mn12 Fe32 N36'
_cell_volume   764.01788533
_cell_formula_units_Z   4
loop_
 _symmetry_equiv_pos_site_id
 _symmetry_equiv_pos_as_xyz
  1  'x, y, z'
loop_
 _atom_site_type_symbol
 _atom_site_label
 _atom_site_symmetry_multiplicity
 _atom_site_fract_x
 _atom_site_fract_y
 _atom_site_fract_z
 _atom_site_occupancy
  Mn  Mn0  1  0.46081800  0.09913500  0.73619500  1
  Mn  Mn1  1  0.53918200  0.59913500  0.76380500  1
  Mn  Mn2  1  0.53918200  0.90086500  0.26380500  1
  Mn  Mn3  1  0.46081800  0.40086500  0.23619500  1
  Mn  Mn4  1  0.74863900  0.79855500  0.54883200  1
  Mn  Mn5  1  0.25136100  0.29855500  0.95116800  1
  Mn  Mn6  1  0.25136100  0.20144500  0.45116800  1
  Mn  Mn7  1  0.74863900  0.70144500  0.04883200  1
  Mn  Mn8  1  0.73763400  0.45264600  0.55184800  1
  Mn  Mn9  1  0.26236600  0.95264600  0.94815200  1
  Mn  Mn10  1  0.26236600  0.54735400  0.44815200  1
  Mn  Mn11  1  0.73763400  0.04735400  0.05184800  1
  Fe  Fe0  1  0.44183900  0.86728600  0.10743800  1
  Fe  Fe1  1  0.55816100  0.36728600  0.39256200  1
  Fe  Fe2  1  0.55816100  0.13271400  0.89256200  1
  Fe  Fe3  1  0.44183900  0.63271400  0.60743800  1
  Fe  Fe4  1  0.51592300  0.12342700  0.56843100  1
  Fe  Fe5  1  0.48407700  0.62342700  0.93156900  1
  Fe  Fe6  1  0.48407700  0.87657300  0.43156900  1
  Fe  Fe7  1  0.51592300  0.37657300  0.06843100  1
  Fe  Fe8  1  0.73038200  0.84250600  0.70763200  1
  Fe  Fe9  1  0.26961800  0.34250600  0.79236800  1
  Fe  Fe10  1  0.26961800  0.15749400  0.29236800  1
  Fe  Fe11  1  0.73038200  0.65749400  0.20763200  1
  Fe  Fe12  1  0.72897500  0.36031100  0.70505000  1
  Fe  Fe13  1  0.27102500  0.86031100  0.79495000  1
  Fe  Fe14  1  0.27102500  0.63968900  0.29495000  1
  Fe  Fe15  1  0.72897500  0.13968900  0.20505000  1
  Fe  Fe16  1  0.75701800  0.40938000  0.88619800  1
  Fe  Fe17  1  0.24298200  0.90938000  0.61380200  1
  Fe  Fe18  1  0.24298200  0.59062000  0.11380200  1
  Fe  Fe19  1  0.75701800  0.09062000  0.38619800  1
  Fe  Fe20  1  0.98449700  0.11514700  0.87095800  1
  Fe  Fe21  1  0.01550300  0.61514700  0.62904200  1
  Fe  Fe22  1  0.01550300  0.88485300  0.12904200  1
  Fe  Fe23  1  0.98449700  0.38485300  0.37095800  1
  Fe  Fe24  1  0.97268500  0.10921000  0.66256500  1
  Fe  Fe25  1  0.02731500  0.60921000  0.83743500  1
  Fe  Fe26  1  0.02731500  0.89079000  0.33743500  1
  Fe  Fe27  1  0.97268500  0.39079000  0.16256500  1
  Fe  Fe28  1  0.23604500  0.33782100  0.61238500  1
  Fe  Fe29  1  0.76395500  0.83782100  0.88761500  1
  Fe  Fe30  1  0.76395500  0.66217900  0.38761500  1
  Fe  Fe31  1  0.23604500  0.16217900  0.11238500  1
  N  N0  1  0.52649000  0.38594000  0.61299500  1
  N  N1  1  0.47351000  0.88594000  0.88700500  1
  N  N2  1  0.47351000  0.61406000  0.38700500  1
  N  N3  1  0.52649000  0.11406000  0.11299500  1
  N  N4  1  0.56363000  0.30877500  0.79707300  1
  N  N5  1  0.43637000  0.80877500  0.70292700  1
  N  N6  1  0.43637000  0.69122500  0.20292700  1
  N  N7  1  0.56363000  0.19122500  0.29707300  1
  N  N8  1  0.81062700  0.06300600  0.94496000  1
  N  N9  1  0.18937300  0.56300600  0.55504000  1
  N  N10  1  0.18937300  0.93699400  0.05504000  1
  N  N11  1  0.81062700  0.43699400  0.44496000  1
  N  N12  1  0.46755800  0.84950400  0.54589000  1
  N  N13  1  0.53244200  0.34950400  0.95411000  1
  N  N14  1  0.53244200  0.15049600  0.45411000  1
  N  N15  1  0.46755800  0.65049600  0.04589000  1
  N  N16  1  0.69080800  0.09487100  0.67162200  1
  N  N17  1  0.30919200  0.59487100  0.82837800  1
  N  N18  1  0.30919200  0.90512900  0.32837800  1
  N  N19  1  0.69080800  0.40512900  0.17162200  1
  N  N20  1  0.94456100  0.36242700  0.62992600  1
  N  N21  1  0.05543900  0.86242700  0.87007400  1
  N  N22  1  0.05543900  0.63757300  0.37007300  1
  N  N23  1  0.94456100  0.13757300  0.12992700  1
  N  N24  1  0.04126100  0.36156500  0.86973300  1
  N  N25  1  0.95873900  0.86156500  0.63026700  1
  N  N26  1  0.95873900  0.63843500  0.13026700  1
  N  N27  1  0.04126100  0.13843500  0.36973300  1
  N  N28  1  0.21262000  0.12204100  0.55408200  1
  N  N29  1  0.78738000  0.62204100  0.94591800  1
  N  N30  1  0.78738000  0.87795900  0.44591800  1
  N  N31  1  0.21262000  0.37795900  0.05408200  1
  N  N32  1  0.17733300  0.10711900  0.75118900  1
  N  N33  1  0.82266700  0.60711900  0.74881100  1
  N  N34  1  0.82266700  0.89288100  0.24881100  1
  N  N35  1  0.17733300  0.39288100  0.25118900  1
loop_
_geom_bond_atom_site_label_1
_geom_bond_atom_site_label_2
_geom_bond_distance
_geom_bond_site_symmetry_2
Mn0 N32 1.890631 1_555
Mn0 N4 1.903499 1_555
Mn0 N16 1.915171 1_555
Mn0 N5 2.193640 1_545
Mn1 N33 1.890631 1_555
Mn1 N5 1.903499 1_555
Mn1 N17 1.915171 1_555
Mn1 N4 2.193640 1_555
Mn2 N34 1.890631 1_555
Mn2 N6 1.903499 1_555
Mn2 N18 1.915171 1_555
Mn2 N7 2.193640 1_565
Mn3 N35 1.890631 1_555
Mn3 N7 1.903499 1_555
Mn3 N19 1.915171 1_555
Mn3 N6 2.193640 1_555
Mn4 N30 1.799491 1_555
Mn4 N25 1.849322 1_555
Mn4 N12 1.865777 1_555
Mn5 N31 1.799491 1_556
Mn5 N24 1.849322 1_555
Mn5 N13 1.865777 1_555
Mn6 N28 1.799491 1_555
Mn6 N27 1.849322 1_555
Mn6 N14 1.865777 1_555
Mn7 N29 1.799491 1_554
Mn7 N26 1.849322 1_555
Mn7 N15 1.865777 1_555
Mn8 N11 1.838179 1_555
Mn8 N0 1.842884 1_555
Mn8 N20 1.862790 1_555
Mn9 N10 1.838179 1_556
Mn9 N1 1.842884 1_555
Mn9 N21 1.862790 1_555
Mn10 N9 1.838179 1_555
Mn10 N2 1.842884 1_555
Mn10 N22 1.862800 1_555
Mn11 N8 1.838179 1_554
Mn11 N3 1.842884 1_555
Mn11 N23 1.862800 1_555
Fe0 N10 1.838836 1_555
Fe0 N15 1.888081 1_555
Fe0 N3 1.888247 1_565
Fe0 N6 2.009553 1_555
Fe1 N11 1.838836 1_555
Fe1 N14 1.888081 1_555
Fe1 N2 1.888247 1_555
Fe1 N7 2.009553 1_555
Fe2 N8 1.838836 1_555
Fe2 N13 1.888081 1_555
Fe2 N1 1.888247 1_545
Fe2 N4 2.009553 1_555
Fe3 N9 1.838836 1_555
Fe3 N12 1.888081 1_555
Fe3 N0 1.888247 1_555
Fe3 N5 2.009553 1_555
Fe4 N14 1.866048 1_555
Fe4 N16 1.922163 1_555
Fe4 N28 1.966019 1_555
Fe4 N0 2.049887 1_555
Fe4 N12 2.056095 1_545
Fe5 N15 1.866048 1_556
Fe5 N17 1.922163 1_555
Fe5 N29 1.966019 1_555
Fe5 N1 2.049887 1_555
Fe5 N13 2.056095 1_555
Fe6 N12 1.866048 1_555
Fe6 N18 1.922163 1_555
Fe6 N30 1.966019 1_555
Fe6 N2 2.049887 1_555
Fe6 N14 2.056095 1_565
Fe7 N13 1.866048 1_554
Fe7 N19 1.922163 1_555
Fe7 N31 1.966019 1_555
Fe7 N3 2.049887 1_555
Fe7 N15 2.056095 1_555
Fe8 N33 1.919548 1_555
Fe8 N5 1.926129 1_555
Fe8 N16 1.945120 1_565
Fe8 N25 2.046763 1_555
Fe9 N32 1.919548 1_555
Fe9 N4 1.926129 1_555
Fe9 N17 1.945120 1_555
Fe9 N24 2.046763 1_555
Fe10 N35 1.919548 1_555
Fe10 N7 1.926129 1_555
Fe10 N18 1.945120 1_545
Fe10 N27 2.046763 1_555
Fe11 N34 1.919548 1_555
Fe11 N6 1.926129 1_555
Fe11 N19 1.945120 1_555
Fe11 N26 2.046763 1_555
Fe12 N0 1.884620 1_555
Fe12 N20 1.951150 1_555
Fe12 N4 1.961013 1_555
Fe12 N33 2.010217 1_555
Fe12 N16 2.024494 1_555
Fe13 N1 1.884620 1_555
Fe13 N21 1.951150 1_555
Fe13 N5 1.961013 1_555
Fe13 N32 2.010217 1_565
Fe13 N17 2.024494 1_555
Fe14 N2 1.884620 1_555
Fe14 N22 1.951139 1_555
Fe14 N6 1.961013 1_555
Fe14 N35 2.010217 1_555
Fe14 N18 2.024494 1_555
Fe15 N3 1.884620 1_555
Fe15 N23 1.951139 1_555
Fe15 N7 1.961013 1_555
Fe15 N34 2.010217 1_545
Fe15 N19 2.024494 1_555
Fe16 N29 1.829286 1_555
Fe16 N24 1.932263 1_655
Fe16 N4 1.949403 1_555
Fe16 N13 1.969314 1_555
Fe17 N28 1.829286 1_565
Fe17 N25 1.932263 1_455
Fe17 N5 1.949403 1_555
Fe17 N12 1.969314 1_555
Fe18 N31 1.829286 1_555
Fe18 N26 1.932263 1_455
Fe18 N6 1.949403 1_555
Fe18 N15 1.969314 1_555
Fe19 N30 1.829286 1_545
Fe19 N27 1.932263 1_655
Fe19 N7 1.949403 1_555
Fe19 N14 1.969314 1_555
Fe20 N8 1.772801 1_555
Fe20 N24 1.842029 1_655
Fe20 N21 1.907425 1_645
Fe20 N32 2.414078 1_655
Fe21 N9 1.772801 1_555
Fe21 N25 1.842029 1_455
Fe21 N20 1.907425 1_455
Fe21 N33 2.414078 1_455
Fe22 N10 1.772801 1_555
Fe22 N26 1.842029 1_455
Fe22 N23 1.907426 1_465
Fe22 N34 2.414078 1_455
Fe23 N11 1.772801 1_555
Fe23 N27 1.842029 1_655
Fe23 N22 1.907426 1_655
Fe23 N35 2.414078 1_655
Fe24 N32 1.845255 1_655
Fe24 N16 1.862221 1_555
Fe24 N25 1.885499 1_545
Fe24 N20 1.930064 1_555
Fe25 N33 1.845255 1_455
Fe25 N17 1.862221 1_555
Fe25 N24 1.885499 1_555
Fe25 N21 1.930064 1_555
Fe26 N34 1.845255 1_455
Fe26 N18 1.862221 1_555
Fe26 N27 1.885499 1_565
Fe26 N22 1.930060 1_555
Fe27 N35 1.845255 1_655
Fe27 N19 1.862221 1_555
Fe27 N26 1.885499 1_555
Fe27 N23 1.930060 1_555
Fe28 N28 1.835441 1_555
Fe28 N9 1.897862 1_555
Fe28 N0 1.925152 1_555
Fe28 N20 1.959616 1_455
Fe29 N29 1.835441 1_555
Fe29 N8 1.897862 1_565
Fe29 N1 1.925152 1_555
Fe29 N21 1.959616 1_655
Fe30 N30 1.835441 1_555
Fe30 N11 1.897862 1_555
Fe30 N2 1.925152 1_555
Fe30 N22 1.959620 1_655
Fe31 N31 1.835441 1_555
Fe31 N10 1.897862 1_545
Fe31 N3 1.925152 1_555
Fe31 N23 1.959620 1_455
