# generated using pymatgen
data_RbUCrIO10
_symmetry_space_group_name_H-M   'P 1'
_cell_length_a   7.34895600
_cell_length_b   8.22969316
_cell_length_c   8.72199158
_cell_angle_alpha   87.06752060
_cell_angle_beta   86.60492690
_cell_angle_gamma   73.00084028
_symmetry_Int_Tables_number   1
_chemical_formula_structural   RbUCrIO10
_chemical_formula_sum   'Rb2 U2 Cr2 I2 O20'
_cell_volume   503.25396309
_cell_formula_units_Z   2
loop_
 _symmetry_equiv_pos_site_id
 _symmetry_equiv_pos_as_xyz
  1  'x, y, z'
loop_
 _atom_site_type_symbol
 _atom_site_label
 _atom_site_symmetry_multiplicity
 _atom_site_fract_x
 _atom_site_fract_y
 _atom_site_fract_z
 _atom_site_occupancy
  Rb  Rb0  1  0.33517000  0.32275200  0.65441600  1
  Rb  Rb1  1  0.66483000  0.67724800  0.34558400  1
  U  U0  1  0.87331100  0.84504600  0.77535800  1
  U  U1  1  0.12668900  0.15495400  0.22464200  1
  Cr  Cr0  1  0.20388400  0.57825600  0.08684900  1
  Cr  Cr1  1  0.79611600  0.42174400  0.91315100  1
  I  I0  1  0.38790800  0.79302000  0.78255400  1
  I  I1  1  0.61209200  0.20698000  0.21744600  1
  O  O0  1  0.13865600  0.65024900  0.90216100  1
  O  O1  1  0.86134400  0.34975100  0.09783900  1
  O  O2  1  0.25601200  0.36023600  0.10501000  1
  O  O3  1  0.74398800  0.63976400  0.89499000  1
  O  O4  1  0.03646500  0.66680000  0.21067900  1
  O  O5  1  0.96353500  0.33320000  0.78932100  1
  O  O6  1  0.39371700  0.63315800  0.11571800  1
  O  O7  1  0.60628300  0.36684200  0.88428200  1
  O  O8  1  0.53773600  0.93732300  0.72525100  1
  O  O9  1  0.46226400  0.06267700  0.27474900  1
  O  O10  1  0.15921900  0.92730500  0.70729800  1
  O  O11  1  0.84078100  0.07269500  0.29270200  1
  O  O12  1  0.46184700  0.63772900  0.63615600  1
  O  O13  1  0.53815300  0.36227100  0.36384400  1
  O  O14  1  0.79735300  0.10238400  0.63142700  1
  O  O15  1  0.20264700  0.89761600  0.36857300  1
  O  O16  1  0.92217200  0.71691200  0.60592800  1
  O  O17  1  0.07782800  0.28308800  0.39407200  1
  O  O18  1  0.81329100  0.97410600  0.94460400  1
  O  O19  1  0.18670900  0.02589400  0.05539600  1
loop_
_geom_bond_atom_site_label_1
_geom_bond_atom_site_label_2
_geom_bond_distance
_geom_bond_site_symmetry_2
Cr0 O4 1.615602 1_555
Cr0 O6 1.623450 1_555
Cr0 O2 1.722597 1_555
Cr0 O0 1.733028 1_554
Cr1 O5 1.615602 1_555
Cr1 O7 1.623450 1_555
Cr1 O3 1.722597 1_555
Cr1 O1 1.733028 1_556
I0 O12 1.799363 1_555
I0 O10 1.856632 1_555
I0 O8 1.873809 1_555
I1 O13 1.799363 1_555
I1 O11 1.856632 1_555
I1 O9 1.873809 1_555
O0 U0 2.416993 1_455
O0 Rb0 3.459667 1_555
O1 U1 2.416993 1_655
O1 Rb1 3.459667 1_555
O2 U1 2.342452 1_555
O3 U0 2.342452 1_555
O4 Rb1 2.888489 1_455
O5 Rb0 2.888489 1_655
O6 Rb1 3.015153 1_555
O7 Rb0 3.015153 1_555
O8 U0 2.418288 1_555
O8 Rb0 3.131542 1_565
O9 U1 2.418288 1_555
O9 Rb1 3.131542 1_545
O10 U0 2.422446 1_455
O11 U1 2.422446 1_655
O12 Rb1 2.916430 1_555
O12 Rb0 2.993751 1_555
O13 Rb0 2.916430 1_555
O13 Rb1 2.993751 1_555
O14 U0 2.343587 1_545
O14 Rb0 3.349719 1_555
O15 U1 2.343587 1_565
O15 Rb1 3.349719 1_555
O16 U0 1.816563 1_555
O16 Rb1 3.128060 1_555
O17 U1 1.816563 1_555
O17 Rb0 3.128060 1_555
O18 U0 1.819640 1_555
O19 U1 1.819640 1_555
