# generated using pymatgen
data_Li9La12(SnO6)8
_symmetry_space_group_name_H-M   'P 1'
_cell_length_a   11.37377718
_cell_length_b   11.37377718
_cell_length_c   11.37377718
_cell_angle_alpha   108.71922744
_cell_angle_beta   108.71922744
_cell_angle_gamma   110.98590789
_symmetry_Int_Tables_number   1
_chemical_formula_structural   Li9La12(SnO6)8
_chemical_formula_sum   'Li9 La12 Sn8 O48'
_cell_volume   1132.04548641
_cell_formula_units_Z   1
loop_
 _symmetry_equiv_pos_site_id
 _symmetry_equiv_pos_as_xyz
  1  'x, y, z'
loop_
 _atom_site_type_symbol
 _atom_site_label
 _atom_site_symmetry_multiplicity
 _atom_site_fract_x
 _atom_site_fract_y
 _atom_site_fract_z
 _atom_site_occupancy
  Li  Li0  1  0.25060400  0.62579000  0.12271900  1
  Li  Li1  1  0.50307100  0.12788500  0.87728100  1
  Li  Li2  1  0.87211500  0.74939600  0.37518600  1
  Li  Li3  1  0.37421000  0.49692900  0.62481400  1
  Li  Li4  1  0.25000000  0.75000000  0.50000000  1
  Li  Li5  1  0.00171700  0.12519800  0.37451800  1
  Li  Li6  1  0.75068000  0.62719800  0.62548200  1
  Li  Li7  1  0.37280200  0.99828300  0.12348200  1
  Li  Li8  1  0.87480200  0.24932000  0.87651800  1
  La  La0  1  0.99787700  0.49787700  0.50000000  1
  La  La1  1  0.74968800  0.74968800  0.00000000  1
  La  La2  1  0.99807600  0.62618400  0.87396900  1
  La  La3  1  0.75221500  0.12410700  0.12603100  1
  La  La4  1  0.87874400  0.50042300  0.13108400  1
  La  La5  1  0.36933900  0.74766000  0.86891600  1
  La  La6  1  0.25031200  0.25031200  0.00000000  1
  La  La7  1  0.50212300  0.00212300  0.50000000  1
  La  La8  1  0.25234000  0.12125600  0.62167900  1
  La  La9  1  0.49957700  0.63066100  0.37832100  1
  La  La10  1  0.37381600  0.24778500  0.37189200  1
  La  La11  1  0.87589300  0.00192400  0.62810800  1
  Sn  Sn0  1  0.12770500  0.86874000  0.74867500  1
  Sn  Sn1  1  0.12006500  0.37903000  0.25132500  1
  Sn  Sn2  1  0.62477900  0.37413100  0.75006300  1
  Sn  Sn3  1  0.62406800  0.87471700  0.24993700  1
  Sn  Sn4  1  0.12528300  0.37522100  0.74935200  1
  Sn  Sn5  1  0.13126000  0.87993500  0.25896500  1
  Sn  Sn6  1  0.62586900  0.37593200  0.25064800  1
  Sn  Sn7  1  0.62097000  0.87229500  0.74103500  1
  O  O0  1  0.21817700  0.49891800  0.66830000  1
  O  O1  1  0.83061800  0.54987700  0.33170000  1
  O  O2  1  0.92151800  0.75120400  0.21773700  1
  O  O3  1  0.53346800  0.70378100  0.78226300  1
  O  O4  1  0.00492900  0.83499300  0.05189800  1
  O  O5  1  0.96019300  0.41361900  0.66921500  1
  O  O6  1  0.74440300  0.29097800  0.33078500  1
  O  O7  1  0.78309500  0.95303100  0.94810200  1
  O  O8  1  0.65701900  0.28003100  0.08228900  1
  O  O9  1  0.09466700  0.67722700  0.12598200  1
  O  O10  1  0.19774200  0.57473000  0.91771100  1
  O  O11  1  0.55124500  0.96868500  0.87401800  1
  O  O12  1  0.03499600  0.25067500  0.83173700  1
  O  O13  1  0.41893800  0.20325900  0.16826300  1
  O  O14  1  0.33266300  0.00217100  0.28307300  1
  O  O15  1  0.71909800  0.04959000  0.71692700  1
  O  O16  1  0.24901800  0.90489200  0.45511200  1
  O  O17  1  0.28844900  0.33381200  0.83052300  1
  O  O18  1  0.50328900  0.45792600  0.16947700  1
  O  O19  1  0.44978000  0.79390600  0.54488800  1
  O  O20  1  0.59214400  0.47064800  0.41772700  1
  O  O21  1  0.15420400  0.07808500  0.37462200  1
  O  O22  1  0.05292200  0.17441700  0.58227300  1
  O  O23  1  0.70346300  0.77958200  0.62537800  1
  O  O24  1  0.03131500  0.90533300  0.58256000  1
  O  O25  1  0.42527000  0.34298100  0.62301300  1
  O  O26  1  0.32277300  0.44875500  0.41744000  1
  O  O27  1  0.71996900  0.80225800  0.37698700  1
  O  O28  1  0.24879600  0.46653200  0.17031300  1
  O  O29  1  0.29621900  0.07848200  0.82968700  1
  O  O30  1  0.50108200  0.16938200  0.71925900  1
  O  O31  1  0.45012300  0.78182300  0.28074100  1
  O  O32  1  0.58638100  0.25559700  0.54657500  1
  O  O33  1  0.16500700  0.21690500  0.16993600  1
  O  O34  1  0.04696900  0.99507100  0.83006400  1
  O  O35  1  0.70902200  0.03980700  0.45342500  1
  O  O36  1  0.22041800  0.84579600  0.92388100  1
  O  O37  1  0.82558300  0.40785600  0.87850400  1
  O  O38  1  0.92191500  0.29653700  0.07611900  1
  O  O39  1  0.52935200  0.94707800  0.12149600  1
  O  O40  1  0.99782900  0.28090200  0.33049300  1
  O  O41  1  0.95041000  0.66733700  0.66950700  1
  O  O42  1  0.74932500  0.58106200  0.78432100  1
  O  O43  1  0.79674100  0.96500400  0.21567900  1
  O  O44  1  0.66618800  0.49671100  0.95463700  1
  O  O45  1  0.09510800  0.55022000  0.34412600  1
  O  O46  1  0.20609400  0.75098200  0.65587400  1
  O  O47  1  0.54207400  0.71155100  0.04536300  1
loop_
_geom_bond_atom_site_label_1
_geom_bond_atom_site_label_2
_geom_bond_distance
_geom_bond_site_symmetry_2
Li0 O31 1.994899 1_555
Li0 O10 2.028927 1_554
Li0 O28 2.045563 1_555
Li0 O9 2.064171 1_555
Li1 O30 1.994899 1_555
Li1 O8 2.028927 1_556
Li1 O29 2.045561 1_555
Li1 O11 2.064171 1_545
Li2 O1 1.994899 1_555
Li2 O27 2.028925 1_555
Li2 O2 2.045559 1_555
Li2 O24 2.064171 1_655
Li3 O0 1.994899 1_555
Li3 O25 2.028929 1_555
Li3 O3 2.045561 1_555
Li3 O26 2.064171 1_555
Li4 O46 1.987999 1_555
Li4 O45 1.987999 1_555
Li4 O19 1.987999 1_555
Li4 O16 1.987999 1_555
Li5 O21 1.989947 1_555
Li5 O40 1.999997 1_455
Li5 O43 2.039602 1_445
Li5 O22 2.066458 1_555
Li6 O23 1.989958 1_555
Li6 O41 2.000002 1_555
Li6 O42 2.039596 1_555
Li6 O20 2.066458 1_555
Li7 O36 1.989956 1_554
Li7 O14 1.999997 1_565
Li7 O13 2.039607 1_565
Li7 O39 2.066458 1_555
Li8 O38 1.989958 1_556
Li8 O15 2.000000 1_555
Li8 O12 2.039596 1_655
Li8 O37 2.066458 1_555
La0 O45 2.486927 1_655
La0 O46 2.486927 1_655
La0 O5 2.495069 1_555
La0 O6 2.495076 1_555
La0 O41 2.598383 1_555
La0 O40 2.598384 1_555
La0 O1 2.613083 1_555
La0 O0 2.613083 1_655
La1 O44 2.494463 1_554
La1 O47 2.494463 1_555
La1 O7 2.496500 1_554
La1 O4 2.496500 1_655
La1 O43 2.581478 1_555
La1 O42 2.581478 1_554
La1 O3 2.606657 1_554
La1 O2 2.606664 1_555
La2 O41 2.447890 1_555
La2 O42 2.465784 1_555
La2 O10 2.482114 1_655
La2 O9 2.492737 1_656
La2 O4 2.534390 1_656
La2 O5 2.539704 1_555
La2 O36 2.569136 1_655
La2 O37 2.583729 1_555
La3 O40 2.447884 1_555
La3 O43 2.465784 1_545
La3 O8 2.482114 1_555
La3 O11 2.492737 1_544
La3 O7 2.534390 1_544
La3 O6 2.539710 1_555
La3 O38 2.569136 1_555
La3 O39 2.583733 1_545
La4 O1 2.453742 1_555
La4 O38 2.468110 1_555
La4 O37 2.492934 1_554
La4 O2 2.497541 1_555
La4 O45 2.557630 1_655
La4 O8 2.575269 1_555
La4 O44 2.575323 1_554
La4 O9 2.589874 1_655
La5 O0 2.453742 1_555
La5 O36 2.468110 1_555
La5 O39 2.492931 1_556
La5 O3 2.497552 1_555
La5 O46 2.557630 1_555
La5 O10 2.575269 1_555
La5 O47 2.575323 1_556
La5 O11 2.589874 1_555
La6 O17 2.494463 1_554
La6 O18 2.494463 1_555
La6 O34 2.496500 1_544
La6 O33 2.496500 1_555
La6 O13 2.581478 1_555
La6 O12 2.581478 1_554
La6 O28 2.606651 1_555
La6 O29 2.606657 1_554
La7 O19 2.486927 1_545
La7 O16 2.486927 1_545
La7 O35 2.495076 1_555
La7 O32 2.495077 1_555
La7 O14 2.598389 1_555
La7 O15 2.598389 1_555
La7 O31 2.613083 1_545
La7 O30 2.613083 1_555
La8 O30 2.453742 1_555
La8 O21 2.468110 1_555
La8 O22 2.492923 1_555
La8 O29 2.497552 1_555
La8 O16 2.557630 1_545
La8 O25 2.575263 1_555
La8 O17 2.575323 1_555
La8 O24 2.589874 1_545
La9 O31 2.453742 1_555
La9 O23 2.468110 1_555
La9 O20 2.492934 1_555
La9 O28 2.497545 1_555
La9 O19 2.557630 1_555
La9 O27 2.575275 1_555
La9 O18 2.575323 1_555
La9 O26 2.589874 1_555
La10 O14 2.447880 1_555
La10 O13 2.465784 1_555
La10 O25 2.482125 1_555
La10 O26 2.492737 1_555
La10 O33 2.534390 1_555
La10 O32 2.539702 1_555
La10 O21 2.569136 1_555
La10 O20 2.583729 1_555
La11 O15 2.447880 1_555
La11 O12 2.465784 1_655
La11 O27 2.482121 1_545
La11 O24 2.492737 1_645
La11 O34 2.534390 1_645
La11 O35 2.539710 1_555
La11 O23 2.569136 1_545
La11 O22 2.583735 1_655
O0 Sn4 2.082896 1_555
O1 Sn6 2.082891 1_555
O2 Sn5 2.096189 1_655
O3 Sn7 2.096186 1_555
O4 Sn5 2.098014 1_555
O5 Sn4 2.071620 1_655
O6 Sn6 2.071622 1_555
O7 Sn7 2.098014 1_555
O8 Sn6 2.086542 1_555
O9 Sn5 2.108755 1_555
O10 Sn4 2.086538 1_555
O11 Sn7 2.108755 1_555
O12 Sn4 2.089701 1_555
O13 Sn6 2.089705 1_555
O14 Sn5 2.080009 1_545
O15 Sn7 2.080009 1_545
O16 Sn5 2.062724 1_555
O17 Sn4 2.079334 1_555
O18 Sn6 2.079325 1_555
O19 Sn7 2.062724 1_555
O20 Sn6 2.090150 1_555
O21 Sn5 2.081645 1_545
O22 Sn4 2.090156 1_555
O23 Sn7 2.081645 1_555
O24 Sn0 2.108755 1_555
O25 Sn2 2.086538 1_555
O26 Sn1 2.108755 1_555
O27 Sn3 2.086543 1_555
O28 Sn1 2.096194 1_555
O29 Sn0 2.096186 1_545
O30 Sn2 2.082891 1_555
O31 Sn3 2.082894 1_555
O32 Sn2 2.071617 1_555
O33 Sn1 2.098014 1_555
O34 Sn0 2.098014 1_555
O35 Sn3 2.071617 1_545
O36 Sn0 2.081645 1_555
O37 Sn2 2.090150 1_555
O38 Sn1 2.081645 1_655
O39 Sn3 2.090132 1_555
O40 Sn1 2.080018 1_655
O41 Sn0 2.080006 1_655
O42 Sn2 2.089705 1_555
O43 Sn3 2.089703 1_555
O44 Sn2 2.079325 1_555
O45 Sn1 2.062724 1_555
O46 Sn0 2.062724 1_555
O47 Sn3 2.079329 1_555
