# generated using pymatgen
data_Y2GaAg
_symmetry_space_group_name_H-M   'P 1'
_cell_length_a   12.14340163
_cell_length_b   12.14340163
_cell_length_c   12.14340163
_cell_angle_alpha   122.57733983
_cell_angle_beta   119.14326665
_cell_angle_gamma   88.54266083
_symmetry_Int_Tables_number   1
_chemical_formula_structural   Y2GaAg
_chemical_formula_sum   'Y2 Ga1 Ag1'
_cell_volume   1247.85936393
_cell_formula_units_Z   1
loop_
 _symmetry_equiv_pos_site_id
 _symmetry_equiv_pos_as_xyz
  1  'x, y, z'
loop_
 _atom_site_type_symbol
 _atom_site_label
 _atom_site_symmetry_multiplicity
 _atom_site_fract_x
 _atom_site_fract_y
 _atom_site_fract_z
 _atom_site_occupancy
  Y  Y0  1  0.00000000  0.24242300  0.24242300  1
  Y  Y1  1  0.00000000  0.75757700  0.75757700  1
  Ga  Ga0  1  0.00000000  0.00000000  0.00000000  1
  Ag  Ag0  1  0.00000000  0.50000000  0.50000000  1
loop_
_geom_bond_atom_site_label_1
_geom_bond_atom_site_label_2
_geom_bond_distance
_geom_bond_site_symmetry_2
Ga0 Y0 2.828423 1_555
Ga0 Y1 2.828423 1_544
Ag0 Y1 3.005230 1_555
Ag0 Y0 3.005230 1_555
