# generated using pymatgen
data_NiOF
_symmetry_space_group_name_H-M   'P 1'
_cell_length_a   2.88457400
_cell_length_b   2.88457400
_cell_length_c   3.85059500
_cell_angle_alpha   90.00000000
_cell_angle_beta   90.00000000
_cell_angle_gamma   90.00000000
_symmetry_Int_Tables_number   1
_chemical_formula_structural   NiOF
_chemical_formula_sum   'Ni1 O1 F1'
_cell_volume   32.03990443
_cell_formula_units_Z   1
loop_
 _symmetry_equiv_pos_site_id
 _symmetry_equiv_pos_as_xyz
  1  'x, y, z'
loop_
 _atom_site_type_symbol
 _atom_site_label
 _atom_site_symmetry_multiplicity
 _atom_site_fract_x
 _atom_site_fract_y
 _atom_site_fract_z
 _atom_site_occupancy
  Ni  Ni0  1  0.00000000  0.00000000  0.00000000  1
  O  O0  1  0.50000000  0.50000000  0.00000000  1
  F  F0  1  0.00000000  0.00000000  0.50000000  1
loop_
_geom_bond_atom_site_label_1
_geom_bond_atom_site_label_2
_geom_bond_distance
_geom_bond_site_symmetry_2
Ni0 O0 2.039702 1_445
Ni0 O0 2.039702 1_455
Ni0 O0 2.039702 1_555
Ni0 O0 2.039702 1_545
F0 Ni0 1.925298 1_556
F0 Ni0 1.925298 1_555
