# generated using pymatgen
data_Te2Mo3WS6
_symmetry_space_group_name_H-M   'P 1'
_cell_length_a   3.27325750
_cell_length_b   3.27325750
_cell_length_c   37.12169300
_cell_angle_alpha   90.00000000
_cell_angle_beta   90.00000000
_cell_angle_gamma   119.99998983
_symmetry_Int_Tables_number   1
_chemical_formula_structural   Te2Mo3WS6
_chemical_formula_sum   'Te2 Mo3 W1 S6'
_cell_volume   344.44413434
_cell_formula_units_Z   1
loop_
 _symmetry_equiv_pos_site_id
 _symmetry_equiv_pos_as_xyz
  1  'x, y, z'
loop_
 _atom_site_type_symbol
 _atom_site_label
 _atom_site_symmetry_multiplicity
 _atom_site_fract_x
 _atom_site_fract_y
 _atom_site_fract_z
 _atom_site_occupancy
  Te  Te0  1  0.33333300  0.66666700  0.70945400  1
  Te  Te1  1  0.33333300  0.66666700  0.60566100  1
  Mo  Mo0  1  0.33333300  0.66666700  0.09389900  1
  Mo  Mo1  1  0.33333300  0.66666700  0.46963400  1
  Mo  Mo2  1  0.66666700  0.33333300  0.65760800  1
  W  W0  1  0.66666700  0.33333300  0.28179600  1
  S  S0  1  0.33333300  0.66666700  0.32341200  1
  S  S1  1  0.66666700  0.33333300  0.05251400  1
  S  S2  1  0.66666700  0.33333300  0.42822900  1
  S  S3  1  0.66666700  0.33333300  0.13531900  1
  S  S4  1  0.66666700  0.33333300  0.51103200  1
  S  S5  1  0.33333300  0.66666700  0.24019000  1
loop_
_geom_bond_atom_site_label_1
_geom_bond_atom_site_label_2
_geom_bond_distance
_geom_bond_site_symmetry_2
Mo0 S1 2.435479 1_565
Mo0 S1 2.435479 1_455
Mo0 S1 2.435483 1_555
Mo0 S3 2.436299 1_455
Mo0 S3 2.436299 1_565
Mo0 S3 2.436303 1_555
Mo1 S4 2.435784 1_455
Mo1 S4 2.435784 1_565
Mo1 S4 2.435788 1_555
Mo1 S2 2.435948 1_455
Mo1 S2 2.435948 1_565
Mo1 S2 2.435952 1_555
Mo2 Te0 2.697319 1_545
Mo2 Te0 2.697319 1_655
Mo2 Te0 2.697322 1_555
Mo2 Te1 2.699995 1_545
Mo2 Te1 2.699995 1_655
Mo2 Te1 2.699999 1_555
S0 W0 2.440897 1_455
S0 W0 2.440897 1_565
S0 W0 2.440901 1_555
S5 W0 2.440662 1_455
S5 W0 2.440662 1_565
S5 W0 2.440667 1_555
