# generated using pymatgen
data_YMg14V
_symmetry_space_group_name_H-M   'P 1'
_cell_length_a   6.45431093
_cell_length_b   6.45431040
_cell_length_c   10.25633472
_cell_angle_alpha   90.00000000
_cell_angle_beta   90.00000000
_cell_angle_gamma   120.00000279
_symmetry_Int_Tables_number   1
_chemical_formula_structural   YMg14V
_chemical_formula_sum   'Y1 Mg14 V1'
_cell_volume   370.01773122
_cell_formula_units_Z   1
loop_
 _symmetry_equiv_pos_site_id
 _symmetry_equiv_pos_as_xyz
  1  'x, y, z'
loop_
 _atom_site_type_symbol
 _atom_site_label
 _atom_site_symmetry_multiplicity
 _atom_site_fract_x
 _atom_site_fract_y
 _atom_site_fract_z
 _atom_site_occupancy
  Y  Y0  1  0.16666700  0.33333300  0.12500000  1
  Mg  Mg0  1  0.17816141  0.83908021  0.12500000  1
  Mg  Mg1  1  0.16571487  0.83285694  0.62500000  1
  Mg  Mg2  1  0.66091979  0.32183859  0.12500000  1
  Mg  Mg3  1  0.66714306  0.33428513  0.62500000  1
  Mg  Mg4  1  0.66091979  0.83908021  0.12500000  1
  Mg  Mg5  1  0.66714306  0.83285694  0.62500000  1
  Mg  Mg6  1  0.33171166  0.16828834  0.38607137  1
  Mg  Mg7  1  0.33171166  0.16828834  0.86392863  1
  Mg  Mg8  1  0.33171166  0.66342432  0.38607137  1
  Mg  Mg9  1  0.33171166  0.66342432  0.86392863  1
  Mg  Mg10  1  0.83657568  0.16828834  0.38607137  1
  Mg  Mg11  1  0.83657568  0.16828834  0.86392863  1
  Mg  Mg12  1  0.83333300  0.66666700  0.36844588  1
  Mg  Mg13  1  0.83333300  0.66666700  0.88155412  1
  V  V0  1  0.16666700  0.33333300  0.62500000  1
loop_
_geom_bond_atom_site_label_1
_geom_bond_atom_site_label_2
_geom_bond_distance
_geom_bond_site_symmetry_2
Mg0 Mg2 3.115872 1_565
Mg0 Mg4 3.115873 1_555
Mg0 Mg12 3.154266 1_455
Mg0 Mg13 3.154266 1_454
Mg0 Y0 3.227795 1_565
Mg0 Y0 3.227795 1_555
Mg0 Mg9 3.249753 1_554
Mg0 Mg8 3.249753 1_555
Mg0 Mg6 3.249760 1_565
Mg0 Mg7 3.249760 1_564
Mg0 Mg2 3.338438 1_455
Mg0 Mg4 3.338438 1_455
Mg1 Mg8 3.085537 1_555
Mg1 Mg9 3.085537 1_555
Mg1 Mg6 3.085543 1_565
Mg1 Mg7 3.085543 1_565
Mg1 Mg3 3.217937 1_455
Mg1 Mg5 3.217937 1_455
Mg1 Mg13 3.221100 1_455
Mg1 Mg12 3.221100 1_455
Mg1 V0 3.227160 1_565
Mg1 V0 3.227160 1_555
Mg1 Mg3 3.236373 1_565
Mg1 Mg5 3.236373 1_555
Mg2 Mg4 3.115872 1_545
Mg2 Y0 3.227795 1_555
Mg2 Y0 3.227795 1_655
Mg2 Mg6 3.249760 1_555
Mg2 Mg7 3.249760 1_554
Mg2 Mg4 3.338438 1_555
Mg3 Mg6 3.085544 1_555
Mg3 Mg7 3.085544 1_555
Mg3 Mg5 3.217937 1_555
Mg3 V0 3.227160 1_555
Mg3 V0 3.227160 1_655
Mg3 Mg5 3.236373 1_545
Mg4 Y0 3.227795 1_555
Mg4 Y0 3.227795 1_665
Mg4 Mg9 3.249760 1_554
Mg4 Mg8 3.249760 1_555
Mg5 Mg8 3.085544 1_555
Mg5 Mg9 3.085544 1_555
Mg5 V0 3.227160 1_665
Mg5 V0 3.227160 1_555
Mg6 V0 3.067471 1_555
Mg6 Mg8 3.195761 1_555
Mg6 Y0 3.251769 1_555
Mg6 Mg8 3.258549 1_545
Mg7 V0 3.067471 1_555
Mg7 Mg9 3.195761 1_555
Mg7 Y0 3.251769 1_556
Mg7 Mg9 3.258549 1_545
Mg8 V0 3.067477 1_555
Mg8 Y0 3.251775 1_555
Mg9 V0 3.067477 1_555
Mg9 Y0 3.251775 1_556
Mg10 V0 3.067477 1_655
Mg10 Mg3 3.085537 1_555
Mg10 Mg5 3.085543 1_545
Mg10 Mg8 3.195761 1_655
Mg10 Mg6 3.195762 1_655
Mg10 Mg12 3.232265 1_545
Mg10 Mg12 3.232265 1_555
Mg10 Mg2 3.249753 1_555
Mg10 Mg4 3.249760 1_545
Mg10 Y0 3.251775 1_655
Mg10 Mg8 3.258549 1_545
Mg10 Mg6 3.258549 1_555
Mg11 V0 3.067477 1_655
Mg11 Mg3 3.085537 1_555
Mg11 Mg5 3.085543 1_545
Mg11 Mg9 3.195761 1_655
Mg11 Mg7 3.195762 1_655
Mg11 Mg13 3.232265 1_545
Mg11 Mg13 3.232265 1_555
Mg11 Mg2 3.249753 1_556
Mg11 Mg4 3.249760 1_546
Mg11 Y0 3.251775 1_656
Mg11 Mg9 3.258549 1_545
Mg11 Mg7 3.258549 1_555
Mg12 Mg4 3.154259 1_555
Mg12 Mg2 3.154266 1_555
Mg12 Mg5 3.221094 1_555
Mg12 Mg3 3.221100 1_555
Mg12 Mg6 3.232265 1_665
Mg12 Mg6 3.232265 1_555
Mg12 Mg8 3.232265 1_555
Mg12 Mg8 3.232265 1_655
Mg13 Mg4 3.154259 1_556
Mg13 Mg2 3.154266 1_556
Mg13 Mg5 3.221094 1_555
Mg13 Mg3 3.221100 1_555
Mg13 Mg7 3.232265 1_665
Mg13 Mg7 3.232265 1_555
Mg13 Mg9 3.232265 1_555
Mg13 Mg9 3.232265 1_655
