# generated using pymatgen
data_CrGeRu2
_symmetry_space_group_name_H-M   'P 1'
_cell_length_a   4.22229837
_cell_length_b   4.22229837
_cell_length_c   4.22229837
_cell_angle_alpha   60.00000000
_cell_angle_beta   60.00000000
_cell_angle_gamma   60.00000000
_symmetry_Int_Tables_number   1
_chemical_formula_structural   CrGeRu2
_chemical_formula_sum   'Cr1 Ge1 Ru2'
_cell_volume   53.22697208
_cell_formula_units_Z   1
loop_
 _symmetry_equiv_pos_site_id
 _symmetry_equiv_pos_as_xyz
  1  'x, y, z'
loop_
 _atom_site_type_symbol
 _atom_site_label
 _atom_site_symmetry_multiplicity
 _atom_site_fract_x
 _atom_site_fract_y
 _atom_site_fract_z
 _atom_site_occupancy
  Cr  Cr0  1  0.50000000  0.50000000  0.50000000  1
  Ge  Ge0  1  0.00000000  0.00000000  -0.00000000  1
  Ru  Ru0  1  0.25000000  0.25000000  0.25000000  1
  Ru  Ru1  1  0.75000000  0.75000000  0.75000000  1
loop_
_geom_bond_atom_site_label_1
_geom_bond_atom_site_label_2
_geom_bond_distance
_geom_bond_site_symmetry_2
Cr0 Ru1 2.585619 1_455
Cr0 Ru0 2.585619 1_655
Cr0 Ru0 2.585619 1_556
Cr0 Ru1 2.585619 1_555
Cr0 Ru1 2.585619 1_545
Cr0 Ru1 2.585619 1_554
Cr0 Ru0 2.585619 1_565
Cr0 Ru0 2.585619 1_555
Ge0 Ru0 2.585619 1_455
Ge0 Ru1 2.585619 1_544
Ge0 Ru0 2.585619 1_545
Ge0 Ru0 2.585619 1_555
Ge0 Ru1 2.585619 1_454
Ge0 Ru1 2.585619 1_444
Ge0 Ru0 2.585619 1_554
Ge0 Ru1 2.585619 1_445
