# generated using pymatgen
data_NbCr3(CuS4)2
_symmetry_space_group_name_H-M   'P 1'
_cell_length_a   7.01740000
_cell_length_b   7.16411800
_cell_length_c   9.83973800
_cell_angle_alpha   90.00000000
_cell_angle_beta   90.00000000
_cell_angle_gamma   90.00000000
_symmetry_Int_Tables_number   1
_chemical_formula_structural   NbCr3(CuS4)2
_chemical_formula_sum   'Nb2 Cr6 Cu4 S16'
_cell_volume   494.67788782
_cell_formula_units_Z   2
loop_
 _symmetry_equiv_pos_site_id
 _symmetry_equiv_pos_as_xyz
  1  'x, y, z'
loop_
 _atom_site_type_symbol
 _atom_site_label
 _atom_site_symmetry_multiplicity
 _atom_site_fract_x
 _atom_site_fract_y
 _atom_site_fract_z
 _atom_site_occupancy
  Nb  Nb0  1  0.00000000  0.47461500  0.50000000  1
  Nb  Nb1  1  0.50000000  0.52538500  0.50000000  1
  Cr  Cr0  1  0.25411500  0.74952400  0.25131500  1
  Cr  Cr1  1  0.74588500  0.74952400  0.74868500  1
  Cr  Cr2  1  0.24588500  0.25047600  0.25131500  1
  Cr  Cr3  1  0.75411500  0.25047600  0.74868500  1
  Cr  Cr4  1  0.00000000  0.99919600  0.00000000  1
  Cr  Cr5  1  0.50000000  0.00080400  0.00000000  1
  Cu  Cu0  1  0.75000000  0.00000000  0.36111400  1
  Cu  Cu1  1  0.75000000  0.50000000  0.11292300  1
  Cu  Cu2  1  0.25000000  0.00000000  0.63888600  1
  Cu  Cu3  1  0.25000000  0.50000000  0.88707700  1
  S  S0  1  0.74928200  0.77068300  0.99085900  1
  S  S1  1  0.24197100  0.74656400  0.49973300  1
  S  S2  1  0.74197100  0.25343600  0.50026700  1
  S  S3  1  0.24928200  0.22931700  0.00914100  1
  S  S4  1  0.02380500  0.99708900  0.24212500  1
  S  S5  1  0.98416000  0.50278300  0.75027400  1
  S  S6  1  0.52380500  0.00291100  0.75787500  1
  S  S7  1  0.48416000  0.49721700  0.24972600  1
  S  S8  1  0.25802900  0.25343600  0.49973300  1
  S  S9  1  0.75071800  0.22931700  0.99085900  1
  S  S10  1  0.25071800  0.77068300  0.00914100  1
  S  S11  1  0.75802900  0.74656400  0.50026700  1
  S  S12  1  0.51584000  0.49721700  0.75027400  1
  S  S13  1  0.47619500  0.00291100  0.24212500  1
  S  S14  1  0.01584000  0.50278300  0.24972600  1
  S  S15  1  0.97619500  0.99708900  0.75787500  1
loop_
_geom_bond_atom_site_label_1
_geom_bond_atom_site_label_2
_geom_bond_distance
_geom_bond_site_symmetry_2
Nb0 S8 2.406122 1_555
Nb0 S2 2.406122 1_455
Nb0 S5 2.473384 1_455
Nb0 S14 2.473384 1_555
Nb0 S11 2.584378 1_455
Nb0 S1 2.584378 1_555
Nb1 S11 2.406122 1_555
Nb1 S1 2.406122 1_555
Nb1 S12 2.473384 1_555
Nb1 S7 2.473384 1_555
Nb1 S2 2.584378 1_555
Nb1 S8 2.584378 1_555
Cr0 S10 2.387864 1_555
Cr0 S13 2.394192 1_565
Cr0 S4 2.401210 1_555
Cr0 S7 2.423536 1_555
Cr0 S14 2.433262 1_555
Cr0 S1 2.445945 1_555
Cr1 S0 2.387864 1_555
Cr1 S6 2.394192 1_565
Cr1 S15 2.401210 1_555
Cr1 S12 2.423536 1_555
Cr1 S5 2.433262 1_555
Cr1 S11 2.445945 1_555
Cr2 S3 2.387864 1_555
Cr2 S4 2.394192 1_545
Cr2 S13 2.401210 1_555
Cr2 S14 2.423536 1_555
Cr2 S7 2.433262 1_555
Cr2 S8 2.445945 1_555
Cr3 S9 2.387864 1_555
Cr3 S15 2.394192 1_545
Cr3 S6 2.401210 1_555
Cr3 S5 2.423536 1_555
Cr3 S12 2.433262 1_555
Cr3 S2 2.445945 1_555
Cr4 S4 2.388344 1_555
Cr4 S15 2.388344 1_454
Cr4 S10 2.404915 1_555
Cr4 S0 2.404915 1_454
Cr4 S3 2.405433 1_565
Cr4 S9 2.405433 1_464
Cr5 S13 2.388344 1_555
Cr5 S6 2.388344 1_554
Cr5 S9 2.404915 1_554
Cr5 S3 2.404915 1_555
Cr5 S10 2.405433 1_545
Cr5 S0 2.405433 1_544
Cu0 S13 2.250118 1_555
Cu0 S4 2.250118 1_645
Cu0 S2 2.274760 1_555
Cu0 S11 2.274760 1_545
Cu1 S9 2.281037 1_554
Cu1 S0 2.281037 1_554
Cu1 S7 2.300545 1_555
Cu1 S14 2.300545 1_655
Cu2 S6 2.250118 1_555
Cu2 S15 2.250118 1_445
Cu2 S8 2.274760 1_555
Cu2 S1 2.274760 1_545
Cu3 S10 2.281037 1_556
Cu3 S3 2.281037 1_556
Cu3 S5 2.300545 1_455
Cu3 S12 2.300545 1_555
