# generated using pymatgen
data_Gd3W(ClO2)3
_symmetry_space_group_name_H-M   'P 1'
_cell_length_a   9.22050786
_cell_length_b   9.22050786
_cell_length_c   5.33336600
_cell_angle_alpha   90.00000000
_cell_angle_beta   90.00000000
_cell_angle_gamma   119.99999898
_symmetry_Int_Tables_number   1
_chemical_formula_structural   Gd3W(ClO2)3
_chemical_formula_sum   'Gd6 W2 Cl6 O12'
_cell_volume   392.68264601
_cell_formula_units_Z   2
loop_
 _symmetry_equiv_pos_site_id
 _symmetry_equiv_pos_as_xyz
  1  'x, y, z'
loop_
 _atom_site_type_symbol
 _atom_site_label
 _atom_site_symmetry_multiplicity
 _atom_site_fract_x
 _atom_site_fract_y
 _atom_site_fract_z
 _atom_site_occupancy
  Gd  Gd0  1  0.40495700  0.09025500  0.25000000  1
  Gd  Gd1  1  0.59504300  0.90974500  0.75000000  1
  Gd  Gd2  1  0.90974500  0.31470200  0.25000000  1
  Gd  Gd3  1  0.09025500  0.68529800  0.75000000  1
  Gd  Gd4  1  0.68529800  0.59504300  0.25000000  1
  Gd  Gd5  1  0.31470200  0.40495700  0.75000000  1
  W  W0  1  0.33333300  0.66666700  0.25000000  1
  W  W1  1  0.66666700  0.33333300  0.75000000  1
  Cl  Cl0  1  0.19116400  0.24018100  0.25000000  1
  Cl  Cl1  1  0.80883600  0.75981900  0.75000000  1
  Cl  Cl2  1  0.75981900  0.95098300  0.25000000  1
  Cl  Cl3  1  0.24018100  0.04901700  0.75000000  1
  Cl  Cl4  1  0.04901700  0.80883600  0.25000000  1
  Cl  Cl5  1  0.95098300  0.19116400  0.75000000  1
  O  O0  1  0.15659100  0.52176500  0.01413800  1
  O  O1  1  0.84340900  0.47823500  0.98586200  1
  O  O2  1  0.47823500  0.63482500  0.01413800  1
  O  O3  1  0.84340900  0.47823500  0.51413800  1
  O  O4  1  0.52176500  0.36517500  0.98586200  1
  O  O5  1  0.15659100  0.52176500  0.48586200  1
  O  O6  1  0.36517500  0.84340900  0.01413800  1
  O  O7  1  0.52176500  0.36517500  0.51413800  1
  O  O8  1  0.63482500  0.15659100  0.98586200  1
  O  O9  1  0.47823500  0.63482500  0.48586200  1
  O  O10  1  0.63482500  0.15659100  0.51413800  1
  O  O11  1  0.36517500  0.84340900  0.48586200  1
loop_
_geom_bond_atom_site_label_1
_geom_bond_atom_site_label_2
_geom_bond_distance
_geom_bond_site_symmetry_2
Gd0 O10 2.356812 1_555
Gd0 O8 2.356812 1_554
Gd0 O11 2.462207 1_545
Gd0 O6 2.462207 1_545
Gd0 O7 2.615362 1_555
Gd0 O4 2.615362 1_554
Gd1 O6 2.356812 1_556
Gd1 O11 2.356812 1_555
Gd1 O8 2.462207 1_565
Gd1 O10 2.462207 1_565
Gd1 O2 2.615362 1_556
Gd1 O9 2.615362 1_555
Gd2 O3 2.356819 1_555
Gd2 O1 2.356819 1_554
Gd2 O5 2.462204 1_655
Gd2 O0 2.462204 1_655
Gd2 O10 2.615361 1_555
Gd2 O8 2.615361 1_554
Gd3 O0 2.356819 1_556
Gd3 O5 2.356819 1_555
Gd3 O1 2.462204 1_455
Gd3 O3 2.462204 1_455
Gd3 O6 2.615361 1_556
Gd3 O11 2.615361 1_555
Gd4 O7 2.356814 1_555
Gd4 O4 2.356814 1_554
Gd4 O9 2.462199 1_555
Gd4 O2 2.462199 1_555
Gd4 O3 2.615355 1_555
Gd4 O1 2.615355 1_554
Gd5 O2 2.356814 1_556
Gd5 O9 2.356814 1_555
Gd5 O4 2.462199 1_555
Gd5 O7 2.462199 1_555
Gd5 O0 2.615355 1_556
Gd5 O5 2.615355 1_555
Cl0 Gd0 2.919254 1_555
Cl0 Gd5 2.997734 1_555
Cl0 Gd5 2.997734 1_554
Cl0 Gd2 2.998036 1_455
Cl1 Gd1 2.919254 1_555
Cl1 Gd4 2.997734 1_556
Cl1 Gd4 2.997734 1_555
Cl1 Gd3 2.998036 1_655
Cl2 Gd2 2.919254 1_565
Cl2 Gd1 2.997734 1_555
Cl2 Gd1 2.997734 1_554
Cl2 Gd4 2.998036 1_555
Cl3 Gd3 2.919254 1_545
Cl3 Gd0 2.997734 1_556
Cl3 Gd0 2.997734 1_555
Cl3 Gd5 2.998036 1_555
Cl4 Gd4 2.919254 1_455
Cl4 Gd3 2.997734 1_555
Cl4 Gd3 2.997734 1_554
Cl4 Gd0 2.998036 1_565
Cl5 Gd5 2.919254 1_655
Cl5 Gd2 2.997734 1_555
Cl5 Gd2 2.997734 1_556
Cl5 Gd1 2.998036 1_545
O0 W0 1.961103 1_555
O1 W1 1.961103 1_555
O2 W0 1.961112 1_555
O3 W1 1.961103 1_555
O4 W1 1.961112 1_555
O5 W0 1.961103 1_555
O6 W0 1.961099 1_555
O7 W1 1.961112 1_555
O8 W1 1.961099 1_555
O9 W0 1.961112 1_555
O10 W1 1.961099 1_555
O11 W0 1.961099 1_555
