# generated using pymatgen
data_LaYIn6
_symmetry_space_group_name_H-M   'P 1'
_cell_length_a   4.71335457
_cell_length_b   4.71335457
_cell_length_c   9.33676653
_cell_angle_alpha   90.00000000
_cell_angle_beta   90.00000000
_cell_angle_gamma   90.00000000
_symmetry_Int_Tables_number   1
_chemical_formula_structural   LaYIn6
_chemical_formula_sum   'La1 Y1 In6'
_cell_volume   207.42290973
_cell_formula_units_Z   1
loop_
 _symmetry_equiv_pos_site_id
 _symmetry_equiv_pos_as_xyz
  1  'x, y, z'
loop_
 _atom_site_type_symbol
 _atom_site_label
 _atom_site_symmetry_multiplicity
 _atom_site_fract_x
 _atom_site_fract_y
 _atom_site_fract_z
 _atom_site_occupancy
  La  La0  1  0.00000000  -0.00000000  0.00000000  1
  Y  Y0  1  -0.00000000  0.00000000  0.50000000  1
  In  In0  1  0.50000000  0.50000000  0.00000000  1
  In  In1  1  0.50000000  0.50000000  0.50000000  1
  In  In2  1  0.50000000  0.00000000  0.25713787  1
  In  In3  1  0.50000000  0.00000000  0.74286213  1
  In  In4  1  -0.00000000  0.50000000  0.25713787  1
  In  In5  1  -0.00000000  0.50000000  0.74286213  1
loop_
_geom_bond_atom_site_label_1
_geom_bond_atom_site_label_2
_geom_bond_distance
_geom_bond_site_symmetry_2
In0 La0 3.332845 1_555
In0 La0 3.332845 1_565
In0 La0 3.332845 1_655
In0 La0 3.332845 1_665
In0 In4 3.364215 1_555
In0 In3 3.364215 1_554
In0 In2 3.364215 1_555
In0 In5 3.364215 1_654
In0 In4 3.364215 1_655
In0 In3 3.364215 1_564
In0 In5 3.364215 1_554
In0 In2 3.364215 1_565
In1 In3 3.270428 1_555
In1 In5 3.270428 1_655
In1 In3 3.270428 1_565
In1 In2 3.270428 1_565
In1 In4 3.270428 1_555
In1 In5 3.270428 1_555
In1 In2 3.270428 1_555
In1 In4 3.270428 1_655
In1 Y0 3.332845 1_565
In1 Y0 3.332845 1_665
In1 Y0 3.332845 1_555
In1 Y0 3.332845 1_655
In2 Y0 3.270428 1_555
In2 Y0 3.270428 1_655
In2 In4 3.332845 1_545
In2 In4 3.332845 1_555
In2 In4 3.332845 1_655
In2 In4 3.332845 1_645
In2 La0 3.364215 1_655
In2 La0 3.364215 1_555
In3 Y0 3.270428 1_555
In3 Y0 3.270428 1_655
In3 In5 3.332845 1_555
In3 In5 3.332845 1_545
In3 In5 3.332845 1_645
In3 In5 3.332845 1_655
In3 La0 3.364215 1_656
In3 La0 3.364215 1_556
In4 Y0 3.270428 1_565
In4 Y0 3.270428 1_555
In4 La0 3.364215 1_565
In4 La0 3.364215 1_555
In5 Y0 3.270428 1_565
In5 Y0 3.270428 1_555
In5 La0 3.364215 1_566
In5 La0 3.364215 1_556
