# generated using pymatgen
data_MgSc4(Si2O7)2
_symmetry_space_group_name_H-M   'P 1'
_cell_length_a   7.11440498
_cell_length_b   7.11440494
_cell_length_c   6.25834000
_cell_angle_alpha   63.90658592
_cell_angle_beta   63.90658607
_cell_angle_gamma   66.43671859
_symmetry_Int_Tables_number   1
_chemical_formula_structural   MgSc4(Si2O7)2
_chemical_formula_sum   'Mg1 Sc4 Si4 O14'
_cell_volume   246.98513772
_cell_formula_units_Z   1
loop_
 _symmetry_equiv_pos_site_id
 _symmetry_equiv_pos_as_xyz
  1  'x, y, z'
loop_
 _atom_site_type_symbol
 _atom_site_label
 _atom_site_symmetry_multiplicity
 _atom_site_fract_x
 _atom_site_fract_y
 _atom_site_fract_z
 _atom_site_occupancy
  Mg  Mg0  1  0.67125300  0.67125300  0.57874700  1
  Sc  Sc0  1  0.96839400  0.49205700  0.01977500  1
  Sc  Sc1  1  0.49205700  0.96839400  0.01977500  1
  Sc  Sc2  1  0.00169000  0.00169000  0.48483100  1
  Sc  Sc3  1  0.00169000  0.00169000  0.01178800  1
  Si  Si0  1  0.43811400  0.04535000  0.50826800  1
  Si  Si1  1  0.04535000  0.43811400  0.50826800  1
  Si  Si2  1  0.45773200  0.45773200  0.05859400  1
  Si  Si3  1  0.45773200  0.45773200  0.52594300  1
  O  O0  1  0.43510200  0.85266400  0.80344800  1
  O  O1  1  0.19047200  0.53290200  0.59211000  1
  O  O2  1  0.85266400  0.43510200  0.80344800  1
  O  O3  1  0.86241900  0.86241900  0.38758100  1
  O  O4  1  0.47380100  0.47380100  0.77619900  1
  O  O5  1  0.43510200  0.85266400  0.40878500  1
  O  O6  1  0.19047200  0.53290200  0.18451600  1
  O  O7  1  0.53290200  0.19047200  0.59211000  1
  O  O8  1  0.16126000  0.16126000  0.08874000  1
  O  O9  1  0.86052200  0.86052200  0.88947800  1
  O  O10  1  0.85266400  0.43510200  0.40878500  1
  O  O11  1  0.54910700  0.54910700  0.20089300  1
  O  O12  1  0.16659700  0.16659700  0.58340300  1
  O  O13  1  0.53290200  0.19047200  0.18451600  1
loop_
_geom_bond_atom_site_label_1
_geom_bond_atom_site_label_2
_geom_bond_distance
_geom_bond_site_symmetry_2
Mg0 O3 1.935695 1_555
Mg0 O4 1.999345 1_555
Mg0 O2 2.061680 1_555
Mg0 O0 2.061680 1_555
Mg0 O10 2.061683 1_555
Mg0 O5 2.061683 1_555
O0 Si0 1.747370 1_565
O0 Sc1 2.098778 1_556
O0 Sc3 2.719841 1_566
O1 Si3 1.661920 1_555
O1 Si1 1.772157 1_555
O1 Sc0 2.388983 1_456
O1 Sc2 2.935975 1_565
O2 Si1 1.747370 1_655
O2 Sc0 2.098778 1_556
O2 Sc3 2.719841 1_656
O3 Sc2 2.044456 1_665
O3 Sc3 2.044460 1_665
O4 Si3 1.674676 1_555
O4 Si2 1.674682 1_556
O5 Si0 1.747375 1_565
O5 Sc1 2.098766 1_555
O5 Sc2 2.719842 1_565
O6 Si2 1.661919 1_555
O6 Si1 1.772156 1_555
O6 Sc0 2.388978 1_455
O6 Sc3 2.935976 1_565
O7 Si3 1.661920 1_555
O7 Si0 1.772157 1_555
O7 Sc1 2.388983 1_546
O7 Sc2 2.935975 1_655
O8 Sc0 2.157135 1_455
O8 Sc1 2.157135 1_545
O8 Sc2 2.191293 1_555
O8 Sc3 2.191297 1_555
O9 Sc3 2.182259 1_666
O9 Sc2 2.182263 1_665
O9 Sc0 2.277574 1_556
O9 Sc1 2.277574 1_556
O10 Si1 1.747375 1_655
O10 Sc0 2.098766 1_555
O10 Sc2 2.719841 1_655
O11 Si2 1.730524 1_555
O11 Si3 1.730529 1_555
O11 Sc1 2.609610 1_555
O11 Sc0 2.609610 1_555
O12 Si1 1.709428 1_555
O12 Si0 1.709428 1_555
O12 Sc3 2.346748 1_556
O12 Sc2 2.346753 1_555
O13 Si2 1.661919 1_555
O13 Si0 1.772156 1_555
O13 Sc1 2.388978 1_545
O13 Sc3 2.935976 1_655
