# generated using pymatgen
data_CuAgSe
_symmetry_space_group_name_H-M   'P 1'
_cell_length_a   4.14968700
_cell_length_b   4.14468400
_cell_length_c   6.23490300
_cell_angle_alpha   90.00000000
_cell_angle_beta   90.00000000
_cell_angle_gamma   90.00000000
_symmetry_Int_Tables_number   1
_chemical_formula_structural   CuAgSe
_chemical_formula_sum   'Cu2 Ag2 Se2'
_cell_volume   107.23497778
_cell_formula_units_Z   2
loop_
 _symmetry_equiv_pos_site_id
 _symmetry_equiv_pos_as_xyz
  1  'x, y, z'
loop_
 _atom_site_type_symbol
 _atom_site_label
 _atom_site_symmetry_multiplicity
 _atom_site_fract_x
 _atom_site_fract_y
 _atom_site_fract_z
 _atom_site_occupancy
  Cu  Cu0  1  0.75000000  0.25000000  0.00150300  1
  Cu  Cu1  1  0.25000000  0.75000000  0.99849700  1
  Ag  Ag0  1  0.75000000  0.75000000  0.68686400  1
  Ag  Ag1  1  0.25000000  0.25000000  0.31313600  1
  Se  Se0  1  0.75000000  0.75000000  0.24794100  1
  Se  Se1  1  0.25000000  0.25000000  0.75205900  1
loop_
_geom_bond_atom_site_label_1
_geom_bond_atom_site_label_2
_geom_bond_distance
_geom_bond_site_symmetry_2
Cu0 Se0 2.579823 1_545
Cu0 Se0 2.579823 1_555
Cu0 Se1 2.593030 1_554
Cu0 Se1 2.593030 1_654
Cu1 Se1 2.579823 1_565
Cu1 Se1 2.579823 1_555
Cu1 Se0 2.593030 1_456
Cu1 Se0 2.593030 1_556
Ag0 Se0 2.736642 1_555
Ag0 Cu1 2.842575 1_655
Ag0 Cu1 2.842575 1_555
Ag0 Cu0 2.853601 1_566
Ag0 Cu0 2.853601 1_556
Ag0 Se1 2.960542 1_655
Ag0 Se1 2.960542 1_565
Ag0 Se1 2.960542 1_665
Ag0 Se1 2.960542 1_555
Ag1 Se1 2.736642 1_555
Ag1 Cu0 2.842575 1_555
Ag1 Cu0 2.842575 1_455
Ag1 Cu1 2.853601 1_554
Ag1 Cu1 2.853601 1_544
Ag1 Se0 2.960542 1_555
Ag1 Se0 2.960542 1_455
Ag1 Se0 2.960542 1_445
Ag1 Se0 2.960542 1_545
