# generated using pymatgen
data_BaMg6VO8
_symmetry_space_group_name_H-M   'P 1'
_cell_length_a   8.85457233
_cell_length_b   4.66106464
_cell_length_c   4.66106464
_cell_angle_alpha   90.00000000
_cell_angle_beta   90.00000000
_cell_angle_gamma   90.00000000
_symmetry_Int_Tables_number   1
_chemical_formula_structural   BaMg6VO8
_chemical_formula_sum   'Ba1 Mg6 V1 O8'
_cell_volume   192.37021993
_cell_formula_units_Z   1
loop_
 _symmetry_equiv_pos_site_id
 _symmetry_equiv_pos_as_xyz
  1  'x, y, z'
loop_
 _atom_site_type_symbol
 _atom_site_label
 _atom_site_symmetry_multiplicity
 _atom_site_fract_x
 _atom_site_fract_y
 _atom_site_fract_z
 _atom_site_occupancy
  Ba  Ba0  1  0.00000000  0.50000000  0.50000000  1
  Mg  Mg0  1  0.50000000  0.00000000  0.00000000  1
  Mg  Mg1  1  0.50000000  0.50000000  0.50000000  1
  Mg  Mg2  1  0.26725721  0.00000000  0.50000000  1
  Mg  Mg3  1  0.73274279  0.00000000  0.50000000  1
  Mg  Mg4  1  0.26725721  0.50000000  0.00000000  1
  Mg  Mg5  1  0.73274279  0.50000000  0.00000000  1
  V  V0  1  0.00000000  0.00000000  0.00000000  1
  O  O0  1  0.25752166  0.00000000  0.00000000  1
  O  O1  1  0.74247834  0.00000000  0.00000000  1
  O  O2  1  0.28286168  0.50000000  0.50000000  1
  O  O3  1  0.71713832  0.50000000  0.50000000  1
  O  O4  1  0.00000000  0.00000000  0.50000000  1
  O  O5  1  0.50000000  0.00000000  0.50000000  1
  O  O6  1  0.00000000  0.50000000  0.00000000  1
  O  O7  1  0.50000000  0.50000000  0.00000000  1
loop_
_geom_bond_atom_site_label_1
_geom_bond_atom_site_label_2
_geom_bond_distance
_geom_bond_site_symmetry_2
Ba0 O4 2.330532 1_555
Ba0 O4 2.330532 1_565
Ba0 O6 2.330532 1_556
Ba0 O6 2.330532 1_555
Ba0 O2 2.504619 1_555
Ba0 O3 2.504619 1_455
Mg0 O0 2.147042 1_555
Mg0 O1 2.147042 1_555
Mg0 O7 2.330532 1_555
Mg0 O5 2.330532 1_554
Mg0 O5 2.330532 1_555
Mg0 O7 2.330532 1_545
Mg1 O2 1.922667 1_555
Mg1 O3 1.922667 1_555
Mg1 O7 2.330532 1_555
Mg1 O7 2.330532 1_556
Mg1 O5 2.330532 1_555
Mg1 O5 2.330532 1_565
Mg2 O5 2.060838 1_555
Mg2 O0 2.332126 1_556
Mg2 O0 2.332126 1_555
Mg2 O2 2.334625 1_545
Mg2 O2 2.334625 1_555
Mg2 O4 2.366448 1_555
Mg3 O5 2.060838 1_555
Mg3 O1 2.332126 1_555
Mg3 O1 2.332126 1_556
Mg3 O3 2.334625 1_555
Mg3 O3 2.334625 1_545
Mg3 O4 2.366448 1_655
Mg4 O7 2.060838 1_555
Mg4 O0 2.332126 1_565
Mg4 O0 2.332126 1_555
Mg4 O2 2.334625 1_554
Mg4 O2 2.334625 1_555
Mg4 O6 2.366448 1_555
Mg5 O7 2.060838 1_555
Mg5 O1 2.332126 1_555
Mg5 O1 2.332126 1_565
Mg5 O3 2.334625 1_555
Mg5 O3 2.334625 1_554
Mg5 O6 2.366448 1_655
O0 V0 2.280244 1_555
O1 V0 2.280244 1_655
O4 V0 2.330532 1_556
O4 V0 2.330532 1_555
O6 V0 2.330532 1_555
O6 V0 2.330532 1_565
