# generated using pymatgen
data_Y14Mg(ReO14)2
_symmetry_space_group_name_H-M   'P 1'
_cell_length_a   7.62687000
_cell_length_b   15.21971964
_cell_length_c   13.15968479
_cell_angle_alpha   30.22918233
_cell_angle_beta   54.58016850
_cell_angle_gamma   59.92602988
_symmetry_Int_Tables_number   1
_chemical_formula_structural   Y14Mg(ReO14)2
_chemical_formula_sum   'Y14 Mg1 Re2 O28'
_cell_volume   626.73246174
_cell_formula_units_Z   1
loop_
 _symmetry_equiv_pos_site_id
 _symmetry_equiv_pos_as_xyz
  1  'x, y, z'
loop_
 _atom_site_type_symbol
 _atom_site_label
 _atom_site_symmetry_multiplicity
 _atom_site_fract_x
 _atom_site_fract_y
 _atom_site_fract_z
 _atom_site_occupancy
  Y  Y0  1  0.01295400  0.00106300  0.98598200  1
  Y  Y1  1  0.98489600  0.49328700  0.02181700  1
  Y  Y2  1  0.51550400  0.00647300  0.97802300  1
  Y  Y3  1  0.50926800  0.28077100  0.95024200  1
  Y  Y4  1  0.49544400  0.50267800  0.00187800  1
  Y  Y5  1  0.49303200  0.24139100  0.49261000  1
  Y  Y6  1  0.02870600  0.28077100  0.95024200  1
  Y  Y7  1  0.49956300  0.73780700  0.02688200  1
  Y  Y8  1  0.97354200  0.98783900  0.53861900  1
  Y  Y9  1  0.51501600  0.74449500  0.51877900  1
  Y  Y10  1  0.97105900  0.73780700  0.02688200  1
  Y  Y11  1  0.03896600  0.24139100  0.49261000  1
  Y  Y12  1  0.00515700  0.50046600  0.49437700  1
  Y  Y13  1  0.95843600  0.74449500  0.51877900  1
  Mg  Mg0  1  0.24464200  0.99882200  0.25653600  1
  Re  Re0  1  0.50268500  0.49911500  0.49820000  1
  Re  Re1  1  0.50466000  0.00596200  0.48937800  1
  O  O0  1  0.14695100  0.20982800  0.14322100  1
  O  O1  1  0.13552800  0.50891100  0.12674600  1
  O  O2  1  0.13684400  0.26703900  0.59611800  1
  O  O3  1  0.41434700  0.22866100  0.35699300  1
  O  O4  1  0.13762200  0.72626500  0.13611200  1
  O  O5  1  0.59315600  0.50891100  0.12674600  1
  O  O6  1  0.15550800  0.98331300  0.16198500  1
  O  O7  1  0.38903400  0.01030000  0.85899700  1
  O  O8  1  0.19329200  0.54887200  0.56687300  1
  O  O9  1  0.42732000  0.44580200  0.43996600  1
  O  O10  1  0.58598200  0.72950100  0.18451600  1
  O  O11  1  0.86329000  0.23401000  0.40269900  1
  O  O12  1  0.13943300  0.79564500  0.56492200  1
  O  O13  1  0.41809900  0.27287000  0.80903200  1
  O  O14  1  0.80114200  0.44580200  0.43996600  1
  O  O15  1  0.57521800  0.54887200  0.56687300  1
  O  O16  1  0.55389600  0.98331300  0.16198500  1
  O  O17  1  0.87237200  0.01030000  0.85899700  1
  O  O18  1  0.39180300  0.48846800  0.88340900  1
  O  O19  1  0.19349800  0.94812300  0.66305700  1
  O  O20  1  0.44093800  0.06558000  0.31689300  1
  O  O21  1  0.86994700  0.26750800  0.86254500  1
  O  O22  1  0.86970700  0.74636200  0.38393000  1
  O  O23  1  0.58625800  0.77078200  0.64295900  1
  O  O24  1  0.79411600  0.06558000  0.31689300  1
  O  O25  1  0.58414500  0.94812300  0.66305700  1
  O  O26  1  0.86444500  0.48846800  0.88340900  1
  O  O27  1  0.86257500  0.74815800  0.88926600  1
loop_
_geom_bond_atom_site_label_1
_geom_bond_atom_site_label_2
_geom_bond_distance
_geom_bond_site_symmetry_2
Mg0 O12 1.924105 1_555
Mg0 O0 1.925244 1_565
Mg0 O16 1.927397 1_555
Mg0 O6 1.927397 1_555
O0 Y3 2.317082 1_554
O0 Y6 2.317082 1_554
O0 Y8 2.522193 1_445
O0 Y1 2.779640 1_455
O1 Y4 2.241494 1_555
O1 Y10 2.248701 1_455
O1 Y11 2.306755 1_555
O1 Y1 2.441948 1_455
O2 Y5 2.225874 1_555
O2 Y11 2.225886 1_555
O2 Y12 2.277252 1_555
O2 Y0 2.434566 1_555
O3 Re1 1.960852 1_555
O3 Y4 2.273890 1_555
O3 Y5 2.353348 1_555
O3 Y11 2.353359 1_555
O4 Y12 2.240350 1_555
O4 Y10 2.273212 1_455
O4 Y7 2.273225 1_555
O4 Y0 2.492508 1_564
O5 Y4 2.241482 1_555
O5 Y7 2.248702 1_555
O5 Y5 2.306755 1_555
O5 Y1 2.441961 1_555
O6 Y2 2.305272 1_564
O6 Y13 2.306609 1_455
O6 Y6 2.476261 1_564
O6 Y0 2.857079 1_564
O7 Y2 2.219128 1_555
O7 Y5 2.303389 1_555
O7 Y0 2.341317 1_555
O7 Y7 2.369190 1_546
O8 Re0 1.969312 1_555
O8 Y13 2.277359 1_455
O8 Y6 2.428502 1_555
O8 Y12 2.715251 1_555
O9 Re0 1.904889 1_555
O9 Y5 2.350591 1_555
O9 Y7 2.615350 1_555
O9 Y12 2.691508 1_555
O10 Re0 1.979708 1_555
O10 Y2 2.251787 1_564
O10 Y7 2.408684 1_555
O10 Y10 2.408695 1_555
O11 Y8 2.224685 1_545
O11 Y5 2.329348 1_555
O11 Y11 2.329362 1_655
O11 Y1 2.378171 1_555
O12 Y8 2.307769 1_455
O12 Y13 2.397071 1_455
O12 Y9 2.397071 1_555
O12 Y1 2.850620 1_456
O13 Re0 1.957829 1_555
O13 Y2 2.291606 1_555
O13 Y3 2.432866 1_555
O13 Y6 2.432877 1_555
O14 Re0 1.904878 1_555
O14 Y11 2.350595 1_655
O14 Y10 2.615352 1_555
O14 Y12 2.691522 1_655
O15 Re0 1.969312 1_555
O15 Y9 2.277359 1_555
O15 Y3 2.428502 1_555
O15 Y12 2.715251 1_655
O16 Y2 2.305272 1_564
O16 Y9 2.306609 1_555
O16 Y3 2.476261 1_564
O16 Y0 2.857066 1_664
O17 Y2 2.219128 1_555
O17 Y11 2.303389 1_655
O17 Y0 2.341305 1_655
O17 Y10 2.369190 1_546
O18 Y3 2.199857 1_555
O18 Y9 2.285740 1_555
O18 Y4 2.298811 1_556
O18 Y1 2.530770 1_456
O19 Re1 1.990121 1_565
O19 Y10 2.364694 1_456
O19 Y8 2.513709 1_455
O19 Y11 2.614214 1_565
O20 Re1 1.867992 1_555
O20 Y3 2.401538 1_554
O20 Y9 2.792143 1_545
O21 Y3 2.259646 1_555
O21 Y6 2.259646 1_655
O21 Y12 2.301494 1_655
O21 Y0 2.551622 1_655
O22 Y9 2.212102 1_555
O22 Y13 2.212113 1_555
O22 Y12 2.377342 1_655
O22 Y0 2.485572 1_664
O23 Re1 2.002100 1_565
O23 Y4 2.274866 1_556
O23 Y9 2.345782 1_555
O23 Y13 2.345793 1_555
O24 Re1 1.867992 1_555
O24 Y6 2.401538 1_654
O24 Y13 2.792143 1_545
O25 Re1 1.990139 1_565
O25 Y7 2.364689 1_556
O25 Y8 2.513688 1_555
O25 Y5 2.614212 1_565
O26 Y6 2.199856 1_655
O26 Y13 2.285741 1_555
O26 Y4 2.298823 1_556
O26 Y1 2.530758 1_556
O27 Y8 2.189932 1_555
O27 Y7 2.258802 1_556
O27 Y10 2.258814 1_556
O27 Y1 2.350949 1_556
