# generated using pymatgen
data_HoAgSe2
_symmetry_space_group_name_H-M   'P 1'
_cell_length_a   4.05947416
_cell_length_b   4.05947416
_cell_length_c   5.65153287
_cell_angle_alpha   90.00000000
_cell_angle_beta   90.00000000
_cell_angle_gamma   90.00000000
_symmetry_Int_Tables_number   1
_chemical_formula_structural   HoAgSe2
_chemical_formula_sum   'Ho1 Ag1 Se2'
_cell_volume   93.13347775
_cell_formula_units_Z   1
loop_
 _symmetry_equiv_pos_site_id
 _symmetry_equiv_pos_as_xyz
  1  'x, y, z'
loop_
 _atom_site_type_symbol
 _atom_site_label
 _atom_site_symmetry_multiplicity
 _atom_site_fract_x
 _atom_site_fract_y
 _atom_site_fract_z
 _atom_site_occupancy
  Ho  Ho0  1  0.50000000  0.50000000  0.50000000  1
  Ag  Ag0  1  0.00000000  0.00000000  0.00000000  1
  Se  Se0  1  0.00000000  0.00000000  0.50000000  1
  Se  Se1  1  0.50000000  0.50000000  -0.00000000  1
loop_
_geom_bond_atom_site_label_1
_geom_bond_atom_site_label_2
_geom_bond_distance
_geom_bond_site_symmetry_2
Ho0 Se1 2.825766 1_555
Ho0 Se1 2.825766 1_556
Ho0 Se0 2.870482 1_655
Ho0 Se0 2.870482 1_565
Ho0 Se0 2.870482 1_555
Ho0 Se0 2.870482 1_665
Ag0 Se0 2.825766 1_555
Ag0 Se0 2.825766 1_554
Ag0 Se1 2.870482 1_555
Ag0 Se1 2.870482 1_445
Ag0 Se1 2.870482 1_455
Ag0 Se1 2.870482 1_545
