# generated using pymatgen
data_Li3U7(AsO7)5
_symmetry_space_group_name_H-M   'P 1'
_cell_length_a   7.32622700
_cell_length_b   7.39078800
_cell_length_c   14.88914200
_cell_angle_alpha   90.00000000
_cell_angle_beta   90.00000000
_cell_angle_gamma   90.00000000
_symmetry_Int_Tables_number   1
_chemical_formula_structural   Li3U7(AsO7)5
_chemical_formula_sum   'Li3 U7 As5 O35'
_cell_volume   806.19627621
_cell_formula_units_Z   1
loop_
 _symmetry_equiv_pos_site_id
 _symmetry_equiv_pos_as_xyz
  1  'x, y, z'
loop_
 _atom_site_type_symbol
 _atom_site_label
 _atom_site_symmetry_multiplicity
 _atom_site_fract_x
 _atom_site_fract_y
 _atom_site_fract_z
 _atom_site_occupancy
  Li  Li0  1  0.00000000  0.50000000  0.85915700  1
  Li  Li1  1  0.50000000  0.00000000  0.13423100  1
  Li  Li2  1  0.00000000  0.00000000  0.30239100  1
  U  U0  1  0.00000000  0.50000000  0.56710000  1
  U  U1  1  0.50000000  0.00000000  0.43048200  1
  U  U2  1  0.50000000  0.00000000  0.71925700  1
  U  U3  1  0.00000000  0.50000000  0.28174800  1
  U  U4  1  0.50000000  0.50000000  0.85653000  1
  U  U5  1  0.50000000  0.50000000  0.14271200  1
  U  U6  1  0.00000000  0.00000000  0.00250400  1
  As  As0  1  0.50000000  0.00000000  0.94228800  1
  As  As1  1  0.00000000  0.50000000  0.05802600  1
  As  As2  1  0.50000000  0.50000000  0.63183300  1
  As  As3  1  0.50000000  0.50000000  0.36970900  1
  As  As4  1  0.00000000  0.00000000  0.50085200  1
  O  O0  1  0.00000000  0.00000000  0.88209600  1
  O  O1  1  0.00000000  0.00000000  0.12479400  1
  O  O2  1  0.50000000  0.82419700  0.86630600  1
  O  O3  1  0.50000000  0.17580300  0.86630600  1
  O  O4  1  0.17433900  0.50000000  0.13659700  1
  O  O5  1  0.82566100  0.50000000  0.13659700  1
  O  O6  1  0.31630300  0.00000000  0.01348500  1
  O  O7  1  0.68369700  0.00000000  0.01348500  1
  O  O8  1  0.00000000  0.31552500  0.98937000  1
  O  O9  1  0.00000000  0.68447500  0.98937000  1
  O  O10  1  0.00000000  0.50000000  0.68923800  1
  O  O11  1  0.50000000  0.00000000  0.30823900  1
  O  O12  1  0.25185600  0.50000000  0.85192300  1
  O  O13  1  0.74814400  0.50000000  0.85192300  1
  O  O14  1  0.50000000  0.25302500  0.14910300  1
  O  O15  1  0.50000000  0.74697500  0.14910300  1
  O  O16  1  0.30557000  0.50000000  0.56820000  1
  O  O17  1  0.69443000  0.50000000  0.56820000  1
  O  O18  1  0.50000000  0.30470400  0.43047800  1
  O  O19  1  0.50000000  0.69529600  0.43047800  1
  O  O20  1  0.25618000  0.00000000  0.71793600  1
  O  O21  1  0.74382000  0.00000000  0.71793600  1
  O  O22  1  0.00000000  0.25419700  0.28125800  1
  O  O23  1  0.00000000  0.74580300  0.28125800  1
  O  O24  1  0.18584800  0.00000000  0.42777400  1
  O  O25  1  0.81415200  0.00000000  0.42777400  1
  O  O26  1  0.00000000  0.19434900  0.56360500  1
  O  O27  1  0.00000000  0.80565100  0.56360500  1
  O  O28  1  0.50000000  0.67676000  0.70745500  1
  O  O29  1  0.50000000  0.32324000  0.70745500  1
  O  O30  1  0.32040400  0.50000000  0.29399900  1
  O  O31  1  0.67959600  0.50000000  0.29399900  1
  O  O32  1  0.50000000  0.50000000  0.00083400  1
  O  O33  1  0.00000000  0.50000000  0.43661600  1
  O  O34  1  0.50000000  0.00000000  0.55738900  1
loop_
_geom_bond_atom_site_label_1
_geom_bond_atom_site_label_2
_geom_bond_distance
_geom_bond_site_symmetry_2
Li0 O12 1.848295 1_555
Li0 O13 1.848295 1_455
Li0 O9 2.370167 1_555
Li0 O8 2.370167 1_555
Li0 O10 2.529948 1_555
Li1 O14 1.883118 1_555
Li1 O15 1.883118 1_545
Li1 O6 2.245728 1_555
Li1 O7 2.245728 1_555
Li1 O11 2.590830 1_555
Li2 O23 1.904883 1_545
Li2 O22 1.904883 1_555
Li2 O24 2.310621 1_555
Li2 O25 2.310621 1_455
As0 O7 1.713162 1_556
As0 O6 1.713162 1_556
As0 O3 1.722816 1_555
As0 O2 1.722816 1_545
As1 O9 1.704070 1_554
As1 O8 1.704070 1_554
As1 O4 1.732028 1_555
As1 O5 1.732028 1_455
As2 O16 1.710751 1_555
As2 O17 1.710751 1_555
As2 O29 1.724652 1_555
As2 O28 1.724652 1_555
As3 O19 1.703537 1_555
As3 O18 1.703537 1_555
As3 O31 1.732609 1_555
As3 O30 1.732609 1_555
As4 O27 1.713538 1_545
As4 O26 1.713538 1_555
As4 O24 1.742915 1_555
As4 O25 1.742915 1_455
O0 U6 1.792772 1_556
O1 U6 1.820793 1_555
O2 U4 2.400488 1_555
O2 U2 2.545949 1_565
O3 U4 2.400488 1_555
O3 U2 2.545949 1_555
O4 U5 2.387603 1_555
O4 U3 2.510385 1_555
O5 U5 2.387603 1_555
O5 U3 2.510385 1_655
O6 U6 2.323068 1_555
O7 U6 2.323068 1_655
O8 U6 2.340163 1_556
O9 U6 2.340163 1_566
O10 U0 1.818530 1_555
O11 U1 1.820093 1_555
O12 U4 1.819253 1_555
O13 U4 1.819253 1_555
O14 U5 1.827818 1_555
O15 U5 1.827818 1_555
O16 U0 2.238735 1_555
O17 U0 2.238735 1_655
O18 U1 2.252003 1_555
O19 U1 2.252003 1_565
O20 U2 1.786389 1_555
O21 U2 1.786389 1_555
O22 U3 1.816693 1_555
O23 U3 1.816693 1_555
O24 U1 2.301902 1_555
O25 U1 2.301902 1_555
O26 U0 2.259601 1_555
O27 U0 2.259601 1_555
O28 U2 2.395452 1_565
O28 U4 2.575517 1_555
O29 U2 2.395452 1_555
O29 U4 2.575517 1_555
O30 U3 2.354429 1_555
O30 U5 2.608665 1_555
O31 U3 2.354429 1_655
O31 U5 2.608665 1_555
O32 U5 2.112442 1_555
O32 U4 2.148563 1_554
O33 U0 1.942795 1_555
O33 U3 2.305852 1_555
O34 U1 1.889536 1_555
O34 U2 2.410076 1_555
