# generated using pymatgen
data_Zr(ZnN)4
_symmetry_space_group_name_H-M   'P 1'
_cell_length_a   5.58482704
_cell_length_b   5.65026455
_cell_length_c   8.81205883
_cell_angle_alpha   65.95788784
_cell_angle_beta   87.27991613
_cell_angle_gamma   65.21354073
_symmetry_Int_Tables_number   1
_chemical_formula_structural   Zr(ZnN)4
_chemical_formula_sum   'Zr2 Zn8 N8'
_cell_volume   227.98741814
_cell_formula_units_Z   2
loop_
 _symmetry_equiv_pos_site_id
 _symmetry_equiv_pos_as_xyz
  1  'x, y, z'
loop_
 _atom_site_type_symbol
 _atom_site_label
 _atom_site_symmetry_multiplicity
 _atom_site_fract_x
 _atom_site_fract_y
 _atom_site_fract_z
 _atom_site_occupancy
  Zr  Zr0  1  0.76695300  0.74037400  0.80896100  1
  Zr  Zr1  1  0.23304700  0.25962600  0.19103900  1
  Zn  Zn0  1  0.66754900  0.62880900  0.21281900  1
  Zn  Zn1  1  0.33245100  0.37119100  0.78718100  1
  Zn  Zn2  1  0.80024000  0.11532800  0.06837600  1
  Zn  Zn3  1  0.19976000  0.88467200  0.93162400  1
  Zn  Zn4  1  0.76794500  0.46674500  0.55411500  1
  Zn  Zn5  1  0.23205500  0.53325500  0.44588500  1
  Zn  Zn6  1  0.26782600  0.92507400  0.55593000  1
  Zn  Zn7  1  0.73217400  0.07492600  0.44407000  1
  N  N0  1  0.96071200  0.67013100  0.60321500  1
  N  N1  1  0.03928800  0.32986900  0.39678500  1
  N  N2  1  0.89673800  0.75888000  0.03337200  1
  N  N3  1  0.10326200  0.24112000  0.96662800  1
  N  N4  1  0.41554100  0.69000000  0.79870800  1
  N  N5  1  0.58445900  0.31000000  0.20129200  1
  N  N6  1  0.40245200  0.80302600  0.34897200  1
  N  N7  1  0.59754800  0.19697400  0.65102800  1
loop_
_geom_bond_atom_site_label_1
_geom_bond_atom_site_label_2
_geom_bond_distance
_geom_bond_site_symmetry_2
N0 Zn7 1.983846 1_565
N0 Zn4 2.038021 1_555
N0 Zn5 2.123265 1_655
N0 Zr0 2.157690 1_555
N0 Zn1 2.222440 1_655
N1 Zn6 1.983846 1_545
N1 Zn5 2.038021 1_555
N1 Zn4 2.123265 1_455
N1 Zr1 2.157690 1_555
N1 Zn0 2.222440 1_455
N2 Zn2 2.005546 1_565
N2 Zn0 2.080551 1_555
N2 Zn3 2.125634 1_654
N2 Zr0 2.194307 1_554
N2 Zr1 2.455061 1_655
N3 Zn3 2.005546 1_545
N3 Zn1 2.080551 1_555
N3 Zn2 2.125634 1_456
N3 Zr1 2.194307 1_556
N3 Zr0 2.455061 1_455
N4 Zn3 1.959172 1_555
N4 Zn6 1.988737 1_555
N4 Zn1 2.079660 1_555
N4 Zr0 2.108799 1_555
N5 Zn2 1.959172 1_555
N5 Zn7 1.988737 1_555
N5 Zn0 2.079660 1_555
N5 Zr1 2.108799 1_555
N6 Zn5 2.009180 1_555
N6 Zn0 2.042591 1_555
N6 Zr1 2.154227 1_565
N6 Zn6 2.196974 1_555
N6 Zn4 2.311757 1_555
N7 Zn4 2.009180 1_555
N7 Zn1 2.042591 1_555
N7 Zr0 2.154227 1_545
N7 Zn7 2.196974 1_555
N7 Zn5 2.311757 1_555
