# generated using pymatgen
data_TiCrCuS4
_symmetry_space_group_name_H-M   'P 1'
_cell_length_a   3.43111100
_cell_length_b   11.09417400
_cell_length_c   12.38931900
_cell_angle_alpha   90.00000000
_cell_angle_beta   90.00000000
_cell_angle_gamma   90.00000000
_symmetry_Int_Tables_number   1
_chemical_formula_structural   TiCrCuS4
_chemical_formula_sum   'Ti4 Cr4 Cu4 S16'
_cell_volume   471.60367042
_cell_formula_units_Z   4
loop_
 _symmetry_equiv_pos_site_id
 _symmetry_equiv_pos_as_xyz
  1  'x, y, z'
loop_
 _atom_site_type_symbol
 _atom_site_label
 _atom_site_symmetry_multiplicity
 _atom_site_fract_x
 _atom_site_fract_y
 _atom_site_fract_z
 _atom_site_occupancy
  Ti  Ti0  1  0.00000000  0.04712600  0.63175400  1
  Ti  Ti1  1  0.00000000  0.54712600  0.36824600  1
  Ti  Ti2  1  0.00000000  0.09336300  0.16949700  1
  Ti  Ti3  1  0.00000000  0.59336300  0.83050300  1
  Cr  Cr0  1  0.50000000  0.94966100  0.86945200  1
  Cr  Cr1  1  0.50000000  0.44966100  0.13054800  1
  Cr  Cr2  1  0.50000000  0.91115300  0.33242800  1
  Cr  Cr3  1  0.50000000  0.41115300  0.66757200  1
  Cu  Cu0  1  0.50000000  0.72485800  0.08651100  1
  Cu  Cu1  1  0.00000000  0.26243200  0.42576500  1
  Cu  Cu2  1  0.00000000  0.76243200  0.57423500  1
  Cu  Cu3  1  0.50000000  0.22485800  0.91348900  1
  S  S0  1  0.00000000  0.93557700  0.46048300  1
  S  S1  1  0.50000000  0.06455200  0.03717800  1
  S  S2  1  0.50000000  0.56455200  0.96282200  1
  S  S3  1  0.00000000  0.43557700  0.53951700  1
  S  S4  1  0.50000000  0.89988600  0.68442600  1
  S  S5  1  0.00000000  0.09755600  0.81936000  1
  S  S6  1  0.00000000  0.59755600  0.18064000  1
  S  S7  1  0.50000000  0.39988600  0.31557400  1
  S  S8  1  0.00000000  0.88102300  0.19761500  1
  S  S9  1  0.50000000  0.12434600  0.30930500  1
  S  S10  1  0.50000000  0.62434600  0.69069500  1
  S  S11  1  0.00000000  0.38102300  0.80238500  1
  S  S12  1  0.00000000  0.81190400  0.91504500  1
  S  S13  1  0.50000000  0.19656200  0.59061600  1
  S  S14  1  0.50000000  0.69656200  0.40938400  1
  S  S15  1  0.00000000  0.31190400  0.08495500  1
loop_
_geom_bond_atom_site_label_1
_geom_bond_atom_site_label_2
_geom_bond_distance
_geom_bond_site_symmetry_2
Cr0 S4 2.357921 1_555
Cr0 S12 2.365989 1_655
Cr0 S12 2.365989 1_555
Cr0 S1 2.437783 1_566
Cr0 S5 2.453654 1_565
Cr0 S5 2.453654 1_665
Cr1 S7 2.357921 1_555
Cr1 S15 2.365989 1_555
Cr1 S15 2.365989 1_655
Cr1 S2 2.437783 1_554
Cr1 S6 2.453654 1_655
Cr1 S6 2.453654 1_555
Cr2 S0 2.352356 1_655
Cr2 S0 2.352356 1_555
Cr2 S9 2.382487 1_565
Cr2 S8 2.417555 1_655
Cr2 S8 2.417555 1_555
Cr2 S14 2.564530 1_555
Cr3 S3 2.352356 1_555
Cr3 S3 2.352356 1_655
Cr3 S10 2.382487 1_555
Cr3 S11 2.417555 1_555
Cr3 S11 2.417555 1_655
Cr3 S13 2.564530 1_555
Cu0 S2 2.347605 1_554
Cu0 S6 2.509534 1_655
Cu0 S6 2.509534 1_555
Cu0 S8 2.799915 1_555
Cu0 S8 2.799915 1_655
Cu0 S12 2.896302 1_654
Cu0 S12 2.896302 1_554
Cu1 S3 2.382439 1_555
Cu1 S7 2.670640 1_455
Cu1 S7 2.670640 1_555
Cu1 S9 2.715115 1_455
Cu1 S9 2.715115 1_555
Cu1 S13 2.765596 1_555
Cu1 S13 2.765596 1_455
Cu2 S0 2.382439 1_555
Cu2 S4 2.670640 1_555
Cu2 S4 2.670640 1_455
Cu2 S10 2.715115 1_555
Cu2 S10 2.715115 1_455
Cu2 S14 2.765596 1_455
Cu2 S14 2.765596 1_555
Cu3 S1 2.347605 1_556
Cu3 S5 2.509534 1_555
Cu3 S5 2.509534 1_655
Cu3 S11 2.799915 1_555
Cu3 S11 2.799915 1_655
Cu3 S15 2.896302 1_656
Cu3 S15 2.896302 1_556
S0 Ti0 2.456442 1_565
S1 Ti2 2.394314 1_655
S1 Ti2 2.394314 1_555
S2 Ti3 2.394314 1_655
S2 Ti3 2.394314 1_555
S3 Ti1 2.456442 1_555
S4 Ti0 2.457096 1_565
S4 Ti0 2.457096 1_665
S5 Ti0 2.390698 1_555
S6 Ti1 2.390698 1_555
S7 Ti1 2.457096 1_655
S7 Ti1 2.457096 1_555
S8 Ti2 2.381355 1_565
S9 Ti2 2.462020 1_655
S9 Ti2 2.462020 1_555
S10 Ti3 2.462020 1_555
S10 Ti3 2.462020 1_655
S11 Ti3 2.381355 1_555
S12 Ti3 2.641106 1_555
S13 Ti0 2.439554 1_555
S13 Ti0 2.439554 1_655
S14 Ti1 2.439554 1_555
S14 Ti1 2.439554 1_655
S15 Ti2 2.641106 1_555
