# generated using pymatgen
data_NaSbS2
_symmetry_space_group_name_H-M   'P 1'
_cell_length_a   6.99014817
_cell_length_b   6.99014817
_cell_length_c   6.99014817
_cell_angle_alpha   132.93826856
_cell_angle_beta   132.93826856
_cell_angle_gamma   68.75110995
_symmetry_Int_Tables_number   1
_chemical_formula_structural   NaSbS2
_chemical_formula_sum   'Na2 Sb2 S4'
_cell_volume   179.73569976
_cell_formula_units_Z   2
loop_
 _symmetry_equiv_pos_site_id
 _symmetry_equiv_pos_as_xyz
  1  'x, y, z'
loop_
 _atom_site_type_symbol
 _atom_site_label
 _atom_site_symmetry_multiplicity
 _atom_site_fract_x
 _atom_site_fract_y
 _atom_site_fract_z
 _atom_site_occupancy
  Na  Na0  1  0.50000000  0.50000000  0.00000000  1
  Na  Na1  1  0.25000000  0.75000000  0.50000000  1
  Sb  Sb0  1  0.00000000  0.00000000  0.00000000  1
  Sb  Sb1  1  0.75000000  0.25000000  0.50000000  1
  S  S0  1  0.76101500  0.76101500  0.00000000  1
  S  S1  1  0.23898500  0.23898500  0.00000000  1
  S  S2  1  0.98898500  0.48898500  0.50000000  1
  S  S3  1  0.51101500  0.01101500  0.50000000  1
loop_
_geom_bond_atom_site_label_1
_geom_bond_atom_site_label_2
_geom_bond_distance
_geom_bond_site_symmetry_2
Na0 S2 2.793661 1_555
Na0 S2 2.793661 1_454
Na0 S3 2.793661 1_554
Na0 S3 2.793661 1_565
Na0 S0 3.011774 1_555
Na0 S1 3.011774 1_555
Na1 S0 2.793661 1_455
Na1 S1 2.793661 1_566
Na1 S1 2.793661 1_555
Na1 S0 2.793661 1_556
Na1 S3 3.011774 1_565
Na1 S2 3.011774 1_455
S0 Sb0 2.757576 1_665
S0 Sb1 2.793661 1_565
S0 Sb1 2.793661 1_554
S1 Sb0 2.757576 1_555
S1 Sb1 2.793661 1_454
S1 Sb1 2.793661 1_555
S2 Sb1 2.757576 1_555
S2 Sb0 2.793661 1_655
S2 Sb0 2.793661 1_666
S3 Sb1 2.757576 1_555
S3 Sb0 2.793661 1_656
S3 Sb0 2.793661 1_555
