# generated using pymatgen
data_Cs5Na(W2N5)2
_symmetry_space_group_name_H-M   'P 1'
_cell_length_a   11.02153945
_cell_length_b   11.02153945
_cell_length_c   11.02153945
_cell_angle_alpha   99.50089813
_cell_angle_beta   99.50089813
_cell_angle_gamma   132.05733058
_symmetry_Int_Tables_number   1
_chemical_formula_structural   Cs5Na(W2N5)2
_chemical_formula_sum   'Cs10 Na2 W8 N20'
_cell_volume   908.31273016
_cell_formula_units_Z   2
loop_
 _symmetry_equiv_pos_site_id
 _symmetry_equiv_pos_as_xyz
  1  'x, y, z'
loop_
 _atom_site_type_symbol
 _atom_site_label
 _atom_site_symmetry_multiplicity
 _atom_site_fract_x
 _atom_site_fract_y
 _atom_site_fract_z
 _atom_site_occupancy
  Cs  Cs0  1  0.36484100  0.58436800  0.56510000  1
  Cs  Cs1  1  0.01926800  0.79974100  0.43490000  1
  Cs  Cs2  1  0.04974100  0.11484100  0.28047300  1
  Cs  Cs3  1  0.83436800  0.76926800  0.71952700  1
  Cs  Cs4  1  0.71520200  0.43827400  0.08349100  1
  Cs  Cs5  1  0.35478300  0.63171100  0.91650900  1
  Cs  Cs6  1  0.88171100  0.46520200  0.77692800  1
  Cs  Cs7  1  0.68827400  0.10478300  0.22307200  1
  Cs  Cs8  1  0.48017100  0.98017100  0.50000000  1
  Cs  Cs9  1  0.23017100  0.23017100  0.00000000  1
  Na  Na0  1  0.73569100  0.73569100  0.00000000  1
  Na  Na1  1  0.98569100  0.48569100  0.50000000  1
  W  W0  1  0.35998600  0.26585400  0.69369200  1
  W  W1  1  0.57216300  0.66629400  0.30630800  1
  W  W2  1  0.91629400  0.10998600  0.59413200  1
  W  W3  1  0.51585400  0.32216300  0.40586800  1
  W  W4  1  0.78662500  0.10173400  0.89074300  1
  W  W5  1  0.21099100  0.89588200  0.10925700  1
  W  W6  1  0.14588200  0.53662500  0.18489100  1
  W  W7  1  0.35173400  0.96099100  0.81510900  1
  N  N0  1  0.50973800  0.49007200  0.80378600  1
  N  N1  1  0.68628700  0.70595300  0.19621400  1
  N  N2  1  0.95595300  0.25973800  0.51966600  1
  N  N3  1  0.74007200  0.43628700  0.48033400  1
  N  N4  1  0.08916300  0.52147100  0.32868200  1
  N  N5  1  0.19278900  0.76048000  0.67131800  1
  N  N6  1  0.01048000  0.83916300  0.06769100  1
  N  N7  1  0.77147100  0.94278900  0.93230900  1
  N  N8  1  0.41028300  0.25935100  0.53672000  1
  N  N9  1  0.72263100  0.87356300  0.46328000  1
  N  N10  1  0.12356300  0.16028300  0.65093200  1
  N  N11  1  0.50935100  0.47263100  0.34906800  1
  N  N12  1  0.96262500  0.31807200  0.04106600  1
  N  N13  1  0.27700600  0.92155900  0.95893400  1
  N  N14  1  0.17155900  0.71262500  0.14455300  1
  N  N15  1  0.56807200  0.02700600  0.85544700  1
  N  N16  1  0.84986700  0.13545600  0.73846500  1
  N  N17  1  0.39699200  0.11140200  0.26153500  1
  N  N18  1  0.36140200  0.59986700  0.21441100  1
  N  N19  1  0.38545600  0.14699100  0.78558900  1
loop_
_geom_bond_atom_site_label_1
_geom_bond_atom_site_label_2
_geom_bond_distance
_geom_bond_site_symmetry_2
Cs0 N2 3.228423 1_455
Cs0 N4 3.235766 1_555
Cs0 N0 3.505750 1_555
Cs0 N11 3.554485 1_555
Cs0 N9 3.573716 1_555
Cs0 N5 3.694307 1_555
Cs1 N3 3.228423 1_455
Cs1 N5 3.235773 1_555
Cs1 N1 3.505748 1_455
Cs1 N10 3.554485 1_565
Cs1 N8 3.573716 1_565
Cs1 N4 3.694316 1_555
Cs2 N1 3.228421 1_445
Cs2 N6 3.235765 1_545
Cs2 N2 3.505742 1_455
Cs2 N8 3.554485 1_555
Cs2 N11 3.573716 1_555
Cs2 N7 3.694307 1_444
Cs3 N0 3.228430 1_555
Cs3 N7 3.235773 1_555
Cs3 N3 3.505742 1_555
Cs3 N9 3.554485 1_555
Cs3 N10 3.573716 1_665
Cs3 N6 3.694303 1_656
Cs4 N1 3.244886 1_555
Cs4 N19 3.353277 1_554
Cs4 N6 3.364568 1_655
Cs4 N14 3.567813 1_655
Cs5 N0 3.244884 1_555
Cs5 N18 3.353277 1_556
Cs5 N7 3.364561 1_555
Cs5 N15 3.567813 1_565
Cs6 N3 3.244889 1_555
Cs6 N16 3.353277 1_555
Cs6 N5 3.364561 1_655
Cs6 N13 3.567813 1_655
Cs7 N2 3.244889 1_555
Cs7 N17 3.353266 1_555
Cs7 N4 3.364564 1_655
Cs7 N12 3.567813 1_555
Cs8 N17 3.475071 1_565
Cs8 N16 3.475076 1_565
Cs8 N4 3.559382 1_555
Cs8 N5 3.559384 1_555
Cs8 N9 3.618312 1_555
Cs8 N8 3.618312 1_565
Cs8 N15 3.736560 1_565
Cs8 N14 3.736560 1_555
Cs9 N18 3.475076 1_555
Cs9 N19 3.475076 1_554
Cs9 N6 3.559375 1_545
Cs9 N7 3.559384 1_444
Cs9 N11 3.618312 1_555
Cs9 N10 3.618312 1_554
Cs9 N13 3.736560 1_544
Cs9 N12 3.736560 1_455
N0 W0 1.785466 1_555
N0 Na0 2.337589 1_556
N1 W1 1.785465 1_555
N1 Na0 2.337584 1_555
N2 W2 1.785463 1_555
N2 Na1 2.337595 1_555
N3 W3 1.785466 1_555
N3 Na1 2.337595 1_555
N4 W6 1.790203 1_555
N4 Na1 2.318511 1_455
N5 W7 1.790208 1_555
N5 Na1 2.318505 1_455
N6 W5 1.790214 1_555
N6 Na0 2.318500 1_455
N7 W4 1.790208 1_565
N7 Na0 2.318505 1_556
N8 W0 1.906437 1_555
N8 W3 1.928062 1_555
N9 W1 1.906438 1_555
N9 W2 1.928061 1_565
N10 W2 1.906437 1_455
N10 W0 1.928061 1_555
N11 W3 1.906427 1_555
N11 W1 1.928058 1_555
N12 W6 1.886498 1_655
N12 W4 1.905598 1_554
N13 W7 1.886498 1_555
N13 W5 1.905598 1_556
N14 W5 1.886498 1_555
N14 W6 1.905598 1_555
N15 W4 1.886498 1_555
N15 W7 1.905598 1_545
N16 W2 1.912531 1_555
N16 W4 1.919855 1_555
N17 W3 1.912541 1_555
N17 W5 1.919856 1_545
N18 W1 1.912541 1_555
N18 W6 1.919855 1_555
N19 W0 1.912531 1_555
N19 W7 1.919855 1_545
