# generated using pymatgen
data_Tl3Co3O8
_symmetry_space_group_name_H-M   'P 1'
_cell_length_a   5.58116726
_cell_length_b   11.32911567
_cell_length_c   5.56870181
_cell_angle_alpha   90.00850724
_cell_angle_beta   90.69301103
_cell_angle_gamma   89.99994594
_symmetry_Int_Tables_number   1
_chemical_formula_structural   Tl3Co3O8
_chemical_formula_sum   'Tl6 Co6 O16'
_cell_volume   352.08152667
_cell_formula_units_Z   2
loop_
 _symmetry_equiv_pos_site_id
 _symmetry_equiv_pos_as_xyz
  1  'x, y, z'
loop_
 _atom_site_type_symbol
 _atom_site_label
 _atom_site_symmetry_multiplicity
 _atom_site_fract_x
 _atom_site_fract_y
 _atom_site_fract_z
 _atom_site_occupancy
  Tl  Tl0  1  0.80451500  0.50249600  0.27358900  1
  Tl  Tl1  1  0.29763900  0.49891500  0.73513400  1
  Tl  Tl2  1  0.69713200  0.17876700  0.26392800  1
  Tl  Tl3  1  0.19936500  0.82055400  0.73249000  1
  Tl  Tl4  1  0.69655100  0.82037800  0.26361100  1
  Tl  Tl5  1  0.19863200  0.17893400  0.73336000  1
  Co  Co0  1  0.69163200  0.99761900  0.79918400  1
  Co  Co1  1  0.24790500  0.33037400  0.23989800  1
  Co  Co2  1  0.25128200  0.67095700  0.24306600  1
  Co  Co3  1  0.19199100  0.00153100  0.19902600  1
  Co  Co4  1  0.74835700  0.66692900  0.76519900  1
  Co  Co5  1  0.75063200  0.32903000  0.75580900  1
  O  O0  1  0.96508200  0.27850500  0.05636100  1
  O  O1  1  0.46168300  0.72308000  0.94980300  1
  O  O2  1  0.45687600  0.28259500  0.95057700  1
  O  O3  1  0.95345000  0.71906400  0.04441800  1
  O  O4  1  0.83823700  0.99966800  0.12969400  1
  O  O5  1  0.33875500  0.00098800  0.87066500  1
  O  O6  1  0.18746000  0.49681100  0.13046400  1
  O  O7  1  0.68930100  0.50529300  0.86783400  1
  O  O8  1  0.30141500  0.14973300  0.34834200  1
  O  O9  1  0.79984200  0.84853800  0.65164900  1
  O  O10  1  0.30280200  0.85580200  0.35175700  1
  O  O11  1  0.80347400  0.14437900  0.64917100  1
  O  O12  1  0.54638800  0.36723100  0.43150400  1
  O  O13  1  0.05242600  0.63204600  0.56289900  1
  O  O14  1  0.05396500  0.36500700  0.55046300  1
  O  O15  1  0.55961400  0.63477500  0.45010700  1
loop_
_geom_bond_atom_site_label_1
_geom_bond_atom_site_label_2
_geom_bond_distance
_geom_bond_site_symmetry_2
Co0 O11 1.965951 1_565
Co0 O9 1.975827 1_555
Co0 O4 2.005262 1_556
Co0 O5 2.014363 1_565
Co1 O0 1.960185 1_455
Co1 O6 2.008974 1_555
Co1 O12 2.011188 1_555
Co1 O2 2.072253 1_554
Co1 O14 2.088449 1_555
Co1 O8 2.153614 1_555
Co2 O3 2.059007 1_455
Co2 O6 2.099217 1_555
Co2 O15 2.100190 1_555
Co2 O1 2.107443 1_554
Co2 O13 2.155527 1_555
Co2 O10 2.197687 1_555
Co3 O10 1.954300 1_545
Co3 O8 1.967408 1_555
Co3 O4 2.007278 1_445
Co3 O5 2.012657 1_554
Co4 O7 1.947674 1_555
Co4 O3 2.008346 1_556
Co4 O1 2.015188 1_555
Co4 O15 2.067914 1_555
Co4 O13 2.086005 1_655
Co4 O9 2.172641 1_555
Co5 O2 2.045548 1_555
Co5 O14 2.094469 1_655
Co5 O7 2.121027 1_555
Co5 O0 2.124433 1_556
Co5 O12 2.167634 1_555
Co5 O11 2.195374 1_555
O0 Tl2 2.211668 1_555
O0 Tl5 2.502595 1_654
O1 Tl3 2.187438 1_555
O1 Tl4 2.435395 1_556
O2 Tl5 2.208420 1_555
O2 Tl2 2.484060 1_556
O3 Tl4 2.214733 1_555
O3 Tl3 2.506255 1_654
O4 Tl2 2.304287 1_565
O4 Tl4 2.306932 1_555
O5 Tl5 2.290493 1_555
O5 Tl3 2.315366 1_545
O6 Tl0 2.290971 1_455
O6 Tl1 2.293024 1_554
O7 Tl1 2.300108 1_555
O7 Tl0 2.341972 1_556
O8 Tl5 2.250558 1_555
O8 Tl2 2.287373 1_555
O9 Tl4 2.252360 1_555
O9 Tl3 2.291497 1_655
O10 Tl3 2.240044 1_555
O10 Tl4 2.292900 1_555
O11 Tl2 2.252955 1_555
O11 Tl5 2.282973 1_655
O12 Tl0 2.286522 1_555
O12 Tl2 2.481096 1_555
O12 Tl1 2.658567 1_555
O13 Tl1 2.244199 1_555
O13 Tl3 2.471037 1_555
O13 Tl0 2.570896 1_455
O14 Tl1 2.274708 1_555
O14 Tl5 2.472617 1_555
O14 Tl0 2.586602 1_455
O15 Tl0 2.261051 1_555
O15 Tl4 2.470617 1_555
O15 Tl1 2.661398 1_555
