# generated using pymatgen
data_Nd6Fe13Au
_symmetry_space_group_name_H-M   'P 1'
_cell_length_a   8.03791200
_cell_length_b   8.03791200
_cell_length_c   12.84279935
_cell_angle_alpha   108.23617111
_cell_angle_beta   108.23617111
_cell_angle_gamma   90.00000000
_symmetry_Int_Tables_number   1
_chemical_formula_structural   Nd6Fe13Au
_chemical_formula_sum   'Nd12 Fe26 Au2'
_cell_volume   744.06877155
_cell_formula_units_Z   2
loop_
 _symmetry_equiv_pos_site_id
 _symmetry_equiv_pos_as_xyz
  1  'x, y, z'
loop_
 _atom_site_type_symbol
 _atom_site_label
 _atom_site_symmetry_multiplicity
 _atom_site_fract_x
 _atom_site_fract_y
 _atom_site_fract_z
 _atom_site_occupancy
  Nd  Nd0  1  0.97660300  0.47660300  0.62544700  1
  Nd  Nd1  1  0.64884400  0.14884400  0.62544700  1
  Nd  Nd2  1  0.14884400  0.97660300  0.62544700  1
  Nd  Nd3  1  0.47660300  0.64884400  0.62544700  1
  Nd  Nd4  1  0.02339700  0.52339700  0.37455300  1
  Nd  Nd5  1  0.35115600  0.85115600  0.37455300  1
  Nd  Nd6  1  0.85115600  0.02339700  0.37455300  1
  Nd  Nd7  1  0.52339700  0.35115600  0.37455300  1
  Nd  Nd8  1  0.60717400  0.60717400  0.21434800  1
  Nd  Nd9  1  0.10717400  0.10717400  0.21434800  1
  Nd  Nd10  1  0.39282600  0.39282600  0.78565200  1
  Nd  Nd11  1  0.89282600  0.89282600  0.78565200  1
  Fe  Fe0  1  0.11893800  0.61893800  0.88084100  1
  Fe  Fe1  1  0.76190300  0.26190300  0.88084100  1
  Fe  Fe2  1  0.26190300  0.11893800  0.88084100  1
  Fe  Fe3  1  0.61893800  0.76190300  0.88084100  1
  Fe  Fe4  1  0.88106200  0.38106200  0.11915900  1
  Fe  Fe5  1  0.23809700  0.73809700  0.11915900  1
  Fe  Fe6  1  0.73809700  0.88106200  0.11915900  1
  Fe  Fe7  1  0.38106200  0.23809700  0.11915900  1
  Fe  Fe8  1  0.70980600  0.56671700  0.00000000  1
  Fe  Fe9  1  0.29019400  0.43328300  0.00000000  1
  Fe  Fe10  1  0.79019400  0.06671700  0.00000000  1
  Fe  Fe11  1  0.20980600  0.93328300  0.00000000  1
  Fe  Fe12  1  0.56671700  0.29019400  0.00000000  1
  Fe  Fe13  1  0.43328300  0.70980600  0.00000000  1
  Fe  Fe14  1  0.06671700  0.20980600  0.00000000  1
  Fe  Fe15  1  0.93328300  0.79019400  0.00000000  1
  Fe  Fe16  1  0.29030700  0.79030700  0.80827000  1
  Fe  Fe17  1  0.51796300  0.01796300  0.80827000  1
  Fe  Fe18  1  0.01796300  0.29030700  0.80827000  1
  Fe  Fe19  1  0.79030700  0.51796300  0.80827000  1
  Fe  Fe20  1  0.70969300  0.20969300  0.19173000  1
  Fe  Fe21  1  0.48203700  0.98203700  0.19173000  1
  Fe  Fe22  1  0.98203700  0.70969300  0.19173000  1
  Fe  Fe23  1  0.20969300  0.48203700  0.19173000  1
  Fe  Fe24  1  0.00000000  0.50000000  0.00000000  1
  Fe  Fe25  1  0.50000000  0.00000000  0.00000000  1
  Au  Au0  1  0.25000000  0.25000000  0.50000000  1
  Au  Au1  1  0.75000000  0.75000000  0.50000000  1
loop_
_geom_bond_atom_site_label_1
_geom_bond_atom_site_label_2
_geom_bond_distance
_geom_bond_site_symmetry_2
Fe0 Fe24 2.449728 1_556
Fe0 Fe11 2.477884 1_556
Fe0 Fe13 2.477884 1_556
Fe0 Fe16 2.504070 1_555
Fe0 Fe19 2.547680 1_455
Fe0 Fe18 2.547680 1_555
Fe0 Fe15 2.564086 1_456
Fe0 Fe9 2.564086 1_556
Fe0 Fe5 2.744628 1_556
Fe0 Nd0 2.945989 1_455
Fe0 Nd11 3.152467 1_455
Fe0 Nd10 3.152467 1_555
Fe1 Fe24 2.449728 1_656
Fe1 Fe12 2.477884 1_556
Fe1 Fe10 2.477884 1_556
Fe1 Fe17 2.504070 1_555
Fe1 Fe18 2.547680 1_655
Fe1 Fe19 2.547680 1_555
Fe1 Fe14 2.564086 1_656
Fe1 Fe8 2.564086 1_556
Fe1 Fe4 2.744628 1_556
Fe1 Nd1 2.945989 1_555
Fe1 Nd10 3.152467 1_555
Fe1 Nd11 3.152467 1_545
Fe2 Fe25 2.449728 1_556
Fe2 Fe9 2.477884 1_556
Fe2 Fe7 2.744628 1_556
Fe2 Nd2 2.945989 1_545
Fe2 Nd11 3.152467 1_445
Fe2 Nd10 3.152467 1_555
Fe3 Fe8 2.477884 1_556
Fe3 Fe6 2.744628 1_556
Fe3 Nd3 2.945989 1_555
Fe3 Nd11 3.152467 1_555
Fe3 Nd10 3.152467 1_555
Fe4 Fe8 2.564086 1_555
Fe4 Nd4 2.945989 1_655
Fe4 Nd9 3.152467 1_655
Fe4 Nd8 3.152467 1_555
Fe5 Fe9 2.564086 1_555
Fe5 Nd5 2.945989 1_555
Fe5 Nd9 3.152467 1_565
Fe5 Nd8 3.152467 1_555
Fe6 Fe8 2.477884 1_555
Fe6 Nd6 2.945989 1_565
Fe6 Nd9 3.152467 1_665
Fe6 Nd8 3.152467 1_555
Fe7 Fe9 2.477884 1_555
Fe7 Nd7 2.945989 1_555
Fe7 Nd9 3.152467 1_555
Fe7 Nd8 3.152467 1_555
Fe8 Nd8 3.037332 1_555
Fe8 Nd10 3.037332 1_554
Fe9 Nd8 3.037332 1_555
Fe9 Nd10 3.037332 1_554
Fe10 Fe25 2.393405 1_555
Fe10 Fe4 2.477884 1_555
Fe10 Fe14 2.502612 1_655
Fe10 Fe15 2.502612 1_545
Fe10 Fe12 2.540336 1_555
Fe10 Fe6 2.564086 1_545
Fe10 Fe3 2.564086 1_544
Fe10 Fe17 2.651166 1_554
Fe10 Fe20 2.651166 1_555
Fe10 Nd9 3.037332 1_655
Fe10 Nd11 3.037332 1_544
Fe11 Fe25 2.393405 1_565
Fe11 Fe5 2.477884 1_555
Fe11 Fe14 2.502612 1_565
Fe11 Fe15 2.502612 1_455
Fe11 Fe13 2.540336 1_555
Fe11 Fe2 2.564086 1_564
Fe11 Fe7 2.564086 1_565
Fe11 Fe16 2.651166 1_554
Fe11 Fe21 2.651166 1_555
Fe11 Nd9 3.037332 1_565
Fe11 Nd11 3.037332 1_454
Fe12 Fe25 2.393405 1_555
Fe12 Fe4 2.477884 1_555
Fe12 Fe8 2.502612 1_555
Fe12 Fe9 2.502612 1_555
Fe12 Fe2 2.564086 1_554
Fe12 Fe7 2.564086 1_555
Fe12 Fe17 2.651166 1_554
Fe12 Fe20 2.651166 1_555
Fe12 Nd8 3.037332 1_555
Fe12 Nd10 3.037332 1_554
Fe13 Fe25 2.393405 1_565
Fe13 Fe5 2.477884 1_555
Fe13 Fe8 2.502612 1_555
Fe13 Fe9 2.502612 1_555
Fe13 Fe6 2.564086 1_555
Fe13 Fe3 2.564086 1_554
Fe13 Fe21 2.651166 1_555
Fe13 Fe16 2.651166 1_554
Fe13 Nd8 3.037332 1_555
Fe13 Nd10 3.037332 1_554
Fe14 Fe24 2.393405 1_555
Fe14 Fe7 2.477884 1_555
Fe14 Fe2 2.477884 1_554
Fe14 Fe9 2.540336 1_555
Fe14 Fe4 2.564086 1_455
Fe14 Fe18 2.651166 1_554
Fe14 Fe23 2.651166 1_555
Fe14 Nd9 3.037332 1_555
Fe14 Nd11 3.037332 1_444
Fe15 Fe24 2.393405 1_655
Fe15 Fe3 2.477884 1_554
Fe15 Fe6 2.477884 1_555
Fe15 Fe8 2.540336 1_555
Fe15 Fe5 2.564086 1_655
Fe15 Fe19 2.651166 1_554
Fe15 Fe22 2.651166 1_555
Fe15 Nd9 3.037332 1_665
Fe15 Nd11 3.037332 1_554
Fe16 Fe2 2.547680 1_565
Fe16 Fe3 2.547680 1_555
Fe16 Fe25 2.559275 1_566
Fe16 Fe17 2.587840 1_565
Fe16 Nd3 3.094785 1_555
Fe16 Nd2 3.094785 1_555
Fe16 Nd11 3.246519 1_455
Fe16 Nd10 3.246519 1_555
Fe16 Nd0 3.289111 1_455
Fe17 Fe2 2.547680 1_555
Fe17 Fe3 2.547680 1_545
Fe17 Fe25 2.559275 1_556
Fe17 Nd2 3.094785 1_545
Fe17 Nd3 3.094785 1_545
Fe17 Nd10 3.246519 1_555
Fe17 Nd11 3.246519 1_545
Fe17 Nd1 3.289111 1_555
Fe18 Fe2 2.504070 1_555
Fe18 Fe24 2.559275 1_556
Fe18 Fe19 2.587840 1_455
Fe18 Fe9 2.651166 1_556
Fe18 Nd1 3.094785 1_455
Fe18 Nd0 3.094785 1_455
Fe18 Nd11 3.246519 1_445
Fe18 Nd10 3.246519 1_555
Fe18 Nd2 3.289111 1_545
Fe19 Fe3 2.504070 1_555
Fe19 Fe24 2.559275 1_656
Fe19 Fe8 2.651166 1_556
Fe19 Nd1 3.094785 1_555
Fe19 Nd0 3.094785 1_555
Fe19 Nd10 3.246519 1_555
Fe19 Nd11 3.246519 1_555
Fe19 Nd3 3.289111 1_555
Fe20 Fe4 2.504070 1_555
Fe20 Fe6 2.547680 1_545
Fe20 Fe7 2.547680 1_555
Fe20 Fe25 2.559275 1_555
Fe20 Fe21 2.587840 1_545
Fe20 Nd7 3.094785 1_555
Fe20 Nd6 3.094785 1_555
Fe20 Nd9 3.246519 1_655
Fe20 Nd8 3.246519 1_555
Fe20 Nd4 3.289111 1_655
Fe21 Fe5 2.504070 1_555
Fe21 Fe6 2.547680 1_555
Fe21 Fe7 2.547680 1_565
Fe21 Fe25 2.559275 1_565
Fe21 Nd6 3.094785 1_565
Fe21 Nd7 3.094785 1_565
Fe21 Nd8 3.246519 1_555
Fe21 Nd9 3.246519 1_565
Fe21 Nd5 3.289111 1_555
Fe22 Fe6 2.504070 1_555
Fe22 Fe4 2.547680 1_555
Fe22 Fe5 2.547680 1_655
Fe22 Fe24 2.559275 1_655
Fe22 Fe23 2.587840 1_655
Fe22 Fe8 2.651166 1_555
Fe22 Nd4 3.094785 1_655
Fe22 Nd5 3.094785 1_655
Fe22 Nd8 3.246519 1_555
Fe22 Nd9 3.246519 1_665
Fe22 Nd6 3.289111 1_565
Fe23 Fe7 2.504070 1_555
Fe23 Fe5 2.547680 1_555
Fe23 Fe4 2.547680 1_455
Fe23 Fe24 2.559275 1_555
Fe23 Fe9 2.651166 1_555
Fe23 Nd5 3.094785 1_555
Fe23 Nd4 3.094785 1_555
Fe23 Nd8 3.246519 1_555
Fe23 Nd9 3.246519 1_555
Fe23 Nd7 3.289111 1_555
Fe24 Fe9 2.393405 1_555
Fe24 Fe8 2.393405 1_455
Fe24 Fe5 2.449728 1_555
Fe24 Fe4 2.449728 1_455
Fe25 Fe6 2.449728 1_545
Fe25 Fe3 2.449728 1_544
Fe25 Fe7 2.449728 1_555
Au0 Nd10 3.289757 1_555
Au0 Nd9 3.289757 1_555
Au0 Nd1 3.334908 1_555
Au0 Nd2 3.334908 1_545
Au0 Nd3 3.334908 1_555
Au0 Nd0 3.334908 1_455
Au0 Nd5 3.334908 1_545
Au0 Nd7 3.334908 1_555
Au0 Nd4 3.334908 1_555
Au0 Nd6 3.334908 1_455
Au1 Nd11 3.289757 1_555
Au1 Nd8 3.289757 1_555
Au1 Nd3 3.334908 1_555
Au1 Nd2 3.334908 1_655
Au1 Nd1 3.334908 1_565
Au1 Nd0 3.334908 1_555
Au1 Nd4 3.334908 1_655
Au1 Nd6 3.334908 1_565
Au1 Nd5 3.334908 1_555
Au1 Nd7 3.334908 1_555
