# generated using pymatgen
data_Si3N4
_symmetry_space_group_name_H-M   'P 1'
_cell_length_a   11.18101368
_cell_length_b   10.83422249
_cell_length_c   10.05271226
_cell_angle_alpha   87.83659384
_cell_angle_beta   86.79562098
_cell_angle_gamma   91.35743758
_symmetry_Int_Tables_number   1
_chemical_formula_structural   Si3N4
_chemical_formula_sum   'Si45 N60'
_cell_volume   1214.58445589
_cell_formula_units_Z   15
loop_
 _symmetry_equiv_pos_site_id
 _symmetry_equiv_pos_as_xyz
  1  'x, y, z'
loop_
 _atom_site_type_symbol
 _atom_site_label
 _atom_site_symmetry_multiplicity
 _atom_site_fract_x
 _atom_site_fract_y
 _atom_site_fract_z
 _atom_site_occupancy
  Si  Si0  1  0.96859900  0.46442100  0.55552500  1
  Si  Si1  1  0.54808700  0.79805400  0.51092700  1
  Si  Si2  1  0.37359900  0.03687400  0.13255100  1
  Si  Si3  1  0.02179300  0.29406000  0.34733200  1
  Si  Si4  1  0.41126500  0.63437500  0.29344800  1
  Si  Si5  1  0.44274600  0.38876100  0.66653500  1
  Si  Si6  1  0.75124500  0.05853300  0.75263400  1
  Si  Si7  1  0.96042000  0.67283100  0.50227300  1
  Si  Si8  1  0.19866900  0.48049400  0.73337100  1
  Si  Si9  1  0.01251200  0.74010900  0.00248000  1
  Si  Si10  1  0.20512500  0.62931000  0.51422100  1
  Si  Si11  1  0.44121800  0.71810400  0.99398800  1
  Si  Si12  1  0.64327200  0.25575900  0.02412900  1
  Si  Si13  1  0.29717600  0.33127600  0.22654900  1
  Si  Si14  1  0.51631400  0.32059600  0.46977800  1
  Si  Si15  1  0.48838400  0.93368400  0.78259400  1
  Si  Si16  1  0.65043500  0.54929000  0.62724700  1
  Si  Si17  1  0.54985900  0.98567900  0.99900500  1
  Si  Si18  1  0.56827100  0.14117500  0.29734200  1
  Si  Si19  1  0.18745200  0.74255900  0.83512500  1
  Si  Si20  1  0.09272500  0.02421000  0.48702100  1
  Si  Si21  1  0.15770900  0.34247700  0.00061200  1
  Si  Si22  1  0.99039300  0.07607700  0.26858800  1
  Si  Si23  1  0.35980700  0.12259100  0.42778200  1
  Si  Si24  1  0.41909200  0.65256300  0.72326000  1
  Si  Si25  1  0.43773600  0.17808700  0.87439200  1
  Si  Si26  1  0.04699800  0.79150300  0.30128200  1
  Si  Si27  1  0.96604000  0.91362800  0.78173900  1
  Si  Si28  1  0.85792100  0.88324700  0.57884000  1
  Si  Si29  1  0.95651000  0.41368900  0.83317300  1
  Si  Si30  1  0.24885500  0.81421200  0.10178000  1
  Si  Si31  1  0.69525400  0.48252200  0.86089400  1
  Si  Si32  1  0.83151600  0.06056400  0.01186100  1
  Si  Si33  1  0.70857000  0.13314200  0.49382900  1
  Si  Si34  1  0.25149200  0.40884900  0.46589000  1
  Si  Si35  1  0.72021700  0.78571900  0.09398700  1
  Si  Si36  1  0.92285100  0.29509100  0.06856700  1
  Si  Si37  1  0.75554600  0.96629400  0.23056100  1
  Si  Si38  1  0.77073600  0.47121000  0.37226200  1
  Si  Si39  1  0.70169600  0.77603000  0.81879800  1
  Si  Si40  1  0.76868200  0.74701800  0.41075800  1
  Si  Si41  1  0.39692000  0.44558800  0.94688500  1
  Si  Si42  1  0.77161200  0.27911100  0.66330000  1
  Si  Si43  1  0.60808200  0.42354300  0.19782900  1
  Si  Si44  1  0.85049600  0.55110300  0.07545800  1
  N  N0  1  0.91283400  0.70587900  0.34213800  1
  N  N1  1  0.64950200  0.92866700  0.78993800  1
  N  N2  1  0.63243900  0.39683300  0.38437400  1
  N  N3  1  0.71517400  0.81376600  0.26346600  1
  N  N4  1  0.75053400  0.50314200  0.20199600  1
  N  N5  1  0.87869800  0.03106800  0.85310500  1
  N  N6  1  0.25638600  0.65002700  0.69182900  1
  N  N7  1  0.68395300  0.40564600  0.70618500  1
  N  N8  1  0.07166100  0.85474800  0.88055600  1
  N  N9  1  0.47723700  0.50896400  0.20361000  1
  N  N10  1  0.00639300  0.94124800  0.61439000  1
  N  N11  1  0.38568100  0.44203900  0.13115300  1
  N  N12  1  0.37272000  0.29966500  0.38727700  1
  N  N13  1  0.47207100  0.80238100  0.67941000  1
  N  N14  1  0.43264400  0.06816700  0.28579200  1
  N  N15  1  0.42369400  0.06964600  0.75711700  1
  N  N16  1  0.44627100  0.33373500  0.82953000  1
  N  N17  1  0.16837500  0.35263000  0.33406700  1
  N  N18  1  0.29326400  0.38878100  0.63299100  1
  N  N19  1  0.24814800  0.95483400  0.15545100  1
  N  N20  1  0.07736600  0.62988400  0.89177000  1
  N  N21  1  0.04573100  0.94450700  0.34256300  1
  N  N22  1  0.91593500  0.35884900  0.68141700  1
  N  N23  1  0.89687100  0.00576300  0.15622800  1
  N  N24  1  0.70082200  0.96108200  0.06529300  1
  N  N25  1  0.85777000  0.71288300  0.04278700  1
  N  N26  1  0.98896900  0.22784500  0.19885700  1
  N  N27  1  0.48217800  0.72833700  0.39507800  1
  N  N28  1  0.70492400  0.07608100  0.33083500  1
  N  N29  1  0.24597100  0.43426800  0.89492100  1
  N  N30  1  0.19035200  0.15224600  0.80608500  1
  N  N31  1  0.58812200  0.26223300  0.18580200  1
  N  N32  1  0.30221800  0.56130000  0.40493200  1
  N  N33  1  0.84651000  0.81135900  0.74325000  1
  N  N34  1  0.83776400  0.47614800  0.92536900  1
  N  N35  1  0.97756900  0.46099700  0.11449900  1
  N  N36  1  0.25204000  0.24506600  0.09069900  1
  N  N37  1  0.54287600  0.16209200  0.47360600  1
  N  N38  1  0.13297200  0.14928900  0.71859800  1
  N  N39  1  0.61365400  0.73774300  0.99133500  1
  N  N40  1  0.77866500  0.02299500  0.58440200  1
  N  N41  1  0.43592300  0.59600100  0.88744700  1
  N  N42  1  0.09821100  0.75544400  0.14106400  1
  N  N43  1  0.10707800  0.72817400  0.45222400  1
  N  N44  1  0.73897300  0.59431600  0.48198600  1
  N  N45  1  0.36821700  0.71811300  0.15149900  1
  N  N46  1  0.35462000  0.17413800  0.03349800  1
  N  N47  1  0.79520100  0.21576400  0.02604200  1
  N  N48  1  0.09122900  0.46871200  0.10735200  1
  N  N49  1  0.12369100  0.48511700  0.55859700  1
  N  N50  1  0.29973100  0.78807700  0.93193000  1
  N  N51  1  0.05636100  0.53652400  0.79814400  1
  N  N52  1  0.02272800  0.30068400  0.93141800  1
  N  N53  1  0.58214900  0.14068400  0.93436500  1
  N  N54  1  0.91419200  0.40589900  0.40748900  1
  N  N55  1  0.68259400  0.62545600  0.77049400  1
  N  N56  1  0.49390100  0.54432600  0.63108100  1
  N  N57  1  0.00950200  0.14904800  0.42484300  1
  N  N58  1  0.61418100  0.41274700  0.99615600  1
  N  N59  1  0.24023200  0.05443000  0.49509300  1
loop_
_geom_bond_atom_site_label_1
_geom_bond_atom_site_label_2
_geom_bond_distance
_geom_bond_site_symmetry_2
N0 Si7 1.750422 1_555
N0 Si26 1.765205 1_655
N0 Si40 1.790320 1_555
N1 Si39 1.785470 1_555
N1 Si6 1.803058 1_565
N1 Si15 1.809109 1_555
N2 Si14 1.695930 1_555
N2 Si38 1.722707 1_555
N2 Si43 1.922096 1_555
N3 Si37 1.717762 1_555
N3 Si35 1.739927 1_555
N3 Si40 1.764089 1_555
N4 Si44 1.703218 1_555
N4 Si38 1.761426 1_555
N4 Si43 1.796514 1_555
N5 Si32 1.696992 1_556
N5 Si27 1.771095 1_545
N5 Si6 1.815969 1_555
N6 Si24 1.863516 1_555
N6 Si19 1.922416 1_555
N6 Si10 1.924902 1_555
N6 Si8 1.954568 1_555
N7 Si42 1.756963 1_555
N7 Si16 1.777576 1_555
N7 Si31 1.800901 1_555
N8 Si27 1.705106 1_455
N8 Si9 1.799386 1_556
N8 Si19 1.847291 1_555
N9 Si43 1.748967 1_555
N9 Si4 1.808736 1_555
N10 Si27 1.730325 1_455
N10 Si20 1.764347 1_565
N10 Si28 1.819966 1_455
N11 N9 1.480641 1_555
N11 Si13 1.757769 1_555
N11 Si41 1.848513 1_554
N12 Si14 1.860857 1_555
N12 Si13 1.888359 1_555
N12 Si23 1.946396 1_555
N12 Si34 1.971772 1_555
N13 Si24 1.746737 1_555
N13 Si15 1.803656 1_555
N13 Si1 1.854776 1_555
N14 Si18 1.705444 1_555
N14 Si23 1.733400 1_555
N14 Si2 1.751117 1_555
N15 Si15 1.673714 1_545
N15 Si25 1.706278 1_555
N16 Si5 1.725215 1_555
N16 Si25 1.728101 1_555
N16 Si41 1.797680 1_555
N17 Si3 1.739673 1_555
N17 Si13 1.776617 1_555
N17 Si34 1.778355 1_555
N18 Si5 1.723419 1_555
N18 Si8 1.769300 1_555
N18 Si34 1.775429 1_555
N19 Si30 1.635379 1_555
N19 Si2 1.643136 1_565
N20 N51 1.431585 1_555
N20 Si19 1.768473 1_555
N20 Si9 1.800476 1_556
N21 Si26 1.724154 1_555
N21 Si22 1.726550 1_465
N21 Si20 1.813590 1_565
N22 Si29 1.737583 1_555
N22 Si0 1.741295 1_555
N22 Si42 1.833612 1_555
N23 Si37 1.746421 1_545
N23 Si32 1.751216 1_555
N23 Si22 1.763193 1_555
N24 Si37 1.804685 1_555
N24 Si32 1.838337 1_565
N24 Si17 1.870239 1_554
N24 Si35 1.930044 1_555
N25 Si9 1.770059 1_655
N25 Si44 1.770155 1_555
N25 Si35 1.803520 1_555
N26 Si36 1.689534 1_555
N26 Si3 1.733993 1_655
N26 Si22 1.763742 1_555
N27 Si1 1.614268 1_555
N27 Si4 1.685116 1_555
N28 Si37 1.676282 1_545
N28 Si18 1.742385 1_555
N28 Si33 1.775214 1_555
N29 Si21 1.687680 1_556
N29 Si8 1.793080 1_555
N29 Si41 1.797237 1_555
N30 N38 1.118193 1_555
N31 Si18 1.695317 1_555
N31 Si12 1.710326 1_555
N31 Si43 1.766142 1_555
N32 Si10 1.701224 1_555
N32 Si4 1.761792 1_555
N32 Si34 1.807101 1_555
N33 Si39 1.776572 1_555
N33 Si27 1.784248 1_555
N33 Si28 1.796957 1_555
N34 Si29 1.741278 1_555
N34 Si44 1.751360 1_556
N34 Si31 1.755307 1_555
N35 N48 1.269438 1_655
N35 Si44 1.795792 1_555
N35 Si36 1.964821 1_555
N36 N46 1.496011 1_555
N36 Si21 1.770239 1_555
N36 Si13 1.772887 1_555
N37 Si14 1.749041 1_555
N37 Si18 1.802453 1_555
N37 Si33 1.907028 1_555
N37 Si23 2.159615 1_555
N39 Si35 1.703906 1_556
N39 Si11 1.933285 1_555
N39 Si39 1.971022 1_555
N40 Si33 1.705700 1_555
N40 Si6 1.760439 1_555
N40 Si28 1.773474 1_545
N41 Si11 1.735221 1_555
N41 Si41 1.751144 1_555
N41 Si24 1.760398 1_555
N42 Si26 1.740581 1_555
N42 Si9 1.745215 1_555
N42 Si30 1.803950 1_555
N43 Si10 1.679025 1_555
N43 Si7 1.771993 1_455
N43 Si26 1.811529 1_555
N44 Si16 1.764106 1_555
N44 Si38 1.792043 1_555
N44 Si40 1.793891 1_555
N45 Si11 1.740387 1_554
N45 Si4 1.758047 1_555
N45 Si30 1.793339 1_555
N46 Si2 1.781835 1_555
N46 Si25 1.802907 1_554
N47 Si36 1.730980 1_555
N47 Si32 1.748288 1_555
N47 Si12 1.763995 1_555
N48 Si21 1.908975 1_555
N49 Si0 1.745386 1_455
N49 Si10 1.817458 1_555
N49 Si34 1.886374 1_555
N49 Si8 1.988014 1_555
N50 Si19 1.705789 1_555
N50 Si30 1.804080 1_556
N50 Si11 1.896834 1_555
N51 Si29 1.729678 1_455
N51 Si8 1.812186 1_555
N52 Si36 1.723362 1_456
N52 Si29 1.748126 1_455
N52 Si21 1.753678 1_556
N53 Si12 1.717332 1_556
N53 Si17 1.798749 1_545
N53 Si25 1.804517 1_555
N54 Si0 1.772249 1_555
N54 Si38 1.815823 1_555
N54 Si3 1.823287 1_655
N55 Si39 1.731362 1_555
N55 Si16 1.737081 1_555
N55 Si31 1.778343 1_555
N56 Si24 1.724910 1_555
N56 Si16 1.747985 1_555
N56 Si5 1.783540 1_555
N57 Si3 1.726191 1_555
N57 Si20 1.773895 1_555
N57 Si22 1.805912 1_455
N58 Si31 1.730383 1_555
N58 Si12 1.754442 1_556
N58 Si43 2.032572 1_556
N59 Si23 1.614017 1_555
N59 Si20 1.680858 1_555
