# generated using pymatgen
data_Nd3MnGaS7
_symmetry_space_group_name_H-M   'P 1'
_cell_length_a   10.08139956
_cell_length_b   10.08139956
_cell_length_c   6.06296700
_cell_angle_alpha   90.00000000
_cell_angle_beta   90.00000000
_cell_angle_gamma   119.99999713
_symmetry_Int_Tables_number   1
_chemical_formula_structural   Nd3MnGaS7
_chemical_formula_sum   'Nd6 Mn2 Ga2 S14'
_cell_volume   533.65121699
_cell_formula_units_Z   2
loop_
 _symmetry_equiv_pos_site_id
 _symmetry_equiv_pos_as_xyz
  1  'x, y, z'
loop_
 _atom_site_type_symbol
 _atom_site_label
 _atom_site_symmetry_multiplicity
 _atom_site_fract_x
 _atom_site_fract_y
 _atom_site_fract_z
 _atom_site_occupancy
  Nd  Nd0  1  0.76556700  0.14020300  0.24848600  1
  Nd  Nd1  1  0.37463600  0.23443300  0.24848600  1
  Nd  Nd2  1  0.85979700  0.62536400  0.24848600  1
  Nd  Nd3  1  0.23443300  0.85979700  0.74848600  1
  Nd  Nd4  1  0.62536400  0.76556700  0.74848600  1
  Nd  Nd5  1  0.14020300  0.37463600  0.74848600  1
  Mn  Mn0  1  0.00000000  0.00000000  0.02382700  1
  Mn  Mn1  1  0.00000000  0.00000000  0.52382700  1
  Ga  Ga0  1  0.66666700  0.33333300  0.67090000  1
  Ga  Ga1  1  0.33333300  0.66666700  0.17090000  1
  S  S0  1  0.85221200  0.09026600  0.78548100  1
  S  S1  1  0.23805500  0.14778800  0.78548100  1
  S  S2  1  0.90973400  0.76194500  0.78548100  1
  S  S3  1  0.14778800  0.90973400  0.28548100  1
  S  S4  1  0.76194500  0.85221200  0.28548100  1
  S  S5  1  0.09026600  0.23805500  0.28548100  1
  S  S6  1  0.90356400  0.41986000  0.51654300  1
  S  S7  1  0.51629600  0.09643600  0.51654300  1
  S  S8  1  0.58014000  0.48370400  0.51654300  1
  S  S9  1  0.09643600  0.58014000  0.01654300  1
  S  S10  1  0.48370400  0.90356400  0.01654300  1
  S  S11  1  0.41986000  0.51629600  0.01654300  1
  S  S12  1  0.66666700  0.33333300  0.04177900  1
  S  S13  1  0.33333300  0.66666700  0.54177900  1
loop_
_geom_bond_atom_site_label_1
_geom_bond_atom_site_label_2
_geom_bond_distance
_geom_bond_site_symmetry_2
Nd0 S7 2.835910 1_555
Nd0 S12 2.880439 1_555
Nd0 S4 2.893974 1_545
Nd0 S5 2.917116 1_655
Nd0 S6 2.933116 1_555
Nd0 S10 2.994068 1_545
Nd0 S0 3.055567 1_554
Nd0 S0 3.472222 1_555
Nd1 S8 2.835910 1_555
Nd1 S12 2.880448 1_555
Nd1 S5 2.893984 1_555
Nd1 S3 2.917118 1_545
Nd1 S7 2.933115 1_555
Nd1 S11 2.994068 1_555
Nd1 S1 3.055564 1_554
Nd1 S1 3.472220 1_555
Nd2 S6 2.835909 1_555
Nd2 S12 2.880447 1_555
Nd2 S3 2.893979 1_655
Nd2 S4 2.917125 1_555
Nd2 S8 2.933116 1_555
Nd2 S9 2.994068 1_655
Nd2 S2 3.055563 1_554
Nd2 S2 3.472219 1_555
Nd3 S10 2.835910 1_556
Nd3 S13 2.880439 1_555
Nd3 S1 2.893974 1_565
Nd3 S2 2.917116 1_455
Nd3 S9 2.933116 1_556
Nd3 S7 2.994068 1_565
Nd3 S3 3.055567 1_555
Nd3 S3 3.472222 1_556
Nd4 S11 2.835910 1_556
Nd4 S13 2.880448 1_555
Nd4 S2 2.893984 1_555
Nd4 S0 2.917118 1_565
Nd4 S10 2.933115 1_556
Nd4 S8 2.994068 1_555
Nd4 S4 3.055564 1_555
Nd4 S4 3.472220 1_556
Nd5 S9 2.835909 1_556
Nd5 S13 2.880447 1_555
Nd5 S0 2.893979 1_455
Nd5 S1 2.917125 1_555
Nd5 S11 2.933116 1_556
Nd5 S6 2.994068 1_455
Nd5 S5 3.055563 1_555
Nd5 S5 3.472219 1_556
Mn0 S0 2.547949 1_454
Mn0 S1 2.547955 1_554
Mn0 S2 2.547956 1_444
Mn0 S3 2.630673 1_545
Mn0 S4 2.630679 1_445
Mn0 S5 2.630680 1_555
Mn1 S3 2.547949 1_545
Mn1 S4 2.547955 1_445
Mn1 S5 2.547956 1_555
Mn1 S0 2.630673 1_455
Mn1 S1 2.630679 1_555
Mn1 S2 2.630680 1_445
Ga0 S12 2.248627 1_556
Ga0 S6 2.292862 1_555
Ga0 S7 2.292863 1_555
Ga0 S8 2.292870 1_555
Ga1 S13 2.248627 1_555
Ga1 S9 2.292862 1_555
Ga1 S10 2.292863 1_555
Ga1 S11 2.292870 1_555
