# generated using pymatgen
data_KZn(PO3)3
_symmetry_space_group_name_H-M   'P 1'
_cell_length_a   6.69134993
_cell_length_b   6.69134993
_cell_length_c   10.00972100
_cell_angle_alpha   90.00000000
_cell_angle_beta   90.00000000
_cell_angle_gamma   119.99999927
_symmetry_Int_Tables_number   1
_chemical_formula_structural   KZn(PO3)3
_chemical_formula_sum   'K2 Zn2 P6 O18'
_cell_volume   388.13257322
_cell_formula_units_Z   2
loop_
 _symmetry_equiv_pos_site_id
 _symmetry_equiv_pos_as_xyz
  1  'x, y, z'
loop_
 _atom_site_type_symbol
 _atom_site_label
 _atom_site_symmetry_multiplicity
 _atom_site_fract_x
 _atom_site_fract_y
 _atom_site_fract_z
 _atom_site_occupancy
  K  K0  1  0.00000000  0.00000000  0.00000000  1
  K  K1  1  0.00000000  0.00000000  0.50000000  1
  Zn  Zn0  1  0.66666700  0.33333300  0.00000000  1
  Zn  Zn1  1  0.66666700  0.33333300  0.50000000  1
  P  P0  1  0.39095400  0.44068300  0.25000000  1
  P  P1  1  0.55931700  0.95027000  0.25000000  1
  P  P2  1  0.39095400  0.95027000  0.75000000  1
  P  P3  1  0.04973000  0.60904600  0.25000000  1
  P  P4  1  0.55931700  0.60904600  0.75000000  1
  P  P5  1  0.04973000  0.44068300  0.75000000  1
  O  O0  1  0.92839800  0.59271100  0.12119100  1
  O  O1  1  0.40728900  0.33568700  0.12119100  1
  O  O2  1  0.92839800  0.59271100  0.37880900  1
  O  O3  1  0.92839800  0.33568700  0.62119100  1
  O  O4  1  0.66431300  0.07160200  0.12119100  1
  O  O5  1  0.40728900  0.33568700  0.37880900  1
  O  O6  1  0.40728900  0.07160200  0.62119100  1
  O  O7  1  0.92839800  0.33568700  0.87880900  1
  O  O8  1  0.66431300  0.07160200  0.37880900  1
  O  O9  1  0.40728900  0.07160200  0.87880900  1
  O  O10  1  0.66431300  0.59271100  0.62119100  1
  O  O11  1  0.66431300  0.59271100  0.87880900  1
  O  O12  1  0.14282800  0.42839800  0.25000000  1
  O  O13  1  0.57160200  0.71443000  0.25000000  1
  O  O14  1  0.14282800  0.71443000  0.75000000  1
  O  O15  1  0.28557000  0.85717200  0.25000000  1
  O  O16  1  0.57160200  0.85717200  0.75000000  1
  O  O17  1  0.28557000  0.42839800  0.75000000  1
loop_
_geom_bond_atom_site_label_1
_geom_bond_atom_site_label_2
_geom_bond_distance
_geom_bond_site_symmetry_2
K0 O4 2.796914 1_455
K0 O7 2.796914 1_454
K0 O0 2.796914 1_445
K0 O9 2.796914 1_554
K0 O1 2.796914 1_555
K0 O11 2.796914 1_444
K1 O8 2.796914 1_455
K1 O3 2.796914 1_455
K1 O2 2.796914 1_445
K1 O6 2.796914 1_555
K1 O10 2.796914 1_445
K1 O5 2.796914 1_555
O0 P3 1.498249 1_655
O0 Zn0 2.124012 1_555
O1 P0 1.498246 1_555
O1 Zn0 2.124015 1_555
O2 P3 1.498249 1_655
O2 Zn1 2.124012 1_555
O3 P5 1.498248 1_655
O3 Zn1 2.124009 1_555
O4 P1 1.498248 1_545
O4 Zn0 2.124009 1_555
O5 P0 1.498246 1_555
O5 Zn1 2.124015 1_555
O6 P2 1.498249 1_545
O6 Zn1 2.124012 1_555
O7 P5 1.498248 1_655
O7 Zn0 2.124009 1_556
O8 P1 1.498248 1_545
O8 Zn1 2.124009 1_555
O9 P2 1.498249 1_545
O9 Zn0 2.124012 1_556
O10 P4 1.498246 1_555
O10 Zn1 2.124015 1_555
O11 P4 1.498246 1_555
O11 Zn0 2.124015 1_556
O12 P3 1.613141 1_555
O12 P0 1.620761 1_555
O13 P0 1.613147 1_555
O13 P1 1.620754 1_555
O14 P5 1.613148 1_555
O14 P2 1.620757 1_555
O15 P1 1.613148 1_555
O15 P3 1.620757 1_555
O16 P2 1.613141 1_555
O16 P4 1.620761 1_555
O17 P4 1.613147 1_555
O17 P5 1.620754 1_555
