# generated using pymatgen
data_Na3NdTi2Nb2O12
_symmetry_space_group_name_H-M   'P 1'
_cell_length_a   5.51282600
_cell_length_b   5.60183153
_cell_length_c   7.84597433
_cell_angle_alpha   89.89688292
_cell_angle_beta   89.95286190
_cell_angle_gamma   89.83394747
_symmetry_Int_Tables_number   1
_chemical_formula_structural   Na3NdTi2Nb2O12
_chemical_formula_sum   'Na3 Nd1 Ti2 Nb2 O12'
_cell_volume   242.29728007
_cell_formula_units_Z   1
loop_
 _symmetry_equiv_pos_site_id
 _symmetry_equiv_pos_as_xyz
  1  'x, y, z'
loop_
 _atom_site_type_symbol
 _atom_site_label
 _atom_site_symmetry_multiplicity
 _atom_site_fract_x
 _atom_site_fract_y
 _atom_site_fract_z
 _atom_site_occupancy
  Na  Na0  1  0.49498200  0.51526900  0.74883400  1
  Na  Na1  1  0.00336600  0.01245000  0.74980100  1
  Na  Na2  1  0.50608200  0.47263800  0.25038100  1
  Nd  Nd0  1  0.99466800  0.95235700  0.25011700  1
  Ti  Ti0  1  0.49561900  0.98215500  0.00773500  1
  Ti  Ti1  1  0.00688900  0.47885900  0.49349400  1
  Nb  Nb0  1  0.49845400  0.99033500  0.51401000  1
  Nb  Nb1  1  0.00444900  0.48106000  0.98526000  1
  O  O0  1  0.56554200  0.98640200  0.75354500  1
  O  O1  1  0.92456300  0.49571400  0.74670900  1
  O  O2  1  0.42319400  0.02226700  0.24626600  1
  O  O3  1  0.06900000  0.51993300  0.25358300  1
  O  O4  1  0.21020400  0.79938600  0.97730500  1
  O  O5  1  0.28192900  0.29362700  0.53329200  1
  O  O6  1  0.79127900  0.22095700  0.45641400  1
  O  O7  1  0.72191200  0.73616000  0.04741000  1
  O  O8  1  0.78811300  0.21844900  0.04404200  1
  O  O9  1  0.72490400  0.73473200  0.45333000  1
  O  O10  1  0.20802500  0.79651700  0.52429600  1
  O  O11  1  0.28682600  0.29073500  0.96417800  1
loop_
_geom_bond_atom_site_label_1
_geom_bond_atom_site_label_2
_geom_bond_distance
_geom_bond_site_symmetry_2
Na0 O1 2.370467 1_555
Na0 O11 2.398146 1_555
Na0 O5 2.408382 1_555
Na0 O0 2.669161 1_555
Na0 O10 2.840522 1_555
Na0 O4 2.863964 1_555
Na0 O9 2.913327 1_555
Na0 O7 2.933991 1_556
Na0 O0 2.987100 1_545
Na1 O0 2.418627 1_445
Na1 O10 2.421380 1_545
Na1 O4 2.428732 1_545
Na1 O1 2.740623 1_455
Na1 O5 2.779388 1_555
Na1 O11 2.780127 1_555
Na1 O6 2.831415 1_455
Na1 O8 2.840177 1_456
Na1 O1 2.928477 1_445
Na2 O3 2.423430 1_555
Na2 O7 2.475795 1_555
Na2 O9 2.483590 1_555
Na2 O2 2.565517 1_555
Na2 O6 2.656311 1_555
Na2 O8 2.656536 1_555
Na2 O5 2.730268 1_555
Na2 O11 2.749844 1_554
Nd0 O2 2.395906 1_665
Nd0 O3 2.455717 1_655
Nd0 O8 2.473315 1_565
Nd0 O6 2.477306 1_565
Nd0 O9 2.497917 1_555
Nd0 O7 2.505723 1_555
Nd0 O4 2.593127 1_654
Nd0 O10 2.600899 1_655
Nb0 O0 1.915805 1_555
Nb0 O10 1.938648 1_555
Nb0 O9 1.956122 1_555
Nb0 O5 2.079222 1_565
Nb0 O6 2.118481 1_565
Nb0 O2 2.148669 1_565
Nb1 O11 1.891551 1_555
Nb1 O1 1.924685 1_455
Nb1 O8 1.950903 1_456
Nb1 O4 2.116968 1_555
Nb1 O3 2.146972 1_556
Nb1 O7 2.166634 1_456
O0 Ti0 2.031078 1_556
O1 Ti1 2.039825 1_655
O2 Ti0 1.926710 1_545
O3 Ti1 1.926450 1_555
O4 Ti0 1.895208 1_556
O5 Ti1 1.861101 1_555
O6 Ti1 1.896502 1_655
O7 Ti0 1.881826 1_555
O8 Ti0 2.108984 1_545
O9 Ti1 2.134633 1_655
O10 Ti1 2.113725 1_555
O11 Ti0 2.101612 1_546
