# generated using pymatgen
data_CoRu
_symmetry_space_group_name_H-M   'P 1'
_cell_length_a   5.30154692
_cell_length_b   5.30154692
_cell_length_c   8.19253600
_cell_angle_alpha   90.00000000
_cell_angle_beta   90.00000000
_cell_angle_gamma   119.99998652
_symmetry_Int_Tables_number   1
_chemical_formula_structural   CoRu
_chemical_formula_sum   'Co8 Ru8'
_cell_volume   199.41336766
_cell_formula_units_Z   8
loop_
 _symmetry_equiv_pos_site_id
 _symmetry_equiv_pos_as_xyz
  1  'x, y, z'
loop_
 _atom_site_type_symbol
 _atom_site_label
 _atom_site_symmetry_multiplicity
 _atom_site_fract_x
 _atom_site_fract_y
 _atom_site_fract_z
 _atom_site_occupancy
  Co  Co0_0  1  0.33333350  0.16666650  0.25000000  1
  Co  Co0_1  1  0.33333350  0.16666650  0.75000000  1
  Co  Co0_2  1  0.33333350  0.66666650  0.25000000  1
  Co  Co0_3  1  0.33333350  0.66666650  0.75000000  1
  Co  Co0_4  1  0.83333350  0.16666650  0.25000000  1
  Co  Co0_5  1  0.83333350  0.16666650  0.75000000  1
  Co  Co0_6  1  0.83333350  0.66666650  0.25000000  1
  Co  Co0_7  1  0.83333350  0.66666650  0.75000000  1
  Ru  Ru0_0  1  0.16666650  0.33333350  0.00000000  1
  Ru  Ru0_1  1  0.16666650  0.33333350  0.50000000  1
  Ru  Ru0_2  1  0.16666650  0.83333350  0.00000000  1
  Ru  Ru0_3  1  0.16666650  0.83333350  0.50000000  1
  Ru  Ru0_4  1  0.66666650  0.33333350  0.00000000  1
  Ru  Ru0_5  1  0.66666650  0.33333350  0.50000000  1
  Ru  Ru0_6  1  0.66666650  0.83333350  0.00000000  1
  Ru  Ru0_7  1  0.66666650  0.83333350  0.50000000  1
loop_
_geom_bond_atom_site_label_1
_geom_bond_atom_site_label_2
_geom_bond_distance
_geom_bond_site_symmetry_2
Co0_0 Ru0_4 2.556765 1_555
Co0_0 Ru0_5 2.556765 1_555
Co0_0 Ru0_3 2.556765 1_545
Co0_0 Ru0_2 2.556765 1_545
Co0_0 Ru0_0 2.556768 1_555
Co0_0 Ru0_1 2.556768 1_555
Co0_0 Co0_4 2.650773 1_555
Co0_0 Co0_2 2.650773 1_555
Co0_0 Co0_4 2.650773 1_455
Co0_0 Co0_2 2.650773 1_545
Co0_0 Co0_6 2.650774 1_555
Co0_0 Co0_6 2.650774 1_445
Co0_1 Ru0_4 2.556765 1_556
Co0_1 Ru0_5 2.556765 1_555
Co0_1 Ru0_3 2.556765 1_545
Co0_1 Ru0_2 2.556765 1_546
Co0_1 Ru0_0 2.556768 1_556
Co0_1 Ru0_1 2.556768 1_555
Co0_1 Co0_5 2.650773 1_555
Co0_1 Co0_3 2.650773 1_545
Co0_1 Co0_3 2.650773 1_555
Co0_1 Co0_5 2.650773 1_455
Co0_1 Co0_7 2.650774 1_445
Co0_1 Co0_7 2.650774 1_555
Co0_2 Ru0_1 2.556765 1_555
Co0_2 Ru0_7 2.556765 1_555
Co0_2 Ru0_6 2.556765 1_555
Co0_2 Ru0_0 2.556765 1_555
Co0_2 Ru0_3 2.556768 1_555
Co0_2 Ru0_2 2.556768 1_555
Co0_2 Co0_6 2.650773 1_555
Co0_2 Co0_6 2.650773 1_455
Co0_2 Co0_4 2.650774 1_565
Co0_2 Co0_4 2.650774 1_455
Co0_3 Ru0_1 2.556765 1_555
Co0_3 Ru0_7 2.556765 1_555
Co0_3 Ru0_6 2.556765 1_556
Co0_3 Ru0_0 2.556765 1_556
Co0_3 Ru0_3 2.556768 1_555
Co0_3 Ru0_2 2.556768 1_556
Co0_3 Co0_7 2.650773 1_555
Co0_3 Co0_7 2.650773 1_455
Co0_3 Co0_5 2.650774 1_565
Co0_3 Co0_5 2.650774 1_455
Co0_4 Ru0_6 2.556765 1_545
Co0_4 Ru0_7 2.556765 1_545
Co0_4 Ru0_0 2.556765 1_655
Co0_4 Ru0_1 2.556765 1_655
Co0_4 Ru0_4 2.556768 1_555
Co0_4 Ru0_5 2.556768 1_555
Co0_4 Co0_6 2.650773 1_545
Co0_4 Co0_6 2.650773 1_555
Co0_5 Ru0_6 2.556765 1_546
Co0_5 Ru0_7 2.556765 1_545
Co0_5 Ru0_0 2.556765 1_656
Co0_5 Ru0_1 2.556765 1_655
Co0_5 Ru0_4 2.556768 1_556
Co0_5 Ru0_5 2.556768 1_555
Co0_5 Co0_7 2.650773 1_545
Co0_5 Co0_7 2.650773 1_555
Co0_6 Ru0_4 2.556765 1_555
Co0_6 Ru0_5 2.556765 1_555
Co0_6 Ru0_2 2.556765 1_655
Co0_6 Ru0_3 2.556765 1_655
Co0_6 Ru0_6 2.556768 1_555
Co0_6 Ru0_7 2.556768 1_555
Co0_7 Ru0_4 2.556765 1_556
Co0_7 Ru0_5 2.556765 1_555
Co0_7 Ru0_2 2.556765 1_656
Co0_7 Ru0_3 2.556765 1_655
Co0_7 Ru0_7 2.556768 1_555
Co0_7 Ru0_6 2.556768 1_556
Ru0_0 Ru0_2 2.650773 1_555
Ru0_0 Ru0_4 2.650773 1_555
Ru0_0 Ru0_4 2.650773 1_455
Ru0_0 Ru0_2 2.650773 1_545
Ru0_0 Ru0_6 2.650774 1_555
Ru0_0 Ru0_6 2.650774 1_445
Ru0_1 Ru0_3 2.650773 1_555
Ru0_1 Ru0_5 2.650773 1_455
Ru0_1 Ru0_5 2.650773 1_555
Ru0_1 Ru0_3 2.650773 1_545
Ru0_1 Ru0_7 2.650774 1_555
Ru0_1 Ru0_7 2.650774 1_445
Ru0_2 Ru0_6 2.650773 1_555
Ru0_2 Ru0_6 2.650773 1_455
Ru0_2 Ru0_4 2.650774 1_455
Ru0_2 Ru0_4 2.650774 1_565
Ru0_3 Ru0_7 2.650773 1_555
Ru0_3 Ru0_7 2.650773 1_455
Ru0_3 Ru0_5 2.650774 1_455
Ru0_3 Ru0_5 2.650774 1_565
Ru0_4 Ru0_6 2.650773 1_545
Ru0_4 Ru0_6 2.650773 1_555
Ru0_5 Ru0_7 2.650773 1_555
Ru0_5 Ru0_7 2.650773 1_545
