# generated using pymatgen
data_Li7Mn4CoO12
_symmetry_space_group_name_H-M   'P 1'
_cell_length_a   5.25193400
_cell_length_b   5.94657455
_cell_length_c   7.74802156
_cell_angle_alpha   76.35437638
_cell_angle_beta   75.13375441
_cell_angle_gamma   70.38076839
_symmetry_Int_Tables_number   1
_chemical_formula_structural   Li7Mn4CoO12
_chemical_formula_sum   'Li7 Mn4 Co1 O12'
_cell_volume   217.29962974
_cell_formula_units_Z   1
loop_
 _symmetry_equiv_pos_site_id
 _symmetry_equiv_pos_as_xyz
  1  'x, y, z'
loop_
 _atom_site_type_symbol
 _atom_site_label
 _atom_site_symmetry_multiplicity
 _atom_site_fract_x
 _atom_site_fract_y
 _atom_site_fract_z
 _atom_site_occupancy
  Li  Li0  1  0.00973900  0.49443400  0.99594800  1
  Li  Li1  1  0.99482200  0.83622100  0.67029300  1
  Li  Li2  1  0.50323300  0.33403100  0.16532900  1
  Li  Li3  1  0.49980600  0.66542200  0.83039700  1
  Li  Li4  1  0.99545100  0.16976600  0.33308100  1
  Li  Li5  1  0.49667200  0.00058800  0.50409400  1
  Li  Li6  1  0.50032000  0.16789800  0.83176900  1
  Mn  Mn0  1  0.00055000  0.00094000  0.99826800  1
  Mn  Mn1  1  0.99936300  0.33427900  0.66633400  1
  Mn  Mn2  1  0.00009100  0.66526100  0.33475000  1
  Mn  Mn3  1  0.49965200  0.83534800  0.16491300  1
  Co  Co0  1  0.49967700  0.49667300  0.50365000  1
  O  O0  1  0.22682100  0.67613500  0.08394400  1
  O  O1  1  0.21826400  0.01324400  0.75611800  1
  O  O2  1  0.72085200  0.51277500  0.26142800  1
  O  O3  1  0.76236800  0.84917400  0.93721400  1
  O  O4  1  0.22247000  0.34225500  0.42292200  1
  O  O5  1  0.75646000  0.20334200  0.58610900  1
  O  O6  1  0.78165300  0.32178000  0.90971100  1
  O  O7  1  0.77376200  0.65700500  0.58301700  1
  O  O8  1  0.23756600  0.13555500  0.07967100  1
  O  O9  1  0.24492900  0.48327800  0.72547600  1
  O  O10  1  0.77751200  0.98972300  0.24390900  1
  O  O11  1  0.27796600  0.81487100  0.41165500  1
loop_
_geom_bond_atom_site_label_1
_geom_bond_atom_site_label_2
_geom_bond_distance
_geom_bond_site_symmetry_2
Li0 O3 2.086841 1_455
Li0 O8 2.106462 1_556
Li0 O6 2.120328 1_455
Li0 O0 2.122698 1_556
Li0 O9 2.145715 1_555
Li0 O2 2.222208 1_456
Li1 O9 2.080052 1_655
Li1 O1 2.118419 1_665
Li1 O3 2.118940 1_555
Li1 O7 2.124782 1_555
Li1 O5 2.161116 1_565
Li1 O11 2.169645 1_655
Li2 O10 2.125804 1_545
Li2 O0 2.127169 1_555
Li2 O6 2.139274 1_554
Li2 O2 2.148566 1_555
Li2 O4 2.155821 1_555
Li2 O8 2.393918 1_555
Li3 O7 2.080441 1_555
Li3 O0 2.114536 1_556
Li3 O6 2.141860 1_555
Li3 O1 2.148694 1_565
Li3 O9 2.360794 1_555
Li3 O3 2.409279 1_555
Li4 O5 2.052431 1_555
Li4 O8 2.060821 1_655
Li4 O2 2.109429 1_555
Li4 O10 2.124023 1_545
Li4 O4 2.131243 1_655
Li4 O11 2.186429 1_645
Li5 O1 2.118253 1_555
Li5 O4 2.119997 1_555
Li5 O7 2.129927 1_545
Li5 O11 2.167758 1_545
Li5 O10 2.171480 1_545
Li5 O5 2.372791 1_555
Li6 O9 2.035528 1_555
Li6 O5 2.040633 1_555
Li6 O3 2.061180 1_545
Li6 O8 2.067469 1_556
Li6 O1 2.235720 1_555
Li6 O6 2.238688 1_555
Mn0 O1 1.929623 1_555
Mn0 O6 1.935634 1_455
Mn0 O0 1.960080 1_546
Mn0 O10 1.961498 1_446
Mn0 O3 1.966277 1_445
Mn0 O8 1.974421 1_556
Mn1 O6 1.937344 1_555
Mn1 O1 1.939084 1_655
Mn1 O7 1.945389 1_555
Mn1 O4 1.947629 1_655
Mn1 O9 1.980036 1_655
Mn1 O5 1.980493 1_555
Mn2 O4 1.950370 1_555
Mn2 O10 1.962504 1_455
Mn2 O7 1.984152 1_455
Mn2 O0 2.000850 1_555
Mn2 O11 2.201042 1_555
Mn2 O2 2.204384 1_455
Mn3 O8 1.943662 1_565
Mn3 O3 1.944649 1_554
Mn3 O2 1.964896 1_555
Mn3 O11 1.966837 1_555
Mn3 O10 2.229340 1_555
Mn3 O0 2.235095 1_555
Co0 O9 1.891397 1_555
Co0 O5 1.898983 1_555
Co0 O2 1.936985 1_555
Co0 O11 1.937579 1_555
Co0 O4 2.233833 1_555
Co0 O7 2.238693 1_555
