# generated using pymatgen
data_Cr3Si3Pb10(ClO12)2
_symmetry_space_group_name_H-M   'P 1'
_cell_length_a   7.45779400
_cell_length_b   10.31498400
_cell_length_c   10.35878081
_cell_angle_alpha   60.14805330
_cell_angle_beta   90.00000000
_cell_angle_gamma   90.00000000
_symmetry_Int_Tables_number   1
_chemical_formula_structural   Cr3Si3Pb10(ClO12)2
_chemical_formula_sum   'Cr3 Si3 Pb10 Cl2 O24'
_cell_volume   691.13709323
_cell_formula_units_Z   1
loop_
 _symmetry_equiv_pos_site_id
 _symmetry_equiv_pos_as_xyz
  1  'x, y, z'
loop_
 _atom_site_type_symbol
 _atom_site_label
 _atom_site_symmetry_multiplicity
 _atom_site_fract_x
 _atom_site_fract_y
 _atom_site_fract_z
 _atom_site_occupancy
  Cr  Cr0  1  0.00000000  0.59335500  0.02988400  1
  Cr  Cr1  1  0.50000000  0.62304500  0.40435900  1
  Cr  Cr2  1  0.50000000  0.96656500  0.62093200  1
  Si  Si0  1  0.00000000  0.38493800  0.58436900  1
  Si  Si1  1  0.00000000  0.02405800  0.38084500  1
  Si  Si2  1  0.50000000  0.40947400  0.97168400  1
  Pb  Pb0  1  0.24486100  0.31151400  0.34012500  1
  Pb  Pb1  1  0.76312100  0.64431800  0.67439200  1
  Pb  Pb2  1  0.23687900  0.64431800  0.67439200  1
  Pb  Pb3  1  0.75513900  0.31151400  0.34012500  1
  Pb  Pb4  1  0.50000000  0.25455000  0.77571100  1
  Pb  Pb5  1  0.50000000  0.03877400  0.23428300  1
  Pb  Pb6  1  0.50000000  0.74879000  0.98807800  1
  Pb  Pb7  1  0.00000000  0.74351600  0.26954500  1
  Pb  Pb8  1  0.00000000  0.04807900  0.73138500  1
  Pb  Pb9  1  0.00000000  0.22902300  0.02080100  1
  Cl  Cl0  1  0.74594200  0.99580200  0.00559900  1
  Cl  Cl1  1  0.25405800  0.99580200  0.00559900  1
  O  O0  1  0.00000000  0.48617300  0.39950300  1
  O  O1  1  0.00000000  0.11572600  0.47724100  1
  O  O2  1  0.00000000  0.40476900  0.12124700  1
  O  O3  1  0.50000000  0.52349900  0.59290400  1
  O  O4  1  0.50000000  0.88214000  0.51868400  1
  O  O5  1  0.50000000  0.59466100  0.89247300  1
  O  O6  1  0.82300400  0.27251000  0.63590100  1
  O  O7  1  0.82216400  0.09485300  0.26963300  1
  O  O8  1  0.82007800  0.64635400  0.08603200  1
  O  O9  1  0.31978700  0.73192900  0.35581200  1
  O  O10  1  0.32176700  0.90905200  0.73208000  1
  O  O11  1  0.32193700  0.36524100  0.90444000  1
  O  O12  1  0.68021300  0.73192900  0.35581200  1
  O  O13  1  0.67823300  0.90905200  0.73208000  1
  O  O14  1  0.67806300  0.36524100  0.90444000  1
  O  O15  1  0.17699600  0.27251000  0.63590100  1
  O  O16  1  0.17783600  0.09485300  0.26963300  1
  O  O17  1  0.17992200  0.64635400  0.08603200  1
  O  O18  1  0.00000000  0.49676300  0.65729900  1
  O  O19  1  0.00000000  0.84052600  0.48321600  1
  O  O20  1  0.00000000  0.66000200  0.84568200  1
  O  O21  1  0.50000000  0.51508800  0.32759700  1
  O  O22  1  0.50000000  0.15337800  0.50776600  1
  O  O23  1  0.50000000  0.31996200  0.15648200  1
loop_
_geom_bond_atom_site_label_1
_geom_bond_atom_site_label_2
_geom_bond_distance
_geom_bond_site_symmetry_2
Cr0 O17 1.659571 1_555
Cr0 O8 1.659571 1_455
Cr0 O20 1.675591 1_554
Cr0 O2 1.687295 1_555
Cr1 O21 1.659468 1_555
Cr1 O12 1.660832 1_555
Cr1 O9 1.660832 1_555
Cr1 O3 1.694830 1_555
Cr2 O13 1.662656 1_555
Cr2 O10 1.662656 1_555
Cr2 O4 1.672851 1_555
Cr2 O22 1.684822 1_565
Cl0 Pb9 3.127158 1_665
Cl0 Pb4 3.135480 1_564
Cl0 Pb5 3.196507 1_565
Cl0 Pb6 3.217058 1_554
Cl0 Pb8 3.228688 1_664
Cl0 Pb7 3.279383 1_655
Cl1 Pb9 3.127158 1_565
Cl1 Pb4 3.135480 1_564
Cl1 Pb5 3.196507 1_565
Cl1 Pb6 3.217058 1_554
Cl1 Pb8 3.228688 1_564
Cl1 Pb7 3.279383 1_555
O0 Si0 1.663388 1_555
O0 Pb7 2.302412 1_555
O0 Pb3 2.839367 1_455
O0 Pb0 2.839367 1_555
O1 Si1 1.682591 1_555
O1 Pb8 2.364072 1_555
O1 Pb3 2.564193 1_455
O1 Pb0 2.564193 1_555
O2 Pb9 2.499345 1_555
O2 Pb3 2.688774 1_455
O2 Pb0 2.688774 1_555
O3 Pb4 2.460140 1_555
O3 Pb1 2.676482 1_555
O3 Pb2 2.676482 1_555
O4 Pb5 2.559505 1_565
O5 Si2 1.661861 1_555
O5 Pb6 2.252960 1_555
O6 Si0 1.660108 1_655
O6 Pb8 2.408410 1_655
O6 Pb4 2.769019 1_555
O7 Si1 1.667902 1_655
O7 Pb5 2.540121 1_555
O7 Pb9 2.601348 1_655
O7 Pb3 2.720708 1_555
O8 Pb6 2.603235 1_554
O9 Pb7 2.528694 1_555
O10 Pb6 2.677250 1_555
O11 Si2 1.665306 1_555
O11 Pb4 2.522100 1_555
O11 Pb9 2.739639 1_556
O11 Pb2 2.745674 1_555
O12 Pb7 2.528694 1_655
O13 Pb6 2.677250 1_555
O14 Si2 1.665306 1_555
O14 Pb4 2.522100 1_555
O14 Pb9 2.739639 1_656
O14 Pb1 2.745674 1_555
O15 Si0 1.660108 1_555
O15 Pb8 2.408410 1_555
O15 Pb4 2.769019 1_555
O16 Si1 1.667902 1_555
O16 Pb5 2.540121 1_555
O16 Pb9 2.601348 1_555
O16 Pb0 2.720708 1_555
O17 Pb6 2.603235 1_554
O18 Si0 1.663952 1_555
O18 Pb2 2.395217 1_555
O18 Pb1 2.395217 1_455
O19 Si1 1.646182 1_565
O19 Pb2 2.673705 1_555
O19 Pb1 2.673705 1_455
O20 Pb2 2.565373 1_555
O20 Pb1 2.565373 1_455
O21 Pb3 2.788463 1_555
O21 Pb0 2.788463 1_555
O22 Pb0 2.544988 1_555
O22 Pb3 2.544988 1_555
O23 Si2 1.660547 1_554
O23 Pb5 2.595198 1_555
O23 Pb0 2.661189 1_555
O23 Pb3 2.661189 1_555
