# generated using pymatgen
data_Ba3CdHg10
_symmetry_space_group_name_H-M   'P 1'
_cell_length_a   9.63214362
_cell_length_b   9.63214362
_cell_length_c   9.63214362
_cell_angle_alpha   147.65773207
_cell_angle_beta   115.74618245
_cell_angle_gamma   73.78439454
_symmetry_Int_Tables_number   1
_chemical_formula_structural   Ba3CdHg10
_chemical_formula_sum   'Ba3 Cd1 Hg10'
_cell_volume   423.42247263
_cell_formula_units_Z   1
loop_
 _symmetry_equiv_pos_site_id
 _symmetry_equiv_pos_as_xyz
  1  'x, y, z'
loop_
 _atom_site_type_symbol
 _atom_site_label
 _atom_site_symmetry_multiplicity
 _atom_site_fract_x
 _atom_site_fract_y
 _atom_site_fract_z
 _atom_site_occupancy
  Ba  Ba0  1  0.00000000  0.00000000  0.00000000  1
  Ba  Ba1  1  0.70636900  0.70636900  0.00000000  1
  Ba  Ba2  1  0.29363100  0.29363100  0.00000000  1
  Cd  Cd0  1  0.50000000  0.00000000  0.50000000  1
  Hg  Hg0  1  0.15201500  0.85993900  0.29207600  1
  Hg  Hg1  1  0.84798500  0.14006100  0.70792400  1
  Hg  Hg2  1  0.43213700  0.14006100  0.29207600  1
  Hg  Hg3  1  0.56786300  0.85993900  0.70792400  1
  Hg  Hg4  1  0.01516700  0.65868300  0.35648400  1
  Hg  Hg5  1  0.98483300  0.34131700  0.64351600  1
  Hg  Hg6  1  0.69780100  0.34131700  0.35648400  1
  Hg  Hg7  1  0.30219900  0.65868300  0.64351600  1
  Hg  Hg8  1  0.67553600  0.50000000  0.17553600  1
  Hg  Hg9  1  0.32446400  0.50000000  0.82446400  1
loop_
_geom_bond_atom_site_label_1
_geom_bond_atom_site_label_2
_geom_bond_distance
_geom_bond_site_symmetry_2
Ba0 Hg3 3.689171 1_444
Ba0 Hg1 3.689171 1_454
Ba0 Hg0 3.689171 1_545
Ba0 Hg2 3.689171 1_555
Ba0 Hg6 3.916032 1_455
Ba0 Hg6 3.916032 1_444
Ba0 Hg5 3.916032 1_455
Ba0 Hg5 3.916032 1_444
Ba0 Hg7 3.916032 1_555
Ba0 Hg7 3.916032 1_544
Ba0 Hg4 3.916032 1_555
Ba0 Hg4 3.916032 1_544
Ba1 Hg2 3.574566 1_565
Ba1 Hg1 3.574566 1_554
Ba1 Hg1 3.574566 1_565
Ba1 Hg2 3.574566 1_554
Ba1 Hg9 3.652837 1_554
Ba1 Hg8 3.652837 1_555
Ba1 Hg5 3.698780 1_554
Ba1 Hg5 3.698780 1_565
Ba1 Hg6 3.698780 1_565
Ba1 Hg6 3.698780 1_554
Ba1 Hg4 3.725231 1_655
Ba1 Hg7 3.725231 1_554
Ba1 Hg0 3.814651 1_655
Ba1 Hg3 3.814651 1_554
Ba2 Hg0 3.574566 1_544
Ba2 Hg3 3.574566 1_544
Ba2 Hg3 3.574566 1_555
Ba2 Hg0 3.574566 1_555
Ba2 Hg8 3.652837 1_555
Ba2 Hg9 3.652837 1_554
Ba2 Hg4 3.698780 1_555
Ba2 Hg7 3.698780 1_544
Ba2 Hg7 3.698780 1_555
Ba2 Hg4 3.698780 1_544
Ba2 Hg6 3.725231 1_555
Ba2 Hg5 3.725231 1_454
Ba2 Hg1 3.814651 1_454
Ba2 Hg2 3.814651 1_555
Cd0 Hg1 3.032155 1_555
Cd0 Hg2 3.032155 1_555
Cd0 Hg3 3.032155 1_545
Cd0 Hg0 3.032155 1_545
Cd0 Hg8 3.229610 1_545
Cd0 Hg8 3.229610 1_556
Cd0 Hg9 3.229610 1_544
Cd0 Hg9 3.229610 1_555
Hg0 Hg5 3.097597 1_465
Hg0 Hg5 3.097597 1_454
Hg0 Hg4 3.170167 1_555
Hg1 Hg4 3.097597 1_656
Hg1 Hg4 3.097597 1_645
Hg1 Hg5 3.170167 1_555
Hg2 Hg7 3.097597 1_555
Hg2 Hg7 3.097597 1_544
Hg2 Hg6 3.170167 1_555
Hg3 Hg6 3.097597 1_566
Hg3 Hg6 3.097597 1_555
Hg3 Hg7 3.170167 1_555
Hg4 Hg7 2.940550 1_555
Hg4 Hg8 3.068149 1_455
Hg5 Hg6 2.940550 1_555
Hg5 Hg9 3.068149 1_655
Hg6 Hg8 3.068149 1_555
Hg7 Hg9 3.068149 1_555
