# generated using pymatgen
data_NaMg14Cu
_symmetry_space_group_name_H-M   'P 1'
_cell_length_a   6.37259986
_cell_length_b   6.37716598
_cell_length_c   10.10932719
_cell_angle_alpha   90.00000000
_cell_angle_beta   90.00000000
_cell_angle_gamma   120.02371061
_symmetry_Int_Tables_number   1
_chemical_formula_structural   NaMg14Cu
_chemical_formula_sum   'Na1 Mg14 Cu1'
_cell_volume   355.70784331
_cell_formula_units_Z   1
loop_
 _symmetry_equiv_pos_site_id
 _symmetry_equiv_pos_as_xyz
  1  'x, y, z'
loop_
 _atom_site_type_symbol
 _atom_site_label
 _atom_site_symmetry_multiplicity
 _atom_site_fract_x
 _atom_site_fract_y
 _atom_site_fract_z
 _atom_site_occupancy
  Na  Na0  1  0.16530272  0.83265086  0.12500000  1
  Mg  Mg0  1  0.16703956  0.33351928  0.62500000  1
  Mg  Mg1  1  0.16918098  0.83458999  0.62500000  1
  Mg  Mg2  1  0.66877539  0.33929666  0.12500000  1
  Mg  Mg3  1  0.66506342  0.33068390  0.62500000  1
  Mg  Mg4  1  0.66877539  0.82947772  0.12500000  1
  Mg  Mg5  1  0.66506342  0.83437852  0.62500000  1
  Mg  Mg6  1  0.33085330  0.17273237  0.37136478  1
  Mg  Mg7  1  0.33085330  0.17273237  0.87863522  1
  Mg  Mg8  1  0.33085330  0.65812193  0.37136478  1
  Mg  Mg9  1  0.33085330  0.65812193  0.87863522  1
  Mg  Mg10  1  0.84093559  0.17046830  0.36546781  1
  Mg  Mg11  1  0.84093559  0.17046830  0.88453219  1
  Mg  Mg12  1  0.83088649  0.66544375  0.38149645  1
  Mg  Mg13  1  0.83088649  0.66544375  0.86850355  1
  Cu  Cu0  1  0.16374174  0.33187037  0.12500000  1
loop_
_geom_bond_atom_site_label_1
_geom_bond_atom_site_label_2
_geom_bond_distance
_geom_bond_site_symmetry_2
Mg0 Mg6 3.128389 1_555
Mg0 Mg7 3.128389 1_555
Mg0 Mg8 3.128396 1_555
Mg0 Mg9 3.128396 1_555
Mg0 Mg10 3.181383 1_455
Mg0 Mg11 3.181383 1_455
Mg0 Mg5 3.182792 1_555
Mg0 Mg3 3.182793 1_555
Mg0 Mg1 3.188605 1_555
Mg0 Mg1 3.188605 1_545
Mg0 Mg5 3.189884 1_445
Mg0 Mg3 3.189884 1_455
Mg1 Mg13 3.089295 1_455
Mg1 Mg12 3.089295 1_455
Mg1 Mg3 3.160735 1_565
Mg1 Mg5 3.160735 1_555
Mg1 Mg8 3.172174 1_555
Mg1 Mg9 3.172174 1_555
Mg1 Mg6 3.172181 1_565
Mg1 Mg7 3.172181 1_565
Mg1 Mg3 3.211865 1_455
Mg1 Mg5 3.211865 1_455
Mg2 Mg7 3.111198 1_554
Mg2 Mg6 3.111198 1_555
Mg2 Mg4 3.125966 1_555
Mg2 Na0 3.154093 1_655
Mg2 Na0 3.218602 1_545
Mg2 Mg4 3.251200 1_545
Mg3 Mg6 3.158843 1_555
Mg3 Mg7 3.158843 1_555
Mg3 Mg5 3.165022 1_545
Mg3 Mg5 3.212144 1_555
Mg4 Mg9 3.111198 1_554
Mg4 Mg8 3.111198 1_555
Mg4 Na0 3.154094 1_655
Mg4 Na0 3.218603 1_555
Mg5 Mg8 3.158843 1_555
Mg5 Mg9 3.158843 1_555
Mg6 Mg8 3.095410 1_555
Mg6 Na0 3.119271 1_545
Mg6 Mg8 3.281756 1_545
Mg7 Mg9 3.095410 1_555
Mg7 Na0 3.119271 1_546
Mg7 Mg9 3.281756 1_545
Mg8 Na0 3.119264 1_555
Mg9 Na0 3.119264 1_556
Mg10 Mg2 3.074811 1_555
Mg10 Mg4 3.074818 1_545
Mg10 Mg8 3.115420 1_655
Mg10 Mg6 3.115421 1_655
Mg10 Mg12 3.193179 1_545
Mg10 Mg12 3.193179 1_555
Mg10 Mg3 3.213990 1_555
Mg10 Mg5 3.213996 1_545
Mg10 Mg8 3.258344 1_545
Mg10 Mg6 3.258344 1_555
Mg11 Mg2 3.074811 1_556
Mg11 Mg4 3.074818 1_546
Mg11 Mg9 3.115420 1_655
Mg11 Mg7 3.115421 1_655
Mg11 Mg13 3.193179 1_545
Mg11 Mg13 3.193179 1_555
Mg11 Mg3 3.213990 1_555
Mg11 Mg5 3.213996 1_545
Mg11 Mg9 3.258344 1_545
Mg11 Mg7 3.258344 1_555
Mg12 Mg5 3.078360 1_555
Mg12 Mg3 3.078367 1_555
Mg12 Mg4 3.156995 1_555
Mg12 Mg2 3.157002 1_555
Mg12 Mg6 3.165064 1_555
Mg12 Mg8 3.165065 1_555
Mg12 Na0 3.182491 1_655
Mg12 Mg6 3.211340 1_665
Mg12 Mg8 3.211340 1_655
Mg13 Mg5 3.078360 1_555
Mg13 Mg3 3.078367 1_555
Mg13 Mg4 3.156995 1_556
Mg13 Mg2 3.157002 1_556
Mg13 Mg7 3.165064 1_555
Mg13 Mg9 3.165065 1_555
Mg13 Na0 3.182491 1_656
Mg13 Mg7 3.211340 1_665
Mg13 Mg9 3.211340 1_655
Cu0 Mg11 3.013615 1_454
Cu0 Mg10 3.013615 1_455
Cu0 Mg7 3.073846 1_554
Cu0 Mg6 3.073846 1_555
Cu0 Mg9 3.073852 1_554
Cu0 Mg8 3.073852 1_555
Cu0 Mg4 3.178183 1_445
Cu0 Mg2 3.178183 1_455
Cu0 Na0 3.188595 1_555
Cu0 Na0 3.188595 1_545
Cu0 Mg4 3.194944 1_555
Cu0 Mg2 3.194944 1_555
