# generated using pymatgen
data_Y3Sn
_symmetry_space_group_name_H-M   'P 1'
_cell_length_a   6.21875360
_cell_length_b   6.21875360
_cell_length_c   6.21875360
_cell_angle_alpha   135.77137961
_cell_angle_beta   135.77137961
_cell_angle_gamma   64.33398461
_symmetry_Int_Tables_number   1
_chemical_formula_structural   Y3Sn
_chemical_formula_sum   'Y3 Sn1'
_cell_volume   115.40501302
_cell_formula_units_Z   1
loop_
 _symmetry_equiv_pos_site_id
 _symmetry_equiv_pos_as_xyz
  1  'x, y, z'
loop_
 _atom_site_type_symbol
 _atom_site_label
 _atom_site_symmetry_multiplicity
 _atom_site_fract_x
 _atom_site_fract_y
 _atom_site_fract_z
 _atom_site_occupancy
  Y  Y0  1  0.75000000  0.25000000  0.50000000  1
  Y  Y1  1  0.25000000  0.75000000  0.50000000  1
  Y  Y2  1  0.50000000  0.50000000  0.00000000  1
  Sn  Sn0  1  0.00000000  0.00000000  0.00000000  1
loop_
_geom_bond_atom_site_label_1
_geom_bond_atom_site_label_2
_geom_bond_distance
_geom_bond_site_symmetry_2
Y0 Y1 3.310794 1_555
Y0 Y1 3.310794 1_645
Y0 Y1 3.310794 1_544
Y0 Y1 3.310794 1_656
Y0 Y2 3.522579 1_656
Y0 Y2 3.522579 1_555
Y0 Y2 3.522579 1_556
Y0 Y2 3.522579 1_545
Y1 Y2 3.522579 1_566
Y1 Y2 3.522579 1_556
Y1 Y2 3.522579 1_455
Y1 Y2 3.522579 1_555
Sn0 Y2 3.310794 1_455
Sn0 Y2 3.310794 1_444
Sn0 Y2 3.310794 1_545
Sn0 Y2 3.310794 1_556
Sn0 Y0 3.522579 1_555
Sn0 Y0 3.522579 1_454
Sn0 Y0 3.522579 1_444
Sn0 Y1 3.522579 1_544
Sn0 Y1 3.522579 1_444
Sn0 Y1 3.522579 1_545
Sn0 Y1 3.522579 1_555
Sn0 Y0 3.522579 1_455
