# generated using pymatgen
data_Er6Ga17Pt5
_symmetry_space_group_name_H-M   'P 1'
_cell_length_a   4.24146000
_cell_length_b   8.15048234
_cell_length_c   16.18229527
_cell_angle_alpha   107.52536508
_cell_angle_beta   82.46958441
_cell_angle_gamma   105.08174408
_symmetry_Int_Tables_number   1
_chemical_formula_structural   Er6Ga17Pt5
_chemical_formula_sum   'Er6 Ga17 Pt5'
_cell_volume   514.23587766
_cell_formula_units_Z   1
loop_
 _symmetry_equiv_pos_site_id
 _symmetry_equiv_pos_as_xyz
  1  'x, y, z'
loop_
 _atom_site_type_symbol
 _atom_site_label
 _atom_site_symmetry_multiplicity
 _atom_site_fract_x
 _atom_site_fract_y
 _atom_site_fract_z
 _atom_site_occupancy
  Er  Er0  1  0.24952800  0.75208800  0.25303300  1
  Er  Er1  1  0.75047200  0.24791200  0.74696700  1
  Er  Er2  1  0.41030400  0.22945700  0.40884900  1
  Er  Er3  1  0.90190400  0.70853600  0.90472800  1
  Er  Er4  1  0.09809600  0.29146400  0.09527200  1
  Er  Er5  1  0.58969600  0.77054300  0.59115100  1
  Ga  Ga0  1  0.17424300  0.80564100  0.45715500  1
  Ga  Ga1  1  0.67801400  0.31632200  0.96029500  1
  Ga  Ga2  1  0.32198600  0.68367800  0.03970500  1
  Ga  Ga3  1  0.82575700  0.19435900  0.54284500  1
  Ga  Ga4  1  0.46051500  0.09770800  0.17667800  1
  Ga  Ga5  1  0.95751200  0.58956800  0.67454400  1
  Ga  Ga6  1  0.04248800  0.41043200  0.32545600  1
  Ga  Ga7  1  0.53948500  0.90229200  0.82332200  1
  Ga  Ga8  1  0.73728400  0.58241300  0.10784400  1
  Ga  Ga9  1  0.23052100  0.06517700  0.60413500  1
  Ga  Ga10  1  0.76947900  0.93482300  0.39586500  1
  Ga  Ga11  1  0.26271600  0.41758700  0.89215600  1
  Ga  Ga12  1  0.60683600  0.44632300  0.23265000  1
  Ga  Ga13  1  0.10395000  0.94306700  0.73516600  1
  Ga  Ga14  1  0.89605000  0.05693300  0.26483400  1
  Ga  Ga15  1  0.39316400  0.55367700  0.76735000  1
  Ga  Ga16  1  0.50000000  0.00000000  0.00000000  1
  Pt  Pt0  1  0.90434500  0.90567800  0.09698800  1
  Pt  Pt1  1  0.39542000  0.39454000  0.60370000  1
  Pt  Pt2  1  0.60458000  0.60546000  0.39630000  1
  Pt  Pt3  1  0.09565500  0.09432200  0.90301200  1
  Pt  Pt4  1  0.00000000  0.50000000  0.50000000  1
loop_
_geom_bond_atom_site_label_1
_geom_bond_atom_site_label_2
_geom_bond_distance
_geom_bond_site_symmetry_2
Er0 Ga12 3.155257 1_555
Er0 Ga12 3.155263 1_455
Er0 Ga8 3.157618 1_555
Er0 Ga8 3.157624 1_455
Er0 Ga10 3.158743 1_555
Er0 Ga10 3.158746 1_455
Er0 Ga14 3.167868 1_465
Er0 Ga14 3.167868 1_565
Er0 Ga0 3.182942 1_555
Er0 Ga6 3.212817 1_555
Er0 Ga4 3.279852 1_565
Er0 Ga2 3.312770 1_555
Er1 Ga15 3.155257 1_555
Er1 Ga15 3.155263 1_655
Er1 Ga11 3.157618 1_555
Er1 Ga11 3.157624 1_655
Er1 Ga9 3.158743 1_555
Er1 Ga9 3.158746 1_655
Er1 Ga13 3.167868 1_545
Er1 Ga13 3.167868 1_645
Er1 Ga3 3.182942 1_555
Er1 Ga5 3.212817 1_555
Er1 Ga7 3.279852 1_545
Er1 Ga1 3.312770 1_555
Er2 Pt2 3.021399 1_555
Er2 Pt1 3.032089 1_555
Er2 Ga6 3.062487 1_555
Er2 Ga6 3.062487 1_655
Er2 Pt4 3.071139 1_555
Er2 Pt4 3.071139 1_655
Er2 Ga3 3.086439 1_455
Er2 Ga3 3.086439 1_555
Er2 Ga10 3.106085 1_545
Er2 Ga10 3.106085 1_445
Er2 Ga14 3.150982 1_455
Er2 Ga14 3.150985 1_555
Er2 Ga4 3.576798 1_555
Er3 Pt0 3.041478 1_556
Er3 Pt3 3.043831 1_665
Er3 Ga15 3.056378 1_555
Er3 Ga15 3.056381 1_655
Er3 Ga2 3.075882 1_656
Er3 Ga2 3.075885 1_556
Er3 Ga11 3.085970 1_555
Er3 Ga11 3.085973 1_655
Er3 Ga7 3.104695 1_555
Er3 Ga7 3.104695 1_655
Er3 Ga16 3.184161 1_566
Er3 Ga16 3.184161 1_666
Er3 Ga1 3.443410 1_555
Er4 Pt3 3.041478 1_554
Er4 Pt0 3.043831 1_445
Er4 Ga12 3.056378 1_555
Er4 Ga12 3.056381 1_455
Er4 Ga1 3.075882 1_454
Er4 Ga1 3.075885 1_554
Er4 Ga8 3.085970 1_555
Er4 Ga8 3.085973 1_455
Er4 Ga4 3.104695 1_455
Er4 Ga4 3.104695 1_555
Er4 Ga16 3.184161 1_455
Er4 Ga16 3.184161 1_555
Er4 Ga2 3.443410 1_555
Er5 Pt1 3.021399 1_555
Er5 Pt2 3.032089 1_555
Er5 Ga5 3.062487 1_555
Er5 Ga5 3.062487 1_455
Er5 Pt4 3.071139 1_555
Er5 Pt4 3.071139 1_655
Er5 Ga0 3.086439 1_655
Er5 Ga0 3.086439 1_555
Er5 Ga9 3.106085 1_665
Er5 Ga9 3.106085 1_565
Er5 Ga13 3.150982 1_655
Er5 Ga13 3.150985 1_555
Er5 Ga7 3.576798 1_555
Ga0 Ga9 2.654188 1_565
Ga0 Ga10 2.656225 1_555
Ga0 Ga10 2.656225 1_455
Ga0 Pt2 2.659762 1_455
Ga0 Pt2 2.659762 1_555
Ga0 Pt4 2.679628 1_555
Ga1 Ga11 2.610282 1_655
Ga1 Ga11 2.610282 1_555
Ga1 Ga8 2.687509 1_556
Ga1 Ga16 2.736311 1_556
Ga1 Pt3 2.738347 1_655
Ga1 Pt3 2.738351 1_555
Ga2 Ga8 2.610282 1_555
Ga2 Ga8 2.610282 1_455
Ga2 Pt0 2.738347 1_455
Ga2 Pt0 2.738351 1_555
Ga3 Ga9 2.656225 1_655
Ga3 Ga9 2.656225 1_555
Ga3 Pt1 2.659762 1_555
Ga3 Pt1 2.659762 1_655
Ga3 Pt4 2.679628 1_655
Ga4 Pt0 2.708839 1_445
Ga4 Pt0 2.708839 1_545
Ga5 Pt1 2.677994 1_555
Ga5 Pt1 2.677994 1_655
Ga5 Pt4 2.690084 1_655
Ga6 Pt2 2.677994 1_455
Ga6 Pt2 2.677994 1_555
Ga6 Pt4 2.690084 1_555
Ga7 Pt3 2.708839 1_665
Ga7 Pt3 2.708839 1_565
Ga8 Pt0 2.597985 1_555
Ga9 Pt1 2.593958 1_555
Ga10 Ga14 2.543483 1_565
Ga10 Pt2 2.593958 1_555
Ga10 Ga3 2.654188 1_565
Ga11 Ga15 2.520384 1_555
Ga11 Pt3 2.597985 1_555
Ga11 Ga2 2.687509 1_556
Ga12 Ga8 2.520384 1_555
Ga12 Pt2 2.574236 1_555
Ga12 Ga4 2.637936 1_555
Ga12 Ga6 2.651151 1_555
Ga12 Ga6 2.651154 1_655
Ga13 Ga9 2.543483 1_565
Ga13 Ga7 2.617975 1_455
Ga13 Ga7 2.617978 1_555
Ga13 Pt3 2.622845 1_565
Ga13 Ga5 2.678727 1_455
Ga14 Ga4 2.617975 1_655
Ga14 Ga4 2.617978 1_555
Ga14 Pt0 2.622845 1_545
Ga14 Ga6 2.678727 1_655
Ga15 Pt1 2.574236 1_555
Ga15 Ga7 2.637936 1_555
Ga15 Ga5 2.651151 1_555
Ga15 Ga5 2.651154 1_455
Ga16 Ga7 2.721966 1_544
Ga16 Ga4 2.721966 1_555
Ga16 Ga2 2.736311 1_545
Ga16 Pt0 2.848483 1_545
Ga16 Pt0 2.848483 1_445
Ga16 Pt3 2.848483 1_654
Ga16 Pt3 2.848483 1_554
