# generated using pymatgen
data_In(C2N3)3
_symmetry_space_group_name_H-M   'P 1'
_cell_length_a   7.35777421
_cell_length_b   12.73589509
_cell_length_c   11.32795000
_cell_angle_alpha   90.00000000
_cell_angle_beta   90.00000000
_cell_angle_gamma   30.06336719
_symmetry_Int_Tables_number   1
_chemical_formula_structural   In(C2N3)3
_chemical_formula_sum   'In2 C12 N18'
_cell_volume   531.77525662
_cell_formula_units_Z   2
loop_
 _symmetry_equiv_pos_site_id
 _symmetry_equiv_pos_as_xyz
  1  'x, y, z'
loop_
 _atom_site_type_symbol
 _atom_site_label
 _atom_site_symmetry_multiplicity
 _atom_site_fract_x
 _atom_site_fract_y
 _atom_site_fract_z
 _atom_site_occupancy
  In  In0  1  0.00000000  0.28111300  0.25000000  1
  In  In1  1  0.00000000  0.71888700  0.75000000  1
  C  C0  1  0.68980600  0.76689800  0.25000000  1
  C  C1  1  0.68980600  0.54329600  0.75000000  1
  C  C2  1  0.31019400  0.23310200  0.75000000  1
  C  C3  1  0.31019400  0.45670400  0.25000000  1
  C  C4  1  0.68936000  0.29922800  0.91767800  1
  C  C5  1  0.68936000  0.01141200  0.08232200  1
  C  C6  1  0.68936000  0.29922800  0.58232200  1
  C  C7  1  0.68936000  0.01141200  0.41767800  1
  C  C8  1  0.31064000  0.70077200  0.08232200  1
  C  C9  1  0.31064000  0.98858800  0.91767800  1
  C  C10  1  0.31064000  0.70077200  0.41767800  1
  C  C11  1  0.31064000  0.98858800  0.58232200  1
  N  N0  1  0.00000000  0.56544200  0.25000000  1
  N  N1  1  0.00000000  0.43455800  0.75000000  1
  N  N2  1  0.39388300  0.94999400  0.25000000  1
  N  N3  1  0.39388300  0.65612300  0.75000000  1
  N  N4  1  0.60611700  0.05000600  0.75000000  1
  N  N5  1  0.60611700  0.34387700  0.25000000  1
  N  N6  1  0.00000000  0.13472800  0.96835600  1
  N  N7  1  0.00000000  0.86527200  0.03164400  1
  N  N8  1  0.00000000  0.13472800  0.53164400  1
  N  N9  1  0.00000000  0.86527200  0.46835600  1
  N  N10  1  0.39227300  0.45481700  0.87997300  1
  N  N11  1  0.39227300  0.15291100  0.12002700  1
  N  N12  1  0.39227300  0.45481700  0.62002700  1
  N  N13  1  0.39227300  0.15291100  0.37997300  1
  N  N14  1  0.60772700  0.54518300  0.12002700  1
  N  N15  1  0.60772700  0.84709000  0.87997300  1
  N  N16  1  0.60772700  0.54518300  0.37997300  1
  N  N17  1  0.60772700  0.84709000  0.62002700  1
loop_
_geom_bond_atom_site_label_1
_geom_bond_atom_site_label_2
_geom_bond_distance
_geom_bond_site_symmetry_2
In0 N14 2.237613 1_455
In0 N16 2.237613 1_455
In0 N13 2.237618 1_555
In0 N11 2.237618 1_555
In0 N5 2.242328 1_455
In0 N2 2.242329 1_545
In1 N15 2.237613 1_455
In1 N17 2.237613 1_455
In1 N12 2.237613 1_555
In1 N10 2.237613 1_555
In1 N3 2.242328 1_555
In1 N4 2.242329 1_465
C0 N2 1.178970 1_555
C0 N0 1.286802 1_655
C1 N3 1.178969 1_555
C1 N1 1.286801 1_655
C2 N4 1.178970 1_555
C2 N1 1.286802 1_555
C3 N5 1.178969 1_555
C3 N0 1.286801 1_555
C4 N10 1.178814 1_555
C4 N6 1.286178 1_655
C5 N11 1.178813 1_555
C5 N7 1.286178 1_645
C6 N12 1.178814 1_555
C6 N8 1.286178 1_655
C7 N13 1.178813 1_555
C7 N9 1.286178 1_645
C8 N14 1.178814 1_555
C8 N7 1.286178 1_555
C9 N15 1.178814 1_555
C9 N6 1.286178 1_565
C10 N16 1.178814 1_555
C10 N9 1.286178 1_555
C11 N17 1.178814 1_555
C11 N8 1.286178 1_565
