# generated using pymatgen
data_Hg2N2O3
_symmetry_space_group_name_H-M   'P 1'
_cell_length_a   15.72712500
_cell_length_b   15.72712500
_cell_length_c   9.29185400
_cell_angle_alpha   90.00000000
_cell_angle_beta   90.00000000
_cell_angle_gamma   90.00000000
_symmetry_Int_Tables_number   1
_chemical_formula_structural   Hg2N2O3
_chemical_formula_sum   'Hg40 N40 O60'
_cell_volume   2298.27003343
_cell_formula_units_Z   20
loop_
 _symmetry_equiv_pos_site_id
 _symmetry_equiv_pos_as_xyz
  1  'x, y, z'
loop_
 _atom_site_type_symbol
 _atom_site_label
 _atom_site_symmetry_multiplicity
 _atom_site_fract_x
 _atom_site_fract_y
 _atom_site_fract_z
 _atom_site_occupancy
  Hg  Hg0  1  0.43426800  0.56573200  0.75000000  1
  Hg  Hg1  1  0.58895800  0.58895800  0.00000000  1
  Hg  Hg2  1  0.60585400  0.03181900  0.42522400  1
  Hg  Hg3  1  0.61334500  0.67600100  0.66498800  1
  Hg  Hg4  1  0.32399900  0.38665500  0.83501200  1
  Hg  Hg5  1  0.46818100  0.10585400  0.67522400  1
  Hg  Hg6  1  0.02942100  0.25922800  0.33235300  1
  Hg  Hg7  1  0.82118600  0.67777000  0.58960700  1
  Hg  Hg8  1  0.32223000  0.17881400  0.91039300  1
  Hg  Hg9  1  0.67881400  0.17777000  0.66039300  1
  Hg  Hg10  1  0.17881400  0.32223000  0.08960700  1
  Hg  Hg11  1  0.47057900  0.75922800  0.91764700  1
  Hg  Hg12  1  0.39414600  0.96818100  0.92522400  1
  Hg  Hg13  1  0.17600100  0.88665500  0.41498800  1
  Hg  Hg14  1  0.97057900  0.74077200  0.83235300  1
  Hg  Hg15  1  0.25922800  0.02942100  0.66764700  1
  Hg  Hg16  1  0.11334500  0.82399900  0.08501200  1
  Hg  Hg17  1  0.96818100  0.39414600  0.07477600  1
  Hg  Hg18  1  0.82223000  0.32118600  0.83960700  1
  Hg  Hg19  1  0.53181900  0.89414600  0.17522400  1
  Hg  Hg20  1  0.74077200  0.97057900  0.16764700  1
  Hg  Hg21  1  0.91104200  0.08895800  0.25000000  1
  Hg  Hg22  1  0.82399900  0.11334500  0.91498800  1
  Hg  Hg23  1  0.67600100  0.61334500  0.33501200  1
  Hg  Hg24  1  0.75922800  0.47057900  0.08235300  1
  Hg  Hg25  1  0.24077200  0.52942100  0.58235300  1
  Hg  Hg26  1  0.56573200  0.43426800  0.25000000  1
  Hg  Hg27  1  0.52942100  0.24077200  0.41764700  1
  Hg  Hg28  1  0.03181900  0.60585400  0.57477600  1
  Hg  Hg29  1  0.67777000  0.82118600  0.41039300  1
  Hg  Hg30  1  0.38665500  0.32399900  0.16498800  1
  Hg  Hg31  1  0.89414600  0.53181900  0.82477600  1
  Hg  Hg32  1  0.41104200  0.41104200  0.50000000  1
  Hg  Hg33  1  0.88665500  0.17600100  0.58501200  1
  Hg  Hg34  1  0.32118600  0.82223000  0.16039300  1
  Hg  Hg35  1  0.08895800  0.91104200  0.75000000  1
  Hg  Hg36  1  0.06573200  0.06573200  0.50000000  1
  Hg  Hg37  1  0.93426800  0.93426800  0.00000000  1
  Hg  Hg38  1  0.17777000  0.67881400  0.33960700  1
  Hg  Hg39  1  0.10585400  0.46818100  0.32477600  1
  N  N0  1  0.25508500  0.25508500  0.50000000  1
  N  N1  1  0.24491500  0.75508500  0.75000000  1
  N  N2  1  0.64986300  0.52532500  0.17083900  1
  N  N3  1  0.20146500  0.79853500  0.25000000  1
  N  N4  1  0.36057100  0.07151100  0.79467000  1
  N  N5  1  0.86335000  0.45176800  0.43311600  1
  N  N6  1  0.95176800  0.63665000  0.18311600  1
  N  N7  1  0.13942900  0.57151100  0.45533000  1
  N  N8  1  0.29853500  0.29853500  0.00000000  1
  N  N9  1  0.57151100  0.13942900  0.54467000  1
  N  N10  1  0.66689200  0.45805700  0.64939600  1
  N  N11  1  0.02532500  0.85013700  0.92083900  1
  N  N12  1  0.14986300  0.97467500  0.57916100  1
  N  N13  1  0.54194300  0.33310800  0.85060400  1
  N  N14  1  0.95805700  0.83310800  0.39939600  1
  N  N15  1  0.63942900  0.92848900  0.29467000  1
  N  N16  1  0.74491500  0.74491500  0.00000000  1
  N  N17  1  0.04194300  0.16689200  0.89939600  1
  N  N18  1  0.63665000  0.95176800  0.81688400  1
  N  N19  1  0.45805700  0.66689200  0.35060400  1
  N  N20  1  0.45176800  0.86335000  0.56688400  1
  N  N21  1  0.16689200  0.04194300  0.10060400  1
  N  N22  1  0.52532500  0.64986300  0.82916100  1
  N  N23  1  0.04823200  0.36335000  0.68311600  1
  N  N24  1  0.33310800  0.54194300  0.14939600  1
  N  N25  1  0.97467500  0.14986300  0.42083900  1
  N  N26  1  0.36335000  0.04823200  0.31688400  1
  N  N27  1  0.42848900  0.86057100  0.04467000  1
  N  N28  1  0.47467500  0.35013700  0.32916100  1
  N  N29  1  0.13665000  0.54823200  0.93311600  1
  N  N30  1  0.85013700  0.02532500  0.07916100  1
  N  N31  1  0.70146500  0.70146500  0.50000000  1
  N  N32  1  0.54823200  0.13665000  0.06688400  1
  N  N33  1  0.79853500  0.20146500  0.75000000  1
  N  N34  1  0.35013700  0.47467500  0.67083900  1
  N  N35  1  0.92848900  0.63942900  0.70533000  1
  N  N36  1  0.86057100  0.42848900  0.95533000  1
  N  N37  1  0.75508500  0.24491500  0.25000000  1
  N  N38  1  0.07151100  0.36057100  0.20533000  1
  N  N39  1  0.83310800  0.95805700  0.60060400  1
  O  O0  1  0.86260700  0.39695700  0.33263000  1
  O  O1  1  0.63739300  0.89695700  0.91737000  1
  O  O2  1  0.24175900  0.81061600  0.85063000  1
  O  O3  1  0.61458900  0.30300900  0.87288800  1
  O  O4  1  0.80300900  0.88541100  0.62288800  1
  O  O5  1  0.36260700  0.10304300  0.41737000  1
  O  O6  1  0.00464900  0.69701600  0.19525500  1
  O  O7  1  0.30123800  0.69876200  0.75000000  1
  O  O8  1  0.99535100  0.30298400  0.69525500  1
  O  O9  1  0.10304300  0.36260700  0.58263000  1
  O  O10  1  0.19701600  0.49535100  0.94525500  1
  O  O11  1  0.89695700  0.63739300  0.08263000  1
  O  O12  1  0.07528600  0.54673700  0.02194300  1
  O  O13  1  0.19699100  0.11458900  0.12288800  1
  O  O14  1  0.81061600  0.24175900  0.14937000  1
  O  O15  1  0.69876200  0.30123800  0.25000000  1
  O  O16  1  0.31061600  0.25824100  0.60063000  1
  O  O17  1  0.48563800  0.60408300  0.42504200  1
  O  O18  1  0.49535100  0.19701600  0.05474500  1
  O  O19  1  0.98563800  0.89591700  0.32495800  1
  O  O20  1  0.74175900  0.68938400  0.89937000  1
  O  O21  1  0.80298400  0.50464900  0.44525500  1
  O  O22  1  0.68938400  0.74175900  0.10063000  1
  O  O23  1  0.92471400  0.45326300  0.52194300  1
  O  O24  1  0.10408300  0.01436200  0.17504200  1
  O  O25  1  0.69861500  0.50667000  0.74610500  1
  O  O26  1  0.00667000  0.80138500  0.49610500  1
  O  O27  1  0.60304300  0.13739300  0.16737000  1
  O  O28  1  0.51436200  0.39591700  0.92504200  1
  O  O29  1  0.30298400  0.99535100  0.30474500  1
  O  O30  1  0.39591700  0.51436200  0.07495800  1
  O  O31  1  0.80123800  0.80123800  0.00000000  1
  O  O32  1  0.99333000  0.19861500  0.99610500  1
  O  O33  1  0.30300900  0.61458900  0.12711200  1
  O  O34  1  0.01436200  0.10408300  0.82495800  1
  O  O35  1  0.45326300  0.92471400  0.47805700  1
  O  O36  1  0.13739300  0.60304300  0.83263000  1
  O  O37  1  0.49333000  0.30138500  0.75389500  1
  O  O38  1  0.57528600  0.95326300  0.72805700  1
  O  O39  1  0.04673700  0.42471400  0.77194300  1
  O  O40  1  0.38541100  0.69699100  0.37288800  1
  O  O41  1  0.54673700  0.07528600  0.97805700  1
  O  O42  1  0.19861500  0.99333000  0.00389500  1
  O  O43  1  0.50667000  0.69861500  0.25389500  1
  O  O44  1  0.18938400  0.75824100  0.64937000  1
  O  O45  1  0.25824100  0.31061600  0.39937000  1
  O  O46  1  0.88541100  0.80300900  0.37711200  1
  O  O47  1  0.30138500  0.49333000  0.24610500  1
  O  O48  1  0.95326300  0.57528600  0.27194300  1
  O  O49  1  0.19876200  0.19876200  0.50000000  1
  O  O50  1  0.42471400  0.04673700  0.22805700  1
  O  O51  1  0.69699100  0.38541100  0.62711200  1
  O  O52  1  0.50464900  0.80298400  0.55474500  1
  O  O53  1  0.89591700  0.98563800  0.67504200  1
  O  O54  1  0.39695700  0.86260700  0.66737000  1
  O  O55  1  0.80138500  0.00667000  0.50389500  1
  O  O56  1  0.69701600  0.00464900  0.80474500  1
  O  O57  1  0.11458900  0.19699100  0.87711200  1
  O  O58  1  0.75824100  0.18938400  0.35063000  1
  O  O59  1  0.60408300  0.48563800  0.57495800  1
loop_
_geom_bond_atom_site_label_1
_geom_bond_atom_site_label_2
_geom_bond_distance
_geom_bond_site_symmetry_2
Hg0 N22 2.083877 1_555
Hg0 N34 2.083877 1_555
Hg1 N2 2.106870 1_555
Hg1 N22 2.106870 1_554
Hg2 N9 2.094696 1_555
Hg2 N15 2.095544 1_545
Hg3 N22 2.100556 1_555
Hg3 N31 2.105054 1_555
Hg4 N34 2.100556 1_555
Hg4 N8 2.105054 1_556
Hg5 N4 2.094696 1_555
Hg5 N9 2.095544 1_555
Hg6 N38 2.090825 1_555
Hg6 N25 2.091821 1_455
Hg7 N35 2.089908 1_555
Hg7 N31 2.092202 1_555
Hg8 N4 2.089908 1_555
Hg8 N8 2.092202 1_556
Hg9 N9 2.089908 1_555
Hg9 N33 2.092202 1_555
Hg10 N38 2.089908 1_555
Hg10 N8 2.092202 1_555
Hg11 N27 2.090825 1_556
Hg11 N22 2.091821 1_555
Hg12 N27 2.094696 1_556
Hg12 N4 2.095544 1_565
Hg13 N12 2.100556 1_555
Hg13 N3 2.105054 1_555
Hg14 N35 2.090825 1_555
Hg14 N11 2.091821 1_655
Hg15 N4 2.090825 1_555
Hg15 N12 2.091821 1_545
Hg16 N11 2.100556 1_554
Hg16 N3 2.105054 1_555
Hg17 N36 2.094696 1_554
Hg17 N38 2.095544 1_655
Hg18 N36 2.089908 1_555
Hg18 N33 2.092202 1_555
Hg19 N15 2.094696 1_555
Hg19 N27 2.095544 1_555
Hg20 N15 2.090825 1_555
Hg20 N30 2.091821 1_565
Hg21 N30 2.106870 1_555
Hg21 N25 2.106870 1_555
Hg22 N30 2.100556 1_556
Hg22 N33 2.105054 1_555
Hg23 N2 2.100556 1_555
Hg23 N31 2.105054 1_555
Hg24 N36 2.090825 1_554
Hg24 N2 2.091821 1_555
Hg25 N7 2.090825 1_555
Hg25 N34 2.091821 1_555
Hg26 N2 2.083877 1_555
Hg26 N28 2.083877 1_555
Hg27 N9 2.090825 1_555
Hg27 N28 2.091821 1_555
Hg28 N7 2.094696 1_555
Hg28 N35 2.095544 1_455
Hg29 N15 2.089908 1_555
Hg29 N31 2.092202 1_555
Hg30 N28 2.100556 1_555
Hg30 N8 2.105054 1_555
Hg31 N35 2.094696 1_555
Hg31 N36 2.095544 1_555
Hg32 N34 2.106870 1_555
Hg32 N28 2.106870 1_555
Hg33 N25 2.100556 1_555
Hg33 N33 2.105054 1_555
Hg34 N27 2.089908 1_555
Hg34 N3 2.092202 1_555
Hg35 N11 2.106870 1_555
Hg35 N12 2.106870 1_555
Hg36 N12 2.083877 1_545
Hg36 N25 2.083877 1_455
Hg37 N11 2.083877 1_654
Hg37 N30 2.083877 1_565
Hg38 N7 2.089908 1_555
Hg38 N3 2.092202 1_555
Hg39 N38 2.094696 1_555
Hg39 N7 2.095544 1_555
N0 O49 1.252709 1_555
N0 O45 1.280426 1_555
N0 O16 1.280426 1_555
N1 O7 1.252709 1_555
N1 O44 1.280426 1_555
N1 O2 1.280426 1_555
N5 O21 1.267170 1_555
N5 O23 1.270103 1_555
N5 O0 1.270831 1_555
N6 O6 1.267170 1_655
N6 O48 1.270103 1_555
N6 O11 1.270831 1_555
N10 O51 1.253909 1_555
N10 O25 1.280988 1_555
N10 O59 1.281530 1_555
N13 O3 1.253909 1_555
N13 O37 1.280988 1_555
N13 O28 1.281530 1_555
N14 O46 1.253909 1_555
N14 O26 1.280988 1_655
N14 O19 1.281530 1_555
N16 O31 1.252709 1_555
N16 O20 1.280426 1_554
N16 O22 1.280426 1_555
N17 O57 1.253909 1_555
N17 O32 1.280988 1_455
N17 O34 1.281530 1_555
N18 O56 1.267170 1_565
N18 O38 1.270103 1_555
N18 O1 1.270831 1_555
N19 O40 1.253909 1_555
N19 O43 1.280988 1_555
N19 O17 1.281530 1_555
N20 O52 1.267170 1_555
N20 O35 1.270103 1_555
N20 O54 1.270831 1_555
N21 O13 1.253909 1_555
N21 O42 1.280988 1_545
N21 O24 1.281530 1_555
N23 O8 1.267170 1_455
N23 O39 1.270103 1_555
N23 O9 1.270831 1_555
N24 O33 1.253909 1_555
N24 O47 1.280988 1_555
N24 O30 1.281530 1_555
N26 O29 1.267170 1_545
N26 O50 1.270103 1_555
N26 O5 1.270831 1_555
N29 O10 1.267170 1_555
N29 O12 1.270103 1_556
N29 O36 1.270831 1_555
N32 O18 1.267170 1_555
N32 O41 1.270103 1_554
N32 O27 1.270831 1_555
N37 O15 1.252709 1_555
N37 O58 1.280426 1_555
N37 O14 1.280426 1_555
N39 O4 1.253909 1_555
N39 O55 1.280988 1_565
N39 O53 1.281530 1_555
