# generated using pymatgen
data_U3Al19Ni5
_symmetry_space_group_name_H-M   'P 1'
_cell_length_a   8.18645193
_cell_length_b   8.18645193
_cell_length_c   26.86198900
_cell_angle_alpha   90.00000000
_cell_angle_beta   90.00000000
_cell_angle_gamma   151.21855284
_symmetry_Int_Tables_number   1
_chemical_formula_structural   U3Al19Ni5
_chemical_formula_sum   'U6 Al38 Ni10'
_cell_volume   866.75974765
_cell_formula_units_Z   2
loop_
 _symmetry_equiv_pos_site_id
 _symmetry_equiv_pos_as_xyz
  1  'x, y, z'
loop_
 _atom_site_type_symbol
 _atom_site_label
 _atom_site_symmetry_multiplicity
 _atom_site_fract_x
 _atom_site_fract_y
 _atom_site_fract_z
 _atom_site_occupancy
  U  U0  1  0.88393200  0.11606800  0.25000000  1
  U  U1  1  0.11606800  0.88393200  0.75000000  1
  U  U2  1  0.66775400  0.33224600  0.13596300  1
  U  U3  1  0.33224600  0.66775400  0.86403700  1
  U  U4  1  0.66775400  0.33224600  0.36403700  1
  U  U5  1  0.33224600  0.66775400  0.63596300  1
  Al  Al0  1  0.90667900  0.09332100  0.46293900  1
  Al  Al1  1  0.09332100  0.90667900  0.53706100  1
  Al  Al2  1  0.90667900  0.09332100  0.03706100  1
  Al  Al3  1  0.09332100  0.90667900  0.96293900  1
  Al  Al4  1  0.27585200  0.72414800  0.19407300  1
  Al  Al5  1  0.72414800  0.27585200  0.80592700  1
  Al  Al6  1  0.27585200  0.72414800  0.30592700  1
  Al  Al7  1  0.72414800  0.27585200  0.69407300  1
  Al  Al8  1  0.92170800  0.07829200  0.79913400  1
  Al  Al9  1  0.07829200  0.92170800  0.20086600  1
  Al  Al10  1  0.92170800  0.07829200  0.70086600  1
  Al  Al11  1  0.07829200  0.92170800  0.29913400  1
  Al  Al12  1  0.70827900  0.29172100  0.91083200  1
  Al  Al13  1  0.29172100  0.70827900  0.08916800  1
  Al  Al14  1  0.70827900  0.29172100  0.58916800  1
  Al  Al15  1  0.29172100  0.70827900  0.41083200  1
  Al  Al16  1  0.73565900  0.26434100  0.02935200  1
  Al  Al17  1  0.26434100  0.73565900  0.97064800  1
  Al  Al18  1  0.73565900  0.26434100  0.47064800  1
  Al  Al19  1  0.26434100  0.73565900  0.52935200  1
  Al  Al20  1  0.96332100  0.03667900  0.89838100  1
  Al  Al21  1  0.03667900  0.96332100  0.10161900  1
  Al  Al22  1  0.96332100  0.03667900  0.60161900  1
  Al  Al23  1  0.03667900  0.96332100  0.39838100  1
  Al  Al24  1  0.86837600  0.13162400  0.36352200  1
  Al  Al25  1  0.13162400  0.86837600  0.63647800  1
  Al  Al26  1  0.86837600  0.13162400  0.13647800  1
  Al  Al27  1  0.13162400  0.86837600  0.86352200  1
  Al  Al28  1  0.43213300  0.56786700  0.96923500  1
  Al  Al29  1  0.56786700  0.43213300  0.03076500  1
  Al  Al30  1  0.43213300  0.56786700  0.53076500  1
  Al  Al31  1  0.56786700  0.43213300  0.46923500  1
  Al  Al32  1  0.46318900  0.53681100  0.17400700  1
  Al  Al33  1  0.53681100  0.46318900  0.82599300  1
  Al  Al34  1  0.46318900  0.53681100  0.32599300  1
  Al  Al35  1  0.53681100  0.46318900  0.67400700  1
  Al  Al36  1  0.69464600  0.30535400  0.25000000  1
  Al  Al37  1  0.30535400  0.69464600  0.75000000  1
  Ni  Ni0  1  0.54416000  0.45584000  0.25000000  1
  Ni  Ni1  1  0.45584000  0.54416000  0.75000000  1
  Ni  Ni2  1  0.84049900  0.15950100  0.95711100  1
  Ni  Ni3  1  0.15950100  0.84049900  0.04288900  1
  Ni  Ni4  1  0.84049900  0.15950100  0.54288900  1
  Ni  Ni5  1  0.15950100  0.84049900  0.45711100  1
  Ni  Ni6  1  0.55310000  0.44690000  0.91601800  1
  Ni  Ni7  1  0.44690000  0.55310000  0.08398200  1
  Ni  Ni8  1  0.55310000  0.44690000  0.58398200  1
  Ni  Ni9  1  0.44690000  0.55310000  0.41601800  1
loop_
_geom_bond_atom_site_label_1
_geom_bond_atom_site_label_2
_geom_bond_distance
_geom_bond_site_symmetry_2
Al0 Ni4 2.390362 1_555
Al0 Ni9 2.476909 1_545
Al0 Ni9 2.476909 1_655
Al0 Al24 2.738754 1_555
Al1 Ni5 2.390362 1_555
Al1 Ni8 2.476909 1_455
Al1 Ni8 2.476909 1_565
Al1 Al25 2.738754 1_555
Al2 Ni2 2.390362 1_554
Al2 Ni7 2.476909 1_545
Al2 Ni7 2.476909 1_655
Al2 Al26 2.738754 1_555
Al3 Ni3 2.390362 1_556
Al3 Ni6 2.476909 1_455
Al3 Ni6 2.476909 1_565
Al4 Al6 3.004621 1_555
Al4 U0 3.055250 1_565
Al4 U0 3.055250 1_455
Al4 U2 3.084665 1_455
Al4 U2 3.084665 1_565
Al4 Al9 3.138448 1_555
Al5 Al7 3.004621 1_555
Al5 U1 3.055250 1_655
Al5 U1 3.055250 1_545
Al5 U3 3.084665 1_545
Al5 U3 3.084665 1_655
Al5 Al8 3.138448 1_555
Al6 U0 3.055250 1_565
Al6 U0 3.055250 1_455
Al6 U4 3.084665 1_455
Al6 U4 3.084665 1_565
Al7 U1 3.055250 1_655
Al7 U1 3.055250 1_545
Al7 U5 3.084665 1_655
Al7 U5 3.084665 1_545
Al8 Ni1 2.484873 1_545
Al8 Ni1 2.484873 1_655
Al8 U3 3.031850 1_655
Al8 U3 3.031850 1_545
Al8 U1 3.353073 1_645
Al9 Ni0 2.484873 1_455
Al9 Ni0 2.484873 1_565
Al9 U2 3.031850 1_565
Al9 U2 3.031850 1_455
Al9 U0 3.353073 1_465
Al10 Ni1 2.484873 1_545
Al10 Ni1 2.484873 1_655
Al10 U5 3.031850 1_545
Al10 U5 3.031850 1_655
Al10 Al7 3.138448 1_555
Al10 U1 3.353073 1_645
Al11 Ni0 2.484873 1_455
Al11 Ni0 2.484873 1_565
Al11 U4 3.031850 1_565
Al11 U4 3.031850 1_455
Al11 Al6 3.138448 1_555
Al11 U0 3.353073 1_465
Al12 Ni2 2.437705 1_555
Al12 Ni6 2.464951 1_555
Al12 Al27 2.689338 1_655
Al12 Al27 2.689338 1_545
Al12 Al5 2.829173 1_555
Al12 U3 3.095948 1_655
Al12 U3 3.095948 1_545
Al13 Ni3 2.437705 1_555
Al13 Ni7 2.464951 1_555
Al13 Al26 2.689338 1_565
Al13 Al26 2.689338 1_455
Al13 Al4 2.829173 1_555
Al13 U2 3.095948 1_455
Al13 U2 3.095948 1_565
Al14 Ni4 2.437705 1_555
Al14 Ni8 2.464951 1_555
Al14 Al25 2.689338 1_655
Al14 Al25 2.689338 1_545
Al14 Al7 2.829173 1_555
Al14 U5 3.095948 1_545
Al14 U5 3.095948 1_655
Al15 Ni5 2.437705 1_555
Al15 Ni9 2.464951 1_555
Al15 Al24 2.689338 1_565
Al15 Al24 2.689338 1_455
Al15 Al6 2.829173 1_555
Al15 U4 3.095948 1_455
Al15 U4 3.095948 1_565
Al16 Ni3 2.393873 1_655
Al16 Ni3 2.393873 1_545
Al16 Ni2 2.555421 1_554
Al16 U2 3.059576 1_555
Al17 Ni2 2.393873 1_565
Al17 Ni2 2.393873 1_455
Al17 Ni3 2.555421 1_556
Al17 U3 3.059576 1_555
Al18 Ni5 2.393873 1_655
Al18 Ni5 2.393873 1_545
Al18 Ni4 2.555421 1_555
Al18 U4 3.059576 1_555
Al19 Ni4 2.393873 1_565
Al19 Ni4 2.393873 1_455
Al19 Ni5 2.555421 1_555
Al19 U5 3.059576 1_555
Al20 Ni2 2.506587 1_555
Al20 Ni6 2.528109 1_545
Al20 Ni6 2.528109 1_655
Al20 Al27 2.828632 1_645
Al20 U3 3.051537 1_545
Al20 U3 3.051537 1_655
Al21 Ni3 2.506587 1_555
Al21 Ni7 2.528109 1_455
Al21 Ni7 2.528109 1_565
Al21 Al26 2.828632 1_465
Al21 U2 3.051537 1_455
Al21 U2 3.051537 1_565
Al22 Ni4 2.506587 1_555
Al22 Ni8 2.528109 1_545
Al22 Ni8 2.528109 1_655
Al22 Al25 2.828632 1_645
Al22 U5 3.051537 1_545
Al22 U5 3.051537 1_655
Al23 Ni5 2.506587 1_555
Al23 Ni9 2.528109 1_455
Al23 Ni9 2.528109 1_565
Al23 Al24 2.828632 1_465
Al23 U4 3.051537 1_455
Al23 U4 3.051537 1_565
Al24 Al34 2.723393 1_655
Al24 Al34 2.723393 1_545
Al24 Ni9 2.771095 1_545
Al24 Ni9 2.771095 1_655
Al24 Al6 2.947255 1_545
Al24 Al6 2.947255 1_655
Al24 U0 3.059390 1_555
Al24 U4 3.181730 1_555
Al25 Al35 2.723393 1_565
Al25 Al35 2.723393 1_455
Al25 Ni8 2.771095 1_455
Al25 Ni8 2.771095 1_565
Al25 Al7 2.947255 1_455
Al25 Al7 2.947255 1_565
Al25 U1 3.059390 1_555
Al25 U5 3.181730 1_555
Al26 Al32 2.723393 1_655
Al26 Al32 2.723393 1_545
Al26 Ni7 2.771095 1_545
Al26 Ni7 2.771095 1_655
Al26 Al4 2.947255 1_545
Al26 Al4 2.947255 1_655
Al26 U0 3.059390 1_555
Al26 U2 3.181730 1_555
Al27 Al33 2.723393 1_565
Al27 Al33 2.723393 1_455
Al27 Al3 2.738754 1_555
Al27 Ni6 2.771095 1_455
Al27 Ni6 2.771095 1_565
Al27 Al5 2.947255 1_455
Al27 Al5 2.947255 1_565
Al27 U1 3.059390 1_555
Al27 U3 3.181730 1_555
Al28 Ni6 2.392470 1_555
Al28 Ni2 2.521425 1_455
Al28 Ni2 2.521425 1_565
Al28 U3 3.239561 1_555
Al29 Ni7 2.392470 1_555
Al29 Ni3 2.521425 1_545
Al29 Ni3 2.521425 1_655
Al29 U2 3.239561 1_555
Al30 Ni8 2.392470 1_555
Al30 Ni4 2.521425 1_455
Al30 Ni4 2.521425 1_565
Al30 U5 3.239561 1_555
Al31 Ni9 2.392470 1_555
Al31 Ni5 2.521425 1_545
Al31 Ni5 2.521425 1_655
Al31 U4 3.239561 1_555
Al32 Ni0 2.411638 1_555
Al32 Ni7 2.432010 1_555
Al32 Al4 3.019510 1_555
Al32 U0 3.144287 1_565
Al32 U0 3.144287 1_455
Al32 U2 3.401382 1_555
Al33 Ni1 2.411638 1_555
Al33 Ni6 2.432010 1_555
Al33 Al5 3.019510 1_555
Al33 U1 3.144287 1_655
Al33 U1 3.144287 1_545
Al33 U3 3.401382 1_555
Al34 Ni0 2.411638 1_555
Al34 Ni9 2.432010 1_555
Al34 Al6 3.019510 1_555
Al34 U0 3.144287 1_455
Al34 U0 3.144287 1_565
Al34 U4 3.401382 1_555
Al35 Ni1 2.411638 1_555
Al35 Ni8 2.432010 1_555
Al35 Al7 3.019510 1_555
Al35 U1 3.144287 1_655
Al35 U1 3.144287 1_545
Al35 U5 3.401382 1_555
Al36 Ni0 2.386584 1_555
Al36 Al6 2.838157 1_545
Al36 Al4 2.838157 1_545
Al36 Al4 2.838157 1_655
Al36 Al6 2.838157 1_655
Al36 U0 3.001920 1_555
Al36 U4 3.092807 1_555
Al36 U2 3.092807 1_555
Al37 Ni1 2.386584 1_555
Al37 Al5 2.838157 1_455
Al37 Al5 2.838157 1_565
Al37 Al7 2.838157 1_455
Al37 Al7 2.838157 1_565
Al37 U1 3.001920 1_555
Al37 U3 3.092807 1_555
Al37 U5 3.092807 1_555
Ni0 U0 3.255261 1_565
Ni0 U0 3.255261 1_455
Ni1 U1 3.255261 1_655
Ni1 U1 3.255261 1_545
Ni2 U3 3.226067 1_655
Ni2 U3 3.226067 1_545
Ni3 U2 3.226067 1_565
Ni3 U2 3.226067 1_455
Ni4 U5 3.226067 1_655
Ni4 U5 3.226067 1_545
Ni5 U4 3.226067 1_565
Ni5 U4 3.226067 1_455
