# generated using pymatgen
data_Li2Pd(N2O5)2
_symmetry_space_group_name_H-M   'P 1'
_cell_length_a   8.66708900
_cell_length_b   10.53062200
_cell_length_c   11.18186100
_cell_angle_alpha   90.00000000
_cell_angle_beta   90.00000000
_cell_angle_gamma   90.00000000
_symmetry_Int_Tables_number   1
_chemical_formula_structural   Li2Pd(N2O5)2
_chemical_formula_sum   'Li8 Pd4 N16 O40'
_cell_volume   1020.56664312
_cell_formula_units_Z   4
loop_
 _symmetry_equiv_pos_site_id
 _symmetry_equiv_pos_as_xyz
  1  'x, y, z'
loop_
 _atom_site_type_symbol
 _atom_site_label
 _atom_site_symmetry_multiplicity
 _atom_site_fract_x
 _atom_site_fract_y
 _atom_site_fract_z
 _atom_site_occupancy
  Li  Li0  1  0.14263900  0.12533800  0.12546800  1
  Li  Li1  1  0.82684600  0.12543000  0.92076600  1
  Li  Li2  1  0.32684600  0.87457000  0.07923400  1
  Li  Li3  1  0.64263900  0.87466200  0.87453200  1
  Li  Li4  1  0.82684600  0.37457000  0.42076600  1
  Li  Li5  1  0.14263900  0.37466200  0.62546800  1
  Li  Li6  1  0.64263900  0.62533800  0.37453200  1
  Li  Li7  1  0.32684600  0.62543000  0.57923400  1
  Pd  Pd0  1  0.50270700  0.33014800  0.99776600  1
  Pd  Pd1  1  0.00270700  0.66985200  0.00223400  1
  Pd  Pd2  1  0.50270700  0.16985200  0.49776600  1
  Pd  Pd3  1  0.00270700  0.83014800  0.50223400  1
  N  N0  1  0.50329800  0.52651700  0.99972100  1
  N  N1  1  0.00329800  0.47348300  0.00027900  1
  N  N2  1  0.50329800  0.97348300  0.49972100  1
  N  N3  1  0.00329800  0.02651700  0.50027900  1
  N  N4  1  0.49541700  0.13078500  0.99816600  1
  N  N5  1  0.99541700  0.86921500  0.00183400  1
  N  N6  1  0.49541700  0.36921500  0.49816600  1
  N  N7  1  0.99541700  0.63078500  0.50183400  1
  N  N8  1  0.37153200  0.33700800  0.15444600  1
  N  N9  1  0.63604900  0.33634600  0.84097400  1
  N  N10  1  0.13604900  0.66365400  0.15902600  1
  N  N11  1  0.87153200  0.66299200  0.84555400  1
  N  N12  1  0.63604900  0.16365400  0.34097400  1
  N  N13  1  0.37153200  0.16299200  0.65444600  1
  N  N14  1  0.87153200  0.83700800  0.34555400  1
  N  N15  1  0.13604900  0.83634600  0.65902600  1
  O  O0  1  0.42957000  0.39174100  0.24082300  1
  O  O1  1  0.57958100  0.39365000  0.75549000  1
  O  O2  1  0.07958100  0.60635000  0.24451000  1
  O  O3  1  0.92957000  0.60825900  0.75917700  1
  O  O4  1  0.57958100  0.10635000  0.25549000  1
  O  O5  1  0.42957000  0.10825900  0.74082300  1
  O  O6  1  0.92957000  0.89174100  0.25917700  1
  O  O7  1  0.07958100  0.89365000  0.74451000  1
  O  O8  1  0.41204000  0.57876200  0.93084500  1
  O  O9  1  0.59232400  0.57925400  0.06939700  1
  O  O10  1  0.09232400  0.42074600  0.93060300  1
  O  O11  1  0.91204000  0.42123800  0.06915500  1
  O  O12  1  0.59232400  0.92074600  0.56939700  1
  O  O13  1  0.41204000  0.92123800  0.43084500  1
  O  O14  1  0.91204000  0.07876200  0.56915500  1
  O  O15  1  0.09232400  0.07925400  0.43060300  1
  O  O16  1  0.23936100  0.29046300  0.15813300  1
  O  O17  1  0.76696100  0.28711600  0.83732500  1
  O  O18  1  0.26696100  0.71288400  0.16267500  1
  O  O19  1  0.73936100  0.70953700  0.84186700  1
  O  O20  1  0.76696100  0.21288400  0.33732500  1
  O  O21  1  0.23936100  0.20953700  0.65813300  1
  O  O22  1  0.73936100  0.79046300  0.34186700  1
  O  O23  1  0.26696100  0.78711600  0.66267500  1
  O  O24  1  0.37228300  0.07595500  0.02269500  1
  O  O25  1  0.61302900  0.06729200  0.97398800  1
  O  O26  1  0.11302900  0.93270800  0.02601200  1
  O  O27  1  0.87228300  0.92404500  0.97730500  1
  O  O28  1  0.61302900  0.43270800  0.47398800  1
  O  O29  1  0.37228300  0.42404500  0.52269500  1
  O  O30  1  0.87228300  0.57595500  0.47730500  1
  O  O31  1  0.11302900  0.56729200  0.52601200  1
  O  O32  1  0.25923600  0.99330300  0.21821300  1
  O  O33  1  0.75923600  0.00669700  0.78178700  1
  O  O34  1  0.75923600  0.49330300  0.28178700  1
  O  O35  1  0.25923600  0.50669700  0.71821300  1
  O  O36  1  0.43172800  0.84298700  0.92627300  1
  O  O37  1  0.93172800  0.15701300  0.07372700  1
  O  O38  1  0.43172800  0.65701300  0.42627300  1
  O  O39  1  0.93172800  0.34298700  0.57372700  1
loop_
_geom_bond_atom_site_label_1
_geom_bond_atom_site_label_2
_geom_bond_distance
_geom_bond_site_symmetry_2
Li0 O37 1.946155 1_455
Li0 O16 1.964643 1_555
Li0 O32 2.007477 1_545
Li0 O26 2.327553 1_545
Li0 O24 2.356386 1_555
Li1 O37 1.965290 1_556
Li1 O17 2.009716 1_555
Li1 O25 2.040401 1_555
Li1 O33 2.078884 1_555
Li1 O27 2.247706 1_545
Li2 O36 1.965290 1_554
Li2 O18 2.009716 1_555
Li2 O26 2.040401 1_555
Li2 O32 2.078884 1_555
Li2 O24 2.247706 1_565
Li3 O36 1.946155 1_555
Li3 O19 1.964643 1_555
Li3 O33 2.007477 1_565
Li3 O25 2.327553 1_565
Li3 O27 2.356386 1_555
Li4 O39 1.965290 1_555
Li4 O20 2.009716 1_555
Li4 O28 2.040401 1_555
Li4 O34 2.078884 1_555
Li4 O30 2.247706 1_555
Li5 O39 1.946155 1_455
Li5 O21 1.964643 1_555
Li5 O35 2.007477 1_555
Li5 O31 2.327553 1_555
Li5 O29 2.356386 1_555
Li6 O38 1.946155 1_555
Li6 O22 1.964643 1_555
Li6 O34 2.007477 1_555
Li6 O28 2.327553 1_555
Li6 O30 2.356386 1_555
Li7 O38 1.965290 1_555
Li7 O23 2.009716 1_555
Li7 O31 2.040401 1_555
Li7 O35 2.078884 1_555
Li7 O29 2.247706 1_555
N0 O9 1.229141 1_556
N0 O8 1.233461 1_555
N0 Pd0 2.068010 1_555
N1 O10 1.229141 1_554
N1 O11 1.233461 1_455
N1 Pd1 2.068010 1_555
N2 O12 1.229141 1_555
N2 O13 1.233461 1_555
N2 Pd2 2.068010 1_565
N3 O15 1.229141 1_555
N3 O14 1.233461 1_455
N3 Pd3 2.068010 1_545
N4 O24 1.244009 1_556
N4 O25 1.248690 1_555
N4 Pd0 2.100372 1_555
N5 O27 1.244009 1_554
N5 O26 1.248690 1_655
N5 Pd1 2.100372 1_655
N6 O29 1.244009 1_555
N6 O28 1.248690 1_555
N6 Pd2 2.100372 1_555
N7 O30 1.244009 1_555
N7 O31 1.248690 1_655
N7 Pd3 2.100372 1_655
N8 O0 1.232117 1_555
N8 O16 1.246676 1_555
N8 Pd0 2.089781 1_554
N9 O1 1.231812 1_555
N9 O17 1.248120 1_555
N9 Pd0 2.100875 1_555
N10 O2 1.231812 1_555
N10 O18 1.248120 1_555
N10 Pd1 2.100875 1_555
N11 O3 1.232117 1_555
N11 O19 1.246676 1_555
N11 Pd1 2.089781 1_656
N12 O4 1.231812 1_555
N12 O20 1.248120 1_555
N12 Pd2 2.100875 1_555
N13 O5 1.232117 1_555
N13 O21 1.246676 1_555
N13 Pd2 2.089781 1_555
N14 O6 1.232117 1_555
N14 O22 1.246676 1_555
N14 Pd3 2.089781 1_655
N15 O7 1.231812 1_555
N15 O23 1.248120 1_555
N15 Pd3 2.100875 1_555
