# generated using pymatgen
data_Y6MoO12
_symmetry_space_group_name_H-M   'P 1'
_cell_length_a   10.30315188
_cell_length_b   6.52263396
_cell_length_c   6.47332050
_cell_angle_alpha   120.99427990
_cell_angle_beta   96.99511795
_cell_angle_gamma   95.45035366
_symmetry_Int_Tables_number   1
_chemical_formula_structural   Y6MoO12
_chemical_formula_sum   'Y6 Mo1 O12'
_cell_volume   363.72785345
_cell_formula_units_Z   1
loop_
 _symmetry_equiv_pos_site_id
 _symmetry_equiv_pos_as_xyz
  1  'x, y, z'
loop_
 _atom_site_type_symbol
 _atom_site_label
 _atom_site_symmetry_multiplicity
 _atom_site_fract_x
 _atom_site_fract_y
 _atom_site_fract_z
 _atom_site_occupancy
  Y  Y0  1  0.08149900  0.73831000  0.35124700  1
  Y  Y1  1  0.91850100  0.26169000  0.64875300  1
  Y  Y2  1  0.64222300  0.04880300  0.19794200  1
  Y  Y3  1  0.35777700  0.95119700  0.80205800  1
  Y  Y4  1  0.71490500  0.73594200  0.60718300  1
  Y  Y5  1  0.28509500  0.26405800  0.39281700  1
  Mo  Mo0  1  0.00000000  0.00000000  0.00000000  1
  O  O0  1  0.95903200  0.88259700  0.64485800  1
  O  O1  1  0.04096800  0.11740300  0.35514200  1
  O  O2  1  0.98257200  0.67276900  0.93527000  1
  O  O3  1  0.01742800  0.32723100  0.06473000  1
  O  O4  1  0.81250100  0.98970200  0.99521900  1
  O  O5  1  0.18749900  0.01029800  0.00478100  1
  O  O6  1  0.54212300  0.80640500  0.78345900  1
  O  O7  1  0.45787700  0.19359500  0.21654100  1
  O  O8  1  0.77548700  0.38951200  0.47896200  1
  O  O9  1  0.22451300  0.61048800  0.52103800  1
  O  O10  1  0.72653800  0.95042700  0.44690700  1
  O  O11  1  0.27346200  0.04957300  0.55309300  1
loop_
_geom_bond_atom_site_label_1
_geom_bond_atom_site_label_2
_geom_bond_distance
_geom_bond_site_symmetry_2
Mo0 O4 1.922521 1_444
Mo0 O5 1.922521 1_555
Mo0 O3 1.936823 1_555
Mo0 O2 1.936823 1_444
Mo0 O0 1.984655 1_444
Mo0 O1 1.984655 1_555
O0 Y0 2.248947 1_655
O0 Y1 2.534503 1_565
O0 Y4 2.540549 1_555
O1 Y1 2.248947 1_455
O1 Y0 2.534503 1_545
O1 Y5 2.540549 1_555
O2 Y1 2.304115 1_555
O2 Y0 2.556503 1_656
O3 Y0 2.304115 1_555
O3 Y1 2.556503 1_454
O4 Y4 2.201582 1_555
O4 Y2 2.262049 1_566
O5 Y5 2.201582 1_555
O5 Y3 2.262049 1_544
O6 Y4 2.189180 1_555
O6 Y3 2.189360 1_555
O6 Y2 2.325858 1_566
O7 Y5 2.189180 1_555
O7 Y2 2.189360 1_555
O7 Y3 2.325858 1_544
O8 Y4 2.155688 1_555
O8 Y2 2.186680 1_555
O8 Y1 2.203867 1_555
O9 Y5 2.155688 1_555
O9 Y3 2.186680 1_555
O9 Y0 2.203867 1_555
O10 Y4 2.131048 1_555
O10 Y2 2.143291 1_565
O10 Y1 2.369941 1_565
O11 Y5 2.131048 1_555
O11 Y3 2.143291 1_545
O11 Y0 2.369941 1_545
