# generated using pymatgen
data_Ba6Mg7F26
_symmetry_space_group_name_H-M   'P 1'
_cell_length_a   10.11099047
_cell_length_b   10.11087965
_cell_length_c   10.11084739
_cell_angle_alpha   146.44095418
_cell_angle_beta   106.20635240
_cell_angle_gamma   83.54487396
_symmetry_Int_Tables_number   1
_chemical_formula_structural   Ba6Mg7F26
_chemical_formula_sum   'Ba6 Mg7 F26'
_cell_volume   534.44744883
_cell_formula_units_Z   1
loop_
 _symmetry_equiv_pos_site_id
 _symmetry_equiv_pos_as_xyz
  1  'x, y, z'
loop_
 _atom_site_type_symbol
 _atom_site_label
 _atom_site_symmetry_multiplicity
 _atom_site_fract_x
 _atom_site_fract_y
 _atom_site_fract_z
 _atom_site_occupancy
  Ba  Ba0  1  0.64659995  0.14660189  0.50000090  1
  Ba  Ba1  1  0.35339507  0.85339468  0.49999876  1
  Ba  Ba2  1  0.38854930  0.64864742  0.73989945  1
  Ba  Ba3  1  0.90875099  0.64865008  0.26010154  1
  Ba  Ba4  1  0.09123739  0.35134380  0.73989339  1
  Ba  Ba5  1  0.61144953  0.35134615  0.26010482  1
  Mg  Mg0  1  0.00000112  0.25300636  0.25300573  1
  Mg  Mg1  1  0.26756103  -0.00000839  0.26756254  1
  Mg  Mg2  1  -0.00000072  0.74699517  0.74699398  1
  Mg  Mg3  1  0.73244621  0.00001551  0.73243699  1
  Mg  Mg4  1  0.22055674  0.22055733  0.00000535  1
  Mg  Mg5  1  0.77944117  0.77943922  -0.00000504  1
  Mg  Mg6  1  0.50000373  0.50000231  0.00000086  1
  F  F0  1  0.12891529  0.01066956  0.65513938  1
  F  F1  1  0.87108294  0.52621957  0.88175449  1
  F  F2  1  0.64446264  0.98932912  0.11824460  1
  F  F3  1  0.35553646  0.47378089  0.34486656  1
  F  F4  1  0.87108313  0.98932524  0.34485790  1
  F  F5  1  0.12891594  0.47378168  0.11825039  1
  F  F6  1  0.35553412  0.01066300  0.88175004  1
  F  F7  1  0.64446261  0.52621945  0.65513581  1
  F  F8  1  0.61243494  0.74933968  0.36176644  1
  F  F9  1  0.38757525  0.74934065  0.13690525  1
  F  F10  1  0.61243545  0.25066903  0.86309425  1
  F  F11  1  0.38757487  0.25066997  0.63823454  1
  F  F12  1  0.83694358  0.74429377  0.58123874  1
  F  F13  1  0.16305550  0.74429648  0.90735203  1
  F  F14  1  0.83694295  0.25570326  0.09264846  1
  F  F15  1  0.16305413  0.25570741  0.41876256  1
  F  F16  1  0.91097179  0.91097981  0.00000625  1
  F  F17  1  0.08902492  0.08901879  -0.00000735  1
  F  F18  1  0.62981519  0.62981508  0.00000261  1
  F  F19  1  0.91155565  0.41156284  0.50000680  1
  F  F20  1  0.84719745  0.12713167  0.72006774  1
  F  F21  1  0.15280553  0.87286806  0.27993425  1
  F  F22  1  0.59293438  0.87287002  0.72006173  1
  F  F23  1  0.40706260  0.12713140  0.27993670  1
  F  F24  1  0.08844359  0.58843696  0.49999310  1
  F  F25  1  0.37019060  0.37018908  -0.00000154  1
loop_
_geom_bond_atom_site_label_1
_geom_bond_atom_site_label_2
_geom_bond_distance
_geom_bond_site_symmetry_2
Ba0 F2 2.675703 1_545
Ba0 F7 2.675707 1_555
Ba0 F4 2.675744 1_545
Ba0 F1 2.675757 1_555
Ba0 F23 2.687846 1_555
Ba0 F20 2.687853 1_555
Ba0 F18 2.929855 1_556
Ba0 F18 2.929865 1_545
Ba0 F10 2.981986 1_555
Ba0 F11 2.982009 1_555
Ba0 F8 2.982029 1_545
Ba0 F9 2.982057 1_545
Ba1 F6 2.675677 1_565
Ba1 F3 2.675688 1_555
Ba1 F0 2.675704 1_565
Ba1 F5 2.675718 1_555
Ba1 F21 2.687817 1_555
Ba1 F22 2.687828 1_555
Ba1 F25 2.929871 1_566
Ba1 F25 2.929871 1_555
Ba1 F9 2.982145 1_555
Ba1 F8 2.982166 1_555
Ba1 F11 2.982169 1_565
Ba1 F10 2.982222 1_565
Ba2 F6 2.609481 1_565
Ba2 F3 2.609494 1_555
Ba2 F7 2.776994 1_555
Ba2 F2 2.777046 1_556
Ba2 F13 2.816045 1_555
Ba2 F15 2.816075 1_555
Ba2 F23 2.976812 1_555
Ba2 F23 2.976856 1_566
Ba2 F24 3.050828 1_555
Ba2 F18 3.170550 1_556
Ba2 F9 3.218401 1_556
Ba2 F11 3.218410 1_555
Ba3 F5 2.609493 1_655
Ba3 F0 2.609543 1_665
Ba3 F1 2.777001 1_554
Ba3 F4 2.777013 1_555
Ba3 F12 2.816027 1_555
Ba3 F14 2.816061 1_555
Ba3 F20 2.976832 1_565
Ba3 F20 2.976842 1_554
Ba3 F24 3.050775 1_655
Ba3 F18 3.170553 1_555
Ba3 F8 3.218464 1_555
Ba3 F10 3.218504 1_554
Ba4 F1 2.609425 1_455
Ba4 F4 2.609479 1_445
Ba4 F5 2.777026 1_556
Ba4 F0 2.777029 1_555
Ba4 F15 2.816065 1_555
Ba4 F13 2.816106 1_555
Ba4 F21 2.976863 1_545
Ba4 F21 2.976864 1_556
Ba4 F19 3.050744 1_455
Ba4 F25 3.170647 1_556
Ba4 F11 3.218667 1_555
Ba4 F9 3.218715 1_556
Ba5 F7 2.609435 1_555
Ba5 F2 2.609435 1_545
Ba5 F3 2.776994 1_555
Ba5 F6 2.777072 1_554
Ba5 F14 2.816077 1_555
Ba5 F12 2.816117 1_555
Ba5 F22 2.976848 1_555
Ba5 F22 2.976870 1_544
Ba5 F19 3.050794 1_555
Ba5 F25 3.170606 1_555
Ba5 F8 3.218600 1_555
Ba5 F10 3.218604 1_554
F0 Mg4 1.956156 1_556
F1 Mg5 1.956131 1_556
F2 Mg5 1.956157 1_555
F3 Mg4 1.956153 1_555
F4 Mg5 1.956139 1_555
F5 Mg4 1.956145 1_555
F6 Mg4 1.956165 1_556
F7 Mg5 1.956143 1_556
F8 Mg6 1.995467 1_555
F8 Mg3 2.064956 1_565
F9 Mg6 1.995461 1_555
F9 Mg1 2.064920 1_565
F10 Mg6 1.995445 1_556
F10 Mg3 2.064914 1_555
F11 Mg6 1.995477 1_556
F11 Mg1 2.064965 1_555
F12 Mg3 1.959153 1_565
F12 Mg2 1.979663 1_655
F13 Mg1 1.959132 1_566
F13 Mg2 1.979683 1_555
F14 Mg3 1.959135 1_554
F14 Mg0 1.979679 1_655
F15 Mg1 1.959172 1_555
F15 Mg0 1.979658 1_555
F16 Mg5 1.983656 1_555
F16 Mg0 1.996050 1_665
F16 Mg2 1.996074 1_654
F17 Mg4 1.983639 1_555
F17 Mg2 1.996020 1_544
F17 Mg0 1.996045 1_555
F18 Mg6 1.957735 1_555
F18 Mg5 2.256613 1_555
F19 Mg2 1.964239 1_655
F19 Mg0 1.964275 1_655
F20 Mg3 1.922990 1_555
F21 Mg1 1.923099 1_565
F22 Mg3 1.923341 1_565
F23 Mg1 1.923226 1_555
F24 Mg0 1.964222 1_555
F24 Mg2 1.964260 1_555
F25 Mg6 1.957747 1_555
F25 Mg4 2.256724 1_555
