# generated using pymatgen
data_LiBi4O7
_symmetry_space_group_name_H-M   'P 1'
_cell_length_a   6.83060100
_cell_length_b   7.34719422
_cell_length_c   8.22277124
_cell_angle_alpha   111.91330675
_cell_angle_beta   110.28453653
_cell_angle_gamma   85.23849674
_symmetry_Int_Tables_number   1
_chemical_formula_structural   LiBi4O7
_chemical_formula_sum   'Li2 Bi8 O14'
_cell_volume   358.59696367
_cell_formula_units_Z   2
loop_
 _symmetry_equiv_pos_site_id
 _symmetry_equiv_pos_as_xyz
  1  'x, y, z'
loop_
 _atom_site_type_symbol
 _atom_site_label
 _atom_site_symmetry_multiplicity
 _atom_site_fract_x
 _atom_site_fract_y
 _atom_site_fract_z
 _atom_site_occupancy
  Li  Li0  1  0.00000000  0.00000000  0.00000000  1
  Li  Li1  1  0.00000000  0.00000000  0.50000000  1
  Bi  Bi0  1  0.23061000  0.61960700  0.21525500  1
  Bi  Bi1  1  0.65406900  0.86292900  0.14652500  1
  Bi  Bi2  1  0.20286400  0.60799800  0.72522900  1
  Bi  Bi3  1  0.67882400  0.85462000  0.62595600  1
  Bi  Bi4  1  0.32117600  0.14538000  0.37404400  1
  Bi  Bi5  1  0.79713600  0.39200200  0.27477100  1
  Bi  Bi6  1  0.34593100  0.13707100  0.85347500  1
  Bi  Bi7  1  0.76939000  0.38039300  0.78474500  1
  O  O0  1  0.26416300  0.85511000  0.10343500  1
  O  O1  1  0.03972900  0.92739600  0.73118300  1
  O  O2  1  0.30761300  0.91815700  0.49900100  1
  O  O3  1  0.16351400  0.48220400  0.42176100  1
  O  O4  1  0.60494400  0.67422300  0.30516500  1
  O  O5  1  0.45530800  0.22913900  0.17029200  1
  O  O6  1  0.13455800  0.38959100  0.89726900  1
  O  O7  1  0.86544200  0.61040900  0.10273100  1
  O  O8  1  0.54469200  0.77086100  0.82970800  1
  O  O9  1  0.39505600  0.32577700  0.69483500  1
  O  O10  1  0.83648600  0.51779600  0.57823900  1
  O  O11  1  0.69238700  0.08184300  0.50099900  1
  O  O12  1  0.96027100  0.07260400  0.26881700  1
  O  O13  1  0.73583700  0.14489000  0.89656500  1
loop_
_geom_bond_atom_site_label_1
_geom_bond_atom_site_label_2
_geom_bond_distance
_geom_bond_site_symmetry_2
Li0 O0 2.098875 1_545
Li0 O13 2.098875 1_454
Li0 O12 2.180811 1_455
Li0 O1 2.180811 1_544
Li1 O1 2.084954 1_545
Li1 O12 2.084954 1_455
Li1 O2 2.138957 1_545
Li1 O11 2.138957 1_455
Bi0 O0 2.300279 1_555
Bi0 O7 2.337390 1_455
Bi0 O6 2.412391 1_554
Bi0 O4 2.425627 1_555
Bi0 O3 2.451221 1_555
Bi0 O2 2.460181 1_555
Bi1 O7 2.252452 1_555
Bi1 O8 2.285047 1_554
Bi1 O4 2.338195 1_555
Bi1 O12 2.383130 1_565
Bi1 O0 2.564737 1_555
Bi1 O11 2.681972 1_565
Bi2 O3 2.237852 1_555
Bi2 O9 2.339696 1_555
Bi2 O10 2.396493 1_455
Bi2 O8 2.434603 1_555
Bi2 O1 2.503785 1_555
Bi2 O6 2.658989 1_555
Bi2 O0 2.855182 1_556
Bi3 O11 2.285480 1_565
Bi3 O1 2.346553 1_655
Bi3 O4 2.355385 1_555
Bi3 O13 2.376177 1_565
Bi3 O8 2.439799 1_555
Bi3 O2 2.463504 1_555
Bi3 O10 2.561971 1_555
Bi4 O2 2.285480 1_545
Bi4 O12 2.346553 1_455
Bi4 O9 2.355385 1_555
Bi4 O0 2.376177 1_545
Bi4 O5 2.439799 1_555
Bi4 O11 2.463504 1_555
Bi4 O3 2.561971 1_555
Bi5 O10 2.237852 1_555
Bi5 O4 2.339696 1_555
Bi5 O3 2.396493 1_655
Bi5 O5 2.434603 1_555
Bi5 O12 2.503785 1_555
Bi5 O7 2.658989 1_555
Bi5 O13 2.855182 1_554
Bi6 O6 2.252452 1_555
Bi6 O5 2.285047 1_556
Bi6 O9 2.338195 1_555
Bi6 O1 2.383130 1_545
Bi6 O13 2.564737 1_555
Bi6 O2 2.681972 1_545
Bi7 O13 2.300279 1_555
Bi7 O6 2.337390 1_655
Bi7 O7 2.412391 1_556
Bi7 O9 2.425627 1_555
Bi7 O10 2.451221 1_555
Bi7 O11 2.460181 1_555
