# generated using pymatgen
data_PrCrB4
_symmetry_space_group_name_H-M   'P 1'
_cell_length_a   3.57075600
_cell_length_b   6.05647800
_cell_length_c   11.71592400
_cell_angle_alpha   90.00000000
_cell_angle_beta   90.00000000
_cell_angle_gamma   90.00000000
_symmetry_Int_Tables_number   1
_chemical_formula_structural   PrCrB4
_chemical_formula_sum   'Pr4 Cr4 B16'
_cell_volume   253.37097603
_cell_formula_units_Z   4
loop_
 _symmetry_equiv_pos_site_id
 _symmetry_equiv_pos_as_xyz
  1  'x, y, z'
loop_
 _atom_site_type_symbol
 _atom_site_label
 _atom_site_symmetry_multiplicity
 _atom_site_fract_x
 _atom_site_fract_y
 _atom_site_fract_z
 _atom_site_occupancy
  Pr  Pr0  1  0.00000000  0.62363000  0.34846200  1
  Pr  Pr1  1  0.00000000  0.37637000  0.65153800  1
  Pr  Pr2  1  0.00000000  0.12363000  0.15153800  1
  Pr  Pr3  1  0.00000000  0.87637000  0.84846200  1
  Cr  Cr0  1  0.00000000  0.61909600  0.07730100  1
  Cr  Cr1  1  0.00000000  0.38090400  0.92269900  1
  Cr  Cr2  1  0.00000000  0.11909600  0.42269900  1
  Cr  Cr3  1  0.00000000  0.88090400  0.57730100  1
  B  B0  1  0.50000000  0.77552400  0.18070300  1
  B  B1  1  0.50000000  0.22447600  0.81929700  1
  B  B2  1  0.50000000  0.27552400  0.31929700  1
  B  B3  1  0.50000000  0.72447600  0.68070300  1
  B  B4  1  0.50000000  0.85811600  0.03286300  1
  B  B5  1  0.50000000  0.14188400  0.96713700  1
  B  B6  1  0.50000000  0.35811600  0.46713700  1
  B  B7  1  0.50000000  0.64188400  0.53286300  1
  B  B8  1  0.50000000  0.88920100  0.45454800  1
  B  B9  1  0.50000000  0.11079900  0.54545200  1
  B  B10  1  0.50000000  0.38920100  0.04545200  1
  B  B11  1  0.50000000  0.61079900  0.95454800  1
  B  B12  1  0.50000000  0.97776600  0.31209500  1
  B  B13  1  0.50000000  0.02223400  0.68790500  1
  B  B14  1  0.50000000  0.47776600  0.18790500  1
  B  B15  1  0.50000000  0.52223400  0.81209500  1
loop_
_geom_bond_atom_site_label_1
_geom_bond_atom_site_label_2
_geom_bond_distance
_geom_bond_site_symmetry_2
Cr0 Cr1 2.315585 1_554
Cr2 Cr3 2.315585 1_545
B0 B4 1.802866 1_555
B0 B14 1.805338 1_555
B0 B12 1.967232 1_555
B0 Cr0 2.356429 1_555
B0 Cr0 2.356429 1_655
B0 Pr2 2.783746 1_565
B0 Pr2 2.783746 1_665
B0 Pr0 2.810137 1_655
B0 Pr0 2.810137 1_555
B1 B5 1.802866 1_555
B1 B15 1.805338 1_555
B1 B13 1.967232 1_555
B1 Cr1 2.356429 1_655
B1 Cr1 2.356429 1_555
B1 Pr3 2.783746 1_645
B1 Pr3 2.783746 1_545
B1 Pr1 2.810137 1_655
B1 Pr1 2.810137 1_555
B2 B6 1.802866 1_555
B2 Cr2 2.356429 1_655
B2 Cr2 2.356429 1_555
B2 Pr0 2.783746 1_555
B2 Pr0 2.783746 1_655
B2 Pr2 2.810137 1_555
B2 Pr2 2.810137 1_655
B3 B7 1.802866 1_555
B3 Cr3 2.356429 1_655
B3 Cr3 2.356429 1_555
B3 Pr1 2.783746 1_655
B3 Pr1 2.783746 1_555
B3 Pr3 2.810137 1_555
B3 Pr3 2.810137 1_655
B4 B5 1.883260 1_564
B4 Cr0 2.356742 1_655
B4 Cr0 2.356742 1_555
B4 Pr2 2.776089 1_565
B4 Pr2 2.776089 1_665
B4 Pr3 2.804861 1_554
B4 Pr3 2.804861 1_654
B5 Cr1 2.356742 1_655
B5 Cr1 2.356742 1_555
B5 Pr3 2.776089 1_645
B5 Pr3 2.776089 1_545
B5 Pr2 2.804861 1_556
B5 Pr2 2.804861 1_656
B6 B9 1.756554 1_555
B6 B7 1.883260 1_555
B6 Cr2 2.356742 1_555
B6 Cr2 2.356742 1_655
B6 Pr0 2.776089 1_555
B6 Pr0 2.776089 1_655
B6 Pr1 2.804861 1_555
B6 Pr1 2.804861 1_655
B7 B8 1.756554 1_555
B7 Cr3 2.356742 1_555
B7 Cr3 2.356742 1_655
B7 Pr1 2.776089 1_655
B7 Pr1 2.776089 1_555
B7 Pr0 2.804861 1_555
B7 Pr0 2.804861 1_655
B8 B9 1.713335 1_565
B8 Cr3 2.293124 1_655
B8 Cr3 2.293124 1_555
B8 Cr2 2.294659 1_565
B8 Cr2 2.294659 1_665
B8 Pr0 2.705438 1_655
B8 Pr0 2.705438 1_555
B9 Cr2 2.293124 1_555
B9 Cr2 2.293124 1_655
B9 Cr3 2.294659 1_645
B9 Cr3 2.294659 1_545
B9 Pr1 2.705438 1_655
B9 Pr1 2.705438 1_555
B10 B11 1.713335 1_554
B10 B14 1.753047 1_555
B10 B5 1.756554 1_554
B10 Cr1 2.293124 1_654
B10 Cr1 2.293124 1_554
B10 Cr0 2.294659 1_655
B10 Cr0 2.294659 1_555
B10 Pr2 2.705438 1_655
B10 Pr2 2.705438 1_555
B11 B15 1.753047 1_555
B11 B4 1.756554 1_556
B11 Cr0 2.293124 1_556
B11 Cr0 2.293124 1_656
B11 Cr1 2.294659 1_655
B11 Cr1 2.294659 1_555
B11 Pr3 2.705438 1_655
B11 Pr3 2.705438 1_555
B12 B8 1.753047 1_555
B12 B2 1.805338 1_565
B12 Cr2 2.366309 1_565
B12 Cr2 2.366309 1_665
B12 Pr2 2.739790 1_565
B12 Pr2 2.739790 1_665
B12 Pr0 2.823004 1_555
B12 Pr0 2.823004 1_655
B13 B9 1.753047 1_555
B13 B3 1.805338 1_545
B13 Cr3 2.366309 1_545
B13 Cr3 2.366309 1_645
B13 Pr3 2.739790 1_545
B13 Pr3 2.739790 1_645
B13 Pr1 2.823004 1_555
B13 Pr1 2.823004 1_655
B14 B2 1.967232 1_555
B14 Cr0 2.366309 1_555
B14 Cr0 2.366309 1_655
B14 Pr0 2.739790 1_555
B14 Pr0 2.739790 1_655
B14 Pr2 2.823004 1_655
B14 Pr2 2.823004 1_555
B15 B3 1.967232 1_555
B15 Cr1 2.366309 1_655
B15 Cr1 2.366309 1_555
B15 Pr1 2.739790 1_655
B15 Pr1 2.739790 1_555
B15 Pr3 2.823004 1_555
B15 Pr3 2.823004 1_655
