# generated using pymatgen
data_Sr4Nb2O9
_symmetry_space_group_name_H-M   'P 1'
_cell_length_a   10.73035562
_cell_length_b   10.73035562
_cell_length_c   10.73035562
_cell_angle_alpha   147.49578230
_cell_angle_beta   134.45919026
_cell_angle_gamma   57.06051392
_symmetry_Int_Tables_number   1
_chemical_formula_structural   Sr4Nb2O9
_chemical_formula_sum   'Sr8 Nb4 O18'
_cell_volume   470.30430768
_cell_formula_units_Z   2
loop_
 _symmetry_equiv_pos_site_id
 _symmetry_equiv_pos_as_xyz
  1  'x, y, z'
loop_
 _atom_site_type_symbol
 _atom_site_label
 _atom_site_symmetry_multiplicity
 _atom_site_fract_x
 _atom_site_fract_y
 _atom_site_fract_z
 _atom_site_occupancy
  Sr  Sr0  1  0.24486300  0.50000000  0.74486300  1
  Sr  Sr1  1  0.87182900  0.13960500  0.73222400  1
  Sr  Sr2  1  0.59261900  0.86039500  0.73222400  1
  Sr  Sr3  1  0.75513700  0.50000000  0.25513700  1
  Sr  Sr4  1  0.40738100  0.13960500  0.26777600  1
  Sr  Sr5  1  0.12817100  0.86039500  0.26777600  1
  Sr  Sr6  1  0.17124100  0.67124100  0.50000000  1
  Sr  Sr7  1  0.82875900  0.32875900  0.50000000  1
  Nb  Nb0  1  0.00000000  0.00000000  0.00000000  1
  Nb  Nb1  1  0.66460400  0.66460400  0.00000000  1
  Nb  Nb2  1  0.33539600  0.33539600  0.00000000  1
  Nb  Nb3  1  0.50000000  0.00000000  0.50000000  1
  O  O0  1  0.25204200  0.00000000  0.25204200  1
  O  O1  1  0.85892700  0.63513100  0.22379600  1
  O  O2  1  0.58866500  0.36486900  0.22379600  1
  O  O3  1  0.57554900  0.30472100  0.72917100  1
  O  O4  1  0.27323200  0.02529400  0.75206200  1
  O  O5  1  0.92349100  0.69945100  0.77596100  1
  O  O6  1  0.42445100  0.15362200  0.72917100  1
  O  O7  1  0.07650900  0.85247000  0.77596100  1
  O  O8  1  0.72676800  0.47883000  0.75206200  1
  O  O9  1  0.74795800  0.00000000  0.74795800  1
  O  O10  1  0.41133500  0.63513100  0.77620400  1
  O  O11  1  0.14107300  0.36486900  0.77620400  1
  O  O12  1  0.42445100  0.69527900  0.27082900  1
  O  O13  1  0.07650900  0.30054900  0.22403900  1
  O  O14  1  0.72676800  0.97470600  0.24793800  1
  O  O15  1  0.57554900  0.84637800  0.27082900  1
  O  O16  1  0.27323200  0.52117000  0.24793800  1
  O  O17  1  0.92349100  0.14753000  0.22403900  1
loop_
_geom_bond_atom_site_label_1
_geom_bond_atom_site_label_2
_geom_bond_distance
_geom_bond_site_symmetry_2
Nb0 O7 1.972709 1_544
Nb0 O17 1.972709 1_455
Nb0 O5 1.972718 1_444
Nb0 O13 1.972718 1_555
Nb0 O9 2.093496 1_454
Nb0 O0 2.093496 1_555
Nb1 O14 1.895073 1_555
Nb1 O8 1.895073 1_554
Nb1 O1 1.940166 1_555
Nb1 O10 1.940166 1_554
Nb1 O3 2.337784 1_554
Nb1 O15 2.337793 1_555
Nb2 O4 1.895073 1_554
Nb2 O16 1.895073 1_555
Nb2 O11 1.940166 1_554
Nb2 O2 1.940166 1_555
Nb2 O12 2.337784 1_555
Nb2 O6 2.337793 1_554
Nb3 O15 1.980805 1_545
Nb3 O6 1.980805 1_555
Nb3 O12 1.980814 1_545
Nb3 O3 1.980814 1_555
Nb3 O9 2.059574 1_555
Nb3 O0 2.059574 1_555
O0 Sr5 2.635443 1_545
O0 Sr4 2.635443 1_555
O0 Sr0 3.003636 1_555
O0 Sr0 3.003636 1_544
O1 Sr6 2.393083 1_655
O1 Sr3 2.561110 1_555
O1 Sr1 3.005044 1_554
O1 Sr1 3.005044 1_565
O2 Sr7 2.393083 1_555
O2 Sr3 2.561110 1_555
O2 Sr2 3.005044 1_555
O2 Sr2 3.005044 1_544
O3 Sr4 2.659656 1_555
O3 Sr1 2.659662 1_555
O3 Sr0 3.027537 1_555
O3 Sr3 3.027543 1_556
O4 Sr6 2.447417 1_545
O4 Sr5 2.951840 1_545
O4 Sr2 2.951840 1_545
O5 Sr7 2.436672 1_555
O5 Sr5 2.858823 1_656
O5 Sr2 2.858830 1_555
O5 Sr0 2.994109 1_655
O5 Sr3 2.994114 1_555
O6 Sr5 2.659661 1_545
O6 Sr2 2.659661 1_545
O6 Sr3 3.027537 1_556
O6 Sr0 3.027537 1_555
O7 Sr6 2.436681 1_555
O7 Sr1 2.858829 1_465
O7 Sr4 2.858829 1_566
O7 Sr0 2.994109 1_555
O7 Sr3 2.994109 1_455
O8 Sr7 2.447417 1_555
O8 Sr1 2.951840 1_555
O8 Sr4 2.951840 1_555
O9 Sr2 2.635443 1_545
O9 Sr1 2.635443 1_555
O9 Sr3 3.003636 1_556
O9 Sr3 3.003636 1_545
O10 Sr6 2.393083 1_555
O10 Sr0 2.561110 1_555
O10 Sr4 3.005044 1_555
O10 Sr4 3.005044 1_566
O11 Sr7 2.393083 1_455
O11 Sr0 2.561110 1_555
O11 Sr5 3.005044 1_545
O11 Sr5 3.005044 1_556
O12 Sr2 2.659656 1_555
O12 Sr5 2.659662 1_555
O12 Sr3 3.027537 1_555
O12 Sr0 3.027543 1_554
O13 Sr6 2.436672 1_555
O13 Sr1 2.858823 1_454
O13 Sr4 2.858830 1_555
O13 Sr3 2.994109 1_455
O13 Sr0 2.994114 1_555
O14 Sr7 2.447417 1_565
O14 Sr1 2.951840 1_565
O14 Sr4 2.951840 1_565
O15 Sr1 2.659661 1_565
O15 Sr4 2.659661 1_565
O15 Sr0 3.027537 1_554
O15 Sr3 3.027537 1_555
O16 Sr6 2.447417 1_555
O16 Sr5 2.951840 1_555
O16 Sr2 2.951840 1_555
O17 Sr7 2.436681 1_555
O17 Sr2 2.858829 1_544
O17 Sr5 2.858829 1_645
O17 Sr3 2.994109 1_555
O17 Sr0 2.994109 1_655
