# generated using pymatgen
data_CaMg7
_symmetry_space_group_name_H-M   'P 1'
_cell_length_a   6.64772858
_cell_length_b   6.64772858
_cell_length_c   5.25756300
_cell_angle_alpha   90.00000000
_cell_angle_beta   90.00000000
_cell_angle_gamma   120.00000581
_symmetry_Int_Tables_number   1
_chemical_formula_structural   CaMg7
_chemical_formula_sum   'Ca1 Mg7'
_cell_volume   201.21560134
_cell_formula_units_Z   1
loop_
 _symmetry_equiv_pos_site_id
 _symmetry_equiv_pos_as_xyz
  1  'x, y, z'
loop_
 _atom_site_type_symbol
 _atom_site_label
 _atom_site_symmetry_multiplicity
 _atom_site_fract_x
 _atom_site_fract_y
 _atom_site_fract_z
 _atom_site_occupancy
  Ca  Ca0  1  0.00000000  0.00000000  0.50000000  1
  Mg  Mg0  1  0.00462800  0.50231400  0.50000000  1
  Mg  Mg1  1  0.49768600  0.50231400  0.50000000  1
  Mg  Mg2  1  0.49768600  0.99537200  0.50000000  1
  Mg  Mg3  1  0.17019800  0.34039600  0.00000000  1
  Mg  Mg4  1  0.17019800  0.82980200  0.00000000  1
  Mg  Mg5  1  0.65960400  0.82980200  0.00000000  1
  Mg  Mg6  1  0.66666700  0.33333300  0.00000000  1
loop_
_geom_bond_atom_site_label_1
_geom_bond_atom_site_label_2
_geom_bond_distance
_geom_bond_site_symmetry_2
Ca0 Mg5 3.278856 1_445
Ca0 Mg5 3.278856 1_446
Ca0 Mg3 3.278856 1_555
Ca0 Mg3 3.278856 1_556
Ca0 Mg4 3.278856 1_546
Ca0 Mg4 3.278856 1_545
Ca0 Mg1 3.323971 1_555
Ca0 Mg1 3.323971 1_445
Ca0 Mg0 3.323971 1_555
Ca0 Mg2 3.323971 1_445
Ca0 Mg2 3.323971 1_545
Ca0 Mg0 3.323971 1_545
Mg0 Mg4 3.235012 1_555
Mg0 Mg4 3.235012 1_556
Mg0 Mg3 3.235012 1_555
Mg0 Mg3 3.235012 1_556
Mg0 Mg6 3.270496 1_455
Mg0 Mg6 3.270496 1_456
Mg0 Mg2 3.277715 1_555
Mg0 Mg1 3.277716 1_555
Mg0 Mg2 3.370013 1_445
Mg0 Mg1 3.370013 1_455
Mg1 Mg3 3.235012 1_556
Mg1 Mg3 3.235012 1_555
Mg1 Mg5 3.235012 1_556
Mg1 Mg5 3.235012 1_555
Mg1 Mg6 3.270500 1_556
Mg1 Mg6 3.270500 1_555
Mg1 Mg2 3.277716 1_555
Mg1 Mg2 3.370013 1_545
Mg2 Mg4 3.235012 1_555
Mg2 Mg4 3.235012 1_556
Mg2 Mg5 3.235012 1_555
Mg2 Mg5 3.235012 1_556
Mg2 Mg6 3.270496 1_565
Mg2 Mg6 3.270496 1_566
Mg3 Mg5 3.253438 1_555
Mg3 Mg4 3.253438 1_555
Mg3 Mg6 3.324110 1_455
Mg3 Mg6 3.324116 1_555
Mg3 Mg5 3.394290 1_445
Mg3 Mg4 3.394290 1_545
Mg4 Mg5 3.253438 1_555
Mg4 Mg6 3.324113 1_455
Mg4 Mg6 3.324113 1_565
Mg4 Mg5 3.394290 1_455
Mg5 Mg6 3.324110 1_565
Mg5 Mg6 3.324116 1_555
