# generated using pymatgen
data_Li6MnV3(PO4)6
_symmetry_space_group_name_H-M   'P 1'
_cell_length_a   9.82312700
_cell_length_b   9.84397031
_cell_length_c   9.89290380
_cell_angle_alpha   87.38846496
_cell_angle_beta   86.96390056
_cell_angle_gamma   87.24129586
_symmetry_Int_Tables_number   1
_chemical_formula_structural   Li6MnV3(PO4)6
_chemical_formula_sum   'Li12 Mn2 V6 P12 O48'
_cell_volume   953.29209746
_cell_formula_units_Z   2
loop_
 _symmetry_equiv_pos_site_id
 _symmetry_equiv_pos_as_xyz
  1  'x, y, z'
loop_
 _atom_site_type_symbol
 _atom_site_label
 _atom_site_symmetry_multiplicity
 _atom_site_fract_x
 _atom_site_fract_y
 _atom_site_fract_z
 _atom_site_occupancy
  Li  Li0  1  0.00199600  0.04718400  0.98462200  1
  Li  Li1  1  0.05218100  0.73489600  0.14501700  1
  Li  Li2  1  0.13358300  0.06872600  0.73314000  1
  Li  Li3  1  0.22591800  0.55089000  0.64670500  1
  Li  Li4  1  0.27436200  0.85050100  0.95196900  1
  Li  Li5  1  0.36605100  0.76886600  0.43216800  1
  Li  Li6  1  0.44367900  0.35934300  0.76070300  1
  Li  Li7  1  0.49525300  0.51581000  0.45230500  1
  Li  Li8  1  0.64357200  0.23403400  0.54340600  1
  Li  Li9  1  0.77209100  0.46847000  0.34443500  1
  Li  Li10  1  0.73040600  0.14786500  0.03821100  1
  Li  Li11  1  0.85371800  0.95053400  0.26737900  1
  Mn  Mn0  1  0.25160900  0.47102200  0.03051600  1
  Mn  Mn1  1  0.97112600  0.75413900  0.53132800  1
  V  V0  1  0.03193900  0.25720700  0.47611300  1
  V  V1  1  0.24948400  0.25006700  0.25111000  1
  V  V2  1  0.46811200  0.02378800  0.24257300  1
  V  V3  1  0.53415700  0.96313900  0.74839300  1
  V  V4  1  0.75026700  0.52922300  0.97158000  1
  V  V5  1  0.75257500  0.74611700  0.75124700  1
  P  P0  1  0.05428100  0.66883300  0.85805400  1
  P  P1  1  0.14429000  0.95267000  0.33182800  1
  P  P2  1  0.17347400  0.55250700  0.35867900  1
  P  P3  1  0.32666900  0.14133200  0.95043300  1
  P  P4  1  0.35516900  0.16767200  0.54596600  1
  P  P5  1  0.44772900  0.64617600  0.82943800  1
  P  P6  1  0.54724300  0.34660600  0.17415400  1
  P  P7  1  0.64522100  0.82202000  0.45020300  1
  P  P8  1  0.67527800  0.85139300  0.04665700  1
  P  P9  1  0.82872200  0.45324400  0.64885000  1
  P  P10  1  0.85238700  0.04661000  0.67398600  1
  P  P11  1  0.95197000  0.32574600  0.15555400  1
  O  O0  1  0.03212700  0.61577300  0.40926600  1
  O  O1  1  0.05289300  0.90783900  0.22367200  1
  O  O2  1  0.11328000  0.33360600  0.12291000  1
  O  O3  1  0.12042700  0.11282300  0.33737900  1
  O  O4  1  0.09362800  0.69204700  0.70642900  1
  O  O5  1  0.10616600  0.88693600  0.47385000  1
  O  O6  1  0.09567500  0.77813400  0.95118500  1
  O  O7  1  0.12075100  0.52617500  0.90026000  1
  O  O8  1  0.17087200  0.39157900  0.38155900  1
  O  O9  1  0.18864200  0.59266700  0.20711700  1
  O  O10  1  0.19942600  0.19376500  0.58267600  1
  O  O11  1  0.20910900  0.05624800  0.90969300  1
  O  O12  1  0.32751100  0.11900500  0.11111300  1
  O  O13  1  0.28731100  0.59364800  0.44736800  1
  O  O14  1  0.29898300  0.91503300  0.30475600  1
  O  O15  1  0.31650500  0.29396700  0.90921800  1
  O  O16  1  0.37908600  0.16423000  0.38542200  1
  O  O17  1  0.38587900  0.37978100  0.16722000  1
  O  O18  1  0.39526800  0.02814900  0.61117600  1
  O  O19  1  0.37710500  0.61096300  0.97090000  1
  O  O20  1  0.40229200  0.55406100  0.72144400  1
  O  O21  1  0.44395100  0.28084800  0.58883500  1
  O  O22  1  0.41198500  0.80088300  0.80205000  1
  O  O23  1  0.46562000  0.08250500  0.89153000  1
  O  O24  1  0.53046800  0.89024900  0.10758300  1
  O  O25  1  0.57699100  0.18909500  0.17817300  1
  O  O26  1  0.59285300  0.41192700  0.29949200  1
  O  O27  1  0.55803700  0.70514700  0.41687200  1
  O  O28  1  0.61370800  0.39787000  0.03795500  1
  O  O29  1  0.59405300  0.96046900  0.38572700  1
  O  O30  1  0.60676200  0.62237100  0.83746300  1
  O  O31  1  0.62532200  0.83113700  0.61245200  1
  O  O32  1  0.69489100  0.08188100  0.68735600  1
  O  O33  1  0.70947700  0.69929600  0.07715600  1
  O  O34  1  0.72103000  0.40827200  0.55567400  1
  O  O35  1  0.67418200  0.87791200  0.88552700  1
  O  O36  1  0.78067500  0.94797400  0.09134800  1
  O  O37  1  0.79703200  0.42470700  0.80085000  1
  O  O38  1  0.79871800  0.80689200  0.40839500  1
  O  O39  1  0.83398200  0.61522600  0.61926300  1
  O  O40  1  0.88177400  0.46261800  0.11000100  1
  O  O41  1  0.90687600  0.20150200  0.08783100  1
  O  O42  1  0.89990500  0.11573500  0.53773000  1
  O  O43  1  0.92295800  0.31863900  0.31287200  1
  O  O44  1  0.87969200  0.88469100  0.66203400  1
  O  O45  1  0.93475300  0.08218800  0.79226700  1
  O  O46  1  0.89378700  0.66102200  0.87750600  1
  O  O47  1  0.97307100  0.39262700  0.60798300  1
loop_
_geom_bond_atom_site_label_1
_geom_bond_atom_site_label_2
_geom_bond_distance
_geom_bond_site_symmetry_2
Li0 O41 2.031476 1_456
Li0 O45 2.056149 1_455
Li0 O11 2.132676 1_555
Li1 O1 1.904283 1_555
Li1 O6 1.974104 1_554
Li1 O9 1.990669 1_555
Li2 O11 1.930061 1_555
Li2 O10 1.989168 1_555
Li2 O45 2.008872 1_455
Li3 O20 1.921557 1_555
Li3 O4 1.946356 1_555
Li3 O13 2.062170 1_555
Li4 O6 1.926346 1_555
Li4 O22 2.013932 1_555
Li4 O11 2.124649 1_565
Li4 O19 2.522808 1_555
Li5 O13 1.920524 1_555
Li5 O27 1.958959 1_555
Li5 O14 1.981062 1_555
Li6 O21 1.899224 1_555
Li6 O20 1.965735 1_555
Li6 O15 1.982488 1_555
Li7 O27 2.001325 1_555
Li7 O26 2.035518 1_555
Li7 O13 2.149042 1_555
Li8 O34 1.920920 1_555
Li8 O21 2.024358 1_555
Li8 O32 2.081948 1_555
Li9 O26 1.951229 1_555
Li9 O43 2.061977 1_555
Li9 O34 2.185084 1_555
Li9 O40 2.506894 1_555
Li10 O41 1.930440 1_555
Li10 O25 2.030842 1_555
Li10 O36 2.057135 1_545
Li11 O36 1.919956 1_555
Li11 O1 2.009818 1_655
Li11 O38 2.012817 1_555
Mn0 O7 1.911062 1_554
Mn0 O19 1.943623 1_554
Mn0 O17 2.083161 1_555
Mn0 O2 2.108179 1_555
Mn0 O9 2.207656 1_555
Mn0 O15 2.210599 1_554
Mn1 O0 1.914979 1_655
Mn1 O5 1.952219 1_655
Mn1 O44 2.011871 1_555
Mn1 O39 2.094373 1_555
Mn1 O38 2.166317 1_555
Mn1 O4 2.208144 1_655
O0 P2 1.561321 1_555
O1 P1 1.525972 1_555
O2 P11 1.605134 1_455
O2 V1 2.013376 1_555
O3 P1 1.585686 1_545
O3 V1 2.026328 1_555
O3 V0 2.142863 1_555
O4 P0 1.538667 1_555
O5 P1 1.554914 1_555
O6 P0 1.531018 1_555
O7 P0 1.568430 1_555
O8 P2 1.591255 1_555
O8 V1 2.038879 1_555
O8 V0 2.100719 1_555
O9 P2 1.534484 1_555
O10 P4 1.565321 1_555
O10 V0 2.057441 1_555
O11 P3 1.539708 1_555
O12 P3 1.595167 1_554
O12 V1 2.031101 1_555
O12 V2 2.105240 1_555
O13 P2 1.537592 1_555
O14 P1 1.558789 1_555
O14 V2 2.070671 1_565
O15 P3 1.538789 1_555
O16 P4 1.594830 1_555
O16 V1 2.018323 1_555
O16 V2 2.145683 1_555
O17 P6 1.607340 1_555
O17 V1 2.016108 1_555
O18 P4 1.533565 1_555
O18 V3 2.036330 1_545
O19 P5 1.560787 1_555
O20 P5 1.529914 1_555
O21 P4 1.535394 1_555
O22 P5 1.561095 1_555
O22 V3 2.076776 1_555
O23 P3 1.551891 1_555
O23 V3 1.952852 1_545
O24 P8 1.552699 1_555
O24 V2 1.970399 1_565
O25 P6 1.563050 1_555
O25 V2 2.049074 1_555
O26 P6 1.520177 1_555
O27 P7 1.524844 1_555
O28 P6 1.540453 1_555
O28 V4 1.974551 1_554
O29 P7 1.551051 1_555
O29 V2 1.988866 1_565
O30 P5 1.574132 1_555
O30 V5 2.051057 1_555
O30 V4 2.133355 1_555
O31 P7 1.612717 1_555
O31 V5 2.030952 1_555
O31 V3 2.053960 1_555
O32 P10 1.569196 1_555
O32 V3 2.058209 1_545
O33 P8 1.538431 1_555
O33 V4 2.026030 1_554
O34 P9 1.533076 1_555
O35 P8 1.604015 1_556
O35 V5 1.998357 1_555
O35 V3 2.102190 1_555
O36 P8 1.533894 1_555
O37 P9 1.535361 1_555
O37 V4 2.037894 1_555
O38 P7 1.544248 1_555
O39 P9 1.610813 1_555
O39 V5 1.986973 1_555
O40 P11 1.543406 1_555
O40 V4 1.999479 1_554
O41 P11 1.516314 1_555
O42 P10 1.542162 1_555
O42 V0 2.001493 1_655
O43 P11 1.566300 1_555
O43 V0 2.037538 1_655
O44 P10 1.612199 1_565
O44 V5 2.033835 1_555
O45 P10 1.520341 1_555
O46 P0 1.583239 1_655
O46 V5 2.040189 1_555
O46 V4 2.112837 1_555
O47 P9 1.552397 1_555
O47 V0 1.953908 1_655
