# generated using pymatgen
data_Ti2Be3Ga
_symmetry_space_group_name_H-M   'P 1'
_cell_length_a   4.65736164
_cell_length_b   4.65736164
_cell_length_c   4.71500047
_cell_angle_alpha   90.00000000
_cell_angle_beta   60.40356810
_cell_angle_gamma   120.00000000
_symmetry_Int_Tables_number   1
_chemical_formula_structural   Ti2Be3Ga
_chemical_formula_sum   'Ti2 Be3 Ga1'
_cell_volume   72.75604334
_cell_formula_units_Z   1
loop_
 _symmetry_equiv_pos_site_id
 _symmetry_equiv_pos_as_xyz
  1  'x, y, z'
loop_
 _atom_site_type_symbol
 _atom_site_label
 _atom_site_symmetry_multiplicity
 _atom_site_fract_x
 _atom_site_fract_y
 _atom_site_fract_z
 _atom_site_occupancy
  Ti  Ti0  1  0.50046300  0.75023100  0.74930600  1
  Ti  Ti1  1  0.99953700  0.99976900  0.00069400  1
  Be  Be0  1  0.25000000  0.37500000  0.37500000  1
  Be  Be1  1  0.25000000  0.87500000  0.37500000  1
  Be  Be2  1  0.75000000  0.37500000  0.37500000  1
  Ga  Ga0  1  0.75000000  0.37500000  0.87500000  1
loop_
_geom_bond_atom_site_label_1
_geom_bond_atom_site_label_2
_geom_bond_distance
_geom_bond_site_symmetry_2
Ti0 Ti1 2.859776 1_446
Ti0 Ti1 2.859776 1_556
Ti0 Ti1 2.859784 1_456
Ti0 Ti1 2.899448 1_555
Be0 Be2 2.328681 1_555
Be0 Be2 2.328681 1_455
Be0 Be1 2.328681 1_545
Be0 Be1 2.328681 1_555
Be0 Ga0 2.357500 1_455
Be0 Ga0 2.357500 1_554
Be0 Ti0 2.743074 1_555
Be0 Ti0 2.743074 1_445
Be0 Ti1 2.743074 1_445
Be0 Ti1 2.743074 1_555
Be0 Ti1 2.771339 1_446
Be0 Ti0 2.771339 1_554
Be1 Be2 2.328681 1_455
Be1 Be2 2.328681 1_565
Be1 Ga0 2.357500 1_455
Be1 Ga0 2.357500 1_564
Be1 Ti0 2.743072 1_455
Be1 Ti1 2.743072 1_555
Be1 Ti0 2.743076 1_555
Be1 Ti1 2.743076 1_455
Be1 Ti0 2.771341 1_554
Be1 Ti1 2.771341 1_456
Be2 Ga0 2.357500 1_555
Be2 Ga0 2.357500 1_554
Be2 Ti0 2.743072 1_555
Be2 Ti1 2.743072 1_545
Be2 Ti0 2.743076 1_545
Be2 Ti1 2.743076 1_555
Be2 Ti0 2.771341 1_654
Be2 Ti1 2.771341 1_446
Ga0 Ti0 2.732640 1_555
Ga0 Ti1 2.732640 1_546
Ga0 Ti0 2.732644 1_655
Ga0 Ti0 2.732644 1_545
Ga0 Ti1 2.732644 1_446
Ga0 Ti1 2.732644 1_556
