# generated using pymatgen
data_FeNi3(Mo3N)2
_symmetry_space_group_name_H-M   'P 1'
_cell_length_a   6.66963800
_cell_length_b   6.66628200
_cell_length_c   6.67508753
_cell_angle_alpha   89.84788259
_cell_angle_beta   90.00000000
_cell_angle_gamma   90.00000000
_symmetry_Int_Tables_number   1
_chemical_formula_structural   FeNi3(Mo3N)2
_chemical_formula_sum   'Fe2 Ni6 Mo12 N4'
_cell_volume   296.78461125
_cell_formula_units_Z   2
loop_
 _symmetry_equiv_pos_site_id
 _symmetry_equiv_pos_as_xyz
  1  'x, y, z'
loop_
 _atom_site_type_symbol
 _atom_site_label
 _atom_site_symmetry_multiplicity
 _atom_site_fract_x
 _atom_site_fract_y
 _atom_site_fract_z
 _atom_site_occupancy
  Fe  Fe0  1  0.32109500  0.82119700  0.92996100  1
  Fe  Fe1  1  0.82109500  0.17880300  0.07003900  1
  Ni  Ni0  1  0.18251700  0.31751400  0.56716300  1
  Ni  Ni1  1  0.68251700  0.68248600  0.43283700  1
  Ni  Ni2  1  0.93417800  0.43440900  0.31505800  1
  Ni  Ni3  1  0.56573800  0.93430500  0.18247400  1
  Ni  Ni4  1  0.43417800  0.56559100  0.68494200  1
  Ni  Ni5  1  0.06573800  0.06569500  0.81752600  1
  Mo  Mo0  1  0.37508900  0.94966700  0.54745500  1
  Mo  Mo1  1  0.87508900  0.05033300  0.45254500  1
  Mo  Mo2  1  0.12791700  0.45707400  0.94873500  1
  Mo  Mo3  1  0.62791700  0.54292600  0.05126500  1
  Mo  Mo4  1  0.79809500  0.37384500  0.70132800  1
  Mo  Mo5  1  0.69876400  0.87275300  0.79593600  1
  Mo  Mo6  1  0.19876400  0.12724700  0.20406400  1
  Mo  Mo7  1  0.29809500  0.62615500  0.29867200  1
  Mo  Mo8  1  0.95203300  0.80033400  0.12185700  1
  Mo  Mo9  1  0.04685700  0.70054200  0.62304600  1
  Mo  Mo10  1  0.45203300  0.19966600  0.87814300  1
  Mo  Mo11  1  0.54685700  0.29945800  0.37695400  1
  N  N0  1  0.62355000  0.12486800  0.62486100  1
  N  N1  1  0.12355000  0.87513200  0.37513900  1
  N  N2  1  0.87416800  0.62495700  0.87440700  1
  N  N3  1  0.37416800  0.37504300  0.12559300  1
loop_
_geom_bond_atom_site_label_1
_geom_bond_atom_site_label_2
_geom_bond_distance
_geom_bond_site_symmetry_2
Fe0 Ni3 2.465507 1_556
Fe0 Ni5 2.472652 1_565
Fe0 Ni4 2.482338 1_555
Fe0 Mo10 2.691302 1_565
Fe0 Mo5 2.694770 1_555
Fe0 Mo0 2.714897 1_555
Fe0 Mo2 2.750663 1_555
Fe0 Mo8 2.778163 1_456
Fe0 Mo7 2.784685 1_556
Fe0 Mo6 2.862806 1_566
Fe0 Mo9 2.863264 1_555
Fe0 Mo3 2.876896 1_556
Fe1 Ni5 2.465507 1_654
Fe1 Ni3 2.472652 1_545
Fe1 Ni2 2.482338 1_555
Fe1 Mo8 2.691302 1_545
Fe1 Mo6 2.694770 1_655
Fe1 Mo1 2.714897 1_555
Fe1 Mo3 2.750663 1_555
Fe1 Mo10 2.778163 1_554
Fe1 Mo4 2.784685 1_554
Fe1 Mo5 2.862806 1_544
Fe1 Mo11 2.863264 1_555
Fe1 Mo2 2.876896 1_654
Ni0 Ni2 2.485076 1_455
Ni0 Ni4 2.485398 1_555
Ni0 Ni5 2.490514 1_555
Ni1 Ni4 2.485076 1_555
Ni1 Ni2 2.485398 1_555
Ni1 Ni3 2.490514 1_555
Mo0 N0 2.092937 1_565
Mo0 N1 2.094641 1_555
Mo0 Ni4 2.746001 1_555
Mo0 Ni3 2.750298 1_555
Mo0 Ni0 2.771608 1_565
Mo0 Ni1 2.822977 1_555
Mo0 Ni5 2.848264 1_565
Mo1 N1 2.092937 1_645
Mo1 N0 2.094641 1_555
Mo1 Ni2 2.746001 1_555
Mo1 Ni5 2.750298 1_655
Mo1 Ni1 2.771608 1_545
Mo1 Ni0 2.822977 1_655
Mo1 Ni3 2.848264 1_545
Mo2 N2 2.088058 1_455
Mo2 N3 2.094465 1_556
Mo2 Ni0 2.738263 1_555
Mo2 Ni2 2.769433 1_456
Mo2 Ni5 2.785373 1_555
Mo2 Ni4 2.790973 1_555
Mo3 N3 2.088058 1_555
Mo3 N2 2.094465 1_554
Mo3 Ni1 2.738263 1_555
Mo3 Ni4 2.769433 1_554
Mo3 Ni3 2.785373 1_555
Mo3 Ni2 2.790973 1_555
Mo4 N0 2.091663 1_555
Mo4 N2 2.098733 1_555
Mo4 Ni0 2.742025 1_655
Mo4 Ni4 2.745246 1_555
Mo4 Ni2 2.762125 1_555
Mo4 Ni5 2.828332 1_655
Mo4 Ni1 2.831941 1_555
Mo5 N2 2.089760 1_555
Mo5 N0 2.090488 1_565
Mo5 Ni1 2.740665 1_555
Mo5 Ni3 2.760159 1_556
Mo5 Ni5 2.768889 1_665
Mo5 Ni4 2.804265 1_555
Mo6 N3 2.089760 1_555
Mo6 N1 2.090488 1_545
Mo6 Ni0 2.740665 1_555
Mo6 Ni5 2.760159 1_554
Mo6 Ni3 2.768889 1_545
Mo6 Ni2 2.804265 1_455
Mo7 N1 2.091663 1_555
Mo7 N3 2.098733 1_555
Mo7 Ni1 2.742025 1_555
Mo7 Ni2 2.745246 1_455
Mo7 Ni4 2.762125 1_555
Mo7 Ni3 2.828332 1_555
Mo7 Ni0 2.831941 1_555
Mo8 N2 2.091665 1_554
Mo8 N1 2.102412 1_655
Mo8 Ni3 2.757051 1_555
Mo8 Ni2 2.758823 1_555
Mo8 Ni5 2.795002 1_664
Mo8 Ni1 2.854613 1_555
Mo9 N1 2.084315 1_555
Mo9 N2 2.095515 1_455
Mo9 Ni0 2.735431 1_555
Mo9 Ni1 2.744507 1_455
Mo9 Ni5 2.764648 1_565
Mo9 Ni4 2.766123 1_555
Mo9 Ni2 2.821021 1_455
Mo10 N3 2.091665 1_556
Mo10 N0 2.102412 1_555
Mo10 Ni5 2.757051 1_555
Mo10 Ni4 2.758823 1_555
Mo10 Ni3 2.795002 1_546
Mo10 Ni0 2.854613 1_555
Mo11 N0 2.084315 1_555
Mo11 N3 2.095515 1_555
Mo11 Ni1 2.735431 1_555
Mo11 Ni0 2.744507 1_555
Mo11 Ni3 2.764648 1_545
Mo11 Ni2 2.766123 1_555
Mo11 Ni4 2.821021 1_555
