# generated using pymatgen
data_MgBi2O5
_symmetry_space_group_name_H-M   'P 1'
_cell_length_a   5.88824192
_cell_length_b   5.88824192
_cell_length_c   10.96075300
_cell_angle_alpha   90.00000000
_cell_angle_beta   90.00000000
_cell_angle_gamma   137.05606939
_symmetry_Int_Tables_number   1
_chemical_formula_structural   MgBi2O5
_chemical_formula_sum   'Mg2 Bi4 O10'
_cell_volume   258.90402883
_cell_formula_units_Z   2
loop_
 _symmetry_equiv_pos_site_id
 _symmetry_equiv_pos_as_xyz
  1  'x, y, z'
loop_
 _atom_site_type_symbol
 _atom_site_label
 _atom_site_symmetry_multiplicity
 _atom_site_fract_x
 _atom_site_fract_y
 _atom_site_fract_z
 _atom_site_occupancy
  Mg  Mg0  1  0.18578900  0.81421100  0.75000000  1
  Mg  Mg1  1  0.81421100  0.18578900  0.25000000  1
  Bi  Bi0  1  0.86125000  0.13875000  0.57044700  1
  Bi  Bi1  1  0.13875000  0.86125000  0.42955300  1
  Bi  Bi2  1  0.13875000  0.86125000  0.07044700  1
  Bi  Bi3  1  0.86125000  0.13875000  0.92955300  1
  O  O0  1  0.24193200  0.75806800  0.25000000  1
  O  O1  1  0.75806800  0.24193200  0.75000000  1
  O  O2  1  0.69518600  0.30481400  0.08052200  1
  O  O3  1  0.30481400  0.69518600  0.91947800  1
  O  O4  1  0.30481400  0.69518600  0.58052200  1
  O  O5  1  0.69518600  0.30481400  0.41947800  1
  O  O6  1  0.05471300  0.94528700  0.61480600  1
  O  O7  1  0.94528700  0.05471300  0.38519400  1
  O  O8  1  0.05471300  0.94528700  0.88519400  1
  O  O9  1  0.94528700  0.05471300  0.11480600  1
loop_
_geom_bond_atom_site_label_1
_geom_bond_atom_site_label_2
_geom_bond_distance
_geom_bond_site_symmetry_2
Mg0 O8 2.063806 1_555
Mg0 O6 2.063806 1_555
Mg0 O3 2.269845 1_555
Mg0 O4 2.269845 1_555
Mg0 O1 2.296314 1_565
Mg0 O1 2.296314 1_455
Mg1 O9 2.063806 1_555
Mg1 O7 2.063806 1_555
Mg1 O5 2.269845 1_555
Mg1 O2 2.269845 1_555
Mg1 O0 2.296314 1_545
Mg1 O0 2.296314 1_655
Bi0 O6 2.175227 1_645
Bi0 O7 2.229613 1_555
Bi0 O4 2.245069 1_545
Bi0 O4 2.245069 1_655
Bi0 O1 2.269768 1_555
Bi0 O5 2.459727 1_555
Bi1 O7 2.175227 1_465
Bi1 O6 2.229613 1_555
Bi1 O5 2.245069 1_455
Bi1 O5 2.245069 1_565
Bi1 O0 2.269768 1_555
Bi1 O4 2.459727 1_555
Bi2 O9 2.175227 1_465
Bi2 O8 2.229613 1_554
Bi2 O2 2.245069 1_455
Bi2 O2 2.245069 1_565
Bi2 O0 2.269768 1_555
Bi2 O3 2.459727 1_554
Bi3 O8 2.175227 1_645
Bi3 O9 2.229613 1_556
Bi3 O3 2.245069 1_655
Bi3 O3 2.245069 1_545
Bi3 O1 2.269768 1_555
Bi3 O2 2.459727 1_556
