# generated using pymatgen
data_SrMg6V
_symmetry_space_group_name_H-M   'P 1'
_cell_length_a   6.63843499
_cell_length_b   6.63843440
_cell_length_c   5.23748422
_cell_angle_alpha   90.00000000
_cell_angle_beta   90.00000000
_cell_angle_gamma   120.02181234
_symmetry_Int_Tables_number   1
_chemical_formula_structural   SrMg6V
_chemical_formula_sum   'Sr1 Mg6 V1'
_cell_volume   199.84313596
_cell_formula_units_Z   1
loop_
 _symmetry_equiv_pos_site_id
 _symmetry_equiv_pos_as_xyz
  1  'x, y, z'
loop_
 _atom_site_type_symbol
 _atom_site_label
 _atom_site_symmetry_multiplicity
 _atom_site_fract_x
 _atom_site_fract_y
 _atom_site_fract_z
 _atom_site_occupancy
  Sr  Sr0  1  0.33078860  0.16921140  0.75000000  1
  Mg  Mg0  1  0.15796639  0.81398275  0.25000000  1
  Mg  Mg1  1  0.68601725  0.34203361  0.25000000  1
  Mg  Mg2  1  0.66608608  0.83391392  0.25000000  1
  Mg  Mg3  1  0.31996614  0.65308233  0.75000000  1
  Mg  Mg4  1  0.84691767  0.18003386  0.75000000  1
  Mg  Mg5  1  0.83662094  0.66337906  0.75000000  1
  V  V0  1  0.15563693  0.34436307  0.25000000  1
loop_
_geom_bond_atom_site_label_1
_geom_bond_atom_site_label_2
_geom_bond_distance
_geom_bond_site_symmetry_2
Sr0 V0 3.303717 1_556
Sr0 V0 3.303717 1_555
Mg0 V0 3.109831 1_555
Mg0 Mg1 3.131971 1_455
Mg0 Mg5 3.205289 1_455
Mg0 Mg5 3.205289 1_454
Mg0 Mg3 3.210092 1_555
Mg0 Mg3 3.210092 1_554
Mg0 Mg2 3.308904 1_555
Mg0 Sr0 3.320803 1_564
Mg0 Sr0 3.320803 1_565
Mg0 Mg2 3.333484 1_455
Mg0 Mg1 3.504275 1_565
Mg0 V0 3.528657 1_565
Mg1 V0 3.109831 1_655
Mg1 Mg5 3.205289 1_555
Mg1 Mg5 3.205289 1_554
Mg1 Mg4 3.210092 1_555
Mg1 Mg4 3.210092 1_554
Mg1 Mg2 3.308903 1_545
Mg1 Sr0 3.320803 1_555
Mg1 Sr0 3.320803 1_554
Mg1 Mg2 3.333484 1_555
Mg1 V0 3.528658 1_555
Mg2 Mg5 3.271621 1_554
Mg2 Mg5 3.271621 1_555
Mg2 Mg4 3.289104 1_565
Mg2 Mg4 3.289104 1_564
Mg2 Mg3 3.289104 1_554
Mg2 Mg3 3.289104 1_555
Mg2 V0 3.320298 1_665
Mg2 V0 3.320298 1_555
Mg3 Mg4 3.139266 1_455
Mg3 V0 3.163982 1_556
Mg3 V0 3.163982 1_555
Mg3 Mg5 3.243395 1_455
Mg3 Sr0 3.248687 1_555
Mg3 Sr0 3.390914 1_565
Mg3 Mg5 3.396095 1_555
Mg3 Mg4 3.496980 1_565
Mg4 V0 3.163983 1_656
Mg4 V0 3.163983 1_655
Mg4 Mg5 3.243395 1_555
Mg4 Sr0 3.248687 1_655
Mg4 Sr0 3.390914 1_555
Mg4 Mg5 3.396095 1_545
Mg5 Sr0 3.318801 1_665
Mg5 Sr0 3.318801 1_555
