# generated using pymatgen
data_KCdN
_symmetry_space_group_name_H-M   'P 1'
_cell_length_a   9.39253914
_cell_length_b   4.61920209
_cell_length_c   6.19154181
_cell_angle_alpha   47.91781696
_cell_angle_beta   131.22910260
_cell_angle_gamma   116.21284851
_symmetry_Int_Tables_number   1
_chemical_formula_structural   KCdN
_chemical_formula_sum   'K2 Cd2 N2'
_cell_volume   149.94248967
_cell_formula_units_Z   2
loop_
 _symmetry_equiv_pos_site_id
 _symmetry_equiv_pos_as_xyz
  1  'x, y, z'
loop_
 _atom_site_type_symbol
 _atom_site_label
 _atom_site_symmetry_multiplicity
 _atom_site_fract_x
 _atom_site_fract_y
 _atom_site_fract_z
 _atom_site_occupancy
  K  K0  1  0.38303300  0.59687900  0.59351900  1
  K  K1  1  0.88303300  0.40312100  0.19039800  1
  Cd  Cd0  1  0.13206300  0.49947000  0.89129700  1
  Cd  Cd1  1  0.63206300  0.50053000  0.39076700  1
  N  N0  1  0.38190400  0.81213300  0.98494300  1
  N  N1  1  0.88190400  0.18786700  0.79707600  1
loop_
_geom_bond_atom_site_label_1
_geom_bond_atom_site_label_2
_geom_bond_distance
_geom_bond_site_symmetry_2
K0 N0 2.690356 1_545
K0 N0 3.181438 1_554
K0 N0 3.183603 1_555
K1 N1 2.690356 1_564
K1 N1 3.181438 1_554
K1 N1 3.183604 1_555
Cd0 N0 2.064877 1_555
Cd0 N1 2.064914 1_455
Cd1 N1 2.064877 1_555
Cd1 N0 2.064914 1_554
