# generated using pymatgen
data_Ca4SeN4
_symmetry_space_group_name_H-M   'P 1'
_cell_length_a   12.87533825
_cell_length_b   3.63757606
_cell_length_c   13.40125465
_cell_angle_alpha   90.00000000
_cell_angle_beta   90.00000000
_cell_angle_gamma   90.00000000
_symmetry_Int_Tables_number   1
_chemical_formula_structural   Ca4SeN4
_chemical_formula_sum   'Ca16 Se4 N16'
_cell_volume   627.64805881
_cell_formula_units_Z   4
loop_
 _symmetry_equiv_pos_site_id
 _symmetry_equiv_pos_as_xyz
  1  'x, y, z'
loop_
 _atom_site_type_symbol
 _atom_site_label
 _atom_site_symmetry_multiplicity
 _atom_site_fract_x
 _atom_site_fract_y
 _atom_site_fract_z
 _atom_site_occupancy
  Ca  Ca0  1  0.00682305  0.25000000  0.11589042  1
  Ca  Ca1  1  0.50682305  0.25000000  0.38410958  1
  Ca  Ca2  1  0.99317695  0.75000000  0.88410958  1
  Ca  Ca3  1  0.49317695  0.75000000  0.61589042  1
  Ca  Ca4  1  0.76760893  0.25000000  0.03153680  1
  Ca  Ca5  1  0.26760893  0.25000000  0.46846320  1
  Ca  Ca6  1  0.23239107  0.75000000  0.96846320  1
  Ca  Ca7  1  0.73239107  0.75000000  0.53153680  1
  Ca  Ca8  1  0.45881291  0.25000000  0.86778006  1
  Ca  Ca9  1  0.95881291  0.25000000  0.63221994  1
  Ca  Ca10  1  0.54118709  0.75000000  0.13221994  1
  Ca  Ca11  1  0.04118709  0.75000000  0.36778006  1
  Ca  Ca12  1  0.24201766  0.25000000  0.74137519  1
  Ca  Ca13  1  0.74201766  0.25000000  0.75862481  1
  Ca  Ca14  1  0.75798234  0.75000000  0.25862481  1
  Ca  Ca15  1  0.25798234  0.75000000  0.24137519  1
  Se  Se0  1  0.36553600  0.25000000  0.08762768  1
  Se  Se1  1  0.86553600  0.25000000  0.41237232  1
  Se  Se2  1  0.63446400  0.75000000  0.91237232  1
  Se  Se3  1  0.13446400  0.75000000  0.58762768  1
  N  N0  1  0.66777175  0.25000000  0.16544453  1
  N  N1  1  0.16777175  0.25000000  0.33455547  1
  N  N2  1  0.33222825  0.75000000  0.83455547  1
  N  N3  1  0.83222825  0.75000000  0.66544453  1
  N  N4  1  0.13221828  0.25000000  0.87748127  1
  N  N5  1  0.63221828  0.25000000  0.62251873  1
  N  N6  1  0.86778172  0.75000000  0.12251873  1
  N  N7  1  0.36778172  0.75000000  0.37748127  1
  N  N8  1  0.09333269  0.25000000  0.96804076  1
  N  N9  1  0.59333269  0.25000000  0.53195924  1
  N  N10  1  0.90666731  0.75000000  0.03195924  1
  N  N11  1  0.40666731  0.75000000  0.46804076  1
  N  N12  1  0.61021436  0.25000000  0.24927883  1
  N  N13  1  0.11021436  0.25000000  0.25072117  1
  N  N14  1  0.38978564  0.75000000  0.75072117  1
  N  N15  1  0.88978564  0.75000000  0.74927883  1
loop_
_geom_bond_atom_site_label_1
_geom_bond_atom_site_label_2
_geom_bond_distance
_geom_bond_site_symmetry_2
Ca0 N13 2.244322 1_555
Ca0 N8 2.272988 1_554
Ca0 N10 2.497206 1_445
Ca0 N10 2.497206 1_455
Ca0 N6 2.553568 1_455
Ca0 N6 2.553568 1_445
Ca1 N12 2.244322 1_555
Ca1 N9 2.272988 1_555
Ca1 N11 2.497206 1_555
Ca1 N11 2.497206 1_545
Ca1 N7 2.553568 1_545
Ca1 N7 2.553568 1_555
Ca2 N15 2.244322 1_555
Ca2 N10 2.272988 1_556
Ca2 N8 2.497206 1_655
Ca2 N8 2.497206 1_665
Ca2 N4 2.553568 1_655
Ca2 N4 2.553568 1_665
Ca3 N14 2.244322 1_555
Ca3 N11 2.272988 1_555
Ca3 N9 2.497206 1_565
Ca3 N9 2.497206 1_555
Ca3 N5 2.553568 1_565
Ca3 N5 2.553568 1_555
Ca4 N0 2.207418 1_555
Ca4 N6 2.541277 1_555
Ca4 N6 2.541277 1_545
Ca4 N10 2.552183 1_545
Ca4 N10 2.552183 1_555
Ca4 Se2 2.965978 1_544
Ca4 Se2 2.965978 1_554
Ca5 N1 2.207418 1_555
Ca5 N7 2.541277 1_545
Ca5 N7 2.541277 1_555
Ca5 N11 2.552183 1_555
Ca5 N11 2.552183 1_545
Ca5 Se3 2.965978 1_555
Ca5 Se3 2.965978 1_545
Ca6 N2 2.207418 1_555
Ca6 N4 2.541277 1_565
Ca6 N4 2.541277 1_555
Ca6 N8 2.552183 1_555
Ca6 N8 2.552183 1_565
Ca6 Se0 2.965978 1_566
Ca6 Se0 2.965978 1_556
Ca7 N3 2.207418 1_555
Ca7 N5 2.541277 1_555
Ca7 N5 2.541277 1_565
Ca7 N9 2.552183 1_565
Ca7 N9 2.552183 1_555
Ca7 Se1 2.965978 1_565
Ca7 Se1 2.965978 1_555
Ca8 N2 2.482449 1_545
Ca8 N2 2.482449 1_555
Ca8 N14 2.561015 1_555
Ca8 N14 2.561015 1_545
Ca8 Se2 2.963071 1_555
Ca8 Se2 2.963071 1_545
Ca8 Se0 3.181608 1_556
Ca9 N3 2.482449 1_545
Ca9 N3 2.482449 1_555
Ca9 N15 2.561015 1_555
Ca9 N15 2.561015 1_545
Ca9 Se3 2.963071 1_645
Ca9 Se3 2.963071 1_655
Ca9 Se1 3.181608 1_555
Ca10 N0 2.482449 1_555
Ca10 N0 2.482449 1_565
Ca10 N12 2.561015 1_555
Ca10 N12 2.561015 1_565
Ca10 Se0 2.963071 1_555
Ca10 Se0 2.963071 1_565
Ca10 Se2 3.181608 1_554
Ca11 N1 2.482449 1_565
Ca11 N1 2.482449 1_555
Ca11 N13 2.561015 1_565
Ca11 N13 2.561015 1_555
Ca11 Se1 2.963071 1_465
Ca11 Se1 2.963071 1_455
Ca11 Se3 3.181608 1_555
Ca12 N4 2.307706 1_555
Ca12 N2 2.493268 1_545
Ca12 N2 2.493268 1_555
Ca12 N14 2.635037 1_555
Ca12 N14 2.635037 1_545
Ca12 Se3 3.077486 1_545
Ca12 Se3 3.077486 1_555
Ca13 N5 2.307706 1_555
Ca13 N3 2.493268 1_555
Ca13 N3 2.493268 1_545
Ca13 N15 2.635037 1_555
Ca13 N15 2.635037 1_545
Ca13 Se2 3.077486 1_555
Ca13 Se2 3.077486 1_545
Ca14 N6 2.307706 1_555
Ca14 N0 2.493268 1_555
Ca14 N0 2.493268 1_565
Ca14 N12 2.635037 1_555
Ca14 N12 2.635037 1_565
Ca14 Se1 3.077486 1_565
Ca14 Se1 3.077486 1_555
Ca15 N7 2.307706 1_555
Ca15 N1 2.493268 1_555
Ca15 N1 2.493268 1_565
Ca15 N13 2.635037 1_555
Ca15 N13 2.635037 1_565
Ca15 Se0 3.077486 1_555
Ca15 Se0 3.077486 1_565
N0 N12 1.345884 1_555
N1 N13 1.345884 1_555
N4 N8 1.312828 1_555
N5 N9 1.312828 1_555
N10 N6 1.312828 1_555
N11 N7 1.312828 1_555
N14 N2 1.345884 1_555
N15 N3 1.345884 1_555
