# generated using pymatgen
data_ZrAlPt
_symmetry_space_group_name_H-M   'P 1'
_cell_length_a   6.82414335
_cell_length_b   6.82414319
_cell_length_c   7.90740686
_cell_angle_alpha   90.00000000
_cell_angle_beta   90.00000000
_cell_angle_gamma   119.99999133
_symmetry_Int_Tables_number   1
_chemical_formula_structural   ZrAlPt
_chemical_formula_sum   'Zr6 Al6 Pt6'
_cell_volume   318.90477845
_cell_formula_units_Z   6
loop_
 _symmetry_equiv_pos_site_id
 _symmetry_equiv_pos_as_xyz
  1  'x, y, z'
loop_
 _atom_site_type_symbol
 _atom_site_label
 _atom_site_symmetry_multiplicity
 _atom_site_fract_x
 _atom_site_fract_y
 _atom_site_fract_z
 _atom_site_occupancy
  Zr  Zr0  1  0.00026071  0.58639036  0.75000000  1
  Zr  Zr1  1  -0.00026071  0.58613065  0.25000000  1
  Zr  Zr2  1  0.58639036  0.00026071  0.25000000  1
  Zr  Zr3  1  0.58613065  -0.00026071  0.75000000  1
  Zr  Zr4  1  0.41386935  0.41360964  0.25000000  1
  Zr  Zr5  1  0.41360964  0.41386935  0.75000000  1
  Al  Al0  1  -0.00000000  0.24833806  0.50000000  1
  Al  Al1  1  0.75166194  0.75166194  0.00000000  1
  Al  Al2  1  -0.00000000  0.24833806  0.00000000  1
  Al  Al3  1  0.24833806  -0.00000000  0.50000000  1
  Al  Al4  1  0.24833806  -0.00000000  0.00000000  1
  Al  Al5  1  0.75166194  0.75166194  0.50000000  1
  Pt  Pt0  1  0.33333300  0.66666700  0.49957521  1
  Pt  Pt1  1  0.66666700  0.33333300  0.50042479  1
  Pt  Pt2  1  0.66666700  0.33333300  -0.00042479  1
  Pt  Pt3  1  -0.00000000  0.00000000  0.25000000  1
  Pt  Pt4  1  -0.00000000  0.00000000  0.75000000  1
  Pt  Pt5  1  0.33333300  0.66666700  0.00042479  1
loop_
_geom_bond_atom_site_label_1
_geom_bond_atom_site_label_2
_geom_bond_distance
_geom_bond_site_symmetry_2
Al0 Pt4 2.603830 1_555
Al0 Pt3 2.603830 1_555
Al0 Pt1 2.613450 1_455
Al0 Pt0 2.613455 1_555
Al0 Al3 2.935297 1_555
Al0 Al5 2.935297 1_445
Al0 Zr0 3.037385 1_555
Al0 Zr1 3.037390 1_555
Al0 Zr2 3.156309 1_455
Al0 Zr5 3.156309 1_555
Al0 Zr4 3.157736 1_555
Al0 Zr3 3.157737 1_455
Al1 Pt4 2.603830 1_664
Al1 Pt3 2.603830 1_665
Al1 Pt2 2.613457 1_555
Al1 Pt5 2.613457 1_555
Al1 Al2 2.935297 1_665
Al1 Al4 2.935297 1_665
Al1 Zr4 3.037388 1_555
Al1 Zr5 3.037388 1_554
Al1 Zr3 3.156304 1_564
Al1 Zr1 3.156304 1_655
Al1 Zr2 3.157741 1_565
Al1 Zr0 3.157741 1_654
Al2 Pt4 2.603830 1_554
Al2 Pt3 2.603830 1_555
Al2 Pt2 2.613450 1_455
Al2 Pt5 2.613455 1_555
Al2 Al4 2.935297 1_555
Al2 Zr0 3.037385 1_554
Al2 Zr1 3.037390 1_555
Al2 Zr2 3.156309 1_455
Al2 Zr5 3.156309 1_554
Al2 Zr4 3.157736 1_555
Al2 Zr3 3.157737 1_454
Al3 Pt4 2.603830 1_555
Al3 Pt3 2.603830 1_555
Al3 Pt0 2.613450 1_545
Al3 Pt1 2.613455 1_555
Al3 Al5 2.935297 1_445
Al3 Zr2 3.037385 1_555
Al3 Zr3 3.037390 1_555
Al3 Zr0 3.156308 1_545
Al3 Zr4 3.156309 1_555
Al3 Zr5 3.157736 1_555
Al3 Zr1 3.157737 1_545
Al4 Pt4 2.603830 1_554
Al4 Pt3 2.603830 1_555
Al4 Pt5 2.613450 1_545
Al4 Pt2 2.613455 1_555
Al4 Zr2 3.037385 1_555
Al4 Zr3 3.037390 1_554
Al4 Zr0 3.156308 1_544
Al4 Zr4 3.156309 1_555
Al4 Zr5 3.157736 1_554
Al4 Zr1 3.157737 1_545
Al5 Pt4 2.603830 1_665
Al5 Pt3 2.603830 1_665
Al5 Pt1 2.613457 1_555
Al5 Pt0 2.613457 1_555
Al5 Zr4 3.037388 1_555
Al5 Zr5 3.037388 1_555
Al5 Zr3 3.156304 1_565
Al5 Zr1 3.156304 1_655
Al5 Zr2 3.157741 1_565
Al5 Zr0 3.157741 1_655
Pt0 Zr4 2.850964 1_555
Pt0 Zr1 2.850964 1_555
Pt0 Zr2 2.850964 1_565
Pt0 Zr0 2.853491 1_555
Pt0 Zr3 2.853494 1_565
Pt0 Zr5 2.853500 1_555
Pt1 Zr5 2.850964 1_555
Pt1 Zr3 2.850964 1_555
Pt1 Zr0 2.850964 1_655
Pt1 Zr2 2.853491 1_555
Pt1 Zr1 2.853494 1_655
Pt1 Zr4 2.853500 1_555
Pt2 Zr5 2.850964 1_554
Pt2 Zr3 2.850964 1_554
Pt2 Zr0 2.850964 1_654
Pt2 Zr2 2.853491 1_555
Pt2 Zr1 2.853494 1_655
Pt2 Zr4 2.853500 1_555
Pt3 Zr1 2.823415 1_545
Pt3 Zr4 2.823418 1_555
Pt3 Zr2 2.823421 1_455
Pt4 Zr3 2.823415 1_455
Pt4 Zr5 2.823418 1_555
Pt4 Zr0 2.823421 1_545
Pt5 Zr4 2.850964 1_555
Pt5 Zr1 2.850964 1_555
Pt5 Zr2 2.850964 1_565
Pt5 Zr0 2.853491 1_554
Pt5 Zr3 2.853494 1_564
Pt5 Zr5 2.853500 1_554
