# generated using pymatgen
data_Li9Mn2Co5O16
_symmetry_space_group_name_H-M   'P 1'
_cell_length_a   5.93089735
_cell_length_b   5.93089735
_cell_length_c   9.71336333
_cell_angle_alpha   82.36200660
_cell_angle_beta   82.36200660
_cell_angle_gamma   58.33494662
_symmetry_Int_Tables_number   1
_chemical_formula_structural   Li9Mn2Co5O16
_chemical_formula_sum   'Li9 Mn2 Co5 O16'
_cell_volume   287.41983800
_cell_formula_units_Z   1
loop_
 _symmetry_equiv_pos_site_id
 _symmetry_equiv_pos_as_xyz
  1  'x, y, z'
loop_
 _atom_site_type_symbol
 _atom_site_label
 _atom_site_symmetry_multiplicity
 _atom_site_fract_x
 _atom_site_fract_y
 _atom_site_fract_z
 _atom_site_occupancy
  Li  Li0  1  0.50116100  0.25375600  0.75740300  1
  Li  Li1  1  0.00068600  0.75199200  0.75303500  1
  Li  Li2  1  0.12792600  0.38762100  0.99396600  1
  Li  Li3  1  0.61237900  0.87207400  0.00603400  1
  Li  Li4  1  0.74624400  0.49883900  0.24259700  1
  Li  Li5  1  0.24800800  0.99931400  0.24696500  1
  Li  Li6  1  0.37933800  0.62066200  0.50000000  1
  Li  Li7  1  0.87767600  0.12232400  0.50000000  1
  Li  Li8  1  0.62180500  0.37819500  0.00000000  1
  Mn  Mn0  1  0.00439500  0.24945000  0.75358900  1
  Mn  Mn1  1  0.75055000  0.99560500  0.24641100  1
  Co  Co0  1  0.50115000  0.74262300  0.75865000  1
  Co  Co1  1  0.12117700  0.87882300  0.00000000  1
  Co  Co2  1  0.25737700  0.49885000  0.24135000  1
  Co  Co3  1  0.87661800  0.61902400  0.49995900  1
  Co  Co4  1  0.38097600  0.12338200  0.50004100  1
  O  O0  1  0.70636000  0.43051500  0.63246200  1
  O  O1  1  0.20037500  0.94893500  0.63303300  1
  O  O2  1  0.30445600  0.59907300  0.87940700  1
  O  O3  1  0.84630800  0.07462300  0.86977200  1
  O  O4  1  0.92086200  0.69704000  0.13474000  1
  O  O5  1  0.44197900  0.18815500  0.13894800  1
  O  O6  1  0.57612300  0.82390400  0.37050600  1
  O  O7  1  0.07369900  0.31538300  0.38709900  1
  O  O8  1  0.30296000  0.07913800  0.86526000  1
  O  O9  1  0.81184500  0.55802100  0.86105200  1
  O  O10  1  0.92537700  0.15369200  0.13022800  1
  O  O11  1  0.40092700  0.69554400  0.12059300  1
  O  O12  1  0.56948500  0.29364000  0.36753800  1
  O  O13  1  0.05106500  0.79962500  0.36696700  1
  O  O14  1  0.17609600  0.42387700  0.62949400  1
  O  O15  1  0.68461700  0.92630100  0.61290100  1
loop_
_geom_bond_atom_site_label_1
_geom_bond_atom_site_label_2
_geom_bond_distance
_geom_bond_site_symmetry_2
Li0 O8 2.052882 1_555
Li0 O3 2.124322 1_555
Li0 O14 2.130670 1_555
Li0 O0 2.159086 1_555
Li0 O2 2.174627 1_555
Li0 O15 2.241831 1_545
Li1 O2 2.037542 1_555
Li1 O3 2.060797 1_465
Li1 O9 2.097197 1_455
Li1 O14 2.114861 1_555
Li1 O15 2.169131 1_455
Li1 O1 2.202082 1_555
Li2 O8 2.063225 1_555
Li2 O9 2.123643 1_455
Li2 O4 2.144794 1_456
Li2 O2 2.145936 1_555
Li2 O5 2.189294 1_556
Li2 O10 2.441085 1_456
Li3 O4 2.063225 1_555
Li3 O5 2.123643 1_565
Li3 O8 2.144794 1_564
Li3 O11 2.145936 1_555
Li3 O9 2.189294 1_554
Li3 O3 2.441085 1_564
Li4 O4 2.052882 1_555
Li4 O10 2.124322 1_555
Li4 O6 2.130670 1_555
Li4 O12 2.159086 1_555
Li4 O11 2.174627 1_555
Li4 O7 2.241831 1_655
Li5 O11 2.037542 1_555
Li5 O10 2.060797 1_465
Li5 O5 2.097197 1_565
Li5 O6 2.114861 1_555
Li5 O7 2.169131 1_565
Li5 O13 2.202082 1_555
Li6 O12 2.161081 1_555
Li6 O0 2.161081 1_555
Li6 O13 2.172909 1_555
Li6 O1 2.172909 1_555
Li6 O14 2.254117 1_555
Li6 O6 2.254117 1_555
Li7 O12 2.087259 1_555
Li7 O0 2.087259 1_555
Li7 O15 2.142480 1_545
Li7 O7 2.142480 1_655
Li7 O13 2.151298 1_645
Li7 O1 2.151298 1_645
Li8 O11 2.054316 1_555
Li8 O2 2.054316 1_554
Li8 O10 2.062857 1_555
Li8 O3 2.062857 1_554
Li8 O5 2.168982 1_555
Li8 O9 2.168982 1_554
Mn0 O3 1.912106 1_455
Mn0 O8 1.916739 1_555
Mn0 O9 1.933823 1_455
Mn0 O0 1.971291 1_455
Mn0 O1 1.979116 1_545
Mn0 O14 2.002110 1_555
Mn1 O10 1.912106 1_565
Mn1 O4 1.916739 1_555
Mn1 O5 1.933823 1_565
Mn1 O12 1.971291 1_565
Mn1 O13 1.979116 1_655
Mn1 O6 2.002110 1_555
Co0 O9 1.913944 1_555
Co0 O2 1.968533 1_555
Co0 O1 2.014505 1_555
Co0 O8 2.049424 1_565
Co0 O0 2.061887 1_555
Co0 O15 2.190903 1_555
Co1 O11 1.895031 1_555
Co1 O2 1.895031 1_554
Co1 O10 1.943284 1_465
Co1 O3 1.943284 1_464
Co1 O4 2.200707 1_455
Co1 O8 2.200707 1_564
Co2 O5 1.913944 1_555
Co2 O11 1.968533 1_555
Co2 O13 2.014505 1_555
Co2 O4 2.049424 1_455
Co2 O12 2.061887 1_555
Co2 O7 2.190903 1_555
Co3 O7 1.945579 1_655
Co3 O15 1.960109 1_555
Co3 O14 2.031283 1_655
Co3 O6 2.037099 1_555
Co3 O13 2.080126 1_655
Co3 O0 2.093670 1_555
Co4 O15 1.945579 1_545
Co4 O7 1.960109 1_555
Co4 O6 2.031283 1_545
Co4 O14 2.037099 1_555
Co4 O1 2.080126 1_545
Co4 O12 2.093670 1_555
