# generated using pymatgen
data_Li4Mn3CoO8
_symmetry_space_group_name_H-M   'P 1'
_cell_length_a   5.92878323
_cell_length_b   10.43519846
_cell_length_c   5.91920910
_cell_angle_alpha   108.75836753
_cell_angle_beta   61.28122811
_cell_angle_gamma   91.10788021
_symmetry_Int_Tables_number   1
_chemical_formula_structural   Li4Mn3CoO8
_chemical_formula_sum   'Li8 Mn6 Co2 O16'
_cell_volume   300.04598989
_cell_formula_units_Z   2
loop_
 _symmetry_equiv_pos_site_id
 _symmetry_equiv_pos_as_xyz
  1  'x, y, z'
loop_
 _atom_site_type_symbol
 _atom_site_label
 _atom_site_symmetry_multiplicity
 _atom_site_fract_x
 _atom_site_fract_y
 _atom_site_fract_z
 _atom_site_occupancy
  Li  Li0  1  0.24825000  0.24997100  0.50173100  1
  Li  Li1  1  0.75056100  0.75042600  0.49879000  1
  Li  Li2  1  0.49985300  0.99880400  0.50028100  1
  Li  Li3  1  0.99992500  0.49883700  0.50071900  1
  Li  Li4  1  0.75119900  0.24910700  0.50021000  1
  Li  Li5  1  0.25338800  0.75027100  0.49790400  1
  Li  Li6  1  0.00013900  0.00093700  0.49929200  1
  Li  Li7  1  0.49996100  0.50085200  0.49943800  1
  Mn  Mn0  1  0.25231300  0.75028000  0.99820700  1
  Mn  Mn1  1  0.99913900  0.49965200  0.00093100  1
  Mn  Mn2  1  0.24993100  0.24927900  0.00067100  1
  Mn  Mn3  1  0.74878300  0.25049200  0.00164300  1
  Mn  Mn4  1  0.49853000  0.99980300  0.00171700  1
  Mn  Mn5  1  0.75333900  0.74903200  0.99751000  1
  Co  Co0  1  0.00014700  0.00013800  0.99955400  1
  Co  Co1  1  0.49946100  0.49983800  0.99997900  1
  O  O0  1  0.84878300  0.36885200  0.25591700  1
  O  O1  1  0.35143000  0.86887000  0.25405100  1
  O  O2  1  0.64953000  0.13200400  0.74665500  1
  O  O3  1  0.15244300  0.63154600  0.74331100  1
  O  O4  1  0.15959500  0.12404300  0.21323800  1
  O  O5  1  0.66245500  0.62416700  0.21123000  1
  O  O6  1  0.39569900  0.36141900  0.22238400  1
  O  O7  1  0.89977600  0.86115900  0.21880700  1
  O  O8  1  0.62949900  0.13027000  0.21980600  1
  O  O9  1  0.13343800  0.62975800  0.21604100  1
  O  O10  1  0.33424400  0.37553500  0.79265200  1
  O  O11  1  0.83540600  0.87603000  0.79097000  1
  O  O12  1  0.10161200  0.13886600  0.78030100  1
  O  O13  1  0.60434900  0.63849000  0.77820000  1
  O  O14  1  0.86762000  0.37043700  0.77981100  1
  O  O15  1  0.36920000  0.87083300  0.77804800  1
loop_
_geom_bond_atom_site_label_1
_geom_bond_atom_site_label_2
_geom_bond_distance
_geom_bond_site_symmetry_2
Li0 O10 2.075781 1_555
Li0 O4 2.076486 1_555
Li0 O14 2.142747 1_455
Li0 O8 2.144244 1_555
Li0 O12 2.152179 1_555
Li0 O6 2.158513 1_555
Li1 O5 2.071596 1_555
Li1 O11 2.077187 1_555
Li1 O15 2.146059 1_555
Li1 O9 2.154895 1_655
Li1 O7 2.155822 1_555
Li1 O13 2.162570 1_555
Li2 O1 2.156955 1_555
Li2 O2 2.176818 1_565
Li2 O15 2.287961 1_555
Li2 O7 2.292821 1_555
Li2 O12 2.296222 1_565
Li2 O8 2.329546 1_565
Li3 O0 2.163163 1_555
Li3 O3 2.172067 1_655
Li3 O6 2.274202 1_655
Li3 O13 2.283116 1_555
Li3 O14 2.297244 1_555
Li3 O9 2.342957 1_655
Li4 O2 2.063385 1_555
Li4 O0 2.077805 1_555
Li4 O14 2.129523 1_555
Li4 O8 2.146108 1_555
Li4 O4 2.279269 1_655
Li4 O10 2.322266 1_555
Li5 O1 2.065861 1_555
Li5 O3 2.072803 1_555
Li5 O15 2.126738 1_555
Li5 O9 2.151059 1_555
Li5 O5 2.285886 1_555
Li5 O11 2.324405 1_455
Li6 O2 2.057285 1_455
Li6 O1 2.064725 1_545
Li6 O12 2.142133 1_555
Li6 O7 2.143913 1_445
Li6 O4 2.285754 1_555
Li6 O11 2.326207 1_445
Li7 O3 2.042809 1_555
Li7 O0 2.054371 1_555
Li7 O13 2.142752 1_555
Li7 O6 2.143209 1_555
Li7 O5 2.297572 1_555
Li7 O10 2.336449 1_555
Mn0 O3 1.946799 1_555
Mn0 O1 1.947289 1_556
Mn0 O9 1.968854 1_556
Mn0 O7 1.977715 1_456
Mn0 O15 1.978336 1_555
Mn0 O13 1.979377 1_555
Mn1 O10 1.965524 1_654
Mn1 O5 1.973435 1_555
Mn1 O9 1.979697 1_655
Mn1 O14 1.986032 1_554
Mn1 O0 2.218244 1_555
Mn1 O3 2.239478 1_654
Mn2 O12 1.974543 1_554
Mn2 O6 1.975276 1_555
Mn2 O10 1.981970 1_554
Mn2 O4 1.990164 1_555
Mn2 O2 2.208291 1_554
Mn2 O0 2.223749 1_455
Mn3 O0 1.943185 1_555
Mn3 O2 1.943782 1_554
Mn3 O8 1.967635 1_555
Mn3 O14 1.980160 1_554
Mn3 O6 1.980317 1_555
Mn3 O12 1.981932 1_654
Mn4 O11 1.970417 1_554
Mn4 O8 1.978638 1_565
Mn4 O4 1.981236 1_565
Mn4 O15 1.985378 1_554
Mn4 O1 2.207464 1_555
Mn4 O2 2.230889 1_564
Mn5 O13 1.973720 1_555
Mn5 O7 1.976500 1_556
Mn5 O11 1.983205 1_555
Mn5 O5 1.991583 1_556
Mn5 O3 2.206844 1_655
Mn5 O1 2.228045 1_556
Co0 O4 2.053109 1_556
Co0 O11 2.058442 1_445
Co0 O15 2.132273 1_545
Co0 O12 2.136882 1_555
Co0 O7 2.139315 1_446
Co0 O8 2.143877 1_456
Co1 O10 2.056788 1_555
Co1 O5 2.061569 1_556
Co1 O9 2.124694 1_556
Co1 O14 2.129449 1_555
Co1 O13 2.146093 1_555
Co1 O6 2.146677 1_556
