# generated using pymatgen
data_EuGaGe2O7
_symmetry_space_group_name_H-M   'P 1'
_cell_length_a   6.66902700
_cell_length_b   7.36741900
_cell_length_c   13.03051945
_cell_angle_alpha   62.42848616
_cell_angle_beta   90.00000000
_cell_angle_gamma   90.00000000
_symmetry_Int_Tables_number   1
_chemical_formula_structural   EuGaGe2O7
_chemical_formula_sum   'Eu4 Ga4 Ge8 O28'
_cell_volume   567.52616200
_cell_formula_units_Z   4
loop_
 _symmetry_equiv_pos_site_id
 _symmetry_equiv_pos_as_xyz
  1  'x, y, z'
loop_
 _atom_site_type_symbol
 _atom_site_label
 _atom_site_symmetry_multiplicity
 _atom_site_fract_x
 _atom_site_fract_y
 _atom_site_fract_z
 _atom_site_occupancy
  Eu  Eu0  1  0.35416300  0.74238500  0.52587800  1
  Eu  Eu1  1  0.64583700  0.25761500  0.47412200  1
  Eu  Eu2  1  0.85416300  0.25761500  0.97412200  1
  Eu  Eu3  1  0.14583700  0.74238500  0.02587800  1
  Ga  Ga0  1  0.40016400  0.71306800  0.26915200  1
  Ga  Ga1  1  0.59983600  0.28693200  0.73084800  1
  Ga  Ga2  1  0.90016400  0.28693200  0.23084800  1
  Ga  Ga3  1  0.09983600  0.71306800  0.76915200  1
  Ge  Ge0  1  0.65806800  0.71136400  0.04701300  1
  Ge  Ge1  1  0.34193200  0.28863600  0.95298700  1
  Ge  Ge2  1  0.15806800  0.28863600  0.45298700  1
  Ge  Ge3  1  0.84193200  0.71136400  0.54701300  1
  Ge  Ge4  1  0.91076700  0.80110400  0.28227500  1
  Ge  Ge5  1  0.08923300  0.19889600  0.71772500  1
  Ge  Ge6  1  0.41076700  0.19889600  0.21772500  1
  Ge  Ge7  1  0.58923300  0.80110400  0.78227500  1
  O  O0  1  0.37309200  0.93213900  0.30453100  1
  O  O1  1  0.62690800  0.06786100  0.69546900  1
  O  O2  1  0.87309200  0.06786100  0.19546900  1
  O  O3  1  0.12690800  0.93213900  0.80453100  1
  O  O4  1  0.82429700  0.90893300  0.02242400  1
  O  O5  1  0.17570300  0.09106700  0.97757600  1
  O  O6  1  0.32429700  0.09106700  0.47757600  1
  O  O7  1  0.67570300  0.90893300  0.52242400  1
  O  O8  1  0.60873400  0.27592100  0.27928900  1
  O  O9  1  0.39126600  0.72407900  0.72071100  1
  O  O10  1  0.10873400  0.72407900  0.22071100  1
  O  O11  1  0.89126600  0.27592100  0.77928900  1
  O  O12  1  0.99693300  0.74869400  0.42600000  1
  O  O13  1  0.00306700  0.25130600  0.57400000  1
  O  O14  1  0.49693300  0.25130600  0.07400000  1
  O  O15  1  0.50306700  0.74869400  0.92600000  1
  O  O16  1  0.44746400  0.70310300  0.13043500  1
  O  O17  1  0.55253600  0.29689700  0.86956500  1
  O  O18  1  0.94746400  0.29689700  0.36956500  1
  O  O19  1  0.05253600  0.70310300  0.63043500  1
  O  O20  1  0.83838800  0.51053800  0.08146300  1
  O  O21  1  0.16161200  0.48946200  0.91853700  1
  O  O22  1  0.33838800  0.48946200  0.41853700  1
  O  O23  1  0.66161200  0.51053800  0.58146300  1
  O  O24  1  0.68750300  0.65688400  0.31390400  1
  O  O25  1  0.31249700  0.34311600  0.68609600  1
  O  O26  1  0.18750300  0.34311600  0.18609600  1
  O  O27  1  0.81249700  0.65688400  0.81390400  1
loop_
_geom_bond_atom_site_label_1
_geom_bond_atom_site_label_2
_geom_bond_distance
_geom_bond_site_symmetry_2
Eu0 O6 2.353349 1_565
Eu0 O19 2.370937 1_555
Eu0 O7 2.460646 1_555
Eu0 O9 2.491552 1_555
Eu0 O23 2.549719 1_555
Eu0 O0 2.560601 1_555
Eu0 O12 2.704752 1_455
Eu0 O25 2.720978 1_555
Eu0 O22 2.802212 1_555
Eu1 O7 2.353349 1_545
Eu1 O18 2.370937 1_555
Eu1 O6 2.460646 1_555
Eu1 O8 2.491552 1_555
Eu1 O22 2.549719 1_555
Eu1 O1 2.560601 1_555
Eu1 O13 2.704752 1_655
Eu1 O24 2.720978 1_555
Eu1 O23 2.802212 1_555
Eu2 O4 2.353349 1_546
Eu2 O17 2.370937 1_555
Eu2 O5 2.460646 1_655
Eu2 O11 2.491552 1_555
Eu2 O21 2.549719 1_655
Eu2 O2 2.560601 1_556
Eu2 O14 2.704752 1_556
Eu2 O27 2.720978 1_555
Eu2 O20 2.802212 1_556
Eu3 O5 2.353349 1_564
Eu3 O16 2.370937 1_555
Eu3 O4 2.460646 1_455
Eu3 O10 2.491552 1_555
Eu3 O20 2.549719 1_455
Eu3 O3 2.560601 1_554
Eu3 O15 2.704752 1_554
Eu3 O26 2.720978 1_555
Eu3 O21 2.802212 1_554
Ga0 O16 1.869490 1_555
Ga0 O0 1.881187 1_555
Ga0 O22 1.924637 1_555
Ga0 O24 1.989985 1_555
Ga0 O10 2.033473 1_555
Ga1 O17 1.869490 1_555
Ga1 O1 1.881187 1_555
Ga1 O23 1.924637 1_555
Ga1 O25 1.989985 1_555
Ga1 O11 2.033473 1_555
Ga2 O18 1.869490 1_555
Ga2 O2 1.881187 1_555
Ga2 O20 1.924637 1_555
Ga2 O26 1.989985 1_655
Ga2 O8 2.033473 1_555
Ga3 O19 1.869490 1_555
Ga3 O3 1.881187 1_555
Ga3 O21 1.924637 1_555
Ga3 O27 1.989985 1_455
Ga3 O9 2.033473 1_555
Ge0 O4 1.737408 1_555
Ge0 O16 1.759769 1_555
Ge0 O20 1.794978 1_555
Ge0 O15 1.797003 1_554
Ge1 O5 1.737408 1_555
Ge1 O17 1.759769 1_555
Ge1 O21 1.794978 1_555
Ge1 O14 1.797003 1_556
Ge2 O6 1.737408 1_555
Ge2 O18 1.759769 1_455
Ge2 O22 1.794978 1_555
Ge2 O13 1.797003 1_555
Ge3 O7 1.737408 1_555
Ge3 O19 1.759769 1_655
Ge3 O23 1.794978 1_555
Ge3 O12 1.797003 1_555
Ge4 O24 1.763642 1_555
Ge4 O10 1.769192 1_655
Ge4 O2 1.774022 1_565
Ge4 O12 1.821349 1_555
Ge5 O25 1.763642 1_555
Ge5 O11 1.769192 1_455
Ge5 O3 1.774022 1_545
Ge5 O13 1.821349 1_555
Ge6 O26 1.763642 1_555
Ge6 O8 1.769192 1_555
Ge6 O0 1.774022 1_545
Ge6 O14 1.821349 1_555
Ge7 O27 1.763642 1_555
Ge7 O9 1.769192 1_555
Ge7 O1 1.774022 1_565
Ge7 O15 1.821349 1_555
