# generated using pymatgen
data_Li9Mn2Co5O16
_symmetry_space_group_name_H-M   'P 1'
_cell_length_a   2.91756800
_cell_length_b   9.78109600
_cell_length_c   10.33437649
_cell_angle_alpha   79.72681249
_cell_angle_beta   90.00000000
_cell_angle_gamma   90.00000000
_symmetry_Int_Tables_number   1
_chemical_formula_structural   Li9Mn2Co5O16
_chemical_formula_sum   'Li9 Mn2 Co5 O16'
_cell_volume   290.18437806
_cell_formula_units_Z   1
loop_
 _symmetry_equiv_pos_site_id
 _symmetry_equiv_pos_as_xyz
  1  'x, y, z'
loop_
 _atom_site_type_symbol
 _atom_site_label
 _atom_site_symmetry_multiplicity
 _atom_site_fract_x
 _atom_site_fract_y
 _atom_site_fract_z
 _atom_site_occupancy
  Li  Li0  1  0.50000000  0.00000000  0.00000000  1
  Li  Li1  1  0.50000000  0.00000000  0.50000000  1
  Li  Li2  1  0.00000000  0.74314500  0.12239200  1
  Li  Li3  1  0.00000000  0.74161900  0.63239500  1
  Li  Li4  1  0.50000000  0.50075200  0.23785500  1
  Li  Li5  1  0.50000000  0.49924800  0.76214500  1
  Li  Li6  1  0.00000000  0.25685500  0.87760800  1
  Li  Li7  1  0.00000000  0.25838100  0.36760500  1
  Li  Li8  1  0.00000000  0.50000000  0.00000000  1
  Mn  Mn0  1  0.00000000  0.99540600  0.75084700  1
  Mn  Mn1  1  0.00000000  0.00459400  0.24915300  1
  Co  Co0  1  0.50000000  0.72855100  0.89222600  1
  Co  Co1  1  0.50000000  0.74608400  0.37724400  1
  Co  Co2  1  0.00000000  0.50000000  0.50000000  1
  Co  Co3  1  0.50000000  0.27144900  0.10777400  1
  Co  Co4  1  0.50000000  0.25391600  0.62275600  1
  O  O0  1  0.50000000  0.11014700  0.80364100  1
  O  O1  1  0.50000000  0.11028400  0.30818400  1
  O  O2  1  0.00000000  0.87893900  0.91810900  1
  O  O3  1  0.00000000  0.87541500  0.42228600  1
  O  O4  1  0.50000000  0.63508000  0.05803100  1
  O  O5  1  0.50000000  0.62031800  0.55439800  1
  O  O6  1  0.00000000  0.36532700  0.67963800  1
  O  O7  1  0.00000000  0.36503400  0.18613700  1
  O  O8  1  0.50000000  0.88985300  0.19635900  1
  O  O9  1  0.50000000  0.88971600  0.69181600  1
  O  O10  1  0.00000000  0.63467300  0.32036200  1
  O  O11  1  0.00000000  0.63496600  0.81386300  1
  O  O12  1  0.50000000  0.37968200  0.44560200  1
  O  O13  1  0.50000000  0.36492000  0.94196900  1
  O  O14  1  0.00000000  0.12106100  0.08189100  1
  O  O15  1  0.00000000  0.12458500  0.57771400  1
loop_
_geom_bond_atom_site_label_1
_geom_bond_atom_site_label_2
_geom_bond_distance
_geom_bond_site_symmetry_2
Li0 O8 2.121027 1_545
Li0 O0 2.121027 1_554
Li0 O14 2.145649 1_655
Li0 O14 2.145649 1_555
Li0 O2 2.145649 1_544
Li0 O2 2.145649 1_644
Li1 O1 2.080962 1_555
Li1 O9 2.080962 1_545
Li1 O15 2.146409 1_555
Li1 O15 2.146409 1_655
Li1 O3 2.146409 1_645
Li1 O3 2.146409 1_545
Li2 O4 1.984553 1_455
Li2 O4 1.984553 1_555
Li2 O10 2.130053 1_555
Li2 O8 2.272164 1_555
Li2 O8 2.272164 1_455
Li2 O2 2.284928 1_554
Li3 O11 1.976716 1_555
Li3 O5 2.127571 1_455
Li3 O5 2.127571 1_555
Li3 O9 2.218270 1_455
Li3 O9 2.218270 1_555
Li3 O3 2.326761 1_555
Li4 O4 2.075789 1_555
Li4 O7 2.104509 1_655
Li4 O7 2.104509 1_555
Li4 O10 2.229187 1_655
Li4 O10 2.229187 1_555
Li4 O12 2.259386 1_555
Li5 O13 2.075789 1_555
Li5 O11 2.104509 1_555
Li5 O11 2.104509 1_655
Li5 O6 2.229187 1_655
Li5 O6 2.229187 1_555
Li5 O5 2.259386 1_555
Li6 O13 1.984553 1_455
Li6 O13 1.984553 1_555
Li6 O6 2.130053 1_555
Li6 O0 2.272164 1_455
Li6 O0 2.272164 1_555
Li6 O14 2.284928 1_556
Li7 O7 1.976716 1_555
Li7 O12 2.127571 1_455
Li7 O12 2.127571 1_555
Li7 O1 2.218270 1_455
Li7 O1 2.218270 1_555
Li7 O15 2.326761 1_555
Li8 O13 2.125083 1_554
Li8 O13 2.125083 1_454
Li8 O4 2.125083 1_455
Li8 O4 2.125083 1_555
Li8 O11 2.130076 1_554
Li8 O7 2.130076 1_555
Mn0 O2 1.892947 1_555
Mn0 O9 1.947773 1_455
Mn0 O9 1.947773 1_555
Mn0 O0 1.975770 1_565
Mn0 O0 1.975770 1_465
Mn0 O15 1.997854 1_565
Mn1 O14 1.892947 1_555
Mn1 O1 1.947773 1_455
Mn1 O1 1.947773 1_555
Mn1 O8 1.975770 1_545
Mn1 O8 1.975770 1_445
Mn1 O3 1.997854 1_545
Co0 O4 1.792523 1_556
Co0 O11 1.971339 1_555
Co0 O11 1.971339 1_655
Co0 O2 2.122183 1_655
Co0 O2 2.122183 1_555
Co0 O9 2.368530 1_555
Co1 O10 1.972203 1_555
Co1 O10 1.972203 1_655
Co1 O5 2.015360 1_555
Co1 O3 2.038375 1_655
Co1 O3 2.038375 1_555
Co1 O8 2.129377 1_555
Co2 O5 2.016189 1_455
Co2 O5 2.016189 1_555
Co2 O12 2.016189 1_555
Co2 O12 2.016189 1_455
Co2 O10 2.075887 1_555
Co2 O6 2.075887 1_555
Co3 O13 1.792523 1_554
Co3 O7 1.971339 1_655
Co3 O7 1.971339 1_555
Co3 O14 2.122183 1_555
Co3 O14 2.122183 1_655
Co3 O1 2.368530 1_555
Co4 O6 1.972203 1_555
Co4 O6 1.972203 1_655
Co4 O12 2.015360 1_555
Co4 O15 2.038375 1_655
Co4 O15 2.038375 1_555
Co4 O0 2.129377 1_555
