# generated using pymatgen
data_Cs4BiSbCl12
_symmetry_space_group_name_H-M   'P 1'
_cell_length_a   7.76597500
_cell_length_b   7.76597500
_cell_length_c   10.72351800
_cell_angle_alpha   90.00000000
_cell_angle_beta   90.00000000
_cell_angle_gamma   90.00000000
_symmetry_Int_Tables_number   1
_chemical_formula_structural   Cs4BiSbCl12
_chemical_formula_sum   'Cs4 Bi1 Sb1 Cl12'
_cell_volume   646.73931362
_cell_formula_units_Z   1
loop_
 _symmetry_equiv_pos_site_id
 _symmetry_equiv_pos_as_xyz
  1  'x, y, z'
loop_
 _atom_site_type_symbol
 _atom_site_label
 _atom_site_symmetry_multiplicity
 _atom_site_fract_x
 _atom_site_fract_y
 _atom_site_fract_z
 _atom_site_occupancy
  Cs  Cs0  1  0.50000000  0.00000000  0.77930900  1
  Cs  Cs1  1  0.00000000  0.50000000  0.22069100  1
  Cs  Cs2  1  0.50000000  0.00000000  0.22069100  1
  Cs  Cs3  1  0.00000000  0.50000000  0.77930900  1
  Bi  Bi0  1  0.00000000  0.00000000  0.00000000  1
  Sb  Sb0  1  0.50000000  0.50000000  0.50000000  1
  Cl  Cl0  1  0.00000000  0.00000000  0.74553900  1
  Cl  Cl1  1  0.50000000  0.50000000  0.27407200  1
  Cl  Cl2  1  0.72020500  0.72020500  0.50000000  1
  Cl  Cl3  1  0.24785300  0.24785300  0.00000000  1
  Cl  Cl4  1  0.72020500  0.27979500  0.50000000  1
  Cl  Cl5  1  0.24785300  0.75214700  0.00000000  1
  Cl  Cl6  1  0.00000000  0.00000000  0.25446100  1
  Cl  Cl7  1  0.50000000  0.50000000  0.72592800  1
  Cl  Cl8  1  0.27979500  0.27979500  0.50000000  1
  Cl  Cl9  1  0.75214700  0.75214700  0.00000000  1
  Cl  Cl10  1  0.27979500  0.72020500  0.50000000  1
  Cl  Cl11  1  0.75214700  0.24785300  0.00000000  1
loop_
_geom_bond_atom_site_label_1
_geom_bond_atom_site_label_2
_geom_bond_distance
_geom_bond_site_symmetry_2
Bi0 Cl11 2.722107 1_455
Bi0 Cl9 2.722107 1_445
Bi0 Cl5 2.722107 1_545
Bi0 Cl3 2.722107 1_555
Bi0 Cl6 2.728717 1_555
Bi0 Cl0 2.728717 1_554
Cl0 Cs0 3.899837 1_555
Cl0 Cs0 3.899837 1_455
Cl0 Cs3 3.899837 1_545
Cl0 Cs3 3.899837 1_555
Cl1 Sb0 2.422743 1_555
Cl1 Cs1 3.924955 1_655
Cl1 Cs2 3.924955 1_555
Cl1 Cs1 3.924955 1_555
Cl1 Cs2 3.924955 1_565
Cl2 Sb0 2.418456 1_555
Cl2 Cs3 4.076389 1_655
Cl2 Cs0 4.076389 1_565
Cl2 Cs1 4.076389 1_655
Cl2 Cs2 4.076389 1_565
Cl3 Cs2 3.624924 1_555
Cl3 Cs1 3.624924 1_555
Cl3 Cs0 3.624924 1_554
Cl3 Cs3 3.624924 1_554
Cl4 Sb0 2.418456 1_555
Cl4 Cs0 4.076389 1_555
Cl4 Cs3 4.076389 1_655
Cl4 Cs2 4.076389 1_555
Cl4 Cs1 4.076389 1_655
Cl5 Cs2 3.624924 1_565
Cl5 Cs1 3.624924 1_555
Cl5 Cs0 3.624924 1_564
Cl5 Cs3 3.624924 1_554
Cl6 Cs1 3.899837 1_555
Cl6 Cs1 3.899837 1_545
Cl6 Cs2 3.899837 1_455
Cl6 Cs2 3.899837 1_555
Cl7 Sb0 2.422743 1_555
Cl7 Cs3 3.924955 1_655
Cl7 Cs0 3.924955 1_555
Cl7 Cs3 3.924955 1_555
Cl7 Cs0 3.924955 1_565
Cl8 Sb0 2.418456 1_555
Cl8 Cs0 4.076389 1_555
Cl8 Cs3 4.076389 1_555
Cl8 Cs2 4.076389 1_555
Cl8 Cs1 4.076389 1_555
Cl9 Cs1 3.624924 1_655
Cl9 Cs2 3.624924 1_565
Cl9 Cs0 3.624924 1_564
Cl9 Cs3 3.624924 1_654
Cl10 Sb0 2.418456 1_555
Cl10 Cs3 4.076389 1_555
Cl10 Cs0 4.076389 1_565
Cl10 Cs1 4.076389 1_555
Cl10 Cs2 4.076389 1_565
Cl11 Cs1 3.624924 1_655
Cl11 Cs2 3.624924 1_555
Cl11 Cs0 3.624924 1_554
Cl11 Cs3 3.624924 1_654
