# generated using pymatgen
data_U4Ga20Pd11
_symmetry_space_group_name_H-M   'P 1'
_cell_length_a   4.20019200
_cell_length_b   11.07718868
_cell_length_c   13.61274395
_cell_angle_alpha   81.90034171
_cell_angle_beta   81.12529185
_cell_angle_gamma   79.07129053
_symmetry_Int_Tables_number   1
_chemical_formula_structural   U4Ga20Pd11
_chemical_formula_sum   'U4 Ga20 Pd11'
_cell_volume   610.33684100
_cell_formula_units_Z   1
loop_
 _symmetry_equiv_pos_site_id
 _symmetry_equiv_pos_as_xyz
  1  'x, y, z'
loop_
 _atom_site_type_symbol
 _atom_site_label
 _atom_site_symmetry_multiplicity
 _atom_site_fract_x
 _atom_site_fract_y
 _atom_site_fract_z
 _atom_site_occupancy
  U  U0  1  0.87830700  0.90585400  0.33753100  1
  U  U1  1  0.12169300  0.09414600  0.66246900  1
  U  U2  1  0.22823100  0.36585400  0.17768300  1
  U  U3  1  0.77176900  0.63414600  0.82231700  1
  Ga  Ga0  1  0.99681600  0.92148100  0.08488600  1
  Ga  Ga1  1  0.00318400  0.07851900  0.91511400  1
  Ga  Ga2  1  0.93293600  0.33129100  0.80283700  1
  Ga  Ga3  1  0.06706400  0.66870900  0.19716300  1
  Ga  Ga4  1  0.89657200  0.66073700  0.54611800  1
  Ga  Ga5  1  0.10342800  0.33926300  0.45388200  1
  Ga  Ga6  1  0.79913300  0.39121000  0.01052500  1
  Ga  Ga7  1  0.20086700  0.60879000  0.98947500  1
  Ga  Ga8  1  0.74855600  0.21106900  0.29181900  1
  Ga  Ga9  1  0.25144400  0.78893100  0.70818100  1
  Ga  Ga10  1  0.70024600  0.09904000  0.50046700  1
  Ga  Ga11  1  0.29975400  0.90096000  0.49953300  1
  Ga  Ga12  1  0.61364400  0.46668000  0.30603300  1
  Ga  Ga13  1  0.38635600  0.53332000  0.69396700  1
  Ga  Ga14  1  0.60647800  0.78683500  0.00020900  1
  Ga  Ga15  1  0.39352200  0.21316500  0.99979100  1
  Ga  Ga16  1  0.45669600  0.70926100  0.37734700  1
  Ga  Ga17  1  0.54330400  0.29073900  0.62265300  1
  Ga  Ga18  1  0.36832000  0.06033800  0.20302200  1
  Ga  Ga19  1  0.63168000  0.93966200  0.79697800  1
  Pd  Pd0  1  0.50000000  0.50000000  0.50000000  1
  Pd  Pd1  1  0.97103400  0.43050100  0.62743200  1
  Pd  Pd2  1  0.02896600  0.56949900  0.37256800  1
  Pd  Pd3  1  0.86892100  0.15520300  0.10695600  1
  Pd  Pd4  1  0.13107900  0.84479700  0.89304400  1
  Pd  Pd5  1  0.75870600  0.87044400  0.61214500  1
  Pd  Pd6  1  0.24129400  0.12955600  0.38785500  1
  Pd  Pd7  1  0.65597700  0.57596900  0.11207800  1
  Pd  Pd8  1  0.34402300  0.42403100  0.88792200  1
  Pd  Pd9  1  0.49693200  0.82133800  0.18479800  1
  Pd  Pd10  1  0.50306800  0.17866200  0.81520200  1
loop_
_geom_bond_atom_site_label_1
_geom_bond_atom_site_label_2
_geom_bond_distance
_geom_bond_site_symmetry_2
Ga0 Pd3 2.593010 1_565
Ga0 Pd9 2.658121 1_555
Ga0 Pd9 2.658124 1_655
Ga0 Ga1 2.689506 1_664
Ga0 Pd4 2.801526 1_654
Ga0 Ga14 2.869836 1_555
Ga0 Ga14 2.869840 1_655
Ga0 Ga3 2.980442 1_655
Ga0 Ga18 3.125411 1_565
Ga0 Ga18 3.125413 1_665
Ga0 U0 3.382673 1_555
Ga1 Pd4 2.593010 1_545
Ga1 Pd10 2.658121 1_555
Ga1 Pd10 2.658124 1_455
Ga1 Pd3 2.801526 1_456
Ga1 Ga15 2.869836 1_555
Ga1 Ga15 2.869840 1_455
Ga1 Ga2 2.980442 1_455
Ga1 Ga19 3.125411 1_545
Ga1 Ga19 3.125413 1_445
Ga1 U1 3.382673 1_555
Ga2 Pd1 2.478711 1_555
Ga2 Pd8 2.646334 1_655
Ga2 Pd8 2.646337 1_555
Ga2 Pd10 2.670251 1_555
Ga2 Pd10 2.670251 1_655
Ga2 Ga6 2.940504 1_556
Ga2 U3 3.334265 1_555
Ga2 U1 3.367138 1_655
Ga3 Pd2 2.478711 1_555
Ga3 Pd7 2.646334 1_455
Ga3 Pd7 2.646337 1_555
Ga3 Pd9 2.670251 1_555
Ga3 Pd9 2.670251 1_455
Ga3 Ga7 2.940504 1_554
Ga3 U2 3.334265 1_555
Ga3 U0 3.367138 1_455
Ga4 Pd5 2.541073 1_555
Ga4 Pd1 2.614633 1_555
Ga4 Pd2 2.639394 1_655
Ga4 Pd0 2.846228 1_555
Ga4 Pd0 2.846231 1_655
Ga5 Pd6 2.541073 1_555
Ga5 Pd2 2.614633 1_555
Ga5 Pd1 2.639394 1_455
Ga5 Pd0 2.846228 1_555
Ga5 Pd0 2.846231 1_455
Ga6 Pd7 2.556444 1_555
Ga6 Pd8 2.668608 1_654
Ga6 Pd8 2.668614 1_554
Ga6 Pd3 2.739476 1_555
Ga6 U2 3.065664 1_655
Ga6 U2 3.065670 1_555
Ga6 U3 3.442339 1_554
Ga7 Pd8 2.556444 1_555
Ga7 Pd7 2.668608 1_456
Ga7 Pd7 2.668614 1_556
Ga7 Pd4 2.739476 1_555
Ga7 U3 3.065664 1_455
Ga7 U3 3.065670 1_555
Ga7 U2 3.442339 1_556
Ga8 Pd6 2.569279 1_655
Ga8 Pd6 2.569282 1_555
Ga8 Pd3 2.626584 1_555
Ga8 U2 3.001036 1_655
Ga8 U2 3.001039 1_555
Ga8 U0 3.305755 1_545
Ga9 Pd5 2.569279 1_455
Ga9 Pd5 2.569282 1_555
Ga9 Pd4 2.626584 1_555
Ga9 U3 3.001036 1_455
Ga9 U3 3.001039 1_555
Ga9 U1 3.305755 1_565
Ga10 Pd6 2.588220 1_555
Ga10 Pd6 2.588220 1_655
Ga10 Pd5 2.752839 1_545
Ga10 Ga17 2.799368 1_555
Ga10 Ga8 2.927925 1_555
Ga10 Ga11 3.009669 1_545
Ga10 Ga11 3.009675 1_645
Ga10 U1 3.022265 1_555
Ga10 U1 3.022271 1_655
Ga10 U0 3.205797 1_545
Ga11 Pd5 2.588220 1_455
Ga11 Pd5 2.588220 1_555
Ga11 Pd6 2.752839 1_565
Ga11 Ga16 2.799368 1_555
Ga11 Ga9 2.927925 1_555
Ga11 U0 3.022265 1_555
Ga11 U0 3.022271 1_455
Ga11 U1 3.205797 1_565
Ga12 Pd2 2.586912 1_655
Ga12 Pd2 2.586918 1_555
Ga12 Pd0 2.674854 1_555
Ga12 Pd7 2.739388 1_555
Ga12 Ga8 2.808529 1_555
Ga12 Ga16 2.909213 1_555
Ga12 U2 3.004782 1_655
Ga12 U2 3.004788 1_555
Ga12 Ga5 3.106587 1_655
Ga12 Ga5 3.106587 1_555
Ga13 Pd1 2.586912 1_455
Ga13 Pd1 2.586918 1_555
Ga13 Pd0 2.674854 1_555
Ga13 Pd8 2.739388 1_555
Ga13 Ga9 2.808529 1_555
Ga13 Ga17 2.909213 1_555
Ga13 U3 3.004782 1_455
Ga13 U3 3.004788 1_555
Ga13 Ga4 3.106587 1_555
Ga13 Ga4 3.106587 1_455
Ga14 Pd9 2.553227 1_555
Ga14 Pd4 2.583823 1_654
Ga14 Pd4 2.583827 1_554
Ga14 Pd7 2.594120 1_555
Ga14 Ga7 2.871498 1_654
Ga14 Ga7 2.871501 1_554
Ga14 Ga19 3.031275 1_554
Ga14 U3 3.065457 1_554
Ga15 Pd10 2.553227 1_555
Ga15 Pd3 2.583823 1_456
Ga15 Pd3 2.583827 1_556
Ga15 Pd8 2.594120 1_555
Ga15 Ga6 2.871498 1_456
Ga15 Ga6 2.871501 1_556
Ga15 Ga18 3.031275 1_556
Ga15 U2 3.065457 1_556
Ga16 Pd2 2.597633 1_655
Ga16 Pd2 2.597636 1_555
Ga16 Pd0 2.652782 1_555
Ga16 Pd9 2.732407 1_555
Ga16 U0 3.000921 1_555
Ga16 U0 3.000923 1_455
Ga16 Ga4 3.092858 1_555
Ga16 Ga4 3.092861 1_455
Ga17 Pd1 2.597633 1_455
Ga17 Pd1 2.597636 1_555
Ga17 Pd0 2.652782 1_555
Ga17 Pd10 2.732407 1_555
Ga17 U1 3.000921 1_555
Ga17 U1 3.000923 1_655
Ga17 Ga5 3.092858 1_555
Ga17 Ga5 3.092861 1_655
Ga18 Pd3 2.614870 1_455
Ga18 Pd3 2.614874 1_555
Ga18 Pd9 2.638899 1_545
Ga18 Pd6 2.679094 1_555
Ga18 Ga8 2.995836 1_455
Ga18 Ga8 2.995836 1_555
Ga18 U0 3.131573 1_545
Ga18 U0 3.131576 1_445
Ga18 U2 3.301064 1_555
Ga19 Pd4 2.614870 1_655
Ga19 Pd4 2.614874 1_555
Ga19 Pd10 2.638899 1_565
Ga19 Pd5 2.679094 1_555
Ga19 Ga9 2.995836 1_655
Ga19 Ga9 2.995836 1_555
Ga19 U1 3.131573 1_565
Ga19 U1 3.131576 1_665
Ga19 U3 3.301064 1_555
Pd0 Pd2 2.760639 1_655
Pd0 Pd1 2.760639 1_455
Pd0 Pd2 2.760642 1_555
Pd0 Pd1 2.760642 1_555
Pd3 U2 3.326572 1_655
Pd3 U2 3.326577 1_555
Pd4 U3 3.326572 1_455
Pd4 U3 3.326577 1_555
Pd5 U1 3.341751 1_565
Pd5 U1 3.341751 1_665
Pd6 U0 3.341751 1_545
Pd6 U0 3.341751 1_445
Pd7 Pd9 2.946081 1_555
Pd7 U2 3.153934 1_655
Pd7 U2 3.153939 1_555
Pd8 U3 3.153934 1_455
Pd8 U3 3.153939 1_555
Pd9 U0 3.147989 1_555
Pd9 U0 3.147991 1_455
Pd10 Pd8 2.946081 1_555
Pd10 U1 3.147989 1_555
Pd10 U1 3.147991 1_655
