# generated using pymatgen
data_Tb2MgSi2
_symmetry_space_group_name_H-M   'P 1'
_cell_length_a   7.19453282
_cell_length_b   7.19453282
_cell_length_c   4.22237926
_cell_angle_alpha   90.00000000
_cell_angle_beta   90.00000000
_cell_angle_gamma   90.00000000
_symmetry_Int_Tables_number   1
_chemical_formula_structural   Tb2MgSi2
_chemical_formula_sum   'Tb4 Mg2 Si4'
_cell_volume   218.55585014
_cell_formula_units_Z   2
loop_
 _symmetry_equiv_pos_site_id
 _symmetry_equiv_pos_as_xyz
  1  'x, y, z'
loop_
 _atom_site_type_symbol
 _atom_site_label
 _atom_site_symmetry_multiplicity
 _atom_site_fract_x
 _atom_site_fract_y
 _atom_site_fract_z
 _atom_site_occupancy
  Tb  Tb0  1  0.67870328  0.17870328  0.50000000  1
  Tb  Tb1  1  0.32129672  0.82129672  0.50000000  1
  Tb  Tb2  1  0.17870328  0.32129672  0.50000000  1
  Tb  Tb3  1  0.82129672  0.67870328  0.50000000  1
  Mg  Mg0  1  -0.00000000  -0.00000000  -0.00000000  1
  Mg  Mg1  1  0.50000000  0.50000000  -0.00000000  1
  Si  Si0  1  0.11700548  0.61700548  -0.00000000  1
  Si  Si1  1  0.88299452  0.38299452  0.00000000  1
  Si  Si2  1  0.61700548  0.88299452  -0.00000000  1
  Si  Si3  1  0.38299452  0.11700548  0.00000000  1
loop_
_geom_bond_atom_site_label_1
_geom_bond_atom_site_label_2
_geom_bond_distance
_geom_bond_site_symmetry_2
Mg0 Si0 2.881184 1_545
Mg0 Si3 2.881184 1_555
Mg0 Si1 2.881184 1_455
Mg0 Si2 2.881184 1_445
Mg1 Si3 2.881184 1_555
Mg1 Si1 2.881184 1_555
Mg1 Si0 2.881184 1_555
Mg1 Si2 2.881184 1_555
Si0 Si1 2.380969 1_455
Si0 Tb1 2.962706 1_555
Si0 Tb1 2.962706 1_554
Si0 Tb2 3.029910 1_554
Si0 Tb3 3.029910 1_455
Si0 Tb3 3.029910 1_454
Si0 Tb2 3.029910 1_555
Si1 Tb0 2.962706 1_555
Si1 Tb0 2.962706 1_554
Si1 Tb2 3.029910 1_655
Si1 Tb2 3.029910 1_654
Si1 Tb3 3.029910 1_555
Si1 Tb3 3.029910 1_554
Si2 Si3 2.380969 1_565
Si2 Tb3 2.962706 1_554
Si2 Tb3 2.962706 1_555
Si2 Tb0 3.029910 1_565
Si2 Tb0 3.029910 1_564
Si2 Tb1 3.029910 1_554
Si2 Tb1 3.029910 1_555
Si3 Tb2 2.962706 1_554
Si3 Tb2 2.962706 1_555
Si3 Tb1 3.029910 1_545
Si3 Tb0 3.029910 1_555
Si3 Tb0 3.029910 1_554
Si3 Tb1 3.029910 1_544
