# generated using pymatgen
data_BaNaPO4
_symmetry_space_group_name_H-M   'P 1'
_cell_length_a   5.69731070
_cell_length_b   5.69731070
_cell_length_c   7.31331900
_cell_angle_alpha   90.00000000
_cell_angle_beta   90.00000000
_cell_angle_gamma   120.00000811
_symmetry_Int_Tables_number   1
_chemical_formula_structural   BaNaPO4
_chemical_formula_sum   'Ba2 Na2 P2 O8'
_cell_volume   205.58192182
_cell_formula_units_Z   2
loop_
 _symmetry_equiv_pos_site_id
 _symmetry_equiv_pos_as_xyz
  1  'x, y, z'
loop_
 _atom_site_type_symbol
 _atom_site_label
 _atom_site_symmetry_multiplicity
 _atom_site_fract_x
 _atom_site_fract_y
 _atom_site_fract_z
 _atom_site_occupancy
  Ba  Ba0  1  0.66666700  0.33333300  0.51250200  1
  Ba  Ba1  1  0.33333300  0.66666700  0.15295700  1
  Na  Na0  1  0.66666700  0.33333300  0.99295200  1
  Na  Na1  1  0.00000000  0.00000000  0.81063400  1
  P  P0  1  0.00000000  0.00000000  0.28516000  1
  P  P1  1  0.33333300  0.66666700  0.72059200  1
  O  O0  1  0.85164600  0.14835400  0.20758200  1
  O  O1  1  0.85164600  0.70329100  0.20758200  1
  O  O2  1  0.29670900  0.14835400  0.20758200  1
  O  O3  1  0.48074900  0.51925100  0.79915400  1
  O  O4  1  0.48074900  0.96149800  0.79915400  1
  O  O5  1  0.03850200  0.51925100  0.79915400  1
  O  O6  1  0.00000000  0.00000000  0.49526600  1
  O  O7  1  0.33333300  0.66666700  0.50970200  1
loop_
_geom_bond_atom_site_label_1
_geom_bond_atom_site_label_2
_geom_bond_distance
_geom_bond_site_symmetry_2
Ba0 O4 2.785804 1_545
Ba0 O5 2.785804 1_655
Ba0 O3 2.785807 1_555
Ba0 O1 2.881806 1_555
Ba0 O2 2.881806 1_555
Ba0 O0 2.881806 1_555
Ba0 O7 3.289404 1_545
Ba0 O7 3.289404 1_655
Ba0 O7 3.289414 1_555
Ba0 O6 3.291755 1_655
Ba0 O6 3.291760 1_665
Ba0 O6 3.291760 1_555
Ba1 O7 2.608990 1_555
Ba1 O1 2.882196 1_455
Ba1 O2 2.882196 1_565
Ba1 O0 2.882201 1_565
Ba1 O0 2.882201 1_455
Ba1 O1 2.882207 1_555
Ba1 O2 2.882207 1_555
Ba1 O5 2.968363 1_554
Ba1 O4 2.968363 1_554
Ba1 O3 2.968365 1_554
Na0 O4 2.318331 1_545
Na0 O5 2.318331 1_655
Na0 O3 2.318335 1_555
Na0 O1 2.407453 1_556
Na0 O2 2.407453 1_556
Na0 O0 2.407454 1_556
Na1 O6 2.306387 1_555
Na1 O3 2.856216 1_445
Na1 O3 2.856216 1_555
Na1 O4 2.856217 1_445
Na1 O5 2.856217 1_555
Na1 O5 2.856217 1_545
Na1 O4 2.856217 1_545
O0 P0 1.570055 1_655
O1 P0 1.570060 1_665
O2 P0 1.570060 1_555
O3 P1 1.564057 1_555
O4 P1 1.564053 1_555
O5 P1 1.564053 1_555
O6 P0 1.536572 1_555
O7 P1 1.542306 1_555
