# generated using pymatgen
data_NaMn16O32
_symmetry_space_group_name_H-M   'P 1'
_cell_length_a   9.73544940
_cell_length_b   9.73543948
_cell_length_c   5.72632799
_cell_angle_alpha   90.00002482
_cell_angle_beta   90.00001817
_cell_angle_gamma   89.99997134
_symmetry_Int_Tables_number   1
_chemical_formula_structural   NaMn16O32
_chemical_formula_sum   'Na1 Mn16 O32'
_cell_volume   542.73494450
_cell_formula_units_Z   1
loop_
 _symmetry_equiv_pos_site_id
 _symmetry_equiv_pos_as_xyz
  1  'x, y, z'
loop_
 _atom_site_type_symbol
 _atom_site_label
 _atom_site_symmetry_multiplicity
 _atom_site_fract_x
 _atom_site_fract_y
 _atom_site_fract_z
 _atom_site_occupancy
  Na  Na0  1  0.49999868  0.49999953  -0.00000040  1
  Mn  Mn0  1  0.34896035  0.16693765  0.25068889  1
  Mn  Mn1  1  0.34896040  0.16693765  0.74931049  1
  Mn  Mn2  1  0.83306304  0.34896510  0.25069163  1
  Mn  Mn3  1  0.83306136  0.34896498  0.74931124  1
  Mn  Mn4  1  0.16694431  0.65103536  0.74930949  1
  Mn  Mn5  1  0.16694425  0.65103544  0.25068993  1
  Mn  Mn6  1  0.65103174  0.83306251  0.74930998  1
  Mn  Mn7  1  0.65103184  0.83306245  0.25068926  1
  Mn  Mn8  1  0.84773304  0.66790956  0.49999993  1
  Mn  Mn9  1  0.84903303  0.66775018  -0.00000049  1
  Mn  Mn10  1  0.33208579  0.84772888  0.49999957  1
  Mn  Mn11  1  0.33224648  0.84902935  -0.00000026  1
  Mn  Mn12  1  0.66790487  0.15227396  0.49999916  1
  Mn  Mn13  1  0.66774474  0.15097366  0.00000070  1
  Mn  Mn14  1  0.15227808  0.33208808  0.49999973  1
  Mn  Mn15  1  0.15097785  0.33224710  -0.00000053  1
  O  O0  1  0.66213078  0.95810487  0.49999987  1
  O  O1  1  0.66208699  0.95765791  -0.00000032  1
  O  O2  1  0.04190851  0.66213906  0.49999958  1
  O  O3  1  0.04235567  0.66208986  -0.00000034  1
  O  O4  1  0.95810743  0.33786055  0.50000298  1
  O  O5  1  0.95766048  0.33790956  0.00000277  1
  O  O6  1  0.33786287  0.04189915  0.49999953  1
  O  O7  1  0.33790678  0.04234662  -0.00000052  1
  O  O8  1  0.16578535  0.45729308  0.75012986  1
  O  O9  1  0.16578538  0.45729310  0.24986962  1
  O  O10  1  0.54269156  0.16577963  0.75013003  1
  O  O11  1  0.54269165  0.16577974  0.24986932  1
  O  O12  1  0.45728690  0.83422199  0.24986954  1
  O  O13  1  0.45728671  0.83422094  0.75012842  1
  O  O14  1  0.83422084  0.54270458  0.24987138  1
  O  O15  1  0.83422091  0.54270396  0.75012949  1
  O  O16  1  0.84364790  0.79651533  0.24964382  1
  O  O17  1  0.84364792  0.79651540  0.75035589  1
  O  O18  1  0.20349490  0.84364573  0.75035565  1
  O  O19  1  0.20349496  0.84364575  0.24964379  1
  O  O20  1  0.15636335  0.20348580  0.75035608  1
  O  O21  1  0.15636335  0.20348577  0.24964290  1
  O  O22  1  0.79651159  0.15635463  0.24964472  1
  O  O23  1  0.79651173  0.15635397  0.75035646  1
  O  O24  1  0.34607966  0.29684672  0.49999975  1
  O  O25  1  0.34712970  0.29912416  -0.00000024  1
  O  O26  1  0.70313914  0.34608197  0.50000199  1
  O  O27  1  0.70086227  0.34713190  0.00000141  1
  O  O28  1  0.65391210  0.70314499  0.49999956  1
  O  O29  1  0.65286151  0.70086794  -0.00000039  1
  O  O30  1  0.29685719  0.65392207  0.49999953  1
  O  O31  1  0.29913406  0.65287179  -0.00000047  1
loop_
_geom_bond_atom_site_label_1
_geom_bond_atom_site_label_2
_geom_bond_distance
_geom_bond_site_symmetry_2
Na0 O27 2.457398 1_555
Na0 O29 2.457408 1_555
Na0 O31 2.457433 1_555
Na0 O25 2.457498 1_555
Mn0 O6 1.879267 1_555
Mn0 O7 1.882437 1_555
Mn0 O11 1.886101 1_555
Mn0 O24 1.907472 1_555
Mn0 O21 1.908489 1_555
Mn0 O25 1.927993 1_555
Mn1 O6 1.879268 1_555
Mn1 O7 1.882436 1_556
Mn1 O10 1.886099 1_555
Mn1 O24 1.907473 1_555
Mn1 O20 1.908490 1_555
Mn1 O25 1.927992 1_556
Mn2 O4 1.879311 1_555
Mn2 O5 1.882477 1_555
Mn2 O14 1.886179 1_555
Mn2 O26 1.907568 1_555
Mn2 O22 1.908623 1_555
Mn2 O27 1.928090 1_555
Mn3 O4 1.879309 1_555
Mn3 O5 1.882499 1_556
Mn3 O15 1.886174 1_555
Mn3 O26 1.907551 1_555
Mn3 O23 1.908625 1_555
Mn3 O27 1.928080 1_556
Mn4 O2 1.879251 1_555
Mn4 O3 1.882427 1_556
Mn4 O8 1.886206 1_555
Mn4 O30 1.907495 1_555
Mn4 O18 1.908620 1_555
Mn4 O31 1.928018 1_556
Mn5 O2 1.879249 1_555
Mn5 O3 1.882427 1_555
Mn5 O9 1.886206 1_555
Mn5 O30 1.907494 1_555
Mn5 O19 1.908620 1_555
Mn5 O31 1.928021 1_555
Mn6 O0 1.879290 1_555
Mn6 O1 1.882466 1_556
Mn6 O13 1.886234 1_555
Mn6 O28 1.907525 1_555
Mn6 O17 1.908671 1_555
Mn6 O29 1.928047 1_556
Mn7 O0 1.879292 1_555
Mn7 O1 1.882467 1_555
Mn7 O12 1.886234 1_555
Mn7 O28 1.907525 1_555
Mn7 O16 1.908670 1_555
Mn7 O29 1.928046 1_555
Mn8 O14 1.885369 1_555
Mn8 O15 1.885379 1_555
Mn8 O2 1.891220 1_655
Mn8 O17 1.903796 1_555
Mn8 O16 1.903797 1_555
Mn8 O28 1.917861 1_555
Mn9 O3 1.882889 1_655
Mn9 O15 1.884172 1_554
Mn9 O14 1.884177 1_555
Mn9 O17 1.902056 1_554
Mn9 O16 1.902057 1_555
Mn9 O29 1.936842 1_555
Mn10 O13 1.885343 1_555
Mn10 O12 1.885349 1_555
Mn10 O6 1.891169 1_565
Mn10 O19 1.903699 1_555
Mn10 O18 1.903702 1_555
Mn10 O30 1.917712 1_555
Mn11 O7 1.882835 1_565
Mn11 O12 1.884132 1_555
Mn11 O13 1.884138 1_554
Mn11 O18 1.901970 1_554
Mn11 O19 1.901970 1_555
Mn11 O31 1.936698 1_555
Mn12 O11 1.885423 1_555
Mn12 O10 1.885429 1_555
Mn12 O0 1.891157 1_545
Mn12 O22 1.903795 1_555
Mn12 O23 1.903808 1_555
Mn12 O26 1.917734 1_555
Mn13 O1 1.882820 1_545
Mn13 O11 1.884206 1_555
Mn13 O10 1.884215 1_554
Mn13 O22 1.902067 1_555
Mn13 O23 1.902069 1_554
Mn13 O27 1.936712 1_555
Mn14 O8 1.885373 1_555
Mn14 O9 1.885374 1_555
Mn14 O4 1.891174 1_455
Mn14 O20 1.903775 1_555
Mn14 O21 1.903777 1_555
Mn14 O24 1.917686 1_555
Mn15 O5 1.882839 1_455
Mn15 O8 1.884166 1_554
Mn15 O9 1.884168 1_555
Mn15 O20 1.902029 1_554
Mn15 O21 1.902030 1_555
Mn15 O25 1.936661 1_555
