# generated using pymatgen
data_Er4CdNi
_symmetry_space_group_name_H-M   'P 1'
_cell_length_a   9.39874203
_cell_length_b   9.39889039
_cell_length_c   9.39885047
_cell_angle_alpha   60.00142995
_cell_angle_beta   60.00182273
_cell_angle_gamma   60.00123404
_symmetry_Int_Tables_number   1
_chemical_formula_structural   Er4CdNi
_chemical_formula_sum   'Er16 Cd4 Ni4'
_cell_volume   587.11176398
_cell_formula_units_Z   4
loop_
 _symmetry_equiv_pos_site_id
 _symmetry_equiv_pos_as_xyz
  1  'x, y, z'
loop_
 _atom_site_type_symbol
 _atom_site_label
 _atom_site_symmetry_multiplicity
 _atom_site_fract_x
 _atom_site_fract_y
 _atom_site_fract_z
 _atom_site_occupancy
  Er  Er0  1  0.34869656  0.34869701  0.34868894  1
  Er  Er1  1  0.34871915  0.34869816  0.95389120  1
  Er  Er2  1  0.34870459  0.95391099  0.34869177  1
  Er  Er3  1  0.95392595  0.34869863  0.34869485  1
  Er  Er4  1  0.81134769  0.18866469  0.18866459  1
  Er  Er5  1  0.18866730  0.81133218  0.81133370  1
  Er  Er6  1  0.18866485  0.81134317  0.18866589  1
  Er  Er7  1  0.81133682  0.18866154  0.81133939  1
  Er  Er8  1  0.18866705  0.18867081  0.81134539  1
  Er  Er9  1  0.81134636  0.81132439  0.18866666  1
  Er  Er10  1  0.93709566  0.56290205  0.56289773  1
  Er  Er11  1  0.56289639  0.93711325  0.93711565  1
  Er  Er12  1  0.56290015  0.93709881  0.56289316  1
  Er  Er13  1  0.93711288  0.56289111  0.93711656  1
  Er  Er14  1  0.56288466  0.56289476  0.93710738  1
  Er  Er15  1  0.93710293  0.93710737  0.56290316  1
  Cd  Cd0  1  0.58093779  0.58092257  0.58091169  1
  Cd  Cd1  1  0.58091864  0.58092129  0.25721102  1
  Cd  Cd2  1  0.58093266  0.25719898  0.58092323  1
  Cd  Cd3  1  0.25719997  0.58093950  0.58091350  1
  Ni  Ni0  1  0.14236076  0.14235846  0.14239574  1
  Ni  Ni1  1  0.14240145  0.14242009  0.57278752  1
  Ni  Ni2  1  0.14238745  0.57282151  0.14242201  1
  Ni  Ni3  1  0.57279129  0.14240667  0.14241827  1
loop_
_geom_bond_atom_site_label_1
_geom_bond_atom_site_label_2
_geom_bond_distance
_geom_bond_site_symmetry_2
Er0 Ni3 2.747027 1_555
Er0 Ni1 2.747094 1_555
Er0 Ni2 2.747104 1_555
Er1 Ni3 2.747213 1_556
Er1 Ni2 2.747631 1_556
Er1 Ni0 2.747936 1_556
Er2 Ni3 2.747145 1_565
Er2 Ni1 2.747303 1_565
Er2 Ni0 2.747536 1_565
Er3 Ni1 2.747033 1_655
Er3 Ni2 2.747183 1_655
Er3 Ni0 2.747579 1_655
Er4 Ni0 2.745893 1_655
Er4 Ni3 2.746521 1_555
Er5 Ni2 2.746654 1_556
Er5 Ni1 2.746759 1_565
Er6 Ni0 2.745963 1_565
Er6 Ni2 2.746337 1_555
Er7 Ni1 2.746621 1_655
Er7 Ni3 2.746705 1_556
Er8 Ni0 2.746138 1_556
Er8 Ni1 2.746628 1_555
Er9 Ni2 2.746311 1_655
Er9 Ni3 2.746738 1_565
Er10 Ni2 3.396525 1_655
Er10 Ni1 3.396645 1_655
Er11 Ni3 3.396628 1_566
Er11 Ni0 3.396774 1_566
Er12 Ni3 3.396578 1_565
Er12 Ni1 3.396717 1_565
Er13 Ni2 3.396665 1_656
Er13 Ni0 3.396771 1_656
Er14 Ni2 3.396641 1_556
Er14 Ni3 3.396659 1_556
Er15 Ni0 3.396605 1_665
Er15 Ni1 3.396678 1_665
Cd0 Cd1 3.042510 1_555
Cd0 Cd2 3.042612 1_555
Cd0 Cd3 3.042640 1_555
Cd0 Er10 3.187113 1_555
Cd0 Er12 3.187247 1_555
Cd0 Er14 3.187313 1_555
Cd0 Er1 3.358330 1_555
Cd0 Er3 3.358337 1_555
Cd0 Er2 3.358374 1_555
Cd0 Er9 3.419576 1_555
Cd0 Er7 3.419676 1_555
Cd0 Er5 3.419744 1_555
Cd1 Cd3 3.042574 1_555
Cd1 Cd2 3.042642 1_555
Cd1 Er14 3.187085 1_554
Cd1 Er13 3.187277 1_554
Cd1 Er11 3.187278 1_554
Cd1 Er0 3.358212 1_555
Cd1 Er2 3.358457 1_555
Cd1 Er3 3.358555 1_555
Cd1 Er6 3.419482 1_555
Cd1 Er4 3.419566 1_555
Cd1 Er9 3.419726 1_555
Cd2 Cd3 3.042798 1_555
Cd2 Er12 3.187077 1_545
Cd2 Er15 3.187120 1_545
Cd2 Er11 3.187241 1_545
Cd2 Er0 3.358302 1_555
Cd2 Er1 3.358367 1_555
Cd2 Er3 3.358540 1_555
Cd2 Er8 3.419540 1_555
Cd2 Er4 3.419541 1_555
Cd2 Er7 3.419646 1_555
Cd3 Er10 3.187020 1_455
Cd3 Er15 3.187136 1_455
Cd3 Er13 3.187298 1_455
Cd3 Er0 3.358327 1_555
Cd3 Er2 3.358418 1_555
Cd3 Er1 3.358504 1_555
Cd3 Er6 3.419433 1_555
Cd3 Er8 3.419617 1_555
Cd3 Er5 3.419650 1_555
