# generated using pymatgen
data_YMg14MnO16
_symmetry_space_group_name_H-M   'P 1'
_cell_length_a   8.74293500
_cell_length_b   8.74293500
_cell_length_c   4.37664900
_cell_angle_alpha   90.00000000
_cell_angle_beta   90.00000000
_cell_angle_gamma   90.00000000
_symmetry_Int_Tables_number   1
_chemical_formula_structural   YMg14MnO16
_chemical_formula_sum   'Y1 Mg14 Mn1 O16'
_cell_volume   334.54628958
_cell_formula_units_Z   1
loop_
 _symmetry_equiv_pos_site_id
 _symmetry_equiv_pos_as_xyz
  1  'x, y, z'
loop_
 _atom_site_type_symbol
 _atom_site_label
 _atom_site_symmetry_multiplicity
 _atom_site_fract_x
 _atom_site_fract_y
 _atom_site_fract_z
 _atom_site_occupancy
  Y  Y0  1  0.50000000  0.50000000  0.00000000  1
  Mg  Mg0  1  0.50000000  0.00000000  0.00000000  1
  Mg  Mg1  1  0.00000000  0.50000000  0.00000000  1
  Mg  Mg2  1  0.24974700  0.00000000  0.50000000  1
  Mg  Mg3  1  0.75025300  0.00000000  0.50000000  1
  Mg  Mg4  1  0.23616300  0.50000000  0.50000000  1
  Mg  Mg5  1  0.76383700  0.50000000  0.50000000  1
  Mg  Mg6  1  0.00000000  0.24974700  0.50000000  1
  Mg  Mg7  1  0.50000000  0.23616300  0.50000000  1
  Mg  Mg8  1  0.00000000  0.75025300  0.50000000  1
  Mg  Mg9  1  0.50000000  0.76383700  0.50000000  1
  Mg  Mg10  1  0.24310200  0.24310200  0.00000000  1
  Mg  Mg11  1  0.75689800  0.24310200  0.00000000  1
  Mg  Mg12  1  0.24310200  0.75689800  0.00000000  1
  Mg  Mg13  1  0.75689800  0.75689800  0.00000000  1
  Mn  Mn0  1  0.00000000  0.00000000  0.00000000  1
  O  O0  1  0.00000000  0.25765900  0.00000000  1
  O  O1  1  0.50000000  0.24188800  0.00000000  1
  O  O2  1  0.00000000  0.74234100  0.00000000  1
  O  O3  1  0.50000000  0.75811200  0.00000000  1
  O  O4  1  0.25027800  0.25027800  0.50000000  1
  O  O5  1  0.74972200  0.25027800  0.50000000  1
  O  O6  1  0.25027800  0.74972200  0.50000000  1
  O  O7  1  0.74972200  0.74972200  0.50000000  1
  O  O8  1  0.00000000  0.00000000  0.50000000  1
  O  O9  1  0.50000000  0.00000000  0.50000000  1
  O  O10  1  0.00000000  0.50000000  0.50000000  1
  O  O11  1  0.50000000  0.50000000  0.50000000  1
  O  O12  1  0.25765900  0.00000000  0.00000000  1
  O  O13  1  0.74234100  0.00000000  0.00000000  1
  O  O14  1  0.24188800  0.50000000  0.00000000  1
  O  O15  1  0.75811200  0.50000000  0.00000000  1
loop_
_geom_bond_atom_site_label_1
_geom_bond_atom_site_label_2
_geom_bond_distance
_geom_bond_site_symmetry_2
Mg0 O3 2.114811 1_545
Mg0 O1 2.114811 1_555
Mg0 O13 2.118772 1_555
Mg0 O12 2.118772 1_555
Mg0 O9 2.188324 1_555
Mg0 O9 2.188324 1_554
Mg1 O14 2.114811 1_555
Mg1 O15 2.114811 1_455
Mg1 O2 2.118772 1_555
Mg1 O0 2.118772 1_555
Mg1 O10 2.188324 1_555
Mg1 O10 2.188324 1_554
Mg2 O8 2.183522 1_555
Mg2 O9 2.187946 1_555
Mg2 O6 2.188169 1_545
Mg2 O4 2.188169 1_555
Mg2 O12 2.189418 1_556
Mg2 O12 2.189418 1_555
Mg3 O8 2.183522 1_655
Mg3 O9 2.187946 1_555
Mg3 O5 2.188169 1_555
Mg3 O7 2.188169 1_545
Mg3 O13 2.189418 1_556
Mg3 O13 2.189418 1_555
Mg4 O10 2.064758 1_555
Mg4 O4 2.186788 1_555
Mg4 O6 2.186788 1_555
Mg4 O14 2.188897 1_556
Mg4 O14 2.188897 1_555
Mg4 O11 2.306710 1_555
Mg5 O10 2.064758 1_655
Mg5 O5 2.186788 1_555
Mg5 O7 2.186788 1_555
Mg5 O15 2.188897 1_556
Mg5 O15 2.188897 1_555
Mg5 O11 2.306710 1_555
Mg6 O8 2.183522 1_555
Mg6 O10 2.187946 1_555
Mg6 O4 2.188169 1_555
Mg6 O5 2.188169 1_455
Mg6 O0 2.189418 1_555
Mg6 O0 2.189418 1_556
Mg7 O9 2.064758 1_555
Mg7 O4 2.186788 1_555
Mg7 O5 2.186788 1_555
Mg7 O1 2.188897 1_555
Mg7 O1 2.188897 1_556
Mg7 O11 2.306710 1_555
Mg8 O8 2.183522 1_565
Mg8 O10 2.187946 1_555
Mg8 O6 2.188169 1_555
Mg8 O7 2.188169 1_455
Mg8 O2 2.189418 1_555
Mg8 O2 2.189418 1_556
Mg9 O9 2.064758 1_565
Mg9 O6 2.186788 1_555
Mg9 O7 2.186788 1_555
Mg9 O3 2.188897 1_555
Mg9 O3 2.188897 1_556
Mg9 O11 2.306710 1_555
Mg10 O12 2.129232 1_555
Mg10 O0 2.129232 1_555
Mg10 O4 2.190122 1_555
Mg10 O4 2.190122 1_554
Mg10 O1 2.246068 1_555
Mg10 O14 2.246068 1_555
Mg11 O13 2.129232 1_555
Mg11 O0 2.129232 1_655
Mg11 O5 2.190122 1_555
Mg11 O5 2.190122 1_554
Mg11 O1 2.246068 1_555
Mg11 O15 2.246068 1_555
Mg12 O2 2.129232 1_555
Mg12 O12 2.129232 1_565
Mg12 O6 2.190122 1_555
Mg12 O6 2.190122 1_554
Mg12 O14 2.246068 1_555
Mg12 O3 2.246068 1_555
Mg13 O13 2.129232 1_565
Mg13 O2 2.129232 1_655
Mg13 O7 2.190122 1_555
Mg13 O7 2.190122 1_554
Mg13 O15 2.246068 1_555
Mg13 O3 2.246068 1_555
Mn0 O8 2.188324 1_555
Mn0 O8 2.188324 1_554
Mn0 O12 2.252696 1_555
Mn0 O0 2.252696 1_555
Mn0 O2 2.252696 1_545
Mn0 O13 2.252696 1_455
O1 Y0 2.256656 1_555
O3 Y0 2.256656 1_555
O11 Y0 2.188324 1_556
O11 Y0 2.188324 1_555
O14 Y0 2.256656 1_555
O15 Y0 2.256656 1_555
