# generated using pymatgen
data_LiMn(PO3)3
_symmetry_space_group_name_H-M   'P 1'
_cell_length_a   12.18706730
_cell_length_b   12.18706730
_cell_length_c   9.92207947
_cell_angle_alpha   69.59686624
_cell_angle_beta   69.59686624
_cell_angle_gamma   110.36694612
_symmetry_Int_Tables_number   1
_chemical_formula_structural   LiMn(PO3)3
_chemical_formula_sum   'Li6 Mn6 P18 O54'
_cell_volume   1094.09635398
_cell_formula_units_Z   6
loop_
 _symmetry_equiv_pos_site_id
 _symmetry_equiv_pos_as_xyz
  1  'x, y, z'
loop_
 _atom_site_type_symbol
 _atom_site_label
 _atom_site_symmetry_multiplicity
 _atom_site_fract_x
 _atom_site_fract_y
 _atom_site_fract_z
 _atom_site_occupancy
  Li  Li0  1  0.74176900  0.80583100  0.20198400  1
  Li  Li1  1  0.14403700  0.40590300  0.66711200  1
  Li  Li2  1  0.39745900  0.65877800  0.94011600  1
  Li  Li3  1  0.80583100  0.74176900  0.70198400  1
  Li  Li4  1  0.40590300  0.14403700  0.16711200  1
  Li  Li5  1  0.65877800  0.39745900  0.44011600  1
  Mn  Mn0  1  0.92413500  0.41504000  0.53658100  1
  Mn  Mn1  1  0.74622500  0.56042400  0.06976200  1
  Mn  Mn2  1  0.56042400  0.74622500  0.56976200  1
  Mn  Mn3  1  0.41504000  0.92413500  0.03658100  1
  Mn  Mn4  1  0.07320200  0.23304500  0.07793300  1
  Mn  Mn5  1  0.23304500  0.07320200  0.57793300  1
  P  P0  1  0.86325200  0.91446600  0.85105800  1
  P  P1  1  0.88175200  0.15982100  0.88151300  1
  P  P2  1  0.48133000  0.52945300  0.41258400  1
  P  P3  1  0.61049900  0.00372300  0.21614800  1
  P  P4  1  0.67046200  0.94887500  0.72732400  1
  P  P5  1  0.59709900  0.21220000  0.32253100  1
  P  P6  1  0.82643800  0.21427000  0.37624900  1
  P  P7  1  0.26291700  0.31959100  0.25485400  1
  P  P8  1  0.29230200  0.56537600  0.28266600  1
  P  P9  1  0.94887500  0.67046200  0.22732400  1
  P  P10  1  0.91446600  0.86325200  0.35105800  1
  P  P11  1  0.56537600  0.29230200  0.78266600  1
  P  P12  1  0.00372300  0.61049900  0.71614800  1
  P  P13  1  0.52945300  0.48133000  0.91258400  1
  P  P14  1  0.21220000  0.59709900  0.82253100  1
  P  P15  1  0.15982100  0.88175200  0.38151300  1
  P  P16  1  0.21427000  0.82643800  0.87624900  1
  P  P17  1  0.31959100  0.26291700  0.75485400  1
  O  O0  1  0.84021500  0.00049000  0.94034800  1
  O  O1  1  0.98413900  0.00632800  0.20660900  1
  O  O2  1  0.65102400  0.92586200  0.32342200  1
  O  O3  1  0.76380200  0.89263700  0.77574300  1
  O  O4  1  0.89245300  0.22894100  0.71687600  1
  O  O5  1  0.34759000  0.40414700  0.60119400  1
  O  O6  1  0.74921500  0.13065400  0.03366800  1
  O  O7  1  0.77409800  0.79597100  0.50837200  1
  O  O8  1  0.92424400  0.50076000  0.69423000  1
  O  O9  1  0.92586200  0.65102400  0.82342200  1
  O  O10  1  0.78318400  0.07231400  0.53505100  1
  O  O11  1  0.26278600  0.26399900  0.41409300  1
  O  O12  1  0.41058600  0.59171400  0.32648000  1
  O  O13  1  0.90838500  0.33505100  0.38050000  1
  O  O14  1  0.88358900  0.20895500  0.22091800  1
  O  O15  1  0.47834300  0.55326700  0.81881300  1
  O  O16  1  0.69138900  0.35012600  0.15661900  1
  O  O17  1  0.99506200  0.61681600  0.34146500  1
  O  O18  1  0.55988500  0.09033100  0.28374200  1
  O  O19  1  0.61681600  0.99506200  0.84146500  1
  O  O20  1  0.50076000  0.92424400  0.19423000  1
  O  O21  1  0.57203700  0.64312800  0.42403300  1
  O  O22  1  0.56669300  0.83155400  0.73245000  1
  O  O23  1  0.30631400  0.48060200  0.18806800  1
  O  O24  1  0.00049000  0.84021500  0.44034800  1
  O  O25  1  0.00899300  0.23263900  0.88469600  1
  O  O26  1  0.79597100  0.77409800  0.00837200  1
  O  O27  1  0.46211600  0.18203500  0.44757400  1
  O  O28  1  0.69989900  0.33878600  0.63602000  1
  O  O29  1  0.14235800  0.24499600  0.24718300  1
  O  O30  1  0.33878600  0.69989900  0.13602000  1
  O  O31  1  0.09033100  0.55988500  0.78374200  1
  O  O32  1  0.67450300  0.19294600  0.42466900  1
  O  O33  1  0.55326700  0.47834300  0.31881300  1
  O  O34  1  0.15654400  0.48405500  0.44881200  1
  O  O35  1  0.20895500  0.88358900  0.72091800  1
  O  O36  1  0.48405500  0.15654400  0.94881200  1
  O  O37  1  0.83155400  0.56669300  0.23245000  1
  O  O38  1  0.64312800  0.57203700  0.92403300  1
  O  O39  1  0.89263700  0.76380200  0.27574300  1
  O  O40  1  0.59171400  0.41058600  0.82648000  1
  O  O41  1  0.35012600  0.69138900  0.65661900  1
  O  O42  1  0.24499600  0.14235800  0.74718300  1
  O  O43  1  0.18203500  0.46211600  0.94757400  1
  O  O44  1  0.13065400  0.74921500  0.53366800  1
  O  O45  1  0.33505100  0.90838500  0.88050000  1
  O  O46  1  0.23263900  0.00899300  0.38469600  1
  O  O47  1  0.22894100  0.89245300  0.21687600  1
  O  O48  1  0.19294600  0.67450300  0.92466900  1
  O  O49  1  0.40414700  0.34759000  0.10119400  1
  O  O50  1  0.48060200  0.30631400  0.68806800  1
  O  O51  1  0.00632800  0.98413900  0.70660900  1
  O  O52  1  0.07231400  0.78318400  0.03505100  1
  O  O53  1  0.26399900  0.26278600  0.91409300  1
loop_
_geom_bond_atom_site_label_1
_geom_bond_atom_site_label_2
_geom_bond_distance
_geom_bond_site_symmetry_2
Li0 O21 1.996504 1_555
Li0 O26 2.021711 1_555
Li0 O0 2.315096 1_564
Li0 O39 2.347534 1_555
Li0 O2 2.498129 1_555
Li1 O25 1.937353 1_555
Li1 O34 1.962713 1_555
Li1 O5 2.344698 1_555
Li2 O22 1.980410 1_555
Li2 O30 2.121374 1_556
Li2 O23 2.166208 1_556
Li2 O15 2.282080 1_555
Li3 O38 1.996504 1_555
Li3 O7 2.021711 1_555
Li3 O24 2.315096 1_655
Li3 O3 2.347534 1_555
Li3 O9 2.498129 1_555
Li4 O46 1.937353 1_555
Li4 O36 1.962713 1_554
Li4 O49 2.344698 1_555
Li5 O37 1.980410 1_555
Li5 O28 2.121374 1_555
Li5 O50 2.166208 1_555
Li5 O33 2.282080 1_555
Mn0 O13 2.124872 1_555
Mn0 O4 2.138469 1_555
Mn0 O17 2.139252 1_555
Mn0 O8 2.162853 1_555
Mn0 O28 2.240127 1_555
Mn0 O34 2.366319 1_655
Mn1 O16 2.150363 1_555
Mn1 O9 2.165843 1_554
Mn1 O37 2.212240 1_555
Mn1 O38 2.221989 1_554
Mn1 O26 2.248859 1_555
Mn1 O33 2.285684 1_555
Mn2 O41 2.150363 1_555
Mn2 O2 2.165843 1_555
Mn2 O22 2.212240 1_555
Mn2 O21 2.221989 1_555
Mn2 O7 2.248859 1_555
Mn2 O15 2.285684 1_555
Mn3 O45 2.124872 1_554
Mn3 O47 2.138469 1_555
Mn3 O19 2.139252 1_554
Mn3 O20 2.162853 1_555
Mn3 O30 2.240127 1_555
Mn3 O36 2.366319 1_564
Mn4 O14 2.095318 1_455
Mn4 O53 2.132556 1_554
Mn4 O29 2.150247 1_555
Mn4 O1 2.220148 1_455
Mn4 O43 2.221393 1_554
Mn4 O25 2.310513 1_554
Mn5 O35 2.095318 1_545
Mn5 O11 2.132556 1_555
Mn5 O42 2.150247 1_555
Mn5 O51 2.220148 1_545
Mn5 O27 2.221393 1_555
Mn5 O46 2.310513 1_555
O0 P0 1.625384 1_545
O0 P1 1.639187 1_555
O1 P10 1.481205 1_545
O2 P3 1.505241 1_565
O3 P0 1.625988 1_555
O3 P4 1.639720 1_555
O4 P1 1.486810 1_555
O5 P2 1.624470 1_555
O5 P17 1.673964 1_555
O6 P1 1.593882 1_554
O6 P3 1.619184 1_555
O7 P10 1.518091 1_555
O8 P12 1.490674 1_655
O9 P12 1.505241 1_655
O10 P4 1.588370 1_545
O10 P6 1.624497 1_555
O11 P7 1.485423 1_555
O12 P2 1.601840 1_555
O12 P8 1.606924 1_555
O13 P6 1.488378 1_555
O14 P6 1.489019 1_555
O15 P13 1.495889 1_555
O16 P5 1.504355 1_555
O17 P9 1.487025 1_555
O18 P3 1.613282 1_555
O18 P5 1.615891 1_555
O19 P4 1.487025 1_555
O20 P3 1.490674 1_565
O21 P2 1.511775 1_555
O22 P4 1.513958 1_555
O23 P8 1.632397 1_555
O23 P7 1.641919 1_555
O24 P10 1.625384 1_455
O24 P15 1.639187 1_555
O25 P1 1.512945 1_455
O26 P0 1.518091 1_554
O27 P5 1.489494 1_555
O28 P11 1.497123 1_555
O29 P7 1.479007 1_555
O30 P8 1.497123 1_555
O31 P12 1.613282 1_555
O31 P14 1.615891 1_555
O32 P5 1.620735 1_555
O32 P6 1.638497 1_555
O33 P2 1.495889 1_555
O34 P8 1.501650 1_555
O35 P16 1.489019 1_555
O36 P11 1.501650 1_555
O37 P9 1.513958 1_555
O38 P13 1.511775 1_555
O39 P10 1.625988 1_555
O39 P9 1.639720 1_555
O40 P13 1.601840 1_555
O40 P11 1.606924 1_555
O41 P14 1.504355 1_555
O42 P17 1.479007 1_555
O43 P14 1.489494 1_555
O44 P15 1.593882 1_555
O44 P12 1.619184 1_555
O45 P16 1.488378 1_555
O46 P15 1.512945 1_545
O47 P15 1.486810 1_555
O48 P14 1.620735 1_555
O48 P16 1.638497 1_555
O49 P13 1.624470 1_554
O49 P7 1.673964 1_555
O50 P11 1.632397 1_555
O50 P17 1.641919 1_555
O51 P0 1.481205 1_455
O52 P9 1.588370 1_455
O52 P16 1.624497 1_554
O53 P17 1.485423 1_555
