# generated using pymatgen
data_Rb2V2O5
_symmetry_space_group_name_H-M   'P 1'
_cell_length_a   8.55212738
_cell_length_b   8.55212738
_cell_length_c   8.55212738
_cell_angle_alpha   137.08528870
_cell_angle_beta   134.83803122
_cell_angle_gamma   64.05723174
_symmetry_Int_Tables_number   1
_chemical_formula_structural   Rb2V2O5
_chemical_formula_sum   'Rb4 V4 O10'
_cell_volume   297.94764985
_cell_formula_units_Z   2
loop_
 _symmetry_equiv_pos_site_id
 _symmetry_equiv_pos_as_xyz
  1  'x, y, z'
loop_
 _atom_site_type_symbol
 _atom_site_label
 _atom_site_symmetry_multiplicity
 _atom_site_fract_x
 _atom_site_fract_y
 _atom_site_fract_z
 _atom_site_occupancy
  Rb  Rb0  1  0.90345900  0.35757600  0.50416200  1
  Rb  Rb1  1  0.09654100  0.60070300  0.45411700  1
  Rb  Rb2  1  0.35341500  0.85757600  0.45411700  1
  Rb  Rb3  1  0.64658500  0.10070300  0.50416200  1
  V  V0  1  0.00000000  0.94230200  0.94230200  1
  V  V1  1  0.50000000  0.44230200  0.94230200  1
  V  V2  1  0.65649300  0.73268400  0.88917700  1
  V  V3  1  0.34350700  0.23268400  0.07619100  1
  O  O0  1  0.29003100  0.29333900  0.56696600  1
  O  O1  1  0.70996900  0.27693500  0.00330800  1
  O  O2  1  0.22637300  0.79333900  0.00330800  1
  O  O3  1  0.77362700  0.77693500  0.56696600  1
  O  O4  1  0.89263100  0.85485800  0.03047700  1
  O  O5  1  0.10736900  0.13784600  0.96222700  1
  O  O6  1  0.32438100  0.35485800  0.96222700  1
  O  O7  1  0.67561900  0.63784600  0.03047700  1
  O  O8  1  0.52526500  0.46775800  0.49302300  1
  O  O9  1  0.47473500  0.96775800  0.94249300  1
loop_
_geom_bond_atom_site_label_1
_geom_bond_atom_site_label_2
_geom_bond_distance
_geom_bond_site_symmetry_2
O0 V1 1.741950 1_555
O0 Rb0 2.803397 1_455
O0 Rb1 2.870057 1_555
O0 Rb2 2.969121 1_545
O0 Rb3 2.986468 1_555
O1 V1 1.741950 1_554
O1 Rb1 2.803397 1_655
O1 Rb0 2.870057 1_555
O1 Rb3 2.969117 1_554
O1 Rb2 2.986472 1_544
O2 V0 1.741950 1_554
O2 Rb2 2.803393 1_555
O2 Rb3 2.870052 1_565
O2 Rb0 2.969122 1_454
O2 Rb1 2.986476 1_554
O3 V0 1.741950 1_655
O3 Rb3 2.803395 1_565
O3 Rb2 2.870050 1_555
O3 Rb1 2.969122 1_655
O3 Rb0 2.986476 1_555
O4 V2 1.784835 1_554
O4 V0 2.091490 1_654
O4 Rb2 2.911835 1_655
O4 Rb0 3.035128 1_565
O4 Rb0 3.249568 1_554
O5 V3 1.784835 1_556
O5 V0 2.091490 1_545
O5 Rb3 2.911834 1_455
O5 Rb1 3.035128 1_556
O5 Rb1 3.249568 1_545
O6 V3 1.784835 1_556
O6 V1 2.091490 1_555
O6 Rb0 2.911830 1_455
O6 Rb2 3.035126 1_556
O6 Rb2 3.249572 1_545
O7 V2 1.784835 1_554
O7 V1 2.091490 1_554
O7 Rb1 2.911830 1_655
O7 Rb3 3.035132 1_565
O7 Rb3 3.249566 1_554
O8 V2 1.868294 1_555
O8 V3 1.894308 1_555
O8 Rb0 2.896289 1_555
O8 Rb3 2.896290 1_555
O8 Rb1 3.167489 1_555
O8 Rb2 3.167489 1_555
O9 V3 1.868294 1_566
O9 V2 1.894308 1_555
O9 Rb1 2.896289 1_555
O9 Rb2 2.896293 1_555
O9 Rb0 3.167489 1_566
O9 Rb3 3.167493 1_566
