# generated using pymatgen
data_La2WO6
_symmetry_space_group_name_H-M   'P 1'
_cell_length_a   5.59681100
_cell_length_b   8.93008100
_cell_length_c   16.78080300
_cell_angle_alpha   90.00000000
_cell_angle_beta   90.00000000
_cell_angle_gamma   90.00000000
_symmetry_Int_Tables_number   1
_chemical_formula_structural   La2WO6
_chemical_formula_sum   'La12 W6 O36'
_cell_volume   838.70412401
_cell_formula_units_Z   6
loop_
 _symmetry_equiv_pos_site_id
 _symmetry_equiv_pos_as_xyz
  1  'x, y, z'
loop_
 _atom_site_type_symbol
 _atom_site_label
 _atom_site_symmetry_multiplicity
 _atom_site_fract_x
 _atom_site_fract_y
 _atom_site_fract_z
 _atom_site_occupancy
  La  La0  1  0.32176400  0.79044300  0.00000000  1
  La  La1  1  0.82176400  0.20955700  0.50000000  1
  La  La2  1  0.41193000  0.49509700  0.16007500  1
  La  La3  1  0.41193000  0.49509700  0.83992500  1
  La  La4  1  0.91193000  0.50490300  0.33992500  1
  La  La5  1  0.91193000  0.50490300  0.66007500  1
  La  La6  1  0.94326800  0.15773100  0.18120000  1
  La  La7  1  0.94326800  0.15773100  0.81880000  1
  La  La8  1  0.44326800  0.84226900  0.31880000  1
  La  La9  1  0.44326800  0.84226900  0.68120000  1
  La  La10  1  0.91151700  0.45879600  0.00000000  1
  La  La11  1  0.41151700  0.54120400  0.50000000  1
  W  W0  1  0.42723300  0.25273300  0.00000000  1
  W  W1  1  0.92723300  0.74726700  0.50000000  1
  W  W2  1  0.39390300  0.23201200  0.33179400  1
  W  W3  1  0.39390300  0.23201200  0.66820600  1
  W  W4  1  0.89390300  0.76798800  0.16820600  1
  W  W5  1  0.89390300  0.76798800  0.83179400  1
  O  O0  1  0.17811100  0.28706300  0.08049800  1
  O  O1  1  0.17811100  0.28706300  0.91950200  1
  O  O2  1  0.67811100  0.71293700  0.41950200  1
  O  O3  1  0.67811100  0.71293700  0.58049800  1
  O  O4  1  0.66593900  0.28751000  0.08425800  1
  O  O5  1  0.66593900  0.28751000  0.91574200  1
  O  O6  1  0.16593900  0.71249000  0.41574200  1
  O  O7  1  0.16593900  0.71249000  0.58425800  1
  O  O8  1  0.64368000  0.29895100  0.25813800  1
  O  O9  1  0.64368000  0.29895100  0.74186200  1
  O  O10  1  0.14368000  0.70104900  0.24186200  1
  O  O11  1  0.14368000  0.70104900  0.75813800  1
  O  O12  1  0.62749300  0.73033700  0.09897000  1
  O  O13  1  0.62749300  0.73033700  0.90103000  1
  O  O14  1  0.12749300  0.26966300  0.40103000  1
  O  O15  1  0.12749300  0.26966300  0.59897000  1
  O  O16  1  0.17839700  0.36197400  0.25508300  1
  O  O17  1  0.17839700  0.36197400  0.74491700  1
  O  O18  1  0.67839700  0.63802600  0.24491700  1
  O  O19  1  0.67839700  0.63802600  0.75508300  1
  O  O20  1  0.55485500  0.08168600  0.39006600  1
  O  O21  1  0.55485500  0.08168600  0.60993400  1
  O  O22  1  0.05485500  0.91831400  0.10993400  1
  O  O23  1  0.05485500  0.91831400  0.89006600  1
  O  O24  1  0.44542400  0.04911300  0.00000000  1
  O  O25  1  0.94542400  0.95088700  0.50000000  1
  O  O26  1  0.44193600  0.49157400  0.00000000  1
  O  O27  1  0.94193600  0.50842600  0.50000000  1
  O  O28  1  0.26375700  0.07059100  0.26964500  1
  O  O29  1  0.26375700  0.07059100  0.73035500  1
  O  O30  1  0.76375700  0.92940900  0.23035500  1
  O  O31  1  0.76375700  0.92940900  0.76964500  1
  O  O32  1  0.57398100  0.37676600  0.40446900  1
  O  O33  1  0.57398100  0.37676600  0.59553100  1
  O  O34  1  0.07398100  0.62323400  0.09553100  1
  O  O35  1  0.07398100  0.62323400  0.90446900  1
loop_
_geom_bond_atom_site_label_1
_geom_bond_atom_site_label_2
_geom_bond_distance
_geom_bond_site_symmetry_2
La0 O24 2.411399 1_565
La0 O13 2.444225 1_554
La0 O12 2.444225 1_555
La0 O34 2.592818 1_555
La0 O35 2.592818 1_554
La0 O22 2.634142 1_555
La0 O23 2.634142 1_554
La0 O26 2.752366 1_555
La1 O25 2.411399 1_545
La1 O14 2.444225 1_655
La1 O15 2.444225 1_655
La1 O33 2.592818 1_555
La1 O32 2.592818 1_555
La1 O21 2.634142 1_555
La1 O20 2.634142 1_555
La1 O27 2.752366 1_555
La2 O16 2.379795 1_555
La2 O18 2.424924 1_555
La2 O34 2.461707 1_555
La2 O12 2.630585 1_555
La2 O0 2.635719 1_555
La2 O4 2.660111 1_555
La2 O26 2.691615 1_555
La2 O8 2.731005 1_555
La2 O10 2.742298 1_555
La3 O17 2.379795 1_555
La3 O19 2.424924 1_555
La3 O35 2.461707 1_555
La3 O13 2.630585 1_555
La3 O1 2.635719 1_555
La3 O5 2.660111 1_555
La3 O26 2.691615 1_556
La3 O9 2.731005 1_555
La3 O11 2.742298 1_555
La4 O18 2.379795 1_555
La4 O16 2.424924 1_655
La4 O32 2.461707 1_555
La4 O14 2.630585 1_655
La4 O2 2.635719 1_555
La4 O6 2.660111 1_655
La4 O27 2.691615 1_555
La4 O10 2.731005 1_655
La4 O8 2.742298 1_555
La5 O19 2.379795 1_555
La5 O17 2.424924 1_655
La5 O33 2.461707 1_555
La5 O15 2.630585 1_655
La5 O3 2.635719 1_555
La5 O7 2.660111 1_655
La5 O27 2.691615 1_555
La5 O11 2.731005 1_655
La5 O9 2.742298 1_555
La6 O30 2.418067 1_545
La6 O0 2.432509 1_655
La6 O28 2.454740 1_655
La6 O8 2.463479 1_555
La6 O22 2.528106 1_645
La6 O4 2.529564 1_555
La6 O16 2.568183 1_655
La7 O31 2.418067 1_545
La7 O1 2.432509 1_655
La7 O29 2.454740 1_655
La7 O9 2.463479 1_555
La7 O23 2.528106 1_645
La7 O5 2.529564 1_555
La7 O17 2.568183 1_655
La8 O28 2.418067 1_565
La8 O2 2.432509 1_555
La8 O30 2.454740 1_555
La8 O10 2.463479 1_555
La8 O20 2.528106 1_565
La8 O6 2.529564 1_555
La8 O18 2.568183 1_555
La9 O29 2.418067 1_565
La9 O3 2.432509 1_555
La9 O31 2.454740 1_555
La9 O11 2.463479 1_555
La9 O21 2.528106 1_565
La9 O7 2.529564 1_555
La9 O19 2.568183 1_555
La10 O34 2.356482 1_655
La10 O35 2.356482 1_654
La10 O4 2.495587 1_555
La10 O5 2.495587 1_554
La10 O0 2.530396 1_655
La10 O1 2.530396 1_654
La10 O26 2.644406 1_555
La10 O26 2.983051 1_655
La11 O33 2.356482 1_555
La11 O32 2.356482 1_555
La11 O7 2.495587 1_555
La11 O6 2.495587 1_555
La11 O3 2.530396 1_555
La11 O2 2.530396 1_555
La11 O27 2.644406 1_455
La11 O27 2.983051 1_555
O0 W0 1.965386 1_555
O1 W0 1.965386 1_556
O2 W1 1.965386 1_555
O3 W1 1.965386 1_555
O4 W0 1.969895 1_555
O5 W0 1.969895 1_556
O6 W1 1.969895 1_455
O7 W1 1.969895 1_455
O8 W2 1.959418 1_555
O9 W3 1.959418 1_555
O10 W4 1.959418 1_455
O11 W5 1.959418 1_455
O12 W4 1.919930 1_555
O13 W5 1.919930 1_555
O14 W2 1.919930 1_555
O15 W3 1.919930 1_555
O16 W2 2.111583 1_555
O17 W3 2.111583 1_555
O18 W4 2.111583 1_555
O19 W5 2.111583 1_555
O20 W2 1.889382 1_555
O21 W3 1.889382 1_555
O22 W4 1.889382 1_455
O23 W5 1.889382 1_455
O24 W0 1.821191 1_555
O25 W1 1.821191 1_555
O26 W0 2.134456 1_555
O27 W1 2.134456 1_555
O28 W2 1.922540 1_555
O29 W3 1.922540 1_555
O30 W4 1.922540 1_555
O31 W5 1.922540 1_555
O32 W2 2.043051 1_555
O33 W3 2.043051 1_555
O34 W4 2.043051 1_455
O35 W5 2.043051 1_455
