# generated using pymatgen
data_MgCo5(P2O7)4
_symmetry_space_group_name_H-M   'P 1'
_cell_length_a   7.90381260
_cell_length_b   7.50171800
_cell_length_c   10.23071120
_cell_angle_alpha   107.71769929
_cell_angle_beta   86.92378155
_cell_angle_gamma   94.18301476
_symmetry_Int_Tables_number   1
_chemical_formula_structural   MgCo5(P2O7)4
_chemical_formula_sum   'Mg1 Co5 P8 O28'
_cell_volume   575.97307109
_cell_formula_units_Z   1
loop_
 _symmetry_equiv_pos_site_id
 _symmetry_equiv_pos_as_xyz
  1  'x, y, z'
loop_
 _atom_site_type_symbol
 _atom_site_label
 _atom_site_symmetry_multiplicity
 _atom_site_fract_x
 _atom_site_fract_y
 _atom_site_fract_z
 _atom_site_occupancy
  Mg  Mg0  1  0.58853776  0.85340381  0.58780225  1
  Co  Co0  1  0.23557385  0.88414698  0.59212071  1
  Co  Co1  1  0.24663359  0.84403587  0.05659395  1
  Co  Co2  1  0.50515101  0.50877383  0.99470734  1
  Co  Co3  1  0.76789312  0.17359094  0.94035362  1
  Co  Co4  1  0.73795907  0.11084873  0.38372710  1
  P  P0  1  0.15366612  0.23547533  0.02273675  1
  P  P1  1  0.13695531  0.18852393  0.30177516  1
  P  P2  1  0.33771145  0.58309357  0.73934497  1
  P  P3  1  0.44261632  0.74014407  0.30883379  1
  P  P4  1  0.55992535  0.25300418  0.68350084  1
  P  P5  1  0.65242417  0.40637769  0.24688991  1
  P  P6  1  0.86166882  0.81801328  0.70999502  1
  P  P7  1  0.85527936  0.77614348  0.98443735  1
  O  O0  1  0.02592320  0.74308390  0.03892528  1
  O  O1  1  0.96238956  0.09461114  0.33358843  1
  O  O2  1  0.16300970  0.49856054  0.72982705  1
  O  O3  1  0.10389293  0.28434247  0.18212429  1
  O  O4  1  0.29124867  0.37823684  0.00143043  1
  O  O5  1  0.20551405  0.33112999  0.42490929  1
  O  O6  1  0.38645834  0.73039254  0.66317187  1
  O  O7  1  0.28201353  0.78089166  0.39632322  1
  O  O8  1  0.39476970  0.66986214  0.89513886  1
  O  O9  1  0.43212018  0.08194710  0.64952748  1
  O  O10  1  0.21491506  0.03580782  0.96714112  1
  O  O11  1  0.41896317  0.72866053  0.15698941  1
  O  O12  1  0.25527229  0.02938773  0.23015801  1
  O  O13  1  0.48082073  0.43237402  0.66871672  1
  O  O14  1  0.48967561  0.53378303  0.30441747  1
  O  O15  1  0.72764214  0.97033803  0.77438855  1
  O  O16  1  0.61381142  0.30859522  0.83614522  1
  O  O17  1  0.80668209  0.98077970  0.03370527  1
  O  O18  1  0.59477001  0.87224405  0.38131806  1
  O  O19  1  0.61696917  0.32567210  0.08794410  1
  O  O20  1  0.71347180  0.20724453  0.58440017  1
  O  O21  1  0.60696161  0.24349477  0.30975629  1
  O  O22  1  0.77866911  0.69160877  0.58292094  1
  O  O23  1  0.71964504  0.64398982  0.02128075  1
  O  O24  1  0.87495274  0.70705605  0.82023759  1
  O  O25  1  0.81743793  0.51145337  0.27999541  1
  O  O26  1  0.03019007  0.91789361  0.69367997  1
  O  O27  1  0.99017086  0.26598283  0.95526996  1
loop_
_geom_bond_atom_site_label_1
_geom_bond_atom_site_label_2
_geom_bond_distance
_geom_bond_site_symmetry_2
Mg0 O22 1.988743 1_555
Mg0 O6 2.020657 1_555
Mg0 O9 2.105482 1_565
Mg0 O18 2.157432 1_555
Mg0 O15 2.165085 1_555
Co0 O26 1.870197 1_555
Co0 O7 1.940485 1_555
Co0 O6 2.021139 1_555
Co0 O9 2.047239 1_565
Co1 O0 1.845836 1_555
Co1 O12 1.894063 1_565
Co1 O10 1.961780 1_564
Co1 O8 2.123323 1_554
Co1 O11 2.126619 1_555
Co2 O23 1.899390 1_556
Co2 O4 1.899720 1_556
Co2 O16 2.044529 1_555
Co2 O8 2.063385 1_555
Co2 O11 2.077766 1_556
Co2 O19 2.154701 1_556
Co3 O27 1.837641 1_555
Co3 O15 1.928863 1_545
Co3 O19 1.990279 1_556
Co3 O17 2.008769 1_546
Co3 O16 2.149861 1_555
Co4 O1 1.822185 1_555
Co4 O21 1.824180 1_555
Co4 O20 1.962004 1_555
Co4 O18 2.041069 1_545
O0 P7 1.550802 1_454
O1 P1 1.567001 1_655
O2 P2 1.472196 1_555
O3 P0 1.592643 1_555
O3 P1 1.637287 1_555
O4 P0 1.524372 1_555
O5 P1 1.481041 1_555
O6 P2 1.551313 1_555
O7 P3 1.507994 1_555
O8 P2 1.603243 1_555
O9 P4 1.537848 1_555
O10 P0 1.535938 1_556
O11 P3 1.550170 1_555
O12 P1 1.547076 1_555
O13 P4 1.575162 1_555
O13 P2 1.637527 1_555
O14 P3 1.605150 1_555
O14 P5 1.634088 1_555
O15 P6 1.582852 1_555
O16 P4 1.563066 1_555
O17 P7 1.533780 1_554
O18 P3 1.566129 1_555
O19 P5 1.585655 1_555
O20 P4 1.528229 1_555
O21 P5 1.557338 1_555
O22 P6 1.506696 1_555
O23 P7 1.517626 1_554
O24 P7 1.602681 1_555
O24 P6 1.603993 1_555
O25 P5 1.473778 1_555
O26 P6 1.506671 1_455
O27 P0 1.560030 1_656
