# generated using pymatgen
data_NaCaMn2P3(HO6)2
_symmetry_space_group_name_H-M   'P 1'
_cell_length_a   8.92409617
_cell_length_b   8.92409617
_cell_length_c   6.79166066
_cell_angle_alpha   72.33487679
_cell_angle_beta   72.33487679
_cell_angle_gamma   89.58480984
_symmetry_Int_Tables_number   1
_chemical_formula_structural   NaCaMn2P3(HO6)2
_chemical_formula_sum   'Na2 Ca2 Mn4 P6 H4 O24'
_cell_volume   488.92912817
_cell_formula_units_Z   2
loop_
 _symmetry_equiv_pos_site_id
 _symmetry_equiv_pos_as_xyz
  1  'x, y, z'
loop_
 _atom_site_type_symbol
 _atom_site_label
 _atom_site_symmetry_multiplicity
 _atom_site_fract_x
 _atom_site_fract_y
 _atom_site_fract_z
 _atom_site_occupancy
  Na  Na0  1  0.95532200  0.04467800  0.75000000  1
  Na  Na1  1  0.04467800  0.95532200  0.25000000  1
  Ca  Ca0  1  0.28736700  0.71263300  0.75000000  1
  Ca  Ca1  1  0.71263300  0.28736700  0.25000000  1
  Mn  Mn0  1  0.38107900  0.05480900  0.86071500  1
  Mn  Mn1  1  0.94519100  0.61892100  0.63928500  1
  Mn  Mn2  1  0.61892100  0.94519100  0.13928500  1
  Mn  Mn3  1  0.05480900  0.38107900  0.36071500  1
  P  P0  1  0.68924800  0.31075200  0.75000000  1
  P  P1  1  0.31075200  0.68924800  0.25000000  1
  P  P2  1  0.68204100  0.89097300  0.61496900  1
  P  P3  1  0.10902700  0.31795900  0.88503100  1
  P  P4  1  0.31795900  0.10902700  0.38503100  1
  P  P5  1  0.89097300  0.68204100  0.11496900  1
  H  H0  1  0.37328700  0.37319300  0.80276200  1
  H  H1  1  0.62680700  0.62671300  0.69723800  1
  H  H2  1  0.62671300  0.62680700  0.19723800  1
  H  H3  1  0.37319300  0.37328700  0.30276200  1
  O  O0  1  0.28319800  0.80663300  0.04373200  1
  O  O1  1  0.19336700  0.71680200  0.45626800  1
  O  O2  1  0.71680200  0.19336700  0.95626800  1
  O  O3  1  0.80663300  0.28319800  0.54373200  1
  O  O4  1  0.51873400  0.28491700  0.74117500  1
  O  O5  1  0.71508300  0.48126600  0.75882500  1
  O  O6  1  0.48126600  0.71508300  0.25882500  1
  O  O7  1  0.28491700  0.51873400  0.24117500  1
  O  O8  1  0.32790400  0.99089000  0.59848800  1
  O  O9  1  0.00911000  0.67209600  0.90151200  1
  O  O10  1  0.67209600  0.00911000  0.40151200  1
  O  O11  1  0.99089000  0.32790400  0.09848800  1
  O  O12  1  0.26843700  0.42553600  0.84114000  1
  O  O13  1  0.57446400  0.73156300  0.65886000  1
  O  O14  1  0.73156300  0.57446400  0.15886000  1
  O  O15  1  0.42553600  0.26843700  0.34114000  1
  O  O16  1  0.61166900  0.95351500  0.80751100  1
  O  O17  1  0.04648500  0.38833100  0.69248900  1
  O  O18  1  0.38833100  0.04648500  0.19248900  1
  O  O19  1  0.95351500  0.61166900  0.30751100  1
  O  O20  1  0.15134900  0.14795800  0.90443200  1
  O  O21  1  0.85204200  0.84865100  0.59556800  1
  O  O22  1  0.84865100  0.85204200  0.09556800  1
  O  O23  1  0.14795800  0.15134900  0.40443200  1
loop_
_geom_bond_atom_site_label_1
_geom_bond_atom_site_label_2
_geom_bond_distance
_geom_bond_site_symmetry_2
Na0 O23 2.364088 1_655
Na0 O22 2.364088 1_546
Na0 O20 2.594896 1_655
Na0 O21 2.594896 1_545
Na0 O3 2.744366 1_555
Na0 O2 2.744366 1_555
Na1 O21 2.364088 1_455
Na1 O20 2.364088 1_564
Na1 O22 2.594896 1_455
Na1 O23 2.594896 1_565
Na1 O0 2.744366 1_555
Na1 O1 2.744366 1_555
Ca0 O9 2.364802 1_555
Ca0 O8 2.364802 1_555
Ca0 O1 2.378016 1_555
Ca0 O0 2.378016 1_556
Ca0 O12 2.440545 1_555
Ca0 O13 2.440545 1_555
Ca1 O10 2.364802 1_555
Ca1 O11 2.364802 1_555
Ca1 O2 2.378016 1_554
Ca1 O3 2.378016 1_555
Ca1 O15 2.440545 1_555
Ca1 O14 2.440545 1_555
Mn0 O20 2.176666 1_555
Mn0 O4 2.191927 1_555
Mn0 O8 2.203580 1_545
Mn0 O16 2.214109 1_545
Mn0 O0 2.216181 1_546
Mn0 O18 2.252532 1_556
Mn1 O21 2.176666 1_555
Mn1 O5 2.191927 1_555
Mn1 O9 2.203580 1_655
Mn1 O17 2.214109 1_655
Mn1 O1 2.216181 1_655
Mn1 O19 2.252532 1_555
Mn2 O22 2.176666 1_555
Mn2 O6 2.191927 1_555
Mn2 O10 2.203580 1_565
Mn2 O18 2.214109 1_565
Mn2 O2 2.216181 1_564
Mn2 O16 2.252532 1_554
Mn3 O23 2.176666 1_555
Mn3 O7 2.191927 1_555
Mn3 O11 2.203580 1_455
Mn3 O19 2.214109 1_455
Mn3 O3 2.216181 1_455
Mn3 O17 2.252532 1_555
H0 O12 1.039805 1_555
H0 O4 1.528392 1_555
H1 O13 1.039805 1_555
H1 O5 1.528392 1_555
H2 O14 1.039805 1_555
H2 O6 1.528392 1_555
H3 O15 1.039805 1_555
H3 O7 1.528392 1_555
O0 P1 1.560463 1_555
O1 P1 1.560463 1_555
O2 P0 1.560463 1_555
O3 P0 1.560463 1_555
O4 P0 1.562399 1_555
O5 P0 1.562399 1_555
O6 P1 1.562399 1_555
O7 P1 1.562399 1_555
O8 P4 1.539545 1_565
O9 P5 1.539545 1_456
O10 P2 1.539545 1_545
O11 P3 1.539545 1_654
O12 P3 1.619573 1_555
O13 P2 1.619573 1_555
O14 P5 1.619573 1_555
O15 P4 1.619573 1_555
O16 P2 1.534729 1_555
O17 P3 1.534729 1_555
O18 P4 1.534729 1_555
O19 P5 1.534729 1_555
O20 P3 1.536943 1_555
O21 P2 1.536943 1_555
O22 P5 1.536943 1_555
O23 P4 1.536943 1_555
