# generated using pymatgen
data_HfBe13
_symmetry_space_group_name_H-M   'P 1'
_cell_length_a   7.04352184
_cell_length_b   7.04352266
_cell_length_c   7.04352374
_cell_angle_alpha   60.00058327
_cell_angle_beta   60.00060578
_cell_angle_gamma   60.00059681
_symmetry_Int_Tables_number   1
_chemical_formula_structural   HfBe13
_chemical_formula_sum   'Hf2 Be26'
_cell_volume   247.09310582
_cell_formula_units_Z   2
loop_
 _symmetry_equiv_pos_site_id
 _symmetry_equiv_pos_as_xyz
  1  'x, y, z'
loop_
 _atom_site_type_symbol
 _atom_site_label
 _atom_site_symmetry_multiplicity
 _atom_site_fract_x
 _atom_site_fract_y
 _atom_site_fract_z
 _atom_site_occupancy
  Hf  Hf0  1  0.75000100  0.75000000  0.75000000  1
  Hf  Hf1  1  0.24999900  0.25000000  0.25000000  1
  Be  Be0  1  0.93850104  0.29396475  0.70603525  1
  Be  Be1  1  0.70603525  0.06149696  0.93850204  1
  Be  Be2  1  0.00000000  -0.00000000  0.00000000  1
  Be  Be3  1  0.50000000  0.50000000  0.50000000  1
  Be  Be4  1  0.29396475  0.93850304  0.06149796  1
  Be  Be5  1  0.56149796  0.43850304  0.79396475  1
  Be  Be6  1  0.79396475  0.20603525  0.56149796  1
  Be  Be7  1  0.56149896  0.79396475  0.20603525  1
  Be  Be8  1  0.43850104  0.20603525  0.79396475  1
  Be  Be9  1  0.43850304  0.79396475  0.56149796  1
  Be  Be10  1  0.79396475  0.43850104  0.20603525  1
  Be  Be11  1  0.06149796  0.29396475  0.93850304  1
  Be  Be12  1  0.93850304  0.06149796  0.29396475  1
  Be  Be13  1  0.70603525  0.29396475  0.06149796  1
  Be  Be14  1  0.93850204  0.70603525  0.06149696  1
  Be  Be15  1  0.70603525  0.93850104  0.29396475  1
  Be  Be16  1  0.06149696  0.93850204  0.70603525  1
  Be  Be17  1  0.29396475  0.06149896  0.70603525  1
  Be  Be18  1  0.29396475  0.70603525  0.93850204  1
  Be  Be19  1  0.79396475  0.56149796  0.43850304  1
  Be  Be20  1  0.20603525  0.79396475  0.43850204  1
  Be  Be21  1  0.20603525  0.56149896  0.79396475  1
  Be  Be22  1  0.56149696  0.20603525  0.43850204  1
  Be  Be23  1  0.43850204  0.56149696  0.20603525  1
  Be  Be24  1  0.20603525  0.43850204  0.56149696  1
  Be  Be25  1  0.06149896  0.70603525  0.29396475  1
loop_
_geom_bond_atom_site_label_1
_geom_bond_atom_site_label_2
_geom_bond_distance
_geom_bond_site_symmetry_2
Be0 Be2 2.115391 1_656
Be0 Be19 2.141806 1_555
Be0 Be24 2.141808 1_655
Be0 Be6 2.180326 1_555
Be0 Be5 2.180351 1_555
Be0 Be11 2.202290 1_655
Be0 Be16 2.202293 1_645
Be0 Be13 2.202300 1_556
Be0 Be17 2.202305 1_655
Be0 Be1 2.315622 1_555
Be0 Hf0 2.914641 1_555
Be0 Hf1 2.914649 1_655
Be1 Be2 2.115375 1_656
Be1 Be7 2.141806 1_546
Be1 Be8 2.141808 1_555
Be1 Be6 2.180357 1_555
Be1 Be5 2.180370 1_555
Be1 Be13 2.202285 1_556
Be1 Be15 2.202293 1_546
Be1 Be14 2.202298 1_546
Be1 Be16 2.202299 1_645
Be1 Hf0 2.914612 1_545
Be1 Hf1 2.914659 1_556
Be2 Be4 2.115375 1_545
Be2 Be25 2.115391 1_545
Be3 Be5 2.115375 1_555
Be3 Be9 2.115375 1_555
Be3 Be6 2.115389 1_555
Be3 Be7 2.115391 1_555
Be3 Be8 2.115391 1_555
Be4 Be8 2.141806 1_564
Be4 Be7 2.141808 1_555
Be4 Hf1 2.914612 1_565
Be4 Hf0 2.914659 1_554
Be5 Be8 2.202290 1_555
Be5 Be9 2.202298 1_555
Be5 Be6 2.315628 1_555
Be5 Hf0 2.914621 1_555
Be5 Hf1 2.914659 1_556
Be6 Be8 2.202306 1_555
Be6 Hf0 2.914635 1_545
Be6 Hf1 2.914643 1_655
Be7 Be9 2.202293 1_555
Be7 Hf0 2.914640 1_554
Be7 Hf1 2.914650 1_565
Be8 Hf1 2.914640 1_556
Be8 Hf0 2.914650 1_545
Be9 Hf0 2.914622 1_555
Be9 Hf1 2.914657 1_565
Be10 Be3 2.115392 1_555
Be10 Be11 2.141806 1_654
Be10 Be14 2.141808 1_555
Be10 Be13 2.180326 1_555
Be10 Be12 2.180351 1_555
Be10 Be19 2.202291 1_555
Be10 Be23 2.202293 1_555
Be10 Be6 2.202300 1_555
Be10 Be7 2.202305 1_555
Be10 Be22 2.315622 1_555
Be10 Hf1 2.914633 1_655
Be10 Hf0 2.914647 1_554
Be11 Be2 2.115375 1_556
Be11 Be21 2.141808 1_555
Be11 Be8 2.180351 1_555
Be11 Be24 2.180370 1_555
Be11 Be13 2.202294 1_456
Be11 Be4 2.202298 1_546
Be11 Be12 2.202298 1_456
Be11 Be17 2.315623 1_555
Be11 Hf1 2.914610 1_556
Be11 Hf0 2.914652 1_455
Be12 Be2 2.115375 1_655
Be12 Be6 2.141803 1_555
Be12 Be20 2.141809 1_645
Be12 Be22 2.180370 1_555
Be12 Be15 2.202290 1_545
Be12 Be25 2.202293 1_645
Be12 Be4 2.202299 1_645
Be12 Be13 2.315627 1_555
Be12 Hf1 2.914608 1_655
Be12 Hf0 2.914653 1_545
Be13 Be2 2.115390 1_655
Be13 Be5 2.141802 1_554
Be13 Be23 2.141810 1_555
Be13 Be22 2.180357 1_555
Be13 Be15 2.202306 1_545
Be13 Hf1 2.914645 1_555
Be13 Hf0 2.914650 1_554
Be14 Be2 2.115375 1_665
Be14 Be21 2.141806 1_654
Be14 Be7 2.180351 1_555
Be14 Be19 2.180370 1_555
Be14 Be25 2.202290 1_655
Be14 Be18 2.202294 1_654
Be14 Be16 2.202298 1_654
Be14 Be15 2.315623 1_555
Be14 Hf0 2.914610 1_554
Be14 Hf1 2.914652 1_655
Be15 Be2 2.115391 1_665
Be15 Be9 2.141806 1_555
Be15 Be22 2.141809 1_565
Be15 Be7 2.180320 1_555
Be15 Be19 2.180351 1_555
Be15 Be25 2.202305 1_655
Be15 Hf0 2.914643 1_555
Be15 Hf1 2.914654 1_565
Be16 Be2 2.115375 1_566
Be16 Be20 2.141803 1_555
Be16 Be6 2.141809 1_465
Be16 Be21 2.180351 1_555
Be16 Be9 2.180370 1_555
Be16 Be17 2.202290 1_565
Be16 Be18 2.315627 1_555
Be16 Hf0 2.914608 1_455
Be16 Hf1 2.914653 1_565
Be17 Be2 2.115391 1_556
Be17 Be22 2.141806 1_555
Be17 Be9 2.141809 1_545
Be17 Be8 2.180320 1_555
Be17 Be24 2.180351 1_555
Be17 Be4 2.202293 1_546
Be17 Be18 2.202306 1_545
Be17 Hf1 2.914643 1_555
Be17 Hf0 2.914654 1_545
Be18 Be2 2.115390 1_566
Be18 Be23 2.141802 1_556
Be18 Be5 2.141810 1_555
Be18 Be21 2.180326 1_555
Be18 Be9 2.180357 1_555
Be18 Be4 2.202285 1_556
Be18 Be25 2.202300 1_556
Be18 Hf0 2.914645 1_555
Be18 Hf1 2.914650 1_556
Be19 Be3 2.115375 1_555
Be19 Be25 2.141808 1_655
Be19 Be6 2.202294 1_555
Be19 Be9 2.202299 1_555
Be19 Be5 2.202299 1_555
Be19 Be7 2.315622 1_555
Be19 Hf0 2.914619 1_555
Be19 Hf1 2.914652 1_655
Be20 Be3 2.115389 1_555
Be20 Be25 2.180326 1_555
Be20 Be4 2.180357 1_555
Be20 Be9 2.202285 1_555
Be20 Be24 2.202294 1_555
Be20 Be21 2.202300 1_555
Be20 Be7 2.202306 1_555
Be20 Be23 2.315628 1_555
Be20 Hf1 2.914635 1_565
Be20 Hf0 2.914643 1_455
Be21 Be3 2.115392 1_555
Be21 Be24 2.202291 1_555
Be21 Be5 2.202293 1_555
Be21 Be8 2.202305 1_555
Be21 Be9 2.315622 1_555
Be21 Hf0 2.914633 1_455
Be21 Hf1 2.914647 1_556
Be22 Be3 2.115375 1_555
Be22 Be6 2.202285 1_555
Be22 Be8 2.202293 1_555
Be22 Be23 2.202298 1_555
Be22 Be24 2.202299 1_555
Be22 Hf1 2.914622 1_555
Be22 Hf0 2.914657 1_545
Be23 Be3 2.115375 1_555
Be23 Be25 2.180351 1_555
Be23 Be4 2.180370 1_555
Be23 Be7 2.202290 1_555
Be23 Be24 2.202299 1_555
Be23 Hf1 2.914621 1_555
Be23 Hf0 2.914659 1_554
Be24 Be3 2.115375 1_555
Be24 Be25 2.141806 1_555
Be24 Be8 2.315622 1_555
Be24 Hf1 2.914619 1_555
Be24 Hf0 2.914652 1_455
Be25 Be4 2.315622 1_555
Be25 Hf1 2.914641 1_555
Be25 Hf0 2.914649 1_455
