# generated using pymatgen
data_LiMg7
_symmetry_space_group_name_H-M   'P 1'
_cell_length_a   6.30618112
_cell_length_b   6.30618112
_cell_length_c   5.10873809
_cell_angle_alpha   90.00000000
_cell_angle_beta   90.00000000
_cell_angle_gamma   119.99999030
_symmetry_Int_Tables_number   1
_chemical_formula_structural   LiMg7
_chemical_formula_sum   'Li1 Mg7'
_cell_volume   175.94510620
_cell_formula_units_Z   1
loop_
 _symmetry_equiv_pos_site_id
 _symmetry_equiv_pos_as_xyz
  1  'x, y, z'
loop_
 _atom_site_type_symbol
 _atom_site_label
 _atom_site_symmetry_multiplicity
 _atom_site_fract_x
 _atom_site_fract_y
 _atom_site_fract_z
 _atom_site_occupancy
  Li  Li0  1  0.66666700  0.33333300  0.50000000  1
  Mg  Mg0  1  0.16659463  0.33318726  0.50000000  1
  Mg  Mg1  1  0.66681274  0.83340537  0.50000000  1
  Mg  Mg2  1  0.16659463  0.83340537  0.50000000  1
  Mg  Mg3  1  0.83211178  0.16788822  -0.00000000  1
  Mg  Mg4  1  0.33577544  0.16788822  0.00000000  1
  Mg  Mg5  1  0.83211178  0.66422456  0.00000000  1
  Mg  Mg6  1  0.33333300  0.66666700  -0.00000000  1
loop_
_geom_bond_atom_site_label_1
_geom_bond_atom_site_label_2
_geom_bond_distance
_geom_bond_site_symmetry_2
Li0 Mg3 3.128958 1_555
Li0 Mg3 3.128958 1_556
Li0 Mg5 3.128965 1_556
Li0 Mg5 3.128965 1_555
Li0 Mg4 3.128965 1_555
Li0 Mg4 3.128965 1_556
Li0 Mg1 3.153088 1_555
Li0 Mg0 3.153088 1_555
Li0 Mg2 3.153091 1_545
Li0 Mg2 3.153091 1_655
Li0 Mg1 3.153094 1_545
Li0 Mg0 3.153094 1_655
Mg0 Mg6 3.137150 1_555
Mg0 Mg6 3.137150 1_556
Mg0 Mg4 3.140347 1_556
Mg0 Mg4 3.140347 1_555
Mg0 Mg3 3.140357 1_456
Mg0 Mg3 3.140357 1_455
Mg0 Mg2 3.151715 1_545
Mg0 Mg1 3.151716 1_445
Mg0 Mg2 3.154466 1_555
Mg0 Mg1 3.154466 1_555
Mg1 Mg6 3.137150 1_556
Mg1 Mg6 3.137150 1_555
Mg1 Mg5 3.140347 1_555
Mg1 Mg5 3.140347 1_556
Mg1 Mg3 3.140357 1_566
Mg1 Mg3 3.140357 1_565
Mg1 Mg2 3.151715 1_655
Mg1 Mg2 3.154466 1_555
Mg2 Mg6 3.137140 1_555
Mg2 Mg6 3.137140 1_556
Mg2 Mg5 3.140357 1_456
Mg2 Mg5 3.140357 1_455
Mg2 Mg4 3.140357 1_566
Mg2 Mg4 3.140357 1_565
Mg3 Mg5 3.129987 1_555
Mg3 Mg4 3.129987 1_555
Mg3 Mg6 3.153119 1_545
Mg3 Mg6 3.153119 1_655
Mg3 Mg4 3.176194 1_655
Mg3 Mg5 3.176194 1_545
Mg4 Mg5 3.129987 1_555
Mg4 Mg6 3.153119 1_555
Mg4 Mg6 3.153119 1_545
Mg4 Mg5 3.176195 1_445
Mg5 Mg6 3.153119 1_555
Mg5 Mg6 3.153119 1_655
