# generated using pymatgen
data_Hf2N2O
_symmetry_space_group_name_H-M   'P 1'
_cell_length_a   8.72327800
_cell_length_b   8.72431663
_cell_length_c   8.73437425
_cell_angle_alpha   109.57742774
_cell_angle_beta   109.29064223
_cell_angle_gamma   109.41605058
_symmetry_Int_Tables_number   1
_chemical_formula_structural   Hf2N2O
_chemical_formula_sum   'Hf16 N16 O8'
_cell_volume   512.52064121
_cell_formula_units_Z   8
loop_
 _symmetry_equiv_pos_site_id
 _symmetry_equiv_pos_as_xyz
  1  'x, y, z'
loop_
 _atom_site_type_symbol
 _atom_site_label
 _atom_site_symmetry_multiplicity
 _atom_site_fract_x
 _atom_site_fract_y
 _atom_site_fract_z
 _atom_site_occupancy
  Hf  Hf0  1  0.24008000  0.78449400  0.96736800  1
  Hf  Hf1  1  0.00149100  0.00719600  0.98851300  1
  Hf  Hf2  1  0.46815900  0.25437900  0.77554600  1
  Hf  Hf3  1  0.97482900  0.24951100  0.27896700  1
  Hf  Hf4  1  0.50047800  0.99945000  0.50274100  1
  Hf  Hf5  1  0.49738500  0.49778500  0.99138500  1
  Hf  Hf6  1  0.74782600  0.71702100  0.54192200  1
  Hf  Hf7  1  0.28098700  0.03048100  0.26674600  1
  Hf  Hf8  1  0.71517500  0.96596700  0.74640300  1
  Hf  Hf9  1  0.79315900  0.53431800  0.25131600  1
  Hf  Hf10  1  0.21252300  0.45864400  0.74728100  1
  Hf  Hf11  1  0.25355200  0.28759800  0.46219600  1
  Hf  Hf12  1  0.00188300  0.51122000  0.49904200  1
  Hf  Hf13  1  0.53360400  0.75640900  0.21650200  1
  Hf  Hf14  1  0.02758500  0.74986200  0.71637400  1
  Hf  Hf15  1  0.75908800  0.21268300  0.02809300  1
  N  N0  1  0.99205200  0.76307100  0.96872500  1
  N  N1  1  0.04801400  0.53093200  0.22617700  1
  N  N2  1  0.74285000  0.97055800  0.48196300  1
  N  N3  1  0.50692600  0.03759600  0.73439300  1
  N  N4  1  0.23143600  0.26398300  0.22913300  1
  N  N5  1  0.49271800  0.95786500  0.27096700  1
  N  N6  1  0.72547300  0.45483600  0.53171100  1
  N  N7  1  0.76825600  0.73610800  0.77690700  1
  N  N8  1  0.23830100  0.22404500  0.72910000  1
  N  N9  1  0.26309600  0.03309400  0.51544400  1
  N  N10  1  0.03445700  0.77549400  0.44987600  1
  N  N11  1  0.46080000  0.51176600  0.76721100  1
  N  N12  1  0.77540600  0.01103600  0.95057600  1
  N  N13  1  0.95182300  0.46724600  0.77301800  1
  N  N14  1  0.27422500  0.54339700  0.46280500  1
  N  N15  1  0.00567400  0.23479800  0.03753800  1
  O  O0  1  0.71924100  0.27486400  0.26441000  1
  O  O1  1  0.45300200  0.72256400  0.01650200  1
  O  O2  1  0.75403600  0.76768000  0.27354500  1
  O  O3  1  0.54010500  0.48999500  0.23478600  1
  O  O4  1  0.96695500  0.22309100  0.54950900  1
  O  O5  1  0.22865200  0.98909100  0.04796400  1
  O  O6  1  0.27515200  0.72662300  0.73933300  1
  O  O7  1  0.54354300  0.27324900  0.98801400  1
loop_
_geom_bond_atom_site_label_1
_geom_bond_atom_site_label_2
_geom_bond_distance
_geom_bond_site_symmetry_2
Hf0 O5 1.736144 1_556
Hf0 O6 2.036406 1_555
Hf0 O1 2.054721 1_556
Hf0 N0 2.113264 1_455
Hf0 Hf14 2.198216 1_555
Hf0 N5 2.326162 1_556
Hf0 N13 2.503796 1_455
Hf1 N15 1.870633 1_556
Hf1 N12 1.902653 1_455
Hf1 O5 1.950508 1_546
Hf1 N0 2.049418 1_445
Hf1 N4 2.128623 1_556
Hf1 N7 2.129750 1_445
Hf2 O7 1.679407 1_555
Hf2 N8 1.814636 1_555
Hf2 N3 1.967352 1_555
Hf2 N9 2.041513 1_555
Hf2 N11 2.292185 1_555
Hf3 N15 2.179926 1_655
Hf3 O0 2.279357 1_555
Hf3 N4 2.389302 1_655
Hf3 N12 2.424791 1_554
Hf3 N14 2.447714 1_655
Hf3 O4 2.470509 1_555
Hf3 N1 2.561105 1_655
Hf4 N5 1.906655 1_555
Hf4 N3 1.915438 1_565
Hf4 N9 2.218231 1_565
Hf4 N2 2.268001 1_555
Hf5 N11 1.929671 1_555
Hf5 O3 2.062374 1_556
Hf5 O1 2.077572 1_556
Hf5 O7 2.119896 1_555
Hf5 N8 2.320259 1_555
Hf5 O2 2.364544 1_556
Hf6 N7 1.944627 1_555
Hf6 N6 2.198491 1_555
Hf6 O3 2.290029 1_555
Hf6 N2 2.448254 1_555
Hf6 O2 2.540743 1_555
Hf7 O5 1.685822 1_545
Hf7 N5 2.136046 1_545
Hf7 N9 2.221845 1_555
Hf7 N4 2.320527 1_555
Hf7 N0 2.501435 1_444
Hf8 N12 1.544201 1_565
Hf8 N3 2.091504 1_565
Hf8 N7 2.280522 1_555
Hf8 N2 2.412193 1_555
Hf9 N10 2.015833 1_655
Hf9 O3 2.056148 1_555
Hf9 O2 2.130724 1_555
Hf9 O0 2.191890 1_555
Hf9 O7 2.258684 1_554
Hf9 N1 2.313746 1_655
Hf10 N11 1.991289 1_555
Hf10 O4 2.011277 1_455
Hf10 N8 2.092033 1_555
Hf10 O6 2.248078 1_555
Hf10 O1 2.265533 1_556
Hf10 N13 2.380735 1_455
Hf11 N4 1.912225 1_555
Hf11 N14 2.176407 1_555
Hf11 Hf3 2.262472 1_455
Hf11 N11 2.272894 1_555
Hf11 N9 2.437759 1_555
Hf11 O4 2.785780 1_455
Hf12 O6 2.166050 1_555
Hf12 Hf14 2.179037 1_555
Hf12 O0 2.231642 1_455
Hf12 Hf3 2.316147 1_455
Hf12 N10 2.426845 1_555
Hf12 N6 2.428449 1_455
Hf12 N14 2.436384 1_555
Hf12 N1 2.594995 1_555
Hf12 O4 2.632122 1_455
Hf12 N13 2.694195 1_455
Hf13 O1 1.529017 1_555
Hf13 O2 1.778726 1_555
Hf13 N5 1.846915 1_555
Hf13 N2 2.057107 1_555
Hf13 O3 2.400292 1_555
Hf14 O6 2.185723 1_555
Hf14 Hf6 2.268284 1_455
Hf14 N0 2.296186 1_455
Hf14 N10 2.429789 1_555
Hf14 O5 2.445282 1_556
Hf14 N7 2.462477 1_455
Hf14 N6 2.463998 1_455
Hf14 N13 2.590571 1_455
Hf15 N12 1.733641 1_554
Hf15 N15 2.065710 1_655
Hf15 O7 2.070443 1_554
Hf15 O0 2.127100 1_555
Hf15 Hf3 2.201814 1_555
Hf15 N3 2.272510 1_554
Hf15 N1 2.510326 1_655
N0 N7 1.985708 1_555
N0 O5 2.015656 1_656
N2 O4 2.127706 1_565
N15 N4 1.986785 1_555
