# generated using pymatgen
data_LiVSiO4
_symmetry_space_group_name_H-M   'P 1'
_cell_length_a   5.89008200
_cell_length_b   5.18754900
_cell_length_c   10.38670318
_cell_angle_alpha   66.16485971
_cell_angle_beta   90.00000000
_cell_angle_gamma   90.00000000
_symmetry_Int_Tables_number   1
_chemical_formula_structural   LiVSiO4
_chemical_formula_sum   'Li4 V4 Si4 O16'
_cell_volume   290.29907278
_cell_formula_units_Z   4
loop_
 _symmetry_equiv_pos_site_id
 _symmetry_equiv_pos_as_xyz
  1  'x, y, z'
loop_
 _atom_site_type_symbol
 _atom_site_label
 _atom_site_symmetry_multiplicity
 _atom_site_fract_x
 _atom_site_fract_y
 _atom_site_fract_z
 _atom_site_occupancy
  Li  Li0  1  0.63347000  0.91498000  0.93361800  1
  Li  Li1  1  0.13347000  0.08502000  0.56638200  1
  Li  Li2  1  0.86653000  0.91498000  0.43361800  1
  Li  Li3  1  0.36653000  0.08502000  0.06638200  1
  V  V0  1  0.61600700  0.45715100  0.34808900  1
  V  V1  1  0.11600700  0.54284900  0.15191100  1
  V  V2  1  0.88399300  0.45715100  0.84808900  1
  V  V3  1  0.38399300  0.54284900  0.65191100  1
  Si  Si0  1  0.65141500  0.10333300  0.63790600  1
  Si  Si1  1  0.15141500  0.89666700  0.86209400  1
  Si  Si2  1  0.84858500  0.10333300  0.13790600  1
  Si  Si3  1  0.34858500  0.89666700  0.36209400  1
  O  O0  1  0.65955600  0.25136500  0.75122500  1
  O  O1  1  0.13532300  0.24131200  0.77708700  1
  O  O2  1  0.41859400  0.25245700  0.54814700  1
  O  O3  1  0.83650800  0.21013500  0.51066700  1
  O  O4  1  0.33650800  0.78986500  0.98933300  1
  O  O5  1  0.91859400  0.74754300  0.95185300  1
  O  O6  1  0.84044400  0.25136500  0.25122500  1
  O  O7  1  0.36467700  0.24131200  0.27708700  1
  O  O8  1  0.63532300  0.75868800  0.72291300  1
  O  O9  1  0.15955600  0.74863500  0.74877500  1
  O  O10  1  0.08140600  0.25245700  0.04814700  1
  O  O11  1  0.66349200  0.21013500  0.01066700  1
  O  O12  1  0.16349200  0.78986500  0.48933300  1
  O  O13  1  0.58140600  0.74754300  0.45185300  1
  O  O14  1  0.86467700  0.75868800  0.22291300  1
  O  O15  1  0.34044400  0.74863500  0.24877500  1
loop_
_geom_bond_atom_site_label_1
_geom_bond_atom_site_label_2
_geom_bond_distance
_geom_bond_site_symmetry_2
Li0 O5 1.864874 1_555
Li0 O4 1.874043 1_555
Li0 O0 1.996454 1_565
Li0 O11 2.001605 1_566
Li1 O2 1.864874 1_555
Li1 O3 1.874043 1_455
Li1 O9 1.996454 1_545
Li1 O12 2.001605 1_545
Li2 O13 1.864874 1_555
Li2 O12 1.874043 1_655
Li2 O6 1.996454 1_565
Li2 O3 2.001605 1_565
Li3 O10 1.864874 1_555
Li3 O11 1.874043 1_555
Li3 O15 1.996454 1_545
Li3 O4 2.001605 1_544
O0 Si0 1.645560 1_555
O0 V3 2.173539 1_555
O0 V2 2.183449 1_555
O1 Si1 1.645964 1_545
O1 V3 2.153802 1_555
O1 V2 2.157861 1_455
O2 Si0 1.662915 1_555
O2 V3 2.187376 1_555
O2 V0 2.239227 1_555
O3 Si0 1.627989 1_555
O3 V0 2.105111 1_555
O4 Si1 1.627989 1_555
O4 V1 2.105111 1_556
O5 Si1 1.662915 1_655
O5 V2 2.187376 1_555
O5 V1 2.239227 1_656
O6 Si2 1.645560 1_555
O6 V1 2.173539 1_655
O6 V0 2.183449 1_555
O7 Si3 1.645964 1_545
O7 V1 2.153802 1_555
O7 V0 2.157861 1_555
O8 Si0 1.645964 1_565
O8 V2 2.153802 1_555
O8 V3 2.157861 1_555
O9 Si1 1.645560 1_555
O9 V2 2.173539 1_455
O9 V3 2.183449 1_555
O10 Si2 1.662915 1_455
O10 V1 2.187376 1_555
O10 V2 2.239227 1_454
O11 Si2 1.627989 1_555
O11 V2 2.105111 1_554
O12 Si3 1.627989 1_555
O12 V3 2.105111 1_555
O13 Si3 1.662915 1_555
O13 V0 2.187376 1_555
O13 V3 2.239227 1_555
O14 Si2 1.645964 1_565
O14 V0 2.153802 1_555
O14 V1 2.157861 1_655
O15 Si3 1.645560 1_555
O15 V0 2.173539 1_555
O15 V1 2.183449 1_555
