# generated using pymatgen
data_LaB4Rh7
_symmetry_space_group_name_H-M   'P 1'
_cell_length_a   5.83376200
_cell_length_b   11.22880715
_cell_length_c   19.34369315
_cell_angle_alpha   89.99999553
_cell_angle_beta   90.00000000
_cell_angle_gamma   90.00000000
_symmetry_Int_Tables_number   1
_chemical_formula_structural   LaB4Rh7
_chemical_formula_sum   'La8 B32 Rh56'
_cell_volume   1267.13160870
_cell_formula_units_Z   8
loop_
 _symmetry_equiv_pos_site_id
 _symmetry_equiv_pos_as_xyz
  1  'x, y, z'
loop_
 _atom_site_type_symbol
 _atom_site_label
 _atom_site_symmetry_multiplicity
 _atom_site_fract_x
 _atom_site_fract_y
 _atom_site_fract_z
 _atom_site_occupancy
  La  La0_0  1  0.00000000  0.49998550  0.00000000  1
  La  La0_1  1  0.00000000  0.49998550  0.50000000  1
  La  La0_2  1  0.00000000  0.99998550  0.00000000  1
  La  La0_3  1  0.00000000  0.99998550  0.50000000  1
  La  La0_4  1  0.50000000  0.49998550  0.00000000  1
  La  La0_5  1  0.50000000  0.49998550  0.50000000  1
  La  La0_6  1  0.50000000  0.99998550  0.00000000  1
  La  La0_7  1  0.50000000  0.99998550  0.50000000  1
  B  B0_0  1  0.00000000  0.49955200  0.16648900  1
  B  B0_1  1  0.00000000  0.49955200  0.66648900  1
  B  B0_2  1  0.00000000  0.99955200  0.16648900  1
  B  B0_3  1  0.00000000  0.99955200  0.66648900  1
  B  B0_4  1  0.50000000  0.49955200  0.16648900  1
  B  B0_5  1  0.50000000  0.49955200  0.66648900  1
  B  B0_6  1  0.50000000  0.99955200  0.16648900  1
  B  B0_7  1  0.50000000  0.99955200  0.66648900  1
  B  B1_0  1  0.00000000  0.25021050  0.41602300  1
  B  B1_1  1  0.00000000  0.25021050  0.91602300  1
  B  B1_2  1  0.00000000  0.75021050  0.41602300  1
  B  B1_3  1  0.00000000  0.75021050  0.91602300  1
  B  B1_4  1  0.50000000  0.25021050  0.41602300  1
  B  B1_5  1  0.50000000  0.25021050  0.91602300  1
  B  B1_6  1  0.50000000  0.75021050  0.41602300  1
  B  B1_7  1  0.50000000  0.75021050  0.91602300  1
  B  B2_0  1  0.00000000  0.25021050  0.08397700  1
  B  B2_1  1  0.00000000  0.25021050  0.58397700  1
  B  B2_2  1  0.00000000  0.75021050  0.08397700  1
  B  B2_3  1  0.00000000  0.75021050  0.58397700  1
  B  B2_4  1  0.50000000  0.25021050  0.08397700  1
  B  B2_5  1  0.50000000  0.25021050  0.58397700  1
  B  B2_6  1  0.50000000  0.75021050  0.08397700  1
  B  B2_7  1  0.50000000  0.75021050  0.58397700  1
  B  B3_0  1  0.00000000  0.49955200  0.33351100  1
  B  B3_1  1  0.00000000  0.49955200  0.83351100  1
  B  B3_2  1  0.00000000  0.99955200  0.33351100  1
  B  B3_3  1  0.00000000  0.99955200  0.83351100  1
  B  B3_4  1  0.50000000  0.49955200  0.33351100  1
  B  B3_5  1  0.50000000  0.49955200  0.83351100  1
  B  B3_6  1  0.50000000  0.99955200  0.33351100  1
  B  B3_7  1  0.50000000  0.99955200  0.83351100  1
  Rh  Rh0_0  1  0.25000000  0.00290300  0.25000000  1
  Rh  Rh0_1  1  0.25000000  0.00290300  0.75000000  1
  Rh  Rh0_2  1  0.25000000  0.50290300  0.25000000  1
  Rh  Rh0_3  1  0.25000000  0.50290300  0.75000000  1
  Rh  Rh0_4  1  0.75000000  0.00290300  0.25000000  1
  Rh  Rh0_5  1  0.75000000  0.00290300  0.75000000  1
  Rh  Rh0_6  1  0.75000000  0.50290300  0.25000000  1
  Rh  Rh0_7  1  0.75000000  0.50290300  0.75000000  1
  Rh  Rh1_0  1  0.25000000  0.25030450  0.00000000  1
  Rh  Rh1_1  1  0.25000000  0.25030450  0.50000000  1
  Rh  Rh1_2  1  0.25000000  0.75030450  0.00000000  1
  Rh  Rh1_3  1  0.25000000  0.75030450  0.50000000  1
  Rh  Rh1_4  1  0.75000000  0.25030450  0.00000000  1
  Rh  Rh1_5  1  0.75000000  0.25030450  0.50000000  1
  Rh  Rh1_6  1  0.75000000  0.75030450  0.00000000  1
  Rh  Rh1_7  1  0.75000000  0.75030450  0.50000000  1
  Rh  Rh2_0  1  0.25000000  0.12853650  0.12968850  1
  Rh  Rh2_1  1  0.25000000  0.12853650  0.62968850  1
  Rh  Rh2_2  1  0.25000000  0.62853650  0.12968850  1
  Rh  Rh2_3  1  0.25000000  0.62853650  0.62968850  1
  Rh  Rh2_4  1  0.75000000  0.12853650  0.12968850  1
  Rh  Rh2_5  1  0.75000000  0.12853650  0.62968850  1
  Rh  Rh2_6  1  0.75000000  0.62853650  0.12968850  1
  Rh  Rh2_7  1  0.75000000  0.62853650  0.62968850  1
  Rh  Rh3_0  1  0.25000000  0.37014800  0.36900900  1
  Rh  Rh3_1  1  0.25000000  0.37014800  0.86900900  1
  Rh  Rh3_2  1  0.25000000  0.87014800  0.36900900  1
  Rh  Rh3_3  1  0.25000000  0.87014800  0.86900900  1
  Rh  Rh3_4  1  0.75000000  0.37014800  0.36900900  1
  Rh  Rh3_5  1  0.75000000  0.37014800  0.86900900  1
  Rh  Rh3_6  1  0.75000000  0.87014800  0.36900900  1
  Rh  Rh3_7  1  0.75000000  0.87014800  0.86900900  1
  Rh  Rh4_0  1  0.25000000  0.37014800  0.13099100  1
  Rh  Rh4_1  1  0.25000000  0.37014800  0.63099100  1
  Rh  Rh4_2  1  0.25000000  0.87014800  0.13099100  1
  Rh  Rh4_3  1  0.25000000  0.87014800  0.63099100  1
  Rh  Rh4_4  1  0.75000000  0.37014800  0.13099100  1
  Rh  Rh4_5  1  0.75000000  0.37014800  0.63099100  1
  Rh  Rh4_6  1  0.75000000  0.87014800  0.13099100  1
  Rh  Rh4_7  1  0.75000000  0.87014800  0.63099100  1
  Rh  Rh5_0  1  0.25000000  0.12853650  0.37031150  1
  Rh  Rh5_1  1  0.25000000  0.12853650  0.87031150  1
  Rh  Rh5_2  1  0.25000000  0.62853650  0.37031150  1
  Rh  Rh5_3  1  0.25000000  0.62853650  0.87031150  1
  Rh  Rh5_4  1  0.75000000  0.12853650  0.37031150  1
  Rh  Rh5_5  1  0.75000000  0.12853650  0.87031150  1
  Rh  Rh5_6  1  0.75000000  0.62853650  0.37031150  1
  Rh  Rh5_7  1  0.75000000  0.62853650  0.87031150  1
  Rh  Rh6_0  1  0.00000000  0.24981300  0.25000000  1
  Rh  Rh6_1  1  0.00000000  0.24981300  0.75000000  1
  Rh  Rh6_2  1  0.00000000  0.74981300  0.25000000  1
  Rh  Rh6_3  1  0.00000000  0.74981300  0.75000000  1
  Rh  Rh6_4  1  0.50000000  0.24981300  0.25000000  1
  Rh  Rh6_5  1  0.50000000  0.24981300  0.75000000  1
  Rh  Rh6_6  1  0.50000000  0.74981300  0.25000000  1
  Rh  Rh6_7  1  0.50000000  0.74981300  0.75000000  1
loop_
_geom_bond_atom_site_label_1
_geom_bond_atom_site_label_2
_geom_bond_distance
_geom_bond_site_symmetry_2
La0_0 La0_4 2.916881 1_555
La0_0 La0_4 2.916881 1_455
La0_0 Rh1_0 3.160274 1_555
La0_0 Rh1_4 3.160274 1_455
La0_0 Rh1_2 3.166631 1_555
La0_0 Rh1_6 3.166631 1_455
La0_0 Rh5_3 3.240990 1_554
La0_0 Rh5_7 3.240990 1_454
La0_0 Rh2_6 3.240990 1_455
La0_0 Rh2_2 3.240990 1_555
La0_0 Rh4_0 3.266952 1_555
La0_0 Rh4_4 3.266952 1_455
La0_0 Rh3_1 3.266952 1_554
La0_0 Rh3_5 3.266952 1_454
La0_1 La0_5 2.916881 1_555
La0_1 La0_5 2.916881 1_455
La0_1 Rh1_5 3.160274 1_455
La0_1 Rh1_1 3.160274 1_555
La0_1 Rh1_3 3.166631 1_555
La0_1 Rh1_7 3.166631 1_455
La0_1 Rh5_2 3.240990 1_555
La0_1 Rh5_6 3.240990 1_455
La0_1 Rh2_3 3.240990 1_555
La0_1 Rh2_7 3.240990 1_455
La0_1 Rh4_1 3.266952 1_555
La0_1 Rh4_5 3.266952 1_455
La0_1 Rh3_4 3.266952 1_455
La0_1 Rh3_0 3.266952 1_555
La0_2 La0_6 2.916881 1_555
La0_2 La0_6 2.916881 1_455
La0_2 Rh1_2 3.160274 1_555
La0_2 Rh1_6 3.160274 1_455
La0_2 Rh1_0 3.166631 1_565
La0_2 Rh1_4 3.166631 1_465
La0_2 Rh5_1 3.240990 1_564
La0_2 Rh5_5 3.240990 1_464
La0_2 Rh2_0 3.240990 1_565
La0_2 Rh2_4 3.240990 1_465
La0_2 Rh4_2 3.266952 1_555
La0_2 Rh4_6 3.266952 1_455
La0_2 Rh3_3 3.266952 1_554
La0_2 Rh3_7 3.266952 1_454
La0_3 La0_7 2.916881 1_555
La0_3 La0_7 2.916881 1_455
La0_3 Rh1_3 3.160274 1_555
La0_3 Rh1_7 3.160274 1_455
La0_3 Rh1_1 3.166631 1_565
La0_3 Rh1_5 3.166631 1_465
La0_3 Rh5_0 3.240990 1_565
La0_3 Rh5_4 3.240990 1_465
La0_3 Rh2_1 3.240990 1_565
La0_3 Rh2_5 3.240990 1_465
La0_3 Rh4_7 3.266952 1_455
La0_3 Rh4_3 3.266952 1_555
La0_3 Rh3_2 3.266952 1_555
La0_3 Rh3_6 3.266952 1_455
La0_4 Rh1_4 3.160274 1_555
La0_4 Rh1_0 3.160274 1_555
La0_4 Rh1_6 3.166631 1_555
La0_4 Rh1_2 3.166631 1_555
La0_4 Rh5_7 3.240990 1_554
La0_4 Rh5_3 3.240990 1_554
La0_4 Rh2_6 3.240990 1_555
La0_4 Rh2_2 3.240990 1_555
La0_4 Rh4_0 3.266952 1_555
La0_4 Rh4_4 3.266952 1_555
La0_4 Rh3_1 3.266952 1_554
La0_4 Rh3_5 3.266952 1_554
La0_5 Rh1_5 3.160274 1_555
La0_5 Rh1_1 3.160274 1_555
La0_5 Rh1_7 3.166631 1_555
La0_5 Rh1_3 3.166631 1_555
La0_5 Rh5_2 3.240990 1_555
La0_5 Rh5_6 3.240990 1_555
La0_5 Rh2_7 3.240990 1_555
La0_5 Rh2_3 3.240990 1_555
La0_5 Rh4_1 3.266952 1_555
La0_5 Rh4_5 3.266952 1_555
La0_5 Rh3_4 3.266952 1_555
La0_5 Rh3_0 3.266952 1_555
La0_6 Rh1_6 3.160274 1_555
La0_6 Rh1_2 3.160274 1_555
La0_6 Rh1_4 3.166631 1_565
La0_6 Rh1_0 3.166631 1_565
La0_6 Rh5_1 3.240990 1_564
La0_6 Rh5_5 3.240990 1_564
La0_6 Rh2_4 3.240990 1_565
La0_6 Rh2_0 3.240990 1_565
La0_6 Rh4_6 3.266952 1_555
La0_6 Rh4_2 3.266952 1_555
La0_6 Rh3_3 3.266952 1_554
La0_6 Rh3_7 3.266952 1_554
La0_7 Rh1_3 3.160274 1_555
La0_7 Rh1_7 3.160274 1_555
La0_7 Rh1_5 3.166631 1_565
La0_7 Rh1_1 3.166631 1_565
La0_7 Rh5_4 3.240990 1_565
La0_7 Rh5_0 3.240990 1_565
La0_7 Rh2_5 3.240990 1_565
La0_7 Rh2_1 3.240990 1_565
La0_7 Rh4_7 3.266952 1_555
La0_7 Rh4_3 3.266952 1_555
La0_7 Rh3_6 3.266952 1_555
La0_7 Rh3_2 3.266952 1_555
B0_0 Rh4_0 2.170234 1_555
B0_0 Rh4_4 2.170234 1_455
B0_0 Rh2_2 2.175198 1_555
B0_0 Rh2_6 2.175198 1_455
B0_0 Rh0_2 2.176699 1_555
B0_0 Rh0_6 2.176699 1_455
B0_0 La0_0 3.220516 1_555
B0_1 Rh4_1 2.170234 1_555
B0_1 Rh4_5 2.170234 1_455
B0_1 Rh2_3 2.175198 1_555
B0_1 Rh2_7 2.175198 1_455
B0_1 Rh0_3 2.176699 1_555
B0_1 Rh0_7 2.176699 1_455
B0_1 La0_1 3.220516 1_555
B0_2 Rh4_2 2.170234 1_555
B0_2 Rh4_6 2.170234 1_455
B0_2 Rh2_0 2.175198 1_565
B0_2 Rh2_4 2.175198 1_465
B0_2 Rh0_0 2.176699 1_565
B0_2 Rh0_4 2.176699 1_465
B0_2 La0_2 3.220516 1_555
B0_3 Rh4_3 2.170234 1_555
B0_3 Rh4_7 2.170234 1_455
B0_3 Rh2_1 2.175198 1_565
B0_3 Rh2_5 2.175198 1_465
B0_3 Rh0_1 2.176699 1_565
B0_3 Rh0_5 2.176699 1_465
B0_3 La0_3 3.220516 1_555
B0_4 Rh4_4 2.170234 1_555
B0_4 Rh4_0 2.170234 1_555
B0_4 Rh2_2 2.175198 1_555
B0_4 Rh2_6 2.175198 1_555
B0_4 Rh0_2 2.176699 1_555
B0_4 Rh0_6 2.176699 1_555
B0_4 La0_4 3.220516 1_555
B0_5 Rh4_1 2.170234 1_555
B0_5 Rh4_5 2.170234 1_555
B0_5 Rh2_7 2.175198 1_555
B0_5 Rh2_3 2.175198 1_555
B0_5 Rh0_3 2.176699 1_555
B0_5 Rh0_7 2.176699 1_555
B0_5 La0_5 3.220516 1_555
B0_6 Rh4_6 2.170234 1_555
B0_6 Rh4_2 2.170234 1_555
B0_6 Rh2_4 2.175198 1_565
B0_6 Rh2_0 2.175198 1_565
B0_6 Rh0_4 2.176699 1_565
B0_6 Rh0_0 2.176699 1_565
B0_6 La0_6 3.220516 1_555
B0_7 Rh4_3 2.170234 1_555
B0_7 Rh4_7 2.170234 1_555
B0_7 Rh2_1 2.175198 1_565
B0_7 Rh2_5 2.175198 1_565
B0_7 Rh0_5 2.176699 1_565
B0_7 Rh0_1 2.176699 1_565
B0_7 La0_7 3.220516 1_555
B1_0 Rh1_1 2.183073 1_555
B1_0 Rh1_5 2.183073 1_455
B1_0 Rh3_0 2.183541 1_555
B1_0 Rh3_4 2.183541 1_455
B1_0 Rh5_0 2.185305 1_555
B1_0 Rh5_4 2.185305 1_455
B1_0 La0_1 3.241136 1_555
B1_0 La0_3 3.245509 1_545
B1_1 Rh1_0 2.183073 1_556
B1_1 Rh1_4 2.183073 1_456
B1_1 Rh3_1 2.183541 1_555
B1_1 Rh3_5 2.183541 1_455
B1_1 Rh5_1 2.185305 1_555
B1_1 Rh5_5 2.185305 1_455
B1_1 La0_0 3.241136 1_556
B1_1 La0_2 3.245509 1_546
B1_2 Rh1_3 2.183073 1_555
B1_2 Rh1_7 2.183073 1_455
B1_2 Rh3_2 2.183541 1_555
B1_2 Rh3_6 2.183541 1_455
B1_2 Rh5_2 2.185305 1_555
B1_2 Rh5_6 2.185305 1_455
B1_2 La0_3 3.241136 1_555
B1_2 La0_1 3.245509 1_555
B1_3 Rh1_2 2.183073 1_556
B1_3 Rh1_6 2.183073 1_456
B1_3 Rh3_3 2.183541 1_555
B1_3 Rh3_7 2.183541 1_455
B1_3 Rh5_3 2.185305 1_555
B1_3 Rh5_7 2.185305 1_455
B1_3 La0_2 3.241136 1_556
B1_3 La0_0 3.245509 1_556
B1_4 Rh1_1 2.183073 1_555
B1_4 Rh1_5 2.183073 1_555
B1_4 Rh3_0 2.183541 1_555
B1_4 Rh3_4 2.183541 1_555
B1_4 Rh5_0 2.185305 1_555
B1_4 Rh5_4 2.185305 1_555
B1_4 La0_5 3.241136 1_555
B1_4 La0_7 3.245509 1_545
B1_5 Rh1_0 2.183073 1_556
B1_5 Rh1_4 2.183073 1_556
B1_5 Rh3_5 2.183541 1_555
B1_5 Rh3_1 2.183541 1_555
B1_5 Rh5_1 2.185305 1_555
B1_5 Rh5_5 2.185305 1_555
B1_5 La0_4 3.241136 1_556
B1_5 La0_6 3.245509 1_546
B1_6 Rh1_3 2.183073 1_555
B1_6 Rh1_7 2.183073 1_555
B1_6 Rh3_2 2.183541 1_555
B1_6 Rh3_6 2.183541 1_555
B1_6 Rh5_2 2.185305 1_555
B1_6 Rh5_6 2.185305 1_555
B1_6 La0_7 3.241136 1_555
B1_6 La0_5 3.245509 1_555
B1_7 Rh1_2 2.183073 1_556
B1_7 Rh1_6 2.183073 1_556
B1_7 Rh3_3 2.183541 1_555
B1_7 Rh3_7 2.183541 1_555
B1_7 Rh5_3 2.185305 1_555
B1_7 Rh5_7 2.185305 1_555
B1_7 La0_6 3.241136 1_556
B1_7 La0_4 3.245509 1_556
B2_0 Rh1_0 2.183073 1_555
B2_0 Rh1_4 2.183073 1_455
B2_0 Rh4_0 2.183541 1_555
B2_0 Rh4_4 2.183541 1_455
B2_0 Rh2_0 2.185305 1_555
B2_0 Rh2_4 2.185305 1_455
B2_0 La0_0 3.241136 1_555
B2_0 La0_2 3.245509 1_545
B2_1 Rh1_1 2.183073 1_555
B2_1 Rh1_5 2.183073 1_455
B2_1 Rh4_1 2.183541 1_555
B2_1 Rh4_5 2.183541 1_455
B2_1 Rh2_1 2.185305 1_555
B2_1 Rh2_5 2.185305 1_455
B2_1 La0_1 3.241136 1_555
B2_1 La0_3 3.245509 1_545
B2_2 Rh1_2 2.183073 1_555
B2_2 Rh1_6 2.183073 1_455
B2_2 Rh4_2 2.183541 1_555
B2_2 Rh4_6 2.183541 1_455
B2_2 Rh2_2 2.185305 1_555
B2_2 Rh2_6 2.185305 1_455
B2_2 La0_2 3.241136 1_555
B2_2 La0_0 3.245509 1_555
B2_3 Rh1_3 2.183073 1_555
B2_3 Rh1_7 2.183073 1_455
B2_3 Rh4_3 2.183541 1_555
B2_3 Rh4_7 2.183541 1_455
B2_3 Rh2_3 2.185305 1_555
B2_3 Rh2_7 2.185305 1_455
B2_3 La0_3 3.241136 1_555
B2_3 La0_1 3.245509 1_555
B2_4 Rh1_0 2.183073 1_555
B2_4 Rh1_4 2.183073 1_555
B2_4 Rh4_4 2.183541 1_555
B2_4 Rh4_0 2.183541 1_555
B2_4 Rh2_0 2.185305 1_555
B2_4 Rh2_4 2.185305 1_555
B2_4 La0_4 3.241136 1_555
B2_4 La0_6 3.245509 1_545
B2_5 Rh1_1 2.183073 1_555
B2_5 Rh1_5 2.183073 1_555
B2_5 Rh4_1 2.183541 1_555
B2_5 Rh4_5 2.183541 1_555
B2_5 Rh2_1 2.185305 1_555
B2_5 Rh2_5 2.185305 1_555
B2_5 La0_5 3.241136 1_555
B2_5 La0_7 3.245509 1_545
B2_6 Rh1_2 2.183073 1_555
B2_6 Rh1_6 2.183073 1_555
B2_6 Rh4_6 2.183541 1_555
B2_6 Rh4_2 2.183541 1_555
B2_6 Rh2_6 2.185305 1_555
B2_6 Rh2_2 2.185305 1_555
B2_6 La0_6 3.241136 1_555
B2_6 La0_4 3.245509 1_555
B2_7 Rh1_7 2.183073 1_555
B2_7 Rh1_3 2.183073 1_555
B2_7 Rh4_3 2.183541 1_555
B2_7 Rh4_7 2.183541 1_555
B2_7 Rh2_7 2.185305 1_555
B2_7 Rh2_3 2.185305 1_555
B2_7 La0_7 3.241136 1_555
B2_7 La0_5 3.245509 1_555
B3_0 Rh3_0 2.170234 1_555
B3_0 Rh3_4 2.170234 1_455
B3_0 Rh5_2 2.175198 1_555
B3_0 Rh5_6 2.175198 1_455
B3_0 Rh0_2 2.176699 1_555
B3_0 Rh0_6 2.176699 1_455
B3_0 La0_1 3.220516 1_555
B3_1 Rh3_1 2.170234 1_555
B3_1 Rh3_5 2.170234 1_455
B3_1 Rh5_3 2.175198 1_555
B3_1 Rh5_7 2.175198 1_455
B3_1 Rh0_3 2.176699 1_555
B3_1 Rh0_7 2.176699 1_455
B3_1 La0_0 3.220516 1_556
B3_2 Rh3_2 2.170234 1_555
B3_2 Rh3_6 2.170234 1_455
B3_2 Rh5_0 2.175198 1_565
B3_2 Rh5_4 2.175198 1_465
B3_2 Rh0_0 2.176699 1_565
B3_2 Rh0_4 2.176699 1_465
B3_2 La0_3 3.220516 1_555
B3_3 Rh3_3 2.170234 1_555
B3_3 Rh3_7 2.170234 1_455
B3_3 Rh5_1 2.175198 1_565
B3_3 Rh5_5 2.175198 1_465
B3_3 Rh0_1 2.176699 1_565
B3_3 Rh0_5 2.176699 1_465
B3_3 La0_2 3.220516 1_556
B3_4 Rh3_0 2.170234 1_555
B3_4 Rh3_4 2.170234 1_555
B3_4 Rh5_6 2.175198 1_555
B3_4 Rh5_2 2.175198 1_555
B3_4 Rh0_2 2.176699 1_555
B3_4 Rh0_6 2.176699 1_555
B3_4 La0_5 3.220516 1_555
B3_5 Rh3_5 2.170234 1_555
B3_5 Rh3_1 2.170234 1_555
B3_5 Rh5_3 2.175198 1_555
B3_5 Rh5_7 2.175198 1_555
B3_5 Rh0_3 2.176699 1_555
B3_5 Rh0_7 2.176699 1_555
B3_5 La0_4 3.220516 1_556
B3_6 Rh3_2 2.170234 1_555
B3_6 Rh3_6 2.170234 1_555
B3_6 Rh5_4 2.175198 1_565
B3_6 Rh5_0 2.175198 1_565
B3_6 Rh0_0 2.176699 1_565
B3_6 Rh0_4 2.176699 1_565
B3_6 La0_7 3.220516 1_555
B3_7 Rh3_7 2.170234 1_555
B3_7 Rh3_3 2.170234 1_555
B3_7 Rh5_1 2.175198 1_565
B3_7 Rh5_5 2.175198 1_565
B3_7 Rh0_1 2.176699 1_565
B3_7 Rh0_5 2.176699 1_565
B3_7 La0_6 3.220516 1_556
Rh0_0 Rh6_4 3.132704 1_555
Rh0_0 Rh6_0 3.132704 1_555
Rh0_0 Rh6_6 3.194282 1_545
Rh0_0 Rh6_2 3.194282 1_545
Rh0_1 Rh6_1 3.132704 1_555
Rh0_1 Rh6_5 3.132704 1_555
Rh0_1 Rh6_3 3.194282 1_545
Rh0_1 Rh6_7 3.194282 1_545
Rh0_2 Rh6_2 3.132704 1_555
Rh0_2 Rh6_6 3.132704 1_555
Rh0_2 Rh6_0 3.194282 1_555
Rh0_2 Rh6_4 3.194282 1_555
Rh0_3 Rh6_7 3.132704 1_555
Rh0_3 Rh6_3 3.132704 1_555
Rh0_3 Rh6_5 3.194282 1_555
Rh0_3 Rh6_1 3.194282 1_555
Rh0_4 Rh6_4 3.132704 1_555
Rh0_4 Rh6_0 3.132704 1_655
Rh0_4 Rh6_6 3.194282 1_545
Rh0_4 Rh6_2 3.194282 1_645
Rh0_5 Rh6_5 3.132704 1_555
Rh0_5 Rh6_1 3.132704 1_655
Rh0_5 Rh6_7 3.194282 1_545
Rh0_5 Rh6_3 3.194282 1_645
Rh0_6 Rh6_6 3.132704 1_555
Rh0_6 Rh6_2 3.132704 1_655
Rh0_6 Rh6_4 3.194282 1_555
Rh0_6 Rh6_0 3.194282 1_655
Rh0_7 Rh6_7 3.132704 1_555
Rh0_7 Rh6_3 3.132704 1_655
Rh0_7 Rh6_5 3.194282 1_555
Rh0_7 Rh6_1 3.194282 1_655
Rh2_0 Rh6_4 3.065567 1_555
Rh2_0 Rh6_0 3.065567 1_555
Rh2_1 Rh6_1 3.065567 1_555
Rh2_1 Rh6_5 3.065567 1_555
Rh2_2 Rh6_2 3.065567 1_555
Rh2_2 Rh6_6 3.065567 1_555
Rh2_3 Rh6_3 3.065567 1_555
Rh2_3 Rh6_7 3.065567 1_555
Rh2_4 Rh6_4 3.065567 1_555
Rh2_4 Rh6_0 3.065567 1_655
Rh2_5 Rh6_5 3.065567 1_555
Rh2_5 Rh6_1 3.065567 1_655
Rh2_6 Rh6_6 3.065567 1_555
Rh2_6 Rh6_2 3.065567 1_655
Rh2_7 Rh6_7 3.065567 1_555
Rh2_7 Rh6_3 3.065567 1_655
Rh3_0 Rh6_0 3.041773 1_555
Rh3_0 Rh6_4 3.041773 1_555
Rh3_1 Rh6_5 3.041773 1_555
Rh3_1 Rh6_1 3.041773 1_555
Rh3_2 Rh6_2 3.041773 1_555
Rh3_2 Rh6_6 3.041773 1_555
Rh3_3 Rh6_3 3.041773 1_555
Rh3_3 Rh6_7 3.041773 1_555
Rh3_4 Rh6_0 3.041773 1_655
Rh3_4 Rh6_4 3.041773 1_555
Rh3_5 Rh6_5 3.041773 1_555
Rh3_5 Rh6_1 3.041773 1_655
Rh3_6 Rh6_6 3.041773 1_555
Rh3_6 Rh6_2 3.041773 1_655
Rh3_7 Rh6_7 3.041773 1_555
Rh3_7 Rh6_3 3.041773 1_655
Rh4_0 Rh6_0 3.041773 1_555
Rh4_0 Rh6_4 3.041773 1_555
Rh4_1 Rh6_1 3.041773 1_555
Rh4_1 Rh6_5 3.041773 1_555
Rh4_2 Rh6_2 3.041773 1_555
Rh4_2 Rh6_6 3.041773 1_555
Rh4_3 Rh6_7 3.041773 1_555
Rh4_3 Rh6_3 3.041773 1_555
Rh4_4 Rh6_4 3.041773 1_555
Rh4_4 Rh6_0 3.041773 1_655
Rh4_5 Rh6_5 3.041773 1_555
Rh4_5 Rh6_1 3.041773 1_655
Rh4_6 Rh6_2 3.041773 1_655
Rh4_6 Rh6_6 3.041773 1_555
Rh4_7 Rh6_7 3.041773 1_555
Rh4_7 Rh6_3 3.041773 1_655
Rh5_0 Rh6_0 3.065567 1_555
Rh5_0 Rh6_4 3.065567 1_555
Rh5_1 Rh6_1 3.065567 1_555
Rh5_1 Rh6_5 3.065567 1_555
Rh5_2 Rh6_2 3.065567 1_555
Rh5_2 Rh6_6 3.065567 1_555
Rh5_3 Rh6_7 3.065567 1_555
Rh5_3 Rh6_3 3.065567 1_555
Rh5_4 Rh6_0 3.065567 1_655
Rh5_4 Rh6_4 3.065567 1_555
Rh5_5 Rh6_1 3.065567 1_655
Rh5_5 Rh6_5 3.065567 1_555
Rh5_6 Rh6_6 3.065567 1_555
Rh5_6 Rh6_2 3.065567 1_655
Rh5_7 Rh6_7 3.065567 1_555
Rh5_7 Rh6_3 3.065567 1_655
Rh6_0 Rh6_4 2.916881 1_555
Rh6_0 Rh6_4 2.916881 1_455
Rh6_1 Rh6_5 2.916881 1_555
Rh6_1 Rh6_5 2.916881 1_455
Rh6_2 Rh6_6 2.916881 1_555
Rh6_2 Rh6_6 2.916881 1_455
Rh6_3 Rh6_7 2.916881 1_555
Rh6_3 Rh6_7 2.916881 1_455
