# generated using pymatgen
data_TeC4S4N8(ClO)2
_symmetry_space_group_name_H-M   'P 1'
_cell_length_a   14.46100200
_cell_length_b   7.92050000
_cell_length_c   12.12608533
_cell_angle_alpha   69.00986558
_cell_angle_beta   90.00000000
_cell_angle_gamma   90.00000000
_symmetry_Int_Tables_number   1
_chemical_formula_structural   TeC4S4N8(ClO)2
_chemical_formula_sum   'Te2 C8 S8 N16 Cl4 O4'
_cell_volume   1296.73740961
_cell_formula_units_Z   2
loop_
 _symmetry_equiv_pos_site_id
 _symmetry_equiv_pos_as_xyz
  1  'x, y, z'
loop_
 _atom_site_type_symbol
 _atom_site_label
 _atom_site_symmetry_multiplicity
 _atom_site_fract_x
 _atom_site_fract_y
 _atom_site_fract_z
 _atom_site_occupancy
  Te  Te0  1  0.00000000  0.00000000  0.00000000  1
  Te  Te1  1  0.50000000  0.00000000  0.50000000  1
  C  C0  1  0.21187700  0.95479700  0.12603300  1
  C  C1  1  0.71187700  0.04520300  0.37396700  1
  C  C2  1  0.78812300  0.04520300  0.87396700  1
  C  C3  1  0.28812300  0.95479700  0.62603300  1
  C  C4  1  0.05748700  0.19588800  0.37287300  1
  C  C5  1  0.55748700  0.80411200  0.12712700  1
  C  C6  1  0.94251300  0.80411200  0.62712700  1
  C  C7  1  0.44251300  0.19588800  0.87287300  1
  S  S0  1  0.17195100  0.85632100  0.03700300  1
  S  S1  1  0.67195100  0.14367900  0.46299700  1
  S  S2  1  0.82804900  0.14367900  0.96299700  1
  S  S3  1  0.32804900  0.85632100  0.53700300  1
  S  S4  1  0.99054700  0.71525800  0.19645000  1
  S  S5  1  0.49054700  0.28474200  0.30355000  1
  S  S6  1  0.00945300  0.28474200  0.80355000  1
  S  S7  1  0.50945300  0.71525800  0.69645000  1
  N  N0  1  0.18447400  0.30389400  0.06582900  1
  N  N1  1  0.68447400  0.69610600  0.43417100  1
  N  N2  1  0.81552600  0.69610600  0.93417100  1
  N  N3  1  0.31552600  0.30389400  0.56582900  1
  N  N4  1  0.24027800  0.02929900  0.18842000  1
  N  N5  1  0.74027800  0.97070100  0.31158000  1
  N  N6  1  0.75972200  0.97070100  0.81158000  1
  N  N7  1  0.25972200  0.02929900  0.68842000  1
  N  N8  1  0.11500500  0.10424300  0.44439400  1
  N  N9  1  0.61500500  0.89575700  0.05560600  1
  N  N10  1  0.88499500  0.89575700  0.55560600  1
  N  N11  1  0.38499500  0.10424300  0.94439400  1
  N  N12  1  0.99933200  0.28684400  0.30102900  1
  N  N13  1  0.49933200  0.71315600  0.19897100  1
  N  N14  1  0.00066800  0.71315600  0.69897100  1
  N  N15  1  0.50066800  0.28684400  0.80102900  1
  Cl  Cl0  1  0.35690500  0.34807800  0.26338500  1
  Cl  Cl1  1  0.85690500  0.65192200  0.23661500  1
  Cl  Cl2  1  0.64309500  0.65192200  0.73661500  1
  Cl  Cl3  1  0.14309500  0.34807800  0.76338500  1
  O  O0  1  0.25947600  0.38456400  0.50189200  1
  O  O1  1  0.75947600  0.61543600  0.99810800  1
  O  O2  1  0.74052400  0.61543600  0.49810800  1
  O  O3  1  0.24052400  0.38456400  0.00189200  1
loop_
_geom_bond_atom_site_label_1
_geom_bond_atom_site_label_2
_geom_bond_distance
_geom_bond_site_symmetry_2
C0 N4 1.187019 1_565
C0 S0 1.646356 1_555
C1 N5 1.187019 1_545
C1 S1 1.646356 1_555
C2 N6 1.187019 1_545
C2 S2 1.646356 1_555
C3 N7 1.187019 1_565
C3 S3 1.646356 1_555
C4 N8 1.232836 1_555
C4 N12 1.239185 1_455
C5 N9 1.232836 1_555
C5 N13 1.239185 1_555
C6 N10 1.232836 1_555
C6 N14 1.239185 1_655
C7 N11 1.232836 1_555
C7 N15 1.239185 1_555
S0 Te0 2.704381 1_565
S1 Te1 2.704381 1_555
S2 Te0 2.704381 1_656
S3 Te1 2.704381 1_565
S4 Te0 2.632651 1_665
S5 Te1 2.632651 1_555
S6 Te0 2.632651 1_556
S7 Te1 2.632651 1_565
N0 O3 1.145176 1_555
N1 O2 1.145176 1_555
N2 O1 1.145176 1_555
N3 O0 1.145176 1_555
Cl0 S5 2.012153 1_555
Cl1 S4 2.012153 1_555
Cl2 S7 2.012153 1_555
Cl3 S6 2.012153 1_555
