# generated using pymatgen
data_Ba4IrN4
_symmetry_space_group_name_H-M   'P 1'
_cell_length_a   7.46555304
_cell_length_b   6.97638734
_cell_length_c   9.82581727
_cell_angle_alpha   74.49033914
_cell_angle_beta   68.00470942
_cell_angle_gamma   68.06200361
_symmetry_Int_Tables_number   1
_chemical_formula_structural   Ba4IrN4
_chemical_formula_sum   'Ba8 Ir2 N8'
_cell_volume   435.28493480
_cell_formula_units_Z   2
loop_
 _symmetry_equiv_pos_site_id
 _symmetry_equiv_pos_as_xyz
  1  'x, y, z'
loop_
 _atom_site_type_symbol
 _atom_site_label
 _atom_site_symmetry_multiplicity
 _atom_site_fract_x
 _atom_site_fract_y
 _atom_site_fract_z
 _atom_site_occupancy
  Ba  Ba0  1  0.80777400  0.61125000  0.15663200  1
  Ba  Ba1  1  0.19222600  0.38875000  0.84336800  1
  Ba  Ba2  1  0.69283200  0.18668900  0.02551100  1
  Ba  Ba3  1  0.30716800  0.81331100  0.97448900  1
  Ba  Ba4  1  0.76753000  0.45369800  0.63974500  1
  Ba  Ba5  1  0.23247000  0.54630200  0.36025500  1
  Ba  Ba6  1  0.23277600  0.94107800  0.55773100  1
  Ba  Ba7  1  0.76722400  0.05892200  0.44226900  1
  Ir  Ir0  1  0.80106900  0.82911700  0.78989200  1
  Ir  Ir1  1  0.19893100  0.17088300  0.21010800  1
  N  N0  1  0.98807500  0.71702500  0.60020500  1
  N  N1  1  0.01192500  0.28297500  0.39979500  1
  N  N2  1  0.00193100  0.83620600  0.86920900  1
  N  N3  1  0.99806900  0.16379400  0.13079100  1
  N  N4  1  0.74044200  0.57022300  0.90116400  1
  N  N5  1  0.25955800  0.42977700  0.09883600  1
  N  N6  1  0.40701300  0.92767700  0.22868000  1
  N  N7  1  0.59298700  0.07232300  0.77132000  1
loop_
_geom_bond_atom_site_label_1
_geom_bond_atom_site_label_2
_geom_bond_distance
_geom_bond_site_symmetry_2
Ba0 N4 2.841217 1_554
Ba0 N6 2.939378 1_555
Ba0 N3 2.944027 1_555
Ba0 N2 2.966974 1_654
Ba0 N5 3.010042 1_655
Ba0 N1 3.235687 1_655
Ba1 N5 2.841217 1_556
Ba1 N7 2.939378 1_555
Ba1 N2 2.944027 1_555
Ba1 N3 2.966974 1_456
Ba1 N4 3.010042 1_455
Ba1 N0 3.235687 1_455
Ba2 N4 2.723121 1_554
Ba2 N3 2.773772 1_555
Ba2 N5 2.943954 1_555
Ba2 N2 2.966453 1_644
Ba2 N6 3.092654 1_545
Ba2 N7 3.214817 1_554
Ba3 N5 2.723121 1_556
Ba3 N2 2.773772 1_555
Ba3 N4 2.943954 1_555
Ba3 N3 2.966453 1_466
Ba3 N7 3.092654 1_565
Ba3 N6 3.214817 1_556
Ba4 N1 2.638571 1_655
Ba4 N0 2.763319 1_555
Ba4 N4 2.811498 1_555
Ba4 N7 3.152353 1_555
Ba5 N0 2.638571 1_455
Ba5 N1 2.763319 1_555
Ba5 N5 2.811498 1_555
Ba5 N6 3.152353 1_555
Ba6 N0 2.677380 1_455
Ba6 N1 2.795428 1_565
Ba6 N2 2.943788 1_555
Ba6 N6 3.012441 1_555
Ba7 N1 2.677380 1_655
Ba7 N0 2.795428 1_545
Ba7 N3 2.943788 1_555
Ba7 N7 3.012441 1_555
Ir0 N7 1.844616 1_565
Ir0 N2 1.951900 1_655
Ir0 N4 1.961242 1_555
Ir0 N0 2.012231 1_555
Ir1 N6 1.844616 1_545
Ir1 N3 1.951900 1_455
Ir1 N5 1.961242 1_555
Ir1 N1 2.012231 1_555
