# generated using pymatgen
data_Nd2CoSn4
_symmetry_space_group_name_H-M   'P 1'
_cell_length_a   4.50443622
_cell_length_b   4.52542206
_cell_length_c   8.87968320
_cell_angle_alpha   75.26812470
_cell_angle_beta   90.00000677
_cell_angle_gamma   90.00000000
_symmetry_Int_Tables_number   1
_chemical_formula_structural   Nd2CoSn4
_chemical_formula_sum   'Nd2 Co1 Sn4'
_cell_volume   175.05731192
_cell_formula_units_Z   1
loop_
 _symmetry_equiv_pos_site_id
 _symmetry_equiv_pos_as_xyz
  1  'x, y, z'
loop_
 _atom_site_type_symbol
 _atom_site_label
 _atom_site_symmetry_multiplicity
 _atom_site_fract_x
 _atom_site_fract_y
 _atom_site_fract_z
 _atom_site_occupancy
  Nd  Nd0  1  0.25000000  0.90483902  0.18997526  1
  Nd  Nd1  1  0.75000000  0.11468000  0.77106212  1
  Co  Co0  1  0.25000000  0.70236270  0.59521921  1
  Sn  Sn0  1  0.25000000  0.26612601  0.46765567  1
  Sn  Sn1  1  0.75000000  0.76574089  0.46912774  1
  Sn  Sn2  1  0.25000000  0.55918678  0.88179926  1
  Sn  Sn3  1  0.75000000  0.44706561  0.10516173  1
loop_
_geom_bond_atom_site_label_1
_geom_bond_atom_site_label_2
_geom_bond_distance
_geom_bond_site_symmetry_2
Nd0 Sn3 3.274286 1_465
Nd0 Sn3 3.274286 1_565
Nd0 Sn3 3.274868 1_455
Nd0 Sn3 3.274869 1_555
Nd0 Sn0 3.286826 1_565
Nd0 Sn0 3.287808 1_555
Nd0 Sn1 3.289305 1_555
Nd0 Sn1 3.289306 1_455
Nd0 Sn2 3.480270 1_554
Nd0 Sn2 3.483658 1_564
Nd1 Sn2 3.330442 1_655
Nd1 Sn2 3.330442 1_555
Nd1 Sn2 3.331907 1_645
Nd1 Sn2 3.331907 1_545
Nd1 Sn1 3.440198 1_545
Nd1 Sn1 3.442599 1_555
Nd1 Sn0 3.444063 1_555
Nd1 Sn0 3.444063 1_655
Nd1 Sn3 3.651499 1_556
Nd1 Sn3 3.656585 1_546
Co0 Sn2 2.461086 1_555
Co0 Sn1 2.499009 1_455
Co0 Sn1 2.499009 1_555
Co0 Sn0 2.513494 1_555
Co0 Sn0 2.514410 1_565
Co0 Nd1 3.531509 1_555
Co0 Nd1 3.531509 1_455
Co0 Nd1 3.531847 1_565
Co0 Nd1 3.531847 1_465
Sn2 Sn3 2.958367 1_556
Sn2 Sn3 2.958367 1_456
