# generated using pymatgen
data_NaLiMg6O7
_symmetry_space_group_name_H-M   'P 1'
_cell_length_a   8.45164770
_cell_length_b   4.33041004
_cell_length_c   4.33041004
_cell_angle_alpha   90.00000000
_cell_angle_beta   90.00000000
_cell_angle_gamma   90.00000000
_symmetry_Int_Tables_number   1
_chemical_formula_structural   NaLiMg6O7
_chemical_formula_sum   'Na1 Li1 Mg6 O7'
_cell_volume   158.48911033
_cell_formula_units_Z   1
loop_
 _symmetry_equiv_pos_site_id
 _symmetry_equiv_pos_as_xyz
  1  'x, y, z'
loop_
 _atom_site_type_symbol
 _atom_site_label
 _atom_site_symmetry_multiplicity
 _atom_site_fract_x
 _atom_site_fract_y
 _atom_site_fract_z
 _atom_site_occupancy
  Na  Na0  1  0.51127025  0.00000000  -0.00000000  1
  Li  Li0  1  0.98056264  0.00000000  -0.00000000  1
  Mg  Mg0  1  0.00117962  0.50000000  0.50000000  1
  Mg  Mg1  1  0.49760617  0.50000000  0.50000000  1
  Mg  Mg2  1  0.24732168  0.00000000  0.50000000  1
  Mg  Mg3  1  0.75673410  -0.00000000  0.50000000  1
  Mg  Mg4  1  0.24732168  0.50000000  0.00000000  1
  Mg  Mg5  1  0.75673410  0.50000000  -0.00000000  1
  O  O0  1  0.76310961  -0.00000000  0.00000000  1
  O  O1  1  0.24780539  0.50000000  0.50000000  1
  O  O2  1  0.75003367  0.50000000  0.50000000  1
  O  O3  1  0.01603461  -0.00000000  0.50000000  1
  O  O4  1  0.47912594  0.00000000  0.50000000  1
  O  O5  1  0.01603461  0.50000000  -0.00000000  1
  O  O6  1  0.47912594  0.50000000  -0.00000000  1
loop_
_geom_bond_atom_site_label_1
_geom_bond_atom_site_label_2
_geom_bond_distance
_geom_bond_site_symmetry_2
Na0 O0 2.128458 1_555
Na0 O6 2.182182 1_555
Na0 O4 2.182182 1_555
Na0 O4 2.182182 1_554
Na0 O6 2.182182 1_545
Li0 O0 1.837836 1_555
Li0 O5 2.185862 1_645
Li0 O3 2.185862 1_654
Li0 O5 2.185862 1_655
Li0 O3 2.185862 1_655
Mg0 O1 2.084394 1_555
Mg0 O2 2.122597 1_455
Mg0 O5 2.168842 1_555
Mg0 O3 2.168842 1_555
Mg0 O3 2.168842 1_565
Mg0 O5 2.168842 1_556
Mg1 O1 2.111228 1_555
Mg1 O2 2.133428 1_555
Mg1 O6 2.170831 1_556
Mg1 O6 2.170831 1_555
Mg1 O4 2.170831 1_555
Mg1 O4 2.170831 1_565
Mg2 O3 1.954757 1_555
Mg2 O4 1.959128 1_555
Mg2 O1 2.165209 1_545
Mg2 O1 2.165209 1_555
Mg3 O0 2.165875 1_555
Mg3 O0 2.165875 1_556
Mg3 O2 2.165945 1_555
Mg3 O2 2.165945 1_545
Mg3 O3 2.191517 1_655
Mg3 O4 2.346246 1_555
Mg4 O5 1.954757 1_555
Mg4 O6 1.959128 1_555
Mg4 O1 2.165209 1_555
Mg4 O1 2.165209 1_554
Mg5 O0 2.165875 1_555
Mg5 O0 2.165875 1_565
Mg5 O2 2.165945 1_555
Mg5 O2 2.165945 1_554
Mg5 O5 2.191517 1_655
Mg5 O6 2.346246 1_555
