# generated using pymatgen
data_Li4TiCo5O12
_symmetry_space_group_name_H-M   'P 1'
_cell_length_a   4.94739467
_cell_length_b   10.83547709
_cell_length_c   8.66155457
_cell_angle_alpha   113.29937198
_cell_angle_beta   89.86100944
_cell_angle_gamma   85.07478682
_symmetry_Int_Tables_number   1
_chemical_formula_structural   Li4TiCo5O12
_chemical_formula_sum   'Li8 Ti2 Co10 O24'
_cell_volume   424.54737485
_cell_formula_units_Z   2
loop_
 _symmetry_equiv_pos_site_id
 _symmetry_equiv_pos_as_xyz
  1  'x, y, z'
loop_
 _atom_site_type_symbol
 _atom_site_label
 _atom_site_symmetry_multiplicity
 _atom_site_fract_x
 _atom_site_fract_y
 _atom_site_fract_z
 _atom_site_occupancy
  Li  Li0  1  0.03903600  0.74712100  0.20780400  1
  Li  Li1  1  0.53893400  0.74670700  0.70956900  1
  Li  Li2  1  0.46172700  0.25230900  0.96150500  1
  Li  Li3  1  0.95836800  0.25341500  0.46280700  1
  Li  Li4  1  0.54983100  0.74766700  0.04667700  1
  Li  Li5  1  0.04524700  0.74758500  0.54578000  1
  Li  Li6  1  0.95382500  0.25288500  0.79803800  1
  Li  Li7  1  0.45482200  0.25270900  0.29822400  1
  Ti  Ti0  1  0.99982800  0.99991700  0.00092900  1
  Ti  Ti1  1  0.50000900  0.00001300  0.50118900  1
  Co  Co0  1  0.75087500  0.49980800  0.74643000  1
  Co  Co1  1  0.74880000  0.50004400  0.41117900  1
  Co  Co2  1  0.75066900  0.50078800  0.08021500  1
  Co  Co3  1  0.49986200  0.99985100  0.83392100  1
  Co  Co4  1  0.99980900  0.00012200  0.33406400  1
  Co  Co5  1  0.25091400  0.49994400  0.24599600  1
  Co  Co6  1  0.25172500  0.50037100  0.91476900  1
  Co  Co7  1  0.24902100  0.49896800  0.58337500  1
  Co  Co8  1  0.99989300  0.00002200  0.66713300  1
  Co  Co9  1  0.49978800  0.00011100  0.16713800  1
  O  O0  1  0.41053200  0.60138700  0.79359800  1
  O  O1  1  0.90635300  0.60394000  0.29213500  1
  O  O2  1  0.59419900  0.39547500  0.18717200  1
  O  O3  1  0.08727500  0.39716100  0.69133200  1
  O  O4  1  0.82262800  0.10555400  0.55292400  1
  O  O5  1  0.32248600  0.10564600  0.05299200  1
  O  O6  1  0.17718700  0.89440100  0.44820400  1
  O  O7  1  0.67705800  0.89444300  0.94830700  1
  O  O8  1  0.30993300  0.10560600  0.72399400  1
  O  O9  1  0.80957100  0.10575100  0.22409300  1
  O  O10  1  0.18992100  0.89446600  0.11914100  1
  O  O11  1  0.69019200  0.89420500  0.61920200  1
  O  O12  1  0.80976100  0.10488600  0.88171500  1
  O  O13  1  0.30984200  0.10513400  0.38193600  1
  O  O14  1  0.68989600  0.89523400  0.27771000  1
  O  O15  1  0.18978500  0.89478500  0.77746600  1
  O  O16  1  0.08970200  0.39234700  0.01868700  1
  O  O17  1  0.58488200  0.39299500  0.52350400  1
  O  O18  1  0.61773700  0.39429600  0.87208000  1
  O  O19  1  0.10701500  0.39398100  0.37539700  1
  O  O20  1  0.41381600  0.60866900  0.12780500  1
  O  O21  1  0.91112800  0.60538900  0.63165500  1
  O  O22  1  0.88502300  0.60818500  0.98082600  1
  O  O23  1  0.39109800  0.60570700  0.48138000  1
loop_
_geom_bond_atom_site_label_1
_geom_bond_atom_site_label_2
_geom_bond_distance
_geom_bond_site_symmetry_2
Li0 O1 2.107227 1_455
Li0 O22 2.138913 1_454
Li0 O14 2.162436 1_455
Li0 O20 2.205112 1_555
Li0 O10 2.206304 1_555
Li0 O6 2.217007 1_555
Li1 O0 2.118676 1_555
Li1 O23 2.141424 1_555
Li1 O15 2.162593 1_555
Li1 O7 2.209429 1_555
Li1 O21 2.209799 1_555
Li1 O11 2.217892 1_555
Li2 O2 2.106820 1_556
Li2 O12 2.154700 1_555
Li2 O18 2.169411 1_555
Li2 O5 2.193043 1_556
Li2 O16 2.203835 1_556
Li2 O8 2.224521 1_555
Li3 O3 2.118604 1_655
Li3 O19 2.129726 1_655
Li3 O13 2.172530 1_655
Li3 O4 2.190573 1_555
Li3 O17 2.205565 1_555
Li3 O9 2.229273 1_555
Li4 O20 2.055217 1_555
Li4 O22 2.059777 1_554
Li4 O14 2.169582 1_555
Li4 O10 2.193885 1_555
Li4 O7 2.211955 1_554
Li4 O0 2.288821 1_554
Li5 O21 2.108847 1_455
Li5 O23 2.113658 1_555
Li5 O11 2.174895 1_455
Li5 O15 2.180182 1_555
Li5 O6 2.215926 1_555
Li5 O1 2.281956 1_455
Li6 O16 2.069785 1_656
Li6 O18 2.074574 1_555
Li6 O12 2.172131 1_555
Li6 O8 2.182678 1_655
Li6 O4 2.231745 1_555
Li6 O3 2.247506 1_655
Li7 O17 2.088010 1_555
Li7 O19 2.117461 1_555
Li7 O13 2.169971 1_555
Li7 O9 2.175784 1_555
Li7 O5 2.233378 1_555
Li7 O2 2.269528 1_555
Co0 O3 1.868987 1_655
Co0 O0 1.880502 1_555
Co0 O21 1.994310 1_555
Co0 O18 2.008858 1_555
Co0 O17 2.036002 1_555
Co0 O22 2.048337 1_555
Co1 O23 1.976995 1_555
Co1 O19 1.980773 1_655
Co1 O17 2.000018 1_555
Co1 O1 2.000786 1_555
Co1 O21 2.008779 1_555
Co1 O2 2.012542 1_555
Co2 O22 1.860009 1_554
Co2 O18 1.872018 1_554
Co2 O20 1.895968 1_555
Co2 O16 1.907871 1_655
Co2 O1 1.934812 1_555
Co2 O2 1.934976 1_555
Co3 O12 1.935802 1_565
Co3 O15 1.936926 1_555
Co3 O11 1.943757 1_555
Co3 O7 1.944759 1_555
Co3 O5 1.945031 1_566
Co3 O8 1.945553 1_565
Co4 O14 1.935151 1_545
Co4 O13 1.936207 1_655
Co4 O4 1.942646 1_555
Co4 O10 1.944587 1_645
Co4 O9 1.945480 1_555
Co4 O6 1.946085 1_645
Co5 O2 1.906527 1_555
Co5 O1 1.909459 1_455
Co5 O20 2.049027 1_555
Co5 O16 2.055041 1_555
Co5 O19 2.058112 1_555
Co5 O23 2.060587 1_555
Co6 O16 1.952897 1_556
Co6 O20 1.969977 1_556
Co6 O0 1.992306 1_555
Co6 O18 2.009968 1_555
Co6 O22 2.021329 1_455
Co6 O3 2.027260 1_555
Co7 O17 1.882981 1_555
Co7 O19 1.885482 1_555
Co7 O23 1.886015 1_555
Co7 O21 1.892949 1_455
Co7 O3 1.922382 1_555
Co7 O0 1.935557 1_555
Co8 O11 1.939810 1_545
Co8 O8 1.939974 1_655
Co8 O12 1.941060 1_555
Co8 O6 1.943647 1_645
Co8 O15 1.943864 1_645
Co8 O4 1.944766 1_555
Co9 O9 1.939260 1_555
Co9 O10 1.939422 1_545
Co9 O13 1.942304 1_555
Co9 O14 1.942948 1_545
Co9 O7 1.943054 1_544
Co9 O5 1.944459 1_555
O4 Ti1 1.991912 1_555
O5 Ti0 1.993205 1_445
O6 Ti1 1.993219 1_565
O7 Ti0 1.992160 1_556
O8 Ti1 1.994345 1_555
O9 Ti0 1.997414 1_545
O10 Ti0 1.996009 1_455
O11 Ti1 1.997766 1_565
O12 Ti0 1.998558 1_546
O13 Ti1 2.000226 1_555
O14 Ti1 1.996979 1_565
O15 Ti0 1.997579 1_456
