# generated using pymatgen
data_Si3Pb11O17
_symmetry_space_group_name_H-M   'P 1'
_cell_length_a   7.47389200
_cell_length_b   13.31018991
_cell_length_c   22.96699117
_cell_angle_alpha   100.46736821
_cell_angle_beta   99.30225104
_cell_angle_gamma   92.47206952
_symmetry_Int_Tables_number   1
_chemical_formula_structural   Si3Pb11O17
_chemical_formula_sum   'Si12 Pb44 O68'
_cell_volume   2210.96857325
_cell_formula_units_Z   4
loop_
 _symmetry_equiv_pos_site_id
 _symmetry_equiv_pos_as_xyz
  1  'x, y, z'
loop_
 _atom_site_type_symbol
 _atom_site_label
 _atom_site_symmetry_multiplicity
 _atom_site_fract_x
 _atom_site_fract_y
 _atom_site_fract_z
 _atom_site_occupancy
  Si  Si0  1  0.10460200  0.11545800  0.14910700  1
  Si  Si1  1  0.89539800  0.88454200  0.85089300  1
  Si  Si2  1  0.31166400  0.90208300  0.14450300  1
  Si  Si3  1  0.68833600  0.09791700  0.85549700  1
  Si  Si4  1  0.20344800  0.88632000  0.41367200  1
  Si  Si5  1  0.79655200  0.11368000  0.58632800  1
  Si  Si6  1  0.26286700  0.60383600  0.58139300  1
  Si  Si7  1  0.73713300  0.39616400  0.41860700  1
  Si  Si8  1  0.40275800  0.38744300  0.85268700  1
  Si  Si9  1  0.59724200  0.61255700  0.14731300  1
  Si  Si10  1  0.18101300  0.59842500  0.84750300  1
  Si  Si11  1  0.81898700  0.40157500  0.15249700  1
  Pb  Pb0  1  0.25889100  0.00301000  0.00513200  1
  Pb  Pb1  1  0.74110900  0.99698900  0.99486800  1
  Pb  Pb2  1  0.00612500  0.25433900  0.01230600  1
  Pb  Pb3  1  0.99387500  0.74566100  0.98769400  1
  Pb  Pb4  1  0.24552600  0.49505500  0.99582700  1
  Pb  Pb5  1  0.75447400  0.50494500  0.00417300  1
  Pb  Pb6  1  0.50036200  0.75159400  0.00503400  1
  Pb  Pb7  1  0.49963800  0.24840600  0.99496600  1
  Pb  Pb8  1  0.29635300  0.37346700  0.14063400  1
  Pb  Pb9  1  0.70364700  0.62653300  0.85936600  1
  Pb  Pb10  1  0.11214900  0.63995400  0.13581500  1
  Pb  Pb11  1  0.88785100  0.36004600  0.86418500  1
  Pb  Pb12  1  0.16139700  0.01662400  0.28700500  1
  Pb  Pb13  1  0.83860300  0.98337600  0.71299500  1
  Pb  Pb14  1  0.42626800  0.26139900  0.28383300  1
  Pb  Pb15  1  0.57373200  0.73860100  0.71616700  1
  Pb  Pb16  1  0.14382800  0.51255300  0.28078900  1
  Pb  Pb17  1  0.85617200  0.48744700  0.71921100  1
  Pb  Pb18  1  0.39408800  0.76652200  0.27791300  1
  Pb  Pb19  1  0.60591200  0.23347800  0.72208700  1
  Pb  Pb20  1  0.01335400  0.13119700  0.44308800  1
  Pb  Pb21  1  0.98664600  0.86880300  0.55691200  1
  Pb  Pb22  1  0.22998600  0.41383400  0.42370900  1
  Pb  Pb23  1  0.77001400  0.58616600  0.57629100  1
  Pb  Pb24  1  0.03158000  0.66238900  0.43150500  1
  Pb  Pb25  1  0.96842000  0.33761100  0.56849500  1
  Pb  Pb26  1  0.29015900  0.11373300  0.59167500  1
  Pb  Pb27  1  0.70984100  0.88626700  0.40832500  1
  Pb  Pb28  1  0.49824200  0.34821200  0.56396100  1
  Pb  Pb29  1  0.50175800  0.65178800  0.43603900  1
  Pb  Pb30  1  0.49718200  0.85952100  0.58111700  1
  Pb  Pb31  1  0.50281800  0.14047900  0.41888300  1
  Pb  Pb32  1  0.10641600  0.24262300  0.72652800  1
  Pb  Pb33  1  0.89358400  0.75737700  0.27347200  1
  Pb  Pb34  1  0.36116600  0.46846400  0.70409500  1
  Pb  Pb35  1  0.63883400  0.53153600  0.29590500  1
  Pb  Pb36  1  0.06254900  0.74222900  0.70418800  1
  Pb  Pb37  1  0.93745100  0.25777100  0.29581200  1
  Pb  Pb38  1  0.33982900  0.98696200  0.72294800  1
  Pb  Pb39  1  0.66017100  0.01303800  0.27705200  1
  Pb  Pb40  1  0.20733400  0.13476900  0.86511200  1
  Pb  Pb41  1  0.79266600  0.86523100  0.13488800  1
  Pb  Pb42  1  0.38033300  0.85347500  0.85995400  1
  Pb  Pb43  1  0.61966700  0.14652500  0.14004600  1
  O  O0  1  0.27849600  0.35139100  0.04196000  1
  O  O1  1  0.72150400  0.64860900  0.95804000  1
  O  O2  1  0.03343300  0.60036200  0.03692900  1
  O  O3  1  0.96656700  0.39963800  0.96307100  1
  O  O4  1  0.20936600  0.00809800  0.13351900  1
  O  O5  1  0.79063400  0.99190200  0.86648100  1
  O  O6  1  0.20048700  0.19863500  0.11622300  1
  O  O7  1  0.79951300  0.80136500  0.88377700  1
  O  O8  1  0.38708800  0.57778400  0.11164500  1
  O  O9  1  0.61291200  0.42221600  0.88835500  1
  O  O10  1  0.14911200  0.80809100  0.12425800  1
  O  O11  1  0.85088800  0.19190900  0.87574200  1
  O  O12  1  0.47163100  0.89132300  0.10234800  1
  O  O13  1  0.52836900  0.10867700  0.89765200  1
  O  O14  1  0.13533800  0.15200500  0.22333100  1
  O  O15  1  0.86466200  0.84799500  0.77666900  1
  O  O16  1  0.39934900  0.91709800  0.21640000  1
  O  O17  1  0.60065100  0.08290200  0.78360000  1
  O  O18  1  0.43543500  0.10359900  0.31365900  1
  O  O19  1  0.56456500  0.89640100  0.68634100  1
  O  O20  1  0.20397800  0.35542100  0.31781200  1
  O  O21  1  0.79602200  0.64457900  0.68218800  1
  O  O22  1  0.09799700  0.15092500  0.35629000  1
  O  O23  1  0.90200300  0.84907500  0.64371000  1
  O  O24  1  0.23275700  0.56172600  0.38780700  1
  O  O25  1  0.76724300  0.43827400  0.61219300  1
  O  O26  1  0.00083800  0.83823900  0.37360400  1
  O  O27  1  0.99916200  0.16176100  0.62639600  1
  O  O28  1  0.34912100  0.91158200  0.36965100  1
  O  O29  1  0.65087900  0.08841800  0.63034900  1
  O  O30  1  0.27339500  0.79593700  0.45176100  1
  O  O31  1  0.72660500  0.20406300  0.54823900  1
  O  O32  1  0.16759800  0.99225800  0.45863100  1
  O  O33  1  0.83240200  0.00774200  0.54136900  1
  O  O34  1  0.21307600  0.58961200  0.50846000  1
  O  O35  1  0.78692400  0.41038800  0.49154000  1
  O  O36  1  0.36190500  0.50380900  0.60179900  1
  O  O37  1  0.63809500  0.49619100  0.39820100  1
  O  O38  1  0.07751200  0.61655300  0.61348500  1
  O  O39  1  0.92248800  0.38344700  0.38651500  1
  O  O40  1  0.40407000  0.70813500  0.61222900  1
  O  O41  1  0.59593000  0.29186500  0.38777100  1
  O  O42  1  0.25528700  0.94923300  0.60779900  1
  O  O43  1  0.74471300  0.05076700  0.39220100  1
  O  O44  1  0.33625200  0.14149200  0.69476100  1
  O  O45  1  0.66374800  0.85850800  0.30523900  1
  O  O46  1  0.45305800  0.32046700  0.65375800  1
  O  O47  1  0.54694200  0.67953300  0.34624200  1
  O  O48  1  0.08254500  0.38885500  0.68695600  1
  O  O49  1  0.91745500  0.61114500  0.31304400  1
  O  O50  1  0.40431700  0.33543600  0.78155300  1
  O  O51  1  0.59568300  0.66456400  0.21844700  1
  O  O52  1  0.10208100  0.60048300  0.77655700  1
  O  O53  1  0.89791900  0.39951700  0.22344300  1
  O  O54  1  0.28908200  0.49172800  0.85148500  1
  O  O55  1  0.71091800  0.50827200  0.14851500  1
  O  O56  1  0.29113600  0.31249400  0.88698900  1
  O  O57  1  0.70886400  0.68750600  0.11301100  1
  O  O58  1  0.01548300  0.59519300  0.88742200  1
  O  O59  1  0.98451700  0.40480700  0.11257800  1
  O  O60  1  0.33799000  0.69331800  0.87787600  1
  O  O61  1  0.66201000  0.30668200  0.12212400  1
  O  O62  1  0.11139000  0.91458200  0.88081900  1
  O  O63  1  0.88861000  0.08541800  0.11918100  1
  O  O64  1  0.22088000  0.15272600  0.96307100  1
  O  O65  1  0.77912000  0.84727400  0.03692900  1
  O  O66  1  0.46763200  0.90004600  0.95909200  1
  O  O67  1  0.53236800  0.09995400  0.04090800  1
loop_
_geom_bond_atom_site_label_1
_geom_bond_atom_site_label_2
_geom_bond_distance
_geom_bond_site_symmetry_2
O0 Pb8 2.212894 1_555
O0 Pb2 2.298212 1_555
O0 Pb4 2.352070 1_554
O0 Pb7 2.451563 1_554
O1 Pb9 2.212894 1_555
O1 Pb3 2.298212 1_555
O1 Pb5 2.352070 1_556
O1 Pb6 2.451563 1_556
O2 Pb10 2.210931 1_555
O2 Pb5 2.333047 1_455
O2 Pb4 2.358632 1_554
O2 Pb3 2.417046 1_454
O3 Pb11 2.210931 1_555
O3 Pb4 2.333047 1_655
O3 Pb5 2.358632 1_556
O3 Pb2 2.417046 1_656
O4 Si0 1.668682 1_555
O4 Si2 1.673141 1_545
O5 Si1 1.668682 1_555
O5 Si3 1.673141 1_565
O6 Si0 1.649236 1_555
O6 Pb8 2.344162 1_555
O7 Si1 1.649236 1_555
O7 Pb9 2.344162 1_555
O8 Si9 1.654039 1_555
O8 Pb10 2.358794 1_555
O8 Pb4 2.707928 1_554
O9 Si8 1.654039 1_555
O9 Pb11 2.358794 1_555
O9 Pb5 2.707928 1_556
O10 Si2 1.652938 1_555
O10 Pb10 2.311133 1_555
O11 Si3 1.652938 1_555
O11 Pb11 2.311133 1_555
O12 Si2 1.651022 1_555
O12 Pb41 2.454109 1_555
O12 Pb6 2.679471 1_555
O13 Si3 1.651022 1_555
O13 Pb40 2.454109 1_555
O13 Pb7 2.679471 1_555
O14 Si0 1.660682 1_555
O14 Pb12 2.513811 1_555
O14 Pb14 2.606496 1_555
O14 Pb37 2.657889 1_455
O15 Si1 1.660682 1_555
O15 Pb13 2.513811 1_555
O15 Pb15 2.606496 1_555
O15 Pb36 2.657889 1_655
O16 Si2 1.647733 1_555
O16 Pb39 2.373217 1_565
O16 Pb18 2.655981 1_555
O16 Pb12 2.811088 1_565
O17 Si3 1.647733 1_555
O17 Pb38 2.373217 1_545
O17 Pb19 2.655981 1_555
O17 Pb13 2.811088 1_545
O18 Pb12 2.245524 1_555
O18 Pb39 2.289980 1_555
O18 Pb14 2.324955 1_555
O18 Pb31 2.342882 1_555
O19 Pb13 2.245524 1_555
O19 Pb38 2.289980 1_555
O19 Pb15 2.324955 1_555
O19 Pb30 2.342882 1_555
O20 Pb37 2.263915 1_455
O20 Pb14 2.275730 1_555
O20 Pb22 2.388430 1_555
O20 Pb16 2.429613 1_555
O21 Pb36 2.263915 1_655
O21 Pb15 2.275730 1_555
O21 Pb23 2.388430 1_555
O21 Pb17 2.429613 1_555
O22 Pb20 2.242033 1_555
O22 Pb12 2.288089 1_555
O22 Pb37 2.391173 1_455
O23 Pb21 2.242033 1_555
O23 Pb13 2.288089 1_555
O23 Pb36 2.391173 1_655
O24 Pb22 2.268694 1_555
O24 Pb24 2.288272 1_555
O24 Pb29 2.301248 1_555
O24 Pb16 2.400237 1_555
O25 Pb23 2.268694 1_555
O25 Pb25 2.288272 1_555
O25 Pb28 2.301248 1_555
O25 Pb17 2.400237 1_555
O26 Si4 1.673731 1_555
O26 Pb33 2.349463 1_455
O26 Pb27 2.504008 1_455
O27 Si5 1.673731 1_555
O27 Pb32 2.349463 1_655
O27 Pb26 2.504008 1_655
O28 Si4 1.663852 1_555
O28 Pb18 2.662111 1_555
O28 Pb27 2.753862 1_555
O28 Pb12 2.792614 1_565
O29 Si5 1.663852 1_555
O29 Pb19 2.662111 1_555
O29 Pb26 2.753862 1_555
O29 Pb13 2.792614 1_545
O30 Si4 1.665710 1_555
O30 Pb24 2.406870 1_555
O30 Pb29 2.637164 1_555
O31 Si5 1.665710 1_555
O31 Pb25 2.406870 1_555
O31 Pb28 2.637164 1_555
O32 Si4 1.649016 1_555
O32 Pb20 2.273114 1_565
O33 Si5 1.649016 1_555
O33 Pb21 2.273114 1_545
O34 Si6 1.630123 1_555
O34 Pb24 2.421265 1_555
O34 Pb22 2.780102 1_555
O35 Si7 1.630123 1_555
O35 Pb25 2.421265 1_555
O35 Pb23 2.780102 1_555
O36 Si6 1.655202 1_555
O36 Pb28 2.428377 1_555
O36 Pb34 2.479266 1_555
O37 Si7 1.655202 1_555
O37 Pb29 2.428377 1_555
O37 Pb35 2.479266 1_555
O38 Si6 1.672129 1_555
O38 Pb23 2.309688 1_455
O38 Pb36 2.444500 1_555
O39 Si7 1.672129 1_555
O39 Pb22 2.309688 1_655
O39 Pb37 2.444500 1_555
O40 Si6 1.678471 1_555
O40 Pb30 2.370221 1_555
O40 Pb15 2.469037 1_555
O41 Si7 1.678471 1_555
O41 Pb31 2.370221 1_555
O41 Pb14 2.469037 1_555
O42 Pb21 2.268163 1_455
O42 Pb26 2.296885 1_565
O42 Pb30 2.312654 1_555
O42 Pb38 2.568137 1_555
O43 Pb20 2.268163 1_655
O43 Pb27 2.296885 1_545
O43 Pb31 2.312654 1_555
O43 Pb39 2.568137 1_555
O44 Pb19 2.248069 1_555
O44 Pb38 2.265676 1_545
O44 Pb26 2.295234 1_555
O44 Pb32 2.354302 1_555
O45 Pb18 2.248069 1_555
O45 Pb39 2.265676 1_565
O45 Pb27 2.295234 1_555
O45 Pb33 2.354302 1_555
O46 Pb28 2.234929 1_555
O46 Pb34 2.287908 1_555
O46 Pb19 2.302862 1_555
O47 Pb29 2.234929 1_555
O47 Pb35 2.287908 1_555
O47 Pb18 2.302862 1_555
O48 Pb34 2.237666 1_555
O48 Pb32 2.294887 1_555
O48 Pb17 2.318800 1_455
O48 Pb25 2.668378 1_455
O49 Pb35 2.237666 1_555
O49 Pb33 2.294887 1_555
O49 Pb16 2.318800 1_655
O49 Pb24 2.668378 1_655
O50 Si8 1.656601 1_555
O50 Pb19 2.478968 1_555
O50 Pb32 2.523141 1_555
O50 Pb34 2.722535 1_555
O51 Si9 1.656601 1_555
O51 Pb18 2.478968 1_555
O51 Pb33 2.523141 1_555
O51 Pb35 2.722535 1_555
O52 Si10 1.646396 1_555
O52 Pb17 2.373825 1_455
O52 Pb36 2.727289 1_555
O53 Si11 1.646396 1_555
O53 Pb16 2.373825 1_655
O53 Pb37 2.727289 1_555
O54 Si8 1.660527 1_555
O54 Si10 1.673274 1_555
O55 Si9 1.660527 1_555
O55 Si11 1.673274 1_555
O56 Si8 1.654704 1_555
O56 Pb40 2.362026 1_555
O57 Si9 1.654704 1_555
O57 Pb41 2.362026 1_555
O58 Si10 1.658126 1_555
O58 Pb9 2.391040 1_455
O59 Si11 1.658126 1_555
O59 Pb8 2.391040 1_655
O60 Si10 1.657048 1_555
O60 Pb42 2.261978 1_555
O61 Si11 1.657048 1_555
O61 Pb43 2.261978 1_555
O62 Si1 1.650456 1_455
O62 Pb42 2.289603 1_555
O63 Si0 1.650456 1_655
O63 Pb43 2.289603 1_555
O64 Pb40 2.204081 1_555
O64 Pb7 2.331910 1_555
O64 Pb0 2.375818 1_556
O64 Pb2 2.429488 1_556
O65 Pb41 2.204081 1_555
O65 Pb6 2.331910 1_555
O65 Pb1 2.375806 1_554
O65 Pb3 2.429488 1_554
O66 Pb42 2.228506 1_555
O66 Pb1 2.315618 1_555
O66 Pb0 2.370955 1_566
O66 Pb6 2.406919 1_556
O67 Pb43 2.228506 1_555
O67 Pb0 2.315624 1_555
O67 Pb1 2.370962 1_544
O67 Pb7 2.406919 1_554
