# generated using pymatgen
data_V2Bi4O11
_symmetry_space_group_name_H-M   'P 1'
_cell_length_a   6.00229471
_cell_length_b   5.67116000
_cell_length_c   15.90399265
_cell_angle_alpha   90.00000000
_cell_angle_beta   109.32855934
_cell_angle_gamma   90.00000000
_symmetry_Int_Tables_number   1
_chemical_formula_structural   V2Bi4O11
_chemical_formula_sum   'V4 Bi8 O22'
_cell_volume   510.85767561
_cell_formula_units_Z   2
loop_
 _symmetry_equiv_pos_site_id
 _symmetry_equiv_pos_as_xyz
  1  'x, y, z'
loop_
 _atom_site_type_symbol
 _atom_site_label
 _atom_site_symmetry_multiplicity
 _atom_site_fract_x
 _atom_site_fract_y
 _atom_site_fract_z
 _atom_site_occupancy
  V  V0  1  0.08007300  0.98822700  0.49241100  1
  V  V1  1  0.00092700  0.99749600  0.00727400  1
  V  V2  1  0.50092700  0.50250400  0.50727400  1
  V  V3  1  0.58007300  0.51177300  0.99241100  1
  Bi  Bi0  1  0.12888200  0.49558300  0.64709800  1
  Bi  Bi1  1  0.30382100  0.99379300  0.82429700  1
  Bi  Bi2  1  0.20412400  0.48097300  0.16138300  1
  Bi  Bi3  1  0.27887800  0.98019000  0.31073800  1
  Bi  Bi4  1  0.70412400  0.01902700  0.66138300  1
  Bi  Bi5  1  0.77887800  0.51981000  0.81073800  1
  Bi  Bi6  1  0.62888200  0.00441700  0.14709800  1
  Bi  Bi7  1  0.80382100  0.50620700  0.32429700  1
  O  O0  1  0.03644500  0.23578100  0.74031900  1
  O  O1  1  0.02457000  0.75808900  0.74284600  1
  O  O2  1  0.45964600  0.28876200  0.03933000  1
  O  O3  1  0.03476000  0.23836100  0.23131400  1
  O  O4  1  0.03367300  0.71089000  0.23971600  1
  O  O5  1  0.46425600  0.49992300  0.87676600  1
  O  O6  1  0.35062600  0.24116500  0.51243100  1
  O  O7  1  0.35508500  0.77142500  0.51392000  1
  O  O8  1  0.53476000  0.26163900  0.73131400  1
  O  O9  1  0.53367300  0.78911000  0.73971600  1
  O  O10  1  0.22764500  0.00323900  0.11017900  1
  O  O11  1  0.85062600  0.25883500  0.01243100  1
  O  O12  1  0.53869700  0.49909300  0.40376300  1
  O  O13  1  0.72764500  0.49676100  0.61017900  1
  O  O14  1  0.44149100  0.74349000  0.02361400  1
  O  O15  1  0.53644500  0.26421900  0.24031900  1
  O  O16  1  0.52457000  0.74191100  0.24284600  1
  O  O17  1  0.03869700  0.00090700  0.90376300  1
  O  O18  1  0.95964600  0.21123800  0.53933000  1
  O  O19  1  0.94149100  0.75651000  0.52361400  1
  O  O20  1  0.96425600  0.00007700  0.37676600  1
  O  O21  1  0.85508500  0.72857500  0.01392000  1
loop_
_geom_bond_atom_site_label_1
_geom_bond_atom_site_label_2
_geom_bond_distance
_geom_bond_site_symmetry_2
Bi0 O13 2.282288 1_455
Bi0 O0 2.285011 1_555
Bi0 O18 2.327513 1_455
Bi0 O1 2.357598 1_555
Bi0 O19 2.418557 1_455
Bi0 O8 2.707252 1_555
Bi1 O0 2.196327 1_565
Bi1 O1 2.199320 1_555
Bi1 O17 2.337228 1_565
Bi1 O9 2.507759 1_555
Bi1 O8 2.787939 1_565
Bi2 O3 2.216276 1_555
Bi2 O4 2.267740 1_555
Bi2 O15 2.325553 1_555
Bi2 O16 2.432763 1_555
Bi3 O3 2.158944 1_565
Bi3 O4 2.161945 1_555
Bi3 O20 2.448356 1_465
Bi3 O16 2.494151 1_555
Bi3 O15 2.717556 1_565
Bi4 O8 2.216276 1_555
Bi4 O9 2.267740 1_545
Bi4 O0 2.325553 1_655
Bi4 O1 2.432763 1_645
Bi5 O8 2.158944 1_555
Bi5 O9 2.161945 1_555
Bi5 O5 2.448356 1_555
Bi5 O1 2.494151 1_655
Bi5 O0 2.717556 1_655
Bi6 O10 2.282288 1_555
Bi6 O15 2.285011 1_555
Bi6 O2 2.327513 1_555
Bi6 O16 2.357598 1_545
Bi6 O14 2.418557 1_545
Bi6 O3 2.707252 1_655
Bi7 O15 2.196327 1_555
Bi7 O16 2.199320 1_555
Bi7 O12 2.337228 1_555
Bi7 O4 2.507759 1_655
Bi7 O3 2.787939 1_655
O2 V3 1.742386 1_554
O5 V3 1.739001 1_555
O6 V2 1.751054 1_555
O6 V0 2.110434 1_545
O7 V2 1.778942 1_555
O7 V0 1.994934 1_555
O10 V1 1.748451 1_545
O11 V1 1.751054 1_645
O11 V3 2.110434 1_554
O12 V2 1.734626 1_555
O13 V2 1.748451 1_555
O14 V3 1.714146 1_554
O17 V1 1.734626 1_546
O18 V0 1.742386 1_645
O19 V0 1.714146 1_655
O20 V0 1.739001 1_645
O21 V1 1.778942 1_655
O21 V3 1.994934 1_554
