# generated using pymatgen
data_BaLaNdMn3O9
_symmetry_space_group_name_H-M   'P 1'
_cell_length_a   5.62321608
_cell_length_b   5.62321608
_cell_length_c   13.54033400
_cell_angle_alpha   90.00000000
_cell_angle_beta   90.00000000
_cell_angle_gamma   120.00000095
_symmetry_Int_Tables_number   1
_chemical_formula_structural   BaLaNdMn3O9
_chemical_formula_sum   'Ba2 La2 Nd2 Mn6 O18'
_cell_volume   370.79131169
_cell_formula_units_Z   2
loop_
 _symmetry_equiv_pos_site_id
 _symmetry_equiv_pos_as_xyz
  1  'x, y, z'
loop_
 _atom_site_type_symbol
 _atom_site_label
 _atom_site_symmetry_multiplicity
 _atom_site_fract_x
 _atom_site_fract_y
 _atom_site_fract_z
 _atom_site_occupancy
  Ba  Ba0  1  0.00000000  0.00000000  0.50000000  1
  Ba  Ba1  1  0.00000000  0.00000000  0.00000000  1
  La  La0  1  0.33333300  0.66666700  0.33155200  1
  La  La1  1  0.66666700  0.33333300  0.66844800  1
  Nd  Nd0  1  0.33333300  0.66666700  0.83140800  1
  Nd  Nd1  1  0.66666700  0.33333300  0.16859200  1
  Mn  Mn0  1  0.33333300  0.66666700  0.08286700  1
  Mn  Mn1  1  0.00000000  0.00000000  0.75085600  1
  Mn  Mn2  1  0.66666700  0.33333300  0.41651700  1
  Mn  Mn3  1  0.33333300  0.66666700  0.58348300  1
  Mn  Mn4  1  0.00000000  0.00000000  0.24914400  1
  Mn  Mn5  1  0.66666700  0.33333300  0.91713300  1
  O  O0  1  0.76183300  0.10401500  0.82713100  1
  O  O1  1  0.10401500  0.76183300  0.17286900  1
  O  O2  1  0.47763000  0.47763000  0.50000000  1
  O  O3  1  0.34218200  0.23816700  0.82713100  1
  O  O4  1  0.65781800  0.89598500  0.17286900  1
  O  O5  1  0.00000000  0.52237000  0.50000000  1
  O  O6  1  0.89598500  0.65781800  0.82713100  1
  O  O7  1  0.23816700  0.34218200  0.17286900  1
  O  O8  1  0.52237000  0.00000000  0.50000000  1
  O  O9  1  0.65691700  0.76878600  0.67461500  1
  O  O10  1  0.00000000  0.47542900  0.00000000  1
  O  O11  1  0.34308300  0.11186900  0.32538500  1
  O  O12  1  0.11186900  0.34308300  0.67461500  1
  O  O13  1  0.47542900  0.00000000  0.00000000  1
  O  O14  1  0.76878600  0.65691700  0.32538500  1
  O  O15  1  0.23121400  0.88813100  0.67461500  1
  O  O16  1  0.52457100  0.52457100  0.00000000  1
  O  O17  1  0.88813100  0.23121400  0.32538500  1
loop_
_geom_bond_atom_site_label_1
_geom_bond_atom_site_label_2
_geom_bond_distance
_geom_bond_site_symmetry_2
Ba0 O2 2.685817 1_555
Ba0 O8 2.685817 1_455
Ba0 O5 2.685817 1_545
Ba0 O9 2.914476 1_445
Ba0 O14 2.914476 1_445
Ba0 O12 2.914476 1_555
Ba0 O11 2.914476 1_555
Ba0 O15 2.914476 1_545
Ba0 O17 2.914476 1_455
Ba0 O2 2.937399 1_445
Ba0 O5 2.937399 1_555
Ba0 O8 2.937399 1_555
Ba1 O16 2.673440 1_445
Ba1 O10 2.673440 1_555
Ba1 O13 2.673440 1_555
Ba1 O7 2.897924 1_555
Ba1 O3 2.897924 1_554
Ba1 O4 2.897924 1_445
Ba1 O6 2.897924 1_444
Ba1 O1 2.897924 1_545
Ba1 O0 2.897924 1_454
Ba1 O16 2.949776 1_555
Ba1 O13 2.949776 1_455
Ba1 O10 2.949776 1_545
La0 O11 2.477916 1_565
La0 O17 2.477919 1_455
La0 O14 2.477922 1_555
La0 O1 2.693665 1_555
La0 O4 2.693668 1_555
La0 O7 2.693668 1_555
La0 O5 2.802339 1_555
La0 O8 2.802339 1_565
La0 O2 2.802342 1_555
La1 O12 2.477916 1_655
La1 O15 2.477919 1_545
La1 O9 2.477922 1_555
La1 O0 2.693665 1_555
La1 O6 2.693668 1_555
La1 O3 2.693668 1_555
La1 O8 2.802339 1_555
La1 O5 2.802339 1_655
La1 O2 2.802342 1_555
Nd0 O6 2.435492 1_455
Nd0 O0 2.435495 1_565
Nd0 O3 2.435498 1_555
Nd0 O15 2.665144 1_555
Nd0 O12 2.665147 1_555
Nd0 O9 2.665148 1_555
Nd0 O13 2.804509 1_566
Nd0 O10 2.804509 1_556
Nd0 O16 2.804512 1_556
Nd1 O4 2.435492 1_545
Nd1 O1 2.435495 1_655
Nd1 O7 2.435498 1_555
Nd1 O17 2.665144 1_555
Nd1 O11 2.665147 1_555
Nd1 O14 2.665148 1_555
Nd1 O10 2.804509 1_655
Nd1 O13 2.804509 1_555
Nd1 O16 2.804512 1_555
Mn0 O13 1.978161 1_565
Mn0 O10 1.978161 1_555
Mn0 O16 1.978165 1_555
Mn0 O1 2.030858 1_555
Mn0 O4 2.030862 1_555
Mn0 O7 2.030863 1_555
Mn1 O9 1.992421 1_445
Mn1 O12 1.992421 1_555
Mn1 O15 1.992421 1_545
Mn1 O3 1.996428 1_555
Mn1 O6 1.996428 1_445
Mn1 O0 1.996428 1_455
Mn2 O8 1.982080 1_555
Mn2 O5 1.982080 1_655
Mn2 O2 1.982084 1_555
Mn2 O17 2.029382 1_555
Mn2 O11 2.029385 1_555
Mn2 O14 2.029386 1_555
Mn3 O5 1.982080 1_555
Mn3 O8 1.982080 1_565
Mn3 O2 1.982084 1_555
Mn3 O15 2.029382 1_555
Mn3 O12 2.029385 1_555
Mn3 O9 2.029386 1_555
Mn4 O14 1.992421 1_445
Mn4 O11 1.992421 1_555
Mn4 O17 1.992421 1_455
Mn4 O7 1.996428 1_555
Mn4 O4 1.996428 1_445
Mn4 O1 1.996428 1_545
Mn5 O10 1.978161 1_656
Mn5 O13 1.978161 1_556
Mn5 O16 1.978165 1_556
Mn5 O0 2.030858 1_555
Mn5 O6 2.030862 1_555
Mn5 O3 2.030863 1_555
