# generated using pymatgen
data_Cs2PtC4(IN2)2
_symmetry_space_group_name_H-M   'P 1'
_cell_length_a   10.01484900
_cell_length_b   7.89095700
_cell_length_c   9.64856537
_cell_angle_alpha   73.33485659
_cell_angle_beta   90.00000000
_cell_angle_gamma   90.00000000
_symmetry_Int_Tables_number   1
_chemical_formula_structural   Cs2PtC4(IN2)2
_chemical_formula_sum   'Cs4 Pt2 C8 I4 N8'
_cell_volume   730.46773386
_cell_formula_units_Z   2
loop_
 _symmetry_equiv_pos_site_id
 _symmetry_equiv_pos_as_xyz
  1  'x, y, z'
loop_
 _atom_site_type_symbol
 _atom_site_label
 _atom_site_symmetry_multiplicity
 _atom_site_fract_x
 _atom_site_fract_y
 _atom_site_fract_z
 _atom_site_occupancy
  Cs  Cs0  1  0.78195300  0.52258600  0.61619100  1
  Cs  Cs1  1  0.28195300  0.47741400  0.88380900  1
  Cs  Cs2  1  0.21804700  0.47741400  0.38380900  1
  Cs  Cs3  1  0.71804700  0.52258600  0.11619100  1
  Pt  Pt0  1  0.00000000  0.00000000  0.00000000  1
  Pt  Pt1  1  0.50000000  0.00000000  0.50000000  1
  C  C0  1  0.02569100  0.18951100  0.10049600  1
  C  C1  1  0.52569100  0.81048900  0.39950400  1
  C  C2  1  0.97430900  0.81048900  0.89950400  1
  C  C3  1  0.47430900  0.18951100  0.60049600  1
  C  C4  1  0.96245500  0.82031600  0.19130500  1
  C  C5  1  0.46245500  0.17968400  0.30869500  1
  C  C6  1  0.03754500  0.17968400  0.80869500  1
  C  C7  1  0.53754500  0.82031600  0.69130500  1
  I  I0  1  0.26578900  0.92185200  0.02989100  1
  I  I1  1  0.76578900  0.07814800  0.47010900  1
  I  I2  1  0.73421100  0.07814800  0.97010900  1
  I  I3  1  0.23421100  0.92185200  0.52989100  1
  N  N0  1  0.04199000  0.30245000  0.15551400  1
  N  N1  1  0.54199000  0.69755000  0.34448600  1
  N  N2  1  0.95801000  0.69755000  0.84448600  1
  N  N3  1  0.45801000  0.30245000  0.65551400  1
  N  N4  1  0.93963600  0.71136800  0.29997600  1
  N  N5  1  0.43963600  0.28863200  0.20002400  1
  N  N6  1  0.06036400  0.28863200  0.70002400  1
  N  N7  1  0.56036400  0.71136800  0.79997600  1
loop_
_geom_bond_atom_site_label_1
_geom_bond_atom_site_label_2
_geom_bond_distance
_geom_bond_site_symmetry_2
Cs0 N6 3.313648 1_655
Cs0 N4 3.378581 1_555
Cs0 N2 3.407522 1_555
Cs0 N7 3.435612 1_555
Cs0 N1 3.532442 1_555
Cs0 N3 3.648081 1_555
Cs0 I1 4.140933 1_555
Cs0 I2 4.161730 1_555
Cs0 I1 4.205655 1_565
Cs1 N7 3.313648 1_555
Cs1 N5 3.378581 1_556
Cs1 N3 3.407522 1_555
Cs1 N6 3.435612 1_555
Cs1 N0 3.532442 1_556
Cs1 N2 3.648081 1_455
Cs1 I0 4.140933 1_556
Cs1 I3 4.161730 1_555
Cs1 I0 4.205655 1_546
Cs2 N4 3.313648 1_455
Cs2 N6 3.378581 1_555
Cs2 N0 3.407522 1_555
Cs2 N5 3.435612 1_555
Cs2 N3 3.532442 1_555
Cs2 N1 3.648081 1_555
Cs2 I3 4.140933 1_555
Cs2 I0 4.161730 1_555
Cs2 I3 4.205655 1_545
Cs3 N5 3.313648 1_555
Cs3 N7 3.378581 1_554
Cs3 N1 3.407522 1_555
Cs3 N4 3.435612 1_555
Cs3 N2 3.532442 1_554
Cs3 N0 3.648081 1_655
Cs3 I2 4.140933 1_554
Cs3 I1 4.161730 1_555
Cs3 I2 4.205655 1_564
C0 N0 1.172184 1_555
C0 Pt0 2.018506 1_555
C0 Cs1 3.659864 1_554
C1 N1 1.172184 1_555
C1 Pt1 2.018506 1_565
C1 Cs0 3.659864 1_555
C2 N2 1.172184 1_555
C2 Pt0 2.018506 1_666
C2 Cs3 3.659864 1_556
C3 N3 1.172184 1_555
C3 Pt1 2.018506 1_555
C3 Cs2 3.659864 1_555
C4 N4 1.172048 1_555
C4 Pt0 2.014381 1_665
C4 Cs3 3.607309 1_555
C5 N5 1.172048 1_555
C5 Pt1 2.014381 1_555
C5 Cs2 3.607309 1_555
C6 N6 1.172048 1_555
C6 Pt0 2.014381 1_556
C6 Cs1 3.607309 1_555
C7 N7 1.172048 1_555
C7 Pt1 2.014381 1_565
C7 Cs0 3.607309 1_555
I0 Pt0 2.728886 1_565
I1 Pt1 2.728886 1_555
I2 Pt0 2.728886 1_656
I3 Pt1 2.728886 1_565
