# generated using pymatgen
data_Mn2NiO3
_symmetry_space_group_name_H-M   'P 1'
_cell_length_a   5.38579298
_cell_length_b   5.38579298
_cell_length_c   5.38579298
_cell_angle_alpha   146.31412142
_cell_angle_beta   131.60605545
_cell_angle_gamma   60.25794634
_symmetry_Int_Tables_number   1
_chemical_formula_structural   Mn2NiO3
_chemical_formula_sum   'Mn2 Ni1 O3'
_cell_volume   64.18701004
_cell_formula_units_Z   1
loop_
 _symmetry_equiv_pos_site_id
 _symmetry_equiv_pos_as_xyz
  1  'x, y, z'
loop_
 _atom_site_type_symbol
 _atom_site_label
 _atom_site_symmetry_multiplicity
 _atom_site_fract_x
 _atom_site_fract_y
 _atom_site_fract_z
 _atom_site_occupancy
  Mn  Mn0  1  0.66534000  0.66534000  0.00000000  1
  Mn  Mn1  1  0.33466000  0.33466000  0.00000000  1
  Ni  Ni0  1  0.00000000  0.00000000  0.00000000  1
  O  O0  1  0.50000000  0.00000000  0.50000000  1
  O  O1  1  0.15829400  0.65829400  0.50000000  1
  O  O2  1  0.84170600  0.34170600  0.50000000  1
loop_
_geom_bond_atom_site_label_1
_geom_bond_atom_site_label_2
_geom_bond_distance
_geom_bond_site_symmetry_2
Mn0 O0 2.192706 1_554
Mn0 O0 2.192706 1_565
Mn0 O1 2.208477 1_655
Mn0 O1 2.208477 1_554
Mn0 O2 2.266047 1_554
Mn0 O2 2.266047 1_565
Mn1 O0 2.192706 1_554
Mn1 O0 2.192706 1_565
Mn1 O2 2.208477 1_555
Mn1 O2 2.208477 1_454
Mn1 O1 2.266047 1_555
Mn1 O1 2.266047 1_544
Ni0 O2 2.147101 1_444
Ni0 O1 2.147101 1_544
Ni0 O1 2.147101 1_555
Ni0 O2 2.147101 1_455
Ni0 O0 2.207501 1_555
Ni0 O0 2.207501 1_454
