# generated using pymatgen
data_Mg7Si4
_symmetry_space_group_name_H-M   'P 1'
_cell_length_a   5.11199500
_cell_length_b   5.94578801
_cell_length_c   14.32148260
_cell_angle_alpha   93.84550891
_cell_angle_beta   99.35219756
_cell_angle_gamma   90.23733470
_symmetry_Int_Tables_number   1
_chemical_formula_structural   Mg7Si4
_chemical_formula_sum   'Mg14 Si8'
_cell_volume   428.49613202
_cell_formula_units_Z   2
loop_
 _symmetry_equiv_pos_site_id
 _symmetry_equiv_pos_as_xyz
  1  'x, y, z'
loop_
 _atom_site_type_symbol
 _atom_site_label
 _atom_site_symmetry_multiplicity
 _atom_site_fract_x
 _atom_site_fract_y
 _atom_site_fract_z
 _atom_site_occupancy
  Mg  Mg0  1  0.31672500  0.86330000  0.88995800  1
  Mg  Mg1  1  0.91272900  0.57100300  0.64113100  1
  Mg  Mg2  1  0.35453500  0.42626300  0.52629700  1
  Mg  Mg3  1  0.26531900  0.10216200  0.70422800  1
  Mg  Mg4  1  0.31518200  0.36799800  0.89420100  1
  Mg  Mg5  1  0.21530500  0.65505500  0.30350500  1
  Mg  Mg6  1  0.20205400  0.15810000  0.30304000  1
  Mg  Mg7  1  0.28909000  0.92048500  0.50634600  1
  Mg  Mg8  1  0.84375100  0.62515200  0.95368400  1
  Mg  Mg9  1  0.84515800  0.12652700  0.97523700  1
  Mg  Mg10  1  0.39552600  0.14879400  0.10138400  1
  Mg  Mg11  1  0.43920400  0.64942500  0.10202900  1
  Mg  Mg12  1  0.75931600  0.70269600  0.42976200  1
  Mg  Mg13  1  0.80615200  0.20811700  0.44502100  1
  Si  Si0  1  0.95422900  0.86373900  0.13720300  1
  Si  Si1  1  0.78266900  0.30255100  0.78908100  1
  Si  Si2  1  0.45426800  0.58684700  0.72680900  1
  Si  Si3  1  0.68874600  0.39041600  0.26631000  1
  Si  Si4  1  0.94582400  0.43284800  0.13531600  1
  Si  Si5  1  0.79142200  0.88730700  0.78803000  1
  Si  Si6  1  0.74685100  0.05522900  0.62063300  1
  Si  Si7  1  0.67954600  0.95589400  0.26448400  1
loop_
_geom_bond_atom_site_label_1
_geom_bond_atom_site_label_2
_geom_bond_distance
_geom_bond_site_symmetry_2
Mg0 Si5 2.849469 1_455
Mg0 Si2 2.946860 1_555
Mg0 Mg4 2.949664 1_555
Mg0 Mg4 2.997434 1_565
Mg0 Si5 3.035828 1_555
Mg1 Si2 2.815696 1_555
Mg1 Si2 2.838408 1_655
Mg1 Si5 2.872365 1_555
Mg1 Si1 2.895178 1_555
Mg1 Si6 3.024428 1_565
Mg1 Si6 3.160153 1_555
Mg2 Si2 2.927490 1_555
Mg2 Si6 3.204691 1_555
Mg2 Mg6 3.445127 1_555
Mg3 Si6 2.730131 1_455
Mg3 Si6 2.913635 1_555
Mg3 Si1 2.936989 1_555
Mg3 Si2 3.015450 1_555
Mg3 Mg4 3.026536 1_555
Mg3 Si5 3.080666 1_545
Mg3 Si1 3.128669 1_455
Mg3 Si5 3.172715 1_445
Mg3 Si2 3.237480 1_545
Mg4 Si1 2.899823 1_455
Mg4 Si2 2.985048 1_555
Mg4 Si1 3.037664 1_555
Mg4 Mg8 3.065032 1_455
Mg4 Mg8 3.067162 1_555
Mg4 Mg9 3.159432 1_555
Mg4 Mg9 3.206664 1_455
Mg5 Si4 2.815108 1_455
Mg5 Si0 2.893138 1_455
Mg5 Mg6 2.954821 1_555
Mg5 Mg6 2.992476 1_565
Mg5 Si3 2.992532 1_555
Mg5 Si3 3.064587 1_455
Mg5 Si7 3.110281 1_555
Mg6 Si7 2.842860 1_545
Mg6 Si7 2.879221 1_445
Mg6 Si3 2.957888 1_455
Mg6 Si0 2.958911 1_445
Mg6 Si3 2.978090 1_555
Mg6 Si4 3.110577 1_455
Mg6 Mg7 3.287491 1_545
Mg7 Si6 2.713031 1_565
Mg8 Si0 2.872274 1_556
Mg8 Si4 2.882504 1_556
Mg8 Si5 2.902189 1_555
Mg8 Si1 2.912579 1_555
Mg9 Si4 2.808314 1_556
Mg9 Si0 2.864570 1_546
Mg9 Si1 2.899204 1_555
Mg9 Si5 2.921067 1_545
Mg10 Si7 2.854917 1_545
Mg10 Si3 2.875072 1_555
Mg10 Si4 2.942550 1_455
Mg10 Si0 2.947190 1_445
Mg10 Mg6 3.198312 1_555
Mg10 Si4 3.226224 1_555
Mg10 Mg4 3.286115 1_554
Mg11 Si0 2.874759 1_555
Mg11 Si4 2.881226 1_555
Mg11 Si0 2.893070 1_455
Mg11 Si4 2.948384 1_455
Mg11 Si7 2.954107 1_555
Mg11 Si3 3.010182 1_555
Mg11 Mg4 3.281885 1_554
Mg12 Si3 2.862578 1_555
Mg12 Si7 2.864415 1_555
Mg13 Si6 2.792090 1_555
Mg13 Si3 2.822037 1_555
Mg13 Si7 2.877669 1_545
Mg13 Mg6 3.095220 1_655
Mg13 Mg6 3.410303 1_555
Si0 Si7 2.509787 1_555
Si0 Si4 2.560425 1_555
Si1 Si5 2.468624 1_545
Si1 Si2 2.492012 1_555
Si1 Si6 2.719215 1_555
Si2 Si5 2.490790 1_555
Si3 Si4 2.484397 1_555
Si3 Si7 2.582110 1_545
Si5 Si6 2.634690 1_565
