# generated using pymatgen
data_CsLi(B3O5)2
_symmetry_space_group_name_H-M   'P 1'
_cell_length_a   8.75648169
_cell_length_b   8.75648169
_cell_length_c   8.75648169
_cell_angle_alpha   117.33705174
_cell_angle_beta   105.78206045
_cell_angle_gamma   105.59269006
_symmetry_Int_Tables_number   1
_chemical_formula_structural   CsLi(B3O5)2
_chemical_formula_sum   'Cs2 Li2 B12 O20'
_cell_volume   509.45233720
_cell_formula_units_Z   2
loop_
 _symmetry_equiv_pos_site_id
 _symmetry_equiv_pos_as_xyz
  1  'x, y, z'
loop_
 _atom_site_type_symbol
 _atom_site_label
 _atom_site_symmetry_multiplicity
 _atom_site_fract_x
 _atom_site_fract_y
 _atom_site_fract_z
 _atom_site_occupancy
  Cs  Cs0  1  0.75000000  0.62314600  0.87314600  1
  Cs  Cs1  1  0.25000000  0.87685400  0.62685400  1
  Li  Li0  1  0.75000000  0.12135500  0.37135500  1
  Li  Li1  1  0.25000000  0.37864500  0.12864500  1
  B  B0  1  0.83344100  0.91493000  0.54747200  1
  B  B1  1  0.63254200  0.58507000  0.41851100  1
  B  B2  1  0.66655900  0.21403100  0.08148900  1
  B  B3  1  0.86745800  0.28596900  0.95252800  1
  B  B4  1  0.47648300  0.22648300  0.25000000  1
  B  B5  1  0.02351700  0.27351700  0.75000000  1
  B  B6  1  0.97585200  0.25000000  0.22585200  1
  B  B7  1  0.52414800  0.75000000  0.27414800  1
  B  B8  1  0.16740300  0.08266300  0.21393300  1
  B  B9  1  0.13127000  0.41733700  0.58473900  1
  B  B10  1  0.33259700  0.54653000  0.91526100  1
  B  B11  1  0.36873000  0.95347000  0.28606700  1
  O  O0  1  0.00581700  0.08007100  0.18827900  1
  O  O1  1  0.10820800  0.41992900  0.42574600  1
  O  O2  1  0.49418300  0.68246200  0.07425400  1
  O  O3  1  0.39179200  0.81753800  0.31172100  1
  O  O4  1  0.79109900  0.19850300  0.20035600  1
  O  O5  1  0.00185400  0.30149700  0.09259700  1
  O  O6  1  0.70890100  0.90925700  0.40740300  1
  O  O7  1  0.49814600  0.59074300  0.29964400  1
  O  O8  1  0.60981400  0.42585700  0.42032800  1
  O  O9  1  0.99447100  0.07414300  0.68395700  1
  O  O10  1  0.89018600  0.31051400  0.81604300  1
  O  O11  1  0.50552900  0.18948600  0.07967200  1
  O  O12  1  0.99746500  0.29744000  0.58960100  1
  O  O13  1  0.29216000  0.20256000  0.20002500  1
  O  O14  1  0.50253500  0.09213500  0.29997500  1
  O  O15  1  0.20784000  0.40786500  0.91039900  1
  O  O16  1  0.20155300  0.95155300  0.25000000  1
  O  O17  1  0.29844700  0.54844700  0.75000000  1
  O  O18  1  0.79982700  0.75000000  0.54982700  1
  O  O19  1  0.70017300  0.25000000  0.95017300  1
loop_
_geom_bond_atom_site_label_1
_geom_bond_atom_site_label_2
_geom_bond_distance
_geom_bond_site_symmetry_2
Cs0 O10 3.183443 1_555
Cs0 O8 3.183443 1_555
Cs0 O0 3.212465 1_666
Cs0 O2 3.212465 1_556
Cs0 O19 3.569215 1_555
Cs0 O18 3.569215 1_555
Cs0 O16 3.587114 1_656
Cs0 O17 3.587114 1_555
Cs1 O11 3.183443 1_566
Cs1 O9 3.183443 1_465
Cs1 O1 3.212465 1_555
Cs1 O3 3.212465 1_555
Cs1 O19 3.569215 1_565
Cs1 O18 3.569215 1_455
Cs1 O17 3.587114 1_555
Cs1 O16 3.587114 1_555
Li0 O6 1.979740 1_545
Li0 O4 1.979746 1_555
Li0 O14 1.992487 1_555
Li0 O12 1.992490 1_555
Li1 O5 1.979740 1_555
Li1 O7 1.979740 1_555
Li1 O13 1.992487 1_555
Li1 O15 1.992496 1_554
B0 O9 1.362512 1_565
B0 O6 1.372372 1_555
B0 O18 1.405320 1_555
B1 O8 1.362512 1_555
B1 O7 1.372372 1_555
B1 O18 1.405320 1_555
B2 O11 1.362512 1_555
B2 O4 1.372367 1_555
B2 O19 1.405320 1_554
B3 O10 1.362512 1_555
B3 O5 1.372377 1_656
B3 O19 1.405320 1_555
B4 O13 1.479962 1_555
B4 O14 1.479962 1_555
B4 O8 1.483577 1_555
B4 O11 1.483577 1_555
B5 O12 1.479953 1_455
B5 O15 1.479959 1_555
B5 O9 1.483577 1_455
B5 O10 1.483577 1_455
B6 O5 1.479624 1_655
B6 O4 1.479630 1_555
B6 O1 1.482699 1_655
B6 O0 1.482699 1_655
B7 O7 1.479629 1_555
B7 O6 1.479629 1_555
B7 O3 1.482699 1_555
B7 O2 1.482699 1_555
B8 O0 1.363139 1_555
B8 O13 1.372481 1_555
B8 O16 1.404782 1_545
B9 O1 1.363130 1_555
B9 O12 1.372492 1_455
B9 O17 1.404785 1_555
B10 O2 1.363136 1_556
B10 O15 1.372471 1_555
B10 O17 1.404790 1_555
B11 O3 1.363139 1_555
B11 O14 1.372481 1_565
B11 O16 1.404782 1_555
