# generated using pymatgen
data_ZrNbCr4
_symmetry_space_group_name_H-M   'P 1'
_cell_length_a   4.96227699
_cell_length_b   4.96228167
_cell_length_c   4.96228891
_cell_angle_alpha   60.00004827
_cell_angle_beta   60.00001697
_cell_angle_gamma   59.99996870
_symmetry_Int_Tables_number   1
_chemical_formula_structural   ZrNbCr4
_chemical_formula_sum   'Zr1 Nb1 Cr4'
_cell_volume   86.40314971
_cell_formula_units_Z   1
loop_
 _symmetry_equiv_pos_site_id
 _symmetry_equiv_pos_as_xyz
  1  'x, y, z'
loop_
 _atom_site_type_symbol
 _atom_site_label
 _atom_site_symmetry_multiplicity
 _atom_site_fract_x
 _atom_site_fract_y
 _atom_site_fract_z
 _atom_site_occupancy
  Zr  Zr0  1  0.00000079  0.00000074  -0.00000126  1
  Nb  Nb0  1  0.24999905  0.24999965  0.25000065  1
  Cr  Cr0  1  0.62478903  0.62478866  0.12563365  1
  Cr  Cr1  1  0.62478903  0.12563265  0.62478866  1
  Cr  Cr2  1  0.12563306  0.62478865  0.62478865  1
  Cr  Cr3  1  0.62478903  0.62478866  0.62478866  1
loop_
_geom_bond_atom_site_label_1
_geom_bond_atom_site_label_2
_geom_bond_distance
_geom_bond_site_symmetry_2
Nb0 Zr0 3.038761 1_555
Nb0 Zr0 3.038763 1_556
Nb0 Zr0 3.038768 1_655
Nb0 Zr0 3.038769 1_565
Cr0 Cr3 2.476951 1_555
Cr0 Cr2 2.476951 1_555
Cr0 Cr1 2.476954 1_555
Cr0 Cr2 2.485333 1_654
Cr0 Cr1 2.485335 1_564
Cr0 Cr3 2.485338 1_554
Cr0 Nb0 2.908943 1_655
Cr0 Nb0 2.908949 1_565
Cr0 Nb0 2.908953 1_555
Cr0 Zr0 2.909841 1_565
Cr0 Zr0 2.909842 1_655
Cr0 Zr0 2.909846 1_665
Cr1 Cr2 2.476950 1_555
Cr1 Cr3 2.476953 1_555
Cr1 Cr2 2.485327 1_645
Cr1 Cr3 2.485329 1_545
Cr1 Nb0 2.908945 1_655
Cr1 Nb0 2.908951 1_555
Cr1 Nb0 2.908958 1_556
Cr1 Zr0 2.909836 1_556
Cr1 Zr0 2.909845 1_656
Cr1 Zr0 2.909848 1_655
Cr2 Cr3 2.476950 1_555
Cr2 Cr3 2.485327 1_455
Cr2 Nb0 2.908950 1_565
Cr2 Nb0 2.908950 1_555
Cr2 Nb0 2.908957 1_556
Cr2 Zr0 2.909839 1_556
Cr2 Zr0 2.909847 1_566
Cr2 Zr0 2.909850 1_565
Cr3 Nb0 2.908945 1_655
Cr3 Nb0 2.908951 1_565
Cr3 Nb0 2.908958 1_556
Cr3 Zr0 2.909840 1_566
Cr3 Zr0 2.909841 1_656
Cr3 Zr0 2.909853 1_665
