# generated using pymatgen
data_MgBi
_symmetry_space_group_name_H-M   'P 1'
_cell_length_a   3.76555090
_cell_length_b   3.76555090
_cell_length_c   4.58023100
_cell_angle_alpha   90.00000000
_cell_angle_beta   90.00000000
_cell_angle_gamma   120.00001584
_symmetry_Int_Tables_number   1
_chemical_formula_structural   MgBi
_chemical_formula_sum   'Mg1 Bi1'
_cell_volume   56.24384328
_cell_formula_units_Z   1
loop_
 _symmetry_equiv_pos_site_id
 _symmetry_equiv_pos_as_xyz
  1  'x, y, z'
loop_
 _atom_site_type_symbol
 _atom_site_label
 _atom_site_symmetry_multiplicity
 _atom_site_fract_x
 _atom_site_fract_y
 _atom_site_fract_z
 _atom_site_occupancy
  Mg  Mg0  1  0.00000000  0.00000000  0.00000000  1
  Bi  Bi0  1  0.33333300  0.66666700  0.50000000  1
loop_
_geom_bond_atom_site_label_1
_geom_bond_atom_site_label_2
_geom_bond_distance
_geom_bond_site_symmetry_2
Bi0 Mg0 3.157701 1_565
Bi0 Mg0 3.157701 1_566
Bi0 Mg0 3.157703 1_666
Bi0 Mg0 3.157703 1_665
Bi0 Mg0 3.157703 1_555
Bi0 Mg0 3.157703 1_556
