# generated using pymatgen
data_Ti2TlC
_symmetry_space_group_name_H-M   'P 1'
_cell_length_a   6.32902042
_cell_length_b   6.32902042
_cell_length_c   28.21413092
_cell_angle_alpha   90.00000000
_cell_angle_beta   90.00000000
_cell_angle_gamma   120.00001489
_symmetry_Int_Tables_number   1
_chemical_formula_structural   Ti2TlC
_chemical_formula_sum   'Ti32 Tl16 C16'
_cell_volume   978.74653637
_cell_formula_units_Z   16
loop_
 _symmetry_equiv_pos_site_id
 _symmetry_equiv_pos_as_xyz
  1  'x, y, z'
loop_
 _atom_site_type_symbol
 _atom_site_label
 _atom_site_symmetry_multiplicity
 _atom_site_fract_x
 _atom_site_fract_y
 _atom_site_fract_z
 _atom_site_occupancy
  Ti  Ti0_0  1  0.16666650  0.33333350  0.21103221  1
  Ti  Ti0_1  1  0.16666650  0.33333350  0.71103221  1
  Ti  Ti0_2  1  0.16666650  0.83333350  0.21103221  1
  Ti  Ti0_3  1  0.16666650  0.83333350  0.71103221  1
  Ti  Ti0_4  1  0.66666650  0.33333350  0.21103221  1
  Ti  Ti0_5  1  0.66666650  0.33333350  0.71103221  1
  Ti  Ti0_6  1  0.66666650  0.83333350  0.21103221  1
  Ti  Ti0_7  1  0.66666650  0.83333350  0.71103221  1
  Ti  Ti1_0  1  0.33333350  0.16666650  0.28896909  1
  Ti  Ti1_1  1  0.33333350  0.16666650  0.78896909  1
  Ti  Ti1_2  1  0.33333350  0.66666650  0.28896909  1
  Ti  Ti1_3  1  0.33333350  0.66666650  0.78896909  1
  Ti  Ti1_4  1  0.83333350  0.16666650  0.28896909  1
  Ti  Ti1_5  1  0.83333350  0.16666650  0.78896909  1
  Ti  Ti1_6  1  0.83333350  0.66666650  0.28896909  1
  Ti  Ti1_7  1  0.83333350  0.66666650  0.78896909  1
  Ti  Ti2_0  1  0.33333350  0.16666650  0.46103091  1
  Ti  Ti2_1  1  0.33333350  0.16666650  0.96103091  1
  Ti  Ti2_2  1  0.33333350  0.66666650  0.46103091  1
  Ti  Ti2_3  1  0.33333350  0.66666650  0.96103091  1
  Ti  Ti2_4  1  0.83333350  0.16666650  0.46103091  1
  Ti  Ti2_5  1  0.83333350  0.16666650  0.96103091  1
  Ti  Ti2_6  1  0.83333350  0.66666650  0.46103091  1
  Ti  Ti2_7  1  0.83333350  0.66666650  0.96103091  1
  Ti  Ti3_0  1  0.16666650  0.33333350  0.03896778  1
  Ti  Ti3_1  1  0.16666650  0.33333350  0.53896778  1
  Ti  Ti3_2  1  0.16666650  0.83333350  0.03896778  1
  Ti  Ti3_3  1  0.16666650  0.83333350  0.53896778  1
  Ti  Ti3_4  1  0.66666650  0.33333350  0.03896778  1
  Ti  Ti3_5  1  0.66666650  0.33333350  0.53896778  1
  Ti  Ti3_6  1  0.66666650  0.83333350  0.03896778  1
  Ti  Ti3_7  1  0.66666650  0.83333350  0.53896778  1
  Tl  Tl0_0  1  0.16666650  0.33333350  0.37500000  1
  Tl  Tl0_1  1  0.16666650  0.33333350  0.87500000  1
  Tl  Tl0_2  1  0.16666650  0.83333350  0.37500000  1
  Tl  Tl0_3  1  0.16666650  0.83333350  0.87500000  1
  Tl  Tl0_4  1  0.66666650  0.33333350  0.37500000  1
  Tl  Tl0_5  1  0.66666650  0.33333350  0.87500000  1
  Tl  Tl0_6  1  0.66666650  0.83333350  0.37500000  1
  Tl  Tl0_7  1  0.66666650  0.83333350  0.87500000  1
  Tl  Tl1_0  1  0.33333350  0.16666650  0.12500000  1
  Tl  Tl1_1  1  0.33333350  0.16666650  0.62500000  1
  Tl  Tl1_2  1  0.33333350  0.66666650  0.12500000  1
  Tl  Tl1_3  1  0.33333350  0.66666650  0.62500000  1
  Tl  Tl1_4  1  0.83333350  0.16666650  0.12500000  1
  Tl  Tl1_5  1  0.83333350  0.16666650  0.62500000  1
  Tl  Tl1_6  1  0.83333350  0.66666650  0.12500000  1
  Tl  Tl1_7  1  0.83333350  0.66666650  0.62500000  1
  C  C0_0  1  0.00000000  0.00000000  0.24999870  1
  C  C0_1  1  0.00000000  0.00000000  0.74999870  1
  C  C0_2  1  0.00000000  0.50000000  0.24999870  1
  C  C0_3  1  0.00000000  0.50000000  0.74999870  1
  C  C0_4  1  0.50000000  0.00000000  0.24999870  1
  C  C0_5  1  0.50000000  0.00000000  0.74999870  1
  C  C0_6  1  0.50000000  0.50000000  0.24999870  1
  C  C0_7  1  0.50000000  0.50000000  0.74999870  1
  C  C1_0  1  0.00000000  0.00000000  0.00000130  1
  C  C1_1  1  0.00000000  0.00000000  0.50000130  1
  C  C1_2  1  0.00000000  0.50000000  0.00000130  1
  C  C1_3  1  0.00000000  0.50000000  0.50000130  1
  C  C1_4  1  0.50000000  0.00000000  0.00000130  1
  C  C1_5  1  0.50000000  0.00000000  0.50000130  1
  C  C1_6  1  0.50000000  0.50000000  0.00000130  1
  C  C1_7  1  0.50000000  0.50000000  0.50000130  1
loop_
_geom_bond_atom_site_label_1
_geom_bond_atom_site_label_2
_geom_bond_distance
_geom_bond_site_symmetry_2
Ti0_0 Tl1_2 3.038081 1_555
Ti0_0 Tl1_4 3.038081 1_455
Ti0_0 Tl1_0 3.038085 1_555
Ti0_1 Tl1_5 3.038081 1_455
Ti0_1 Tl1_3 3.038081 1_555
Ti0_1 Tl1_1 3.038085 1_555
Ti0_2 Tl1_6 3.038081 1_455
Ti0_2 Tl1_0 3.038081 1_565
Ti0_2 Tl1_2 3.038085 1_555
Ti0_3 Tl1_7 3.038081 1_455
Ti0_3 Tl1_1 3.038081 1_565
Ti0_3 Tl1_3 3.038085 1_555
Ti0_4 Tl1_0 3.038081 1_555
Ti0_4 Tl1_6 3.038081 1_555
Ti0_4 Tl1_4 3.038085 1_555
Ti0_5 Tl1_1 3.038081 1_555
Ti0_5 Tl1_7 3.038081 1_555
Ti0_5 Tl1_5 3.038085 1_555
Ti0_6 Tl1_4 3.038081 1_565
Ti0_6 Tl1_2 3.038081 1_555
Ti0_6 Tl1_6 3.038085 1_555
Ti0_7 Tl1_5 3.038081 1_565
Ti0_7 Tl1_3 3.038081 1_555
Ti0_7 Tl1_7 3.038085 1_555
Ti1_0 Tl0_4 3.038052 1_555
Ti1_0 Tl0_2 3.038052 1_545
Ti1_0 Tl0_0 3.038055 1_555
Ti1_1 Tl0_5 3.038052 1_555
Ti1_1 Tl0_3 3.038052 1_545
Ti1_1 Tl0_1 3.038055 1_555
Ti1_2 Tl0_0 3.038052 1_555
Ti1_2 Tl0_6 3.038052 1_555
Ti1_2 Tl0_2 3.038055 1_555
Ti1_3 Tl0_7 3.038052 1_555
Ti1_3 Tl0_1 3.038052 1_555
Ti1_3 Tl0_3 3.038055 1_555
Ti1_4 Tl0_6 3.038052 1_545
Ti1_4 Tl0_0 3.038052 1_655
Ti1_4 Tl0_4 3.038055 1_555
Ti1_5 Tl0_7 3.038052 1_545
Ti1_5 Tl0_1 3.038052 1_655
Ti1_5 Tl0_5 3.038055 1_555
Ti1_6 Tl0_2 3.038052 1_655
Ti1_6 Tl0_4 3.038052 1_555
Ti1_6 Tl0_6 3.038055 1_555
Ti1_7 Tl0_3 3.038052 1_655
Ti1_7 Tl0_5 3.038052 1_555
Ti1_7 Tl0_7 3.038055 1_555
Ti2_0 Tl0_2 3.038052 1_545
Ti2_0 Tl0_4 3.038052 1_555
Ti2_0 Tl0_0 3.038055 1_555
Ti2_1 Tl0_5 3.038052 1_555
Ti2_1 Tl0_3 3.038052 1_545
Ti2_1 Tl0_1 3.038055 1_555
Ti2_2 Tl0_6 3.038052 1_555
Ti2_2 Tl0_0 3.038052 1_555
Ti2_2 Tl0_2 3.038055 1_555
Ti2_3 Tl0_7 3.038052 1_555
Ti2_3 Tl0_1 3.038052 1_555
Ti2_3 Tl0_3 3.038055 1_555
Ti2_4 Tl0_6 3.038052 1_545
Ti2_4 Tl0_0 3.038052 1_655
Ti2_4 Tl0_4 3.038055 1_555
Ti2_5 Tl0_7 3.038052 1_545
Ti2_5 Tl0_1 3.038052 1_655
Ti2_5 Tl0_5 3.038055 1_555
Ti2_6 Tl0_2 3.038052 1_655
Ti2_6 Tl0_4 3.038052 1_555
Ti2_6 Tl0_6 3.038055 1_555
Ti2_7 Tl0_3 3.038052 1_655
Ti2_7 Tl0_5 3.038052 1_555
Ti2_7 Tl0_7 3.038055 1_555
Ti3_0 Tl1_4 3.038081 1_455
Ti3_0 Tl1_2 3.038081 1_555
Ti3_0 Tl1_0 3.038085 1_555
Ti3_1 Tl1_3 3.038081 1_555
Ti3_1 Tl1_5 3.038081 1_455
Ti3_1 Tl1_1 3.038085 1_555
Ti3_2 Tl1_6 3.038081 1_455
Ti3_2 Tl1_0 3.038081 1_565
Ti3_2 Tl1_2 3.038085 1_555
Ti3_3 Tl1_7 3.038081 1_455
Ti3_3 Tl1_1 3.038081 1_565
Ti3_3 Tl1_3 3.038085 1_555
Ti3_4 Tl1_0 3.038081 1_555
Ti3_4 Tl1_6 3.038081 1_555
Ti3_4 Tl1_4 3.038085 1_555
Ti3_5 Tl1_1 3.038081 1_555
Ti3_5 Tl1_7 3.038081 1_555
Ti3_5 Tl1_5 3.038085 1_555
Ti3_6 Tl1_2 3.038081 1_555
Ti3_6 Tl1_4 3.038081 1_565
Ti3_6 Tl1_6 3.038085 1_555
Ti3_7 Tl1_5 3.038081 1_565
Ti3_7 Tl1_3 3.038081 1_555
Ti3_7 Tl1_7 3.038085 1_555
Tl0_0 Tl0_6 3.164509 1_445
Tl0_0 Tl0_6 3.164510 1_555
Tl0_0 Tl0_4 3.164510 1_555
Tl0_0 Tl0_2 3.164510 1_545
Tl0_0 Tl0_2 3.164510 1_555
Tl0_0 Tl0_4 3.164510 1_455
Tl0_1 Tl0_7 3.164509 1_445
Tl0_1 Tl0_7 3.164510 1_555
Tl0_1 Tl0_3 3.164510 1_545
Tl0_1 Tl0_5 3.164510 1_555
Tl0_1 Tl0_5 3.164510 1_455
Tl0_1 Tl0_3 3.164510 1_555
Tl0_2 Tl0_4 3.164509 1_565
Tl0_2 Tl0_4 3.164509 1_455
Tl0_2 Tl0_6 3.164510 1_455
Tl0_2 Tl0_6 3.164510 1_555
Tl0_3 Tl0_5 3.164509 1_565
Tl0_3 Tl0_5 3.164509 1_455
Tl0_3 Tl0_7 3.164510 1_455
Tl0_3 Tl0_7 3.164510 1_555
Tl0_4 Tl0_6 3.164510 1_545
Tl0_4 Tl0_6 3.164510 1_555
Tl0_5 Tl0_7 3.164510 1_545
Tl0_5 Tl0_7 3.164510 1_555
Tl1_0 Tl1_6 3.164509 1_445
Tl1_0 Tl1_6 3.164510 1_555
Tl1_0 Tl1_2 3.164510 1_545
Tl1_0 Tl1_4 3.164510 1_555
Tl1_0 Tl1_4 3.164510 1_455
Tl1_0 Tl1_2 3.164510 1_555
Tl1_1 Tl1_7 3.164509 1_445
Tl1_1 Tl1_7 3.164510 1_555
Tl1_1 Tl1_5 3.164510 1_555
Tl1_1 Tl1_3 3.164510 1_545
Tl1_1 Tl1_3 3.164510 1_555
Tl1_1 Tl1_5 3.164510 1_455
Tl1_2 Tl1_4 3.164509 1_565
Tl1_2 Tl1_4 3.164509 1_455
Tl1_2 Tl1_6 3.164510 1_455
Tl1_2 Tl1_6 3.164510 1_555
Tl1_3 Tl1_5 3.164509 1_565
Tl1_3 Tl1_5 3.164509 1_455
Tl1_3 Tl1_7 3.164510 1_455
Tl1_3 Tl1_7 3.164510 1_555
Tl1_4 Tl1_6 3.164510 1_545
Tl1_4 Tl1_6 3.164510 1_555
Tl1_5 Tl1_7 3.164510 1_545
Tl1_5 Tl1_7 3.164510 1_555
C0_0 Ti0_2 2.132306 1_545
C0_0 Ti0_6 2.132308 1_445
C0_0 Ti0_0 2.132308 1_555
C0_0 Ti1_4 2.132363 1_455
C0_0 Ti1_6 2.132365 1_445
C0_0 Ti1_0 2.132365 1_555
C0_1 Ti0_3 2.132306 1_545
C0_1 Ti0_1 2.132308 1_555
C0_1 Ti0_7 2.132308 1_445
C0_1 Ti1_5 2.132363 1_455
C0_1 Ti1_7 2.132365 1_445
C0_1 Ti1_1 2.132365 1_555
C0_2 Ti0_0 2.132306 1_555
C0_2 Ti0_4 2.132308 1_455
C0_2 Ti0_2 2.132308 1_555
C0_2 Ti1_6 2.132363 1_455
C0_2 Ti1_4 2.132365 1_455
C0_2 Ti1_2 2.132365 1_555
C0_3 Ti0_1 2.132306 1_555
C0_3 Ti0_5 2.132308 1_455
C0_3 Ti0_3 2.132308 1_555
C0_3 Ti1_7 2.132363 1_455
C0_3 Ti1_5 2.132365 1_455
C0_3 Ti1_3 2.132365 1_555
C0_4 Ti0_6 2.132306 1_545
C0_4 Ti0_4 2.132308 1_555
C0_4 Ti0_2 2.132308 1_545
C0_4 Ti1_0 2.132363 1_555
C0_4 Ti1_4 2.132365 1_555
C0_4 Ti1_2 2.132365 1_545
C0_5 Ti0_7 2.132306 1_545
C0_5 Ti0_5 2.132308 1_555
C0_5 Ti0_3 2.132308 1_545
C0_5 Ti1_1 2.132363 1_555
C0_5 Ti1_3 2.132365 1_545
C0_5 Ti1_5 2.132365 1_555
C0_6 Ti0_4 2.132306 1_555
C0_6 Ti0_0 2.132308 1_555
C0_6 Ti0_6 2.132308 1_555
C0_6 Ti1_2 2.132363 1_555
C0_6 Ti1_0 2.132365 1_555
C0_6 Ti1_6 2.132365 1_555
C0_7 Ti0_5 2.132306 1_555
C0_7 Ti0_1 2.132308 1_555
C0_7 Ti0_7 2.132308 1_555
C0_7 Ti1_3 2.132363 1_555
C0_7 Ti1_1 2.132365 1_555
C0_7 Ti1_7 2.132365 1_555
C1_0 Ti3_2 2.132306 1_545
C1_0 Ti3_6 2.132308 1_445
C1_0 Ti3_0 2.132308 1_555
C1_0 Ti2_5 2.132363 1_454
C1_0 Ti2_7 2.132365 1_444
C1_0 Ti2_1 2.132365 1_554
C1_1 Ti3_3 2.132306 1_545
C1_1 Ti3_7 2.132308 1_445
C1_1 Ti3_1 2.132308 1_555
C1_1 Ti2_4 2.132363 1_455
C1_1 Ti2_6 2.132365 1_445
C1_1 Ti2_0 2.132365 1_555
C1_2 Ti3_0 2.132306 1_555
C1_2 Ti3_4 2.132308 1_455
C1_2 Ti3_2 2.132308 1_555
C1_2 Ti2_7 2.132363 1_454
C1_2 Ti2_5 2.132365 1_454
C1_2 Ti2_3 2.132365 1_554
C1_3 Ti3_1 2.132306 1_555
C1_3 Ti3_3 2.132308 1_555
C1_3 Ti3_5 2.132308 1_455
C1_3 Ti2_6 2.132363 1_455
C1_3 Ti2_4 2.132365 1_455
C1_3 Ti2_2 2.132365 1_555
C1_4 Ti3_6 2.132306 1_545
C1_4 Ti3_4 2.132308 1_555
C1_4 Ti3_2 2.132308 1_545
C1_4 Ti2_1 2.132363 1_554
C1_4 Ti2_3 2.132365 1_544
C1_4 Ti2_5 2.132365 1_554
C1_5 Ti3_7 2.132306 1_545
C1_5 Ti3_5 2.132308 1_555
C1_5 Ti3_3 2.132308 1_545
C1_5 Ti2_0 2.132363 1_555
C1_5 Ti2_4 2.132365 1_555
C1_5 Ti2_2 2.132365 1_545
C1_6 Ti3_4 2.132306 1_555
C1_6 Ti3_0 2.132308 1_555
C1_6 Ti3_6 2.132308 1_555
C1_6 Ti2_3 2.132363 1_554
C1_6 Ti2_7 2.132365 1_554
C1_6 Ti2_1 2.132365 1_554
C1_7 Ti3_5 2.132306 1_555
C1_7 Ti3_1 2.132308 1_555
C1_7 Ti3_7 2.132308 1_555
C1_7 Ti2_2 2.132363 1_555
C1_7 Ti2_6 2.132365 1_555
C1_7 Ti2_0 2.132365 1_555
