# generated using pymatgen
data_Li7Mn2(CoO4)3
_symmetry_space_group_name_H-M   'P 1'
_cell_length_a   2.96069300
_cell_length_b   5.10546453
_cell_length_c   15.07922371
_cell_angle_alpha   96.03490724
_cell_angle_beta   94.72161284
_cell_angle_gamma   104.81802429
_symmetry_Int_Tables_number   1
_chemical_formula_structural   Li7Mn2(CoO4)3
_chemical_formula_sum   'Li7 Mn2 Co3 O12'
_cell_volume   217.71339856
_cell_formula_units_Z   1
loop_
 _symmetry_equiv_pos_site_id
 _symmetry_equiv_pos_as_xyz
  1  'x, y, z'
loop_
 _atom_site_type_symbol
 _atom_site_label
 _atom_site_symmetry_multiplicity
 _atom_site_fract_x
 _atom_site_fract_y
 _atom_site_fract_z
 _atom_site_occupancy
  Li  Li0  1  0.34236400  0.58964500  0.08405000  1
  Li  Li1  1  0.00306000  0.75418700  0.25105900  1
  Li  Li2  1  0.66800800  0.91748500  0.41867100  1
  Li  Li3  1  0.33748200  0.08131900  0.58482000  1
  Li  Li4  1  0.99857600  0.24060700  0.75163900  1
  Li  Li5  1  0.64014700  0.40555200  0.90928600  1
  Li  Li6  1  0.34674800  0.84709600  0.83170400  1
  Mn  Mn0  1  0.99767400  0.00232700  0.99274000  1
  Mn  Mn1  1  0.33222900  0.33086800  0.33525500  1
  Co  Co0  1  0.65611500  0.15966900  0.16667600  1
  Co  Co1  1  0.00930300  0.50166800  0.50474900  1
  Co  Co2  1  0.67641900  0.67318500  0.67352000  1
  O  O0  1  0.62679000  0.25575300  0.03730700  1
  O  O1  1  0.33292000  0.43590500  0.20914900  1
  O  O2  1  0.03224000  0.61001400  0.38047300  1
  O  O3  1  0.65364500  0.77252500  0.55032300  1
  O  O4  1  0.34621000  0.93160600  0.70386300  1
  O  O5  1  0.00969700  0.12687900  0.88360900  1
  O  O6  1  0.99322100  0.89648600  0.12199300  1
  O  O7  1  0.63582600  0.05365100  0.29176900  1
  O  O8  1  0.34745600  0.22213300  0.45581900  1
  O  O9  1  0.97859400  0.39507900  0.62152300  1
  O  O10  1  0.65965900  0.54615100  0.77641000  1
  O  O11  1  0.37561700  0.75021000  0.96359300  1
loop_
_geom_bond_atom_site_label_1
_geom_bond_atom_site_label_2
_geom_bond_distance
_geom_bond_site_symmetry_2
Li0 O11 2.069360 1_554
Li0 O1 2.117582 1_555
Li0 O6 2.140257 1_555
Li0 O6 2.141784 1_455
Li0 O0 2.165914 1_555
Li0 O0 2.354866 1_455
Li1 O7 2.091016 1_565
Li1 O6 2.148303 1_455
Li1 O7 2.158552 1_465
Li1 O2 2.159693 1_555
Li1 O1 2.165901 1_555
Li1 O1 2.214731 1_455
Li2 O8 2.071962 1_565
Li2 O7 2.106598 1_565
Li2 O2 2.111655 1_555
Li2 O2 2.176443 1_655
Li2 O3 2.190281 1_555
Li2 O8 2.193292 1_665
Li3 O4 2.024395 1_545
Li3 O3 2.072399 1_545
Li3 O9 2.135567 1_555
Li3 O8 2.143434 1_555
Li3 O9 2.186872 1_455
Li3 O3 2.208328 1_445
Li4 O10 2.078377 1_555
Li4 O5 2.130796 1_655
Li4 O10 2.144581 1_655
Li4 O4 2.170648 1_545
Li4 O4 2.186497 1_645
Li4 O9 2.192082 1_555
Li5 O5 2.016195 1_555
Li5 O5 2.030124 1_655
Li5 O0 2.149576 1_556
Li5 O10 2.198536 1_555
Li5 O11 2.210846 1_555
Li5 O11 2.439677 1_655
Li6 O4 2.019181 1_555
Li6 O5 2.066739 1_565
Li6 O11 2.099461 1_555
Li6 O10 2.121341 1_555
Li6 O5 2.140899 1_665
Li6 O10 2.246510 1_455
Mn0 O5 1.825312 1_655
Mn0 O11 1.943486 1_545
Mn0 O11 1.949570 1_645
Mn0 O0 1.993351 1_656
Mn0 O0 1.999208 1_556
Mn0 O6 2.076764 1_546
Mn1 O7 1.947735 1_555
Mn1 O8 1.956248 1_555
Mn1 O2 1.956455 1_555
Mn1 O1 2.029308 1_555
Mn1 O7 2.184931 1_455
Mn1 O2 2.200812 1_655
Co0 O6 1.965167 1_545
Co0 O1 1.978896 1_555
Co0 O7 2.017781 1_555
Co0 O0 2.061276 1_555
Co0 O6 2.086715 1_445
Co0 O1 2.137225 1_655
Co1 O9 1.899361 1_455
Co1 O2 2.010502 1_555
Co1 O3 2.038986 1_455
Co1 O8 2.052934 1_555
Co1 O3 2.063696 1_555
Co1 O8 2.128624 1_455
Co2 O10 1.743002 1_555
Co2 O4 1.874121 1_555
Co2 O3 1.976832 1_555
Co2 O9 1.990555 1_555
Co2 O4 2.065904 1_655
Co2 O9 2.213157 1_455
