# generated using pymatgen
data_LaSbO4
_symmetry_space_group_name_H-M   'P 1'
_cell_length_a   5.08611266
_cell_length_b   5.41056610
_cell_length_c   13.62322787
_cell_angle_alpha   70.73612808
_cell_angle_beta   90.00000000
_cell_angle_gamma   90.00000000
_symmetry_Int_Tables_number   1
_chemical_formula_structural   LaSbO4
_chemical_formula_sum   'La4 Sb4 O16'
_cell_volume   353.90354854
_cell_formula_units_Z   4
loop_
 _symmetry_equiv_pos_site_id
 _symmetry_equiv_pos_as_xyz
  1  'x, y, z'
loop_
 _atom_site_type_symbol
 _atom_site_label
 _atom_site_symmetry_multiplicity
 _atom_site_fract_x
 _atom_site_fract_y
 _atom_site_fract_z
 _atom_site_occupancy
  La  La0  1  0.80332159  0.65479521  0.33634509  1
  La  La1  1  0.69667841  0.65479521  0.83634509  1
  La  La2  1  0.19667841  0.34520479  0.66365491  1
  La  La3  1  0.30332159  0.34520479  0.16365491  1
  Sb  Sb0  1  0.75149916  0.91825586  0.06940175  1
  Sb  Sb1  1  0.74850084  0.91825586  0.56940175  1
  Sb  Sb2  1  0.24850084  0.08174414  0.93059825  1
  Sb  Sb3  1  0.25149916  0.08174414  0.43059825  1
  O  O0  1  0.43605337  0.75618228  0.02664956  1
  O  O1  1  0.06394663  0.75618228  0.52664956  1
  O  O2  1  0.56394663  0.24381772  0.97335044  1
  O  O3  1  0.93605337  0.24381772  0.47335044  1
  O  O4  1  0.60247325  0.99168990  0.18736603  1
  O  O5  1  0.89752675  0.99168990  0.68736603  1
  O  O6  1  0.39752675  0.00831010  0.81263397  1
  O  O7  1  0.10247325  0.00831010  0.31263397  1
  O  O8  1  0.07198067  0.13585359  0.05591334  1
  O  O9  1  0.42801933  0.13585359  0.55591334  1
  O  O10  1  0.92801933  0.86414641  0.94408666  1
  O  O11  1  0.57198067  0.86414641  0.44408666  1
  O  O12  1  0.87618236  0.58621635  0.16651919  1
  O  O13  1  0.62381764  0.58621635  0.66651919  1
  O  O14  1  0.12381764  0.41378365  0.83348081  1
  O  O15  1  0.37618236  0.41378365  0.33348081  1
loop_
_geom_bond_atom_site_label_1
_geom_bond_atom_site_label_2
_geom_bond_distance
_geom_bond_site_symmetry_2
La0 O7 2.381211 1_665
La0 O11 2.432881 1_555
La0 O4 2.458499 1_555
La0 O3 2.478986 1_555
La0 O12 2.488792 1_555
La0 O15 2.540708 1_555
La1 O6 2.381211 1_565
La1 O10 2.432881 1_555
La1 O5 2.458499 1_555
La1 O2 2.478986 1_555
La1 O13 2.488792 1_555
La1 O14 2.540708 1_655
La2 O5 2.381211 1_445
La2 O9 2.432881 1_555
La2 O6 2.458499 1_555
La2 O1 2.478986 1_555
La2 O14 2.488792 1_555
La2 O13 2.540708 1_555
La3 O4 2.381211 1_545
La3 O8 2.432881 1_555
La3 O7 2.458499 1_555
La3 O0 2.478986 1_555
La3 O15 2.488792 1_555
La3 O12 2.540708 1_455
O0 Sb0 2.004810 1_555
O0 Sb2 2.050391 1_564
O1 Sb1 2.004810 1_455
O1 Sb3 2.050391 1_565
O2 Sb2 2.004810 1_555
O2 Sb0 2.050391 1_546
O3 Sb3 2.004810 1_655
O3 Sb1 2.050391 1_545
O4 Sb0 1.932954 1_555
O5 Sb1 1.932954 1_555
O6 Sb2 1.932954 1_555
O7 Sb3 1.932954 1_555
O8 Sb0 1.983439 1_445
O8 Sb2 2.033732 1_554
O9 Sb1 1.983439 1_545
O9 Sb3 2.033732 1_555
O10 Sb2 1.983439 1_665
O10 Sb0 2.033732 1_556
O11 Sb3 1.983439 1_565
O11 Sb1 2.033732 1_555
O12 Sb0 1.952369 1_555
O13 Sb1 1.952369 1_555
O14 Sb2 1.952369 1_555
O15 Sb3 1.952369 1_555
