# generated using pymatgen
data_Nb5(NO)2
_symmetry_space_group_name_H-M   'P 1'
_cell_length_a   5.44271710
_cell_length_b   5.44271710
_cell_length_c   6.87043749
_cell_angle_alpha   51.15390858
_cell_angle_beta   51.15390858
_cell_angle_gamma   47.42133784
_symmetry_Int_Tables_number   1
_chemical_formula_structural   Nb5(NO)2
_chemical_formula_sum   'Nb5 N2 O2'
_cell_volume   109.17482308
_cell_formula_units_Z   1
loop_
 _symmetry_equiv_pos_site_id
 _symmetry_equiv_pos_as_xyz
  1  'x, y, z'
loop_
 _atom_site_type_symbol
 _atom_site_label
 _atom_site_symmetry_multiplicity
 _atom_site_fract_x
 _atom_site_fract_y
 _atom_site_fract_z
 _atom_site_occupancy
  Nb  Nb0  1  0.58278700  0.58278700  0.62039400  1
  Nb  Nb1  1  0.77186500  0.77186500  0.82287700  1
  Nb  Nb2  1  0.99900800  0.99900800  0.97904300  1
  Nb  Nb3  1  0.22193000  0.22193000  0.14012600  1
  Nb  Nb4  1  0.40057100  0.40057100  0.45117200  1
  N  N0  1  0.48604800  0.48604800  0.03901700  1
  N  N1  1  0.69693000  0.69693000  0.20930100  1
  O  O0  1  0.90424800  0.90424800  0.38690100  1
  O  O1  1  0.13661300  0.13661300  0.55116900  1
loop_
_geom_bond_atom_site_label_1
_geom_bond_atom_site_label_2
_geom_bond_distance
_geom_bond_site_symmetry_2
Nb0 O1 2.225860 1_565
Nb0 O1 2.225860 1_655
Nb0 O0 2.407551 1_555
Nb1 O0 2.301766 1_555
Nb1 O1 2.720702 1_665
Nb2 O1 2.235802 1_665
Nb2 O0 2.262327 1_556
Nb3 O1 2.325546 1_555
Nb3 O0 2.354656 1_445
Nb4 O1 2.217328 1_555
Nb4 O0 2.228047 1_545
Nb4 O0 2.228047 1_455
N0 Nb1 2.126970 1_554
N0 Nb2 2.214404 1_544
N0 Nb2 2.214404 1_454
N0 Nb3 2.215048 1_555
N0 Nb0 2.324286 1_554
N0 Nb4 2.332166 1_555
N1 Nb4 2.181910 1_555
N1 Nb0 2.206596 1_555
N1 Nb1 2.211248 1_554
N1 Nb3 2.217149 1_565
N1 Nb3 2.217149 1_655
N1 Nb2 2.245269 1_554
