# generated using pymatgen
data_KYbI3
_symmetry_space_group_name_H-M   'P 1'
_cell_length_a   8.17113969
_cell_length_b   8.17113969
_cell_length_c   11.48336286
_cell_angle_alpha   90.00000000
_cell_angle_beta   90.00000000
_cell_angle_gamma   151.07519462
_symmetry_Int_Tables_number   1
_chemical_formula_structural   KYbI3
_chemical_formula_sum   'K2 Yb2 I6'
_cell_volume   370.83075823
_cell_formula_units_Z   2
loop_
 _symmetry_equiv_pos_site_id
 _symmetry_equiv_pos_as_xyz
  1  'x, y, z'
loop_
 _atom_site_type_symbol
 _atom_site_label
 _atom_site_symmetry_multiplicity
 _atom_site_fract_x
 _atom_site_fract_y
 _atom_site_fract_z
 _atom_site_occupancy
  K  K0  1  0.25605271  0.74394729  0.25000000  1
  K  K1  1  0.74394729  0.25605271  0.75000000  1
  Yb  Yb0  1  0.00000000  0.00000000  0.00000000  1
  Yb  Yb1  1  0.00000000  0.00000000  0.50000000  1
  I  I0  1  0.63797382  0.36202618  0.05196002  1
  I  I1  1  0.36202618  0.63797382  0.94803998  1
  I  I2  1  0.36202618  0.63797382  0.55196002  1
  I  I3  1  0.63797382  0.36202618  0.44803998  1
  I  I4  1  0.94215176  0.05784824  0.25000000  1
  I  I5  1  0.05784824  0.94215176  0.75000000  1
loop_
_geom_bond_atom_site_label_1
_geom_bond_atom_site_label_2
_geom_bond_distance
_geom_bond_site_symmetry_2
I0 Yb0 3.047542 1_555
I0 Yb0 3.047542 1_665
I0 K0 3.581575 1_545
I0 K0 3.581575 1_655
I0 K1 3.851739 1_554
I1 Yb0 3.047542 1_556
I1 Yb0 3.047542 1_666
I1 K1 3.581575 1_455
I1 K1 3.581575 1_565
I1 K0 3.851739 1_556
I2 Yb1 3.047542 1_555
I2 Yb1 3.047542 1_665
I2 K1 3.581575 1_455
I2 K1 3.581575 1_565
I2 K0 3.851739 1_555
I3 Yb1 3.047542 1_555
I3 Yb1 3.047542 1_665
I3 K0 3.581575 1_545
I3 K0 3.581575 1_655
I3 K1 3.851739 1_555
I4 Yb0 3.013256 1_655
I4 Yb1 3.013256 1_655
I4 K0 3.582868 1_655
I4 K0 3.582868 1_545
I5 Yb1 3.013256 1_565
I5 Yb0 3.013256 1_566
I5 K1 3.582868 1_565
I5 K1 3.582868 1_455
