# generated using pymatgen
data_KAl(BH4)4
_symmetry_space_group_name_H-M   'P 1'
_cell_length_a   8.37535261
_cell_length_b   8.37535261
_cell_length_c   8.91983300
_cell_angle_alpha   109.26232540
_cell_angle_beta   109.26232540
_cell_angle_gamma   107.29669861
_symmetry_Int_Tables_number   1
_chemical_formula_structural   KAl(BH4)4
_chemical_formula_sum   'K2 Al2 B8 H32'
_cell_volume   496.32535042
_cell_formula_units_Z   2
loop_
 _symmetry_equiv_pos_site_id
 _symmetry_equiv_pos_as_xyz
  1  'x, y, z'
loop_
 _atom_site_type_symbol
 _atom_site_label
 _atom_site_symmetry_multiplicity
 _atom_site_fract_x
 _atom_site_fract_y
 _atom_site_fract_z
 _atom_site_occupancy
  K  K0  1  0.37500000  0.12500000  0.25000000  1
  K  K1  1  0.62500000  0.87500000  0.75000000  1
  Al  Al0  1  0.12500000  0.37500000  0.75000000  1
  Al  Al1  1  0.87500000  0.62500000  0.25000000  1
  B  B0  1  0.75761700  0.64369900  0.44461300  1
  B  B1  1  0.69908700  0.31300500  0.05538700  1
  B  B2  1  0.85630100  0.74238300  0.05538700  1
  B  B3  1  0.18699500  0.80091300  0.44461300  1
  B  B4  1  0.24238300  0.35630100  0.55538700  1
  B  B5  1  0.30091300  0.68699500  0.94461300  1
  B  B6  1  0.14369900  0.25761700  0.94461300  1
  B  B7  1  0.81300500  0.19908700  0.55538700  1
  H  H0  1  0.74825400  0.72981100  0.35406500  1
  H  H1  1  0.87574700  0.39419000  0.14593500  1
  H  H2  1  0.77018900  0.75174600  0.14593500  1
  H  H3  1  0.10581000  0.62425300  0.35406500  1
  H  H4  1  0.25174600  0.27018900  0.64593500  1
  H  H5  1  0.12425300  0.60581000  0.85406500  1
  H  H6  1  0.22981100  0.24825400  0.85406500  1
  H  H7  1  0.89419000  0.37574700  0.64593500  1
  H  H8  1  0.84645000  0.76591400  0.60046600  1
  H  H9  1  0.66544800  0.24598400  0.89953400  1
  H  H10  1  0.73408600  0.65355000  0.89953400  1
  H  H11  1  0.25401600  0.83455200  0.60046600  1
  H  H12  1  0.15355000  0.23408600  0.39953400  1
  H  H13  1  0.33455200  0.75401600  0.10046600  1
  H  H14  1  0.26591400  0.34645000  0.10046600  1
  H  H15  1  0.74598400  0.16544800  0.39953400  1
  H  H16  1  0.85034300  0.55455300  0.42325900  1
  H  H17  1  0.63129400  0.42708400  0.07674100  1
  H  H18  1  0.94544700  0.64965700  0.07674100  1
  H  H19  1  0.07291600  0.86870600  0.42325900  1
  H  H20  1  0.14965700  0.44544700  0.57674100  1
  H  H21  1  0.36870600  0.57291600  0.92325900  1
  H  H22  1  0.05455300  0.35034300  0.92325900  1
  H  H23  1  0.92708400  0.13129400  0.57674100  1
  H  H24  1  0.59525300  0.52982800  0.38699600  1
  H  H25  1  0.64283200  0.20825700  0.11300400  1
  H  H26  1  0.97017200  0.90474700  0.11300400  1
  H  H27  1  0.29174300  0.85716800  0.38699600  1
  H  H28  1  0.40474700  0.47017200  0.61300400  1
  H  H29  1  0.35716800  0.79174300  0.88699600  1
  H  H30  1  0.02982800  0.09525300  0.88699600  1
  H  H31  1  0.70825700  0.14283200  0.61300400  1
loop_
_geom_bond_atom_site_label_1
_geom_bond_atom_site_label_2
_geom_bond_distance
_geom_bond_site_symmetry_2
Al0 H7 1.850867 1_455
Al0 H5 1.850867 1_555
Al0 H4 1.850870 1_555
Al0 H6 1.850870 1_555
Al0 H22 1.875872 1_555
Al0 H20 1.875872 1_555
Al0 H21 1.875872 1_555
Al0 H23 1.875872 1_455
Al1 H1 1.850867 1_555
Al1 H3 1.850867 1_655
Al1 H0 1.850870 1_555
Al1 H2 1.850870 1_555
Al1 H19 1.875872 1_655
Al1 H16 1.875872 1_555
Al1 H18 1.875872 1_555
Al1 H17 1.875872 1_555
B0 H8 1.208204 1_555
B0 H24 1.211282 1_555
B0 H16 1.243153 1_555
B0 H0 1.246922 1_555
B1 H9 1.208202 1_554
B1 H25 1.211291 1_555
B1 H17 1.243152 1_555
B1 H1 1.246922 1_555
B2 H10 1.208204 1_554
B2 H26 1.211282 1_555
B2 H18 1.243153 1_555
B2 H2 1.246922 1_555
B3 H11 1.208202 1_555
B3 H27 1.211291 1_555
B3 H19 1.243152 1_555
B3 H3 1.246922 1_555
B4 H12 1.208204 1_555
B4 H28 1.211282 1_555
B4 H20 1.243153 1_555
B4 H4 1.246922 1_555
B5 H13 1.208202 1_556
B5 H29 1.211291 1_555
B5 H21 1.243152 1_555
B5 H5 1.246922 1_555
B6 H14 1.208204 1_556
B6 H30 1.211282 1_555
B6 H22 1.243153 1_555
B6 H6 1.246922 1_555
B7 H15 1.208202 1_555
B7 H31 1.211291 1_555
B7 H23 1.243152 1_555
B7 H7 1.246922 1_555
H8 K1 2.808847 1_555
H9 K1 2.808847 1_545
H10 K1 2.808847 1_555
H11 K1 2.808847 1_555
H12 K0 2.808847 1_555
H13 K0 2.808847 1_565
H14 K0 2.808847 1_555
H15 K0 2.808847 1_555
H24 K0 2.907233 1_555
H25 K0 2.907233 1_555
H26 K0 2.907233 1_665
H27 K0 2.907233 1_565
H28 K1 2.907233 1_555
H29 K1 2.907233 1_555
H30 K1 2.907233 1_445
H31 K1 2.907233 1_545
