# generated using pymatgen
data_InSn2P(H3C)8
_symmetry_space_group_name_H-M   'P 1'
_cell_length_a   13.37570100
_cell_length_b   13.59084521
_cell_length_c   20.81799558
_cell_angle_alpha   107.35173157
_cell_angle_beta   91.71365230
_cell_angle_gamma   119.11724582
_symmetry_Int_Tables_number   1
_chemical_formula_structural   InSn2P(H3C)8
_chemical_formula_sum   'In6 Sn12 P6 H144 C48'
_cell_volume   3085.43043208
_cell_formula_units_Z   6
loop_
 _symmetry_equiv_pos_site_id
 _symmetry_equiv_pos_as_xyz
  1  'x, y, z'
loop_
 _atom_site_type_symbol
 _atom_site_label
 _atom_site_symmetry_multiplicity
 _atom_site_fract_x
 _atom_site_fract_y
 _atom_site_fract_z
 _atom_site_occupancy
  In  In0  1  0.58750800  0.90379200  0.80849200  1
  In  In1  1  0.41249200  0.09620800  0.19150800  1
  In  In2  1  0.43253700  0.47278400  0.73515200  1
  In  In3  1  0.56746300  0.52721600  0.26484800  1
  In  In4  1  0.20462800  0.64465600  0.70606100  1
  In  In5  1  0.79537200  0.35534400  0.29393900  1
  Sn  Sn0  1  0.60184200  0.73631600  0.94163500  1
  Sn  Sn1  1  0.39815800  0.26368400  0.05836500  1
  Sn  Sn2  1  0.78866000  0.72762300  0.80109600  1
  Sn  Sn3  1  0.21134000  0.27237700  0.19890400  1
  Sn  Sn4  1  0.06813700  0.31735000  0.73941700  1
  Sn  Sn5  1  0.93186300  0.68265000  0.26058300  1
  Sn  Sn6  1  0.14753100  0.31824000  0.56025000  1
  Sn  Sn7  1  0.85246900  0.68176000  0.43975000  1
  Sn  Sn8  1  0.48712700  0.81492100  0.59167700  1
  Sn  Sn9  1  0.51287300  0.18507900  0.40832300  1
  Sn  Sn10  1  0.39701000  0.01611600  0.72619700  1
  Sn  Sn11  1  0.60299000  0.98388400  0.27380300  1
  P  P0  1  0.58865200  0.70648300  0.81318200  1
  P  P1  1  0.41134800  0.29351700  0.18681800  1
  P  P2  1  0.22937200  0.45260200  0.68818700  1
  P  P3  1  0.77062800  0.54739800  0.31181300  1
  P  P4  1  0.41411600  0.82917700  0.70409500  1
  P  P5  1  0.58588400  0.17082300  0.29590500  1
  H  H0  1  0.77791100  0.97593800  0.74522500  1
  H  H1  1  0.22208900  0.02406200  0.25477500  1
  H  H2  1  0.76502300  0.10354400  0.78701600  1
  H  H3  1  0.23497700  0.89645600  0.21298400  1
  H  H4  1  0.82886000  0.05321800  0.83614700  1
  H  H5  1  0.17114000  0.94678200  0.16385300  1
  H  H6  1  0.43730600  0.90034400  0.89850600  1
  H  H7  1  0.56269400  0.09965600  0.10149400  1
  H  H8  1  0.58403100  0.00081800  0.94646400  1
  H  H9  1  0.41596900  0.99918200  0.05353600  1
  H  H10  1  0.52053100  0.04835400  0.89604500  1
  H  H11  1  0.47946900  0.95164600  0.10395500  1
  H  H12  1  0.69538400  0.98019400  0.99073200  1
  H  H13  1  0.30461600  0.01980600  0.00926800  1
  H  H14  1  0.72869500  0.93709100  0.05754400  1
  H  H15  1  0.27130500  0.06290900  0.94245600  1
  H  H16  1  0.81194000  0.95080900  0.99167800  1
  H  H17  1  0.18806000  0.04919100  0.00832200  1
  H  H18  1  0.39993000  0.73843500  0.95554200  1
  H  H19  1  0.60007000  0.26156500  0.04445800  1
  H  H20  1  0.37077800  0.58877400  0.94022000  1
  H  H21  1  0.62922200  0.41122600  0.05978000  1
  H  H22  1  0.44289100  0.70302700  0.02359600  1
  H  H23  1  0.55710900  0.29697300  0.97640500  1
  H  H24  1  0.60242600  0.53515400  0.94221700  1
  H  H25  1  0.39757400  0.46484600  0.05778300  1
  H  H26  1  0.75086400  0.65733600  0.96010100  1
  H  H27  1  0.24913600  0.34266400  0.03989900  1
  H  H28  1  0.66837100  0.64921900  0.02619700  1
  H  H29  1  0.33162900  0.35078100  0.97380300  1
  H  H30  1  0.77404900  0.69388500  0.66376200  1
  H  H31  1  0.22595100  0.30611500  0.33623800  1
  H  H32  1  0.85418300  0.85281400  0.71303400  1
  H  H33  1  0.14581700  0.14718600  0.28696600  1
  H  H34  1  0.92353700  0.76714200  0.70618200  1
  H  H35  1  0.07646300  0.23285800  0.29381800  1
  H  H36  1  0.75473400  0.53678600  0.83783500  1
  H  H37  1  0.24526600  0.46321400  0.16216500  1
  H  H38  1  0.71607000  0.48856400  0.74624200  1
  H  H39  1  0.28393000  0.51143600  0.25375800  1
  H  H40  1  0.86633100  0.57148600  0.78843100  1
  H  H41  1  0.13366900  0.42851400  0.21156900  1
  H  H42  1  0.91078700  0.85954000  0.93568000  1
  H  H43  1  0.08921300  0.14046000  0.06432000  1
  H  H44  1  0.01090000  0.87299500  0.87942700  1
  H  H45  1  0.98910000  0.12700500  0.12057300  1
  H  H46  1  0.94129200  0.95881900  0.88881300  1
  H  H47  1  0.05870800  0.04118100  0.11118700  1
  H  H48  1  0.36018300  0.40065800  0.84603900  1
  H  H49  1  0.63981700  0.59934200  0.15396100  1
  H  H50  1  0.33243200  0.27200800  0.77482100  1
  H  H51  1  0.66756800  0.72799200  0.22517900  1
  H  H52  1  0.47680800  0.37702500  0.82523700  1
  H  H53  1  0.52319200  0.62297500  0.17476300  1
  H  H54  1  0.51901500  0.48106700  0.61497700  1
  H  H55  1  0.48098500  0.51893300  0.38502300  1
  H  H56  1  0.58869700  0.43370900  0.66249600  1
  H  H57  1  0.41130300  0.56629100  0.33750400  1
  H  H58  1  0.44468900  0.32918200  0.61283000  1
  H  H59  1  0.55531100  0.67081800  0.38717000  1
  H  H60  1  0.10400600  0.12846600  0.70116600  1
  H  H61  1  0.89599400  0.87153400  0.29883400  1
  H  H62  1  0.95584100  0.07370000  0.71108900  1
  H  H63  1  0.04415900  0.92630000  0.28891100  1
  H  H64  1  0.99640800  0.10257900  0.63465200  1
  H  H65  1  0.00359200  0.89742100  0.36534800  1
  H  H66  1  0.88420200  0.30584200  0.66766400  1
  H  H67  1  0.11579800  0.69415800  0.33233600  1
  H  H68  1  0.84613800  0.27293000  0.74359300  1
  H  H69  1  0.15386200  0.72707000  0.25640700  1
  H  H70  1  0.94069900  0.42527500  0.74994500  1
  H  H71  1  0.05930100  0.57472500  0.25005500  1
  H  H72  1  0.19241400  0.35863000  0.86158200  1
  H  H73  1  0.80758600  0.64137000  0.13841800  1
  H  H74  1  0.14038900  0.46111200  0.87560100  1
  H  H75  1  0.85961100  0.53888800  0.12439900  1
  H  H76  1  0.04284900  0.30709000  0.86627100  1
  H  H77  1  0.95715100  0.69291000  0.13372900  1
  H  H78  1  0.20332400  0.50188800  0.51431100  1
  H  H79  1  0.79667600  0.49811200  0.48568900  1
  H  H80  1  0.31825000  0.46938700  0.50833700  1
  H  H81  1  0.68175000  0.53061300  0.49166300  1
  H  H82  1  0.18513700  0.37567200  0.44485500  1
  H  H83  1  0.81486300  0.62432800  0.55514500  1
  H  H84  1  0.93487800  0.30237200  0.54463700  1
  H  H85  1  0.06512200  0.69762800  0.45536300  1
  H  H86  1  0.93080700  0.18292900  0.47637300  1
  H  H87  1  0.06919300  0.81707100  0.52362700  1
  H  H88  1  0.91476500  0.17058600  0.55884900  1
  H  H89  1  0.08523500  0.82941400  0.44115100  1
  H  H90  1  0.27796100  0.21024800  0.54133100  1
  H  H91  1  0.72203900  0.78975200  0.45866900  1
  H  H92  1  0.14006500  0.11152600  0.55724000  1
  H  H93  1  0.85993500  0.88847400  0.44276000  1
  H  H94  1  0.14966700  0.12420800  0.47418100  1
  H  H95  1  0.85033300  0.87579200  0.52581900  1
  H  H96  1  0.09612700  0.58156800  0.57146700  1
  H  H97  1  0.90387300  0.41843200  0.42853300  1
  H  H98  1  0.98662000  0.52818000  0.62008800  1
  H  H99  1  0.01338000  0.47182000  0.37991200  1
  H  H100  1  0.06287900  0.68285700  0.62897800  1
  H  H101  1  0.93712100  0.31714300  0.37102200  1
  H  H102  1  0.25344700  0.71254100  0.84865400  1
  H  H103  1  0.74655300  0.28745900  0.15134600  1
  H  H104  1  0.17463600  0.77661000  0.82648900  1
  H  H105  1  0.82536400  0.22339000  0.17351100  1
  H  H106  1  0.09893300  0.62188000  0.81765800  1
  H  H107  1  0.90106700  0.37812000  0.18234200  1
  H  H108  1  0.32923500  0.82343000  0.51012700  1
  H  H109  1  0.67076500  0.17657000  0.48987300  1
  H  H110  1  0.39334700  0.74916700  0.45694700  1
  H  H111  1  0.60665300  0.25083300  0.54305300  1
  H  H112  1  0.27966600  0.66894800  0.49659200  1
  H  H113  1  0.72033400  0.33105200  0.50340800  1
  H  H114  1  0.61685600  0.72617000  0.62445700  1
  H  H115  1  0.38314400  0.27383000  0.37554300  1
  H  H116  1  0.47611200  0.60310900  0.57533000  1
  H  H117  1  0.52388800  0.39689100  0.42467000  1
  H  H118  1  0.58488200  0.68316000  0.53271800  1
  H  H119  1  0.41511800  0.31684000  0.46728200  1
  H  H120  1  0.70415200  0.01915300  0.64355100  1
  H  H121  1  0.29584800  0.98084700  0.35644900  1
  H  H122  1  0.66824200  0.98100200  0.55261800  1
  H  H123  1  0.33175800  0.01899800  0.44738200  1
  H  H124  1  0.60773500  0.05532100  0.60874600  1
  H  H125  1  0.39226500  0.94467900  0.39125400  1
  H  H126  1  0.63012500  0.18614700  0.75794000  1
  H  H127  1  0.36987500  0.81385300  0.24206000  1
  H  H128  1  0.55242400  0.25676300  0.79594600  1
  H  H129  1  0.44757600  0.74323700  0.20405400  1
  H  H130  1  0.58267000  0.17160500  0.83583300  1
  H  H131  1  0.41733000  0.82839500  0.16416700  1
  H  H132  1  0.42648900  0.05295500  0.60323800  1
  H  H133  1  0.57351100  0.94704500  0.39676200  1
  H  H134  1  0.27351900  0.96097000  0.59997600  1
  H  H135  1  0.72648100  0.03903000  0.40002400  1
  H  H136  1  0.34899000  0.12027900  0.64544700  1
  H  H137  1  0.65101000  0.87972100  0.35455300  1
  H  H138  1  0.27286700  0.98730400  0.82806000  1
  H  H139  1  0.72713300  0.01269600  0.17194000  1
  H  H140  1  0.25011900  0.07888600  0.79006900  1
  H  H141  1  0.74988100  0.92111400  0.20993100  1
  H  H142  1  0.17357800  0.91857600  0.74695700  1
  H  H143  1  0.82642200  0.08142400  0.25304300  1
  C  C0  1  0.76075600  0.02342900  0.79202700  1
  C  C1  1  0.23924400  0.97657100  0.20797300  1
  C  C2  1  0.52489400  0.97071300  0.89812500  1
  C  C3  1  0.47510600  0.02928700  0.10187500  1
  C  C4  1  0.72473900  0.92407600  0.00287000  1
  C  C5  1  0.27526100  0.07592400  0.99713000  1
  C  C6  1  0.43284500  0.68520000  0.96817600  1
  C  C7  1  0.56715500  0.31480000  0.03182400  1
  C  C8  1  0.66353900  0.63162400  0.97094500  1
  C  C9  1  0.33646100  0.36837600  0.02905500  1
  C  C10  1  0.84098900  0.76502100  0.70960100  1
  C  C11  1  0.15901100  0.23497900  0.29039900  1
  C  C12  1  0.78028600  0.56073500  0.79264100  1
  C  C13  1  0.21971400  0.43926500  0.20735900  1
  C  C14  1  0.92976300  0.87226900  0.88695200  1
  C  C15  1  0.07023700  0.12773100  0.11304800  1
  C  C16  1  0.39579600  0.36804600  0.80350700  1
  C  C17  1  0.60420400  0.63195400  0.19649300  1
  C  C18  1  0.50488100  0.42387600  0.64554300  1
  C  C19  1  0.49511900  0.57612400  0.35445700  1
  C  C20  1  0.02576000  0.13271600  0.69034000  1
  C  C21  1  0.97424000  0.86728400  0.30966000  1
  C  C22  1  0.91586100  0.33155800  0.72267700  1
  C  C23  1  0.08413900  0.66844200  0.27732300  1
  C  C24  1  0.11791000  0.36776800  0.84930100  1
  C  C25  1  0.88209000  0.63223200  0.15069900  1
  C  C26  1  0.22318100  0.42996900  0.49950800  1
  C  C27  1  0.77681900  0.57003100  0.50049200  1
  C  C28  1  0.95892700  0.23331400  0.53200000  1
  C  C29  1  0.04107300  0.76668600  0.46800000  1
  C  C30  1  0.18340400  0.17333000  0.52978400  1
  C  C31  1  0.81659600  0.82667000  0.47021600  1
  C  C32  1  0.07189300  0.60422200  0.62138300  1
  C  C33  1  0.92810700  0.39577800  0.37861700  1
  C  C34  1  0.18048600  0.69533300  0.81256200  1
  C  C35  1  0.81951400  0.30466700  0.18743800  1
  C  C36  1  0.35601100  0.75710800  0.50309900  1
  C  C37  1  0.64398900  0.24289200  0.49690100  1
  C  C38  1  0.54896300  0.69166500  0.57933900  1
  C  C39  1  0.45103700  0.30833500  0.42066100  1
  C  C40  1  0.63480400  0.98892200  0.60024100  1
  C  C41  1  0.36519600  0.01107800  0.39975900  1
  C  C42  1  0.56065300  0.17734400  0.78649400  1
  C  C43  1  0.43934700  0.82265600  0.21350600  1
  C  C44  1  0.35666500  0.04007800  0.63207800  1
  C  C45  1  0.64333500  0.95992200  0.36792200  1
  C  C46  1  0.25609900  0.99803300  0.77952100  1
  C  C47  1  0.74390100  0.00196700  0.22047900  1
loop_
_geom_bond_atom_site_label_1
_geom_bond_atom_site_label_2
_geom_bond_distance
_geom_bond_site_symmetry_2
In0 P4 2.688068 1_555
In0 P0 2.719694 1_555
In1 P5 2.688068 1_555
In1 P1 2.719694 1_555
In2 P0 2.711507 1_555
In2 P2 2.715063 1_555
In3 P1 2.711507 1_555
In3 P3 2.715063 1_555
In4 P2 2.707359 1_555
In4 P4 2.715079 1_555
In5 P3 2.707359 1_555
In5 P5 2.715079 1_555
P0 Sn0 2.569428 1_555
P0 Sn2 2.576461 1_555
P1 Sn1 2.569428 1_555
P1 Sn3 2.576461 1_555
P2 Sn6 2.570176 1_555
P2 Sn4 2.572218 1_555
P3 Sn7 2.570176 1_555
P3 Sn5 2.572218 1_555
P4 Sn8 2.553172 1_555
P4 Sn10 2.567831 1_565
P5 Sn9 2.553172 1_555
P5 Sn11 2.567831 1_545
C0 H0 1.095881 1_545
C0 H4 1.098446 1_555
C0 H2 1.098781 1_555
C0 In0 2.200967 1_545
C1 H1 1.095881 1_565
C1 H5 1.098446 1_555
C1 H3 1.098781 1_555
C1 In1 2.200967 1_565
C2 H8 1.094351 1_565
C2 H6 1.096320 1_555
C2 H10 1.098078 1_565
C2 In0 2.198406 1_555
C3 H9 1.094351 1_545
C3 H7 1.096320 1_555
C3 H11 1.098078 1_545
C3 In1 2.198406 1_555
C4 H14 1.093981 1_555
C4 H12 1.095526 1_554
C4 H16 1.095926 1_554
C4 Sn0 2.165881 1_554
C5 H15 1.093981 1_555
C5 H13 1.095526 1_556
C5 H17 1.095926 1_556
C5 Sn1 2.165881 1_556
C6 H22 1.095522 1_556
C6 H20 1.096688 1_555
C6 H18 1.096834 1_555
C6 Sn0 2.161700 1_555
C7 H23 1.095502 1_554
C7 H21 1.096688 1_555
C7 H19 1.096834 1_555
C7 Sn1 2.161700 1_555
C8 H28 1.095834 1_556
C8 H26 1.096803 1_555
C8 H24 1.097685 1_555
C8 Sn0 2.169863 1_555
C9 H29 1.095834 1_554
C9 H27 1.096803 1_555
C9 H25 1.097685 1_555
C9 Sn1 2.169863 1_555
C10 H34 1.095429 1_555
C10 H30 1.096898 1_555
C10 H32 1.096990 1_555
C10 Sn2 2.165011 1_555
C11 H35 1.095429 1_555
C11 H31 1.096898 1_555
C11 H33 1.096990 1_555
C11 Sn3 2.165011 1_555
C12 H38 1.094634 1_555
C12 H36 1.096166 1_555
C12 H40 1.097107 1_555
C12 Sn2 2.168289 1_555
C13 H39 1.094634 1_555
C13 H37 1.096166 1_555
C13 H41 1.097107 1_555
C13 Sn3 2.168289 1_555
C14 H42 1.095783 1_555
C14 H44 1.096862 1_655
C14 H46 1.097662 1_555
C14 Sn2 2.170928 1_555
C15 H43 1.095783 1_555
C15 H45 1.096862 1_455
C15 H47 1.097662 1_555
C15 Sn3 2.170928 1_555
C16 H52 1.096710 1_555
C16 H48 1.097250 1_555
C16 H50 1.098546 1_555
C16 In2 2.205001 1_555
C17 H53 1.096710 1_555
C17 H49 1.097250 1_555
C17 H51 1.098546 1_555
C17 In3 2.205001 1_555
C18 H56 1.096209 1_555
C18 H54 1.097272 1_555
C18 H58 1.097420 1_555
C18 In2 2.202838 1_555
C19 H57 1.096209 1_555
C19 H55 1.097272 1_555
C19 H59 1.097420 1_555
C19 In3 2.202838 1_555
C20 H64 1.094970 1_455
C20 H60 1.096349 1_555
C20 H62 1.097882 1_455
C20 Sn4 2.171131 1_555
C21 H65 1.094970 1_655
C21 H61 1.096349 1_555
C21 H63 1.097882 1_655
C21 Sn5 2.171131 1_555
C22 H70 1.095697 1_555
C22 H66 1.096039 1_555
C22 H68 1.096487 1_555
C22 Sn4 2.165116 1_655
C23 H71 1.095697 1_555
C23 H67 1.096039 1_555
C23 H69 1.096487 1_555
C23 Sn5 2.165116 1_455
C24 H72 1.094548 1_555
C24 H76 1.096406 1_555
C24 H74 1.097367 1_555
C24 Sn4 2.162335 1_555
C25 H73 1.094548 1_555
C25 H77 1.096406 1_555
C25 H75 1.097367 1_555
C25 Sn5 2.162335 1_555
C26 H82 1.094137 1_555
C26 H78 1.094888 1_555
C26 H80 1.096403 1_555
C26 Sn6 2.157604 1_555
C27 H83 1.094137 1_555
C27 H79 1.094888 1_555
C27 H81 1.096403 1_555
C27 Sn7 2.157604 1_555
C28 H86 1.096238 1_555
C28 H88 1.096371 1_555
C28 H84 1.097803 1_555
C28 Sn6 2.171365 1_655
C29 H87 1.096238 1_555
C29 H89 1.096371 1_555
C29 H85 1.097803 1_555
C29 Sn7 2.171365 1_455
C30 H92 1.095723 1_555
C30 H90 1.096111 1_555
C30 H94 1.097208 1_555
C30 Sn6 2.168879 1_555
C31 H93 1.095723 1_555
C31 H91 1.096111 1_555
C31 H95 1.097208 1_555
C31 Sn7 2.168879 1_555
C32 H98 1.097317 1_455
C32 H96 1.098242 1_555
C32 H100 1.098836 1_555
C32 In4 2.201627 1_555
C33 H99 1.097317 1_655
C33 H97 1.098242 1_555
C33 H101 1.098836 1_555
C33 In5 2.201627 1_555
C34 H102 1.095830 1_555
C34 H104 1.097643 1_555
C34 H106 1.099118 1_555
C34 In4 2.200629 1_555
C35 H103 1.095830 1_555
C35 H105 1.097643 1_555
C35 H107 1.099118 1_555
C35 In5 2.200629 1_555
C36 H108 1.095806 1_555
C36 H112 1.095865 1_555
C36 H110 1.097025 1_555
C36 Sn8 2.166742 1_555
C37 H109 1.095806 1_555
C37 H113 1.095865 1_555
C37 H111 1.097025 1_555
C37 Sn9 2.166742 1_555
C38 H114 1.094815 1_555
C38 H116 1.094941 1_555
C38 H118 1.095984 1_555
C38 Sn8 2.158854 1_555
C39 H115 1.094815 1_555
C39 H117 1.094941 1_555
C39 H119 1.095984 1_555
C39 Sn9 2.158854 1_555
C40 H120 1.095567 1_565
C40 H124 1.096954 1_565
C40 H122 1.097383 1_555
C40 Sn8 2.169649 1_555
C41 H121 1.095567 1_545
C41 H125 1.096954 1_545
C41 H123 1.097383 1_555
C41 Sn9 2.169649 1_555
C42 H126 1.094720 1_555
C42 H130 1.095387 1_555
C42 H128 1.098229 1_555
C42 Sn10 2.166914 1_555
C43 H127 1.094720 1_555
C43 H131 1.095387 1_555
C43 H129 1.098229 1_555
C43 Sn11 2.166914 1_555
C44 H132 1.095670 1_555
C44 H134 1.096685 1_545
C44 H136 1.098069 1_555
C44 Sn10 2.173660 1_555
C45 H133 1.095670 1_555
C45 H135 1.096685 1_565
C45 H137 1.098069 1_555
C45 Sn11 2.173660 1_555
C46 H138 1.094900 1_555
C46 H142 1.096644 1_555
C46 H140 1.097622 1_565
C46 Sn10 2.163839 1_565
C47 H139 1.094900 1_555
C47 H143 1.096644 1_555
C47 H141 1.097622 1_545
C47 Sn11 2.163839 1_545
