# generated using pymatgen
data_CaSb2(PO5)2
_symmetry_space_group_name_H-M   'P 1'
_cell_length_a   10.35922893
_cell_length_b   9.12022057
_cell_length_c   7.38752958
_cell_angle_alpha   76.94420984
_cell_angle_beta   59.05239916
_cell_angle_gamma   44.00339100
_symmetry_Int_Tables_number   1
_chemical_formula_structural   CaSb2(PO5)2
_chemical_formula_sum   'Ca2 Sb4 P4 O20'
_cell_volume   403.51835208
_cell_formula_units_Z   2
loop_
 _symmetry_equiv_pos_site_id
 _symmetry_equiv_pos_as_xyz
  1  'x, y, z'
loop_
 _atom_site_type_symbol
 _atom_site_label
 _atom_site_symmetry_multiplicity
 _atom_site_fract_x
 _atom_site_fract_y
 _atom_site_fract_z
 _atom_site_occupancy
  Ca  Ca0  1  0.49816300  0.00183700  0.00183700  1
  Ca  Ca1  1  0.24816300  0.75183700  0.75183700  1
  Sb  Sb0  1  0.87334200  0.37930500  0.38270500  1
  Sb  Sb1  1  0.36464700  0.38270500  0.37930500  1
  Sb  Sb2  1  0.87069500  0.37665800  0.88535300  1
  Sb  Sb3  1  0.86729500  0.88535300  0.37665800  1
  P  P0  1  0.04389800  0.55366500  0.95617400  1
  P  P1  1  0.69633500  0.20610200  0.80373700  1
  P  P2  1  0.44626300  0.95617400  0.55366500  1
  P  P3  1  0.29382600  0.80373700  0.20610200  1
  O  O0  1  0.55969700  0.72688700  0.47134400  1
  O  O1  1  0.65678000  0.17539800  0.33517800  1
  O  O2  1  0.30875600  0.67730300  0.38980900  1
  O  O3  1  0.77865600  0.00792800  0.69030300  1
  O  O4  1  0.21996000  0.06378100  0.75500000  1
  O  O5  1  0.42506600  0.08424200  0.37157200  1
  O  O6  1  0.07460200  0.59322000  0.41735500  1
  O  O7  1  0.83264500  0.33517800  0.17539800  1
  O  O8  1  0.91482200  0.41735500  0.59322000  1
  O  O9  1  0.18621900  0.03004000  0.28874100  1
  O  O10  1  0.24207200  0.47134400  0.72688700  1
  O  O11  1  0.49500000  0.28874100  0.03004000  1
  O  O12  1  0.96125900  0.75500000  0.06378100  1
  O  O13  1  0.16575800  0.82493400  0.13088000  1
  O  O14  1  0.11912000  0.37157200  0.08424200  1
  O  O15  1  0.87842800  0.13088000  0.82493400  1
  O  O16  1  0.86019100  0.62586800  0.94124400  1
  O  O17  1  0.62413200  0.38980900  0.67730300  1
  O  O18  1  0.52311300  0.69030300  0.00792800  1
  O  O19  1  0.57269700  0.94124400  0.62586900  1
loop_
_geom_bond_atom_site_label_1
_geom_bond_atom_site_label_2
_geom_bond_distance
_geom_bond_site_symmetry_2
Ca0 O19 2.547525 1_544
Ca0 O16 2.547532 1_544
Ca0 O14 2.565230 1_555
Ca0 O5 2.565230 1_555
Ca0 O9 2.647106 1_555
Ca0 O11 2.647106 1_555
Ca0 O18 2.653174 1_545
Ca0 O3 2.653174 1_554
Ca1 O17 2.547532 1_555
Ca1 O2 2.547532 1_555
Ca1 O13 2.565230 1_556
Ca1 O15 2.565230 1_465
Ca1 O4 2.647106 1_565
Ca1 O12 2.647106 1_456
Ca1 O0 2.653174 1_555
Ca1 O10 2.653174 1_555
O0 P2 1.558236 1_555
O0 Sb0 2.228671 1_555
O1 Sb3 1.967063 1_545
O1 Sb1 1.967696 1_555
O2 P3 1.564510 1_555
O2 Sb1 2.317371 1_555
O3 P1 1.558236 1_555
O3 Sb3 2.228667 1_545
O4 P2 1.560344 1_545
O4 Sb2 2.228462 1_455
O5 P2 1.564300 1_545
O5 Sb1 2.321008 1_555
O6 Sb1 1.967063 1_555
O6 Sb3 1.967690 1_455
O7 Sb2 1.967063 1_554
O7 Sb0 1.967680 1_555
O8 Sb0 1.967063 1_555
O8 Sb2 1.967694 1_555
O9 P3 1.560344 1_545
O9 Sb0 2.228462 1_455
O10 P0 1.558236 1_555
O10 Sb1 2.228674 1_555
O11 P1 1.560344 1_554
O11 Sb1 2.228460 1_555
O12 P0 1.560344 1_654
O12 Sb3 2.228467 1_555
O13 P3 1.564300 1_555
O13 Sb3 2.321009 1_455
O14 P0 1.564300 1_554
O14 Sb0 2.321014 1_455
O15 P1 1.564300 1_555
O15 Sb2 2.321017 1_555
O16 P0 1.564510 1_655
O16 Sb2 2.317362 1_555
O17 P1 1.564510 1_555
O17 Sb0 2.317365 1_555
O18 P3 1.558236 1_555
O18 Sb2 2.228672 1_554
O19 P2 1.564516 1_555
O19 Sb3 2.317371 1_555
