# generated using pymatgen
data_Cr12As5C
_symmetry_space_group_name_H-M   'P 1'
_cell_length_a   3.21866600
_cell_length_b   6.45439695
_cell_length_c   11.18142330
_cell_angle_alpha   90.00000104
_cell_angle_beta   90.00000000
_cell_angle_gamma   90.00000000
_symmetry_Int_Tables_number   1
_chemical_formula_structural   Cr12As5C
_chemical_formula_sum   'Cr12 As5 C1'
_cell_volume   232.28901517
_cell_formula_units_Z   1
loop_
 _symmetry_equiv_pos_site_id
 _symmetry_equiv_pos_as_xyz
  1  'x, y, z'
loop_
 _atom_site_type_symbol
 _atom_site_label
 _atom_site_symmetry_multiplicity
 _atom_site_fract_x
 _atom_site_fract_y
 _atom_site_fract_z
 _atom_site_occupancy
  Cr  Cr0  1  0.00000000  0.72756100  0.50000000  1
  Cr  Cr1  1  0.00000000  0.26465500  0.00000000  1
  Cr  Cr2  1  0.00000000  0.38636000  0.38945000  1
  Cr  Cr3  1  0.00000000  0.86922600  0.86344900  1
  Cr  Cr4  1  0.00000000  0.86922600  0.13655100  1
  Cr  Cr5  1  0.00000000  0.38636000  0.61055000  1
  Cr  Cr6  1  0.50000000  0.12979300  0.50000000  1
  Cr  Cr7  1  0.50000000  0.59950400  0.00000000  1
  Cr  Cr8  1  0.50000000  0.20412200  0.20570400  1
  Cr  Cr9  1  0.50000000  0.67882000  0.67840600  1
  Cr  Cr10  1  0.50000000  0.67882000  0.32159400  1
  Cr  Cr11  1  0.50000000  0.20412200  0.79429600  1
  As  As0  1  0.00000000  0.99847500  0.33995600  1
  As  As1  1  0.00000000  0.50184100  0.82676500  1
  As  As2  1  0.00000000  0.50184100  0.17323500  1
  As  As3  1  0.00000000  0.99847500  0.66004400  1
  As  As4  1  0.50000000  0.99733700  0.00000000  1
  C  C0  1  0.50000000  0.50326200  0.50000000  1
loop_
_geom_bond_atom_site_label_1
_geom_bond_atom_site_label_2
_geom_bond_distance
_geom_bond_site_symmetry_2
As0 Cr4 2.422526 1_555
As0 Cr0 2.501986 1_555
As0 Cr6 2.551612 1_465
As0 Cr6 2.551612 1_565
As0 Cr2 2.564000 1_565
As0 Cr8 2.570046 1_465
As0 Cr8 2.570046 1_565
As0 Cr10 2.624656 1_455
As0 Cr10 2.624656 1_555
As1 Cr3 2.406464 1_555
As1 Cr1 2.468938 1_556
As1 Cr5 2.529883 1_555
As1 Cr11 2.532645 1_555
As1 Cr11 2.532645 1_455
As1 Cr9 2.578104 1_455
As1 Cr9 2.578104 1_555
As1 Cr7 2.596021 1_556
As1 Cr7 2.596021 1_456
As2 Cr4 2.406464 1_555
As2 Cr1 2.468938 1_555
As2 Cr2 2.529883 1_555
As2 Cr8 2.532645 1_455
As2 Cr8 2.532645 1_555
As2 Cr10 2.578103 1_455
As2 Cr10 2.578103 1_555
As2 Cr7 2.596021 1_555
As2 Cr7 2.596021 1_455
As3 Cr3 2.422526 1_555
As3 Cr0 2.501986 1_555
As3 Cr6 2.551612 1_565
As3 Cr6 2.551612 1_465
As3 Cr5 2.564000 1_565
As3 Cr11 2.570046 1_565
As3 Cr11 2.570046 1_465
As3 Cr9 2.624656 1_455
As3 Cr9 2.624656 1_555
As4 Cr1 2.359423 1_665
As4 Cr1 2.359423 1_565
As4 Cr3 2.367468 1_654
As4 Cr3 2.367468 1_554
As4 Cr4 2.367468 1_555
As4 Cr4 2.367468 1_655
As4 Cr7 2.567772 1_555
As4 Cr8 2.659256 1_565
As4 Cr11 2.659256 1_564
C0 Cr0 2.164678 1_655
C0 Cr0 2.164678 1_555
C0 Cr2 2.165001 1_555
C0 Cr2 2.165001 1_655
C0 Cr5 2.165001 1_655
C0 Cr5 2.165001 1_555
C0 Cr9 2.294193 1_555
C0 Cr10 2.294193 1_555
C0 Cr6 2.410517 1_555
