# generated using pymatgen
data_K(CrS2)2
_symmetry_space_group_name_H-M   'P 1'
_cell_length_a   5.94303352
_cell_length_b   6.86898295
_cell_length_c   15.34101891
_cell_angle_alpha   90.00000000
_cell_angle_beta   90.00000000
_cell_angle_gamma   90.00000000
_symmetry_Int_Tables_number   1
_chemical_formula_structural   K(CrS2)2
_chemical_formula_sum   'K4 Cr8 S16'
_cell_volume   626.26021597
_cell_formula_units_Z   4
loop_
 _symmetry_equiv_pos_site_id
 _symmetry_equiv_pos_as_xyz
  1  'x, y, z'
loop_
 _atom_site_type_symbol
 _atom_site_label
 _atom_site_symmetry_multiplicity
 _atom_site_fract_x
 _atom_site_fract_y
 _atom_site_fract_z
 _atom_site_occupancy
  K  K0  1  0.35430458  -0.00000000  0.00000000  1
  K  K1  1  0.64569542  0.50000000  0.50000000  1
  K  K2  1  0.02635008  -0.00000000  0.50000000  1
  K  K3  1  0.97364992  0.50000000  0.00000000  1
  Cr  Cr0  1  0.99937441  -0.00000000  0.24963225  1
  Cr  Cr1  1  0.99937441  -0.00000000  0.75036775  1
  Cr  Cr2  1  0.00062559  0.50000000  0.25036775  1
  Cr  Cr3  1  0.00062559  0.50000000  0.74963225  1
  Cr  Cr4  1  0.50000000  0.25000000  0.25000000  1
  Cr  Cr5  1  0.50000000  0.75000000  0.75000000  1
  Cr  Cr6  1  0.50000000  0.75000000  0.25000000  1
  Cr  Cr7  1  0.50000000  0.25000000  0.75000000  1
  S  S0  1  0.83423781  0.25010404  0.33759304  1
  S  S1  1  0.83423781  0.74989596  0.66240696  1
  S  S2  1  0.16576219  0.75010404  0.16240696  1
  S  S3  1  0.16576219  0.24989596  0.83759304  1
  S  S4  1  0.16576219  0.24989596  0.16240696  1
  S  S5  1  0.16576219  0.75010404  0.83759304  1
  S  S6  1  0.83423781  0.74989596  0.33759304  1
  S  S7  1  0.83423781  0.25010404  0.66240696  1
  S  S8  1  0.66985086  -0.00000000  0.16292989  1
  S  S9  1  0.66985086  -0.00000000  0.83707011  1
  S  S10  1  0.33014914  0.50000000  0.33707011  1
  S  S11  1  0.33014914  0.50000000  0.66292989  1
  S  S12  1  0.33587188  -0.00000000  0.33647709  1
  S  S13  1  0.33587188  -0.00000000  0.66352291  1
  S  S14  1  0.66412812  0.50000000  0.16352291  1
  S  S15  1  0.66412812  0.50000000  0.83647709  1
loop_
_geom_bond_atom_site_label_1
_geom_bond_atom_site_label_2
_geom_bond_distance
_geom_bond_site_symmetry_2
K0 S8 3.124790 1_555
K0 S9 3.124790 1_554
K0 S3 3.226382 1_554
K0 S5 3.226382 1_544
K0 S2 3.226382 1_545
K0 S4 3.226382 1_555
K1 S10 3.124790 1_555
K1 S11 3.124790 1_555
K1 S7 3.226382 1_555
K1 S0 3.226382 1_555
K1 S6 3.226382 1_555
K1 S1 3.226382 1_555
K2 S13 3.110767 1_555
K2 S12 3.110767 1_555
K2 S6 3.234571 1_445
K2 S7 3.234571 1_455
K2 S1 3.234571 1_445
K2 S0 3.234571 1_455
K3 S15 3.110767 1_554
K3 S14 3.110767 1_555
K3 S5 3.234571 1_654
K3 S3 3.234571 1_654
K3 S4 3.234571 1_655
K3 S2 3.234571 1_655
Cr0 S8 2.367358 1_555
Cr0 S4 2.390581 1_655
Cr0 S2 2.390581 1_645
Cr0 S6 2.394882 1_545
Cr0 S0 2.394882 1_555
Cr0 S12 2.402968 1_655
Cr1 S9 2.367358 1_555
Cr1 S3 2.390581 1_655
Cr1 S5 2.390581 1_645
Cr1 S1 2.394882 1_545
Cr1 S7 2.394882 1_555
Cr1 S13 2.402968 1_655
Cr2 S10 2.367358 1_555
Cr2 S0 2.390581 1_455
Cr2 S6 2.390581 1_455
Cr2 S4 2.394882 1_555
Cr2 S2 2.394882 1_555
Cr2 S14 2.402968 1_455
Cr3 S11 2.367358 1_555
Cr3 S7 2.390581 1_455
Cr3 S1 2.390581 1_455
Cr3 S5 2.394882 1_555
Cr3 S3 2.394882 1_555
Cr3 S15 2.402968 1_455
Cr4 S12 2.379152 1_555
Cr4 S14 2.379152 1_555
Cr4 S4 2.398216 1_555
Cr4 S0 2.398216 1_555
Cr4 S10 2.398352 1_555
Cr4 S8 2.398352 1_555
Cr5 S15 2.379152 1_555
Cr5 S13 2.379152 1_565
Cr5 S1 2.398216 1_555
Cr5 S5 2.398216 1_555
Cr5 S11 2.398352 1_555
Cr5 S9 2.398352 1_565
Cr6 S12 2.379152 1_565
Cr6 S14 2.379152 1_555
Cr6 S2 2.398216 1_555
Cr6 S6 2.398216 1_555
Cr6 S10 2.398352 1_555
Cr6 S8 2.398352 1_565
Cr7 S15 2.379152 1_555
Cr7 S13 2.379152 1_555
Cr7 S7 2.398216 1_555
Cr7 S3 2.398216 1_555
Cr7 S11 2.398352 1_555
Cr7 S9 2.398352 1_555
