# generated using pymatgen
data_Mn3NbO8
_symmetry_space_group_name_H-M   'P 1'
_cell_length_a   5.89764473
_cell_length_b   5.89764473
_cell_length_c   9.39282084
_cell_angle_alpha   89.14069370
_cell_angle_beta   89.14069370
_cell_angle_gamma   118.98642316
_symmetry_Int_Tables_number   1
_chemical_formula_structural   Mn3NbO8
_chemical_formula_sum   'Mn6 Nb2 O16'
_cell_volume   285.65375413
_cell_formula_units_Z   2
loop_
 _symmetry_equiv_pos_site_id
 _symmetry_equiv_pos_as_xyz
  1  'x, y, z'
loop_
 _atom_site_type_symbol
 _atom_site_label
 _atom_site_symmetry_multiplicity
 _atom_site_fract_x
 _atom_site_fract_y
 _atom_site_fract_z
 _atom_site_occupancy
  Mn  Mn0  1  0.33105300  0.16422600  0.21201800  1
  Mn  Mn1  1  0.83018500  0.66230000  0.21320300  1
  Mn  Mn2  1  0.82529600  0.16467000  0.21498600  1
  Mn  Mn3  1  0.16467000  0.82529600  0.71498600  1
  Mn  Mn4  1  0.16422600  0.33105300  0.71201800  1
  Mn  Mn5  1  0.66230000  0.83018500  0.71320300  1
  Nb  Nb0  1  0.66425200  0.33859900  0.49769800  1
  Nb  Nb1  1  0.33859900  0.66425200  0.99769800  1
  O  O0  1  0.33225000  0.15861400  0.59529500  1
  O  O1  1  0.54478200  0.50373600  0.34248200  1
  O  O2  1  0.66677600  0.33747000  0.11212600  1
  O  O3  1  0.99506800  0.99237900  0.30786000  1
  O  O4  1  0.99237900  0.99506800  0.80786000  1
  O  O5  1  0.83908200  0.66563200  0.60455600  1
  O  O6  1  0.53127700  0.04447100  0.33784200  1
  O  O7  1  0.96044700  0.47535100  0.32734100  1
  O  O8  1  0.15481100  0.81707500  0.09245000  1
  O  O9  1  0.81707500  0.15481100  0.59245000  1
  O  O10  1  0.04447100  0.53127700  0.83784200  1
  O  O11  1  0.47535100  0.96044700  0.82734100  1
  O  O12  1  0.33747000  0.66677600  0.61212600  1
  O  O13  1  0.15861400  0.33225000  0.09529500  1
  O  O14  1  0.50373600  0.54478200  0.84248200  1
  O  O15  1  0.66563200  0.83908200  0.10455600  1
loop_
_geom_bond_atom_site_label_1
_geom_bond_atom_site_label_2
_geom_bond_distance
_geom_bond_site_symmetry_2
Mn0 O3 1.933059 1_445
Mn0 O2 1.949206 1_555
Mn0 O6 2.028576 1_555
Mn0 O13 2.048372 1_555
Mn0 O8 2.138896 1_545
Mn0 O1 2.184836 1_555
Mn1 O1 1.887129 1_555
Mn1 O7 1.940457 1_555
Mn1 O3 1.941348 1_555
Mn1 O2 1.947502 1_555
Mn1 O8 1.998777 1_655
Mn1 O15 2.012139 1_555
Mn2 O6 1.888135 1_555
Mn2 O2 1.940886 1_555
Mn2 O7 1.942694 1_555
Mn2 O3 1.944647 1_545
Mn2 O15 1.996579 1_545
Mn2 O13 2.030370 1_655
Mn3 O10 1.888135 1_555
Mn3 O12 1.940886 1_555
Mn3 O11 1.942694 1_555
Mn3 O4 1.944647 1_455
Mn3 O5 1.996579 1_455
Mn3 O0 2.030370 1_565
Mn4 O4 1.933059 1_445
Mn4 O12 1.949206 1_555
Mn4 O10 2.028576 1_555
Mn4 O0 2.048372 1_555
Mn4 O9 2.138896 1_455
Mn4 O14 2.184836 1_555
Mn5 O14 1.887129 1_555
Mn5 O11 1.940457 1_555
Mn5 O4 1.941348 1_555
Mn5 O12 1.947502 1_555
Mn5 O9 1.998777 1_565
Mn5 O5 2.012139 1_555
Nb0 O0 1.924462 1_555
Nb0 O9 1.929056 1_555
Nb0 O5 1.988012 1_555
Nb0 O1 2.055187 1_555
Nb0 O6 2.161835 1_555
Nb0 O7 2.185031 1_555
Nb1 O13 1.924462 1_556
Nb1 O8 1.929056 1_556
Nb1 O15 1.988012 1_556
Nb1 O14 2.055187 1_555
Nb1 O10 2.161835 1_555
Nb1 O11 2.185031 1_555
