# generated using pymatgen
data_Mg6Si5
_symmetry_space_group_name_H-M   'P 1'
_cell_length_a   5.53402300
_cell_length_b   6.53400481
_cell_length_c   12.26902141
_cell_angle_alpha   99.67466825
_cell_angle_beta   100.45382627
_cell_angle_gamma   89.50401826
_symmetry_Int_Tables_number   1
_chemical_formula_structural   Mg6Si5
_chemical_formula_sum   'Mg12 Si10'
_cell_volume   429.96196633
_cell_formula_units_Z   2
loop_
 _symmetry_equiv_pos_site_id
 _symmetry_equiv_pos_as_xyz
  1  'x, y, z'
loop_
 _atom_site_type_symbol
 _atom_site_label
 _atom_site_symmetry_multiplicity
 _atom_site_fract_x
 _atom_site_fract_y
 _atom_site_fract_z
 _atom_site_occupancy
  Mg  Mg0  1  0.09474300  0.91965600  0.97206300  1
  Mg  Mg1  1  0.93461100  0.14197800  0.49650900  1
  Mg  Mg2  1  0.21152700  0.78947900  0.64836000  1
  Mg  Mg3  1  0.31297400  0.40192400  0.38968600  1
  Mg  Mg4  1  0.11392100  0.67846000  0.20072000  1
  Mg  Mg5  1  0.52575500  0.05481700  0.85907500  1
  Mg  Mg6  1  0.47603200  0.30451700  0.64549700  1
  Mg  Mg7  1  0.42434400  0.91077300  0.43796200  1
  Mg  Mg8  1  0.46477400  0.33423700  0.09053400  1
  Mg  Mg9  1  0.35695100  0.53473400  0.87647700  1
  Mg  Mg10  1  0.90607400  0.40544200  0.96797800  1
  Mg  Mg11  1  0.64655200  0.84827100  0.07886100  1
  Si  Si0  1  0.97790400  0.72418900  0.41299200  1
  Si  Si1  1  0.74033200  0.57714200  0.52837300  1
  Si  Si2  1  0.74731300  0.67108100  0.80501800  1
  Si  Si3  1  0.02907200  0.20052400  0.15844000  1
  Si  Si4  1  0.41608800  0.05735700  0.24130400  1
  Si  Si5  1  0.69517100  0.90920000  0.65575100  1
  Si  Si6  1  0.02629300  0.13840800  0.77558200  1
  Si  Si7  1  0.62254400  0.65164200  0.26553200  1
  Si  Si8  1  0.77508000  0.30091900  0.30149100  1
  Si  Si9  1  0.99492700  0.44533700  0.68821400  1
loop_
_geom_bond_atom_site_label_1
_geom_bond_atom_site_label_2
_geom_bond_distance
_geom_bond_site_symmetry_2
Mg0 Si3 2.758333 1_566
Mg0 Si2 2.835555 1_455
Mg0 Si6 2.968996 1_565
Mg1 Si8 2.763262 1_555
Mg1 Si0 2.774340 1_545
Mg1 Si9 2.780645 1_555
Mg1 Si1 3.019847 1_555
Mg1 Si5 3.139967 1_545
Mg2 Si9 2.713139 1_455
Mg2 Si5 2.776350 1_555
Mg2 Si6 2.833588 1_565
Mg2 Si0 2.903996 1_455
Mg2 Si5 2.969359 1_455
Mg2 Si1 2.979059 1_455
Mg3 Si4 2.772329 1_555
Mg3 Si1 2.780483 1_555
Mg3 Si0 2.806505 1_455
Mg3 Si8 2.980128 1_555
Mg3 Si8 3.015361 1_455
Mg3 Si3 3.068057 1_555
Mg3 Si7 3.122224 1_555
Mg4 Si7 2.794961 1_555
Mg4 Si0 2.807945 1_455
Mg4 Si4 2.920366 1_565
Mg4 Si7 2.982838 1_455
Mg4 Si3 3.103901 1_555
Mg5 Si2 2.812983 1_545
Mg5 Si5 2.835978 1_545
Mg5 Si6 2.849910 1_555
Mg5 Si6 3.203817 1_655
Mg6 Si5 2.856230 1_545
Mg6 Si9 2.917496 1_455
Mg6 Si9 2.950385 1_555
Mg6 Si1 3.007593 1_555
Mg6 Si2 3.039971 1_555
Mg7 Si0 2.708508 1_455
Mg7 Si4 2.734410 1_565
Mg7 Si5 2.818151 1_555
Mg7 Si7 2.855062 1_555
Mg7 Si1 3.013861 1_555
Mg8 Si7 2.743679 1_555
Mg8 Si4 2.842783 1_555
Mg8 Si8 2.874942 1_555
Mg8 Si3 2.877736 1_555
Mg8 Si3 3.234630 1_655
Mg9 Si2 2.685566 1_555
Mg9 Si9 2.752761 1_455
Mg9 Si6 3.125603 1_555
Mg10 Si3 2.859239 1_656
Mg10 Si6 2.867831 1_655
Mg10 Si2 2.878279 1_555
Mg11 Si4 2.728050 1_565
Mg11 Si7 2.831255 1_555
Mg11 Si3 3.051381 1_665
Si0 Si7 2.408744 1_555
Si0 Si1 2.410398 1_555
Si1 Si9 2.473186 1_555
Si1 Si5 2.490977 1_555
Si2 Si9 2.464597 1_555
Si2 Si5 2.572164 1_555
Si3 Si8 2.445133 1_455
Si3 Si4 2.447568 1_555
Si4 Si8 2.480363 1_555
Si5 Si6 2.468218 1_665
Si6 Si9 2.418690 1_455
Si7 Si8 2.515936 1_555
