# generated using pymatgen
data_RuCN2
_symmetry_space_group_name_H-M   'P 1'
_cell_length_a   5.39297412
_cell_length_b   5.39297432
_cell_length_c   5.39297430
_cell_angle_alpha   32.23121806
_cell_angle_beta   32.23121431
_cell_angle_gamma   32.23121052
_symmetry_Int_Tables_number   1
_chemical_formula_structural   RuCN2
_chemical_formula_sum   'Ru1 C1 N2'
_cell_volume   39.65535197
_cell_formula_units_Z   1
loop_
 _symmetry_equiv_pos_site_id
 _symmetry_equiv_pos_as_xyz
  1  'x, y, z'
loop_
 _atom_site_type_symbol
 _atom_site_label
 _atom_site_symmetry_multiplicity
 _atom_site_fract_x
 _atom_site_fract_y
 _atom_site_fract_z
 _atom_site_occupancy
  Ru  Ru0  1  0.00000000  0.00000000  0.00000000  1
  C  C0  1  0.50000000  0.50000000  0.50000000  1
  N  N0  1  0.58118600  0.58118600  0.58118600  1
  N  N1  1  0.41881400  0.41881400  0.41881400  1
loop_
_geom_bond_atom_site_label_1
_geom_bond_atom_site_label_2
_geom_bond_distance
_geom_bond_site_symmetry_2
C0 N0 1.244205 1_555
C0 N1 1.244205 1_555
N0 Ru0 2.168875 1_566
N0 Ru0 2.168875 1_656
N0 Ru0 2.168875 1_665
N1 Ru0 2.168875 1_655
N1 Ru0 2.168875 1_565
N1 Ru0 2.168875 1_556
