# generated using pymatgen
data_ZrNbV
_symmetry_space_group_name_H-M   'P 1'
_cell_length_a   5.40862284
_cell_length_b   5.40768968
_cell_length_c   8.69585900
_cell_angle_alpha   90.00000000
_cell_angle_beta   90.00000000
_cell_angle_gamma   60.76481155
_symmetry_Int_Tables_number   1
_chemical_formula_structural   ZrNbV
_chemical_formula_sum   'Zr4 Nb4 V4'
_cell_volume   221.94085338
_cell_formula_units_Z   4
loop_
 _symmetry_equiv_pos_site_id
 _symmetry_equiv_pos_as_xyz
  1  'x, y, z'
loop_
 _atom_site_type_symbol
 _atom_site_label
 _atom_site_symmetry_multiplicity
 _atom_site_fract_x
 _atom_site_fract_y
 _atom_site_fract_z
 _atom_site_occupancy
  Zr  Zr0  1  0.33314800  0.33315600  0.55737100  1
  Zr  Zr1  1  0.66730900  0.66731000  0.42957700  1
  Zr  Zr2  1  0.66730900  0.66731000  0.07042300  1
  Zr  Zr3  1  0.33314800  0.33315600  0.94262900  1
  Nb  Nb0  1  0.99761400  0.99754100  0.48723700  1
  Nb  Nb1  1  0.99761400  0.99754100  0.01276300  1
  Nb  Nb2  1  0.82920200  0.34442600  0.75000000  1
  Nb  Nb3  1  0.34444800  0.82919600  0.75000000  1
  V  V0  1  0.83076500  0.83078900  0.75000000  1
  V  V1  1  0.17675400  0.64637200  0.25000000  1
  V  V2  1  0.64633500  0.17680100  0.25000000  1
  V  V3  1  0.17635500  0.17640100  0.25000000  1
loop_
_geom_bond_atom_site_label_1
_geom_bond_atom_site_label_2
_geom_bond_distance
_geom_bond_site_symmetry_2
Zr0 Zr1 3.310106 1_555
Zr0 Zr1 3.333128 1_545
Zr0 Zr1 3.333599 1_455
Zr0 Zr3 3.350149 1_555
Zr1 Zr2 3.123153 1_555
Zr2 Zr3 3.310106 1_554
Zr2 Zr3 3.333128 1_564
Zr2 Zr3 3.333599 1_654
Nb0 V1 2.646441 1_655
Nb0 V2 2.646946 1_565
Nb0 V3 2.653175 1_665
Nb0 V0 2.764665 1_555
Nb0 Nb2 2.810780 1_565
Nb0 Nb3 2.810805 1_655
Nb0 Zr1 3.122221 1_555
Nb0 Zr0 3.190052 1_665
Nb0 Zr0 3.194480 1_655
Nb0 Zr0 3.195379 1_565
Nb0 Zr1 3.200127 1_565
Nb0 Zr1 3.200316 1_655
Nb1 V1 2.646441 1_655
Nb1 V2 2.646946 1_565
Nb1 V3 2.653175 1_665
Nb1 V0 2.764665 1_554
Nb1 Nb2 2.810780 1_564
Nb1 Nb3 2.810805 1_654
Nb1 Zr2 3.122221 1_555
Nb1 Zr3 3.190052 1_664
Nb1 Zr3 3.194480 1_654
Nb1 Zr3 3.195379 1_564
Nb1 Zr2 3.200127 1_565
Nb1 Zr2 3.200316 1_655
Nb2 V0 2.634239 1_555
Nb2 Nb3 2.651917 1_555
Nb2 V0 2.773471 1_545
Nb2 Nb3 2.818637 1_645
Nb2 Zr3 3.174353 1_655
Nb2 Zr0 3.174353 1_655
Nb2 Zr2 3.175813 1_556
Nb2 Zr1 3.175813 1_555
Nb2 Zr3 3.188672 1_555
Nb2 Zr0 3.188672 1_555
Nb3 V0 2.634523 1_555
Nb3 V0 2.774121 1_455
Nb3 Zr0 3.173949 1_565
Nb3 Zr3 3.173949 1_565
Nb3 Zr2 3.175885 1_556
Nb3 Zr1 3.175885 1_555
Nb3 Zr3 3.188288 1_555
Nb3 Zr0 3.188288 1_555
V0 Zr2 3.176523 1_556
V0 Zr1 3.176523 1_555
V0 Zr3 3.207467 1_565
V0 Zr0 3.207467 1_565
V0 Zr0 3.207549 1_655
V0 Zr3 3.207549 1_655
V1 V3 2.542512 1_555
V1 V2 2.568841 1_555
V1 V3 2.865179 1_565
V1 V2 2.901713 1_465
V1 Zr3 3.054351 1_554
V1 Zr0 3.054351 1_555
V1 Zr2 3.120706 1_455
V1 Zr1 3.120706 1_455
V1 Zr2 3.128002 1_555
V1 Zr1 3.128002 1_555
V2 V3 2.543002 1_555
V2 V3 2.865622 1_655
V2 Zr3 3.054406 1_554
V2 Zr0 3.054406 1_555
V2 Zr2 3.120425 1_545
V2 Zr1 3.120425 1_545
V2 Zr2 3.127487 1_555
V2 Zr1 3.127487 1_555
V3 Zr3 3.046976 1_554
V3 Zr0 3.046976 1_555
V3 Zr1 3.150689 1_455
V3 Zr2 3.150689 1_455
V3 Zr2 3.150873 1_545
V3 Zr1 3.150873 1_545
