# generated using pymatgen
data_SrMg6W
_symmetry_space_group_name_H-M   'P 1'
_cell_length_a   5.13018200
_cell_length_b   6.47320000
_cell_length_c   11.31523000
_cell_angle_alpha   90.00000000
_cell_angle_beta   90.00000000
_cell_angle_gamma   90.00000000
_symmetry_Int_Tables_number   1
_chemical_formula_structural   SrMg6W
_chemical_formula_sum   'Sr2 Mg12 W2'
_cell_volume   375.76401199
_cell_formula_units_Z   2
loop_
 _symmetry_equiv_pos_site_id
 _symmetry_equiv_pos_as_xyz
  1  'x, y, z'
loop_
 _atom_site_type_symbol
 _atom_site_label
 _atom_site_symmetry_multiplicity
 _atom_site_fract_x
 _atom_site_fract_y
 _atom_site_fract_z
 _atom_site_occupancy
  Sr  Sr0  1  0.00000000  0.50000000  0.33026000  1
  Sr  Sr1  1  0.00000000  0.00000000  0.83026000  1
  Mg  Mg0  1  0.00000000  0.27146100  0.08695700  1
  Mg  Mg1  1  0.00000000  0.72853900  0.08695700  1
  Mg  Mg2  1  0.00000000  0.00000000  0.33249600  1
  Mg  Mg3  1  0.50000000  0.76475000  0.42335000  1
  Mg  Mg4  1  0.50000000  0.23525000  0.42335000  1
  Mg  Mg5  1  0.50000000  0.00000000  0.16390500  1
  Mg  Mg6  1  0.00000000  0.77146100  0.58695700  1
  Mg  Mg7  1  0.00000000  0.22853900  0.58695700  1
  Mg  Mg8  1  0.00000000  0.50000000  0.83249600  1
  Mg  Mg9  1  0.50000000  0.26475000  0.92335000  1
  Mg  Mg10  1  0.50000000  0.73525000  0.92335000  1
  Mg  Mg11  1  0.50000000  0.50000000  0.66390500  1
  W  W0  1  0.50000000  0.50000000  0.15272500  1
  W  W1  1  0.50000000  0.00000000  0.65272500  1
loop_
_geom_bond_atom_site_label_1
_geom_bond_atom_site_label_2
_geom_bond_distance
_geom_bond_site_symmetry_2
Sr0 W0 3.258093 1_455
Sr0 W0 3.258093 1_555
Sr1 W1 3.258093 1_555
Sr1 W1 3.258093 1_455
Mg0 W0 3.053204 1_555
Mg0 W0 3.053204 1_455
Mg0 Sr0 3.125337 1_555
Mg0 Mg8 3.237104 1_554
Mg0 Mg2 3.287392 1_555
Mg0 Sr1 3.394767 1_554
Mg1 W0 3.053204 1_555
Mg1 W0 3.053204 1_455
Mg1 Sr0 3.125337 1_555
Mg1 Mg8 3.237104 1_554
Mg1 Mg2 3.287392 1_565
Mg1 Sr1 3.394767 1_564
Mg2 Mg3 3.155238 1_545
Mg2 Mg3 3.155238 1_445
Mg2 Mg4 3.155238 1_455
Mg2 Mg4 3.155238 1_555
Mg2 Mg5 3.196687 1_455
Mg2 Mg5 3.196687 1_555
Mg2 Sr0 3.236699 1_545
Mg2 Sr0 3.236699 1_555
Mg2 Mg7 3.237104 1_555
Mg2 Mg6 3.237104 1_545
Mg3 W1 3.009193 1_565
Mg3 Sr0 3.259792 1_655
Mg3 Sr0 3.259792 1_555
Mg3 W0 3.509133 1_555
Mg4 W1 3.009193 1_555
Mg4 Sr0 3.259792 1_655
Mg4 Sr0 3.259792 1_555
Mg4 W0 3.509133 1_555
Mg5 W0 3.239071 1_545
Mg5 W0 3.239071 1_555
Mg6 W1 3.053204 1_565
Mg6 W1 3.053204 1_465
Mg6 Sr1 3.125337 1_565
Mg6 Mg8 3.287392 1_555
Mg6 Sr0 3.394767 1_555
Mg7 W1 3.053204 1_555
Mg7 W1 3.053204 1_455
Mg7 Sr1 3.125337 1_555
Mg7 Mg8 3.287392 1_555
Mg7 Sr0 3.394767 1_555
Mg8 Mg9 3.155238 1_455
Mg8 Mg9 3.155238 1_555
Mg8 Sr1 3.236699 1_565
Mg8 Sr1 3.236699 1_555
Mg9 W0 3.009193 1_556
Mg9 Sr1 3.259792 1_655
Mg9 Sr1 3.259792 1_555
Mg9 W1 3.509133 1_555
Mg10 W0 3.009193 1_556
Mg10 Mg8 3.155238 1_555
Mg10 Mg8 3.155238 1_655
Mg10 Sr1 3.259792 1_565
Mg10 Sr1 3.259792 1_665
Mg10 W1 3.509133 1_565
Mg11 Mg8 3.196687 1_655
Mg11 Mg8 3.196687 1_555
Mg11 W1 3.239071 1_565
Mg11 W1 3.239071 1_555
