# generated using pymatgen
data_CaP2WO7
_symmetry_space_group_name_H-M   'P 1'
_cell_length_a   6.64162500
_cell_length_b   6.76801224
_cell_length_c   7.37048403
_cell_angle_alpha   80.84562825
_cell_angle_beta   68.50494978
_cell_angle_gamma   83.07728745
_symmetry_Int_Tables_number   1
_chemical_formula_structural   CaP2WO7
_chemical_formula_sum   'Ca2 P4 W2 O14'
_cell_volume   303.63942244
_cell_formula_units_Z   2
loop_
 _symmetry_equiv_pos_site_id
 _symmetry_equiv_pos_as_xyz
  1  'x, y, z'
loop_
 _atom_site_type_symbol
 _atom_site_label
 _atom_site_symmetry_multiplicity
 _atom_site_fract_x
 _atom_site_fract_y
 _atom_site_fract_z
 _atom_site_occupancy
  Ca  Ca0  1  0.71921500  0.15641800  0.86077900  1
  Ca  Ca1  1  0.28078500  0.84358200  0.13922100  1
  P  P0  1  0.76337000  0.82248500  0.26508900  1
  P  P1  1  0.23663000  0.17751500  0.73491100  1
  P  P2  1  0.37420500  0.34696900  0.31238900  1
  P  P3  1  0.62579500  0.65303100  0.68761100  1
  W  W0  1  0.90315500  0.30926800  0.23893100  1
  W  W1  1  0.09684500  0.69073200  0.76106900  1
  O  O0  1  0.40297900  0.22691000  0.51391600  1
  O  O1  1  0.59702100  0.77309000  0.48608400  1
  O  O2  1  0.91386600  0.98262500  0.26113500  1
  O  O3  1  0.08613400  0.01737500  0.73886500  1
  O  O4  1  0.70717300  0.43907800  0.65293600  1
  O  O5  1  0.29282700  0.56092200  0.34706400  1
  O  O6  1  0.39127300  0.67173100  0.83892400  1
  O  O7  1  0.60872700  0.32826900  0.16107600  1
  O  O8  1  0.37794600  0.10193300  0.85758200  1
  O  O9  1  0.62205400  0.89806700  0.14241800  1
  O  O10  1  0.08371000  0.36381000  0.79694500  1
  O  O11  1  0.91629000  0.63619000  0.20305500  1
  O  O12  1  0.77771100  0.77199500  0.73704600  1
  O  O13  1  0.22228900  0.22800500  0.26295400  1
loop_
_geom_bond_atom_site_label_1
_geom_bond_atom_site_label_2
_geom_bond_distance
_geom_bond_site_symmetry_2
Ca0 O4 2.265676 1_555
Ca0 O8 2.348896 1_555
Ca0 O3 2.396488 1_655
Ca0 O9 2.432732 1_546
Ca0 O7 2.492633 1_556
Ca0 O10 2.797553 1_655
Ca0 O12 2.829055 1_545
Ca1 O5 2.265676 1_555
Ca1 O9 2.348896 1_555
Ca1 O2 2.396488 1_455
Ca1 O8 2.432732 1_564
Ca1 O6 2.492633 1_554
Ca1 O11 2.797553 1_455
Ca1 O13 2.829055 1_565
O0 P1 1.607011 1_555
O0 P2 1.640000 1_555
O1 P0 1.607011 1_555
O1 P3 1.640000 1_555
O2 P0 1.550601 1_555
O2 W0 2.185096 1_565
O3 P1 1.550601 1_555
O3 W1 2.185096 1_545
O4 P3 1.510666 1_555
O5 P2 1.510666 1_555
O6 P3 1.552513 1_555
O6 W1 2.215389 1_555
O7 P2 1.552513 1_555
O7 W0 2.215389 1_555
O8 P1 1.522842 1_555
O9 P0 1.522842 1_555
O10 P1 1.537769 1_555
O10 W1 2.194686 1_555
O11 P0 1.537769 1_555
O11 W0 2.194686 1_555
O12 P3 1.535458 1_555
O12 W1 2.188479 1_655
O13 P2 1.535458 1_555
O13 W0 2.188479 1_455
