# generated using pymatgen
data_Mg(CoO2)2
_symmetry_space_group_name_H-M   'P 1'
_cell_length_a   6.93997234
_cell_length_b   6.93997234
_cell_length_c   9.01454695
_cell_angle_alpha   50.96586517
_cell_angle_beta   50.96586517
_cell_angle_gamma   23.83403108
_symmetry_Int_Tables_number   1
_chemical_formula_structural   Mg(CoO2)2
_chemical_formula_sum   'Mg2 Co4 O8'
_cell_volume   134.26922166
_cell_formula_units_Z   2
loop_
 _symmetry_equiv_pos_site_id
 _symmetry_equiv_pos_as_xyz
  1  'x, y, z'
loop_
 _atom_site_type_symbol
 _atom_site_label
 _atom_site_symmetry_multiplicity
 _atom_site_fract_x
 _atom_site_fract_y
 _atom_site_fract_z
 _atom_site_occupancy
  Mg  Mg0  1  0.67171500  0.67171500  0.84019600  1
  Mg  Mg1  1  0.32828500  0.32828500  0.15980400  1
  Co  Co0  1  0.36607800  0.36607800  0.81559400  1
  Co  Co1  1  0.85274400  0.85274400  0.47765600  1
  Co  Co2  1  0.14725600  0.14725600  0.52234400  1
  Co  Co3  1  0.63392200  0.63392200  0.18440600  1
  O  O0  1  0.13219900  0.13219900  0.31974600  1
  O  O1  1  0.54077300  0.54077300  0.68457300  1
  O  O2  1  0.45922700  0.45922700  0.31542700  1
  O  O3  1  0.86780100  0.86780100  0.68025400  1
  O  O4  1  0.83642900  0.83642900  0.99463500  1
  O  O5  1  0.22075300  0.22075300  0.64242800  1
  O  O6  1  0.16357100  0.16357100  0.00536500  1
  O  O7  1  0.77924700  0.77924700  0.35757200  1
loop_
_geom_bond_atom_site_label_1
_geom_bond_atom_site_label_2
_geom_bond_distance
_geom_bond_site_symmetry_2
Mg0 O6 2.017627 1_566
Mg0 O6 2.017627 1_656
Mg0 O5 2.036450 1_655
Mg0 O5 2.036450 1_565
Mg0 O3 2.056143 1_555
Mg1 O4 2.017627 1_544
Mg1 O4 2.017627 1_454
Mg1 O7 2.036450 1_455
Mg1 O7 2.036450 1_545
Mg1 O0 2.056143 1_555
Co0 O1 1.848377 1_555
Co0 O3 1.872419 1_545
Co0 O3 1.872419 1_455
Co0 O4 1.996029 1_545
Co0 O4 1.996029 1_455
Co0 O6 2.105616 1_556
Co1 O7 1.886544 1_555
Co1 O2 1.887107 1_655
Co1 O2 1.887107 1_565
Co1 O3 1.964192 1_555
Co1 O5 2.011373 1_565
Co1 O5 2.011373 1_655
Co2 O5 1.886544 1_555
Co2 O1 1.887107 1_545
Co2 O1 1.887107 1_455
Co2 O0 1.964192 1_555
Co2 O7 2.011373 1_455
Co2 O7 2.011373 1_545
Co3 O2 1.848377 1_555
Co3 O0 1.872419 1_565
Co3 O0 1.872419 1_655
Co3 O6 1.996029 1_565
Co3 O6 1.996029 1_655
Co3 O4 2.105616 1_554
