# generated using pymatgen
data_KBaEuWO6
_symmetry_space_group_name_H-M   'P 1'
_cell_length_a   8.52365592
_cell_length_b   8.53350341
_cell_length_c   8.54320506
_cell_angle_alpha   90.00000000
_cell_angle_beta   90.00000000
_cell_angle_gamma   90.00000000
_symmetry_Int_Tables_number   1
_chemical_formula_structural   KBaEuWO6
_chemical_formula_sum   'K4 Ba4 Eu4 W4 O24'
_cell_volume   621.40408949
_cell_formula_units_Z   4
loop_
 _symmetry_equiv_pos_site_id
 _symmetry_equiv_pos_as_xyz
  1  'x, y, z'
loop_
 _atom_site_type_symbol
 _atom_site_label
 _atom_site_symmetry_multiplicity
 _atom_site_fract_x
 _atom_site_fract_y
 _atom_site_fract_z
 _atom_site_occupancy
  K  K0  1  -0.00000000  0.50000000  0.50000000  1
  K  K1  1  0.50000000  0.00000000  0.50000000  1
  K  K2  1  0.50000000  0.00000000  0.00000000  1
  K  K3  1  -0.00000000  0.50000000  0.00000000  1
  Ba  Ba0  1  0.50000000  0.50000000  0.00000000  1
  Ba  Ba1  1  -0.00000000  0.00000000  0.50000000  1
  Ba  Ba2  1  -0.00000000  0.00000000  0.00000000  1
  Ba  Ba3  1  0.50000000  0.50000000  0.50000000  1
  Eu  Eu0  1  0.75000000  0.75000000  0.75000000  1
  Eu  Eu1  1  0.25000000  0.25000000  0.75000000  1
  Eu  Eu2  1  0.25000000  0.75000000  0.25000000  1
  Eu  Eu3  1  0.75000000  0.25000000  0.25000000  1
  W  W0  1  0.25000000  0.25000000  0.25000000  1
  W  W1  1  0.75000000  0.75000000  0.25000000  1
  W  W2  1  0.75000000  0.25000000  0.75000000  1
  W  W3  1  0.25000000  0.75000000  0.75000000  1
  O  O0  1  0.02151434  0.22350392  0.26751527  1
  O  O1  1  0.97848566  0.77649608  0.26751527  1
  O  O2  1  0.97848566  0.22350392  0.73248473  1
  O  O3  1  0.02151434  0.77649608  0.73248473  1
  O  O4  1  0.26320374  0.02251804  0.22814028  1
  O  O5  1  0.26320374  0.97748196  0.77185972  1
  O  O6  1  0.73679626  0.97748196  0.22814028  1
  O  O7  1  0.73679626  0.02251804  0.77185972  1
  O  O8  1  0.22990474  0.26922442  0.02264230  1
  O  O9  1  0.77009526  0.26922442  0.97735770  1
  O  O10  1  0.22990474  0.73077558  0.97735770  1
  O  O11  1  0.77009526  0.73077558  0.02264230  1
  O  O12  1  0.47848566  0.27649608  0.23248473  1
  O  O13  1  0.52151434  0.72350392  0.23248473  1
  O  O14  1  0.52151434  0.27649608  0.76751527  1
  O  O15  1  0.47848566  0.72350392  0.76751527  1
  O  O16  1  0.23679626  0.47748196  0.27185972  1
  O  O17  1  0.23679626  0.52251804  0.72814028  1
  O  O18  1  0.76320374  0.52251804  0.27185972  1
  O  O19  1  0.76320374  0.47748196  0.72814028  1
  O  O20  1  0.27009526  0.23077558  0.47735770  1
  O  O21  1  0.72990474  0.23077558  0.52264230  1
  O  O22  1  0.27009526  0.76922442  0.52264230  1
  O  O23  1  0.72990474  0.76922442  0.47735770  1
loop_
_geom_bond_atom_site_label_1
_geom_bond_atom_site_label_2
_geom_bond_distance
_geom_bond_site_symmetry_2
K0 O17 2.812389 1_555
K0 O18 2.812389 1_455
K0 O19 2.812389 1_455
K0 O16 2.812389 1_555
K0 O1 3.089600 1_455
K0 O0 3.089600 1_555
K0 O3 3.089600 1_555
K0 O2 3.089600 1_455
K0 O21 3.258176 1_455
K0 O23 3.258176 1_455
K0 O22 3.258176 1_555
K0 O20 3.258176 1_555
K1 O20 2.784924 1_555
K1 O22 2.784924 1_545
K1 O21 2.784924 1_555
K1 O23 2.784924 1_545
K1 O7 3.083017 1_555
K1 O5 3.083017 1_545
K1 O4 3.083017 1_555
K1 O6 3.083017 1_545
K1 O15 3.289985 1_545
K1 O14 3.289985 1_555
K1 O13 3.289985 1_545
K1 O12 3.289985 1_555
K2 O7 2.812389 1_554
K2 O5 2.812389 1_544
K2 O4 2.812389 1_555
K2 O6 2.812389 1_545
K2 O12 3.089600 1_555
K2 O15 3.089600 1_544
K2 O14 3.089600 1_554
K2 O13 3.089600 1_545
K2 O9 3.258176 1_554
K2 O11 3.258176 1_545
K2 O10 3.258176 1_544
K2 O8 3.258176 1_555
K3 O10 2.784924 1_554
K3 O8 2.784924 1_555
K3 O9 2.784924 1_454
K3 O11 2.784924 1_455
K3 O18 3.083017 1_455
K3 O19 3.083017 1_454
K3 O16 3.083017 1_555
K3 O17 3.083017 1_554
K3 O3 3.289985 1_554
K3 O2 3.289985 1_454
K3 O1 3.289985 1_455
K3 O0 3.289985 1_555
Ba0 O13 2.759740 1_555
Ba0 O12 2.759740 1_555
Ba0 O15 2.759740 1_554
Ba0 O14 2.759740 1_554
Ba0 O11 3.035750 1_555
Ba0 O9 3.035750 1_554
Ba0 O10 3.035750 1_554
Ba0 O8 3.035750 1_555
Ba0 O17 3.234854 1_554
Ba0 O19 3.234854 1_554
Ba0 O18 3.234854 1_555
Ba0 O16 3.234854 1_555
Ba1 O1 2.759740 1_445
Ba1 O0 2.759740 1_555
Ba1 O2 2.759740 1_455
Ba1 O3 2.759740 1_545
Ba1 O23 3.035750 1_445
Ba1 O20 3.035750 1_555
Ba1 O22 3.035750 1_545
Ba1 O21 3.035750 1_455
Ba1 O6 3.234854 1_445
Ba1 O4 3.234854 1_555
Ba1 O5 3.234854 1_545
Ba1 O7 3.234854 1_455
Ba2 O4 2.978057 1_555
Ba2 O5 2.978057 1_544
Ba2 O7 2.978057 1_454
Ba2 O6 2.978057 1_445
Ba2 O2 2.982371 1_454
Ba2 O3 2.982371 1_544
Ba2 O1 2.982371 1_445
Ba2 O0 2.982371 1_555
Ba2 O11 3.025845 1_445
Ba2 O10 3.025845 1_544
Ba2 O9 3.025845 1_454
Ba2 O8 3.025845 1_555
Ba3 O18 2.978057 1_555
Ba3 O19 2.978057 1_555
Ba3 O16 2.978057 1_555
Ba3 O17 2.978057 1_555
Ba3 O15 2.982371 1_555
Ba3 O13 2.982371 1_555
Ba3 O14 2.982371 1_555
Ba3 O12 2.982371 1_555
Ba3 O22 3.025845 1_555
Ba3 O20 3.025845 1_555
Ba3 O23 3.025845 1_555
Ba3 O21 3.025845 1_555
Eu0 O3 2.330123 1_655
Eu0 O15 2.330123 1_555
Eu0 O19 2.335733 1_555
Eu0 O7 2.335733 1_565
Eu0 O11 2.341283 1_556
Eu0 O23 2.341283 1_555
Eu1 O2 2.330123 1_455
Eu1 O14 2.330123 1_555
Eu1 O5 2.335733 1_545
Eu1 O17 2.335733 1_555
Eu1 O20 2.341283 1_555
Eu1 O8 2.341283 1_556
Eu2 O13 2.330123 1_555
Eu2 O1 2.330123 1_455
Eu2 O16 2.335733 1_555
Eu2 O4 2.335733 1_565
Eu2 O22 2.341283 1_555
Eu2 O10 2.341283 1_554
Eu3 O0 2.330123 1_655
Eu3 O12 2.330123 1_555
Eu3 O18 2.335733 1_555
Eu3 O6 2.335733 1_545
Eu3 O21 2.341283 1_555
Eu3 O9 2.341283 1_554
O0 W0 1.966316 1_555
O1 W1 1.966316 1_555
O2 W2 1.966316 1_555
O3 W3 1.966316 1_555
O4 W0 1.953425 1_555
O5 W3 1.953425 1_555
O6 W1 1.953425 1_555
O7 W2 1.953425 1_555
O8 W0 1.956790 1_555
O9 W2 1.956790 1_555
O10 W3 1.956790 1_555
O11 W1 1.956790 1_555
O12 W0 1.966316 1_555
O13 W1 1.966316 1_555
O14 W2 1.966316 1_555
O15 W3 1.966316 1_555
O16 W0 1.953425 1_555
O17 W3 1.953425 1_555
O18 W1 1.953425 1_555
O19 W2 1.953425 1_555
O20 W0 1.956790 1_555
O21 W2 1.956790 1_555
O22 W3 1.956790 1_555
O23 W1 1.956790 1_555
