# generated using pymatgen
data_NaUP3O11
_symmetry_space_group_name_H-M   'P 1'
_cell_length_a   13.68943800
_cell_length_b   7.13807500
_cell_length_c   9.95839363
_cell_angle_alpha   74.59862352
_cell_angle_beta   90.00000000
_cell_angle_gamma   90.00000000
_symmetry_Int_Tables_number   1
_chemical_formula_structural   NaUP3O11
_chemical_formula_sum   'Na4 U4 P12 O44'
_cell_volume   938.15188069
_cell_formula_units_Z   4
loop_
 _symmetry_equiv_pos_site_id
 _symmetry_equiv_pos_as_xyz
  1  'x, y, z'
loop_
 _atom_site_type_symbol
 _atom_site_label
 _atom_site_symmetry_multiplicity
 _atom_site_fract_x
 _atom_site_fract_y
 _atom_site_fract_z
 _atom_site_occupancy
  Na  Na0  1  0.47661000  0.75220600  0.07115400  1
  Na  Na1  1  0.97661000  0.24779400  0.42884600  1
  Na  Na2  1  0.52339000  0.24779400  0.92884600  1
  Na  Na3  1  0.02339000  0.75220600  0.57115400  1
  U  U0  1  0.15463200  0.62562700  0.25169100  1
  U  U1  1  0.65463200  0.37437300  0.24830900  1
  U  U2  1  0.84536800  0.37437300  0.74830900  1
  U  U3  1  0.34536800  0.62562700  0.75169100  1
  P  P0  1  0.38689100  0.31257400  0.34323400  1
  P  P1  1  0.88689100  0.68742600  0.15676600  1
  P  P2  1  0.61310900  0.68742600  0.65676600  1
  P  P3  1  0.11310900  0.31257400  0.84323400  1
  P  P4  1  0.33206500  0.02968800  0.18897800  1
  P  P5  1  0.83206500  0.97031200  0.31102200  1
  P  P6  1  0.66793500  0.97031200  0.81102200  1
  P  P7  1  0.16793500  0.02968800  0.68897800  1
  P  P8  1  0.12995800  0.16361100  0.15546700  1
  P  P9  1  0.62995800  0.83638900  0.34453300  1
  P  P10  1  0.87004200  0.83638900  0.84453300  1
  P  P11  1  0.37004200  0.16361100  0.65546700  1
  O  O0  1  0.47728900  0.39615700  0.26361300  1
  O  O1  1  0.97728900  0.60384300  0.23638700  1
  O  O2  1  0.52271100  0.60384300  0.73638700  1
  O  O3  1  0.02271100  0.39615700  0.76361300  1
  O  O4  1  0.29553800  0.43221100  0.31477100  1
  O  O5  1  0.79553800  0.56778900  0.18522900  1
  O  O6  1  0.70446200  0.56778900  0.68522900  1
  O  O7  1  0.20446200  0.43221100  0.81477100  1
  O  O8  1  0.41614300  0.25839100  0.50478200  1
  O  O9  1  0.91614300  0.74160900  0.99521800  1
  O  O10  1  0.58385700  0.74160900  0.49521800  1
  O  O11  1  0.08385700  0.25839100  0.00478200  1
  O  O12  1  0.36266000  0.10048200  0.32453300  1
  O  O13  1  0.86266000  0.89951800  0.17546700  1
  O  O14  1  0.63734000  0.89951800  0.67546700  1
  O  O15  1  0.13734000  0.10048200  0.82453300  1
  O  O16  1  0.41291900  0.05494000  0.08576700  1
  O  O17  1  0.91291900  0.94506000  0.41423300  1
  O  O18  1  0.58708100  0.94506000  0.91423300  1
  O  O19  1  0.08708100  0.05494000  0.58576700  1
  O  O20  1  0.29012200  0.82976500  0.24756800  1
  O  O21  1  0.79012200  0.17023500  0.25243200  1
  O  O22  1  0.70987800  0.17023500  0.75243200  1
  O  O23  1  0.20987800  0.82976500  0.74756800  1
  O  O24  1  0.24494000  0.17853600  0.12056200  1
  O  O25  1  0.74494000  0.82146400  0.37943800  1
  O  O26  1  0.75506000  0.82146400  0.87943800  1
  O  O27  1  0.25506000  0.17853600  0.62056200  1
  O  O28  1  0.10452600  0.29321900  0.24794800  1
  O  O29  1  0.60452600  0.70678100  0.25205200  1
  O  O30  1  0.89547400  0.70678100  0.75205200  1
  O  O31  1  0.39547400  0.29321900  0.74794800  1
  O  O32  1  0.09829400  0.95472800  0.20577300  1
  O  O33  1  0.59829400  0.04527200  0.29422700  1
  O  O34  1  0.90170600  0.04527200  0.79422700  1
  O  O35  1  0.40170600  0.95472800  0.70577300  1
  O  O36  1  0.12658500  0.58679400  0.43602700  1
  O  O37  1  0.62658500  0.41320600  0.06397300  1
  O  O38  1  0.87341500  0.41320600  0.56397300  1
  O  O39  1  0.37341500  0.58679400  0.93602700  1
  O  O40  1  0.17169100  0.66155000  0.06840300  1
  O  O41  1  0.67169100  0.33845000  0.43159700  1
  O  O42  1  0.82830900  0.33845000  0.93159700  1
  O  O43  1  0.32830900  0.66155000  0.56840300  1
loop_
_geom_bond_atom_site_label_1
_geom_bond_atom_site_label_2
_geom_bond_distance
_geom_bond_site_symmetry_2
Na0 O18 2.341239 1_554
Na0 O16 2.370245 1_565
Na0 O39 2.458550 1_554
Na0 O29 2.471125 1_555
Na0 O0 2.746879 1_555
Na1 O19 2.341239 1_655
Na1 O17 2.370245 1_545
Na1 O38 2.458550 1_555
Na1 O28 2.471125 1_655
Na1 O1 2.746879 1_555
Na2 O16 2.341239 1_556
Na2 O18 2.370245 1_545
Na2 O37 2.458550 1_556
Na2 O31 2.471125 1_555
Na2 O2 2.746879 1_555
Na3 O17 2.341239 1_455
Na3 O19 2.370245 1_565
Na3 O36 2.458550 1_555
Na3 O30 2.471125 1_455
Na3 O3 2.746879 1_555
O0 P0 1.504917 1_555
O0 U1 2.440051 1_555
O1 P1 1.504917 1_555
O1 U0 2.440051 1_655
O2 P2 1.504917 1_555
O2 U3 2.440051 1_555
O3 P3 1.504917 1_555
O3 U2 2.440051 1_455
O4 P0 1.498325 1_555
O4 U0 2.358135 1_555
O5 P1 1.498325 1_555
O5 U1 2.358135 1_555
O6 P2 1.498325 1_555
O6 U2 2.358135 1_555
O7 P3 1.498325 1_555
O7 U3 2.358135 1_555
O8 P0 1.602359 1_555
O8 P11 1.602655 1_555
O9 P1 1.602359 1_556
O9 P10 1.602655 1_555
O10 P2 1.602359 1_555
O10 P9 1.602655 1_555
O11 P3 1.602359 1_554
O11 P8 1.602655 1_555
O12 P0 1.608244 1_555
O12 P4 1.617210 1_555
O13 P1 1.608244 1_555
O13 P5 1.617210 1_555
O14 P2 1.608244 1_555
O14 P6 1.617210 1_555
O15 P3 1.608244 1_555
O15 P7 1.617210 1_555
O16 P4 1.488489 1_555
O17 P5 1.488489 1_555
O18 P6 1.488489 1_555
O19 P7 1.488489 1_555
O20 P4 1.504779 1_565
O20 U0 2.352322 1_555
O21 P5 1.504779 1_545
O21 U1 2.352322 1_555
O22 P6 1.504779 1_545
O22 U2 2.352322 1_555
O23 P7 1.504779 1_565
O23 U3 2.352322 1_555
O24 P8 1.609380 1_555
O24 P4 1.622062 1_555
O25 P9 1.609380 1_555
O25 P5 1.622062 1_555
O26 P10 1.609380 1_555
O26 P6 1.622062 1_555
O27 P11 1.609380 1_555
O27 P7 1.622062 1_555
O28 P8 1.509254 1_555
O28 U0 2.479680 1_555
O29 P9 1.509254 1_555
O29 U1 2.479680 1_555
O30 P10 1.509254 1_555
O30 U2 2.479680 1_555
O31 P11 1.509254 1_555
O31 U3 2.479680 1_555
O32 P8 1.505076 1_565
O32 U0 2.398297 1_555
O33 P9 1.505076 1_545
O33 U1 2.398297 1_555
O34 P10 1.505076 1_545
O34 U2 2.398297 1_555
O35 P11 1.505076 1_565
O35 U3 2.398297 1_555
O36 U0 1.823112 1_555
O37 U1 1.823112 1_555
O38 U2 1.823112 1_555
O39 U3 1.823112 1_555
O40 U0 1.789760 1_555
O41 U1 1.789760 1_555
O42 U2 1.789760 1_555
O43 U3 1.789760 1_555
