# generated using pymatgen
data_Zn(BO3)3
_symmetry_space_group_name_H-M   'P 1'
_cell_length_a   7.56589700
_cell_length_b   8.75331600
_cell_length_c   8.88925500
_cell_angle_alpha   90.00000000
_cell_angle_beta   90.00000000
_cell_angle_gamma   90.00000000
_symmetry_Int_Tables_number   1
_chemical_formula_structural   Zn(BO3)3
_chemical_formula_sum   'Zn4 B12 O36'
_cell_volume   588.70591090
_cell_formula_units_Z   4
loop_
 _symmetry_equiv_pos_site_id
 _symmetry_equiv_pos_as_xyz
  1  'x, y, z'
loop_
 _atom_site_type_symbol
 _atom_site_label
 _atom_site_symmetry_multiplicity
 _atom_site_fract_x
 _atom_site_fract_y
 _atom_site_fract_z
 _atom_site_occupancy
  Zn  Zn0  1  0.25000000  0.20871300  0.96524000  1
  Zn  Zn1  1  0.25000000  0.29128700  0.46524000  1
  Zn  Zn2  1  0.75000000  0.79128700  0.03476000  1
  Zn  Zn3  1  0.75000000  0.70871300  0.53476000  1
  B  B0  1  0.42015100  0.08292600  0.25101600  1
  B  B1  1  0.07984900  0.41707400  0.75101600  1
  B  B2  1  0.92015100  0.91707400  0.74898400  1
  B  B3  1  0.57984900  0.58292600  0.24898400  1
  B  B4  1  0.57984900  0.91707400  0.74898400  1
  B  B5  1  0.92015100  0.58292600  0.24898400  1
  B  B6  1  0.07984900  0.08292600  0.25101600  1
  B  B7  1  0.42015100  0.41707400  0.75101600  1
  B  B8  1  0.25000000  0.85097300  0.31522000  1
  B  B9  1  0.25000000  0.64902700  0.81522000  1
  B  B10  1  0.75000000  0.14902700  0.68478000  1
  B  B11  1  0.75000000  0.35097300  0.18478000  1
  O  O0  1  0.45176300  0.17133900  0.38288400  1
  O  O1  1  0.04823700  0.32866100  0.88288400  1
  O  O2  1  0.95176300  0.82866100  0.61711600  1
  O  O3  1  0.54823700  0.67133900  0.11711600  1
  O  O4  1  0.54823700  0.82866100  0.61711600  1
  O  O5  1  0.95176300  0.67133900  0.11711600  1
  O  O6  1  0.04823700  0.17133900  0.38288400  1
  O  O7  1  0.45176300  0.32866100  0.88288400  1
  O  O8  1  0.25000000  0.12725900  0.17109600  1
  O  O9  1  0.25000000  0.37274100  0.67109600  1
  O  O10  1  0.75000000  0.87274100  0.82890400  1
  O  O11  1  0.75000000  0.62725900  0.32890400  1
  O  O12  1  0.54789500  0.10261600  0.12489700  1
  O  O13  1  0.95210500  0.39738400  0.62489700  1
  O  O14  1  0.04789500  0.89738400  0.87510300  1
  O  O15  1  0.45210500  0.60261600  0.37510300  1
  O  O16  1  0.45210500  0.89738400  0.87510300  1
  O  O17  1  0.04789500  0.60261600  0.37510300  1
  O  O18  1  0.95210500  0.10261600  0.12489700  1
  O  O19  1  0.54789500  0.39738400  0.62489700  1
  O  O20  1  0.40971800  0.92228600  0.30094200  1
  O  O21  1  0.09028200  0.57771400  0.80094200  1
  O  O22  1  0.90971800  0.07771400  0.69905800  1
  O  O23  1  0.59028200  0.42228600  0.19905800  1
  O  O24  1  0.59028200  0.07771400  0.69905800  1
  O  O25  1  0.90971800  0.42228600  0.19905800  1
  O  O26  1  0.09028200  0.92228600  0.30094200  1
  O  O27  1  0.40971800  0.57771400  0.80094200  1
  O  O28  1  0.25000000  0.68972700  0.34207400  1
  O  O29  1  0.25000000  0.81027300  0.84207400  1
  O  O30  1  0.75000000  0.31027300  0.65792600  1
  O  O31  1  0.75000000  0.18972700  0.15792600  1
  O  O32  1  0.25000000  0.07611200  0.78653500  1
  O  O33  1  0.25000000  0.42388800  0.28653500  1
  O  O34  1  0.75000000  0.92388800  0.21346500  1
  O  O35  1  0.75000000  0.57611200  0.71346500  1
loop_
_geom_bond_atom_site_label_1
_geom_bond_atom_site_label_2
_geom_bond_distance
_geom_bond_site_symmetry_2
B0 O0 1.424854 1_555
B0 O20 1.476619 1_545
B0 O12 1.490201 1_555
B0 O8 1.520710 1_555
B1 O1 1.424854 1_555
B1 O21 1.476619 1_555
B1 O13 1.490201 1_455
B1 O9 1.520710 1_555
B2 O2 1.424854 1_555
B2 O22 1.476619 1_565
B2 O14 1.490201 1_655
B2 O10 1.520710 1_555
B3 O3 1.424854 1_555
B3 O23 1.476619 1_555
B3 O15 1.490201 1_555
B3 O11 1.520710 1_555
B4 O4 1.424854 1_555
B4 O24 1.476619 1_565
B4 O16 1.490201 1_555
B4 O10 1.520710 1_555
B5 O5 1.424854 1_555
B5 O25 1.476619 1_555
B5 O17 1.490201 1_655
B5 O11 1.520710 1_555
B6 O6 1.424854 1_555
B6 O26 1.476619 1_545
B6 O18 1.490201 1_455
B6 O8 1.520710 1_555
B7 O7 1.424854 1_555
B7 O27 1.476619 1_555
B7 O19 1.490201 1_555
B7 O9 1.520710 1_555
B8 O20 1.366024 1_555
B8 O26 1.366024 1_555
B8 O28 1.431481 1_555
B9 O27 1.366024 1_555
B9 O21 1.366024 1_555
B9 O29 1.431481 1_555
B10 O22 1.366024 1_555
B10 O24 1.366024 1_555
B10 O30 1.431481 1_555
B11 O25 1.366024 1_555
B11 O23 1.366024 1_555
B11 O31 1.431481 1_555
O0 Zn1 1.992130 1_555
O1 Zn0 1.992130 1_555
O2 Zn3 1.992130 1_555
O3 Zn2 1.992130 1_555
O4 Zn3 1.992130 1_555
O5 Zn2 1.992130 1_555
O6 Zn1 1.992130 1_555
O7 Zn0 1.992130 1_555
O8 Zn0 1.963903 1_554
O9 Zn1 1.963903 1_555
O10 Zn2 1.963903 1_556
O11 Zn3 1.963903 1_555
O32 Zn0 1.967416 1_555
O33 Zn1 1.967416 1_555
O34 Zn2 1.967416 1_555
O35 Zn3 1.967416 1_555
