# generated using pymatgen
data_Te2MoWS2
_symmetry_space_group_name_H-M   'P 1'
_cell_length_a   3.36055252
_cell_length_b   3.36055252
_cell_length_c   39.85827000
_cell_angle_alpha   90.00000000
_cell_angle_beta   90.00000000
_cell_angle_gamma   120.00001018
_symmetry_Int_Tables_number   1
_chemical_formula_structural   Te2MoWS2
_chemical_formula_sum   'Te4 Mo2 W2 S4'
_cell_volume   389.82564432
_cell_formula_units_Z   2
loop_
 _symmetry_equiv_pos_site_id
 _symmetry_equiv_pos_as_xyz
  1  'x, y, z'
loop_
 _atom_site_type_symbol
 _atom_site_label
 _atom_site_symmetry_multiplicity
 _atom_site_fract_x
 _atom_site_fract_y
 _atom_site_fract_z
 _atom_site_occupancy
  Te  Te0  1  0.00000000  0.00000000  0.70676900  1
  Te  Te1  1  0.33333300  0.66666700  0.42085900  1
  Te  Te2  1  0.33333300  0.66666700  0.51572000  1
  Te  Te3  1  0.00000000  0.00000000  0.61137300  1
  Mo  Mo0  1  0.00000000  0.00000000  0.46830000  1
  Mo  Mo1  1  0.33333300  0.66666700  0.28164500  1
  W  W0  1  0.00000000  0.00000000  0.09391800  1
  W  W1  1  0.33333300  0.66666700  0.65908700  1
  S  S0  1  0.00000000  0.00000000  0.31960700  1
  S  S1  1  0.33333300  0.66666700  0.05582300  1
  S  S2  1  0.33333300  0.66666700  0.13197800  1
  S  S3  1  0.00000000  0.00000000  0.24367000  1
loop_
_geom_bond_atom_site_label_1
_geom_bond_atom_site_label_2
_geom_bond_distance
_geom_bond_site_symmetry_2
Te0 W1 2.715956 1_545
Te0 W1 2.715957 1_445
Te0 W1 2.715957 1_555
Te3 W1 2.716848 1_545
Te3 W1 2.716850 1_555
Te3 W1 2.716850 1_445
Mo0 Te2 2.708658 1_545
Mo0 Te2 2.708660 1_555
Mo0 Te2 2.708660 1_445
Mo0 Te1 2.709242 1_545
Mo0 Te1 2.709244 1_555
Mo0 Te1 2.709244 1_445
Mo1 S0 2.460468 1_565
Mo1 S0 2.460470 1_665
Mo1 S0 2.460470 1_555
Mo1 S3 2.460786 1_565
Mo1 S3 2.460788 1_665
Mo1 S3 2.460788 1_555
S1 W0 2.463731 1_565
S1 W0 2.463733 1_665
S1 W0 2.463733 1_555
S2 W0 2.462872 1_565
S2 W0 2.462874 1_555
S2 W0 2.462874 1_665
