# generated using pymatgen
data_SrSn3
_symmetry_space_group_name_H-M   'P 1'
_cell_length_a   7.02513853
_cell_length_b   7.02513774
_cell_length_c   5.60248032
_cell_angle_alpha   90.00000000
_cell_angle_beta   90.00000000
_cell_angle_gamma   119.99999878
_symmetry_Int_Tables_number   1
_chemical_formula_structural   SrSn3
_chemical_formula_sum   'Sr2 Sn6'
_cell_volume   239.45323747
_cell_formula_units_Z   2
loop_
 _symmetry_equiv_pos_site_id
 _symmetry_equiv_pos_as_xyz
  1  'x, y, z'
loop_
 _atom_site_type_symbol
 _atom_site_label
 _atom_site_symmetry_multiplicity
 _atom_site_fract_x
 _atom_site_fract_y
 _atom_site_fract_z
 _atom_site_occupancy
  Sr  Sr0  1  0.33333400  0.66666700  0.75000000  1
  Sr  Sr1  1  0.66666700  0.33333400  0.24999900  1
  Sn  Sn0  1  0.14549993  0.29099986  0.24999900  1
  Sn  Sn1  1  0.70900014  0.85450007  0.24999900  1
  Sn  Sn2  1  0.14549993  0.85450007  0.24999900  1
  Sn  Sn3  1  0.85450007  0.70899914  0.75000000  1
  Sn  Sn4  1  0.29099886  0.14550093  0.75000000  1
  Sn  Sn5  1  0.85450107  0.14550093  0.75000000  1
loop_
_geom_bond_atom_site_label_1
_geom_bond_atom_site_label_2
_geom_bond_distance
_geom_bond_site_symmetry_2
Sn0 Sn2 3.066471 1_545
Sn0 Sn1 3.066471 1_445
Sn0 Sn4 3.313803 1_554
Sn0 Sn5 3.313806 1_454
Sn0 Sn4 3.313812 1_555
Sn0 Sn5 3.313815 1_455
Sn0 Sr1 3.521999 1_455
Sn0 Sr1 3.521999 1_555
Sn0 Sr0 3.615329 1_554
Sn0 Sr0 3.615338 1_555
Sn1 Sn2 3.066471 1_655
Sn1 Sn5 3.313812 1_564
Sn1 Sn3 3.313812 1_554
Sn1 Sn5 3.313822 1_565
Sn1 Sn3 3.313822 1_555
Sn1 Sr1 3.521995 1_555
Sn1 Sr1 3.522002 1_565
Sn1 Sr0 3.615325 1_554
Sn1 Sr0 3.615334 1_555
Sn2 Sn3 3.313809 1_454
Sn2 Sn4 3.313812 1_564
Sn2 Sn3 3.313819 1_455
Sn2 Sn4 3.313822 1_565
Sn2 Sr1 3.521995 1_455
Sn2 Sr1 3.522002 1_565
Sn2 Sr0 3.615329 1_554
Sn2 Sr0 3.615338 1_555
Sn3 Sn4 3.066475 1_665
Sn3 Sn5 3.066482 1_565
Sn3 Sr0 3.521998 1_655
Sn3 Sr0 3.521998 1_555
Sn3 Sr1 3.615321 1_556
Sn3 Sr1 3.615330 1_555
Sn4 Sn5 3.066457 1_455
Sn4 Sr0 3.521989 1_555
Sn4 Sr0 3.522010 1_545
Sn4 Sr1 3.615333 1_556
Sn4 Sr1 3.615342 1_555
Sn5 Sr0 3.521995 1_655
Sn5 Sr0 3.522002 1_545
Sn5 Sr1 3.615329 1_556
Sn5 Sr1 3.615338 1_555
