# generated using pymatgen
data_CeGaPt4
_symmetry_space_group_name_H-M   'P 1'
_cell_length_a   5.50539258
_cell_length_b   5.50539258
_cell_length_c   4.27748900
_cell_angle_alpha   90.00000000
_cell_angle_beta   90.00000000
_cell_angle_gamma   120.00000697
_symmetry_Int_Tables_number   1
_chemical_formula_structural   CeGaPt4
_chemical_formula_sum   'Ce1 Ga1 Pt4'
_cell_volume   112.27836738
_cell_formula_units_Z   1
loop_
 _symmetry_equiv_pos_site_id
 _symmetry_equiv_pos_as_xyz
  1  'x, y, z'
loop_
 _atom_site_type_symbol
 _atom_site_label
 _atom_site_symmetry_multiplicity
 _atom_site_fract_x
 _atom_site_fract_y
 _atom_site_fract_z
 _atom_site_occupancy
  Ce  Ce0  1  0.66666700  0.33333300  0.00000000  1
  Ga  Ga0  1  0.00000000  0.00000000  0.00000000  1
  Pt  Pt0  1  0.33333300  0.66666700  0.00000000  1
  Pt  Pt1  1  0.66872700  0.83436300  0.50000000  1
  Pt  Pt2  1  0.16563700  0.83436300  0.50000000  1
  Pt  Pt3  1  0.16563700  0.33127300  0.50000000  1
loop_
_geom_bond_atom_site_label_1
_geom_bond_atom_site_label_2
_geom_bond_distance
_geom_bond_site_symmetry_2
Ce0 Pt0 3.178536 1_545
Ce0 Pt0 3.178536 1_655
Ce0 Ga0 3.178537 1_655
Ce0 Ga0 3.178541 1_555
Ce0 Ga0 3.178541 1_665
Ce0 Pt0 3.178546 1_555
Ce0 Pt2 3.485923 1_654
Ce0 Pt2 3.485923 1_545
Ce0 Pt2 3.485923 1_544
Ce0 Pt2 3.485923 1_655
Ce0 Pt3 3.485923 1_554
Ce0 Pt3 3.485923 1_555
Ce0 Pt1 3.485923 1_554
Ce0 Pt1 3.485923 1_555
Ce0 Pt1 3.485923 1_544
Ce0 Pt1 3.485923 1_545
Ce0 Pt3 3.485923 1_655
Ce0 Pt3 3.485923 1_654
Ga0 Pt3 2.658736 1_554
Ga0 Pt1 2.658736 1_444
Ga0 Pt1 2.658736 1_445
Ga0 Pt3 2.658736 1_555
Ga0 Pt2 2.658739 1_544
Ga0 Pt2 2.658739 1_545
Ga0 Pt0 3.178537 1_545
Ga0 Pt0 3.178541 1_555
Ga0 Pt0 3.178541 1_445
Pt0 Pt2 2.670450 1_555
Pt0 Pt2 2.670450 1_554
Pt0 Pt1 2.670455 1_554
Pt0 Pt1 2.670455 1_555
Pt0 Pt3 2.670455 1_554
Pt0 Pt3 2.670455 1_555
Pt1 Pt3 2.735684 1_665
Pt1 Pt2 2.735685 1_655
Pt1 Pt3 2.769708 1_555
Pt1 Pt2 2.769708 1_555
Pt2 Pt3 2.735685 1_565
Pt2 Pt3 2.769708 1_555
