# generated using pymatgen
data_CoO2
_symmetry_space_group_name_H-M   'P 1'
_cell_length_a   5.67314639
_cell_length_b   5.67314639
_cell_length_c   13.92454700
_cell_angle_alpha   90.00000000
_cell_angle_beta   90.00000000
_cell_angle_gamma   120.00000449
_symmetry_Int_Tables_number   1
_chemical_formula_structural   CoO2
_chemical_formula_sum   'Co12 O24'
_cell_volume   388.11432025
_cell_formula_units_Z   12
loop_
 _symmetry_equiv_pos_site_id
 _symmetry_equiv_pos_as_xyz
  1  'x, y, z'
loop_
 _atom_site_type_symbol
 _atom_site_label
 _atom_site_symmetry_multiplicity
 _atom_site_fract_x
 _atom_site_fract_y
 _atom_site_fract_z
 _atom_site_occupancy
  Co  Co0  1  0.82815300  0.65630600  0.16754400  1
  Co  Co1  1  0.66674000  0.83337000  0.49941600  1
  Co  Co2  1  0.00000000  0.00000000  0.33193500  1
  Co  Co3  1  0.82815300  0.17184700  0.16754400  1
  Co  Co4  1  0.16663000  0.33326000  0.49941600  1
  Co  Co5  1  0.34369400  0.17184700  0.16754400  1
  Co  Co6  1  0.33333300  0.66666700  0.66425200  1
  Co  Co7  1  0.16663000  0.83337000  0.49941600  1
  Co  Co8  1  0.49801200  0.99602400  0.83218800  1
  Co  Co9  1  0.49801200  0.50198800  0.83218800  1
  Co  Co10  1  0.00397600  0.50198800  0.83218800  1
  Co  Co11  1  0.00000000  0.00000000  0.95660200  1
  O  O0  1  0.51155700  0.02311400  0.10289600  1
  O  O1  1  0.51155700  0.48844300  0.10289600  1
  O  O2  1  0.66666700  0.33333300  0.23847300  1
  O  O3  1  0.97688600  0.48844300  0.10289600  1
  O  O4  1  0.85261500  0.70523000  0.42151100  1
  O  O5  1  0.71174400  0.85587200  0.24599600  1
  O  O6  1  0.00000000  0.00000000  0.09202800  1
  O  O7  1  0.14412800  0.85587200  0.24599600  1
  O  O8  1  0.85261500  0.14738500  0.42151100  1
  O  O9  1  0.00000000  0.00000000  0.56940100  1
  O  O10  1  0.29477000  0.14738500  0.42151100  1
  O  O11  1  0.14412800  0.28825600  0.24599600  1
  O  O12  1  0.18489400  0.36978800  0.75355400  1
  O  O13  1  0.03793700  0.51896900  0.57908600  1
  O  O14  1  0.33333300  0.66666700  0.42950400  1
  O  O15  1  0.48103100  0.51896900  0.57908600  1
  O  O16  1  0.33333300  0.66666700  0.90079800  1
  O  O17  1  0.18489400  0.81510600  0.75355400  1
  O  O18  1  0.63021200  0.81510600  0.75355400  1
  O  O19  1  0.48103100  0.96206300  0.57908600  1
  O  O20  1  0.34451300  0.17225600  0.90101200  1
  O  O21  1  0.82774400  0.17225600  0.90101200  1
  O  O22  1  0.66666700  0.33333300  0.76361300  1
  O  O23  1  0.82774400  0.65548700  0.90101200  1
loop_
_geom_bond_atom_site_label_1
_geom_bond_atom_site_label_2
_geom_bond_distance
_geom_bond_site_symmetry_2
Co0 O1 1.797989 1_555
Co0 O3 1.797989 1_555
Co0 O2 1.869058 1_555
Co0 O7 1.912847 1_655
Co0 O5 1.912847 1_555
Co0 O6 1.989240 1_665
Co1 O8 1.893086 1_565
Co1 O4 1.893086 1_555
Co1 O9 1.905397 1_665
Co1 O14 1.905498 1_555
Co1 O15 1.908636 1_555
Co1 O19 1.908640 1_555
Co2 O5 1.854103 1_445
Co2 O11 1.854103 1_555
Co2 O7 1.854103 1_545
Co2 O4 1.911320 1_445
Co2 O10 1.911320 1_555
Co2 O8 1.911320 1_455
Co3 O3 1.797989 1_555
Co3 O0 1.797989 1_555
Co3 O2 1.869054 1_555
Co3 O11 1.912847 1_655
Co3 O5 1.912847 1_545
Co3 O6 1.989240 1_655
Co4 O8 1.893086 1_455
Co4 O10 1.893086 1_555
Co4 O9 1.905397 1_555
Co4 O14 1.905498 1_555
Co4 O15 1.908636 1_555
Co4 O13 1.908640 1_555
Co5 O1 1.797989 1_555
Co5 O0 1.797989 1_555
Co5 O2 1.869058 1_555
Co5 O7 1.912847 1_545
Co5 O11 1.912847 1_555
Co5 O6 1.989240 1_555
Co6 O19 1.874205 1_555
Co6 O13 1.874205 1_555
Co6 O15 1.874205 1_555
Co6 O17 1.916702 1_555
Co6 O18 1.916706 1_555
Co6 O12 1.916706 1_555
Co7 O10 1.893086 1_565
Co7 O4 1.893086 1_455
Co7 O9 1.905397 1_565
Co7 O14 1.905494 1_555
Co7 O19 1.908636 1_555
Co7 O13 1.908636 1_555
Co8 O16 1.879138 1_555
Co8 O20 1.883341 1_565
Co8 O21 1.883345 1_565
Co8 O17 1.893304 1_555
Co8 O18 1.893304 1_555
Co8 O22 1.912641 1_565
Co9 O16 1.879143 1_555
Co9 O20 1.883345 1_555
Co9 O23 1.883345 1_555
Co9 O12 1.893304 1_555
Co9 O18 1.893304 1_555
Co9 O22 1.912645 1_555
Co10 O16 1.879138 1_555
Co10 O23 1.883341 1_455
Co10 O21 1.883345 1_455
Co10 O17 1.893304 1_555
Co10 O12 1.893304 1_555
Co10 O22 1.912641 1_455
Co11 O21 1.861218 1_455
Co11 O23 1.861223 1_445
Co11 O20 1.861223 1_555
Co11 O6 1.885746 1_556
