# generated using pymatgen
data_Tb2Hf3Si4
_symmetry_space_group_name_H-M   'P 1'
_cell_length_a   7.26826553
_cell_length_b   7.26826553
_cell_length_c   13.34146172
_cell_angle_alpha   90.00000000
_cell_angle_beta   90.00000000
_cell_angle_gamma   90.00000000
_symmetry_Int_Tables_number   1
_chemical_formula_structural   Tb2Hf3Si4
_chemical_formula_sum   'Tb8 Hf12 Si16'
_cell_volume   704.79852137
_cell_formula_units_Z   4
loop_
 _symmetry_equiv_pos_site_id
 _symmetry_equiv_pos_as_xyz
  1  'x, y, z'
loop_
 _atom_site_type_symbol
 _atom_site_label
 _atom_site_symmetry_multiplicity
 _atom_site_fract_x
 _atom_site_fract_y
 _atom_site_fract_z
 _atom_site_occupancy
  Tb  Tb0  1  0.99493846  0.34345068  0.21465694  1
  Tb  Tb1  1  0.00506154  0.65654932  0.71465694  1
  Tb  Tb2  1  0.15654932  0.49493846  0.46465694  1
  Tb  Tb3  1  0.50506154  0.84345068  0.03534306  1
  Tb  Tb4  1  0.84345068  0.50506154  0.96465694  1
  Tb  Tb5  1  0.49493846  0.15654932  0.53534306  1
  Tb  Tb6  1  0.34345068  0.99493846  0.78534306  1
  Tb  Tb7  1  0.65654932  0.00506154  0.28534306  1
  Hf  Hf0  1  0.17500894  0.17500894  -0.00000000  1
  Hf  Hf1  1  0.82499106  0.82499106  0.50000000  1
  Hf  Hf2  1  0.32499106  0.67500894  0.25000000  1
  Hf  Hf3  1  0.67500894  0.32499106  0.75000000  1
  Hf  Hf4  1  0.14768113  0.99589699  0.37348834  1
  Hf  Hf5  1  0.85231887  0.00410301  0.87348834  1
  Hf  Hf6  1  0.50410301  0.64768113  0.62348834  1
  Hf  Hf7  1  0.35231887  0.49589699  0.87651166  1
  Hf  Hf8  1  0.49589699  0.35231887  0.12348834  1
  Hf  Hf9  1  0.64768113  0.50410301  0.37651166  1
  Hf  Hf10  1  0.99589699  0.14768113  0.62651166  1
  Hf  Hf11  1  0.00410301  0.85231887  0.12651166  1
  Si  Si0  1  0.36101310  0.29630209  0.31605347  1
  Si  Si1  1  0.63898690  0.70369791  0.81605347  1
  Si  Si2  1  0.20369791  0.86101310  0.56605347  1
  Si  Si3  1  0.13898690  0.79630209  0.93394653  1
  Si  Si4  1  0.79630209  0.13898690  0.06605347  1
  Si  Si5  1  0.86101310  0.20369791  0.43394653  1
  Si  Si6  1  0.29630209  0.36101310  0.68394653  1
  Si  Si7  1  0.70369791  0.63898690  0.18394653  1
  Si  Si8  1  0.29592402  0.04933421  0.18572739  1
  Si  Si9  1  0.70407598  0.95066579  0.68572739  1
  Si  Si10  1  0.45066579  0.79592402  0.43572739  1
  Si  Si11  1  0.20407598  0.54933421  0.06427261  1
  Si  Si12  1  0.54933421  0.20407598  0.93572739  1
  Si  Si13  1  0.79592402  0.45066579  0.56427261  1
  Si  Si14  1  0.04933421  0.29592402  0.81427261  1
  Si  Si15  1  0.95066579  0.70407598  0.31427261  1
loop_
_geom_bond_atom_site_label_1
_geom_bond_atom_site_label_2
_geom_bond_distance
_geom_bond_site_symmetry_2
Hf0 Si14 2.783271 1_554
Hf0 Si8 2.783271 1_555
Hf0 Si12 2.860438 1_554
Hf0 Si11 2.860438 1_555
Hf0 Si3 2.902006 1_544
Hf0 Si4 2.902006 1_455
Hf1 Si15 2.783271 1_555
Hf1 Si9 2.783271 1_555
Hf1 Si13 2.860438 1_555
Hf1 Si10 2.860438 1_555
Hf1 Si2 2.902006 1_655
Hf1 Si5 2.902006 1_565
Hf2 Si10 2.783271 1_555
Hf2 Si11 2.783271 1_555
Hf2 Si15 2.860438 1_455
Hf2 Si8 2.860438 1_565
Hf2 Si0 2.902006 1_555
Hf2 Si7 2.902006 1_555
Hf3 Si13 2.783271 1_555
Hf3 Si12 2.783271 1_555
Hf3 Si9 2.860438 1_545
Hf3 Si14 2.860438 1_655
Hf3 Si6 2.902006 1_555
Hf3 Si1 2.902006 1_555
Hf4 Si15 2.678325 1_455
Hf4 Si5 2.696863 1_465
Hf4 Si8 2.754422 1_565
Hf4 Si10 2.766152 1_555
Hf4 Si2 2.779779 1_555
Hf4 Si0 2.785448 1_565
Hf5 Si14 2.678325 1_655
Hf5 Si3 2.696863 1_645
Hf5 Si9 2.754422 1_545
Hf5 Si12 2.766152 1_555
Hf5 Si4 2.779779 1_556
Hf5 Si1 2.785448 1_545
Hf6 Si13 2.678325 1_555
Hf6 Si6 2.696863 1_555
Hf6 Si10 2.754422 1_555
Hf6 Si9 2.766152 1_555
Hf6 Si1 2.779779 1_555
Hf6 Si2 2.785448 1_555
Hf7 Si12 2.678325 1_555
Hf7 Si1 2.696863 1_555
Hf7 Si11 2.754422 1_556
Hf7 Si14 2.766152 1_555
Hf7 Si6 2.779779 1_555
Hf7 Si3 2.785448 1_555
Hf8 Si11 2.678325 1_555
Hf8 Si7 2.696863 1_555
Hf8 Si12 2.754422 1_554
Hf8 Si8 2.766152 1_555
Hf8 Si0 2.779779 1_555
Hf8 Si4 2.785448 1_555
Hf9 Si10 2.678325 1_555
Hf9 Si0 2.696863 1_555
Hf9 Si13 2.754422 1_555
Hf9 Si15 2.766152 1_555
Hf9 Si7 2.779779 1_555
Hf9 Si5 2.785448 1_555
Hf10 Si9 2.678325 1_545
Hf10 Si2 2.696863 1_645
Hf10 Si14 2.754422 1_655
Hf10 Si13 2.766152 1_555
Hf10 Si5 2.779779 1_555
Hf10 Si6 2.785448 1_655
Hf11 Si8 2.678325 1_565
Hf11 Si4 2.696863 1_465
Hf11 Si15 2.754422 1_455
Hf11 Si11 2.766152 1_555
Hf11 Si3 2.779779 1_554
Hf11 Si7 2.785448 1_455
Si0 Si8 2.543453 1_555
Si0 Tb2 2.867669 1_555
Si0 Tb0 3.004483 1_455
Si0 Tb7 3.043490 1_555
Si0 Tb5 3.246333 1_555
Si1 Si9 2.543453 1_555
Si1 Tb4 2.867669 1_555
Si1 Tb1 3.004483 1_655
Si1 Tb6 3.043490 1_555
Si1 Tb3 3.246333 1_556
Si2 Tb1 2.867669 1_555
Si2 Tb2 3.004483 1_555
Si2 Tb5 3.043490 1_565
Si2 Tb6 3.246333 1_555
Si3 Tb6 2.867669 1_555
Si3 Tb3 3.004483 1_556
Si3 Tb4 3.043490 1_455
Si3 Tb1 3.246333 1_555
Si4 Tb0 2.867669 1_555
Si4 Tb4 3.004483 1_554
Si4 Tb3 3.043490 1_545
Si4 Tb7 3.246333 1_555
Si5 Tb7 2.867669 1_555
Si5 Tb5 3.004483 1_555
Si5 Tb2 3.043490 1_655
Si5 Tb0 3.246333 1_555
Si6 Tb5 2.867669 1_555
Si6 Tb6 3.004483 1_545
Si6 Tb1 3.043490 1_555
Si6 Tb2 3.246333 1_555
Si7 Tb3 2.867669 1_555
Si7 Tb7 3.004483 1_565
Si7 Tb0 3.043490 1_555
Si7 Tb4 3.246333 1_554
Si8 Tb3 2.928360 1_545
Si8 Tb7 2.956368 1_555
Si8 Tb0 3.082950 1_455
Si9 Tb5 2.928360 1_565
Si9 Tb6 2.956368 1_555
Si9 Tb1 3.082950 1_655
Si10 Si2 2.543453 1_555
Si10 Tb7 2.928360 1_565
Si10 Tb5 2.956368 1_565
Si10 Tb2 3.082950 1_555
Si11 Si3 2.543453 1_554
Si11 Tb0 2.928360 1_455
Si11 Tb4 2.956368 1_454
Si11 Tb3 3.082950 1_555
Si12 Si4 2.543453 1_556
Si12 Tb6 2.928360 1_545
Si12 Tb3 2.956368 1_546
Si12 Tb4 3.082950 1_555
Si13 Si5 2.543453 1_555
Si13 Tb1 2.928360 1_655
Si13 Tb2 2.956368 1_655
Si13 Tb5 3.082950 1_555
Si14 Si6 2.543453 1_555
Si14 Tb4 2.928360 1_455
Si14 Tb1 2.956368 1_555
Si14 Tb6 3.082950 1_545
Si15 Si7 2.543453 1_555
Si15 Tb2 2.928360 1_655
Si15 Tb0 2.956368 1_555
Si15 Tb7 3.082950 1_565
