# generated using pymatgen
data_U2Si3Pt
_symmetry_space_group_name_H-M   'P 1'
_cell_length_a   4.00476478
_cell_length_b   4.15251475
_cell_length_c   7.05572303
_cell_angle_alpha   90.00163131
_cell_angle_beta   90.00042901
_cell_angle_gamma   89.94175004
_symmetry_Int_Tables_number   1
_chemical_formula_structural   U2Si3Pt
_chemical_formula_sum   'U2 Si3 Pt1'
_cell_volume   117.33551816
_cell_formula_units_Z   1
loop_
 _symmetry_equiv_pos_site_id
 _symmetry_equiv_pos_as_xyz
  1  'x, y, z'
loop_
 _atom_site_type_symbol
 _atom_site_label
 _atom_site_symmetry_multiplicity
 _atom_site_fract_x
 _atom_site_fract_y
 _atom_site_fract_z
 _atom_site_occupancy
  U  U0  1  0.99999802  0.99996170  0.99219231  1
  U  U1  1  -0.00000003  0.49995904  0.50859332  1
  Si  Si0  1  0.49999825  0.49995324  0.83379422  1
  Si  Si1  1  0.50000322  0.49999146  0.16408098  1
  Si  Si2  1  0.49999418  0.99994546  0.66991971  1
  Pt  Pt0  1  0.50000637  -0.00000990  0.33142047  1
loop_
_geom_bond_atom_site_label_1
_geom_bond_atom_site_label_2
_geom_bond_distance
_geom_bond_site_symmetry_2
Si0 Si1 2.330412 1_556
Si0 Si2 2.376502 1_545
Si0 Si2 2.376503 1_555
Si0 U1 3.045373 1_555
Si0 U1 3.045404 1_655
Si0 U0 3.092076 1_545
Si0 U0 3.092093 1_455
Si0 U0 3.094813 1_555
Si0 U0 3.094821 1_445
Si1 U0 3.127696 1_454
Si1 U0 3.127800 1_544
Si1 U0 3.130383 1_554
Si1 U0 3.130516 1_444
Si1 U1 3.149305 1_655
Si1 U1 3.149344 1_555
Si2 U0 3.029851 1_555
Si2 U0 3.029853 1_455
Si2 U1 3.099573 1_655
Si2 U1 3.099651 1_565
Si2 U1 3.102258 1_555
Si2 U1 3.102418 1_665
Pt0 Si2 2.388357 1_545
Pt0 Si1 2.388459 1_545
Pt0 Si1 2.388527 1_555
Pt0 U0 3.120627 1_544
Pt0 U0 3.120647 1_444
Pt0 U1 3.142306 1_555
Pt0 U1 3.142479 1_645
Pt0 U1 3.144951 1_655
Pt0 U1 3.145213 1_545
