# generated using pymatgen
data_KCOF3
_symmetry_space_group_name_H-M   'P 1'
_cell_length_a   7.39592800
_cell_length_b   5.60197500
_cell_length_c   8.67093014
_cell_angle_alpha   89.85929996
_cell_angle_beta   90.00000000
_cell_angle_gamma   90.00000000
_symmetry_Int_Tables_number   1
_chemical_formula_structural   KCOF3
_chemical_formula_sum   'K4 C4 O4 F12'
_cell_volume   359.25119293
_cell_formula_units_Z   4
loop_
 _symmetry_equiv_pos_site_id
 _symmetry_equiv_pos_as_xyz
  1  'x, y, z'
loop_
 _atom_site_type_symbol
 _atom_site_label
 _atom_site_symmetry_multiplicity
 _atom_site_fract_x
 _atom_site_fract_y
 _atom_site_fract_z
 _atom_site_occupancy
  K  K0  1  0.65786100  0.25441200  0.17901400  1
  K  K1  1  0.34213900  0.74558800  0.82098600  1
  K  K2  1  0.15786100  0.74558800  0.32098600  1
  K  K3  1  0.84213900  0.25441200  0.67901400  1
  C  C0  1  0.20290800  0.27331700  0.06653100  1
  C  C1  1  0.79709200  0.72668300  0.93346900  1
  C  C2  1  0.70290800  0.72668300  0.43346900  1
  C  C3  1  0.29709200  0.27331700  0.56653100  1
  O  O0  1  0.29907900  0.45036500  0.08213900  1
  O  O1  1  0.70092100  0.54963500  0.91786100  1
  O  O2  1  0.79907900  0.54963500  0.41786100  1
  O  O3  1  0.20092100  0.45036500  0.58213900  1
  F  F0  1  0.05843100  0.24230200  0.17550600  1
  F  F1  1  0.94156900  0.75769800  0.82449400  1
  F  F2  1  0.55843100  0.75769800  0.32449400  1
  F  F3  1  0.44156900  0.24230200  0.67550600  1
  F  F4  1  0.29629100  0.04127400  0.08200600  1
  F  F5  1  0.70370900  0.95872600  0.91799400  1
  F  F6  1  0.79629100  0.95872600  0.41799400  1
  F  F7  1  0.20370900  0.04127400  0.58200600  1
  F  F8  1  0.38667400  0.24179800  0.42276800  1
  F  F9  1  0.61332600  0.75820200  0.57723200  1
  F  F10  1  0.88667400  0.75820200  0.07723200  1
  F  F11  1  0.11332600  0.24179800  0.92276800  1
loop_
_geom_bond_atom_site_label_1
_geom_bond_atom_site_label_2
_geom_bond_distance
_geom_bond_site_symmetry_2
K0 O1 2.818843 1_554
K0 O2 2.851663 1_555
K0 O0 2.991197 1_555
K1 O0 2.818843 1_556
K1 O3 2.851663 1_555
K1 O1 2.991197 1_555
K2 O3 2.818843 1_555
K2 O0 2.851663 1_555
K2 O2 2.991197 1_455
K3 O2 2.818843 1_555
K3 O1 2.851663 1_555
K3 O3 2.991197 1_655
C0 O0 1.228246 1_555
C0 F11 1.423070 1_554
C0 F0 1.436672 1_555
C0 F4 1.477799 1_555
C1 O1 1.228246 1_555
C1 F10 1.423070 1_556
C1 F1 1.436672 1_555
C1 F5 1.477799 1_555
C2 O2 1.228246 1_555
C2 F9 1.423070 1_555
C2 F2 1.436672 1_555
C2 F6 1.477799 1_555
C3 O3 1.228246 1_555
C3 F8 1.423070 1_555
C3 F3 1.436672 1_555
C3 F7 1.477799 1_555
F0 K0 2.963521 1_455
F0 K2 3.139671 1_545
F0 K2 3.177812 1_555
F1 K1 2.963521 1_655
F1 K3 3.139671 1_565
F1 K3 3.177812 1_555
F2 K2 2.963521 1_555
F2 K0 3.139671 1_565
F2 K0 3.177812 1_555
F3 K3 2.963521 1_555
F3 K1 3.139671 1_545
F3 K1 3.177812 1_555
F4 K1 2.828357 1_544
F4 K2 2.840602 1_545
F4 K0 3.047809 1_555
F5 K0 2.828357 1_566
F5 K3 2.840602 1_565
F5 K1 3.047809 1_555
F6 K3 2.828357 1_565
F6 K0 2.840602 1_565
F6 K2 3.047809 1_655
F7 K2 2.828357 1_545
F7 K1 2.840602 1_545
F7 K3 3.047809 1_455
F8 K0 2.914482 1_555
F9 K1 2.914482 1_555
F10 K2 2.914482 1_655
F11 K3 2.914482 1_455
