# generated using pymatgen
data_MgFe(SiO3)2
_symmetry_space_group_name_H-M   'P 1'
_cell_length_a   5.15358185
_cell_length_b   8.81942341
_cell_length_c   18.51193093
_cell_angle_alpha   90.00000000
_cell_angle_beta   90.00000000
_cell_angle_gamma   90.00000000
_symmetry_Int_Tables_number   1
_chemical_formula_structural   MgFe(SiO3)2
_chemical_formula_sum   'Mg8 Fe8 Si16 O48'
_cell_volume   841.39725775
_cell_formula_units_Z   8
loop_
 _symmetry_equiv_pos_site_id
 _symmetry_equiv_pos_as_xyz
  1  'x, y, z'
loop_
 _atom_site_type_symbol
 _atom_site_label
 _atom_site_symmetry_multiplicity
 _atom_site_fract_x
 _atom_site_fract_y
 _atom_site_fract_z
 _atom_site_occupancy
  Mg  Mg0  1  0.84935113  0.51429859  0.12227416  1
  Mg  Mg1  1  0.15064887  0.98570141  0.62227416  1
  Mg  Mg2  1  0.65064887  0.01429859  0.87772584  1
  Mg  Mg3  1  0.34935113  0.48570141  0.37772584  1
  Mg  Mg4  1  0.15064887  0.48570141  0.87772584  1
  Mg  Mg5  1  0.84935113  0.01429859  0.37772584  1
  Mg  Mg6  1  0.34935113  0.98570141  0.12227416  1
  Mg  Mg7  1  0.65064887  0.51429859  0.62227416  1
  Fe  Fe0  1  0.35340370  0.33935697  0.12398535  1
  Fe  Fe1  1  0.64659530  0.16064303  0.62398535  1
  Fe  Fe2  1  0.14659530  0.83935697  0.87601465  1
  Fe  Fe3  1  0.85340470  0.66064303  0.37601465  1
  Fe  Fe4  1  0.64659530  0.66064303  0.87601465  1
  Fe  Fe5  1  0.35340370  0.83935697  0.37601465  1
  Fe  Fe6  1  0.85340470  0.16064303  0.12398535  1
  Fe  Fe7  1  0.14659530  0.33935697  0.62398535  1
  Si  Si0  1  0.29542517  0.66294771  0.02695436  1
  Si  Si1  1  0.70457483  0.83705229  0.52695436  1
  Si  Si2  1  0.20457483  0.16294771  0.97304564  1
  Si  Si3  1  0.79542517  0.33705229  0.47304564  1
  Si  Si4  1  0.70457483  0.33705229  0.97304564  1
  Si  Si5  1  0.29542517  0.16294771  0.47304564  1
  Si  Si6  1  0.79542517  0.83705229  0.02695436  1
  Si  Si7  1  0.20457483  0.66294771  0.52695436  1
  Si  Si8  1  0.53563908  0.65630956  0.22694298  1
  Si  Si9  1  0.46436092  0.84369044  0.72694298  1
  Si  Si10  1  0.96436092  0.15630956  0.77305702  1
  Si  Si11  1  0.03563908  0.34369044  0.27305702  1
  Si  Si12  1  0.46436092  0.34369044  0.77305702  1
  Si  Si13  1  0.53563908  0.15630956  0.27305702  1
  Si  Si14  1  0.03563908  0.84369044  0.22694298  1
  Si  Si15  1  0.96436092  0.65630956  0.72694298  1
  O  O0  1  0.29300890  0.65905456  0.93941911  1
  O  O1  1  0.70699110  0.84094544  0.43941911  1
  O  O2  1  0.20699110  0.15905456  0.06058089  1
  O  O3  1  0.79300890  0.34094544  0.56058089  1
  O  O4  1  0.70699110  0.34094544  0.06058089  1
  O  O5  1  0.29300890  0.15905456  0.56058089  1
  O  O6  1  0.79300890  0.84094544  0.93941911  1
  O  O7  1  0.20699110  0.65905456  0.43941911  1
  O  O8  1  0.52802433  0.49811260  0.18548440  1
  O  O9  1  0.47197567  0.00188740  0.68548440  1
  O  O10  1  0.97197567  0.99811260  0.81451560  1
  O  O11  1  0.02802433  0.50188740  0.31451560  1
  O  O12  1  0.47197567  0.50188740  0.81451560  1
  O  O13  1  0.52802433  0.99811260  0.31451560  1
  O  O14  1  0.02802433  0.00188740  0.18548440  1
  O  O15  1  0.97197567  0.49811260  0.68548440  1
  O  O16  1  0.10369748  0.80788668  0.05215321  1
  O  O17  1  0.89630252  0.69211332  0.55215321  1
  O  O18  1  0.39630252  0.30788668  0.94784679  1
  O  O19  1  0.60369748  0.19211332  0.44784679  1
  O  O20  1  0.89630252  0.19211332  0.94784679  1
  O  O21  1  0.10369748  0.30788668  0.44784679  1
  O  O22  1  0.60369748  0.69211332  0.05215321  1
  O  O23  1  0.39630252  0.80788668  0.55215321  1
  O  O24  1  0.51473101  0.64877843  0.31351297  1
  O  O25  1  0.48526899  0.85122157  0.81351297  1
  O  O26  1  0.98526899  0.14877843  0.68648703  1
  O  O27  1  0.01473101  0.35122157  0.18648703  1
  O  O28  1  0.48526899  0.35122157  0.68648703  1
  O  O29  1  0.51473101  0.14877843  0.18648703  1
  O  O30  1  0.01473101  0.85122157  0.31351297  1
  O  O31  1  0.98526899  0.64877843  0.81351297  1
  O  O32  1  0.17871539  0.51999638  0.06750571  1
  O  O33  1  0.82128461  0.98000362  0.56750571  1
  O  O34  1  0.32128461  0.01999638  0.93249429  1
  O  O35  1  0.67871539  0.48000362  0.43249429  1
  O  O36  1  0.82128461  0.48000362  0.93249429  1
  O  O37  1  0.17871539  0.01999638  0.43249429  1
  O  O38  1  0.67871539  0.98000362  0.06750571  1
  O  O39  1  0.32128461  0.51999638  0.56750571  1
  O  O40  1  0.32056310  0.77966986  0.19729506  1
  O  O41  1  0.67943690  0.72033014  0.69729506  1
  O  O42  1  0.17943690  0.27966986  0.80270494  1
  O  O43  1  0.82056310  0.22033014  0.30270494  1
  O  O44  1  0.67943690  0.22033014  0.80270494  1
  O  O45  1  0.32056310  0.27966986  0.30270494  1
  O  O46  1  0.82056310  0.72033014  0.19729506  1
  O  O47  1  0.17943690  0.77966986  0.69729506  1
loop_
_geom_bond_atom_site_label_1
_geom_bond_atom_site_label_2
_geom_bond_distance
_geom_bond_site_symmetry_2
Mg0 O32 1.977787 1_655
Mg0 O8 2.032707 1_555
Mg0 O4 2.044511 1_555
Mg0 O27 2.051336 1_655
Mg0 O46 2.291834 1_555
Mg0 O22 2.397304 1_555
Mg1 O33 1.977787 1_455
Mg1 O9 2.032707 1_565
Mg1 O5 2.044511 1_565
Mg1 O26 2.051336 1_465
Mg1 O47 2.291834 1_555
Mg1 O23 2.397304 1_555
Mg2 O34 1.977787 1_555
Mg2 O10 2.032707 1_545
Mg2 O6 2.044511 1_545
Mg2 O25 2.051336 1_545
Mg2 O44 2.291834 1_555
Mg2 O20 2.397304 1_555
Mg3 O35 1.977787 1_555
Mg3 O11 2.032707 1_555
Mg3 O7 2.044511 1_555
Mg3 O24 2.051336 1_555
Mg3 O45 2.291834 1_555
Mg3 O21 2.397304 1_555
Mg4 O36 1.977787 1_455
Mg4 O12 2.032707 1_555
Mg4 O0 2.044511 1_555
Mg4 O31 2.051336 1_455
Mg4 O42 2.291834 1_555
Mg4 O18 2.397304 1_555
Mg5 O37 1.977787 1_655
Mg5 O13 2.032707 1_545
Mg5 O1 2.044511 1_545
Mg5 O30 2.051336 1_645
Mg5 O43 2.291834 1_555
Mg5 O19 2.397304 1_555
Mg6 O38 1.977787 1_555
Mg6 O14 2.032707 1_565
Mg6 O2 2.044511 1_565
Mg6 O29 2.051336 1_565
Mg6 O40 2.291834 1_555
Mg6 O16 2.397304 1_555
Mg7 O39 1.977787 1_555
Mg7 O15 2.032707 1_555
Mg7 O3 2.044511 1_555
Mg7 O28 2.051336 1_555
Mg7 O41 2.291834 1_555
Mg7 O17 2.397304 1_555
Fe0 O8 2.016516 1_555
Fe0 O27 2.096665 1_555
Fe0 O32 2.107543 1_555
Fe0 O2 2.115568 1_555
Fe0 O4 2.167585 1_555
Fe0 O29 2.203412 1_555
Fe1 O9 2.016514 1_555
Fe1 O26 2.096669 1_555
Fe1 O33 2.107545 1_545
Fe1 O3 2.115570 1_555
Fe1 O5 2.167580 1_555
Fe1 O28 2.203410 1_555
Fe2 O10 2.016514 1_455
Fe2 O25 2.096669 1_555
Fe2 O34 2.107545 1_565
Fe2 O0 2.115570 1_555
Fe2 O6 2.167580 1_455
Fe2 O31 2.203410 1_455
Fe3 O11 2.016514 1_655
Fe3 O24 2.096669 1_555
Fe3 O35 2.107545 1_555
Fe3 O1 2.115570 1_555
Fe3 O7 2.167580 1_655
Fe3 O30 2.203410 1_655
Fe4 O12 2.016514 1_555
Fe4 O31 2.096669 1_555
Fe4 O36 2.107545 1_555
Fe4 O6 2.115570 1_555
Fe4 O0 2.167580 1_555
Fe4 O25 2.203410 1_555
Fe5 O13 2.016516 1_555
Fe5 O30 2.096665 1_555
Fe5 O37 2.107543 1_565
Fe5 O7 2.115568 1_555
Fe5 O1 2.167585 1_555
Fe5 O24 2.203412 1_555
Fe6 O14 2.016514 1_655
Fe6 O29 2.096669 1_555
Fe6 O38 2.107545 1_545
Fe6 O4 2.115570 1_555
Fe6 O2 2.167580 1_655
Fe6 O27 2.203410 1_655
Fe7 O15 2.016514 1_455
Fe7 O28 2.096669 1_555
Fe7 O39 2.107545 1_555
Fe7 O5 2.115570 1_555
Fe7 O3 2.167580 1_455
Fe7 O26 2.203410 1_455
O0 Si0 1.620858 1_556
O1 Si1 1.620858 1_555
O2 Si2 1.620858 1_554
O3 Si3 1.620858 1_555
O4 Si4 1.620858 1_554
O5 Si5 1.620858 1_555
O6 Si6 1.620858 1_556
O7 Si7 1.620858 1_555
O8 Si8 1.592847 1_555
O9 Si9 1.592847 1_545
O10 Si10 1.592847 1_565
O11 Si11 1.592847 1_555
O12 Si12 1.592847 1_555
O13 Si13 1.592847 1_565
O14 Si14 1.592847 1_545
O15 Si15 1.592847 1_555
O16 Si6 1.675636 1_455
O16 Si0 1.681639 1_555
O17 Si7 1.675636 1_655
O17 Si1 1.681639 1_555
O18 Si4 1.675636 1_555
O18 Si2 1.681639 1_555
O19 Si5 1.675636 1_555
O19 Si3 1.681639 1_555
O20 Si2 1.675636 1_655
O20 Si4 1.681639 1_555
O21 Si3 1.675636 1_455
O21 Si5 1.681639 1_555
O22 Si0 1.675636 1_555
O22 Si6 1.681639 1_555
O23 Si1 1.675636 1_555
O23 Si7 1.681639 1_555
O24 Si8 1.607569 1_555
O25 Si9 1.607569 1_555
O26 Si10 1.607569 1_555
O27 Si11 1.607569 1_555
O28 Si12 1.607569 1_555
O29 Si13 1.607569 1_555
O30 Si14 1.607569 1_555
O31 Si15 1.607569 1_555
O32 Si0 1.585807 1_555
O33 Si1 1.585807 1_555
O34 Si2 1.585807 1_555
O35 Si3 1.585807 1_555
O36 Si4 1.585807 1_555
O37 Si5 1.585807 1_555
O38 Si6 1.585807 1_555
O39 Si7 1.585807 1_555
O40 Si8 1.647262 1_555
O40 Si14 1.666183 1_555
O41 Si9 1.647262 1_555
O41 Si15 1.666183 1_555
O42 Si10 1.647262 1_455
O42 Si12 1.666183 1_555
O43 Si11 1.647262 1_655
O43 Si13 1.666183 1_555
O44 Si12 1.647262 1_555
O44 Si10 1.666183 1_555
O45 Si13 1.647262 1_555
O45 Si11 1.666183 1_555
O46 Si14 1.647262 1_655
O46 Si8 1.666183 1_555
O47 Si15 1.647262 1_455
O47 Si9 1.666183 1_555
