# generated using pymatgen
data_MgHN
_symmetry_space_group_name_H-M   'P 1'
_cell_length_a   11.60703100
_cell_length_b   11.60703014
_cell_length_c   3.71497200
_cell_angle_alpha   90.00000000
_cell_angle_beta   90.00000000
_cell_angle_gamma   119.99999961
_symmetry_Int_Tables_number   1
_chemical_formula_structural   MgHN
_chemical_formula_sum   'Mg12 H12 N12'
_cell_volume   433.43944799
_cell_formula_units_Z   12
loop_
 _symmetry_equiv_pos_site_id
 _symmetry_equiv_pos_as_xyz
  1  'x, y, z'
loop_
 _atom_site_type_symbol
 _atom_site_label
 _atom_site_symmetry_multiplicity
 _atom_site_fract_x
 _atom_site_fract_y
 _atom_site_fract_z
 _atom_site_occupancy
  Mg  Mg0  1  0.41664700  0.13503000  0.00000000  1
  Mg  Mg1  1  0.86497000  0.28161800  0.00000000  1
  Mg  Mg2  1  0.28161800  0.41664800  0.00000000  1
  Mg  Mg3  1  0.71838300  0.58335300  0.00000000  1
  Mg  Mg4  1  0.13503100  0.71838300  0.00000000  1
  Mg  Mg5  1  0.58335300  0.86497000  0.00000000  1
  Mg  Mg6  1  0.64561100  0.07059600  0.50000100  1
  Mg  Mg7  1  0.42498500  0.35438900  0.50000100  1
  Mg  Mg8  1  0.07059600  0.42498500  0.50000100  1
  Mg  Mg9  1  0.92940400  0.57501500  0.50000100  1
  Mg  Mg10  1  0.57501500  0.64561100  0.50000100  1
  Mg  Mg11  1  0.35438900  0.92940400  0.50000100  1
  H  H0  1  0.80986100  0.05581900  0.00000000  1
  H  H1  1  0.24595900  0.19013900  0.00000000  1
  H  H2  1  0.05581900  0.24595900  0.00000000  1
  H  H3  1  0.94418000  0.75404200  0.00000000  1
  H  H4  1  0.75404200  0.80986100  0.00000000  1
  H  H5  1  0.19013900  0.94418000  0.00000000  1
  H  H6  1  0.57365700  0.23955800  0.50000100  1
  H  H7  1  0.76044200  0.33409900  0.50000100  1
  H  H8  1  0.66590100  0.42634300  0.50000100  1
  H  H9  1  0.33409900  0.57365700  0.50000100  1
  H  H10  1  0.23955800  0.66590100  0.50000100  1
  H  H11  1  0.42634300  0.76044200  0.50000100  1
  N  N0  1  0.73163800  0.07406700  0.00000000  1
  N  N1  1  0.34242900  0.26836200  0.00000000  1
  N  N2  1  0.07406800  0.34243000  0.00000000  1
  N  N3  1  0.92593200  0.65757000  0.00000000  1
  N  N4  1  0.65757100  0.73163800  0.00000000  1
  N  N5  1  0.26836300  0.92593300  0.00000000  1
  N  N6  1  0.50754900  0.13902000  0.50000100  1
  N  N7  1  0.86098000  0.36852800  0.50000100  1
  N  N8  1  0.63147200  0.49245100  0.50000100  1
  N  N9  1  0.36852800  0.50754900  0.50000100  1
  N  N10  1  0.13902100  0.63147200  0.50000100  1
  N  N11  1  0.49245100  0.86098000  0.50000100  1
loop_
_geom_bond_atom_site_label_1
_geom_bond_atom_site_label_2
_geom_bond_distance
_geom_bond_site_symmetry_2
Mg0 N1 2.114308 1_555
Mg0 N6 2.125268 1_554
Mg0 N6 2.125274 1_555
Mg0 N5 2.162274 1_545
Mg1 N0 2.114317 1_555
Mg1 N7 2.125256 1_554
Mg1 N7 2.125263 1_555
Mg1 N2 2.162288 1_655
Mg2 N2 2.114308 1_555
Mg2 N9 2.125259 1_554
Mg2 N9 2.125266 1_555
Mg2 N1 2.162279 1_555
Mg3 N3 2.114299 1_555
Mg3 N8 2.125265 1_554
Mg3 N8 2.125271 1_555
Mg3 N4 2.162276 1_555
Mg4 N5 2.114308 1_555
Mg4 N10 2.125262 1_554
Mg4 N10 2.125268 1_555
Mg4 N3 2.162296 1_455
Mg5 N4 2.114308 1_555
Mg5 N11 2.125268 1_554
Mg5 N11 2.125274 1_555
Mg5 N0 2.162276 1_565
Mg6 N0 2.099684 1_556
Mg6 N0 2.099691 1_555
Mg6 N6 2.114574 1_555
Mg6 N11 2.180518 1_545
Mg7 N1 2.099684 1_556
Mg7 N1 2.099691 1_555
Mg7 N8 2.114583 1_555
Mg7 N9 2.180526 1_555
Mg8 N2 2.099682 1_556
Mg8 N2 2.099688 1_555
Mg8 N10 2.114583 1_555
Mg8 N7 2.180515 1_455
Mg9 N3 2.099682 1_556
Mg9 N3 2.099688 1_555
Mg9 N7 2.114585 1_555
Mg9 N10 2.180526 1_655
Mg10 N4 2.099684 1_556
Mg10 N4 2.099691 1_555
Mg10 N9 2.114583 1_555
Mg10 N8 2.180526 1_555
Mg11 N5 2.099679 1_556
Mg11 N5 2.099685 1_555
Mg11 N11 2.114574 1_555
Mg11 N6 2.180518 1_565
H0 N0 1.030299 1_555
H1 N1 1.030292 1_555
H2 N2 1.030295 1_555
H3 N3 1.030310 1_555
H4 N4 1.030299 1_555
H5 N5 1.030303 1_555
H6 N6 1.027192 1_555
H7 N7 1.027194 1_555
H8 N8 1.027183 1_555
H9 N9 1.027183 1_555
H10 N10 1.027183 1_555
H11 N11 1.027192 1_555
