# generated using pymatgen
data_Cs4Sn21Hg2
_symmetry_space_group_name_H-M   'P 1'
_cell_length_a   12.36836192
_cell_length_b   12.36836192
_cell_length_c   12.36510239
_cell_angle_alpha   90.00000000
_cell_angle_beta   90.00000000
_cell_angle_gamma   90.02525822
_symmetry_Int_Tables_number   1
_chemical_formula_structural   Cs4Sn21Hg2
_chemical_formula_sum   'Cs8 Sn42 Hg4'
_cell_volume   1891.56837663
_cell_formula_units_Z   2
loop_
 _symmetry_equiv_pos_site_id
 _symmetry_equiv_pos_as_xyz
  1  'x, y, z'
loop_
 _atom_site_type_symbol
 _atom_site_label
 _atom_site_symmetry_multiplicity
 _atom_site_fract_x
 _atom_site_fract_y
 _atom_site_fract_z
 _atom_site_occupancy
  Cs  Cs0  1  0.49915784  0.99938004  0.25000000  1
  Cs  Cs1  1  0.00061996  0.50084216  0.75000000  1
  Cs  Cs2  1  0.49334261  0.50665739  0.00000000  1
  Cs  Cs3  1  0.00615828  0.24467565  0.25000000  1
  Cs  Cs4  1  0.75532435  0.99384172  0.75000000  1
  Cs  Cs5  1  0.49334261  0.50665739  0.50000000  1
  Cs  Cs6  1  0.00638266  0.75518211  0.25000000  1
  Cs  Cs7  1  0.24481789  0.99361734  0.75000000  1
  Sn  Sn0  1  0.68563309  0.18271307  0.06679419  1
  Sn  Sn1  1  0.31743744  0.81741390  0.43318008  1
  Sn  Sn2  1  0.68413436  0.81866398  0.43464669  1
  Sn  Sn3  1  0.31585502  0.18431549  0.06829729  1
  Sn  Sn4  1  0.31743744  0.81741390  0.06681992  1
  Sn  Sn5  1  0.68563309  0.18271307  0.43320581  1
  Sn  Sn6  1  0.31585502  0.18431549  0.43170271  1
  Sn  Sn7  1  0.68413436  0.81866398  0.06535331  1
  Sn  Sn8  1  0.18133602  0.31586564  0.93464669  1
  Sn  Sn9  1  0.81568451  0.68414498  0.56829729  1
  Sn  Sn10  1  0.18258610  0.68256256  0.56681992  1
  Sn  Sn11  1  0.81728693  0.31436691  0.93320581  1
  Sn  Sn12  1  0.81728693  0.31436691  0.56679419  1
  Sn  Sn13  1  0.18258610  0.68256256  0.93318008  1
  Sn  Sn14  1  0.81568451  0.68414498  0.93170271  1
  Sn  Sn15  1  0.18133602  0.31586564  0.56535331  1
  Sn  Sn16  1  0.49971794  0.11652108  0.94391789  1
  Sn  Sn17  1  0.61602034  0.30726428  0.25000000  1
  Sn  Sn18  1  0.81369280  0.99979355  0.13189465  1
  Sn  Sn19  1  0.49993041  0.87919657  0.56377295  1
  Sn  Sn20  1  0.37929860  0.68782536  0.25000000  1
  Sn  Sn21  1  0.18855242  0.99989581  0.36870020  1
  Sn  Sn22  1  0.61690240  0.69456231  0.25000000  1
  Sn  Sn23  1  0.81369280  0.99979355  0.36810535  1
  Sn  Sn24  1  0.37974434  0.31497464  0.25000000  1
  Sn  Sn25  1  0.18855242  0.99989581  0.13129980  1
  Sn  Sn26  1  0.49993041  0.87919657  0.93622705  1
  Sn  Sn27  1  0.49971794  0.11652108  0.55608211  1
  Sn  Sn28  1  0.00020645  0.18630720  0.86810535  1
  Sn  Sn29  1  0.12080343  0.50006959  0.06377295  1
  Sn  Sn30  1  0.30543769  0.38309760  0.75000000  1
  Sn  Sn31  1  0.00010419  0.81144758  0.63129980  1
  Sn  Sn32  1  0.88347892  0.50028206  0.44391789  1
  Sn  Sn33  1  0.68502536  0.62025566  0.75000000  1
  Sn  Sn34  1  0.12080343  0.50006959  0.43622705  1
  Sn  Sn35  1  0.31217464  0.62070140  0.75000000  1
  Sn  Sn36  1  0.88347892  0.50028206  0.05608211  1
  Sn  Sn37  1  0.69273572  0.38397966  0.75000000  1
  Sn  Sn38  1  0.00020645  0.18630720  0.63189465  1
  Sn  Sn39  1  0.00010419  0.81144758  0.86870020  1
  Sn  Sn40  1  0.49967106  0.24974538  0.75000000  1
  Sn  Sn41  1  0.75025462  0.50032894  0.25000000  1
  Hg  Hg0  1  0.00089293  0.99910707  0.00000000  1
  Hg  Hg1  1  0.49876587  0.74983979  0.75000000  1
  Hg  Hg2  1  0.25016021  0.50123413  0.25000000  1
  Hg  Hg3  1  0.00089293  0.99910707  0.50000000  1
loop_
_geom_bond_atom_site_label_1
_geom_bond_atom_site_label_2
_geom_bond_distance
_geom_bond_site_symmetry_2
Cs0 Sn4 3.904214 1_555
Cs0 Sn1 3.904214 1_555
Cs0 Sn6 3.927406 1_565
Cs0 Sn3 3.927406 1_565
Cs0 Sn2 3.930348 1_555
Cs0 Sn7 3.930348 1_555
Cs0 Sn5 3.948212 1_565
Cs0 Sn0 3.948212 1_565
Cs0 Sn22 4.042189 1_555
Cs0 Sn27 4.052581 1_565
Cs0 Sn16 4.052581 1_564
Cs0 Sn17 4.072514 1_565
Cs0 Sn25 4.112521 1_555
Cs0 Sn21 4.112521 1_555
Cs0 Sn20 4.128137 1_555
Cs0 Sn26 4.154855 1_554
Cs0 Sn19 4.154855 1_555
Cs0 Sn23 4.155361 1_555
Cs0 Sn18 4.155361 1_555
Cs0 Sn24 4.174075 1_565
Cs1 Sn10 3.904214 1_555
Cs1 Sn13 3.904214 1_555
Cs1 Sn9 3.927406 1_455
Cs1 Sn14 3.927406 1_455
Cs1 Sn15 3.930348 1_555
Cs1 Sn8 3.930348 1_555
Cs1 Sn12 3.948212 1_455
Cs1 Sn11 3.948212 1_455
Cs1 Sn30 4.042189 1_555
Cs1 Sn36 4.052581 1_456
Cs1 Sn32 4.052581 1_455
Cs1 Sn37 4.072514 1_455
Cs1 Sn39 4.112521 1_555
Cs1 Sn31 4.112521 1_555
Cs1 Sn35 4.128137 1_555
Cs1 Sn34 4.154855 1_555
Cs1 Sn29 4.154855 1_556
Cs1 Sn28 4.155361 1_555
Cs1 Sn38 4.155361 1_555
Cs1 Sn33 4.174075 1_455
Cs2 Sn35 4.070547 1_554
Cs2 Sn20 4.070547 1_555
Cs2 Sn24 4.140995 1_555
Cs2 Sn33 4.140995 1_554
Cs2 Sn22 4.158086 1_555
Cs2 Sn30 4.158086 1_554
Cs2 Sn37 4.235980 1_554
Cs2 Sn17 4.235980 1_555
Cs3 Sn21 4.051587 1_545
Cs3 Sn25 4.051587 1_545
Cs3 Sn18 4.119058 1_445
Cs3 Sn23 4.119058 1_445
Cs3 Sn34 4.157794 1_555
Cs3 Sn29 4.157794 1_555
Cs3 Sn36 4.248615 1_455
Cs3 Sn32 4.248615 1_455
Cs4 Sn39 4.051587 1_655
Cs4 Sn31 4.051587 1_655
Cs4 Sn28 4.119058 1_665
Cs4 Sn38 4.119058 1_665
Cs4 Sn19 4.157794 1_555
Cs4 Sn26 4.157794 1_555
Cs4 Sn16 4.248615 1_565
Cs4 Sn27 4.248615 1_565
Cs5 Sn35 4.070547 1_555
Cs5 Sn20 4.070547 1_555
Cs5 Sn24 4.140995 1_555
Cs5 Sn33 4.140995 1_555
Cs5 Sn22 4.158086 1_555
Cs5 Sn30 4.158086 1_555
Cs5 Sn17 4.235980 1_555
Cs5 Sn37 4.235980 1_555
Cs6 Sn21 4.047944 1_555
Cs6 Sn25 4.047944 1_555
Cs6 Sn23 4.119746 1_455
Cs6 Sn18 4.119746 1_455
Cs6 Sn34 4.155153 1_555
Cs6 Sn29 4.155153 1_555
Cs6 Sn36 4.242115 1_455
Cs6 Sn32 4.242115 1_455
Cs7 Sn39 4.047944 1_555
Cs7 Sn31 4.047944 1_555
Cs7 Sn38 4.119746 1_565
Cs7 Sn28 4.119746 1_565
Cs7 Sn19 4.155153 1_555
Cs7 Sn26 4.155153 1_555
Cs7 Sn16 4.242115 1_565
Cs7 Sn27 4.242115 1_565
Sn0 Sn11 2.833587 1_554
Sn0 Sn17 2.871838 1_555
Sn0 Sn16 2.874829 1_554
Sn0 Sn18 2.877215 1_545
Sn1 Sn21 2.876467 1_555
Sn1 Sn19 2.878305 1_555
Sn1 Sn20 2.878517 1_555
Sn1 Sn10 2.879570 1_555
Sn2 Sn9 2.854640 1_555
Sn2 Sn22 2.873893 1_555
Sn2 Sn23 2.874095 1_555
Sn3 Sn8 2.854640 1_554
Sn10 Sn31 2.876467 1_555
Sn10 Sn34 2.878305 1_555
Sn10 Sn35 2.878517 1_555
Sn11 Sn37 2.871838 1_555
Sn11 Sn36 2.874829 1_556
Sn11 Sn28 2.877215 1_655
Sn12 Sn5 2.833587 1_555
Sn12 Sn37 2.871838 1_555
Sn12 Sn32 2.874829 1_555
Sn12 Sn38 2.877215 1_655
Sn13 Sn39 2.876467 1_555
Sn13 Sn29 2.878305 1_556
Sn13 Sn35 2.878517 1_555
Sn13 Sn4 2.879570 1_556
Sn14 Sn7 2.854640 1_556
Sn14 Sn36 2.870812 1_556
Sn14 Sn33 2.877998 1_555
Sn14 Sn39 2.878485 1_655
Sn15 Sn6 2.854640 1_555
Sn15 Sn30 2.873893 1_555
Sn15 Sn38 2.874095 1_555
Sn15 Sn34 2.881322 1_555
Sn16 Sn3 2.870812 1_556
Sn16 Sn40 2.909407 1_555
Sn16 Sn26 2.936858 1_545
Sn17 Sn5 2.871838 1_555
Sn17 Sn41 2.907748 1_555
Sn17 Sn24 2.923945 1_555
Sn18 Sn7 2.874095 1_555
Sn18 Sn23 2.920769 1_555
Sn19 Sn2 2.881322 1_555
Sn19 Sn27 2.936858 1_565
Sn20 Sn4 2.878517 1_555
Sn20 Sn22 2.939914 1_555
Sn21 Sn6 2.878485 1_565
Sn21 Sn25 2.935480 1_555
Sn22 Sn7 2.873893 1_555
Sn22 Sn41 2.914639 1_555
Sn23 Sn5 2.877215 1_565
Sn24 Sn3 2.877998 1_555
Sn24 Sn6 2.877998 1_555
Sn25 Sn4 2.876467 1_555
Sn25 Sn3 2.878485 1_565
Sn26 Sn4 2.878305 1_556
Sn26 Sn7 2.881322 1_556
Sn27 Sn6 2.870812 1_555
Sn27 Sn5 2.874829 1_555
Sn27 Sn40 2.909407 1_555
Sn28 Sn8 2.874095 1_555
Sn28 Sn38 2.920769 1_555
Sn29 Sn8 2.881322 1_554
Sn29 Sn36 2.936858 1_455
Sn30 Sn8 2.873893 1_555
Sn30 Sn40 2.914639 1_555
Sn30 Sn35 2.939914 1_555
Sn31 Sn9 2.878485 1_455
Sn31 Sn39 2.935480 1_555
Sn32 Sn9 2.870812 1_555
Sn32 Sn41 2.909407 1_555
Sn32 Sn34 2.936858 1_655
Sn33 Sn9 2.877998 1_555
Sn33 Sn37 2.923945 1_555
Sn36 Sn41 2.909407 1_555
Sn37 Sn40 2.907748 1_555
Hg0 Sn28 2.832098 1_564
Hg0 Sn18 2.832098 1_455
Hg0 Sn25 2.832520 1_555
Hg0 Sn39 2.832520 1_554
Hg1 Sn19 2.804010 1_555
Hg1 Sn26 2.804010 1_555
Hg1 Sn35 2.806058 1_555
Hg1 Sn33 2.806989 1_555
Hg2 Sn34 2.804010 1_555
Hg2 Sn29 2.804010 1_555
Hg2 Sn20 2.806058 1_555
Hg2 Sn24 2.806989 1_555
Hg3 Sn38 2.832098 1_565
Hg3 Sn23 2.832098 1_455
Hg3 Sn31 2.832520 1_555
Hg3 Sn21 2.832520 1_555
