# generated using pymatgen
data_LiFe8(O3F)4
_symmetry_space_group_name_H-M   'P 1'
_cell_length_a   6.04261918
_cell_length_b   6.33317714
_cell_length_c   8.18191233
_cell_angle_alpha   89.99939234
_cell_angle_beta   112.59320268
_cell_angle_gamma   90.00347311
_symmetry_Int_Tables_number   1
_chemical_formula_structural   LiFe8(O3F)4
_chemical_formula_sum   'Li1 Fe8 O12 F4'
_cell_volume   289.08378109
_cell_formula_units_Z   1
loop_
 _symmetry_equiv_pos_site_id
 _symmetry_equiv_pos_as_xyz
  1  'x, y, z'
loop_
 _atom_site_type_symbol
 _atom_site_label
 _atom_site_symmetry_multiplicity
 _atom_site_fract_x
 _atom_site_fract_y
 _atom_site_fract_z
 _atom_site_occupancy
  Li  Li0  1  0.32114300  0.00015800  0.71130200  1
  Fe  Fe0  1  0.49867300  0.99996900  0.05218600  1
  Fe  Fe1  1  0.97661400  0.00000500  0.98734100  1
  Fe  Fe2  1  0.78118500  0.49999600  0.06594700  1
  Fe  Fe3  1  0.23303100  0.49998800  0.97758400  1
  Fe  Fe4  1  0.51800600  0.99997500  0.49504000  1
  Fe  Fe5  1  0.96782700  0.99999600  0.41803900  1
  Fe  Fe6  1  0.74710100  0.49998000  0.48571900  1
  Fe  Fe7  1  0.25857000  0.50001900  0.49306800  1
  O  O0  1  0.83740200  0.00000200  0.16662300  1
  O  O1  1  0.50604300  0.30595700  0.01554300  1
  O  O2  1  0.99268100  0.30810900  0.00425700  1
  O  O3  1  0.50611200  0.69402000  0.01562400  1
  O  O4  1  0.75596800  0.19437800  0.47999400  1
  O  O5  1  0.25409200  0.18928100  0.50500200  1
  O  O6  1  0.99269300  0.69186000  0.00418800  1
  O  O7  1  0.18930400  0.99998000  0.87265800  1
  O  O8  1  0.92236900  0.50000300  0.32669300  1
  O  O9  1  0.58250300  0.50002500  0.63902700  1
  O  O10  1  0.75591200  0.80562000  0.47993300  1
  O  O11  1  0.25406600  0.81072900  0.50506900  1
  F  F0  1  0.34225100  0.99998300  0.22272300  1
  F  F1  1  0.65122300  0.99998500  0.78366600  1
  F  F2  1  0.39373400  0.50000000  0.29386300  1
  F  F3  1  0.10524800  0.49998300  0.69891000  1
loop_
_geom_bond_atom_site_label_1
_geom_bond_atom_site_label_2
_geom_bond_distance
_geom_bond_site_symmetry_2
Li0 O7 1.784857 1_545
Li0 O5 1.980505 1_555
Li0 O11 1.981227 1_545
Fe0 O7 1.882120 1_554
Fe0 O0 1.895670 1_565
Fe0 O3 1.963739 1_555
Fe0 O1 1.964044 1_565
Fe1 O7 1.859790 1_645
Fe1 O0 1.951270 1_556
Fe1 O2 1.955945 1_556
Fe1 O6 1.956186 1_546
Fe2 O2 1.964869 1_555
Fe2 O6 1.965017 1_555
Fe2 O8 1.969960 1_555
Fe2 O3 1.979043 1_555
Fe2 O1 1.979223 1_555
Fe3 O6 1.968807 1_456
Fe3 O2 1.969002 1_456
Fe3 O1 1.983577 1_556
Fe3 O3 1.983675 1_556
Fe4 O10 1.932286 1_555
Fe4 O4 1.932452 1_565
Fe4 O11 2.021682 1_555
Fe4 O5 2.021708 1_565
Fe5 O0 1.899197 1_565
Fe5 O10 1.977285 1_555
Fe5 O4 1.977411 1_565
Fe5 O11 1.997337 1_655
Fe5 O5 1.997390 1_665
Fe6 O9 1.876498 1_555
Fe6 O4 1.937241 1_555
Fe6 O10 1.937479 1_555
Fe6 O8 1.968101 1_555
Fe7 O9 1.860503 1_555
Fe7 O8 1.963486 1_455
Fe7 O11 1.970941 1_555
Fe7 O5 1.971078 1_555
F0 Fe0 1.963080 1_555
F0 Fe4 2.067374 1_555
F0 Fe1 2.306733 1_464
F1 Li0 1.849699 1_565
F1 Fe1 2.031111 1_565
F1 Fe4 2.182678 1_555
F2 Fe7 2.084808 1_555
F2 Fe6 2.109030 1_555
F2 Fe3 2.389283 1_554
F3 Fe3 2.107662 1_555
F3 Fe6 2.196722 1_455
F3 Fe7 2.212177 1_555
