# generated using pymatgen
data_KGeSbO5
_symmetry_space_group_name_H-M   'P 1'
_cell_length_a   6.70513000
_cell_length_b   10.94520900
_cell_length_c   13.46721400
_cell_angle_alpha   90.00000000
_cell_angle_beta   90.00000000
_cell_angle_gamma   90.00000000
_symmetry_Int_Tables_number   1
_chemical_formula_structural   KGeSbO5
_chemical_formula_sum   'K8 Ge8 Sb8 O40'
_cell_volume   988.34603113
_cell_formula_units_Z   8
loop_
 _symmetry_equiv_pos_site_id
 _symmetry_equiv_pos_as_xyz
  1  'x, y, z'
loop_
 _atom_site_type_symbol
 _atom_site_label
 _atom_site_symmetry_multiplicity
 _atom_site_fract_x
 _atom_site_fract_y
 _atom_site_fract_z
 _atom_site_occupancy
  K  K0  1  0.77399400  0.69055800  0.38191700  1
  K  K1  1  0.29611200  0.43463900  0.88950000  1
  K  K2  1  0.20388800  0.43463900  0.38950000  1
  K  K3  1  0.70388800  0.93463900  0.11050000  1
  K  K4  1  0.27399400  0.19055800  0.11808300  1
  K  K5  1  0.72600600  0.69055800  0.88191700  1
  K  K6  1  0.22600600  0.19055800  0.61808300  1
  K  K7  1  0.79611200  0.93463900  0.61050000  1
  Ge  Ge0  1  0.68122800  0.25153200  0.50223000  1
  Ge  Ge1  1  0.18122800  0.75153200  0.99777000  1
  Ge  Ge2  1  0.81877200  0.25153200  0.00223000  1
  Ge  Ge3  1  0.51134200  0.50283600  0.18137500  1
  Ge  Ge4  1  0.48865800  0.00283600  0.81862500  1
  Ge  Ge5  1  0.98865800  0.50283600  0.68137500  1
  Ge  Ge6  1  0.31877200  0.75153200  0.49777000  1
  Ge  Ge7  1  0.01134200  0.00283600  0.31862500  1
  Sb  Sb0  1  0.25679000  0.75557500  0.24517900  1
  Sb  Sb1  1  0.74321000  0.25557500  0.75482100  1
  Sb  Sb2  1  0.24321000  0.75557500  0.74517900  1
  Sb  Sb3  1  0.50768600  0.00075900  0.38241400  1
  Sb  Sb4  1  0.49231400  0.50075900  0.61758600  1
  Sb  Sb5  1  0.99231400  0.00075900  0.88241400  1
  Sb  Sb6  1  0.00768600  0.50075900  0.11758600  1
  Sb  Sb7  1  0.75679000  0.25557500  0.25482100  1
  O  O0  1  0.95611400  0.12973400  0.77967200  1
  O  O1  1  0.04388600  0.62973400  0.22032800  1
  O  O2  1  0.54388600  0.12973400  0.27967200  1
  O  O3  1  0.45611400  0.62973400  0.72032800  1
  O  O4  1  0.47305100  0.87693300  0.27476100  1
  O  O5  1  0.52694900  0.37693300  0.72523900  1
  O  O6  1  0.02694900  0.87693300  0.77476100  1
  O  O7  1  0.97305100  0.37693300  0.22523900  1
  O  O8  1  0.53796900  0.12551300  0.73557000  1
  O  O9  1  0.46203100  0.62551300  0.26443000  1
  O  O10  1  0.96203100  0.12551300  0.23557000  1
  O  O11  1  0.03796900  0.62551300  0.76443000  1
  O  O12  1  0.04928700  0.88426100  0.22980900  1
  O  O13  1  0.95071200  0.38426100  0.77019100  1
  O  O14  1  0.45071300  0.88426100  0.72980900  1
  O  O15  1  0.15898700  0.77224500  0.60099900  1
  O  O16  1  0.54928800  0.38426100  0.27019100  1
  O  O17  1  0.71336600  0.53339800  0.10118100  1
  O  O18  1  0.21336600  0.03339800  0.39881900  1
  O  O19  1  0.78663400  0.53339800  0.60118100  1
  O  O20  1  0.80476300  0.96301300  0.39341400  1
  O  O21  1  0.19523700  0.46301300  0.60658600  1
  O  O22  1  0.69523700  0.96301300  0.89341400  1
  O  O23  1  0.30476300  0.46301300  0.10658600  1
  O  O24  1  0.49989600  0.86760000  0.48565800  1
  O  O25  1  0.50010400  0.36760000  0.51434200  1
  O  O26  1  0.00010400  0.86760000  0.98565800  1
  O  O27  1  0.99989600  0.36760000  0.01434200  1
  O  O28  1  0.96029000  0.11459600  0.99697900  1
  O  O29  1  0.03971000  0.61459600  0.00302100  1
  O  O30  1  0.53971000  0.11459600  0.49697900  1
  O  O31  1  0.46029000  0.61459600  0.50302100  1
  O  O32  1  0.16865000  0.73851800  0.38986800  1
  O  O33  1  0.83135000  0.23851800  0.61013200  1
  O  O34  1  0.33135000  0.73851800  0.88986800  1
  O  O35  1  0.66865000  0.23851800  0.11013200  1
  O  O36  1  0.65898700  0.27224500  0.89900100  1
  O  O37  1  0.34101300  0.77224500  0.10099900  1
  O  O38  1  0.84101300  0.27224500  0.39900100  1
  O  O39  1  0.28663400  0.03339800  0.89881900  1
loop_
_geom_bond_atom_site_label_1
_geom_bond_atom_site_label_2
_geom_bond_distance
_geom_bond_site_symmetry_2
K0 O32 2.699907 1_655
K0 O9 2.717665 1_555
K0 O31 2.788477 1_555
K0 O1 2.907527 1_655
K0 O20 2.993212 1_555
K0 O24 3.014059 1_555
K0 O4 3.211780 1_555
K0 O19 3.418416 1_555
K1 O27 2.703690 1_456
K1 O5 2.772749 1_555
K1 O13 2.872168 1_455
K1 O23 2.940564 1_556
K1 O36 3.015915 1_555
K1 O29 3.028619 1_556
K1 O11 3.193359 1_555
K1 O3 3.301705 1_555
K1 O34 3.334405 1_555
K2 O25 2.703690 1_555
K2 O7 2.772749 1_455
K2 O16 2.872168 1_555
K2 O21 2.940564 1_555
K2 O38 3.015915 1_455
K2 O31 3.028619 1_555
K2 O9 3.193359 1_555
K2 O1 3.301705 1_555
K2 O32 3.334405 1_555
K3 O26 2.703690 1_654
K3 O4 2.772749 1_555
K3 O12 2.872163 1_655
K3 O22 2.940564 1_554
K3 O37 3.015915 1_555
K3 O28 3.028619 1_564
K3 O10 3.193359 1_565
K3 O2 3.301705 1_565
K3 O35 3.334405 1_565
K4 O35 2.699907 1_555
K4 O10 2.717665 1_455
K4 O28 2.788477 1_454
K4 O2 2.907527 1_555
K4 O23 2.993212 1_555
K4 O27 3.014059 1_455
K4 O7 3.211780 1_455
K4 O39 3.418416 1_554
K5 O34 2.699907 1_555
K5 O11 2.717665 1_655
K5 O29 2.788477 1_656
K5 O3 2.907527 1_555
K5 O22 2.993212 1_555
K5 O26 3.014059 1_655
K5 O6 3.211780 1_655
K5 O17 3.418416 1_556
K6 O33 2.699907 1_455
K6 O8 2.717665 1_555
K6 O30 2.788477 1_555
K6 O0 2.907527 1_455
K6 O21 2.993212 1_555
K6 O25 3.014059 1_555
K6 O5 3.211780 1_555
K6 O18 3.418416 1_555
K7 O24 2.703690 1_555
K7 O6 2.772749 1_655
K7 O14 2.872163 1_555
K7 O20 2.940564 1_555
K7 O15 3.015915 1_655
K7 O30 3.028619 1_565
K7 O8 3.193359 1_565
K7 O0 3.301705 1_565
K7 O33 3.334405 1_565
Ge0 O25 1.765051 1_555
Ge0 O38 1.769725 1_555
Ge0 O33 1.773449 1_555
Ge0 O30 1.775327 1_555
Ge1 O26 1.765051 1_555
Ge1 O37 1.769725 1_556
Ge1 O34 1.773449 1_555
Ge1 O29 1.775327 1_556
Ge2 O27 1.765051 1_555
Ge2 O36 1.769725 1_554
Ge2 O35 1.773449 1_555
Ge2 O28 1.775327 1_554
Ge3 O17 1.764428 1_555
Ge3 O23 1.767214 1_555
Ge3 O9 1.778572 1_555
Ge3 O16 1.783188 1_555
Ge4 O39 1.764428 1_555
Ge4 O22 1.767214 1_545
Ge4 O8 1.778572 1_555
Ge4 O14 1.783187 1_545
Ge5 O19 1.764428 1_555
Ge5 O21 1.767214 1_655
Ge5 O11 1.778572 1_655
Ge5 O13 1.783188 1_555
Ge6 O24 1.765051 1_555
Ge6 O15 1.769725 1_555
Ge6 O32 1.773449 1_555
Ge6 O31 1.775327 1_555
Ge7 O18 1.764428 1_555
Ge7 O20 1.767214 1_445
Ge7 O10 1.778572 1_455
Ge7 O12 1.783187 1_545
O0 Sb5 1.991527 1_555
O0 Sb1 2.011719 1_555
O1 Sb6 1.991527 1_555
O1 Sb0 2.011719 1_555
O2 Sb3 1.991527 1_555
O2 Sb7 2.011719 1_555
O3 Sb4 1.991527 1_555
O3 Sb2 2.011719 1_555
O4 Sb3 1.998162 1_565
O4 Sb0 2.006423 1_555
O5 Sb4 1.998162 1_555
O5 Sb1 2.006423 1_555
O6 Sb5 1.998162 1_465
O6 Sb2 2.006423 1_555
O7 Sb6 1.998162 1_655
O7 Sb7 2.006423 1_555
O8 Sb1 1.996888 1_555
O9 Sb0 1.996888 1_555
O10 Sb7 1.996888 1_555
O11 Sb2 1.996888 1_555
O12 Sb0 1.990607 1_555
O13 Sb1 1.990602 1_555
O14 Sb2 1.990607 1_555
O15 Sb2 2.030373 1_555
O16 Sb7 1.990602 1_555
O17 Sb6 2.017660 1_655
O18 Sb3 2.017660 1_555
O19 Sb4 2.017660 1_555
O20 Sb3 2.039719 1_565
O21 Sb4 2.039719 1_555
O22 Sb5 2.039719 1_565
O23 Sb6 2.039719 1_555
O24 Sb3 2.014978 1_565
O25 Sb4 2.014978 1_555
O26 Sb5 2.014978 1_465
O27 Sb6 2.014978 1_655
O28 Sb5 1.994743 1_555
O29 Sb6 1.994743 1_555
O30 Sb3 1.994743 1_555
O31 Sb4 1.994743 1_555
O32 Sb0 2.044750 1_555
O33 Sb1 2.044750 1_555
O34 Sb2 2.044750 1_555
O35 Sb7 2.044750 1_555
O36 Sb1 2.030373 1_555
O37 Sb0 2.030373 1_555
O38 Sb7 2.030373 1_555
O39 Sb5 2.017660 1_455
