# generated using pymatgen
data_CaMg(SiO3)2
_symmetry_space_group_name_H-M   'P 1'
_cell_length_a   8.35869800
_cell_length_b   5.40613400
_cell_length_c   9.88961600
_cell_angle_alpha   89.32122003
_cell_angle_beta   90.00000000
_cell_angle_gamma   90.00000000
_symmetry_Int_Tables_number   1
_chemical_formula_structural   CaMg(SiO3)2
_chemical_formula_sum   'Ca4 Mg4 Si8 O24'
_cell_volume   446.86299505
_cell_formula_units_Z   4
loop_
 _symmetry_equiv_pos_site_id
 _symmetry_equiv_pos_as_xyz
  1  'x, y, z'
loop_
 _atom_site_type_symbol
 _atom_site_label
 _atom_site_symmetry_multiplicity
 _atom_site_fract_x
 _atom_site_fract_y
 _atom_site_fract_z
 _atom_site_occupancy
  Ca  Ca0  1  0.44761100  0.39767200  0.27035100  1
  Ca  Ca1  1  0.94761100  0.10232800  0.72964900  1
  Ca  Ca2  1  0.55238900  0.60232800  0.72964900  1
  Ca  Ca3  1  0.05238900  0.89767200  0.27035100  1
  Mg  Mg0  1  0.33396500  0.12276300  0.76802200  1
  Mg  Mg1  1  0.83396500  0.37723700  0.23197800  1
  Mg  Mg2  1  0.66603500  0.87723700  0.23197800  1
  Mg  Mg3  1  0.16603500  0.62276300  0.76802200  1
  Si  Si0  1  0.32959200  0.96613900  0.50317600  1
  Si  Si1  1  0.82959200  0.53386100  0.49682400  1
  Si  Si2  1  0.67040800  0.03386100  0.49682400  1
  Si  Si3  1  0.17040800  0.46613900  0.50317600  1
  Si  Si4  1  0.65320600  0.22889800  0.96245300  1
  Si  Si5  1  0.15320600  0.27110200  0.03754700  1
  Si  Si6  1  0.34679400  0.77110200  0.03754700  1
  Si  Si7  1  0.84679400  0.72889800  0.96245300  1
  O  O0  1  0.49329000  0.28423800  0.87979300  1
  O  O1  1  0.99329000  0.21576200  0.12020700  1
  O  O2  1  0.50671000  0.71576200  0.12020700  1
  O  O3  1  0.00671000  0.78423800  0.87979300  1
  O  O4  1  0.22944200  0.20598700  0.41717600  1
  O  O5  1  0.72944200  0.29401300  0.58282400  1
  O  O6  1  0.77055800  0.79401300  0.58282400  1
  O  O7  1  0.27055800  0.70598700  0.41717600  1
  O  O8  1  0.00944200  0.47349300  0.61354300  1
  O  O9  1  0.50944200  0.02650700  0.38645700  1
  O  O10  1  0.99055800  0.52650700  0.38645700  1
  O  O11  1  0.49055800  0.97349300  0.61354300  1
  O  O12  1  0.30802800  0.44283400  0.63258000  1
  O  O13  1  0.80802800  0.05716600  0.36742000  1
  O  O14  1  0.69197200  0.55716600  0.36742000  1
  O  O15  1  0.19197200  0.94283400  0.63258000  1
  O  O16  1  0.14734800  0.28361900  0.87391900  1
  O  O17  1  0.64734800  0.21638100  0.12608100  1
  O  O18  1  0.85265200  0.71638100  0.12608100  1
  O  O19  1  0.35265200  0.78361900  0.87391900  1
  O  O20  1  0.77074400  0.46209200  0.90366500  1
  O  O21  1  0.27074400  0.03790800  0.09633500  1
  O  O22  1  0.22925600  0.53790800  0.09633500  1
  O  O23  1  0.72925600  0.96209200  0.90366500  1
loop_
_geom_bond_atom_site_label_1
_geom_bond_atom_site_label_2
_geom_bond_distance
_geom_bond_site_symmetry_2
Ca0 O2 2.312035 1_555
Ca0 O9 2.357392 1_555
Ca0 O17 2.411794 1_555
Ca0 O14 2.420042 1_555
Ca0 O4 2.544050 1_555
Ca0 O22 2.614718 1_555
Ca0 O7 2.670987 1_555
Ca0 O21 3.001557 1_555
Ca1 O3 2.312035 1_645
Ca1 O8 2.357392 1_655
Ca1 O16 2.411794 1_655
Ca1 O15 2.420042 1_645
Ca1 O5 2.544050 1_555
Ca1 O23 2.614718 1_545
Ca1 O6 2.670987 1_545
Ca1 O20 3.001557 1_555
Ca2 O0 2.312035 1_555
Ca2 O11 2.357392 1_555
Ca2 O19 2.411794 1_555
Ca2 O12 2.420042 1_555
Ca2 O6 2.544050 1_555
Ca2 O20 2.614718 1_555
Ca2 O5 2.670987 1_555
Ca2 O23 3.001557 1_555
Ca3 O1 2.312035 1_465
Ca3 O10 2.357392 1_455
Ca3 O18 2.411794 1_455
Ca3 O13 2.420042 1_465
Ca3 O7 2.544050 1_555
Ca3 O21 2.614718 1_565
Ca3 O4 2.670987 1_565
Ca3 O22 3.001557 1_555
Mg0 O0 1.944304 1_555
Mg0 O15 2.044483 1_545
Mg0 O16 2.075525 1_555
Mg0 O19 2.106482 1_545
Mg0 O11 2.174317 1_545
Mg0 O12 2.186405 1_555
Mg1 O1 1.944304 1_555
Mg1 O14 2.044483 1_555
Mg1 O17 2.075525 1_555
Mg1 O18 2.106482 1_555
Mg1 O10 2.174317 1_555
Mg1 O13 2.186405 1_555
Mg2 O2 1.944304 1_555
Mg2 O13 2.044483 1_565
Mg2 O18 2.075525 1_555
Mg2 O17 2.106482 1_565
Mg2 O9 2.174317 1_565
Mg2 O14 2.186405 1_555
Mg3 O3 1.944304 1_555
Mg3 O12 2.044483 1_555
Mg3 O19 2.075525 1_555
Mg3 O16 2.106482 1_555
Mg3 O8 2.174317 1_555
Mg3 O15 2.186405 1_555
O0 Si4 1.593335 1_555
O1 Si5 1.593335 1_655
O2 Si6 1.593335 1_555
O3 Si7 1.593335 1_455
O4 Si3 1.724297 1_555
O4 Si0 1.754797 1_545
O5 Si2 1.724297 1_555
O5 Si1 1.754797 1_555
O6 Si1 1.724297 1_555
O6 Si2 1.754797 1_565
O7 Si0 1.724297 1_555
O7 Si3 1.754797 1_555
O8 Si3 1.733272 1_555
O8 Si1 1.920925 1_455
O9 Si2 1.733272 1_555
O9 Si0 1.920925 1_545
O10 Si1 1.733272 1_555
O10 Si3 1.920925 1_655
O11 Si0 1.733272 1_555
O11 Si2 1.920925 1_565
O12 Si3 1.724260 1_555
O13 Si2 1.724260 1_555
O14 Si1 1.724260 1_555
O15 Si0 1.724260 1_555
O16 Si5 1.619572 1_556
O17 Si4 1.619572 1_554
O18 Si7 1.619572 1_554
O19 Si6 1.619572 1_556
O20 Si7 1.685959 1_555
O20 Si4 1.695640 1_555
O21 Si6 1.685959 1_545
O21 Si5 1.695640 1_555
O22 Si5 1.685959 1_555
O22 Si6 1.695640 1_555
O23 Si4 1.685959 1_565
O23 Si7 1.695640 1_555
