# generated using pymatgen
data_KCa4Si8H16O28F
_symmetry_space_group_name_H-M   'P 1'
_cell_length_a   9.79155664
_cell_length_b   9.79155664
_cell_length_c   12.56883597
_cell_angle_alpha   90.00000000
_cell_angle_beta   90.00000000
_cell_angle_gamma   90.07874735
_symmetry_Int_Tables_number   1
_chemical_formula_structural   KCa4Si8H16O28F
_chemical_formula_sum   'K2 Ca8 Si16 H32 O56 F2'
_cell_volume   1205.03075009
_cell_formula_units_Z   2
loop_
 _symmetry_equiv_pos_site_id
 _symmetry_equiv_pos_as_xyz
  1  'x, y, z'
loop_
 _atom_site_type_symbol
 _atom_site_label
 _atom_site_symmetry_multiplicity
 _atom_site_fract_x
 _atom_site_fract_y
 _atom_site_fract_z
 _atom_site_occupancy
  K  K0  1  0.50000000  0.50000000  0.00000000  1
  K  K1  1  0.00000000  0.00000000  0.50000000  1
  Ca  Ca0  1  0.64210854  0.82529203  0.00000000  1
  Ca  Ca1  1  0.32529203  0.14210854  0.50000000  1
  Ca  Ca2  1  0.17585189  0.64163092  0.00000000  1
  Ca  Ca3  1  0.14163092  0.67585189  0.50000000  1
  Ca  Ca4  1  0.67470797  0.85789146  0.50000000  1
  Ca  Ca5  1  0.35789146  0.17470797  0.00000000  1
  Ca  Ca6  1  0.85836908  0.32414811  0.50000000  1
  Ca  Ca7  1  0.82414811  0.35836908  0.00000000  1
  Si  Si0  1  0.50527703  0.72939710  0.24028268  1
  Si  Si1  1  0.77060290  0.99472297  0.25971732  1
  Si  Si2  1  0.72900232  0.49521617  0.24028833  1
  Si  Si3  1  0.00478383  0.77099768  0.74028833  1
  Si  Si4  1  0.77060290  0.99472297  0.74028268  1
  Si  Si5  1  0.72900232  0.49521617  0.75971167  1
  Si  Si6  1  0.99521617  0.22900232  0.25971167  1
  Si  Si7  1  0.50527703  0.72939710  0.75971732  1
  Si  Si8  1  0.22939710  0.00527703  0.74028268  1
  Si  Si9  1  0.99521617  0.22900232  0.74028833  1
  Si  Si10  1  0.22939710  0.00527703  0.25971732  1
  Si  Si11  1  0.49472297  0.27060290  0.75971732  1
  Si  Si12  1  0.00478383  0.77099768  0.25971167  1
  Si  Si13  1  0.27099768  0.50478383  0.75971167  1
  Si  Si14  1  0.27099768  0.50478383  0.24028833  1
  Si  Si15  1  0.49472297  0.27060290  0.24028268  1
  H  H0  1  0.88727272  0.59277983  0.63142486  1
  H  H1  1  0.59270046  0.11333883  0.36903169  1
  H  H2  1  0.37665721  0.67910142  0.46978428  1
  H  H3  1  0.38666117  0.90729954  0.86903169  1
  H  H4  1  0.82089858  0.12334279  0.03021572  1
  H  H5  1  0.87669635  0.81587587  0.03016015  1
  H  H6  1  0.59270046  0.11333883  0.63096831  1
  H  H7  1  0.62334279  0.32089858  0.46978428  1
  H  H8  1  0.40729954  0.88666117  0.63096831  1
  H  H9  1  0.82089858  0.12334279  0.96978428  1
  H  H10  1  0.11272728  0.40722017  0.36857514  1
  H  H11  1  0.17910142  0.87665721  0.96978428  1
  H  H12  1  0.90722017  0.61272728  0.13142486  1
  H  H13  1  0.68412413  0.62330365  0.53016015  1
  H  H14  1  0.12330365  0.18412413  0.96983985  1
  H  H15  1  0.38666117  0.90729954  0.13096831  1
  H  H16  1  0.87669635  0.81587587  0.96983985  1
  H  H17  1  0.31587587  0.37669635  0.46983985  1
  H  H18  1  0.09277983  0.38727272  0.86857514  1
  H  H19  1  0.61333883  0.09270046  0.86903169  1
  H  H20  1  0.88727272  0.59277983  0.36857514  1
  H  H21  1  0.40729954  0.88666117  0.36903169  1
  H  H22  1  0.68412413  0.62330365  0.46983985  1
  H  H23  1  0.11272728  0.40722017  0.63142486  1
  H  H24  1  0.31587587  0.37669635  0.53016015  1
  H  H25  1  0.09277983  0.38727272  0.13142486  1
  H  H26  1  0.61333883  0.09270046  0.13096831  1
  H  H27  1  0.90722017  0.61272728  0.86857514  1
  H  H28  1  0.62334279  0.32089858  0.53021572  1
  H  H29  1  0.37665721  0.67910142  0.53021572  1
  H  H30  1  0.17910142  0.87665721  0.03021572  1
  H  H31  1  0.12330365  0.18412413  0.03016015  1
  O  O0  1  0.97288400  0.73277643  0.38542277  1
  O  O1  1  0.63759884  0.63500629  0.73287678  1
  O  O2  1  0.86262694  0.13463339  0.76668074  1
  O  O3  1  0.67570557  0.00659893  0.13723411  1
  O  O4  1  0.26703632  0.97345697  0.38556276  1
  O  O5  1  0.52654303  0.23296368  0.11443724  1
  O  O6  1  0.17494491  0.49387598  0.63793018  1
  O  O7  1  0.23277643  0.47288400  0.88542277  1
  O  O8  1  0.63759884  0.63500629  0.26712322  1
  O  O9  1  0.00612402  0.32505509  0.13793018  1
  O  O10  1  0.02711600  0.26722357  0.61457723  1
  O  O11  1  0.40665370  0.09334630  0.75000000  1
  O  O12  1  0.76722357  0.52711600  0.88542277  1
  O  O13  1  0.99387598  0.67494491  0.86206982  1
  O  O14  1  0.02711600  0.26722357  0.38542277  1
  O  O15  1  0.09305826  0.59305826  0.75000000  1
  O  O16  1  0.47345697  0.76703632  0.11443724  1
  O  O17  1  0.90694174  0.40694174  0.25000000  1
  O  O18  1  0.40665370  0.09334630  0.25000000  1
  O  O19  1  0.90694174  0.40694174  0.75000000  1
  O  O20  1  0.26703632  0.97345697  0.61443724  1
  O  O21  1  0.36536661  0.63737306  0.73331926  1
  O  O22  1  0.13737306  0.86536661  0.76668074  1
  O  O23  1  0.36240116  0.36499371  0.73287678  1
  O  O24  1  0.86262694  0.13463339  0.23331926  1
  O  O25  1  0.13737306  0.86536661  0.23331926  1
  O  O26  1  0.00612402  0.32505509  0.86206982  1
  O  O27  1  0.97288400  0.73277643  0.61457723  1
  O  O28  1  0.67570557  0.00659893  0.86276589  1
  O  O29  1  0.99387598  0.67494491  0.13793018  1
  O  O30  1  0.32429443  0.99340107  0.86276589  1
  O  O31  1  0.59334630  0.90665370  0.25000000  1
  O  O32  1  0.09305826  0.59305826  0.25000000  1
  O  O33  1  0.36536661  0.63737306  0.26668074  1
  O  O34  1  0.73296368  0.02654303  0.38556276  1
  O  O35  1  0.59334630  0.90665370  0.75000000  1
  O  O36  1  0.82505509  0.50612402  0.63793018  1
  O  O37  1  0.32429443  0.99340107  0.13723411  1
  O  O38  1  0.47345697  0.76703632  0.88556276  1
  O  O39  1  0.17494491  0.49387598  0.36206982  1
  O  O40  1  0.86499371  0.86240116  0.23287678  1
  O  O41  1  0.86499371  0.86240116  0.76712322  1
  O  O42  1  0.50659893  0.17570557  0.36276589  1
  O  O43  1  0.49340107  0.82429443  0.63723411  1
  O  O44  1  0.63463339  0.36262694  0.26668074  1
  O  O45  1  0.76722357  0.52711600  0.11457723  1
  O  O46  1  0.13500629  0.13759884  0.23287678  1
  O  O47  1  0.36240116  0.36499371  0.26712322  1
  O  O48  1  0.13500629  0.13759884  0.76712322  1
  O  O49  1  0.23277643  0.47288400  0.11457723  1
  O  O50  1  0.50659893  0.17570557  0.63723411  1
  O  O51  1  0.63463339  0.36262694  0.73331926  1
  O  O52  1  0.73296368  0.02654303  0.61443724  1
  O  O53  1  0.52654303  0.23296368  0.88556276  1
  O  O54  1  0.49340107  0.82429443  0.36276589  1
  O  O55  1  0.82505509  0.50612402  0.36206982  1
  F  F0  1  0.50000000  0.50000000  0.50000000  1
  F  F1  1  0.00000000  0.00000000  0.00000000  1
loop_
_geom_bond_atom_site_label_1
_geom_bond_atom_site_label_2
_geom_bond_distance
_geom_bond_site_symmetry_2
K0 O16 2.995815 1_555
K0 O5 2.995815 1_555
K0 O53 2.995815 1_554
K0 O38 2.995815 1_554
K0 O49 2.998122 1_555
K0 O12 2.998122 1_554
K0 O7 2.998122 1_554
K0 O45 2.998122 1_555
K1 O52 2.995815 1_455
K1 O20 2.995815 1_545
K1 O34 2.995815 1_455
K1 O4 2.995815 1_545
K1 O0 2.998122 1_445
K1 O27 2.998122 1_445
K1 O14 2.998122 1_555
K1 O10 2.998122 1_555
Ca0 O38 2.262434 1_554
Ca0 O16 2.262434 1_555
Ca0 H16 2.330000 1_554
Ca0 H5 2.330000 1_555
Ca0 O3 2.496680 1_565
Ca0 O28 2.496680 1_564
Ca1 O4 2.262434 1_545
Ca1 O20 2.262434 1_545
Ca1 H24 2.330000 1_555
Ca1 H17 2.330000 1_555
Ca1 O50 2.496680 1_555
Ca1 O42 2.496680 1_555
Ca2 O7 2.262118 1_554
Ca2 O49 2.262118 1_555
Ca2 H11 2.332574 1_554
Ca2 H30 2.332574 1_555
Ca2 O13 2.507659 1_454
Ca2 O29 2.507659 1_455
Ca3 O27 2.262118 1_455
Ca3 O0 2.262118 1_455
Ca3 H2 2.332574 1_555
Ca3 H29 2.332574 1_555
Ca3 O39 2.507659 1_555
Ca3 O6 2.507659 1_555
Ca4 O52 2.262434 1_565
Ca4 O34 2.262434 1_565
Ca4 H22 2.330000 1_555
Ca4 H13 2.330000 1_555
Ca4 O43 2.496680 1_555
Ca4 O54 2.496680 1_555
Ca5 O5 2.262434 1_555
Ca5 O53 2.262434 1_554
Ca5 H14 2.330000 1_554
Ca5 H31 2.330000 1_555
Ca5 O30 2.496680 1_544
Ca5 O37 2.496680 1_545
Ca6 O10 2.262118 1_655
Ca6 O14 2.262118 1_655
Ca6 H28 2.332574 1_555
Ca6 H7 2.332574 1_555
Ca6 O36 2.507659 1_555
Ca6 O55 2.507659 1_555
Ca7 O12 2.262118 1_554
Ca7 O45 2.262118 1_555
Ca7 H9 2.332574 1_554
Ca7 H4 2.332574 1_555
Ca7 O9 2.507659 1_655
Ca7 O26 2.507659 1_654
H0 O36 1.047064 1_555
H0 O27 1.619699 1_555
H1 O42 1.044651 1_555
H1 O34 1.629376 1_555
H2 H29 0.759553 1_555
H3 O30 1.044651 1_555
H3 O38 1.629376 1_555
H4 H9 0.759553 1_554
H6 O50 1.044651 1_555
H6 O52 1.629376 1_555
H8 O43 1.044651 1_555
H8 O20 1.629376 1_555
H10 O39 1.047064 1_555
H10 O14 1.619699 1_555
H11 H30 0.759553 1_556
H12 O29 1.047064 1_555
H12 O45 1.619699 1_555
H13 H22 0.758156 1_555
H14 H31 0.758156 1_556
H15 O37 1.044651 1_555
H15 O16 1.629376 1_555
H16 H5 0.758156 1_556
H17 H24 0.758156 1_555
H18 O26 1.047064 1_555
H18 O7 1.619699 1_555
H19 O28 1.044651 1_555
H19 O53 1.629376 1_555
H20 O55 1.047064 1_555
H20 O0 1.619699 1_555
H21 O54 1.044651 1_555
H21 O4 1.629376 1_555
H23 O6 1.047064 1_555
H23 O10 1.619699 1_555
H25 O9 1.047064 1_555
H25 O49 1.619699 1_555
H26 O3 1.044651 1_555
H26 O5 1.629376 1_555
H27 O13 1.047064 1_555
H27 O12 1.619699 1_555
H28 H7 0.759553 1_555
O0 Si12 1.653431 1_655
O1 Si7 1.627876 1_555
O1 Si5 1.670818 1_555
O2 Si9 1.626659 1_555
O2 Si4 1.671926 1_545
O3 Si1 1.801996 1_545
O4 Si10 1.653810 1_565
O5 Si15 1.653810 1_555
O6 Si13 1.799605 1_555
O7 Si13 1.653431 1_555
O8 Si0 1.627876 1_555
O8 Si2 1.670818 1_555
O9 Si6 1.799605 1_455
O10 Si9 1.653431 1_455
O11 Si11 1.940823 1_555
O11 Si8 1.940823 1_555
O12 Si5 1.653431 1_555
O13 Si3 1.799605 1_655
O14 Si6 1.653431 1_455
O15 Si13 1.949808 1_555
O15 Si3 1.949808 1_555
O16 Si0 1.653810 1_555
O17 Si6 1.949808 1_555
O17 Si2 1.949808 1_555
O18 Si15 1.940823 1_555
O18 Si10 1.940823 1_555
O19 Si9 1.949808 1_555
O19 Si5 1.949808 1_555
O20 Si8 1.653810 1_565
O21 Si13 1.626659 1_555
O21 Si7 1.671926 1_555
O22 Si3 1.626659 1_555
O22 Si8 1.671926 1_565
O23 Si11 1.627876 1_555
O23 Si13 1.670818 1_555
O24 Si6 1.626659 1_555
O24 Si1 1.671926 1_545
O25 Si12 1.626659 1_555
O25 Si10 1.671926 1_565
O26 Si9 1.799605 1_455
O27 Si3 1.653431 1_655
O28 Si4 1.801996 1_545
O29 Si12 1.799605 1_655
O30 Si8 1.801996 1_565
O31 Si1 1.940823 1_555
O31 Si0 1.940823 1_555
O32 Si14 1.949808 1_555
O32 Si12 1.949808 1_555
O33 Si14 1.626659 1_555
O33 Si0 1.671926 1_555
O34 Si1 1.653810 1_545
O35 Si4 1.940823 1_555
O35 Si7 1.940823 1_555
O36 Si5 1.799605 1_555
O37 Si10 1.801996 1_565
O38 Si7 1.653810 1_555
O39 Si14 1.799605 1_555
O40 Si1 1.627876 1_555
O40 Si12 1.670818 1_655
O41 Si4 1.627876 1_555
O41 Si3 1.670818 1_655
O42 Si15 1.801996 1_555
O43 Si7 1.801996 1_555
O44 Si2 1.626659 1_555
O44 Si15 1.671926 1_555
O45 Si2 1.653431 1_555
O46 Si10 1.627876 1_555
O46 Si6 1.670818 1_455
O47 Si15 1.627876 1_555
O47 Si14 1.670818 1_555
O48 Si8 1.627876 1_555
O48 Si9 1.670818 1_455
O49 Si14 1.653431 1_555
O50 Si11 1.801996 1_555
O51 Si5 1.626659 1_555
O51 Si11 1.671926 1_555
O52 Si4 1.653810 1_545
O53 Si11 1.653810 1_555
O54 Si0 1.801996 1_555
O55 Si2 1.799605 1_555
