# generated using pymatgen
data_MgMnZnSiO6
_symmetry_space_group_name_H-M   'P 1'
_cell_length_a   5.15463685
_cell_length_b   5.15463685
_cell_length_c   17.99936000
_cell_angle_alpha   90.00000000
_cell_angle_beta   90.00000000
_cell_angle_gamma   109.08208624
_symmetry_Int_Tables_number   1
_chemical_formula_structural   MgMnZnSiO6
_chemical_formula_sum   'Mg4 Mn4 Zn4 Si4 O24'
_cell_volume   451.96888466
_cell_formula_units_Z   4
loop_
 _symmetry_equiv_pos_site_id
 _symmetry_equiv_pos_as_xyz
  1  'x, y, z'
loop_
 _atom_site_type_symbol
 _atom_site_label
 _atom_site_symmetry_multiplicity
 _atom_site_fract_x
 _atom_site_fract_y
 _atom_site_fract_z
 _atom_site_occupancy
  Mg  Mg0  1  0.50000000  0.00000000  0.50000000  1
  Mg  Mg1  1  0.00000000  0.50000000  0.00000000  1
  Mg  Mg2  1  0.50000000  0.00000000  0.00000000  1
  Mg  Mg3  1  0.00000000  0.50000000  0.50000000  1
  Mn  Mn0  1  0.48268700  0.51731300  0.58408800  1
  Mn  Mn1  1  0.51731300  0.48268700  0.41591200  1
  Mn  Mn2  1  0.01731300  0.98268700  0.08408800  1
  Mn  Mn3  1  0.98268700  0.01731300  0.91591200  1
  Zn  Zn0  1  0.34975700  0.15024300  0.75000000  1
  Zn  Zn1  1  0.65024300  0.84975700  0.25000000  1
  Zn  Zn2  1  0.15024300  0.34975700  0.25000000  1
  Zn  Zn3  1  0.84975700  0.65024300  0.75000000  1
  Si  Si0  1  0.35653000  0.64347000  0.84719100  1
  Si  Si1  1  0.64347000  0.35653000  0.15280900  1
  Si  Si2  1  0.14347000  0.85653000  0.34719100  1
  Si  Si3  1  0.85653000  0.14347000  0.65280900  1
  O  O0  1  0.27149300  0.72850700  0.57475900  1
  O  O1  1  0.72850700  0.27149300  0.42524100  1
  O  O2  1  0.22850700  0.77149300  0.07475900  1
  O  O3  1  0.77149300  0.22850700  0.92524100  1
  O  O4  1  0.70612100  0.70612100  0.50000000  1
  O  O5  1  0.29387900  0.29387900  0.50000000  1
  O  O6  1  0.79387900  0.79387900  0.00000000  1
  O  O7  1  0.20612100  0.20612100  0.00000000  1
  O  O8  1  0.23854700  0.76145300  0.92013600  1
  O  O9  1  0.76145300  0.23854700  0.07986400  1
  O  O10  1  0.26145300  0.73854700  0.42013600  1
  O  O11  1  0.73854700  0.26145300  0.57986400  1
  O  O12  1  0.24103300  0.75896700  0.77341700  1
  O  O13  1  0.75896700  0.24103300  0.22658300  1
  O  O14  1  0.25896700  0.74103300  0.27341700  1
  O  O15  1  0.74103300  0.25896700  0.72658300  1
  O  O16  1  0.74294300  0.80016200  0.65591800  1
  O  O17  1  0.25705700  0.19983800  0.34408200  1
  O  O18  1  0.75705700  0.69983800  0.15591800  1
  O  O19  1  0.69983800  0.75705700  0.84408200  1
  O  O20  1  0.24294300  0.30016200  0.84408200  1
  O  O21  1  0.30016200  0.24294300  0.15591800  1
  O  O22  1  0.80016200  0.74294300  0.34408200  1
  O  O23  1  0.19983800  0.25705700  0.65591800  1
loop_
_geom_bond_atom_site_label_1
_geom_bond_atom_site_label_2
_geom_bond_distance
_geom_bond_site_symmetry_2
Mg0 O0 2.019587 1_545
Mg0 O1 2.019587 1_555
Mg0 O10 2.076329 1_545
Mg0 O11 2.076329 1_555
Mg0 O5 2.115645 1_555
Mg0 O4 2.115645 1_545
Mg1 O2 2.019587 1_555
Mg1 O3 2.019587 1_454
Mg1 O9 2.076329 1_455
Mg1 O8 2.076329 1_554
Mg1 O7 2.115645 1_555
Mg1 O6 2.115645 1_455
Mg2 O2 2.019587 1_545
Mg2 O3 2.019587 1_554
Mg2 O8 2.076329 1_544
Mg2 O9 2.076329 1_555
Mg2 O7 2.115645 1_555
Mg2 O6 2.115645 1_545
Mg3 O1 2.019587 1_455
Mg3 O0 2.019587 1_555
Mg3 O10 2.076329 1_555
Mg3 O11 2.076329 1_455
Mg3 O5 2.115645 1_555
Mg3 O4 2.115645 1_455
Mn0 O0 1.781375 1_555
Mn0 O5 1.957430 1_555
Mn0 O4 1.957430 1_555
Mn0 O16 2.078007 1_555
Mn0 O23 2.078007 1_555
Mn0 O11 2.149859 1_555
Mn1 O1 1.781375 1_555
Mn1 O5 1.957430 1_555
Mn1 O4 1.957430 1_555
Mn1 O17 2.078007 1_555
Mn1 O22 2.078007 1_555
Mn1 O10 2.149859 1_555
Mn2 O2 1.781375 1_555
Mn2 O6 1.957430 1_455
Mn2 O7 1.957430 1_565
Mn2 O21 2.078007 1_565
Mn2 O18 2.078007 1_455
Mn2 O9 2.149859 1_465
Mn3 O3 1.781375 1_555
Mn3 O6 1.957430 1_546
Mn3 O7 1.957430 1_656
Mn3 O20 2.078007 1_655
Mn3 O19 2.078007 1_545
Mn3 O8 2.149859 1_645
O8 Si0 1.644816 1_555
O9 Si1 1.644816 1_555
O10 Si2 1.644816 1_555
O11 Si3 1.644816 1_555
O12 Si0 1.644353 1_555
O12 Zn0 1.954612 1_565
O12 Zn3 1.954612 1_455
O13 Si1 1.644353 1_555
O13 Zn2 1.954612 1_655
O13 Zn1 1.954612 1_545
O14 Si2 1.644353 1_555
O14 Zn1 1.954612 1_555
O14 Zn2 1.954612 1_555
O15 Si3 1.644353 1_555
O15 Zn3 1.954612 1_555
O15 Zn0 1.954612 1_555
O16 Si3 1.673340 1_565
O16 Zn3 2.011514 1_555
O17 Si2 1.673340 1_545
O17 Zn2 2.011514 1_555
O18 Si1 1.673340 1_555
O18 Zn1 2.011514 1_555
O19 Si0 1.673340 1_555
O19 Zn3 2.011514 1_555
O20 Si0 1.673340 1_555
O20 Zn0 2.011514 1_555
O21 Si1 1.673340 1_555
O21 Zn2 2.011514 1_555
O22 Si2 1.673340 1_655
O22 Zn1 2.011514 1_555
O23 Si3 1.673340 1_455
O23 Zn0 2.011514 1_555
