# generated using pymatgen
data_Na21ZnS10Cl3O40
_symmetry_space_group_name_H-M   'P 1'
_cell_length_a   14.34246095
_cell_length_b   14.93967016
_cell_length_c   15.00902321
_cell_angle_alpha   110.70107214
_cell_angle_beta   110.44435613
_cell_angle_gamma   109.41824045
_symmetry_Int_Tables_number   1
_chemical_formula_structural   Na21ZnS10Cl3O40
_chemical_formula_sum   'Na42 Zn2 S20 Cl6 O80'
_cell_volume   2407.50604296
_cell_formula_units_Z   2
loop_
 _symmetry_equiv_pos_site_id
 _symmetry_equiv_pos_as_xyz
  1  'x, y, z'
loop_
 _atom_site_type_symbol
 _atom_site_label
 _atom_site_symmetry_multiplicity
 _atom_site_fract_x
 _atom_site_fract_y
 _atom_site_fract_z
 _atom_site_occupancy
  Na  Na0  1  0.23785562  0.02308597  0.03572335  1
  Na  Na1  1  0.13227416  0.60437300  0.72788813  1
  Na  Na2  1  0.07517839  0.04693180  0.84770202  1
  Na  Na3  1  0.98059467  0.48856544  0.22937433  1
  Na  Na4  1  0.04850149  0.76171229  0.04694457  1
  Na  Na5  1  0.25120849  0.78131920  0.28330386  1
  Na  Na6  1  0.37188230  0.61994339  0.51182679  1
  Na  Na7  1  0.48890512  0.75174013  0.91454606  1
  Na  Na8  1  0.25277003  0.22883049  0.76464115  1
  Na  Na9  1  0.27298870  0.48705940  0.20556866  1
  Na  Na10  1  0.25154062  0.22357900  0.35319830  1
  Na  Na11  1  0.42153713  0.41083454  0.75444143  1
  Na  Na12  1  0.23125028  0.99900260  0.47230846  1
  Na  Na13  1  0.51427276  0.76338717  0.46018149  1
  Na  Na14  1  0.71150268  0.98824850  0.77253223  1
  Na  Na15  1  0.25584474  0.47075722  0.95577494  1
  Na  Na16  1  0.53542724  0.22523889  0.77663448  1
  Na  Na17  1  0.76749015  0.69472540  0.97306529  1
  Na  Na18  1  0.49341984  0.97839265  0.79511406  1
  Na  Na19  1  0.70059906  0.72320821  0.64691535  1
  Na  Na20  1  0.68232932  0.96386435  0.44514166  1
  Na  Na21  1  0.54966124  0.23505647  0.53435912  1
  Na  Na22  1  0.53354947  0.54170740  0.27799125  1
  Na  Na23  1  0.26594845  0.85552116  0.84603170  1
  Na  Na24  1  0.50469190  0.52225280  0.65277696  1
  Na  Na25  1  0.45910892  0.97543011  0.28213914  1
  Na  Na26  1  0.47543731  0.35434585  0.04980061  1
  Na  Na27  1  0.79500045  0.81618250  0.30538228  1
  Na  Na28  1  0.74101563  0.52101035  0.54874354  1
  Na  Na29  1  0.79077720  0.27458381  0.75494838  1
  Na  Na30  1  0.78068872  0.36987083  0.38593501  1
  Na  Na31  1  0.08362741  0.14609116  0.08939225  1
  Na  Na32  1  0.55769462  0.67544136  0.08498081  1
  Na  Na33  1  0.14842968  0.48206490  0.48402618  1
  Na  Na34  1  0.96399437  0.26879142  0.00467230  1
  Na  Na35  1  0.96177777  0.53448780  0.81024816  1
  Na  Na36  1  0.00124799  0.96790634  0.22462440  1
  Na  Na37  1  0.75811809  0.22001836  0.17138729  1
  Na  Na38  1  0.91797488  0.00191737  0.61837451  1
  Na  Na39  1  0.48750992  0.15120672  0.99801862  1
  Na  Na40  1  0.84824950  0.49273529  0.00969407  1
  Na  Na41  1  0.75775407  0.99390764  0.02254422  1
  Zn  Zn0  1  0.01342645  0.80249622  0.49413550  1
  Zn  Zn1  1  0.97911116  0.28247622  0.55420465  1
  S  S0  1  0.00106580  0.57694732  0.50312084  1
  S  S1  1  0.24254707  0.98915876  0.72954544  1
  S  S2  1  0.99737010  0.07190390  0.48894345  1
  S  S3  1  0.24728523  0.47320077  0.73143865  1
  S  S4  1  0.00582450  0.22051252  0.23989806  1
  S  S5  1  0.06520711  0.50596690  0.02287202  1
  S  S6  1  0.52986832  0.77224969  0.74231051  1
  S  S7  1  0.48382162  0.98919377  0.06210188  1
  S  S8  1  0.43541340  0.45566061  0.42152421  1
  S  S9  1  0.46521878  0.72777096  0.22584933  1
  S  S10  1  0.24697469  0.28643242  0.01559106  1
  S  S11  1  0.27104434  0.02529370  0.26968605  1
  S  S12  1  0.92357119  0.90391271  0.93146184  1
  S  S13  1  0.52733844  0.01394910  0.57693982  1
  S  S14  1  0.72184394  0.23047596  0.95808780  1
  S  S15  1  0.74843762  0.50811065  0.77967416  1
  S  S16  1  0.77917268  0.75105164  0.49168691  1
  S  S17  1  0.58280155  0.48679867  0.97861114  1
  S  S18  1  0.76271461  0.23302340  0.48985092  1
  S  S19  1  0.98962334  0.74208442  0.26346594  1
  Cl  Cl0  1  0.11302539  0.73886456  0.87847193  1
  Cl  Cl1  1  0.22454602  0.60960564  0.34990347  1
  Cl  Cl2  1  0.38620928  0.23520983  0.59840532  1
  Cl  Cl3  1  0.71951769  0.84266556  0.10054868  1
  Cl  Cl4  1  0.61521568  0.34036923  0.20991820  1
  Cl  Cl5  1  0.90591712  0.11340707  0.78711634  1
  O  O0  1  0.04205793  0.97592826  0.95313147  1
  O  O1  1  0.16273160  0.96937968  0.77134907  1
  O  O2  1  0.17184006  0.93498222  0.60244168  1
  O  O3  1  0.11638088  0.43242539  0.66423008  1
  O  O4  1  0.11835894  0.80788071  0.33564555  1
  O  O5  1  0.12666986  0.62656574  0.58538871  1
  O  O6  1  0.31270112  0.93778465  0.75620429  1
  O  O7  1  0.01291776  0.17541480  0.48476896  1
  O  O8  1  0.43178592  0.86923334  0.97643007  1
  O  O9  1  0.07158456  0.10645578  0.60712698  1
  O  O10  1  0.30137528  0.59109839  0.82056628  1
  O  O11  1  0.20654357  0.27494768  0.90362945  1
  O  O12  1  0.06887327  0.31025003  0.35840877  1
  O  O13  1  0.26190252  0.40492206  0.78117881  1
  O  O14  1  0.24120809  0.90657194  0.20640677  1
  O  O15  1  0.02402550  0.26777078  0.17028427  1
  O  O16  1  0.09599871  0.62457398  0.07152640  1
  O  O17  1  0.99666327  0.45091084  0.06348702  1
  O  O18  1  0.29195624  0.46270199  0.65570452  1
  O  O19  1  0.02817814  0.01304823  0.41370446  1
  O  O20  1  0.41033080  0.95182410  0.47478479  1
  O  O21  1  0.40371901  0.73203743  0.68610712  1
  O  O22  1  0.05276087  0.14301959  0.23028348  1
  O  O23  1  0.59752254  0.89091950  0.83788457  1
  O  O24  1  0.17049179  0.49708975  0.05490035  1
  O  O25  1  0.32167117  0.11039983  0.77997931  1
  O  O26  1  0.55399560  0.70061413  0.78357314  1
  O  O27  1  0.48012795  0.36713633  0.89481022  1
  O  O28  1  0.56611094  0.55835241  0.93202316  1
  O  O29  1  0.42313643  0.80313033  0.26533971  1
  O  O30  1  0.15662007  0.27638641  0.04495095  1
  O  O31  1  0.59141907  0.95247045  0.56102401  1
  O  O32  1  0.36435726  0.45569618  0.47624527  1
  O  O33  1  0.20548259  0.03450235  0.32794502  1
  O  O34  1  0.56645722  0.76783223  0.65799020  1
  O  O35  1  0.36855282  0.34936946  0.31334841  1
  O  O36  1  0.46174276  0.55366644  0.40557682  1
  O  O37  1  0.45027259  0.65385882  0.27290230  1
  O  O38  1  0.23775779  0.06485103  0.19218204  1
  O  O39  1  0.35474629  0.40064332  0.10157197  1
  O  O40  1  0.40269389  0.65763701  0.10151102  1
  O  O41  1  0.66158743  0.54261916  0.77403910  1
  O  O42  1  0.59512117  0.17978027  0.92030210  1
  O  O43  1  0.59274075  0.79784328  0.27046523  1
  O  O44  1  0.27407400  0.19718805  0.01165550  1
  O  O45  1  0.54787141  0.47424819  0.50256812  1
  O  O46  1  0.73363305  0.82304734  0.53452133  1
  O  O47  1  0.39890741  0.09721019  0.35303339  1
  O  O48  1  0.51885202  0.02594035  0.67639118  1
  O  O49  1  0.84916095  0.80819682  0.81472962  1
  O  O50  1  0.59845062  0.12903713  0.60222168  1
  O  O51  1  0.69666907  0.38704754  0.74118914  1
  O  O52  1  0.76423762  0.67103867  0.52923090  1
  O  O53  1  0.84919236  0.57810558  0.89976199  1
  O  O54  1  0.74273248  0.28470210  0.89493316  1
  O  O55  1  0.72209409  0.69265306  0.36885827  1
  O  O56  1  0.58099360  0.52907813  0.08420786  1
  O  O57  1  0.79450745  0.52903574  0.70960056  1
  O  O58  1  0.75024652  0.14019846  0.93323639  1
  O  O59  1  0.87262900  0.99937910  0.45180494  1
  O  O60  1  0.39023958  0.01743892  0.02455816  1
  O  O61  1  0.70419567  0.29760077  0.49102342  1
  O  O62  1  0.90863400  0.83261716  0.54554836  1
  O  O63  1  0.52305014  0.01070543  0.17520725  1
  O  O64  1  0.68198115  0.11345887  0.43573360  1
  O  O65  1  0.69059499  0.48908932  0.99759134  1
  O  O66  1  0.86101486  0.27974972  0.60876394  1
  O  O67  1  0.99094037  0.44295027  0.89660300  1
  O  O68  1  0.94234713  0.77284564  0.34031166  1
  O  O69  1  0.58194142  0.06083759  0.05707327  1
  O  O70  1  0.87424315  0.97783462  0.95207867  1
  O  O71  1  0.93055673  0.53941095  0.55047767  1
  O  O72  1  0.83050743  0.25430141  0.43238513  1
  O  O73  1  0.98165327  0.65883526  0.47818014  1
  O  O74  1  0.96290801  0.47729917  0.39614501  1
  O  O75  1  0.93797576  0.86427087  0.01150170  1
  O  O76  1  0.94729281  0.77278840  0.17953587  1
  O  O77  1  0.79504534  0.31416789  0.08117941  1
  O  O78  1  0.94447572  0.62090681  0.20762214  1
  O  O79  1  0.87893430  0.15484069  0.19532181  1
loop_
_geom_bond_atom_site_label_1
_geom_bond_atom_site_label_2
_geom_bond_distance
_geom_bond_site_symmetry_2
Na0 O38 2.206986 1_555
Na0 O60 2.276037 1_555
Na0 O0 2.356748 1_544
Na0 O44 2.657562 1_555
Na1 O5 2.256039 1_555
Na1 O3 2.299361 1_555
Na1 O10 2.452443 1_555
Na1 O71 2.706767 1_455
Na2 O0 2.287277 1_545
Na2 O1 2.294886 1_545
Na2 O44 2.482929 1_556
Na2 O11 2.909389 1_555
Na3 O78 2.302879 1_555
Na3 O77 2.444418 1_555
Na3 O17 2.462833 1_555
Na3 O74 2.659145 1_555
Na4 O14 2.406349 1_555
Na4 O16 2.466706 1_555
Na4 O53 2.581939 1_454
Na4 O75 2.597233 1_455
Na4 O76 2.835453 1_455
Na5 O4 2.394409 1_555
Na5 O29 2.500340 1_555
Na5 O20 2.516644 1_555
Na5 O14 2.538471 1_555
Na5 O16 2.621233 1_555
Na6 O32 2.274899 1_555
Na6 O21 2.327108 1_555
Na6 O34 2.382999 1_555
Na6 O36 2.520431 1_555
Na7 O8 2.224869 1_555
Na7 O10 2.376503 1_555
Na7 O26 2.452315 1_555
Na8 O9 2.275511 1_555
Na8 O25 2.334880 1_555
Na8 O11 2.349426 1_555
Na8 O13 2.507215 1_555
Na8 O27 2.633430 1_555
Na9 O24 2.315394 1_555
Na9 O37 2.430558 1_555
Na9 O39 2.517676 1_555
Na9 O30 2.614442 1_555
Na9 O36 2.783920 1_555
Na10 O22 2.335479 1_555
Na10 O35 2.470766 1_555
Na10 O33 2.527177 1_555
Na10 O38 2.608780 1_555
Na10 O32 2.776316 1_555
Na11 O28 2.282161 1_555
Na11 O27 2.381453 1_555
Na11 O13 2.437900 1_555
Na11 O18 2.469010 1_555
Na12 O4 2.333859 1_555
Na12 O33 2.344360 1_565
Na12 O2 2.719779 1_555
Na12 O19 2.836873 1_565
Na12 O20 2.872402 1_555
Na13 O31 2.285581 1_555
Na13 O37 2.316931 1_555
Na13 O46 2.630157 1_555
Na13 O36 2.690658 1_555
Na13 O34 2.766635 1_555
Na14 O58 2.373540 1_565
Na14 O23 2.509347 1_555
Na14 O34 2.659132 1_555
Na14 O31 2.774590 1_555
Na14 O48 2.976169 1_565
Na14 O70 2.979595 1_555
Na15 O24 2.246243 1_556
Na15 O40 2.359979 1_556
Na15 O13 2.497142 1_555
Na15 O11 2.507874 1_555
Na15 O39 2.887540 1_556
Na16 O42 2.444617 1_555
Na16 O54 2.494521 1_555
Na16 O48 2.701444 1_555
Na16 O27 2.776954 1_555
Na17 O41 2.475963 1_555
Na17 O53 2.553832 1_555
Na17 O75 2.567262 1_556
Na17 O28 2.613334 1_555
Na17 O76 2.734227 1_556
Na18 O48 2.233725 1_565
Na18 O6 2.252512 1_555
Na18 O23 2.360103 1_555
Na18 O42 2.425029 1_565
Na19 O49 2.164985 1_555
Na19 O34 2.274086 1_555
Na19 O52 2.277378 1_555
Na20 O64 2.290141 1_565
Na20 O43 2.367825 1_555
Na20 O31 2.529858 1_555
Na20 O59 2.559266 1_555
Na21 O47 2.299736 1_555
Na21 O50 2.327109 1_555
Na21 O61 2.503660 1_555
Na21 O51 2.549308 1_555
Na22 O55 2.335047 1_555
Na22 O37 2.365826 1_555
Na22 O39 2.397218 1_555
Na22 O36 2.453114 1_555
Na23 O6 2.243389 1_555
Na23 O60 2.328615 1_566
Na23 O8 2.381233 1_555
Na23 O1 2.864358 1_555
Na24 O41 2.181944 1_555
Na24 O32 2.267418 1_555
Na24 O26 2.352306 1_555
Na24 O45 2.471477 1_555
Na24 O18 2.901608 1_555
Na25 O63 2.235944 1_565
Na25 O47 2.346379 1_565
Na25 O29 2.350098 1_555
Na25 O14 2.582887 1_555
Na25 O64 2.625425 1_565
Na26 O56 2.290425 1_555
Na26 O39 2.331171 1_555
Na26 O27 2.422302 1_554
Na26 O44 2.750819 1_555
Na27 O68 2.352844 1_555
Na27 O59 2.360524 1_555
Na27 O55 2.462263 1_555
Na27 O43 2.659492 1_555
Na27 O19 2.959518 1_665
Na28 O57 2.207274 1_555
Na28 O52 2.292663 1_555
Na28 O45 2.381569 1_555
Na28 O71 2.629643 1_555
Na28 O61 2.938294 1_555
Na29 O50 2.379546 1_555
Na29 O54 2.401700 1_555
Na29 O67 2.498513 1_555
Na29 O51 2.499183 1_555
Na29 O66 2.728900 1_555
Na30 O72 2.302376 1_555
Na30 O71 2.320320 1_555
Na30 O74 2.487349 1_555
Na30 O61 2.546050 1_555
Na31 O22 2.319242 1_555
Na31 O30 2.319654 1_555
Na31 O0 2.337824 1_544
Na31 O15 2.389007 1_555
Na31 O70 2.564946 1_444
Na32 O40 2.261245 1_555
Na32 O56 2.315972 1_555
Na32 O28 2.416567 1_554
Na32 O43 2.481739 1_555
Na33 O12 2.138595 1_555
Na33 O5 2.351604 1_555
Na33 O74 2.486104 1_455
Na33 O18 2.859740 1_555
Na34 O15 2.336781 1_655
Na34 O17 2.359431 1_555
Na34 O58 2.563212 1_554
Na34 O30 2.566571 1_655
Na35 O67 2.231528 1_555
Na35 O57 2.301185 1_555
Na35 O53 2.536404 1_555
Na36 O33 2.402725 1_565
Na36 O22 2.431274 1_565
Na36 O76 2.508707 1_455
Na36 O19 2.523029 1_565
Na36 O75 2.643719 1_455
Na37 O79 2.239232 1_555
Na37 O69 2.252794 1_555
Na37 O77 2.333247 1_555
Na38 O62 2.308212 1_545
Na38 O59 2.335668 1_545
Na38 O9 2.340898 1_655
Na38 O46 2.512983 1_545
Na39 O42 2.257560 1_555
Na39 O60 2.279461 1_556
Na39 O69 2.380316 1_556
Na40 O65 2.184708 1_554
Na40 O17 2.369335 1_555
Na40 O78 2.398629 1_555
Na40 O53 2.416844 1_554
Na40 O54 2.486622 1_554
Na41 O79 2.278385 1_565
Na41 O70 2.299831 1_554
Na41 O23 2.348332 1_554
Na41 O58 2.951557 1_564
Cl0 Na1 2.610683 1_555
Cl0 Na23 2.624745 1_555
Cl0 Na35 2.628829 1_455
Cl0 Na4 2.932812 1_556
Cl1 Na6 2.515079 1_555
Cl1 Na9 2.760583 1_555
Cl1 Na3 2.800552 1_455
Cl1 Na5 3.025572 1_555
Cl2 Na11 2.562901 1_555
Cl2 Na21 2.827740 1_555
Cl2 Na12 2.845894 1_545
Cl2 Na16 2.872725 1_555
Cl3 Na32 2.652496 1_555
Cl3 Na17 2.821424 1_554
Cl3 Na41 2.876051 1_555
Cl3 Na7 2.908544 1_554
Cl3 Na27 3.098359 1_555
Cl3 Na36 3.247901 1_655
Cl4 Na30 2.628170 1_555
Cl4 Na26 2.665608 1_555
Cl4 Na39 2.755108 1_554
Cl4 Na37 3.211113 1_555
Cl5 Na38 2.594929 1_555
Cl5 Na14 2.671463 1_545
Cl5 Na34 2.863579 1_556
Cl5 Na2 2.899293 1_655
O0 S12 1.517242 1_455
O1 S1 1.483025 1_555
O2 S1 1.527723 1_555
O2 Zn0 1.969061 1_555
O3 S3 1.547781 1_555
O3 Zn1 1.949951 1_455
O4 S19 1.480528 1_455
O5 S0 1.493466 1_555
O6 S1 1.486919 1_555
O7 S2 1.514606 1_455
O7 Zn1 1.889361 1_455
O8 S7 1.494420 1_556
O9 S2 1.488016 1_455
O10 S3 1.481331 1_555
O11 S10 1.496267 1_556
O12 S4 1.470803 1_555
O13 S3 1.487636 1_555
O14 S11 1.500497 1_565
O15 S4 1.499271 1_555
O16 S5 1.485822 1_555
O17 S5 1.500025 1_655
O18 S3 1.475365 1_555
O19 S2 1.465792 1_455
O20 S13 1.479624 1_565
O21 S6 1.482833 1_555
O22 S4 1.510720 1_555
O23 S6 1.492705 1_555
O24 S5 1.483248 1_555
O25 S1 1.485072 1_545
O26 S6 1.487873 1_555
O27 S17 1.520650 1_555
O28 S17 1.506869 1_555
O29 S9 1.487647 1_555
O30 S10 1.487433 1_555
O31 S13 1.518189 1_565
O32 S8 1.515896 1_555
O33 S11 1.497693 1_555
O34 S6 1.519652 1_555
O35 S8 1.467764 1_555
O36 S8 1.512273 1_555
O37 S9 1.504559 1_555
O38 S11 1.488622 1_555
O39 S10 1.504011 1_555
O40 S9 1.486073 1_555
O41 S15 1.486205 1_555
O42 S14 1.503186 1_555
O43 S9 1.505044 1_555
O44 S10 1.495701 1_555
O45 S8 1.500338 1_555
O46 S16 1.506127 1_555
O47 S11 1.489752 1_555
O48 S13 1.492426 1_555
O49 S12 1.470094 1_555
O50 S13 1.497609 1_555
O51 S15 1.491642 1_555
O52 S16 1.477363 1_555
O53 S15 1.507824 1_555
O54 S14 1.491459 1_555
O55 S16 1.470932 1_555
O56 S17 1.497801 1_554
O57 S15 1.490321 1_555
O58 S14 1.496634 1_555
O59 S2 1.507622 1_565
O60 S7 1.520992 1_545
O61 S18 1.473852 1_555
O62 S16 1.528582 1_555
O62 Zn0 2.017757 1_655
O63 S7 1.458939 1_545
O64 S18 1.460531 1_555
O65 S17 1.456971 1_555
O66 S18 1.538610 1_555
O66 Zn1 2.118449 1_555
O67 S5 1.508032 1_656
O68 S19 1.542739 1_555
O68 Zn0 1.974399 1_655
O69 S7 1.503833 1_545
O70 S12 1.498925 1_555
O71 S0 1.499740 1_655
O72 S18 1.537709 1_555
O72 Zn1 2.049345 1_555
O73 S0 1.480454 1_655
O73 Zn0 1.944596 1_655
O74 S0 1.499414 1_655
O75 S12 1.499187 1_554
O76 S19 1.491741 1_555
O77 S14 1.489228 1_554
O78 S19 1.472352 1_555
O79 S4 1.490091 1_655
