# generated using pymatgen
data_LiSiBiO4
_symmetry_space_group_name_H-M   'P 1'
_cell_length_a   10.37550300
_cell_length_b   14.89248900
_cell_length_c   5.39318800
_cell_angle_alpha   90.00000000
_cell_angle_beta   90.00000000
_cell_angle_gamma   90.00000000
_symmetry_Int_Tables_number   1
_chemical_formula_structural   LiSiBiO4
_chemical_formula_sum   'Li8 Si8 Bi8 O32'
_cell_volume   833.33957696
_cell_formula_units_Z   8
loop_
 _symmetry_equiv_pos_site_id
 _symmetry_equiv_pos_as_xyz
  1  'x, y, z'
loop_
 _atom_site_type_symbol
 _atom_site_label
 _atom_site_symmetry_multiplicity
 _atom_site_fract_x
 _atom_site_fract_y
 _atom_site_fract_z
 _atom_site_occupancy
  Li  Li0  1  0.02247800  0.75954700  0.02231100  1
  Li  Li1  1  0.22636500  0.99668200  0.49567300  1
  Li  Li2  1  0.27363500  0.49668200  0.49567300  1
  Li  Li3  1  0.47752200  0.25954700  0.02231100  1
  Li  Li4  1  0.52247800  0.75954700  0.97768900  1
  Li  Li5  1  0.72636500  0.99668200  0.50432700  1
  Li  Li6  1  0.77363500  0.49668200  0.50432700  1
  Li  Li7  1  0.97752200  0.25954700  0.97768900  1
  Si  Si0  1  0.02545400  0.37727100  0.46221000  1
  Si  Si1  1  0.23180100  0.12748300  0.01446100  1
  Si  Si2  1  0.26819900  0.62748300  0.01446100  1
  Si  Si3  1  0.47454600  0.87727100  0.46221000  1
  Si  Si4  1  0.52545400  0.37727100  0.53779000  1
  Si  Si5  1  0.73180100  0.12748300  0.98553900  1
  Si  Si6  1  0.76819900  0.62748300  0.98553900  1
  Si  Si7  1  0.97454600  0.87727100  0.53779000  1
  Bi  Bi0  1  0.03409700  0.51048500  0.96066400  1
  Bi  Bi1  1  0.22956700  0.74025600  0.51282800  1
  Bi  Bi2  1  0.27043300  0.24025600  0.51282800  1
  Bi  Bi3  1  0.46590300  0.01048500  0.96066400  1
  Bi  Bi4  1  0.53409700  0.51048500  0.03933600  1
  Bi  Bi5  1  0.72956700  0.74025600  0.48717200  1
  Bi  Bi6  1  0.77043300  0.24025600  0.48717200  1
  Bi  Bi7  1  0.96590300  0.01048500  0.03933600  1
  O  O0  1  0.99820300  0.87285500  0.83745100  1
  O  O1  1  0.95897100  0.46745400  0.58899500  1
  O  O2  1  0.03831100  0.78476500  0.40912800  1
  O  O3  1  0.07723300  0.14579000  0.04440500  1
  O  O4  1  0.18093500  0.37809800  0.52931500  1
  O  O5  1  0.23635400  0.54610500  0.81579800  1
  O  O6  1  0.30218600  0.22172600  0.91329900  1
  O  O7  1  0.30312700  0.09708400  0.27341500  1
  O  O8  1  0.19687300  0.59708400  0.27341500  1
  O  O9  1  0.19781400  0.72172600  0.91329900  1
  O  O10  1  0.26364600  0.04610500  0.81579800  1
  O  O11  1  0.31906500  0.87809800  0.52931500  1
  O  O12  1  0.42276700  0.64579000  0.04440500  1
  O  O13  1  0.46168900  0.28476500  0.40912800  1
  O  O14  1  0.54102900  0.96745400  0.58899500  1
  O  O15  1  0.50179700  0.37285500  0.83745100  1
  O  O16  1  0.49820300  0.87285500  0.16254900  1
  O  O17  1  0.45897100  0.46745400  0.41100500  1
  O  O18  1  0.53831100  0.78476500  0.59087200  1
  O  O19  1  0.57723300  0.14579000  0.95559500  1
  O  O20  1  0.68093500  0.37809800  0.47068500  1
  O  O21  1  0.73635400  0.54610500  0.18420200  1
  O  O22  1  0.80218600  0.22172600  0.08670100  1
  O  O23  1  0.80312700  0.09708400  0.72658500  1
  O  O24  1  0.69687300  0.59708400  0.72658500  1
  O  O25  1  0.69781400  0.72172600  0.08670100  1
  O  O26  1  0.76364600  0.04610500  0.18420200  1
  O  O27  1  0.81906500  0.87809800  0.47068500  1
  O  O28  1  0.92276700  0.64579000  0.95559500  1
  O  O29  1  0.96168900  0.28476500  0.59087200  1
  O  O30  1  0.04102900  0.96745400  0.41100500  1
  O  O31  1  0.00179700  0.37285500  0.16254900  1
loop_
_geom_bond_atom_site_label_1
_geom_bond_atom_site_label_2
_geom_bond_distance
_geom_bond_site_symmetry_2
Li0 O0 1.976072 1_454
Li0 O9 1.993085 1_554
Li0 O28 2.017380 1_454
Li0 O2 2.126068 1_555
Li1 O10 1.916284 1_565
Li1 O11 2.019106 1_555
Li1 O30 2.023791 1_555
Li1 O7 2.075304 1_565
Li2 O5 1.916284 1_555
Li2 O4 2.019106 1_555
Li2 O17 2.023791 1_555
Li2 O8 2.075304 1_555
Li3 O15 1.976072 1_554
Li3 O6 1.993085 1_554
Li3 O19 2.017380 1_554
Li3 O13 2.126068 1_555
Li4 O16 1.976072 1_556
Li4 O25 1.993085 1_556
Li4 O12 2.017380 1_556
Li4 O18 2.126068 1_555
Li5 O26 1.916284 1_565
Li5 O27 2.019106 1_555
Li5 O14 2.023791 1_555
Li5 O23 2.075304 1_565
Li6 O21 1.916284 1_555
Li6 O20 2.019106 1_555
Li6 O1 2.023791 1_555
Li6 O24 2.075304 1_555
Li7 O31 1.976072 1_656
Li7 O22 1.993085 1_556
Li7 O3 2.017380 1_656
Li7 O29 2.126068 1_555
Bi0 O1 2.244146 1_455
Bi0 O5 2.301215 1_555
Bi0 O28 2.322790 1_455
Bi0 O31 2.344970 1_556
Bi0 O8 2.713048 1_556
Bi1 O2 2.165620 1_555
Bi1 O9 2.202157 1_555
Bi1 O11 2.254819 1_555
Bi1 O8 2.515648 1_555
Bi2 O13 2.165620 1_555
Bi2 O6 2.202157 1_555
Bi2 O4 2.254819 1_555
Bi2 O7 2.515648 1_555
Bi3 O14 2.244146 1_545
Bi3 O10 2.301215 1_555
Bi3 O19 2.322790 1_555
Bi3 O16 2.344970 1_546
Bi3 O7 2.713048 1_556
Bi4 O17 2.244146 1_555
Bi4 O21 2.301215 1_555
Bi4 O12 2.322790 1_555
Bi4 O15 2.344970 1_554
Bi4 O24 2.713048 1_554
Bi5 O18 2.165620 1_555
Bi5 O25 2.202157 1_555
Bi5 O27 2.254819 1_555
Bi5 O24 2.515648 1_555
Bi6 O29 2.165620 1_555
Bi6 O22 2.202157 1_555
Bi6 O20 2.254819 1_555
Bi6 O23 2.515648 1_555
Bi7 O30 2.244146 1_645
Bi7 O26 2.301215 1_555
Bi7 O3 2.322790 1_655
Bi7 O0 2.344970 1_544
Bi7 O23 2.713048 1_554
O0 Si7 1.635984 1_555
O1 Si0 1.657452 1_655
O2 Si7 1.678424 1_455
O3 Si1 1.634727 1_555
O4 Si0 1.653337 1_555
O5 Si2 1.651023 1_556
O6 Si1 1.673565 1_556
O7 Si1 1.644103 1_555
O8 Si2 1.644103 1_555
O9 Si2 1.673565 1_556
O10 Si1 1.651023 1_556
O11 Si3 1.653337 1_555
O12 Si2 1.634727 1_555
O13 Si4 1.678424 1_555
O14 Si3 1.657452 1_555
O15 Si4 1.635984 1_555
O16 Si3 1.635984 1_555
O17 Si4 1.657452 1_555
O18 Si3 1.678424 1_555
O19 Si5 1.634727 1_555
O20 Si4 1.653337 1_555
O21 Si6 1.651023 1_554
O22 Si5 1.673565 1_554
O23 Si5 1.644103 1_555
O24 Si6 1.644103 1_555
O25 Si6 1.673565 1_554
O26 Si5 1.651023 1_554
O27 Si7 1.653337 1_555
O28 Si6 1.634727 1_555
O29 Si0 1.678424 1_655
O30 Si7 1.657452 1_455
O31 Si0 1.635984 1_555
