# generated using pymatgen
data_Y5Pb3
_symmetry_space_group_name_H-M   'P 1'
_cell_length_a   6.65811250
_cell_length_b   9.03356301
_cell_length_c   9.03353908
_cell_angle_alpha   120.00009138
_cell_angle_beta   90.00000000
_cell_angle_gamma   90.00000000
_symmetry_Int_Tables_number   1
_chemical_formula_structural   Y5Pb3
_chemical_formula_sum   'Y10 Pb6'
_cell_volume   470.54197051
_cell_formula_units_Z   2
loop_
 _symmetry_equiv_pos_site_id
 _symmetry_equiv_pos_as_xyz
  1  'x, y, z'
loop_
 _atom_site_type_symbol
 _atom_site_label
 _atom_site_symmetry_multiplicity
 _atom_site_fract_x
 _atom_site_fract_y
 _atom_site_fract_z
 _atom_site_occupancy
  Y  Y0  1  0.50000641  0.33333749  0.66666555  1
  Y  Y1  1  0.50000641  0.66667393  0.33333445  1
  Y  Y2  1  0.00000641  0.66666251  0.33333445  1
  Y  Y3  1  0.00000641  0.33332607  0.66666555  1
  Y  Y4  1  0.74999115  0.23886054  0.00000000  1
  Y  Y5  1  0.74999362  0.76114822  0.76114606  1
  Y  Y6  1  0.74999362  0.00000116  0.23885294  1
  Y  Y7  1  0.24999115  0.76113946  -0.00000000  1
  Y  Y8  1  0.24999362  0.23885178  0.23885394  1
  Y  Y9  1  0.24999362  0.99999884  0.76114706  1
  Pb  Pb0  1  0.75001874  0.60646300  -0.00000000  1
  Pb  Pb1  1  0.74999553  0.39354084  0.39353606  1
  Pb  Pb2  1  0.74999553  0.00000578  0.60646394  1
  Pb  Pb3  1  0.25001874  0.39353700  0.00000000  1
  Pb  Pb4  1  0.24999553  0.60645916  0.60646394  1
  Pb  Pb5  1  0.24999553  0.99999422  0.39353606  1
loop_
_geom_bond_atom_site_label_1
_geom_bond_atom_site_label_2
_geom_bond_distance
_geom_bond_site_symmetry_2
Pb0 Y6 3.102144 1_565
Pb0 Y5 3.102152 1_554
Pb0 Y2 3.239729 1_655
Pb0 Y3 3.239734 1_654
Pb0 Y1 3.239783 1_555
Pb0 Y0 3.239788 1_554
Pb0 Y4 3.320760 1_555
Pb0 Y7 3.610233 1_655
Pb0 Y7 3.610572 1_555
Pb1 Y4 3.102125 1_555
Pb1 Y6 3.102161 1_555
Pb1 Y0 3.239714 1_555
Pb1 Y2 3.239724 1_655
Pb1 Y1 3.239737 1_555
Pb1 Y3 3.239845 1_655
Pb1 Y5 3.320807 1_555
Pb1 Y8 3.610421 1_655
Pb1 Y8 3.610445 1_555
Pb2 Y4 3.102124 1_556
Pb2 Y5 3.102162 1_545
Pb2 Y3 3.239702 1_655
Pb2 Y1 3.239709 1_545
Pb2 Y0 3.239714 1_555
Pb2 Y2 3.239840 1_645
Pb2 Y6 3.320807 1_555
Pb2 Y9 3.610425 1_645
Pb2 Y9 3.610448 1_545
Pb3 Y9 3.102144 1_544
Pb3 Y8 3.102152 1_555
Pb3 Y0 3.239729 1_554
Pb3 Y1 3.239734 1_555
Pb3 Y3 3.239783 1_554
Pb3 Y2 3.239788 1_555
Pb3 Y7 3.320760 1_555
Pb3 Y4 3.610233 1_555
Pb3 Y4 3.610572 1_455
Pb4 Y7 3.102125 1_556
Pb4 Y9 3.102161 1_555
Pb4 Y2 3.239714 1_555
Pb4 Y0 3.239724 1_555
Pb4 Y3 3.239737 1_555
Pb4 Y1 3.239845 1_555
Pb4 Y8 3.320807 1_555
Pb4 Y5 3.610421 1_555
Pb4 Y5 3.610445 1_455
Pb5 Y7 3.102124 1_555
Pb5 Y8 3.102162 1_565
Pb5 Y1 3.239702 1_555
Pb5 Y3 3.239709 1_565
Pb5 Y2 3.239714 1_555
Pb5 Y0 3.239840 1_565
Pb5 Y9 3.320807 1_555
Pb5 Y6 3.610425 1_565
Pb5 Y6 3.610448 1_465
