# generated using pymatgen
data_NdTiFe11C
_symmetry_space_group_name_H-M   'P 1'
_cell_length_a   4.95467300
_cell_length_b   6.52996819
_cell_length_c   6.52996819
_cell_angle_alpha   97.98396887
_cell_angle_beta   112.29525211
_cell_angle_gamma   67.70474789
_symmetry_Int_Tables_number   1
_chemical_formula_structural   NdTiFe11C
_chemical_formula_sum   'Nd1 Ti1 Fe11 C1'
_cell_volume   180.85874464
_cell_formula_units_Z   1
loop_
 _symmetry_equiv_pos_site_id
 _symmetry_equiv_pos_as_xyz
  1  'x, y, z'
loop_
 _atom_site_type_symbol
 _atom_site_label
 _atom_site_symmetry_multiplicity
 _atom_site_fract_x
 _atom_site_fract_y
 _atom_site_fract_z
 _atom_site_occupancy
  Nd  Nd0  1  0.00670600  0.99329400  0.00670600  1
  Ti  Ti0  1  0.63349800  0.36650200  0.63349800  1
  Fe  Fe0  1  0.72487300  0.77512700  0.22487300  1
  Fe  Fe1  1  0.27691400  0.22308600  0.77691400  1
  Fe  Fe2  1  0.49777200  0.78082100  0.77636600  1
  Fe  Fe3  1  0.49777200  0.22363400  0.21917900  1
  Fe  Fe4  1  0.50013600  0.99750700  0.49902900  1
  Fe  Fe5  1  0.00138600  0.99750700  0.49902900  1
  Fe  Fe6  1  0.50013600  0.50097100  0.00249300  1
  Fe  Fe7  1  0.00138600  0.50097100  0.00249300  1
  Fe  Fe8  1  0.35841700  0.64158300  0.35841700  1
  Fe  Fe9  1  0.99976100  0.36028800  0.35981000  1
  Fe  Fe10  1  0.99976100  0.64019000  0.63971200  1
  C  C0  1  0.50148200  0.99851800  0.00148200  1
loop_
_geom_bond_atom_site_label_1
_geom_bond_atom_site_label_2
_geom_bond_distance
_geom_bond_site_symmetry_2
Nd0 Ti0 3.179447 1_464
Fe0 Fe4 2.473253 1_555
Fe0 Fe6 2.473253 1_555
Fe0 Fe5 2.473253 1_655
Fe0 Fe7 2.473253 1_655
Fe0 Fe10 2.631070 1_555
Fe0 Fe9 2.631070 1_555
Fe1 Fe4 2.495963 1_545
Fe1 Fe6 2.495963 1_556
Fe1 Fe5 2.495963 1_545
Fe1 Fe7 2.495963 1_556
Fe1 Fe9 2.648259 1_455
Fe1 Fe10 2.648259 1_455
Fe1 Ti0 2.762241 1_555
Fe1 Ti0 2.762242 1_455
Fe2 Fe5 2.454068 1_555
Fe2 Fe4 2.454071 1_555
Fe2 Fe6 2.498028 1_556
Fe2 Fe7 2.498031 1_656
Fe2 Ti0 2.652668 1_555
Fe3 Fe7 2.454068 1_555
Fe3 Fe6 2.454071 1_555
Fe3 Fe4 2.498028 1_545
Fe3 Fe5 2.498031 1_645
Fe3 Ti0 2.652668 1_555
Fe3 Fe9 2.747551 1_455
Fe3 Fe9 2.747555 1_555
Fe4 Fe5 2.471143 1_555
Fe4 Fe5 2.483530 1_655
Fe4 Fe8 2.625673 1_555
Fe4 Fe9 2.648899 1_465
Fe4 Ti0 2.682073 1_565
Fe4 Nd0 3.221167 1_555
Fe4 Nd0 3.309066 1_656
Fe5 Fe8 2.625673 1_555
Fe5 Fe9 2.648899 1_465
Fe5 Ti0 2.682073 1_465
Fe5 Nd0 3.221166 1_555
Fe5 Nd0 3.309066 1_556
Fe6 Fe7 2.471143 1_555
Fe6 Fe7 2.483530 1_655
Fe6 Fe8 2.625673 1_555
Fe6 Fe9 2.627440 1_555
Fe6 Ti0 2.682073 1_554
Fe6 Nd0 3.221167 1_555
Fe6 Nd0 3.309066 1_645
Fe7 Fe8 2.625673 1_555
Fe7 Fe9 2.627440 1_455
Fe7 Ti0 2.682073 1_454
Fe7 Nd0 3.221166 1_555
Fe7 Nd0 3.309066 1_545
Fe8 Ti0 2.343480 1_555
Fe8 Fe9 3.004245 1_455
Fe8 Fe9 3.004245 1_555
Fe9 Ti0 2.978862 1_555
Fe9 Ti0 2.978862 1_655
Fe9 Nd0 3.085996 1_645
Fe10 Fe9 2.398611 1_555
Fe10 Fe5 2.627440 1_655
Fe10 Fe4 2.627440 1_555
Fe10 Fe7 2.648899 1_656
Fe10 Fe6 2.648899 1_656
Fe10 Fe2 2.747551 1_655
Fe10 Fe2 2.747555 1_555
Fe10 Ti0 2.978862 1_555
Fe10 Ti0 2.978862 1_655
Fe10 Fe8 3.004245 1_655
Fe10 Fe8 3.004245 1_555
Fe10 Nd0 3.085996 1_656
C0 Fe2 1.897599 1_554
C0 Fe3 1.897599 1_565
C0 Fe0 1.903121 1_555
C0 Fe1 1.913148 1_564
C0 Nd0 2.477736 1_555
C0 Nd0 2.477736 1_655
