# generated using pymatgen
data_Yb(Al5Os)2
_symmetry_space_group_name_H-M   'P 1'
_cell_length_a   6.90064476
_cell_length_b   6.90064476
_cell_length_c   9.13906500
_cell_angle_alpha   90.00000000
_cell_angle_beta   90.00000000
_cell_angle_gamma   96.34482928
_symmetry_Int_Tables_number   1
_chemical_formula_structural   Yb(Al5Os)2
_chemical_formula_sum   'Yb2 Al20 Os4'
_cell_volume   432.52656286
_cell_formula_units_Z   2
loop_
 _symmetry_equiv_pos_site_id
 _symmetry_equiv_pos_as_xyz
  1  'x, y, z'
loop_
 _atom_site_type_symbol
 _atom_site_label
 _atom_site_symmetry_multiplicity
 _atom_site_fract_x
 _atom_site_fract_y
 _atom_site_fract_z
 _atom_site_occupancy
  Yb  Yb0  1  0.62617800  0.37382200  0.75000000  1
  Yb  Yb1  1  0.37382200  0.62617800  0.25000000  1
  Al  Al0  1  0.28268600  0.02271900  0.75000000  1
  Al  Al1  1  0.02271900  0.28268600  0.25000000  1
  Al  Al2  1  0.71731400  0.97728100  0.25000000  1
  Al  Al3  1  0.97728100  0.71731400  0.75000000  1
  Al  Al4  1  0.87647000  0.12353000  0.95548200  1
  Al  Al5  1  0.12353000  0.87647000  0.04451800  1
  Al  Al6  1  0.87647000  0.12353000  0.54451800  1
  Al  Al7  1  0.12353000  0.87647000  0.45548200  1
  Al  Al8  1  0.64358200  0.91586500  0.75000000  1
  Al  Al9  1  0.91586500  0.64358200  0.25000000  1
  Al  Al10  1  0.35641800  0.08413500  0.25000000  1
  Al  Al11  1  0.08413500  0.35641800  0.75000000  1
  Al  Al12  1  0.34469800  0.65530200  0.90043800  1
  Al  Al13  1  0.65530200  0.34469800  0.09956200  1
  Al  Al14  1  0.34469800  0.65530200  0.59956200  1
  Al  Al15  1  0.65530200  0.34469800  0.40043800  1
  Al  Al16  1  0.72325400  0.72325400  0.00000000  1
  Al  Al17  1  0.72325400  0.72325400  0.50000000  1
  Al  Al18  1  0.27674600  0.27674600  0.00000000  1
  Al  Al19  1  0.27674600  0.27674600  0.50000000  1
  Os  Os0  1  0.50000000  0.00000000  0.00000000  1
  Os  Os1  1  0.00000000  0.50000000  0.00000000  1
  Os  Os2  1  0.50000000  0.00000000  0.50000000  1
  Os  Os3  1  0.00000000  0.50000000  0.50000000  1
loop_
_geom_bond_atom_site_label_1
_geom_bond_atom_site_label_2
_geom_bond_distance
_geom_bond_site_symmetry_2
Al0 Al8 2.674274 1_545
Al0 Os2 2.746911 1_555
Al0 Os0 2.746911 1_556
Al0 Al11 2.806635 1_555
Al0 Al3 2.810935 1_445
Al0 Al18 2.882803 1_556
Al0 Al19 2.882803 1_555
Al0 Al14 2.956602 1_545
Al0 Al12 2.956602 1_545
Al0 Al7 3.037196 1_545
Al0 Al5 3.037196 1_546
Al0 Yb0 3.196752 1_555
Al1 Al9 2.674274 1_455
Al1 Os3 2.746911 1_555
Al1 Os1 2.746911 1_555
Al1 Al10 2.806635 1_555
Al1 Al2 2.810935 1_445
Al1 Al19 2.882803 1_555
Al1 Al18 2.882803 1_555
Al1 Al15 2.956602 1_455
Al1 Al13 2.956602 1_455
Al1 Al4 3.037196 1_454
Al1 Al6 3.037196 1_455
Al1 Yb1 3.196752 1_555
Al2 Os2 2.746911 1_565
Al2 Os0 2.746911 1_565
Al2 Al9 2.806635 1_555
Al2 Al4 3.037196 1_564
Al2 Al6 3.037196 1_565
Al2 Yb1 3.196752 1_555
Al3 Os3 2.746911 1_655
Al3 Os1 2.746911 1_656
Al3 Al8 2.806635 1_555
Al3 Al7 3.037196 1_655
Al3 Al5 3.037196 1_656
Al3 Yb0 3.196752 1_555
Al4 Os1 2.674271 1_656
Al4 Os0 2.674271 1_556
Al4 Yb0 3.186248 1_555
Al5 Os0 2.674271 1_565
Al5 Os1 2.674271 1_555
Al5 Yb1 3.186248 1_555
Al6 Os3 2.674271 1_655
Al6 Os2 2.674271 1_555
Al6 Yb0 3.186248 1_555
Al7 Os2 2.674271 1_565
Al7 Os3 2.674271 1_555
Al7 Yb1 3.186248 1_555
Al8 Os0 2.581876 1_566
Al8 Os2 2.581876 1_565
Al8 Yb0 3.175715 1_565
Al9 Os3 2.581876 1_655
Al9 Os1 2.581876 1_655
Al9 Yb1 3.175715 1_655
Al10 Os0 2.581876 1_555
Al10 Os2 2.581876 1_555
Al10 Al2 2.674274 1_545
Al10 Al15 2.925313 1_555
Al10 Al13 2.925313 1_555
Al10 Yb1 3.175715 1_545
Al11 Os3 2.581876 1_555
Al11 Os1 2.581876 1_556
Al11 Al3 2.674274 1_455
Al11 Al12 2.925313 1_555
Al11 Al14 2.925313 1_555
Al11 Yb0 3.175715 1_455
Al12 Al5 2.628167 1_556
Al12 Os0 2.659122 1_566
Al12 Os1 2.659122 1_556
Al12 Al14 2.749725 1_555
Al12 Al16 2.757004 1_556
Al12 Al18 2.757004 1_556
Al12 Al8 2.925313 1_555
Al12 Al3 2.956602 1_455
Al12 Yb0 3.204673 1_555
Al12 Yb1 3.208679 1_556
Al13 Al4 2.628167 1_554
Al13 Os1 2.659122 1_655
Al13 Os0 2.659122 1_555
Al13 Al15 2.749725 1_555
Al13 Al16 2.757004 1_555
Al13 Al18 2.757004 1_555
Al13 Al9 2.925313 1_555
Al13 Al2 2.956602 1_545
Al13 Yb1 3.204673 1_555
Al13 Yb0 3.208679 1_554
Al14 Al7 2.628167 1_555
Al14 Os2 2.659122 1_565
Al14 Os3 2.659122 1_555
Al14 Al17 2.757004 1_555
Al14 Al19 2.757004 1_555
Al14 Al8 2.925313 1_555
Al14 Al3 2.956602 1_455
Al14 Yb0 3.204673 1_555
Al14 Yb1 3.208679 1_555
Al15 Al6 2.628167 1_555
Al15 Os3 2.659122 1_655
Al15 Os2 2.659122 1_555
Al15 Al17 2.757004 1_555
Al15 Al19 2.757004 1_555
Al15 Al9 2.925313 1_555
Al15 Al2 2.956602 1_545
Al15 Yb1 3.204673 1_555
Al15 Yb0 3.208679 1_555
Al16 Os1 2.582783 1_655
Al16 Os0 2.582783 1_565
Al16 Al2 2.882803 1_555
Al16 Al3 2.882803 1_554
Al16 Yb1 3.335608 1_555
Al16 Yb0 3.335608 1_554
Al17 Os3 2.582783 1_655
Al17 Os2 2.582783 1_565
Al17 Al2 2.882803 1_555
Al17 Al3 2.882803 1_555
Al17 Yb1 3.335608 1_555
Al17 Yb0 3.335608 1_555
Al18 Os1 2.582783 1_555
Al18 Os0 2.582783 1_555
Al18 Yb0 3.335608 1_554
Al18 Yb1 3.335608 1_555
Al19 Os2 2.582783 1_555
Al19 Os3 2.582783 1_555
Al19 Yb0 3.335608 1_555
Al19 Yb1 3.335608 1_555
Os0 Yb0 3.483713 1_554
Os0 Yb1 3.483713 1_545
Os1 Yb0 3.483713 1_454
Os1 Yb1 3.483713 1_555
Os2 Yb0 3.483713 1_555
Os2 Yb1 3.483713 1_545
Os3 Yb1 3.483713 1_555
Os3 Yb0 3.483713 1_455
