# generated using pymatgen
data_MnZnP2O7
_symmetry_space_group_name_H-M   'P 1'
_cell_length_a   5.62123908
_cell_length_b   12.47184638
_cell_length_c   7.46616284
_cell_angle_alpha   83.15993929
_cell_angle_beta   85.78159854
_cell_angle_gamma   97.37301672
_symmetry_Int_Tables_number   1
_chemical_formula_structural   MnZnP2O7
_chemical_formula_sum   'Mn4 Zn4 P8 O28'
_cell_volume   513.30722573
_cell_formula_units_Z   4
loop_
 _symmetry_equiv_pos_site_id
 _symmetry_equiv_pos_as_xyz
  1  'x, y, z'
loop_
 _atom_site_type_symbol
 _atom_site_label
 _atom_site_symmetry_multiplicity
 _atom_site_fract_x
 _atom_site_fract_y
 _atom_site_fract_z
 _atom_site_occupancy
  Mn  Mn0  1  0.84209400  0.57784300  0.19441200  1
  Mn  Mn1  1  0.15801100  0.42214100  0.80540500  1
  Mn  Mn2  1  0.34177900  0.07786900  0.19480500  1
  Mn  Mn3  1  0.65787100  0.92221300  0.80566100  1
  Zn  Zn0  1  0.65730800  0.32620700  0.65335100  1
  Zn  Zn1  1  0.15738300  0.82619100  0.65333100  1
  Zn  Zn2  1  0.84254400  0.17379500  0.34663000  1
  Zn  Zn3  1  0.34269400  0.67375100  0.34664800  1
  P  P0  1  0.53921300  0.34170000  0.08905400  1
  P  P1  1  0.03926500  0.84172000  0.08906400  1
  P  P2  1  0.96083600  0.15831900  0.91095400  1
  P  P3  1  0.46082300  0.65831600  0.91089400  1
  P  P4  1  0.31904300  0.09904000  0.61517400  1
  P  P5  1  0.81905800  0.59902200  0.61507000  1
  P  P6  1  0.18091900  0.40095800  0.38487300  1
  P  P7  1  0.68095000  0.90093400  0.38488100  1
  O  O0  1  0.45215600  0.34269300  0.89755500  1
  O  O1  1  0.95228500  0.84270300  0.89755200  1
  O  O2  1  0.04776900  0.15731600  0.10249100  1
  O  O3  1  0.54781600  0.65730300  0.10240100  1
  O  O4  1  0.74552400  0.43024700  0.10196900  1
  O  O5  1  0.24546100  0.93031700  0.10203200  1
  O  O6  1  0.75463000  0.06976200  0.89796000  1
  O  O7  1  0.25453300  0.56977000  0.89796100  1
  O  O8  1  0.58405500  0.22723200  0.16867300  1
  O  O9  1  0.08424300  0.72726900  0.16866800  1
  O  O10  1  0.91587600  0.27276300  0.83131400  1
  O  O11  1  0.41596100  0.77277200  0.83128200  1
  O  O12  1  0.94010300  0.32384100  0.42633700  1
  O  O13  1  0.44009400  0.82382900  0.42634600  1
  O  O14  1  0.55989900  0.17615000  0.57364000  1
  O  O15  1  0.05991200  0.67612400  0.57362300  1
  O  O16  1  0.15603200  0.10878500  0.45920400  1
  O  O17  1  0.65615000  0.60877300  0.45904500  1
  O  O18  1  0.34382500  0.39120700  0.54090500  1
  O  O19  1  0.84389400  0.89118000  0.54087900  1
  O  O20  1  0.20006100  0.13570200  0.79494700  1
  O  O21  1  0.70000500  0.63566900  0.79484200  1
  O  O22  1  0.30002800  0.36431700  0.20512700  1
  O  O23  1  0.79994500  0.86428500  0.20508100  1
  O  O24  1  0.64124300  0.02008200  0.33077700  1
  O  O25  1  0.14119600  0.52010200  0.33073900  1
  O  O26  1  0.85874100  0.47987600  0.66919800  1
  O  O27  1  0.35877700  0.97990500  0.66924200  1
loop_
_geom_bond_atom_site_label_1
_geom_bond_atom_site_label_2
_geom_bond_distance
_geom_bond_site_symmetry_2
Mn0 O4 2.064184 1_555
Mn0 O9 2.141948 1_655
Mn0 O3 2.148535 1_555
Mn0 O25 2.183889 1_655
Mn0 O17 2.264132 1_555
Mn1 O7 2.064895 1_555
Mn1 O10 2.141367 1_455
Mn1 O0 2.148153 1_555
Mn1 O26 2.184228 1_455
Mn1 O18 2.262989 1_555
Mn2 O5 2.064581 1_545
Mn2 O8 2.141533 1_555
Mn2 O2 2.147894 1_555
Mn2 O24 2.184547 1_555
Mn2 O16 2.262108 1_555
Mn3 O6 2.063347 1_565
Mn3 O11 2.141455 1_555
Mn3 O1 2.149224 1_555
Mn3 O27 2.183955 1_555
Mn3 O19 2.265702 1_555
O0 P0 1.544062 1_556
O0 Zn0 2.130092 1_555
O1 P1 1.543995 1_656
O1 Zn1 2.130135 1_655
O2 P2 1.544055 1_454
O2 Zn2 2.129868 1_455
O3 P3 1.543965 1_554
O3 Zn3 2.130148 1_555
O4 P0 1.512263 1_555
O5 P1 1.512306 1_555
O6 P2 1.512065 1_555
O7 P3 1.512203 1_555
O8 P0 1.538599 1_555
O8 Zn2 2.154629 1_555
O9 P1 1.538613 1_555
O9 Zn3 2.154901 1_555
O10 P2 1.538580 1_555
O10 Zn0 2.155023 1_555
O11 P3 1.538483 1_555
O11 Zn1 2.154908 1_555
O12 P6 1.544865 1_655
O12 Zn2 2.051032 1_555
O12 Zn0 2.242369 1_555
O13 P7 1.544969 1_555
O13 Zn3 2.051215 1_555
O13 Zn1 2.241897 1_555
O14 P4 1.545031 1_555
O14 Zn0 2.051026 1_555
O14 Zn2 2.241769 1_555
O15 P5 1.544934 1_455
O15 Zn1 2.051190 1_555
O15 Zn3 2.242133 1_555
O16 P4 1.536987 1_555
O16 Zn2 2.211655 1_455
O17 P5 1.536934 1_555
O17 Zn3 2.210807 1_555
O18 P6 1.536968 1_555
O18 Zn0 2.211200 1_555
O19 P7 1.536910 1_555
O19 Zn1 2.211189 1_655
O20 P4 1.597043 1_555
O20 P2 1.619343 1_455
O21 P5 1.597112 1_555
O21 P3 1.619441 1_555
O22 P6 1.597039 1_555
O22 P0 1.619404 1_555
O23 P7 1.597171 1_555
O23 P1 1.619591 1_655
O24 P7 1.541619 1_545
O24 Zn2 2.118169 1_555
O25 P6 1.541632 1_555
O25 Zn3 2.118049 1_555
O26 P5 1.541584 1_555
O26 Zn0 2.118011 1_555
O27 P4 1.541466 1_565
O27 Zn1 2.118488 1_555
