# generated using pymatgen
data_Eu2Ti12(CuO4)9
_symmetry_space_group_name_H-M   'P 1'
_cell_length_a   6.45000990
_cell_length_b   10.50547737
_cell_length_c   10.50547737
_cell_angle_alpha   60.00000000
_cell_angle_beta   90.00000000
_cell_angle_gamma   90.00000000
_symmetry_Int_Tables_number   1
_chemical_formula_structural   Eu2Ti12(CuO4)9
_chemical_formula_sum   'Eu2 Ti12 Cu9 O36'
_cell_volume   616.48511565
_cell_formula_units_Z   1
loop_
 _symmetry_equiv_pos_site_id
 _symmetry_equiv_pos_as_xyz
  1  'x, y, z'
loop_
 _atom_site_type_symbol
 _atom_site_label
 _atom_site_symmetry_multiplicity
 _atom_site_fract_x
 _atom_site_fract_y
 _atom_site_fract_z
 _atom_site_occupancy
  Eu  Eu0  1  0.00484990  -0.00000000  0.00000000  1
  Eu  Eu1  1  0.66181710  0.33333300  0.33333300  1
  Ti  Ti0  1  0.83333300  0.16666700  0.16666700  1
  Ti  Ti1  1  0.49655601  0.50561492  0.50822241  1
  Ti  Ti2  1  0.17011099  0.82771808  0.82511059  1
  Ti  Ti3  1  0.49253005  0.00000000  -0.00000000  1
  Ti  Ti4  1  0.17413695  0.33333300  0.33333300  1
  Ti  Ti5  1  0.83333300  0.66666700  0.66666700  1
  Ti  Ti6  1  0.83333300  0.16666700  0.66666700  1
  Ti  Ti7  1  0.49655601  0.50822241  0.98616267  1
  Ti  Ti8  1  0.17011099  0.82511059  0.34717033  1
  Ti  Ti9  1  0.17011099  0.34717033  0.82771808  1
  Ti  Ti10  1  0.83333300  0.66666700  0.16666700  1
  Ti  Ti11  1  0.49655601  0.98616267  0.50561492  1
  Cu  Cu0  1  0.99707623  0.49946230  0.49908250  1
  Cu  Cu1  1  0.66959077  0.83387070  0.83425050  1
  Cu  Cu2  1  0.33333300  0.16666700  0.16666700  1
  Cu  Cu3  1  0.66959077  0.33187780  0.83387070  1
  Cu  Cu4  1  0.33333300  0.66666700  0.16666700  1
  Cu  Cu5  1  0.99707623  0.00145520  0.49946230  1
  Cu  Cu6  1  0.33333300  0.16666700  0.66666700  1
  Cu  Cu7  1  0.99707623  0.49908250  0.00145520  1
  Cu  Cu8  1  0.66959077  0.83425050  0.33187780  1
  O  O0  1  0.24419102  0.44282475  0.62191018  1
  O  O1  1  0.91562233  0.78190715  0.95762103  1
  O  O2  1  0.58237267  0.11468048  0.29146328  1
  O  O3  1  0.34650555  0.34981751  0.17392546  1
  O  O4  1  0.00428661  0.68238843  0.50268937  1
  O  O5  1  0.68205105  0.01529231  0.84074407  1
  O  O6  1  0.98461495  0.31804169  0.49258993  1
  O  O7  1  0.66238039  0.65094457  0.83064363  1
  O  O8  1  0.32016145  0.98351549  0.15940754  1
  O  O9  1  0.08429433  0.21865252  0.04186972  1
  O  O10  1  0.75104367  0.55142685  0.37571297  1
  O  O11  1  0.42247598  0.89050825  0.71142282  1
  O  O12  1  0.42247598  0.39806893  0.89050825  1
  O  O13  1  0.08429433  0.73947676  0.21865252  1
  O  O14  1  0.75104367  0.07286118  0.55142685  1
  O  O15  1  0.66238039  0.51841180  0.65094457  1
  O  O16  1  0.32016145  0.85707597  0.98351549  1
  O  O17  1  0.98461495  0.18936938  0.31804169  1
  O  O18  1  0.68205105  0.14396462  0.01529231  1
  O  O19  1  0.34650555  0.47625703  0.34981751  1
  O  O20  1  0.00428661  0.81492120  0.68238843  1
  O  O21  1  0.91562233  0.26047282  0.78190715  1
  O  O22  1  0.58237267  0.59385624  0.11468048  1
  O  O23  1  0.24419102  0.93526407  0.44282475  1
  O  O24  1  0.00428661  0.50268937  0.81492120  1
  O  O25  1  0.68205105  0.84074407  0.14396462  1
  O  O26  1  0.34650555  0.17392546  0.47625703  1
  O  O27  1  0.58237267  0.29146328  0.59385624  1
  O  O28  1  0.24419102  0.62191018  0.93526407  1
  O  O29  1  0.91562233  0.95762103  0.26047282  1
  O  O30  1  0.75104367  0.37571297  0.07286118  1
  O  O31  1  0.42247598  0.71142282  0.39806893  1
  O  O32  1  0.08429433  0.04186972  0.73947676  1
  O  O33  1  0.32016145  0.15940754  0.85707597  1
  O  O34  1  0.98461495  0.49258993  0.18936938  1
  O  O35  1  0.66238039  0.83064363  0.51841180  1
loop_
_geom_bond_atom_site_label_1
_geom_bond_atom_site_label_2
_geom_bond_distance
_geom_bond_site_symmetry_2
Eu0 O8 2.584691 1_545
Eu0 O33 2.584694 1_554
Eu0 O16 2.584698 1_544
Eu0 O9 2.596703 1_555
Eu0 O13 2.596710 1_545
Eu0 O32 2.596713 1_554
Eu0 O1 2.607479 1_444
Eu0 O21 2.607485 1_454
Eu0 O29 2.607489 1_445
Eu0 O5 2.625093 1_454
Eu0 O25 2.625095 1_445
Eu0 O18 2.625099 1_455
Eu1 O3 2.584691 1_555
Eu1 O26 2.584694 1_555
Eu1 O19 2.584698 1_555
Eu1 O2 2.596703 1_555
Eu1 O22 2.596710 1_555
Eu1 O27 2.596713 1_555
Eu1 O30 2.607474 1_555
Eu1 O14 2.607481 1_555
Eu1 O10 2.607494 1_555
Eu1 O17 2.625084 1_555
Eu1 O34 2.625091 1_555
Eu1 O6 2.625097 1_555
Cu0 O4 1.941507 1_655
Cu0 O6 1.942576 1_555
Cu0 O10 1.946417 1_555
Cu0 O0 1.947252 1_655
Cu1 O7 1.941507 1_555
Cu1 O5 1.942592 1_565
Cu1 O1 1.946418 1_555
Cu1 O11 1.947252 1_555
Cu2 O3 1.965159 1_555
Cu2 O8 1.965175 1_545
Cu2 O2 1.970106 1_555
Cu2 O9 1.970107 1_555
Cu3 O15 1.941512 1_555
Cu3 O18 1.942581 1_556
Cu3 O21 1.946407 1_555
Cu3 O12 1.947257 1_555
Cu4 O16 1.965163 1_554
Cu4 O19 1.965164 1_555
Cu4 O13 1.970096 1_555
Cu4 O22 1.970112 1_555
Cu5 O20 1.941512 1_645
Cu5 O17 1.942582 1_555
Cu5 O14 1.946423 1_555
Cu5 O23 1.947257 1_645
Cu6 O33 1.965154 1_555
Cu6 O26 1.965169 1_555
Cu6 O32 1.970106 1_555
Cu6 O27 1.970107 1_555
Cu7 O24 1.941517 1_654
Cu7 O34 1.942587 1_555
Cu7 O30 1.946418 1_555
Cu7 O28 1.947252 1_654
Cu8 O35 1.941517 1_555
Cu8 O25 1.942571 1_555
Cu8 O29 1.946417 1_555
Cu8 O31 1.947252 1_555
O0 Ti1 1.929595 1_555
O0 Ti9 1.933947 1_555
O1 Ti10 1.977782 1_556
O1 Ti2 2.047908 1_655
O2 Ti0 1.980220 1_555
O2 Ti11 2.037942 1_545
O3 Ti4 1.944349 1_555
O3 Ti7 2.077101 1_554
O4 Ti8 1.900451 1_555
O4 Ti5 1.981457 1_455
O5 Ti6 1.979198 1_555
O5 Ti3 2.012572 1_556
O6 Ti6 1.979198 1_555
O6 Ti4 2.012588 1_655
O7 Ti7 1.900451 1_555
O7 Ti5 1.981441 1_555
O8 Ti3 1.944349 1_565
O8 Ti8 2.077101 1_555
O9 Ti0 1.980231 1_455
O9 Ti9 2.037942 1_554
O10 Ti10 1.977782 1_555
O10 Ti1 2.047896 1_555
O11 Ti2 1.929595 1_555
O11 Ti11 1.933947 1_555
O12 Ti9 1.929600 1_555
O12 Ti7 1.933947 1_555
O13 Ti10 1.980220 1_455
O13 Ti8 2.037942 1_555
O14 Ti6 1.977782 1_555
O14 Ti11 2.047902 1_545
O15 Ti1 1.900451 1_555
O15 Ti5 1.981450 1_555
O16 Ti3 1.944357 1_566
O16 Ti2 2.077101 1_555
O17 Ti0 1.979198 1_555
O17 Ti4 2.012571 1_655
O18 Ti0 1.979198 1_555
O18 Ti3 2.012581 1_555
O19 Ti4 1.944357 1_555
O19 Ti1 2.077101 1_555
O20 Ti2 1.900451 1_555
O20 Ti5 1.981440 1_455
O21 Ti6 1.977782 1_555
O21 Ti9 2.047896 1_655
O22 Ti10 1.980225 1_555
O22 Ti7 2.037942 1_554
O23 Ti11 1.929600 1_555
O23 Ti8 1.933947 1_555
O24 Ti9 1.900451 1_555
O24 Ti5 1.981450 1_455
O25 Ti10 1.979198 1_555
O25 Ti3 2.012576 1_565
O26 Ti4 1.944352 1_555
O26 Ti11 2.077101 1_545
O27 Ti6 1.980220 1_555
O27 Ti1 2.037942 1_555
O28 Ti7 1.929595 1_555
O28 Ti2 1.933947 1_555
O29 Ti0 1.977782 1_565
O29 Ti8 2.047906 1_655
O30 Ti0 1.977782 1_555
O30 Ti7 2.047897 1_554
O31 Ti8 1.929595 1_555
O31 Ti1 1.933947 1_555
O32 Ti6 1.980230 1_455
O32 Ti2 2.037942 1_545
O33 Ti3 1.944352 1_556
O33 Ti9 2.077101 1_555
O34 Ti10 1.979198 1_555
O34 Ti4 2.012581 1_655
O35 Ti11 1.900451 1_555
O35 Ti5 1.981445 1_555
