# generated using pymatgen
data_Cs2ZnH4
_symmetry_space_group_name_H-M   'P 1'
_cell_length_a   6.37468800
_cell_length_b   8.69595600
_cell_length_c   11.14103400
_cell_angle_alpha   90.00000000
_cell_angle_beta   90.00000000
_cell_angle_gamma   90.00000000
_symmetry_Int_Tables_number   1
_chemical_formula_structural   Cs2ZnH4
_chemical_formula_sum   'Cs8 Zn4 H16'
_cell_volume   617.59214963
_cell_formula_units_Z   4
loop_
 _symmetry_equiv_pos_site_id
 _symmetry_equiv_pos_as_xyz
  1  'x, y, z'
loop_
 _atom_site_type_symbol
 _atom_site_label
 _atom_site_symmetry_multiplicity
 _atom_site_fract_x
 _atom_site_fract_y
 _atom_site_fract_z
 _atom_site_occupancy
  Cs  Cs0  1  0.25000000  0.66185500  0.09340700  1
  Cs  Cs1  1  0.25000000  0.16185500  0.40659300  1
  Cs  Cs2  1  0.75000000  0.33814500  0.90659300  1
  Cs  Cs3  1  0.75000000  0.83814500  0.59340700  1
  Cs  Cs4  1  0.25000000  0.98734500  0.81137400  1
  Cs  Cs5  1  0.25000000  0.48734500  0.68862600  1
  Cs  Cs6  1  0.75000000  0.01265500  0.18862600  1
  Cs  Cs7  1  0.75000000  0.51265500  0.31137400  1
  Zn  Zn0  1  0.25000000  0.74326100  0.41560300  1
  Zn  Zn1  1  0.25000000  0.24326100  0.08439700  1
  Zn  Zn2  1  0.75000000  0.25673900  0.58439700  1
  Zn  Zn3  1  0.75000000  0.75673900  0.91560300  1
  H  H0  1  0.03552300  0.81382400  0.34815100  1
  H  H1  1  0.46447700  0.31382400  0.15184900  1
  H  H2  1  0.53552300  0.18617600  0.65184900  1
  H  H3  1  0.96447700  0.68617600  0.84815100  1
  H  H4  1  0.96447700  0.18617600  0.65184900  1
  H  H5  1  0.53552300  0.68617600  0.84815100  1
  H  H6  1  0.46447700  0.81382400  0.34815100  1
  H  H7  1  0.03552300  0.31382400  0.15184900  1
  H  H8  1  0.25000000  0.55194000  0.40607100  1
  H  H9  1  0.25000000  0.05194000  0.09392900  1
  H  H10  1  0.75000000  0.44806000  0.59392900  1
  H  H11  1  0.75000000  0.94806000  0.90607100  1
  H  H12  1  0.25000000  0.30361700  0.94089700  1
  H  H13  1  0.25000000  0.80361700  0.55910300  1
  H  H14  1  0.75000000  0.69638300  0.05910300  1
  H  H15  1  0.75000000  0.19638300  0.44089700  1
loop_
_geom_bond_atom_site_label_1
_geom_bond_atom_site_label_2
_geom_bond_distance
_geom_bond_site_symmetry_2
Cs0 H14 3.224186 1_555
Cs0 H14 3.224186 1_455
Cs0 H3 3.289925 1_454
Cs0 H5 3.289925 1_554
Cs0 H1 3.384186 1_555
Cs0 H7 3.384186 1_555
Cs0 H9 3.392167 1_565
Cs0 H6 3.416223 1_555
Cs0 H0 3.416223 1_555
Cs1 H15 3.224186 1_555
Cs1 H15 3.224186 1_455
Cs1 H4 3.289925 1_455
Cs1 H2 3.289925 1_555
Cs1 H6 3.384186 1_545
Cs1 H0 3.384186 1_545
Cs1 H8 3.392167 1_555
Cs1 H1 3.416223 1_555
Cs1 H7 3.416223 1_555
Cs2 H12 3.224186 1_555
Cs2 H12 3.224186 1_655
Cs2 H7 3.289925 1_656
Cs2 H1 3.289925 1_556
Cs2 H5 3.384186 1_555
Cs2 H3 3.384186 1_555
Cs2 H11 3.392167 1_545
Cs2 H2 3.416223 1_555
Cs2 H4 3.416223 1_555
Cs3 H13 3.224186 1_555
Cs3 H13 3.224186 1_655
Cs3 H0 3.289925 1_655
Cs3 H6 3.289925 1_555
Cs3 H4 3.384186 1_565
Cs3 H2 3.384186 1_565
Cs3 H10 3.392167 1_555
Cs3 H5 3.416223 1_555
Cs3 H3 3.416223 1_555
Cs4 H4 3.075885 1_465
Cs4 H2 3.075885 1_565
Cs4 H12 3.105863 1_565
Cs4 H9 3.197678 1_566
Cs4 H5 3.215530 1_555
Cs4 H3 3.215530 1_455
Cs4 H13 3.232934 1_555
Cs4 H11 3.374750 1_455
Cs4 H11 3.374750 1_555
Cs5 H5 3.075885 1_555
Cs5 H3 3.075885 1_455
Cs5 H13 3.105863 1_555
Cs5 H8 3.197678 1_555
Cs5 H4 3.215530 1_455
Cs5 H2 3.215530 1_555
Cs5 H12 3.232934 1_555
Cs5 H10 3.374750 1_555
Cs5 H10 3.374750 1_455
Cs6 H0 3.075885 1_645
Cs6 H6 3.075885 1_545
Cs6 H14 3.105863 1_545
Cs6 H11 3.197678 1_544
Cs6 H7 3.215530 1_655
Cs6 H1 3.215530 1_555
Cs6 H15 3.232934 1_555
Cs6 H9 3.374750 1_655
Cs6 H9 3.374750 1_555
Cs7 H7 3.075885 1_655
Cs7 H1 3.075885 1_555
Cs7 H15 3.105863 1_555
Cs7 H10 3.197678 1_555
Cs7 H0 3.215530 1_655
Cs7 H6 3.215530 1_555
Cs7 H14 3.232934 1_555
Cs7 H8 3.374750 1_555
Cs7 H8 3.374750 1_655
H0 Zn0 1.676470 1_555
H1 Zn1 1.676470 1_555
H2 Zn2 1.676470 1_555
H3 Zn3 1.676470 1_555
H4 Zn2 1.676470 1_555
H5 Zn3 1.676470 1_555
H6 Zn0 1.676470 1_555
H7 Zn1 1.676470 1_555
H8 Zn0 1.667105 1_555
H9 Zn1 1.667105 1_555
H10 Zn2 1.667105 1_555
H11 Zn3 1.667105 1_555
H12 Zn1 1.682687 1_556
H13 Zn0 1.682687 1_555
H14 Zn3 1.682687 1_554
H15 Zn2 1.682687 1_555
