# generated using pymatgen
data_MgMn4O6
_symmetry_space_group_name_H-M   'P 1'
_cell_length_a   3.04129614
_cell_length_b   5.35327641
_cell_length_c   15.42075704
_cell_angle_alpha   90.00750758
_cell_angle_beta   89.99961878
_cell_angle_gamma   106.60154952
_symmetry_Int_Tables_number   1
_chemical_formula_structural   MgMn4O6
_chemical_formula_sum   'Mg2 Mn8 O12'
_cell_volume   240.59815145
_cell_formula_units_Z   2
loop_
 _symmetry_equiv_pos_site_id
 _symmetry_equiv_pos_as_xyz
  1  'x, y, z'
loop_
 _atom_site_type_symbol
 _atom_site_label
 _atom_site_symmetry_multiplicity
 _atom_site_fract_x
 _atom_site_fract_y
 _atom_site_fract_z
 _atom_site_occupancy
  Mg  Mg0  1  0.65972600  0.31998300  0.74999800  1
  Mg  Mg1  1  0.34027500  0.68001900  0.25000200  1
  Mn  Mn0  1  0.86377300  0.72764200  0.45469700  1
  Mn  Mn1  1  0.13621100  0.27235500  0.54530100  1
  Mn  Mn2  1  0.40428500  0.80865700  0.64201000  1
  Mn  Mn3  1  0.59573200  0.19134700  0.35798700  1
  Mn  Mn4  1  0.86377600  0.72761300  0.04535100  1
  Mn  Mn5  1  0.13621900  0.27238800  0.95465000  1
  Mn  Mn6  1  0.59571300  0.19138100  0.14194700  1
  Mn  Mn7  1  0.40429300  0.80862000  0.85805700  1
  O  O0  1  0.49997000  0.99999900  0.49999900  1
  O  O1  1  0.49998600  0.00000000  0.00000100  1
  O  O2  1  0.29337900  0.58666600  0.75004700  1
  O  O3  1  0.70661900  0.41333400  0.24995400  1
  O  O4  1  0.05506800  0.11051800  0.84121700  1
  O  O5  1  0.94493500  0.88948200  0.15878400  1
  O  O6  1  0.94492600  0.88947000  0.34122100  1
  O  O7  1  0.05507600  0.11052800  0.65877700  1
  O  O8  1  0.77975100  0.55961300  0.92798900  1
  O  O9  1  0.22025900  0.44038800  0.07201200  1
  O  O10  1  0.22027700  0.44040800  0.42797600  1
  O  O11  1  0.77974100  0.55958700  0.57202300  1
loop_
_geom_bond_atom_site_label_1
_geom_bond_atom_site_label_2
_geom_bond_distance
_geom_bond_site_symmetry_2
Mg0 O2 2.044459 1_655
Mg0 O2 2.046563 1_555
Mg0 O7 2.332176 1_555
Mg0 O4 2.332350 1_555
Mg0 O7 2.334890 1_655
Mg0 O4 2.335076 1_655
Mg1 O3 2.044470 1_455
Mg1 O3 2.046566 1_555
Mg1 O6 2.332154 1_555
Mg1 O5 2.332342 1_555
Mg1 O6 2.334856 1_455
Mg1 O5 2.335056 1_455
Mn0 O6 1.936936 1_555
Mn0 O11 2.004275 1_555
Mn0 O10 2.155109 1_555
Mn0 O10 2.159212 1_655
Mn0 O0 2.178354 1_655
Mn0 O0 2.181636 1_555
Mn1 O7 1.936934 1_555
Mn1 O10 2.004257 1_555
Mn1 O11 2.155180 1_555
Mn1 O11 2.159133 1_455
Mn1 O0 2.178445 1_445
Mn1 O0 2.181538 1_545
Mn2 O2 2.018186 1_555
Mn2 O7 2.183560 1_665
Mn2 O7 2.187890 1_565
Mn2 O11 2.258950 1_455
Mn2 O11 2.261872 1_555
Mn2 O0 2.399974 1_555
Mn3 O3 2.018123 1_555
Mn3 O6 2.183605 1_445
Mn3 O6 2.187885 1_545
Mn3 O10 2.258950 1_655
Mn3 O10 2.261850 1_555
Mn3 O0 2.400000 1_545
Mn4 O5 1.936225 1_555
Mn4 O8 2.004445 1_554
Mn4 O9 2.155027 1_555
Mn4 O9 2.159029 1_655
Mn4 O1 2.178800 1_665
Mn4 O1 2.182103 1_565
Mn5 O4 1.936227 1_555
Mn5 O9 2.004445 1_556
Mn5 O8 2.155060 1_555
Mn5 O8 2.158996 1_455
Mn5 O1 2.178856 1_456
Mn5 O1 2.182063 1_556
Mn6 O3 2.017440 1_555
Mn6 O5 2.183780 1_445
Mn6 O5 2.188229 1_545
Mn6 O9 2.258608 1_655
Mn6 O9 2.261412 1_555
Mn6 O1 2.398899 1_555
Mn7 O2 2.017481 1_555
Mn7 O4 2.183776 1_665
Mn7 O4 2.188236 1_565
Mn7 O8 2.258577 1_455
Mn7 O8 2.261398 1_555
Mn7 O1 2.398869 1_566
