# generated using pymatgen
data_Ni3OF5
_symmetry_space_group_name_H-M   'P 1'
_cell_length_a   4.70466910
_cell_length_b   4.70466910
_cell_length_c   9.27011100
_cell_angle_alpha   89.99931620
_cell_angle_beta   89.99931620
_cell_angle_gamma   91.11124473
_symmetry_Int_Tables_number   1
_chemical_formula_structural   Ni3OF5
_chemical_formula_sum   'Ni6 O2 F10'
_cell_volume   205.14522473
_cell_formula_units_Z   2
loop_
 _symmetry_equiv_pos_site_id
 _symmetry_equiv_pos_as_xyz
  1  'x, y, z'
loop_
 _atom_site_type_symbol
 _atom_site_label
 _atom_site_symmetry_multiplicity
 _atom_site_fract_x
 _atom_site_fract_y
 _atom_site_fract_z
 _atom_site_occupancy
  Ni  Ni0  1  0.01570900  0.01570900  0.83307200  1
  Ni  Ni1  1  0.98429100  0.98429100  0.16692800  1
  Ni  Ni2  1  0.00000000  0.00000000  0.50000000  1
  Ni  Ni3  1  0.49828100  0.49828100  0.67026900  1
  Ni  Ni4  1  0.50000000  0.50000000  0.00000000  1
  Ni  Ni5  1  0.50171900  0.50171900  0.32973100  1
  O  O0  1  0.68973000  0.68973000  0.16587800  1
  O  O1  1  0.31027000  0.31027000  0.83412200  1
  F  F0  1  0.20123300  0.80766800  0.66668600  1
  F  F1  1  0.19658000  0.80342000  0.00000000  1
  F  F2  1  0.19233200  0.79876700  0.33331400  1
  F  F3  1  0.70811100  0.70811100  0.83345500  1
  F  F4  1  0.69496300  0.69496300  0.50172100  1
  F  F5  1  0.29188900  0.29188900  0.16654500  1
  F  F6  1  0.30503700  0.30503700  0.49827900  1
  F  F7  1  0.80342000  0.19658000  0.00000000  1
  F  F8  1  0.80766800  0.20123300  0.66668600  1
  F  F9  1  0.79876700  0.19233200  0.33331400  1
loop_
_geom_bond_atom_site_label_1
_geom_bond_atom_site_label_2
_geom_bond_distance
_geom_bond_site_symmetry_2
Ni0 O1 1.940762 1_555
Ni1 O0 1.940762 1_555
Ni3 O1 1.959984 1_555
Ni4 O0 1.981725 1_555
Ni4 O1 1.981725 1_554
Ni5 O0 1.959984 1_555
F0 Ni0 2.032732 1_565
F0 Ni2 2.033701 1_565
F0 Ni3 2.037574 1_555
F1 Ni1 2.036941 1_455
F1 Ni0 2.036941 1_564
F1 Ni4 2.038258 1_555
F2 Ni1 2.032732 1_455
F2 Ni2 2.033701 1_565
F2 Ni5 2.037574 1_555
F3 Ni0 2.026635 1_665
F3 Ni3 2.049327 1_555
F3 Ni4 2.064847 1_556
F4 Ni2 2.009822 1_665
F4 Ni3 2.029888 1_555
F4 Ni5 2.040372 1_555
F5 Ni1 2.026635 1_445
F5 Ni5 2.049327 1_555
F5 Ni4 2.064847 1_555
F6 Ni2 2.009822 1_555
F6 Ni5 2.029888 1_555
F6 Ni3 2.040372 1_555
F7 Ni0 2.036941 1_654
F7 Ni1 2.036941 1_545
F7 Ni4 2.038258 1_555
F8 Ni0 2.032732 1_655
F8 Ni2 2.033701 1_655
F8 Ni3 2.037574 1_555
F9 Ni1 2.032732 1_545
F9 Ni2 2.033701 1_655
F9 Ni5 2.037574 1_555
