# generated using pymatgen
data_Ba2CdSe3
_symmetry_space_group_name_H-M   'P 1'
_cell_length_a   4.53869048
_cell_length_b   9.35853119
_cell_length_c   18.12634793
_cell_angle_alpha   90.00000000
_cell_angle_beta   90.00000000
_cell_angle_gamma   90.00000000
_symmetry_Int_Tables_number   1
_chemical_formula_structural   Ba2CdSe3
_chemical_formula_sum   'Ba8 Cd4 Se12'
_cell_volume   769.92526406
_cell_formula_units_Z   4
loop_
 _symmetry_equiv_pos_site_id
 _symmetry_equiv_pos_as_xyz
  1  'x, y, z'
loop_
 _atom_site_type_symbol
 _atom_site_label
 _atom_site_symmetry_multiplicity
 _atom_site_fract_x
 _atom_site_fract_y
 _atom_site_fract_z
 _atom_site_occupancy
  Ba  Ba0  1  0.25000000  0.76036801  0.95983124  1
  Ba  Ba1  1  0.75000000  0.73963199  0.45983124  1
  Ba  Ba2  1  0.25000000  0.26036801  0.54016876  1
  Ba  Ba3  1  0.75000000  0.23963199  0.04016876  1
  Ba  Ba4  1  0.25000000  0.42192212  0.28489597  1
  Ba  Ba5  1  0.75000000  0.57807788  0.71510403  1
  Ba  Ba6  1  0.25000000  0.92192212  0.21510403  1
  Ba  Ba7  1  0.75000000  0.07807788  0.78489597  1
  Cd  Cd0  1  0.75000000  0.12432592  0.36690602  1
  Cd  Cd1  1  0.75000000  0.62432592  0.13309398  1
  Cd  Cd2  1  0.25000000  0.87567408  0.63309398  1
  Cd  Cd3  1  0.25000000  0.37567408  0.86690602  1
  Se  Se0  1  0.25000000  0.98643019  0.40384039  1
  Se  Se1  1  0.75000000  0.01356981  0.59615961  1
  Se  Se2  1  0.25000000  0.48643019  0.09615961  1
  Se  Se3  1  0.75000000  0.51356981  0.90384039  1
  Se  Se4  1  0.25000000  0.11864084  0.92761865  1
  Se  Se5  1  0.75000000  0.88135916  0.07238135  1
  Se  Se6  1  0.25000000  0.61864084  0.57238135  1
  Se  Se7  1  0.75000000  0.18563051  0.22356551  1
  Se  Se8  1  0.25000000  0.31436949  0.72356551  1
  Se  Se9  1  0.75000000  0.68563051  0.27643449  1
  Se  Se10  1  0.25000000  0.81436949  0.77643449  1
  Se  Se11  1  0.75000000  0.38135916  0.42761865  1
loop_
_geom_bond_atom_site_label_1
_geom_bond_atom_site_label_2
_geom_bond_distance
_geom_bond_site_symmetry_2
Ba0 Se5 3.254862 1_556
Ba0 Se5 3.254862 1_456
Ba0 Se10 3.362508 1_555
Ba0 Se3 3.393308 1_455
Ba0 Se3 3.393308 1_555
Ba0 Se4 3.403369 1_565
Ba0 Se2 3.560736 1_556
Ba1 Se6 3.254862 1_555
Ba1 Se6 3.254862 1_655
Ba1 Se9 3.362508 1_555
Ba1 Se0 3.393308 1_655
Ba1 Se0 3.393308 1_555
Ba1 Se11 3.403369 1_555
Ba1 Se1 3.560736 1_565
Ba2 Se11 3.254862 1_455
Ba2 Se11 3.254862 1_555
Ba2 Se8 3.362508 1_555
Ba2 Se1 3.393308 1_455
Ba2 Se1 3.393308 1_555
Ba2 Se6 3.403369 1_555
Ba2 Se0 3.560736 1_545
Ba3 Se4 3.254862 1_654
Ba3 Se4 3.254862 1_554
Ba3 Se7 3.362508 1_555
Ba3 Se2 3.393308 1_555
Ba3 Se2 3.393308 1_655
Ba3 Se5 3.403369 1_545
Ba3 Se3 3.560736 1_554
Ba4 Se9 3.356203 1_555
Ba4 Se9 3.356203 1_455
Ba4 Se7 3.357951 1_555
Ba4 Se7 3.357951 1_455
Ba4 Se11 3.462198 1_555
Ba4 Se11 3.462198 1_455
Ba4 Se2 3.473958 1_555
Ba5 Se8 3.356203 1_655
Ba5 Se8 3.356203 1_555
Ba5 Se10 3.357951 1_555
Ba5 Se10 3.357951 1_655
Ba5 Se6 3.462198 1_555
Ba5 Se6 3.462198 1_655
Ba5 Se3 3.473958 1_555
Ba6 Se7 3.356203 1_565
Ba6 Se7 3.356203 1_465
Ba6 Se9 3.357951 1_555
Ba6 Se9 3.357951 1_455
Ba6 Se5 3.462198 1_555
Ba6 Se5 3.462198 1_455
Ba6 Se0 3.473958 1_555
Ba7 Se10 3.356203 1_545
Ba7 Se10 3.356203 1_645
Ba7 Se8 3.357951 1_655
Ba7 Se8 3.357951 1_555
Ba7 Se4 3.462198 1_655
Ba7 Se4 3.462198 1_555
Ba7 Se1 3.473958 1_555
Cd0 Se11 2.645242 1_555
Cd0 Se7 2.660828 1_555
Cd0 Se0 2.695094 1_645
Cd0 Se0 2.695094 1_545
Cd1 Se5 2.645242 1_555
Cd1 Se9 2.660828 1_555
Cd1 Se2 2.695094 1_555
Cd1 Se2 2.695094 1_655
Cd2 Se6 2.645242 1_555
Cd2 Se10 2.660828 1_555
Cd2 Se1 2.695094 1_465
Cd2 Se1 2.695094 1_565
Cd3 Se4 2.645242 1_555
Cd3 Se8 2.660828 1_555
Cd3 Se3 2.695094 1_555
Cd3 Se3 2.695094 1_455
