# generated using pymatgen
data_K3AlTe3
_symmetry_space_group_name_H-M   'P 1'
_cell_length_a   14.03918336
_cell_length_b   8.67811422
_cell_length_c   11.17303962
_cell_angle_alpha   52.61722600
_cell_angle_beta   90.00000000
_cell_angle_gamma   90.00000000
_symmetry_Int_Tables_number   1
_chemical_formula_structural   K3AlTe3
_chemical_formula_sum   'K12 Al4 Te12'
_cell_volume   1081.64705680
_cell_formula_units_Z   4
loop_
 _symmetry_equiv_pos_site_id
 _symmetry_equiv_pos_as_xyz
  1  'x, y, z'
loop_
 _atom_site_type_symbol
 _atom_site_label
 _atom_site_symmetry_multiplicity
 _atom_site_fract_x
 _atom_site_fract_y
 _atom_site_fract_z
 _atom_site_occupancy
  K  K0  1  0.31173525  0.14770544  0.07210646  1
  K  K1  1  0.68826475  0.85229456  0.92789354  1
  K  K2  1  0.81173525  0.85229456  0.42789354  1
  K  K3  1  0.89585118  0.31859094  0.40271733  1
  K  K4  1  0.61252581  0.36108877  0.47402778  1
  K  K5  1  0.11252581  0.63891123  0.02597222  1
  K  K6  1  0.38747419  0.63891123  0.52597222  1
  K  K7  1  0.88747419  0.36108877  0.97402778  1
  K  K8  1  0.60414882  0.31859094  0.90271733  1
  K  K9  1  0.10414882  0.68140906  0.59728267  1
  K  K10  1  0.39585118  0.68140906  0.09728267  1
  K  K11  1  0.18826475  0.14770544  0.57210646  1
  Al  Al0  1  0.06620037  0.94534085  0.15900268  1
  Al  Al1  1  0.56620037  0.05465915  0.34099732  1
  Al  Al2  1  0.43379963  0.94534085  0.65900268  1
  Al  Al3  1  0.93379963  0.05465915  0.84099732  1
  Te  Te0  1  0.39723335  0.17672117  0.36165664  1
  Te  Te1  1  0.89723335  0.82327883  0.13834336  1
  Te  Te2  1  0.60276665  0.82327883  0.63834336  1
  Te  Te3  1  0.10276665  0.17672117  0.86165664  1
  Te  Te4  1  0.69290850  0.33028929  0.19508953  1
  Te  Te5  1  0.19290850  0.66971071  0.30491047  1
  Te  Te6  1  0.30709150  0.66971071  0.80491047  1
  Te  Te7  1  0.80709150  0.33028929  0.69508953  1
  Te  Te8  1  0.55511708  0.85961161  0.23543494  1
  Te  Te9  1  0.05511708  0.14038839  0.26456506  1
  Te  Te10  1  0.44488292  0.14038839  0.76456506  1
  Te  Te11  1  0.94488292  0.85961161  0.73543494  1
loop_
_geom_bond_atom_site_label_1
_geom_bond_atom_site_label_2
_geom_bond_distance
_geom_bond_site_symmetry_2
K0 Te0 3.599942 1_555
K0 Te6 3.607797 1_554
K0 Te3 3.671546 1_554
K0 Te5 3.695113 1_545
K0 Te10 3.945945 1_554
K0 Te8 3.964318 1_545
K1 Te2 3.599942 1_555
K1 Te4 3.607797 1_556
K1 Te1 3.671546 1_556
K1 Te7 3.695113 1_565
K1 Te8 3.945945 1_556
K1 Te10 3.964318 1_565
K2 Te1 3.599942 1_555
K2 Te7 3.607797 1_555
K2 Te2 3.671546 1_555
K2 Te4 3.695113 1_565
K2 Te11 3.945945 1_555
K2 Te9 3.964318 1_665
K3 Te11 3.489785 1_545
K3 Te1 3.492643 1_555
K3 Te7 3.554861 1_555
K3 Te9 3.559817 1_655
K3 Te4 3.636429 1_555
K4 Te4 3.474131 1_555
K4 Te10 3.492239 1_555
K4 Te8 3.531053 1_555
K4 Te7 3.582137 1_555
K4 Te2 3.842832 1_545
K4 Te0 3.963729 1_555
K5 Te5 3.474131 1_555
K5 Te11 3.492239 1_454
K5 Te9 3.531053 1_555
K5 Te6 3.582137 1_554
K5 Te3 3.842832 1_564
K5 Te1 3.963729 1_455
K6 Te6 3.474131 1_555
K6 Te8 3.492239 1_555
K6 Te10 3.531053 1_555
K6 Te5 3.582137 1_555
K6 Te0 3.842832 1_565
K6 Te2 3.963729 1_555
K7 Te7 3.474131 1_555
K7 Te9 3.492239 1_656
K7 Te11 3.531053 1_555
K7 Te4 3.582137 1_556
K7 Te1 3.842832 1_546
K7 Te3 3.963729 1_655
K8 Te8 3.489785 1_546
K8 Te2 3.492643 1_555
K8 Te4 3.554861 1_556
K8 Te10 3.559817 1_555
K8 Te7 3.636429 1_555
K9 Te9 3.489785 1_565
K9 Te3 3.492643 1_555
K9 Te5 3.554861 1_555
K9 Te11 3.559817 1_455
K9 Te6 3.636429 1_555
K10 Te10 3.489785 1_564
K10 Te0 3.492643 1_555
K10 Te6 3.554861 1_554
K10 Te8 3.559817 1_555
K10 Te5 3.636429 1_555
K11 Te3 3.599942 1_555
K11 Te5 3.607797 1_555
K11 Te0 3.671546 1_555
K11 Te6 3.695113 1_545
K11 Te9 3.945945 1_555
K11 Te11 3.964318 1_445
Al0 Te9 2.589312 1_565
Al0 Te5 2.609312 1_555
Al0 Te1 2.664464 1_455
Al0 Te3 2.689325 1_564
Al0 K0 3.720062 1_565
Al1 Te8 2.589312 1_545
Al1 Te4 2.609312 1_555
Al1 Te0 2.664464 1_555
Al1 Te2 2.689325 1_545
Al1 K2 3.720062 1_545
Al2 Te10 2.589312 1_565
Al2 Te6 2.609312 1_555
Al2 Te2 2.664464 1_555
Al2 Te0 2.689325 1_565
Al2 K11 3.720062 1_565
Al3 Te11 2.589312 1_545
Al3 Te7 2.609312 1_555
Al3 Te3 2.664464 1_655
Al3 Te1 2.689325 1_546
Al3 K1 3.720062 1_545
