# generated using pymatgen
data_Ni3Pt
_symmetry_space_group_name_H-M   'P 1'
_cell_length_a   3.62456441
_cell_length_b   3.62456645
_cell_length_c   3.62456951
_cell_angle_alpha   90.00000000
_cell_angle_beta   90.00000000
_cell_angle_gamma   90.00000000
_symmetry_Int_Tables_number   1
_chemical_formula_structural   Ni3Pt
_chemical_formula_sum   'Ni3 Pt1'
_cell_volume   47.61768972
_cell_formula_units_Z   1
loop_
 _symmetry_equiv_pos_site_id
 _symmetry_equiv_pos_as_xyz
  1  'x, y, z'
loop_
 _atom_site_type_symbol
 _atom_site_label
 _atom_site_symmetry_multiplicity
 _atom_site_fract_x
 _atom_site_fract_y
 _atom_site_fract_z
 _atom_site_occupancy
  Ni  Ni0  1  0.50000000  0.00000000  0.50000000  1
  Ni  Ni1  1  0.00000000  0.50000000  0.50000000  1
  Ni  Ni2  1  0.50000000  0.50000000  -0.00000000  1
  Pt  Pt0  1  -0.00000000  0.00000000  0.00000000  1
loop_
_geom_bond_atom_site_label_1
_geom_bond_atom_site_label_2
_geom_bond_distance
_geom_bond_site_symmetry_2
Ni0 Ni1 2.562955 1_545
Ni0 Ni1 2.562955 1_555
Ni0 Ni1 2.562955 1_655
Ni0 Ni1 2.562955 1_645
Ni0 Pt0 2.562956 1_556
Ni0 Pt0 2.562956 1_655
Ni0 Pt0 2.562956 1_555
Ni0 Pt0 2.562956 1_656
Ni0 Ni2 2.562957 1_555
Ni0 Ni2 2.562957 1_546
Ni0 Ni2 2.562957 1_545
Ni0 Ni2 2.562957 1_556
Ni1 Ni2 2.562956 1_455
Ni1 Ni2 2.562956 1_555
Ni1 Ni2 2.562956 1_456
Ni1 Ni2 2.562956 1_556
Ni1 Pt0 2.562957 1_565
Ni1 Pt0 2.562957 1_566
Ni1 Pt0 2.562957 1_555
Ni1 Pt0 2.562957 1_556
Ni2 Pt0 2.562955 1_565
Ni2 Pt0 2.562955 1_665
Ni2 Pt0 2.562955 1_655
Ni2 Pt0 2.562955 1_555
