# generated using pymatgen
data_Tm2CdPd2
_symmetry_space_group_name_H-M   'P 1'
_cell_length_a   7.68654222
_cell_length_b   7.68654222
_cell_length_c   3.56701031
_cell_angle_alpha   90.00000000
_cell_angle_beta   90.00000000
_cell_angle_gamma   90.00000000
_symmetry_Int_Tables_number   1
_chemical_formula_structural   Tm2CdPd2
_chemical_formula_sum   'Tm4 Cd2 Pd4'
_cell_volume   210.74942509
_cell_formula_units_Z   2
loop_
 _symmetry_equiv_pos_site_id
 _symmetry_equiv_pos_as_xyz
  1  'x, y, z'
loop_
 _atom_site_type_symbol
 _atom_site_label
 _atom_site_symmetry_multiplicity
 _atom_site_fract_x
 _atom_site_fract_y
 _atom_site_fract_z
 _atom_site_occupancy
  Tm  Tm0  1  0.66890946  0.16890946  0.50000000  1
  Tm  Tm1  1  0.33109054  0.83109054  0.50000000  1
  Tm  Tm2  1  0.16890946  0.33109054  0.50000000  1
  Tm  Tm3  1  0.83109054  0.66890946  0.50000000  1
  Cd  Cd0  1  0.00000000  0.00000000  0.00000000  1
  Cd  Cd1  1  0.50000000  0.50000000  0.00000000  1
  Pd  Pd0  1  0.13097445  0.63097445  -0.00000000  1
  Pd  Pd1  1  0.86902555  0.36902555  0.00000000  1
  Pd  Pd2  1  0.63097445  0.86902555  -0.00000000  1
  Pd  Pd3  1  0.36902555  0.13097445  0.00000000  1
loop_
_geom_bond_atom_site_label_1
_geom_bond_atom_site_label_2
_geom_bond_distance
_geom_bond_site_symmetry_2
Cd0 Pd3 3.009889 1_555
Cd0 Pd1 3.009889 1_455
Cd0 Pd0 3.009889 1_545
Cd0 Pd2 3.009889 1_445
Cd0 Tm3 3.367978 1_444
Cd0 Tm0 3.367978 1_455
Cd0 Tm3 3.367978 1_445
Cd0 Tm0 3.367978 1_454
Cd0 Tm1 3.367978 1_544
Cd0 Tm2 3.367978 1_554
Cd0 Tm1 3.367978 1_545
Cd0 Tm2 3.367978 1_555
Cd1 Pd1 3.009889 1_555
Cd1 Pd2 3.009889 1_555
Cd1 Pd0 3.009889 1_555
Cd1 Pd3 3.009889 1_555
Cd1 Tm2 3.367978 1_554
Cd1 Tm2 3.367978 1_555
Cd1 Tm0 3.367978 1_555
Cd1 Tm3 3.367978 1_554
Cd1 Tm0 3.367978 1_554
Cd1 Tm1 3.367978 1_554
Cd1 Tm3 3.367978 1_555
Cd1 Tm1 3.367978 1_555
Pd0 Tm1 2.813008 1_554
Pd0 Tm1 2.813008 1_555
Pd0 Tm3 2.929038 1_455
Pd0 Tm3 2.929038 1_454
Pd0 Tm2 2.929038 1_555
Pd0 Tm2 2.929038 1_554
Pd1 Tm0 2.813008 1_555
Pd1 Tm0 2.813008 1_554
Pd1 Tm3 2.929038 1_554
Pd1 Tm2 2.929038 1_655
Pd1 Tm2 2.929038 1_654
Pd1 Tm3 2.929038 1_555
Pd2 Tm3 2.813008 1_554
Pd2 Tm3 2.813008 1_555
Pd2 Tm1 2.929038 1_554
Pd2 Tm1 2.929038 1_555
Pd2 Tm0 2.929038 1_565
Pd2 Tm0 2.929038 1_564
Pd3 Tm2 2.813008 1_554
Pd3 Tm2 2.813008 1_555
Pd3 Tm1 2.929038 1_544
Pd3 Tm1 2.929038 1_545
Pd3 Tm0 2.929038 1_555
Pd3 Tm0 2.929038 1_554
