# generated using pymatgen
data_SrCa7Ti2Mn6O24
_symmetry_space_group_name_H-M   'P 1'
_cell_length_a   7.69556200
_cell_length_b   7.65728421
_cell_length_c   7.65728421
_cell_angle_alpha   89.97340712
_cell_angle_beta   90.00000000
_cell_angle_gamma   90.00000000
_symmetry_Int_Tables_number   1
_chemical_formula_structural   SrCa7Ti2Mn6O24
_chemical_formula_sum   'Sr1 Ca7 Ti2 Mn6 O24'
_cell_volume   451.22154459
_cell_formula_units_Z   1
loop_
 _symmetry_equiv_pos_site_id
 _symmetry_equiv_pos_as_xyz
  1  'x, y, z'
loop_
 _atom_site_type_symbol
 _atom_site_label
 _atom_site_symmetry_multiplicity
 _atom_site_fract_x
 _atom_site_fract_y
 _atom_site_fract_z
 _atom_site_occupancy
  Sr  Sr0  1  0.25000000  0.25277000  0.25277000  1
  Ca  Ca0  1  0.25000000  0.25341500  0.74676500  1
  Ca  Ca1  1  0.25000000  0.74676500  0.25341500  1
  Ca  Ca2  1  0.25000000  0.74653800  0.74653800  1
  Ca  Ca3  1  0.75000000  0.25338700  0.25338700  1
  Ca  Ca4  1  0.75000000  0.25335600  0.74652100  1
  Ca  Ca5  1  0.75000000  0.74652100  0.25335600  1
  Ca  Ca6  1  0.75000000  0.74659000  0.74659000  1
  Ti  Ti0  1  0.99924000  0.99907700  0.99907700  1
  Ti  Ti1  1  0.50076000  0.99907700  0.99907700  1
  Mn  Mn0  1  0.99940500  0.99936300  0.50044300  1
  Mn  Mn1  1  0.99940500  0.50044300  0.99936300  1
  Mn  Mn2  1  0.99942700  0.50046700  0.50046700  1
  Mn  Mn3  1  0.50059500  0.99936300  0.50044300  1
  Mn  Mn4  1  0.50059500  0.50044300  0.99936300  1
  Mn  Mn5  1  0.50057300  0.50046700  0.50046700  1
  O  O0  1  0.99792700  0.99796600  0.25372900  1
  O  O1  1  0.99955200  0.99954600  0.74622600  1
  O  O2  1  0.99725000  0.50274600  0.25014700  1
  O  O3  1  0.99968100  0.50031300  0.74984200  1
  O  O4  1  0.50207300  0.99796600  0.25372900  1
  O  O5  1  0.50044800  0.99954600  0.74622600  1
  O  O6  1  0.50275000  0.50274600  0.25014700  1
  O  O7  1  0.50031900  0.50031300  0.74984200  1
  O  O8  1  0.25000000  0.99826000  0.99826000  1
  O  O9  1  0.25000000  0.99716400  0.50300100  1
  O  O10  1  0.25000000  0.50300100  0.99716400  1
  O  O11  1  0.25000000  0.50279600  0.50279600  1
  O  O12  1  0.75000000  0.99950800  0.99950800  1
  O  O13  1  0.75000000  0.99973700  0.50013200  1
  O  O14  1  0.75000000  0.50013200  0.99973700  1
  O  O15  1  0.75000000  0.50032800  0.50032800  1
  O  O16  1  0.99792700  0.25372900  0.99796600  1
  O  O17  1  0.99725000  0.25014700  0.50274600  1
  O  O18  1  0.99955200  0.74622600  0.99954600  1
  O  O19  1  0.99968100  0.74984200  0.50031300  1
  O  O20  1  0.50207300  0.25372900  0.99796600  1
  O  O21  1  0.50275000  0.25014700  0.50274600  1
  O  O22  1  0.50044800  0.74622600  0.99954600  1
  O  O23  1  0.50031900  0.74984200  0.50031300  1
loop_
_geom_bond_atom_site_label_1
_geom_bond_atom_site_label_2
_geom_bond_distance
_geom_bond_site_symmetry_2
Ca0 O11 2.670793 1_555
Ca0 O17 2.697273 1_455
Ca0 O21 2.697273 1_555
Ca0 O7 2.699195 1_555
Ca0 O3 2.699195 1_455
Ca0 O10 2.707809 1_555
Ca0 O9 2.708812 1_545
Ca0 O20 2.731835 1_555
Ca0 O16 2.731835 1_455
Ca0 O1 2.737442 1_445
Ca0 O5 2.737442 1_545
Ca0 O8 2.742700 1_545
Ca1 O11 2.670793 1_555
Ca1 O2 2.697273 1_455
Ca1 O6 2.697273 1_555
Ca1 O23 2.699195 1_555
Ca1 O19 2.699195 1_455
Ca1 O9 2.707809 1_555
Ca1 O10 2.708812 1_554
Ca1 O4 2.731835 1_555
Ca1 O0 2.731835 1_455
Ca1 O18 2.737442 1_454
Ca1 O22 2.737442 1_554
Ca1 O8 2.742700 1_554
Ca2 O11 2.640103 1_555
Ca2 O9 2.675309 1_555
Ca2 O10 2.675309 1_555
Ca2 O19 2.695587 1_455
Ca2 O7 2.695587 1_555
Ca2 O3 2.695587 1_455
Ca2 O23 2.695587 1_555
Ca2 O8 2.726539 1_555
Ca2 O18 2.732760 1_455
Ca2 O5 2.732760 1_555
Ca2 O1 2.732760 1_455
Ca2 O22 2.732760 1_555
Ca3 O15 2.674753 1_555
Ca3 O21 2.695701 1_555
Ca3 O17 2.695701 1_555
Ca3 O2 2.695701 1_555
Ca3 O6 2.695701 1_555
Ca3 O13 2.709027 1_545
Ca3 O14 2.709027 1_554
Ca3 O4 2.732307 1_545
Ca3 O20 2.732307 1_554
Ca3 O0 2.732307 1_545
Ca3 O16 2.732307 1_554
Ca3 O12 2.749903 1_544
Ca4 O17 2.665599 1_555
Ca4 O21 2.665599 1_555
Ca4 O15 2.669634 1_555
Ca4 O3 2.696027 1_555
Ca4 O7 2.696027 1_555
Ca4 O14 2.708068 1_555
Ca4 O13 2.708213 1_545
Ca4 O16 2.710600 1_555
Ca4 O20 2.710600 1_555
Ca4 O1 2.732267 1_545
Ca4 O5 2.732267 1_545
Ca4 O12 2.743634 1_545
Ca5 O2 2.665599 1_555
Ca5 O6 2.665599 1_555
Ca5 O15 2.669634 1_555
Ca5 O19 2.696027 1_555
Ca5 O23 2.696027 1_555
Ca5 O13 2.708068 1_555
Ca5 O14 2.708213 1_554
Ca5 O0 2.710600 1_555
Ca5 O4 2.710600 1_555
Ca5 O22 2.732267 1_554
Ca5 O18 2.732267 1_554
Ca5 O12 2.743634 1_554
Ca6 O15 2.667399 1_555
Ca6 O7 2.692356 1_555
Ca6 O19 2.692356 1_555
Ca6 O3 2.692356 1_555
Ca6 O23 2.692356 1_555
Ca6 O14 2.704735 1_555
Ca6 O13 2.704735 1_555
Ca6 O1 2.727618 1_555
Ca6 O5 2.727618 1_555
Ca6 O18 2.727618 1_555
Ca6 O22 2.727618 1_555
Ca6 O12 2.739493 1_555
Mn0 O1 1.882032 1_555
Mn0 O0 1.889229 1_555
Mn0 O19 1.910655 1_555
Mn0 O13 1.919315 1_555
Mn0 O17 1.920485 1_565
Mn0 O9 1.928642 1_655
Mn1 O18 1.882032 1_555
Mn1 O16 1.889229 1_555
Mn1 O3 1.910655 1_555
Mn1 O14 1.919315 1_555
Mn1 O2 1.920485 1_556
Mn1 O10 1.928642 1_655
Mn2 O19 1.909536 1_555
Mn2 O3 1.909536 1_555
Mn2 O2 1.916916 1_555
Mn2 O17 1.916916 1_555
Mn2 O15 1.919482 1_555
Mn2 O11 1.928465 1_655
Mn3 O5 1.882032 1_555
Mn3 O4 1.889229 1_555
Mn3 O23 1.910655 1_555
Mn3 O13 1.919315 1_555
Mn3 O21 1.920485 1_565
Mn3 O9 1.928642 1_555
Mn4 O22 1.882032 1_555
Mn4 O20 1.889229 1_555
Mn4 O7 1.910655 1_555
Mn4 O14 1.919315 1_555
Mn4 O6 1.920485 1_556
Mn4 O10 1.928642 1_555
Mn5 O7 1.909536 1_555
Mn5 O23 1.909536 1_555
Mn5 O6 1.916916 1_555
Mn5 O21 1.916916 1_555
Mn5 O15 1.919482 1_555
Mn5 O11 1.928465 1_555
O0 Ti0 1.949984 1_554
O0 Sr0 2.751336 1_665
O1 Ti0 1.936155 1_555
O2 Sr0 2.729015 1_655
O4 Ti1 1.949984 1_554
O4 Sr0 2.751336 1_565
O5 Ti1 1.936155 1_555
O6 Sr0 2.729015 1_555
O8 Ti1 1.929759 1_555
O8 Ti0 1.929759 1_455
O8 Sr0 2.756737 1_566
O9 Sr0 2.738382 1_565
O10 Sr0 2.738382 1_556
O11 Sr0 2.708169 1_555
O12 Ti1 1.918048 1_555
O12 Ti0 1.918048 1_555
O16 Ti0 1.949984 1_545
O16 Sr0 2.751336 1_656
O17 Sr0 2.729015 1_655
O18 Ti0 1.936155 1_555
O20 Ti1 1.949984 1_545
O20 Sr0 2.751336 1_556
O21 Sr0 2.729015 1_555
O22 Ti1 1.936155 1_555
