# generated using pymatgen
data_Hf2VRh
_symmetry_space_group_name_H-M   'P 1'
_cell_length_a   10.47773417
_cell_length_b   10.47773417
_cell_length_c   10.47773417
_cell_angle_alpha   128.38625782
_cell_angle_beta   116.93561187
_cell_angle_gamma   85.75917991
_symmetry_Int_Tables_number   1
_chemical_formula_structural   Hf2VRh
_chemical_formula_sum   'Hf2 V1 Rh1'
_cell_volume   767.62586192
_cell_formula_units_Z   1
loop_
 _symmetry_equiv_pos_site_id
 _symmetry_equiv_pos_as_xyz
  1  'x, y, z'
loop_
 _atom_site_type_symbol
 _atom_site_label
 _atom_site_symmetry_multiplicity
 _atom_site_fract_x
 _atom_site_fract_y
 _atom_site_fract_z
 _atom_site_occupancy
  Hf  Hf0  1  0.00000000  0.24661300  0.24661300  1
  Hf  Hf1  1  0.00000000  0.75338700  0.75338700  1
  V  V0  1  0.00000000  0.00000000  0.00000000  1
  Rh  Rh0  1  0.00000000  0.50000000  0.50000000  1
loop_
_geom_bond_atom_site_label_1
_geom_bond_atom_site_label_2
_geom_bond_distance
_geom_bond_site_symmetry_2
Hf0 V0 2.249785 1_555
Hf0 Rh0 2.311582 1_555
Hf1 V0 2.249785 1_566
Hf1 Rh0 2.311582 1_555
