# generated using pymatgen
data_Na5Mn2P2(CO7)2
_symmetry_space_group_name_H-M   'P 1'
_cell_length_a   6.70268600
_cell_length_b   10.38959000
_cell_length_c   10.51821450
_cell_angle_alpha   60.51486101
_cell_angle_beta   90.00000000
_cell_angle_gamma   90.00000000
_symmetry_Int_Tables_number   1
_chemical_formula_structural   Na5Mn2P2(CO7)2
_chemical_formula_sum   'Na10 Mn4 P4 C4 O28'
_cell_volume   637.60218279
_cell_formula_units_Z   2
loop_
 _symmetry_equiv_pos_site_id
 _symmetry_equiv_pos_as_xyz
  1  'x, y, z'
loop_
 _atom_site_type_symbol
 _atom_site_label
 _atom_site_symmetry_multiplicity
 _atom_site_fract_x
 _atom_site_fract_y
 _atom_site_fract_z
 _atom_site_occupancy
  Na  Na0  1  0.25000000  0.90501400  0.17536600  1
  Na  Na1  1  0.00998600  0.26226100  0.99096100  1
  Na  Na2  1  0.49001400  0.26226100  0.99096100  1
  Na  Na3  1  0.99917100  0.73759800  0.50434100  1
  Na  Na4  1  0.50082900  0.73759800  0.50434100  1
  Na  Na5  1  0.50998600  0.73773900  0.00903900  1
  Na  Na6  1  0.99001400  0.73773900  0.00903900  1
  Na  Na7  1  0.49917100  0.26240200  0.49565900  1
  Na  Na8  1  0.00082900  0.26240200  0.49565900  1
  Na  Na9  1  0.75000000  0.09498600  0.82463400  1
  Mn  Mn0  1  0.75000000  0.53803100  0.82035500  1
  Mn  Mn1  1  0.75000000  0.03953000  0.31716900  1
  Mn  Mn2  1  0.25000000  0.46196900  0.17964500  1
  Mn  Mn3  1  0.25000000  0.96047000  0.68283100  1
  P  P0  1  0.25000000  0.60923500  0.81065200  1
  P  P1  1  0.25000000  0.10890900  0.31045400  1
  P  P2  1  0.75000000  0.39076500  0.18934800  1
  P  P3  1  0.75000000  0.89109100  0.68954600  1
  C  C0  1  0.75000000  0.41459100  0.65456400  1
  C  C1  1  0.75000000  0.92468700  0.14162300  1
  C  C2  1  0.25000000  0.58540900  0.34543600  1
  C  C3  1  0.25000000  0.07531300  0.85837700  1
  O  O0  1  0.25000000  0.66301000  0.40905800  1
  O  O1  1  0.25000000  0.13784200  0.93762700  1
  O  O2  1  0.75000000  0.34510500  0.79965200  1
  O  O3  1  0.75000000  0.84979600  0.28423400  1
  O  O4  1  0.75000000  0.55674900  0.59045500  1
  O  O5  1  0.75000000  0.06884400  0.08070100  1
  O  O6  1  0.06141100  0.52438600  0.80636800  1
  O  O7  1  0.43858900  0.52438600  0.80636800  1
  O  O8  1  0.06528900  0.02348300  0.30037400  1
  O  O9  1  0.43471100  0.02348300  0.30037400  1
  O  O10  1  0.25000000  0.26915400  0.17296100  1
  O  O11  1  0.75000000  0.37430500  0.05062700  1
  O  O12  1  0.25000000  0.76741500  0.67145000  1
  O  O13  1  0.75000000  0.87678300  0.55011800  1
  O  O14  1  0.25000000  0.62569500  0.94937300  1
  O  O15  1  0.75000000  0.73084600  0.82703900  1
  O  O16  1  0.25000000  0.12321700  0.44988200  1
  O  O17  1  0.75000000  0.23258500  0.32855000  1
  O  O18  1  0.56141100  0.47561400  0.19363200  1
  O  O19  1  0.93858900  0.47561400  0.19363200  1
  O  O20  1  0.56528900  0.97651700  0.69962600  1
  O  O21  1  0.93471100  0.97651700  0.69962600  1
  O  O22  1  0.25000000  0.44325100  0.40954500  1
  O  O23  1  0.25000000  0.93115600  0.91929900  1
  O  O24  1  0.25000000  0.65489500  0.20034800  1
  O  O25  1  0.25000000  0.15020400  0.71576600  1
  O  O26  1  0.75000000  0.33699000  0.59094200  1
  O  O27  1  0.75000000  0.86215800  0.06237300  1
loop_
_geom_bond_atom_site_label_1
_geom_bond_atom_site_label_2
_geom_bond_distance
_geom_bond_site_symmetry_2
Na0 O24 2.479872 1_555
Na0 O1 2.479908 1_564
Na0 O0 2.505967 1_555
Na0 O9 2.523839 1_565
Na0 O8 2.523839 1_565
Na0 O23 2.570580 1_554
Na1 O1 2.299468 1_555
Na1 O11 2.346230 1_456
Na1 O5 2.469537 1_456
Na1 O6 2.469852 1_555
Na1 O2 2.474194 1_455
Na1 O10 2.528384 1_556
Na2 O1 2.299468 1_555
Na2 O11 2.346230 1_556
Na2 O5 2.469537 1_556
Na2 O7 2.469852 1_555
Na2 O2 2.474194 1_555
Na2 O10 2.528384 1_556
Na3 O0 2.279475 1_655
Na3 O4 2.337693 1_555
Na3 O13 2.407833 1_555
Na3 O12 2.558901 1_655
Na3 O3 2.617507 1_555
Na3 O8 2.710804 1_665
Na3 O6 2.871530 1_655
Na4 O0 2.279475 1_555
Na4 O4 2.337693 1_555
Na4 O13 2.407833 1_555
Na4 O12 2.558901 1_555
Na4 O3 2.617507 1_555
Na4 O9 2.710804 1_565
Na4 O7 2.871530 1_555
Na5 O27 2.299468 1_555
Na5 O14 2.346230 1_554
Na5 O23 2.469537 1_554
Na5 O18 2.469852 1_555
Na5 O24 2.474194 1_555
Na5 O15 2.528384 1_554
Na6 O27 2.299468 1_555
Na6 O14 2.346230 1_654
Na6 O23 2.469537 1_654
Na6 O19 2.469852 1_555
Na6 O24 2.474194 1_655
Na6 O15 2.528384 1_554
Na7 O26 2.279475 1_555
Na7 O22 2.337693 1_555
Na7 O16 2.407833 1_555
Na7 O17 2.558901 1_555
Na7 O25 2.617507 1_555
Na7 O20 2.710804 1_545
Na7 O18 2.871530 1_555
Na8 O26 2.279475 1_455
Na8 O22 2.337693 1_555
Na8 O16 2.407833 1_555
Na8 O17 2.558901 1_455
Na8 O25 2.617507 1_555
Na8 O21 2.710804 1_445
Na8 O19 2.871530 1_455
Na9 O2 2.479872 1_555
Na9 O27 2.479908 1_546
Na9 O26 2.505967 1_555
Na9 O21 2.523839 1_545
Na9 O20 2.523839 1_545
Na9 O5 2.570580 1_556
Mn0 O15 2.038791 1_555
Mn0 O7 2.102154 1_555
Mn0 O6 2.102154 1_655
Mn0 O2 2.120093 1_555
Mn0 O11 2.168907 1_556
Mn0 O4 2.328580 1_555
Mn1 O17 2.067310 1_555
Mn1 O8 2.134001 1_655
Mn1 O9 2.134001 1_555
Mn1 O3 2.162889 1_545
Mn1 O13 2.187288 1_545
Mn1 O5 2.352305 1_555
Mn2 O10 2.038791 1_555
Mn2 O18 2.102154 1_555
Mn2 O19 2.102154 1_455
Mn2 O24 2.120093 1_555
Mn2 O14 2.168907 1_554
Mn2 O22 2.328580 1_555
Mn3 O12 2.067310 1_555
Mn3 O20 2.134001 1_555
Mn3 O21 2.134001 1_455
Mn3 O25 2.162889 1_565
Mn3 O16 2.187288 1_565
Mn3 O23 2.352305 1_555
C0 O26 1.276304 1_555
C0 O4 1.286749 1_555
C0 O2 1.328737 1_555
C1 O27 1.284508 1_555
C1 O3 1.306342 1_555
C1 O5 1.307309 1_565
C2 O0 1.276304 1_555
C2 O22 1.286749 1_555
C2 O24 1.328737 1_555
C3 O1 1.284508 1_555
C3 O25 1.306342 1_555
C3 O23 1.307309 1_545
O6 P0 1.554377 1_555
O7 P0 1.554377 1_555
O8 P1 1.557047 1_555
O9 P1 1.557047 1_555
O10 P1 1.578961 1_555
O11 P2 1.550432 1_555
O12 P0 1.573505 1_555
O13 P3 1.545129 1_555
O14 P0 1.550432 1_555
O15 P3 1.578961 1_555
O16 P1 1.545129 1_555
O17 P2 1.573505 1_555
O18 P2 1.554377 1_555
O19 P2 1.554377 1_555
O20 P3 1.557047 1_555
O21 P3 1.557047 1_555
