# generated using pymatgen
data_Cs2KSiF7
_symmetry_space_group_name_H-M   'P 1'
_cell_length_a   8.23549949
_cell_length_b   8.23549949
_cell_length_c   6.06746400
_cell_angle_alpha   90.00000000
_cell_angle_beta   90.00000000
_cell_angle_gamma   90.76136136
_symmetry_Int_Tables_number   1
_chemical_formula_structural   Cs2KSiF7
_chemical_formula_sum   'Cs4 K2 Si2 F14'
_cell_volume   411.48002045
_cell_formula_units_Z   2
loop_
 _symmetry_equiv_pos_site_id
 _symmetry_equiv_pos_as_xyz
  1  'x, y, z'
loop_
 _atom_site_type_symbol
 _atom_site_label
 _atom_site_symmetry_multiplicity
 _atom_site_fract_x
 _atom_site_fract_y
 _atom_site_fract_z
 _atom_site_occupancy
  Cs  Cs0  1  0.00000000  0.50000000  0.00000000  1
  Cs  Cs1  1  0.50000000  0.00000000  0.00000000  1
  Cs  Cs2  1  0.69437300  0.30562700  0.50000000  1
  Cs  Cs3  1  0.30562700  0.69437300  0.50000000  1
  K  K0  1  0.19564400  0.19564400  0.50000000  1
  K  K1  1  0.80435600  0.80435600  0.50000000  1
  Si  Si0  1  0.00000000  0.00000000  0.00000000  1
  Si  Si1  1  0.50000000  0.50000000  0.00000000  1
  F  F0  1  0.89706000  0.10294000  0.79649200  1
  F  F1  1  0.10294000  0.89706000  0.79649200  1
  F  F2  1  0.39421900  0.39421900  0.79800900  1
  F  F3  1  0.60578100  0.60578100  0.79800900  1
  F  F4  1  0.10294000  0.89706000  0.20350800  1
  F  F5  1  0.89706000  0.10294000  0.20350800  1
  F  F6  1  0.60578100  0.60578100  0.20199100  1
  F  F7  1  0.39421900  0.39421900  0.20199100  1
  F  F8  1  0.64660400  0.35339600  0.00000000  1
  F  F9  1  0.35339600  0.64660400  0.00000000  1
  F  F10  1  0.14863500  0.14863500  0.00000000  1
  F  F11  1  0.85136500  0.85136500  0.00000000  1
  F  F12  1  0.00000000  0.50000000  0.50000000  1
  F  F13  1  0.50000000  0.00000000  0.50000000  1
loop_
_geom_bond_atom_site_label_1
_geom_bond_atom_site_label_2
_geom_bond_distance
_geom_bond_site_symmetry_2
Cs0 F12 3.033732 1_555
Cs0 F12 3.033732 1_554
Cs0 F9 3.136034 1_555
Cs0 F8 3.136034 1_455
Cs0 F10 3.156868 1_555
Cs0 F11 3.156868 1_455
Cs1 F13 3.033732 1_555
Cs1 F13 3.033732 1_554
Cs1 F8 3.136034 1_555
Cs1 F9 3.136034 1_545
Cs1 F10 3.156868 1_555
Cs1 F11 3.156868 1_545
Cs2 F13 2.964894 1_555
Cs2 F12 2.964894 1_655
Cs2 F5 2.980425 1_555
Cs2 F0 2.980425 1_555
Cs2 F8 3.084991 1_556
Cs2 F8 3.084991 1_555
Cs2 F7 3.155957 1_555
Cs2 F2 3.155957 1_555
Cs2 F6 3.155957 1_555
Cs2 F3 3.155957 1_555
Cs3 F13 2.964894 1_565
Cs3 F12 2.964894 1_555
Cs3 F1 2.980425 1_555
Cs3 F4 2.980425 1_555
Cs3 F9 3.084991 1_556
Cs3 F9 3.084991 1_555
Cs3 F7 3.155957 1_555
Cs3 F2 3.155957 1_555
Cs3 F6 3.155957 1_555
Cs3 F3 3.155957 1_555
F0 Si0 1.726609 1_656
F0 K0 3.133025 1_655
F0 K1 3.133025 1_545
F1 Si0 1.726609 1_566
F1 K0 3.133025 1_565
F1 K1 3.133025 1_455
F2 Si1 1.731964 1_556
F2 K0 2.923559 1_555
F3 Si1 1.731964 1_556
F3 K1 2.923559 1_555
F4 Si0 1.726609 1_565
F4 K0 3.133025 1_565
F4 K1 3.133025 1_455
F5 Si0 1.726609 1_655
F5 K0 3.133025 1_655
F5 K1 3.133025 1_545
F6 Si1 1.731964 1_555
F6 K1 2.923559 1_555
F7 Si1 1.731964 1_555
F7 K0 2.923559 1_555
F8 Si1 1.718768 1_555
F9 Si1 1.718768 1_555
F10 Si0 1.719576 1_555
F10 K0 3.082094 1_555
F10 K0 3.082094 1_554
F11 Si0 1.719576 1_665
F11 K1 3.082094 1_555
F11 K1 3.082094 1_554
F12 K0 2.997672 1_555
F12 K1 2.997672 1_455
F13 K1 2.997672 1_545
F13 K0 2.997672 1_555
