# generated using pymatgen
data_VPH11O9
_symmetry_space_group_name_H-M   'P 1'
_cell_length_a   12.57399800
_cell_length_b   12.57399800
_cell_length_c   6.48701100
_cell_angle_alpha   90.00000000
_cell_angle_beta   90.00000000
_cell_angle_gamma   90.00000000
_symmetry_Int_Tables_number   1
_chemical_formula_structural   VPH11O9
_chemical_formula_sum   'V4 P4 H44 O36'
_cell_volume   1025.63163570
_cell_formula_units_Z   4
loop_
 _symmetry_equiv_pos_site_id
 _symmetry_equiv_pos_as_xyz
  1  'x, y, z'
loop_
 _atom_site_type_symbol
 _atom_site_label
 _atom_site_symmetry_multiplicity
 _atom_site_fract_x
 _atom_site_fract_y
 _atom_site_fract_z
 _atom_site_occupancy
  V  V0  1  0.83020000  0.45219600  0.77335000  1
  V  V1  1  0.16980000  0.54780400  0.27335000  1
  V  V2  1  0.54780400  0.83020000  0.52335000  1
  V  V3  1  0.45219600  0.16980000  0.02335000  1
  P  P0  1  0.08675400  0.57328100  0.77183300  1
  P  P1  1  0.91324600  0.42671900  0.27183300  1
  P  P2  1  0.42671900  0.08675400  0.52183300  1
  P  P3  1  0.57328100  0.91324600  0.02183300  1
  H  H0  1  0.88488400  0.14175700  0.83088300  1
  H  H1  1  0.11511600  0.85824300  0.33088300  1
  H  H2  1  0.85824300  0.88488400  0.58088300  1
  H  H3  1  0.14175700  0.11511600  0.08088300  1
  H  H4  1  0.77231400  0.13889000  0.41837800  1
  H  H5  1  0.22768600  0.86111000  0.91837800  1
  H  H6  1  0.86111000  0.77231400  0.16837800  1
  H  H7  1  0.13889000  0.22768600  0.66837800  1
  H  H8  1  0.62715300  0.29365400  0.92180600  1
  H  H9  1  0.37284700  0.70634600  0.42180600  1
  H  H10  1  0.70634600  0.62715300  0.67180600  1
  H  H11  1  0.29365400  0.37284700  0.17180600  1
  H  H12  1  0.60966800  0.33423800  0.44468000  1
  H  H13  1  0.39033200  0.66576200  0.94468000  1
  H  H14  1  0.66576200  0.60966800  0.19468000  1
  H  H15  1  0.33423800  0.39033200  0.69468000  1
  H  H16  1  0.65742700  0.17330500  0.92102900  1
  H  H17  1  0.34257300  0.82669500  0.42102900  1
  H  H18  1  0.82669500  0.65742700  0.67102900  1
  H  H19  1  0.17330500  0.34257300  0.17102900  1
  H  H20  1  0.41620700  0.55736400  0.78361500  1
  H  H21  1  0.58379300  0.44263600  0.28361500  1
  H  H22  1  0.44263600  0.41620700  0.53361500  1
  H  H23  1  0.55736400  0.58379300  0.03361500  1
  H  H24  1  0.86676500  0.72072500  0.11080400  1
  H  H25  1  0.13323500  0.27927500  0.61080400  1
  H  H26  1  0.27927500  0.86676500  0.86080400  1
  H  H27  1  0.72072500  0.13323500  0.36080400  1
  H  H28  1  0.90427600  0.98518500  0.98165500  1
  H  H29  1  0.09572400  0.01481500  0.48165500  1
  H  H30  1  0.01481500  0.90427600  0.73165500  1
  H  H31  1  0.98518500  0.09572400  0.23165500  1
  H  H32  1  0.71041300  0.94973800  0.40600000  1
  H  H33  1  0.28958700  0.05026200  0.90600000  1
  H  H34  1  0.05026200  0.71041300  0.15600000  1
  H  H35  1  0.94973800  0.28958700  0.65600000  1
  H  H36  1  0.64255200  0.28411800  0.44211700  1
  H  H37  1  0.35744800  0.71588200  0.94211700  1
  H  H38  1  0.71588200  0.64255200  0.19211700  1
  H  H39  1  0.28411800  0.35744800  0.69211700  1
  H  H40  1  0.04457000  0.72600600  0.63431200  1
  H  H41  1  0.95543000  0.27399400  0.13431200  1
  H  H42  1  0.27399400  0.04457000  0.38431200  1
  H  H43  1  0.72600600  0.95543000  0.88431200  1
  O  O0  1  0.98000000  0.51552500  0.77278600  1
  O  O1  1  0.02000000  0.48447500  0.27278600  1
  O  O2  1  0.48447500  0.98000000  0.52278600  1
  O  O3  1  0.51552500  0.02000000  0.02278600  1
  O  O4  1  0.15337000  0.54798300  0.58203500  1
  O  O5  1  0.84663000  0.45201700  0.08203500  1
  O  O6  1  0.45201700  0.15337000  0.33203500  1
  O  O7  1  0.54798300  0.84663000  0.83203500  1
  O  O8  1  0.15067500  0.55928100  0.96972800  1
  O  O9  1  0.84932500  0.44071900  0.46972800  1
  O  O10  1  0.44071900  0.15067500  0.71972800  1
  O  O11  1  0.55928100  0.84932500  0.21972800  1
  O  O12  1  0.77597800  0.60906400  0.73509300  1
  O  O13  1  0.22402200  0.39093600  0.23509300  1
  O  O14  1  0.39093600  0.77597800  0.48509300  1
  O  O15  1  0.60906400  0.22402200  0.98509300  1
  O  O16  1  0.91304800  0.29510400  0.78999000  1
  O  O17  1  0.08695200  0.70489600  0.28999000  1
  O  O18  1  0.70489600  0.91304800  0.53999000  1
  O  O19  1  0.29510400  0.08695200  0.03999000  1
  O  O20  1  0.70988100  0.40184200  0.78921700  1
  O  O21  1  0.29011900  0.59815800  0.28921700  1
  O  O22  1  0.59815800  0.70988100  0.53921700  1
  O  O23  1  0.40184200  0.29011900  0.03921700  1
  O  O24  1  0.20441400  0.16061400  0.03012400  1
  O  O25  1  0.79558600  0.83938600  0.53012400  1
  O  O26  1  0.83938600  0.20441400  0.78012400  1
  O  O27  1  0.16061400  0.79558600  0.28012400  1
  O  O28  1  0.94141100  0.03514800  0.89107800  1
  O  O29  1  0.05858900  0.96485200  0.39107800  1
  O  O30  1  0.96485200  0.94141100  0.64107800  1
  O  O31  1  0.03514800  0.05858900  0.14107800  1
  O  O32  1  0.93932300  0.29898400  0.27338800  1
  O  O33  1  0.06067700  0.70101600  0.77338800  1
  O  O34  1  0.70101600  0.93932300  0.02338800  1
  O  O35  1  0.29898400  0.06067700  0.52338800  1
loop_
_geom_bond_atom_site_label_1
_geom_bond_atom_site_label_2
_geom_bond_distance
_geom_bond_site_symmetry_2
H0 O26 1.027821 1_555
H0 O28 1.566722 1_555
H1 O27 1.027821 1_555
H1 O29 1.566722 1_555
H2 O25 1.027821 1_555
H2 O30 1.566722 1_555
H3 O24 1.027821 1_555
H3 O31 1.566722 1_555
H8 O15 0.993414 1_555
H9 O14 0.993414 1_555
H10 O12 0.993414 1_555
H11 O13 0.993414 1_555
H12 H36 0.753928 1_555
H13 H37 0.753928 1_555
H14 H38 0.753928 1_555
H15 H39 0.753928 1_555
H16 O15 0.974267 1_555
H17 O14 0.974267 1_555
H18 O12 0.974267 1_555
H19 O13 0.974267 1_555
H24 H6 0.751885 1_555
H25 H7 0.751885 1_555
H26 H5 0.751885 1_555
H27 H4 0.751885 1_555
H28 O28 0.978750 1_565
H29 O29 0.978750 1_545
H30 O30 0.978750 1_455
H31 O31 0.978750 1_655
H32 O18 0.986482 1_555
H33 O19 0.986482 1_556
H34 O17 0.986482 1_555
H35 O16 0.986482 1_555
H40 O33 0.976574 1_555
H41 O32 0.976574 1_555
H42 O35 0.976574 1_555
H43 O34 0.976574 1_556
O0 P0 1.526196 1_655
O0 V0 2.044993 1_555
O1 P1 1.526196 1_455
O1 V1 2.044993 1_555
O2 P2 1.526196 1_565
O2 V2 2.044993 1_555
O3 P3 1.526196 1_545
O3 V3 2.044993 1_555
O4 P0 1.522733 1_555
O4 V1 2.013073 1_555
O5 P1 1.522733 1_555
O5 V0 2.013073 1_554
O6 P2 1.522733 1_555
O6 V3 2.013073 1_555
O7 P3 1.522733 1_556
O7 V2 2.013073 1_555
O8 P0 1.524794 1_555
O8 V1 1.989466 1_556
O9 P1 1.524794 1_555
O9 V0 1.989466 1_555
O10 P2 1.524794 1_555
O10 V3 1.989466 1_556
O11 P3 1.524794 1_555
O11 V2 1.989466 1_555
O12 V0 2.101669 1_555
O13 V1 2.101669 1_555
O14 V2 2.101669 1_555
O15 V3 2.101669 1_556
O16 V0 2.235747 1_555
O17 V1 2.235747 1_555
O18 V2 2.235747 1_555
O19 V3 2.235747 1_555
O20 V0 1.643263 1_555
O21 V1 1.643263 1_555
O22 V2 1.643263 1_555
O23 V3 1.643263 1_555
O32 P1 1.639298 1_555
O33 P0 1.639298 1_555
O34 P3 1.639298 1_555
O35 P2 1.639298 1_555
