# generated using pymatgen
data_Mg3As2
_symmetry_space_group_name_H-M   'P 1'
_cell_length_a   10.70595814
_cell_length_b   10.70595886
_cell_length_c   10.70595736
_cell_angle_alpha   109.47122351
_cell_angle_beta   109.47122487
_cell_angle_gamma   109.47121501
_symmetry_Int_Tables_number   1
_chemical_formula_structural   Mg3As2
_chemical_formula_sum   'Mg24 As16'
_cell_volume   944.61474765
_cell_formula_units_Z   8
loop_
 _symmetry_equiv_pos_site_id
 _symmetry_equiv_pos_as_xyz
  1  'x, y, z'
loop_
 _atom_site_type_symbol
 _atom_site_label
 _atom_site_symmetry_multiplicity
 _atom_site_fract_x
 _atom_site_fract_y
 _atom_site_fract_z
 _atom_site_occupancy
  Mg  Mg0  1  0.02358330  0.49303225  0.75886456  1
  Mg  Mg1  1  0.23416769  0.26471974  0.74113544  1
  Mg  Mg2  1  0.26583231  0.00696775  0.03055005  1
  Mg  Mg3  1  0.23528026  0.46944995  0.47641670  1
  Mg  Mg4  1  0.46944995  0.47641670  0.23528026  1
  Mg  Mg5  1  0.75886456  0.02358330  0.49303225  1
  Mg  Mg6  1  0.26471974  0.74113544  0.23416769  1
  Mg  Mg7  1  0.03055005  0.26583231  0.00696775  1
  Mg  Mg8  1  0.49303225  0.75886456  0.02358330  1
  Mg  Mg9  1  0.74113544  0.23416769  0.26471974  1
  Mg  Mg10  1  0.00696775  0.03055005  0.26583231  1
  Mg  Mg11  1  0.47641670  0.23528026  0.46944995  1
  Mg  Mg12  1  0.97641670  0.50696775  0.24113544  1
  Mg  Mg13  1  0.76583231  0.73528026  0.25886456  1
  Mg  Mg14  1  0.73416769  0.99303225  0.96944995  1
  Mg  Mg15  1  0.76471974  0.53055005  0.52358330  1
  Mg  Mg16  1  0.52358330  0.76471974  0.53055005  1
  Mg  Mg17  1  0.99303225  0.96944995  0.73416769  1
  Mg  Mg18  1  0.25886456  0.76583231  0.73528026  1
  Mg  Mg19  1  0.50696775  0.24113544  0.97641670  1
  Mg  Mg20  1  0.96944995  0.73416769  0.99303225  1
  Mg  Mg21  1  0.73528026  0.25886456  0.76583231  1
  Mg  Mg22  1  0.24113544  0.97641670  0.50696775  1
  Mg  Mg23  1  0.53055005  0.52358330  0.76471974  1
  As  As0  1  0.25000000  0.72798969  0.47798969  1
  As  As1  1  0.02201031  0.75000000  0.77201031  1
  As  As2  1  0.77201031  0.02201031  0.75000000  1
  As  As3  1  0.47798969  0.25000000  0.72798969  1
  As  As4  1  0.72798969  0.47798969  0.25000000  1
  As  As5  1  0.75000000  0.77201031  0.02201031  1
  As  As6  1  0.75000000  0.27201031  0.52201031  1
  As  As7  1  0.97798969  0.25000000  0.22798969  1
  As  As8  1  0.22798969  0.97798969  0.25000000  1
  As  As9  1  0.52201031  0.75000000  0.27201031  1
  As  As10  1  0.27201031  0.52201031  0.75000000  1
  As  As11  1  0.25000000  0.22798969  0.97798969  1
  As  As12  1  0.00000000  0.50000000  -0.00000000  1
  As  As13  1  0.50000000  0.00000000  -0.00000000  1
  As  As14  1  0.00000000  0.00000000  0.50000000  1
  As  As15  1  0.50000000  0.50000000  0.50000000  1
loop_
_geom_bond_atom_site_label_1
_geom_bond_atom_site_label_2
_geom_bond_distance
_geom_bond_site_symmetry_2
As0 Mg18 2.610891 1_555
As0 Mg22 2.610902 1_555
As0 Mg16 2.652549 1_555
As0 Mg12 2.652550 1_455
As0 Mg3 2.713455 1_555
As0 Mg6 2.713472 1_555
As1 Mg15 2.610899 1_455
As1 Mg17 2.610912 1_455
As1 Mg20 2.652545 1_455
As1 Mg18 2.652555 1_555
As1 Mg2 2.713464 1_566
As1 Mg0 2.713468 1_555
As2 Mg16 2.610899 1_545
As2 Mg14 2.610912 1_545
As2 Mg17 2.652545 1_545
As2 Mg21 2.652555 1_555
As2 Mg7 2.713464 1_656
As2 Mg5 2.713468 1_555
As3 Mg21 2.610891 1_555
As3 Mg19 2.610901 1_555
As3 Mg23 2.652549 1_555
As3 Mg22 2.652550 1_545
As3 Mg11 2.713454 1_555
As3 Mg1 2.713472 1_555
As4 Mg13 2.610891 1_555
As4 Mg12 2.610902 1_555
As4 Mg15 2.652549 1_555
As4 Mg19 2.652550 1_554
As4 Mg4 2.713454 1_555
As4 Mg9 2.713472 1_555
As5 Mg23 2.610899 1_554
As5 Mg20 2.610912 1_554
As5 Mg14 2.652545 1_554
As5 Mg13 2.652555 1_555
As5 Mg10 2.713464 1_665
As5 Mg8 2.713468 1_555
As6 Mg9 2.610891 1_555
As6 Mg5 2.610902 1_555
As6 Mg11 2.652549 1_555
As6 Mg0 2.652550 1_655
As6 Mg15 2.713455 1_555
As6 Mg21 2.713472 1_555
As7 Mg3 2.610899 1_655
As7 Mg10 2.610912 1_655
As7 Mg7 2.652545 1_655
As7 Mg9 2.652555 1_555
As7 Mg14 2.713464 1_544
As7 Mg12 2.713468 1_555
As8 Mg11 2.610899 1_565
As8 Mg2 2.610912 1_565
As8 Mg10 2.652545 1_565
As8 Mg6 2.652555 1_555
As8 Mg20 2.713464 1_454
As8 Mg22 2.713468 1_555
As9 Mg6 2.610891 1_555
As9 Mg8 2.610901 1_555
As9 Mg4 2.652549 1_555
As9 Mg5 2.652550 1_565
As9 Mg16 2.713454 1_555
As9 Mg13 2.713472 1_555
As10 Mg1 2.610891 1_555
As10 Mg0 2.610902 1_555
As10 Mg3 2.652549 1_555
As10 Mg8 2.652550 1_556
As10 Mg23 2.713454 1_555
As10 Mg18 2.713472 1_555
As11 Mg4 2.610899 1_556
As11 Mg7 2.610912 1_556
As11 Mg2 2.652545 1_556
As11 Mg1 2.652555 1_555
As11 Mg17 2.713464 1_445
As11 Mg19 2.713468 1_555
As12 Mg7 2.655670 1_555
As12 Mg20 2.655670 1_454
As12 Mg12 2.655674 1_455
As12 Mg0 2.655674 1_554
As12 Mg6 2.655679 1_555
As12 Mg21 2.655679 1_454
As13 Mg2 2.655669 1_555
As13 Mg14 2.655669 1_544
As13 Mg8 2.655674 1_545
As13 Mg19 2.655674 1_554
As13 Mg9 2.655679 1_555
As13 Mg18 2.655679 1_544
As14 Mg10 2.655669 1_555
As14 Mg17 2.655669 1_445
As14 Mg22 2.655674 1_545
As14 Mg5 2.655674 1_455
As14 Mg13 2.655679 1_445
As14 Mg1 2.655679 1_555
As15 Mg4 2.655687 1_555
As15 Mg23 2.655687 1_555
As15 Mg15 2.655688 1_555
As15 Mg3 2.655688 1_555
As15 Mg16 2.655688 1_555
As15 Mg11 2.655688 1_555
