# generated using pymatgen
data_KGe
_symmetry_space_group_name_H-M   'P 1'
_cell_length_a   10.70239106
_cell_length_b   10.70239106
_cell_length_c   11.52887961
_cell_angle_alpha   117.65559320
_cell_angle_beta   117.65559320
_cell_angle_gamma   90.00000000
_symmetry_Int_Tables_number   1
_chemical_formula_structural   KGe
_chemical_formula_sum   'K16 Ge16'
_cell_volume   996.20857872
_cell_formula_units_Z   16
loop_
 _symmetry_equiv_pos_site_id
 _symmetry_equiv_pos_as_xyz
  1  'x, y, z'
loop_
 _atom_site_type_symbol
 _atom_site_label
 _atom_site_symmetry_multiplicity
 _atom_site_fract_x
 _atom_site_fract_y
 _atom_site_fract_z
 _atom_site_occupancy
  K  K0  1  0.25000000  0.39115738  -0.00000000  1
  K  K1  1  0.25000000  0.89115738  -0.00000000  1
  K  K2  1  0.10884262  0.75000000  0.50000000  1
  K  K3  1  0.89115738  0.25000000  0.50000000  1
  K  K4  1  0.75000000  0.60884262  0.00000000  1
  K  K5  1  0.75000000  0.10884262  0.00000000  1
  K  K6  1  0.60884262  0.75000000  0.50000000  1
  K  K7  1  0.39115738  0.25000000  0.50000000  1
  K  K8  1  0.75266321  0.24733679  0.75000000  1
  K  K9  1  0.49733679  0.74733679  0.75000000  1
  K  K10  1  0.00266321  0.99733679  0.25000000  1
  K  K11  1  0.74733679  0.49733679  0.25000000  1
  K  K12  1  0.24733679  0.75266321  0.25000000  1
  K  K13  1  0.50266321  0.25266321  0.25000000  1
  K  K14  1  0.99733679  0.00266321  0.75000000  1
  K  K15  1  0.25266321  0.50266321  0.75000000  1
  Ge  Ge0  1  0.27962818  0.48977658  0.35391611  1
  Ge  Ge1  1  0.57428693  0.98977658  0.35391611  1
  Ge  Ge2  1  0.36414153  0.07428693  0.85391611  1
  Ge  Ge3  1  0.98977658  0.57428693  0.85391611  1
  Ge  Ge4  1  0.72037182  0.51022342  0.64608389  1
  Ge  Ge5  1  0.42571307  0.01022342  0.64608389  1
  Ge  Ge6  1  0.63585847  0.92571307  0.14608389  1
  Ge  Ge7  1  0.01022342  0.42571307  0.14608389  1
  Ge  Ge8  1  0.77962818  0.86414153  0.35391611  1
  Ge  Ge9  1  0.07428693  0.36414153  0.35391611  1
  Ge  Ge10  1  0.86414153  0.77962818  0.85391611  1
  Ge  Ge11  1  0.48977658  0.27962818  0.85391611  1
  Ge  Ge12  1  0.22037182  0.13585847  0.64608389  1
  Ge  Ge13  1  0.92571307  0.63585847  0.64608389  1
  Ge  Ge14  1  0.13585847  0.22037182  0.14608389  1
  Ge  Ge15  1  0.51022342  0.72037182  0.14608389  1
loop_
_geom_bond_atom_site_label_1
_geom_bond_atom_site_label_2
_geom_bond_distance
_geom_bond_site_symmetry_2
Ge0 Ge7 2.566360 1_555
Ge0 Ge14 2.566362 1_555
Ge0 Ge9 2.576348 1_555
Ge0 K12 3.495039 1_555
Ge0 K9 3.509608 1_555
Ge0 K2 3.526634 1_555
Ge0 K0 3.558672 1_555
Ge0 K7 3.604502 1_555
Ge0 K6 3.625486 1_555
Ge0 K13 3.661332 1_555
Ge1 Ge6 2.566353 1_555
Ge1 Ge15 2.566360 1_555
Ge1 Ge8 2.576348 1_555
Ge1 K13 3.495038 1_565
Ge1 K8 3.509607 1_565
Ge1 K3 3.526642 1_565
Ge1 K1 3.558668 1_555
Ge1 K6 3.604501 1_555
Ge1 K7 3.625478 1_565
Ge1 K12 3.661323 1_555
Ge2 Ge5 2.566353 1_555
Ge2 K14 3.495059 1_455
Ge2 K13 3.509611 1_556
Ge2 K0 3.526654 1_556
Ge2 K2 3.558673 1_545
Ge2 K5 3.604481 1_556
Ge2 K1 3.625490 1_546
Ge2 K9 3.661311 1_545
Ge3 Ge4 2.566360 1_555
Ge3 K15 3.495038 1_655
Ge3 K12 3.509607 1_656
Ge3 K1 3.526642 1_656
Ge3 K3 3.558668 1_555
Ge3 K4 3.604501 1_556
Ge3 K0 3.625478 1_656
Ge3 K8 3.661323 1_555
Ge4 K8 3.495039 1_555
Ge4 K13 3.509608 1_555
Ge4 K3 3.526634 1_555
Ge4 K4 3.558672 1_556
Ge4 K6 3.604502 1_555
Ge4 K7 3.625486 1_555
Ge4 K9 3.661332 1_555
Ge5 K9 3.495038 1_545
Ge5 K12 3.509607 1_545
Ge5 K2 3.526642 1_545
Ge5 K5 3.558668 1_556
Ge5 K7 3.604501 1_555
Ge5 K6 3.625478 1_545
Ge5 K8 3.661323 1_555
Ge6 Ge8 2.566354 1_555
Ge6 K10 3.495059 1_655
Ge6 K9 3.509611 1_554
Ge6 K4 3.526654 1_555
Ge6 K3 3.558673 1_565
Ge6 K1 3.604481 1_555
Ge6 K5 3.625490 1_565
Ge6 K13 3.661311 1_565
Ge7 Ge9 2.566353 1_555
Ge7 K11 3.495038 1_455
Ge7 K8 3.509607 1_454
Ge7 K5 3.526642 1_455
Ge7 K2 3.558668 1_555
Ge7 K0 3.604501 1_555
Ge7 K4 3.625478 1_455
Ge7 K12 3.661323 1_555
Ge8 K11 3.495060 1_555
Ge8 K14 3.509612 1_565
Ge8 K6 3.526646 1_555
Ge8 K4 3.558678 1_555
Ge8 K3 3.604482 1_565
Ge8 K2 3.625498 1_655
Ge8 K10 3.661320 1_655
Ge9 K10 3.495059 1_545
Ge9 K15 3.509611 1_555
Ge9 K7 3.526654 1_555
Ge9 K5 3.558673 1_455
Ge9 K2 3.604481 1_555
Ge9 K3 3.625490 1_455
Ge9 K11 3.661311 1_455
Ge10 Ge13 2.566354 1_555
Ge10 Ge4 2.566362 1_555
Ge10 Ge3 2.576348 1_555
Ge10 K9 3.495060 1_555
Ge10 K10 3.509612 1_656
Ge10 K4 3.526646 1_556
Ge10 K6 3.558678 1_555
Ge10 K1 3.604482 1_656
Ge10 K5 3.625498 1_566
Ge10 K14 3.661320 1_565
Ge11 Ge5 2.566360 1_555
Ge11 Ge12 2.566362 1_555
Ge11 Ge2 2.576348 1_555
Ge11 K8 3.495039 1_555
Ge11 K11 3.509608 1_556
Ge11 K5 3.526634 1_556
Ge11 K7 3.558672 1_555
Ge11 K0 3.604502 1_556
Ge11 K4 3.625486 1_556
Ge11 K15 3.661332 1_555
Ge12 Ge2 2.566354 1_555
Ge12 Ge5 2.576348 1_555
Ge12 K15 3.495060 1_555
Ge12 K10 3.509612 1_545
Ge12 K7 3.526646 1_555
Ge12 K0 3.558678 1_556
Ge12 K2 3.604482 1_545
Ge12 K3 3.625498 1_455
Ge12 K14 3.661320 1_455
Ge13 Ge3 2.566353 1_555
Ge13 Ge4 2.576348 1_555
Ge13 K14 3.495059 1_565
Ge13 K11 3.509611 1_555
Ge13 K6 3.526654 1_555
Ge13 K1 3.558673 1_656
Ge13 K3 3.604481 1_555
Ge13 K2 3.625490 1_655
Ge13 K15 3.661311 1_655
Ge14 Ge9 2.566354 1_555
Ge14 Ge7 2.576348 1_555
Ge14 K13 3.495060 1_555
Ge14 K14 3.509612 1_454
Ge14 K0 3.526646 1_555
Ge14 K7 3.558678 1_555
Ge14 K5 3.604482 1_455
Ge14 K1 3.625498 1_545
Ge14 K10 3.661320 1_545
Ge15 Ge8 2.566362 1_555
Ge15 Ge6 2.576348 1_555
Ge15 K12 3.495039 1_555
Ge15 K15 3.509608 1_554
Ge15 K1 3.526634 1_555
Ge15 K6 3.558672 1_555
Ge15 K4 3.604502 1_555
Ge15 K0 3.625486 1_555
Ge15 K11 3.661332 1_555
