# generated using pymatgen
data_HfCuGe2
_symmetry_space_group_name_H-M   'P 1'
_cell_length_a   3.76481062
_cell_length_b   3.76481062
_cell_length_c   9.07486415
_cell_angle_alpha   90.00000000
_cell_angle_beta   90.00000000
_cell_angle_gamma   90.00000000
_symmetry_Int_Tables_number   1
_chemical_formula_structural   HfCuGe2
_chemical_formula_sum   'Hf2 Cu2 Ge4'
_cell_volume   128.62530045
_cell_formula_units_Z   2
loop_
 _symmetry_equiv_pos_site_id
 _symmetry_equiv_pos_as_xyz
  1  'x, y, z'
loop_
 _atom_site_type_symbol
 _atom_site_label
 _atom_site_symmetry_multiplicity
 _atom_site_fract_x
 _atom_site_fract_y
 _atom_site_fract_z
 _atom_site_occupancy
  Hf  Hf0  1  -0.00000000  0.50000000  0.76321027  1
  Hf  Hf1  1  0.50000000  -0.00000000  0.23678973  1
  Cu  Cu0  1  0.50000000  0.50000000  0.50000000  1
  Cu  Cu1  1  0.00000000  -0.00000000  0.50000000  1
  Ge  Ge0  1  0.50000000  0.50000000  0.00000000  1
  Ge  Ge1  1  0.00000000  0.00000000  0.00000000  1
  Ge  Ge2  1  -0.00000000  0.50000000  0.32604902  1
  Ge  Ge3  1  0.50000000  0.00000000  0.67395098  1
loop_
_geom_bond_atom_site_label_1
_geom_bond_atom_site_label_2
_geom_bond_distance
_geom_bond_site_symmetry_2
Cu0 Ge2 2.456699 1_555
Cu0 Ge2 2.456699 1_655
Cu0 Ge3 2.456699 1_565
Cu0 Ge3 2.456699 1_555
Cu0 Cu1 2.662123 1_555
Cu0 Cu1 2.662123 1_665
Cu0 Cu1 2.662123 1_565
Cu0 Cu1 2.662123 1_655
Cu0 Hf1 3.041192 1_555
Cu0 Hf1 3.041192 1_565
Cu0 Hf0 3.041192 1_555
Cu0 Hf0 3.041192 1_655
Cu1 Ge2 2.456699 1_545
Cu1 Ge2 2.456699 1_555
Cu1 Ge3 2.456699 1_455
Cu1 Ge3 2.456699 1_555
Cu1 Hf0 3.041192 1_555
Cu1 Hf1 3.041192 1_455
Cu1 Hf0 3.041192 1_545
Cu1 Hf1 3.041192 1_555
Ge0 Ge1 2.662123 1_565
Ge0 Ge1 2.662123 1_555
Ge0 Ge1 2.662123 1_655
Ge0 Ge1 2.662123 1_665
Ge0 Hf0 2.856736 1_554
Ge0 Hf1 2.856736 1_555
Ge0 Hf0 2.856736 1_654
Ge0 Hf1 2.856736 1_565
Ge1 Hf0 2.856736 1_554
Ge1 Hf1 2.856736 1_455
Ge1 Hf0 2.856736 1_544
Ge1 Hf1 2.856736 1_555
Ge2 Hf1 2.782629 1_465
Ge2 Hf1 2.782629 1_455
Ge2 Hf1 2.782629 1_555
Ge2 Hf1 2.782629 1_565
Ge3 Hf0 2.782629 1_545
Ge3 Hf0 2.782629 1_655
Ge3 Hf0 2.782629 1_645
Ge3 Hf0 2.782629 1_555
