# generated using pymatgen
data_NaAu3
_symmetry_space_group_name_H-M   'P 1'
_cell_length_a   5.28369522
_cell_length_b   5.28369522
_cell_length_c   5.28369522
_cell_angle_alpha   134.34191404
_cell_angle_beta   134.34191404
_cell_angle_gamma   66.55445423
_symmetry_Int_Tables_number   1
_chemical_formula_structural   NaAu3
_chemical_formula_sum   'Na1 Au3'
_cell_volume   74.25364870
_cell_formula_units_Z   1
loop_
 _symmetry_equiv_pos_site_id
 _symmetry_equiv_pos_as_xyz
  1  'x, y, z'
loop_
 _atom_site_type_symbol
 _atom_site_label
 _atom_site_symmetry_multiplicity
 _atom_site_fract_x
 _atom_site_fract_y
 _atom_site_fract_z
 _atom_site_occupancy
  Na  Na0  1  0.00000000  0.00000000  0.00000000  1
  Au  Au0  1  0.75000000  0.25000000  0.50000000  1
  Au  Au1  1  0.25000000  0.75000000  0.50000000  1
  Au  Au2  1  0.50000000  0.50000000  0.00000000  1
loop_
_geom_bond_atom_site_label_1
_geom_bond_atom_site_label_2
_geom_bond_distance
_geom_bond_site_symmetry_2
Au0 Au1 2.899114 1_544
Au0 Au1 2.899114 1_645
Au0 Au1 2.899114 1_555
Au0 Au1 2.899114 1_656
Au0 Au2 3.013399 1_555
Au0 Au2 3.013399 1_556
Au0 Na0 3.013399 1_555
Au0 Au2 3.013399 1_545
Au0 Na0 3.013399 1_655
Au0 Au2 3.013399 1_656
Au0 Na0 3.013399 1_656
Au0 Na0 3.013399 1_666
Au1 Au2 3.013399 1_555
Au1 Au2 3.013399 1_556
Au1 Na0 3.013399 1_555
Au1 Au2 3.013399 1_455
Au1 Na0 3.013399 1_565
Au1 Na0 3.013399 1_566
Au1 Au2 3.013399 1_566
Au1 Na0 3.013399 1_666
Au2 Na0 2.899114 1_565
Au2 Na0 2.899114 1_554
Au2 Na0 2.899114 1_655
Au2 Na0 2.899114 1_666
