# generated using pymatgen
data_Yb6NpO12
_symmetry_space_group_name_H-M   'P 1'
_cell_length_a   9.69727257
_cell_length_b   9.26740332
_cell_length_c   9.06901182
_cell_angle_alpha   140.01067365
_cell_angle_beta   113.46031168
_cell_angle_gamma   56.54534652
_symmetry_Int_Tables_number   1
_chemical_formula_structural   Yb6NpO12
_chemical_formula_sum   'Yb6 Np1 O12'
_cell_volume   436.54374675
_cell_formula_units_Z   1
loop_
 _symmetry_equiv_pos_site_id
 _symmetry_equiv_pos_as_xyz
  1  'x, y, z'
loop_
 _atom_site_type_symbol
 _atom_site_label
 _atom_site_symmetry_multiplicity
 _atom_site_fract_x
 _atom_site_fract_y
 _atom_site_fract_z
 _atom_site_occupancy
  Yb  Yb0  1  0.06724600  0.82778800  0.23890600  1
  Yb  Yb1  1  0.93275400  0.17221200  0.76109400  1
  Yb  Yb2  1  0.67168500  0.90180300  0.11129000  1
  Yb  Yb3  1  0.32831500  0.09819700  0.88871000  1
  Yb  Yb4  1  0.85793000  0.57665300  0.65492700  1
  Yb  Yb5  1  0.14207000  0.42334700  0.34507300  1
  Np  Np0  1  0.00000000  0.00000000  0.00000000  1
  O  O0  1  0.96924800  0.75565400  0.65998000  1
  O  O1  1  0.03075200  0.24434600  0.34002000  1
  O  O2  1  0.16814600  0.73560100  0.96881400  1
  O  O3  1  0.83185400  0.26439900  0.03118600  1
  O  O4  1  0.84370200  0.93903500  0.04142700  1
  O  O5  1  0.15629800  0.06096500  0.95857300  1
  O  O6  1  0.59397300  0.80486700  0.77541100  1
  O  O7  1  0.40602700  0.19513300  0.22458900  1
  O  O8  1  0.85332400  0.49982100  0.83747000  1
  O  O9  1  0.14667600  0.50017900  0.16253000  1
  O  O10  1  0.84072500  0.97324400  0.40173400  1
  O  O11  1  0.15927500  0.02675600  0.59826600  1
loop_
_geom_bond_atom_site_label_1
_geom_bond_atom_site_label_2
_geom_bond_distance
_geom_bond_site_symmetry_2
Np0 O3 1.908622 1_455
Np0 O2 1.908622 1_544
Np0 O1 2.009476 1_555
Np0 O0 2.009476 1_444
Np0 O5 2.116699 1_554
Np0 O4 2.116699 1_445
O0 Yb5 2.256629 1_655
O0 Yb4 2.395358 1_555
O1 Yb4 2.256629 1_455
O1 Yb5 2.395358 1_555
O2 Yb0 2.338196 1_556
O3 Yb1 2.338196 1_554
O4 Yb2 2.261446 1_555
O4 Yb4 2.328092 1_554
O4 Yb0 2.498710 1_655
O5 Yb3 2.261446 1_555
O5 Yb5 2.328092 1_556
O5 Yb1 2.498710 1_455
O6 Yb4 2.221688 1_555
O6 Yb3 2.277811 1_565
O6 Yb2 2.319296 1_556
O7 Yb5 2.221688 1_555
O7 Yb2 2.277811 1_545
O7 Yb3 2.319296 1_554
O8 Yb1 2.216950 1_555
O8 Yb4 2.269318 1_555
O8 Yb2 2.284660 1_556
O9 Yb0 2.216950 1_555
O9 Yb5 2.269318 1_555
O9 Yb3 2.284660 1_554
O10 Yb0 2.256266 1_655
O10 Yb1 2.260079 1_565
O10 Yb2 2.269350 1_555
O11 Yb1 2.256266 1_455
O11 Yb0 2.260079 1_545
O11 Yb3 2.269350 1_555
