# generated using pymatgen
data_Li9Mn2Co5O16
_symmetry_space_group_name_H-M   'P 1'
_cell_length_a   3.01553900
_cell_length_b   5.00155850
_cell_length_c   19.44290618
_cell_angle_alpha   94.84168639
_cell_angle_beta   93.16944889
_cell_angle_gamma   91.21445170
_symmetry_Int_Tables_number   1
_chemical_formula_structural   Li9Mn2Co5O16
_chemical_formula_sum   'Li9 Mn2 Co5 O16'
_cell_volume   291.65367028
_cell_formula_units_Z   1
loop_
 _symmetry_equiv_pos_site_id
 _symmetry_equiv_pos_as_xyz
  1  'x, y, z'
loop_
 _atom_site_type_symbol
 _atom_site_label
 _atom_site_symmetry_multiplicity
 _atom_site_fract_x
 _atom_site_fract_y
 _atom_site_fract_z
 _atom_site_occupancy
  Li  Li0  1  0.81735700  0.43849500  0.12741000  1
  Li  Li1  1  0.43444700  0.31931800  0.37960400  1
  Li  Li2  1  0.05746900  0.18925400  0.62010000  1
  Li  Li3  1  0.68277200  0.06185100  0.87257800  1
  Li  Li4  1  0.31722800  0.93814900  0.12742200  1
  Li  Li5  1  0.94253100  0.81074600  0.37990000  1
  Li  Li6  1  0.56555300  0.68068200  0.62039600  1
  Li  Li7  1  0.18264300  0.56150500  0.87259000  1
  Li  Li8  1  0.00000000  0.50000000  0.50000000  1
  Mn  Mn0  1  0.74993200  0.74992700  0.99999300  1
  Mn  Mn1  1  0.25006800  0.25007300  0.00000700  1
  Co  Co0  1  0.37562300  0.62624000  0.25176500  1
  Co  Co1  1  0.62437700  0.37376000  0.74823500  1
  Co  Co2  1  0.87564700  0.12567700  0.25144800  1
  Co  Co3  1  0.50000000  0.00000000  0.50000000  1
  Co  Co4  1  0.12435300  0.87432300  0.74855200  1
  O  O0  1  0.32184900  0.58584400  0.05876700  1
  O  O1  1  0.89666600  0.45999800  0.30978600  1
  O  O2  1  0.53021800  0.30359100  0.55566000  1
  O  O3  1  0.14587000  0.20917800  0.80677900  1
  O  O4  1  0.82186400  0.08598200  0.05892000  1
  O  O5  1  0.39515600  0.96228800  0.30805500  1
  O  O6  1  0.01710000  0.86254000  0.55337700  1
  O  O7  1  0.64583600  0.70796400  0.80658900  1
  O  O8  1  0.35416400  0.29203600  0.19341100  1
  O  O9  1  0.98290000  0.13746000  0.44662300  1
  O  O10  1  0.60484400  0.03771200  0.69194500  1
  O  O11  1  0.17813600  0.91401800  0.94108000  1
  O  O12  1  0.85413000  0.79082200  0.19322100  1
  O  O13  1  0.46978200  0.69640900  0.44434000  1
  O  O14  1  0.10333400  0.54000200  0.69021400  1
  O  O15  1  0.67815100  0.41415600  0.94123300  1
loop_
_geom_bond_atom_site_label_1
_geom_bond_atom_site_label_2
_geom_bond_distance
_geom_bond_site_symmetry_2
Li0 O12 2.085727 1_555
Li0 O8 2.108985 1_555
Li0 O4 2.118661 1_555
Li0 O0 2.132895 1_555
Li0 O8 2.186997 1_655
Li0 O0 2.231987 1_655
Li1 O1 2.146966 1_555
Li1 O5 2.165981 1_545
Li1 O9 2.173276 1_455
Li1 O13 2.174547 1_555
Li1 O1 2.221233 1_455
Li1 O9 2.299153 1_555
Li2 O6 1.996059 1_545
Li2 O2 2.052559 1_555
Li2 O2 2.089002 1_455
Li2 O14 2.126074 1_555
Li2 O10 2.175872 1_455
Li2 O10 2.286289 1_555
Li3 O7 2.093774 1_545
Li3 O3 2.107816 1_655
Li3 O15 2.119665 1_555
Li3 O11 2.131916 1_645
Li3 O3 2.186692 1_555
Li3 O11 2.231364 1_545
Li4 O8 2.093774 1_565
Li4 O12 2.107816 1_455
Li4 O0 2.119665 1_555
Li4 O4 2.131916 1_465
Li4 O12 2.186692 1_555
Li4 O4 2.231364 1_565
Li5 O9 1.996059 1_565
Li5 O13 2.052559 1_555
Li5 O13 2.089002 1_655
Li5 O1 2.126074 1_555
Li5 O5 2.175872 1_655
Li5 O5 2.286289 1_555
Li6 O14 2.146966 1_555
Li6 O10 2.165981 1_565
Li6 O6 2.173276 1_655
Li6 O2 2.174547 1_555
Li6 O14 2.221233 1_655
Li6 O6 2.299153 1_555
Li7 O3 2.085727 1_555
Li7 O7 2.108985 1_555
Li7 O11 2.118661 1_555
Li7 O15 2.132895 1_555
Li7 O7 2.186997 1_455
Li7 O15 2.231987 1_455
Li8 O9 2.009996 1_455
Li8 O6 2.009996 1_555
Li8 O13 2.105476 1_555
Li8 O2 2.105476 1_455
Li8 O13 2.178833 1_455
Li8 O2 2.178833 1_555
Mn0 O15 1.950836 1_555
Mn0 O4 1.953660 1_566
Mn0 O0 1.980479 1_556
Mn0 O11 1.982495 1_655
Mn0 O0 2.225781 1_656
Mn0 O11 2.226880 1_555
Mn1 O0 1.950836 1_555
Mn1 O11 1.953660 1_544
Mn1 O15 1.980479 1_554
Mn1 O4 1.982495 1_455
Mn1 O15 2.225781 1_454
Mn1 O4 2.226880 1_555
Co0 O5 1.924681 1_555
Co0 O8 1.937175 1_555
Co0 O1 2.082687 1_455
Co0 O12 2.084422 1_555
Co0 O1 2.109599 1_555
Co0 O12 2.112196 1_455
Co1 O10 1.924681 1_555
Co1 O7 1.937175 1_555
Co1 O14 2.082687 1_655
Co1 O3 2.084422 1_555
Co1 O14 2.109599 1_555
Co1 O3 2.112196 1_655
Co2 O1 1.937515 1_555
Co2 O12 1.938561 1_545
Co2 O5 2.063140 1_545
Co2 O8 2.082181 1_655
Co2 O5 2.085381 1_645
Co2 O8 2.110989 1_555
Co3 O13 1.786312 1_545
Co3 O2 1.786312 1_555
Co3 O6 1.978727 1_545
Co3 O9 1.978727 1_555
Co3 O6 1.992029 1_645
Co3 O9 1.992029 1_455
Co4 O14 1.937515 1_555
Co4 O3 1.938561 1_565
Co4 O10 2.063140 1_565
Co4 O7 2.082181 1_455
Co4 O10 2.085381 1_465
Co4 O7 2.110989 1_555
