# generated using pymatgen
data_CaMn2O4
_symmetry_space_group_name_H-M   'P 1'
_cell_length_a   3.15774467
_cell_length_b   9.67072205
_cell_length_c   10.01406377
_cell_angle_alpha   90.00011899
_cell_angle_beta   89.99999364
_cell_angle_gamma   90.00000395
_symmetry_Int_Tables_number   1
_chemical_formula_structural   CaMn2O4
_chemical_formula_sum   'Ca4 Mn8 O16'
_cell_volume   305.80618487
_cell_formula_units_Z   4
loop_
 _symmetry_equiv_pos_site_id
 _symmetry_equiv_pos_as_xyz
  1  'x, y, z'
loop_
 _atom_site_type_symbol
 _atom_site_label
 _atom_site_symmetry_multiplicity
 _atom_site_fract_x
 _atom_site_fract_y
 _atom_site_fract_z
 _atom_site_occupancy
  Ca  Ca0  1  0.68076986  0.74997239  0.14867153  1
  Ca  Ca1  1  0.68077047  0.25002765  0.35132820  1
  Ca  Ca2  1  0.31923011  0.75002453  0.64867086  1
  Ca  Ca3  1  0.31922981  0.24997575  0.85132869  1
  Mn  Mn0  1  0.20066474  0.06859763  0.11197127  1
  Mn  Mn1  1  0.79934076  0.43140283  0.61197257  1
  Mn  Mn2  1  0.20065545  0.93140244  0.38802727  1
  Mn  Mn3  1  0.79933958  0.56859725  0.88802831  1
  Mn  Mn4  1  0.20065257  0.56863023  0.38804345  1
  Mn  Mn5  1  0.79934180  0.06863153  0.61195600  1
  Mn  Mn6  1  0.20065568  0.43136943  0.11195603  1
  Mn  Mn7  1  0.79934505  0.93136868  0.88804368  1
  O  O0  1  0.58694552  0.99999964  0.25000024  1
  O  O1  1  0.58687512  0.49999997  0.24999998  1
  O  O2  1  0.41313001  -0.00000021  0.75000015  1
  O  O3  1  0.41305668  0.50000020  0.75000030  1
  O  O4  1  0.18885511  0.24998913  0.18270659  1
  O  O5  1  0.81114616  0.25001310  0.68270688  1
  O  O6  1  0.81114681  0.74998693  0.81729299  1
  O  O7  1  0.18885176  0.75001048  0.31729270  1
  O  O8  1  0.80053694  0.89237384  0.52764334  1
  O  O9  1  0.19948265  0.10766012  0.47235000  1
  O  O10  1  0.19948558  0.89233967  0.02764951  1
  O  O11  1  0.19946206  0.60762670  0.02764260  1
  O  O12  1  0.80053872  0.10762579  0.97235690  1
  O  O13  1  0.80051610  0.60766068  0.52764990  1
  O  O14  1  0.80051566  0.39233981  0.97235024  1
  O  O15  1  0.19946125  0.39237379  0.47235783  1
loop_
_geom_bond_atom_site_label_1
_geom_bond_atom_site_label_2
_geom_bond_distance
_geom_bond_site_symmetry_2
Ca0 O7 2.294388 1_555
Ca0 O7 2.329247 1_655
Ca0 O11 2.381982 1_555
Ca0 O10 2.382023 1_555
Ca0 O11 2.458986 1_655
Ca0 O10 2.459121 1_655
Ca0 O1 2.638455 1_555
Ca0 O0 2.638913 1_555
Ca1 O4 2.294385 1_555
Ca1 O4 2.329256 1_655
Ca1 O15 2.381991 1_555
Ca1 O9 2.382031 1_555
Ca1 O15 2.458989 1_655
Ca1 O9 2.459114 1_655
Ca1 O1 2.638453 1_555
Ca1 O0 2.638917 1_545
Ca2 O6 2.294392 1_555
Ca2 O6 2.329257 1_455
Ca2 O8 2.381996 1_555
Ca2 O13 2.381999 1_555
Ca2 O8 2.459004 1_455
Ca2 O13 2.459091 1_455
Ca2 O2 2.638481 1_565
Ca2 O3 2.638895 1_555
Ca3 O5 2.294389 1_555
Ca3 O5 2.329255 1_455
Ca3 O14 2.382003 1_555
Ca3 O12 2.382008 1_555
Ca3 O12 2.459006 1_455
Ca3 O14 2.459095 1_455
Ca3 O2 2.638485 1_555
Ca3 O3 2.638892 1_555
Mn0 O4 1.892172 1_555
Mn0 O10 1.902232 1_545
Mn0 O12 1.921869 1_454
Mn0 O0 1.959211 1_545
Mn0 O12 2.384395 1_554
Mn0 O0 2.471108 1_445
Mn1 O5 1.892154 1_555
Mn1 O13 1.902238 1_555
Mn1 O15 1.921861 1_655
Mn1 O3 1.959205 1_555
Mn1 O15 2.384411 1_555
Mn1 O3 2.471090 1_655
Mn2 O7 1.892173 1_555
Mn2 O9 1.902234 1_565
Mn2 O8 1.921867 1_455
Mn2 O0 1.959213 1_555
Mn2 O8 2.384424 1_555
Mn2 O0 2.471073 1_455
Mn3 O6 1.892158 1_555
Mn3 O14 1.902232 1_555
Mn3 O11 1.921863 1_656
Mn3 O3 1.959204 1_555
Mn3 O11 2.384404 1_556
Mn3 O3 2.471094 1_655
Mn4 O7 1.892131 1_555
Mn4 O15 1.902190 1_555
Mn4 O13 1.921836 1_455
Mn4 O1 1.959303 1_555
Mn4 O13 2.384325 1_555
Mn4 O1 2.471416 1_455
Mn5 O5 1.892141 1_555
Mn5 O8 1.902190 1_545
Mn5 O9 1.921840 1_655
Mn5 O2 1.959293 1_555
Mn5 O9 2.384309 1_555
Mn5 O2 2.471452 1_655
Mn6 O4 1.892131 1_555
Mn6 O11 1.902193 1_555
Mn6 O14 1.921838 1_454
Mn6 O1 1.959301 1_555
Mn6 O14 2.384310 1_554
Mn6 O1 2.471427 1_455
Mn7 O6 1.892141 1_555
Mn7 O12 1.902187 1_565
Mn7 O10 1.921839 1_656
Mn7 O2 1.959294 1_565
Mn7 O10 2.384309 1_556
Mn7 O2 2.471439 1_665
