# generated using pymatgen
data_YCu5Sn
_symmetry_space_group_name_H-M   'P 1'
_cell_length_a   4.99763800
_cell_length_b   8.20693000
_cell_length_c   10.53337300
_cell_angle_alpha   90.00000000
_cell_angle_beta   90.00000000
_cell_angle_gamma   90.00000000
_symmetry_Int_Tables_number   1
_chemical_formula_structural   YCu5Sn
_chemical_formula_sum   'Y4 Cu20 Sn4'
_cell_volume   432.02908738
_cell_formula_units_Z   4
loop_
 _symmetry_equiv_pos_site_id
 _symmetry_equiv_pos_as_xyz
  1  'x, y, z'
loop_
 _atom_site_type_symbol
 _atom_site_label
 _atom_site_symmetry_multiplicity
 _atom_site_fract_x
 _atom_site_fract_y
 _atom_site_fract_z
 _atom_site_occupancy
  Y  Y0  1  0.25000000  0.75435600  0.06315800  1
  Y  Y1  1  0.75000000  0.24564400  0.93684200  1
  Y  Y2  1  0.75000000  0.74564400  0.56315800  1
  Y  Y3  1  0.25000000  0.25435600  0.43684200  1
  Cu  Cu0  1  0.25000000  0.81398600  0.74608300  1
  Cu  Cu1  1  0.75000000  0.18601400  0.25391700  1
  Cu  Cu2  1  0.75000000  0.68601400  0.24608300  1
  Cu  Cu3  1  0.25000000  0.31398600  0.75391700  1
  Cu  Cu4  1  0.50104000  0.56502500  0.81300800  1
  Cu  Cu5  1  0.49896000  0.43497500  0.18699200  1
  Cu  Cu6  1  0.49896000  0.93497500  0.31300800  1
  Cu  Cu7  1  0.00104000  0.43497500  0.18699200  1
  Cu  Cu8  1  0.50104000  0.06502500  0.68699200  1
  Cu  Cu9  1  0.99896000  0.56502500  0.81300800  1
  Cu  Cu10  1  0.99896000  0.06502500  0.68699200  1
  Cu  Cu11  1  0.00104000  0.93497500  0.31300800  1
  Cu  Cu12  1  0.25000000  0.91254000  0.51771800  1
  Cu  Cu13  1  0.75000000  0.08746000  0.48228200  1
  Cu  Cu14  1  0.75000000  0.58746000  0.01771800  1
  Cu  Cu15  1  0.25000000  0.41254000  0.98228200  1
  Cu  Cu16  1  0.25000000  0.55834400  0.60285500  1
  Cu  Cu17  1  0.75000000  0.44165600  0.39714500  1
  Cu  Cu18  1  0.75000000  0.94165600  0.10285500  1
  Cu  Cu19  1  0.25000000  0.05834400  0.89714500  1
  Sn  Sn0  1  0.25000000  0.64076200  0.36102500  1
  Sn  Sn1  1  0.75000000  0.35923800  0.63897500  1
  Sn  Sn2  1  0.75000000  0.85923800  0.86102500  1
  Sn  Sn3  1  0.25000000  0.14076200  0.13897500  1
loop_
_geom_bond_atom_site_label_1
_geom_bond_atom_site_label_2
_geom_bond_distance
_geom_bond_site_symmetry_2
Cu0 Cu10 2.491209 1_465
Cu0 Cu8 2.491209 1_565
Cu0 Cu9 2.499135 1_455
Cu0 Cu4 2.499135 1_555
Cu0 Cu12 2.537796 1_555
Cu0 Cu19 2.560008 1_565
Cu0 Cu16 2.584154 1_555
Cu0 Sn2 2.801407 1_555
Cu0 Sn2 2.801407 1_455
Cu0 Y2 3.204888 1_455
Cu0 Y2 3.204888 1_555
Cu0 Y0 3.375532 1_556
Cu1 Cu11 2.491209 1_645
Cu1 Cu6 2.491209 1_545
Cu1 Cu7 2.499135 1_655
Cu1 Cu5 2.499135 1_555
Cu1 Cu13 2.537796 1_555
Cu1 Cu18 2.560008 1_545
Cu1 Cu17 2.584154 1_555
Cu1 Sn3 2.801407 1_555
Cu1 Sn3 2.801407 1_655
Cu1 Y3 3.204888 1_555
Cu1 Y3 3.204888 1_655
Cu1 Y1 3.375532 1_554
Cu2 Cu7 2.491209 1_655
Cu2 Cu5 2.491209 1_555
Cu2 Cu6 2.499135 1_555
Cu2 Sn0 2.801407 1_655
Cu2 Sn0 2.801407 1_555
Cu2 Y0 3.204888 1_555
Cu2 Y0 3.204888 1_655
Cu2 Y2 3.375532 1_555
Cu3 Cu4 2.491209 1_555
Cu3 Cu9 2.491209 1_455
Cu3 Cu8 2.499135 1_555
Cu3 Sn1 2.801407 1_555
Cu3 Sn1 2.801407 1_455
Cu3 Y1 3.204888 1_555
Cu3 Y1 3.204888 1_455
Cu3 Y3 3.375532 1_555
Cu4 Cu9 2.488424 1_555
Cu4 Cu9 2.509214 1_455
Cu4 Sn2 2.762988 1_555
Cu4 Sn1 2.785827 1_555
Cu4 Y1 3.181172 1_555
Cu4 Y2 3.266732 1_555
Cu4 Y0 3.306242 1_556
Cu5 Cu7 2.488424 1_555
Cu5 Cu7 2.509214 1_655
Cu5 Sn3 2.762988 1_555
Cu5 Sn0 2.785827 1_555
Cu5 Y0 3.181172 1_555
Cu5 Y3 3.266732 1_555
Cu5 Y1 3.306242 1_554
Cu6 Sn0 2.762988 1_555
Cu6 Sn3 2.785827 1_565
Cu6 Y3 3.181172 1_565
Cu6 Y0 3.266732 1_555
Cu6 Y2 3.306242 1_555
Cu7 Sn3 2.762988 1_555
Cu7 Sn0 2.785827 1_555
Cu7 Y0 3.181172 1_555
Cu7 Y3 3.266732 1_555
Cu7 Y1 3.306242 1_454
Cu8 Sn1 2.762988 1_555
Cu8 Sn2 2.785827 1_545
Cu8 Y2 3.181172 1_545
Cu8 Y1 3.266732 1_555
Cu8 Y3 3.306242 1_555
Cu9 Sn2 2.762988 1_555
Cu9 Sn1 2.785827 1_555
Cu9 Y1 3.181172 1_555
Cu9 Y2 3.266732 1_555
Cu9 Y0 3.306242 1_656
Cu10 Cu8 2.488424 1_555
Cu10 Cu13 2.496305 1_555
Cu10 Cu3 2.499135 1_655
Cu10 Cu8 2.509214 1_655
Cu10 Cu12 2.513823 1_645
Cu10 Cu19 2.545026 1_655
Cu10 Sn1 2.762988 1_555
Cu10 Sn2 2.785827 1_545
Cu10 Y2 3.181172 1_545
Cu10 Y1 3.266732 1_555
Cu10 Y3 3.306242 1_655
Cu11 Cu6 2.488424 1_555
Cu11 Cu12 2.496305 1_555
Cu11 Cu2 2.499135 1_455
Cu11 Cu6 2.509214 1_455
Cu11 Cu13 2.513823 1_465
Cu11 Cu18 2.545026 1_455
Cu11 Sn0 2.762988 1_555
Cu11 Sn3 2.785827 1_565
Cu11 Y3 3.181172 1_565
Cu11 Y0 3.266732 1_555
Cu11 Y2 3.306242 1_455
Cu12 Cu6 2.496305 1_555
Cu12 Cu8 2.513823 1_565
Cu12 Sn0 2.774731 1_555
Cu12 Y2 2.889512 1_455
Cu12 Y2 2.889512 1_555
Cu12 Y3 2.931759 1_565
Cu12 Cu16 3.042049 1_555
Cu13 Cu8 2.496305 1_555
Cu13 Cu6 2.513823 1_545
Cu13 Sn1 2.774731 1_555
Cu13 Y3 2.889512 1_655
Cu13 Y3 2.889512 1_555
Cu13 Y2 2.931759 1_545
Cu13 Cu17 3.042049 1_555
Cu14 Cu4 2.496305 1_554
Cu14 Cu9 2.496305 1_554
Cu14 Cu7 2.513823 1_655
Cu14 Cu5 2.513823 1_555
Cu14 Cu2 2.537796 1_555
Cu14 Sn2 2.774731 1_554
Cu14 Y0 2.889512 1_655
Cu14 Y0 2.889512 1_555
Cu14 Y1 2.931759 1_554
Cu14 Cu18 3.042049 1_555
Cu15 Cu5 2.496305 1_556
Cu15 Cu7 2.496305 1_556
Cu15 Cu9 2.513823 1_455
Cu15 Cu4 2.513823 1_555
Cu15 Cu3 2.537796 1_555
Cu15 Sn3 2.774731 1_556
Cu15 Y1 2.889512 1_555
Cu15 Y1 2.889512 1_455
Cu15 Y0 2.931759 1_556
Cu15 Cu19 3.042049 1_555
Cu16 Cu4 2.545026 1_555
Cu16 Cu9 2.545026 1_455
Cu16 Cu3 2.560008 1_555
Cu16 Sn0 2.635561 1_555
Cu16 Y2 2.963409 1_555
Cu16 Y2 2.963409 1_455
Cu16 Sn1 3.009812 1_455
Cu16 Sn1 3.009812 1_555
Cu16 Y3 3.046627 1_555
Cu17 Cu7 2.545026 1_655
Cu17 Cu5 2.545026 1_555
Cu17 Cu2 2.560008 1_555
Cu17 Sn1 2.635561 1_555
Cu17 Y3 2.963409 1_655
Cu17 Y3 2.963409 1_555
Cu17 Sn0 3.009812 1_555
Cu17 Sn0 3.009812 1_655
Cu17 Y2 3.046627 1_555
Cu18 Cu6 2.545026 1_555
Cu18 Cu2 2.584154 1_555
Cu18 Sn2 2.635561 1_554
Cu18 Y0 2.963409 1_655
Cu18 Y0 2.963409 1_555
Cu18 Sn3 3.009812 1_565
Cu18 Sn3 3.009812 1_665
Cu18 Y1 3.046627 1_564
Cu19 Cu8 2.545026 1_555
Cu19 Cu3 2.584154 1_555
Cu19 Sn3 2.635561 1_556
Cu19 Y1 2.963409 1_555
Cu19 Y1 2.963409 1_455
Cu19 Sn2 3.009812 1_545
Cu19 Sn2 3.009812 1_445
Cu19 Y0 3.046627 1_546
Sn0 Y3 3.270219 1_555
Sn0 Y0 3.273116 1_555
Sn0 Y2 3.393855 1_555
Sn0 Y2 3.393855 1_455
Sn1 Y2 3.270219 1_555
Sn1 Y1 3.273116 1_555
Sn1 Y3 3.393855 1_555
Sn1 Y3 3.393855 1_655
Sn2 Y1 3.270219 1_565
Sn2 Y2 3.273116 1_555
Sn2 Y0 3.393855 1_656
Sn2 Y0 3.393855 1_556
Sn3 Y0 3.270219 1_545
Sn3 Y3 3.273116 1_555
Sn3 Y1 3.393855 1_554
Sn3 Y1 3.393855 1_454
