# generated using pymatgen
data_Mg2Ta4O9
_symmetry_space_group_name_H-M   'P 1'
_cell_length_a   5.27519176
_cell_length_b   5.27519176
_cell_length_c   14.08968100
_cell_angle_alpha   90.00000000
_cell_angle_beta   90.00000000
_cell_angle_gamma   119.99999694
_symmetry_Int_Tables_number   1
_chemical_formula_structural   Mg2Ta4O9
_chemical_formula_sum   'Mg4 Ta8 O18'
_cell_volume   339.55357535
_cell_formula_units_Z   2
loop_
 _symmetry_equiv_pos_site_id
 _symmetry_equiv_pos_as_xyz
  1  'x, y, z'
loop_
 _atom_site_type_symbol
 _atom_site_label
 _atom_site_symmetry_multiplicity
 _atom_site_fract_x
 _atom_site_fract_y
 _atom_site_fract_z
 _atom_site_occupancy
  Mg  Mg0  1  0.00000000  0.00000000  0.65144900  1
  Mg  Mg1  1  0.00000000  0.00000000  0.34855100  1
  Mg  Mg2  1  0.00000000  0.00000000  0.84855100  1
  Mg  Mg3  1  0.00000000  0.00000000  0.15144900  1
  Ta  Ta0  1  0.33333300  0.66666700  0.50897800  1
  Ta  Ta1  1  0.66666700  0.33333300  0.49102200  1
  Ta  Ta2  1  0.66666700  0.33333300  0.99102200  1
  Ta  Ta3  1  0.33333300  0.66666700  0.00897800  1
  Ta  Ta4  1  0.33333300  0.66666700  0.82022300  1
  Ta  Ta5  1  0.66666700  0.33333300  0.17977700  1
  Ta  Ta6  1  0.66666700  0.33333300  0.67977700  1
  Ta  Ta7  1  0.33333300  0.66666700  0.32022300  1
  O  O0  1  0.34167300  0.33127900  0.58818800  1
  O  O1  1  0.65832700  0.66872100  0.41181200  1
  O  O2  1  0.66872100  0.01039500  0.58818800  1
  O  O3  1  0.33127900  0.34167300  0.91181200  1
  O  O4  1  0.33127900  0.98960500  0.41181200  1
  O  O5  1  0.66872100  0.65832700  0.08818800  1
  O  O6  1  0.98960500  0.65832700  0.58818800  1
  O  O7  1  0.01039500  0.66872100  0.91181200  1
  O  O8  1  0.01039500  0.34167300  0.41181200  1
  O  O9  1  0.98960500  0.33127900  0.08818800  1
  O  O10  1  0.65832700  0.98960500  0.91181200  1
  O  O11  1  0.34167300  0.01039500  0.08818800  1
  O  O12  1  0.31409700  0.00000000  0.75000000  1
  O  O13  1  0.68590300  0.00000000  0.25000000  1
  O  O14  1  0.00000000  0.31409700  0.75000000  1
  O  O15  1  0.00000000  0.68590300  0.25000000  1
  O  O16  1  0.68590300  0.68590300  0.75000000  1
  O  O17  1  0.31409700  0.31409700  0.25000000  1
loop_
_geom_bond_atom_site_label_1
_geom_bond_atom_site_label_2
_geom_bond_distance
_geom_bond_site_symmetry_2
Mg0 O6 1.986768 1_445
Mg0 O0 1.986771 1_555
Mg0 O2 1.986773 1_455
Mg0 O12 2.161820 1_555
Mg0 O14 2.161820 1_555
Mg0 O16 2.161820 1_445
Mg1 O8 1.986768 1_555
Mg1 O1 1.986771 1_445
Mg1 O4 1.986773 1_545
Mg1 O15 2.161820 1_545
Mg1 O13 2.161820 1_455
Mg1 O17 2.161820 1_555
Mg2 O10 1.986768 1_445
Mg2 O3 1.986771 1_555
Mg2 O7 1.986773 1_545
Mg2 O12 2.161820 1_555
Mg2 O14 2.161820 1_555
Mg2 O16 2.161820 1_445
Mg3 O11 1.986768 1_555
Mg3 O5 1.986771 1_445
Mg3 O9 1.986773 1_455
Mg3 O15 2.161820 1_545
Mg3 O13 2.161820 1_455
Mg3 O17 2.161820 1_555
O0 Ta0 2.110811 1_555
O0 Ta6 2.141498 1_555
O0 Ta1 2.189747 1_555
O1 Ta1 2.110811 1_555
O1 Ta7 2.141498 1_555
O1 Ta0 2.189747 1_555
O2 Ta0 2.110811 1_545
O2 Ta6 2.141490 1_555
O2 Ta1 2.189739 1_555
O3 Ta2 2.110811 1_555
O3 Ta4 2.141498 1_555
O3 Ta3 2.189747 1_556
O4 Ta1 2.110811 1_565
O4 Ta7 2.141490 1_555
O4 Ta0 2.189739 1_555
O5 Ta3 2.110811 1_555
O5 Ta5 2.141498 1_555
O5 Ta2 2.189747 1_554
O6 Ta0 2.110811 1_655
O6 Ta6 2.141494 1_555
O6 Ta1 2.189743 1_555
O7 Ta2 2.110811 1_455
O7 Ta4 2.141490 1_555
O7 Ta3 2.189739 1_556
O8 Ta1 2.110811 1_455
O8 Ta7 2.141494 1_555
O8 Ta0 2.189743 1_555
O9 Ta3 2.110811 1_655
O9 Ta5 2.141490 1_555
O9 Ta2 2.189739 1_554
O10 Ta2 2.110811 1_565
O10 Ta4 2.141494 1_555
O10 Ta3 2.189743 1_556
O11 Ta3 2.110811 1_545
O11 Ta5 2.141494 1_555
O11 Ta2 2.189743 1_554
O12 Ta4 2.063888 1_545
O12 Ta6 2.063891 1_555
O13 Ta5 2.063888 1_555
O13 Ta7 2.063891 1_545
O14 Ta6 2.063888 1_455
O14 Ta4 2.063891 1_555
O15 Ta7 2.063888 1_555
O15 Ta5 2.063891 1_455
O16 Ta4 2.063893 1_555
O16 Ta6 2.063893 1_555
O17 Ta7 2.063893 1_555
O17 Ta5 2.063893 1_555
