# generated using pymatgen
data_ZnCuF5
_symmetry_space_group_name_H-M   'P 1'
_cell_length_a   9.58928755
_cell_length_b   4.97862595
_cell_length_c   7.11086214
_cell_angle_alpha   70.60848465
_cell_angle_beta   90.00000000
_cell_angle_gamma   90.00000000
_symmetry_Int_Tables_number   1
_chemical_formula_structural   ZnCuF5
_chemical_formula_sum   'Zn4 Cu4 F20'
_cell_volume   320.22480243
_cell_formula_units_Z   4
loop_
 _symmetry_equiv_pos_site_id
 _symmetry_equiv_pos_as_xyz
  1  'x, y, z'
loop_
 _atom_site_type_symbol
 _atom_site_label
 _atom_site_symmetry_multiplicity
 _atom_site_fract_x
 _atom_site_fract_y
 _atom_site_fract_z
 _atom_site_occupancy
  Zn  Zn0  1  0.01206774  0.52586427  0.75001426  1
  Zn  Zn1  1  0.51206774  0.47413573  0.74998574  1
  Zn  Zn2  1  0.98793226  0.47413573  0.24998574  1
  Zn  Zn3  1  0.48793226  0.52586427  0.25001426  1
  Cu  Cu0  1  0.75625622  0.09461221  0.60963725  1
  Cu  Cu1  1  0.25625622  0.90538779  0.89036275  1
  Cu  Cu2  1  0.24374378  0.90538779  0.39036275  1
  Cu  Cu3  1  0.74374378  0.09461221  0.10963725  1
  F  F0  1  0.88024514  0.41196031  0.56666865  1
  F  F1  1  0.38024514  0.58803969  0.93333135  1
  F  F2  1  0.11975486  0.58803969  0.43333135  1
  F  F3  1  0.61975486  0.41196031  0.06666865  1
  F  F4  1  0.60568746  0.34000696  0.49934557  1
  F  F5  1  0.10568746  0.65999304  0.00065443  1
  F  F6  1  0.39431254  0.65999304  0.50065443  1
  F  F7  1  0.89431254  0.34000696  -0.00065443  1
  F  F8  1  0.41051072  0.12608115  0.78051080  1
  F  F9  1  0.91051072  0.87391885  0.71948920  1
  F  F10  1  0.58948928  0.87391885  0.21948920  1
  F  F11  1  0.08948928  0.12608115  0.28051080  1
  F  F12  1  0.14853849  0.23126985  0.84920802  1
  F  F13  1  0.64853849  0.76873015  0.65079198  1
  F  F14  1  0.85146151  0.76873015  0.15079198  1
  F  F15  1  0.35146151  0.23126985  0.34920802  1
  F  F16  1  0.68197653  0.12685722  0.84988342  1
  F  F17  1  0.18197653  0.87314278  0.65011658  1
  F  F18  1  0.31802347  0.87314278  0.15011658  1
  F  F19  1  0.81802347  0.12685722  0.34988342  1
loop_
_geom_bond_atom_site_label_1
_geom_bond_atom_site_label_2
_geom_bond_distance
_geom_bond_site_symmetry_2
Cu0 F9 1.853511 1_545
Cu0 F13 1.862696 1_545
Cu0 F4 1.885771 1_555
Cu0 F19 1.895092 1_555
Cu0 F16 1.906234 1_555
Cu0 F0 1.919035 1_555
Cu1 F8 1.853511 1_565
Cu1 F12 1.862696 1_565
Cu1 F5 1.885771 1_556
Cu1 F18 1.895092 1_556
Cu1 F17 1.906234 1_555
Cu1 F1 1.919035 1_555
Cu2 F11 1.853511 1_565
Cu2 F15 1.862696 1_565
Cu2 F6 1.885771 1_555
Cu2 F17 1.895092 1_555
Cu2 F18 1.906234 1_555
Cu2 F2 1.919035 1_555
Cu3 F10 1.853511 1_545
Cu3 F14 1.862696 1_545
Cu3 F7 1.885771 1_555
Cu3 F16 1.895092 1_554
Cu3 F19 1.906234 1_555
Cu3 F3 1.919035 1_555
F0 Zn0 2.027362 1_655
F0 Zn2 2.402143 1_555
F1 Zn1 2.027362 1_555
F1 Zn3 2.402143 1_556
F2 Zn2 2.027362 1_455
F2 Zn0 2.402143 1_555
F3 Zn3 2.027362 1_555
F3 Zn1 2.402143 1_554
F4 Zn3 2.045793 1_555
F4 Zn1 2.284440 1_555
F5 Zn2 2.045793 1_455
F5 Zn0 2.284440 1_554
F6 Zn1 2.045793 1_555
F6 Zn3 2.284440 1_555
F7 Zn0 2.045793 1_654
F7 Zn2 2.284440 1_555
F8 Zn1 1.936095 1_555
F9 Zn0 1.936095 1_655
F10 Zn3 1.936095 1_555
F11 Zn2 1.936095 1_455
F12 Zn0 1.916840 1_555
F13 Zn1 1.916840 1_555
F14 Zn2 1.916840 1_555
F15 Zn3 1.916840 1_555
F16 Zn1 2.309331 1_555
F17 Zn0 2.309331 1_555
F18 Zn3 2.309331 1_555
F19 Zn2 2.309331 1_555
