# generated using pymatgen
data_CeAu2
_symmetry_space_group_name_H-M   'P 1'
_cell_length_a   5.93681448
_cell_length_b   5.93681448
_cell_length_c   5.93681448
_cell_angle_alpha   133.24841767
_cell_angle_beta   107.75158121
_cell_angle_gamma   90.56990432
_symmetry_Int_Tables_number   1
_chemical_formula_structural   CeAu2
_chemical_formula_sum   'Ce2 Au4'
_cell_volume   137.74451342
_cell_formula_units_Z   2
loop_
 _symmetry_equiv_pos_site_id
 _symmetry_equiv_pos_as_xyz
  1  'x, y, z'
loop_
 _atom_site_type_symbol
 _atom_site_label
 _atom_site_symmetry_multiplicity
 _atom_site_fract_x
 _atom_site_fract_y
 _atom_site_fract_z
 _atom_site_occupancy
  Ce  Ce0  1  0.71531800  0.46531800  0.25000000  1
  Ce  Ce1  1  0.28468200  0.53468200  0.75000000  1
  Au  Au0  1  0.87077100  0.83598100  0.03479100  1
  Au  Au1  1  0.12922900  0.16401900  0.96520900  1
  Au  Au2  1  0.69881000  0.16401900  0.53479100  1
  Au  Au3  1  0.30119000  0.83598100  0.46520900  1
loop_
_geom_bond_atom_site_label_1
_geom_bond_atom_site_label_2
_geom_bond_distance
_geom_bond_site_symmetry_2
Au0 Au2 2.759000 1_565
Au0 Au2 2.759004 1_554
Au0 Au1 2.783405 1_664
Au0 Au3 3.012909 1_655
Au0 Ce1 3.210880 1_554
Au0 Ce1 3.251649 1_665
Au0 Ce1 3.251652 1_654
Au0 Ce0 3.269544 1_565
Au0 Ce0 3.269547 1_554
Au0 Ce0 3.443539 1_555
Au1 Au3 2.759000 1_545
Au1 Au3 2.759004 1_556
Au1 Au2 3.012909 1_455
Au1 Ce0 3.210880 1_556
Au1 Ce0 3.251649 1_445
Au1 Ce0 3.251652 1_456
Au1 Ce1 3.269544 1_545
Au1 Ce1 3.269547 1_556
Au1 Ce1 3.443539 1_555
Au2 Au3 2.783398 1_545
Au2 Ce0 3.210885 1_555
Au2 Ce0 3.251647 1_556
Au2 Ce0 3.251647 1_545
Au2 Ce1 3.269546 1_544
Au2 Ce1 3.269546 1_555
Au2 Ce1 3.443541 1_655
Au3 Ce1 3.210885 1_555
Au3 Ce1 3.251647 1_554
Au3 Ce1 3.251647 1_565
Au3 Ce0 3.269546 1_566
Au3 Ce0 3.269546 1_555
Au3 Ce0 3.443541 1_455
