# generated using pymatgen
data_Li4MnCo2O7
_symmetry_space_group_name_H-M   'P 1'
_cell_length_a   9.84129973
_cell_length_b   9.84129973
_cell_length_c   9.75257818
_cell_angle_alpha   66.48069473
_cell_angle_beta   66.48069473
_cell_angle_gamma   16.87107333
_symmetry_Int_Tables_number   1
_chemical_formula_structural   Li4MnCo2O7
_chemical_formula_sum   'Li8 Mn2 Co4 O14'
_cell_volume   250.82914848
_cell_formula_units_Z   2
loop_
 _symmetry_equiv_pos_site_id
 _symmetry_equiv_pos_as_xyz
  1  'x, y, z'
loop_
 _atom_site_type_symbol
 _atom_site_label
 _atom_site_symmetry_multiplicity
 _atom_site_fract_x
 _atom_site_fract_y
 _atom_site_fract_z
 _atom_site_occupancy
  Li  Li0  1  0.35107200  0.35107200  0.06761800  1
  Li  Li1  1  0.07598600  0.07598600  0.21745800  1
  Li  Li2  1  0.78322000  0.78322000  0.35966200  1
  Li  Li3  1  0.49294700  0.49294700  0.51926400  1
  Li  Li4  1  0.22454900  0.22454900  0.63619400  1
  Li  Li5  1  0.92386900  0.92386900  0.77877900  1
  Li  Li6  1  0.65071700  0.65071700  0.92175200  1
  Li  Li7  1  0.85433900  0.85433900  0.57622800  1
  Mn  Mn0  1  0.00073200  0.00073200  0.00368600  1
  Mn  Mn1  1  0.42448400  0.42448400  0.29730700  1
  Co  Co0  1  0.71713100  0.71713100  0.13595600  1
  Co  Co1  1  0.14233500  0.14233500  0.42710900  1
  Co  Co2  1  0.57113700  0.57113700  0.71022300  1
  Co  Co3  1  0.29445000  0.29445000  0.83570500  1
  O  O0  1  0.46743900  0.46743900  0.91359900  1
  O  O1  1  0.18182300  0.18182300  0.04274900  1
  O  O2  1  0.90293000  0.90293000  0.18016200  1
  O  O3  1  0.61191300  0.61191300  0.32968400  1
  O  O4  1  0.33064300  0.33064300  0.44223200  1
  O  O5  1  0.03585000  0.03585000  0.61259700  1
  O  O6  1  0.75096300  0.75096300  0.75457900  1
  O  O7  1  0.24799600  0.24799600  0.23966800  1
  O  O8  1  0.96041000  0.96041000  0.37832800  1
  O  O9  1  0.67265700  0.67265700  0.52714700  1
  O  O10  1  0.38844700  0.38844700  0.68822500  1
  O  O11  1  0.09541000  0.09541000  0.83568900  1
  O  O12  1  0.81802300  0.81802300  0.96203900  1
  O  O13  1  0.52852800  0.52852800  0.10636100  1
loop_
_geom_bond_atom_site_label_1
_geom_bond_atom_site_label_2
_geom_bond_distance
_geom_bond_site_symmetry_2
Li0 O12 2.023127 1_454
Li0 O12 2.023127 1_544
Li0 O7 2.031251 1_555
Li0 O0 2.154877 1_554
Li0 O2 2.280897 1_455
Li0 O2 2.280897 1_545
Li1 O1 2.077603 1_555
Li1 O3 2.095025 1_545
Li1 O3 2.095025 1_455
Li1 O8 2.162520 1_445
Li1 O13 2.218034 1_455
Li1 O13 2.218034 1_545
Li2 O4 2.045749 1_565
Li2 O4 2.045749 1_655
Li2 O9 2.113021 1_555
Li2 O7 2.138124 1_565
Li2 O7 2.138124 1_655
Li2 O2 2.281394 1_555
Li3 O10 2.037095 1_555
Li3 O5 2.055228 1_655
Li3 O5 2.055228 1_565
Li3 O8 2.253283 1_545
Li3 O8 2.253283 1_455
Li3 O3 2.308255 1_555
Li4 O6 2.039799 1_455
Li4 O6 2.039799 1_545
Li4 O4 2.166190 1_555
Li4 O9 2.258962 1_545
Li4 O9 2.258962 1_455
Li4 O11 2.481951 1_555
Li5 O10 1.957343 1_565
Li5 O10 1.957343 1_655
Li5 O12 2.114094 1_555
Li5 O5 2.128168 1_665
Li5 O0 2.330788 1_565
Li5 O0 2.330788 1_655
Li6 O6 1.974843 1_555
Li6 O1 2.102403 1_566
Li6 O1 2.102403 1_656
Li6 O11 2.162743 1_565
Li6 O11 2.162743 1_655
Li6 O13 2.333494 1_556
Li7 O6 2.061978 1_555
Li7 O10 2.074484 1_655
Li7 O10 2.074484 1_565
Li7 O4 2.119260 1_565
Li7 O4 2.119260 1_655
Li7 O8 2.184947 1_555
Mn0 O11 1.909322 1_554
Mn0 O0 1.932821 1_454
Mn0 O0 1.932821 1_544
Mn0 O13 1.953722 1_545
Mn0 O13 1.953722 1_455
Mn0 O2 1.985900 1_445
Mn1 O4 1.803400 1_555
Mn1 O8 1.908868 1_545
Mn1 O8 1.908868 1_455
Mn1 O2 1.988062 1_455
Mn1 O2 1.988062 1_545
Mn1 O13 2.127830 1_555
Co0 O1 1.971617 1_655
Co0 O1 1.971617 1_565
Co0 O7 1.989676 1_565
Co0 O7 1.989676 1_655
Co0 O12 2.011781 1_554
Co0 O3 2.154851 1_555
Co1 O3 1.947281 1_455
Co1 O3 1.947281 1_545
Co1 O9 1.961969 1_545
Co1 O9 1.961969 1_455
Co1 O7 2.130608 1_555
Co1 O5 2.131825 1_555
Co2 O5 1.997626 1_655
Co2 O5 1.997626 1_565
Co2 O9 2.060886 1_555
Co2 O11 2.066730 1_565
Co2 O11 2.066730 1_655
Co2 O0 2.186149 1_555
Co3 O10 1.814982 1_555
Co3 O6 1.991873 1_545
Co3 O6 1.991873 1_455
Co3 O12 2.066191 1_545
Co3 O12 2.066191 1_455
Co3 O1 2.305022 1_556
