# generated using pymatgen
data_Li19V12O32
_symmetry_space_group_name_H-M   'P 1'
_cell_length_a   7.28632708
_cell_length_b   7.28632708
_cell_length_c   12.45149212
_cell_angle_alpha   75.65411537
_cell_angle_beta   75.65411537
_cell_angle_gamma   67.44255772
_symmetry_Int_Tables_number   1
_chemical_formula_structural   Li19V12O32
_chemical_formula_sum   'Li19 V12 O32'
_cell_volume   582.76577550
_cell_formula_units_Z   1
loop_
 _symmetry_equiv_pos_site_id
 _symmetry_equiv_pos_as_xyz
  1  'x, y, z'
loop_
 _atom_site_type_symbol
 _atom_site_label
 _atom_site_symmetry_multiplicity
 _atom_site_fract_x
 _atom_site_fract_y
 _atom_site_fract_z
 _atom_site_occupancy
  Li  Li0  1  0.52442800  0.52442800  0.67728400  1
  Li  Li1  1  0.02946500  0.02946500  0.67307500  1
  Li  Li2  1  0.97366700  0.46286900  0.32624800  1
  Li  Li3  1  0.46286900  0.97366700  0.32624800  1
  Li  Li4  1  0.26535100  0.26535100  0.67882500  1
  Li  Li5  1  0.76090100  0.76090100  0.68084900  1
  Li  Li6  1  0.24120900  0.74008900  0.32192500  1
  Li  Li7  1  0.74008900  0.24120900  0.32192500  1
  Li  Li8  1  0.20104600  0.20104600  0.93861800  1
  Li  Li9  1  0.69953600  0.69953600  0.93783700  1
  Li  Li10  1  0.29845100  0.80155200  0.06040900  1
  Li  Li11  1  0.80155200  0.29845100  0.06040900  1
  Li  Li12  1  0.62581600  0.62581600  0.20747300  1
  Li  Li13  1  0.12948500  0.12948500  0.21712800  1
  Li  Li14  1  0.87538700  0.37468500  0.78969300  1
  Li  Li15  1  0.37468500  0.87538700  0.78969300  1
  Li  Li16  1  0.57759000  0.57759000  0.43485800  1
  Li  Li17  1  0.41132600  0.91992600  0.56323700  1
  Li  Li18  1  0.91992600  0.41132600  0.56323700  1
  V  V0  1  0.39003500  0.39003500  0.19080200  1
  V  V1  1  0.88759300  0.88759300  0.19270700  1
  V  V2  1  0.11221900  0.61293100  0.80798600  1
  V  V3  1  0.61293100  0.11221900  0.80798600  1
  V  V4  1  0.31802000  0.31802000  0.44073500  1
  V  V5  1  0.81626500  0.81626500  0.44469300  1
  V  V6  1  0.17899300  0.68415600  0.55724200  1
  V  V7  1  0.68415600  0.17899300  0.55724200  1
  V  V8  1  0.97243800  0.97243800  0.92841500  1
  V  V9  1  0.47206700  0.47206700  0.92892900  1
  V  V10  1  0.52730500  0.02683200  0.06974700  1
  V  V11  1  0.02683200  0.52730500  0.06974700  1
  O  O0  1  0.37120900  0.37120900  0.82519000  1
  O  O1  1  0.87089200  0.87089200  0.82644700  1
  O  O2  1  0.12074000  0.63867800  0.17517100  1
  O  O3  1  0.63867800  0.12074000  0.17517100  1
  O  O4  1  0.53167700  0.53167700  0.05685500  1
  O  O5  1  0.02880700  0.02880700  0.05872500  1
  O  O6  1  0.96832700  0.46833200  0.94362400  1
  O  O7  1  0.46833200  0.96832700  0.94362400  1
  O  O8  1  0.41579900  0.41579900  0.55257900  1
  O  O9  1  0.91023000  0.91023000  0.55095600  1
  O  O10  1  0.08188600  0.58630200  0.44610300  1
  O  O11  1  0.58630200  0.08188600  0.44610300  1
  O  O12  1  0.18985600  0.18985600  0.55489800  1
  O  O13  1  0.68188300  0.68188300  0.55107500  1
  O  O14  1  0.31990000  0.80843100  0.44862300  1
  O  O15  1  0.80843100  0.31990000  0.44862300  1
  O  O16  1  0.10352100  0.10352100  0.82176500  1
  O  O17  1  0.60243900  0.60243900  0.82002300  1
  O  O18  1  0.39686400  0.89942100  0.18052200  1
  O  O19  1  0.89942100  0.39686400  0.18052200  1
  O  O20  1  0.80337400  0.80337400  0.06269000  1
  O  O21  1  0.30517700  0.30517700  0.06129800  1
  O  O22  1  0.69506500  0.19468700  0.94009600  1
  O  O23  1  0.19468700  0.69506500  0.94009600  1
  O  O24  1  0.24936500  0.24936500  0.31440600  1
  O  O25  1  0.74451700  0.74451700  0.31571000  1
  O  O26  1  0.25527500  0.75896800  0.68166100  1
  O  O27  1  0.75896800  0.25527500  0.68166100  1
  O  O28  1  0.46917700  0.46917700  0.31454300  1
  O  O29  1  0.96235500  0.96235500  0.30344500  1
  O  O30  1  0.03200600  0.53371000  0.68479600  1
  O  O31  1  0.53371000  0.03200600  0.68479600  1
loop_
_geom_bond_atom_site_label_1
_geom_bond_atom_site_label_2
_geom_bond_distance
_geom_bond_site_symmetry_2
Li0 O26 2.047285 1_555
Li0 O27 2.047285 1_555
Li0 O13 2.079661 1_555
Li0 O0 2.191550 1_555
Li0 O17 2.248149 1_555
Li0 O8 2.315766 1_555
Li1 O27 2.024323 1_455
Li1 O26 2.024323 1_545
Li1 O12 2.059194 1_555
Li1 O1 2.270312 1_445
Li1 O16 2.285512 1_555
Li1 O9 2.389574 1_445
Li2 O24 2.011589 1_655
Li2 O15 2.030532 1_555
Li2 O25 2.088713 1_555
Li2 O19 2.221460 1_555
Li2 O2 2.277740 1_655
Li2 O10 2.334562 1_655
Li3 O24 2.011589 1_565
Li3 O14 2.030532 1_555
Li3 O25 2.088713 1_555
Li3 O18 2.221460 1_555
Li3 O3 2.277740 1_565
Li3 O11 2.334562 1_565
Li4 O12 2.014864 1_555
Li4 O8 2.022003 1_555
Li4 O31 2.044125 1_555
Li4 O30 2.044125 1_555
Li4 O16 2.221545 1_555
Li4 O0 2.522073 1_555
Li5 O30 2.035625 1_655
Li5 O31 2.035625 1_565
Li5 O9 2.036609 1_555
Li5 O13 2.109606 1_555
Li5 O17 2.170025 1_555
Li5 O1 2.550294 1_555
Li6 O14 2.030286 1_555
Li6 O28 2.040268 1_555
Li6 O10 2.060081 1_555
Li6 O29 2.080021 1_455
Li6 O18 2.177566 1_555
Li6 O2 2.572372 1_555
Li7 O15 2.030286 1_555
Li7 O28 2.040268 1_555
Li7 O11 2.060081 1_555
Li7 O29 2.080021 1_545
Li7 O19 2.177566 1_555
Li7 O3 2.572372 1_555
Li8 O7 2.036221 1_545
Li8 O6 2.036221 1_455
Li8 O0 2.124413 1_555
Li8 O16 2.130501 1_555
Li8 O5 2.175954 1_556
Li8 O21 2.252801 1_556
Li9 O7 2.038957 1_555
Li9 O6 2.038957 1_555
Li9 O1 2.126308 1_555
Li9 O4 2.130562 1_556
Li9 O17 2.136739 1_555
Li9 O20 2.273018 1_556
Li10 O5 2.027221 1_565
Li10 O4 2.049050 1_555
Li10 O7 2.123620 1_554
Li10 O2 2.132758 1_555
Li10 O18 2.170658 1_555
Li10 O23 2.237237 1_554
Li11 O5 2.027221 1_655
Li11 O4 2.049050 1_555
Li11 O6 2.123620 1_554
Li11 O3 2.132758 1_555
Li11 O19 2.170658 1_555
Li11 O22 2.237237 1_554
Li12 O28 1.968236 1_555
Li12 O18 2.065006 1_555
Li12 O19 2.065006 1_555
Li12 O25 2.245346 1_555
Li12 O20 2.360108 1_555
Li12 O4 2.468626 1_555
Li13 O29 1.990380 1_445
Li13 O18 2.060659 1_545
Li13 O19 2.060659 1_455
Li13 O24 2.151060 1_555
Li13 O21 2.416176 1_555
Li13 O5 2.610228 1_555
Li14 O30 1.968943 1_655
Li14 O16 2.060224 1_655
Li14 O17 2.063510 1_555
Li14 O27 2.235550 1_555
Li14 O22 2.416431 1_555
Li14 O6 2.498722 1_555
Li15 O31 1.968943 1_565
Li15 O16 2.060224 1_565
Li15 O17 2.063510 1_555
Li15 O26 2.235550 1_555
Li15 O23 2.416431 1_555
Li15 O7 2.498722 1_555
Li16 O14 1.986025 1_555
Li16 O15 1.986025 1_555
Li16 O8 2.069209 1_555
Li16 O25 2.122800 1_555
Li16 O13 2.186749 1_555
Li16 O28 2.268017 1_555
Li17 O12 2.007467 1_565
Li17 O26 2.043986 1_555
Li17 O13 2.067963 1_555
Li17 O11 2.127252 1_565
Li17 O14 2.145052 1_555
Li17 O31 2.364987 1_565
Li18 O12 2.007467 1_655
Li18 O27 2.043986 1_555
Li18 O13 2.067963 1_555
Li18 O10 2.127252 1_655
Li18 O15 2.145052 1_555
Li18 O30 2.364987 1_655
O0 V9 2.025774 1_555
O0 V2 2.042650 1_555
O0 V3 2.042650 1_555
O1 V8 2.014443 1_555
O1 V3 2.038561 1_565
O1 V2 2.038561 1_655
O2 V1 1.967629 1_455
O2 V11 2.061277 1_555
O2 V0 2.111254 1_555
O3 V1 1.967629 1_545
O3 V10 2.061277 1_555
O3 V0 2.111254 1_555
O4 V9 1.935188 1_554
O4 V0 2.005781 1_555
O5 V8 1.939067 1_444
O5 V1 2.002882 1_445
O6 V11 1.907683 1_656
O6 V2 2.037130 1_655
O7 V10 1.907683 1_566
O7 V3 2.037130 1_565
O8 V6 2.054757 1_555
O8 V7 2.054757 1_555
O8 V4 2.080227 1_555
O9 V5 1.986372 1_555
O9 V6 2.022782 1_655
O9 V7 2.022782 1_565
O10 V5 2.016903 1_455
O10 V4 2.052638 1_555
O10 V6 2.070082 1_555
O11 V5 2.016903 1_545
O11 V4 2.052638 1_555
O11 V7 2.070082 1_555
O12 V4 1.765847 1_555
O13 V5 1.766971 1_555
O14 V6 1.766775 1_555
O15 V7 1.766775 1_555
O16 V8 1.740911 1_445
O17 V9 1.749065 1_555
O18 V10 1.749413 1_565
O19 V11 1.749413 1_655
O20 V10 2.043409 1_565
O20 V11 2.043409 1_655
O20 V1 2.155802 1_555
O20 V8 2.225592 1_554
O21 V10 2.050389 1_555
O21 V11 2.050389 1_555
O21 V0 2.155521 1_555
O21 V9 2.195909 1_554
O22 V8 2.046507 1_545
O22 V9 2.048757 1_555
O22 V3 2.163027 1_555
O22 V10 2.187877 1_556
O23 V8 2.046507 1_455
O23 V9 2.048757 1_555
O23 V2 2.163027 1_555
O23 V11 2.187877 1_556
O24 V0 1.926752 1_555
O24 V4 1.986612 1_555
O25 V1 1.941824 1_555
O25 V5 2.041504 1_555
O26 V2 1.975332 1_555
O26 V6 2.020825 1_555
O27 V3 1.975332 1_555
O27 V7 2.020825 1_555
O28 V4 2.027433 1_555
O28 V0 2.043209 1_555
O29 V1 1.861940 1_555
O29 V5 2.091221 1_555
O30 V6 2.016488 1_555
O30 V2 2.041934 1_555
O31 V7 2.016488 1_555
O31 V3 2.041934 1_555
