# generated using pymatgen
data_Tb2CrGe4
_symmetry_space_group_name_H-M   'P 1'
_cell_length_a   4.30795100
_cell_length_b   4.34148200
_cell_length_c   8.04611962
_cell_angle_alpha   74.34838881
_cell_angle_beta   90.00000000
_cell_angle_gamma   90.00000000
_symmetry_Int_Tables_number   1
_chemical_formula_structural   Tb2CrGe4
_chemical_formula_sum   'Tb2 Cr1 Ge4'
_cell_volume   144.90568470
_cell_formula_units_Z   1
loop_
 _symmetry_equiv_pos_site_id
 _symmetry_equiv_pos_as_xyz
  1  'x, y, z'
loop_
 _atom_site_type_symbol
 _atom_site_label
 _atom_site_symmetry_multiplicity
 _atom_site_fract_x
 _atom_site_fract_y
 _atom_site_fract_z
 _atom_site_occupancy
  Tb  Tb0  1  0.25000000  0.59903600  0.80192900  1
  Tb  Tb1  1  0.75000000  0.39681800  0.20636300  1
  Cr  Cr0  1  0.25000000  0.79331600  0.41336800  1
  Ge  Ge0  1  0.25000000  0.94717600  0.10564800  1
  Ge  Ge1  1  0.75000000  0.05709900  0.88580200  1
  Ge  Ge2  1  0.25000000  0.24360800  0.51278300  1
  Ge  Ge3  1  0.75000000  0.74794700  0.50410700  1
loop_
_geom_bond_atom_site_label_1
_geom_bond_atom_site_label_2
_geom_bond_distance
_geom_bond_site_symmetry_2
Cr0 Ge3 2.265801 1_455
Cr0 Ge3 2.265801 1_555
Cr0 Ge2 2.303342 1_565
Cr0 Ge2 2.303346 1_555
Cr0 Ge0 2.384143 1_555
Cr0 Tb0 3.010481 1_555
Ge0 Ge1 2.746069 1_464
Ge0 Ge1 2.746069 1_564
Ge0 Tb1 3.156044 1_565
Ge0 Tb1 3.156044 1_465
Ge0 Tb1 3.156047 1_455
Ge0 Tb1 3.156047 1_555
Ge0 Tb0 3.201468 1_554
Ge0 Tb0 3.201471 1_564
Ge1 Tb0 3.126339 1_645
Ge1 Tb0 3.126339 1_545
Ge1 Tb0 3.126342 1_655
Ge1 Tb0 3.126342 1_555
Ge1 Tb1 3.298566 1_556
Ge1 Tb1 3.298569 1_546
Ge2 Tb0 3.119416 1_545
Ge2 Tb0 3.119422 1_555
Ge2 Tb1 3.205593 1_455
Ge2 Tb1 3.205593 1_555
Ge3 Tb0 3.156575 1_655
Ge3 Tb0 3.156575 1_555
Ge3 Tb1 3.167596 1_565
Ge3 Tb1 3.167602 1_555
