# generated using pymatgen
data_Ho5(In2Ni)2
_symmetry_space_group_name_H-M   'P 1'
_cell_length_a   15.75824870
_cell_length_b   35.52105340
_cell_length_c   7.16056470
_cell_angle_alpha   90.00000000
_cell_angle_beta   90.00000000
_cell_angle_gamma   90.00000000
_symmetry_Int_Tables_number   1
_chemical_formula_structural   Ho5(In2Ni)2
_chemical_formula_sum   'Ho80 In64 Ni32'
_cell_volume   4008.12318051
_cell_formula_units_Z   16
loop_
 _symmetry_equiv_pos_site_id
 _symmetry_equiv_pos_as_xyz
  1  'x, y, z'
loop_
 _atom_site_type_symbol
 _atom_site_label
 _atom_site_symmetry_multiplicity
 _atom_site_fract_x
 _atom_site_fract_y
 _atom_site_fract_z
 _atom_site_occupancy
  Ho  Ho0_0  1  0.25000000  0.25000000  0.00000000  1
  Ho  Ho0_1  1  0.25000000  0.25000000  0.50000000  1
  Ho  Ho0_2  1  0.25000000  0.75000000  0.00000000  1
  Ho  Ho0_3  1  0.25000000  0.75000000  0.50000000  1
  Ho  Ho0_4  1  0.75000000  0.25000000  0.00000000  1
  Ho  Ho0_5  1  0.75000000  0.25000000  0.50000000  1
  Ho  Ho0_6  1  0.75000000  0.75000000  0.00000000  1
  Ho  Ho0_7  1  0.75000000  0.75000000  0.50000000  1
  Ho  Ho1_0  1  0.00000000  0.00000000  0.00000000  1
  Ho  Ho1_1  1  0.00000000  0.00000000  0.50000000  1
  Ho  Ho1_2  1  0.00000000  0.50000000  0.00000000  1
  Ho  Ho1_3  1  0.00000000  0.50000000  0.50000000  1
  Ho  Ho1_4  1  0.50000000  0.00000000  0.00000000  1
  Ho  Ho1_5  1  0.50000000  0.00000000  0.50000000  1
  Ho  Ho1_6  1  0.50000000  0.50000000  0.00000000  1
  Ho  Ho1_7  1  0.50000000  0.50000000  0.50000000  1
  Ho  Ho2_0  1  0.37284112  0.13924998  0.00000000  1
  Ho  Ho2_1  1  0.37284112  0.13924998  0.50000000  1
  Ho  Ho2_2  1  0.37284112  0.63924998  0.00000000  1
  Ho  Ho2_3  1  0.37284112  0.63924998  0.50000000  1
  Ho  Ho2_4  1  0.87284112  0.13924998  0.00000000  1
  Ho  Ho2_5  1  0.87284112  0.13924998  0.50000000  1
  Ho  Ho2_6  1  0.87284112  0.63924998  0.00000000  1
  Ho  Ho2_7  1  0.87284112  0.63924998  0.50000000  1
  Ho  Ho3_0  1  0.12715888  0.36075002  0.00000000  1
  Ho  Ho3_1  1  0.12715888  0.36075002  0.50000000  1
  Ho  Ho3_2  1  0.12715888  0.86075002  0.00000000  1
  Ho  Ho3_3  1  0.12715888  0.86075002  0.50000000  1
  Ho  Ho3_4  1  0.62715888  0.36075002  0.00000000  1
  Ho  Ho3_5  1  0.62715888  0.36075002  0.50000000  1
  Ho  Ho3_6  1  0.62715888  0.86075002  0.00000000  1
  Ho  Ho3_7  1  0.62715888  0.86075002  0.50000000  1
  Ho  Ho4_0  1  0.37715888  0.38924999  0.00000000  1
  Ho  Ho4_1  1  0.37715888  0.38924999  0.50000000  1
  Ho  Ho4_2  1  0.37715888  0.88924999  0.00000000  1
  Ho  Ho4_3  1  0.37715888  0.88924999  0.50000000  1
  Ho  Ho4_4  1  0.87715889  0.38924999  0.00000000  1
  Ho  Ho4_5  1  0.87715889  0.38924999  0.50000000  1
  Ho  Ho4_6  1  0.87715889  0.88924999  0.00000000  1
  Ho  Ho4_7  1  0.87715889  0.88924999  0.50000000  1
  Ho  Ho5_0  1  0.12284112  0.11075002  0.00000000  1
  Ho  Ho5_1  1  0.12284112  0.11075002  0.50000000  1
  Ho  Ho5_2  1  0.12284112  0.61075002  0.00000000  1
  Ho  Ho5_3  1  0.12284112  0.61075002  0.50000000  1
  Ho  Ho5_4  1  0.62284112  0.11075002  0.00000000  1
  Ho  Ho5_5  1  0.62284112  0.11075002  0.50000000  1
  Ho  Ho5_6  1  0.62284112  0.61075002  0.00000000  1
  Ho  Ho5_7  1  0.62284112  0.61075002  0.50000000  1
  Ho  Ho6_0  1  0.30773260  0.04362261  0.00000000  1
  Ho  Ho6_1  1  0.30773260  0.04362261  0.50000000  1
  Ho  Ho6_2  1  0.30773260  0.54362261  0.00000000  1
  Ho  Ho6_3  1  0.30773260  0.54362261  0.50000000  1
  Ho  Ho6_4  1  0.80773260  0.04362261  0.00000000  1
  Ho  Ho6_5  1  0.80773260  0.04362261  0.50000000  1
  Ho  Ho6_6  1  0.80773260  0.54362261  0.00000000  1
  Ho  Ho6_7  1  0.80773260  0.54362261  0.50000000  1
  Ho  Ho7_0  1  0.19226740  0.45637739  0.00000000  1
  Ho  Ho7_1  1  0.19226740  0.45637739  0.50000000  1
  Ho  Ho7_2  1  0.19226740  0.95637739  0.00000000  1
  Ho  Ho7_3  1  0.19226740  0.95637739  0.50000000  1
  Ho  Ho7_4  1  0.69226740  0.45637739  0.00000000  1
  Ho  Ho7_5  1  0.69226740  0.45637739  0.50000000  1
  Ho  Ho7_6  1  0.69226740  0.95637739  0.00000000  1
  Ho  Ho7_7  1  0.69226740  0.95637739  0.50000000  1
  Ho  Ho8_0  1  0.44226740  0.29362261  0.00000000  1
  Ho  Ho8_1  1  0.44226740  0.29362261  0.50000000  1
  Ho  Ho8_2  1  0.44226740  0.79362261  0.00000000  1
  Ho  Ho8_3  1  0.44226740  0.79362261  0.50000000  1
  Ho  Ho8_4  1  0.94226740  0.29362261  0.00000000  1
  Ho  Ho8_5  1  0.94226740  0.29362261  0.50000000  1
  Ho  Ho8_6  1  0.94226740  0.79362261  0.00000000  1
  Ho  Ho8_7  1  0.94226740  0.79362261  0.50000000  1
  Ho  Ho9_0  1  0.05773260  0.20637739  0.00000000  1
  Ho  Ho9_1  1  0.05773260  0.20637739  0.50000000  1
  Ho  Ho9_2  1  0.05773260  0.70637739  0.00000000  1
  Ho  Ho9_3  1  0.05773260  0.70637739  0.50000000  1
  Ho  Ho9_4  1  0.55773260  0.20637739  0.00000000  1
  Ho  Ho9_5  1  0.55773260  0.20637739  0.50000000  1
  Ho  Ho9_6  1  0.55773260  0.70637739  0.00000000  1
  Ho  Ho9_7  1  0.55773260  0.70637739  0.50000000  1
  In  In0_0  1  0.35357567  0.46512701  0.25000000  1
  In  In0_1  1  0.35357567  0.46512701  0.75000000  1
  In  In0_2  1  0.35357567  0.96512701  0.25000000  1
  In  In0_3  1  0.35357567  0.96512701  0.75000000  1
  In  In0_4  1  0.85357567  0.46512701  0.25000000  1
  In  In0_5  1  0.85357567  0.46512701  0.75000000  1
  In  In0_6  1  0.85357567  0.96512701  0.25000000  1
  In  In0_7  1  0.85357567  0.96512701  0.75000000  1
  In  In1_0  1  0.14642433  0.03487299  0.25000000  1
  In  In1_1  1  0.14642433  0.03487299  0.75000000  1
  In  In1_2  1  0.14642433  0.53487299  0.25000000  1
  In  In1_3  1  0.14642433  0.53487299  0.75000000  1
  In  In1_4  1  0.64642433  0.03487299  0.25000000  1
  In  In1_5  1  0.64642433  0.03487299  0.75000000  1
  In  In1_6  1  0.64642433  0.53487299  0.25000000  1
  In  In1_7  1  0.64642433  0.53487299  0.75000000  1
  In  In2_0  1  0.39642433  0.21512701  0.25000000  1
  In  In2_1  1  0.39642433  0.21512701  0.75000000  1
  In  In2_2  1  0.39642433  0.71512701  0.25000000  1
  In  In2_3  1  0.39642433  0.71512701  0.75000000  1
  In  In2_4  1  0.89642433  0.21512701  0.25000000  1
  In  In2_5  1  0.89642433  0.21512701  0.75000000  1
  In  In2_6  1  0.89642433  0.71512701  0.25000000  1
  In  In2_7  1  0.89642433  0.71512701  0.75000000  1
  In  In3_0  1  0.10357567  0.28487299  0.25000000  1
  In  In3_1  1  0.10357567  0.28487299  0.75000000  1
  In  In3_2  1  0.10357567  0.78487299  0.25000000  1
  In  In3_3  1  0.10357567  0.78487299  0.75000000  1
  In  In3_4  1  0.60357567  0.28487299  0.25000000  1
  In  In3_5  1  0.60357567  0.28487299  0.75000000  1
  In  In3_6  1  0.60357567  0.78487299  0.25000000  1
  In  In3_7  1  0.60357567  0.78487299  0.75000000  1
  In  In4_0  1  0.28628798  0.32617889  0.25000000  1
  In  In4_1  1  0.28628798  0.32617889  0.75000000  1
  In  In4_2  1  0.28628798  0.82617889  0.25000000  1
  In  In4_3  1  0.28628798  0.82617889  0.75000000  1
  In  In4_4  1  0.78628798  0.32617889  0.25000000  1
  In  In4_5  1  0.78628798  0.32617889  0.75000000  1
  In  In4_6  1  0.78628798  0.82617889  0.25000000  1
  In  In4_7  1  0.78628798  0.82617889  0.75000000  1
  In  In5_0  1  0.21371203  0.17382111  0.25000000  1
  In  In5_1  1  0.21371203  0.17382111  0.75000000  1
  In  In5_2  1  0.21371203  0.67382112  0.25000000  1
  In  In5_3  1  0.21371203  0.67382112  0.75000000  1
  In  In5_4  1  0.71371203  0.17382111  0.25000000  1
  In  In5_5  1  0.71371203  0.17382111  0.75000000  1
  In  In5_6  1  0.71371203  0.67382112  0.25000000  1
  In  In5_7  1  0.71371203  0.67382112  0.75000000  1
  In  In6_0  1  0.46371203  0.07617889  0.25000000  1
  In  In6_1  1  0.46371203  0.07617889  0.75000000  1
  In  In6_2  1  0.46371203  0.57617889  0.25000000  1
  In  In6_3  1  0.46371203  0.57617889  0.75000000  1
  In  In6_4  1  0.96371202  0.07617889  0.25000000  1
  In  In6_5  1  0.96371202  0.07617889  0.75000000  1
  In  In6_6  1  0.96371202  0.57617889  0.25000000  1
  In  In6_7  1  0.96371202  0.57617889  0.75000000  1
  In  In7_0  1  0.03628798  0.42382112  0.25000000  1
  In  In7_1  1  0.03628798  0.42382112  0.75000000  1
  In  In7_2  1  0.03628798  0.92382112  0.25000000  1
  In  In7_3  1  0.03628798  0.92382112  0.75000000  1
  In  In7_4  1  0.53628798  0.42382112  0.25000000  1
  In  In7_5  1  0.53628798  0.42382112  0.75000000  1
  In  In7_6  1  0.53628798  0.92382112  0.25000000  1
  In  In7_7  1  0.53628798  0.92382112  0.75000000  1
  Ni  Ni0_0  1  0.26305810  0.09763871  0.25000000  1
  Ni  Ni0_1  1  0.26305810  0.09763871  0.75000000  1
  Ni  Ni0_2  1  0.26305810  0.59763871  0.25000000  1
  Ni  Ni0_3  1  0.26305810  0.59763871  0.75000000  1
  Ni  Ni0_4  1  0.76305810  0.09763871  0.25000000  1
  Ni  Ni0_5  1  0.76305810  0.09763871  0.75000000  1
  Ni  Ni0_6  1  0.76305810  0.59763871  0.25000000  1
  Ni  Ni0_7  1  0.76305810  0.59763871  0.75000000  1
  Ni  Ni1_0  1  0.23694190  0.40236129  0.25000000  1
  Ni  Ni1_1  1  0.23694190  0.40236129  0.75000000  1
  Ni  Ni1_2  1  0.23694190  0.90236129  0.25000000  1
  Ni  Ni1_3  1  0.23694190  0.90236129  0.75000000  1
  Ni  Ni1_4  1  0.73694190  0.40236129  0.25000000  1
  Ni  Ni1_5  1  0.73694190  0.40236129  0.75000000  1
  Ni  Ni1_6  1  0.73694190  0.90236129  0.25000000  1
  Ni  Ni1_7  1  0.73694190  0.90236129  0.75000000  1
  Ni  Ni2_0  1  0.48694190  0.34763871  0.25000000  1
  Ni  Ni2_1  1  0.48694190  0.34763871  0.75000000  1
  Ni  Ni2_2  1  0.48694190  0.84763871  0.25000000  1
  Ni  Ni2_3  1  0.48694190  0.84763871  0.75000000  1
  Ni  Ni2_4  1  0.98694190  0.34763871  0.25000000  1
  Ni  Ni2_5  1  0.98694190  0.34763871  0.75000000  1
  Ni  Ni2_6  1  0.98694190  0.84763871  0.25000000  1
  Ni  Ni2_7  1  0.98694190  0.84763871  0.75000000  1
  Ni  Ni3_0  1  0.01305810  0.15236129  0.25000000  1
  Ni  Ni3_1  1  0.01305810  0.15236129  0.75000000  1
  Ni  Ni3_2  1  0.01305810  0.65236129  0.25000000  1
  Ni  Ni3_3  1  0.01305810  0.65236129  0.75000000  1
  Ni  Ni3_4  1  0.51305810  0.15236129  0.25000000  1
  Ni  Ni3_5  1  0.51305810  0.15236129  0.75000000  1
  Ni  Ni3_6  1  0.51305810  0.65236129  0.25000000  1
  Ni  Ni3_7  1  0.51305810  0.65236129  0.75000000  1
loop_
_geom_bond_atom_site_label_1
_geom_bond_atom_site_label_2
_geom_bond_distance
_geom_bond_site_symmetry_2
Ho0_0 In2_0 3.172239 1_555
Ho0_0 In2_1 3.172239 1_554
Ho0_0 In3_1 3.172239 1_554
Ho0_0 In3_0 3.172239 1_555
Ho0_0 In5_0 3.294509 1_555
Ho0_0 In5_1 3.294509 1_554
Ho0_0 In4_0 3.294509 1_555
Ho0_0 In4_1 3.294509 1_554
Ho0_0 Ho8_0 3.403041 1_555
Ho0_0 Ho9_0 3.403041 1_555
Ho0_0 Ho0_1 3.580282 1_555
Ho0_0 Ho0_1 3.580282 1_554
Ho0_1 In2_0 3.172239 1_555
Ho0_1 In3_1 3.172239 1_555
Ho0_1 In3_0 3.172239 1_555
Ho0_1 In2_1 3.172239 1_555
Ho0_1 In5_0 3.294509 1_555
Ho0_1 In5_1 3.294509 1_555
Ho0_1 In4_0 3.294509 1_555
Ho0_1 In4_1 3.294509 1_555
Ho0_1 Ho8_1 3.403041 1_555
Ho0_1 Ho9_1 3.403041 1_555
Ho0_2 In2_2 3.172239 1_555
Ho0_2 In3_3 3.172239 1_554
Ho0_2 In3_2 3.172239 1_555
Ho0_2 In2_3 3.172239 1_554
Ho0_2 In5_2 3.294509 1_555
Ho0_2 In5_3 3.294509 1_554
Ho0_2 In4_2 3.294509 1_555
Ho0_2 In4_3 3.294509 1_554
Ho0_2 Ho8_2 3.403041 1_555
Ho0_2 Ho9_2 3.403041 1_555
Ho0_2 Ho0_3 3.580282 1_554
Ho0_2 Ho0_3 3.580282 1_555
Ho0_3 In3_3 3.172239 1_555
Ho0_3 In2_2 3.172239 1_555
Ho0_3 In2_3 3.172239 1_555
Ho0_3 In3_2 3.172239 1_555
Ho0_3 In5_3 3.294509 1_555
Ho0_3 In5_2 3.294509 1_555
Ho0_3 In4_3 3.294509 1_555
Ho0_3 In4_2 3.294509 1_555
Ho0_3 Ho8_3 3.403041 1_555
Ho0_3 Ho9_3 3.403041 1_555
Ho0_4 In2_5 3.172239 1_554
Ho0_4 In2_4 3.172239 1_555
Ho0_4 In3_5 3.172239 1_554
Ho0_4 In3_4 3.172239 1_555
Ho0_4 In5_5 3.294509 1_554
Ho0_4 In5_4 3.294509 1_555
Ho0_4 In4_5 3.294509 1_554
Ho0_4 In4_4 3.294509 1_555
Ho0_4 Ho8_4 3.403041 1_555
Ho0_4 Ho9_4 3.403041 1_555
Ho0_4 Ho0_5 3.580282 1_554
Ho0_4 Ho0_5 3.580282 1_555
Ho0_5 In2_5 3.172239 1_555
Ho0_5 In2_4 3.172239 1_555
Ho0_5 In3_5 3.172239 1_555
Ho0_5 In3_4 3.172239 1_555
Ho0_5 In5_4 3.294509 1_555
Ho0_5 In5_5 3.294509 1_555
Ho0_5 In4_5 3.294509 1_555
Ho0_5 In4_4 3.294509 1_555
Ho0_5 Ho8_5 3.403041 1_555
Ho0_5 Ho9_5 3.403041 1_555
Ho0_6 In2_6 3.172239 1_555
Ho0_6 In2_7 3.172239 1_554
Ho0_6 In3_6 3.172239 1_555
Ho0_6 In3_7 3.172239 1_554
Ho0_6 In5_7 3.294509 1_554
Ho0_6 In5_6 3.294509 1_555
Ho0_6 In4_7 3.294509 1_554
Ho0_6 In4_6 3.294509 1_555
Ho0_6 Ho8_6 3.403041 1_555
Ho0_6 Ho9_6 3.403041 1_555
Ho0_6 Ho0_7 3.580282 1_555
Ho0_6 Ho0_7 3.580282 1_554
Ho0_7 In2_6 3.172239 1_555
Ho0_7 In2_7 3.172239 1_555
Ho0_7 In3_7 3.172239 1_555
Ho0_7 In3_6 3.172239 1_555
Ho0_7 In5_7 3.294509 1_555
Ho0_7 In5_6 3.294509 1_555
Ho0_7 In4_7 3.294509 1_555
Ho0_7 In4_6 3.294509 1_555
Ho0_7 Ho8_7 3.403041 1_555
Ho0_7 Ho9_7 3.403041 1_555
Ho1_0 In0_6 3.172239 1_445
Ho1_0 In0_7 3.172239 1_444
Ho1_0 In1_0 3.172239 1_555
Ho1_0 In1_1 3.172239 1_554
Ho1_0 In7_2 3.294509 1_545
Ho1_0 In7_3 3.294509 1_544
Ho1_0 In6_4 3.294509 1_455
Ho1_0 In6_5 3.294509 1_454
Ho1_0 Ho7_2 3.403041 1_545
Ho1_0 Ho6_4 3.403041 1_455
Ho1_0 Ho1_1 3.580282 1_555
Ho1_0 Ho1_1 3.580282 1_554
Ho1_1 In0_7 3.172239 1_445
Ho1_1 In0_6 3.172239 1_445
Ho1_1 In1_0 3.172239 1_555
Ho1_1 In1_1 3.172239 1_555
Ho1_1 In7_3 3.294509 1_545
Ho1_1 In7_2 3.294509 1_545
Ho1_1 In6_5 3.294509 1_455
Ho1_1 In6_4 3.294509 1_455
Ho1_1 Ho7_3 3.403041 1_545
Ho1_1 Ho6_5 3.403041 1_455
Ho1_2 In1_2 3.172239 1_555
Ho1_2 In0_4 3.172239 1_455
Ho1_2 In1_3 3.172239 1_554
Ho1_2 In0_5 3.172239 1_454
Ho1_2 In7_0 3.294509 1_555
Ho1_2 In7_1 3.294509 1_554
Ho1_2 In6_6 3.294509 1_455
Ho1_2 In6_7 3.294509 1_454
Ho1_2 Ho7_0 3.403041 1_555
Ho1_2 Ho6_6 3.403041 1_455
Ho1_2 Ho1_3 3.580282 1_554
Ho1_2 Ho1_3 3.580282 1_555
Ho1_3 In0_5 3.172239 1_455
Ho1_3 In0_4 3.172239 1_455
Ho1_3 In1_3 3.172239 1_555
Ho1_3 In1_2 3.172239 1_555
Ho1_3 In7_0 3.294509 1_555
Ho1_3 In7_1 3.294509 1_555
Ho1_3 In6_6 3.294509 1_455
Ho1_3 In6_7 3.294509 1_455
Ho1_3 Ho7_1 3.403041 1_555
Ho1_3 Ho6_7 3.403041 1_455
Ho1_4 In0_3 3.172239 1_544
Ho1_4 In0_2 3.172239 1_545
Ho1_4 In1_5 3.172239 1_554
Ho1_4 In1_4 3.172239 1_555
Ho1_4 In7_7 3.294509 1_544
Ho1_4 In7_6 3.294509 1_545
Ho1_4 In6_1 3.294509 1_554
Ho1_4 In6_0 3.294509 1_555
Ho1_4 Ho7_6 3.403041 1_545
Ho1_4 Ho6_0 3.403041 1_555
Ho1_4 Ho1_5 3.580282 1_555
Ho1_4 Ho1_5 3.580282 1_554
Ho1_5 In0_3 3.172239 1_545
Ho1_5 In0_2 3.172239 1_545
Ho1_5 In1_4 3.172239 1_555
Ho1_5 In1_5 3.172239 1_555
Ho1_5 In7_7 3.294509 1_545
Ho1_5 In7_6 3.294509 1_545
Ho1_5 In6_1 3.294509 1_555
Ho1_5 In6_0 3.294509 1_555
Ho1_5 Ho7_7 3.403041 1_545
Ho1_5 Ho6_1 3.403041 1_555
Ho1_6 In0_0 3.172239 1_555
Ho1_6 In0_1 3.172239 1_554
Ho1_6 In1_6 3.172239 1_555
Ho1_6 In1_7 3.172239 1_554
Ho1_6 In7_4 3.294509 1_555
Ho1_6 In7_5 3.294509 1_554
Ho1_6 In6_3 3.294509 1_554
Ho1_6 In6_2 3.294509 1_555
Ho1_6 Ho7_4 3.403041 1_555
Ho1_6 Ho6_2 3.403041 1_555
Ho1_6 Ho1_7 3.580282 1_554
Ho1_6 Ho1_7 3.580282 1_555
Ho1_7 In1_7 3.172239 1_555
Ho1_7 In0_0 3.172239 1_555
Ho1_7 In1_6 3.172239 1_555
Ho1_7 In0_1 3.172239 1_555
Ho1_7 In7_4 3.294509 1_555
Ho1_7 In7_5 3.294509 1_555
Ho1_7 In6_3 3.294509 1_555
Ho1_7 In6_2 3.294509 1_555
Ho1_7 Ho7_5 3.403041 1_555
Ho1_7 Ho6_3 3.403041 1_555
Ho2_0 Ni3_5 2.881619 1_554
Ho2_0 Ni3_4 2.881619 1_555
Ho2_0 Ni0_0 2.895198 1_555
Ho2_0 Ni0_1 2.895198 1_554
Ho2_0 In6_0 3.205356 1_555
Ho2_0 In6_1 3.205356 1_554
Ho2_0 In2_1 3.256837 1_554
Ho2_0 In2_0 3.256837 1_555
Ho2_0 In5_0 3.316720 1_555
Ho2_0 In5_1 3.316720 1_554
Ho2_1 Ni3_4 2.881619 1_555
Ho2_1 Ni3_5 2.881619 1_555
Ho2_1 Ni0_0 2.895198 1_555
Ho2_1 Ni0_1 2.895198 1_555
Ho2_1 In6_1 3.205356 1_555
Ho2_1 In6_0 3.205356 1_555
Ho2_1 In2_0 3.256837 1_555
Ho2_1 In2_1 3.256837 1_555
Ho2_1 In5_1 3.316720 1_555
Ho2_1 In5_0 3.316720 1_555
Ho2_2 Ni3_6 2.881619 1_555
Ho2_2 Ni3_7 2.881619 1_554
Ho2_2 Ni0_3 2.895198 1_554
Ho2_2 Ni0_2 2.895198 1_555
Ho2_2 In6_2 3.205356 1_555
Ho2_2 In6_3 3.205356 1_554
Ho2_2 In2_3 3.256837 1_554
Ho2_2 In2_2 3.256837 1_555
Ho2_2 In5_2 3.316720 1_555
Ho2_2 In5_3 3.316720 1_554
Ho2_3 Ni3_6 2.881619 1_555
Ho2_3 Ni3_7 2.881619 1_555
Ho2_3 Ni0_3 2.895198 1_555
Ho2_3 Ni0_2 2.895198 1_555
Ho2_3 In6_2 3.205356 1_555
Ho2_3 In6_3 3.205356 1_555
Ho2_3 In2_2 3.256837 1_555
Ho2_3 In2_3 3.256837 1_555
Ho2_3 In5_2 3.316720 1_555
Ho2_3 In5_3 3.316720 1_555
Ho2_4 Ni3_1 2.881619 1_654
Ho2_4 Ni3_0 2.881619 1_655
Ho2_4 Ni0_5 2.895198 1_554
Ho2_4 Ni0_4 2.895198 1_555
Ho2_4 In6_5 3.205356 1_554
Ho2_4 In6_4 3.205356 1_555
Ho2_4 In2_5 3.256837 1_554
Ho2_4 In2_4 3.256837 1_555
Ho2_4 In5_4 3.316720 1_555
Ho2_4 In5_5 3.316720 1_554
Ho2_5 Ni3_1 2.881619 1_655
Ho2_5 Ni3_0 2.881619 1_655
Ho2_5 Ni0_5 2.895198 1_555
Ho2_5 Ni0_4 2.895198 1_555
Ho2_5 In6_5 3.205356 1_555
Ho2_5 In6_4 3.205356 1_555
Ho2_5 In2_5 3.256837 1_555
Ho2_5 In2_4 3.256837 1_555
Ho2_5 In5_5 3.316720 1_555
Ho2_5 In5_4 3.316720 1_555
Ho2_6 Ni3_2 2.881619 1_655
Ho2_6 Ni3_3 2.881619 1_654
Ho2_6 Ni0_7 2.895198 1_554
Ho2_6 Ni0_6 2.895198 1_555
Ho2_6 In6_7 3.205356 1_554
Ho2_6 In6_6 3.205356 1_555
Ho2_6 In2_7 3.256837 1_554
Ho2_6 In2_6 3.256837 1_555
Ho2_6 In5_6 3.316720 1_555
Ho2_6 In5_7 3.316720 1_554
Ho2_7 Ni3_2 2.881619 1_655
Ho2_7 Ni3_3 2.881619 1_655
Ho2_7 Ni0_7 2.895198 1_555
Ho2_7 Ni0_6 2.895198 1_555
Ho2_7 In6_7 3.205356 1_555
Ho2_7 In6_6 3.205356 1_555
Ho2_7 In2_6 3.256837 1_555
Ho2_7 In2_7 3.256837 1_555
Ho2_7 In5_7 3.316720 1_555
Ho2_7 In5_6 3.316720 1_555
Ho3_0 Ni2_4 2.881619 1_455
Ho3_0 Ni2_5 2.881619 1_454
Ho3_0 Ni1_0 2.895198 1_555
Ho3_0 Ni1_1 2.895198 1_554
Ho3_0 In7_0 3.205356 1_555
Ho3_0 In7_1 3.205356 1_554
Ho3_0 In3_1 3.256837 1_554
Ho3_0 In3_0 3.256837 1_555
Ho3_0 In4_0 3.316720 1_555
Ho3_0 In4_1 3.316720 1_554
Ho3_1 Ni2_4 2.881619 1_455
Ho3_1 Ni2_5 2.881619 1_455
Ho3_1 Ni1_0 2.895198 1_555
Ho3_1 Ni1_1 2.895198 1_555
Ho3_1 In7_1 3.205356 1_555
Ho3_1 In7_0 3.205356 1_555
Ho3_1 In3_1 3.256837 1_555
Ho3_1 In3_0 3.256837 1_555
Ho3_1 In4_0 3.316720 1_555
Ho3_1 In4_1 3.316720 1_555
Ho3_2 Ni2_7 2.881619 1_454
Ho3_2 Ni2_6 2.881619 1_455
Ho3_2 Ni1_2 2.895198 1_555
Ho3_2 Ni1_3 2.895198 1_554
Ho3_2 In7_3 3.205356 1_554
Ho3_2 In7_2 3.205356 1_555
Ho3_2 In3_3 3.256837 1_554
Ho3_2 In3_2 3.256837 1_555
Ho3_2 In4_2 3.316720 1_555
Ho3_2 In4_3 3.316720 1_554
Ho3_3 Ni2_6 2.881619 1_455
Ho3_3 Ni2_7 2.881619 1_455
Ho3_3 Ni1_2 2.895198 1_555
Ho3_3 Ni1_3 2.895198 1_555
Ho3_3 In7_3 3.205356 1_555
Ho3_3 In7_2 3.205356 1_555
Ho3_3 In3_3 3.256837 1_555
Ho3_3 In3_2 3.256837 1_555
Ho3_3 In4_3 3.316720 1_555
Ho3_3 In4_2 3.316720 1_555
Ho3_4 Ni2_0 2.881619 1_555
Ho3_4 Ni2_1 2.881619 1_554
Ho3_4 Ni1_4 2.895198 1_555
Ho3_4 Ni1_5 2.895198 1_554
Ho3_4 In7_5 3.205356 1_554
Ho3_4 In7_4 3.205356 1_555
Ho3_4 In3_5 3.256837 1_554
Ho3_4 In3_4 3.256837 1_555
Ho3_4 In4_4 3.316720 1_555
Ho3_4 In4_5 3.316720 1_554
Ho3_5 Ni2_0 2.881619 1_555
Ho3_5 Ni2_1 2.881619 1_555
Ho3_5 Ni1_4 2.895198 1_555
Ho3_5 Ni1_5 2.895198 1_555
Ho3_5 In7_5 3.205356 1_555
Ho3_5 In7_4 3.205356 1_555
Ho3_5 In3_5 3.256837 1_555
Ho3_5 In3_4 3.256837 1_555
Ho3_5 In4_5 3.316720 1_555
Ho3_5 In4_4 3.316720 1_555
Ho3_6 Ni2_2 2.881619 1_555
Ho3_6 Ni2_3 2.881619 1_554
Ho3_6 Ni1_6 2.895198 1_555
Ho3_6 Ni1_7 2.895198 1_554
Ho3_6 In7_6 3.205356 1_555
Ho3_6 In7_7 3.205356 1_554
Ho3_6 In3_7 3.256837 1_554
Ho3_6 In3_6 3.256837 1_555
Ho3_6 In4_7 3.316720 1_554
Ho3_6 In4_6 3.316720 1_555
Ho3_7 Ni2_2 2.881619 1_555
Ho3_7 Ni2_3 2.881619 1_555
Ho3_7 Ni1_7 2.895198 1_555
Ho3_7 Ni1_6 2.895198 1_555
Ho3_7 In7_6 3.205356 1_555
Ho3_7 In7_7 3.205356 1_555
Ho3_7 In3_7 3.256837 1_555
Ho3_7 In3_6 3.256837 1_555
Ho3_7 In4_7 3.316720 1_555
Ho3_7 In4_6 3.316720 1_555
Ho4_0 Ni1_0 2.881619 1_555
Ho4_0 Ni1_1 2.881619 1_554
Ho4_0 Ni2_0 2.895198 1_555
Ho4_0 Ni2_1 2.895198 1_554
Ho4_0 In4_1 3.205356 1_554
Ho4_0 In4_0 3.205356 1_555
Ho4_0 In0_1 3.256837 1_554
Ho4_0 In0_0 3.256837 1_555
Ho4_0 In7_4 3.316720 1_555
Ho4_0 In7_5 3.316720 1_554
Ho4_1 Ni1_0 2.881619 1_555
Ho4_1 Ni1_1 2.881619 1_555
Ho4_1 Ni2_0 2.895198 1_555
Ho4_1 Ni2_1 2.895198 1_555
Ho4_1 In4_1 3.205356 1_555
Ho4_1 In4_0 3.205356 1_555
Ho4_1 In0_1 3.256837 1_555
Ho4_1 In0_0 3.256837 1_555
Ho4_1 In7_4 3.316720 1_555
Ho4_1 In7_5 3.316720 1_555
Ho4_2 Ni1_2 2.881619 1_555
Ho4_2 Ni1_3 2.881619 1_554
Ho4_2 Ni2_2 2.895198 1_555
Ho4_2 Ni2_3 2.895198 1_554
Ho4_2 In4_3 3.205356 1_554
Ho4_2 In4_2 3.205356 1_555
Ho4_2 In0_2 3.256837 1_555
Ho4_2 In0_3 3.256837 1_554
Ho4_2 In7_7 3.316720 1_554
Ho4_2 In7_6 3.316720 1_555
Ho4_3 Ni1_2 2.881619 1_555
Ho4_3 Ni1_3 2.881619 1_555
Ho4_3 Ni2_2 2.895198 1_555
Ho4_3 Ni2_3 2.895198 1_555
Ho4_3 In4_2 3.205356 1_555
Ho4_3 In4_3 3.205356 1_555
Ho4_3 In0_2 3.256837 1_555
Ho4_3 In0_3 3.256837 1_555
Ho4_3 In7_6 3.316720 1_555
Ho4_3 In7_7 3.316720 1_555
Ho4_4 Ni1_4 2.881619 1_555
Ho4_4 Ni1_5 2.881619 1_554
Ho4_4 Ni2_4 2.895198 1_555
Ho4_4 Ni2_5 2.895198 1_554
Ho4_4 In4_5 3.205356 1_554
Ho4_4 In4_4 3.205356 1_555
Ho4_4 In0_5 3.256837 1_554
Ho4_4 In0_4 3.256837 1_555
Ho4_4 In7_1 3.316720 1_654
Ho4_4 In7_0 3.316720 1_655
Ho4_5 Ni1_4 2.881619 1_555
Ho4_5 Ni1_5 2.881619 1_555
Ho4_5 Ni2_4 2.895198 1_555
Ho4_5 Ni2_5 2.895198 1_555
Ho4_5 In4_5 3.205356 1_555
Ho4_5 In4_4 3.205356 1_555
Ho4_5 In0_4 3.256837 1_555
Ho4_5 In0_5 3.256837 1_555
Ho4_5 In7_1 3.316720 1_655
Ho4_5 In7_0 3.316720 1_655
Ho4_6 Ni1_7 2.881619 1_554
Ho4_6 Ni1_6 2.881619 1_555
Ho4_6 Ni2_6 2.895198 1_555
Ho4_6 Ni2_7 2.895198 1_554
Ho4_6 In4_6 3.205356 1_555
Ho4_6 In4_7 3.205356 1_554
Ho4_6 In0_7 3.256837 1_554
Ho4_6 In0_6 3.256837 1_555
Ho4_6 In7_2 3.316720 1_655
Ho4_6 In7_3 3.316720 1_654
Ho4_7 Ni1_7 2.881619 1_555
Ho4_7 Ni1_6 2.881619 1_555
Ho4_7 Ni2_6 2.895198 1_555
Ho4_7 Ni2_7 2.895198 1_555
Ho4_7 In4_6 3.205356 1_555
Ho4_7 In4_7 3.205356 1_555
Ho4_7 In0_6 3.256837 1_555
Ho4_7 In0_7 3.256837 1_555
Ho4_7 In7_2 3.316720 1_655
Ho4_7 In7_3 3.316720 1_655
Ho5_0 Ni0_1 2.881619 1_554
Ho5_0 Ni0_0 2.881619 1_555
Ho5_0 Ni3_0 2.895198 1_555
Ho5_0 Ni3_1 2.895198 1_554
Ho5_0 In5_1 3.205356 1_554
Ho5_0 In5_0 3.205356 1_555
Ho5_0 In1_1 3.256837 1_554
Ho5_0 In1_0 3.256837 1_555
Ho5_0 In6_5 3.316720 1_454
Ho5_0 In6_4 3.316720 1_455
Ho5_1 Ni0_0 2.881619 1_555
Ho5_1 Ni0_1 2.881619 1_555
Ho5_1 Ni3_0 2.895198 1_555
Ho5_1 Ni3_1 2.895198 1_555
Ho5_1 In5_1 3.205356 1_555
Ho5_1 In5_0 3.205356 1_555
Ho5_1 In1_1 3.256837 1_555
Ho5_1 In1_0 3.256837 1_555
Ho5_1 In6_5 3.316720 1_455
Ho5_1 In6_4 3.316720 1_455
Ho5_2 Ni0_2 2.881619 1_555
Ho5_2 Ni0_3 2.881619 1_554
Ho5_2 Ni3_2 2.895198 1_555
Ho5_2 Ni3_3 2.895198 1_554
Ho5_2 In5_3 3.205356 1_554
Ho5_2 In5_2 3.205356 1_555
Ho5_2 In1_2 3.256837 1_555
Ho5_2 In1_3 3.256837 1_554
Ho5_2 In6_6 3.316720 1_455
Ho5_2 In6_7 3.316720 1_454
Ho5_3 Ni0_2 2.881619 1_555
Ho5_3 Ni0_3 2.881619 1_555
Ho5_3 Ni3_2 2.895198 1_555
Ho5_3 Ni3_3 2.895198 1_555
Ho5_3 In5_2 3.205356 1_555
Ho5_3 In5_3 3.205356 1_555
Ho5_3 In1_2 3.256837 1_555
Ho5_3 In1_3 3.256837 1_555
Ho5_3 In6_6 3.316720 1_455
Ho5_3 In6_7 3.316720 1_455
Ho5_4 Ni0_4 2.881619 1_555
Ho5_4 Ni0_5 2.881619 1_554
Ho5_4 Ni3_5 2.895198 1_554
Ho5_4 Ni3_4 2.895198 1_555
Ho5_4 In5_4 3.205356 1_555
Ho5_4 In5_5 3.205356 1_554
Ho5_4 In1_5 3.256837 1_554
Ho5_4 In1_4 3.256837 1_555
Ho5_4 In6_0 3.316720 1_555
Ho5_4 In6_1 3.316720 1_554
Ho5_5 Ni0_4 2.881619 1_555
Ho5_5 Ni0_5 2.881619 1_555
Ho5_5 Ni3_4 2.895198 1_555
Ho5_5 Ni3_5 2.895198 1_555
Ho5_5 In5_4 3.205356 1_555
Ho5_5 In5_5 3.205356 1_555
Ho5_5 In1_4 3.256837 1_555
Ho5_5 In1_5 3.256837 1_555
Ho5_5 In6_0 3.316720 1_555
Ho5_5 In6_1 3.316720 1_555
Ho5_6 Ni0_6 2.881619 1_555
Ho5_6 Ni0_7 2.881619 1_554
Ho5_6 Ni3_6 2.895198 1_555
Ho5_6 Ni3_7 2.895198 1_554
Ho5_6 In5_7 3.205356 1_554
Ho5_6 In5_6 3.205356 1_555
Ho5_6 In1_6 3.256837 1_555
Ho5_6 In1_7 3.256837 1_554
Ho5_6 In6_2 3.316720 1_555
Ho5_6 In6_3 3.316720 1_554
Ho5_7 Ni0_6 2.881619 1_555
Ho5_7 Ni0_7 2.881619 1_555
Ho5_7 Ni3_6 2.895198 1_555
Ho5_7 Ni3_7 2.895198 1_555
Ho5_7 In5_6 3.205356 1_555
Ho5_7 In5_7 3.205356 1_555
Ho5_7 In1_7 3.256837 1_555
Ho5_7 In1_6 3.256837 1_555
Ho5_7 In6_2 3.316720 1_555
Ho5_7 In6_3 3.316720 1_555
Ho6_0 Ni0_1 2.716920 1_554
Ho6_0 Ni0_0 2.716920 1_555
Ho6_0 In1_1 3.124522 1_554
Ho6_0 In1_0 3.124522 1_555
Ho6_0 In6_0 3.253233 1_555
Ho6_0 In6_1 3.253233 1_554
Ho6_0 In0_2 3.391282 1_545
Ho6_0 In0_3 3.391282 1_544
Ho6_1 Ni0_1 2.716920 1_555
Ho6_1 Ni0_0 2.716920 1_555
Ho6_1 In1_1 3.124522 1_555
Ho6_1 In1_0 3.124522 1_555
Ho6_1 In6_0 3.253233 1_555
Ho6_1 In6_1 3.253233 1_555
Ho6_1 In0_2 3.391282 1_545
Ho6_1 In0_3 3.391282 1_545
Ho6_2 Ni0_2 2.716920 1_555
Ho6_2 Ni0_3 2.716920 1_554
Ho6_2 In1_3 3.124522 1_554
Ho6_2 In1_2 3.124522 1_555
Ho6_2 In6_2 3.253233 1_555
Ho6_2 In6_3 3.253233 1_554
Ho6_2 In0_1 3.391282 1_554
Ho6_2 In0_0 3.391282 1_555
Ho6_3 Ni0_2 2.716920 1_555
Ho6_3 Ni0_3 2.716920 1_555
Ho6_3 In1_2 3.124522 1_555
Ho6_3 In1_3 3.124522 1_555
Ho6_3 In6_2 3.253233 1_555
Ho6_3 In6_3 3.253233 1_555
Ho6_3 In0_1 3.391282 1_555
Ho6_3 In0_0 3.391282 1_555
Ho6_4 Ni0_4 2.716920 1_555
Ho6_4 Ni0_5 2.716920 1_554
Ho6_4 In1_4 3.124522 1_555
Ho6_4 In1_5 3.124522 1_554
Ho6_4 In6_4 3.253233 1_555
Ho6_4 In6_5 3.253233 1_554
Ho6_4 In0_6 3.391282 1_545
Ho6_4 In0_7 3.391282 1_544
Ho6_5 Ni0_4 2.716920 1_555
Ho6_5 Ni0_5 2.716920 1_555
Ho6_5 In1_4 3.124522 1_555
Ho6_5 In1_5 3.124522 1_555
Ho6_5 In6_5 3.253233 1_555
Ho6_5 In6_4 3.253233 1_555
Ho6_5 In0_6 3.391282 1_545
Ho6_5 In0_7 3.391282 1_545
Ho6_6 Ni0_7 2.716920 1_554
Ho6_6 Ni0_6 2.716920 1_555
Ho6_6 In1_6 3.124522 1_555
Ho6_6 In1_7 3.124522 1_554
Ho6_6 In6_6 3.253233 1_555
Ho6_6 In6_7 3.253233 1_554
Ho6_6 In0_5 3.391282 1_554
Ho6_6 In0_4 3.391282 1_555
Ho6_7 Ni0_7 2.716920 1_555
Ho6_7 Ni0_6 2.716920 1_555
Ho6_7 In1_6 3.124522 1_555
Ho6_7 In1_7 3.124522 1_555
Ho6_7 In6_6 3.253233 1_555
Ho6_7 In6_7 3.253233 1_555
Ho6_7 In0_5 3.391282 1_555
Ho6_7 In0_4 3.391282 1_555
Ho7_0 Ni1_0 2.716920 1_555
Ho7_0 Ni1_1 2.716920 1_554
Ho7_0 In0_1 3.124522 1_554
Ho7_0 In0_0 3.124522 1_555
Ho7_0 In7_0 3.253233 1_555
Ho7_0 In7_1 3.253233 1_554
Ho7_0 In1_3 3.391282 1_554
Ho7_0 In1_2 3.391282 1_555
Ho7_1 Ni1_0 2.716920 1_555
Ho7_1 Ni1_1 2.716920 1_555
Ho7_1 In0_1 3.124522 1_555
Ho7_1 In0_0 3.124522 1_555
Ho7_1 In7_1 3.253233 1_555
Ho7_1 In7_0 3.253233 1_555
Ho7_1 In1_2 3.391282 1_555
Ho7_1 In1_3 3.391282 1_555
Ho7_2 Ni1_2 2.716920 1_555
Ho7_2 Ni1_3 2.716920 1_554
Ho7_2 In0_2 3.124522 1_555
Ho7_2 In0_3 3.124522 1_554
Ho7_2 In7_2 3.253233 1_555
Ho7_2 In7_3 3.253233 1_554
Ho7_2 In1_0 3.391282 1_565
Ho7_2 In1_1 3.391282 1_564
Ho7_3 Ni1_2 2.716920 1_555
Ho7_3 Ni1_3 2.716920 1_555
Ho7_3 In0_3 3.124522 1_555
Ho7_3 In0_2 3.124522 1_555
Ho7_3 In7_2 3.253233 1_555
Ho7_3 In7_3 3.253233 1_555
Ho7_3 In1_0 3.391282 1_565
Ho7_3 In1_1 3.391282 1_565
Ho7_4 Ni1_5 2.716920 1_554
Ho7_4 Ni1_4 2.716920 1_555
Ho7_4 In0_5 3.124522 1_554
Ho7_4 In0_4 3.124522 1_555
Ho7_4 In7_4 3.253233 1_555
Ho7_4 In7_5 3.253233 1_554
Ho7_4 In1_6 3.391282 1_555
Ho7_4 In1_7 3.391282 1_554
Ho7_5 Ni1_5 2.716920 1_555
Ho7_5 Ni1_4 2.716920 1_555
Ho7_5 In0_5 3.124522 1_555
Ho7_5 In0_4 3.124522 1_555
Ho7_5 In7_4 3.253233 1_555
Ho7_5 In7_5 3.253233 1_555
Ho7_5 In1_6 3.391282 1_555
Ho7_5 In1_7 3.391282 1_555
Ho7_6 Ni1_6 2.716920 1_555
Ho7_6 Ni1_7 2.716920 1_554
Ho7_6 In0_7 3.124522 1_554
Ho7_6 In0_6 3.124522 1_555
Ho7_6 In7_6 3.253233 1_555
Ho7_6 In7_7 3.253233 1_554
Ho7_6 In1_4 3.391282 1_565
Ho7_6 In1_5 3.391282 1_564
Ho7_7 Ni1_7 2.716920 1_555
Ho7_7 Ni1_6 2.716920 1_555
Ho7_7 In0_7 3.124522 1_555
Ho7_7 In0_6 3.124522 1_555
Ho7_7 In7_6 3.253233 1_555
Ho7_7 In7_7 3.253233 1_555
Ho7_7 In1_5 3.391282 1_565
Ho7_7 In1_4 3.391282 1_565
Ho8_0 Ni2_0 2.716920 1_555
Ho8_0 Ni2_1 2.716920 1_554
Ho8_0 In3_5 3.124522 1_554
Ho8_0 In3_4 3.124522 1_555
Ho8_0 In4_0 3.253233 1_555
Ho8_0 In4_1 3.253233 1_554
Ho8_0 In2_1 3.391282 1_554
Ho8_0 In2_0 3.391282 1_555
Ho8_1 Ni2_0 2.716920 1_555
Ho8_1 Ni2_1 2.716920 1_555
Ho8_1 In3_5 3.124522 1_555
Ho8_1 In3_4 3.124522 1_555
Ho8_1 In4_1 3.253233 1_555
Ho8_1 In4_0 3.253233 1_555
Ho8_1 In2_0 3.391282 1_555
Ho8_1 In2_1 3.391282 1_555
Ho8_2 Ni2_2 2.716920 1_555
Ho8_2 Ni2_3 2.716920 1_554
Ho8_2 In3_7 3.124522 1_554
Ho8_2 In3_6 3.124522 1_555
Ho8_2 In4_3 3.253233 1_554
Ho8_2 In4_2 3.253233 1_555
Ho8_2 In2_2 3.391282 1_555
Ho8_2 In2_3 3.391282 1_554
Ho8_3 Ni2_2 2.716920 1_555
Ho8_3 Ni2_3 2.716920 1_555
Ho8_3 In3_7 3.124522 1_555
Ho8_3 In3_6 3.124522 1_555
Ho8_3 In4_3 3.253233 1_555
Ho8_3 In4_2 3.253233 1_555
Ho8_3 In2_2 3.391282 1_555
Ho8_3 In2_3 3.391282 1_555
Ho8_4 Ni2_5 2.716920 1_554
Ho8_4 Ni2_4 2.716920 1_555
Ho8_4 In3_0 3.124522 1_655
Ho8_4 In3_1 3.124522 1_654
Ho8_4 In4_4 3.253233 1_555
Ho8_4 In4_5 3.253233 1_554
Ho8_4 In2_4 3.391282 1_555
Ho8_4 In2_5 3.391282 1_554
Ho8_5 Ni2_4 2.716920 1_555
Ho8_5 Ni2_5 2.716920 1_555
Ho8_5 In3_1 3.124522 1_655
Ho8_5 In3_0 3.124522 1_655
Ho8_5 In4_4 3.253233 1_555
Ho8_5 In4_5 3.253233 1_555
Ho8_5 In2_4 3.391282 1_555
Ho8_5 In2_5 3.391282 1_555
Ho8_6 Ni2_6 2.716920 1_555
Ho8_6 Ni2_7 2.716920 1_554
Ho8_6 In3_3 3.124522 1_654
Ho8_6 In3_2 3.124522 1_655
Ho8_6 In4_7 3.253233 1_554
Ho8_6 In4_6 3.253233 1_555
Ho8_6 In2_7 3.391282 1_554
Ho8_6 In2_6 3.391282 1_555
Ho8_7 Ni2_6 2.716920 1_555
Ho8_7 Ni2_7 2.716920 1_555
Ho8_7 In3_3 3.124522 1_655
Ho8_7 In3_2 3.124522 1_655
Ho8_7 In4_6 3.253233 1_555
Ho8_7 In4_7 3.253233 1_555
Ho8_7 In2_7 3.391282 1_555
Ho8_7 In2_6 3.391282 1_555
Ho9_0 Ni3_0 2.716920 1_555
Ho9_0 Ni3_1 2.716920 1_554
Ho9_0 In2_4 3.124522 1_455
Ho9_0 In2_5 3.124522 1_454
Ho9_0 In5_0 3.253233 1_555
Ho9_0 In5_1 3.253233 1_554
Ho9_0 In3_0 3.391282 1_555
Ho9_0 In3_1 3.391282 1_554
Ho9_1 Ni3_0 2.716920 1_555
Ho9_1 Ni3_1 2.716920 1_555
Ho9_1 In2_4 3.124522 1_455
Ho9_1 In2_5 3.124522 1_455
Ho9_1 In5_0 3.253233 1_555
Ho9_1 In5_1 3.253233 1_555
Ho9_1 In3_1 3.391282 1_555
Ho9_1 In3_0 3.391282 1_555
Ho9_2 Ni3_2 2.716920 1_555
Ho9_2 Ni3_3 2.716920 1_554
Ho9_2 In2_7 3.124522 1_454
Ho9_2 In2_6 3.124522 1_455
Ho9_2 In5_3 3.253233 1_554
Ho9_2 In5_2 3.253233 1_555
Ho9_2 In3_2 3.391282 1_555
Ho9_2 In3_3 3.391282 1_554
Ho9_3 Ni3_3 2.716920 1_555
Ho9_3 Ni3_2 2.716920 1_555
Ho9_3 In2_6 3.124522 1_455
Ho9_3 In2_7 3.124522 1_455
Ho9_3 In5_2 3.253233 1_555
Ho9_3 In5_3 3.253233 1_555
Ho9_3 In3_2 3.391282 1_555
Ho9_3 In3_3 3.391282 1_555
Ho9_4 Ni3_4 2.716920 1_555
Ho9_4 Ni3_5 2.716920 1_554
Ho9_4 In2_0 3.124522 1_555
Ho9_4 In2_1 3.124522 1_554
Ho9_4 In5_4 3.253233 1_555
Ho9_4 In5_5 3.253233 1_554
Ho9_4 In3_5 3.391282 1_554
Ho9_4 In3_4 3.391282 1_555
Ho9_5 Ni3_4 2.716920 1_555
Ho9_5 Ni3_5 2.716920 1_555
Ho9_5 In2_1 3.124522 1_555
Ho9_5 In2_0 3.124522 1_555
Ho9_5 In5_4 3.253233 1_555
Ho9_5 In5_5 3.253233 1_555
Ho9_5 In3_4 3.391282 1_555
Ho9_5 In3_5 3.391282 1_555
Ho9_6 Ni3_7 2.716920 1_554
Ho9_6 Ni3_6 2.716920 1_555
Ho9_6 In2_3 3.124522 1_554
Ho9_6 In2_2 3.124522 1_555
Ho9_6 In5_6 3.253233 1_555
Ho9_6 In5_7 3.253233 1_554
Ho9_6 In3_7 3.391282 1_554
Ho9_6 In3_6 3.391282 1_555
Ho9_7 Ni3_7 2.716920 1_555
Ho9_7 Ni3_6 2.716920 1_555
Ho9_7 In2_2 3.124522 1_555
Ho9_7 In2_3 3.124522 1_555
Ho9_7 In5_6 3.253233 1_555
Ho9_7 In5_7 3.253233 1_555
Ho9_7 In3_7 3.391282 1_555
Ho9_7 In3_6 3.391282 1_555
In0_0 Ni1_0 2.889417 1_555
In0_0 In7_4 3.231517 1_555
In0_1 Ni1_1 2.889417 1_555
In0_1 In7_5 3.231517 1_555
In0_2 Ni1_2 2.889417 1_555
In0_2 In7_6 3.231517 1_555
In0_3 Ni1_3 2.889417 1_555
In0_3 In7_7 3.231517 1_555
In0_4 Ni1_4 2.889417 1_555
In0_4 In7_0 3.231517 1_655
In0_5 Ni1_5 2.889417 1_555
In0_5 In7_1 3.231517 1_655
In0_6 Ni1_6 2.889417 1_555
In0_6 In7_2 3.231517 1_655
In0_7 Ni1_7 2.889417 1_555
In0_7 In7_3 3.231517 1_655
In1_0 Ni0_0 2.889417 1_555
In1_0 In6_4 3.231517 1_455
In1_1 Ni0_1 2.889417 1_555
In1_1 In6_5 3.231517 1_455
In1_2 Ni0_2 2.889417 1_555
In1_2 In6_6 3.231517 1_455
In1_3 Ni0_3 2.889417 1_555
In1_3 In6_7 3.231517 1_455
In1_4 Ni0_4 2.889417 1_555
In1_4 In6_0 3.231517 1_555
In1_5 Ni0_5 2.889417 1_555
In1_5 In6_1 3.231517 1_555
In1_6 Ni0_6 2.889417 1_555
In1_6 In6_2 3.231517 1_555
In1_7 Ni0_7 2.889417 1_555
In1_7 In6_3 3.231517 1_555
In2_0 Ni3_4 2.889417 1_555
In2_0 In5_0 3.231517 1_555
In2_1 Ni3_5 2.889417 1_555
In2_1 In5_1 3.231517 1_555
In2_2 Ni3_6 2.889417 1_555
In2_2 In5_2 3.231517 1_555
In2_3 Ni3_7 2.889417 1_555
In2_3 In5_3 3.231517 1_555
In2_4 Ni3_0 2.889417 1_655
In2_4 In5_4 3.231517 1_555
In2_5 Ni3_1 2.889417 1_655
In2_5 In5_5 3.231517 1_555
In2_6 Ni3_2 2.889417 1_655
In2_6 In5_6 3.231517 1_555
In2_7 Ni3_3 2.889417 1_655
In2_7 In5_7 3.231517 1_555
In3_0 Ni2_4 2.889417 1_455
In3_0 In4_0 3.231517 1_555
In3_1 Ni2_5 2.889417 1_455
In3_1 In4_1 3.231517 1_555
In3_2 Ni2_6 2.889417 1_455
In3_2 In4_2 3.231517 1_555
In3_3 Ni2_7 2.889417 1_455
In3_3 In4_3 3.231517 1_555
In3_4 Ni2_0 2.889417 1_555
In3_4 In4_4 3.231517 1_555
In3_5 Ni2_1 2.889417 1_555
In3_5 In4_5 3.231517 1_555
In3_6 Ni2_2 2.889417 1_555
In3_6 In4_6 3.231517 1_555
In3_7 Ni2_3 2.889417 1_555
In3_7 In4_7 3.231517 1_555
In4_0 Ni1_0 2.815589 1_555
In4_0 Ni2_0 3.252541 1_555
In4_1 Ni1_1 2.815589 1_555
In4_1 Ni2_1 3.252541 1_555
In4_2 Ni1_2 2.815589 1_555
In4_2 Ni2_2 3.252541 1_555
In4_3 Ni1_3 2.815589 1_555
In4_3 Ni2_3 3.252541 1_555
In4_4 Ni1_4 2.815589 1_555
In4_4 Ni2_4 3.252541 1_555
In4_5 Ni1_5 2.815589 1_555
In4_5 Ni2_5 3.252541 1_555
In4_6 Ni1_6 2.815589 1_555
In4_6 Ni2_6 3.252541 1_555
In4_7 Ni1_7 2.815589 1_555
In4_7 Ni2_7 3.252541 1_555
In5_0 Ni0_0 2.815589 1_555
In5_0 Ni3_0 3.252541 1_555
In5_1 Ni0_1 2.815589 1_555
In5_1 Ni3_1 3.252541 1_555
In5_2 Ni0_2 2.815589 1_555
In5_2 Ni3_2 3.252541 1_555
In5_3 Ni0_3 2.815589 1_555
In5_3 Ni3_3 3.252541 1_555
In5_4 Ni0_4 2.815589 1_555
In5_4 Ni3_4 3.252541 1_555
In5_5 Ni0_5 2.815589 1_555
In5_5 Ni3_5 3.252541 1_555
In5_6 Ni0_6 2.815589 1_555
In5_6 Ni3_6 3.252541 1_555
In5_7 Ni0_7 2.815589 1_555
In5_7 Ni3_7 3.252541 1_555
In6_0 Ni3_4 2.815589 1_555
In6_0 Ni0_0 3.252541 1_555
In6_1 Ni3_5 2.815589 1_555
In6_1 Ni0_1 3.252541 1_555
In6_2 Ni3_6 2.815589 1_555
In6_2 Ni0_2 3.252541 1_555
In6_3 Ni3_7 2.815589 1_555
In6_3 Ni0_3 3.252541 1_555
In6_4 Ni3_0 2.815589 1_655
In6_4 Ni0_4 3.252541 1_555
In6_5 Ni3_1 2.815589 1_655
In6_5 Ni0_5 3.252541 1_555
In6_6 Ni3_2 2.815589 1_655
In6_6 Ni0_6 3.252541 1_555
In6_7 Ni3_3 2.815589 1_655
In6_7 Ni0_7 3.252541 1_555
In7_0 Ni2_4 2.815589 1_455
In7_0 Ni1_0 3.252541 1_555
In7_1 Ni2_5 2.815589 1_455
In7_1 Ni1_1 3.252541 1_555
In7_2 Ni2_6 2.815589 1_455
In7_2 Ni1_2 3.252541 1_555
In7_3 Ni2_7 2.815589 1_455
In7_3 Ni1_3 3.252541 1_555
In7_4 Ni2_0 2.815589 1_555
In7_4 Ni1_4 3.252541 1_555
In7_5 Ni2_1 2.815589 1_555
In7_5 Ni1_5 3.252541 1_555
In7_6 Ni2_2 2.815589 1_555
In7_6 Ni1_6 3.252541 1_555
In7_7 Ni2_3 2.815589 1_555
In7_7 Ni1_7 3.252541 1_555
