# generated using pymatgen
data_Ba2YCu3(PbO4)2
_symmetry_space_group_name_H-M   'P 1'
_cell_length_a   3.87468800
_cell_length_b   3.92132600
_cell_length_c   16.54793932
_cell_angle_alpha   88.91019559
_cell_angle_beta   90.00000000
_cell_angle_gamma   90.00000000
_symmetry_Int_Tables_number   1
_chemical_formula_structural   Ba2YCu3(PbO4)2
_chemical_formula_sum   'Ba2 Y1 Cu3 Pb2 O8'
_cell_volume   251.38249983
_cell_formula_units_Z   1
loop_
 _symmetry_equiv_pos_site_id
 _symmetry_equiv_pos_as_xyz
  1  'x, y, z'
loop_
 _atom_site_type_symbol
 _atom_site_label
 _atom_site_symmetry_multiplicity
 _atom_site_fract_x
 _atom_site_fract_y
 _atom_site_fract_z
 _atom_site_occupancy
  Ba  Ba0  1  0.00000000  0.98897000  0.22330400  1
  Ba  Ba1  1  0.00000000  0.01103000  0.77669600  1
  Y  Y0  1  0.00000000  0.00000000  0.00000000  1
  Cu  Cu0  1  0.50000000  0.49837900  0.09797600  1
  Cu  Cu1  1  0.50000000  0.50162100  0.90202400  1
  Cu  Cu2  1  0.00000000  0.00000000  0.50000000  1
  Pb  Pb0  1  0.50000000  0.49124700  0.39172700  1
  Pb  Pb1  1  0.50000000  0.50875300  0.60827300  1
  O  O0  1  0.50000000  0.48796600  0.25823000  1
  O  O1  1  0.50000000  0.51203400  0.74177000  1
  O  O2  1  0.00000000  0.87462300  0.39239000  1
  O  O3  1  0.00000000  0.12537700  0.60761000  1
  O  O4  1  0.00000000  0.49819300  0.08702600  1
  O  O5  1  0.50000000  0.00047700  0.91209300  1
  O  O6  1  0.00000000  0.50180700  0.91297400  1
  O  O7  1  0.50000000  0.99952300  0.08790700  1
loop_
_geom_bond_atom_site_label_1
_geom_bond_atom_site_label_2
_geom_bond_distance
_geom_bond_site_symmetry_2
Ba0 O0 2.811369 1_555
Ba0 O0 2.811369 1_455
Ba0 O0 2.821192 1_465
Ba0 O0 2.821192 1_565
Ba0 O2 2.825292 1_555
Ba0 O7 2.961674 1_455
Ba0 O7 2.961674 1_555
Ba0 O4 2.983555 1_565
Ba0 O4 2.992381 1_555
Ba1 O1 2.811369 1_555
Ba1 O1 2.811369 1_455
Ba1 O1 2.821192 1_445
Ba1 O1 2.821192 1_545
Ba1 O3 2.825292 1_555
Ba1 O5 2.961674 1_455
Ba1 O5 2.961674 1_555
Ba1 O6 2.983555 1_545
Ba1 O6 2.992381 1_555
Cu0 O4 1.945801 1_555
Cu0 O4 1.945801 1_655
Cu0 O7 1.966415 1_545
Cu0 O7 1.969040 1_555
Cu0 O0 2.651411 1_555
Cu1 O6 1.945801 1_555
Cu1 O6 1.945801 1_655
Cu1 O5 1.966415 1_565
Cu1 O5 1.969040 1_555
Cu1 O1 2.651411 1_555
Cu2 O2 1.856339 1_545
Cu2 O3 1.856339 1_555
O0 Pb0 2.209382 1_555
O1 Pb1 2.209382 1_555
O2 Pb0 2.452364 1_555
O2 Pb0 2.452364 1_455
O3 Pb1 2.452364 1_555
O3 Pb1 2.452364 1_455
O4 Y0 2.416223 1_565
O4 Y0 2.448953 1_555
O5 Y0 2.422663 1_556
O5 Y0 2.422663 1_656
O6 Y0 2.416223 1_556
O6 Y0 2.448953 1_566
O7 Y0 2.422663 1_565
O7 Y0 2.422663 1_665
