# generated using pymatgen
data_Ba2YTlCo2O7
_symmetry_space_group_name_H-M   'P 1'
_cell_length_a   3.95918291
_cell_length_b   7.84507137
_cell_length_c   12.76175935
_cell_angle_alpha   90.00718841
_cell_angle_beta   89.99461798
_cell_angle_gamma   89.50915361
_symmetry_Int_Tables_number   1
_chemical_formula_structural   Ba2YTlCo2O7
_chemical_formula_sum   'Ba4 Y2 Tl2 Co4 O14'
_cell_volume   396.36662028
_cell_formula_units_Z   2
loop_
 _symmetry_equiv_pos_site_id
 _symmetry_equiv_pos_as_xyz
  1  'x, y, z'
loop_
 _atom_site_type_symbol
 _atom_site_label
 _atom_site_symmetry_multiplicity
 _atom_site_fract_x
 _atom_site_fract_y
 _atom_site_fract_z
 _atom_site_occupancy
  Ba  Ba0  1  0.50165900  0.25510000  0.20651700  1
  Ba  Ba1  1  0.50289300  0.74740500  0.20551800  1
  Ba  Ba2  1  0.49939800  0.24643800  0.79295500  1
  Ba  Ba3  1  0.50218700  0.75554600  0.79232500  1
  Y  Y0  1  0.50128900  0.25584200  0.50215600  1
  Y  Y1  1  0.50392400  0.74697000  0.50237900  1
  Tl  Tl0  1  0.03513100  0.02167900  0.00186200  1
  Tl  Tl1  1  0.04481100  0.51776300  0.99434900  1
  Co  Co0  1  0.00241700  0.50144600  0.37345600  1
  Co  Co1  1  0.00356300  0.00148500  0.62408100  1
  Co  Co2  1  0.00165000  0.00127000  0.37538100  1
  Co  Co3  1  0.99725100  0.50048700  0.64260800  1
  O  O0  1  0.44008100  0.23217200  0.99927700  1
  O  O1  1  0.46157800  0.71702300  0.99735900  1
  O  O2  1  0.99333600  0.99610500  0.16585000  1
  O  O3  1  0.99115200  0.49625700  0.16132400  1
  O  O4  1  0.99209300  0.99687400  0.83841600  1
  O  O5  1  0.99453400  0.49639300  0.82262700  1
  O  O6  1  0.00350800  0.25616200  0.38558000  1
  O  O7  1  0.00308900  0.74664700  0.38625100  1
  O  O8  1  0.50248100  0.50195800  0.38913900  1
  O  O9  1  0.50234900  0.00158600  0.38686600  1
  O  O10  1  0.50514300  0.50150000  0.61610500  1
  O  O11  1  0.50430000  0.00243200  0.61323700  1
  O  O12  1  0.00444000  0.24771700  0.61157500  1
  O  O13  1  0.00573700  0.75573900  0.61281000  1
loop_
_geom_bond_atom_site_label_1
_geom_bond_atom_site_label_2
_geom_bond_distance
_geom_bond_site_symmetry_2
Ba0 O0 2.662185 1_554
Ba0 O3 2.780394 1_555
Ba0 O3 2.816395 1_455
Ba0 O2 2.849364 1_545
Ba0 O2 2.918565 1_445
Ba0 O6 3.018400 1_555
Ba0 O6 3.028361 1_655
Ba0 O8 3.030029 1_555
Ba0 O9 3.041999 1_555
Ba1 O1 2.672268 1_554
Ba1 O3 2.805571 1_555
Ba1 O2 2.810396 1_555
Ba1 O2 2.840064 1_455
Ba1 O3 2.893680 1_455
Ba1 O8 3.033168 1_555
Ba1 O7 3.038898 1_555
Ba1 O7 3.040125 1_655
Ba1 O9 3.054694 1_565
Ba2 O0 2.645929 1_555
Ba2 O5 2.810214 1_555
Ba2 O4 2.812460 1_545
Ba2 O5 2.813625 1_455
Ba2 O4 2.875991 1_445
Ba2 O11 2.987170 1_555
Ba2 O10 3.016623 1_555
Ba2 O12 3.032941 1_555
Ba2 O12 3.058719 1_655
Ba3 O1 2.639072 1_555
Ba3 O4 2.784839 1_555
Ba3 O4 2.818318 1_455
Ba3 O5 2.831097 1_555
Ba3 O5 2.897008 1_455
Ba3 O11 2.996032 1_565
Ba3 O10 3.004687 1_555
Ba3 O13 3.018688 1_555
Ba3 O13 3.036803 1_655
Co0 O6 1.930468 1_555
Co0 O7 1.930541 1_555
Co0 O8 1.989382 1_455
Co0 O8 1.989992 1_555
Co0 O3 2.707856 1_455
Co1 O13 1.933181 1_545
Co1 O12 1.938342 1_555
Co1 O11 1.981475 1_455
Co1 O11 1.987398 1_555
Co1 O4 2.735913 1_445
Co2 O9 1.982217 1_455
Co2 O9 1.987806 1_555
Co2 O7 2.002323 1_545
Co2 O6 2.003938 1_555
Co2 O2 2.674496 1_445
Co3 O10 1.977465 1_555
Co3 O12 2.022071 1_655
Co3 O13 2.038864 1_655
Co3 O10 2.039135 1_655
Co3 O5 2.297613 1_555
O0 Tl0 2.311673 1_556
O0 Tl1 2.722637 1_555
O0 Tl0 2.865603 1_656
O1 Tl1 2.282975 1_555
O1 Tl1 2.777640 1_655
O2 Tl0 2.109017 1_665
O3 Tl1 2.148239 1_654
O4 Tl0 2.101961 1_666
O5 Tl1 2.207001 1_655
O6 Y0 2.469382 1_555
O6 Y0 2.483239 1_455
O7 Y1 2.470099 1_455
O7 Y1 2.475650 1_555
O8 Y1 2.404697 1_555
O8 Y0 2.410202 1_555
O9 Y0 2.478412 1_555
O9 Y1 2.482662 1_545
O10 Y1 2.411514 1_555
O10 Y0 2.414295 1_555
O11 Y0 2.441767 1_555
O11 Y1 2.453024 1_545
O12 Y0 2.413532 1_555
O12 Y0 2.433236 1_455
O13 Y1 2.424538 1_555
O13 Y1 2.437404 1_455
