# generated using pymatgen
data_BiC8N4Cl7
_symmetry_space_group_name_H-M   'P 1'
_cell_length_a   8.57487400
_cell_length_b   9.84769300
_cell_length_c   16.14565000
_cell_angle_alpha   90.00000000
_cell_angle_beta   90.00000000
_cell_angle_gamma   90.00000000
_symmetry_Int_Tables_number   1
_chemical_formula_structural   BiC8N4Cl7
_chemical_formula_sum   'Bi2 C16 N8 Cl14'
_cell_volume   1363.38270979
_cell_formula_units_Z   2
loop_
 _symmetry_equiv_pos_site_id
 _symmetry_equiv_pos_as_xyz
  1  'x, y, z'
loop_
 _atom_site_type_symbol
 _atom_site_label
 _atom_site_symmetry_multiplicity
 _atom_site_fract_x
 _atom_site_fract_y
 _atom_site_fract_z
 _atom_site_occupancy
  Bi  Bi0  1  0.84986300  0.00000000  0.50000000  1
  Bi  Bi1  1  0.15013700  0.50000000  0.00000000  1
  C  C0  1  0.11532200  0.31357600  0.63493900  1
  C  C1  1  0.11532200  0.68642400  0.36506100  1
  C  C2  1  0.88467800  0.81357600  0.86506100  1
  C  C3  1  0.88467800  0.18642400  0.13493900  1
  C  C4  1  0.86981200  0.41191500  0.69625600  1
  C  C5  1  0.86981200  0.58808500  0.30374400  1
  C  C6  1  0.13018800  0.91191500  0.80374400  1
  C  C7  1  0.13018800  0.08808500  0.19625600  1
  C  C8  1  0.56649900  0.18678400  0.95748500  1
  C  C9  1  0.56649900  0.81321600  0.04251500  1
  C  C10  1  0.43350100  0.68678400  0.54251500  1
  C  C11  1  0.43350100  0.31321600  0.45748500  1
  C  C12  1  0.36163300  0.22537500  0.85054400  1
  C  C13  1  0.36163300  0.77462500  0.14945600  1
  C  C14  1  0.63836700  0.72537500  0.64945600  1
  C  C15  1  0.63836700  0.27462500  0.35054400  1
  N  N0  1  0.98218600  0.35070400  0.67117100  1
  N  N1  1  0.98218600  0.64929600  0.32882900  1
  N  N2  1  0.01781400  0.85070400  0.82882900  1
  N  N3  1  0.01781400  0.14929600  0.17117100  1
  N  N4  1  0.45112800  0.20147500  0.91166800  1
  N  N5  1  0.45112800  0.79852500  0.08833200  1
  N  N6  1  0.54887200  0.70147500  0.58833200  1
  N  N7  1  0.54887200  0.29852500  0.41166800  1
  Cl  Cl0  1  0.84197500  0.77641000  0.60583600  1
  Cl  Cl1  1  0.84197500  0.22359000  0.39416400  1
  Cl  Cl2  1  0.15802500  0.27641000  0.89416400  1
  Cl  Cl3  1  0.15802500  0.72359000  0.10583600  1
  Cl  Cl4  1  0.15389900  0.14391900  0.65134800  1
  Cl  Cl5  1  0.15389900  0.85608100  0.34865200  1
  Cl  Cl6  1  0.84610100  0.64391900  0.84865200  1
  Cl  Cl7  1  0.84610100  0.35608100  0.15134800  1
  Cl  Cl8  1  0.66763700  0.89313400  0.40303000  1
  Cl  Cl9  1  0.66763700  0.10686600  0.59697000  1
  Cl  Cl10  1  0.33236300  0.39313400  0.09697000  1
  Cl  Cl11  1  0.33236300  0.60686600  0.90303000  1
  Cl  Cl12  1  0.39585700  0.50000000  0.50000000  1
  Cl  Cl13  1  0.60414300  0.00000000  0.00000000  1
loop_
_geom_bond_atom_site_label_1
_geom_bond_atom_site_label_2
_geom_bond_distance
_geom_bond_site_symmetry_2
Bi0 Cl8 2.449563 1_545
Bi0 Cl9 2.449563 1_555
Bi0 Cl1 2.787950 1_555
Bi0 Cl0 2.787950 1_545
Bi1 Cl11 2.449563 1_554
Bi1 Cl10 2.449563 1_555
Bi1 Cl3 2.787950 1_555
Bi1 Cl2 2.787950 1_554
C0 N0 1.333867 1_455
C0 Cl4 1.723645 1_555
C1 N1 1.333867 1_455
C1 Cl5 1.723645 1_555
C2 N2 1.333867 1_655
C2 Cl6 1.723645 1_555
C3 N3 1.333867 1_655
C3 Cl7 1.723645 1_555
C4 N0 1.206607 1_555
C5 N1 1.206607 1_555
C6 N2 1.206607 1_555
C7 N3 1.206607 1_555
C8 N4 1.243725 1_555
C8 Cl13 1.989660 1_556
C9 N5 1.243725 1_555
C9 Cl13 1.989660 1_565
C10 N6 1.243725 1_555
C10 Cl12 1.989660 1_555
C11 N7 1.243725 1_555
C11 Cl12 1.989660 1_555
C12 N4 1.272107 1_555
C12 Cl2 1.948537 1_555
C13 N5 1.272107 1_555
C13 Cl3 1.948537 1_555
C14 N6 1.272107 1_555
C14 Cl0 1.948537 1_555
C15 N7 1.272107 1_555
C15 Cl1 1.948537 1_555
