# generated using pymatgen
data_Cu7S2O21
_symmetry_space_group_name_H-M   'P 1'
_cell_length_a   7.49563400
_cell_length_b   7.93938790
_cell_length_c   7.93938776
_cell_angle_alpha   119.99999857
_cell_angle_beta   90.00000000
_cell_angle_gamma   90.00000000
_symmetry_Int_Tables_number   1
_chemical_formula_structural   Cu7S2O21
_chemical_formula_sum   'Cu7 S2 O21'
_cell_volume   409.17872499
_cell_formula_units_Z   1
loop_
 _symmetry_equiv_pos_site_id
 _symmetry_equiv_pos_as_xyz
  1  'x, y, z'
loop_
 _atom_site_type_symbol
 _atom_site_label
 _atom_site_symmetry_multiplicity
 _atom_site_fract_x
 _atom_site_fract_y
 _atom_site_fract_z
 _atom_site_occupancy
  Cu  Cu0  1  0.98788800  0.86858500  0.29350500  1
  Cu  Cu1  1  0.01211200  0.13141500  0.70649500  1
  Cu  Cu2  1  0.98788800  0.42491900  0.13141500  1
  Cu  Cu3  1  0.01211200  0.57508100  0.86858500  1
  Cu  Cu4  1  0.98788800  0.70649500  0.57508100  1
  Cu  Cu5  1  0.01211200  0.29350500  0.42491900  1
  Cu  Cu6  1  0.00000000  0.00000000  0.00000000  1
  S  S0  1  0.58128600  0.66666700  0.33333300  1
  S  S1  1  0.41871400  0.33333300  0.66666700  1
  O  O0  1  0.52037600  0.82103500  0.29626600  1
  O  O1  1  0.47962400  0.17896500  0.70373400  1
  O  O2  1  0.52037600  0.47523100  0.17896500  1
  O  O3  1  0.47962400  0.52476900  0.82103500  1
  O  O4  1  0.52037600  0.70373400  0.52476900  1
  O  O5  1  0.47962400  0.29626600  0.47523100  1
  O  O6  1  0.90374300  0.51346700  0.63127300  1
  O  O7  1  0.09625700  0.48653300  0.36872700  1
  O  O8  1  0.90374300  0.11780700  0.48653300  1
  O  O9  1  0.09625700  0.88219300  0.51346700  1
  O  O10  1  0.90374300  0.36872700  0.88219300  1
  O  O11  1  0.09625700  0.63127300  0.11780700  1
  O  O12  1  0.78653300  0.66666700  0.33333300  1
  O  O13  1  0.21346700  0.33333300  0.66666700  1
  O  O14  1  0.50000000  0.00000000  0.00000000  1
  O  O15  1  0.86758100  0.85495800  0.08452900  1
  O  O16  1  0.13241900  0.14504200  0.91547100  1
  O  O17  1  0.86758100  0.22957100  0.14504200  1
  O  O18  1  0.13241900  0.77042900  0.85495800  1
  O  O19  1  0.86758100  0.91547100  0.77042900  1
  O  O20  1  0.13241900  0.08452900  0.22957100  1
loop_
_geom_bond_atom_site_label_1
_geom_bond_atom_site_label_2
_geom_bond_distance
_geom_bond_site_symmetry_2
Cu0 O15 1.843409 1_555
Cu0 O11 1.878119 1_655
Cu0 O9 1.879522 1_655
Cu0 O8 1.905050 1_565
Cu0 O20 2.289311 1_665
Cu0 O12 2.335549 1_555
Cu1 O16 1.843409 1_555
Cu1 O10 1.878119 1_455
Cu1 O8 1.879522 1_455
Cu1 O9 1.905050 1_545
Cu1 O19 2.289311 1_445
Cu1 O13 2.335549 1_555
Cu2 O17 1.843402 1_555
Cu2 O7 1.878119 1_655
Cu2 O11 1.879523 1_655
Cu2 O10 1.905054 1_554
Cu2 O16 2.289306 1_654
Cu2 O12 2.335557 1_555
Cu3 O18 1.843402 1_555
Cu3 O6 1.878119 1_455
Cu3 O10 1.879523 1_455
Cu3 O11 1.905054 1_556
Cu3 O15 2.289306 1_456
Cu3 O13 2.335557 1_555
Cu4 O19 1.843406 1_555
Cu4 O9 1.878119 1_655
Cu4 O7 1.879523 1_655
Cu4 O6 1.905039 1_555
Cu4 O18 2.289304 1_655
Cu4 O12 2.335561 1_555
Cu5 O20 1.843406 1_555
Cu5 O8 1.878119 1_455
Cu5 O6 1.879523 1_455
Cu5 O7 1.905039 1_555
Cu5 O17 2.289304 1_455
Cu5 O13 2.335561 1_555
Cu6 O15 1.880010 1_445
Cu6 O16 1.880010 1_554
Cu6 O20 1.880010 1_555
Cu6 O19 1.880010 1_444
Cu6 O18 1.880010 1_544
Cu6 O17 1.880010 1_455
O0 S0 1.468943 1_555
O1 S1 1.468943 1_555
O2 S0 1.468948 1_555
O3 S1 1.468948 1_555
O4 S0 1.468951 1_555
O5 S1 1.468951 1_555
O12 S0 1.538456 1_555
O13 S1 1.538456 1_555
