# generated using pymatgen
data_Li9Mn2Co5O16
_symmetry_space_group_name_H-M   'P 1'
_cell_length_a   11.35697100
_cell_length_b   5.20071700
_cell_length_c   5.20835068
_cell_angle_alpha   67.71723646
_cell_angle_beta   90.00000000
_cell_angle_gamma   90.00000000
_symmetry_Int_Tables_number   1
_chemical_formula_structural   Li9Mn2Co5O16
_chemical_formula_sum   'Li9 Mn2 Co5 O16'
_cell_volume   284.65558123
_cell_formula_units_Z   1
loop_
 _symmetry_equiv_pos_site_id
 _symmetry_equiv_pos_as_xyz
  1  'x, y, z'
loop_
 _atom_site_type_symbol
 _atom_site_label
 _atom_site_symmetry_multiplicity
 _atom_site_fract_x
 _atom_site_fract_y
 _atom_site_fract_z
 _atom_site_occupancy
  Li  Li0  1  0.25332500  0.50000000  0.00000000  1
  Li  Li1  1  0.37696400  0.50000000  0.50000000  1
  Li  Li2  1  0.50000000  0.50000000  0.00000000  1
  Li  Li3  1  0.62303600  0.50000000  0.50000000  1
  Li  Li4  1  0.74667500  0.50000000  0.00000000  1
  Li  Li5  1  0.87583500  0.50000000  0.50000000  1
  Li  Li6  1  0.00000000  0.50000000  0.00000000  1
  Li  Li7  1  0.12416500  0.50000000  0.50000000  1
  Li  Li8  1  0.50000000  0.00000000  0.50000000  1
  Mn  Mn0  1  0.12792600  0.00000000  0.00000000  1
  Mn  Mn1  1  0.87207400  0.00000000  0.00000000  1
  Co  Co0  1  0.25157400  0.00000000  0.50000000  1
  Co  Co1  1  0.37605900  0.00000000  0.00000000  1
  Co  Co2  1  0.62394100  0.00000000  0.00000000  1
  Co  Co3  1  0.74842600  0.00000000  0.50000000  1
  Co  Co4  1  0.00000000  0.00000000  0.50000000  1
  O  O0  1  0.25469600  0.23579700  0.77344800  1
  O  O1  1  0.36910600  0.20605300  0.24251100  1
  O  O2  1  0.50000000  0.23183600  0.78789800  1
  O  O3  1  0.63089400  0.20605300  0.24251100  1
  O  O4  1  0.74530400  0.23579700  0.77344800  1
  O  O5  1  0.87472400  0.22678700  0.27795700  1
  O  O6  1  0.00000000  0.23377300  0.77317700  1
  O  O7  1  0.12527600  0.22678700  0.27795700  1
  O  O8  1  0.25469600  0.76420300  0.22655200  1
  O  O9  1  0.36910600  0.79394700  0.75748900  1
  O  O10  1  0.50000000  0.76816400  0.21210200  1
  O  O11  1  0.63089400  0.79394700  0.75748900  1
  O  O12  1  0.74530400  0.76420300  0.22655200  1
  O  O13  1  0.87472400  0.77321300  0.72204300  1
  O  O14  1  0.00000000  0.76622700  0.22682300  1
  O  O15  1  0.12527600  0.77321300  0.72204300  1
loop_
_geom_bond_atom_site_label_1
_geom_bond_atom_site_label_2
_geom_bond_distance
_geom_bond_site_symmetry_2
Li0 O9 2.048683 1_554
Li0 O1 2.048683 1_555
Li0 O8 2.123698 1_555
Li0 O0 2.123698 1_554
Li0 O15 2.160941 1_554
Li0 O7 2.160941 1_555
Li1 O8 2.088187 1_555
Li1 O0 2.088187 1_555
Li1 O10 2.135427 1_555
Li1 O2 2.135427 1_555
Li1 O9 2.387109 1_555
Li1 O1 2.387109 1_555
Li2 O10 2.081772 1_555
Li2 O2 2.081772 1_554
Li2 O3 2.162856 1_555
Li2 O11 2.162856 1_554
Li2 O1 2.162856 1_555
Li2 O9 2.162856 1_554
Li3 O4 2.088187 1_555
Li3 O12 2.088187 1_555
Li3 O10 2.135427 1_555
Li3 O2 2.135427 1_555
Li3 O11 2.387109 1_555
Li3 O3 2.387109 1_555
Li4 O3 2.048683 1_555
Li4 O11 2.048683 1_554
Li4 O12 2.123698 1_555
Li4 O4 2.123698 1_554
Li4 O13 2.160941 1_554
Li4 O5 2.160941 1_555
Li5 O6 2.106170 1_655
Li5 O14 2.106170 1_655
Li5 O5 2.145397 1_555
Li5 O13 2.145397 1_555
Li5 O12 2.151732 1_555
Li5 O4 2.151732 1_555
Li6 O6 2.133804 1_554
Li6 O14 2.133804 1_555
Li6 O5 2.139874 1_455
Li6 O15 2.139874 1_554
Li6 O7 2.139874 1_555
Li6 O13 2.139874 1_454
Li7 O14 2.106170 1_555
Li7 O6 2.106170 1_555
Li7 O15 2.145397 1_555
Li7 O7 2.145397 1_555
Li7 O8 2.151732 1_555
Li7 O0 2.151732 1_555
Li8 O3 2.016655 1_555
Li8 O11 2.016655 1_545
Li8 O9 2.016655 1_545
Li8 O1 2.016655 1_555
Li8 O10 2.252382 1_545
Li8 O2 2.252382 1_555
Mn0 O0 1.967642 1_554
Mn0 O8 1.967642 1_545
Mn0 O14 1.973660 1_545
Mn0 O6 1.973660 1_554
Mn0 O15 2.186947 1_544
Mn0 O7 2.186947 1_555
Mn1 O4 1.967642 1_554
Mn1 O12 1.967642 1_545
Mn1 O6 1.973660 1_654
Mn1 O14 1.973660 1_645
Mn1 O13 2.186947 1_544
Mn1 O5 2.186947 1_555
Co0 O9 1.907551 1_545
Co0 O1 1.907551 1_555
Co0 O15 1.936890 1_545
Co0 O7 1.936890 1_555
Co0 O0 2.204082 1_555
Co0 O8 2.204082 1_545
Co1 O2 1.909277 1_554
Co1 O10 1.909277 1_545
Co1 O0 1.923166 1_554
Co1 O8 1.923166 1_545
Co1 O1 1.943312 1_555
Co1 O9 1.943312 1_544
Co2 O2 1.909277 1_554
Co2 O10 1.909277 1_545
Co2 O12 1.923166 1_545
Co2 O4 1.923166 1_554
Co2 O3 1.943312 1_555
Co2 O11 1.943312 1_544
Co3 O3 1.907551 1_555
Co3 O11 1.907551 1_545
Co3 O5 1.936890 1_555
Co3 O13 1.936890 1_545
Co3 O4 2.204082 1_555
Co3 O12 2.204082 1_545
Co4 O15 1.928311 1_545
Co4 O7 1.928311 1_555
Co4 O5 1.928311 1_455
Co4 O13 1.928311 1_445
Co4 O6 2.194157 1_555
Co4 O14 2.194157 1_545
