# generated using pymatgen
data_Ho6Al43V4
_symmetry_space_group_name_H-M   'P 1'
_cell_length_a   10.99906774
_cell_length_b   10.99906774
_cell_length_c   17.56453400
_cell_angle_alpha   90.00000000
_cell_angle_beta   90.00000000
_cell_angle_gamma   119.99999841
_symmetry_Int_Tables_number   1
_chemical_formula_structural   Ho6Al43V4
_chemical_formula_sum   'Ho12 Al86 V8'
_cell_volume   1840.25931155
_cell_formula_units_Z   2
loop_
 _symmetry_equiv_pos_site_id
 _symmetry_equiv_pos_as_xyz
  1  'x, y, z'
loop_
 _atom_site_type_symbol
 _atom_site_label
 _atom_site_symmetry_multiplicity
 _atom_site_fract_x
 _atom_site_fract_y
 _atom_site_fract_z
 _atom_site_occupancy
  Ho  Ho0  1  0.53032100  0.00000000  0.59588300  1
  Ho  Ho1  1  0.46967900  0.00000000  0.40411700  1
  Ho  Ho2  1  0.00000000  0.53032100  0.59588300  1
  Ho  Ho3  1  0.46967900  0.00000000  0.09588300  1
  Ho  Ho4  1  0.00000000  0.53032100  0.90411700  1
  Ho  Ho5  1  0.00000000  0.46967900  0.40411700  1
  Ho  Ho6  1  0.53032100  0.00000000  0.90411700  1
  Ho  Ho7  1  0.00000000  0.46967900  0.09588300  1
  Ho  Ho8  1  0.46967900  0.46967900  0.59588300  1
  Ho  Ho9  1  0.53032100  0.53032100  0.40411700  1
  Ho  Ho10  1  0.53032100  0.53032100  0.09588300  1
  Ho  Ho11  1  0.46967900  0.46967900  0.90411700  1
  Al  Al0  1  0.14599700  0.59762100  0.75000000  1
  Al  Al1  1  0.85400300  0.40237900  0.25000000  1
  Al  Al2  1  0.40237900  0.54837600  0.75000000  1
  Al  Al3  1  0.59762100  0.14599700  0.75000000  1
  Al  Al4  1  0.59762100  0.45162400  0.25000000  1
  Al  Al5  1  0.40237900  0.85400300  0.25000000  1
  Al  Al6  1  0.45162400  0.85400300  0.75000000  1
  Al  Al7  1  0.54837600  0.40237900  0.75000000  1
  Al  Al8  1  0.54837600  0.14599700  0.25000000  1
  Al  Al9  1  0.45162400  0.59762100  0.25000000  1
  Al  Al10  1  0.85400300  0.45162400  0.75000000  1
  Al  Al11  1  0.14599700  0.54837600  0.25000000  1
  Al  Al12  1  0.15590300  0.00000000  0.11563500  1
  Al  Al13  1  0.84409700  0.00000000  0.88436500  1
  Al  Al14  1  0.00000000  0.15590300  0.11563500  1
  Al  Al15  1  0.84409700  0.00000000  0.61563500  1
  Al  Al16  1  0.00000000  0.15590300  0.38436500  1
  Al  Al17  1  0.00000000  0.84409700  0.88436500  1
  Al  Al18  1  0.15590300  0.00000000  0.38436500  1
  Al  Al19  1  0.00000000  0.84409700  0.61563500  1
  Al  Al20  1  0.84409700  0.84409700  0.11563500  1
  Al  Al21  1  0.15590300  0.15590300  0.88436500  1
  Al  Al22  1  0.15590300  0.15590300  0.61563500  1
  Al  Al23  1  0.84409700  0.84409700  0.38436500  1
  Al  Al24  1  0.24707600  0.49415300  0.50000000  1
  Al  Al25  1  0.75292400  0.50584700  0.50000000  1
  Al  Al26  1  0.50584700  0.75292400  0.50000000  1
  Al  Al27  1  0.75292400  0.50584700  0.00000000  1
  Al  Al28  1  0.49415300  0.24707600  0.00000000  1
  Al  Al29  1  0.49415300  0.24707600  0.50000000  1
  Al  Al30  1  0.24707600  0.49415300  0.00000000  1
  Al  Al31  1  0.50584700  0.75292400  0.00000000  1
  Al  Al32  1  0.24707600  0.75292400  0.50000000  1
  Al  Al33  1  0.75292400  0.24707600  0.50000000  1
  Al  Al34  1  0.75292400  0.24707600  0.00000000  1
  Al  Al35  1  0.24707600  0.75292400  0.00000000  1
  Al  Al36  1  0.14546200  0.00000000  0.75000000  1
  Al  Al37  1  0.85453800  0.00000000  0.25000000  1
  Al  Al38  1  0.00000000  0.14546200  0.75000000  1
  Al  Al39  1  0.00000000  0.85453800  0.25000000  1
  Al  Al40  1  0.85453800  0.85453800  0.75000000  1
  Al  Al41  1  0.14546200  0.14546200  0.25000000  1
  Al  Al42  1  0.33333300  0.66666700  0.62732500  1
  Al  Al43  1  0.66666700  0.33333300  0.37267500  1
  Al  Al44  1  0.66666700  0.33333300  0.12732500  1
  Al  Al45  1  0.66666700  0.33333300  0.87267500  1
  Al  Al46  1  0.33333300  0.66666700  0.87267500  1
  Al  Al47  1  0.33333300  0.66666700  0.12732500  1
  Al  Al48  1  0.33333300  0.66666700  0.37267500  1
  Al  Al49  1  0.66666700  0.33333300  0.62732500  1
  Al  Al50  1  0.25296200  0.00000000  0.52974100  1
  Al  Al51  1  0.74703800  0.00000000  0.47025900  1
  Al  Al52  1  0.00000000  0.25296200  0.52974100  1
  Al  Al53  1  0.74703800  0.00000000  0.02974100  1
  Al  Al54  1  0.00000000  0.25296200  0.97025900  1
  Al  Al55  1  0.00000000  0.74703800  0.47025900  1
  Al  Al56  1  0.25296200  0.00000000  0.97025900  1
  Al  Al57  1  0.00000000  0.74703800  0.02974100  1
  Al  Al58  1  0.74703800  0.74703800  0.52974100  1
  Al  Al59  1  0.25296200  0.25296200  0.47025900  1
  Al  Al60  1  0.25296200  0.25296200  0.02974100  1
  Al  Al61  1  0.74703800  0.74703800  0.97025900  1
  Al  Al62  1  0.15714200  0.39167800  0.66556100  1
  Al  Al63  1  0.84285800  0.60832200  0.33443900  1
  Al  Al64  1  0.60832200  0.76546400  0.66556100  1
  Al  Al65  1  0.84285800  0.60832200  0.16556100  1
  Al  Al66  1  0.39167800  0.15714200  0.83443900  1
  Al  Al67  1  0.39167800  0.23453600  0.33443900  1
  Al  Al68  1  0.15714200  0.39167800  0.83443900  1
  Al  Al69  1  0.60832200  0.84285800  0.16556100  1
  Al  Al70  1  0.23453600  0.84285800  0.66556100  1
  Al  Al71  1  0.39167800  0.23453600  0.16556100  1
  Al  Al72  1  0.76546400  0.60832200  0.83443900  1
  Al  Al73  1  0.76546400  0.15714200  0.33443900  1
  Al  Al74  1  0.60832200  0.76546400  0.83443900  1
  Al  Al75  1  0.23453600  0.39167800  0.16556100  1
  Al  Al76  1  0.60832200  0.84285800  0.33443900  1
  Al  Al77  1  0.39167800  0.15714200  0.66556100  1
  Al  Al78  1  0.76546400  0.15714200  0.16556100  1
  Al  Al79  1  0.23453600  0.39167800  0.33443900  1
  Al  Al80  1  0.23453600  0.84285800  0.83443900  1
  Al  Al81  1  0.76546400  0.60832200  0.66556100  1
  Al  Al82  1  0.84285800  0.23453600  0.83443900  1
  Al  Al83  1  0.15714200  0.76546400  0.16556100  1
  Al  Al84  1  0.15714200  0.76546400  0.33443900  1
  Al  Al85  1  0.84285800  0.23453600  0.66556100  1
  V  V0  1  0.00000000  0.00000000  0.50000000  1
  V  V1  1  0.00000000  0.00000000  0.00000000  1
  V  V2  1  0.73018100  0.00000000  0.75000000  1
  V  V3  1  0.26981900  0.00000000  0.25000000  1
  V  V4  1  0.00000000  0.73018100  0.75000000  1
  V  V5  1  0.00000000  0.26981900  0.25000000  1
  V  V6  1  0.26981900  0.26981900  0.75000000  1
  V  V7  1  0.73018100  0.73018100  0.25000000  1
loop_
_geom_bond_atom_site_label_1
_geom_bond_atom_site_label_2
_geom_bond_distance
_geom_bond_site_symmetry_2
Ho0 Ho1 3.433687 1_555
Ho0 V2 3.487151 1_555
Ho1 V3 3.487151 1_555
Ho2 Ho5 3.433687 1_555
Ho2 V4 3.487151 1_555
Ho3 Ho6 3.433687 1_554
Ho3 V3 3.487151 1_555
Ho4 Ho7 3.433687 1_556
Ho4 V4 3.487151 1_555
Ho5 V5 3.487151 1_555
Ho6 V2 3.487151 1_555
Ho7 V5 3.487151 1_555
Ho8 Ho9 3.433687 1_555
Ho8 V6 3.487151 1_555
Ho9 V7 3.487151 1_555
Ho10 Ho11 3.433687 1_554
Ho10 V7 3.487151 1_555
Ho11 V6 3.487151 1_555
Al0 V4 2.654416 1_555
Al0 Al68 2.761056 1_555
Al0 Al62 2.761056 1_555
Al0 Al10 2.781381 1_455
Al0 Al80 2.792324 1_555
Al0 Al70 2.792324 1_555
Al0 Al46 2.810785 1_555
Al0 Al42 2.810785 1_555
Al0 Ho4 3.043971 1_555
Al0 Ho2 3.043971 1_555
Al1 V5 2.654416 1_655
Al1 Al63 2.761056 1_555
Al1 Al65 2.761056 1_555
Al1 Al11 2.781381 1_655
Al1 Al73 2.792324 1_555
Al1 Al78 2.792324 1_555
Al1 Al43 2.810785 1_555
Al1 Al44 2.810785 1_555
Al1 Ho7 3.043971 1_655
Al1 Ho5 3.043971 1_655
Al2 V6 2.654416 1_555
Al2 Al74 2.761056 1_555
Al2 Al64 2.761056 1_555
Al2 Al7 2.781381 1_555
Al2 Al68 2.792324 1_555
Al2 Al62 2.792324 1_555
Al2 Al42 2.810792 1_555
Al2 Al46 2.810792 1_555
Al2 Ho11 3.043971 1_555
Al2 Ho8 3.043971 1_555
Al3 V2 2.654416 1_555
Al3 Al66 2.761056 1_555
Al3 Al77 2.761056 1_555
Al3 Al6 2.781381 1_545
Al3 Al82 2.792324 1_555
Al3 Al85 2.792324 1_555
Al3 Al49 2.810785 1_555
Al3 Al45 2.810785 1_555
Al3 Ho6 3.043971 1_555
Al3 Ho0 3.043971 1_555
Al4 V7 2.654416 1_555
Al4 Al67 2.761056 1_555
Al4 Al71 2.761056 1_555
Al4 Al9 2.781381 1_555
Al4 Al63 2.792324 1_555
Al4 Al65 2.792324 1_555
Al4 Al43 2.810792 1_555
Al4 Al44 2.810792 1_555
Al4 Ho10 3.043971 1_555
Al4 Ho9 3.043971 1_555
Al5 V3 2.654416 1_565
Al5 Al76 2.761056 1_555
Al5 Al69 2.761056 1_555
Al5 Al8 2.781381 1_565
Al5 Al84 2.792324 1_555
Al5 Al83 2.792324 1_555
Al5 Ho3 3.043971 1_565
Al5 Ho1 3.043971 1_565
Al6 V2 2.654416 1_565
Al6 Al80 2.761056 1_555
Al6 Al70 2.761056 1_555
Al6 Al74 2.792324 1_555
Al6 Al64 2.792324 1_555
Al6 Ho6 3.043971 1_565
Al6 Ho0 3.043971 1_565
Al7 V6 2.654416 1_555
Al7 Al72 2.761056 1_555
Al7 Al81 2.761056 1_555
Al7 Al77 2.792324 1_555
Al7 Ho11 3.043971 1_555
Al7 Ho8 3.043971 1_555
Al8 V3 2.654416 1_555
Al8 Ho1 3.043971 1_555
Al8 Ho3 3.043971 1_555
Al9 V7 2.654416 1_555
Al9 Ho10 3.043971 1_555
Al9 Ho9 3.043971 1_555
Al10 V4 2.654416 1_655
Al10 Al82 2.761056 1_555
Al10 Al85 2.761056 1_555
Al10 Al72 2.792324 1_555
Al10 Al81 2.792324 1_555
Al10 Al49 2.810786 1_555
Al10 Al45 2.810786 1_555
Al10 Ho4 3.043971 1_655
Al10 Ho2 3.043971 1_655
Al11 V5 2.654416 1_555
Al11 Al84 2.761056 1_555
Al11 Al83 2.761056 1_555
Al11 Al79 2.792324 1_555
Al11 Al75 2.792324 1_555
Al11 Al48 2.810786 1_555
Al11 Al47 2.810786 1_555
Al11 Ho5 3.043971 1_555
Al11 Ho7 3.043971 1_555
Al12 V1 2.658150 1_555
Al12 V3 2.672042 1_555
Al12 Al83 2.731131 1_545
Al12 Al71 2.731131 1_555
Al12 Al56 2.767643 1_554
Al12 Al60 2.861285 1_555
Al12 Al57 2.861285 1_545
Al12 Al41 2.885591 1_555
Al12 Al39 2.885591 1_545
Al12 Al14 2.970099 1_555
Al12 Al20 2.970099 1_445
Al12 Ho3 3.468637 1_555
Al13 V1 2.658150 1_656
Al13 V2 2.672042 1_555
Al13 Al82 2.731131 1_555
Al13 Al74 2.731131 1_545
Al13 Al53 2.767643 1_556
Al13 Al61 2.861285 1_545
Al13 Al54 2.861285 1_655
Al13 Al40 2.885591 1_545
Al13 Al38 2.885591 1_655
Al13 Al17 2.970099 1_645
Al13 Al21 2.970099 1_655
Al13 Ho6 3.468637 1_555
Al14 V1 2.658150 1_555
Al14 V5 2.672042 1_555
Al14 Al78 2.731131 1_455
Al14 Al75 2.731131 1_555
Al14 Al54 2.767643 1_554
Al14 Al60 2.861285 1_555
Al14 Al53 2.861285 1_455
Al14 Al41 2.885591 1_555
Al14 Al37 2.885591 1_455
Al14 Al20 2.970099 1_445
Al14 Ho7 3.468637 1_555
Al15 V0 2.658150 1_655
Al15 V2 2.672042 1_555
Al15 Al85 2.731131 1_555
Al15 Al64 2.731131 1_545
Al15 Al51 2.767643 1_555
Al15 Al58 2.861285 1_545
Al15 Al52 2.861285 1_655
Al15 Al40 2.885591 1_545
Al15 Al38 2.885591 1_655
Al15 Al19 2.970099 1_645
Al15 Al22 2.970099 1_655
Al15 Ho0 3.468637 1_555
Al16 V0 2.658150 1_555
Al16 V5 2.672042 1_555
Al16 Al73 2.731131 1_455
Al16 Al79 2.731131 1_555
Al16 Al52 2.767643 1_555
Al16 Al59 2.861285 1_555
Al16 Al51 2.861285 1_455
Al16 Al41 2.885591 1_555
Al16 Al37 2.885591 1_455
Al16 Al18 2.970099 1_555
Al16 Al23 2.970099 1_445
Al16 Ho5 3.468637 1_555
Al17 V1 2.658150 1_566
Al17 V4 2.672042 1_555
Al17 Al80 2.731131 1_555
Al17 Al72 2.731131 1_455
Al17 Al57 2.767643 1_556
Al17 Al61 2.861285 1_455
Al17 Al56 2.861285 1_565
Al17 Al40 2.885591 1_455
Al17 Al36 2.885591 1_565
Al17 Al21 2.970099 1_565
Al17 Ho4 3.468637 1_555
Al18 V0 2.658150 1_555
Al18 V3 2.672042 1_555
Al18 Al84 2.731131 1_545
Al18 Al67 2.731131 1_555
Al18 Al50 2.767643 1_555
Al18 Al59 2.861285 1_555
Al18 Al55 2.861285 1_545
Al18 Al41 2.885591 1_555
Al18 Al39 2.885591 1_545
Al18 Al23 2.970099 1_445
Al18 Ho1 3.468637 1_555
Al19 V0 2.658150 1_565
Al19 V4 2.672042 1_555
Al19 Al70 2.731131 1_555
Al19 Al81 2.731131 1_455
Al19 Al55 2.767643 1_555
Al19 Al58 2.861285 1_455
Al19 Al50 2.861285 1_565
Al19 Al40 2.885591 1_455
Al19 Al36 2.885591 1_565
Al19 Al22 2.970099 1_565
Al19 Ho2 3.468637 1_555
Al20 V1 2.658150 1_665
Al20 V7 2.672042 1_555
Al20 Al65 2.731131 1_555
Al20 Al69 2.731131 1_555
Al20 Al61 2.767643 1_554
Al20 Al53 2.861285 1_565
Al20 Al57 2.861285 1_655
Al20 Al37 2.885591 1_565
Al20 Al39 2.885591 1_655
Al20 Ho10 3.468637 1_555
Al21 V1 2.658150 1_556
Al21 V6 2.672042 1_555
Al21 Al66 2.731131 1_555
Al21 Al68 2.731131 1_555
Al21 Al60 2.767643 1_556
Al21 Al54 2.861285 1_555
Al21 Al56 2.861285 1_555
Al21 Al36 2.885591 1_555
Al21 Al38 2.885591 1_555
Al21 Ho11 3.468637 1_555
Al22 V0 2.658150 1_555
Al22 V6 2.672042 1_555
Al22 Al77 2.731131 1_555
Al22 Al62 2.731131 1_555
Al22 Al59 2.767643 1_555
Al22 Al52 2.861285 1_555
Al22 Al50 2.861285 1_555
Al22 Al36 2.885591 1_555
Al22 Al38 2.885591 1_555
Al22 Ho8 3.468637 1_555
Al23 V0 2.658150 1_665
Al23 V7 2.672042 1_555
Al23 Al63 2.731131 1_555
Al23 Al76 2.731131 1_555
Al23 Al58 2.767643 1_555
Al23 Al51 2.861285 1_565
Al23 Al55 2.861285 1_655
Al23 Al39 2.885591 1_655
Al23 Al37 2.885591 1_565
Al23 Ho9 3.468637 1_555
Al24 Al52 2.736156 1_555
Al24 Al59 2.736161 1_555
Al24 Al48 2.775223 1_555
Al24 Al42 2.775223 1_555
Al24 Al32 2.846240 1_555
Al24 Al26 2.846240 1_555
Al24 Ho5 3.092348 1_555
Al24 Ho8 3.092357 1_555
Al24 Al62 3.096845 1_555
Al24 Al79 3.096846 1_555
Al24 Ho2 3.385420 1_555
Al24 Ho9 3.385429 1_555
Al25 Al55 2.736156 1_655
Al25 Al58 2.736161 1_555
Al25 Al49 2.775223 1_555
Al25 Al43 2.775223 1_555
Al25 Al33 2.846240 1_555
Al25 Al29 2.846240 1_555
Al25 Ho2 3.092348 1_655
Al25 Ho9 3.092357 1_555
Al25 Al63 3.096845 1_555
Al25 Al81 3.096846 1_555
Al25 Ho5 3.385420 1_655
Al25 Ho8 3.385429 1_555
Al26 Al51 2.736156 1_565
Al26 Al58 2.736161 1_555
Al26 Al42 2.775223 1_555
Al26 Al48 2.775223 1_555
Al26 Al32 2.846240 1_555
Al26 Ho0 3.092348 1_565
Al26 Ho9 3.092357 1_555
Al26 Al76 3.096845 1_555
Al26 Al64 3.096846 1_555
Al26 Ho1 3.385420 1_565
Al26 Ho8 3.385429 1_555
Al27 Al57 2.736156 1_655
Al27 Al61 2.736161 1_554
Al27 Al44 2.775223 1_555
Al27 Al45 2.775223 1_554
Al27 Al34 2.846240 1_555
Al27 Al28 2.846240 1_555
Al27 Ho4 3.092348 1_654
Al27 Ho10 3.092357 1_555
Al27 Al65 3.096845 1_555
Al27 Al72 3.096846 1_554
Al27 Ho7 3.385420 1_655
Al27 Ho11 3.385429 1_554
Al28 Al56 2.736156 1_554
Al28 Al60 2.736161 1_555
Al28 Al44 2.775223 1_555
Al28 Al45 2.775223 1_554
Al28 Al34 2.846240 1_555
Al28 Ho3 3.092348 1_555
Al28 Ho11 3.092357 1_554
Al28 Al66 3.096845 1_554
Al28 Al71 3.096846 1_555
Al28 Ho6 3.385420 1_554
Al28 Ho10 3.385429 1_555
Al29 Al50 2.736156 1_555
Al29 Al59 2.736161 1_555
Al29 Al43 2.775223 1_555
Al29 Al49 2.775223 1_555
Al29 Al33 2.846240 1_555
Al29 Ho1 3.092348 1_555
Al29 Ho8 3.092357 1_555
Al29 Al77 3.096845 1_555
Al29 Al67 3.096846 1_555
Al29 Ho0 3.385420 1_555
Al29 Ho9 3.385429 1_555
Al30 Al54 2.736156 1_554
Al30 Al60 2.736161 1_555
Al30 Al47 2.775223 1_555
Al30 Al46 2.775223 1_554
Al30 Al35 2.846240 1_555
Al30 Al31 2.846240 1_555
Al30 Ho7 3.092348 1_555
Al30 Ho11 3.092357 1_554
Al30 Al68 3.096845 1_554
Al30 Al75 3.096846 1_555
Al30 Ho4 3.385420 1_554
Al30 Ho10 3.385429 1_555
Al31 Al53 2.736156 1_565
Al31 Al61 2.736161 1_554
Al31 Al47 2.775223 1_555
Al31 Al46 2.775223 1_554
Al31 Al35 2.846240 1_555
Al31 Ho6 3.092348 1_564
Al31 Ho10 3.092357 1_555
Al31 Al69 3.096845 1_555
Al31 Al74 3.096846 1_554
Al31 Ho3 3.385420 1_565
Al31 Ho11 3.385429 1_554
Al32 Al55 2.736151 1_555
Al32 Al50 2.736151 1_565
Al32 Al48 2.775223 1_555
Al32 Al42 2.775223 1_555
Al32 Ho2 3.092352 1_555
Al32 Ho1 3.092352 1_565
Al32 Al84 3.096842 1_555
Al32 Al70 3.096842 1_555
Al32 Ho0 3.385426 1_565
Al32 Ho5 3.385426 1_555
Al33 Al51 2.736151 1_555
Al33 Al52 2.736151 1_655
Al33 Al49 2.775223 1_555
Al33 Al43 2.775223 1_555
Al33 Ho0 3.092352 1_555
Al33 Ho5 3.092352 1_655
Al33 Al73 3.096842 1_555
Al33 Al85 3.096842 1_555
Al33 Ho2 3.385426 1_655
Al33 Ho1 3.385426 1_555
Al34 Al53 2.736151 1_555
Al34 Al54 2.736151 1_654
Al34 Al44 2.775223 1_555
Al34 Al45 2.775223 1_554
Al34 Ho6 3.092352 1_554
Al34 Ho7 3.092352 1_655
Al34 Al78 3.096842 1_555
Al34 Al82 3.096842 1_554
Al34 Ho4 3.385426 1_654
Al34 Ho3 3.385426 1_555
Al35 Al57 2.736151 1_555
Al35 Al56 2.736151 1_564
Al35 Al47 2.775223 1_555
Al35 Al46 2.775223 1_554
Al35 Ho4 3.092352 1_554
Al35 Ho3 3.092352 1_565
Al35 Al83 3.096842 1_555
Al35 Al80 3.096842 1_554
Al35 Ho6 3.385426 1_564
Al35 Ho7 3.385426 1_555
Al36 V6 2.572773 1_555
Al36 V4 2.572773 1_545
Al36 Al38 2.771188 1_555
Al36 Al40 2.771188 1_445
Al36 Al80 2.800063 1_545
Al36 Al70 2.800063 1_545
Al36 Al66 2.800063 1_555
Al36 Al77 2.800063 1_555
Al37 V7 2.572773 1_545
Al37 V5 2.572773 1_655
Al37 Al39 2.771188 1_645
Al37 Al41 2.771188 1_655
Al37 Al73 2.800063 1_555
Al37 Al78 2.800063 1_555
Al37 Al76 2.800063 1_545
Al37 Al69 2.800063 1_545
Al38 V6 2.572773 1_555
Al38 V2 2.572773 1_455
Al38 Al40 2.771188 1_445
Al38 Al82 2.800063 1_455
Al38 Al85 2.800063 1_455
Al38 Al68 2.800063 1_555
Al38 Al62 2.800063 1_555
Al39 V7 2.572773 1_455
Al39 V3 2.572773 1_565
Al39 Al41 2.771188 1_565
Al39 Al84 2.800063 1_555
Al39 Al83 2.800063 1_555
Al39 Al63 2.800063 1_455
Al39 Al65 2.800063 1_455
Al40 V4 2.572773 1_655
Al40 V2 2.572773 1_565
Al40 Al74 2.800063 1_555
Al40 Al72 2.800063 1_555
Al40 Al81 2.800063 1_555
Al40 Al64 2.800063 1_555
Al41 V5 2.572773 1_555
Al41 V3 2.572773 1_555
Al41 Al79 2.800063 1_555
Al41 Al67 2.800063 1_555
Al41 Al75 2.800063 1_555
Al41 Al71 2.800063 1_555
Al42 Al70 2.737410 1_555
Al42 Al62 2.737418 1_555
Al42 Al64 2.737420 1_555
Al42 Al6 2.810786 1_555
Al42 Ho2 3.240034 1_555
Al42 Ho0 3.240035 1_565
Al42 Ho8 3.240044 1_555
Al43 Al73 2.737410 1_555
Al43 Al63 2.737418 1_555
Al43 Al67 2.737420 1_555
Al43 Al8 2.810786 1_555
Al43 Ho5 3.240034 1_655
Al43 Ho1 3.240035 1_555
Al43 Ho9 3.240044 1_555
Al44 Al78 2.737410 1_555
Al44 Al65 2.737418 1_555
Al44 Al71 2.737420 1_555
Al44 Al8 2.810786 1_555
Al44 Ho7 3.240034 1_655
Al44 Ho3 3.240035 1_555
Al44 Ho10 3.240044 1_555
Al45 Al82 2.737410 1_555
Al45 Al66 2.737418 1_555
Al45 Al72 2.737420 1_555
Al45 Al7 2.810792 1_555
Al45 Ho6 3.240034 1_555
Al45 Ho4 3.240035 1_655
Al45 Ho11 3.240044 1_555
Al46 Al80 2.737410 1_555
Al46 Al68 2.737418 1_555
Al46 Al74 2.737420 1_555
Al46 Al6 2.810786 1_555
Al46 Ho4 3.240034 1_555
Al46 Ho6 3.240035 1_565
Al46 Ho11 3.240044 1_555
Al47 Al83 2.737410 1_555
Al47 Al69 2.737418 1_555
Al47 Al75 2.737420 1_555
Al47 Al5 2.810785 1_555
Al47 Al9 2.810792 1_555
Al47 Ho3 3.240034 1_565
Al47 Ho7 3.240035 1_555
Al47 Ho10 3.240044 1_555
Al48 Al84 2.737410 1_555
Al48 Al76 2.737418 1_555
Al48 Al79 2.737420 1_555
Al48 Al5 2.810785 1_555
Al48 Al9 2.810792 1_555
Al48 Ho1 3.240034 1_565
Al48 Ho5 3.240035 1_555
Al48 Ho9 3.240044 1_555
Al49 Al85 2.737410 1_555
Al49 Al77 2.737418 1_555
Al49 Al81 2.737420 1_555
Al49 Al7 2.810792 1_555
Al49 Ho0 3.240034 1_555
Al49 Ho2 3.240035 1_655
Al49 Ho8 3.240044 1_555
Al50 V0 2.830961 1_555
Al50 Al70 2.892984 1_545
Al50 Al77 2.892984 1_555
Al50 Al59 2.972037 1_555
Al50 Al55 2.972037 1_545
Al50 Ho1 3.248186 1_555
Al50 Ho0 3.264412 1_555
Al51 V0 2.830961 1_655
Al51 Al73 2.892984 1_555
Al51 Al76 2.892984 1_545
Al51 Al58 2.972037 1_545
Al51 Al52 2.972037 1_655
Al51 Ho0 3.248186 1_555
Al51 Ho1 3.264412 1_555
Al52 V0 2.830961 1_555
Al52 Al85 2.892984 1_455
Al52 Al62 2.892984 1_555
Al52 Al59 2.972037 1_555
Al52 Ho5 3.248186 1_555
Al52 Ho2 3.264412 1_555
Al53 V1 2.830961 1_655
Al53 Al78 2.892984 1_555
Al53 Al69 2.892984 1_545
Al53 Al61 2.972037 1_544
Al53 Al54 2.972037 1_654
Al53 Ho6 3.248186 1_554
Al53 Ho3 3.264412 1_555
Al54 V1 2.830961 1_556
Al54 Al82 2.892984 1_455
Al54 Al68 2.892984 1_555
Al54 Al60 2.972037 1_556
Al54 Ho7 3.248186 1_556
Al54 Ho4 3.264412 1_555
Al55 V0 2.830961 1_565
Al55 Al84 2.892984 1_555
Al55 Al63 2.892984 1_455
Al55 Al58 2.972037 1_455
Al55 Ho2 3.248186 1_555
Al55 Ho5 3.264412 1_555
Al56 V1 2.830961 1_556
Al56 Al80 2.892984 1_545
Al56 Al66 2.892984 1_555
Al56 Al60 2.972037 1_556
Al56 Al57 2.972037 1_546
Al56 Ho3 3.248186 1_556
Al56 Ho6 3.264412 1_555
Al57 V1 2.830961 1_565
Al57 Al83 2.892984 1_555
Al57 Al65 2.892984 1_455
Al57 Al61 2.972037 1_454
Al57 Ho4 3.248186 1_554
Al57 Ho7 3.264412 1_555
Al58 V0 2.830961 1_665
Al58 Al81 2.892984 1_555
Al58 Al64 2.892984 1_555
Al58 Ho9 3.248187 1_555
Al58 Ho8 3.264412 1_555
Al59 V0 2.830961 1_555
Al59 Al67 2.892984 1_555
Al59 Al79 2.892984 1_555
Al59 Ho8 3.248187 1_555
Al59 Ho9 3.264412 1_555
Al60 V1 2.830961 1_555
Al60 Al71 2.892984 1_555
Al60 Al75 2.892984 1_555
Al60 Ho11 3.248187 1_554
Al60 Ho10 3.264412 1_555
Al61 V1 2.830961 1_666
Al61 Al74 2.892984 1_555
Al61 Al72 2.892984 1_555
Al61 Ho10 3.248187 1_556
Al61 Ho11 3.264412 1_555
Al62 V6 2.682029 1_555
Al62 Al68 2.966263 1_555
Al62 Al85 2.993704 1_455
Al62 Ho2 3.073507 1_555
Al62 Ho8 3.331942 1_555
Al63 V7 2.682029 1_555
Al63 Al65 2.966263 1_555
Al63 Al84 2.993704 1_655
Al63 Ho5 3.073507 1_655
Al63 Ho9 3.331942 1_555
Al64 V2 2.682029 1_565
Al64 Al74 2.966263 1_555
Al64 Al81 2.993703 1_555
Al64 Ho8 3.073507 1_555
Al64 Ho0 3.331942 1_565
Al65 V7 2.682029 1_555
Al65 Al83 2.993704 1_655
Al65 Ho7 3.073507 1_655
Al65 Ho10 3.331942 1_555
Al66 V6 2.682029 1_555
Al66 Al7 2.792324 1_555
Al66 Al77 2.966263 1_555
Al66 Al80 2.993704 1_545
Al66 Ho6 3.073507 1_555
Al66 Ho11 3.331942 1_555
Al67 V3 2.682029 1_555
Al67 Al8 2.792324 1_555
Al67 Al71 2.966263 1_555
Al67 Al79 2.993703 1_555
Al67 Ho9 3.073507 1_555
Al67 Ho1 3.331942 1_555
Al68 V6 2.682029 1_555
Al68 Al82 2.993704 1_455
Al68 Ho4 3.073507 1_555
Al68 Ho11 3.331942 1_555
Al69 V7 2.682029 1_555
Al69 Al9 2.792324 1_555
Al69 Al76 2.966263 1_555
Al69 Al78 2.993704 1_565
Al69 Ho3 3.073507 1_565
Al69 Ho10 3.331942 1_555
Al70 V4 2.682029 1_555
Al70 Al80 2.966263 1_555
Al70 Al77 2.993704 1_565
Al70 Ho0 3.073507 1_565
Al70 Ho2 3.331942 1_555
Al71 V3 2.682029 1_555
Al71 Al8 2.792324 1_555
Al71 Al75 2.993703 1_555
Al71 Ho10 3.073507 1_555
Al71 Ho3 3.331942 1_555
Al72 V4 2.682029 1_655
Al72 Al81 2.966263 1_555
Al72 Al74 2.993703 1_555
Al72 Ho11 3.073507 1_555
Al72 Ho4 3.331942 1_655
Al73 V5 2.682029 1_655
Al73 Al8 2.761056 1_555
Al73 Al78 2.966263 1_555
Al73 Al76 2.993704 1_545
Al73 Ho1 3.073507 1_555
Al73 Ho5 3.331942 1_655
Al74 V2 2.682029 1_565
Al74 Ho11 3.073507 1_555
Al74 Ho6 3.331942 1_565
Al75 V5 2.682029 1_555
Al75 Al9 2.761056 1_555
Al75 Al79 2.966263 1_555
Al75 Ho10 3.073507 1_555
Al75 Ho7 3.331942 1_555
Al76 V7 2.682029 1_555
Al76 Al9 2.792324 1_555
Al76 Ho1 3.073507 1_565
Al76 Ho9 3.331942 1_555
Al77 V6 2.682029 1_555
Al77 Ho0 3.073507 1_555
Al77 Ho8 3.331942 1_555
Al78 V5 2.682029 1_655
Al78 Al8 2.761056 1_555
Al78 Ho3 3.073507 1_555
Al78 Ho7 3.331942 1_655
Al79 V5 2.682029 1_555
Al79 Al9 2.761056 1_555
Al79 Ho9 3.073507 1_555
Al79 Ho5 3.331942 1_555
Al80 V4 2.682029 1_555
Al80 Ho6 3.073507 1_565
Al80 Ho4 3.331942 1_555
Al81 V4 2.682029 1_655
Al81 Ho8 3.073507 1_555
Al81 Ho2 3.331942 1_655
Al82 V2 2.682029 1_555
Al82 Al85 2.966263 1_555
Al82 Ho4 3.073507 1_655
Al82 Ho6 3.331942 1_555
Al83 V3 2.682029 1_565
Al83 Al84 2.966263 1_555
Al83 Ho7 3.073507 1_555
Al83 Ho3 3.331942 1_565
Al84 V3 2.682029 1_565
Al84 Ho5 3.073507 1_555
Al84 Ho1 3.331942 1_565
Al85 V2 2.682029 1_555
Al85 Ho2 3.073507 1_655
Al85 Ho0 3.331942 1_555
