# generated using pymatgen
data_Zn2CuAu
_symmetry_space_group_name_H-M   'P 1'
_cell_length_a   4.40109879
_cell_length_b   4.53464566
_cell_length_c   5.67165765
_cell_angle_alpha   90.00000000
_cell_angle_beta   90.00000000
_cell_angle_gamma   90.00000000
_symmetry_Int_Tables_number   1
_chemical_formula_structural   Zn2CuAu
_chemical_formula_sum   'Zn4 Cu2 Au2'
_cell_volume   113.19167382
_cell_formula_units_Z   2
loop_
 _symmetry_equiv_pos_site_id
 _symmetry_equiv_pos_as_xyz
  1  'x, y, z'
loop_
 _atom_site_type_symbol
 _atom_site_label
 _atom_site_symmetry_multiplicity
 _atom_site_fract_x
 _atom_site_fract_y
 _atom_site_fract_z
 _atom_site_occupancy
  Zn  Zn0  1  0.50000000  0.86237970  0.74997324  1
  Zn  Zn1  1  0.50000000  0.86237970  0.25002676  1
  Zn  Zn2  1  -0.00000000  0.48162030  0.24997324  1
  Zn  Zn3  1  0.00000000  0.48162030  0.75002676  1
  Cu  Cu0  1  -0.00000000  0.97740190  0.50000000  1
  Cu  Cu1  1  0.50000000  0.36659810  0.00000000  1
  Au  Au0  1  0.50000000  0.35896972  0.50000000  1
  Au  Au1  1  -0.00000000  0.98503028  0.00000000  1
loop_
_geom_bond_atom_site_label_1
_geom_bond_atom_site_label_2
_geom_bond_distance
_geom_bond_site_symmetry_2
Cu0 Zn2 2.658061 1_555
Cu0 Zn3 2.658061 1_555
Cu0 Zn0 2.669180 1_555
Cu0 Zn1 2.669180 1_555
Cu0 Zn1 2.669180 1_455
Cu0 Zn0 2.669180 1_455
Cu0 Zn3 2.690497 1_565
Cu0 Zn2 2.690497 1_565
Cu1 Zn1 2.658061 1_555
Cu1 Zn0 2.658061 1_554
Cu1 Zn2 2.669180 1_655
Cu1 Zn2 2.669180 1_555
Cu1 Zn3 2.669180 1_554
Cu1 Zn3 2.669180 1_654
Cu1 Zn0 2.690497 1_544
Cu1 Zn1 2.690497 1_545
Au0 Zn1 2.661000 1_545
Au0 Zn0 2.661000 1_545
Au0 Zn2 2.676315 1_555
Au0 Zn2 2.676315 1_655
Au0 Zn3 2.676315 1_555
Au0 Zn3 2.676315 1_655
Au0 Zn0 2.687222 1_555
Au0 Zn1 2.687222 1_555
Au0 Cu0 2.799334 1_645
Au0 Cu0 2.799334 1_545
Au0 Cu1 2.836040 1_556
Au0 Cu1 2.836040 1_555
Au1 Zn2 2.661000 1_565
Au1 Zn3 2.661000 1_564
Au1 Zn0 2.676315 1_454
Au1 Zn1 2.676315 1_455
Au1 Zn1 2.676315 1_555
Au1 Zn0 2.676315 1_554
Au1 Zn3 2.687222 1_554
Au1 Zn2 2.687222 1_555
Au1 Cu1 2.799334 1_565
Au1 Cu1 2.799334 1_465
Au1 Cu0 2.836040 1_555
Au1 Cu0 2.836040 1_554
