# generated using pymatgen
data_Ta6Cr3Ni3C2
_symmetry_space_group_name_H-M   'P 1'
_cell_length_a   8.08400461
_cell_length_b   8.08400461
_cell_length_c   8.08400461
_cell_angle_alpha   120.46581652
_cell_angle_beta   119.70842385
_cell_angle_gamma   89.85042432
_symmetry_Int_Tables_number   1
_chemical_formula_structural   Ta6Cr3Ni3C2
_chemical_formula_sum   'Ta12 Cr6 Ni6 C4'
_cell_volume   373.04996042
_cell_formula_units_Z   2
loop_
 _symmetry_equiv_pos_site_id
 _symmetry_equiv_pos_as_xyz
  1  'x, y, z'
loop_
 _atom_site_type_symbol
 _atom_site_label
 _atom_site_symmetry_multiplicity
 _atom_site_fract_x
 _atom_site_fract_y
 _atom_site_fract_z
 _atom_site_occupancy
  Ta  Ta0  1  0.07116400  0.07116400  0.00000000  1
  Ta  Ta1  1  0.68110900  0.68110900  0.00000000  1
  Ta  Ta2  1  0.68063400  0.06894100  0.00075900  1
  Ta  Ta3  1  0.06818200  0.67987500  0.99924100  1
  Ta  Ta4  1  0.06818200  0.06894100  0.38830700  1
  Ta  Ta5  1  0.68063400  0.67987500  0.61169300  1
  Ta  Ta6  1  0.43254000  0.93254000  0.50000000  1
  Ta  Ta7  1  0.81815300  0.31815300  0.50000000  1
  Ta  Ta8  1  0.81700900  0.93169400  0.49956900  1
  Ta  Ta9  1  0.43212600  0.31744000  0.50043100  1
  Ta  Ta10  1  0.43212600  0.93169400  0.11468500  1
  Ta  Ta11  1  0.81700900  0.31744000  0.88531500  1
  Cr  Cr0  1  0.24797500  0.50067000  0.74730500  1
  Cr  Cr1  1  0.75336500  0.50067000  0.25269500  1
  Cr  Cr2  1  0.24888900  0.49557800  0.24668900  1
  Cr  Cr3  1  0.24888900  0.00220000  0.75331100  1
  Cr  Cr4  1  0.45223200  0.29840600  0.15382500  1
  Cr  Cr5  1  0.14458100  0.29840600  0.84617500  1
  Ni  Ni0  1  0.45468700  0.29669400  0.84200800  1
  Ni  Ni1  1  0.45468700  0.61267900  0.15799200  1
  Ni  Ni2  1  0.04501000  0.70368300  0.34132700  1
  Ni  Ni3  1  0.36235600  0.70368300  0.65867300  1
  Ni  Ni4  1  0.04517100  0.70401300  0.65884100  1
  Ni  Ni5  1  0.04517100  0.38633000  0.34115900  1
  C  C0  1  0.74830500  0.99971700  0.74858800  1
  C  C1  1  0.25112900  0.99971700  0.25141200  1
  C  C2  1  0.74934300  0.99915700  0.24981500  1
  C  C3  1  0.74934300  0.49952800  0.75018500  1
loop_
_geom_bond_atom_site_label_1
_geom_bond_atom_site_label_2
_geom_bond_distance
_geom_bond_site_symmetry_2
Cr0 Ni5 2.432556 1_555
Cr0 Ni4 2.432562 1_555
Cr0 Ni3 2.432852 1_555
Cr0 Cr5 2.450622 1_555
Cr0 Ni1 2.468855 1_556
Cr0 Ni0 2.468861 1_555
Cr0 Ta3 2.879285 1_555
Cr0 Ta4 2.879285 1_555
Cr0 Ta10 2.885949 1_556
Cr0 Ta9 2.885956 1_555
Cr0 Ta7 2.897848 1_455
Cr0 Ta1 2.911419 1_556
Cr1 Ni4 2.432556 1_655
Cr1 Ni5 2.432556 1_655
Cr1 Ni2 2.432852 1_655
Cr1 Cr4 2.450615 1_555
Cr1 Ni0 2.468855 1_554
Cr1 Ni1 2.468855 1_555
Cr1 Ta5 2.879285 1_555
Cr1 Ta2 2.879285 1_555
Cr1 Ta8 2.885949 1_555
Cr1 Ta11 2.885949 1_554
Cr1 Ta7 2.897848 1_555
Cr1 Ta1 2.911419 1_555
Cr2 Cr5 2.408819 1_554
Cr2 Cr4 2.408826 1_555
Cr2 Ni5 2.452239 1_555
Cr2 Ni1 2.461090 1_555
Cr2 Ni3 2.462137 1_555
Cr2 Ni2 2.462137 1_555
Cr2 Ta0 2.839061 1_555
Cr2 Ta11 2.906590 1_454
Cr2 Ta9 2.906592 1_555
Cr2 Ta5 2.910250 1_555
Cr2 Ta3 2.910250 1_554
Cr2 Ta6 2.924762 1_555
Cr3 Cr5 2.408819 1_555
Cr3 Cr4 2.408819 1_556
Cr3 Ni4 2.452232 1_545
Cr3 Ni0 2.461084 1_555
Cr3 Ni3 2.462137 1_545
Cr3 Ni2 2.462137 1_545
Cr3 Ta0 2.839061 1_556
Cr3 Ta8 2.906590 1_445
Cr3 Ta10 2.906590 1_546
Cr3 Ta2 2.910250 1_556
Cr3 Ta4 2.910250 1_555
Cr3 Ta6 2.924762 1_545
Cr4 Cr5 2.498001 1_554
Cr4 Ni0 2.523663 1_554
Cr4 Ni1 2.523671 1_555
Cr4 Ta9 2.813392 1_555
Cr4 Ta10 2.813392 1_545
Cr4 Ta7 2.819875 1_555
Cr4 Ta2 2.881043 1_555
Cr4 Ta5 2.881050 1_555
Cr4 Ta0 2.885651 1_555
Cr5 Ni0 2.523671 1_555
Cr5 Ni1 2.523671 1_556
Cr5 Ta11 2.813392 1_455
Cr5 Ta8 2.813392 1_445
Cr5 Ta7 2.819880 1_455
Cr5 Ta3 2.881050 1_555
Cr5 Ta4 2.881050 1_555
Cr5 Ta0 2.885644 1_556
Ni0 Ni1 2.536414 1_556
Ni0 Ta6 2.756982 1_545
Ni0 Ta11 2.767030 1_555
Ni0 Ta9 2.767038 1_555
Ni0 Ta1 2.885581 1_556
Ni0 Ta2 2.903136 1_556
Ni0 Ta4 2.903143 1_555
Ni1 Ta6 2.756987 1_555
Ni1 Ta10 2.767030 1_555
Ni1 Ta8 2.767030 1_555
Ni1 Ta1 2.885574 1_555
Ni1 Ta5 2.903143 1_555
Ni1 Ta3 2.903143 1_554
Ni2 Ni4 2.564788 1_555
Ni2 Ni5 2.564792 1_555
Ni2 Ni3 2.576724 1_555
Ni2 Ta4 2.773671 1_565
Ni2 Ta3 2.773671 1_554
Ni2 Ta1 2.783462 1_455
Ni2 Ta8 2.891268 1_455
Ni2 Ta11 2.891268 1_454
Ni2 Ta6 2.919477 1_555
Ni3 Ni4 2.564792 1_555
Ni3 Ni5 2.564792 1_555
Ni3 Ta2 2.773671 1_566
Ni3 Ta5 2.773671 1_555
Ni3 Ta1 2.783462 1_556
Ni3 Ta10 2.891265 1_556
Ni3 Ta9 2.891271 1_555
Ni3 Ta6 2.919477 1_555
Ni4 Ni5 2.550044 1_555
Ni4 Ta0 2.754603 1_566
Ni4 Ta5 2.771638 1_455
Ni4 Ta3 2.771642 1_555
Ni4 Ta7 2.894706 1_455
Ni4 Ta8 2.911886 1_455
Ni4 Ta10 2.911897 1_556
Ni5 Ta0 2.754608 1_555
Ni5 Ta2 2.771637 1_455
Ni5 Ta4 2.771637 1_555
Ni5 Ta7 2.894700 1_455
Ni5 Ta11 2.911893 1_454
Ni5 Ta9 2.911900 1_555
C0 Ta8 2.155779 1_555
C0 Ta11 2.155779 1_565
C0 Ta6 2.159966 1_555
C0 Ta5 2.171418 1_555
C0 Ta2 2.171418 1_566
C0 Ta0 2.199116 1_666
C1 Ta9 2.155780 1_565
C1 Ta10 2.155786 1_555
C1 Ta6 2.159966 1_555
C1 Ta3 2.171418 1_554
C1 Ta4 2.171418 1_565
C1 Ta0 2.199116 1_565
C2 Ta1 2.152024 1_555
C2 Ta7 2.157202 1_565
C2 Ta10 2.166426 1_555
C2 Ta8 2.166428 1_555
C2 Ta4 2.173036 1_665
C2 Ta2 2.173042 1_565
C3 Ta1 2.152029 1_556
C3 Ta7 2.157196 1_555
C3 Ta9 2.166428 1_555
C3 Ta11 2.166434 1_555
C3 Ta3 2.173036 1_655
C3 Ta5 2.173036 1_555
