# generated using pymatgen
data_Sr2La2MnZnO8
_symmetry_space_group_name_H-M   'P 1'
_cell_length_a   7.82515902
_cell_length_b   7.82516468
_cell_length_c   12.55558500
_cell_angle_alpha   90.00011664
_cell_angle_beta   89.99998642
_cell_angle_gamma   89.60720826
_symmetry_Int_Tables_number   1
_chemical_formula_structural   Sr2La2MnZnO8
_chemical_formula_sum   'Sr8 La8 Mn4 Zn4 O32'
_cell_volume   768.80005295
_cell_formula_units_Z   4
loop_
 _symmetry_equiv_pos_site_id
 _symmetry_equiv_pos_as_xyz
  1  'x, y, z'
loop_
 _atom_site_type_symbol
 _atom_site_label
 _atom_site_symmetry_multiplicity
 _atom_site_fract_x
 _atom_site_fract_y
 _atom_site_fract_z
 _atom_site_occupancy
  Sr  Sr0  1  0.25000400  0.74999400  0.85587400  1
  Sr  Sr1  1  0.99999800  0.00000300  0.35586900  1
  Sr  Sr2  1  0.75000400  0.24999400  0.85586900  1
  Sr  Sr3  1  0.49999300  0.50000600  0.35587200  1
  Sr  Sr4  1  0.99999700  0.50000300  0.64283000  1
  Sr  Sr5  1  0.75000600  0.75000100  0.14282900  1
  Sr  Sr6  1  0.49999500  0.00000200  0.64283000  1
  Sr  Sr7  1  0.25000000  0.24999500  0.14283000  1
  La  La0  1  0.49999400  0.50000500  0.63696300  1
  La  La1  1  0.25000100  0.74999700  0.13696400  1
  La  La2  1  0.99999900  0.00000200  0.63696200  1
  La  La3  1  0.75000500  0.24999300  0.13696300  1
  La  La4  1  0.25000500  0.24999400  0.86135400  1
  La  La5  1  0.99999900  0.50000900  0.36135300  1
  La  La6  1  0.75000300  0.74999700  0.86135400  1
  La  La7  1  0.49999400  0.00000200  0.36135400  1
  Mn  Mn0  1  0.99999200  0.00000800  0.00228400  1
  Mn  Mn1  1  0.75001200  0.24999100  0.50228800  1
  Mn  Mn2  1  0.25000600  0.74999300  0.50228000  1
  Mn  Mn3  1  0.49999600  0.50000700  0.00227700  1
  Zn  Zn0  1  0.99999400  0.50000500  0.99715000  1
  Zn  Zn1  1  0.75000500  0.74999500  0.49715000  1
  Zn  Zn2  1  0.49999500  0.00000500  0.99715000  1
  Zn  Zn3  1  0.25000400  0.24999600  0.49715000  1
  O  O0  1  0.24999800  0.25000400  0.67894800  1
  O  O1  1  0.00000200  0.49999800  0.17895000  1
  O  O2  1  0.74999700  0.75000100  0.67895000  1
  O  O3  1  0.50000300  0.99999800  0.17895100  1
  O  O4  1  0.00000200  0.49999800  0.83225900  1
  O  O5  1  0.74999800  0.75000300  0.33225900  1
  O  O6  1  0.50000300  0.99999700  0.83226000  1
  O  O7  1  0.24999800  0.25000300  0.33226100  1
  O  O8  1  0.25000100  0.75000000  0.65794500  1
  O  O9  1  0.99999900  0.00000000  0.15792700  1
  O  O10  1  0.74999800  0.25000200  0.65794200  1
  O  O11  1  0.50000000  0.49999900  0.15794800  1
  O  O12  1  0.50000200  0.49999900  0.83046500  1
  O  O13  1  0.24999900  0.75000100  0.33046900  1
  O  O14  1  0.00000000  0.99999900  0.83047700  1
  O  O15  1  0.74999700  0.25000200  0.33046800  1
  O  O16  1  0.99081900  0.24749100  0.50098200  1
  O  O17  1  0.74083300  0.49749900  0.00098200  1
  O  O18  1  0.49081800  0.74748900  0.50098300  1
  O  O19  1  0.24081000  0.99749800  0.00098200  1
  O  O20  1  0.50917100  0.25250300  0.50098200  1
  O  O21  1  0.25917800  0.50251000  0.00098300  1
  O  O22  1  0.00917300  0.75250100  0.50098300  1
  O  O23  1  0.75920000  0.00250900  0.00098200  1
  O  O24  1  0.25251100  0.50918200  0.50098400  1
  O  O25  1  0.00250000  0.75918900  0.00098100  1
  O  O26  1  0.75250900  0.00918500  0.50098200  1
  O  O27  1  0.50250200  0.25916600  0.00098200  1
  O  O28  1  0.24749900  0.99082900  0.50098200  1
  O  O29  1  0.99749100  0.24080100  0.00098200  1
  O  O30  1  0.74749700  0.49082600  0.50098200  1
  O  O31  1  0.49748900  0.74082300  0.00098300  1
loop_
_geom_bond_atom_site_label_1
_geom_bond_atom_site_label_2
_geom_bond_distance
_geom_bond_site_symmetry_2
La0 O12 2.429531 1_555
La0 O24 2.582345 1_555
La0 O18 2.582363 1_555
La0 O20 2.582471 1_555
La0 O30 2.582479 1_555
La0 O8 2.769604 1_555
La0 O10 2.769706 1_555
La0 O0 2.825670 1_555
La0 O2 2.825684 1_555
La1 O13 2.429568 1_555
La1 O21 2.582383 1_555
La1 O31 2.582390 1_555
La1 O19 2.582482 1_555
La1 O25 2.582487 1_555
La1 O11 2.769657 1_555
La1 O9 2.769675 1_465
La1 O1 2.825678 1_555
La1 O3 2.825706 1_555
La2 O14 2.429694 1_645
La2 O16 2.582393 1_555
La2 O26 2.582396 1_555
La2 O22 2.582448 1_645
La2 O28 2.582452 1_645
La2 O10 2.769673 1_555
La2 O8 2.769694 1_645
La2 O0 2.825693 1_655
La2 O2 2.825710 1_545
La3 O15 2.429568 1_555
La3 O23 2.582369 1_555
La3 O29 2.582381 1_555
La3 O27 2.582479 1_555
La3 O17 2.582499 1_555
La3 O9 2.769578 1_555
La3 O11 2.769734 1_555
La3 O3 2.825677 1_545
La3 O1 2.825701 1_655
La4 O0 2.290214 1_555
La4 O27 2.642801 1_556
La4 O19 2.642804 1_546
La4 O29 2.642905 1_456
La4 O21 2.642919 1_556
La4 O6 2.781179 1_545
La4 O4 2.781247 1_555
La4 O14 2.803018 1_545
La4 O12 2.803051 1_555
La5 O1 2.290176 1_655
La5 O22 2.642787 1_655
La5 O30 2.642841 1_555
La5 O24 2.642914 1_655
La5 O16 2.642938 1_555
La5 O5 2.781180 1_555
La5 O7 2.781230 1_655
La5 O13 2.802987 1_655
La5 O15 2.803081 1_555
La6 O2 2.290189 1_555
La6 O25 2.642798 1_656
La6 O17 2.642810 1_556
La6 O23 2.642893 1_566
La6 O31 2.642909 1_556
La6 O4 2.781197 1_655
La6 O6 2.781207 1_555
La6 O14 2.803013 1_655
La6 O12 2.803033 1_555
La7 O3 2.290176 1_545
La7 O28 2.642789 1_545
La7 O20 2.642824 1_555
La7 O18 2.642907 1_545
La7 O26 2.642909 1_555
La7 O7 2.781189 1_555
La7 O5 2.781224 1_545
La7 O13 2.803010 1_545
La7 O15 2.803051 1_555
Mn0 O23 1.884274 1_555
Mn0 O29 1.884283 1_555
Mn0 O19 1.884478 1_645
Mn0 O25 1.884487 1_645
Mn0 O9 1.954189 1_555
Mn0 O14 2.157137 1_644
Mn1 O26 1.884385 1_555
Mn1 O16 1.884392 1_555
Mn1 O30 1.884613 1_555
Mn1 O20 1.884658 1_555
Mn1 O10 1.954327 1_555
Mn1 O15 2.157301 1_555
Mn2 O24 1.884424 1_555
Mn2 O18 1.884430 1_555
Mn2 O22 1.884595 1_555
Mn2 O28 1.884619 1_555
Mn2 O8 1.954465 1_555
Mn2 O13 2.157188 1_555
Mn3 O31 1.884463 1_555
Mn3 O21 1.884477 1_555
Mn3 O17 1.884626 1_555
Mn3 O27 1.884658 1_555
Mn3 O11 1.954540 1_555
Mn3 O12 2.157200 1_554
O0 Zn3 2.282580 1_555
O0 Sr6 2.794152 1_555
O0 Sr4 2.794159 1_455
O1 Zn0 2.282605 1_454
O1 Sr5 2.794159 1_455
O1 Sr7 2.794167 1_555
O2 Zn1 2.282605 1_555
O2 Sr4 2.794150 1_555
O2 Sr6 2.794179 1_565
O3 Zn2 2.282618 1_564
O3 Sr7 2.794165 1_565
O3 Sr5 2.794165 1_555
O4 Zn0 2.070303 1_455
O4 Sr4 2.378392 1_455
O4 Sr0 2.791857 1_555
O4 Sr2 2.791873 1_455
O5 Zn1 2.070303 1_555
O5 Sr5 2.378404 1_555
O5 Sr1 2.791861 1_565
O5 Sr3 2.791877 1_555
O6 Zn2 2.070290 1_565
O6 Sr6 2.378404 1_565
O6 Sr2 2.791849 1_565
O6 Sr0 2.791879 1_555
O7 Zn3 2.070278 1_555
O7 Sr7 2.378417 1_555
O7 Sr3 2.791852 1_555
O7 Sr1 2.791860 1_455
O8 Sr0 2.485114 1_555
O8 Sr6 2.782537 1_565
O8 Sr4 2.782564 1_455
O9 Sr1 2.485278 1_555
O9 Sr5 2.782500 1_545
O9 Sr7 2.782521 1_655
O10 Sr2 2.485089 1_555
O10 Sr4 2.782556 1_555
O10 Sr6 2.782573 1_555
O11 Sr3 2.485052 1_555
O11 Sr7 2.782583 1_555
O11 Sr5 2.782607 1_555
O12 Sr0 2.775470 1_555
O12 Sr2 2.775540 1_555
O13 Sr3 2.775440 1_555
O13 Sr1 2.775512 1_465
O14 Sr2 2.775434 1_465
O14 Sr0 2.775541 1_555
O15 Sr1 2.775498 1_555
O15 Sr3 2.775545 1_555
O16 Zn3 2.028963 1_655
O16 Sr1 2.659586 1_555
O16 Sr4 2.661459 1_555
O17 Zn0 2.028776 1_554
O17 Sr2 2.659681 1_554
O17 Sr5 2.661392 1_555
O18 Zn1 2.028980 1_555
O18 Sr3 2.659539 1_555
O18 Sr6 2.661457 1_565
O19 Zn2 2.028964 1_564
O19 Sr0 2.659636 1_554
O19 Sr7 2.661375 1_565
O20 Zn3 2.028823 1_555
O20 Sr3 2.659651 1_555
O20 Sr6 2.661400 1_555
O21 Zn0 2.028956 1_454
O21 Sr0 2.659533 1_554
O21 Sr7 2.661474 1_555
O22 Zn1 2.028831 1_455
O22 Sr1 2.659679 1_465
O22 Sr4 2.661375 1_455
O23 Zn2 2.029120 1_554
O23 Sr2 2.659577 1_554
O23 Sr5 2.661437 1_545
O24 Zn3 2.028974 1_555
O24 Sr3 2.659544 1_555
O24 Sr4 2.661456 1_455
O25 Zn0 2.028957 1_454
O25 Sr0 2.659629 1_554
O25 Sr5 2.661359 1_455
O26 Zn1 2.029004 1_545
O26 Sr1 2.659593 1_555
O26 Sr6 2.661474 1_555
O27 Zn2 2.028777 1_554
O27 Sr2 2.659666 1_554
O27 Sr7 2.661401 1_555
O28 Zn3 2.028824 1_565
O28 Sr1 2.659661 1_465
O28 Sr6 2.661367 1_565
O29 Zn0 2.029113 1_554
O29 Sr2 2.659585 1_554
O29 Sr7 2.661448 1_655
O30 Zn1 2.028840 1_555
O30 Sr3 2.659653 1_555
O30 Sr4 2.661391 1_555
O31 Zn2 2.028942 1_564
O31 Sr0 2.659535 1_554
O31 Sr5 2.661473 1_555
