# generated using pymatgen
data_Zn2P3H10C(NO4)3
_symmetry_space_group_name_H-M   'P 1'
_cell_length_a   5.24240993
_cell_length_b   7.93501500
_cell_length_c   16.67984456
_cell_angle_alpha   90.00000000
_cell_angle_beta   90.22769994
_cell_angle_gamma   90.00000000
_symmetry_Int_Tables_number   1
_chemical_formula_structural   Zn2P3H10C(NO4)3
_chemical_formula_sum   'Zn4 P6 H20 C2 N6 O24'
_cell_volume   693.85272720
_cell_formula_units_Z   2
loop_
 _symmetry_equiv_pos_site_id
 _symmetry_equiv_pos_as_xyz
  1  'x, y, z'
loop_
 _atom_site_type_symbol
 _atom_site_label
 _atom_site_symmetry_multiplicity
 _atom_site_fract_x
 _atom_site_fract_y
 _atom_site_fract_z
 _atom_site_occupancy
  Zn  Zn0  1  0.30380000  0.00275700  0.07912400  1
  Zn  Zn1  1  0.69620000  0.50275700  0.92087600  1
  Zn  Zn2  1  0.29914100  0.22489900  0.41453400  1
  Zn  Zn3  1  0.70085900  0.72489900  0.58546600  1
  P  P0  1  0.20470900  0.60131100  0.49924900  1
  P  P1  1  0.79529100  0.10131100  0.50075100  1
  P  P2  1  0.04617400  0.12175800  0.24642600  1
  P  P3  1  0.95382600  0.62175800  0.75357400  1
  P  P4  1  0.19627400  0.61895300  0.01079700  1
  P  P5  1  0.80372500  0.11895300  0.98920300  1
  H  H0  1  0.14434900  0.03199700  0.83044500  1
  H  H1  1  0.85565100  0.53199700  0.16955500  1
  H  H2  1  0.78249300  0.03439900  0.33856000  1
  H  H3  1  0.21750700  0.53439900  0.66144000  1
  H  H4  1  0.18065700  0.34503600  0.04113000  1
  H  H5  1  0.81934300  0.84503600  0.95887000  1
  H  H6  1  0.31783500  0.76832000  0.23019700  1
  H  H7  1  0.68216500  0.26832000  0.76980300  1
  H  H8  1  0.89821500  0.46496900  0.30684400  1
  H  H9  1  0.10178500  0.96496900  0.69315600  1
  H  H10  1  0.59745100  0.65007700  0.13689700  1
  H  H11  1  0.40254900  0.15007700  0.86310300  1
  H  H12  1  0.33384800  0.70755400  0.32924600  1
  H  H13  1  0.66615200  0.20755400  0.67075400  1
  H  H14  1  0.17426000  0.87589400  0.46158400  1
  H  H15  1  0.82574000  0.37589400  0.53841600  1
  H  H16  1  0.77302400  0.18085100  0.14897800  1
  H  H17  1  0.22697600  0.68085100  0.85102200  1
  H  H18  1  0.33274800  0.03564200  0.62668700  1
  H  H19  1  0.66725200  0.53564200  0.37331300  1
  C  C0  1  0.38386000  0.11259500  0.74236600  1
  C  C1  1  0.61614000  0.61259500  0.25763400  1
  N  N0  1  0.39214900  0.68794600  0.27169600  1
  N  N1  1  0.60785100  0.18794600  0.72830400  1
  N  N2  1  0.25395100  0.04102500  0.68223400  1
  N  N3  1  0.74604900  0.54102500  0.31776600  1
  N  N4  1  0.28859300  0.11215300  0.81692100  1
  N  N5  1  0.71140700  0.61215300  0.18307900  1
  O  O0  1  0.31417900  0.46008500  0.44828300  1
  O  O1  1  0.68582100  0.96008500  0.55171700  1
  O  O2  1  0.22398300  0.45667800  0.06596100  1
  O  O3  1  0.77601700  0.95667800  0.93403900  1
  O  O4  1  0.64699500  0.13096800  0.42131800  1
  O  O5  1  0.35300500  0.63096800  0.57868200  1
  O  O6  1  0.08123300  0.07233400  0.48066700  1
  O  O7  1  0.91876700  0.57233400  0.51933300  1
  O  O8  1  0.22326500  0.01975700  0.19306800  1
  O  O9  1  0.77673500  0.51975700  0.80693200  1
  O  O10  1  0.65418000  0.09112200  0.06814100  1
  O  O11  1  0.34582000  0.59112200  0.93185900  1
  O  O12  1  0.30486000  0.75911800  0.06352100  1
  O  O13  1  0.69514000  0.25911800  0.93647900  1
  O  O14  1  0.23528500  0.76214800  0.44277600  1
  O  O15  1  0.76471500  0.26214800  0.55722400  1
  O  O16  1  0.11846600  0.48560500  0.70710300  1
  O  O17  1  0.88153400  0.98560500  0.29289700  1
  O  O18  1  0.08882300  0.14990300  0.01060200  1
  O  O19  1  0.91117700  0.64990300  0.98939800  1
  O  O20  1  0.17388800  0.24369500  0.30465800  1
  O  O21  1  0.82611200  0.74369500  0.69534200  1
  O  O22  1  0.86106600  0.23825100  0.19535500  1
  O  O23  1  0.13893400  0.73825100  0.80464500  1
loop_
_geom_bond_atom_site_label_1
_geom_bond_atom_site_label_2
_geom_bond_distance
_geom_bond_site_symmetry_2
H0 N4 1.014201 1_555
H1 N5 1.014201 1_555
H2 O17 1.001373 1_545
H2 O4 1.733502 1_555
H3 O16 1.001373 1_555
H3 O5 1.733502 1_555
H4 O2 1.003578 1_555
H4 O18 1.699001 1_555
H5 O3 1.003578 1_555
H5 O19 1.699001 1_555
H6 N0 1.017604 1_555
H7 N1 1.017604 1_555
H8 N3 1.017307 1_555
H9 N2 1.017307 1_565
H10 N5 1.018414 1_555
H11 N4 1.018414 1_555
H12 N0 1.020495 1_555
H13 N1 1.020495 1_555
H14 O14 1.008070 1_555
H14 O6 1.664362 1_565
H15 O15 1.008070 1_555
H15 O7 1.664362 1_555
H16 O22 1.007989 1_555
H16 O10 1.645138 1_555
H17 O23 1.007989 1_555
H17 O11 1.645138 1_555
H18 N2 1.016827 1_555
H19 N3 1.016827 1_555
C0 N2 1.336748 1_555
C0 N1 1.339243 1_555
C0 N4 1.341951 1_555
C1 N3 1.336748 1_555
C1 N0 1.339243 1_555
C1 N5 1.341951 1_555
O0 P0 1.520432 1_555
O0 Zn2 1.950761 1_555
O1 P1 1.520432 1_565
O1 Zn3 1.950761 1_555
O2 P4 1.588939 1_555
O3 P5 1.588938 1_565
O4 P1 1.551460 1_555
O4 Zn2 1.972864 1_555
O5 P0 1.551460 1_555
O5 Zn3 1.972864 1_555
O6 P1 1.554400 1_455
O6 Zn2 1.999345 1_555
O7 P0 1.554400 1_655
O7 Zn3 1.999345 1_555
O8 P2 1.521731 1_555
O8 Zn0 1.953199 1_555
O9 P3 1.521731 1_555
O9 Zn1 1.953199 1_555
O10 P5 1.550878 1_554
O10 Zn0 1.975310 1_555
O11 P4 1.550881 1_556
O11 Zn1 1.975310 1_555
O12 P4 1.526590 1_555
O12 Zn0 1.950729 1_565
O13 P5 1.526588 1_555
O13 Zn1 1.950729 1_555
O14 P0 1.594673 1_555
O15 P1 1.594673 1_555
O16 P3 1.586920 1_455
O17 P2 1.586920 1_665
O18 P5 1.554768 1_454
O18 Zn0 1.982295 1_555
O19 P4 1.554763 1_656
O19 Zn1 1.982295 1_555
O20 P2 1.524048 1_555
O20 Zn2 1.950047 1_555
O21 P3 1.524048 1_555
O21 Zn3 1.950047 1_555
O22 P2 1.585956 1_655
O23 P3 1.585956 1_455
