# generated using pymatgen
data_Y3Zn11
_symmetry_space_group_name_H-M   'P 1'
_cell_length_a   4.33099412
_cell_length_b   8.07215582
_cell_length_c   8.07215582
_cell_angle_alpha   66.14846174
_cell_angle_beta   74.43880104
_cell_angle_gamma   74.43880104
_symmetry_Int_Tables_number   1
_chemical_formula_structural   Y3Zn11
_chemical_formula_sum   'Y3 Zn11'
_cell_volume   244.52065431
_cell_formula_units_Z   1
loop_
 _symmetry_equiv_pos_site_id
 _symmetry_equiv_pos_as_xyz
  1  'x, y, z'
loop_
 _atom_site_type_symbol
 _atom_site_label
 _atom_site_symmetry_multiplicity
 _atom_site_fract_x
 _atom_site_fract_y
 _atom_site_fract_z
 _atom_site_occupancy
  Y  Y0  1  0.00000000  0.00000000  -0.00000000  1
  Y  Y1  1  0.29444423  0.70555577  0.70555577  1
  Y  Y2  1  0.70555577  0.29444423  0.29444423  1
  Zn  Zn0  1  0.00000000  0.50000000  0.50000000  1
  Zn  Zn1  1  0.50000000  0.31407342  0.68592658  1
  Zn  Zn2  1  0.50000000  0.68592658  0.31407342  1
  Zn  Zn3  1  0.34176964  0.29778588  0.01867485  1
  Zn  Zn4  1  0.65823036  0.70221412  0.98132515  1
  Zn  Zn5  1  0.34176964  0.01867485  0.29778588  1
  Zn  Zn6  1  0.65823036  0.98132515  0.70221412  1
  Zn  Zn7  1  0.13885922  0.57906851  0.14321406  1
  Zn  Zn8  1  0.86114078  0.42093149  0.85678594  1
  Zn  Zn9  1  0.13885922  0.14321406  0.57906851  1
  Zn  Zn10  1  0.86114078  0.85678594  0.42093149  1
loop_
_geom_bond_atom_site_label_1
_geom_bond_atom_site_label_2
_geom_bond_distance
_geom_bond_site_symmetry_2
Y0 Zn9 3.056669 1_554
Y0 Zn7 3.056669 1_545
Y0 Zn10 3.056669 1_445
Y0 Zn8 3.056669 1_454
Y0 Zn5 3.211488 1_455
Y0 Zn3 3.211488 1_455
Y0 Zn6 3.211488 1_544
Y0 Zn4 3.211488 1_544
Y0 Zn3 3.211488 1_555
Y0 Zn4 3.211488 1_444
Y0 Zn6 3.211488 1_444
Y0 Zn5 3.211488 1_555
Y0 Y1 3.773701 1_544
Y0 Y2 3.773701 1_455
Y1 Zn8 3.017704 1_555
Y1 Zn10 3.017704 1_555
Y1 Zn8 3.017707 1_455
Y1 Zn10 3.017707 1_455
Y1 Zn4 3.041188 1_555
Y1 Zn6 3.041188 1_555
Y1 Zn4 3.041188 1_455
Y1 Zn6 3.041188 1_455
Y1 Zn2 3.102219 1_555
Y1 Zn1 3.102219 1_555
Y1 Zn9 3.186255 1_565
Y1 Zn7 3.186255 1_556
Y1 Zn3 3.233049 1_556
Y1 Zn5 3.233049 1_565
Y1 Zn0 3.410255 1_655
Y1 Zn0 3.410255 1_555
Y2 Zn9 3.017704 1_555
Y2 Zn7 3.017704 1_555
Y2 Zn9 3.017707 1_655
Y2 Zn7 3.017707 1_655
Y2 Zn5 3.041188 1_555
Y2 Zn3 3.041188 1_555
Y2 Zn5 3.041188 1_655
Y2 Zn3 3.041188 1_655
Y2 Zn2 3.102219 1_555
Y2 Zn1 3.102219 1_555
Y2 Zn10 3.186255 1_545
Y2 Zn8 3.186255 1_554
Y2 Zn4 3.233049 1_554
Y2 Zn6 3.233049 1_545
Y2 Zn0 3.410255 1_655
Y2 Zn0 3.410255 1_555
Zn0 Zn10 2.617950 1_455
Zn0 Zn9 2.617950 1_555
Zn0 Zn8 2.617950 1_455
Zn0 Zn7 2.617950 1_555
Zn0 Zn1 2.715268 1_455
Zn0 Zn1 2.715268 1_555
Zn0 Zn2 2.715268 1_455
Zn0 Zn2 2.715268 1_555
Zn1 Zn3 2.544923 1_556
Zn1 Zn6 2.544923 1_545
Zn1 Zn9 2.817100 1_555
Zn1 Zn8 2.817100 1_555
Zn1 Zn8 2.817104 1_455
Zn1 Zn9 2.817104 1_655
Zn2 Zn5 2.544923 1_565
Zn2 Zn4 2.544923 1_554
Zn2 Zn7 2.817100 1_555
Zn2 Zn7 2.817104 1_655
Zn3 Zn5 2.459068 1_555
Zn3 Zn8 2.515474 1_554
Zn3 Zn8 2.515478 1_454
Zn3 Zn7 2.690682 1_555
Zn4 Zn6 2.459068 1_555
Zn4 Zn7 2.515474 1_556
Zn4 Zn7 2.515478 1_656
Zn4 Zn8 2.690682 1_555
Zn5 Zn9 2.690682 1_555
Zn6 Zn9 2.515474 1_565
Zn6 Zn9 2.515478 1_665
Zn10 Zn5 2.515474 1_565
Zn10 Zn5 2.515478 1_665
Zn10 Zn6 2.690682 1_555
Zn10 Zn2 2.817100 1_555
Zn10 Zn2 2.817104 1_655
