# generated using pymatgen
data_BaSr11Al4(O4F)4
_symmetry_space_group_name_H-M   'P 1'
_cell_length_a   6.87853100
_cell_length_b   6.87853100
_cell_length_c   11.29261300
_cell_angle_alpha   90.00000000
_cell_angle_beta   90.00000000
_cell_angle_gamma   90.00000000
_symmetry_Int_Tables_number   1
_chemical_formula_structural   BaSr11Al4(O4F)4
_chemical_formula_sum   'Ba1 Sr11 Al4 O16 F4'
_cell_volume   534.30082260
_cell_formula_units_Z   1
loop_
 _symmetry_equiv_pos_site_id
 _symmetry_equiv_pos_as_xyz
  1  'x, y, z'
loop_
 _atom_site_type_symbol
 _atom_site_label
 _atom_site_symmetry_multiplicity
 _atom_site_fract_x
 _atom_site_fract_y
 _atom_site_fract_z
 _atom_site_occupancy
  Ba  Ba0  1  0.50000000  0.50000000  0.00000000  1
  Sr  Sr0  1  0.66952500  0.16800900  0.74922500  1
  Sr  Sr1  1  0.16800900  0.66952500  0.25077500  1
  Sr  Sr2  1  0.83199100  0.33047500  0.25077500  1
  Sr  Sr3  1  0.33047500  0.83199100  0.74922500  1
  Sr  Sr4  1  0.83199100  0.66952500  0.74922500  1
  Sr  Sr5  1  0.33047500  0.16800900  0.25077500  1
  Sr  Sr6  1  0.66952500  0.83199100  0.25077500  1
  Sr  Sr7  1  0.16800900  0.33047500  0.74922500  1
  Sr  Sr8  1  0.00000000  0.00000000  0.50000000  1
  Sr  Sr9  1  0.00000000  0.00000000  0.00000000  1
  Sr  Sr10  1  0.50000000  0.50000000  0.50000000  1
  Al  Al0  1  0.00000000  0.50000000  0.00000000  1
  Al  Al1  1  0.50000000  0.00000000  0.50000000  1
  Al  Al2  1  0.50000000  0.00000000  0.00000000  1
  Al  Al3  1  0.00000000  0.50000000  0.50000000  1
  O  O0  1  0.64431700  0.13734700  0.10291500  1
  O  O1  1  0.14160900  0.64211600  0.60169500  1
  O  O2  1  0.35568300  0.86265300  0.10291500  1
  O  O3  1  0.85839100  0.35788400  0.60169500  1
  O  O4  1  0.86265300  0.64431700  0.10291500  1
  O  O5  1  0.35788400  0.14160900  0.60169500  1
  O  O6  1  0.13734700  0.35568300  0.10291500  1
  O  O7  1  0.64211600  0.85839100  0.60169500  1
  O  O8  1  0.86265300  0.35568300  0.89708500  1
  O  O9  1  0.35788400  0.85839100  0.39830500  1
  O  O10  1  0.13734700  0.64431700  0.89708500  1
  O  O11  1  0.64211600  0.14160900  0.39830500  1
  O  O12  1  0.64431700  0.86265300  0.89708500  1
  O  O13  1  0.14160900  0.35788400  0.39830500  1
  O  O14  1  0.35568300  0.13734700  0.89708500  1
  O  O15  1  0.85839100  0.64211600  0.39830500  1
  F  F0  1  0.50000000  0.50000000  0.25438700  1
  F  F1  1  0.00000000  0.00000000  0.74940700  1
  F  F2  1  0.00000000  0.00000000  0.25059300  1
  F  F3  1  0.50000000  0.50000000  0.74561300  1
loop_
_geom_bond_atom_site_label_1
_geom_bond_atom_site_label_2
_geom_bond_distance
_geom_bond_site_symmetry_2
Ba0 F0 2.872694 1_555
Ba0 F3 2.872694 1_554
Ba0 O8 2.925529 1_554
Ba0 O6 2.925529 1_555
Ba0 O12 2.925529 1_554
Ba0 O10 2.925529 1_554
Ba0 O0 2.925529 1_555
Ba0 O2 2.925529 1_555
Ba0 O14 2.925529 1_554
Ba0 O4 2.925529 1_555
Al0 O8 1.796841 1_454
Al0 O6 1.796841 1_555
Al0 O10 1.796841 1_554
Al0 O4 1.796841 1_455
Al1 O9 1.795335 1_545
Al1 O7 1.795335 1_545
Al1 O5 1.795335 1_555
Al1 O11 1.795335 1_555
Al2 O14 1.796841 1_554
Al2 O2 1.796841 1_545
Al2 O12 1.796841 1_544
Al2 O0 1.796841 1_555
Al3 O3 1.795335 1_455
Al3 O15 1.795335 1_455
Al3 O13 1.795335 1_555
Al3 O1 1.795335 1_555
O0 Sr2 2.493834 1_555
O0 Sr6 2.688816 1_545
O0 Sr5 2.737291 1_555
O0 Sr9 2.868613 1_655
O1 Sr3 2.483760 1_555
O1 Sr4 2.710497 1_455
O1 Sr7 2.720972 1_555
O1 Sr8 2.885770 1_565
O1 Sr10 2.889924 1_555
O2 Sr1 2.493834 1_555
O2 Sr5 2.688816 1_565
O2 Sr6 2.737291 1_555
O2 Sr9 2.868613 1_565
O3 Sr0 2.483760 1_555
O3 Sr7 2.710497 1_655
O3 Sr4 2.720972 1_555
O3 Sr8 2.885770 1_655
O3 Sr10 2.889924 1_555
O4 Sr6 2.493834 1_555
O4 Sr1 2.688816 1_655
O4 Sr2 2.737291 1_555
O4 Sr9 2.868613 1_665
O5 Sr7 2.483760 1_555
O5 Sr3 2.710497 1_545
O5 Sr0 2.720972 1_555
O5 Sr8 2.885770 1_555
O5 Sr10 2.889924 1_555
O6 Sr5 2.493834 1_555
O6 Sr2 2.688816 1_455
O6 Sr1 2.737291 1_555
O6 Sr9 2.868613 1_555
O7 Sr4 2.483760 1_555
O7 Sr0 2.710497 1_565
O7 Sr3 2.720972 1_555
O7 Sr8 2.885770 1_665
O7 Sr10 2.889924 1_555
O8 Sr0 2.493834 1_555
O8 Sr7 2.688816 1_655
O8 Sr4 2.737291 1_555
O8 Sr9 2.868613 1_656
O9 Sr1 2.483760 1_555
O9 Sr5 2.710497 1_565
O9 Sr6 2.720972 1_555
O9 Sr8 2.885770 1_565
O9 Sr10 2.889924 1_555
O10 Sr3 2.493834 1_555
O10 Sr4 2.688816 1_455
O10 Sr7 2.737291 1_555
O10 Sr9 2.868613 1_566
O11 Sr2 2.483760 1_555
O11 Sr6 2.710497 1_545
O11 Sr5 2.720972 1_555
O11 Sr8 2.885770 1_655
O11 Sr10 2.889924 1_555
O12 Sr4 2.493834 1_555
O12 Sr0 2.688816 1_565
O12 Sr3 2.737291 1_555
O12 Sr9 2.868613 1_666
O13 Sr5 2.483760 1_555
O13 Sr2 2.710497 1_455
O13 Sr1 2.720972 1_555
O13 Sr8 2.885770 1_555
O13 Sr10 2.889924 1_555
O14 Sr7 2.493834 1_555
O14 Sr3 2.688816 1_545
O14 Sr0 2.737291 1_555
O14 Sr9 2.868613 1_556
O15 Sr6 2.483760 1_555
O15 Sr1 2.710497 1_655
O15 Sr2 2.720972 1_555
O15 Sr8 2.885770 1_665
O15 Sr10 2.889924 1_555
F0 Sr1 2.564428 1_555
F0 Sr2 2.564428 1_555
F0 Sr5 2.564428 1_555
F0 Sr6 2.564428 1_555
F0 Sr10 2.773613 1_555
F1 Sr0 2.550079 1_455
F1 Sr4 2.550079 1_445
F1 Sr7 2.550079 1_555
F1 Sr3 2.550079 1_545
F1 Sr8 2.816457 1_555
F1 Sr9 2.829850 1_556
F2 Sr6 2.550079 1_445
F2 Sr1 2.550079 1_545
F2 Sr2 2.550079 1_455
F2 Sr5 2.550079 1_555
F2 Sr8 2.816457 1_555
F2 Sr9 2.829850 1_555
F3 Sr7 2.564428 1_555
F3 Sr4 2.564428 1_555
F3 Sr3 2.564428 1_555
F3 Sr0 2.564428 1_555
F3 Sr10 2.773613 1_555
