# generated using pymatgen
data_Zn2CuWO6
_symmetry_space_group_name_H-M   'P 1'
_cell_length_a   4.99057600
_cell_length_b   5.37711745
_cell_length_c   5.42579937
_cell_angle_alpha   114.93980258
_cell_angle_beta   116.11797294
_cell_angle_gamma   89.82371542
_symmetry_Int_Tables_number   1
_chemical_formula_structural   Zn2CuWO6
_chemical_formula_sum   'Zn2 Cu1 W1 O6'
_cell_volume   115.52456000
_cell_formula_units_Z   1
loop_
 _symmetry_equiv_pos_site_id
 _symmetry_equiv_pos_as_xyz
  1  'x, y, z'
loop_
 _atom_site_type_symbol
 _atom_site_label
 _atom_site_symmetry_multiplicity
 _atom_site_fract_x
 _atom_site_fract_y
 _atom_site_fract_z
 _atom_site_occupancy
  Zn  Zn0  1  0.28807300  0.81928300  0.53682600  1
  Zn  Zn1  1  0.73012000  0.34217700  0.52926700  1
  Cu  Cu0  1  0.48179700  0.48327400  0.98335800  1
  W  W0  1  0.99156400  0.98092700  0.98821000  1
  O  O0  1  0.69413900  0.18758700  0.81103000  1
  O  O1  1  0.24541900  0.73963600  0.13269300  1
  O  O2  1  0.99860200  0.14459900  0.37509200  1
  O  O3  1  0.34269100  0.23433400  0.10732000  1
  O  O4  1  0.60362400  0.67803500  0.80457000  1
  O  O5  1  0.93522600  0.73075100  0.57569500  1
loop_
_geom_bond_atom_site_label_1
_geom_bond_atom_site_label_2
_geom_bond_distance
_geom_bond_site_symmetry_2
Cu0 O4 1.946113 1_555
Cu0 O1 1.959071 1_556
Cu0 O3 1.975400 1_556
Cu0 O0 2.033091 1_555
O0 W0 1.999165 1_545
O0 Zn1 2.091588 1_555
O0 Zn0 2.264422 1_545
O1 Zn0 1.958187 1_555
O1 W0 1.968797 1_454
O2 W0 1.886656 1_544
O2 Zn1 1.962735 1_555
O2 Zn0 2.465723 1_645
O3 W0 1.902620 1_444
O3 Zn1 2.075092 1_555
O4 Zn0 2.018941 1_555
O4 W0 2.084728 1_555
O4 Zn1 2.107004 1_555
O5 Zn0 1.946457 1_655
O5 W0 1.951255 1_555
O5 Zn1 2.195243 1_555
