# generated using pymatgen
data_YbI2O
_symmetry_space_group_name_H-M   'P 1'
_cell_length_a   5.12551300
_cell_length_b   8.76074400
_cell_length_c   11.46804000
_cell_angle_alpha   90.00000000
_cell_angle_beta   90.00000000
_cell_angle_gamma   90.00000000
_symmetry_Int_Tables_number   1
_chemical_formula_structural   YbI2O
_chemical_formula_sum   'Yb4 I8 O4'
_cell_volume   514.95292381
_cell_formula_units_Z   4
loop_
 _symmetry_equiv_pos_site_id
 _symmetry_equiv_pos_as_xyz
  1  'x, y, z'
loop_
 _atom_site_type_symbol
 _atom_site_label
 _atom_site_symmetry_multiplicity
 _atom_site_fract_x
 _atom_site_fract_y
 _atom_site_fract_z
 _atom_site_occupancy
  Yb  Yb0  1  0.75000000  0.27966800  0.43071100  1
  Yb  Yb1  1  0.75000000  0.77966800  0.06928900  1
  Yb  Yb2  1  0.25000000  0.72033200  0.56928900  1
  Yb  Yb3  1  0.25000000  0.22033200  0.93071100  1
  I  I0  1  0.75000000  0.52834700  0.64164400  1
  I  I1  1  0.75000000  0.02834700  0.85835600  1
  I  I2  1  0.25000000  0.47165300  0.35835600  1
  I  I3  1  0.25000000  0.97165300  0.14164400  1
  I  I4  1  0.25000000  0.16434600  0.61078900  1
  I  I5  1  0.25000000  0.66434600  0.88921100  1
  I  I6  1  0.75000000  0.83565400  0.38921100  1
  I  I7  1  0.75000000  0.33565400  0.11078900  1
  O  O0  1  0.75000000  0.05513500  0.37920500  1
  O  O1  1  0.75000000  0.55513500  0.12079500  1
  O  O2  1  0.25000000  0.94486500  0.62079500  1
  O  O3  1  0.25000000  0.44486500  0.87920500  1
loop_
_geom_bond_atom_site_label_1
_geom_bond_atom_site_label_2
_geom_bond_distance
_geom_bond_site_symmetry_2
I0 Yb2 3.175710 1_555
I0 Yb2 3.175710 1_655
I0 Yb0 3.255435 1_555
I1 Yb3 3.175710 1_655
I1 Yb3 3.175710 1_555
I1 Yb1 3.255435 1_546
I2 Yb0 3.175710 1_555
I2 Yb0 3.175710 1_455
I2 Yb2 3.255435 1_555
I3 Yb1 3.175710 1_455
I3 Yb1 3.175710 1_555
I3 Yb3 3.255435 1_564
I4 O2 1.926238 1_545
I5 O3 1.926238 1_555
I6 O0 1.926238 1_565
I7 O1 1.926238 1_555
O0 Yb0 2.053846 1_555
O1 Yb1 2.053846 1_555
O2 Yb2 2.053846 1_555
O3 Yb3 2.053846 1_555
