# generated using pymatgen
data_MnCr(Ni2Sn)2
_symmetry_space_group_name_H-M   'P 1'
_cell_length_a   7.43165857
_cell_length_b   7.43165857
_cell_length_c   7.43165870
_cell_angle_alpha   33.58642667
_cell_angle_beta   33.58642667
_cell_angle_gamma   33.58642813
_symmetry_Int_Tables_number   1
_chemical_formula_structural   MnCr(Ni2Sn)2
_chemical_formula_sum   'Mn1 Cr1 Ni4 Sn2'
_cell_volume   111.88613205
_cell_formula_units_Z   1
loop_
 _symmetry_equiv_pos_site_id
 _symmetry_equiv_pos_as_xyz
  1  'x, y, z'
loop_
 _atom_site_type_symbol
 _atom_site_label
 _atom_site_symmetry_multiplicity
 _atom_site_fract_x
 _atom_site_fract_y
 _atom_site_fract_z
 _atom_site_occupancy
  Mn  Mn0  1  0.50000000  0.50000000  0.50000000  1
  Cr  Cr0  1  0.00000000  0.00000000  0.00000000  1
  Ni  Ni0  1  0.62470300  0.62470300  0.62470300  1
  Ni  Ni1  1  0.12546900  0.12546900  0.12546900  1
  Ni  Ni2  1  0.87453100  0.87453100  0.87453100  1
  Ni  Ni3  1  0.37529700  0.37529700  0.37529700  1
  Sn  Sn0  1  0.25037800  0.25037800  0.25037800  1
  Sn  Sn1  1  0.74962200  0.74962200  0.74962200  1
loop_
_geom_bond_atom_site_label_1
_geom_bond_atom_site_label_2
_geom_bond_distance
_geom_bond_site_symmetry_2
Mn0 Ni3 2.620969 1_555
Mn0 Ni0 2.620969 1_555
Mn0 Ni2 2.626159 1_554
Mn0 Ni1 2.626159 1_556
Mn0 Ni2 2.626159 1_545
Mn0 Ni2 2.626159 1_455
Mn0 Ni1 2.626159 1_565
Mn0 Ni1 2.626159 1_655
Mn0 Sn1 3.040151 1_455
Mn0 Sn0 3.040151 1_655
Mn0 Sn0 3.040151 1_565
Mn0 Sn1 3.040151 1_545
Mn0 Sn0 3.040151 1_556
Mn0 Sn1 3.040151 1_554
Cr0 Ni0 2.631511 1_445
Cr0 Ni3 2.631511 1_554
Cr0 Ni3 2.631511 1_455
Cr0 Ni3 2.631511 1_545
Cr0 Ni0 2.631511 1_454
Cr0 Ni0 2.631511 1_544
Cr0 Ni1 2.637068 1_555
Cr0 Ni2 2.637068 1_444
Cr0 Sn0 3.030983 1_455
Cr0 Sn1 3.030983 1_544
Cr0 Sn1 3.030983 1_454
Cr0 Sn0 3.030983 1_545
Cr0 Sn0 3.030983 1_554
Cr0 Sn1 3.030983 1_445
Ni0 Sn0 2.624735 1_556
Ni0 Sn0 2.624735 1_565
Ni0 Sn0 2.624735 1_655
Ni0 Sn1 2.625509 1_555
Ni1 Sn0 2.625299 1_555
Ni1 Sn1 2.635408 1_445
Ni1 Sn1 2.635408 1_454
Ni1 Sn1 2.635408 1_544
Ni2 Sn1 2.625299 1_555
Ni2 Sn0 2.635408 1_665
Ni2 Sn0 2.635408 1_566
Ni2 Sn0 2.635408 1_656
Ni3 Sn1 2.624735 1_554
Ni3 Sn1 2.624735 1_545
Ni3 Sn1 2.624735 1_455
Ni3 Sn0 2.625509 1_555
