# generated using pymatgen
data_CeP3O14
_symmetry_space_group_name_H-M   'P 1'
_cell_length_a   6.68699202
_cell_length_b   12.92636744
_cell_length_c   13.53117862
_cell_angle_alpha   90.00000000
_cell_angle_beta   90.00000000
_cell_angle_gamma   90.00000000
_symmetry_Int_Tables_number   1
_chemical_formula_structural   CeP3O14
_chemical_formula_sum   'Ce4 P12 O56'
_cell_volume   1169.61499855
_cell_formula_units_Z   4
loop_
 _symmetry_equiv_pos_site_id
 _symmetry_equiv_pos_as_xyz
  1  'x, y, z'
loop_
 _atom_site_type_symbol
 _atom_site_label
 _atom_site_symmetry_multiplicity
 _atom_site_fract_x
 _atom_site_fract_y
 _atom_site_fract_z
 _atom_site_occupancy
  Ce  Ce0  1  0.19338109  0.26911920  0.70539782  1
  Ce  Ce1  1  0.19338109  0.73088080  0.29460218  1
  Ce  Ce2  1  0.80661891  0.23088080  0.20539782  1
  Ce  Ce3  1  0.80661891  0.76911920  0.79460218  1
  P  P0  1  0.29019092  0.84748158  0.87935355  1
  P  P1  1  0.29019092  0.15251842  0.12064645  1
  P  P2  1  0.70980908  0.65251842  0.37935355  1
  P  P3  1  0.70980908  0.34748158  0.62064645  1
  P  P4  1  0.97724670  0.69439810  0.54653716  1
  P  P5  1  0.97724670  0.30560190  0.45346284  1
  P  P6  1  0.02275330  0.80560190  0.04653716  1
  P  P7  1  0.02275330  0.19439810  0.95346284  1
  P  P8  1  0.03850679  0.02256840  0.81125717  1
  P  P9  1  0.03850679  0.97743160  0.18874283  1
  P  P10  1  0.96149321  0.47743160  0.31125717  1
  P  P11  1  0.96149321  0.52256840  0.68874283  1
  O  O0  1  0.76681890  0.33673435  0.50530501  1
  O  O1  1  0.76681890  0.66326565  0.49469499  1
  O  O2  1  0.23318110  0.16326565  0.00530501  1
  O  O3  1  0.23318110  0.83673435  0.99469499  1
  O  O4  1  0.76325733  0.53296721  0.35332745  1
  O  O5  1  0.76325733  0.46703279  0.64667255  1
  O  O6  1  0.23674267  0.96703279  0.85332745  1
  O  O7  1  0.23674267  0.03296721  0.14667255  1
  O  O8  1  0.04463652  0.41582176  0.40598559  1
  O  O9  1  0.04463652  0.58417824  0.59401441  1
  O  O10  1  0.95536348  0.08417824  0.90598559  1
  O  O11  1  0.95536348  0.91582176  0.09401441  1
  O  O12  1  0.48815308  0.33684651  0.62700296  1
  O  O13  1  0.48815308  0.66315349  0.37299704  1
  O  O14  1  0.51184692  0.16315349  0.12700296  1
  O  O15  1  0.51184692  0.83684651  0.87299704  1
  O  O16  1  0.15669243  0.77804035  0.81832862  1
  O  O17  1  0.15669243  0.22195965  0.18167138  1
  O  O18  1  0.84330757  0.72195965  0.31832862  1
  O  O19  1  0.84330757  0.27804035  0.68167138  1
  O  O20  1  0.06336083  0.26940216  0.87133724  1
  O  O21  1  0.06336083  0.73059784  0.12866276  1
  O  O22  1  0.93663917  0.23059784  0.37133724  1
  O  O23  1  0.93663917  0.76940216  0.62866276  1
  O  O24  1  0.87401215  0.77835956  0.96756223  1
  O  O25  1  0.87401215  0.22164044  0.03243777  1
  O  O26  1  0.12598785  0.72164044  0.46756223  1
  O  O27  1  0.12598785  0.27835956  0.53243777  1
  O  O28  1  0.88131820  0.94386923  0.78458686  1
  O  O29  1  0.88131820  0.05613077  0.21541314  1
  O  O30  1  0.11868180  0.55613077  0.28458686  1
  O  O31  1  0.11868180  0.44386923  0.71541314  1
  O  O32  1  0.89488882  0.59684683  0.76815310  1
  O  O33  1  0.89488882  0.40315317  0.23184690  1
  O  O34  1  0.10511118  0.90315317  0.26815310  1
  O  O35  1  0.10511118  0.09684683  0.73184690  1
  O  O36  1  0.53391773  0.58899446  0.90748828  1
  O  O37  1  0.53391773  0.41100554  0.09251172  1
  O  O38  1  0.46608227  0.91100554  0.40748828  1
  O  O39  1  0.46608227  0.08899446  0.59251172  1
  O  O40  1  0.49891183  0.83917317  0.66234348  1
  O  O41  1  0.49891183  0.16082683  0.33765652  1
  O  O42  1  0.50108817  0.66082683  0.16234348  1
  O  O43  1  0.50108817  0.33917317  0.83765652  1
  O  O44  1  0.55290850  0.72768995  0.69778636  1
  O  O45  1  0.55290850  0.27231005  0.30221364  1
  O  O46  1  0.44709150  0.77231005  0.19778636  1
  O  O47  1  0.44709150  0.22768995  0.80221364  1
  O  O48  1  0.64129816  0.65753645  0.10088490  1
  O  O49  1  0.64129816  0.34246355  0.89911510  1
  O  O50  1  0.35870184  0.84246355  0.60088490  1
  O  O51  1  0.35870184  0.15753645  0.39911510  1
  O  O52  1  0.64713930  0.92406015  0.41754730  1
  O  O53  1  0.64713930  0.07593985  0.58245270  1
  O  O54  1  0.35286070  0.57593985  0.91754730  1
  O  O55  1  0.35286070  0.42406015  0.08245270  1
loop_
_geom_bond_atom_site_label_1
_geom_bond_atom_site_label_2
_geom_bond_distance
_geom_bond_site_symmetry_2
Ce0 O47 2.209364 1_555
Ce0 O31 2.317419 1_555
Ce0 O35 2.331390 1_555
Ce0 O19 2.365664 1_455
Ce0 O27 2.386339 1_555
Ce0 O12 2.403554 1_555
Ce0 O20 2.407814 1_555
Ce1 O46 2.209364 1_555
Ce1 O30 2.317419 1_555
Ce1 O34 2.331390 1_555
Ce1 O18 2.365664 1_455
Ce1 O26 2.386339 1_555
Ce1 O13 2.403554 1_555
Ce1 O21 2.407814 1_555
Ce2 O45 2.209364 1_555
Ce2 O29 2.317419 1_555
Ce2 O33 2.331390 1_555
Ce2 O17 2.365664 1_655
Ce2 O25 2.386339 1_555
Ce2 O14 2.403554 1_555
Ce2 O22 2.407814 1_555
Ce3 O44 2.209364 1_555
Ce3 O28 2.317419 1_555
Ce3 O32 2.331390 1_555
Ce3 O16 2.365664 1_655
Ce3 O24 2.386339 1_555
Ce3 O15 2.403554 1_555
Ce3 O23 2.407814 1_555
O0 P3 1.612586 1_555
O0 P5 1.622974 1_555
O1 P2 1.612586 1_555
O1 P4 1.622974 1_555
O2 P1 1.612586 1_555
O2 P7 1.622974 1_554
O3 P0 1.612586 1_555
O3 P6 1.622974 1_556
O4 P10 1.611403 1_555
O4 P2 1.624779 1_555
O5 P11 1.611403 1_555
O5 P3 1.624779 1_555
O6 P8 1.611403 1_565
O6 P0 1.624779 1_555
O7 P9 1.611403 1_545
O7 P1 1.624779 1_555
O8 P10 1.608207 1_455
O8 P5 1.626552 1_455
O9 P11 1.608207 1_455
O9 P4 1.626552 1_455
O10 P8 1.608207 1_655
O10 P7 1.626552 1_655
O11 P9 1.608207 1_655
O11 P6 1.626552 1_655
O12 P3 1.491056 1_555
O13 P2 1.491056 1_555
O14 P1 1.491056 1_555
O15 P0 1.491056 1_555
O16 P0 1.511453 1_555
O17 P1 1.511453 1_555
O18 P2 1.511453 1_555
O19 P3 1.511453 1_555
O20 P7 1.499538 1_555
O21 P6 1.499538 1_555
O22 P5 1.499538 1_555
O23 P4 1.499538 1_555
O24 P6 1.501750 1_656
O25 P7 1.501750 1_654
O26 P4 1.501750 1_455
O27 P5 1.501750 1_455
O28 P8 1.506643 1_665
O29 P9 1.506643 1_645
O30 P10 1.506643 1_455
O31 P11 1.506643 1_455
O32 P11 1.508256 1_555
O33 P10 1.508256 1_555
O34 P9 1.508256 1_555
O35 P8 1.508256 1_555
O36 O54 1.229984 1_555
O37 O55 1.229984 1_555
O38 O52 1.229984 1_555
O39 O53 1.229984 1_555
O40 O50 1.253970 1_555
O40 O44 1.561111 1_555
O41 O51 1.253970 1_555
O41 O45 1.561111 1_555
O42 O48 1.253970 1_555
O42 O46 1.561111 1_555
O43 O49 1.253970 1_555
O43 O47 1.561111 1_555
