# generated using pymatgen
data_ZrIn2O5
_symmetry_space_group_name_H-M   'P 1'
_cell_length_a   3.70622800
_cell_length_b   7.50272700
_cell_length_c   15.62089100
_cell_angle_alpha   90.00000000
_cell_angle_beta   90.00000000
_cell_angle_gamma   90.00000000
_symmetry_Int_Tables_number   1
_chemical_formula_structural   ZrIn2O5
_chemical_formula_sum   'Zr4 In8 O20'
_cell_volume   434.36725560
_cell_formula_units_Z   4
loop_
 _symmetry_equiv_pos_site_id
 _symmetry_equiv_pos_as_xyz
  1  'x, y, z'
loop_
 _atom_site_type_symbol
 _atom_site_label
 _atom_site_symmetry_multiplicity
 _atom_site_fract_x
 _atom_site_fract_y
 _atom_site_fract_z
 _atom_site_occupancy
  Zr  Zr0  1  0.25000000  0.11147900  0.57937900  1
  Zr  Zr1  1  0.25000000  0.61147900  0.92062100  1
  Zr  Zr2  1  0.75000000  0.88852100  0.42062100  1
  Zr  Zr3  1  0.75000000  0.38852100  0.07937900  1
  In  In0  1  0.25000000  0.09487600  0.91434900  1
  In  In1  1  0.25000000  0.59487600  0.58565100  1
  In  In2  1  0.75000000  0.90512400  0.08565100  1
  In  In3  1  0.75000000  0.40512400  0.41434900  1
  In  In4  1  0.75000000  0.32105900  0.76107500  1
  In  In5  1  0.75000000  0.82105900  0.73892500  1
  In  In6  1  0.25000000  0.67894100  0.23892500  1
  In  In7  1  0.25000000  0.17894100  0.26107500  1
  O  O0  1  0.25000000  0.24868300  0.68892900  1
  O  O1  1  0.25000000  0.74868300  0.81107100  1
  O  O2  1  0.75000000  0.75131700  0.31107100  1
  O  O3  1  0.75000000  0.25131700  0.18892900  1
  O  O4  1  0.25000000  0.35649000  0.50264500  1
  O  O5  1  0.25000000  0.85649000  0.99735500  1
  O  O6  1  0.75000000  0.64351000  0.49735500  1
  O  O7  1  0.75000000  0.14351000  0.00264500  1
  O  O8  1  0.25000000  0.35932800  0.85202200  1
  O  O9  1  0.25000000  0.85932800  0.64797800  1
  O  O10  1  0.75000000  0.64067200  0.14797800  1
  O  O11  1  0.75000000  0.14067200  0.35202200  1
  O  O12  1  0.75000000  0.05668400  0.82378000  1
  O  O13  1  0.75000000  0.55668400  0.67622000  1
  O  O14  1  0.25000000  0.94331600  0.17622000  1
  O  O15  1  0.25000000  0.44331600  0.32378000  1
  O  O16  1  0.75000000  0.06712700  0.54217300  1
  O  O17  1  0.75000000  0.56712700  0.95782700  1
  O  O18  1  0.25000000  0.93287300  0.45782700  1
  O  O19  1  0.25000000  0.43287300  0.04217300  1
loop_
_geom_bond_atom_site_label_1
_geom_bond_atom_site_label_2
_geom_bond_distance
_geom_bond_site_symmetry_2
In0 O5 2.209103 1_545
In0 O8 2.210113 1_555
In0 O7 2.338704 1_456
In0 O7 2.338704 1_556
In0 O12 2.348980 1_455
In0 O12 2.348980 1_555
In1 O4 2.209103 1_555
In1 O9 2.210113 1_555
In1 O6 2.338704 1_555
In1 O6 2.338704 1_455
In1 O13 2.348980 1_555
In1 O13 2.348980 1_455
In2 O7 2.209103 1_565
In2 O10 2.210113 1_555
In2 O5 2.338704 1_554
In2 O5 2.338704 1_654
In2 O14 2.348980 1_655
In2 O14 2.348980 1_555
In3 O6 2.209103 1_555
In3 O11 2.210113 1_555
In3 O4 2.338704 1_555
In3 O4 2.338704 1_655
In3 O15 2.348980 1_655
In3 O15 2.348980 1_555
In4 O13 2.209570 1_555
In4 O12 2.212203 1_555
In4 O0 2.235843 1_555
In4 O0 2.235843 1_655
In4 O8 2.352612 1_555
In4 O8 2.352612 1_655
In5 O12 2.209570 1_565
In5 O13 2.212203 1_555
In5 O1 2.235843 1_555
In5 O1 2.235843 1_655
In5 O9 2.352612 1_555
In5 O9 2.352612 1_655
In6 O15 2.209570 1_555
In6 O14 2.212203 1_555
In6 O2 2.235843 1_455
In6 O2 2.235843 1_555
In6 O10 2.352612 1_455
In6 O10 2.352612 1_555
In7 O14 2.209570 1_545
In7 O15 2.212203 1_555
In7 O3 2.235843 1_455
In7 O3 2.235843 1_555
In7 O11 2.352612 1_455
In7 O11 2.352612 1_555
O0 Zr0 1.997026 1_555
O1 Zr1 1.997026 1_555
O2 Zr2 1.997026 1_555
O3 Zr3 1.997026 1_555
O4 Zr0 2.194524 1_555
O5 Zr1 2.194524 1_555
O6 Zr2 2.194524 1_555
O7 Zr3 2.194524 1_555
O8 Zr1 2.174227 1_555
O9 Zr0 2.174227 1_565
O10 Zr3 2.174227 1_555
O11 Zr2 2.174227 1_545
O16 Zr0 1.970417 1_555
O16 Zr0 1.970417 1_655
O16 Zr2 2.323992 1_545
O17 Zr1 1.970417 1_555
O17 Zr1 1.970417 1_655
O17 Zr3 2.323992 1_556
O18 Zr2 1.970417 1_555
O18 Zr2 1.970417 1_455
O18 Zr0 2.323992 1_565
O19 Zr3 1.970417 1_455
O19 Zr3 1.970417 1_555
O19 Zr1 2.323992 1_554
