# generated using pymatgen
data_Ta5Si3
_symmetry_space_group_name_H-M   'P 1'
_cell_length_a   6.53002846
_cell_length_b   6.53005713
_cell_length_c   7.52019244
_cell_angle_alpha   115.73716390
_cell_angle_beta   115.73227636
_cell_angle_gamma   90.00001158
_symmetry_Int_Tables_number   1
_chemical_formula_structural   Ta5Si3
_chemical_formula_sum   'Ta10 Si6'
_cell_volume   253.09367414
_cell_formula_units_Z   2
loop_
 _symmetry_equiv_pos_site_id
 _symmetry_equiv_pos_as_xyz
  1  'x, y, z'
loop_
 _atom_site_type_symbol
 _atom_site_label
 _atom_site_symmetry_multiplicity
 _atom_site_fract_x
 _atom_site_fract_y
 _atom_site_fract_z
 _atom_site_occupancy
  Ta  Ta0  1  0.18515594  0.01517108  0.70020426  1
  Ta  Ta1  1  0.01504932  0.51517108  0.70020426  1
  Ta  Ta2  1  0.68514225  0.18526178  0.70046015  1
  Ta  Ta3  1  0.98495068  0.48482992  0.29979574  1
  Ta  Ta4  1  0.51531890  0.68526178  0.70046015  1
  Ta  Ta5  1  0.81484406  0.98482892  0.29979574  1
  Ta  Ta6  1  0.48468110  0.31473822  0.29953985  1
  Ta  Ta7  1  0.31485775  0.81473822  0.29953985  1
  Ta  Ta8  1  0.50000000  0.50000000  0.00000000  1
  Ta  Ta9  1  -0.00000000  0.00000000  0.00000000  1
  Si  Si0  1  0.62967509  0.12967632  0.00009593  1
  Si  Si1  1  0.87041985  0.62967632  0.00009593  1
  Si  Si2  1  0.12958015  0.37032368  0.99990407  1
  Si  Si3  1  0.37032491  0.87032368  0.99990407  1
  Si  Si4  1  0.74996419  0.75000000  0.50000000  1
  Si  Si5  1  0.25003581  0.25000000  0.50000000  1
loop_
_geom_bond_atom_site_label_1
_geom_bond_atom_site_label_2
_geom_bond_distance
_geom_bond_site_symmetry_2
Si0 Si3 2.394192 1_544
Si0 Ta8 2.562398 1_555
Si0 Ta9 2.562400 1_655
Si0 Ta2 2.599888 1_554
Si0 Ta3 2.600110 1_555
Si0 Ta6 2.629781 1_555
Si0 Ta4 2.629947 1_544
Si0 Ta5 2.630851 1_545
Si0 Ta0 2.630983 1_554
Si1 Si2 2.394202 1_654
Si1 Ta8 2.562393 1_555
Si1 Ta9 2.562400 1_665
Si1 Ta4 2.599881 1_554
Si1 Ta5 2.600108 1_555
Si1 Ta7 2.629780 1_655
Si1 Ta2 2.629946 1_554
Si1 Ta3 2.630846 1_555
Si1 Ta1 2.630994 1_654
Si2 Ta8 2.562393 1_556
Si2 Ta9 2.562400 1_556
Si2 Ta6 2.599881 1_556
Si2 Ta0 2.600108 1_555
Si2 Ta2 2.629780 1_455
Si2 Ta7 2.629946 1_556
Si2 Ta1 2.630851 1_555
Si2 Ta3 2.630993 1_456
Si3 Ta8 2.562398 1_556
Si3 Ta9 2.562400 1_566
Si3 Ta7 2.599888 1_556
Si3 Ta1 2.600107 1_555
Si3 Ta4 2.629781 1_555
Si3 Ta6 2.629947 1_566
Si3 Ta0 2.630851 1_565
Si3 Ta5 2.630983 1_556
Si4 Ta5 2.712319 1_555
Si4 Ta1 2.712322 1_655
Si4 Ta4 2.712604 1_555
Si4 Ta7 2.712609 1_555
Si4 Ta3 2.713230 1_555
Si4 Ta0 2.713237 1_665
Si4 Ta2 2.713514 1_565
Si4 Ta6 2.713515 1_555
Si4 Ta9 2.967695 1_666
Si4 Ta8 2.967695 1_555
Si5 Ta0 2.712319 1_555
Si5 Ta3 2.712327 1_455
Si5 Ta6 2.712604 1_555
Si5 Ta2 2.712609 1_555
Si5 Ta1 2.713233 1_555
Si5 Ta5 2.713237 1_445
Si5 Ta7 2.713514 1_545
Si5 Ta4 2.713515 1_555
Si5 Ta9 2.967695 1_555
Si5 Ta8 2.967695 1_556
