# generated using pymatgen
data_Er2(Ga3Ir)3
_symmetry_space_group_name_H-M   'P 1'
_cell_length_a   7.48131214
_cell_length_b   7.48131214
_cell_length_c   9.42185083
_cell_angle_alpha   90.00000000
_cell_angle_beta   90.00000000
_cell_angle_gamma   119.82960397
_symmetry_Int_Tables_number   1
_chemical_formula_structural   Er2(Ga3Ir)3
_chemical_formula_sum   'Er4 Ga18 Ir6'
_cell_volume   457.47307814
_cell_formula_units_Z   2
loop_
 _symmetry_equiv_pos_site_id
 _symmetry_equiv_pos_as_xyz
  1  'x, y, z'
loop_
 _atom_site_type_symbol
 _atom_site_label
 _atom_site_symmetry_multiplicity
 _atom_site_fract_x
 _atom_site_fract_y
 _atom_site_fract_z
 _atom_site_occupancy
  Er  Er0  1  0.99809409  0.66961067  0.75000000  1
  Er  Er1  1  0.00190591  0.33038933  0.25000000  1
  Er  Er2  1  0.66961067  0.99809409  0.75000000  1
  Er  Er3  1  0.33038933  0.00190591  0.25000000  1
  Ga  Ga0  1  0.12967280  0.12967280  0.75000000  1
  Ga  Ga1  1  0.87032720  0.87032720  0.25000000  1
  Ga  Ga2  1  0.00041127  0.33456729  0.57952510  1
  Ga  Ga3  1  -0.00041127  0.66543271  0.42047490  1
  Ga  Ga4  1  -0.00041127  0.66543271  0.07952510  1
  Ga  Ga5  1  0.33456729  0.00041127  0.92047490  1
  Ga  Ga6  1  0.00041127  0.33456729  0.92047490  1
  Ga  Ga7  1  0.66543271  -0.00041127  0.07952510  1
  Ga  Ga8  1  0.66543271  -0.00041127  0.42047490  1
  Ga  Ga9  1  0.33456729  0.00041127  0.57952510  1
  Ga  Ga10  1  0.33333655  0.33333655  0.06854395  1
  Ga  Ga11  1  0.66666345  0.66666345  0.93145605  1
  Ga  Ga12  1  0.66666345  0.66666345  0.56854395  1
  Ga  Ga13  1  0.33333655  0.33333655  0.43145605  1
  Ga  Ga14  1  0.33814461  0.54496138  0.75000000  1
  Ga  Ga15  1  0.66185539  0.45503862  0.25000000  1
  Ga  Ga16  1  0.54496138  0.33814461  0.75000000  1
  Ga  Ga17  1  0.45503862  0.66185539  0.25000000  1
  Ir  Ir0  1  0.67152084  0.32847916  0.50000000  1
  Ir  Ir1  1  0.32847916  0.67152084  0.50000000  1
  Ir  Ir2  1  0.32847916  0.67152084  -0.00000000  1
  Ir  Ir3  1  0.67152084  0.32847916  -0.00000000  1
  Ir  Ir4  1  0.00000000  0.00000000  0.50000000  1
  Ir  Ir5  1  0.00000000  0.00000000  -0.00000000  1
loop_
_geom_bond_atom_site_label_1
_geom_bond_atom_site_label_2
_geom_bond_distance
_geom_bond_site_symmetry_2
Er0 Ga5 2.973808 1_665
Er0 Ga9 2.973808 1_665
Er0 Ga6 2.984332 1_655
Er0 Ga2 2.984332 1_655
Er0 Ga11 3.002849 1_555
Er0 Ga12 3.002849 1_555
Er0 Ga16 3.046054 1_555
Er0 Ga0 3.073243 1_665
Er0 Ga4 3.104970 1_656
Er0 Ga3 3.104970 1_655
Er0 Ga14 3.114781 1_655
Er1 Ga7 2.973808 1_455
Er1 Ga8 2.973808 1_455
Er1 Ga3 2.984332 1_555
Er1 Ga4 2.984332 1_555
Er1 Ga10 3.002849 1_555
Er1 Ga13 3.002849 1_555
Er1 Ga17 3.046054 1_555
Er1 Ga1 3.073243 1_445
Er1 Ga2 3.104970 1_555
Er1 Ga6 3.104970 1_554
Er1 Ga15 3.114781 1_455
Er2 Ga2 2.973808 1_665
Er2 Ga6 2.973808 1_665
Er2 Ga5 2.984332 1_565
Er2 Ga9 2.984332 1_565
Er2 Ga12 3.002849 1_555
Er2 Ga11 3.002849 1_555
Er2 Ga14 3.046054 1_555
Er2 Ga0 3.073243 1_665
Er2 Ga7 3.104970 1_566
Er2 Ga8 3.104970 1_565
Er2 Ga16 3.114781 1_565
Er3 Ga4 2.973808 1_545
Er3 Ga3 2.973808 1_545
Er3 Ga8 2.984332 1_555
Er3 Ga7 2.984332 1_555
Er3 Ga10 3.002849 1_555
Er3 Ga13 3.002849 1_555
Er3 Ga15 3.046054 1_555
Er3 Ga1 3.073243 1_445
Er3 Ga9 3.104970 1_555
Er3 Ga5 3.104970 1_554
Er3 Ga17 3.114781 1_545
Ga0 Ir5 2.548371 1_556
Ga0 Ir4 2.548371 1_555
Ga0 Ga14 2.695303 1_555
Ga0 Ga16 2.695303 1_555
Ga0 Ga2 2.709144 1_555
Ga0 Ga5 2.709144 1_555
Ga0 Ga6 2.709144 1_555
Ga0 Ga9 2.709144 1_555
Ga1 Ir4 2.548371 1_665
Ga1 Ir5 2.548371 1_665
Ga1 Ga17 2.695303 1_555
Ga1 Ga15 2.695303 1_555
Ga1 Ga4 2.709144 1_655
Ga1 Ga8 2.709144 1_565
Ga1 Ga7 2.709144 1_565
Ga1 Ga3 2.709144 1_655
Ga2 Ir0 2.550727 1_455
Ga2 Ir1 2.604776 1_555
Ga2 Ir4 2.611279 1_555
Ga2 Ga3 2.896201 1_555
Ga2 Ga8 2.925484 1_455
Ga3 Ir1 2.550727 1_555
Ga3 Ir0 2.604776 1_455
Ga3 Ir4 2.611279 1_565
Ga3 Ga9 2.925484 1_565
Ga4 Ir2 2.550727 1_555
Ga4 Ir3 2.604776 1_455
Ga4 Ir5 2.611279 1_565
Ga4 Ga6 2.896201 1_554
Ga4 Ga5 2.925484 1_564
Ga5 Ir2 2.550727 1_546
Ga5 Ir3 2.604776 1_556
Ga5 Ir5 2.611279 1_556
Ga5 Ga7 2.896201 1_556
Ga6 Ir3 2.550727 1_456
Ga6 Ir2 2.604776 1_556
Ga6 Ir5 2.611279 1_556
Ga6 Ga7 2.925484 1_456
Ga7 Ir3 2.550727 1_555
Ga7 Ir2 2.604776 1_545
Ga7 Ir5 2.611279 1_655
Ga8 Ir0 2.550727 1_555
Ga8 Ir1 2.604776 1_545
Ga8 Ir4 2.611279 1_655
Ga8 Ga9 2.896201 1_555
Ga9 Ir1 2.550727 1_545
Ga9 Ir0 2.604776 1_555
Ga9 Ir4 2.611279 1_555
Ga10 Ir5 2.582275 1_555
Ga10 Ir3 2.628892 1_555
Ga10 Ir2 2.628892 1_555
Ga10 Ga15 2.750677 1_555
Ga10 Ga17 2.750677 1_555
Ga10 Ga11 2.814072 1_554
Ga10 Ga6 2.858817 1_554
Ga10 Ga5 2.858817 1_554
Ga11 Ir5 2.582275 1_666
Ga11 Ir2 2.628892 1_556
Ga11 Ir3 2.628892 1_556
Ga11 Ga14 2.750677 1_555
Ga11 Ga16 2.750677 1_555
Ga11 Ga7 2.858817 1_566
Ga11 Ga4 2.858817 1_656
Ga12 Ir4 2.582275 1_665
Ga12 Ir1 2.628892 1_555
Ga12 Ir0 2.628892 1_555
Ga12 Ga14 2.750677 1_555
Ga12 Ga16 2.750677 1_555
Ga12 Ga13 2.814072 1_555
Ga12 Ga8 2.858817 1_565
Ga12 Ga3 2.858817 1_655
Ga13 Ir4 2.582275 1_555
Ga13 Ir0 2.628892 1_555
Ga13 Ir1 2.628892 1_555
Ga13 Ga17 2.750677 1_555
Ga13 Ga15 2.750677 1_555
Ga13 Ga9 2.858817 1_555
Ga13 Ga2 2.858817 1_555
Ga14 Ir2 2.553044 1_556
Ga14 Ir1 2.553044 1_555
Ga14 Ga16 2.677631 1_555
Ga14 Ga2 2.735870 1_555
Ga14 Ga6 2.735870 1_555
Ga15 Ir3 2.553044 1_555
Ga15 Ir0 2.553044 1_555
Ga15 Ga17 2.677631 1_555
Ga15 Ga4 2.735870 1_655
Ga15 Ga3 2.735870 1_655
Ga16 Ir3 2.553044 1_556
Ga16 Ir0 2.553044 1_555
Ga16 Ga5 2.735870 1_555
Ga16 Ga9 2.735870 1_555
Ga17 Ir1 2.553044 1_555
Ga17 Ir2 2.553044 1_555
Ga17 Ga7 2.735870 1_565
Ga17 Ga8 2.735870 1_565
