# generated using pymatgen
data_MgGa
_symmetry_space_group_name_H-M   'P 1'
_cell_length_a   15.56706264
_cell_length_b   15.56706264
_cell_length_c   9.99010400
_cell_angle_alpha   90.00000000
_cell_angle_beta   90.00000000
_cell_angle_gamma   156.40496961
_symmetry_Int_Tables_number   1
_chemical_formula_structural   MgGa
_chemical_formula_sum   'Mg24 Ga24'
_cell_volume   969.02706612
_cell_formula_units_Z   24
loop_
 _symmetry_equiv_pos_site_id
 _symmetry_equiv_pos_as_xyz
  1  'x, y, z'
loop_
 _atom_site_type_symbol
 _atom_site_label
 _atom_site_symmetry_multiplicity
 _atom_site_fract_x
 _atom_site_fract_y
 _atom_site_fract_z
 _atom_site_occupancy
  Mg  Mg0_0  1  0.49872500  0.00127500  0.00000000  1
  Mg  Mg0_1  1  0.49872500  0.00127500  0.50000000  1
  Mg  Mg0_2  1  0.49872500  0.50127500  0.00000000  1
  Mg  Mg0_3  1  0.49872500  0.50127500  0.50000000  1
  Mg  Mg0_4  1  0.99872500  0.00127500  0.00000000  1
  Mg  Mg0_5  1  0.99872500  0.00127500  0.50000000  1
  Mg  Mg0_6  1  0.99872500  0.50127500  0.00000000  1
  Mg  Mg0_7  1  0.99872500  0.50127500  0.50000000  1
  Mg  Mg1_0  1  0.33633800  0.16366200  0.00000000  1
  Mg  Mg1_1  1  0.33633800  0.16366200  0.50000000  1
  Mg  Mg1_2  1  0.33633800  0.66366200  0.00000000  1
  Mg  Mg1_3  1  0.33633800  0.66366200  0.50000000  1
  Mg  Mg1_4  1  0.83633800  0.16366200  0.00000000  1
  Mg  Mg1_5  1  0.83633800  0.16366200  0.50000000  1
  Mg  Mg1_6  1  0.83633800  0.66366200  0.00000000  1
  Mg  Mg1_7  1  0.83633800  0.66366200  0.50000000  1
  Mg  Mg2_0  1  0.22027850  0.27972150  0.25000000  1
  Mg  Mg2_1  1  0.22027850  0.27972150  0.75000000  1
  Mg  Mg2_2  1  0.22027850  0.77972150  0.25000000  1
  Mg  Mg2_3  1  0.22027850  0.77972150  0.75000000  1
  Mg  Mg2_4  1  0.72027850  0.27972150  0.25000000  1
  Mg  Mg2_5  1  0.72027850  0.27972150  0.75000000  1
  Mg  Mg2_6  1  0.72027850  0.77972150  0.25000000  1
  Mg  Mg2_7  1  0.72027850  0.77972150  0.75000000  1
  Ga  Ga0_0  1  0.16597550  0.33402450  0.00000000  1
  Ga  Ga0_1  1  0.16597550  0.33402450  0.50000000  1
  Ga  Ga0_2  1  0.16597550  0.83402450  0.00000000  1
  Ga  Ga0_3  1  0.16597550  0.83402450  0.50000000  1
  Ga  Ga0_4  1  0.66597550  0.33402450  0.00000000  1
  Ga  Ga0_5  1  0.66597550  0.33402450  0.50000000  1
  Ga  Ga0_6  1  0.66597550  0.83402450  0.00000000  1
  Ga  Ga0_7  1  0.66597550  0.83402450  0.50000000  1
  Ga  Ga1_0  1  0.05567550  0.44432450  0.25000000  1
  Ga  Ga1_1  1  0.05567550  0.44432450  0.75000000  1
  Ga  Ga1_2  1  0.05567550  0.94432450  0.25000000  1
  Ga  Ga1_3  1  0.05567550  0.94432450  0.75000000  1
  Ga  Ga1_4  1  0.55567550  0.44432450  0.25000000  1
  Ga  Ga1_5  1  0.55567550  0.44432450  0.75000000  1
  Ga  Ga1_6  1  0.55567550  0.94432450  0.25000000  1
  Ga  Ga1_7  1  0.55567550  0.94432450  0.75000000  1
  Ga  Ga2_0  1  0.38967400  0.11032600  0.25000000  1
  Ga  Ga2_1  1  0.38967400  0.11032600  0.75000000  1
  Ga  Ga2_2  1  0.38967400  0.61032600  0.25000000  1
  Ga  Ga2_3  1  0.38967400  0.61032600  0.75000000  1
  Ga  Ga2_4  1  0.88967400  0.11032600  0.25000000  1
  Ga  Ga2_5  1  0.88967400  0.11032600  0.75000000  1
  Ga  Ga2_6  1  0.88967400  0.61032600  0.25000000  1
  Ga  Ga2_7  1  0.88967400  0.61032600  0.75000000  1
loop_
_geom_bond_atom_site_label_1
_geom_bond_atom_site_label_2
_geom_bond_distance
_geom_bond_site_symmetry_2
Mg0_0 Mg2_2 3.085725 1_545
Mg0_0 Mg2_3 3.085725 1_544
Mg0_0 Mg2_4 3.085725 1_555
Mg0_0 Mg2_5 3.085725 1_554
Mg0_0 Mg1_4 3.108388 1_555
Mg0_0 Mg1_2 3.108388 1_545
Mg0_0 Mg0_6 3.182742 1_555
Mg0_0 Mg0_6 3.182742 1_445
Mg0_1 Mg2_5 3.085725 1_555
Mg0_1 Mg2_2 3.085725 1_545
Mg0_1 Mg2_3 3.085725 1_545
Mg0_1 Mg2_4 3.085725 1_555
Mg0_1 Mg1_5 3.108388 1_555
Mg0_1 Mg1_3 3.108388 1_545
Mg0_1 Mg0_7 3.182742 1_555
Mg0_1 Mg0_7 3.182742 1_445
Mg0_2 Mg2_7 3.085725 1_554
Mg0_2 Mg2_6 3.085725 1_555
Mg0_2 Mg2_1 3.085725 1_554
Mg0_2 Mg2_0 3.085725 1_555
Mg0_2 Mg1_0 3.108388 1_555
Mg0_2 Mg1_6 3.108388 1_555
Mg0_2 Mg0_4 3.182742 1_565
Mg0_2 Mg0_4 3.182742 1_455
Mg0_3 Mg2_7 3.085725 1_555
Mg0_3 Mg2_6 3.085725 1_555
Mg0_3 Mg2_1 3.085725 1_555
Mg0_3 Mg2_0 3.085725 1_555
Mg0_3 Mg1_1 3.108388 1_555
Mg0_3 Mg1_7 3.108388 1_555
Mg0_3 Mg0_5 3.182742 1_455
Mg0_3 Mg0_5 3.182742 1_565
Mg0_4 Mg2_6 3.085725 1_545
Mg0_4 Mg2_7 3.085725 1_544
Mg0_4 Mg2_0 3.085725 1_655
Mg0_4 Mg2_1 3.085725 1_654
Mg0_4 Mg1_0 3.108388 1_655
Mg0_4 Mg1_6 3.108388 1_545
Mg0_5 Mg2_6 3.085725 1_545
Mg0_5 Mg2_7 3.085725 1_545
Mg0_5 Mg2_0 3.085725 1_655
Mg0_5 Mg2_1 3.085725 1_655
Mg0_5 Mg1_1 3.108388 1_655
Mg0_5 Mg1_7 3.108388 1_545
Mg0_6 Mg2_2 3.085725 1_655
Mg0_6 Mg2_3 3.085725 1_654
Mg0_6 Mg2_4 3.085725 1_555
Mg0_6 Mg2_5 3.085725 1_554
Mg0_6 Mg1_2 3.108388 1_655
Mg0_6 Mg1_4 3.108388 1_555
Mg0_7 Mg2_5 3.085725 1_555
Mg0_7 Mg2_2 3.085725 1_655
Mg0_7 Mg2_3 3.085725 1_655
Mg0_7 Mg2_4 3.085725 1_555
Mg0_7 Mg1_3 3.108388 1_655
Mg0_7 Mg1_5 3.108388 1_555
Mg1_0 Mg1_6 3.182742 1_445
Mg1_0 Mg1_6 3.182742 1_555
Mg1_1 Mg1_7 3.182742 1_445
Mg1_1 Mg1_7 3.182742 1_555
Mg1_2 Mg1_4 3.182742 1_455
Mg1_2 Mg1_4 3.182742 1_565
Mg1_3 Mg1_5 3.182742 1_455
Mg1_3 Mg1_5 3.182742 1_565
Mg2_0 Mg2_6 3.182742 1_555
Mg2_0 Mg2_6 3.182742 1_445
Mg2_1 Mg2_7 3.182742 1_555
Mg2_1 Mg2_7 3.182742 1_445
Mg2_2 Mg2_4 3.182742 1_565
Mg2_2 Mg2_4 3.182742 1_455
Mg2_3 Mg2_5 3.182742 1_565
Mg2_3 Mg2_5 3.182742 1_455
Ga0_0 Mg1_2 2.902262 1_555
Ga0_0 Mg1_4 2.902262 1_455
Ga0_0 Mg0_4 2.982029 1_455
Ga0_0 Mg0_2 2.982029 1_555
Ga0_0 Mg2_0 2.996087 1_555
Ga0_0 Mg2_1 2.996087 1_554
Ga0_0 Ga2_2 3.068000 1_555
Ga0_0 Ga2_3 3.068000 1_554
Ga0_0 Ga2_5 3.068000 1_454
Ga0_0 Ga2_4 3.068000 1_455
Ga0_0 Ga0_6 3.182742 1_555
Ga0_0 Ga0_6 3.182742 1_445
Ga0_1 Mg1_3 2.902262 1_555
Ga0_1 Mg1_5 2.902262 1_455
Ga0_1 Mg0_5 2.982029 1_455
Ga0_1 Mg0_3 2.982029 1_555
Ga0_1 Mg2_0 2.996087 1_555
Ga0_1 Mg2_1 2.996087 1_555
Ga0_1 Ga2_2 3.068000 1_555
Ga0_1 Ga2_3 3.068000 1_555
Ga0_1 Ga2_5 3.068000 1_455
Ga0_1 Ga2_4 3.068000 1_455
Ga0_1 Ga0_7 3.182742 1_555
Ga0_1 Ga0_7 3.182742 1_445
Ga0_2 Mg1_6 2.902262 1_455
Ga0_2 Mg1_0 2.902262 1_565
Ga0_2 Mg0_6 2.982029 1_455
Ga0_2 Mg0_0 2.982029 1_565
Ga0_2 Mg2_3 2.996087 1_554
Ga0_2 Mg2_2 2.996087 1_555
Ga0_2 Ga2_0 3.068000 1_565
Ga0_2 Ga2_1 3.068000 1_564
Ga0_2 Ga2_7 3.068000 1_454
Ga0_2 Ga2_6 3.068000 1_455
Ga0_2 Ga0_4 3.182742 1_565
Ga0_2 Ga0_4 3.182742 1_455
Ga0_3 Mg1_7 2.902262 1_455
Ga0_3 Mg1_1 2.902262 1_565
Ga0_3 Mg0_7 2.982029 1_455
Ga0_3 Mg0_1 2.982029 1_565
Ga0_3 Mg2_2 2.996087 1_555
Ga0_3 Mg2_3 2.996087 1_555
Ga0_3 Ga2_0 3.068000 1_565
Ga0_3 Ga2_1 3.068000 1_565
Ga0_3 Ga2_6 3.068000 1_455
Ga0_3 Ga2_7 3.068000 1_455
Ga0_3 Ga0_5 3.182742 1_565
Ga0_3 Ga0_5 3.182742 1_455
Ga0_4 Mg1_6 2.902262 1_555
Ga0_4 Mg1_0 2.902262 1_555
Ga0_4 Mg0_0 2.982029 1_555
Ga0_4 Mg0_6 2.982029 1_555
Ga0_4 Mg2_5 2.996087 1_554
Ga0_4 Mg2_4 2.996087 1_555
Ga0_4 Ga2_6 3.068000 1_555
Ga0_4 Ga2_7 3.068000 1_554
Ga0_4 Ga2_0 3.068000 1_555
Ga0_4 Ga2_1 3.068000 1_554
Ga0_5 Mg1_7 2.902262 1_555
Ga0_5 Mg1_1 2.902262 1_555
Ga0_5 Mg0_7 2.982029 1_555
Ga0_5 Mg0_1 2.982029 1_555
Ga0_5 Mg2_4 2.996087 1_555
Ga0_5 Mg2_5 2.996087 1_555
Ga0_5 Ga2_6 3.068000 1_555
Ga0_5 Ga2_7 3.068000 1_555
Ga0_5 Ga2_0 3.068000 1_555
Ga0_5 Ga2_1 3.068000 1_555
Ga0_6 Mg1_2 2.902262 1_555
Ga0_6 Mg1_4 2.902262 1_565
Ga0_6 Mg0_4 2.982029 1_565
Ga0_6 Mg0_2 2.982029 1_555
Ga0_6 Mg2_6 2.996087 1_555
Ga0_6 Mg2_7 2.996087 1_554
Ga0_6 Ga2_4 3.068000 1_565
Ga0_6 Ga2_5 3.068000 1_564
Ga0_6 Ga2_2 3.068000 1_555
Ga0_6 Ga2_3 3.068000 1_554
Ga0_7 Mg1_3 2.902262 1_555
Ga0_7 Mg1_5 2.902262 1_565
Ga0_7 Mg0_5 2.982029 1_565
Ga0_7 Mg0_3 2.982029 1_555
Ga0_7 Mg2_6 2.996087 1_555
Ga0_7 Mg2_7 2.996087 1_555
Ga0_7 Ga2_4 3.068000 1_565
Ga0_7 Ga2_5 3.068000 1_565
Ga0_7 Ga2_2 3.068000 1_555
Ga0_7 Ga2_3 3.068000 1_555
Ga1_0 Ga2_4 3.014290 1_455
Ga1_0 Ga2_2 3.014290 1_555
Ga1_0 Mg0_6 3.041400 1_455
Ga1_0 Mg0_7 3.041400 1_455
Ga1_0 Mg2_4 3.050570 1_455
Ga1_0 Mg2_2 3.050570 1_555
Ga1_0 Mg1_4 3.105376 1_455
Ga1_0 Mg1_5 3.105376 1_455
Ga1_0 Mg1_3 3.105376 1_555
Ga1_0 Mg1_2 3.105376 1_555
Ga1_0 Ga1_6 3.182742 1_445
Ga1_0 Ga1_6 3.182742 1_555
Ga1_1 Ga2_5 3.014290 1_455
Ga1_1 Ga2_3 3.014290 1_555
Ga1_1 Mg0_7 3.041400 1_455
Ga1_1 Mg0_6 3.041400 1_456
Ga1_1 Mg2_5 3.050570 1_455
Ga1_1 Mg2_3 3.050570 1_555
Ga1_1 Mg1_4 3.105376 1_456
Ga1_1 Mg1_5 3.105376 1_455
Ga1_1 Mg1_3 3.105376 1_555
Ga1_1 Mg1_2 3.105376 1_556
Ga1_1 Ga1_7 3.182742 1_445
Ga1_1 Ga1_7 3.182742 1_555
Ga1_2 Ga2_6 3.014290 1_455
Ga1_2 Ga2_0 3.014290 1_565
Ga1_2 Mg0_5 3.041400 1_465
Ga1_2 Mg0_4 3.041400 1_465
Ga1_2 Mg2_6 3.050570 1_455
Ga1_2 Mg2_0 3.050570 1_565
Ga1_2 Mg1_6 3.105376 1_455
Ga1_2 Mg1_7 3.105376 1_455
Ga1_2 Mg1_0 3.105376 1_565
Ga1_2 Mg1_1 3.105376 1_565
Ga1_2 Ga1_4 3.182742 1_565
Ga1_2 Ga1_4 3.182742 1_455
Ga1_3 Ga2_1 3.014290 1_565
Ga1_3 Ga2_7 3.014290 1_455
Ga1_3 Mg0_5 3.041400 1_465
Ga1_3 Mg0_4 3.041400 1_466
Ga1_3 Mg2_7 3.050570 1_455
Ga1_3 Mg2_1 3.050570 1_565
Ga1_3 Mg1_6 3.105376 1_456
Ga1_3 Mg1_7 3.105376 1_455
Ga1_3 Mg1_0 3.105376 1_566
Ga1_3 Mg1_1 3.105376 1_565
Ga1_3 Ga1_5 3.182742 1_565
Ga1_3 Ga1_5 3.182742 1_455
Ga1_4 Ga2_0 3.014290 1_555
Ga1_4 Ga2_6 3.014290 1_555
Ga1_4 Mg0_2 3.041400 1_555
Ga1_4 Mg0_3 3.041400 1_555
Ga1_4 Mg2_0 3.050570 1_555
Ga1_4 Mg2_6 3.050570 1_555
Ga1_4 Mg1_0 3.105376 1_555
Ga1_4 Mg1_1 3.105376 1_555
Ga1_4 Mg1_6 3.105376 1_555
Ga1_4 Mg1_7 3.105376 1_555
Ga1_5 Ga2_1 3.014290 1_555
Ga1_5 Ga2_7 3.014290 1_555
Ga1_5 Mg0_3 3.041400 1_555
Ga1_5 Mg0_2 3.041400 1_556
Ga1_5 Mg2_1 3.050570 1_555
Ga1_5 Mg2_7 3.050570 1_555
Ga1_5 Mg1_0 3.105376 1_556
Ga1_5 Mg1_1 3.105376 1_555
Ga1_5 Mg1_7 3.105376 1_555
Ga1_5 Mg1_6 3.105376 1_556
Ga1_6 Ga2_2 3.014290 1_555
Ga1_6 Ga2_4 3.014290 1_565
Ga1_6 Mg0_1 3.041400 1_565
Ga1_6 Mg0_0 3.041400 1_565
Ga1_6 Mg2_2 3.050570 1_555
Ga1_6 Mg2_4 3.050570 1_565
Ga1_6 Mg1_2 3.105376 1_555
Ga1_6 Mg1_3 3.105376 1_555
Ga1_6 Mg1_4 3.105376 1_565
Ga1_6 Mg1_5 3.105376 1_565
Ga1_7 Ga2_3 3.014290 1_555
Ga1_7 Ga2_5 3.014290 1_565
Ga1_7 Mg0_0 3.041400 1_566
Ga1_7 Mg0_1 3.041400 1_565
Ga1_7 Mg2_3 3.050570 1_555
Ga1_7 Mg2_5 3.050570 1_565
Ga1_7 Mg1_2 3.105376 1_556
Ga1_7 Mg1_3 3.105376 1_555
Ga1_7 Mg1_4 3.105376 1_566
Ga1_7 Mg1_5 3.105376 1_565
Ga2_0 Mg2_2 2.926952 1_545
Ga2_0 Mg2_4 2.926952 1_555
Ga2_0 Mg1_1 2.979910 1_555
Ga2_0 Mg1_0 2.979910 1_555
Ga2_0 Ga2_6 3.182742 1_445
Ga2_0 Ga2_6 3.182742 1_555
Ga2_1 Mg2_3 2.926952 1_545
Ga2_1 Mg2_5 2.926952 1_555
Ga2_1 Mg1_1 2.979910 1_555
Ga2_1 Mg1_0 2.979910 1_556
Ga2_1 Ga2_7 3.182742 1_445
Ga2_1 Ga2_7 3.182742 1_555
Ga2_2 Mg2_0 2.926952 1_555
Ga2_2 Mg2_6 2.926952 1_555
Ga2_2 Mg1_3 2.979910 1_555
Ga2_2 Mg1_2 2.979910 1_555
Ga2_2 Ga2_4 3.182742 1_455
Ga2_2 Ga2_4 3.182742 1_565
Ga2_3 Mg2_1 2.926952 1_555
Ga2_3 Mg2_7 2.926952 1_555
Ga2_3 Mg1_3 2.979910 1_555
Ga2_3 Mg1_2 2.979910 1_556
Ga2_3 Ga2_5 3.182742 1_565
Ga2_3 Ga2_5 3.182742 1_455
Ga2_4 Mg2_6 2.926952 1_545
Ga2_4 Mg2_0 2.926952 1_655
Ga2_4 Mg1_4 2.979910 1_555
Ga2_4 Mg1_5 2.979910 1_555
Ga2_5 Mg2_7 2.926952 1_545
Ga2_5 Mg2_1 2.926952 1_655
Ga2_5 Mg1_5 2.979910 1_555
Ga2_5 Mg1_4 2.979910 1_556
Ga2_6 Mg2_4 2.926952 1_555
Ga2_6 Mg2_2 2.926952 1_655
Ga2_6 Mg1_6 2.979910 1_555
Ga2_6 Mg1_7 2.979910 1_555
Ga2_7 Mg2_5 2.926952 1_555
Ga2_7 Mg2_3 2.926952 1_655
Ga2_7 Mg1_7 2.979910 1_555
Ga2_7 Mg1_6 2.979910 1_556
