# generated using pymatgen
data_CaReN2
_symmetry_space_group_name_H-M   'P 1'
_cell_length_a   5.55042500
_cell_length_b   10.42050400
_cell_length_c   15.74711900
_cell_angle_alpha   90.00000000
_cell_angle_beta   90.00000000
_cell_angle_gamma   90.00000000
_symmetry_Int_Tables_number   1
_chemical_formula_structural   CaReN2
_chemical_formula_sum   'Ca16 Re16 N32'
_cell_volume   910.78542622
_cell_formula_units_Z   16
loop_
 _symmetry_equiv_pos_site_id
 _symmetry_equiv_pos_as_xyz
  1  'x, y, z'
loop_
 _atom_site_type_symbol
 _atom_site_label
 _atom_site_symmetry_multiplicity
 _atom_site_fract_x
 _atom_site_fract_y
 _atom_site_fract_z
 _atom_site_occupancy
  Ca  Ca0  1  0.74740000  0.00644100  0.44567100  1
  Ca  Ca1  1  0.24740000  0.49355900  0.55432900  1
  Ca  Ca2  1  0.25260000  0.50644100  0.05432900  1
  Ca  Ca3  1  0.75260000  0.99355900  0.94567100  1
  Ca  Ca4  1  0.25260000  0.99355900  0.55432900  1
  Ca  Ca5  1  0.75260000  0.50644100  0.44567100  1
  Ca  Ca6  1  0.74740000  0.49355900  0.94567100  1
  Ca  Ca7  1  0.24740000  0.00644100  0.05432900  1
  Ca  Ca8  1  0.86907800  0.29604300  0.31457300  1
  Ca  Ca9  1  0.36907800  0.20395700  0.68542700  1
  Ca  Ca10  1  0.13092200  0.79604300  0.18542700  1
  Ca  Ca11  1  0.63092200  0.70395700  0.81457300  1
  Ca  Ca12  1  0.13092200  0.70395700  0.68542700  1
  Ca  Ca13  1  0.63092200  0.79604300  0.31457300  1
  Ca  Ca14  1  0.86907800  0.20395700  0.81457300  1
  Ca  Ca15  1  0.36907800  0.29604300  0.18542700  1
  Re  Re0  1  0.72325800  0.03320000  0.17707900  1
  Re  Re1  1  0.22325800  0.46680000  0.82292100  1
  Re  Re2  1  0.27674200  0.53320000  0.32292100  1
  Re  Re3  1  0.77674200  0.96680000  0.67707900  1
  Re  Re4  1  0.27674200  0.96680000  0.82292100  1
  Re  Re5  1  0.77674200  0.53320000  0.17707900  1
  Re  Re6  1  0.72325800  0.46680000  0.67707900  1
  Re  Re7  1  0.22325800  0.03320000  0.32292100  1
  Re  Re8  1  0.82312000  0.25500600  0.06126000  1
  Re  Re9  1  0.32312000  0.24499400  0.93874000  1
  Re  Re10  1  0.17688000  0.75500600  0.43874000  1
  Re  Re11  1  0.67688000  0.74499400  0.56126000  1
  Re  Re12  1  0.17688000  0.74499400  0.93874000  1
  Re  Re13  1  0.67688000  0.75500600  0.06126000  1
  Re  Re14  1  0.82312000  0.24499400  0.56126000  1
  Re  Re15  1  0.32312000  0.25500600  0.43874000  1
  N  N0  1  0.59776300  0.48885600  0.28553500  1
  N  N1  1  0.09776300  0.01114400  0.71446500  1
  N  N2  1  0.40223700  0.98885600  0.21446500  1
  N  N3  1  0.90223700  0.51114400  0.78553500  1
  N  N4  1  0.40223700  0.51114400  0.71446500  1
  N  N5  1  0.90223700  0.98885600  0.28553500  1
  N  N6  1  0.59776300  0.01114400  0.78553500  1
  N  N7  1  0.09776300  0.48885600  0.21446500  1
  N  N8  1  0.66200700  0.25071000  0.45057700  1
  N  N9  1  0.16200700  0.24929000  0.54942300  1
  N  N10  1  0.33799300  0.75071000  0.04942300  1
  N  N11  1  0.83799300  0.74929000  0.95057700  1
  N  N12  1  0.33799300  0.74929000  0.54942300  1
  N  N13  1  0.83799300  0.75071000  0.45057700  1
  N  N14  1  0.66200700  0.24929000  0.95057700  1
  N  N15  1  0.16200700  0.25071000  0.04942300  1
  N  N16  1  0.65289700  0.42426600  0.08836000  1
  N  N17  1  0.15289700  0.07573400  0.91164000  1
  N  N18  1  0.34710300  0.92426600  0.41164000  1
  N  N19  1  0.84710300  0.57573400  0.58836000  1
  N  N20  1  0.34710300  0.57573400  0.91164000  1
  N  N21  1  0.84710300  0.92426600  0.08836000  1
  N  N22  1  0.65289700  0.07573400  0.58836000  1
  N  N23  1  0.15289700  0.42426600  0.41164000  1
  N  N24  1  0.78053100  0.21160600  0.18361900  1
  N  N25  1  0.28053100  0.28839400  0.81638100  1
  N  N26  1  0.21946900  0.71160600  0.31638100  1
  N  N27  1  0.71946900  0.78839400  0.68361900  1
  N  N28  1  0.21946900  0.78839400  0.81638100  1
  N  N29  1  0.71946900  0.71160600  0.18361900  1
  N  N30  1  0.78053100  0.28839400  0.68361900  1
  N  N31  1  0.28053100  0.21160600  0.31638100  1
loop_
_geom_bond_atom_site_label_1
_geom_bond_atom_site_label_2
_geom_bond_distance
_geom_bond_site_symmetry_2
Ca0 N22 2.417697 1_555
Ca0 N18 2.440679 1_545
Ca0 N8 2.590310 1_555
Ca0 N5 2.670401 1_545
Ca0 N13 2.712971 1_545
Ca1 N23 2.417697 1_555
Ca1 N19 2.440679 1_455
Ca1 N9 2.590310 1_555
Ca1 N4 2.670401 1_555
Ca1 N12 2.712971 1_555
Ca2 N20 2.417697 1_554
Ca2 N16 2.440679 1_555
Ca2 N10 2.590310 1_555
Ca2 N7 2.670401 1_555
Ca2 N15 2.712971 1_555
Ca3 N21 2.417697 1_556
Ca3 N17 2.440679 1_665
Ca3 N11 2.590310 1_555
Ca3 N6 2.670401 1_565
Ca3 N14 2.712971 1_565
Ca4 N18 2.417697 1_555
Ca4 N22 2.440679 1_565
Ca4 N12 2.590310 1_555
Ca4 N1 2.670401 1_565
Ca4 N9 2.712971 1_565
Ca5 N19 2.417697 1_555
Ca5 N23 2.440679 1_655
Ca5 N13 2.590310 1_555
Ca5 N0 2.670401 1_555
Ca5 N8 2.712971 1_555
Ca6 N16 2.417697 1_556
Ca6 N20 2.440679 1_555
Ca6 N14 2.590310 1_555
Ca6 N3 2.670401 1_555
Ca6 N11 2.712971 1_555
Ca7 N17 2.417697 1_554
Ca7 N21 2.440679 1_445
Ca7 N15 2.590310 1_555
Ca7 N2 2.670401 1_545
Ca7 N10 2.712971 1_545
Ca8 N24 2.295252 1_555
Ca8 N31 2.447541 1_655
Ca8 N8 2.476060 1_555
Ca8 N0 2.552212 1_555
Ca8 N23 2.569689 1_655
Ca8 N7 2.851862 1_655
Ca9 N25 2.295252 1_555
Ca9 N30 2.447541 1_555
Ca9 N9 2.476060 1_555
Ca9 N1 2.552212 1_555
Ca9 N22 2.569689 1_555
Ca9 N6 2.851862 1_555
Ca10 N26 2.295252 1_555
Ca10 N29 2.447541 1_455
Ca10 N10 2.476060 1_555
Ca10 N2 2.552212 1_555
Ca10 N21 2.569689 1_455
Ca10 N5 2.851862 1_455
Ca11 N27 2.295252 1_555
Ca11 N28 2.447541 1_555
Ca11 N11 2.476060 1_555
Ca11 N3 2.552212 1_555
Ca11 N20 2.569689 1_555
Ca11 N4 2.851862 1_555
Ca12 N28 2.295252 1_555
Ca12 N27 2.447541 1_455
Ca12 N12 2.476060 1_555
Ca12 N4 2.552212 1_555
Ca12 N19 2.569689 1_455
Ca12 N3 2.851862 1_455
Ca13 N29 2.295252 1_555
Ca13 N26 2.447541 1_555
Ca13 N13 2.476060 1_555
Ca13 N5 2.552212 1_555
Ca13 N18 2.569689 1_555
Ca13 N2 2.851862 1_555
Ca14 N30 2.295252 1_555
Ca14 N25 2.447541 1_655
Ca14 N14 2.476060 1_555
Ca14 N6 2.552212 1_555
Ca14 N17 2.569689 1_655
Ca14 N1 2.851862 1_655
Ca15 N31 2.295252 1_555
Ca15 N24 2.447541 1_555
Ca15 N15 2.476060 1_555
Ca15 N7 2.552212 1_555
Ca15 N16 2.569689 1_555
Ca15 N0 2.851862 1_555
N0 Re2 1.932599 1_555
N0 Re5 2.029090 1_555
N1 Re3 1.932599 1_445
N1 Re4 2.029090 1_545
N2 Re0 1.932599 1_565
N2 Re7 2.029090 1_565
N3 Re1 1.932599 1_655
N3 Re6 2.029090 1_555
N4 Re6 1.932599 1_555
N4 Re1 2.029090 1_555
N5 Re7 1.932599 1_665
N5 Re0 2.029090 1_565
N6 Re4 1.932599 1_545
N6 Re3 2.029090 1_545
N7 Re5 1.932599 1_455
N7 Re2 2.029090 1_555
N8 Re15 1.890710 1_555
N8 Re14 1.959862 1_555
N9 Re14 1.890710 1_455
N9 Re15 1.959862 1_555
N10 Re13 1.890710 1_555
N10 Re12 1.959862 1_554
N11 Re12 1.890710 1_655
N11 Re13 1.959862 1_556
N12 Re11 1.890710 1_555
N12 Re10 1.959862 1_555
N13 Re10 1.890710 1_655
N13 Re11 1.959862 1_555
N14 Re9 1.890710 1_555
N14 Re8 1.959862 1_556
N15 Re8 1.890710 1_455
N15 Re9 1.959862 1_554
N16 Re5 1.926880 1_555
N16 Re8 2.045893 1_555
N17 Re4 1.926880 1_545
N17 Re9 2.045893 1_555
N18 Re7 1.926880 1_565
N18 Re10 2.045893 1_555
N19 Re6 1.926880 1_555
N19 Re11 2.045893 1_555
N20 Re1 1.926880 1_555
N20 Re12 2.045893 1_555
N21 Re0 1.926880 1_565
N21 Re13 2.045893 1_555
N22 Re3 1.926880 1_545
N22 Re14 2.045893 1_555
N23 Re2 1.926880 1_555
N23 Re15 2.045893 1_555
N24 Re0 1.888873 1_555
N24 Re8 1.993232 1_555
N25 Re1 1.888873 1_555
N25 Re9 1.993232 1_555
N26 Re2 1.888873 1_555
N26 Re10 1.993232 1_555
N27 Re3 1.888873 1_555
N27 Re11 1.993232 1_555
N28 Re4 1.888873 1_555
N28 Re12 1.993232 1_555
N29 Re5 1.888873 1_555
N29 Re13 1.993232 1_555
N30 Re6 1.888873 1_555
N30 Re14 1.993232 1_555
N31 Re7 1.888873 1_555
N31 Re15 1.993232 1_555
