# generated using pymatgen
data_CaB3HO6
_symmetry_space_group_name_H-M   'P 1'
_cell_length_a   4.43741400
_cell_length_b   7.05502600
_cell_length_c   13.61367800
_cell_angle_alpha   90.00000000
_cell_angle_beta   90.00000000
_cell_angle_gamma   90.00000000
_symmetry_Int_Tables_number   1
_chemical_formula_structural   CaB3HO6
_chemical_formula_sum   'Ca4 B12 H4 O24'
_cell_volume   426.19077198
_cell_formula_units_Z   4
loop_
 _symmetry_equiv_pos_site_id
 _symmetry_equiv_pos_as_xyz
  1  'x, y, z'
loop_
 _atom_site_type_symbol
 _atom_site_label
 _atom_site_symmetry_multiplicity
 _atom_site_fract_x
 _atom_site_fract_y
 _atom_site_fract_z
 _atom_site_occupancy
  Ca  Ca0  1  0.89842400  0.29734000  0.90592700  1
  Ca  Ca1  1  0.39842400  0.70266000  0.09407300  1
  Ca  Ca2  1  0.39842400  0.79734000  0.59407300  1
  Ca  Ca3  1  0.89842400  0.20266000  0.40592700  1
  B  B0  1  0.43081700  0.21660400  0.07238100  1
  B  B1  1  0.93081700  0.78339600  0.92761900  1
  B  B2  1  0.93081700  0.71660400  0.42761900  1
  B  B3  1  0.43081700  0.28339600  0.57238100  1
  B  B4  1  0.23647800  0.40511400  0.73014800  1
  B  B5  1  0.73647800  0.59488600  0.26985200  1
  B  B6  1  0.73647800  0.90511400  0.76985200  1
  B  B7  1  0.23647800  0.09488600  0.23014800  1
  B  B8  1  0.95036900  0.34475800  0.14547800  1
  B  B9  1  0.45036900  0.65524200  0.85452200  1
  B  B10  1  0.45036900  0.84475800  0.35452200  1
  B  B11  1  0.95036900  0.15524200  0.64547800  1
  H  H0  1  0.37631700  0.02523600  0.95364500  1
  H  H1  1  0.87631700  0.97476400  0.04635500  1
  H  H2  1  0.87631700  0.52523600  0.54635500  1
  H  H3  1  0.37631700  0.47476400  0.45364500  1
  O  O0  1  0.74401500  0.61859100  0.90219700  1
  O  O1  1  0.24401500  0.38140900  0.09780300  1
  O  O2  1  0.24401500  0.11859100  0.59780300  1
  O  O3  1  0.74401500  0.88140900  0.40219700  1
  O  O4  1  0.75347600  0.25820000  0.07103300  1
  O  O5  1  0.25347600  0.74180000  0.92896700  1
  O  O6  1  0.25347600  0.75820000  0.42896700  1
  O  O7  1  0.75347600  0.24180000  0.57103300  1
  O  O8  1  0.87373600  0.94794000  0.85795200  1
  O  O9  1  0.37373600  0.05206000  0.14204800  1
  O  O10  1  0.37373600  0.44794000  0.64204800  1
  O  O11  1  0.87373600  0.55206000  0.35795200  1
  O  O12  1  0.31763400  0.47424600  0.82100700  1
  O  O13  1  0.81763400  0.52575400  0.17899300  1
  O  O14  1  0.81763400  0.97424600  0.67899300  1
  O  O15  1  0.31763400  0.02575400  0.32100700  1
  O  O16  1  0.35500400  0.16050400  0.96828800  1
  O  O17  1  0.85500400  0.83949600  0.03171200  1
  O  O18  1  0.85500400  0.66050400  0.53171200  1
  O  O19  1  0.35500400  0.33949600  0.46828800  1
  O  O20  1  0.99953000  0.27816400  0.73326800  1
  O  O21  1  0.49953000  0.72183600  0.26673200  1
  O  O22  1  0.49953000  0.77816400  0.76673200  1
  O  O23  1  0.99953000  0.22183600  0.23326800  1
loop_
_geom_bond_atom_site_label_1
_geom_bond_atom_site_label_2
_geom_bond_distance
_geom_bond_site_symmetry_2
Ca0 O4 2.354167 1_556
Ca0 O0 2.368284 1_555
Ca0 O20 2.396779 1_555
Ca0 O16 2.399482 1_655
Ca0 O12 2.520828 1_655
Ca0 O8 2.552433 1_545
Ca0 O16 2.732664 1_555
Ca1 O5 2.354167 1_554
Ca1 O1 2.368284 1_555
Ca1 O21 2.396779 1_555
Ca1 O17 2.399482 1_555
Ca1 O13 2.520828 1_555
Ca1 O9 2.552433 1_565
Ca1 O17 2.732664 1_455
Ca2 O6 2.354167 1_555
Ca2 O2 2.368284 1_565
Ca2 O22 2.396779 1_555
Ca2 O18 2.399482 1_555
Ca2 O14 2.520828 1_555
Ca2 O10 2.552433 1_555
Ca2 O18 2.732664 1_455
Ca3 O7 2.354167 1_555
Ca3 O3 2.368284 1_545
Ca3 O23 2.396779 1_555
Ca3 O19 2.399482 1_655
Ca3 O15 2.520828 1_655
Ca3 O11 2.552433 1_555
Ca3 O19 2.732664 1_555
B0 O4 1.461652 1_555
B0 O1 1.469272 1_555
B0 O16 1.509292 1_554
B0 O9 1.520285 1_555
B1 O5 1.461652 1_655
B1 O0 1.469272 1_555
B1 O17 1.509292 1_556
B1 O8 1.520285 1_555
B2 O6 1.461652 1_655
B2 O3 1.469272 1_555
B2 O18 1.509292 1_555
B2 O11 1.520285 1_555
B3 O7 1.461652 1_555
B3 O2 1.469272 1_555
B3 O19 1.509292 1_555
B3 O10 1.520285 1_555
B4 O12 1.377516 1_555
B4 O10 1.378670 1_555
B4 O20 1.381841 1_455
B5 O13 1.377516 1_555
B5 O11 1.378670 1_555
B5 O21 1.381841 1_555
B6 O14 1.377516 1_555
B6 O8 1.378670 1_555
B6 O22 1.381841 1_555
B7 O15 1.377516 1_555
B7 O9 1.378670 1_555
B7 O23 1.381841 1_455
B8 O4 1.470844 1_555
B8 O13 1.478395 1_555
B8 O1 1.478508 1_655
B8 O23 1.492657 1_555
B9 O5 1.470844 1_555
B9 O12 1.478395 1_555
B9 O0 1.478508 1_555
B9 O22 1.492657 1_555
B10 O6 1.470844 1_555
B10 O15 1.478395 1_565
B10 O3 1.478508 1_555
B10 O21 1.492657 1_555
B11 O7 1.470844 1_555
B11 O14 1.478395 1_545
B11 O2 1.478508 1_655
B11 O20 1.492657 1_555
H0 O16 0.979494 1_555
H1 O17 0.979494 1_555
H2 O18 0.979494 1_555
H3 O19 0.979494 1_555
