# generated using pymatgen
data_Ni5P4
_symmetry_space_group_name_H-M   'P 1'
_cell_length_a   6.73183116
_cell_length_b   6.73183012
_cell_length_c   10.91806761
_cell_angle_alpha   90.00000000
_cell_angle_beta   90.00000000
_cell_angle_gamma   119.99999530
_symmetry_Int_Tables_number   1
_chemical_formula_structural   Ni5P4
_chemical_formula_sum   'Ni20 P16'
_cell_volume   428.49207513
_cell_formula_units_Z   4
loop_
 _symmetry_equiv_pos_site_id
 _symmetry_equiv_pos_as_xyz
  1  'x, y, z'
loop_
 _atom_site_type_symbol
 _atom_site_label
 _atom_site_symmetry_multiplicity
 _atom_site_fract_x
 _atom_site_fract_y
 _atom_site_fract_z
 _atom_site_occupancy
  Ni  Ni0  1  0.92002567  0.46001284  0.37948443  1
  Ni  Ni1  1  0.46001284  0.53998716  0.87948443  1
  Ni  Ni2  1  0.00000000  0.00000000  0.19850156  1
  Ni  Ni3  1  0.00000000  0.00000000  0.69850156  1
  Ni  Ni4  1  0.53998716  0.07997333  0.37948443  1
  Ni  Ni5  1  0.46001284  0.92002567  0.87948443  1
  Ni  Ni6  1  0.07997333  0.53998716  0.87948443  1
  Ni  Ni7  1  0.53998716  0.46001284  0.37948443  1
  Ni  Ni8  1  0.79325220  0.20674780  0.73843882  1
  Ni  Ni9  1  0.58650540  0.79325220  0.23843882  1
  Ni  Ni10  1  0.20674780  0.41349460  0.23843882  1
  Ni  Ni11  1  0.79325220  0.58650540  0.73843882  1
  Ni  Ni12  1  0.41349460  0.20674780  0.73843882  1
  Ni  Ni13  1  0.20674780  0.79325220  0.23843882  1
  Ni  Ni14  1  0.46286361  0.53713639  0.58910926  1
  Ni  Ni15  1  0.92572822  0.46286361  0.08910926  1
  Ni  Ni16  1  0.53713639  0.07427178  0.08910926  1
  Ni  Ni17  1  0.46286361  0.92572822  0.58910926  1
  Ni  Ni18  1  0.07427178  0.53713639  0.58910926  1
  Ni  Ni19  1  0.53713639  0.46286361  0.08910926  1
  P  P0  1  0.66666700  0.33333300  0.55924267  1
  P  P1  1  0.33333300  0.66666700  0.05924267  1
  P  P2  1  0.00000000  0.00000000  0.49946991  1
  P  P3  1  0.00000000  0.00000000  -0.00053009  1
  P  P4  1  0.82111753  0.17888247  0.94250346  1
  P  P5  1  0.64223307  0.82111753  0.44250346  1
  P  P6  1  0.17888247  0.35776693  0.44250346  1
  P  P7  1  0.82111753  0.64223307  0.94250346  1
  P  P8  1  0.35776693  0.17888247  0.94250346  1
  P  P9  1  0.17888247  0.82111753  0.44250346  1
  P  P10  1  0.18132084  0.81867916  0.73128398  1
  P  P11  1  0.36264468  0.18132084  0.23128398  1
  P  P12  1  0.81867916  0.63735532  0.23128398  1
  P  P13  1  0.18132084  0.36264468  0.73128398  1
  P  P14  1  0.63735532  0.81867916  0.73128398  1
  P  P15  1  0.81867916  0.18132084  0.23128398  1
loop_
_geom_bond_atom_site_label_1
_geom_bond_atom_site_label_2
_geom_bond_distance
_geom_bond_site_symmetry_2
Ni0 P6 2.276659 1_655
Ni0 P9 2.276668 1_655
Ni0 P12 2.307235 1_555
Ni0 P15 2.307249 1_555
Ni0 P0 2.456333 1_555
Ni1 P8 2.276671 1_555
Ni1 P7 2.276671 1_555
Ni1 P14 2.307247 1_555
Ni1 P13 2.307247 1_555
Ni1 P1 2.456336 1_556
Ni2 P15 2.144261 1_455
Ni2 P12 2.144278 1_445
Ni2 P11 2.144279 1_555
Ni2 P3 2.173041 1_555
Ni3 P10 2.144261 1_545
Ni3 P13 2.144278 1_555
Ni3 P14 2.144279 1_445
Ni3 P2 2.173041 1_555
Ni4 P5 2.276652 1_545
Ni4 P9 2.276666 1_545
Ni4 P11 2.307239 1_555
Ni4 P15 2.307248 1_555
Ni4 P0 2.456336 1_555
Ni5 P8 2.276658 1_565
Ni5 P4 2.276668 1_565
Ni5 P14 2.307235 1_555
Ni5 P10 2.307249 1_555
Ni5 P1 2.456332 1_556
Ni6 P7 2.276652 1_455
Ni6 P4 2.276666 1_455
Ni6 P13 2.307239 1_555
Ni6 P10 2.307248 1_555
Ni6 P1 2.456336 1_556
Ni7 P5 2.276671 1_555
Ni7 P6 2.276671 1_555
Ni7 P11 2.307247 1_555
Ni7 P12 2.307247 1_555
Ni7 P0 2.456336 1_555
Ni8 P4 2.251557 1_555
Ni8 P14 2.278275 1_545
Ni8 P13 2.278276 1_655
Ni8 P0 2.450771 1_555
Ni9 P5 2.251555 1_555
Ni9 P15 2.278277 1_565
Ni9 P12 2.278288 1_555
Ni9 P1 2.450778 1_555
Ni10 P6 2.251555 1_555
Ni10 P15 2.278277 1_455
Ni10 P11 2.278288 1_555
Ni10 P1 2.450778 1_555
Ni11 P7 2.251555 1_555
Ni11 P10 2.278277 1_655
Ni11 P14 2.278288 1_555
Ni11 P0 2.450778 1_555
Ni12 P8 2.251555 1_555
Ni12 P10 2.278277 1_545
Ni12 P13 2.278288 1_555
Ni12 P0 2.450778 1_555
Ni13 P9 2.251557 1_555
Ni13 P11 2.278275 1_565
Ni13 P12 2.278276 1_455
Ni13 P1 2.450771 1_555
Ni14 P14 2.270506 1_555
Ni14 P13 2.270506 1_555
Ni14 P5 2.316547 1_555
Ni14 P6 2.316547 1_555
Ni14 P0 2.398590 1_555
Ni15 P12 2.270498 1_555
Ni15 P15 2.270507 1_555
Ni15 P7 2.316543 1_554
Ni15 P4 2.316547 1_554
Ni15 P1 2.398579 1_655
Ni16 P11 2.270498 1_555
Ni16 P15 2.270507 1_555
Ni16 P8 2.316543 1_554
Ni16 P4 2.316548 1_554
Ni16 P1 2.398579 1_545
Ni17 P14 2.270498 1_555
Ni17 P10 2.270507 1_555
Ni17 P5 2.316543 1_555
Ni17 P9 2.316548 1_555
Ni17 P0 2.398579 1_565
Ni18 P13 2.270498 1_555
Ni18 P10 2.270507 1_555
Ni18 P6 2.316543 1_555
Ni18 P9 2.316547 1_555
Ni18 P0 2.398579 1_455
Ni19 P11 2.270506 1_555
Ni19 P12 2.270506 1_555
Ni19 P8 2.316547 1_554
Ni19 P7 2.316547 1_554
Ni19 P1 2.398590 1_555
P2 P9 2.176506 1_545
P2 P6 2.176517 1_555
P2 P5 2.176517 1_445
P3 P4 2.176506 1_454
P3 P7 2.176517 1_444
P3 P8 2.176517 1_554
