# generated using pymatgen
data_In2Si2O7
_symmetry_space_group_name_H-M   'P 1'
_cell_length_a   6.75065510
_cell_length_b   6.75065510
_cell_length_c   6.75065510
_cell_angle_alpha   60.00000000
_cell_angle_beta   60.00000000
_cell_angle_gamma   60.00000000
_symmetry_Int_Tables_number   1
_chemical_formula_structural   In2Si2O7
_chemical_formula_sum   'In4 Si4 O14'
_cell_volume   217.53180433
_cell_formula_units_Z   2
loop_
 _symmetry_equiv_pos_site_id
 _symmetry_equiv_pos_as_xyz
  1  'x, y, z'
loop_
 _atom_site_type_symbol
 _atom_site_label
 _atom_site_symmetry_multiplicity
 _atom_site_fract_x
 _atom_site_fract_y
 _atom_site_fract_z
 _atom_site_occupancy
  In  In0  1  0.12500000  0.12500000  0.12500000  1
  In  In1  1  0.62500000  0.12500000  0.12500000  1
  In  In2  1  0.12500000  0.12500000  0.62500000  1
  In  In3  1  0.12500000  0.62500000  0.12500000  1
  Si  Si0  1  0.62500000  0.62500000  0.62500000  1
  Si  Si1  1  0.12500000  0.62500000  0.62500000  1
  Si  Si2  1  0.62500000  0.62500000  0.12500000  1
  Si  Si3  1  0.62500000  0.12500000  0.62500000  1
  O  O0  1  0.69607500  0.69607500  0.30392500  1
  O  O1  1  0.94607500  0.94607500  0.55392500  1
  O  O2  1  0.30392500  0.69607500  0.30392500  1
  O  O3  1  0.30392500  0.69607500  0.69607500  1
  O  O4  1  0.69607500  0.30392500  0.30392500  1
  O  O5  1  0.69607500  0.30392500  0.69607500  1
  O  O6  1  0.94607500  0.55392500  0.94607500  1
  O  O7  1  0.55392500  0.94607500  0.55392500  1
  O  O8  1  0.00000000  0.00000000  0.00000000  1
  O  O9  1  0.25000000  0.25000000  0.25000000  1
  O  O10  1  0.30392500  0.30392500  0.69607500  1
  O  O11  1  0.55392500  0.94607500  0.94607500  1
  O  O12  1  0.94607500  0.55392500  0.55392500  1
  O  O13  1  0.55392500  0.55392500  0.94607500  1
loop_
_geom_bond_atom_site_label_1
_geom_bond_atom_site_label_2
_geom_bond_distance
_geom_bond_site_symmetry_2
In0 O9 2.066958 1_555
In0 O8 2.066958 1_555
In0 O11 2.401263 1_544
In0 O2 2.401263 1_545
In0 O4 2.401263 1_455
In0 O10 2.401263 1_554
In0 O6 2.401263 1_454
In0 O1 2.401263 1_445
In1 O8 2.066958 1_655
In1 O9 2.066958 1_555
In1 O11 2.401263 1_544
In1 O4 2.401263 1_555
In1 O0 2.401263 1_545
In1 O5 2.401263 1_554
In1 O7 2.401263 1_545
In1 O13 2.401263 1_554
In2 O9 2.066958 1_555
In2 O8 2.066958 1_556
In2 O5 2.401263 1_455
In2 O12 2.401263 1_455
In2 O3 2.401263 1_545
In2 O1 2.401263 1_445
In2 O10 2.401263 1_555
In2 O7 2.401263 1_545
In3 O8 2.066958 1_565
In3 O9 2.066958 1_555
In3 O3 2.401263 1_554
In3 O12 2.401263 1_455
In3 O6 2.401263 1_454
In3 O2 2.401263 1_555
In3 O0 2.401263 1_455
In3 O13 2.401263 1_554
O0 Si2 1.818964 1_555
O0 Si0 1.818964 1_555
O1 Si3 1.818964 1_565
O1 Si1 1.818964 1_655
O2 Si2 1.818964 1_555
O2 Si1 1.818964 1_555
O3 Si1 1.818964 1_555
O3 Si0 1.818964 1_555
O4 Si2 1.818964 1_555
O4 Si3 1.818964 1_555
O5 Si3 1.818964 1_555
O5 Si0 1.818964 1_555
O6 Si2 1.818964 1_556
O6 Si1 1.818964 1_655
O7 Si3 1.818964 1_565
O7 Si0 1.818964 1_555
O10 Si1 1.818964 1_555
O10 Si3 1.818964 1_555
O11 Si2 1.818964 1_556
O11 Si3 1.818964 1_565
O12 Si0 1.818964 1_555
O12 Si1 1.818964 1_655
O13 Si2 1.818964 1_556
O13 Si0 1.818964 1_555
