# generated using pymatgen
data_CaFe(GeO3)2
_symmetry_space_group_name_H-M   'P 1'
_cell_length_a   5.51440251
_cell_length_b   10.33367810
_cell_length_c   9.16686818
_cell_angle_alpha   88.93047144
_cell_angle_beta   89.69769270
_cell_angle_gamma   75.90198552
_symmetry_Int_Tables_number   1
_chemical_formula_structural   CaFe(GeO3)2
_chemical_formula_sum   'Ca4 Fe4 Ge8 O24'
_cell_volume   506.54355588
_cell_formula_units_Z   4
loop_
 _symmetry_equiv_pos_site_id
 _symmetry_equiv_pos_as_xyz
  1  'x, y, z'
loop_
 _atom_site_type_symbol
 _atom_site_label
 _atom_site_symmetry_multiplicity
 _atom_site_fract_x
 _atom_site_fract_y
 _atom_site_fract_z
 _atom_site_occupancy
  Ca  Ca0  1  0.75146000  0.50045500  0.19716500  1
  Ca  Ca1  1  0.75142800  0.00044000  0.69659600  1
  Ca  Ca2  1  0.24833200  0.49956700  0.80261500  1
  Ca  Ca3  1  0.24854300  0.99949900  0.30341800  1
  Fe  Fe0  1  0.74888900  0.00024400  0.09043400  1
  Fe  Fe1  1  0.25114800  0.99984200  0.90955400  1
  Fe  Fe2  1  0.74942900  0.50012600  0.59115800  1
  Fe  Fe3  1  0.25069400  0.49980100  0.40851500  1
  Ge  Ge0  1  0.77304900  0.28619800  0.90336400  1
  Ge  Ge1  1  0.77284300  0.78634000  0.40349900  1
  Ge  Ge2  1  0.72786900  0.71467000  0.90068900  1
  Ge  Ge3  1  0.72800400  0.21436800  0.40044900  1
  Ge  Ge4  1  0.22695300  0.71386000  0.09674900  1
  Ge  Ge5  1  0.22704700  0.21350400  0.59651600  1
  Ge  Ge6  1  0.27212800  0.28536500  0.09948200  1
  Ge  Ge7  1  0.27210300  0.78561300  0.59952500  1
  O  O0  1  0.52242400  0.35817400  0.03246400  1
  O  O1  1  0.52246400  0.85840900  0.53259400  1
  O  O2  1  0.97548300  0.64288300  0.03462300  1
  O  O3  1  0.97549500  0.14264900  0.53436000  1
  O  O4  1  0.47739800  0.64186000  0.96754600  1
  O  O5  1  0.47750100  0.14164000  0.46733800  1
  O  O6  1  0.02451000  0.35714500  0.96562300  1
  O  O7  1  0.02440700  0.85717600  0.46566000  1
  O  O8  1  0.14941800  0.36624500  0.25691000  1
  O  O9  1  0.14947700  0.86716100  0.75648600  1
  O  O10  1  0.34553100  0.63259600  0.25814900  1
  O  O11  1  0.34542800  0.13175800  0.75755100  1
  O  O12  1  0.85080500  0.63365300  0.74343600  1
  O  O13  1  0.85063300  0.13290700  0.24343700  1
  O  O14  1  0.65479500  0.36785800  0.74212900  1
  O  O15  1  0.65477700  0.86815400  0.24243500  1
  O  O16  1  0.85607100  0.11154700  0.90792600  1
  O  O17  1  0.85518100  0.61166100  0.40858000  1
  O  O18  1  0.63890400  0.88855000  0.90527000  1
  O  O19  1  0.63923800  0.38813800  0.40530700  1
  O  O20  1  0.14394200  0.88851200  0.09211100  1
  O  O21  1  0.14399200  0.38814900  0.59145700  1
  O  O22  1  0.36102500  0.11149300  0.09479300  1
  O  O23  1  0.36118300  0.61179300  0.59409000  1
loop_
_geom_bond_atom_site_label_1
_geom_bond_atom_site_label_2
_geom_bond_distance
_geom_bond_site_symmetry_2
Ca0 O8 2.353904 1_655
Ca0 O19 2.371780 1_555
Ca0 O10 2.390402 1_555
Ca0 O17 2.412189 1_555
Ca0 O2 2.587833 1_555
Ca0 O0 2.654056 1_555
Ca0 O4 2.773566 1_554
Ca0 O6 2.821821 1_654
Ca1 O9 2.351179 1_645
Ca1 O18 2.373913 1_545
Ca1 O11 2.387708 1_555
Ca1 O16 2.412816 1_555
Ca1 O3 2.584878 1_555
Ca1 O1 2.648329 1_545
Ca1 O5 2.769960 1_555
Ca1 O7 2.817254 1_645
Ca2 O12 2.350397 1_455
Ca2 O23 2.375368 1_555
Ca2 O14 2.390113 1_555
Ca2 O21 2.412701 1_555
Ca2 O6 2.589518 1_555
Ca2 O4 2.655468 1_555
Ca2 O0 2.775174 1_556
Ca2 O2 2.824646 1_456
Ca3 O13 2.351234 1_465
Ca3 O22 2.374044 1_565
Ca3 O15 2.388896 1_555
Ca3 O20 2.411880 1_555
Ca3 O7 2.585937 1_555
Ca3 O5 2.648647 1_565
Ca3 O1 2.768950 1_555
Ca3 O3 2.816967 1_465
Fe0 O15 2.083373 1_545
Fe0 O13 2.148511 1_555
Fe0 O22 2.168131 1_555
Fe0 O16 2.172590 1_554
Fe0 O20 2.203058 1_645
Fe0 O18 2.237443 1_544
Fe1 O11 2.082497 1_565
Fe1 O9 2.148871 1_555
Fe1 O18 2.167734 1_555
Fe1 O20 2.173145 1_556
Fe1 O16 2.203092 1_465
Fe1 O22 2.237469 1_566
Fe2 O14 2.079668 1_555
Fe2 O12 2.149632 1_555
Fe2 O23 2.170930 1_555
Fe2 O17 2.171353 1_555
Fe2 O21 2.201457 1_655
Fe2 O19 2.244557 1_555
Fe3 O10 2.080369 1_555
Fe3 O8 2.145532 1_555
Fe3 O19 2.172371 1_555
Fe3 O21 2.176657 1_555
Fe3 O17 2.205636 1_455
Fe3 O23 2.243293 1_555
Ge0 O14 1.737065 1_555
Ge0 O16 1.750275 1_555
Ge0 O6 1.818040 1_655
Ge0 O0 1.838103 1_556
Ge1 O15 1.736075 1_555
Ge1 O17 1.750554 1_555
Ge1 O7 1.817556 1_655
Ge1 O1 1.837417 1_555
Ge2 O12 1.731099 1_555
Ge2 O18 1.744755 1_555
Ge2 O4 1.824700 1_555
Ge2 O2 1.847256 1_556
Ge3 O13 1.730650 1_555
Ge3 O19 1.743736 1_555
Ge3 O5 1.824446 1_555
Ge3 O3 1.846532 1_555
Ge4 O10 1.737267 1_555
Ge4 O20 1.750289 1_555
Ge4 O2 1.817871 1_455
Ge4 O4 1.838128 1_554
Ge5 O11 1.736038 1_555
Ge5 O21 1.750250 1_555
Ge5 O3 1.817600 1_455
Ge5 O5 1.837684 1_555
Ge6 O8 1.731540 1_555
Ge6 O22 1.744705 1_555
Ge6 O0 1.824348 1_555
Ge6 O6 1.846801 1_554
Ge7 O9 1.730620 1_555
Ge7 O23 1.744522 1_555
Ge7 O1 1.824316 1_555
Ge7 O7 1.846647 1_555
