# generated using pymatgen
data_Nd2MgSe4
_symmetry_space_group_name_H-M   'P 1'
_cell_length_a   6.96636500
_cell_length_b   8.56518100
_cell_length_c   14.62945800
_cell_angle_alpha   90.00000000
_cell_angle_beta   90.00000000
_cell_angle_gamma   90.00000000
_symmetry_Int_Tables_number   1
_chemical_formula_structural   Nd2MgSe4
_chemical_formula_sum   'Nd8 Mg4 Se16'
_cell_volume   872.91309136
_cell_formula_units_Z   4
loop_
 _symmetry_equiv_pos_site_id
 _symmetry_equiv_pos_as_xyz
  1  'x, y, z'
loop_
 _atom_site_type_symbol
 _atom_site_label
 _atom_site_symmetry_multiplicity
 _atom_site_fract_x
 _atom_site_fract_y
 _atom_site_fract_z
 _atom_site_occupancy
  Nd  Nd0  1  0.50000000  0.00000000  0.00000000  1
  Nd  Nd1  1  0.00000000  0.00000000  0.50000000  1
  Nd  Nd2  1  0.00000000  0.50000000  0.50000000  1
  Nd  Nd3  1  0.50000000  0.50000000  0.00000000  1
  Nd  Nd4  1  0.00084100  0.75000000  0.23336400  1
  Nd  Nd5  1  0.99915900  0.25000000  0.76663600  1
  Nd  Nd6  1  0.50084100  0.25000000  0.26663600  1
  Nd  Nd7  1  0.49915900  0.75000000  0.73336400  1
  Mg  Mg0  1  0.91717700  0.25000000  0.09254400  1
  Mg  Mg1  1  0.08282300  0.75000000  0.90745600  1
  Mg  Mg2  1  0.41717700  0.75000000  0.40745600  1
  Mg  Mg3  1  0.58282300  0.25000000  0.59254400  1
  Se  Se0  1  0.74576400  0.01302000  0.16878700  1
  Se  Se1  1  0.25423600  0.98698000  0.83121300  1
  Se  Se2  1  0.24576400  0.98698000  0.33121300  1
  Se  Se3  1  0.75423600  0.01302000  0.66878700  1
  Se  Se4  1  0.75423600  0.48698000  0.66878700  1
  Se  Se5  1  0.24576400  0.51302000  0.33121300  1
  Se  Se6  1  0.25423600  0.51302000  0.83121300  1
  Se  Se7  1  0.74576400  0.48698000  0.16878700  1
  Se  Se8  1  0.24486900  0.75000000  0.06908300  1
  Se  Se9  1  0.75513100  0.25000000  0.93091700  1
  Se  Se10  1  0.74486900  0.25000000  0.43091700  1
  Se  Se11  1  0.25513100  0.75000000  0.56908300  1
  Se  Se12  1  0.28270500  0.25000000  0.09185000  1
  Se  Se13  1  0.71729500  0.75000000  0.90815000  1
  Se  Se14  1  0.78270500  0.75000000  0.40815000  1
  Se  Se15  1  0.21729500  0.25000000  0.59185000  1
loop_
_geom_bond_atom_site_label_1
_geom_bond_atom_site_label_2
_geom_bond_distance
_geom_bond_site_symmetry_2
Nd0 Se13 2.946553 1_544
Nd0 Se12 2.946553 1_555
Nd0 Se8 2.960654 1_545
Nd0 Se9 2.960654 1_554
Nd0 Se0 3.006812 1_555
Nd0 Se1 3.006812 1_544
Nd1 Se15 2.946553 1_555
Nd1 Se14 2.946553 1_445
Nd1 Se10 2.960654 1_455
Nd1 Se11 2.960654 1_545
Nd1 Se2 3.006812 1_545
Nd1 Se3 3.006812 1_455
Nd2 Se14 2.946553 1_455
Nd2 Se15 2.946553 1_555
Nd2 Se11 2.960654 1_555
Nd2 Se10 2.960654 1_455
Nd2 Se5 3.006812 1_555
Nd2 Se4 3.006812 1_455
Nd3 Se13 2.946553 1_554
Nd3 Se12 2.946553 1_555
Nd3 Se8 2.960654 1_555
Nd3 Se9 2.960654 1_554
Nd3 Se7 3.006812 1_555
Nd3 Se6 3.006812 1_554
Nd4 Se8 2.943809 1_555
Nd4 Se14 2.974492 1_455
Nd4 Se2 3.013357 1_555
Nd4 Se5 3.013357 1_555
Nd4 Se7 3.020805 1_455
Nd4 Se0 3.020805 1_465
Nd5 Se9 2.943809 1_555
Nd5 Se15 2.974492 1_655
Nd5 Se4 3.013357 1_555
Nd5 Se3 3.013357 1_555
Nd5 Se1 3.020805 1_645
Nd5 Se6 3.020805 1_655
Nd6 Se10 2.943809 1_555
Nd6 Se12 2.974492 1_555
Nd6 Se0 3.013357 1_555
Nd6 Se7 3.013357 1_555
Nd6 Se2 3.020805 1_545
Nd6 Se5 3.020805 1_555
Nd7 Se11 2.943809 1_555
Nd7 Se13 2.974492 1_555
Nd7 Se1 3.013357 1_555
Nd7 Se6 3.013357 1_555
Nd7 Se4 3.020805 1_555
Nd7 Se3 3.020805 1_565
Mg0 Se12 2.546422 1_655
Mg0 Se7 2.605769 1_555
Mg0 Se0 2.605769 1_555
Mg0 Se9 2.620169 1_554
Mg1 Se13 2.546422 1_455
Mg1 Se1 2.605769 1_555
Mg1 Se6 2.605769 1_555
Mg1 Se8 2.620169 1_556
Mg2 Se14 2.546422 1_555
Mg2 Se2 2.605769 1_555
Mg2 Se5 2.605769 1_555
Mg2 Se11 2.620169 1_555
Mg3 Se15 2.546422 1_555
Mg3 Se3 2.605769 1_555
Mg3 Se4 2.605769 1_555
Mg3 Se10 2.620169 1_555
