# generated using pymatgen
data_SmCrO3
_symmetry_space_group_name_H-M   'P 1'
_cell_length_a   3.87757300
_cell_length_b   3.87757300
_cell_length_c   3.87757300
_cell_angle_alpha   90.00000000
_cell_angle_beta   90.00000000
_cell_angle_gamma   90.00000000
_symmetry_Int_Tables_number   1
_chemical_formula_structural   SmCrO3
_chemical_formula_sum   'Sm1 Cr1 O3'
_cell_volume   58.30152946
_cell_formula_units_Z   1
loop_
 _symmetry_equiv_pos_site_id
 _symmetry_equiv_pos_as_xyz
  1  'x, y, z'
loop_
 _atom_site_type_symbol
 _atom_site_label
 _atom_site_symmetry_multiplicity
 _atom_site_fract_x
 _atom_site_fract_y
 _atom_site_fract_z
 _atom_site_occupancy
  Sm  Sm0  1  0.50000000  0.50000000  0.50000000  1
  Cr  Cr0  1  0.00000000  0.00000000  0.00000000  1
  O  O0  1  0.50000000  0.00000000  0.00000000  1
  O  O1  1  0.00000000  0.50000000  0.00000000  1
  O  O2  1  0.00000000  0.00000000  0.50000000  1
loop_
_geom_bond_atom_site_label_1
_geom_bond_atom_site_label_2
_geom_bond_distance
_geom_bond_site_symmetry_2
Cr0 O1 1.938786 1_545
Cr0 O1 1.938786 1_555
Cr0 O0 1.938786 1_555
Cr0 O2 1.938786 1_555
Cr0 O0 1.938786 1_455
Cr0 O2 1.938786 1_554
O0 Sm0 2.741858 1_554
O0 Sm0 2.741858 1_555
O0 Sm0 2.741858 1_545
O0 Sm0 2.741858 1_544
O1 Sm0 2.741858 1_554
O1 Sm0 2.741858 1_455
O1 Sm0 2.741858 1_555
O1 Sm0 2.741858 1_454
O2 Sm0 2.741858 1_455
O2 Sm0 2.741858 1_555
O2 Sm0 2.741858 1_445
O2 Sm0 2.741858 1_545
