# generated using pymatgen
data_HfNiO3
_symmetry_space_group_name_H-M   'P 1'
_cell_length_a   5.33835300
_cell_length_b   4.97777700
_cell_length_c   9.46694726
_cell_angle_alpha   59.27469895
_cell_angle_beta   90.00000000
_cell_angle_gamma   90.00000000
_symmetry_Int_Tables_number   1
_chemical_formula_structural   HfNiO3
_chemical_formula_sum   'Hf4 Ni4 O12'
_cell_volume   216.25322780
_cell_formula_units_Z   4
loop_
 _symmetry_equiv_pos_site_id
 _symmetry_equiv_pos_as_xyz
  1  'x, y, z'
loop_
 _atom_site_type_symbol
 _atom_site_label
 _atom_site_symmetry_multiplicity
 _atom_site_fract_x
 _atom_site_fract_y
 _atom_site_fract_z
 _atom_site_occupancy
  Hf  Hf0  1  0.57573500  0.20686100  0.25156800  1
  Hf  Hf1  1  0.07573500  0.79313900  0.24843200  1
  Hf  Hf2  1  0.92426500  0.20686100  0.75156800  1
  Hf  Hf3  1  0.42426500  0.79313900  0.74843200  1
  Ni  Ni0  1  0.00000000  0.50000000  0.00000000  1
  Ni  Ni1  1  0.00000000  0.00000000  0.50000000  1
  Ni  Ni2  1  0.50000000  0.00000000  0.00000000  1
  Ni  Ni3  1  0.50000000  0.50000000  0.50000000  1
  O  O0  1  0.08018400  0.57569200  0.75560900  1
  O  O1  1  0.30673400  0.89910200  0.41237900  1
  O  O2  1  0.30972700  0.21813800  0.08915300  1
  O  O3  1  0.80972700  0.78186200  0.41084700  1
  O  O4  1  0.80673400  0.10089800  0.08762100  1
  O  O5  1  0.58018400  0.42430800  0.74439100  1
  O  O6  1  0.41981600  0.57569200  0.25560900  1
  O  O7  1  0.19326600  0.89910200  0.91237900  1
  O  O8  1  0.19027300  0.21813800  0.58915300  1
  O  O9  1  0.69027300  0.78186200  0.91084700  1
  O  O10  1  0.69326600  0.10089800  0.58762100  1
  O  O11  1  0.91981600  0.42430800  0.24439100  1
loop_
_geom_bond_atom_site_label_1
_geom_bond_atom_site_label_2
_geom_bond_distance
_geom_bond_site_symmetry_2
Hf0 O6 2.033909 1_555
Hf0 O2 2.072587 1_555
Hf0 O1 2.084115 1_545
Hf0 O11 2.115418 1_555
Hf0 O4 2.245968 1_555
Hf0 O3 2.247200 1_545
Hf1 O11 2.033909 1_455
Hf1 O3 2.072587 1_455
Hf1 O4 2.084115 1_465
Hf1 O6 2.115418 1_555
Hf1 O1 2.245968 1_555
Hf1 O2 2.247200 1_565
Hf2 O0 2.033909 1_655
Hf2 O8 2.072587 1_655
Hf2 O7 2.084115 1_645
Hf2 O5 2.115418 1_555
Hf2 O10 2.245968 1_555
Hf2 O9 2.247200 1_545
Hf3 O5 2.033909 1_555
Hf3 O9 2.072587 1_555
Hf3 O10 2.084115 1_565
Hf3 O0 2.115418 1_555
Hf3 O7 2.245968 1_555
Hf3 O8 2.247200 1_565
Ni0 O7 2.003832 1_554
Ni0 O4 2.003832 1_455
Ni0 O2 2.050530 1_555
Ni0 O9 2.050530 1_454
Ni0 O11 2.187998 1_455
Ni0 O0 2.187998 1_554
Ni1 O8 1.964591 1_555
Ni1 O3 1.964591 1_445
Ni1 O10 2.011791 1_455
Ni1 O1 2.011791 1_545
Ni1 O0 2.297224 1_545
Ni1 O11 2.297224 1_455
Ni2 O2 1.964591 1_555
Ni2 O9 1.964591 1_544
Ni2 O4 2.011791 1_555
Ni2 O7 2.011791 1_544
Ni2 O6 2.297224 1_545
Ni2 O5 2.297224 1_554
Ni3 O1 2.003832 1_555
Ni3 O10 2.003832 1_555
Ni3 O3 2.050530 1_555
Ni3 O8 2.050530 1_555
Ni3 O5 2.187998 1_555
Ni3 O6 2.187998 1_555
