# generated using pymatgen
data_Cu3Pd2
_symmetry_space_group_name_H-M   'P 1'
_cell_length_a   2.97257750
_cell_length_b   2.97257750
_cell_length_c   14.59612480
_cell_angle_alpha   90.00000000
_cell_angle_beta   90.00000000
_cell_angle_gamma   90.00000000
_symmetry_Int_Tables_number   1
_chemical_formula_structural   Cu3Pd2
_chemical_formula_sum   'Cu6 Pd4'
_cell_volume   128.97452600
_cell_formula_units_Z   2
loop_
 _symmetry_equiv_pos_site_id
 _symmetry_equiv_pos_as_xyz
  1  'x, y, z'
loop_
 _atom_site_type_symbol
 _atom_site_label
 _atom_site_symmetry_multiplicity
 _atom_site_fract_x
 _atom_site_fract_y
 _atom_site_fract_z
 _atom_site_occupancy
  Cu  Cu0  1  0.50000000  0.50000000  0.08894565  1
  Cu  Cu1  1  0.50000000  0.50000000  0.29537102  1
  Cu  Cu2  1  0.50000000  0.50000000  0.50000000  1
  Cu  Cu3  1  0.50000000  0.50000000  0.70462898  1
  Cu  Cu4  1  0.50000000  0.50000000  0.91105435  1
  Cu  Cu5  1  0.00000000  0.00000000  0.00000000  1
  Pd  Pd0  1  -0.00000000  -0.00000000  0.19125162  1
  Pd  Pd1  1  0.00000000  -0.00000000  0.39725013  1
  Pd  Pd2  1  -0.00000000  0.00000000  0.60274987  1
  Pd  Pd3  1  0.00000000  0.00000000  0.80874838  1
loop_
_geom_bond_atom_site_label_1
_geom_bond_atom_site_label_2
_geom_bond_distance
_geom_bond_site_symmetry_2
Cu0 Cu5 2.470545 1_655
Cu0 Cu5 2.470545 1_565
Cu0 Cu5 2.470545 1_665
Cu0 Cu5 2.470545 1_555
Cu0 Pd0 2.578365 1_555
Cu0 Pd0 2.578365 1_565
Cu0 Pd0 2.578365 1_655
Cu0 Pd0 2.578365 1_665
Cu1 Pd1 2.574762 1_555
Cu1 Pd1 2.574762 1_565
Cu1 Pd1 2.574762 1_655
Cu1 Pd1 2.574762 1_665
Cu1 Pd0 2.593784 1_665
Cu1 Pd0 2.593784 1_555
Cu1 Pd0 2.593784 1_565
Cu1 Pd0 2.593784 1_655
Cu2 Pd1 2.582123 1_565
Cu2 Pd1 2.582123 1_555
Cu2 Pd1 2.582123 1_655
Cu2 Pd1 2.582123 1_665
Cu2 Pd2 2.582123 1_555
Cu2 Pd2 2.582123 1_565
Cu2 Pd2 2.582123 1_665
Cu2 Pd2 2.582123 1_655
Cu3 Pd2 2.574762 1_555
Cu3 Pd2 2.574762 1_665
Cu3 Pd2 2.574762 1_655
Cu3 Pd2 2.574762 1_565
Cu3 Pd3 2.593784 1_665
Cu3 Pd3 2.593784 1_555
Cu3 Pd3 2.593784 1_565
Cu3 Pd3 2.593784 1_655
Cu4 Cu5 2.470545 1_566
Cu4 Cu5 2.470545 1_556
Cu4 Cu5 2.470545 1_666
Cu4 Cu5 2.470545 1_656
Cu4 Pd3 2.578365 1_555
Cu4 Pd3 2.578365 1_655
Cu4 Pd3 2.578365 1_665
Cu4 Pd3 2.578365 1_565
Cu5 Pd3 2.791533 1_554
Cu5 Pd0 2.791533 1_555
