# generated using pymatgen
data_Zr2TcRh
_symmetry_space_group_name_H-M   'P 1'
_cell_length_a   4.63206746
_cell_length_b   4.63206746
_cell_length_c   4.63206746
_cell_angle_alpha   60.00000000
_cell_angle_beta   60.00000000
_cell_angle_gamma   60.00000000
_symmetry_Int_Tables_number   1
_chemical_formula_structural   Zr2TcRh
_chemical_formula_sum   'Zr2 Tc1 Rh1'
_cell_volume   70.27641981
_cell_formula_units_Z   1
loop_
 _symmetry_equiv_pos_site_id
 _symmetry_equiv_pos_as_xyz
  1  'x, y, z'
loop_
 _atom_site_type_symbol
 _atom_site_label
 _atom_site_symmetry_multiplicity
 _atom_site_fract_x
 _atom_site_fract_y
 _atom_site_fract_z
 _atom_site_occupancy
  Zr  Zr0  1  0.25000000  0.25000000  0.25000000  1
  Zr  Zr1  1  0.75000000  0.75000000  0.75000000  1
  Tc  Tc0  1  0.00000000  -0.00000000  -0.00000000  1
  Rh  Rh0  1  0.50000000  0.50000000  0.50000000  1
loop_
_geom_bond_atom_site_label_1
_geom_bond_atom_site_label_2
_geom_bond_distance
_geom_bond_site_symmetry_2
Tc0 Zr1 2.836550 1_544
Tc0 Zr0 2.836550 1_455
Tc0 Zr0 2.836550 1_555
Tc0 Zr0 2.836550 1_554
Tc0 Zr1 2.836550 1_445
Tc0 Zr1 2.836550 1_454
Tc0 Zr1 2.836550 1_444
Tc0 Zr0 2.836550 1_545
Rh0 Zr0 2.836550 1_555
Rh0 Zr0 2.836550 1_556
Rh0 Zr1 2.836550 1_555
Rh0 Zr1 2.836550 1_455
Rh0 Zr1 2.836550 1_545
Rh0 Zr1 2.836550 1_554
Rh0 Zr0 2.836550 1_655
Rh0 Zr0 2.836550 1_565
