# generated using pymatgen
data_Li4MnCo2O7
_symmetry_space_group_name_H-M   'P 1'
_cell_length_a   2.94688500
_cell_length_b   5.10912610
_cell_length_c   16.77743041
_cell_angle_alpha   89.06582165
_cell_angle_beta   85.87508588
_cell_angle_gamma   89.68934841
_symmetry_Int_Tables_number   1
_chemical_formula_structural   Li4MnCo2O7
_chemical_formula_sum   'Li8 Mn2 Co4 O14'
_cell_volume   251.91099835
_cell_formula_units_Z   2
loop_
 _symmetry_equiv_pos_site_id
 _symmetry_equiv_pos_as_xyz
  1  'x, y, z'
loop_
 _atom_site_type_symbol
 _atom_site_label
 _atom_site_symmetry_multiplicity
 _atom_site_fract_x
 _atom_site_fract_y
 _atom_site_fract_z
 _atom_site_occupancy
  Li  Li0  1  0.92283100  0.63301700  0.14797600  1
  Li  Li1  1  0.37202300  0.79792000  0.27764200  1
  Li  Li2  1  0.79454300  0.93082300  0.42499700  1
  Li  Li3  1  0.21114800  0.06917400  0.57343500  1
  Li  Li4  1  0.64704600  0.21435800  0.71370200  1
  Li  Li5  1  0.07689400  0.36015200  0.85698400  1
  Li  Li6  1  0.49397500  0.49204300  0.00675000  1
  Li  Li7  1  0.42863900  0.15166600  0.14095600  1
  Mn  Mn0  1  0.97770100  0.00370200  0.00309100  1
  Mn  Mn1  1  0.28771900  0.42588000  0.42834500  1
  Co  Co0  1  0.86951500  0.27203300  0.27445000  1
  Co  Co1  1  0.71425100  0.58530400  0.57507900  1
  Co  Co2  1  0.15033800  0.71254000  0.71717500  1
  Co  Co3  1  0.56527000  0.84939700  0.85720600  1
  O  O0  1  0.45659700  0.84429300  0.06097100  1
  O  O1  1  0.89516400  0.97699200  0.21962300  1
  O  O2  1  0.32214900  0.13399300  0.36110600  1
  O  O3  1  0.75866000  0.27862400  0.49606700  1
  O  O4  1  0.18347300  0.41351200  0.64328200  1
  O  O5  1  0.62017200  0.55245800  0.78629000  1
  O  O6  1  0.98746300  0.70298700  0.92519500  1
  O  O7  1  0.39383000  0.46190900  0.22009500  1
  O  O8  1  0.81253300  0.57529900  0.36715700  1
  O  O9  1  0.24805000  0.72585600  0.50059900  1
  O  O10  1  0.68401800  0.88124700  0.64231300  1
  O  O11  1  0.15169900  0.01434100  0.78602000  1
  O  O12  1  0.51153700  0.14090400  0.93102700  1
  O  O13  1  0.96276200  0.29957500  0.06246800  1
loop_
_geom_bond_atom_site_label_1
_geom_bond_atom_site_label_2
_geom_bond_distance
_geom_bond_site_symmetry_2
Li0 O7 2.085359 1_655
Li0 O7 2.089831 1_555
Li0 O1 2.143199 1_555
Li0 O13 2.242189 1_555
Li0 O0 2.324809 1_555
Li0 O0 2.325262 1_655
Li1 O1 1.978156 1_455
Li1 O7 1.981757 1_555
Li1 O1 1.982822 1_555
Li1 O2 2.230864 1_565
Li1 O8 2.333041 1_555
Li1 O8 2.424040 1_455
Li2 O8 2.071932 1_555
Li2 O2 2.080181 1_565
Li2 O2 2.094124 1_665
Li2 O3 2.153933 1_565
Li2 O9 2.162619 1_655
Li2 O9 2.231625 1_555
Li3 O10 2.092863 1_545
Li3 O10 2.095722 1_445
Li3 O4 2.127634 1_555
Li3 O9 2.151866 1_545
Li3 O3 2.190045 1_455
Li3 O3 2.259513 1_555
Li4 O11 2.090022 1_555
Li4 O10 2.094894 1_545
Li4 O4 2.115494 1_555
Li4 O5 2.127567 1_555
Li4 O4 2.153979 1_655
Li4 O11 2.220524 1_655
Li5 O5 2.088268 1_455
Li5 O6 2.112852 1_455
Li5 O12 2.146273 1_555
Li5 O11 2.148086 1_555
Li5 O5 2.154321 1_555
Li5 O12 2.291457 1_455
Li6 O13 1.972394 1_555
Li6 O13 2.016822 1_455
Li6 O0 2.028637 1_555
Li6 O6 2.198004 1_554
Li6 O12 2.213374 1_554
Li6 O6 2.343067 1_454
Li7 O0 2.079708 1_545
Li7 O7 2.081624 1_555
Li7 O13 2.099117 1_455
Li7 O13 2.113016 1_555
Li7 O1 2.153549 1_545
Li7 O1 2.165216 1_445
Mn0 O13 1.822500 1_555
Mn0 O0 1.933318 1_545
Mn0 O0 1.938256 1_645
Mn0 O12 2.010268 1_554
Mn0 O6 2.031965 1_544
Mn0 O12 2.034375 1_654
Mn1 O2 1.882442 1_555
Mn1 O8 1.940926 1_455
Mn1 O8 1.946112 1_555
Mn1 O9 1.967319 1_555
Mn1 O3 1.992648 1_555
Mn1 O3 2.004421 1_455
Co0 O1 1.777100 1_545
Co0 O7 1.969276 1_555
Co0 O7 1.986139 1_655
Co0 O2 2.150733 1_655
Co0 O2 2.203292 1_555
Co0 O8 2.210503 1_555
Co1 O10 1.899006 1_555
Co1 O9 2.042444 1_555
Co1 O4 2.042895 1_655
Co1 O4 2.061775 1_555
Co1 O9 2.061989 1_655
Co1 O3 2.066400 1_555
Co2 O11 1.941784 1_565
Co2 O4 1.980730 1_555
Co2 O5 2.029352 1_555
Co2 O5 2.043707 1_455
Co2 O10 2.099768 1_455
Co2 O10 2.118740 1_555
Co3 O6 1.890732 1_555
Co3 O5 1.942129 1_555
Co3 O11 1.946114 1_565
Co3 O12 1.951038 1_565
Co3 O6 2.113423 1_455
Co3 O11 2.192963 1_665
