# generated using pymatgen
data_Na15Mo7N19
_symmetry_space_group_name_H-M   'P 1'
_cell_length_a   6.24091887
_cell_length_b   11.74788663
_cell_length_c   18.81711297
_cell_angle_alpha   91.60124802
_cell_angle_beta   93.63176636
_cell_angle_gamma   102.60146876
_symmetry_Int_Tables_number   1
_chemical_formula_structural   Na15Mo7N19
_chemical_formula_sum   'Na30 Mo14 N38'
_cell_volume   1342.45237088
_cell_formula_units_Z   2
loop_
 _symmetry_equiv_pos_site_id
 _symmetry_equiv_pos_as_xyz
  1  'x, y, z'
loop_
 _atom_site_type_symbol
 _atom_site_label
 _atom_site_symmetry_multiplicity
 _atom_site_fract_x
 _atom_site_fract_y
 _atom_site_fract_z
 _atom_site_occupancy
  Na  Na0  1  0.54210300  0.62286100  0.44923800  1
  Na  Na1  1  0.45789700  0.37713900  0.55076200  1
  Na  Na2  1  0.54884600  0.14893600  0.63754600  1
  Na  Na3  1  0.45115400  0.85106400  0.36245400  1
  Na  Na4  1  0.73968700  0.99837400  0.19424900  1
  Na  Na5  1  0.26031300  0.00162600  0.80575100  1
  Na  Na6  1  0.91376100  0.01912000  0.36646600  1
  Na  Na7  1  0.08623900  0.98088000  0.63353400  1
  Na  Na8  1  0.86456800  0.76667900  0.29604600  1
  Na  Na9  1  0.13543200  0.23332100  0.70395400  1
  Na  Na10  1  0.82269900  0.16124100  0.83420400  1
  Na  Na11  1  0.17730100  0.83875900  0.16579600  1
  Na  Na12  1  0.89561400  0.91039000  0.91531200  1
  Na  Na13  1  0.10438600  0.08961000  0.08468800  1
  Na  Na14  1  0.69460200  0.11033000  0.99509600  1
  Na  Na15  1  0.30539800  0.88967000  0.00490400  1
  Na  Na16  1  0.67121800  0.92145700  0.52029200  1
  Na  Na17  1  0.32878200  0.07854300  0.47970800  1
  Na  Na18  1  0.65899900  0.47548600  0.29653900  1
  Na  Na19  1  0.34100100  0.52451400  0.70346100  1
  Na  Na20  1  0.96028100  0.35637700  0.00564000  1
  Na  Na21  1  0.03971900  0.64362300  0.99436000  1
  Na  Na22  1  0.89365700  0.69015300  0.80299800  1
  Na  Na23  1  0.10634300  0.30984700  0.19700200  1
  Na  Na24  1  0.69451400  0.23001900  0.39401200  1
  Na  Na25  1  0.30548600  0.76998100  0.60598800  1
  Na  Na26  1  0.56879200  0.37007600  0.83712700  1
  Na  Na27  1  0.43120800  0.62992400  0.16287300  1
  Na  Na28  1  0.00000000  0.50000000  0.50000000  1
  Na  Na29  1  0.50000000  0.50000000  0.00000000  1
  Mo  Mo0  1  0.58744300  0.24838900  0.13150000  1
  Mo  Mo1  1  0.41255700  0.75161100  0.86850000  1
  Mo  Mo2  1  0.79314300  0.41135700  0.69329600  1
  Mo  Mo3  1  0.20685700  0.58864300  0.30670400  1
  Mo  Mo4  1  0.73905300  0.66735600  0.61416500  1
  Mo  Mo5  1  0.26094700  0.33264400  0.38583500  1
  Mo  Mo6  1  0.03922700  0.76713100  0.45881300  1
  Mo  Mo7  1  0.96077300  0.23286900  0.54118700  1
  Mo  Mo8  1  0.90296800  0.54179300  0.14342100  1
  Mo  Mo9  1  0.09703200  0.45820700  0.85657900  1
  Mo  Mo10  1  0.67244300  0.91993000  0.72308300  1
  Mo  Mo11  1  0.32755700  0.08007000  0.27691700  1
  Mo  Mo12  1  0.70065700  0.78257600  0.05592900  1
  Mo  Mo13  1  0.29934300  0.21742400  0.94407100  1
  N  N0  1  0.81019600  0.17713700  0.12233500  1
  N  N1  1  0.18980400  0.82286300  0.87766500  1
  N  N2  1  0.87640000  0.33913200  0.61202400  1
  N  N3  1  0.12360000  0.66086800  0.38797600  1
  N  N4  1  0.57548400  0.03640000  0.30757200  1
  N  N5  1  0.42451600  0.96360000  0.69242800  1
  N  N6  1  0.62499500  0.83466200  0.81105700  1
  N  N7  1  0.37500500  0.16533800  0.18894300  1
  N  N8  1  0.70289200  0.40510300  0.17061300  1
  N  N9  1  0.29710800  0.59489700  0.82938700  1
  N  N10  1  0.53642400  0.40499000  0.41752200  1
  N  N11  1  0.46357600  0.59501000  0.58247800  1
  N  N12  1  0.71937400  0.12476800  0.50934800  1
  N  N13  1  0.28062600  0.87523200  0.49065200  1
  N  N14  1  0.92593000  0.67561100  0.53823700  1
  N  N15  1  0.07407000  0.32438900  0.46176300  1
  N  N16  1  0.96648600  0.88234300  0.05423200  1
  N  N17  1  0.03351400  0.11765700  0.94576800  1
  N  N18  1  0.82403100  0.83271200  0.42049900  1
  N  N19  1  0.17596900  0.16728800  0.57950100  1
  N  N20  1  0.74651200  0.82082400  0.64617900  1
  N  N21  1  0.25348800  0.17917600  0.35382100  1
  N  N22  1  0.88624900  0.49423900  0.90733600  1
  N  N23  1  0.11375100  0.50576100  0.09266400  1
  N  N24  1  0.55434900  0.75554100  0.96118800  1
  N  N25  1  0.44565100  0.24445900  0.03881200  1
  N  N26  1  0.74346800  0.63043700  0.08688500  1
  N  N27  1  0.25653200  0.36956300  0.91311500  1
  N  N28  1  0.89943400  0.04547000  0.73756200  1
  N  N29  1  0.10056600  0.95453000  0.26243800  1
  N  N30  1  0.03763900  0.63198000  0.22650700  1
  N  N31  1  0.96236100  0.36802000  0.77349300  1
  N  N32  1  0.83649900  0.57713500  0.68916300  1
  N  N33  1  0.16350100  0.42286500  0.31083700  1
  N  N34  1  0.50986800  0.35161100  0.70461100  1
  N  N35  1  0.49013200  0.64838900  0.29538900  1
  N  N36  1  0.52206700  0.83819100  0.11377900  1
  N  N37  1  0.47793300  0.16180900  0.88622100  1
loop_
_geom_bond_atom_site_label_1
_geom_bond_atom_site_label_2
_geom_bond_distance
_geom_bond_site_symmetry_2
Mo0 N0 1.786919 1_555
Mo0 N7 1.885244 1_555
Mo0 N25 1.899816 1_555
Mo0 N8 1.930960 1_555
Mo1 N1 1.786919 1_555
Mo1 N6 1.885244 1_555
Mo1 N24 1.899816 1_555
Mo1 N9 1.930960 1_555
Mo2 N34 1.782706 1_555
Mo2 N2 1.883936 1_555
Mo2 N32 1.911380 1_555
Mo2 N31 1.930660 1_555
Mo3 N35 1.782706 1_555
Mo3 N3 1.883936 1_555
Mo3 N33 1.911380 1_555
Mo3 N30 1.930660 1_555
Mo4 N11 1.799406 1_555
Mo4 N20 1.874762 1_555
Mo4 N14 1.892203 1_555
Mo4 N32 1.934163 1_555
Mo5 N10 1.799406 1_555
Mo5 N21 1.874762 1_555
Mo5 N15 1.892203 1_555
Mo5 N33 1.934163 1_555
Mo6 N13 1.802703 1_555
Mo6 N18 1.810227 1_455
Mo6 N14 1.944615 1_455
Mo6 N3 1.973622 1_555
Mo7 N12 1.802703 1_555
Mo7 N19 1.810227 1_655
Mo7 N15 1.944615 1_655
Mo7 N2 1.973622 1_555
Mo8 N23 1.789255 1_655
Mo8 N26 1.893985 1_555
Mo8 N30 1.904124 1_655
Mo8 N8 1.910907 1_555
Mo9 N22 1.789255 1_455
Mo9 N27 1.893985 1_555
Mo9 N31 1.904124 1_455
Mo9 N9 1.910907 1_555
Mo10 N5 1.799969 1_555
Mo10 N28 1.809202 1_565
Mo10 N6 1.963894 1_555
Mo10 N20 1.972004 1_555
Mo11 N4 1.799969 1_555
Mo11 N29 1.809202 1_545
Mo11 N7 1.963894 1_555
Mo11 N21 1.972004 1_555
Mo12 N36 1.812684 1_555
Mo12 N16 1.813127 1_555
Mo12 N24 1.936082 1_554
Mo12 N26 1.962654 1_555
Mo13 N37 1.812684 1_555
Mo13 N17 1.813127 1_555
Mo13 N25 1.936082 1_556
Mo13 N27 1.962654 1_555
N0 Na13 2.424445 1_655
N0 Na23 2.472244 1_655
N0 Na4 2.503243 1_545
N0 Na14 2.509592 1_554
N1 Na12 2.424445 1_455
N1 Na22 2.472244 1_455
N1 Na5 2.503243 1_565
N1 Na15 2.509592 1_556
N2 Na2 2.755615 1_555
N2 Na9 2.791720 1_655
N2 Na28 2.898736 1_655
N2 Na1 2.916532 1_555
N3 Na3 2.755615 1_555
N3 Na8 2.791720 1_455
N3 Na28 2.898736 1_555
N3 Na0 2.916532 1_555
N4 Na6 2.372661 1_555
N4 Na3 2.428840 1_545
N4 Na4 2.494047 1_545
N4 Na24 2.697081 1_555
N5 Na7 2.372661 1_555
N5 Na2 2.428840 1_565
N5 Na5 2.494047 1_565
N5 Na25 2.697081 1_555
N6 Na12 2.513874 1_555
N6 Na22 2.641262 1_555
N7 Na13 2.513874 1_555
N7 Na23 2.641262 1_555
N8 Na18 2.538724 1_555
N9 Na19 2.538724 1_555
N10 Na24 2.506745 1_555
N10 Na18 2.550161 1_555
N10 Na1 2.600921 1_555
N10 Na0 2.604028 1_555
N11 Na25 2.506745 1_555
N11 Na19 2.550161 1_555
N11 Na0 2.600921 1_555
N11 Na1 2.604028 1_555
N12 Na16 2.357893 1_545
N12 Na17 2.404444 1_555
N12 Na24 2.540498 1_555
N12 Na2 2.729712 1_555
N13 Na17 2.357893 1_565
N13 Na16 2.404444 1_555
N13 Na25 2.540498 1_555
N13 Na3 2.729712 1_555
N14 Na28 2.315793 1_655
N14 Na25 2.618792 1_655
N14 Na0 2.777196 1_555
N15 Na28 2.315793 1_555
N15 Na24 2.618792 1_455
N15 Na1 2.777196 1_555
N16 Na15 2.348718 1_655
N16 Na13 2.437876 1_665
N16 Na11 2.530689 1_655
N16 Na12 2.665113 1_554
N17 Na14 2.348718 1_455
N17 Na12 2.437876 1_445
N17 Na10 2.530689 1_455
N17 Na13 2.665113 1_556
N18 Na6 2.409253 1_565
N18 Na16 2.464545 1_555
N18 Na8 2.491825 1_555
N18 Na3 2.562208 1_555
N18 Na0 2.787176 1_555
N19 Na7 2.409253 1_545
N19 Na17 2.464545 1_555
N19 Na9 2.491825 1_555
N19 Na2 2.562208 1_555
N19 Na1 2.787176 1_555
N20 Na7 2.537103 1_655
N20 Na16 2.736368 1_555
N20 Na25 2.738279 1_555
N21 Na6 2.537103 1_455
N21 Na17 2.736368 1_555
N21 Na24 2.738279 1_555
N22 Na21 2.363474 1_655
N22 Na26 2.469418 1_555
N22 Na20 2.577586 1_556
N23 Na20 2.363474 1_455
N23 Na27 2.469418 1_555
N23 Na21 2.577586 1_554
N24 Na15 2.594467 1_556
N24 Na12 2.687139 1_555
N25 Na14 2.594467 1_554
N25 Na13 2.687139 1_555
N26 Na29 2.420577 1_555
N26 Na27 2.488118 1_555
N26 Na21 2.602216 1_654
N27 Na29 2.420577 1_556
N27 Na26 2.488118 1_555
N27 Na20 2.602216 1_456
N28 Na10 2.375384 1_555
N28 Na9 2.493423 1_655
N28 Na7 2.521681 1_645
N28 Na5 2.676038 1_655
N29 Na11 2.375384 1_555
N29 Na8 2.493423 1_455
N29 Na6 2.521681 1_465
N29 Na4 2.676038 1_455
N30 Na8 2.488394 1_455
N30 Na11 2.706154 1_555
N30 Na27 2.804339 1_555
N30 Na18 3.055310 1_455
N31 Na9 2.488394 1_655
N31 Na10 2.706154 1_555
N31 Na26 2.804339 1_555
N31 Na19 3.055310 1_655
N32 Na22 2.452764 1_555
N33 Na23 2.452764 1_555
N34 Na9 2.443456 1_555
N34 Na19 2.484096 1_555
N34 Na26 2.493785 1_555
N34 Na2 2.728481 1_555
N34 Na1 2.923720 1_555
N35 Na8 2.443456 1_555
N35 Na18 2.484096 1_555
N35 Na27 2.493785 1_555
N35 Na3 2.728481 1_555
N35 Na0 2.923720 1_555
N36 Na11 2.420837 1_555
N36 Na4 2.478641 1_555
N36 Na15 2.542943 1_555
N36 Na27 2.597807 1_555
N37 Na10 2.420837 1_555
N37 Na5 2.478641 1_555
N37 Na14 2.542943 1_555
N37 Na26 2.597807 1_555
