# generated using pymatgen
data_Ho3B7W
_symmetry_space_group_name_H-M   'P 1'
_cell_length_a   8.15515854
_cell_length_b   8.15515854
_cell_length_c   9.45982200
_cell_angle_alpha   90.00000000
_cell_angle_beta   90.00000000
_cell_angle_gamma   155.51440098
_symmetry_Int_Tables_number   1
_chemical_formula_structural   Ho3B7W
_chemical_formula_sum   'Ho6 B14 W2'
_cell_volume   260.75649581
_cell_formula_units_Z   2
loop_
 _symmetry_equiv_pos_site_id
 _symmetry_equiv_pos_as_xyz
  1  'x, y, z'
loop_
 _atom_site_type_symbol
 _atom_site_label
 _atom_site_symmetry_multiplicity
 _atom_site_fract_x
 _atom_site_fract_y
 _atom_site_fract_z
 _atom_site_occupancy
  Ho  Ho0  1  0.89302000  0.10698000  0.44001400  1
  Ho  Ho1  1  0.10698000  0.89302000  0.55998600  1
  Ho  Ho2  1  0.89302000  0.10698000  0.05998600  1
  Ho  Ho3  1  0.10698000  0.89302000  0.94001400  1
  Ho  Ho4  1  0.24346000  0.75654000  0.25000000  1
  Ho  Ho5  1  0.75654000  0.24346000  0.75000000  1
  B  B0  1  0.72736400  0.27263600  0.46737600  1
  B  B1  1  0.27263600  0.72736400  0.53262400  1
  B  B2  1  0.72736400  0.27263600  0.03262400  1
  B  B3  1  0.27263600  0.72736400  0.96737600  1
  B  B4  1  0.63458400  0.36541600  0.14668200  1
  B  B5  1  0.36541600  0.63458400  0.85331800  1
  B  B6  1  0.63458400  0.36541600  0.35331800  1
  B  B7  1  0.36541600  0.63458400  0.64668200  1
  B  B8  1  0.51931500  0.48068500  0.09170000  1
  B  B9  1  0.48068500  0.51931500  0.90830000  1
  B  B10  1  0.51931500  0.48068500  0.40830000  1
  B  B11  1  0.48068500  0.51931500  0.59170000  1
  B  B12  1  0.45480700  0.54519300  0.25000000  1
  B  B13  1  0.54519300  0.45480700  0.75000000  1
  W  W0  1  0.05286700  0.94713300  0.25000000  1
  W  W1  1  0.94713300  0.05286700  0.75000000  1
loop_
_geom_bond_atom_site_label_1
_geom_bond_atom_site_label_2
_geom_bond_distance
_geom_bond_site_symmetry_2
B0 B6 1.830625 1_555
B0 B1 1.972895 1_655
B0 B1 1.972895 1_545
B0 Ho0 2.653111 1_555
B0 Ho4 2.699068 1_545
B0 Ho4 2.699068 1_655
B0 Ho5 2.713717 1_555
B0 Ho1 2.727655 1_655
B0 Ho1 2.727655 1_545
B1 B7 1.830625 1_555
B1 Ho1 2.653111 1_555
B1 Ho5 2.699068 1_455
B1 Ho5 2.699068 1_565
B1 Ho4 2.713717 1_555
B1 Ho0 2.727655 1_565
B1 Ho0 2.727655 1_455
B2 B4 1.830625 1_555
B2 B3 1.972895 1_654
B2 B3 1.972895 1_544
B2 Ho2 2.653111 1_555
B2 Ho4 2.699068 1_545
B2 Ho4 2.699068 1_655
B2 Ho5 2.713717 1_554
B2 Ho3 2.727655 1_654
B2 Ho3 2.727655 1_544
B3 B5 1.830625 1_555
B3 Ho3 2.653111 1_555
B3 Ho5 2.699068 1_455
B3 Ho5 2.699068 1_565
B3 Ho4 2.713717 1_556
B3 Ho2 2.727655 1_566
B3 Ho2 2.727655 1_456
B4 B8 1.909518 1_555
B4 B6 1.954740 1_555
B4 W0 2.375379 1_545
B4 W0 2.375379 1_655
B4 Ho4 2.637715 1_545
B4 Ho4 2.637715 1_655
B4 Ho3 2.646961 1_544
B4 Ho3 2.646961 1_654
B5 B9 1.909518 1_555
B5 B7 1.954740 1_555
B5 W1 2.375379 1_455
B5 W1 2.375379 1_565
B5 Ho5 2.637715 1_455
B5 Ho5 2.637715 1_565
B5 Ho2 2.646961 1_456
B5 Ho2 2.646961 1_566
B6 W0 2.375379 1_545
B6 W0 2.375379 1_655
B6 Ho4 2.637715 1_545
B6 Ho4 2.637715 1_655
B6 Ho1 2.646961 1_545
B6 Ho1 2.646961 1_655
B7 W1 2.375379 1_455
B7 W1 2.375379 1_565
B7 Ho5 2.637715 1_455
B7 Ho5 2.637715 1_565
B7 Ho0 2.646961 1_455
B7 Ho0 2.646961 1_565
B8 B9 1.840956 1_554
B8 W0 2.349278 1_655
B8 W0 2.349278 1_545
B8 Ho3 2.646156 1_544
B8 Ho3 2.646156 1_654
B8 Ho2 2.670778 1_565
B8 Ho2 2.670778 1_455
B9 W1 2.349278 1_455
B9 W1 2.349278 1_565
B9 Ho2 2.646156 1_456
B9 Ho2 2.646156 1_566
B9 Ho3 2.670778 1_545
B9 Ho3 2.670778 1_655
B10 B12 1.816510 1_555
B10 B11 1.840956 1_555
B10 B6 1.909518 1_555
B10 W0 2.349278 1_655
B10 W0 2.349278 1_545
B10 Ho1 2.646156 1_545
B10 Ho1 2.646156 1_655
B10 Ho0 2.670778 1_455
B10 Ho0 2.670778 1_565
B11 B13 1.816510 1_555
B11 B7 1.909518 1_555
B11 W1 2.349278 1_455
B11 W1 2.349278 1_565
B11 Ho0 2.646156 1_455
B11 Ho0 2.646156 1_565
B11 Ho1 2.670778 1_545
B11 Ho1 2.670778 1_655
B12 B8 1.816510 1_555
B12 W0 2.331017 1_545
B12 W0 2.331017 1_655
B12 Ho0 2.681706 1_455
B12 Ho0 2.681706 1_565
B12 Ho2 2.681706 1_455
B12 Ho2 2.681706 1_565
B13 B9 1.816510 1_555
B13 W1 2.331017 1_455
B13 W1 2.331017 1_565
B13 Ho3 2.681706 1_545
B13 Ho3 2.681706 1_655
B13 Ho1 2.681706 1_545
B13 Ho1 2.681706 1_655
