# generated using pymatgen
data_SrIn3
_symmetry_space_group_name_H-M   'P 1'
_cell_length_a   7.43802575
_cell_length_b   7.43802575
_cell_length_c   4.88227531
_cell_angle_alpha   90.00000000
_cell_angle_beta   90.00000000
_cell_angle_gamma   119.99999349
_symmetry_Int_Tables_number   1
_chemical_formula_structural   SrIn3
_chemical_formula_sum   'Sr2 In6'
_cell_volume   233.92049833
_cell_formula_units_Z   2
loop_
 _symmetry_equiv_pos_site_id
 _symmetry_equiv_pos_as_xyz
  1  'x, y, z'
loop_
 _atom_site_type_symbol
 _atom_site_label
 _atom_site_symmetry_multiplicity
 _atom_site_fract_x
 _atom_site_fract_y
 _atom_site_fract_z
 _atom_site_occupancy
  Sr  Sr0  1  0.33333300  0.66666700  0.25000000  1
  Sr  Sr1  1  0.66666700  0.33333300  0.75000000  1
  In  In0  1  0.85219320  0.14780680  0.25000000  1
  In  In1  1  0.85219320  0.70438640  0.25000000  1
  In  In2  1  0.29561360  0.14780680  0.25000000  1
  In  In3  1  0.14780680  0.85219320  0.75000000  1
  In  In4  1  0.14780680  0.29561360  0.75000000  1
  In  In5  1  0.70438640  0.85219320  0.75000000  1
loop_
_geom_bond_atom_site_label_1
_geom_bond_atom_site_label_2
_geom_bond_distance
_geom_bond_site_symmetry_2
In0 In4 3.095987 1_654
In0 In4 3.095987 1_655
In0 In5 3.095987 1_544
In0 In5 3.095987 1_545
In0 In1 3.298172 1_545
In0 In2 3.298172 1_655
In0 Sr1 3.416420 1_554
In0 Sr1 3.416420 1_555
In0 Sr0 3.726942 1_545
In0 Sr0 3.726942 1_655
In1 In5 3.095987 1_554
In1 In5 3.095987 1_555
In1 In3 3.095987 1_655
In1 In3 3.095987 1_654
In1 In2 3.298173 1_665
In1 Sr1 3.416425 1_554
In1 Sr1 3.416425 1_555
In1 Sr0 3.726938 1_655
In1 Sr0 3.726945 1_555
In2 In4 3.095987 1_554
In2 In4 3.095987 1_555
In2 In3 3.095987 1_544
In2 In3 3.095987 1_545
In2 Sr1 3.416425 1_554
In2 Sr1 3.416425 1_555
In2 Sr0 3.726938 1_545
In2 Sr0 3.726945 1_555
In3 In5 3.298172 1_455
In3 In4 3.298172 1_565
In3 Sr0 3.416420 1_555
In3 Sr0 3.416420 1_556
In3 Sr1 3.726942 1_455
In3 Sr1 3.726942 1_565
In4 In5 3.298173 1_445
In4 Sr0 3.416425 1_555
In4 Sr0 3.416425 1_556
In4 Sr1 3.726938 1_455
In4 Sr1 3.726945 1_555
In5 Sr0 3.416425 1_555
In5 Sr0 3.416425 1_556
In5 Sr1 3.726938 1_565
In5 Sr1 3.726945 1_555
