# generated using pymatgen
data_Ta4Co4Si7
_symmetry_space_group_name_H-M   'P 1'
_cell_length_a   9.21484398
_cell_length_b   9.21484398
_cell_length_c   9.21484398
_cell_angle_alpha   94.18671745
_cell_angle_beta   94.18671745
_cell_angle_gamma   148.64789376
_symmetry_Int_Tables_number   1
_chemical_formula_structural   Ta4Co4Si7
_chemical_formula_sum   'Ta8 Co8 Si14'
_cell_volume   391.96983430
_cell_formula_units_Z   2
loop_
 _symmetry_equiv_pos_site_id
 _symmetry_equiv_pos_as_xyz
  1  'x, y, z'
loop_
 _atom_site_type_symbol
 _atom_site_label
 _atom_site_symmetry_multiplicity
 _atom_site_fract_x
 _atom_site_fract_y
 _atom_site_fract_z
 _atom_site_occupancy
  Ta  Ta0  1  0.13373300  0.13373300  0.26746600  1
  Ta  Ta1  1  0.86626700  0.86626700  0.73253400  1
  Ta  Ta2  1  0.86626700  0.13373300  0.00000000  1
  Ta  Ta3  1  0.13373300  0.86626700  0.00000000  1
  Ta  Ta4  1  0.50000000  0.31013500  0.81013500  1
  Ta  Ta5  1  0.50000000  0.68986500  0.18986500  1
  Ta  Ta6  1  0.68986500  0.50000000  0.18986500  1
  Ta  Ta7  1  0.31013500  0.50000000  0.81013500  1
  Co  Co0  1  0.39864200  0.89864200  0.79728400  1
  Co  Co1  1  0.10135800  0.60135800  0.20271600  1
  Co  Co2  1  0.10135800  0.89864200  0.50000000  1
  Co  Co3  1  0.39864200  0.60135800  0.50000000  1
  Co  Co4  1  0.60135800  0.39864200  0.50000000  1
  Co  Co5  1  0.89864200  0.10135800  0.50000000  1
  Co  Co6  1  0.89864200  0.39864200  0.79728400  1
  Co  Co7  1  0.60135800  0.10135800  0.20271600  1
  Si  Si0  1  0.50000000  0.09455000  0.59455000  1
  Si  Si1  1  0.50000000  0.90545000  0.40545000  1
  Si  Si2  1  0.90545000  0.50000000  0.40545000  1
  Si  Si3  1  0.09455000  0.50000000  0.59455000  1
  Si  Si4  1  0.75115700  0.75115700  0.00000000  1
  Si  Si5  1  0.24884300  0.24884300  0.00000000  1
  Si  Si6  1  0.29109400  0.29109400  0.58218800  1
  Si  Si7  1  0.70890600  0.70890600  0.41781200  1
  Si  Si8  1  0.70890600  0.29109400  0.00000000  1
  Si  Si9  1  0.29109400  0.70890600  0.00000000  1
  Si  Si10  1  0.00000000  0.29648300  0.29648300  1
  Si  Si11  1  0.00000000  0.70351700  0.70351700  1
  Si  Si12  1  0.70351700  0.00000000  0.70351700  1
  Si  Si13  1  0.29648300  0.00000000  0.29648300  1
loop_
_geom_bond_atom_site_label_1
_geom_bond_atom_site_label_2
_geom_bond_distance
_geom_bond_site_symmetry_2
Co0 Si8 2.305684 1_566
Co0 Si9 2.305684 1_556
Co0 Si0 2.342804 1_565
Co0 Si3 2.342804 1_555
Co0 Si11 2.345669 1_555
Co0 Si12 2.345669 1_565
Co0 Co6 2.489833 1_565
Co0 Co6 2.489833 1_455
Co0 Ta3 3.006777 1_556
Co0 Ta2 3.006777 1_566
Co0 Ta4 3.022223 1_565
Co0 Ta7 3.022223 1_555
Co1 Si8 2.305684 1_455
Co1 Si9 2.305684 1_555
Co1 Si1 2.342804 1_555
Co1 Si2 2.342804 1_455
Co1 Si10 2.345669 1_555
Co1 Si13 2.345669 1_565
Co1 Co7 2.489833 1_455
Co1 Co7 2.489833 1_565
Co1 Ta2 3.006777 1_455
Co1 Ta3 3.006777 1_555
Co1 Ta5 3.022223 1_555
Co1 Ta6 3.022223 1_455
Co2 Si6 2.305684 1_565
Co2 Si7 2.305684 1_455
Co2 Si2 2.342804 1_455
Co2 Si0 2.342804 1_565
Co2 Si13 2.345669 1_565
Co2 Si11 2.345669 1_555
Co2 Co4 2.489833 1_565
Co2 Co4 2.489833 1_455
Co2 Ta0 3.006777 1_565
Co2 Ta1 3.006777 1_455
Co2 Ta6 3.022223 1_455
Co2 Ta4 3.022223 1_565
Co3 Si6 2.305684 1_555
Co3 Si7 2.305684 1_555
Co3 Si1 2.342804 1_555
Co3 Si3 2.342804 1_555
Co3 Si10 2.345669 1_555
Co3 Si12 2.345669 1_565
Co3 Co5 2.489833 1_455
Co3 Co5 2.489833 1_565
Co3 Ta0 3.006777 1_555
Co3 Ta1 3.006777 1_555
Co3 Ta5 3.022223 1_555
Co3 Ta7 3.022223 1_555
Co4 Si6 2.305684 1_555
Co4 Si7 2.305684 1_555
Co4 Si2 2.342804 1_555
Co4 Si0 2.342804 1_555
Co4 Si11 2.345669 1_655
Co4 Si13 2.345669 1_555
Co4 Ta0 3.006777 1_555
Co4 Ta1 3.006777 1_555
Co4 Ta6 3.022223 1_555
Co4 Ta4 3.022223 1_555
Co5 Si6 2.305684 1_655
Co5 Si7 2.305684 1_545
Co5 Si1 2.342804 1_545
Co5 Si3 2.342804 1_655
Co5 Si12 2.345669 1_555
Co5 Si10 2.345669 1_655
Co5 Ta0 3.006777 1_655
Co5 Ta1 3.006777 1_545
Co5 Ta5 3.022223 1_545
Co5 Ta7 3.022223 1_655
Co6 Si9 2.305684 1_656
Co6 Si8 2.305684 1_556
Co6 Si3 2.342804 1_655
Co6 Si0 2.342804 1_555
Co6 Si12 2.345669 1_555
Co6 Si11 2.345669 1_655
Co6 Ta2 3.006777 1_556
Co6 Ta3 3.006777 1_656
Co6 Ta7 3.022223 1_655
Co6 Ta4 3.022223 1_555
Co7 Si8 2.305684 1_555
Co7 Si9 2.305684 1_545
Co7 Si2 2.342804 1_555
Co7 Si1 2.342804 1_545
Co7 Si13 2.345669 1_555
Co7 Si10 2.345669 1_655
Co7 Ta3 3.006777 1_545
Co7 Ta2 3.006777 1_555
Co7 Ta6 3.022223 1_555
Co7 Ta5 3.022223 1_545
Si0 Si1 2.372645 1_545
Si0 Ta4 2.704953 1_555
Si1 Ta5 2.704953 1_555
Si2 Si3 2.372645 1_655
Si2 Ta6 2.704953 1_555
Si3 Ta7 2.704953 1_555
Si4 Si5 2.478310 1_665
Si4 Si5 2.501356 1_555
Si4 Ta2 2.677043 1_565
Si4 Ta3 2.677043 1_655
Si4 Ta0 2.677043 1_665
Si4 Ta1 2.677043 1_554
Si4 Ta6 2.690591 1_555
Si4 Ta4 2.690591 1_554
Si4 Ta5 2.690591 1_555
Si4 Ta7 2.690591 1_554
Si5 Ta1 2.677043 1_444
Si5 Ta0 2.677043 1_555
Si5 Ta2 2.677043 1_455
Si5 Ta3 2.677043 1_545
Si5 Ta6 2.690591 1_555
Si5 Ta7 2.690591 1_554
Si5 Ta4 2.690591 1_554
Si5 Ta5 2.690591 1_555
Si6 Ta7 2.632017 1_555
Si6 Ta4 2.632017 1_555
Si6 Ta0 2.792244 1_555
Si6 Ta1 2.824627 1_555
Si6 Ta1 2.824627 1_445
Si7 Ta5 2.632017 1_555
Si7 Ta6 2.632017 1_555
Si7 Ta1 2.792244 1_555
Si7 Ta0 2.824627 1_665
Si7 Ta0 2.824627 1_555
Si8 Ta4 2.632017 1_554
Si8 Ta6 2.632017 1_555
Si8 Ta2 2.792244 1_555
Si8 Ta3 2.824627 1_545
Si8 Ta3 2.824627 1_655
Si9 Ta7 2.632017 1_554
Si9 Ta5 2.632017 1_555
Si9 Ta3 2.792244 1_555
Si9 Ta2 2.824627 1_565
Si9 Ta2 2.824627 1_455
Si10 Ta2 2.642994 1_455
Si10 Ta0 2.642994 1_555
Si10 Ta5 2.826450 1_555
Si10 Ta5 2.826450 1_445
Si11 Ta3 2.642994 1_556
Si11 Ta1 2.642994 1_455
Si11 Ta4 2.826450 1_565
Si11 Ta4 2.826450 1_455
Si12 Ta2 2.642994 1_556
Si12 Ta1 2.642994 1_545
Si12 Ta7 2.826450 1_655
Si12 Ta7 2.826450 1_545
Si13 Ta3 2.642994 1_545
Si13 Ta0 2.642994 1_555
Si13 Ta6 2.826450 1_555
Si13 Ta6 2.826450 1_445
