# generated using pymatgen
data_CuH12C3S3IN6
_symmetry_space_group_name_H-M   'P 1'
_cell_length_a   14.44085740
_cell_length_b   14.44085740
_cell_length_c   14.38336841
_cell_angle_alpha   90.00000000
_cell_angle_beta   90.00000000
_cell_angle_gamma   90.00000000
_symmetry_Int_Tables_number   1
_chemical_formula_structural   CuH12C3S3IN6
_chemical_formula_sum   'Cu8 H96 C24 S24 I8 N48'
_cell_volume   2999.48409470
_cell_formula_units_Z   8
loop_
 _symmetry_equiv_pos_site_id
 _symmetry_equiv_pos_as_xyz
  1  'x, y, z'
loop_
 _atom_site_type_symbol
 _atom_site_label
 _atom_site_symmetry_multiplicity
 _atom_site_fract_x
 _atom_site_fract_y
 _atom_site_fract_z
 _atom_site_occupancy
  Cu  Cu0  1  0.52633698  0.86294076  0.32890109  1
  Cu  Cu1  1  0.47366302  0.13705924  0.82890109  1
  Cu  Cu2  1  0.36294076  0.97366302  0.57890109  1
  Cu  Cu3  1  0.63705924  0.02633698  0.07890109  1
  Cu  Cu4  1  0.13705924  0.47366302  0.17109891  1
  Cu  Cu5  1  0.86294076  0.52633698  0.67109891  1
  Cu  Cu6  1  0.97366302  0.36294076  0.42109891  1
  Cu  Cu7  1  0.02633698  0.63705924  0.92109891  1
  H  H0  1  0.74420554  0.91714341  0.52834383  1
  H  H1  1  0.25579446  0.08285659  0.02834383  1
  H  H2  1  0.41714341  0.75579446  0.77834383  1
  H  H3  1  0.58285659  0.24420554  0.27834383  1
  H  H4  1  0.08285659  0.25579446  0.97165617  1
  H  H5  1  0.91714341  0.74420554  0.47165617  1
  H  H6  1  0.75579446  0.41714341  0.22165617  1
  H  H7  1  0.24420554  0.58285659  0.72165617  1
  H  H8  1  0.68031797  0.86258057  0.43805881  1
  H  H9  1  0.31968203  0.13741943  0.93805881  1
  H  H10  1  0.36258057  0.81968203  0.68805881  1
  H  H11  1  0.63741943  0.18031797  0.18805881  1
  H  H12  1  0.13741943  0.31968203  0.06194119  1
  H  H13  1  0.86258057  0.68031797  0.56194119  1
  H  H14  1  0.81968203  0.36258057  0.31194119  1
  H  H15  1  0.18031797  0.63741943  0.81194119  1
  H  H16  1  0.67216996  0.99125044  0.64339498  1
  H  H17  1  0.32783004  0.00874956  0.14339498  1
  H  H18  1  0.49125044  0.82783004  0.89339498  1
  H  H19  1  0.50874956  0.17216996  0.39339498  1
  H  H20  1  0.00874956  0.32783004  0.85660502  1
  H  H21  1  0.99125044  0.67216996  0.35660502  1
  H  H22  1  0.82783004  0.49125044  0.10660502  1
  H  H23  1  0.17216996  0.50874956  0.60660502  1
  H  H24  1  0.55032129  0.99852912  0.64919755  1
  H  H25  1  0.44967871  0.00147088  0.14919755  1
  H  H26  1  0.49852912  0.94967871  0.89919755  1
  H  H27  1  0.50147088  0.05032129  0.39919755  1
  H  H28  1  0.00147088  0.44967871  0.85080245  1
  H  H29  1  0.99852912  0.55032129  0.35080245  1
  H  H30  1  0.94967871  0.49852912  0.10080245  1
  H  H31  1  0.05032129  0.50147088  0.60080245  1
  H  H32  1  0.34838167  0.73448883  0.03505314  1
  H  H33  1  0.65161833  0.26551117  0.53505314  1
  H  H34  1  0.23448883  0.15161833  0.28505314  1
  H  H35  1  0.76551117  0.84838167  0.78505314  1
  H  H36  1  0.26551117  0.65161833  0.46494686  1
  H  H37  1  0.73448883  0.34838167  0.96494686  1
  H  H38  1  0.15161833  0.23448883  0.71494686  1
  H  H39  1  0.84838167  0.76551117  0.21494686  1
  H  H40  1  0.27378184  0.78739531  0.11506919  1
  H  H41  1  0.72621816  0.21260469  0.61506919  1
  H  H42  1  0.28739531  0.22621816  0.36506919  1
  H  H43  1  0.71260469  0.77378184  0.86506919  1
  H  H44  1  0.21260469  0.72621816  0.38493081  1
  H  H45  1  0.78739531  0.27378184  0.88493081  1
  H  H46  1  0.22621816  0.28739531  0.63493081  1
  H  H47  1  0.77378184  0.71260469  0.13493081  1
  H  H48  1  0.50035156  0.71315989  0.06944721  1
  H  H49  1  0.49964844  0.28684011  0.56944721  1
  H  H50  1  0.21315989  0.99964844  0.31944721  1
  H  H51  1  0.78684011  0.00035156  0.81944721  1
  H  H52  1  0.28684011  0.49964844  0.43055279  1
  H  H53  1  0.71315989  0.50035156  0.93055279  1
  H  H54  1  0.99964844  0.21315989  0.68055279  1
  H  H55  1  0.00035156  0.78684011  0.18055279  1
  H  H56  1  0.54480326  0.74911154  0.17846810  1
  H  H57  1  0.45519674  0.25088846  0.67846810  1
  H  H58  1  0.24911154  0.95519674  0.42846810  1
  H  H59  1  0.75088846  0.04480326  0.92846810  1
  H  H60  1  0.25088846  0.45519674  0.32153190  1
  H  H61  1  0.74911154  0.54480326  0.82153190  1
  H  H62  1  0.95519674  0.24911154  0.57153190  1
  H  H63  1  0.04480326  0.75088846  0.07153190  1
  H  H64  1  0.49837593  0.56902489  0.38498358  1
  H  H65  1  0.50162407  0.43097511  0.88498358  1
  H  H66  1  0.06902489  0.00162407  0.63498358  1
  H  H67  1  0.93097511  0.99837593  0.13498358  1
  H  H68  1  0.43097511  0.50162407  0.11501642  1
  H  H69  1  0.56902489  0.49837593  0.61501642  1
  H  H70  1  0.00162407  0.06902489  0.36501642  1
  H  H71  1  0.99837593  0.93097511  0.86501642  1
  H  H72  1  0.47140727  0.68280527  0.34842924  1
  H  H73  1  0.52859273  0.31719473  0.84842924  1
  H  H74  1  0.18280527  0.02859273  0.59842924  1
  H  H75  1  0.81719473  0.97140727  0.09842924  1
  H  H76  1  0.31719473  0.52859273  0.15157076  1
  H  H77  1  0.68280527  0.47140727  0.65157076  1
  H  H78  1  0.02859273  0.18280527  0.40157076  1
  H  H79  1  0.97140727  0.81719473  0.90157076  1
  H  H80  1  0.64763958  0.52079973  0.39161986  1
  H  H81  1  0.35236042  0.47920027  0.89161986  1
  H  H82  1  0.02079973  0.85236042  0.64161986  1
  H  H83  1  0.97920027  0.14763958  0.14161986  1
  H  H84  1  0.47920027  0.35236042  0.10838014  1
  H  H85  1  0.52079973  0.64763958  0.60838014  1
  H  H86  1  0.85236042  0.02079973  0.35838014  1
  H  H87  1  0.14763958  0.97920027  0.85838014  1
  H  H88  1  0.73827644  0.59789067  0.36731378  1
  H  H89  1  0.26172356  0.40210933  0.86731378  1
  H  H90  1  0.09789067  0.76172356  0.61731378  1
  H  H91  1  0.90210933  0.23827644  0.11731378  1
  H  H92  1  0.40210933  0.26172356  0.13268622  1
  H  H93  1  0.59789067  0.73827644  0.63268622  1
  H  H94  1  0.76172356  0.09789067  0.38268622  1
  H  H95  1  0.23827644  0.90210933  0.88268622  1
  C  C0  1  0.60319180  0.93093858  0.53520034  1
  C  C1  1  0.39680820  0.06906142  0.03520034  1
  C  C2  1  0.43093858  0.89680820  0.78520034  1
  C  C3  1  0.56906142  0.10319180  0.28520034  1
  C  C4  1  0.06906142  0.39680820  0.96479966  1
  C  C5  1  0.93093858  0.60319180  0.46479966  1
  C  C6  1  0.89680820  0.43093858  0.21479966  1
  C  C7  1  0.10319180  0.56906142  0.71479966  1
  C  C8  1  0.40800619  0.77623216  0.15816441  1
  C  C9  1  0.59199381  0.22376784  0.65816441  1
  C  C10  1  0.27623216  0.09199381  0.40816441  1
  C  C11  1  0.72376784  0.90800619  0.90816441  1
  C  C12  1  0.22376784  0.59199381  0.34183559  1
  C  C13  1  0.77623216  0.40800619  0.84183559  1
  C  C14  1  0.09199381  0.27623216  0.59183559  1
  C  C15  1  0.90800619  0.72376784  0.09183559  1
  C  C16  1  0.60892648  0.65300544  0.35509241  1
  C  C17  1  0.39107352  0.34699456  0.85509241  1
  C  C18  1  0.15300544  0.89107352  0.60509241  1
  C  C19  1  0.84699456  0.10892648  0.10509241  1
  C  C20  1  0.34699456  0.39107352  0.14490759  1
  C  C21  1  0.65300544  0.60892648  0.64490759  1
  C  C22  1  0.89107352  0.15300544  0.39490759  1
  C  C23  1  0.10892648  0.84699456  0.89490759  1
  S  S0  1  0.49703725  0.90653656  0.48436655  1
  S  S1  1  0.50296275  0.09346344  0.98436655  1
  S  S2  1  0.40653656  0.00296275  0.73436655  1
  S  S3  1  0.59346344  0.99703725  0.23436655  1
  S  S4  1  0.09346344  0.50296275  0.01563345  1
  S  S5  1  0.90653656  0.49703725  0.51563345  1
  S  S6  1  0.00296275  0.40653656  0.26563345  1
  S  S7  1  0.99703725  0.59346344  0.76563345  1
  S  S8  1  0.38750338  0.82665723  0.26448196  1
  S  S9  1  0.61249662  0.17334277  0.76448196  1
  S  S10  1  0.32665723  0.11249662  0.51448196  1
  S  S11  1  0.67334277  0.88750338  0.01448196  1
  S  S12  1  0.17334277  0.61249662  0.23551804  1
  S  S13  1  0.82665723  0.38750338  0.73551804  1
  S  S14  1  0.11249662  0.32665723  0.48551804  1
  S  S15  1  0.88750338  0.67334277  0.98551804  1
  S  S16  1  0.64762147  0.75877779  0.31518539  1
  S  S17  1  0.35237853  0.24122221  0.81518539  1
  S  S18  1  0.25877779  0.85237853  0.56518539  1
  S  S19  1  0.74122221  0.14762147  0.06518539  1
  S  S20  1  0.24122221  0.35237853  0.18481461  1
  S  S21  1  0.75877779  0.64762147  0.68481461  1
  S  S22  1  0.85237853  0.25877779  0.43481461  1
  S  S23  1  0.14762147  0.74122221  0.93481461  1
  I  I0  1  0.96860229  0.86496737  0.34625176  1
  I  I1  1  0.03139771  0.13503263  0.84625176  1
  I  I2  1  0.36496737  0.53139771  0.59625176  1
  I  I3  1  0.63503263  0.46860229  0.09625176  1
  I  I4  1  0.13503263  0.03139771  0.15374824  1
  I  I5  1  0.86496737  0.96860229  0.65374824  1
  I  I6  1  0.53139771  0.36496737  0.40374824  1
  I  I7  1  0.46860229  0.63503263  0.90374824  1
  N  N0  1  0.68248893  0.90514726  0.49468416  1
  N  N1  1  0.31751107  0.09485274  0.99468416  1
  N  N2  1  0.40514726  0.81751107  0.74468416  1
  N  N3  1  0.59485274  0.18248893  0.24468416  1
  N  N4  1  0.09485274  0.31751107  0.00531584  1
  N  N5  1  0.90514726  0.68248893  0.50531584  1
  N  N6  1  0.81751107  0.40514726  0.25531584  1
  N  N7  1  0.18248893  0.59485274  0.75531584  1
  N  N8  1  0.60863301  0.97608816  0.61582344  1
  N  N9  1  0.39136699  0.02391184  0.11582344  1
  N  N10  1  0.47608816  0.89136699  0.86582344  1
  N  N11  1  0.52391184  0.10863301  0.36582344  1
  N  N12  1  0.02391184  0.39136699  0.88417656  1
  N  N13  1  0.97608816  0.60863301  0.38417656  1
  N  N14  1  0.89136699  0.47608816  0.13417656  1
  N  N15  1  0.10863301  0.52391184  0.63417656  1
  N  N16  1  0.33858748  0.76767723  0.09690231  1
  N  N17  1  0.66141252  0.23232277  0.59690231  1
  N  N18  1  0.26767723  0.16141252  0.34690231  1
  N  N19  1  0.73232277  0.83858748  0.84690231  1
  N  N20  1  0.23232277  0.66141252  0.40309769  1
  N  N21  1  0.76767723  0.33858748  0.90309769  1
  N  N22  1  0.16141252  0.26767723  0.65309769  1
  N  N23  1  0.83858748  0.73232277  0.15309769  1
  N  N24  1  0.49120209  0.74482967  0.13255274  1
  N  N25  1  0.50879791  0.25517033  0.63255274  1
  N  N26  1  0.24482967  0.00879791  0.38255274  1
  N  N27  1  0.75517033  0.99120209  0.88255274  1
  N  N28  1  0.25517033  0.50879791  0.36744726  1
  N  N29  1  0.74482967  0.49120209  0.86744726  1
  N  N30  1  0.00879791  0.24482967  0.61744726  1
  N  N31  1  0.99120209  0.75517033  0.11744726  1
  N  N32  1  0.51919690  0.63368699  0.36559595  1
  N  N33  1  0.48080310  0.36631301  0.86559595  1
  N  N34  1  0.13368699  0.98080310  0.61559595  1
  N  N35  1  0.86631301  0.01919690  0.11559595  1
  N  N36  1  0.36631301  0.48080310  0.13440405  1
  N  N37  1  0.63368699  0.51919690  0.63440405  1
  N  N38  1  0.98080310  0.13368699  0.38440405  1
  N  N39  1  0.01919690  0.86631301  0.88440405  1
  N  N40  1  0.66985688  0.58627159  0.37601489  1
  N  N41  1  0.33014312  0.41372841  0.87601489  1
  N  N42  1  0.08627159  0.83014312  0.62601489  1
  N  N43  1  0.91372841  0.16985688  0.12601489  1
  N  N44  1  0.41372841  0.33014312  0.12398511  1
  N  N45  1  0.58627159  0.66985688  0.62398511  1
  N  N46  1  0.83014312  0.08627159  0.37398511  1
  N  N47  1  0.16985688  0.91372841  0.87398511  1
loop_
_geom_bond_atom_site_label_1
_geom_bond_atom_site_label_2
_geom_bond_distance
_geom_bond_site_symmetry_2
Cu0 S8 2.269932 1_555
Cu0 S16 2.317138 1_555
Cu0 S0 2.361269 1_555
Cu0 S3 2.557035 1_555
Cu1 S9 2.269932 1_555
Cu1 S17 2.317138 1_555
Cu1 S1 2.361269 1_555
Cu1 S2 2.557035 1_555
Cu2 S10 2.269932 1_565
Cu2 S18 2.317138 1_555
Cu2 S2 2.361269 1_565
Cu2 S0 2.557035 1_555
Cu3 S11 2.269932 1_545
Cu3 S19 2.317138 1_555
Cu3 S3 2.361269 1_545
Cu3 S1 2.557035 1_554
Cu4 S12 2.269932 1_555
Cu4 S20 2.317138 1_555
Cu4 S4 2.361269 1_555
Cu4 S6 2.557035 1_555
Cu5 S13 2.269932 1_555
Cu5 S21 2.317138 1_555
Cu5 S5 2.361269 1_555
Cu5 S7 2.557035 1_555
Cu6 S14 2.269932 1_655
Cu6 S22 2.317138 1_555
Cu6 S6 2.361269 1_655
Cu6 S5 2.557035 1_555
Cu7 S15 2.269932 1_455
Cu7 S23 2.317138 1_555
Cu7 S7 2.361269 1_455
Cu7 S4 2.557035 1_556
H0 N0 1.028937 1_555
H1 N1 1.028937 1_554
H2 N2 1.028937 1_555
H3 N3 1.028937 1_555
H4 N4 1.028937 1_556
H5 N5 1.028937 1_555
H6 N6 1.028937 1_555
H7 N7 1.028937 1_555
H8 N0 1.020876 1_555
H9 N1 1.020876 1_555
H10 N2 1.020876 1_555
H11 N3 1.020876 1_555
H12 N4 1.020876 1_555
H13 N5 1.020876 1_555
H14 N6 1.020876 1_555
H15 N7 1.020876 1_555
H16 N8 1.023264 1_555
H17 N9 1.023264 1_555
H18 N10 1.023264 1_555
H19 N11 1.023264 1_555
H20 N12 1.023264 1_555
H21 N13 1.023264 1_555
H22 N14 1.023264 1_555
H23 N15 1.023264 1_555
H24 N8 1.022024 1_555
H25 N9 1.022024 1_555
H26 N10 1.022024 1_555
H27 N11 1.022024 1_555
H28 N12 1.022024 1_555
H29 N13 1.022024 1_555
H30 N14 1.022024 1_555
H31 N15 1.022024 1_555
H32 N16 1.020338 1_555
H33 N17 1.020338 1_555
H34 N18 1.020338 1_555
H35 N19 1.020338 1_555
H36 N20 1.020338 1_555
H37 N21 1.020338 1_555
H38 N22 1.020338 1_555
H39 N23 1.020338 1_555
H40 N16 1.012508 1_555
H41 N17 1.012508 1_555
H42 N18 1.012508 1_555
H43 N19 1.012508 1_555
H44 N20 1.012508 1_555
H45 N21 1.012508 1_555
H46 N22 1.012508 1_555
H47 N23 1.012508 1_555
H48 N24 1.024930 1_555
H49 N25 1.024930 1_555
H50 N26 1.024930 1_565
H51 N27 1.024930 1_545
H52 N28 1.024930 1_555
H53 N29 1.024930 1_555
H54 N30 1.024930 1_655
H55 N31 1.024930 1_455
H56 N24 1.019374 1_555
H57 N25 1.019374 1_555
H58 N26 1.019374 1_565
H59 N27 1.019374 1_545
H60 N28 1.019374 1_555
H61 N29 1.019374 1_555
H62 N30 1.019374 1_655
H63 N31 1.019374 1_455
H64 N32 1.019855 1_555
H65 N33 1.019855 1_555
H66 N34 1.019855 1_545
H67 N35 1.019855 1_565
H68 N36 1.019855 1_555
H69 N37 1.019855 1_555
H70 N38 1.019855 1_455
H71 N39 1.019855 1_655
H72 N32 1.019979 1_555
H73 N33 1.019979 1_555
H74 N34 1.019979 1_545
H75 N35 1.019979 1_565
H76 N36 1.019979 1_555
H77 N37 1.019979 1_555
H78 N38 1.019979 1_455
H79 N39 1.019979 1_655
H80 N40 1.023342 1_555
H81 N41 1.023342 1_555
H82 N42 1.023342 1_555
H83 N43 1.023342 1_555
H84 N44 1.023342 1_555
H85 N45 1.023342 1_555
H86 N46 1.023342 1_555
H87 N47 1.023342 1_555
H88 N40 1.009967 1_555
H89 N41 1.009967 1_555
H90 N42 1.009967 1_555
H91 N43 1.009967 1_555
H92 N44 1.009967 1_555
H93 N45 1.009967 1_555
H94 N46 1.009967 1_555
H95 N47 1.009967 1_555
C0 N8 1.332675 1_555
C0 N0 1.337768 1_555
C0 S0 1.734574 1_555
C1 N9 1.332675 1_555
C1 N1 1.337768 1_554
C1 S1 1.734574 1_554
C2 N10 1.332675 1_555
C2 N2 1.337768 1_555
C2 S2 1.734574 1_565
C3 N11 1.332675 1_555
C3 N3 1.337768 1_555
C3 S3 1.734574 1_545
C4 N12 1.332675 1_555
C4 N4 1.337768 1_556
C4 S4 1.734574 1_556
C5 N13 1.332675 1_555
C5 N5 1.337768 1_555
C5 S5 1.734574 1_555
C6 N14 1.332675 1_555
C6 N6 1.337768 1_555
C6 S6 1.734574 1_655
C7 N15 1.332675 1_555
C7 N7 1.337768 1_555
C7 S7 1.734574 1_455
C8 N24 1.335949 1_555
C8 N16 1.340386 1_555
C8 S8 1.719412 1_555
C9 N25 1.335949 1_555
C9 N17 1.340386 1_555
C9 S9 1.719412 1_555
C10 N26 1.335949 1_555
C10 N18 1.340386 1_555
C10 S10 1.719412 1_555
C11 N27 1.335949 1_555
C11 N19 1.340386 1_555
C11 S11 1.719412 1_556
C12 N28 1.335949 1_555
C12 N20 1.340386 1_555
C12 S12 1.719412 1_555
C13 N29 1.335949 1_555
C13 N21 1.340386 1_555
C13 S13 1.719412 1_555
C14 N30 1.335949 1_555
C14 N22 1.340386 1_555
C14 S14 1.719412 1_555
C15 N31 1.335949 1_555
C15 N23 1.340386 1_555
C15 S15 1.719412 1_554
C16 N32 1.334045 1_555
C16 N40 1.339205 1_555
C16 S16 1.724761 1_555
C17 N33 1.334045 1_555
C17 N41 1.339205 1_555
C17 S17 1.724761 1_555
C18 N34 1.334045 1_555
C18 N42 1.339205 1_555
C18 S18 1.724761 1_555
C19 N35 1.334045 1_555
C19 N43 1.339205 1_555
C19 S19 1.724761 1_555
C20 N36 1.334045 1_555
C20 N44 1.339205 1_555
C20 S20 1.724761 1_555
C21 N37 1.334045 1_555
C21 N45 1.339205 1_555
C21 S21 1.724761 1_555
C22 N38 1.334045 1_555
C22 N46 1.339205 1_555
C22 S22 1.724761 1_555
C23 N39 1.334045 1_555
C23 N47 1.339205 1_555
C23 S23 1.724761 1_555
