# generated using pymatgen
data_Ho2N3
_symmetry_space_group_name_H-M   'P 1'
_cell_length_a   9.44958770
_cell_length_b   9.44958770
_cell_length_c   9.44958770
_cell_angle_alpha   109.47122063
_cell_angle_beta   109.47122063
_cell_angle_gamma   109.47122063
_symmetry_Int_Tables_number   1
_chemical_formula_structural   Ho2N3
_chemical_formula_sum   'Ho16 N24'
_cell_volume   649.55613449
_cell_formula_units_Z   8
loop_
 _symmetry_equiv_pos_site_id
 _symmetry_equiv_pos_as_xyz
  1  'x, y, z'
loop_
 _atom_site_type_symbol
 _atom_site_label
 _atom_site_symmetry_multiplicity
 _atom_site_fract_x
 _atom_site_fract_y
 _atom_site_fract_z
 _atom_site_occupancy
  Ho  Ho0  1  0.78016700  0.25000000  0.03016700  1
  Ho  Ho1  1  0.71983300  0.75000000  0.46983300  1
  Ho  Ho2  1  0.25000000  0.03016700  0.78016700  1
  Ho  Ho3  1  0.75000000  0.46983300  0.71983300  1
  Ho  Ho4  1  0.03016700  0.78016700  0.25000000  1
  Ho  Ho5  1  0.46983300  0.71983300  0.75000000  1
  Ho  Ho6  1  0.21983300  0.75000000  0.96983300  1
  Ho  Ho7  1  0.28016700  0.25000000  0.53016700  1
  Ho  Ho8  1  0.75000000  0.96983300  0.21983300  1
  Ho  Ho9  1  0.25000000  0.53016700  0.28016700  1
  Ho  Ho10  1  0.96983300  0.21983300  0.75000000  1
  Ho  Ho11  1  0.53016700  0.28016700  0.25000000  1
  Ho  Ho12  1  0.50000000  0.00000000  0.50000000  1
  Ho  Ho13  1  0.50000000  0.50000000  0.00000000  1
  Ho  Ho14  1  0.00000000  0.50000000  0.50000000  1
  Ho  Ho15  1  0.00000000  0.00000000  0.00000000  1
  N  N0  1  0.49067000  0.23055500  0.46322300  1
  N  N1  1  0.23266800  0.26944500  0.76011500  1
  N  N2  1  0.00933000  0.47255300  0.73988500  1
  N  N3  1  0.26733200  0.02744700  0.03677700  1
  N  N4  1  0.23055500  0.46322300  0.49067000  1
  N  N5  1  0.26944500  0.76011500  0.23266800  1
  N  N6  1  0.47255300  0.73988500  0.00933000  1
  N  N7  1  0.02744700  0.03677700  0.26733200  1
  N  N8  1  0.46322300  0.49067000  0.23055500  1
  N  N9  1  0.76011500  0.23266800  0.26944500  1
  N  N10  1  0.73988500  0.00933000  0.47255300  1
  N  N11  1  0.03677700  0.26733200  0.02744700  1
  N  N12  1  0.50933000  0.76944500  0.53677700  1
  N  N13  1  0.76733200  0.73055500  0.23988500  1
  N  N14  1  0.99067000  0.52744700  0.26011500  1
  N  N15  1  0.73266800  0.97255300  0.96322300  1
  N  N16  1  0.76944500  0.53677700  0.50933000  1
  N  N17  1  0.73055500  0.23988500  0.76733200  1
  N  N18  1  0.52744700  0.26011500  0.99067000  1
  N  N19  1  0.97255300  0.96322300  0.73266800  1
  N  N20  1  0.53677700  0.50933000  0.76944500  1
  N  N21  1  0.23988500  0.76733200  0.73055500  1
  N  N22  1  0.26011500  0.99067000  0.52744700  1
  N  N23  1  0.96322300  0.73266800  0.97255300  1
loop_
_geom_bond_atom_site_label_1
_geom_bond_atom_site_label_2
_geom_bond_distance
_geom_bond_site_symmetry_2
Ho0 N15 2.322883 1_544
Ho0 N14 2.322883 1_555
Ho0 N17 2.330924 1_554
Ho0 N18 2.330924 1_554
Ho0 N9 2.384747 1_555
Ho0 N11 2.384747 1_655
Ho1 N12 2.322883 1_555
Ho1 N13 2.322883 1_555
Ho1 N19 2.330924 1_555
Ho1 N16 2.330924 1_555
Ho1 N8 2.384747 1_555
Ho1 N10 2.384747 1_565
Ho2 N19 2.322883 1_445
Ho2 N18 2.322883 1_555
Ho2 N21 2.330924 1_545
Ho2 N22 2.330924 1_545
Ho2 N1 2.384747 1_555
Ho2 N3 2.384747 1_556
Ho3 N16 2.322883 1_555
Ho3 N17 2.322883 1_555
Ho3 N23 2.330924 1_555
Ho3 N20 2.330924 1_555
Ho3 N0 2.384747 1_555
Ho3 N2 2.384747 1_655
Ho4 N23 2.322883 1_454
Ho4 N22 2.322883 1_555
Ho4 N13 2.330924 1_455
Ho4 N14 2.330924 1_455
Ho4 N7 2.384747 1_565
Ho4 N5 2.384747 1_555
Ho5 N20 2.322883 1_555
Ho5 N21 2.322883 1_555
Ho5 N15 2.330924 1_555
Ho5 N12 2.330924 1_555
Ho5 N4 2.384747 1_555
Ho5 N6 2.384747 1_556
Ho6 N2 2.322883 1_555
Ho6 N3 2.322883 1_566
Ho6 N6 2.330924 1_556
Ho6 N5 2.330924 1_556
Ho6 N23 2.384747 1_455
Ho6 N21 2.384747 1_555
Ho7 N1 2.322883 1_555
Ho7 N0 2.322883 1_555
Ho7 N4 2.330924 1_555
Ho7 N7 2.330924 1_555
Ho7 N22 2.384747 1_545
Ho7 N20 2.384747 1_555
Ho8 N6 2.322883 1_555
Ho8 N7 2.322883 1_665
Ho8 N10 2.330924 1_565
Ho8 N9 2.330924 1_565
Ho8 N15 2.384747 1_554
Ho8 N13 2.384747 1_555
Ho9 N5 2.322883 1_555
Ho9 N4 2.322883 1_555
Ho9 N11 2.330924 1_555
Ho9 N8 2.330924 1_555
Ho9 N14 2.384747 1_455
Ho9 N12 2.384747 1_555
Ho10 N11 2.322883 1_656
Ho10 N10 2.322883 1_555
Ho10 N2 2.330924 1_655
Ho10 N1 2.330924 1_655
Ho10 N19 2.384747 1_545
Ho10 N17 2.384747 1_555
Ho11 N9 2.322883 1_555
Ho11 N8 2.322883 1_555
Ho11 N3 2.330924 1_555
Ho11 N0 2.330924 1_555
Ho11 N18 2.384747 1_554
Ho11 N16 2.384747 1_555
Ho12 N12 2.342531 1_545
Ho12 N10 2.342531 1_555
Ho12 N22 2.342531 1_545
Ho12 N0 2.342531 1_555
Ho12 N5 2.342531 1_545
Ho12 N17 2.342531 1_555
Ho13 N20 2.342531 1_554
Ho13 N1 2.342531 1_554
Ho13 N6 2.342531 1_555
Ho13 N18 2.342531 1_554
Ho13 N13 2.342531 1_555
Ho13 N8 2.342531 1_555
Ho14 N16 2.342531 1_455
Ho14 N4 2.342531 1_555
Ho14 N9 2.342531 1_455
Ho14 N21 2.342531 1_555
Ho14 N14 2.342531 1_455
Ho14 N2 2.342531 1_555
Ho15 N3 2.342531 1_555
Ho15 N11 2.342531 1_555
Ho15 N7 2.342531 1_555
Ho15 N15 2.342531 1_444
Ho15 N19 2.342531 1_444
Ho15 N23 2.342531 1_444
