# generated using pymatgen
data_Mn3(Co10B3)2
_symmetry_space_group_name_H-M   'P 1'
_cell_length_a   7.31510592
_cell_length_b   7.31510592
_cell_length_c   7.31510592
_cell_angle_alpha   60.00000000
_cell_angle_beta   60.00000000
_cell_angle_gamma   60.00000000
_symmetry_Int_Tables_number   1
_chemical_formula_structural   Mn3(Co10B3)2
_chemical_formula_sum   'Mn3 Co20 B6'
_cell_volume   276.78774576
_cell_formula_units_Z   1
loop_
 _symmetry_equiv_pos_site_id
 _symmetry_equiv_pos_as_xyz
  1  'x, y, z'
loop_
 _atom_site_type_symbol
 _atom_site_label
 _atom_site_symmetry_multiplicity
 _atom_site_fract_x
 _atom_site_fract_y
 _atom_site_fract_z
 _atom_site_occupancy
  Mn  Mn0  1  0.00000000  0.00000000  0.00000000  1
  Mn  Mn1  1  0.75000000  0.75000000  0.75000000  1
  Mn  Mn2  1  0.25000000  0.25000000  0.25000000  1
  Co  Co0  1  0.62086800  0.62086800  0.13739700  1
  Co  Co1  1  0.62086800  0.13739700  0.62086800  1
  Co  Co2  1  0.13739700  0.62086800  0.62086800  1
  Co  Co3  1  0.62086800  0.62086800  0.62086800  1
  Co  Co4  1  0.37913200  0.37913200  0.86260300  1
  Co  Co5  1  0.37913200  0.86260300  0.37913200  1
  Co  Co6  1  0.86260300  0.37913200  0.37913200  1
  Co  Co7  1  0.37913200  0.37913200  0.37913200  1
  Co  Co8  1  0.00000000  0.00000000  0.33611400  1
  Co  Co9  1  0.66388600  0.00000000  0.33611400  1
  Co  Co10  1  0.00000000  0.66388600  0.33611400  1
  Co  Co11  1  0.66388600  0.33611400  0.00000000  1
  Co  Co12  1  0.00000000  0.33611400  0.00000000  1
  Co  Co13  1  0.00000000  0.33611400  0.66388600  1
  Co  Co14  1  0.33611400  0.66388600  0.00000000  1
  Co  Co15  1  0.33611400  0.00000000  0.66388600  1
  Co  Co16  1  0.33611400  0.00000000  0.00000000  1
  Co  Co17  1  0.00000000  0.00000000  0.66388600  1
  Co  Co18  1  0.00000000  0.66388600  0.00000000  1
  Co  Co19  1  0.66388600  0.00000000  0.00000000  1
  B  B0  1  0.72403900  0.72403900  0.27596100  1
  B  B1  1  0.27596100  0.72403900  0.27596100  1
  B  B2  1  0.72403900  0.27596100  0.27596100  1
  B  B3  1  0.27596100  0.27596100  0.72403900  1
  B  B4  1  0.72403900  0.27596100  0.72403900  1
  B  B5  1  0.27596100  0.72403900  0.72403900  1
loop_
_geom_bond_atom_site_label_1
_geom_bond_atom_site_label_2
_geom_bond_distance
_geom_bond_site_symmetry_2
Co0 Mn1 2.313829 1_554
Co0 Co18 2.563179 1_655
Co0 Co19 2.563179 1_565
Co0 Co12 2.563183 1_655
Co0 Co16 2.563183 1_565
Co0 Co11 2.563186 1_555
Co0 Co14 2.563186 1_555
Co1 Mn1 2.313829 1_545
Co1 Co19 2.563179 1_556
Co1 Co17 2.563179 1_655
Co1 Co8 2.563183 1_655
Co1 Co16 2.563183 1_556
Co1 Co15 2.563186 1_555
Co1 Co9 2.563186 1_555
Co2 Mn1 2.313829 1_455
Co2 Co8 2.563183 1_565
Co3 Mn1 2.313823 1_555
Co3 Co9 2.563181 1_565
Co4 Mn2 2.313829 1_556
Co5 Mn2 2.313829 1_565
Co5 Co8 2.563179 1_565
Co5 Co9 2.563186 1_565
Co6 Mn2 2.313829 1_655
Co6 Co8 2.563179 1_655
Co7 Mn2 2.313823 1_555
Co7 Co9 2.563181 1_555
Co8 Mn0 2.458710 1_555
Co8 Co9 2.458710 1_455
Co8 Mn1 2.850627 1_445
Co8 Mn2 2.850627 1_555
Co9 Mn0 2.458710 1_655
Co9 Mn2 2.850627 1_555
Co9 Mn1 2.850627 1_545
Co10 Co13 2.397687 1_555
Co10 Co14 2.458710 1_555
Co10 Co18 2.458710 1_555
Co10 Mn0 2.458710 1_565
Co10 Co8 2.458710 1_565
Co10 Co9 2.458710 1_465
Co10 Co7 2.563181 1_555
Co10 Co3 2.563181 1_455
Co10 Co2 2.563186 1_555
Co10 Co6 2.563186 1_455
Co10 Mn2 2.850627 1_555
Co10 Mn1 2.850627 1_455
Co11 Co14 2.397687 1_555
Co11 Co19 2.458710 1_555
Co11 Co9 2.458710 1_555
Co11 Mn0 2.458710 1_655
Co11 Co12 2.458710 1_655
Co11 Co13 2.458710 1_654
Co11 Co7 2.563181 1_555
Co11 Co3 2.563181 1_554
Co11 Co4 2.563186 1_554
Co11 Mn2 2.850627 1_555
Co11 Mn1 2.850627 1_554
Co12 Co18 2.397687 1_555
Co12 Co8 2.458710 1_555
Co12 Co16 2.458710 1_555
Co12 Mn0 2.458710 1_555
Co12 Co13 2.458710 1_554
Co12 Co4 2.563179 1_554
Co12 Co6 2.563179 1_455
Co12 Co2 2.563183 1_554
Co12 Mn2 2.850627 1_555
Co12 Mn1 2.850627 1_454
Co13 Co17 2.458710 1_555
Co13 Co15 2.458710 1_555
Co13 Mn0 2.458710 1_556
Co13 Co7 2.563181 1_555
Co13 Co3 2.563181 1_455
Co13 Co2 2.563186 1_555
Co13 Co6 2.563186 1_455
Co13 Mn2 2.850627 1_555
Co13 Mn1 2.850627 1_455
Co14 Co18 2.458710 1_555
Co14 Mn0 2.458710 1_565
Co14 Co15 2.458710 1_564
Co14 Co16 2.458710 1_565
Co14 Co7 2.563181 1_555
Co14 Co3 2.563181 1_554
Co14 Co4 2.563186 1_554
Co14 Mn2 2.850627 1_555
Co14 Mn1 2.850627 1_554
Co15 Co9 2.397687 1_555
Co15 Co17 2.458710 1_555
Co15 Mn0 2.458710 1_556
Co15 Co16 2.458710 1_556
Co15 Co7 2.563181 1_555
Co15 Co3 2.563181 1_545
Co15 Co5 2.563186 1_545
Co15 Mn2 2.850627 1_555
Co15 Mn1 2.850627 1_545
Co16 Co19 2.397687 1_555
Co16 Co8 2.458710 1_555
Co16 Mn0 2.458710 1_555
Co16 Co4 2.563179 1_554
Co16 Co5 2.563179 1_545
Co16 Mn1 2.850627 1_544
Co16 Mn2 2.850627 1_555
Co17 Co8 2.397687 1_555
Co17 Co18 2.458710 1_546
Co17 Mn0 2.458710 1_556
Co17 Co19 2.458710 1_456
Co17 Co2 2.563179 1_545
Co17 Co5 2.563183 1_545
Co17 Co6 2.563183 1_455
Co17 Mn1 2.850627 1_445
Co17 Mn2 2.850627 1_555
Co18 Co19 2.458710 1_465
Co18 Mn0 2.458710 1_565
Co18 Co2 2.563179 1_554
Co18 Co6 2.563183 1_455
Co18 Co4 2.563183 1_554
Co18 Mn1 2.850627 1_454
Co18 Mn2 2.850627 1_555
Co19 Co9 2.458710 1_555
Co19 Mn0 2.458710 1_655
Co19 Co5 2.563183 1_545
Co19 Co4 2.563183 1_554
Co19 Mn2 2.850627 1_555
Co19 Mn1 2.850627 1_544
B0 Co0 2.065456 1_555
B0 Co5 2.065462 1_555
B0 Co6 2.065462 1_555
B0 Co3 2.065463 1_555
B0 Co10 2.066085 1_655
B0 Co9 2.066085 1_565
B0 Co18 2.066085 1_655
B0 Co19 2.066085 1_565
B1 Co5 2.065456 1_555
B1 Co0 2.065462 1_555
B1 Co2 2.065462 1_555
B1 Co7 2.065463 1_555
B1 Co8 2.066085 1_565
B1 Co16 2.066085 1_565
B1 Co14 2.066085 1_555
B1 Co10 2.066085 1_555
B2 Co6 2.065456 1_555
B2 Co1 2.065462 1_555
B2 Co0 2.065462 1_555
B2 Co7 2.065463 1_555
B2 Co8 2.066085 1_655
B2 Co12 2.066085 1_655
B2 Co9 2.066085 1_555
B2 Co11 2.066085 1_555
B3 Co4 2.065456 1_555
B3 Co1 2.065462 1_555
B3 Co2 2.065462 1_555
B3 Co7 2.065463 1_555
B3 Co12 2.066085 1_556
B3 Co16 2.066085 1_556
B3 Co15 2.066085 1_555
B3 Co13 2.066085 1_555
B4 Co1 2.065456 1_555
B4 Co4 2.065462 1_555
B4 Co6 2.065462 1_555
B4 Co3 2.065463 1_555
B4 Co11 2.066085 1_556
B4 Co13 2.066085 1_655
B4 Co17 2.066085 1_655
B4 Co19 2.066085 1_556
B5 Co2 2.065456 1_555
B5 Co4 2.065462 1_555
B5 Co5 2.065462 1_555
B5 Co3 2.065463 1_555
B5 Co15 2.066085 1_565
B5 Co14 2.066085 1_556
B5 Co17 2.066085 1_565
B5 Co18 2.066085 1_556
