# generated using pymatgen
data_Ba4Ca8Cu11CO20
_symmetry_space_group_name_H-M   'P 1'
_cell_length_a   21.13545028
_cell_length_b   21.13545028
_cell_length_c   21.13545028
_cell_angle_alpha   164.89353081
_cell_angle_beta   164.89353081
_cell_angle_gamma   21.42658364
_symmetry_Int_Tables_number   1
_chemical_formula_structural   Ba4Ca8Cu11CO20
_chemical_formula_sum   'Ba4 Ca8 Cu11 C1 O20'
_cell_volume   641.15236898
_cell_formula_units_Z   1
loop_
 _symmetry_equiv_pos_site_id
 _symmetry_equiv_pos_as_xyz
  1  'x, y, z'
loop_
 _atom_site_type_symbol
 _atom_site_label
 _atom_site_symmetry_multiplicity
 _atom_site_fract_x
 _atom_site_fract_y
 _atom_site_fract_z
 _atom_site_occupancy
  Ba  Ba0  1  0.44640300  0.94640300  0.50000000  1
  Ba  Ba1  1  0.94640300  0.44640300  0.50000000  1
  Ba  Ba2  1  0.05359700  0.55359700  0.50000000  1
  Ba  Ba3  1  0.55359700  0.05359700  0.50000000  1
  Ca  Ca0  1  0.36313000  0.86313000  0.50000000  1
  Ca  Ca1  1  0.86313000  0.36313000  0.50000000  1
  Ca  Ca2  1  0.13687000  0.63687000  0.50000000  1
  Ca  Ca3  1  0.63687000  0.13687000  0.50000000  1
  Ca  Ca4  1  0.28761700  0.78761700  0.50000000  1
  Ca  Ca5  1  0.78761700  0.28761700  0.50000000  1
  Ca  Ca6  1  0.21238300  0.71238300  0.50000000  1
  Ca  Ca7  1  0.71238300  0.21238300  0.50000000  1
  Cu  Cu0  1  0.82573900  0.82573900  0.00000000  1
  Cu  Cu1  1  0.32581300  0.32581300  0.00000000  1
  Cu  Cu2  1  0.67418700  0.67418700  0.00000000  1
  Cu  Cu3  1  0.17426100  0.17426100  0.00000000  1
  Cu  Cu4  1  0.90080400  0.90080400  0.00000000  1
  Cu  Cu5  1  0.40075700  0.40075700  0.00000000  1
  Cu  Cu6  1  0.59924300  0.59924300  0.00000000  1
  Cu  Cu7  1  0.09919600  0.09919600  0.00000000  1
  Cu  Cu8  1  0.75000800  0.75000800  0.00000000  1
  Cu  Cu9  1  0.24999200  0.24999200  0.00000000  1
  Cu  Cu10  1  0.00000000  0.00000000  0.00000000  1
  C  C0  1  0.50000000  0.50000000  0.00000000  1
  O  O0  1  0.15328900  0.15328900  0.49956900  1
  O  O1  1  0.65372100  0.65372100  0.50043100  1
  O  O2  1  0.15328900  0.65372100  0.00000000  1
  O  O3  1  0.65372100  0.15328900  0.00000000  1
  O  O4  1  0.84671100  0.84671100  0.50043100  1
  O  O5  1  0.34627900  0.34627900  0.49956900  1
  O  O6  1  0.84671100  0.34627900  0.00000000  1
  O  O7  1  0.34627900  0.84671100  0.00000000  1
  O  O8  1  0.00000000  0.00000000  0.50000000  1
  O  O9  1  0.50000000  0.50000000  0.50000000  1
  O  O10  1  0.00000000  0.50000000  0.00000000  1
  O  O11  1  0.50000000  0.00000000  0.00000000  1
  O  O12  1  0.07611500  0.07611500  0.49943800  1
  O  O13  1  0.57667700  0.57667700  0.50056200  1
  O  O14  1  0.07611500  0.57667700  0.00000000  1
  O  O15  1  0.57667700  0.07611500  0.00000000  1
  O  O16  1  0.92388500  0.92388500  0.50056200  1
  O  O17  1  0.42332300  0.42332300  0.49943800  1
  O  O18  1  0.92388500  0.42332300  0.00000000  1
  O  O19  1  0.42332300  0.92388500  0.00000000  1
loop_
_geom_bond_atom_site_label_1
_geom_bond_atom_site_label_2
_geom_bond_distance
_geom_bond_site_symmetry_2
Ba0 O1 2.652109 1_555
Ba0 O3 2.652123 1_566
Ba0 O2 2.652123 1_555
Ba0 O0 2.652137 1_565
Ba0 Cu10 3.560045 1_666
Ba0 Cu10 3.560045 1_565
Ba0 C0 3.560045 1_555
Ba0 C0 3.560045 1_566
Ba1 O1 2.652109 1_555
Ba1 O2 2.652123 1_656
Ba1 O3 2.652123 1_555
Ba1 O0 2.652137 1_655
Ba1 C0 3.560045 1_656
Ba1 C0 3.560045 1_555
Ba1 Cu10 3.560045 1_655
Ba1 Cu10 3.560045 1_666
Ba2 O5 2.652109 1_555
Ba2 O6 2.652123 1_455
Ba2 O7 2.652123 1_556
Ba2 O4 2.652137 1_455
Ba2 C0 3.560045 1_455
Ba2 C0 3.560045 1_556
Ba2 Cu10 3.560045 1_555
Ba2 Cu10 3.560045 1_566
Ba3 O5 2.652109 1_555
Ba3 O6 2.652123 1_556
Ba3 O7 2.652123 1_545
Ba3 O4 2.652137 1_545
Ba3 Cu10 3.560045 1_555
Ba3 Cu10 3.560045 1_656
Ba3 C0 3.560045 1_545
Ba3 C0 3.560045 1_556
Ca0 O13 2.487368 1_555
Ca0 O15 2.487368 1_566
Ca0 O12 2.487368 1_565
Ca0 O14 2.487368 1_555
Ca0 O0 2.582877 1_565
Ca0 O2 2.582890 1_555
Ca0 O3 2.582890 1_566
Ca0 O1 2.582904 1_555
Ca1 O15 2.487368 1_555
Ca1 O13 2.487368 1_555
Ca1 O12 2.487368 1_655
Ca1 O14 2.487368 1_656
Ca1 O0 2.582877 1_655
Ca1 O3 2.582890 1_555
Ca1 O2 2.582890 1_656
Ca1 O1 2.582904 1_555
Ca2 O16 2.487368 1_455
Ca2 O19 2.487368 1_556
Ca2 O18 2.487368 1_455
Ca2 O17 2.487368 1_555
Ca2 O4 2.582877 1_455
Ca2 O7 2.582890 1_556
Ca2 O6 2.582890 1_455
Ca2 O5 2.582904 1_555
Ca3 O18 2.487368 1_556
Ca3 O16 2.487368 1_545
Ca3 O19 2.487368 1_545
Ca3 O17 2.487368 1_555
Ca3 O4 2.582877 1_545
Ca3 O6 2.582890 1_556
Ca3 O7 2.582890 1_545
Ca3 O5 2.582904 1_555
Ca4 O9 2.510030 1_555
Ca4 O8 2.510030 1_565
Ca4 O10 2.510030 1_555
Ca4 O11 2.510030 1_566
Ca4 O12 2.540353 1_565
Ca4 O15 2.540353 1_566
Ca4 O14 2.540353 1_555
Ca4 O13 2.540353 1_555
Ca5 O9 2.510030 1_555
Ca5 O8 2.510030 1_655
Ca5 O10 2.510030 1_656
Ca5 O11 2.510030 1_555
Ca5 O14 2.540353 1_656
Ca5 O12 2.540353 1_655
Ca5 O15 2.540353 1_555
Ca5 O13 2.540353 1_555
Ca6 O9 2.510030 1_555
Ca6 O8 2.510030 1_565
Ca6 O10 2.510030 1_555
Ca6 O11 2.510030 1_566
Ca6 O17 2.540353 1_555
Ca6 O18 2.540353 1_455
Ca6 O16 2.540353 1_455
Ca6 O19 2.540353 1_556
Ca7 O9 2.510030 1_555
Ca7 O8 2.510030 1_655
Ca7 O10 2.510030 1_656
Ca7 O11 2.510030 1_555
Ca7 O17 2.540353 1_555
Ca7 O18 2.540353 1_556
Ca7 O16 2.540353 1_545
Ca7 O19 2.540353 1_545
Cu0 O14 1.962464 1_655
Cu0 O15 1.962464 1_565
Cu0 O12 1.962464 1_665
Cu0 O13 1.962464 1_554
Cu1 O13 1.966840 1_555
Cu1 O12 1.966840 1_554
Cu1 O14 1.966840 1_555
Cu1 O15 1.966840 1_555
Cu2 O18 1.966840 1_555
Cu2 O16 1.966840 1_555
Cu2 O17 1.966840 1_554
Cu2 O19 1.966840 1_555
Cu3 O17 1.962464 1_555
Cu3 O18 1.962464 1_455
Cu3 O16 1.962464 1_444
Cu3 O19 1.962464 1_545
Cu4 O2 1.965989 1_655
Cu4 O3 1.965989 1_565
Cu4 O0 1.965991 1_665
Cu4 O1 1.965994 1_554
Cu5 O0 1.969485 1_554
Cu5 O1 1.969487 1_555
Cu5 O2 1.969490 1_555
Cu5 O3 1.969490 1_555
Cu6 O4 1.969485 1_555
Cu6 O5 1.969487 1_554
Cu6 O7 1.969490 1_555
Cu6 O6 1.969490 1_555
Cu7 O7 1.965989 1_545
Cu7 O6 1.965989 1_455
Cu7 O4 1.965991 1_444
Cu7 O5 1.965994 1_555
Cu8 O8 1.964483 1_665
Cu8 O10 1.964483 1_655
Cu8 O11 1.964483 1_565
Cu8 O9 1.964483 1_554
Cu9 O9 1.964483 1_555
Cu9 O8 1.964483 1_554
Cu9 O11 1.964483 1_555
Cu9 O10 1.964483 1_555
