# generated using pymatgen
data_Mg6CdSi
_symmetry_space_group_name_H-M   'P 1'
_cell_length_a   5.08357200
_cell_length_b   6.13935600
_cell_length_c   10.85547800
_cell_angle_alpha   90.00000000
_cell_angle_beta   90.00000000
_cell_angle_gamma   90.00000000
_symmetry_Int_Tables_number   1
_chemical_formula_structural   Mg6CdSi
_chemical_formula_sum   'Mg12 Cd2 Si2'
_cell_volume   338.79792972
_cell_formula_units_Z   2
loop_
 _symmetry_equiv_pos_site_id
 _symmetry_equiv_pos_as_xyz
  1  'x, y, z'
loop_
 _atom_site_type_symbol
 _atom_site_label
 _atom_site_symmetry_multiplicity
 _atom_site_fract_x
 _atom_site_fract_y
 _atom_site_fract_z
 _atom_site_occupancy
  Mg  Mg0  1  0.00000000  0.24905200  0.58616600  1
  Mg  Mg1  1  0.00000000  0.75094800  0.58616600  1
  Mg  Mg2  1  0.00000000  0.50000000  0.83399300  1
  Mg  Mg3  1  0.50000000  0.75630000  0.91073300  1
  Mg  Mg4  1  0.50000000  0.24370000  0.91073300  1
  Mg  Mg5  1  0.50000000  0.50000000  0.66712600  1
  Mg  Mg6  1  0.00000000  0.74905200  0.08616600  1
  Mg  Mg7  1  0.00000000  0.25094800  0.08616600  1
  Mg  Mg8  1  0.00000000  0.00000000  0.33399300  1
  Mg  Mg9  1  0.50000000  0.25630000  0.41073300  1
  Mg  Mg10  1  0.50000000  0.74370000  0.41073300  1
  Mg  Mg11  1  0.50000000  0.00000000  0.16712600  1
  Cd  Cd0  1  0.50000000  0.00000000  0.65648400  1
  Cd  Cd1  1  0.50000000  0.50000000  0.15648400  1
  Si  Si0  1  0.00000000  0.00000000  0.84859900  1
  Si  Si1  1  0.00000000  0.50000000  0.34859900  1
loop_
_geom_bond_atom_site_label_1
_geom_bond_atom_site_label_2
_geom_bond_distance
_geom_bond_site_symmetry_2
Mg0 Si1 3.004059 1_555
Mg0 Mg1 3.058038 1_545
Mg0 Mg1 3.081318 1_555
Mg0 Mg5 3.099468 1_555
Mg0 Mg5 3.099468 1_455
Mg0 Mg2 3.100200 1_555
Mg0 Mg8 3.135535 1_555
Mg0 Mg9 3.176386 1_455
Mg0 Mg9 3.176386 1_555
Mg0 Si0 3.233228 1_555
Mg1 Si1 3.004059 1_555
Mg1 Mg5 3.099468 1_555
Mg1 Mg5 3.099468 1_455
Mg1 Mg2 3.100200 1_555
Mg1 Mg8 3.135535 1_565
Mg1 Mg10 3.176386 1_455
Mg1 Mg10 3.176386 1_555
Mg1 Si0 3.233228 1_565
Mg2 Si0 3.073770 1_565
Mg2 Si0 3.073770 1_555
Mg2 Mg3 3.103321 1_455
Mg2 Mg4 3.103321 1_455
Mg2 Mg3 3.103321 1_555
Mg2 Mg4 3.103321 1_555
Mg2 Mg5 3.121205 1_455
Mg2 Mg5 3.121205 1_555
Mg2 Mg7 3.135535 1_556
Mg2 Mg6 3.135535 1_556
Mg3 Mg4 2.992322 1_565
Mg3 Si0 3.025577 1_565
Mg3 Si0 3.025577 1_665
Mg3 Mg5 3.077203 1_555
Mg3 Mg4 3.147034 1_555
Mg3 Mg6 3.176386 1_556
Mg3 Mg6 3.176386 1_656
Mg4 Si0 3.025577 1_555
Mg4 Si0 3.025577 1_655
Mg4 Mg5 3.077203 1_555
Mg4 Mg7 3.176386 1_556
Mg4 Mg7 3.176386 1_656
Mg5 Mg9 3.159918 1_555
Mg6 Si0 3.004059 1_564
Mg6 Mg7 3.058038 1_555
Mg6 Mg7 3.081318 1_565
Mg6 Mg8 3.100200 1_565
Mg6 Si1 3.233228 1_555
Mg7 Si0 3.004059 1_554
Mg7 Mg8 3.100200 1_555
Mg7 Si1 3.233228 1_555
Mg8 Si1 3.073770 1_555
Mg8 Si1 3.073770 1_545
Mg8 Mg9 3.103321 1_455
Mg8 Mg9 3.103321 1_555
Mg9 Si1 3.025577 1_555
Mg9 Si1 3.025577 1_655
Mg10 Mg9 2.992322 1_555
Mg10 Si1 3.025577 1_555
Mg10 Si1 3.025577 1_655
Mg10 Mg11 3.077203 1_565
Mg10 Mg8 3.103321 1_665
Mg10 Mg8 3.103321 1_565
Mg10 Mg9 3.147034 1_565
Mg10 Mg5 3.159918 1_555
Mg11 Mg9 3.077203 1_555
Mg11 Mg7 3.099468 1_655
Mg11 Mg6 3.099468 1_645
Mg11 Mg6 3.099468 1_545
Mg11 Mg7 3.099468 1_555
Mg11 Mg8 3.121205 1_655
Mg11 Mg8 3.121205 1_555
Mg11 Mg3 3.159918 1_544
Mg11 Mg4 3.159918 1_554
Cd0 Mg1 3.062884 1_545
Cd0 Mg0 3.062884 1_655
Cd0 Mg0 3.062884 1_555
Cd0 Mg1 3.062884 1_645
Cd0 Mg5 3.071851 1_545
Cd0 Mg5 3.071851 1_555
Cd0 Mg9 3.097227 1_555
Cd0 Mg10 3.097227 1_545
Cd0 Mg3 3.139437 1_545
Cd0 Mg4 3.139437 1_555
Cd1 Mg7 3.062884 1_555
Cd1 Mg7 3.062884 1_655
Cd1 Mg6 3.062884 1_555
Cd1 Mg6 3.062884 1_655
Cd1 Mg11 3.071851 1_555
Cd1 Mg11 3.071851 1_565
Cd1 Mg3 3.097227 1_554
Cd1 Mg4 3.097227 1_554
Cd1 Mg9 3.139437 1_555
Cd1 Mg10 3.139437 1_555
