# generated using pymatgen
data_MgSiO3
_symmetry_space_group_name_H-M   'P 1'
_cell_length_a   4.93884000
_cell_length_b   8.84556900
_cell_length_c   9.67173900
_cell_angle_alpha   90.00000000
_cell_angle_beta   90.00000000
_cell_angle_gamma   90.00000000
_symmetry_Int_Tables_number   1
_chemical_formula_structural   MgSiO3
_chemical_formula_sum   'Mg8 Si8 O24'
_cell_volume   422.52781093
_cell_formula_units_Z   8
loop_
 _symmetry_equiv_pos_site_id
 _symmetry_equiv_pos_as_xyz
  1  'x, y, z'
loop_
 _atom_site_type_symbol
 _atom_site_label
 _atom_site_symmetry_multiplicity
 _atom_site_fract_x
 _atom_site_fract_y
 _atom_site_fract_z
 _atom_site_occupancy
  Mg  Mg0  1  0.69766400  0.66492000  0.75344400  1
  Mg  Mg1  1  0.69691300  0.66462700  0.49677100  1
  Mg  Mg2  1  0.30233600  0.33508000  0.25344400  1
  Mg  Mg3  1  0.80233600  0.16492000  0.25344400  1
  Mg  Mg4  1  0.30308700  0.33537300  0.99677100  1
  Mg  Mg5  1  0.80308700  0.16462700  0.99677100  1
  Mg  Mg6  1  0.19766400  0.83508000  0.75344400  1
  Mg  Mg7  1  0.19691300  0.83537300  0.49677100  1
  Si  Si0  1  0.91685000  0.35947300  0.75756500  1
  Si  Si1  1  0.58315000  0.85947300  0.25756500  1
  Si  Si2  1  0.41685000  0.14052700  0.75756500  1
  Si  Si3  1  0.08315000  0.64052700  0.25756500  1
  Si  Si4  1  0.91450800  0.35920800  0.49259100  1
  Si  Si5  1  0.58549200  0.85920800  0.99259100  1
  Si  Si6  1  0.41450800  0.14079200  0.49259100  1
  Si  Si7  1  0.08549200  0.64079200  0.99259100  1
  O  O0  1  0.51986500  0.22374100  0.12500900  1
  O  O1  1  0.99856000  0.49989700  0.37491600  1
  O  O2  1  0.00144000  0.50010300  0.87491600  1
  O  O3  1  0.98013500  0.72374100  0.62500900  1
  O  O4  1  0.87607700  0.78815800  0.33993000  1
  O  O5  1  0.48013500  0.77625900  0.62500900  1
  O  O6  1  0.49856000  0.00010300  0.37491600  1
  O  O7  1  0.37607700  0.71184200  0.33993000  1
  O  O8  1  0.62068900  0.28858100  0.40999600  1
  O  O9  1  0.85628200  0.65292900  0.12458100  1
  O  O10  1  0.87931100  0.78858100  0.90999600  1
  O  O11  1  0.12392300  0.21184200  0.83993000  1
  O  O12  1  0.12068900  0.21141900  0.40999600  1
  O  O13  1  0.37931100  0.71141900  0.90999600  1
  O  O14  1  0.22400000  0.04513000  0.62519500  1
  O  O15  1  0.35628200  0.84707100  0.12458100  1
  O  O16  1  0.01986500  0.27625900  0.12500900  1
  O  O17  1  0.50144000  0.99989700  0.87491600  1
  O  O18  1  0.77600000  0.95487000  0.12519500  1
  O  O19  1  0.64371800  0.15292900  0.62458100  1
  O  O20  1  0.62392300  0.28815800  0.83993000  1
  O  O21  1  0.27600000  0.54513000  0.12519500  1
  O  O22  1  0.14371800  0.34707100  0.62458100  1
  O  O23  1  0.72400000  0.45487000  0.62519500  1
loop_
_geom_bond_atom_site_label_1
_geom_bond_atom_site_label_2
_geom_bond_distance
_geom_bond_site_symmetry_2
Mg0 O5 1.914990 1_555
Mg0 O3 1.939072 1_555
Mg0 O10 2.072181 1_555
Mg0 O13 2.221233 1_555
Mg0 O23 2.237788 1_555
Mg0 O2 2.399299 1_655
Mg1 O5 1.913011 1_555
Mg1 O3 1.941220 1_555
Mg1 O4 2.068343 1_555
Mg1 O7 2.233005 1_555
Mg1 O23 2.236795 1_555
Mg1 O1 2.394091 1_555
Mg2 O0 1.914990 1_555
Mg2 O16 1.939072 1_555
Mg2 O12 2.072181 1_555
Mg2 O8 2.221233 1_555
Mg2 O21 2.237788 1_555
Mg2 O1 2.399299 1_455
Mg3 O16 1.914990 1_655
Mg3 O0 1.939072 1_555
Mg3 O8 2.072181 1_555
Mg3 O12 2.221233 1_655
Mg3 O18 2.237788 1_545
Mg3 O6 2.399299 1_555
Mg4 O0 1.913011 1_556
Mg4 O16 1.941220 1_556
Mg4 O11 2.068343 1_555
Mg4 O20 2.233005 1_555
Mg4 O21 2.236795 1_556
Mg4 O2 2.394091 1_555
Mg5 O16 1.913011 1_656
Mg5 O0 1.941220 1_556
Mg5 O20 2.068343 1_555
Mg5 O11 2.233005 1_655
Mg5 O18 2.236795 1_546
Mg5 O17 2.394091 1_545
Mg6 O3 1.914990 1_455
Mg6 O5 1.939072 1_555
Mg6 O13 2.072181 1_555
Mg6 O10 2.221233 1_455
Mg6 O14 2.237788 1_565
Mg6 O17 2.399299 1_555
Mg7 O3 1.913011 1_455
Mg7 O5 1.941220 1_555
Mg7 O7 2.068343 1_555
Mg7 O4 2.233005 1_455
Mg7 O14 2.236795 1_565
Mg7 O6 2.394091 1_565
O1 Si3 1.734979 1_655
O1 Si4 1.736768 1_555
O2 Si0 1.734979 1_455
O2 Si7 1.736768 1_555
O4 Si1 1.767916 1_555
O4 Si3 1.840063 1_655
O6 Si1 1.734979 1_545
O6 Si6 1.736768 1_555
O7 Si3 1.767916 1_555
O7 Si1 1.840063 1_555
O8 Si4 1.770367 1_555
O8 Si6 1.839576 1_555
O9 Si3 1.709313 1_655
O9 Si7 1.709579 1_654
O10 Si5 1.770367 1_555
O10 Si7 1.839576 1_655
O11 Si2 1.767916 1_555
O11 Si0 1.840063 1_455
O12 Si6 1.770367 1_555
O12 Si4 1.839576 1_455
O13 Si7 1.770367 1_555
O13 Si5 1.839576 1_555
O14 Si6 1.801703 1_555
O14 Si2 1.805069 1_555
O15 Si1 1.709313 1_555
O15 Si5 1.709579 1_554
O17 Si2 1.734979 1_565
O17 Si5 1.736768 1_555
O18 Si5 1.801703 1_554
O18 Si1 1.805069 1_555
O19 Si2 1.709313 1_555
O19 Si6 1.709579 1_555
O20 Si0 1.767916 1_555
O20 Si2 1.840063 1_555
O21 Si7 1.801703 1_554
O21 Si3 1.805069 1_555
O22 Si0 1.709313 1_455
O22 Si4 1.709579 1_455
O23 Si4 1.801703 1_555
O23 Si0 1.805069 1_555
