# generated using pymatgen
data_Na3Ag3W2(OF)6
_symmetry_space_group_name_H-M   'P 1'
_cell_length_a   10.30518353
_cell_length_b   10.30518353
_cell_length_c   10.30518355
_cell_angle_alpha   32.90846945
_cell_angle_beta   32.90846945
_cell_angle_gamma   32.90846976
_symmetry_Int_Tables_number   1
_chemical_formula_structural   Na3Ag3W2(OF)6
_chemical_formula_sum   'Na3 Ag3 W2 O6 F6'
_cell_volume   287.42724724
_cell_formula_units_Z   1
loop_
 _symmetry_equiv_pos_site_id
 _symmetry_equiv_pos_as_xyz
  1  'x, y, z'
loop_
 _atom_site_type_symbol
 _atom_site_label
 _atom_site_symmetry_multiplicity
 _atom_site_fract_x
 _atom_site_fract_y
 _atom_site_fract_z
 _atom_site_occupancy
  Na  Na0  1  0.13366800  0.13366800  0.13366800  1
  Na  Na1  1  0.86633200  0.86633200  0.86633200  1
  Na  Na2  1  0.50000000  0.50000000  0.50000000  1
  Ag  Ag0  1  0.00000000  0.00000000  0.00000000  1
  Ag  Ag1  1  0.37018700  0.37018700  0.37018700  1
  Ag  Ag2  1  0.62981300  0.62981300  0.62981300  1
  W  W0  1  0.25415400  0.25415400  0.25415400  1
  W  W1  1  0.74584600  0.74584600  0.74584600  1
  O  O0  1  0.57659500  0.24915100  0.02068600  1
  O  O1  1  0.24915100  0.02068600  0.57659500  1
  O  O2  1  0.02068600  0.57659500  0.24915100  1
  O  O3  1  0.42340500  0.75084900  0.97931400  1
  O  O4  1  0.75084900  0.97931400  0.42340500  1
  O  O5  1  0.97931400  0.42340500  0.75084900  1
  F  F0  1  0.07078700  0.76166300  0.55444000  1
  F  F1  1  0.76166300  0.55444000  0.07078700  1
  F  F2  1  0.55444000  0.07078700  0.76166300  1
  F  F3  1  0.92921300  0.23833700  0.44556000  1
  F  F4  1  0.23833700  0.44556000  0.92921300  1
  F  F5  1  0.44556000  0.92921300  0.23833700  1
loop_
_geom_bond_atom_site_label_1
_geom_bond_atom_site_label_2
_geom_bond_distance
_geom_bond_site_symmetry_2
Ag0 O5 2.494502 1_454
Ag0 O2 2.494502 1_545
Ag0 O4 2.494502 1_445
Ag0 O1 2.494502 1_554
Ag0 O3 2.494502 1_544
Ag0 O0 2.494502 1_455
Ag1 O3 2.299095 1_554
Ag1 O5 2.299095 1_455
Ag1 O4 2.299095 1_545
Ag2 O0 2.299095 1_556
Ag2 O2 2.299095 1_655
Ag2 O1 2.299095 1_565
O0 W0 1.824705 1_555
O1 W0 1.824705 1_555
O2 W0 1.824705 1_555
O3 W1 1.824705 1_555
O4 W1 1.824705 1_555
O5 W1 1.824705 1_555
F0 W1 2.101552 1_455
F0 Na0 2.336729 1_565
F0 Na2 2.344593 1_555
F0 Na1 2.562751 1_455
F1 W1 2.101552 1_554
F1 Na0 2.336729 1_655
F1 Na2 2.344593 1_555
F1 Na1 2.562751 1_554
F2 W1 2.101552 1_545
F2 Na0 2.336729 1_556
F2 Na2 2.344593 1_555
F2 Na1 2.562751 1_545
F3 W0 2.101552 1_655
F3 Na1 2.336729 1_545
F3 Na2 2.344593 1_555
F3 Na0 2.562751 1_655
F4 W0 2.101552 1_556
F4 Na1 2.336729 1_455
F4 Na2 2.344593 1_555
F4 Na0 2.562751 1_556
F5 W0 2.101552 1_565
F5 Na1 2.336729 1_554
F5 Na2 2.344593 1_555
F5 Na0 2.562751 1_565
