# generated using pymatgen
data_TaCr3(CuS4)2
_symmetry_space_group_name_H-M   'P 1'
_cell_length_a   11.40197700
_cell_length_b   6.98307700
_cell_length_c   12.00725300
_cell_angle_alpha   90.00000000
_cell_angle_beta   90.00000000
_cell_angle_gamma   90.00000000
_symmetry_Int_Tables_number   1
_chemical_formula_structural   TaCr3(CuS4)2
_chemical_formula_sum   'Ta4 Cr12 Cu8 S32'
_cell_volume   956.02809039
_cell_formula_units_Z   4
loop_
 _symmetry_equiv_pos_site_id
 _symmetry_equiv_pos_as_xyz
  1  'x, y, z'
loop_
 _atom_site_type_symbol
 _atom_site_label
 _atom_site_symmetry_multiplicity
 _atom_site_fract_x
 _atom_site_fract_y
 _atom_site_fract_z
 _atom_site_occupancy
  Ta  Ta0  1  0.09662100  0.89048000  0.68485300  1
  Ta  Ta1  1  0.90337900  0.10952000  0.18485300  1
  Ta  Ta2  1  0.40337900  0.89048000  0.18485300  1
  Ta  Ta3  1  0.59662100  0.10952000  0.68485300  1
  Cr  Cr0  1  0.12516400  0.37039400  0.33204300  1
  Cr  Cr1  1  0.87483600  0.62960600  0.83204300  1
  Cr  Cr2  1  0.37483600  0.37039400  0.83204300  1
  Cr  Cr3  1  0.62516400  0.62960600  0.33204300  1
  Cr  Cr4  1  0.15374800  0.61848200  0.95180900  1
  Cr  Cr5  1  0.84625200  0.38151800  0.45180900  1
  Cr  Cr6  1  0.34625200  0.61848200  0.45180900  1
  Cr  Cr7  1  0.65374800  0.38151800  0.95180900  1
  Cr  Cr8  1  0.13449100  0.14196200  0.97608500  1
  Cr  Cr9  1  0.86550900  0.85803800  0.47608500  1
  Cr  Cr10  1  0.36550900  0.14196200  0.47608500  1
  Cr  Cr11  1  0.63449100  0.85803800  0.97608500  1
  Cu  Cu0  1  0.11430200  0.37824200  0.68171500  1
  Cu  Cu1  1  0.88569800  0.62175800  0.18171500  1
  Cu  Cu2  1  0.38569800  0.37824200  0.18171500  1
  Cu  Cu3  1  0.61430200  0.62175800  0.68171500  1
  Cu  Cu4  1  0.12023900  0.88440700  0.32059000  1
  Cu  Cu5  1  0.87976100  0.11559300  0.82059000  1
  Cu  Cu6  1  0.37976100  0.88440700  0.82059000  1
  Cu  Cu7  1  0.62023900  0.11559300  0.32059000  1
  S  S0  1  0.02167900  0.85980500  0.88389300  1
  S  S1  1  0.97832100  0.14019500  0.38389300  1
  S  S2  1  0.47832100  0.85980500  0.38389300  1
  S  S3  1  0.52167900  0.14019500  0.88389300  1
  S  S4  1  0.03238400  0.36860100  0.14440000  1
  S  S5  1  0.96761600  0.63139900  0.64440000  1
  S  S6  1  0.46761600  0.36860100  0.64440000  1
  S  S7  1  0.53238400  0.63139900  0.14440000  1
  S  S8  1  0.02306800  0.38864600  0.86984500  1
  S  S9  1  0.97693200  0.61135400  0.36984500  1
  S  S10  1  0.47693200  0.38864600  0.36984500  1
  S  S11  1  0.52306800  0.61135400  0.86984500  1
  S  S12  1  0.03163900  0.87094400  0.14150900  1
  S  S13  1  0.96836100  0.12905600  0.64150900  1
  S  S14  1  0.46836100  0.87094400  0.64150900  1
  S  S15  1  0.53163900  0.12905600  0.14150900  1
  S  S16  1  0.22029500  0.87819300  0.52395900  1
  S  S17  1  0.77970500  0.12180700  0.02395900  1
  S  S18  1  0.27970500  0.87819300  0.02395900  1
  S  S19  1  0.72029500  0.12180700  0.52395900  1
  S  S20  1  0.21834300  0.37477200  0.51158400  1
  S  S21  1  0.78165600  0.62522800  0.01158400  1
  S  S22  1  0.28165600  0.37477200  0.01158400  1
  S  S23  1  0.71834400  0.62522800  0.51158400  1
  S  S24  1  0.22931900  0.12213600  0.79430900  1
  S  S25  1  0.77068100  0.87786400  0.29430900  1
  S  S26  1  0.27068100  0.12213600  0.29430900  1
  S  S27  1  0.72931900  0.87786400  0.79430900  1
  S  S28  1  0.24560300  0.62798400  0.78040800  1
  S  S29  1  0.75439700  0.37201600  0.28040800  1
  S  S30  1  0.25439700  0.62798400  0.28040800  1
  S  S31  1  0.74560300  0.37201600  0.78040800  1
loop_
_geom_bond_atom_site_label_1
_geom_bond_atom_site_label_2
_geom_bond_distance
_geom_bond_site_symmetry_2
Cr0 S1 2.403109 1_455
Cr0 S20 2.403566 1_555
Cr0 S30 2.406493 1_555
Cr0 S9 2.427730 1_455
Cr0 S26 2.442038 1_555
Cr0 S4 2.489099 1_555
Cr1 S0 2.403109 1_655
Cr1 S21 2.403571 1_556
Cr1 S31 2.406493 1_555
Cr1 S8 2.427730 1_655
Cr1 S27 2.442038 1_555
Cr1 S5 2.489099 1_555
Cr2 S3 2.403109 1_555
Cr2 S22 2.403571 1_556
Cr2 S28 2.406493 1_555
Cr2 S11 2.427730 1_555
Cr2 S24 2.442038 1_555
Cr2 S6 2.489099 1_555
Cr3 S2 2.403109 1_555
Cr3 S23 2.403571 1_555
Cr3 S29 2.406493 1_555
Cr3 S10 2.427730 1_555
Cr3 S25 2.442038 1_555
Cr3 S7 2.489099 1_555
Cr4 S28 2.310171 1_555
Cr4 S22 2.353373 1_556
Cr4 S8 2.400960 1_555
Cr4 S0 2.402585 1_555
Cr4 S18 2.470253 1_556
Cr5 S29 2.310171 1_555
Cr5 S23 2.353373 1_555
Cr5 S9 2.400960 1_555
Cr5 S1 2.402585 1_555
Cr5 S19 2.470253 1_555
Cr6 S30 2.310171 1_555
Cr6 S20 2.353380 1_555
Cr6 S10 2.400960 1_555
Cr6 S2 2.402585 1_555
Cr6 S16 2.470253 1_555
Cr7 S31 2.310171 1_555
Cr7 S21 2.353373 1_556
Cr7 S11 2.400960 1_555
Cr7 S3 2.402585 1_555
Cr7 S17 2.470253 1_556
Cr8 S22 2.374926 1_556
Cr8 S24 2.439691 1_555
Cr8 S8 2.491727 1_555
Cr8 S18 2.542545 1_546
Cr8 S0 2.600400 1_545
Cr8 S4 2.818616 1_556
Cr8 S12 2.983674 1_546
Cr9 S23 2.374926 1_555
Cr9 S25 2.439691 1_555
Cr9 S9 2.491727 1_555
Cr9 S19 2.542545 1_565
Cr9 S1 2.600400 1_565
Cr9 S5 2.818616 1_555
Cr9 S13 2.983674 1_565
Cr10 S20 2.374934 1_555
Cr10 S26 2.439691 1_555
Cr10 S10 2.491727 1_555
Cr10 S16 2.542545 1_545
Cr10 S2 2.600400 1_545
Cr10 S6 2.818616 1_555
Cr10 S14 2.983674 1_545
Cr11 S21 2.374926 1_556
Cr11 S27 2.439691 1_555
Cr11 S11 2.491727 1_555
Cr11 S17 2.542545 1_566
Cr11 S3 2.600400 1_565
Cr11 S7 2.818616 1_556
Cr11 S15 2.983674 1_566
Cu0 S20 2.362390 1_555
Cu0 S13 2.455587 1_455
Cu0 S5 2.474512 1_455
Cu0 S8 2.487998 1_555
Cu0 S28 2.585924 1_555
Cu0 S24 2.597303 1_555
Cu1 S21 2.362396 1_555
Cu1 S12 2.455587 1_655
Cu1 S4 2.474512 1_655
Cu1 S9 2.487998 1_555
Cu1 S29 2.585924 1_555
Cu1 S25 2.597303 1_555
Cu2 S22 2.362396 1_555
Cu2 S15 2.455587 1_555
Cu2 S7 2.474512 1_555
Cu2 S10 2.487998 1_555
Cu2 S30 2.585924 1_555
Cu2 S26 2.597303 1_555
Cu3 S23 2.362396 1_555
Cu3 S14 2.455587 1_555
Cu3 S6 2.474512 1_555
Cu3 S11 2.487998 1_555
Cu3 S31 2.585924 1_555
Cu3 S27 2.597303 1_555
Cu4 S12 2.377612 1_555
Cu4 S30 2.403952 1_555
Cu4 S26 2.407867 1_565
Cu4 S1 2.527173 1_465
Cu4 S9 2.579801 1_455
Cu4 S16 2.695604 1_555
Cu5 S13 2.377612 1_555
Cu5 S31 2.403952 1_555
Cu5 S27 2.407867 1_545
Cu5 S0 2.527173 1_645
Cu5 S8 2.579801 1_655
Cu5 S17 2.695604 1_556
Cu6 S14 2.377612 1_555
Cu6 S28 2.403952 1_555
Cu6 S24 2.407867 1_565
Cu6 S3 2.527173 1_565
Cu6 S11 2.579801 1_555
Cu6 S18 2.695604 1_556
Cu7 S15 2.377612 1_555
Cu7 S29 2.403952 1_555
Cu7 S25 2.407867 1_545
Cu7 S2 2.527173 1_545
Cu7 S10 2.579801 1_555
Cu7 S19 2.695604 1_555
S0 Ta0 2.547110 1_555
S1 Ta1 2.547110 1_555
S2 Ta2 2.547110 1_555
S3 Ta3 2.547110 1_555
S4 Ta1 2.381734 1_455
S5 Ta0 2.381734 1_655
S6 Ta3 2.381734 1_555
S7 Ta2 2.381734 1_555
S12 Ta1 2.277073 1_465
S13 Ta0 2.277073 1_645
S14 Ta3 2.277073 1_565
S15 Ta2 2.277073 1_545
S16 Ta0 2.393333 1_555
S17 Ta1 2.393333 1_555
S18 Ta2 2.393333 1_555
S19 Ta3 2.393333 1_555
S24 Ta0 2.575536 1_545
S25 Ta1 2.575536 1_565
S26 Ta2 2.575536 1_545
S27 Ta3 2.575536 1_565
S28 Ta0 2.749902 1_555
S29 Ta1 2.749902 1_555
S30 Ta2 2.749902 1_555
S31 Ta3 2.749902 1_555
