# generated using pymatgen
data_CrAgS2
_symmetry_space_group_name_H-M   'P 1'
_cell_length_a   6.09468314
_cell_length_b   6.96561067
_cell_length_c   7.99614913
_cell_angle_alpha   115.98487133
_cell_angle_beta   104.62792695
_cell_angle_gamma   89.97245172
_symmetry_Int_Tables_number   1
_chemical_formula_structural   CrAgS2
_chemical_formula_sum   'Cr4 Ag4 S8'
_cell_volume   292.87685589
_cell_formula_units_Z   4
loop_
 _symmetry_equiv_pos_site_id
 _symmetry_equiv_pos_as_xyz
  1  'x, y, z'
loop_
 _atom_site_type_symbol
 _atom_site_label
 _atom_site_symmetry_multiplicity
 _atom_site_fract_x
 _atom_site_fract_y
 _atom_site_fract_z
 _atom_site_occupancy
  Cr  Cr0  1  0.50014900  0.75380800  0.00013400  1
  Cr  Cr1  1  0.99999100  0.49574500  0.00015200  1
  Cr  Cr2  1  0.50019900  0.25383800  0.00014800  1
  Cr  Cr3  1  0.00000800  0.99568900  0.00015500  1
  Ag  Ag0  1  0.65310200  0.47990200  0.46145600  1
  Ag  Ag1  1  0.15327900  0.23113500  0.46160500  1
  Ag  Ag2  1  0.65311300  0.97992100  0.46148100  1
  Ag  Ag3  1  0.15327700  0.73112600  0.46160500  1
  S  S0  1  0.77012300  0.65320500  0.81466500  1
  S  S1  1  0.27015200  0.41018400  0.81486300  1
  S  S2  1  0.77018900  0.15322500  0.81469200  1
  S  S3  1  0.27017500  0.91019900  0.81486600  1
  S  S4  1  0.23339900  0.34561100  0.19621800  1
  S  S5  1  0.73350900  0.10108200  0.19644600  1
  S  S6  1  0.23342200  0.84562000  0.19625500  1
  S  S7  1  0.73351200  0.60110900  0.19645800  1
loop_
_geom_bond_atom_site_label_1
_geom_bond_atom_site_label_2
_geom_bond_distance
_geom_bond_site_symmetry_2
Cr0 S3 2.389515 1_554
Cr0 S0 2.391350 1_554
Cr0 S1 2.394971 1_554
Cr0 S5 2.426249 1_565
Cr0 S6 2.432839 1_555
Cr0 S7 2.439785 1_555
Cr1 S2 2.388914 1_554
Cr1 S1 2.391423 1_654
Cr1 S0 2.395835 1_554
Cr1 S4 2.425694 1_655
Cr1 S7 2.432547 1_555
Cr1 S6 2.439299 1_655
Cr2 S1 2.389570 1_554
Cr2 S2 2.391365 1_554
Cr2 S3 2.395120 1_544
Cr2 S7 2.426111 1_555
Cr2 S4 2.432929 1_555
Cr2 S5 2.439792 1_555
Cr3 S0 2.388958 1_454
Cr3 S3 2.391465 1_554
Cr3 S2 2.395964 1_464
Cr3 S6 2.425573 1_555
Cr3 S5 2.432571 1_465
Cr3 S4 2.439413 1_565
Ag0 S0 2.436909 1_555
Ag0 S5 2.704978 1_555
Ag0 S4 2.727640 1_555
Ag0 S7 2.745092 1_555
Ag1 S1 2.437083 1_555
Ag1 S4 2.717350 1_555
Ag1 S5 2.727773 1_455
Ag1 S6 2.735157 1_545
Ag2 S2 2.436923 1_565
Ag2 S7 2.704966 1_555
Ag2 S6 2.727549 1_555
Ag2 S5 2.745135 1_565
Ag3 S3 2.437105 1_555
Ag3 S6 2.717205 1_555
Ag3 S7 2.727715 1_455
Ag3 S4 2.735225 1_555
