# generated using pymatgen
data_Na2BeGeO4
_symmetry_space_group_name_H-M   'P 1'
_cell_length_a   5.08670300
_cell_length_b   7.28374900
_cell_length_c   10.25294811
_cell_angle_alpha   89.56675756
_cell_angle_beta   90.00000000
_cell_angle_gamma   90.00000000
_symmetry_Int_Tables_number   1
_chemical_formula_structural   Na2BeGeO4
_chemical_formula_sum   'Na8 Be4 Ge4 O16'
_cell_volume   379.86361433
_cell_formula_units_Z   4
loop_
 _symmetry_equiv_pos_site_id
 _symmetry_equiv_pos_as_xyz
  1  'x, y, z'
loop_
 _atom_site_type_symbol
 _atom_site_label
 _atom_site_symmetry_multiplicity
 _atom_site_fract_x
 _atom_site_fract_y
 _atom_site_fract_z
 _atom_site_occupancy
  Na  Na0  1  0.20721600  0.99906300  0.89153900  1
  Na  Na1  1  0.70721600  0.00093700  0.60846100  1
  Na  Na2  1  0.79278400  0.00093700  0.10846100  1
  Na  Na3  1  0.29278400  0.99906300  0.39153900  1
  Na  Na4  1  0.31866500  0.26180400  0.13892600  1
  Na  Na5  1  0.81866500  0.73819600  0.36107400  1
  Na  Na6  1  0.68133500  0.73819600  0.86107400  1
  Na  Na7  1  0.18133500  0.26180400  0.63892600  1
  Be  Be0  1  0.65648300  0.50047900  0.58710100  1
  Be  Be1  1  0.34351700  0.49952100  0.41289900  1
  Be  Be2  1  0.84351700  0.50047900  0.08710100  1
  Be  Be3  1  0.15648300  0.49952100  0.91289900  1
  Ge  Ge0  1  0.15545900  0.72029600  0.65942200  1
  Ge  Ge1  1  0.65545900  0.27970400  0.84057800  1
  Ge  Ge2  1  0.84454100  0.27970400  0.34057800  1
  Ge  Ge3  1  0.34454100  0.72029600  0.15942200  1
  O  O0  1  0.16785900  0.54658000  0.07365500  1
  O  O1  1  0.66785900  0.45342000  0.42634500  1
  O  O2  1  0.83214100  0.45342000  0.92634500  1
  O  O3  1  0.33214100  0.54658000  0.57365500  1
  O  O4  1  0.31418700  0.31351900  0.87460000  1
  O  O5  1  0.18581300  0.31351900  0.37460000  1
  O  O6  1  0.81418700  0.68648100  0.62540000  1
  O  O7  1  0.68581300  0.68648100  0.12540000  1
  O  O8  1  0.28333700  0.68456700  0.32941200  1
  O  O9  1  0.78333700  0.31543300  0.17058800  1
  O  O10  1  0.71666300  0.31543300  0.67058800  1
  O  O11  1  0.21666300  0.68456700  0.82941200  1
  O  O12  1  0.23776100  0.94801500  0.62188800  1
  O  O13  1  0.73776100  0.05198500  0.87811200  1
  O  O14  1  0.76223900  0.05198500  0.37811200  1
  O  O15  1  0.26223900  0.94801500  0.12188800  1
loop_
_geom_bond_atom_site_label_1
_geom_bond_atom_site_label_2
_geom_bond_distance
_geom_bond_site_symmetry_2
Na0 O4 2.359288 1_565
Na0 O11 2.382746 1_555
Na0 O15 2.404413 1_556
Na0 O13 2.422638 1_465
Na0 O13 2.729442 1_565
Na0 O12 2.796713 1_555
Na1 O6 2.359288 1_545
Na1 O10 2.382746 1_555
Na1 O14 2.404413 1_555
Na1 O12 2.422638 1_545
Na1 O12 2.729442 1_645
Na1 O13 2.796713 1_555
Na2 O7 2.359288 1_545
Na2 O9 2.382746 1_555
Na2 O13 2.404413 1_554
Na2 O15 2.422638 1_645
Na2 O15 2.729442 1_545
Na2 O14 2.796713 1_555
Na3 O5 2.359288 1_565
Na3 O8 2.382746 1_555
Na3 O12 2.404413 1_555
Na3 O14 2.422638 1_565
Na3 O14 2.729442 1_465
Na3 O15 2.796713 1_555
Na4 O0 2.306030 1_555
Na4 O15 2.311433 1_545
Na4 O9 2.417999 1_555
Na4 O5 2.539900 1_555
Na4 O4 2.733445 1_554
Na4 O9 2.770363 1_455
Na5 O1 2.306030 1_555
Na5 O14 2.311433 1_565
Na5 O8 2.417999 1_655
Na5 O7 2.539900 1_555
Na5 O6 2.733445 1_555
Na5 O8 2.770363 1_555
Na6 O2 2.306030 1_555
Na6 O13 2.311433 1_565
Na6 O11 2.417999 1_555
Na6 O6 2.539900 1_555
Na6 O7 2.733445 1_556
Na6 O11 2.770363 1_655
Na7 O3 2.306030 1_555
Na7 O12 2.311433 1_545
Na7 O10 2.417999 1_455
Na7 O4 2.539900 1_555
Na7 O5 2.733445 1_555
Na7 O10 2.770363 1_555
Be0 O10 1.620376 1_555
Be0 O6 1.625182 1_555
Be0 O1 1.687015 1_555
Be0 O3 1.689083 1_555
Be1 O8 1.620376 1_555
Be1 O5 1.625182 1_555
Be1 O3 1.687015 1_555
Be1 O1 1.689083 1_555
Be2 O9 1.620376 1_555
Be2 O7 1.625182 1_555
Be2 O2 1.687015 1_554
Be2 O0 1.689083 1_655
Be3 O11 1.620376 1_555
Be3 O4 1.625182 1_555
Be3 O0 1.687015 1_556
Be3 O2 1.689083 1_455
Ge0 O12 1.750663 1_555
Ge0 O11 1.787592 1_555
Ge0 O6 1.788061 1_455
Ge0 O3 1.788523 1_555
Ge1 O13 1.750663 1_555
Ge1 O10 1.787592 1_555
Ge1 O4 1.788061 1_555
Ge1 O2 1.788523 1_555
Ge2 O14 1.750663 1_555
Ge2 O9 1.787592 1_555
Ge2 O5 1.788061 1_655
Ge2 O1 1.788523 1_555
Ge3 O15 1.750663 1_555
Ge3 O8 1.787592 1_555
Ge3 O7 1.788061 1_555
Ge3 O0 1.788523 1_555
