# generated using pymatgen
data_ZnPbN2
_symmetry_space_group_name_H-M   'P 1'
_cell_length_a   6.09492400
_cell_length_b   6.97613300
_cell_length_c   5.70194600
_cell_angle_alpha   90.00000000
_cell_angle_beta   90.00000000
_cell_angle_gamma   90.00000000
_symmetry_Int_Tables_number   1
_chemical_formula_structural   ZnPbN2
_chemical_formula_sum   'Zn4 Pb4 N8'
_cell_volume   242.44104453
_cell_formula_units_Z   4
loop_
 _symmetry_equiv_pos_site_id
 _symmetry_equiv_pos_as_xyz
  1  'x, y, z'
loop_
 _atom_site_type_symbol
 _atom_site_label
 _atom_site_symmetry_multiplicity
 _atom_site_fract_x
 _atom_site_fract_y
 _atom_site_fract_z
 _atom_site_occupancy
  Zn  Zn0  1  0.58172400  0.87462800  0.99875900  1
  Zn  Zn1  1  0.41827600  0.12537200  0.49875900  1
  Zn  Zn2  1  0.91827600  0.37462800  0.49875900  1
  Zn  Zn3  1  0.08172400  0.62537200  0.99875900  1
  Pb  Pb0  1  0.59215300  0.37599400  0.99941100  1
  Pb  Pb1  1  0.40784700  0.62400600  0.49941100  1
  Pb  Pb2  1  0.90784700  0.87599400  0.49941100  1
  Pb  Pb3  1  0.09215300  0.12400600  0.99941100  1
  N  N0  1  0.59280600  0.36365800  0.39071700  1
  N  N1  1  0.40719400  0.63634200  0.89071700  1
  N  N2  1  0.90719400  0.86365800  0.89071700  1
  N  N3  1  0.09280600  0.13634200  0.39071700  1
  N  N4  1  0.56998400  0.88643300  0.36111300  1
  N  N5  1  0.43001600  0.11356700  0.86111300  1
  N  N6  1  0.93001600  0.38643300  0.86111300  1
  N  N7  1  0.06998400  0.61356700  0.36111300  1
loop_
_geom_bond_atom_site_label_1
_geom_bond_atom_site_label_2
_geom_bond_distance
_geom_bond_site_symmetry_2
N0 Zn1 2.067454 1_555
N0 Zn2 2.078581 1_555
N0 Pb1 2.225670 1_555
N0 Pb0 2.232868 1_554
N1 Zn0 2.067454 1_555
N1 Zn3 2.078581 1_555
N1 Pb0 2.225670 1_555
N1 Pb1 2.232868 1_555
N2 Zn3 2.067454 1_655
N2 Zn0 2.078581 1_555
N2 Pb3 2.225670 1_665
N2 Pb2 2.232868 1_555
N3 Zn2 2.067454 1_455
N3 Zn1 2.078581 1_555
N3 Pb2 2.225670 1_445
N3 Pb3 2.232868 1_554
N4 Zn1 2.061412 1_565
N4 Zn0 2.069001 1_554
N4 Pb2 2.206275 1_555
N4 Pb1 2.224851 1_555
N5 Zn0 2.061412 1_545
N5 Zn1 2.069001 1_555
N5 Pb3 2.206275 1_555
N5 Pb0 2.224851 1_555
N6 Zn3 2.061412 1_655
N6 Zn2 2.069001 1_555
N6 Pb0 2.206275 1_555
N6 Pb3 2.224851 1_655
N7 Zn2 2.061412 1_455
N7 Zn3 2.069001 1_554
N7 Pb1 2.206275 1_555
N7 Pb2 2.224851 1_455
