# generated using pymatgen
data_ZnSn3
_symmetry_space_group_name_H-M   'P 1'
_cell_length_a   6.07412519
_cell_length_b   6.07412519
_cell_length_c   6.07412519
_cell_angle_alpha   137.25602585
_cell_angle_beta   137.25602585
_cell_angle_gamma   62.04436184
_symmetry_Int_Tables_number   1
_chemical_formula_structural   ZnSn3
_chemical_formula_sum   'Zn1 Sn3'
_cell_volume   102.01964132
_cell_formula_units_Z   1
loop_
 _symmetry_equiv_pos_site_id
 _symmetry_equiv_pos_as_xyz
  1  'x, y, z'
loop_
 _atom_site_type_symbol
 _atom_site_label
 _atom_site_symmetry_multiplicity
 _atom_site_fract_x
 _atom_site_fract_y
 _atom_site_fract_z
 _atom_site_occupancy
  Zn  Zn0  1  0.00000000  0.00000000  0.00000000  1
  Sn  Sn0  1  0.75000000  0.25000000  0.50000000  1
  Sn  Sn1  1  0.25000000  0.75000000  0.50000000  1
  Sn  Sn2  1  0.50000000  0.50000000  0.00000000  1
loop_
_geom_bond_atom_site_label_1
_geom_bond_atom_site_label_2
_geom_bond_distance
_geom_bond_site_symmetry_2
Sn0 Sn1 3.130421 1_544
Sn0 Sn1 3.130421 1_555
Sn0 Sn1 3.130421 1_656
Sn0 Sn1 3.130421 1_645
Sn0 Sn2 3.416670 1_656
Sn0 Sn2 3.416670 1_556
Sn0 Sn2 3.416670 1_545
Sn0 Sn2 3.416670 1_555
Sn1 Sn2 3.416670 1_455
Sn1 Sn2 3.416670 1_556
Sn1 Sn2 3.416670 1_555
Sn1 Sn2 3.416670 1_566
Sn2 Zn0 3.130421 1_565
Sn2 Zn0 3.130421 1_655
Sn2 Zn0 3.130421 1_554
Sn2 Zn0 3.130421 1_666
