# generated using pymatgen
data_NdH3S2O9
_symmetry_space_group_name_H-M   'P 1'
_cell_length_a   7.04428800
_cell_length_b   8.81577900
_cell_length_c   10.88677015
_cell_angle_alpha   89.17405164
_cell_angle_beta   90.00000000
_cell_angle_gamma   90.00000000
_symmetry_Int_Tables_number   1
_chemical_formula_structural   NdH3S2O9
_chemical_formula_sum   'Nd4 H12 S8 O36'
_cell_volume   676.00782897
_cell_formula_units_Z   4
loop_
 _symmetry_equiv_pos_site_id
 _symmetry_equiv_pos_as_xyz
  1  'x, y, z'
loop_
 _atom_site_type_symbol
 _atom_site_label
 _atom_site_symmetry_multiplicity
 _atom_site_fract_x
 _atom_site_fract_y
 _atom_site_fract_z
 _atom_site_occupancy
  Nd  Nd0  1  0.16830800  0.94252200  0.84788800  1
  Nd  Nd1  1  0.66830800  0.05747800  0.65211200  1
  Nd  Nd2  1  0.83169200  0.05747800  0.15211200  1
  Nd  Nd3  1  0.33169200  0.94252200  0.34788800  1
  H  H0  1  0.56059700  0.64615200  0.15111500  1
  H  H1  1  0.06059700  0.35384800  0.34888500  1
  H  H2  1  0.43940300  0.35384800  0.84888500  1
  H  H3  1  0.93940300  0.64615200  0.65111500  1
  H  H4  1  0.79135900  0.59071100  0.13357200  1
  H  H5  1  0.29135900  0.40928900  0.36642800  1
  H  H6  1  0.20864100  0.40928900  0.86642800  1
  H  H7  1  0.70864100  0.59071100  0.63357200  1
  H  H8  1  0.60850400  0.46783400  0.12185800  1
  H  H9  1  0.10850400  0.53216600  0.37814200  1
  H  H10  1  0.39149600  0.53216600  0.87814200  1
  H  H11  1  0.89149600  0.46783400  0.62185800  1
  S  S0  1  0.15372000  0.72734100  0.08323600  1
  S  S1  1  0.65372000  0.27265900  0.41676400  1
  S  S2  1  0.84628000  0.27265900  0.91676400  1
  S  S3  1  0.34628000  0.72734100  0.58323600  1
  S  S4  1  0.16236900  0.18360700  0.61193100  1
  S  S5  1  0.66236900  0.81639300  0.88806900  1
  S  S6  1  0.83763100  0.81639300  0.38806900  1
  S  S7  1  0.33763100  0.18360700  0.11193100  1
  O  O0  1  0.01228700  0.61591000  0.12230700  1
  O  O1  1  0.51228700  0.38409000  0.37769300  1
  O  O2  1  0.98771300  0.38409000  0.87769300  1
  O  O3  1  0.48771300  0.61591000  0.62230700  1
  O  O4  1  0.23876900  0.69514400  0.96062800  1
  O  O5  1  0.73876900  0.30485600  0.53937200  1
  O  O6  1  0.76123100  0.30485600  0.03937200  1
  O  O7  1  0.26123100  0.69514400  0.46062800  1
  O  O8  1  0.06211300  0.88148600  0.06075200  1
  O  O9  1  0.56211300  0.11851400  0.43924800  1
  O  O10  1  0.93788700  0.11851400  0.93924800  1
  O  O11  1  0.43788700  0.88148600  0.56075200  1
  O  O12  1  0.30725600  0.74550700  0.17704600  1
  O  O13  1  0.80725600  0.25449300  0.32295400  1
  O  O14  1  0.69274400  0.25449300  0.82295400  1
  O  O15  1  0.19274400  0.74550700  0.67704600  1
  O  O16  1  0.12709600  0.34531400  0.61058700  1
  O  O17  1  0.62709600  0.65468600  0.88941300  1
  O  O18  1  0.87290400  0.65468600  0.38941300  1
  O  O19  1  0.37290400  0.34531400  0.11058700  1
  O  O20  1  0.33592700  0.14298400  0.68877600  1
  O  O21  1  0.83592700  0.85701600  0.81122400  1
  O  O22  1  0.66407300  0.85701600  0.31122400  1
  O  O23  1  0.16407300  0.14298400  0.18877600  1
  O  O24  1  0.00796000  0.09537500  0.68112100  1
  O  O25  1  0.50796000  0.90462500  0.81887900  1
  O  O26  1  0.99204000  0.90462500  0.31887900  1
  O  O27  1  0.49204000  0.09537500  0.18112100  1
  O  O28  1  0.17437900  0.12230800  0.48641900  1
  O  O29  1  0.67437900  0.87769200  0.01358100  1
  O  O30  1  0.82562100  0.87769200  0.51358100  1
  O  O31  1  0.32562100  0.12230800  0.98641900  1
  O  O32  1  0.65518200  0.56328100  0.15950500  1
  O  O33  1  0.15518200  0.43671900  0.34049500  1
  O  O34  1  0.34481800  0.43671900  0.84049500  1
  O  O35  1  0.84481800  0.56328100  0.65950500  1
loop_
_geom_bond_atom_site_label_1
_geom_bond_atom_site_label_2
_geom_bond_distance
_geom_bond_site_symmetry_2
Nd0 O25 2.436999 1_555
Nd0 O10 2.464862 1_465
Nd0 O31 2.466483 1_565
Nd0 O8 2.486672 1_556
Nd0 O21 2.493654 1_455
Nd0 O24 2.513437 1_565
Nd0 O4 2.536071 1_555
Nd0 O15 2.568788 1_555
Nd0 O20 2.725729 1_565
Nd1 O24 2.436999 1_655
Nd1 O11 2.464862 1_545
Nd1 O30 2.466483 1_545
Nd1 O9 2.486672 1_555
Nd1 O20 2.493654 1_555
Nd1 O25 2.513437 1_545
Nd1 O5 2.536071 1_555
Nd1 O14 2.568788 1_555
Nd1 O21 2.725729 1_545
Nd2 O27 2.436999 1_555
Nd2 O8 2.464862 1_645
Nd2 O29 2.466483 1_545
Nd2 O10 2.486672 1_554
Nd2 O23 2.493654 1_655
Nd2 O26 2.513437 1_545
Nd2 O6 2.536071 1_555
Nd2 O13 2.568788 1_555
Nd2 O22 2.725729 1_545
Nd3 O26 2.436999 1_455
Nd3 O9 2.464862 1_565
Nd3 O28 2.466483 1_565
Nd3 O11 2.486672 1_555
Nd3 O22 2.493654 1_555
Nd3 O27 2.513437 1_565
Nd3 O7 2.536071 1_555
Nd3 O12 2.568788 1_555
Nd3 O23 2.725729 1_565
H0 O32 0.992013 1_555
H1 O33 0.992013 1_555
H2 O34 0.992013 1_555
H3 O35 0.992013 1_555
H4 O32 1.027820 1_555
H4 O0 1.576583 1_655
H5 O33 1.027820 1_555
H5 O1 1.576583 1_555
H6 O34 1.027820 1_555
H6 O2 1.576583 1_455
H7 O35 1.027820 1_555
H7 O3 1.576583 1_555
H8 O32 0.997027 1_555
H9 O33 0.997027 1_555
H10 O34 0.997027 1_555
H11 O35 0.997027 1_555
O0 S0 1.458252 1_555
O1 S1 1.458252 1_555
O2 S2 1.458252 1_555
O3 S3 1.458252 1_555
O4 S0 1.494030 1_556
O5 S1 1.494030 1_555
O6 S2 1.494030 1_554
O7 S3 1.494030 1_555
O8 S0 1.520979 1_555
O9 S1 1.520979 1_555
O10 S2 1.520979 1_555
O11 S3 1.520979 1_555
O12 S0 1.497714 1_555
O13 S1 1.497714 1_555
O14 S2 1.497714 1_555
O15 S3 1.497714 1_555
O16 S4 1.446931 1_555
O17 S5 1.446931 1_555
O18 S6 1.446931 1_555
O19 S7 1.446931 1_555
O20 S4 1.521262 1_555
O21 S5 1.521262 1_555
O22 S6 1.521262 1_555
O23 S7 1.521262 1_555
O24 S4 1.529255 1_555
O25 S5 1.529255 1_555
O26 S6 1.529255 1_555
O27 S7 1.529255 1_555
O28 S4 1.479047 1_555
O29 S5 1.479047 1_554
O30 S6 1.479047 1_555
O31 S7 1.479047 1_556
