# generated using pymatgen
data_Sr2La2MnCuO8
_symmetry_space_group_name_H-M   'P 1'
_cell_length_a   5.46031110
_cell_length_b   5.46031958
_cell_length_c   13.43078017
_cell_angle_alpha   78.27429146
_cell_angle_beta   78.27435718
_cell_angle_gamma   89.99557775
_symmetry_Int_Tables_number   1
_chemical_formula_structural   Sr2La2MnCuO8
_chemical_formula_sum   'Sr4 La4 Mn2 Cu2 O16'
_cell_volume   383.54574253
_cell_formula_units_Z   2
loop_
 _symmetry_equiv_pos_site_id
 _symmetry_equiv_pos_as_xyz
  1  'x, y, z'
loop_
 _atom_site_type_symbol
 _atom_site_label
 _atom_site_symmetry_multiplicity
 _atom_site_fract_x
 _atom_site_fract_y
 _atom_site_fract_z
 _atom_site_occupancy
  Sr  Sr0  1  0.17839000  0.17859900  0.64324300  1
  Sr  Sr1  1  0.67839000  0.67858500  0.64325200  1
  Sr  Sr2  1  0.32141900  0.32161800  0.35674900  1
  Sr  Sr3  1  0.82140800  0.82161500  0.35675600  1
  La  La0  1  0.42993100  0.93003400  0.14031100  1
  La  La1  1  0.92989000  0.42997500  0.14031100  1
  La  La2  1  0.06997800  0.57005900  0.85968900  1
  La  La3  1  0.57001500  0.07012000  0.85968900  1
  Mn  Mn0  1  0.24995200  0.75004900  0.50000000  1
  Mn  Mn1  1  0.74993600  0.25007800  0.49999700  1
  Cu  Cu0  1  0.49991500  0.50006600  0.00000000  1
  Cu  Cu1  1  0.99996200  0.00001600  0.00000000  1
  O  O0  1  0.34275900  0.84222800  0.31436000  1
  O  O1  1  0.84275200  0.34222000  0.31435700  1
  O  O2  1  0.15778100  0.65724600  0.68564000  1
  O  O3  1  0.65778200  0.15725100  0.68564500  1
  O  O4  1  0.07942700  0.07957100  0.84087600  1
  O  O5  1  0.57947300  0.57963500  0.84077200  1
  O  O6  1  0.42037200  0.42053300  0.15922900  1
  O  O7  1  0.92042400  0.92057100  0.15912400  1
  O  O8  1  0.24979700  0.24976500  0.00000000  1
  O  O9  1  0.75021000  0.75017800  0.00000100  1
  O  O10  1  0.75022500  0.24977400  0.00000000  1
  O  O11  1  0.24981100  0.75018800  0.00000000  1
  O  O12  1  0.49993400  0.00006700  0.50000400  1
  O  O13  1  0.99993900  0.50007300  0.49999500  1
  O  O14  1  0.00006600  0.99994100  0.50000000  1
  O  O15  1  0.50006000  0.49994500  0.50000000  1
loop_
_geom_bond_atom_site_label_1
_geom_bond_atom_site_label_2
_geom_bond_distance
_geom_bond_site_symmetry_2
La0 O0 2.239000 1_555
La0 O10 2.642289 1_565
La0 O8 2.642452 1_565
La0 O9 2.643205 1_555
La0 O11 2.643594 1_555
La0 O7 2.740298 1_555
La0 O6 2.740740 1_565
La0 O6 2.741230 1_555
La0 O7 2.741424 1_455
La1 O1 2.238961 1_555
La1 O9 2.642493 1_555
La1 O11 2.642570 1_655
La1 O8 2.643164 1_655
La1 O10 2.643313 1_555
La1 O6 2.740643 1_655
La1 O7 2.740863 1_555
La1 O7 2.740868 1_545
La1 O6 2.741318 1_555
La2 O2 2.239000 1_555
La2 O10 2.642300 1_456
La2 O9 2.642524 1_456
La2 O8 2.643150 1_556
La2 O11 2.643583 1_556
La2 O4 2.740275 1_555
La2 O5 2.740764 1_455
La2 O5 2.741195 1_555
La2 O4 2.741456 1_565
La3 O3 2.238935 1_555
La3 O8 2.642447 1_556
La3 O11 2.642576 1_546
La3 O9 2.643227 1_546
La3 O10 2.643307 1_556
La3 O5 2.740660 1_545
La3 O4 2.740815 1_555
La3 O4 2.740908 1_655
La3 O5 2.741308 1_555
Mn0 O14 1.929581 1_555
Mn0 O13 1.930564 1_455
Mn0 O12 1.930603 1_565
Mn0 O15 1.931257 1_555
Mn0 O0 2.388107 1_555
Mn0 O2 2.388107 1_555
Mn1 O15 1.929446 1_555
Mn1 O13 1.930572 1_555
Mn1 O12 1.930611 1_555
Mn1 O14 1.931469 1_645
Mn1 O1 2.388107 1_555
Mn1 O3 2.388210 1_555
Cu0 O11 1.931311 1_555
Cu0 O9 1.932163 1_555
Cu0 O8 1.932205 1_555
Cu0 O10 1.932763 1_555
Cu0 O5 2.048336 1_554
Cu0 O6 2.048349 1_555
Cu1 O10 1.928489 1_555
Cu1 O8 1.928981 1_655
Cu1 O9 1.929001 1_545
Cu1 O11 1.929191 1_645
Cu1 O4 2.046998 1_654
Cu1 O7 2.046998 1_545
O0 Sr2 2.780991 1_555
O0 Sr3 2.783243 1_555
O0 Sr3 2.784955 1_455
O0 Sr2 2.787177 1_565
O1 Sr3 2.780963 1_545
O1 Sr2 2.783319 1_655
O1 Sr2 2.784860 1_555
O1 Sr3 2.787256 1_555
O2 Sr1 2.780982 1_555
O2 Sr0 2.783242 1_555
O2 Sr0 2.784970 1_565
O2 Sr1 2.787173 1_455
O3 Sr0 2.780975 1_655
O3 Sr1 2.783323 1_545
O3 Sr1 2.784868 1_555
O3 Sr0 2.787251 1_555
O4 Sr0 2.542385 1_555
O5 Sr1 2.540931 1_555
O6 Sr2 2.540931 1_555
O7 Sr3 2.542372 1_555
O12 Sr3 2.668573 1_545
O12 Sr1 2.668605 1_545
O12 Sr0 2.668912 1_555
O12 Sr2 2.669025 1_555
O13 Sr0 2.668569 1_655
O13 Sr2 2.668580 1_655
O13 Sr3 2.668902 1_555
O13 Sr1 2.669030 1_555
O14 Sr2 2.668426 1_565
O14 Sr1 2.668438 1_455
O14 Sr0 2.669342 1_565
O14 Sr3 2.669359 1_455
O15 Sr0 2.668338 1_555
O15 Sr3 2.668350 1_555
O15 Sr2 2.669396 1_555
O15 Sr1 2.669413 1_555
