# generated using pymatgen
data_CsHoCdTe3
_symmetry_space_group_name_H-M   'P 1'
_cell_length_a   8.85369251
_cell_length_b   8.85369251
_cell_length_c   11.84231138
_cell_angle_alpha   90.00000000
_cell_angle_beta   90.00000000
_cell_angle_gamma   150.42970651
_symmetry_Int_Tables_number   1
_chemical_formula_structural   CsHoCdTe3
_chemical_formula_sum   'Cs2 Ho2 Cd2 Te6'
_cell_volume   458.10451441
_cell_formula_units_Z   2
loop_
 _symmetry_equiv_pos_site_id
 _symmetry_equiv_pos_as_xyz
  1  'x, y, z'
loop_
 _atom_site_type_symbol
 _atom_site_label
 _atom_site_symmetry_multiplicity
 _atom_site_fract_x
 _atom_site_fract_y
 _atom_site_fract_z
 _atom_site_occupancy
  Cs  Cs0  1  0.74945734  0.25054266  0.75000000  1
  Cs  Cs1  1  0.25054266  0.74945734  0.25000000  1
  Ho  Ho0  1  0.50000000  0.50000000  0.50000000  1
  Ho  Ho1  1  0.50000000  0.50000000  -0.00000000  1
  Cd  Cd0  1  0.96188181  0.03811819  0.25000000  1
  Cd  Cd1  1  0.03811819  0.96188181  0.75000000  1
  Te  Te0  1  0.87934127  0.12065873  0.04614713  1
  Te  Te1  1  0.12065873  0.87934127  0.95385287  1
  Te  Te2  1  0.43551297  0.56448703  0.75000000  1
  Te  Te3  1  0.56448703  0.43551297  0.25000000  1
  Te  Te4  1  0.87934127  0.12065873  0.45385287  1
  Te  Te5  1  0.12065873  0.87934127  0.54614713  1
loop_
_geom_bond_atom_site_label_1
_geom_bond_atom_site_label_2
_geom_bond_distance
_geom_bond_site_symmetry_2
Cs0 Te2 3.905409 1_655
Cs0 Te2 3.905409 1_545
Cs0 Te5 3.974366 1_545
Cs0 Te1 3.974366 1_545
Cs0 Te5 3.974366 1_655
Cs0 Te1 3.974366 1_655
Cs0 Te4 4.152661 1_555
Cs0 Te0 4.152661 1_556
Cs1 Te3 3.905409 1_455
Cs1 Te3 3.905409 1_565
Cs1 Te4 3.974366 1_455
Cs1 Te0 3.974366 1_455
Cs1 Te0 3.974366 1_565
Cs1 Te4 3.974366 1_565
Cs1 Te1 4.152661 1_554
Cs1 Te5 4.152661 1_555
Ho0 Te5 3.109854 1_655
Ho0 Te4 3.109854 1_565
Ho0 Te5 3.109854 1_545
Ho0 Te4 3.109854 1_455
Ho0 Te3 3.159752 1_555
Ho0 Te2 3.159752 1_555
Ho1 Te1 3.109854 1_654
Ho1 Te0 3.109854 1_565
Ho1 Te1 3.109854 1_544
Ho1 Te0 3.109854 1_455
Ho1 Te3 3.159752 1_555
Ho1 Te2 3.159752 1_554
Cd0 Te4 2.797305 1_555
Cd0 Te0 2.797305 1_555
Cd0 Te3 2.861995 1_655
Cd0 Te3 2.861995 1_545
Cd1 Te5 2.797305 1_555
Cd1 Te1 2.797305 1_555
Cd1 Te2 2.861995 1_565
Cd1 Te2 2.861995 1_455
