# generated using pymatgen
data_Cd3Pb
_symmetry_space_group_name_H-M   'P 1'
_cell_length_a   6.40654121
_cell_length_b   6.40654121
_cell_length_c   5.57555609
_cell_angle_alpha   90.00000000
_cell_angle_beta   90.00000000
_cell_angle_gamma   119.99999472
_symmetry_Int_Tables_number   1
_chemical_formula_structural   Cd3Pb
_chemical_formula_sum   'Cd6 Pb2'
_cell_volume   198.18286024
_cell_formula_units_Z   2
loop_
 _symmetry_equiv_pos_site_id
 _symmetry_equiv_pos_as_xyz
  1  'x, y, z'
loop_
 _atom_site_type_symbol
 _atom_site_label
 _atom_site_symmetry_multiplicity
 _atom_site_fract_x
 _atom_site_fract_y
 _atom_site_fract_z
 _atom_site_occupancy
  Cd  Cd0  1  0.83757721  0.16242279  0.75000000  1
  Cd  Cd1  1  0.32484557  0.16242279  0.75000000  1
  Cd  Cd2  1  0.83757721  0.67515443  0.75000000  1
  Cd  Cd3  1  0.16242279  0.83757721  0.25000000  1
  Cd  Cd4  1  0.67515443  0.83757721  0.25000000  1
  Cd  Cd5  1  0.16242279  0.32484557  0.25000000  1
  Pb  Pb0  1  0.66666700  0.33333300  0.25000000  1
  Pb  Pb1  1  0.33333300  0.66666700  0.75000000  1
loop_
_geom_bond_atom_site_label_1
_geom_bond_atom_site_label_2
_geom_bond_distance
_geom_bond_site_symmetry_2
Cd0 Cd1 3.121705 1_655
Cd0 Cd2 3.121705 1_545
Cd0 Pb1 3.203617 1_655
Cd0 Pb1 3.203617 1_545
Cd0 Cd2 3.284836 1_555
Cd0 Cd1 3.284836 1_555
Cd0 Cd5 3.319647 1_655
Cd0 Cd5 3.319647 1_656
Cd0 Cd4 3.319647 1_546
Cd0 Cd4 3.319647 1_545
Cd0 Pb0 3.371707 1_555
Cd0 Pb0 3.371707 1_556
Cd1 Cd2 3.121705 1_445
Cd1 Pb1 3.203614 1_545
Cd1 Pb1 3.203620 1_555
Cd1 Cd2 3.284837 1_555
Cd1 Cd5 3.319647 1_555
Cd1 Cd5 3.319647 1_556
Cd1 Cd3 3.319647 1_546
Cd1 Cd3 3.319647 1_545
Cd1 Pb0 3.371710 1_556
Cd1 Pb0 3.371710 1_555
Cd2 Pb1 3.203614 1_655
Cd2 Pb1 3.203620 1_555
Cd2 Cd4 3.319647 1_556
Cd2 Cd4 3.319647 1_555
Cd2 Cd3 3.319647 1_656
Cd2 Cd3 3.319647 1_655
Cd2 Pb0 3.371710 1_556
Cd2 Pb0 3.371710 1_555
Cd3 Cd5 3.121705 1_565
Cd3 Cd4 3.121705 1_455
Cd3 Pb0 3.203617 1_565
Cd3 Pb0 3.203617 1_455
Cd3 Cd4 3.284836 1_555
Cd3 Cd5 3.284836 1_555
Cd3 Pb1 3.371707 1_555
Cd3 Pb1 3.371707 1_554
Cd4 Cd5 3.121705 1_665
Cd4 Pb0 3.203614 1_565
Cd4 Pb0 3.203620 1_555
Cd4 Cd5 3.284837 1_555
Cd4 Pb1 3.371710 1_554
Cd4 Pb1 3.371710 1_555
Cd5 Pb0 3.203614 1_455
Cd5 Pb0 3.203620 1_555
Cd5 Pb1 3.371710 1_554
Cd5 Pb1 3.371710 1_555
