# generated using pymatgen
data_TmAgGe
_symmetry_space_group_name_H-M   'P 1'
_cell_length_a   7.04890499
_cell_length_b   7.04890499
_cell_length_c   4.15545231
_cell_angle_alpha   90.00000000
_cell_angle_beta   90.00000000
_cell_angle_gamma   119.99999694
_symmetry_Int_Tables_number   1
_chemical_formula_structural   TmAgGe
_chemical_formula_sum   'Tm3 Ag3 Ge3'
_cell_volume   178.81018886
_cell_formula_units_Z   3
loop_
 _symmetry_equiv_pos_site_id
 _symmetry_equiv_pos_as_xyz
  1  'x, y, z'
loop_
 _atom_site_type_symbol
 _atom_site_label
 _atom_site_symmetry_multiplicity
 _atom_site_fract_x
 _atom_site_fract_y
 _atom_site_fract_z
 _atom_site_occupancy
  Tm  Tm0  1  0.41644205  0.41644205  0.50000000  1
  Tm  Tm1  1  0.58355795  0.00000000  0.50000000  1
  Tm  Tm2  1  0.00000000  0.58355795  0.50000000  1
  Ag  Ag0  1  0.74818868  0.74818868  -0.00000000  1
  Ag  Ag1  1  0.25181132  0.00000000  -0.00000000  1
  Ag  Ag2  1  0.00000000  0.25181132  0.00000000  1
  Ge  Ge0  1  0.66666700  0.33333300  -0.00000000  1
  Ge  Ge1  1  0.33333300  0.66666700  0.00000000  1
  Ge  Ge2  1  0.00000000  -0.00000000  0.50000000  1
loop_
_geom_bond_atom_site_label_1
_geom_bond_atom_site_label_2
_geom_bond_distance
_geom_bond_site_symmetry_2
Ag0 Ge0 2.683507 1_555
Ag0 Ge1 2.683507 1_555
Ag0 Ge2 2.732682 1_665
Ag0 Ge2 2.732682 1_664
Ag0 Ag2 3.074380 1_665
Ag0 Ag1 3.074380 1_665
Ag0 Tm0 3.128146 1_555
Ag0 Tm0 3.128146 1_554
Ag0 Tm2 3.297583 1_655
Ag0 Tm1 3.297583 1_564
Ag0 Tm1 3.297583 1_565
Ag0 Tm2 3.297583 1_654
Ag1 Ge1 2.683500 1_545
Ag1 Ge0 2.683505 1_555
Ag1 Ge2 2.732682 1_555
Ag1 Ge2 2.732682 1_554
Ag1 Ag2 3.074380 1_555
Ag1 Tm1 3.128146 1_555
Ag1 Tm1 3.128146 1_554
Ag1 Tm0 3.297583 1_554
Ag1 Tm0 3.297583 1_555
Ag1 Tm2 3.297583 1_544
Ag1 Tm2 3.297583 1_545
Ag2 Ge0 2.683500 1_455
Ag2 Ge1 2.683505 1_555
Ag2 Ge2 2.732682 1_555
Ag2 Ge2 2.732682 1_554
Ag2 Tm2 3.128146 1_555
Ag2 Tm2 3.128146 1_554
Ag2 Tm0 3.297583 1_554
Ag2 Tm0 3.297583 1_555
Ag2 Tm1 3.297583 1_454
Ag2 Tm1 3.297583 1_455
Ge0 Tm1 2.967227 1_554
Ge0 Tm1 2.967227 1_555
Ge0 Tm2 2.967228 1_655
Ge0 Tm2 2.967228 1_654
Ge0 Tm0 2.967231 1_555
Ge0 Tm0 2.967231 1_554
Ge1 Tm2 2.967227 1_554
Ge1 Tm2 2.967227 1_555
Ge1 Tm1 2.967228 1_564
Ge1 Tm1 2.967228 1_565
Ge1 Tm0 2.967231 1_555
Ge1 Tm0 2.967231 1_554
Ge2 Tm2 2.935460 1_545
Ge2 Tm1 2.935460 1_455
Ge2 Tm0 2.935461 1_555
