# generated using pymatgen
data_Zn2H16C4N18O7
_symmetry_space_group_name_H-M   'P 1'
_cell_length_a   7.57543308
_cell_length_b   10.16270223
_cell_length_c   23.75668913
_cell_angle_alpha   90.00000000
_cell_angle_beta   90.00000000
_cell_angle_gamma   90.00000000
_symmetry_Int_Tables_number   1
_chemical_formula_structural   Zn2H16C4N18O7
_chemical_formula_sum   'Zn8 H64 C16 N72 O28'
_cell_volume   1828.95315325
_cell_formula_units_Z   4
loop_
 _symmetry_equiv_pos_site_id
 _symmetry_equiv_pos_as_xyz
  1  'x, y, z'
loop_
 _atom_site_type_symbol
 _atom_site_label
 _atom_site_symmetry_multiplicity
 _atom_site_fract_x
 _atom_site_fract_y
 _atom_site_fract_z
 _atom_site_occupancy
  Zn  Zn0  1  0.01680070  0.63581959  0.06367159  1
  Zn  Zn1  1  0.01680070  0.36418041  0.93632841  1
  Zn  Zn2  1  0.98319930  0.86418041  0.56367159  1
  Zn  Zn3  1  0.98319930  0.13581959  0.43632841  1
  Zn  Zn4  1  0.52452759  0.00401295  0.16443566  1
  Zn  Zn5  1  0.52452759  0.99598705  0.83556434  1
  Zn  Zn6  1  0.47547241  0.49598705  0.66443566  1
  Zn  Zn7  1  0.47547241  0.50401295  0.33556434  1
  H  H0  1  0.33045150  0.06929093  0.42704011  1
  H  H1  1  0.33045150  0.93070907  0.57295989  1
  H  H2  1  0.66954850  0.43070907  0.92704011  1
  H  H3  1  0.66954850  0.56929093  0.07295989  1
  H  H4  1  0.35449470  0.67573437  0.10893904  1
  H  H5  1  0.35449470  0.32426563  0.89106096  1
  H  H6  1  0.64550530  0.82426563  0.60893904  1
  H  H7  1  0.64550530  0.17573437  0.39106096  1
  H  H8  1  0.32814858  0.15194358  0.48413270  1
  H  H9  1  0.32814858  0.84805642  0.51586730  1
  H  H10  1  0.67185142  0.34805642  0.98413270  1
  H  H11  1  0.67185142  0.65194358  0.01586730  1
  H  H12  1  0.04129473  0.40538802  0.45103471  1
  H  H13  1  0.04129473  0.59461198  0.54896529  1
  H  H14  1  0.95870527  0.09461198  0.95103471  1
  H  H15  1  0.95870527  0.90538802  0.04896529  1
  H  H16  1  0.13212569  0.50987315  0.29634312  1
  H  H17  1  0.13212569  0.49012685  0.70365688  1
  H  H18  1  0.86787431  0.99012685  0.79634312  1
  H  H19  1  0.86787431  0.00987315  0.20365688  1
  H  H20  1  0.09881083  0.89064960  0.10014921  1
  H  H21  1  0.09881083  0.10935040  0.89985079  1
  H  H22  1  0.90118917  0.60935040  0.60014921  1
  H  H23  1  0.90118917  0.39064960  0.39985079  1
  H  H24  1  0.40506965  0.31913678  0.42091003  1
  H  H25  1  0.40506965  0.68086322  0.57908997  1
  H  H26  1  0.59493035  0.18086322  0.92091003  1
  H  H27  1  0.59493035  0.81913678  0.07908997  1
  H  H28  1  0.03226876  0.31683862  0.20031059  1
  H  H29  1  0.03226876  0.68316138  0.79968941  1
  H  H30  1  0.96773124  0.18316138  0.70031059  1
  H  H31  1  0.96773124  0.81683862  0.29968941  1
  H  H32  1  0.16850706  0.00262855  0.80911318  1
  H  H33  1  0.16850706  0.99737145  0.19088682  1
  H  H34  1  0.83149294  0.49737145  0.30911318  1
  H  H35  1  0.83149294  0.50262855  0.69088682  1
  H  H36  1  0.53697612  0.43121056  0.44538821  1
  H  H37  1  0.53697612  0.56878944  0.55461179  1
  H  H38  1  0.46302388  0.06878944  0.94538821  1
  H  H39  1  0.46302388  0.93121056  0.05461179  1
  H  H40  1  0.45446678  0.44700747  0.19364471  1
  H  H41  1  0.45446678  0.55299253  0.80635529  1
  H  H42  1  0.54553322  0.05299253  0.69364471  1
  H  H43  1  0.54553322  0.94700747  0.30635529  1
  H  H44  1  0.24667907  0.07332736  0.01127425  1
  H  H45  1  0.24667907  0.92667264  0.98872575  1
  H  H46  1  0.75332093  0.42667264  0.51127425  1
  H  H47  1  0.75332093  0.57332736  0.48872575  1
  H  H48  1  0.15015052  0.38045973  0.33082743  1
  H  H49  1  0.15015052  0.61954027  0.66917257  1
  H  H50  1  0.84984948  0.11954027  0.83082743  1
  H  H51  1  0.84984948  0.88045973  0.16917257  1
  H  H52  1  0.36780843  0.54420076  0.07492255  1
  H  H53  1  0.36780843  0.45579924  0.92507745  1
  H  H54  1  0.63219157  0.95579924  0.57492255  1
  H  H55  1  0.63219157  0.04420076  0.42507745  1
  H  H56  1  0.18091612  0.09000201  0.13765283  1
  H  H57  1  0.18091612  0.90999799  0.86234717  1
  H  H58  1  0.81908388  0.40999799  0.63765283  1
  H  H59  1  0.81908388  0.59000201  0.36234717  1
  H  H60  1  0.24818888  0.44235437  0.52230850  1
  H  H61  1  0.24818888  0.55764563  0.47769150  1
  H  H62  1  0.75181112  0.05764563  0.02230850  1
  H  H63  1  0.75181112  0.94235437  0.97769150  1
  C  C0  1  0.52069821  0.30640607  0.13337280  1
  C  C1  1  0.52069821  0.69359393  0.86662720  1
  C  C2  1  0.47930179  0.19359393  0.63337280  1
  C  C3  1  0.47930179  0.80640607  0.36662720  1
  C  C4  1  0.01602043  0.01398717  0.31390741  1
  C  C5  1  0.01602043  0.98601283  0.68609259  1
  C  C6  1  0.98397957  0.48601283  0.81390741  1
  C  C7  1  0.98397957  0.51398717  0.18609259  1
  C  C8  1  0.04155501  0.34930605  0.11464141  1
  C  C9  1  0.04155501  0.65069395  0.88535859  1
  C  C10  1  0.95844499  0.15069395  0.61464141  1
  C  C11  1  0.95844499  0.84930605  0.38535859  1
  C  C12  1  0.50697684  0.27078850  0.23345041  1
  C  C13  1  0.50697684  0.72921150  0.76654959  1
  C  C14  1  0.49302316  0.22921150  0.73345041  1
  C  C15  1  0.49302316  0.77078850  0.26654959  1
  N  N0  1  0.59420626  0.31245865  0.04698528  1
  N  N1  1  0.59420626  0.68754135  0.95301472  1
  N  N2  1  0.40579374  0.18754135  0.54698528  1
  N  N3  1  0.40579374  0.81245865  0.45301472  1
  N  N4  1  0.52385915  0.31931123  0.28638835  1
  N  N5  1  0.52385915  0.68068877  0.71361165  1
  N  N6  1  0.47614085  0.18068877  0.78638835  1
  N  N7  1  0.47614085  0.81931123  0.21361165  1
  N  N8  1  0.55788741  0.18217191  0.11774332  1
  N  N9  1  0.55788741  0.81782809  0.88225668  1
  N  N10  1  0.44211259  0.31782809  0.61774332  1
  N  N11  1  0.44211259  0.68217191  0.38225668  1
  N  N12  1  0.06008139  0.33890226  0.02507061  1
  N  N13  1  0.06008139  0.66109774  0.97492939  1
  N  N14  1  0.93991861  0.16109774  0.52507061  1
  N  N15  1  0.93991861  0.83890226  0.47492939  1
  N  N16  1  0.60682693  0.19025667  0.06315726  1
  N  N17  1  0.60682693  0.80974333  0.93684274  1
  N  N18  1  0.39317307  0.30974333  0.56315726  1
  N  N19  1  0.39317307  0.69025667  0.43684274  1
  N  N20  1  0.53953462  0.39059962  0.08966079  1
  N  N21  1  0.53953462  0.60940038  0.91033921  1
  N  N22  1  0.46046538  0.10940038  0.58966079  1
  N  N23  1  0.46046538  0.89059962  0.41033921  1
  N  N24  1  0.03238451  0.04977808  0.25939638  1
  N  N25  1  0.03238451  0.95022192  0.74060362  1
  N  N26  1  0.96761549  0.45022192  0.75939638  1
  N  N27  1  0.96761549  0.54977808  0.24060362  1
  N  N28  1  0.01374944  0.38726089  0.16927129  1
  N  N29  1  0.01374944  0.61273911  0.83072871  1
  N  N30  1  0.98625056  0.11273911  0.66927129  1
  N  N31  1  0.98625056  0.88726089  0.33072871  1
  N  N32  1  0.52839111  0.13942115  0.23350446  1
  N  N33  1  0.52839111  0.86057885  0.76649554  1
  N  N34  1  0.47160889  0.36057885  0.73350446  1
  N  N35  1  0.47160889  0.63942115  0.26649554  1
  N  N36  1  0.55806861  0.21308002  0.31872706  1
  N  N37  1  0.55806861  0.78691998  0.68127294  1
  N  N38  1  0.44193139  0.28691998  0.81872706  1
  N  N39  1  0.44193139  0.71308002  0.18127294  1
  N  N40  1  0.56179376  0.10787846  0.28754391  1
  N  N41  1  0.56179376  0.89212154  0.71245609  1
  N  N42  1  0.43820624  0.39212154  0.78754391  1
  N  N43  1  0.43820624  0.60787846  0.21245609  1
  N  N44  1  0.47603119  0.34598617  0.18673236  1
  N  N45  1  0.47603119  0.65401383  0.81326764  1
  N  N46  1  0.52396881  0.15401383  0.68673236  1
  N  N47  1  0.52396881  0.84598617  0.31326764  1
  N  N48  1  0.05871512  0.22194270  0.31335480  1
  N  N49  1  0.05871512  0.77805730  0.68664520  1
  N  N50  1  0.94128488  0.27805730  0.81335480  1
  N  N51  1  0.94128488  0.72194270  0.18664520  1
  N  N52  1  0.03185843  0.11858483  0.34812031  1
  N  N53  1  0.03185843  0.88141517  0.65187969  1
  N  N54  1  0.96814157  0.38141517  0.84812031  1
  N  N55  1  0.96814157  0.61858483  0.15187969  1
  N  N56  1  0.05870690  0.18172007  0.26124221  1
  N  N57  1  0.05870690  0.81827993  0.73875779  1
  N  N58  1  0.94129310  0.31827993  0.76124221  1
  N  N59  1  0.94129310  0.68172007  0.23875779  1
  N  N60  1  0.01733508  0.42190341  0.06771678  1
  N  N61  1  0.01733508  0.57809659  0.93228322  1
  N  N62  1  0.98266492  0.07809659  0.56771678  1
  N  N63  1  0.98266492  0.92190341  0.43228322  1
  N  N64  1  0.09798200  0.22720621  0.10162986  1
  N  N65  1  0.09798200  0.77279379  0.89837014  1
  N  N66  1  0.90201800  0.27279379  0.60162986  1
  N  N67  1  0.90201800  0.72720621  0.39837014  1
  N  N68  1  0.10795824  0.22439324  0.04538878  1
  N  N69  1  0.10795824  0.77560676  0.95461122  1
  N  N70  1  0.89204176  0.27560676  0.54538878  1
  N  N71  1  0.89204176  0.72439324  0.45461122  1
  O  O0  1  0.83108812  -0.00000000  -0.00000000  1
  O  O1  1  0.16891188  0.50000000  0.50000000  1
  O  O2  1  0.27517792  0.14656924  0.44467500  1
  O  O3  1  0.27517792  0.85343076  0.55532500  1
  O  O4  1  0.72482208  0.35343076  0.94467500  1
  O  O5  1  0.72482208  0.64656924  0.05532500  1
  O  O6  1  0.22953579  0.00608729  0.15429925  1
  O  O7  1  0.22953579  0.99391271  0.84570075  1
  O  O8  1  0.77046421  0.49391271  0.65429925  1
  O  O9  1  0.77046421  0.50608729  0.34570075  1
  O  O10  1  0.30507734  0.62898441  0.07565880  1
  O  O11  1  0.30507734  0.37101559  0.92434120  1
  O  O12  1  0.69492266  0.87101559  0.57565880  1
  O  O13  1  0.69492266  0.12898441  0.42434120  1
  O  O14  1  0.46855821  0.40056299  0.41218086  1
  O  O15  1  0.46855821  0.59943701  0.58781914  1
  O  O16  1  0.53144179  0.09943701  0.91218086  1
  O  O17  1  0.53144179  0.90056299  0.08781914  1
  O  O18  1  0.20074098  0.47081145  0.32752974  1
  O  O19  1  0.20074098  0.52918855  0.67247026  1
  O  O20  1  0.79925902  0.02918855  0.82752974  1
  O  O21  1  0.79925902  0.97081145  0.17247026  1
  O  O22  1  0.02554727  0.84239567  0.07303708  1
  O  O23  1  0.02554727  0.15760433  0.92696292  1
  O  O24  1  0.97445273  0.65760433  0.57303708  1
  O  O25  1  0.97445273  0.34239567  0.42696292  1
  O  O26  1  0.32517353  -0.00000000  0.00000000  1
  O  O27  1  0.67482647  0.50000000  0.50000000  1
loop_
_geom_bond_atom_site_label_1
_geom_bond_atom_site_label_2
_geom_bond_distance
_geom_bond_site_symmetry_2
H0 O2 0.983681 1_555
H1 O3 0.983681 1_555
H2 O4 0.983681 1_555
H3 O5 0.983681 1_555
H4 O10 0.995471 1_555
H5 O11 0.995471 1_555
H6 O12 0.995471 1_555
H7 O13 0.995471 1_555
H8 O2 1.021124 1_555
H8 N2 1.645116 1_555
H9 O3 1.021124 1_555
H9 N3 1.645116 1_555
H10 O4 1.021124 1_555
H10 N0 1.645116 1_556
H11 O5 1.021124 1_555
H11 N1 1.645116 1_554
H12 O25 0.996619 1_455
H13 O24 0.996619 1_455
H14 O23 0.996619 1_655
H15 O22 0.996619 1_655
H16 O18 0.988276 1_555
H17 O19 0.988276 1_555
H18 O20 0.988276 1_565
H19 O21 0.988276 1_545
H20 O22 0.981514 1_555
H21 O23 0.981514 1_555
H22 O24 0.981514 1_555
H23 O25 0.981514 1_555
H24 O14 0.979334 1_555
H25 O15 0.979334 1_555
H26 O16 0.979334 1_555
H27 O17 0.979334 1_555
H28 N28 1.037124 1_555
H29 N29 1.037124 1_555
H30 N30 1.037124 1_555
H31 N31 1.037124 1_555
H32 O7 0.988480 1_545
H33 O6 0.988480 1_565
H34 O9 0.988480 1_555
H35 O8 0.988480 1_555
H36 O14 0.993980 1_555
H37 O15 0.993980 1_555
H38 O16 0.993980 1_555
H39 O17 0.993980 1_555
H40 N44 1.052455 1_555
H40 N43 1.699334 1_555
H41 N45 1.052455 1_555
H41 N42 1.699334 1_555
H42 N46 1.052455 1_555
H42 N41 1.699334 1_545
H43 N47 1.052455 1_555
H43 N40 1.699334 1_565
H44 O26 0.990278 1_555
H45 O26 0.990278 1_566
H46 O27 0.990278 1_555
H47 O27 0.990278 1_555
H48 O18 0.998067 1_555
H48 N48 1.802021 1_555
H49 O19 0.998067 1_555
H49 N49 1.802021 1_555
H50 O20 0.998067 1_555
H50 N50 1.802021 1_555
H51 O21 0.998067 1_555
H51 N51 1.802021 1_555
H52 O10 0.984146 1_555
H53 O11 0.984146 1_555
H54 O12 0.984146 1_555
H55 O13 0.984146 1_555
H56 O6 1.009612 1_555
H56 N64 1.752523 1_555
H57 O7 1.009612 1_555
H57 N65 1.752523 1_555
H58 O8 1.009612 1_555
H58 N66 1.752523 1_555
H59 O9 1.009612 1_555
H59 N67 1.752523 1_555
H60 O1 0.992344 1_555
H61 O1 0.992344 1_555
H62 O0 0.992344 1_555
H63 O0 0.992344 1_566
C0 N8 1.345838 1_555
C0 N20 1.353091 1_555
C0 N44 1.372305 1_555
C1 N9 1.345838 1_555
C1 N21 1.353091 1_555
C1 N45 1.372305 1_555
C2 N10 1.345838 1_555
C2 N22 1.353091 1_555
C2 N46 1.372305 1_555
C3 N11 1.345838 1_555
C3 N23 1.353091 1_555
C3 N47 1.372305 1_555
C4 N52 1.343493 1_555
C4 N24 1.350814 1_555
C4 N31 1.367184 1_445
C5 N53 1.343493 1_555
C5 N25 1.350814 1_555
C5 N30 1.367184 1_465
C6 N54 1.343493 1_555
C6 N26 1.350814 1_555
C6 N29 1.367184 1_655
C7 N55 1.343493 1_555
C7 N27 1.350814 1_555
C7 N28 1.367184 1_655
C8 N64 1.348338 1_555
C8 N60 1.349337 1_555
C8 N28 1.370220 1_555
C9 N65 1.348338 1_555
C9 N61 1.349337 1_555
C9 N29 1.370220 1_555
C10 N66 1.348338 1_555
C10 N62 1.349337 1_555
C10 N30 1.370220 1_555
C11 N67 1.348338 1_555
C11 N63 1.349337 1_555
C11 N31 1.370220 1_555
C12 N32 1.344868 1_555
C12 N4 1.356893 1_555
C12 N44 1.367764 1_555
C13 N33 1.344868 1_555
C13 N5 1.356893 1_555
C13 N45 1.367764 1_555
C14 N34 1.344868 1_555
C14 N6 1.356893 1_555
C14 N46 1.367764 1_555
C15 N35 1.344868 1_555
C15 N7 1.356893 1_555
C15 N47 1.367764 1_555
N0 N16 1.303482 1_555
N0 N20 1.352779 1_555
N1 N17 1.303482 1_555
N1 N21 1.352779 1_555
N2 N22 1.352779 1_555
N4 Zn7 2.241110 1_555
N5 Zn6 2.241110 1_555
N6 Zn5 2.241110 1_545
N7 Zn4 2.241110 1_565
N8 Zn4 2.138340 1_555
N9 Zn5 2.138340 1_555
N10 N18 1.351239 1_555
N10 Zn6 2.138340 1_555
N11 N19 1.351239 1_555
N11 Zn7 2.138340 1_555
N12 N68 1.311023 1_555
N12 N60 1.357504 1_555
N12 Zn1 2.148974 1_554
N13 N69 1.311023 1_555
N13 N61 1.357504 1_555
N13 Zn0 2.148974 1_556
N14 N70 1.311023 1_555
N14 N62 1.357504 1_555
N14 Zn3 2.148974 1_555
N15 N71 1.311023 1_555
N15 N63 1.357504 1_555
N15 Zn2 2.148974 1_555
N16 N8 1.351239 1_555
N17 N9 1.351239 1_555
N18 N2 1.303482 1_555
N19 N3 1.303482 1_555
N23 N3 1.352779 1_555
N24 N56 1.356342 1_555
N25 N57 1.356342 1_555
N26 N58 1.356342 1_555
N27 N59 1.356342 1_555
N32 N40 1.347192 1_555
N32 Zn4 2.141710 1_555
N33 N41 1.347192 1_555
N33 Zn5 2.141710 1_555
N34 N42 1.347192 1_555
N34 Zn6 2.141710 1_555
N35 N43 1.347192 1_555
N35 Zn7 2.141710 1_555
N36 N40 1.301014 1_555
N36 N4 1.350153 1_555
N37 N41 1.301014 1_555
N37 N5 1.350153 1_555
N38 N42 1.301014 1_555
N38 N6 1.350153 1_555
N39 N43 1.301014 1_555
N39 N7 1.350153 1_555
N48 N56 1.303761 1_555
N48 N52 1.351612 1_555
N49 N57 1.303761 1_555
N49 N53 1.351612 1_555
N50 N58 1.303761 1_555
N50 N54 1.351612 1_555
N51 N59 1.303761 1_555
N51 N55 1.351612 1_555
N52 Zn3 2.134903 1_455
N53 Zn2 2.134903 1_455
N54 Zn1 2.134903 1_655
N55 Zn0 2.134903 1_655
N60 Zn0 2.176093 1_555
N61 Zn1 2.176093 1_555
N62 Zn2 2.176093 1_545
N63 Zn3 2.176093 1_565
N64 N68 1.338543 1_555
N65 N69 1.338543 1_555
N66 N70 1.338543 1_555
N67 N71 1.338543 1_555
O2 Zn3 2.223420 1_455
O3 Zn2 2.223420 1_455
O4 Zn1 2.223420 1_655
O5 Zn0 2.223420 1_655
O6 Zn4 2.247727 1_555
O7 Zn5 2.247727 1_555
O8 Zn6 2.247727 1_555
O9 Zn7 2.247727 1_555
O10 Zn0 2.203405 1_555
O11 Zn1 2.203405 1_555
O12 Zn2 2.203405 1_555
O13 Zn3 2.203405 1_555
O14 Zn7 2.102618 1_555
O15 Zn6 2.102618 1_555
O16 Zn5 2.102618 1_545
O17 Zn4 2.102618 1_565
O18 Zn7 2.117007 1_555
O19 Zn6 2.117007 1_555
O20 Zn5 2.117007 1_545
O21 Zn4 2.117007 1_565
O22 Zn0 2.112168 1_555
O23 Zn1 2.112168 1_555
O24 Zn2 2.112168 1_555
O25 Zn3 2.112168 1_555
