# generated using pymatgen
data_Ca(BO5)2
_symmetry_space_group_name_H-M   'P 1'
_cell_length_a   8.50278134
_cell_length_b   8.50278134
_cell_length_c   8.85717519
_cell_angle_alpha   70.68163003
_cell_angle_beta   70.68163003
_cell_angle_gamma   42.86706254
_symmetry_Int_Tables_number   1
_chemical_formula_structural   Ca(BO5)2
_chemical_formula_sum   'Ca2 B4 O20'
_cell_volume   407.19009817
_cell_formula_units_Z   2
loop_
 _symmetry_equiv_pos_site_id
 _symmetry_equiv_pos_as_xyz
  1  'x, y, z'
loop_
 _atom_site_type_symbol
 _atom_site_label
 _atom_site_symmetry_multiplicity
 _atom_site_fract_x
 _atom_site_fract_y
 _atom_site_fract_z
 _atom_site_occupancy
  Ca  Ca0  1  0.92994900  0.07005100  0.75000000  1
  Ca  Ca1  1  0.07005100  0.92994900  0.25000000  1
  B  B0  1  0.29467700  0.60296600  0.94428900  1
  B  B1  1  0.39703400  0.70532300  0.55571100  1
  B  B2  1  0.70532300  0.39703400  0.05571100  1
  B  B3  1  0.60296600  0.29467700  0.44428900  1
  O  O0  1  0.09961800  0.71991400  0.89383500  1
  O  O1  1  0.28008600  0.90038200  0.60616500  1
  O  O2  1  0.90038200  0.28008600  0.10616500  1
  O  O3  1  0.71991400  0.09961800  0.39383500  1
  O  O4  1  0.49404400  0.36581400  0.93144100  1
  O  O5  1  0.63418600  0.50595600  0.56855900  1
  O  O6  1  0.50595600  0.63418600  0.06855900  1
  O  O7  1  0.36581400  0.49404400  0.43144100  1
  O  O8  1  0.05387200  0.57931700  0.27303900  1
  O  O9  1  0.42068300  0.94612800  0.22696100  1
  O  O10  1  0.94612800  0.42068300  0.72696100  1
  O  O11  1  0.57931700  0.05387200  0.77303900  1
  O  O12  1  0.29214100  0.73592500  0.01174400  1
  O  O13  1  0.26407500  0.70785900  0.48825600  1
  O  O14  1  0.70785900  0.26407500  0.98825600  1
  O  O15  1  0.73592500  0.29214100  0.51174400  1
  O  O16  1  0.56468500  0.95635100  0.20162300  1
  O  O17  1  0.04364900  0.43531500  0.29837700  1
  O  O18  1  0.43531500  0.04364900  0.79837700  1
  O  O19  1  0.95635100  0.56468500  0.70162300  1
loop_
_geom_bond_atom_site_label_1
_geom_bond_atom_site_label_2
_geom_bond_distance
_geom_bond_site_symmetry_2
Ca0 O0 2.231212 1_645
Ca0 O1 2.231212 1_645
Ca0 O14 2.416820 1_555
Ca0 O15 2.416820 1_555
Ca0 O11 3.021441 1_555
Ca0 O10 3.021441 1_555
Ca1 O3 2.231212 1_465
Ca1 O2 2.231212 1_465
Ca1 O13 2.416820 1_555
Ca1 O12 2.416820 1_555
Ca1 O8 3.021441 1_555
Ca1 O9 3.021441 1_555
B0 O0 1.310759 1_555
B0 O4 1.402194 1_555
B0 O12 1.427634 1_556
B1 O1 1.310759 1_555
B1 O5 1.402194 1_555
B1 O13 1.427634 1_555
B2 O2 1.310759 1_555
B2 O6 1.402194 1_555
B2 O14 1.427634 1_554
B3 O3 1.310759 1_555
B3 O7 1.402194 1_555
B3 O15 1.427634 1_555
O10 O19 1.232241 1_555
O11 O18 1.232241 1_555
O16 O9 1.232241 1_555
O17 O8 1.232241 1_555
