# generated using pymatgen
data_CuPb3
_symmetry_space_group_name_H-M   'P 1'
_cell_length_a   5.72491792
_cell_length_b   5.72491792
_cell_length_c   5.72491792
_cell_angle_alpha   130.32935884
_cell_angle_beta   130.32935884
_cell_angle_gamma   72.88077684
_symmetry_Int_Tables_number   1
_chemical_formula_structural   CuPb3
_chemical_formula_sum   'Cu1 Pb3'
_cell_volume   106.51311518
_cell_formula_units_Z   1
loop_
 _symmetry_equiv_pos_site_id
 _symmetry_equiv_pos_as_xyz
  1  'x, y, z'
loop_
 _atom_site_type_symbol
 _atom_site_label
 _atom_site_symmetry_multiplicity
 _atom_site_fract_x
 _atom_site_fract_y
 _atom_site_fract_z
 _atom_site_occupancy
  Cu  Cu0  1  0.00000000  0.00000000  0.00000000  1
  Pb  Pb0  1  0.75000000  0.25000000  0.50000000  1
  Pb  Pb1  1  0.25000000  0.75000000  0.50000000  1
  Pb  Pb2  1  0.50000000  0.50000000  0.00000000  1
loop_
_geom_bond_atom_site_label_1
_geom_bond_atom_site_label_2
_geom_bond_distance
_geom_bond_site_symmetry_2
Cu0 Pb1 3.329348 1_555
Cu0 Pb0 3.329348 1_444
Cu0 Pb0 3.329348 1_455
Cu0 Pb0 3.329348 1_454
Cu0 Pb1 3.329348 1_545
Cu0 Pb1 3.329348 1_544
Cu0 Pb1 3.329348 1_444
Cu0 Pb0 3.329348 1_555
Cu0 Pb2 3.400522 1_545
Cu0 Pb2 3.400522 1_455
Cu0 Pb2 3.400522 1_556
Cu0 Pb2 3.400522 1_444
Pb0 Pb2 3.329348 1_555
Pb0 Pb2 3.329348 1_545
Pb0 Pb2 3.329348 1_556
Pb0 Pb2 3.329348 1_656
Pb0 Pb1 3.400522 1_645
Pb0 Pb1 3.400522 1_656
Pb0 Pb1 3.400522 1_544
Pb0 Pb1 3.400522 1_555
Pb1 Pb2 3.329348 1_555
Pb1 Pb2 3.329348 1_566
Pb1 Pb2 3.329348 1_556
Pb1 Pb2 3.329348 1_455
