# generated using pymatgen
data_TaAgP4O13
_symmetry_space_group_name_H-M   'P 1'
_cell_length_a   7.10042640
_cell_length_b   8.29121265
_cell_length_c   17.33401490
_cell_angle_alpha   90.00000000
_cell_angle_beta   90.00000000
_cell_angle_gamma   90.00000000
_symmetry_Int_Tables_number   1
_chemical_formula_structural   TaAgP4O13
_chemical_formula_sum   'Ta4 Ag4 P16 O52'
_cell_volume   1020.47330787
_cell_formula_units_Z   4
loop_
 _symmetry_equiv_pos_site_id
 _symmetry_equiv_pos_as_xyz
  1  'x, y, z'
loop_
 _atom_site_type_symbol
 _atom_site_label
 _atom_site_symmetry_multiplicity
 _atom_site_fract_x
 _atom_site_fract_y
 _atom_site_fract_z
 _atom_site_occupancy
  Ta  Ta0  1  0.23184117  0.27292363  0.71648530  1
  Ta  Ta1  1  0.73184117  0.22707637  0.28351470  1
  Ta  Ta2  1  0.76815883  0.77292363  0.78351470  1
  Ta  Ta3  1  0.26815883  0.72707637  0.21648530  1
  Ag  Ag0  1  0.20236265  0.71956532  0.47849830  1
  Ag  Ag1  1  0.70236265  0.78043468  0.52150170  1
  Ag  Ag2  1  0.79763735  0.21956532  0.02150170  1
  Ag  Ag3  1  0.29763735  0.28043468  0.97849830  1
  P  P0  1  0.39797948  0.64855825  0.66921870  1
  P  P1  1  0.89797948  0.85144175  0.33078130  1
  P  P2  1  0.60202052  0.14855825  0.83078130  1
  P  P3  1  0.10202052  0.35144175  0.16921870  1
  P  P4  1  0.10066007  0.89913797  0.66127356  1
  P  P5  1  0.60066007  0.60086203  0.33872644  1
  P  P6  1  0.89933993  0.39913797  0.83872644  1
  P  P7  1  0.39933993  0.10086203  0.16127356  1
  P  P8  1  0.06769337  0.31310699  0.42408013  1
  P  P9  1  0.56769337  0.18689301  0.57591987  1
  P  P10  1  0.93230663  0.81310699  0.07591987  1
  P  P11  1  0.43230663  0.68689301  0.92408013  1
  P  P12  1  0.91442611  0.39464042  0.57660789  1
  P  P13  1  0.41442611  0.10535958  0.42339211  1
  P  P14  1  0.08557389  0.89464042  0.92339211  1
  P  P15  1  0.58557389  0.60535958  0.07660789  1
  O  O0  1  0.42095712  0.63966898  0.58521688  1
  O  O1  1  0.92095712  0.86033102  0.41478312  1
  O  O2  1  0.57904288  0.13966898  0.91478312  1
  O  O3  1  0.07904288  0.36033102  0.08521688  1
  O  O4  1  0.32877540  0.49332206  0.70891895  1
  O  O5  1  0.82877540  0.00667794  0.29108105  1
  O  O6  1  0.67122460  0.99332206  0.79108105  1
  O  O7  1  0.17122460  0.50667794  0.20891895  1
  O  O8  1  0.57600002  0.69860969  0.71374585  1
  O  O9  1  0.07600002  0.80139031  0.28625415  1
  O  O10  1  0.42399998  0.19860969  0.78625415  1
  O  O11  1  0.92399998  0.30139031  0.21374585  1
  O  O12  1  0.11263758  0.91641547  0.57761556  1
  O  O13  1  0.61263758  0.58358453  0.42238444  1
  O  O14  1  0.88736242  0.41641547  0.92238444  1
  O  O15  1  0.38736242  0.08358453  0.07761556  1
  O  O16  1  0.91665666  0.82758282  0.69391658  1
  O  O17  1  0.41665666  0.67241718  0.30608342  1
  O  O18  1  0.25354380  0.78076249  0.69777341  1
  O  O19  1  0.08334334  0.32758282  0.80608342  1
  O  O20  1  0.13429035  0.05395307  0.70871987  1
  O  O21  1  0.63429035  0.44604693  0.29128013  1
  O  O22  1  0.86570965  0.55395307  0.79128013  1
  O  O23  1  0.36570965  0.94604693  0.20871987  1
  O  O24  1  0.48102209  0.66575613  0.14750178  1
  O  O25  1  0.98102209  0.83424387  0.85249822  1
  O  O26  1  0.51897791  0.16575613  0.35249822  1
  O  O27  1  0.01897791  0.33424387  0.64750178  1
  O  O28  1  0.79771554  0.66143139  0.08654432  1
  O  O29  1  0.29771554  0.83856861  0.91345568  1
  O  O30  1  0.20228446  0.16143139  0.41345568  1
  O  O31  1  0.70228446  0.33856861  0.58654432  1
  O  O32  1  0.50773055  0.71704312  0.00930978  1
  O  O33  1  0.00773055  0.78295688  0.99069022  1
  O  O34  1  0.49226945  0.21704312  0.49069022  1
  O  O35  1  0.99226945  0.28295688  0.50930978  1
  O  O36  1  0.57487459  0.43232639  0.06123906  1
  O  O37  1  0.07487459  0.06767361  0.93876094  1
  O  O38  1  0.42512541  0.93232639  0.43876094  1
  O  O39  1  0.92512541  0.56767361  0.56123906  1
  O  O40  1  0.60073256  0.72503876  0.87333546  1
  O  O41  1  0.10073256  0.77496124  0.12666454  1
  O  O42  1  0.39926744  0.22503876  0.62666454  1
  O  O43  1  0.89926744  0.27496124  0.37333546  1
  O  O44  1  0.33766393  0.53232270  0.91289883  1
  O  O45  1  0.83766393  0.96767730  0.08710117  1
  O  O46  1  0.66233607  0.03232270  0.58710117  1
  O  O47  1  0.16233607  0.46767730  0.41289883  1
  O  O48  1  0.24645620  0.21923751  0.19777341  1
  O  O49  1  0.74645620  0.28076249  0.80222659  1
  O  O50  1  0.75354380  0.71923751  0.30222659  1
  O  O51  1  0.58334334  0.17241718  0.19391658  1
loop_
_geom_bond_atom_site_label_1
_geom_bond_atom_site_label_2
_geom_bond_distance
_geom_bond_site_symmetry_2
Ag0 O47 2.394875 1_555
Ag0 O12 2.453891 1_555
Ag0 O38 2.467413 1_555
Ag0 O0 2.503971 1_555
Ag0 O1 2.564050 1_455
Ag0 O39 2.741901 1_455
Ag1 O46 2.394875 1_565
Ag1 O13 2.453891 1_555
Ag1 O39 2.467413 1_555
Ag1 O1 2.503971 1_555
Ag1 O0 2.564050 1_555
Ag1 O38 2.741901 1_555
Ag2 O45 2.394875 1_545
Ag2 O14 2.453891 1_554
Ag2 O36 2.467413 1_555
Ag2 O2 2.503971 1_554
Ag2 O3 2.564050 1_655
Ag2 O37 2.741901 1_654
Ag3 O44 2.394875 1_555
Ag3 O15 2.453891 1_556
Ag3 O37 2.467413 1_555
Ag3 O3 2.503971 1_556
Ag3 O2 2.564050 1_555
Ag3 O36 2.741901 1_556
O0 P0 1.467053 1_555
O1 P1 1.467053 1_555
O2 P2 1.467053 1_555
O3 P3 1.467053 1_555
O4 P0 1.540013 1_555
O4 Ta0 1.957091 1_555
O5 P1 1.540013 1_545
O5 Ta1 1.957091 1_555
O6 P2 1.540013 1_565
O6 Ta2 1.957091 1_555
O7 P3 1.540013 1_555
O7 Ta3 1.957091 1_555
O8 P0 1.538081 1_555
O8 Ta2 1.924537 1_555
O9 P1 1.538081 1_455
O9 Ta3 1.924537 1_555
O10 P2 1.538081 1_555
O10 Ta0 1.924537 1_555
O11 P3 1.538081 1_655
O11 Ta1 1.924537 1_555
O12 P4 1.459667 1_555
O13 P5 1.459667 1_555
O14 P6 1.459667 1_555
O15 P7 1.459667 1_555
O16 P4 1.542432 1_655
O16 Ta2 1.931124 1_555
O17 P5 1.542432 1_555
O17 Ta3 1.931124 1_555
O18 P0 1.580590 1_555
O18 P4 1.594361 1_555
O19 P6 1.542432 1_455
O19 Ta0 1.931124 1_555
O20 P4 1.543069 1_545
O20 Ta0 1.947830 1_555
O21 P5 1.543069 1_555
O21 Ta1 1.947830 1_555
O22 P6 1.543069 1_555
O22 Ta2 1.947830 1_555
O23 P7 1.543069 1_565
O23 Ta3 1.947830 1_555
O24 P15 1.520526 1_555
O24 Ta3 1.993170 1_555
O25 P14 1.520526 1_655
O25 Ta2 1.993170 1_555
O26 P13 1.520526 1_555
O26 Ta1 1.993170 1_555
O27 P12 1.520526 1_455
O27 Ta0 1.993170 1_555
O28 P15 1.585790 1_555
O28 P10 1.590184 1_555
O29 P14 1.585790 1_555
O29 P11 1.590184 1_555
O30 P13 1.585790 1_555
O30 P8 1.590184 1_555
O31 P12 1.585790 1_555
O31 P9 1.590184 1_555
O32 P15 1.588645 1_555
O32 P11 1.591202 1_554
O33 P14 1.588645 1_555
O33 P10 1.591202 1_456
O34 P13 1.588645 1_555
O34 P9 1.591202 1_555
O35 P12 1.588645 1_555
O35 P8 1.591202 1_655
O36 P15 1.461156 1_555
O37 P14 1.461156 1_545
O38 P13 1.461156 1_565
O39 P12 1.461156 1_555
O40 P11 1.517863 1_555
O40 Ta2 1.998743 1_555
O41 P10 1.517863 1_455
O41 Ta3 1.998743 1_555
O42 P9 1.517863 1_555
O42 Ta0 1.998743 1_555
O43 P8 1.517863 1_655
O43 Ta1 1.998743 1_555
O44 P11 1.459996 1_555
O45 P10 1.459996 1_555
O46 P9 1.459996 1_555
O47 P8 1.459996 1_555
O48 P3 1.580590 1_555
O48 P7 1.594361 1_555
O49 P2 1.580590 1_555
O49 P6 1.594361 1_555
O50 P1 1.580590 1_555
O50 P5 1.594361 1_555
O51 P7 1.542432 1_555
O51 Ta1 1.931124 1_555
