# generated using pymatgen
data_NaLiB2(H5N)2
_symmetry_space_group_name_H-M   'P 1'
_cell_length_a   5.20369500
_cell_length_b   7.14280343
_cell_length_c   8.76430843
_cell_angle_alpha   103.67207029
_cell_angle_beta   102.76123132
_cell_angle_gamma   103.91678628
_symmetry_Int_Tables_number   1
_chemical_formula_structural   NaLiB2(H5N)2
_chemical_formula_sum   'Na2 Li2 B4 H20 N4'
_cell_volume   293.61458911
_cell_formula_units_Z   2
loop_
 _symmetry_equiv_pos_site_id
 _symmetry_equiv_pos_as_xyz
  1  'x, y, z'
loop_
 _atom_site_type_symbol
 _atom_site_label
 _atom_site_symmetry_multiplicity
 _atom_site_fract_x
 _atom_site_fract_y
 _atom_site_fract_z
 _atom_site_occupancy
  Na  Na0  1  0.34004500  0.23327300  0.01354500  1
  Na  Na1  1  0.65995500  0.76672700  0.98645500  1
  Li  Li0  1  0.94843100  0.56228600  0.36786700  1
  Li  Li1  1  0.05156900  0.43771400  0.63213300  1
  B  B0  1  0.14366900  0.79966800  0.80407400  1
  B  B1  1  0.85633100  0.20033200  0.19592600  1
  B  B2  1  0.48755100  0.63782300  0.25151800  1
  B  B3  1  0.51244900  0.36217700  0.74848200  1
  H  H0  1  0.94269900  0.82387800  0.57289000  1
  H  H1  1  0.05730100  0.17612200  0.42711000  1
  H  H2  1  0.75793900  0.64274200  0.62208100  1
  H  H3  1  0.24206100  0.35725800  0.37791900  1
  H  H4  1  0.16517600  0.66104700  0.86292500  1
  H  H5  1  0.83482400  0.33895300  0.13707500  1
  H  H6  1  0.04599200  0.90716200  0.89363400  1
  H  H7  1  0.95400800  0.09283800  0.10636600  1
  H  H8  1  0.37660600  0.90362200  0.81195100  1
  H  H9  1  0.62339400  0.09637800  0.18804900  1
  H  H10  1  0.30138100  0.86579200  0.32588600  1
  H  H11  1  0.69861900  0.13420800  0.67411400  1
  H  H12  1  0.42082400  0.78564400  0.47641100  1
  H  H13  1  0.57917600  0.21435600  0.52358900  1
  H  H14  1  0.72508400  0.74935100  0.27059900  1
  H  H15  1  0.27491600  0.25064900  0.72940100  1
  H  H16  1  0.36013800  0.58155100  0.10366700  1
  H  H17  1  0.63986200  0.41844900  0.89633300  1
  H  H18  1  0.51623400  0.48587700  0.28990100  1
  H  H19  1  0.48376600  0.51412300  0.71009900  1
  N  N0  1  0.95534600  0.70860900  0.62179500  1
  N  N1  1  0.04465400  0.29139100  0.37820500  1
  N  N2  1  0.31956900  0.73705200  0.35293000  1
  N  N3  1  0.68043100  0.26294800  0.64707000  1
loop_
_geom_bond_atom_site_label_1
_geom_bond_atom_site_label_2
_geom_bond_distance
_geom_bond_site_symmetry_2
Li0 N2 2.081965 1_655
Li0 N1 2.128811 1_655
Li0 N0 2.212120 1_555
Li1 N3 2.081965 1_455
Li1 N0 2.128811 1_455
Li1 N1 2.212120 1_555
B0 H4 1.236192 1_555
B0 H8 1.237430 1_555
B0 H6 1.242205 1_555
B0 N0 1.564010 1_455
B1 H5 1.236192 1_555
B1 H9 1.237430 1_555
B1 H7 1.242205 1_555
B1 N1 1.564010 1_655
B2 H16 1.235443 1_555
B2 H18 1.241652 1_555
B2 H14 1.249979 1_555
B2 N2 1.549156 1_555
B3 H17 1.235443 1_555
B3 H19 1.241652 1_555
B3 H15 1.249979 1_555
B3 N3 1.549156 1_555
H0 N0 1.022922 1_555
H1 N1 1.022922 1_555
H2 N0 1.022646 1_555
H3 N1 1.022646 1_555
H4 Li1 2.116225 1_555
H4 Na1 2.412107 1_555
H5 Li0 2.116225 1_555
H5 Na0 2.412107 1_555
H6 Na0 2.299903 1_566
H6 Na1 2.416980 1_455
H7 Na1 2.299903 1_544
H7 Na0 2.416980 1_655
H8 Na1 2.423527 1_555
H8 Na0 2.664490 1_566
H9 Na0 2.423527 1_555
H9 Na1 2.664490 1_544
H10 N2 1.022607 1_555
H11 N3 1.022607 1_555
H12 N2 1.025599 1_555
H13 N3 1.025599 1_555
H14 Li0 2.170397 1_555
H14 Na1 2.474969 1_554
H15 Li1 2.170397 1_555
H15 Na0 2.474969 1_556
H16 Na1 2.365714 1_554
H16 Na0 2.394346 1_555
H17 Na0 2.365714 1_556
H17 Na1 2.394346 1_555
H18 Li0 2.092184 1_555
H18 Na0 2.473834 1_555
H19 Li1 2.092184 1_555
H19 Na1 2.473834 1_555
