# generated using pymatgen
data_Pb2SeN2O9
_symmetry_space_group_name_H-M   'P 1'
_cell_length_a   5.48916173
_cell_length_b   7.29290140
_cell_length_c   10.31421434
_cell_angle_alpha   90.00000000
_cell_angle_beta   90.00000000
_cell_angle_gamma   90.00000000
_symmetry_Int_Tables_number   1
_chemical_formula_structural   Pb2SeN2O9
_chemical_formula_sum   'Pb4 Se2 N4 O18'
_cell_volume   412.89775449
_cell_formula_units_Z   2
loop_
 _symmetry_equiv_pos_site_id
 _symmetry_equiv_pos_as_xyz
  1  'x, y, z'
loop_
 _atom_site_type_symbol
 _atom_site_label
 _atom_site_symmetry_multiplicity
 _atom_site_fract_x
 _atom_site_fract_y
 _atom_site_fract_z
 _atom_site_occupancy
  Pb  Pb0  1  0.50000000  0.89146973  0.15499750  1
  Pb  Pb1  1  -0.00000000  0.39146973  0.84500250  1
  Pb  Pb2  1  0.50000000  0.07165928  0.52286096  1
  Pb  Pb3  1  -0.00000000  0.57165928  0.47713904  1
  Se  Se0  1  0.50000000  0.63648902  0.68046841  1
  Se  Se1  1  -0.00000000  0.13648902  0.31953159  1
  N  N0  1  0.50000000  0.26395904  0.99949173  1
  N  N1  1  -0.00000000  0.76395904  0.00050827  1
  N  N2  1  -0.00000000  0.00841917  0.71866222  1
  N  N3  1  0.50000000  0.50841917  0.28133778  1
  O  O0  1  0.50000000  0.74190634  0.53232895  1
  O  O1  1  -0.00000000  0.24190634  0.46767105  1
  O  O2  1  0.25810845  0.48966561  0.65826137  1
  O  O3  1  0.74189155  0.48966561  0.65826137  1
  O  O4  1  0.24189155  0.98966561  0.34173863  1
  O  O5  1  0.75810845  0.98966561  0.34173863  1
  O  O6  1  0.50000000  0.37369102  0.90528347  1
  O  O7  1  -0.00000000  0.87369102  0.09471653  1
  O  O8  1  0.30079744  0.20793210  0.04610803  1
  O  O9  1  0.69920256  0.20793210  0.04610803  1
  O  O10  1  0.19920256  0.70793210  0.95389197  1
  O  O11  1  0.80079744  0.70793210  0.95389197  1
  O  O12  1  0.50000000  0.36775544  0.35006843  1
  O  O13  1  -0.00000000  0.86775544  0.64993157  1
  O  O14  1  0.19896413  0.08175277  0.75305919  1
  O  O15  1  0.80103587  0.08175277  0.75305919  1
  O  O16  1  0.30103587  0.58175277  0.24694081  1
  O  O17  1  0.69896413  0.58175277  0.24694081  1
loop_
_geom_bond_atom_site_label_1
_geom_bond_atom_site_label_2
_geom_bond_distance
_geom_bond_site_symmetry_2
N0 O6 1.258806 1_555
N0 O8 1.262448 1_556
N0 O9 1.262448 1_556
N1 O7 1.258806 1_555
N1 O10 1.262448 1_554
N1 O11 1.262448 1_454
N2 O13 1.246958 1_545
N2 O14 1.266759 1_555
N2 O15 1.266759 1_455
N3 O12 1.246958 1_555
N3 O16 1.266759 1_555
N3 O17 1.266759 1_555
O0 Se0 1.710455 1_555
O0 Pb2 2.406838 1_565
O1 Se1 1.710455 1_555
O1 Pb3 2.406838 1_555
O2 Se0 1.721050 1_555
O2 Pb3 2.419673 1_555
O2 Pb1 2.495993 1_555
O3 Se0 1.721050 1_555
O3 Pb3 2.419673 1_655
O3 Pb1 2.495993 1_655
O4 Se1 1.721050 1_565
O4 Pb2 2.419673 1_565
O4 Pb0 2.495993 1_555
O5 Se1 1.721050 1_665
O5 Pb2 2.419673 1_565
O5 Pb0 2.495993 1_555
O6 Pb1 2.817110 1_655
O6 Pb1 2.817110 1_555
O7 Pb0 2.817110 1_455
O7 Pb0 2.817110 1_555
O8 Pb0 2.789902 1_545
O9 Pb0 2.789902 1_545
O10 Pb1 2.789902 1_555
O11 Pb1 2.789902 1_655
O14 Pb1 2.682161 1_555
O15 Pb1 2.682161 1_655
O16 Pb0 2.682161 1_555
O17 Pb0 2.682161 1_555
