# generated using pymatgen
data_Zn(WO2)2
_symmetry_space_group_name_H-M   'P 1'
_cell_length_a   3.20279800
_cell_length_b   10.34732600
_cell_length_c   10.48219800
_cell_angle_alpha   90.00000000
_cell_angle_beta   90.00000000
_cell_angle_gamma   90.00000000
_symmetry_Int_Tables_number   1
_chemical_formula_structural   Zn(WO2)2
_chemical_formula_sum   'Zn4 W8 O16'
_cell_volume   347.38418238
_cell_formula_units_Z   4
loop_
 _symmetry_equiv_pos_site_id
 _symmetry_equiv_pos_as_xyz
  1  'x, y, z'
loop_
 _atom_site_type_symbol
 _atom_site_label
 _atom_site_symmetry_multiplicity
 _atom_site_fract_x
 _atom_site_fract_y
 _atom_site_fract_z
 _atom_site_occupancy
  Zn  Zn0  1  0.03412800  0.35496800  0.75000000  1
  Zn  Zn1  1  0.03412800  0.14503200  0.25000000  1
  Zn  Zn2  1  0.96587200  0.85496800  0.75000000  1
  Zn  Zn3  1  0.96587200  0.64503200  0.25000000  1
  W  W0  1  0.69847600  0.11857900  0.92630100  1
  W  W1  1  0.69847600  0.38142100  0.42630100  1
  W  W2  1  0.30152400  0.88142100  0.42630100  1
  W  W3  1  0.69847600  0.38142100  0.07369900  1
  W  W4  1  0.30152400  0.88142100  0.07369900  1
  W  W5  1  0.69847600  0.11857900  0.57369900  1
  W  W6  1  0.30152400  0.61857900  0.57369900  1
  W  W7  1  0.30152400  0.61857900  0.92630100  1
  O  O0  1  0.19763500  0.98196900  0.61100300  1
  O  O1  1  0.80236500  0.01803100  0.38899700  1
  O  O2  1  0.19302800  0.25000000  0.50000000  1
  O  O3  1  0.80236500  0.48196900  0.61100300  1
  O  O4  1  0.80236500  0.48196900  0.88899700  1
  O  O5  1  0.56259600  0.27253100  0.25000000  1
  O  O6  1  0.19763500  0.51803100  0.38899700  1
  O  O7  1  0.43740400  0.77253100  0.25000000  1
  O  O8  1  0.19302800  0.25000000  0.00000000  1
  O  O9  1  0.80697200  0.75000000  0.50000000  1
  O  O10  1  0.19763500  0.98196900  0.88899700  1
  O  O11  1  0.43740400  0.72746900  0.75000000  1
  O  O12  1  0.56259600  0.22746900  0.75000000  1
  O  O13  1  0.80697200  0.75000000  0.00000000  1
  O  O14  1  0.19763500  0.51803100  0.11100300  1
  O  O15  1  0.80236500  0.01803100  0.11100300  1
loop_
_geom_bond_atom_site_label_1
_geom_bond_atom_site_label_2
_geom_bond_distance
_geom_bond_site_symmetry_2
O0 Zn2 2.097794 1_455
O0 W5 2.169535 1_465
O0 W5 2.173507 1_565
O0 W2 2.222964 1_555
O1 Zn1 2.097794 1_655
O1 W2 2.169535 1_645
O1 W2 2.173507 1_545
O1 W5 2.222964 1_555
O2 W1 2.225962 1_455
O2 W5 2.225962 1_455
O2 W1 2.250928 1_555
O2 W5 2.250928 1_555
O3 Zn0 2.097794 1_655
O3 W6 2.169535 1_655
O3 W6 2.173507 1_555
O3 W1 2.222964 1_555
O4 Zn0 2.097794 1_655
O4 W7 2.169535 1_655
O4 W7 2.173507 1_555
O4 W3 2.222964 1_556
O5 Zn1 2.005306 1_655
O5 Zn1 2.145996 1_555
O5 W3 2.207732 1_555
O5 W1 2.207732 1_555
O6 Zn3 2.097794 1_455
O6 W1 2.169535 1_455
O6 W1 2.173507 1_555
O6 W6 2.222964 1_555
O7 Zn3 2.005306 1_455
O7 Zn3 2.145996 1_555
O7 W2 2.207732 1_555
O7 W4 2.207732 1_555
O8 W3 2.225962 1_455
O8 W0 2.225962 1_454
O8 W3 2.250928 1_555
O8 W0 2.250928 1_554
O9 W6 2.225962 1_655
O9 W2 2.225962 1_655
O9 W6 2.250928 1_555
O9 W2 2.250928 1_555
O10 Zn2 2.097794 1_455
O10 W0 2.169535 1_465
O10 W0 2.173507 1_565
O10 W4 2.222964 1_556
O11 Zn2 2.005306 1_455
O11 Zn2 2.145996 1_555
O11 W7 2.207732 1_555
O11 W6 2.207732 1_555
O12 Zn0 2.005306 1_655
O12 Zn0 2.145996 1_555
O12 W0 2.207732 1_555
O12 W5 2.207732 1_555
O13 W4 2.225962 1_655
O13 W7 2.225962 1_654
O13 W4 2.250928 1_555
O13 W7 2.250928 1_554
O14 Zn3 2.097794 1_455
O14 W3 2.169535 1_455
O14 W3 2.173507 1_555
O14 W7 2.222964 1_554
O15 Zn1 2.097794 1_655
O15 W4 2.169535 1_645
O15 W4 2.173507 1_545
O15 W0 2.222964 1_554
