# generated using pymatgen
data_LiMg14Co
_symmetry_space_group_name_H-M   'P 1'
_cell_length_a   6.33831293
_cell_length_b   6.33831243
_cell_length_c   9.73932597
_cell_angle_alpha   90.00000000
_cell_angle_beta   90.00000000
_cell_angle_gamma   120.00000268
_symmetry_Int_Tables_number   1
_chemical_formula_structural   LiMg14Co
_chemical_formula_sum   'Li1 Mg14 Co1'
_cell_volume   338.84949377
_cell_formula_units_Z   1
loop_
 _symmetry_equiv_pos_site_id
 _symmetry_equiv_pos_as_xyz
  1  'x, y, z'
loop_
 _atom_site_type_symbol
 _atom_site_label
 _atom_site_symmetry_multiplicity
 _atom_site_fract_x
 _atom_site_fract_y
 _atom_site_fract_z
 _atom_site_occupancy
  Li  Li0  1  0.16666700  0.33333300  0.62500000  1
  Mg  Mg0  1  0.16425554  0.83212727  0.12500000  1
  Mg  Mg1  1  0.17043953  0.83521927  0.62500000  1
  Mg  Mg2  1  0.66787273  0.33574446  0.12500000  1
  Mg  Mg3  1  0.66478073  0.32956047  0.62500000  1
  Mg  Mg4  1  0.66787273  0.83212727  0.12500000  1
  Mg  Mg5  1  0.66478073  0.83521927  0.62500000  1
  Mg  Mg6  1  0.32580061  0.17419939  0.36493288  1
  Mg  Mg7  1  0.32580061  0.17419939  0.88506712  1
  Mg  Mg8  1  0.32580061  0.65160222  0.36493288  1
  Mg  Mg9  1  0.32580061  0.65160222  0.88506712  1
  Mg  Mg10  1  0.84839778  0.17419939  0.36493288  1
  Mg  Mg11  1  0.84839778  0.17419939  0.88506712  1
  Mg  Mg12  1  0.83333300  0.66666700  0.37860361  1
  Mg  Mg13  1  0.83333300  0.66666700  0.87139639  1
  Co  Co0  1  0.16666700  0.33333300  0.12500000  1
loop_
_geom_bond_atom_site_label_1
_geom_bond_atom_site_label_2
_geom_bond_distance
_geom_bond_site_symmetry_2
Li0 Mg6 3.076935 1_555
Li0 Mg7 3.076935 1_555
Li0 Mg9 3.076941 1_555
Li0 Mg8 3.076941 1_555
Li0 Mg11 3.076941 1_455
Li0 Mg10 3.076941 1_455
Li0 Mg1 3.169224 1_545
Li0 Mg5 3.169224 1_555
Li0 Mg5 3.169224 1_445
Li0 Mg1 3.169224 1_555
Li0 Mg3 3.169224 1_555
Li0 Mg3 3.169224 1_455
Mg0 Mg8 2.998304 1_555
Mg0 Mg9 2.998304 1_554
Mg0 Mg7 2.998311 1_564
Mg0 Mg6 2.998311 1_565
Mg0 Mg12 3.065966 1_455
Mg0 Mg13 3.065966 1_454
Mg0 Mg2 3.146229 1_455
Mg0 Mg4 3.146230 1_455
Mg0 Mg2 3.192083 1_565
Mg0 Mg4 3.192083 1_555
Mg1 Mg12 3.030313 1_455
Mg1 Mg13 3.030313 1_455
Mg1 Mg3 3.133289 1_565
Mg1 Mg5 3.133289 1_555
Mg1 Mg9 3.144152 1_555
Mg1 Mg8 3.144152 1_555
Mg1 Mg6 3.144158 1_565
Mg1 Mg7 3.144158 1_565
Mg1 Mg3 3.205023 1_455
Mg1 Mg5 3.205024 1_455
Mg2 Mg7 2.998311 1_554
Mg2 Mg6 2.998311 1_555
Mg2 Mg4 3.146229 1_555
Mg2 Mg4 3.192083 1_545
Mg3 Mg5 3.133289 1_545
Mg3 Mg6 3.144158 1_555
Mg3 Mg7 3.144158 1_555
Mg3 Mg5 3.205023 1_555
Mg4 Mg8 2.998311 1_555
Mg4 Mg9 2.998311 1_554
Mg5 Mg8 3.144158 1_555
Mg5 Mg9 3.144158 1_555
Mg6 Mg8 3.025928 1_555
Mg6 Mg8 3.312384 1_545
Mg7 Mg9 3.025928 1_555
Mg7 Mg9 3.312384 1_545
Mg10 Mg2 2.998304 1_555
Mg10 Mg4 2.998311 1_545
Mg10 Mg8 3.025928 1_655
Mg10 Mg6 3.025929 1_655
Mg10 Mg3 3.144152 1_555
Mg10 Mg5 3.144158 1_545
Mg10 Mg12 3.173030 1_545
Mg10 Mg12 3.173030 1_555
Mg10 Mg8 3.312384 1_545
Mg10 Mg6 3.312384 1_555
Mg11 Mg2 2.998304 1_556
Mg11 Mg4 2.998311 1_546
Mg11 Mg9 3.025928 1_655
Mg11 Mg7 3.025929 1_655
Mg11 Mg3 3.144152 1_555
Mg11 Mg5 3.144158 1_545
Mg11 Mg13 3.173030 1_545
Mg11 Mg13 3.173030 1_555
Mg11 Mg9 3.312384 1_545
Mg11 Mg7 3.312384 1_555
Mg12 Mg5 3.030307 1_555
Mg12 Mg3 3.030313 1_555
Mg12 Mg4 3.065959 1_555
Mg12 Mg2 3.065966 1_555
Mg12 Mg6 3.173030 1_665
Mg12 Mg6 3.173030 1_555
Mg12 Mg8 3.173030 1_555
Mg12 Mg8 3.173030 1_655
Mg13 Mg5 3.030307 1_555
Mg13 Mg3 3.030313 1_555
Mg13 Mg4 3.065959 1_556
Mg13 Mg2 3.065966 1_556
Mg13 Mg7 3.173030 1_665
Mg13 Mg7 3.173030 1_555
Mg13 Mg9 3.173030 1_555
Mg13 Mg9 3.173030 1_655
Co0 Mg6 2.917639 1_555
Co0 Mg7 2.917639 1_554
Co0 Mg9 2.917645 1_554
Co0 Mg8 2.917645 1_555
Co0 Mg10 2.917646 1_455
Co0 Mg11 2.917646 1_454
Co0 Mg4 3.169184 1_445
Co0 Mg4 3.169184 1_555
Co0 Mg0 3.169184 1_545
Co0 Mg0 3.169184 1_555
Co0 Mg2 3.169184 1_555
Co0 Mg2 3.169184 1_455
