# generated using pymatgen
data_Mg(CuO2)2
_symmetry_space_group_name_H-M   'P 1'
_cell_length_a   5.94437101
_cell_length_b   5.94425588
_cell_length_c   17.72951204
_cell_angle_alpha   59.80137866
_cell_angle_beta   59.79965464
_cell_angle_gamma   59.99587280
_symmetry_Int_Tables_number   1
_chemical_formula_structural   Mg(CuO2)2
_chemical_formula_sum   'Mg6 Cu12 O24'
_cell_volume   441.62702384
_cell_formula_units_Z   6
loop_
 _symmetry_equiv_pos_site_id
 _symmetry_equiv_pos_as_xyz
  1  'x, y, z'
loop_
 _atom_site_type_symbol
 _atom_site_label
 _atom_site_symmetry_multiplicity
 _atom_site_fract_x
 _atom_site_fract_y
 _atom_site_fract_z
 _atom_site_occupancy
  Mg  Mg0  1  0.11798300  0.11812600  0.04864400  1
  Mg  Mg1  1  0.11944400  0.11959400  0.38050100  1
  Mg  Mg2  1  0.49871600  0.49872000  0.33465600  1
  Mg  Mg3  1  0.12064200  0.12065100  0.71269900  1
  Mg  Mg4  1  0.49886700  0.49876900  0.00109700  1
  Mg  Mg5  1  0.87725100  0.87722600  0.62278600  1
  Cu  Cu0  1  0.49884000  0.49884200  0.16688000  1
  Cu  Cu1  1  0.49892700  0.00166700  0.16685100  1
  Cu  Cu2  1  0.49978700  0.49980500  0.49962100  1
  Cu  Cu3  1  0.00175800  0.49888400  0.16684900  1
  Cu  Cu4  1  0.49988100  0.00148900  0.49961900  1
  Cu  Cu5  1  0.50075500  0.50076200  0.66591700  1
  Cu  Cu6  1  0.87992800  0.87982800  0.28677900  1
  Cu  Cu7  1  0.49894900  0.49894900  0.83403200  1
  Cu  Cu8  1  0.00146500  0.49990700  0.49961300  1
  Cu  Cu9  1  0.49895300  0.99986700  0.83404800  1
  Cu  Cu10  1  0.99989900  0.49895500  0.83404700  1
  Cu  Cu11  1  0.87754000  0.87746900  0.95580700  1
  O  O0  1  0.25625800  0.25642500  0.09202000  1
  O  O1  1  0.25605600  0.25638200  0.24373300  1
  O  O2  1  0.25639000  0.71111600  0.09213500  1
  O  O3  1  0.71101900  0.25653400  0.09214300  1
  O  O4  1  0.25522200  0.25524700  0.42524300  1
  O  O5  1  0.28587900  0.74648700  0.24020600  1
  O  O6  1  0.25744100  0.25756100  0.57573900  1
  O  O7  1  0.74666500  0.28583400  0.24019300  1
  O  O8  1  0.74603700  0.74559200  0.08758400  1
  O  O9  1  0.25522500  0.71398700  0.42523900  1
  O  O10  1  0.71390800  0.25527900  0.42523400  1
  O  O11  1  0.74675300  0.74656200  0.24032900  1
  O  O12  1  0.26369200  0.26339200  0.75346800  1
  O  O13  1  0.28920600  0.73934200  0.57728600  1
  O  O14  1  0.73937100  0.28922100  0.57726700  1
  O  O15  1  0.25855400  0.25849700  0.90811800  1
  O  O16  1  0.74729300  0.74724900  0.41954900  1
  O  O17  1  0.26358000  0.71273900  0.75334000  1
  O  O18  1  0.71265100  0.26337400  0.75339900  1
  O  O19  1  0.73947800  0.73944400  0.57729200  1
  O  O20  1  0.27766200  0.74696000  0.90960200  1
  O  O21  1  0.74676000  0.27754400  0.90965900  1
  O  O22  1  0.73871100  0.73877100  0.76120400  1
  O  O23  1  0.74660600  0.74694900  0.90957100  1
loop_
_geom_bond_atom_site_label_1
_geom_bond_atom_site_label_2
_geom_bond_distance
_geom_bond_site_symmetry_2
Mg0 O0 1.972460 1_555
Mg0 O3 1.973501 1_455
Mg0 O2 1.973722 1_545
Mg0 O15 2.028133 1_554
Mg1 O10 1.966288 1_455
Mg1 O9 1.966629 1_545
Mg1 O4 1.967080 1_555
Mg1 O1 1.973896 1_555
Mg2 O10 2.046173 1_555
Mg2 O4 2.046227 1_555
Mg2 O9 2.046464 1_555
Mg2 O11 2.086706 1_555
Mg2 O5 2.088233 1_555
Mg2 O7 2.088523 1_555
Mg3 O6 1.976667 1_555
Mg3 O17 1.979469 1_545
Mg3 O18 1.979828 1_455
Mg3 O12 1.980507 1_555
Mg4 O0 2.038727 1_555
Mg4 O3 2.040350 1_555
Mg4 O2 2.040940 1_555
Mg4 O21 2.081369 1_554
Mg4 O20 2.082112 1_554
Mg4 O23 2.082939 1_554
Mg5 O13 1.997405 1_655
Mg5 O14 1.997593 1_565
Mg5 O22 1.997709 1_555
Mg5 O19 1.998011 1_555
Cu0 O3 1.960324 1_555
Cu0 O2 1.961096 1_555
Cu0 O5 1.966059 1_555
Cu0 O7 1.966759 1_555
Cu0 O1 2.035419 1_555
Cu0 O8 2.071192 1_555
Cu1 O3 1.962309 1_555
Cu1 O0 1.963100 1_555
Cu1 O5 1.968698 1_545
Cu1 O11 1.968770 1_545
Cu1 O1 2.035924 1_555
Cu1 O8 2.070929 1_545
Cu2 O10 1.965074 1_555
Cu2 O9 1.965221 1_555
Cu2 O13 1.986475 1_555
Cu2 O14 1.986506 1_555
Cu2 O6 2.033193 1_555
Cu2 O16 2.075052 1_555
Cu3 O2 1.961827 1_555
Cu3 O0 1.962049 1_555
Cu3 O11 1.968074 1_455
Cu3 O7 1.968325 1_455
Cu3 O1 2.034221 1_555
Cu3 O8 2.069460 1_455
Cu4 O4 1.965607 1_555
Cu4 O10 1.965657 1_555
Cu4 O19 1.986888 1_545
Cu4 O13 1.987680 1_545
Cu4 O6 2.032527 1_555
Cu4 O16 2.072941 1_545
Cu5 O17 1.991832 1_555
Cu5 O18 1.992355 1_555
Cu5 O12 1.992683 1_555
Cu5 O19 2.005812 1_555
Cu5 O13 2.006084 1_555
Cu5 O14 2.006232 1_555
Cu6 O16 1.916196 1_555
Cu6 O11 1.967691 1_555
Cu6 O5 1.968269 1_655
Cu6 O7 1.968533 1_565
Cu7 O21 1.993188 1_555
Cu7 O20 1.993319 1_555
Cu7 O17 2.006421 1_555
Cu7 O18 2.006515 1_555
Cu7 O22 2.014847 1_555
Cu7 O15 2.018902 1_555
Cu8 O4 1.965471 1_555
Cu8 O9 1.965749 1_555
Cu8 O19 1.986622 1_455
Cu8 O14 1.987493 1_455
Cu8 O6 2.032257 1_555
Cu8 O16 2.072651 1_455
Cu9 O20 1.990973 1_555
Cu9 O23 1.991181 1_555
Cu9 O12 2.004572 1_565
Cu9 O18 2.005286 1_565
Cu9 O22 2.015035 1_555
Cu9 O15 2.018906 1_565
Cu10 O21 1.992463 1_555
Cu10 O23 1.992646 1_555
Cu10 O12 2.005802 1_655
Cu10 O17 2.006392 1_655
Cu10 O22 2.015499 1_555
Cu10 O15 2.019099 1_655
Cu11 O8 1.901864 1_556
Cu11 O21 1.939802 1_565
Cu11 O20 1.940040 1_655
Cu11 O23 1.940441 1_555
