# generated using pymatgen
data_Ca2Mg
_symmetry_space_group_name_H-M   'P 1'
_cell_length_a   6.27070975
_cell_length_b   6.27070975
_cell_length_c   6.92287513
_cell_angle_alpha   64.91722046
_cell_angle_beta   64.91722046
_cell_angle_gamma   63.59766270
_symmetry_Int_Tables_number   1
_chemical_formula_structural   Ca2Mg
_chemical_formula_sum   'Ca4 Mg2'
_cell_volume   211.32861832
_cell_formula_units_Z   2
loop_
 _symmetry_equiv_pos_site_id
 _symmetry_equiv_pos_as_xyz
  1  'x, y, z'
loop_
 _atom_site_type_symbol
 _atom_site_label
 _atom_site_symmetry_multiplicity
 _atom_site_fract_x
 _atom_site_fract_y
 _atom_site_fract_z
 _atom_site_occupancy
  Ca  Ca0  1  0.20737750  0.45682668  0.21879742  1
  Ca  Ca1  1  0.54317332  0.79262250  0.28120258  1
  Ca  Ca2  1  0.45682668  0.20737750  0.71879742  1
  Ca  Ca3  1  0.79262250  0.54317332  0.78120258  1
  Mg  Mg0  1  0.07929017  0.92070983  0.75000000  1
  Mg  Mg1  1  0.92070983  0.07929017  0.25000000  1
loop_
_geom_bond_atom_site_label_1
_geom_bond_atom_site_label_2
_geom_bond_distance
_geom_bond_site_symmetry_2
Ca0 Mg0 3.430383 1_554
Ca0 Mg1 3.450321 1_455
Ca0 Mg1 3.557978 1_465
Ca1 Mg0 3.430383 1_555
Ca1 Mg1 3.450321 1_565
Ca1 Mg1 3.557978 1_465
Ca2 Mg1 3.430383 1_555
Ca2 Mg0 3.450321 1_545
Ca2 Mg0 3.557978 1_645
Ca3 Mg1 3.430383 1_556
Ca3 Mg0 3.450321 1_655
Ca3 Mg0 3.557978 1_645
