# generated using pymatgen
data_Sr2Sb2(SO3)5
_symmetry_space_group_name_H-M   'P 1'
_cell_length_a   9.31993745
_cell_length_b   9.31993745
_cell_length_c   12.77291261
_cell_angle_alpha   83.37981312
_cell_angle_beta   83.37981312
_cell_angle_gamma   47.39559389
_symmetry_Int_Tables_number   1
_chemical_formula_structural   Sr2Sb2(SO3)5
_chemical_formula_sum   'Sr4 Sb4 S10 O30'
_cell_volume   810.12231206
_cell_formula_units_Z   2
loop_
 _symmetry_equiv_pos_site_id
 _symmetry_equiv_pos_as_xyz
  1  'x, y, z'
loop_
 _atom_site_type_symbol
 _atom_site_label
 _atom_site_symmetry_multiplicity
 _atom_site_fract_x
 _atom_site_fract_y
 _atom_site_fract_z
 _atom_site_occupancy
  Sr  Sr0  1  0.43530900  0.27655400  0.98242700  1
  Sr  Sr1  1  0.56469100  0.72344600  0.01757300  1
  Sr  Sr2  1  0.72344600  0.56469100  0.51757300  1
  Sr  Sr3  1  0.27655400  0.43530900  0.48242700  1
  Sb  Sb0  1  0.15094800  0.10472700  0.75564100  1
  Sb  Sb1  1  0.84905200  0.89527300  0.24435900  1
  Sb  Sb2  1  0.89527300  0.84905200  0.74435900  1
  Sb  Sb3  1  0.10472700  0.15094800  0.25564100  1
  S  S0  1  0.23355100  0.02865500  0.49719400  1
  S  S1  1  0.76644900  0.97134500  0.50280600  1
  S  S2  1  0.97134500  0.76644900  0.00280600  1
  S  S3  1  0.02865500  0.23355100  0.99719400  1
  S  S4  1  0.28420500  0.71579500  0.75000000  1
  S  S5  1  0.71579500  0.28420500  0.25000000  1
  S  S6  1  0.49413800  0.06540500  0.77123400  1
  S  S7  1  0.50586200  0.93459500  0.22876600  1
  S  S8  1  0.93459500  0.50586200  0.72876600  1
  S  S9  1  0.06540500  0.49413800  0.27123400  1
  O  O0  1  0.80602100  0.09270200  0.81933500  1
  O  O1  1  0.19397900  0.90729800  0.18066500  1
  O  O2  1  0.90729800  0.19397900  0.68066500  1
  O  O3  1  0.09270200  0.80602100  0.31933500  1
  O  O4  1  0.39399900  0.27355200  0.78697000  1
  O  O5  1  0.60600100  0.72644800  0.21303000  1
  O  O6  1  0.72644800  0.60600100  0.71303000  1
  O  O7  1  0.27355200  0.39399900  0.28697000  1
  O  O8  1  0.52463000  0.96345800  0.88001100  1
  O  O9  1  0.47537000  0.03654200  0.11998900  1
  O  O10  1  0.03654200  0.47537000  0.61998900  1
  O  O11  1  0.96345800  0.52463000  0.38001100  1
  O  O12  1  0.40094200  0.62254800  0.65067800  1
  O  O13  1  0.59905800  0.37745200  0.34932200  1
  O  O14  1  0.37745200  0.59905800  0.84932200  1
  O  O15  1  0.62254800  0.40094200  0.15067800  1
  O  O16  1  0.13573500  0.05348300  0.91605200  1
  O  O17  1  0.86426500  0.94651700  0.08394800  1
  O  O18  1  0.94651700  0.86426500  0.58394800  1
  O  O19  1  0.05348300  0.13573500  0.41605200  1
  O  O20  1  0.60225700  0.16442400  0.55142900  1
  O  O21  1  0.39774300  0.83557600  0.44857100  1
  O  O22  1  0.83557600  0.39774300  0.94857100  1
  O  O23  1  0.16442400  0.60225700  0.05142900  1
  O  O24  1  0.74172700  0.25827300  0.75000000  1
  O  O25  1  0.25827300  0.74172700  0.25000000  1
  O  O26  1  0.28287100  0.15265000  0.48515500  1
  O  O27  1  0.71712900  0.84735000  0.51484500  1
  O  O28  1  0.84735000  0.71712900  0.01484500  1
  O  O29  1  0.15265000  0.28287100  0.98515500  1
loop_
_geom_bond_atom_site_label_1
_geom_bond_atom_site_label_2
_geom_bond_distance
_geom_bond_site_symmetry_2
O0 O24 1.442205 1_555
O0 Sb2 2.127442 1_545
O0 Sr0 3.218876 1_555
O1 O25 1.442205 1_555
O1 Sb3 2.127442 1_565
O1 Sr1 3.218876 1_555
O2 O24 1.442205 1_555
O2 Sb0 2.127442 1_655
O2 Sr2 3.218876 1_555
O3 Sb1 2.127442 1_455
O3 Sr3 3.218876 1_555
O4 S6 1.506711 1_555
O4 Sr0 2.575678 1_555
O5 S7 1.506711 1_555
O5 Sr1 2.575678 1_555
O6 S8 1.506711 1_555
O6 Sr2 2.575678 1_555
O7 S9 1.506711 1_555
O7 Sr3 2.575678 1_555
O8 S6 1.528086 1_565
O8 Sr1 2.518867 1_556
O8 Sr0 2.873932 1_565
O9 S7 1.528086 1_545
O9 Sr0 2.518867 1_554
O9 Sr1 2.873932 1_545
O10 S8 1.528086 1_455
O10 Sr3 2.518867 1_555
O10 Sr2 2.873932 1_455
O11 S9 1.528086 1_655
O11 Sr2 2.518867 1_555
O11 Sr3 2.873932 1_655
O12 S4 1.484670 1_555
O12 Sr2 3.009053 1_555
O13 S5 1.484670 1_555
O13 Sr3 3.009053 1_555
O14 S4 1.484670 1_555
O14 Sr0 3.009053 1_555
O15 S5 1.484670 1_555
O15 Sr1 3.009053 1_555
O16 S3 1.667820 1_555
O16 Sb0 2.060417 1_555
O16 Sr1 3.279119 1_546
O17 S2 1.667820 1_555
O17 Sb1 2.060417 1_555
O17 Sr0 3.279119 1_564
O18 S1 1.667820 1_555
O18 Sb2 2.060417 1_555
O18 Sr3 3.279119 1_655
O19 S0 1.667820 1_555
O19 Sb3 2.060417 1_555
O19 Sr2 3.279119 1_455
O20 S1 1.508640 1_545
O20 Sr3 2.468471 1_555
O21 S0 1.508640 1_565
O21 Sr2 2.468471 1_555
O22 S3 1.508640 1_655
O22 Sr1 2.468471 1_556
O23 S2 1.508640 1_455
O23 Sr0 2.468471 1_554
O25 O3 1.442205 1_555
O26 S0 1.494087 1_555
O26 Sr3 2.591116 1_555
O27 S1 1.494087 1_555
O27 Sr2 2.591116 1_555
O28 S2 1.494087 1_555
O28 Sr1 2.591116 1_555
O29 S3 1.494087 1_555
O29 Sr0 2.591116 1_555
