# generated using pymatgen
data_Na3Ti8O16
_symmetry_space_group_name_H-M   'P 1'
_cell_length_a   2.97775900
_cell_length_b   9.29227800
_cell_length_c   10.80274973
_cell_angle_alpha   89.89330310
_cell_angle_beta   90.00000000
_cell_angle_gamma   90.00000000
_symmetry_Int_Tables_number   1
_chemical_formula_structural   Na3Ti8O16
_chemical_formula_sum   'Na3 Ti8 O16'
_cell_volume   298.91334323
_cell_formula_units_Z   1
loop_
 _symmetry_equiv_pos_site_id
 _symmetry_equiv_pos_as_xyz
  1  'x, y, z'
loop_
 _atom_site_type_symbol
 _atom_site_label
 _atom_site_symmetry_multiplicity
 _atom_site_fract_x
 _atom_site_fract_y
 _atom_site_fract_z
 _atom_site_occupancy
  Na  Na0  1  0.50000000  0.75730200  0.34641700  1
  Na  Na1  1  0.00000000  0.74254400  0.84692300  1
  Na  Na2  1  0.00000000  0.24276500  0.65317400  1
  Ti  Ti0  1  0.50000000  0.43350200  0.38440500  1
  Ti  Ti1  1  0.50000000  0.94289400  0.11142900  1
  Ti  Ti2  1  0.00000000  0.56208800  0.61015600  1
  Ti  Ti3  1  0.00000000  0.06466600  0.89159200  1
  Ti  Ti4  1  0.50000000  0.41613300  0.90221700  1
  Ti  Ti5  1  0.50000000  0.91917000  0.60241400  1
  Ti  Ti6  1  0.00000000  0.58166000  0.10422100  1
  Ti  Ti7  1  0.00000000  0.08483200  0.39308600  1
  O  O0  1  0.50000000  0.20742800  0.84979400  1
  O  O1  1  0.50000000  0.70762900  0.64826900  1
  O  O2  1  0.00000000  0.79315800  0.14729800  1
  O  O3  1  0.00000000  0.29327200  0.36026800  1
  O  O4  1  0.50000000  0.11207500  0.52035800  1
  O  O5  1  0.50000000  0.61371600  0.98047800  1
  O  O6  1  0.00000000  0.88679500  0.48036300  1
  O  O7  1  0.00000000  0.38841200  0.01370500  1
  O  O8  1  0.50000000  0.42184300  0.57036800  1
  O  O9  1  0.50000000  0.92104000  0.92752300  1
  O  O10  1  0.00000000  0.57736000  0.42857600  1
  O  O11  1  0.00000000  0.07433700  0.07026700  1
  O  O12  1  0.50000000  0.01661500  0.28409000  1
  O  O13  1  0.50000000  0.52659300  0.21909100  1
  O  O14  1  0.00000000  0.97749200  0.71740300  1
  O  O15  1  0.00000000  0.47793000  0.78239500  1
loop_
_geom_bond_atom_site_label_1
_geom_bond_atom_site_label_2
_geom_bond_distance
_geom_bond_site_symmetry_2
Na0 O6 2.401022 1_655
Na0 O6 2.401022 1_555
Na0 O10 2.407237 1_555
Na0 O10 2.407237 1_655
Na0 O12 2.500701 1_565
Na0 O13 2.549281 1_555
Na0 O2 2.636673 1_655
Na0 O2 2.636673 1_555
Na1 O5 2.392687 1_455
Na1 O5 2.392687 1_555
Na1 O9 2.394020 1_455
Na1 O9 2.394020 1_555
Na1 O15 2.557016 1_555
Na1 O14 2.590884 1_555
Na1 O1 2.632484 1_455
Na1 O1 2.632484 1_555
Na2 O4 2.399297 1_455
Na2 O4 2.399297 1_555
Na2 O8 2.404255 1_455
Na2 O8 2.404255 1_555
Na2 O14 2.559538 1_545
Na2 O15 2.595226 1_555
Na2 O0 2.614100 1_455
Na2 O0 2.614100 1_555
O0 Ti4 2.021351 1_555
O0 Ti3 2.044074 1_555
O0 Ti3 2.044074 1_655
O1 Ti5 2.026258 1_555
O1 Ti2 2.053621 1_555
O1 Ti2 2.053621 1_655
O2 Ti6 2.020484 1_555
O2 Ti1 2.073851 1_455
O2 Ti1 2.073851 1_555
O3 Ti7 1.968411 1_555
O3 Ti0 1.995989 1_455
O3 Ti0 1.995989 1_555
O4 Ti5 1.998248 1_545
O4 Ti7 2.042660 1_555
O4 Ti7 2.042660 1_655
O5 Ti6 2.022609 1_556
O5 Ti6 2.022609 1_656
O5 Ti4 2.022726 1_555
O6 Ti5 2.011753 1_455
O6 Ti5 2.011753 1_555
O6 Ti7 2.066122 1_565
O7 Ti4 1.931964 1_454
O7 Ti4 1.931964 1_554
O7 Ti6 2.046281 1_555
O8 Ti0 2.011629 1_555
O8 Ti2 2.025318 1_555
O8 Ti2 2.025318 1_655
O9 Ti1 1.997418 1_556
O9 Ti3 2.036342 1_565
O9 Ti3 2.036342 1_665
O10 Ti2 1.966426 1_555
O10 Ti0 2.057615 1_455
O10 Ti0 2.057615 1_555
O11 Ti3 1.932439 1_554
O11 Ti1 1.975929 1_445
O11 Ti1 1.975929 1_545
O12 Ti1 1.988229 1_545
O12 Ti7 2.001940 1_655
O12 Ti7 2.001940 1_555
O13 Ti0 1.982868 1_555
O13 Ti6 2.004020 1_655
O13 Ti6 2.004020 1_555
O14 Ti5 2.013958 1_455
O14 Ti5 2.013958 1_555
O14 Ti3 2.050054 1_565
O15 Ti2 2.016971 1_555
O15 Ti4 2.054076 1_555
O15 Ti4 2.054076 1_455
