# generated using pymatgen
data_Ho3(Co2Sn)4
_symmetry_space_group_name_H-M   'P 1'
_cell_length_a   7.56830000
_cell_length_b   8.80951270
_cell_length_c   8.80951270
_cell_angle_alpha   120.00000529
_cell_angle_beta   90.00000000
_cell_angle_gamma   90.00000000
_symmetry_Int_Tables_number   1
_chemical_formula_structural   Ho3(Co2Sn)4
_chemical_formula_sum   'Ho6 Co16 Sn8'
_cell_volume   508.66601168
_cell_formula_units_Z   2
loop_
 _symmetry_equiv_pos_site_id
 _symmetry_equiv_pos_as_xyz
  1  'x, y, z'
loop_
 _atom_site_type_symbol
 _atom_site_label
 _atom_site_symmetry_multiplicity
 _atom_site_fract_x
 _atom_site_fract_y
 _atom_site_fract_z
 _atom_site_occupancy
  Ho  Ho0  1  0.78488400  0.47528700  0.95057400  1
  Ho  Ho1  1  0.78488400  0.47528700  0.52471300  1
  Ho  Ho2  1  0.28488400  0.52471300  0.04942600  1
  Ho  Ho3  1  0.78488400  0.04942600  0.52471300  1
  Ho  Ho4  1  0.28488400  0.52471300  0.47528700  1
  Ho  Ho5  1  0.28488400  0.95057400  0.47528700  1
  Co  Co0  1  0.62842900  0.66666700  0.33333300  1
  Co  Co1  1  0.12842900  0.33333300  0.66666700  1
  Co  Co2  1  0.75496200  0.09900700  0.19801400  1
  Co  Co3  1  0.75496200  0.09900700  0.90099300  1
  Co  Co4  1  0.25496200  0.90099300  0.80198600  1
  Co  Co5  1  0.75496200  0.80198600  0.90099300  1
  Co  Co6  1  0.25496200  0.90099300  0.09900700  1
  Co  Co7  1  0.25496200  0.19801400  0.09900700  1
  Co  Co8  1  0.94130400  0.83960300  0.67920600  1
  Co  Co9  1  0.94130400  0.83960300  0.16039700  1
  Co  Co10  1  0.44130400  0.16039700  0.32079400  1
  Co  Co11  1  0.94130400  0.32079400  0.16039700  1
  Co  Co12  1  0.44130400  0.16039700  0.83960300  1
  Co  Co13  1  0.44130400  0.67920600  0.83960300  1
  Co  Co14  1  0.99657200  0.00000000  0.00000000  1
  Co  Co15  1  0.49657200  0.00000000  0.00000000  1
  Sn  Sn0  1  0.97868600  0.66666700  0.33333300  1
  Sn  Sn1  1  0.47868600  0.33333300  0.66666700  1
  Sn  Sn2  1  0.57265400  0.82905300  0.65810600  1
  Sn  Sn3  1  0.57265400  0.82905300  0.17094700  1
  Sn  Sn4  1  0.07265400  0.17094700  0.34189400  1
  Sn  Sn5  1  0.57265400  0.34189400  0.17094700  1
  Sn  Sn6  1  0.07265400  0.17094700  0.82905300  1
  Sn  Sn7  1  0.07265400  0.65810600  0.82905300  1
loop_
_geom_bond_atom_site_label_1
_geom_bond_atom_site_label_2
_geom_bond_distance
_geom_bond_site_symmetry_2
Ho0 Sn3 3.164046 1_556
Ho0 Sn5 3.164046 1_556
Ho0 Sn1 3.172049 1_555
Ho0 Sn6 3.194910 1_655
Ho0 Sn7 3.194910 1_655
Ho0 Sn0 3.267835 1_556
Ho1 Sn5 3.164046 1_555
Ho1 Sn2 3.164046 1_555
Ho1 Sn1 3.172054 1_555
Ho1 Sn4 3.194910 1_655
Ho1 Sn7 3.194910 1_655
Ho1 Sn0 3.267842 1_555
Ho2 Sn6 3.164046 1_554
Ho2 Sn7 3.164046 1_554
Ho2 Sn0 3.172049 1_455
Ho2 Sn3 3.194910 1_555
Ho2 Sn5 3.194910 1_555
Ho2 Sn1 3.267835 1_554
Ho3 Sn3 3.164046 1_545
Ho3 Sn2 3.164046 1_545
Ho3 Sn1 3.172049 1_555
Ho3 Sn6 3.194910 1_655
Ho3 Sn4 3.194910 1_655
Ho3 Sn0 3.267835 1_545
Ho4 Sn7 3.164046 1_555
Ho4 Sn4 3.164046 1_555
Ho4 Sn0 3.172054 1_455
Ho4 Sn5 3.194910 1_555
Ho4 Sn2 3.194910 1_555
Ho4 Sn1 3.267842 1_555
Ho5 Sn6 3.164046 1_565
Ho5 Sn4 3.164046 1_565
Ho5 Sn0 3.172049 1_455
Ho5 Sn3 3.194910 1_555
Ho5 Sn2 3.194910 1_555
Ho5 Sn1 3.267835 1_565
Co0 Sn3 2.513471 1_555
Co0 Sn2 2.513478 1_555
Co0 Sn5 2.513478 1_555
Co0 Sn0 2.650850 1_555
Co0 Ho3 3.151107 1_565
Co0 Ho0 3.151107 1_554
Co0 Ho1 3.151114 1_555
Co0 Ho2 3.384055 1_555
Co0 Ho5 3.384055 1_555
Co0 Ho4 3.384060 1_555
Co1 Sn6 2.513471 1_555
Co1 Sn7 2.513478 1_555
Co1 Sn4 2.513478 1_555
Co1 Sn1 2.650850 1_555
Co1 Ho5 3.151107 1_545
Co1 Ho2 3.151107 1_556
Co1 Ho4 3.151114 1_555
Co1 Ho3 3.384055 1_455
Co1 Ho0 3.384055 1_455
Co1 Ho1 3.384060 1_455
Co2 Co9 2.561970 1_545
Co2 Co5 2.616610 1_544
Co2 Co3 2.616610 1_554
Co2 Sn4 2.643109 1_655
Co2 Sn3 2.655032 1_545
Co2 Sn5 2.655032 1_555
Co2 Ho1 3.127679 1_555
Co2 Ho3 3.127680 1_555
Co3 Co8 2.561970 1_545
Co3 Co5 2.616610 1_545
Co3 Sn6 2.643109 1_655
Co3 Sn5 2.655032 1_556
Co3 Sn2 2.655032 1_545
Co3 Ho0 3.127679 1_555
Co3 Ho3 3.127679 1_555
Co4 Co8 2.551989 1_455
Co4 Co7 2.616610 1_566
Co4 Co6 2.616610 1_556
Co4 Sn2 2.643109 1_555
Co4 Sn6 2.655032 1_565
Co4 Sn7 2.655032 1_555
Co4 Ho4 3.127679 1_555
Co4 Ho5 3.127680 1_555
Co5 Co9 2.561970 1_556
Co5 Co8 2.561970 1_555
Co5 Sn7 2.643109 1_655
Co5 Sn3 2.655032 1_556
Co5 Sn2 2.655032 1_555
Co5 Ho1 3.127679 1_555
Co5 Ho0 3.127680 1_555
Co6 Co9 2.551989 1_455
Co6 Co7 2.616610 1_565
Co6 Sn3 2.643109 1_555
Co6 Sn4 2.655032 1_565
Co6 Sn7 2.655032 1_554
Co6 Ho5 3.127679 1_555
Co6 Ho2 3.127679 1_555
Co7 Sn5 2.643109 1_555
Co7 Sn6 2.655032 1_554
Co7 Sn4 2.655032 1_555
Co7 Ho4 3.127679 1_555
Co7 Ho2 3.127680 1_555
Co8 Sn0 2.653879 1_555
Co8 Sn6 2.719925 1_665
Co8 Sn7 2.719925 1_655
Co8 Sn2 2.794694 1_555
Co8 Ho1 3.030886 1_555
Co8 Ho3 3.030886 1_565
Co9 Sn0 2.653872 1_555
Co9 Sn7 2.719925 1_654
Co9 Sn4 2.719925 1_665
Co9 Sn3 2.794694 1_555
Co9 Ho3 3.030886 1_565
Co9 Ho0 3.030886 1_554
Co10 Co15 2.482908 1_555
Co10 Co2 2.551989 1_555
Co10 Co6 2.561970 1_545
Co10 Co7 2.561970 1_555
Co10 Sn1 2.653879 1_555
Co10 Sn3 2.719925 1_545
Co10 Sn5 2.719925 1_555
Co10 Sn4 2.794694 1_555
Co10 Ho4 3.030886 1_555
Co10 Ho5 3.030886 1_545
Co11 Co14 2.482908 1_555
Co11 Co7 2.551989 1_655
Co11 Co3 2.561970 1_554
Co11 Co2 2.561970 1_555
Co11 Sn0 2.653879 1_555
Co11 Sn6 2.719925 1_654
Co11 Sn4 2.719925 1_655
Co11 Sn5 2.794694 1_555
Co11 Ho1 3.030886 1_555
Co11 Ho0 3.030886 1_554
Co12 Co15 2.482908 1_556
Co12 Co3 2.551989 1_555
Co12 Co4 2.561970 1_545
Co12 Co7 2.561970 1_556
Co12 Sn1 2.653872 1_555
Co12 Sn2 2.719925 1_545
Co12 Sn5 2.719925 1_556
Co12 Sn6 2.794694 1_555
Co12 Ho2 3.030886 1_556
Co12 Ho5 3.030886 1_545
Co13 Co15 2.482908 1_566
Co13 Co5 2.551989 1_555
Co13 Co6 2.561970 1_556
Co13 Co4 2.561970 1_555
Co13 Sn1 2.653879 1_555
Co13 Sn3 2.719925 1_556
Co13 Sn2 2.719925 1_555
Co13 Sn7 2.794694 1_555
Co13 Ho4 3.030886 1_555
Co13 Ho2 3.030886 1_556
Co14 Co2 2.371900 1_555
Co14 Co5 2.371900 1_544
Co14 Co3 2.371900 1_554
Co14 Co4 2.471130 1_644
Co14 Co7 2.471130 1_655
Co14 Co6 2.471130 1_645
Co14 Co8 2.482908 1_544
Co14 Co9 2.482908 1_545
Co14 Sn4 2.671199 1_655
Co14 Sn7 2.671199 1_644
Co14 Sn6 2.671199 1_654
Co15 Co7 2.371900 1_555
Co15 Co4 2.371900 1_544
Co15 Co6 2.371900 1_545
Co15 Co2 2.471130 1_555
Co15 Co5 2.471130 1_544
Co15 Co3 2.471130 1_554
Co15 Sn5 2.671199 1_555
Co15 Sn2 2.671199 1_544
Co15 Sn3 2.671199 1_545
