# generated using pymatgen
data_K2Be2NiH6F8
_symmetry_space_group_name_H-M   'P 1'
_cell_length_a   5.93600060
_cell_length_b   7.89941518
_cell_length_c   11.72364200
_cell_angle_alpha   90.00000000
_cell_angle_beta   90.00000000
_cell_angle_gamma   103.54130400
_symmetry_Int_Tables_number   1
_chemical_formula_structural   K2Be2NiH6F8
_chemical_formula_sum   'K4 Be4 Ni2 H12 F16'
_cell_volume   534.45070869
_cell_formula_units_Z   2
loop_
 _symmetry_equiv_pos_site_id
 _symmetry_equiv_pos_as_xyz
  1  'x, y, z'
loop_
 _atom_site_type_symbol
 _atom_site_label
 _atom_site_symmetry_multiplicity
 _atom_site_fract_x
 _atom_site_fract_y
 _atom_site_fract_z
 _atom_site_occupancy
  K  K0  1  0.81212500  0.62875800  0.14511100  1
  K  K1  1  0.18787500  0.37124200  0.85488900  1
  K  K2  1  0.18787500  0.87124200  0.64511100  1
  K  K3  1  0.81212500  0.12875800  0.35488900  1
  Be  Be0  1  0.77031200  0.63711000  0.82083900  1
  Be  Be1  1  0.22968800  0.36289000  0.17916100  1
  Be  Be2  1  0.22968800  0.86289000  0.32083900  1
  Be  Be3  1  0.77031200  0.13711000  0.67916100  1
  Ni  Ni0  1  0.50000000  0.00000000  0.00000000  1
  Ni  Ni1  1  0.50000000  0.50000000  0.50000000  1
  H  H0  1  0.62094300  0.94955300  0.88998800  1
  H  H1  1  0.37905700  0.05044700  0.11001200  1
  H  H2  1  0.37905700  0.55044700  0.38998800  1
  H  H3  1  0.62094300  0.44955300  0.61001200  1
  H  H4  1  0.61439400  0.73527400  0.56823400  1
  H  H5  1  0.38560600  0.26472600  0.43176600  1
  H  H6  1  0.38560600  0.76472600  0.06823400  1
  H  H7  1  0.61439400  0.23527400  0.93176600  1
  H  H8  1  0.51328700  0.86503400  0.90286300  1
  H  H9  1  0.48671300  0.13496600  0.09713700  1
  H  H10  1  0.48671300  0.63496600  0.40286300  1
  H  H11  1  0.51328700  0.36503400  0.59713700  1
  F  F0  1  0.52823300  0.63236600  0.78484700  1
  F  F1  1  0.47176700  0.36763400  0.21515300  1
  F  F2  1  0.47176700  0.86763400  0.28484700  1
  F  F3  1  0.52823300  0.13236600  0.71515300  1
  F  F4  1  0.86891700  0.71856200  0.92864900  1
  F  F5  1  0.13108300  0.28143800  0.07135100  1
  F  F6  1  0.13108300  0.78143800  0.42864900  1
  F  F7  1  0.86891700  0.21856200  0.57135100  1
  F  F8  1  0.66248100  0.86327100  0.57331000  1
  F  F9  1  0.33751900  0.13672900  0.42669000  1
  F  F10  1  0.33751900  0.63672900  0.07331000  1
  F  F11  1  0.66248100  0.36327100  0.92669000  1
  F  F12  1  0.92810600  0.57902100  0.73821000  1
  F  F13  1  0.07189400  0.42097900  0.26179000  1
  F  F14  1  0.07189400  0.92097900  0.23821000  1
  F  F15  1  0.92810600  0.07902100  0.76179000  1
loop_
_geom_bond_atom_site_label_1
_geom_bond_atom_site_label_2
_geom_bond_distance
_geom_bond_site_symmetry_2
Be0 F4 1.475716 1_555
Be0 F0 1.489681 1_555
Be0 F12 1.492509 1_555
Be1 F5 1.475716 1_555
Be1 F1 1.489681 1_555
Be1 F13 1.492509 1_555
Be2 F6 1.475716 1_555
Be2 F2 1.489681 1_555
Be2 F14 1.492509 1_555
Be3 F7 1.475716 1_555
Be3 F3 1.489681 1_555
Be3 F15 1.492509 1_555
H0 H8 0.822873 1_555
H0 Ni0 1.572138 1_566
H1 H9 0.822873 1_555
H1 Ni0 1.572138 1_555
H2 Ni1 1.572138 1_555
H3 Ni1 1.572138 1_555
H4 Ni1 1.991017 1_555
H5 Ni1 1.991017 1_555
H6 Ni0 1.991017 1_565
H7 Ni0 1.991017 1_556
H8 Ni0 1.574530 1_566
H9 Ni0 1.574530 1_555
H10 H2 0.822873 1_555
H10 Ni1 1.574530 1_555
H11 H3 0.822873 1_555
H11 Ni1 1.574530 1_555
F0 K1 2.656955 1_555
F1 K0 2.656955 1_555
F2 K3 2.656955 1_565
F3 K2 2.656955 1_545
F4 K0 2.635326 1_556
F5 K1 2.635326 1_554
F6 K2 2.635326 1_555
F7 K3 2.635326 1_555
F8 H4 0.985997 1_555
F9 H5 0.985997 1_555
F10 H6 0.985997 1_555
F11 H7 0.985997 1_555
F12 K2 2.689001 1_655
F12 K1 2.850977 1_655
F13 K3 2.689001 1_455
F13 K0 2.850977 1_455
F14 K0 2.689001 1_455
F14 K3 2.850977 1_465
F15 K1 2.689001 1_655
F15 K2 2.850977 1_645
