# generated using pymatgen
data_Li2Mo15Se19
_symmetry_space_group_name_H-M   'P 1'
_cell_length_a   9.72790959
_cell_length_b   9.72790959
_cell_length_c   20.35552028
_cell_angle_alpha   76.17541418
_cell_angle_beta   76.17541418
_cell_angle_gamma   60.00000228
_symmetry_Int_Tables_number   1
_chemical_formula_structural   Li2Mo15Se19
_chemical_formula_sum   'Li4 Mo30 Se38'
_cell_volume   1603.45742679
_cell_formula_units_Z   2
loop_
 _symmetry_equiv_pos_site_id
 _symmetry_equiv_pos_as_xyz
  1  'x, y, z'
loop_
 _atom_site_type_symbol
 _atom_site_label
 _atom_site_symmetry_multiplicity
 _atom_site_fract_x
 _atom_site_fract_y
 _atom_site_fract_z
 _atom_site_occupancy
  Li  Li0  1  0.61394562  0.61394562  0.15816313  1
  Li  Li1  1  0.11394562  0.11394562  0.65816313  1
  Li  Li2  1  0.38605438  0.38605438  0.84183687  1
  Li  Li3  1  0.88605438  0.88605438  0.34183687  1
  Mo  Mo0  1  0.49785079  0.68858528  0.44114470  1
  Mo  Mo1  1  0.68858528  0.37241923  0.44114470  1
  Mo  Mo2  1  0.37241923  0.49785079  0.44114470  1
  Mo  Mo3  1  0.99785079  0.87241923  0.94114470  1
  Mo  Mo4  1  0.87241923  0.18858528  0.94114470  1
  Mo  Mo5  1  0.18858528  0.99785079  0.94114470  1
  Mo  Mo6  1  0.50214921  0.31141472  0.55885530  1
  Mo  Mo7  1  0.31141472  0.62758077  0.55885530  1
  Mo  Mo8  1  0.62758077  0.50214921  0.55885530  1
  Mo  Mo9  1  0.00214921  0.12758077  0.05885530  1
  Mo  Mo10  1  0.12758077  0.81141472  0.05885530  1
  Mo  Mo11  1  0.81141472  0.00214921  0.05885530  1
  Mo  Mo12  1  0.72551345  0.86053873  0.86740465  1
  Mo  Mo13  1  0.86053873  0.54654317  0.86740465  1
  Mo  Mo14  1  0.54654317  0.72551345  0.86740465  1
  Mo  Mo15  1  0.22551345  0.04654317  0.36740465  1
  Mo  Mo16  1  0.04654317  0.36053873  0.36740465  1
  Mo  Mo17  1  0.36053873  0.22551345  0.36740465  1
  Mo  Mo18  1  0.27448655  0.13946127  0.13259535  1
  Mo  Mo19  1  0.13946127  0.45345683  0.13259535  1
  Mo  Mo20  1  0.45345683  0.27448655  0.13259535  1
  Mo  Mo21  1  0.77448655  0.95345683  0.63259535  1
  Mo  Mo22  1  0.95345683  0.63946127  0.63259535  1
  Mo  Mo23  1  0.63946127  0.77448655  0.63259535  1
  Mo  Mo24  1  0.58972287  0.91027713  0.75000000  1
  Mo  Mo25  1  0.91027713  0.75000000  0.75000000  1
  Mo  Mo26  1  0.75000000  0.58972287  0.75000000  1
  Mo  Mo27  1  0.08972287  0.25000000  0.25000000  1
  Mo  Mo28  1  0.25000000  0.41027713  0.25000000  1
  Mo  Mo29  1  0.41027713  0.08972287  0.25000000  1
  Se  Se0  1  0.80290284  0.55737734  0.45045395  1
  Se  Se1  1  0.55737734  0.18926587  0.45045395  1
  Se  Se2  1  0.18926587  0.80290284  0.45045395  1
  Se  Se3  1  0.30290284  0.68926587  0.95045395  1
  Se  Se4  1  0.68926587  0.05737734  0.95045395  1
  Se  Se5  1  0.05737734  0.30290284  0.95045395  1
  Se  Se6  1  0.19709716  0.44262266  0.54954605  1
  Se  Se7  1  0.44262266  0.81073413  0.54954605  1
  Se  Se8  1  0.81073413  0.19709716  0.54954605  1
  Se  Se9  1  0.69709716  0.31073413  0.04954605  1
  Se  Se10  1  0.31073413  0.94262266  0.04954605  1
  Se  Se11  1  0.94262266  0.69709716  0.04954605  1
  Se  Se12  1  0.42048575  0.04434034  0.85626443  1
  Se  Se13  1  0.04434034  0.67890948  0.85626443  1
  Se  Se14  1  0.67890948  0.42048575  0.85626443  1
  Se  Se15  1  0.92048575  0.17890948  0.35626443  1
  Se  Se16  1  0.17890948  0.54434034  0.35626443  1
  Se  Se17  1  0.54434034  0.92048575  0.35626443  1
  Se  Se18  1  0.57951425  0.95565966  0.14373557  1
  Se  Se19  1  0.95565966  0.32109052  0.14373557  1
  Se  Se20  1  0.32109052  0.57951425  0.14373557  1
  Se  Se21  1  0.07951425  0.82109052  0.64373557  1
  Se  Se22  1  0.82109052  0.45565966  0.64373557  1
  Se  Se23  1  0.45565966  0.07951425  0.64373557  1
  Se  Se24  1  0.05894250  0.44105750  0.75000000  1
  Se  Se25  1  0.44105750  0.75000000  0.75000000  1
  Se  Se26  1  0.75000000  0.05894250  0.75000000  1
  Se  Se27  1  0.55894250  0.25000000  0.25000000  1
  Se  Se28  1  0.25000000  0.94105750  0.25000000  1
  Se  Se29  1  0.94105750  0.55894250  0.25000000  1
  Se  Se30  1  0.55450512  0.55450512  0.33648465  1
  Se  Se31  1  0.05450512  0.05450512  0.83648465  1
  Se  Se32  1  0.44549488  0.44549488  0.66351535  1
  Se  Se33  1  0.94549488  0.94549488  0.16351535  1
  Se  Se34  1  0.67610387  0.67610387  0.97168840  1
  Se  Se35  1  0.17610387  0.17610387  0.47168840  1
  Se  Se36  1  0.32389613  0.32389613  0.02831160  1
  Se  Se37  1  0.82389613  0.82389613  0.52831160  1
loop_
_geom_bond_atom_site_label_1
_geom_bond_atom_site_label_2
_geom_bond_distance
_geom_bond_site_symmetry_2
Li0 Se20 3.116977 1_555
Li0 Se18 3.116977 1_555
Li0 Se19 3.116978 1_555
Li1 Se21 3.116977 1_545
Li1 Se23 3.116977 1_555
Li1 Se22 3.116978 1_455
Li2 Se14 3.116977 1_555
Li2 Se12 3.116977 1_555
Li2 Se13 3.116978 1_555
Li3 Se15 3.116977 1_565
Li3 Se17 3.116977 1_555
Li3 Se16 3.116978 1_655
Mo0 Se30 2.567417 1_555
Mo0 Se7 2.572473 1_555
Mo0 Se2 2.602783 1_555
Mo0 Se0 2.614706 1_555
Mo0 Se17 2.657622 1_555
Mo1 Se30 2.567418 1_555
Mo1 Se8 2.572473 1_555
Mo1 Se0 2.602783 1_555
Mo1 Se1 2.614706 1_555
Mo1 Se15 2.657622 1_555
Mo2 Se30 2.567418 1_555
Mo2 Se6 2.572473 1_555
Mo2 Se1 2.602783 1_555
Mo2 Se2 2.614706 1_555
Mo2 Se16 2.657622 1_555
Mo3 Se31 2.567418 1_665
Mo3 Se11 2.572473 1_556
Mo3 Se4 2.602783 1_565
Mo3 Se3 2.614706 1_655
Mo3 Se13 2.657622 1_655
Mo4 Se31 2.567418 1_655
Mo4 Se9 2.572473 1_556
Mo4 Se5 2.602783 1_655
Mo4 Se4 2.614706 1_555
Mo4 Se14 2.657622 1_555
Mo5 Se31 2.567417 1_565
Mo5 Se10 2.572473 1_556
Mo5 Se3 2.602783 1_555
Mo5 Se5 2.614706 1_565
Mo5 Se12 2.657622 1_565
Mo6 Se32 2.567417 1_555
Mo6 Se1 2.572473 1_555
Mo6 Se8 2.602783 1_555
Mo6 Se6 2.614706 1_555
Mo6 Se23 2.657622 1_555
Mo7 Se32 2.567418 1_555
Mo7 Se2 2.572473 1_555
Mo7 Se6 2.602783 1_555
Mo7 Se7 2.614706 1_555
Mo7 Se21 2.657622 1_555
Mo8 Se32 2.567418 1_555
Mo8 Se0 2.572473 1_555
Mo8 Se7 2.602783 1_555
Mo8 Se8 2.614706 1_555
Mo8 Se22 2.657622 1_555
Mo9 Se33 2.567418 1_445
Mo9 Se5 2.572473 1_554
Mo9 Se10 2.602783 1_545
Mo9 Se9 2.614706 1_455
Mo9 Se19 2.657622 1_455
Mo10 Se33 2.567418 1_455
Mo10 Se3 2.572473 1_554
Mo10 Se11 2.602783 1_455
Mo10 Se10 2.614706 1_555
Mo10 Se20 2.657622 1_555
Mo11 Se33 2.567417 1_545
Mo11 Se4 2.572473 1_554
Mo11 Se9 2.602783 1_555
Mo11 Se11 2.614706 1_545
Mo11 Se18 2.657622 1_545
Mo12 Se34 2.551622 1_555
Mo12 Se12 2.622104 1_565
Mo12 Se13 2.677323 1_655
Mo12 Se4 2.689916 1_565
Mo12 Se26 2.734323 1_565
Mo13 Se34 2.551622 1_555
Mo13 Se13 2.622104 1_655
Mo13 Se14 2.677323 1_555
Mo13 Se5 2.689916 1_655
Mo13 Se24 2.734323 1_655
Mo14 Se34 2.551622 1_555
Mo14 Se14 2.622104 1_555
Mo14 Se12 2.677323 1_565
Mo14 Se3 2.689916 1_555
Mo14 Se25 2.734323 1_555
Mo15 Se35 2.551622 1_555
Mo15 Se15 2.622104 1_455
Mo15 Se17 2.677323 1_545
Mo15 Se2 2.689916 1_545
Mo15 Se28 2.734323 1_545
Mo16 Se35 2.551622 1_555
Mo16 Se16 2.622104 1_555
Mo16 Se15 2.677323 1_455
Mo16 Se0 2.689916 1_455
Mo16 Se29 2.734323 1_455
Mo17 Se35 2.551622 1_555
Mo17 Se17 2.622104 1_545
Mo17 Se16 2.677323 1_555
Mo17 Se1 2.689916 1_555
Mo17 Se27 2.734323 1_555
Mo18 Se36 2.551622 1_555
Mo18 Se18 2.622104 1_545
Mo18 Se19 2.677323 1_455
Mo18 Se10 2.689916 1_545
Mo18 Se28 2.734323 1_545
Mo19 Se36 2.551622 1_555
Mo19 Se19 2.622104 1_455
Mo19 Se20 2.677323 1_555
Mo19 Se11 2.689916 1_455
Mo19 Se29 2.734323 1_455
Mo20 Se36 2.551622 1_555
Mo20 Se20 2.622104 1_555
Mo20 Se18 2.677323 1_545
Mo20 Se9 2.689916 1_555
Mo20 Se27 2.734323 1_555
Mo21 Se37 2.551622 1_555
Mo21 Se21 2.622104 1_655
Mo21 Se23 2.677323 1_565
Mo21 Se8 2.689916 1_565
Mo21 Se26 2.734323 1_565
Mo22 Se37 2.551622 1_555
Mo22 Se22 2.622104 1_555
Mo22 Se21 2.677323 1_655
Mo22 Se6 2.689916 1_655
Mo22 Se24 2.734323 1_655
Mo23 Se37 2.551622 1_555
Mo23 Se23 2.622104 1_565
Mo23 Se22 2.677323 1_555
Mo23 Se7 2.689916 1_555
Mo23 Se25 2.734323 1_555
Mo24 Se23 2.566962 1_565
Mo24 Se12 2.566962 1_565
Mo24 Se26 2.603335 1_565
Mo24 Se25 2.603335 1_555
Mo25 Se21 2.566962 1_655
Mo25 Se13 2.566962 1_655
Mo25 Se24 2.603335 1_655
Mo25 Se26 2.603335 1_565
Mo26 Se14 2.566962 1_555
Mo26 Se22 2.566962 1_555
Mo26 Se24 2.603335 1_655
Mo26 Se25 2.603335 1_555
Mo27 Se15 2.566962 1_455
Mo27 Se19 2.566962 1_455
Mo27 Se29 2.603335 1_455
Mo27 Se28 2.603335 1_545
Mo28 Se20 2.566962 1_555
Mo28 Se16 2.566962 1_555
Mo28 Se29 2.603335 1_455
Mo28 Se27 2.603335 1_555
Mo29 Se18 2.566962 1_545
Mo29 Se17 2.566962 1_545
Mo29 Se27 2.603335 1_555
Mo29 Se28 2.603335 1_545
