# generated using pymatgen
data_MnB4O7
_symmetry_space_group_name_H-M   'P 1'
_cell_length_a   8.23395100
_cell_length_b   8.81024400
_cell_length_c   14.18691000
_cell_angle_alpha   90.00000000
_cell_angle_beta   90.00000000
_cell_angle_gamma   90.00000000
_symmetry_Int_Tables_number   1
_chemical_formula_structural   MnB4O7
_chemical_formula_sum   'Mn8 B32 O56'
_cell_volume   1029.16267759
_cell_formula_units_Z   8
loop_
 _symmetry_equiv_pos_site_id
 _symmetry_equiv_pos_as_xyz
  1  'x, y, z'
loop_
 _atom_site_type_symbol
 _atom_site_label
 _atom_site_symmetry_multiplicity
 _atom_site_fract_x
 _atom_site_fract_y
 _atom_site_fract_z
 _atom_site_occupancy
  Mn  Mn0  1  0.61860600  0.10784200  0.38674300  1
  Mn  Mn1  1  0.11860600  0.39215700  0.61325700  1
  Mn  Mn2  1  0.38139300  0.60784200  0.11325700  1
  Mn  Mn3  1  0.88139400  0.89215700  0.88674300  1
  Mn  Mn4  1  0.38139300  0.89215700  0.61325700  1
  Mn  Mn5  1  0.88139400  0.60784200  0.38674300  1
  Mn  Mn6  1  0.61860600  0.39215700  0.88674300  1
  Mn  Mn7  1  0.11860600  0.10784200  0.11325700  1
  B  B0  1  0.18705100  0.13985700  0.46161200  1
  B  B1  1  0.68705200  0.36014300  0.53838800  1
  B  B2  1  0.81294800  0.63985600  0.03838800  1
  B  B3  1  0.31294800  0.86014400  0.96161200  1
  B  B4  1  0.81294800  0.86014400  0.53838800  1
  B  B5  1  0.31294800  0.63985600  0.46161200  1
  B  B6  1  0.18705100  0.36014300  0.96161200  1
  B  B7  1  0.68705200  0.13985700  0.03838800  1
  B  B8  1  0.99371900  0.07267700  0.33573800  1
  B  B9  1  0.49371900  0.42732400  0.66426300  1
  B  B10  1  0.00628100  0.57267700  0.16426300  1
  B  B11  1  0.50628100  0.92732300  0.83573800  1
  B  B12  1  0.00628100  0.92732300  0.66426300  1
  B  B13  1  0.50628100  0.57267700  0.33573800  1
  B  B14  1  0.99371900  0.42732400  0.83573800  1
  B  B15  1  0.49371900  0.07267700  0.16426300  1
  B  B16  1  0.02860400  0.33538600  0.26576300  1
  B  B17  1  0.52860500  0.16461300  0.73423600  1
  B  B18  1  0.97139500  0.83538600  0.23423700  1
  B  B19  1  0.47139600  0.66461400  0.76576300  1
  B  B20  1  0.97139500  0.66461400  0.73423600  1
  B  B21  1  0.47139600  0.83538600  0.26576300  1
  B  B22  1  0.02860400  0.16461300  0.76576300  1
  B  B23  1  0.52860500  0.33538600  0.23423700  1
  B  B24  1  0.93564300  0.29081500  0.43332300  1
  B  B25  1  0.43564200  0.20918400  0.56667700  1
  B  B26  1  0.06435700  0.79081600  0.06667700  1
  B  B27  1  0.56435700  0.70918400  0.93332300  1
  B  B28  1  0.06435700  0.70918400  0.56667700  1
  B  B29  1  0.56435700  0.79081600  0.43332300  1
  B  B30  1  0.93564300  0.20918400  0.93332300  1
  B  B31  1  0.43564200  0.29081500  0.06667700  1
  O  O0  1  0.14551600  0.05107000  0.38766400  1
  O  O1  1  0.64551500  0.44893100  0.61233700  1
  O  O2  1  0.85448500  0.55107000  0.11233600  1
  O  O3  1  0.35448500  0.94893000  0.88766400  1
  O  O4  1  0.85448500  0.94893000  0.61233700  1
  O  O5  1  0.35448500  0.55107000  0.38766400  1
  O  O6  1  0.14551600  0.44893100  0.88766400  1
  O  O7  1  0.64551500  0.05107000  0.11233600  1
  O  O8  1  0.08468800  0.25704800  0.49107200  1
  O  O9  1  0.58468900  0.24295100  0.50892900  1
  O  O10  1  0.91531100  0.75704900  0.00892800  1
  O  O11  1  0.41531100  0.74295100  0.99107100  1
  O  O12  1  0.91531100  0.74295100  0.50892900  1
  O  O13  1  0.41531100  0.75704900  0.49107200  1
  O  O14  1  0.08468800  0.24295100  0.99107100  1
  O  O15  1  0.58468900  0.25704800  0.00892800  1
  O  O16  1  0.03300100  0.17908800  0.25150400  1
  O  O17  1  0.53300200  0.32091300  0.74849600  1
  O  O18  1  0.96699800  0.67908800  0.24849600  1
  O  O19  1  0.46699900  0.82091200  0.75150400  1
  O  O20  1  0.96699800  0.82091200  0.74849600  1
  O  O21  1  0.46699900  0.67908800  0.25150400  1
  O  O22  1  0.03300100  0.32091300  0.75150400  1
  O  O23  1  0.53300200  0.17908800  0.24849600  1
  O  O24  1  0.98253900  0.39297600  0.35260100  1
  O  O25  1  0.48253900  0.10702300  0.64739900  1
  O  O26  1  0.01746100  0.89297600  0.14739900  1
  O  O27  1  0.51746100  0.60702400  0.85260100  1
  O  O28  1  0.01746100  0.60702400  0.64739900  1
  O  O29  1  0.51746100  0.89297600  0.35260100  1
  O  O30  1  0.98253900  0.10702300  0.85260100  1
  O  O31  1  0.48253900  0.39297600  0.14739900  1
  O  O32  1  0.83237200  0.38533100  0.49213800  1
  O  O33  1  0.33237200  0.11466900  0.50786200  1
  O  O34  1  0.16762700  0.88533100  0.00786200  1
  O  O35  1  0.66762700  0.61466900  0.99213800  1
  O  O36  1  0.16762700  0.61466900  0.50786200  1
  O  O37  1  0.66762700  0.88533100  0.49213800  1
  O  O38  1  0.83237200  0.11466900  0.99213800  1
  O  O39  1  0.33237200  0.38533100  0.00786200  1
  O  O40  1  0.86983200  0.15132200  0.39450400  1
  O  O41  1  0.36983300  0.34867800  0.60549600  1
  O  O42  1  0.13016700  0.65132300  0.10549600  1
  O  O43  1  0.63016700  0.84867700  0.89450400  1
  O  O44  1  0.13016700  0.84867700  0.60549600  1
  O  O45  1  0.63016700  0.65132300  0.39450400  1
  O  O46  1  0.86983200  0.34867800  0.89450400  1
  O  O47  1  0.36983300  0.15132200  0.10549600  1
  O  O48  1  0.57168900  0.42815700  0.30639500  1
  O  O49  1  0.07168900  0.07184200  0.69360400  1
  O  O50  1  0.42831000  0.92815800  0.19360400  1
  O  O51  1  0.92831000  0.57184200  0.80639600  1
  O  O52  1  0.42831000  0.57184200  0.69360400  1
  O  O53  1  0.92831000  0.92815800  0.30639500  1
  O  O54  1  0.57168900  0.07184200  0.80639600  1
  O  O55  1  0.07168900  0.42815700  0.19360400  1
loop_
_geom_bond_atom_site_label_1
_geom_bond_atom_site_label_2
_geom_bond_distance
_geom_bond_site_symmetry_2
Mn0 O40 2.106632 1_555
Mn0 O9 2.121257 1_555
Mn0 O29 2.124086 1_545
Mn0 O23 2.176584 1_555
Mn0 O37 2.498341 1_545
Mn1 O41 2.106639 1_555
Mn1 O8 2.121246 1_555
Mn1 O28 2.124093 1_555
Mn1 O22 2.176581 1_555
Mn1 O36 2.498348 1_555
Mn2 O42 2.106634 1_555
Mn2 O11 2.121258 1_554
Mn2 O31 2.124089 1_555
Mn2 O21 2.176589 1_555
Mn2 O39 2.498341 1_555
Mn3 O43 2.106640 1_555
Mn3 O10 2.121240 1_556
Mn3 O30 2.124086 1_565
Mn3 O20 2.176581 1_555
Mn3 O38 2.498349 1_565
Mn4 O44 2.106632 1_555
Mn4 O13 2.121241 1_555
Mn4 O25 2.124089 1_565
Mn4 O19 2.176586 1_555
Mn4 O33 2.498348 1_565
Mn5 O45 2.106642 1_555
Mn5 O12 2.121257 1_555
Mn5 O24 2.124086 1_555
Mn5 O18 2.176584 1_555
Mn5 O32 2.498342 1_555
Mn6 O46 2.106631 1_555
Mn6 O15 2.121245 1_556
Mn6 O27 2.124093 1_555
Mn6 O17 2.176578 1_555
Mn6 O35 2.498348 1_555
Mn7 O47 2.106640 1_555
Mn7 O14 2.121258 1_554
Mn7 O26 2.124086 1_545
Mn7 O16 2.176586 1_555
Mn7 O34 2.498341 1_545
B0 O0 1.352572 1_555
B0 O33 1.382585 1_555
B0 O8 1.396816 1_555
B1 O1 1.352592 1_555
B1 O32 1.382578 1_555
B1 O9 1.396819 1_555
B2 O2 1.352571 1_555
B2 O35 1.382583 1_554
B2 O10 1.396829 1_555
B3 O3 1.352571 1_555
B3 O34 1.382583 1_556
B3 O11 1.396825 1_555
B4 O4 1.352582 1_555
B4 O37 1.382583 1_555
B4 O12 1.396825 1_555
B5 O5 1.352571 1_555
B5 O36 1.382583 1_555
B5 O13 1.396829 1_555
B6 O6 1.352577 1_555
B6 O39 1.382585 1_556
B6 O14 1.396819 1_555
B7 O7 1.352576 1_555
B7 O38 1.382578 1_554
B7 O15 1.396816 1_555
B8 O53 1.443785 1_545
B8 O0 1.463264 1_655
B8 O40 1.488528 1_555
B8 O16 1.552936 1_655
B9 O52 1.443770 1_555
B9 O1 1.463257 1_555
B9 O41 1.488535 1_555
B9 O17 1.552927 1_555
B10 O55 1.443782 1_555
B10 O2 1.463264 1_455
B10 O42 1.488535 1_555
B10 O18 1.552927 1_455
B11 O54 1.443778 1_565
B11 O3 1.463257 1_555
B11 O43 1.488527 1_555
B11 O19 1.552936 1_555
B12 O49 1.443774 1_565
B12 O4 1.463257 1_455
B12 O44 1.488535 1_555
B12 O20 1.552927 1_455
B13 O48 1.443790 1_555
B13 O5 1.463257 1_555
B13 O45 1.488527 1_555
B13 O21 1.552936 1_555
B14 O51 1.443774 1_555
B14 O6 1.463264 1_655
B14 O46 1.488532 1_555
B14 O22 1.552936 1_655
B15 O50 1.443777 1_545
B15 O7 1.463264 1_555
B15 O47 1.488530 1_555
B15 O23 1.552927 1_555
B16 O55 1.357159 1_555
B16 O24 1.385292 1_455
B16 O16 1.392274 1_555
B17 O54 1.357167 1_555
B17 O25 1.385282 1_555
B17 O17 1.392293 1_555
B18 O53 1.357153 1_555
B18 O26 1.385295 1_655
B18 O18 1.392274 1_555
B19 O52 1.357166 1_555
B19 O27 1.385292 1_555
B19 O19 1.392274 1_555
B20 O51 1.357175 1_555
B20 O28 1.385282 1_655
B20 O20 1.392276 1_555
B21 O50 1.357166 1_555
B21 O29 1.385292 1_555
B21 O21 1.392274 1_555
B22 O49 1.357159 1_555
B22 O30 1.385292 1_455
B22 O22 1.392291 1_555
B23 O48 1.357146 1_555
B23 O31 1.385295 1_555
B23 O23 1.392274 1_555
B24 O40 1.451652 1_555
B24 O32 1.453510 1_555
B24 O8 1.505262 1_655
B24 O24 1.506881 1_555
B25 O41 1.451653 1_555
B25 O33 1.453500 1_555
B25 O9 1.505268 1_555
B25 O25 1.506883 1_555
B26 O42 1.451649 1_555
B26 O34 1.453500 1_555
B26 O10 1.505269 1_455
B26 O26 1.506876 1_555
B27 O43 1.451649 1_555
B27 O35 1.453500 1_555
B27 O11 1.505261 1_555
B27 O27 1.506876 1_555
B28 O44 1.451649 1_555
B28 O36 1.453500 1_555
B28 O12 1.505261 1_455
B28 O28 1.506876 1_555
B29 O45 1.451649 1_555
B29 O37 1.453500 1_555
B29 O13 1.505269 1_555
B29 O29 1.506876 1_555
B30 O46 1.451660 1_555
B30 O38 1.453505 1_555
B30 O14 1.505255 1_655
B30 O30 1.506881 1_555
B31 O47 1.451646 1_555
B31 O39 1.453505 1_555
B31 O15 1.505276 1_555
B31 O31 1.506883 1_555
