# generated using pymatgen
data_Y3Cu3Sb4
_symmetry_space_group_name_H-M   'P 1'
_cell_length_a   8.28595713
_cell_length_b   8.28595713
_cell_length_c   8.28595713
_cell_angle_alpha   109.47122063
_cell_angle_beta   109.47122063
_cell_angle_gamma   109.47122063
_symmetry_Int_Tables_number   1
_chemical_formula_structural   Y3Cu3Sb4
_chemical_formula_sum   'Y6 Cu6 Sb8'
_cell_volume   437.93147046
_cell_formula_units_Z   2
loop_
 _symmetry_equiv_pos_site_id
 _symmetry_equiv_pos_as_xyz
  1  'x, y, z'
loop_
 _atom_site_type_symbol
 _atom_site_label
 _atom_site_symmetry_multiplicity
 _atom_site_fract_x
 _atom_site_fract_y
 _atom_site_fract_z
 _atom_site_occupancy
  Y  Y0  1  0.87500000  0.25000000  0.12500000  1
  Y  Y1  1  0.62500000  0.75000000  0.37500000  1
  Y  Y2  1  0.25000000  0.12500000  0.87500000  1
  Y  Y3  1  0.75000000  0.37500000  0.62500000  1
  Y  Y4  1  0.12500000  0.87500000  0.25000000  1
  Y  Y5  1  0.37500000  0.62500000  0.75000000  1
  Cu  Cu0  1  0.37500000  0.25000000  0.62500000  1
  Cu  Cu1  1  0.12500000  0.75000000  0.87500000  1
  Cu  Cu2  1  0.25000000  0.62500000  0.37500000  1
  Cu  Cu3  1  0.75000000  0.87500000  0.12500000  1
  Cu  Cu4  1  0.62500000  0.37500000  0.25000000  1
  Cu  Cu5  1  0.87500000  0.12500000  0.75000000  1
  Sb  Sb0  1  0.65773838  0.50000000  0.00000000  1
  Sb  Sb1  1  0.50000000  -0.00000000  0.65773838  1
  Sb  Sb2  1  -0.00000000  0.65773838  0.50000000  1
  Sb  Sb3  1  0.84226162  0.84226162  0.84226162  1
  Sb  Sb4  1  0.50000000  0.00000000  0.15773838  1
  Sb  Sb5  1  0.15773838  0.50000000  -0.00000000  1
  Sb  Sb6  1  -0.00000000  0.15773838  0.50000000  1
  Sb  Sb7  1  0.34226162  0.34226162  0.34226162  1
loop_
_geom_bond_atom_site_label_1
_geom_bond_atom_site_label_2
_geom_bond_distance
_geom_bond_site_symmetry_2
Cu0 Sb6 2.656142 1_555
Cu0 Sb0 2.656142 1_556
Cu0 Sb1 2.656142 1_555
Cu0 Sb7 2.656142 1_555
Cu0 Y3 2.929528 1_555
Cu0 Y2 2.929528 1_555
Cu0 Y4 2.929528 1_545
Cu0 Y5 2.929528 1_555
Cu1 Sb4 2.656142 1_566
Cu1 Sb2 2.656142 1_555
Cu1 Sb5 2.656142 1_556
Cu1 Sb3 2.656142 1_455
Cu1 Y2 2.929528 1_565
Cu1 Y3 2.929528 1_455
Cu1 Y4 2.929528 1_556
Cu1 Y5 2.929528 1_555
Cu2 Sb5 2.656142 1_555
Cu2 Sb2 2.656142 1_555
Cu2 Sb1 2.656142 1_565
Cu2 Sb7 2.656142 1_555
Cu2 Y4 2.929528 1_555
Cu2 Y1 2.929528 1_555
Cu2 Y0 2.929528 1_455
Cu2 Y5 2.929528 1_555
Cu3 Sb3 2.656142 1_554
Cu3 Sb0 2.656142 1_555
Cu3 Sb6 2.656142 1_665
Cu3 Sb4 2.656142 1_565
Cu3 Y0 2.929528 1_565
Cu3 Y5 2.929528 1_554
Cu3 Y4 2.929528 1_655
Cu3 Y1 2.929528 1_555
Cu4 Sb2 2.656142 1_655
Cu4 Sb0 2.656142 1_555
Cu4 Sb7 2.656142 1_555
Cu4 Sb4 2.656142 1_555
Cu4 Y2 2.929528 1_554
Cu4 Y3 2.929528 1_555
Cu4 Y1 2.929528 1_555
Cu4 Y0 2.929528 1_555
Cu5 Sb5 2.656142 1_656
Cu5 Sb1 2.656142 1_555
Cu5 Sb3 2.656142 1_545
Cu5 Sb6 2.656142 1_655
Cu5 Y3 2.929528 1_555
Cu5 Y2 2.929528 1_655
Cu5 Y1 2.929528 1_545
Cu5 Y0 2.929528 1_556
Sb0 Y2 3.265737 1_554
Sb0 Y5 3.265737 1_554
Sb0 Y1 3.265737 1_555
Sb0 Y3 3.358278 1_554
Sb0 Y4 3.358278 1_655
Sb0 Y0 3.358278 1_555
Sb1 Y3 3.265737 1_555
Sb1 Y1 3.265737 1_545
Sb1 Y4 3.265737 1_545
Sb1 Y0 3.358278 1_556
Sb1 Y5 3.358278 1_545
Sb1 Y2 3.358278 1_555
Sb2 Y5 3.265737 1_555
Sb2 Y0 3.265737 1_455
Sb2 Y3 3.265737 1_455
Sb2 Y1 3.358278 1_455
Sb2 Y4 3.358278 1_555
Sb2 Y2 3.358278 1_565
Sb3 Y0 3.265737 1_566
Sb3 Y4 3.265737 1_656
Sb3 Y2 3.265737 1_665
Sb3 Y3 3.358278 1_555
Sb3 Y1 3.358278 1_555
Sb3 Y5 3.358278 1_555
Sb4 Y5 3.265737 1_544
Sb4 Y0 3.265737 1_555
Sb4 Y2 3.265737 1_554
Sb4 Y3 3.358278 1_555
Sb4 Y1 3.358278 1_545
Sb4 Y4 3.358278 1_545
Sb5 Y3 3.265737 1_454
Sb5 Y0 3.265737 1_455
Sb5 Y4 3.265737 1_555
Sb5 Y2 3.358278 1_554
Sb5 Y5 3.358278 1_554
Sb5 Y1 3.358278 1_555
Sb6 Y1 3.265737 1_445
Sb6 Y2 3.265737 1_555
Sb6 Y4 3.265737 1_545
Sb6 Y5 3.358278 1_555
Sb6 Y3 3.358278 1_455
Sb6 Y0 3.358278 1_455
Sb7 Y1 3.265737 1_555
Sb7 Y5 3.265737 1_555
Sb7 Y3 3.265737 1_555
Sb7 Y2 3.358278 1_554
Sb7 Y4 3.358278 1_545
Sb7 Y0 3.358278 1_455
