# generated using pymatgen
data_UNbO5
_symmetry_space_group_name_H-M   'P 1'
_cell_length_a   4.10507399
_cell_length_b   12.97267853
_cell_length_c   7.49212523
_cell_angle_alpha   90.00000000
_cell_angle_beta   90.00000000
_cell_angle_gamma   90.00000000
_symmetry_Int_Tables_number   1
_chemical_formula_structural   UNbO5
_chemical_formula_sum   'U4 Nb4 O20'
_cell_volume   398.98417764
_cell_formula_units_Z   4
loop_
 _symmetry_equiv_pos_site_id
 _symmetry_equiv_pos_as_xyz
  1  'x, y, z'
loop_
 _atom_site_type_symbol
 _atom_site_label
 _atom_site_symmetry_multiplicity
 _atom_site_fract_x
 _atom_site_fract_y
 _atom_site_fract_z
 _atom_site_occupancy
  U  U0  1  -0.00000000  0.22863790  0.75000000  1
  U  U1  1  -0.00000000  0.27136210  0.25000000  1
  U  U2  1  -0.00000000  0.72863790  0.75000000  1
  U  U3  1  -0.00000000  0.77136210  0.25000000  1
  Nb  Nb0  1  0.08276765  0.00000000  0.50000000  1
  Nb  Nb1  1  0.08276765  0.50000000  0.00000000  1
  Nb  Nb2  1  0.91723235  0.00000000  0.00000000  1
  Nb  Nb3  1  0.91723235  0.50000000  0.50000000  1
  O  O0  1  0.98713856  0.15300343  0.04540741  1
  O  O1  1  0.01286144  0.15300343  0.45459259  1
  O  O2  1  -0.00000000  0.45503386  0.25000000  1
  O  O3  1  0.98713856  0.34699657  0.54540741  1
  O  O4  1  0.01286144  0.65300343  0.04540741  1
  O  O5  1  0.01286144  0.34699657  0.95459259  1
  O  O6  1  0.98713856  0.65300343  0.45459259  1
  O  O7  1  -0.00000000  0.54496614  0.75000000  1
  O  O8  1  -0.00000000  0.95503386  0.25000000  1
  O  O9  1  0.01286144  0.84699657  0.54540741  1
  O  O10  1  0.51902772  0.00000000  0.50000000  1
  O  O11  1  0.48097228  0.50000000  0.50000000  1
  O  O12  1  0.50000000  0.22460569  0.75000000  1
  O  O13  1  0.50000000  0.27539431  0.25000000  1
  O  O14  1  0.48097228  0.00000000  0.00000000  1
  O  O15  1  0.50000000  0.72460569  0.75000000  1
  O  O16  1  0.50000000  0.77539431  0.25000000  1
  O  O17  1  0.51902772  0.50000000  0.00000000  1
  O  O18  1  -0.00000000  0.04496614  0.75000000  1
  O  O19  1  0.98713856  0.84699657  0.95459259  1
loop_
_geom_bond_atom_site_label_1
_geom_bond_atom_site_label_2
_geom_bond_distance
_geom_bond_site_symmetry_2
Nb0 O10 1.790880 1_555
Nb0 O18 1.990970 1_555
Nb0 O8 1.990970 1_545
Nb0 O1 2.034152 1_555
Nb0 O9 2.034152 1_545
Nb0 O10 2.314194 1_455
Nb1 O17 1.790880 1_555
Nb1 O7 1.990970 1_554
Nb1 O2 1.990970 1_555
Nb1 O5 2.034152 1_554
Nb1 O4 2.034152 1_555
Nb1 O17 2.314194 1_455
Nb2 O14 1.790880 1_555
Nb2 O18 1.990970 1_654
Nb2 O8 1.990970 1_645
Nb2 O0 2.034152 1_555
Nb2 O19 2.034152 1_544
Nb2 O14 2.314194 1_655
Nb3 O11 1.790880 1_555
Nb3 O2 1.990970 1_655
Nb3 O7 1.990970 1_655
Nb3 O3 2.034152 1_555
Nb3 O6 2.034152 1_555
Nb3 O11 2.314194 1_655
O0 U1 2.170232 1_655
O0 U0 2.421547 1_654
O1 U1 2.170232 1_555
O1 U0 2.421547 1_555
O2 U1 2.382715 1_555
O3 U0 2.170232 1_655
O3 U1 2.421547 1_655
O4 U3 2.170232 1_555
O4 U2 2.421547 1_554
O5 U0 2.170232 1_555
O5 U1 2.421547 1_556
O6 U3 2.170232 1_655
O6 U2 2.421547 1_655
O7 U2 2.382715 1_555
O8 U3 2.382715 1_555
O9 U2 2.170232 1_555
O9 U3 2.421547 1_555
O12 U0 2.053203 1_655
O12 U0 2.053203 1_555
O13 U1 2.053203 1_555
O13 U1 2.053203 1_655
O15 U2 2.053203 1_555
O15 U2 2.053203 1_655
O16 U3 2.053203 1_655
O16 U3 2.053203 1_555
O18 U0 2.382715 1_555
O19 U2 2.170232 1_655
O19 U3 2.421547 1_656
