# generated using pymatgen
data_Pr2US5
_symmetry_space_group_name_H-M   'P 1'
_cell_length_a   7.56631002
_cell_length_b   8.19626649
_cell_length_c   11.94666707
_cell_angle_alpha   90.00000000
_cell_angle_beta   90.00000000
_cell_angle_gamma   90.00000000
_symmetry_Int_Tables_number   1
_chemical_formula_structural   Pr2US5
_chemical_formula_sum   'Pr8 U4 S20'
_cell_volume   740.87845128
_cell_formula_units_Z   4
loop_
 _symmetry_equiv_pos_site_id
 _symmetry_equiv_pos_as_xyz
  1  'x, y, z'
loop_
 _atom_site_type_symbol
 _atom_site_label
 _atom_site_symmetry_multiplicity
 _atom_site_fract_x
 _atom_site_fract_y
 _atom_site_fract_z
 _atom_site_occupancy
  Pr  Pr0  1  0.52382520  0.50033117  0.32345245  1
  Pr  Pr1  1  0.97617480  0.99966883  0.82345245  1
  Pr  Pr2  1  0.47617480  0.00033117  0.67654755  1
  Pr  Pr3  1  0.02382520  0.49966883  0.17654755  1
  Pr  Pr4  1  0.47617480  0.49966883  0.67654755  1
  Pr  Pr5  1  0.02382520  0.00033117  0.17654755  1
  Pr  Pr6  1  0.52382520  0.99966883  0.32345245  1
  Pr  Pr7  1  0.97617480  0.50033117  0.82345245  1
  U  U0  1  0.07160800  0.75000000  0.49022237  1
  U  U1  1  0.42839200  0.75000000  0.99022237  1
  U  U2  1  0.92839200  0.25000000  0.50977763  1
  U  U3  1  0.57160800  0.25000000  0.00977763  1
  S  S0  1  0.83836328  0.95957447  0.59424365  1
  S  S1  1  0.66163672  0.54042553  0.09424365  1
  S  S2  1  0.16163672  0.45957447  0.40575635  1
  S  S3  1  0.33836328  0.04042553  0.90575635  1
  S  S4  1  0.16163672  0.04042553  0.40575635  1
  S  S5  1  0.33836328  0.45957447  0.90575635  1
  S  S6  1  0.83836328  0.54042553  0.59424365  1
  S  S7  1  0.66163672  0.95957447  0.09424365  1
  S  S8  1  0.83184511  0.75000000  0.31422967  1
  S  S9  1  0.66815489  0.75000000  0.81422967  1
  S  S10  1  0.16815489  0.25000000  0.68577033  1
  S  S11  1  0.33184511  0.25000000  0.18577033  1
  S  S12  1  0.45456666  0.75000000  0.49899402  1
  S  S13  1  0.04543334  0.75000000  0.99899402  1
  S  S14  1  0.54543334  0.25000000  0.50100598  1
  S  S15  1  0.95456666  0.25000000  0.00100598  1
  S  S16  1  0.19497537  0.75000000  0.71337473  1
  S  S17  1  0.30502463  0.75000000  0.21337473  1
  S  S18  1  0.80502463  0.25000000  0.28662527  1
  S  S19  1  0.69497537  0.25000000  0.78662527  1
loop_
_geom_bond_atom_site_label_1
_geom_bond_atom_site_label_2
_geom_bond_distance
_geom_bond_site_symmetry_2
Pr0 S2 2.930588 1_555
Pr0 S17 2.942392 1_555
Pr0 S1 2.948466 1_555
Pr0 S14 2.955657 1_555
Pr0 S12 2.976600 1_555
Pr0 S18 2.988349 1_555
Pr0 S11 3.004214 1_555
Pr0 S8 3.103429 1_555
Pr1 S3 2.930588 1_665
Pr1 S16 2.942392 1_655
Pr1 S0 2.948466 1_555
Pr1 S15 2.955657 1_566
Pr1 S13 2.976600 1_655
Pr1 S19 2.988349 1_565
Pr1 S10 3.004214 1_665
Pr1 S9 3.103429 1_555
Pr2 S0 2.930588 1_545
Pr2 S19 2.942392 1_555
Pr2 S3 2.948466 1_555
Pr2 S12 2.955657 1_545
Pr2 S14 2.976600 1_555
Pr2 S16 2.988349 1_545
Pr2 S9 3.004214 1_545
Pr2 S10 3.103429 1_555
Pr3 S1 2.930588 1_455
Pr3 S18 2.942392 1_455
Pr3 S2 2.948466 1_555
Pr3 S13 2.955657 1_554
Pr3 S15 2.976600 1_455
Pr3 S17 2.988349 1_555
Pr3 S8 3.004214 1_455
Pr3 S11 3.103429 1_555
Pr4 S6 2.930588 1_555
Pr4 S19 2.942392 1_555
Pr4 S5 2.948466 1_555
Pr4 S12 2.955657 1_555
Pr4 S14 2.976600 1_555
Pr4 S16 2.988349 1_555
Pr4 S9 3.004214 1_555
Pr4 S10 3.103429 1_555
Pr5 S7 2.930588 1_445
Pr5 S18 2.942392 1_455
Pr5 S4 2.948466 1_555
Pr5 S13 2.955657 1_544
Pr5 S15 2.976600 1_455
Pr5 S17 2.988349 1_545
Pr5 S8 3.004214 1_445
Pr5 S11 3.103429 1_555
Pr6 S4 2.930588 1_565
Pr6 S17 2.942392 1_555
Pr6 S7 2.948466 1_555
Pr6 S14 2.955657 1_565
Pr6 S12 2.976600 1_555
Pr6 S18 2.988349 1_565
Pr6 S11 3.004214 1_565
Pr6 S8 3.103429 1_555
Pr7 S5 2.930588 1_655
Pr7 S16 2.942392 1_655
Pr7 S6 2.948466 1_555
Pr7 S15 2.955657 1_556
Pr7 S13 2.976600 1_655
Pr7 S19 2.988349 1_555
Pr7 S10 3.004214 1_655
Pr7 S9 3.103429 1_555
S0 U2 2.673686 1_565
S0 U0 2.758521 1_655
S1 U3 2.673686 1_555
S1 U1 2.758521 1_554
S2 U0 2.673686 1_555
S2 U2 2.758521 1_455
S3 U1 2.673686 1_545
S3 U3 2.758521 1_556
S4 U0 2.673686 1_545
S4 U2 2.758521 1_455
S5 U1 2.673686 1_555
S5 U3 2.758521 1_556
S6 U2 2.673686 1_555
S6 U0 2.758521 1_655
S7 U3 2.673686 1_565
S7 U1 2.758521 1_554
S8 U0 2.776986 1_655
S9 U1 2.776986 1_555
S10 U2 2.776986 1_455
S11 U3 2.776986 1_555
S12 U0 2.899478 1_555
S13 U1 2.899478 1_555
S14 U2 2.899478 1_555
S15 U3 2.899478 1_555
S16 U0 2.824618 1_555
S17 U1 2.824618 1_554
S18 U2 2.824618 1_555
S19 U3 2.824618 1_556
