# generated using pymatgen
data_LaAlNi4
_symmetry_space_group_name_H-M   'P 1'
_cell_length_a   4.94746638
_cell_length_b   4.94746638
_cell_length_c   4.02642633
_cell_angle_alpha   90.00000000
_cell_angle_beta   90.00000000
_cell_angle_gamma   117.26544620
_symmetry_Int_Tables_number   1
_chemical_formula_structural   LaAlNi4
_chemical_formula_sum   'La1 Al1 Ni4'
_cell_volume   87.60628714
_cell_formula_units_Z   1
loop_
 _symmetry_equiv_pos_site_id
 _symmetry_equiv_pos_as_xyz
  1  'x, y, z'
loop_
 _atom_site_type_symbol
 _atom_site_label
 _atom_site_symmetry_multiplicity
 _atom_site_fract_x
 _atom_site_fract_y
 _atom_site_fract_z
 _atom_site_occupancy
  La  La0  1  0.50000000  0.50000000  -0.00000000  1
  Al  Al0  1  0.00000000  0.00000000  0.50000000  1
  Ni  Ni0  1  0.16943118  0.83056882  0.00000000  1
  Ni  Ni1  1  0.83056882  0.16943118  0.00000000  1
  Ni  Ni2  1  0.00000000  0.50000000  0.50000000  1
  Ni  Ni3  1  0.50000000  0.00000000  0.50000000  1
loop_
_geom_bond_atom_site_label_1
_geom_bond_atom_site_label_2
_geom_bond_distance
_geom_bond_site_symmetry_2
La0 Ni0 2.792900 1_555
La0 Ni1 2.792900 1_555
La0 Ni1 2.946378 1_565
La0 Ni0 2.946378 1_655
La0 Ni1 2.946378 1_455
La0 Ni0 2.946378 1_545
La0 Ni2 3.189417 1_655
La0 Ni3 3.189417 1_565
La0 Ni3 3.189417 1_554
La0 Ni2 3.189417 1_555
La0 Ni3 3.189417 1_555
La0 Ni3 3.189417 1_564
La0 Ni2 3.189417 1_554
La0 Ni2 3.189417 1_654
Al0 Ni1 2.470259 1_456
Al0 Ni0 2.470259 1_546
Al0 Ni1 2.470259 1_455
Al0 Ni0 2.470259 1_545
Al0 Ni3 2.473733 1_455
Al0 Ni2 2.473733 1_555
Al0 Ni2 2.473733 1_545
Al0 Ni3 2.473733 1_555
Al0 La0 3.268795 1_445
Al0 La0 3.268795 1_446
Al0 La0 3.268795 1_555
Al0 La0 3.268795 1_556
Ni0 Ni2 2.484832 1_555
Ni0 Ni3 2.484832 1_564
Ni0 Ni2 2.484832 1_554
Ni0 Ni3 2.484832 1_565
Ni1 Ni3 2.484832 1_554
Ni1 Ni3 2.484832 1_555
Ni1 Ni2 2.484832 1_654
Ni1 Ni2 2.484832 1_655
Ni2 Ni3 2.575265 1_455
Ni2 Ni3 2.575265 1_565
