# generated using pymatgen
data_Mg2IrPt
_symmetry_space_group_name_H-M   'P 1'
_cell_length_a   4.38570151
_cell_length_b   4.38570151
_cell_length_c   4.38570151
_cell_angle_alpha   60.00000000
_cell_angle_beta   60.00000000
_cell_angle_gamma   60.00000000
_symmetry_Int_Tables_number   1
_chemical_formula_structural   Mg2IrPt
_chemical_formula_sum   'Mg2 Ir1 Pt1'
_cell_volume   59.64886909
_cell_formula_units_Z   1
loop_
 _symmetry_equiv_pos_site_id
 _symmetry_equiv_pos_as_xyz
  1  'x, y, z'
loop_
 _atom_site_type_symbol
 _atom_site_label
 _atom_site_symmetry_multiplicity
 _atom_site_fract_x
 _atom_site_fract_y
 _atom_site_fract_z
 _atom_site_occupancy
  Mg  Mg0  1  0.25000000  0.25000000  0.25000000  1
  Mg  Mg1  1  0.75000000  0.75000000  0.75000000  1
  Ir  Ir0  1  0.50000000  0.50000000  0.50000000  1
  Pt  Pt0  1  0.00000000  -0.00000000  -0.00000000  1
loop_
_geom_bond_atom_site_label_1
_geom_bond_atom_site_label_2
_geom_bond_distance
_geom_bond_site_symmetry_2
Mg0 Pt0 2.685683 1_655
Mg0 Pt0 2.685683 1_555
Mg0 Pt0 2.685683 1_556
Mg0 Pt0 2.685683 1_565
Mg1 Pt0 2.685683 1_566
Mg1 Pt0 2.685683 1_665
Mg1 Pt0 2.685683 1_656
Mg1 Pt0 2.685683 1_666
Ir0 Mg0 2.685683 1_655
Ir0 Mg1 2.685683 1_455
Ir0 Mg0 2.685683 1_565
Ir0 Mg1 2.685683 1_545
Ir0 Mg1 2.685683 1_554
Ir0 Mg1 2.685683 1_555
Ir0 Mg0 2.685683 1_555
Ir0 Mg0 2.685683 1_556
