# generated using pymatgen
data_KCO3
_symmetry_space_group_name_H-M   'P 1'
_cell_length_a   5.34122895
_cell_length_b   4.57520328
_cell_length_c   13.99214806
_cell_angle_alpha   70.77173588
_cell_angle_beta   90.00000000
_cell_angle_gamma   90.00000000
_symmetry_Int_Tables_number   1
_chemical_formula_structural   KCO3
_chemical_formula_sum   'K4 C4 O12'
_cell_volume   322.85419090
_cell_formula_units_Z   4
loop_
 _symmetry_equiv_pos_site_id
 _symmetry_equiv_pos_as_xyz
  1  'x, y, z'
loop_
 _atom_site_type_symbol
 _atom_site_label
 _atom_site_symmetry_multiplicity
 _atom_site_fract_x
 _atom_site_fract_y
 _atom_site_fract_z
 _atom_site_occupancy
  K  K0  1  0.39700930  0.59876551  0.62030914  1
  K  K1  1  0.89700930  0.40123449  0.87969086  1
  K  K2  1  0.60299070  0.40123449  0.37969086  1
  K  K3  1  0.10299070  0.59876551  0.12030914  1
  C  C0  1  0.89148637  0.02200190  0.61670256  1
  C  C1  1  0.39148637  0.97799810  0.88329744  1
  C  C2  1  0.10851363  0.97799810  0.38329744  1
  C  C3  1  0.60851363  0.02200190  0.11670256  1
  O  O0  1  0.90687346  0.75261300  0.68197103  1
  O  O1  1  0.40687346  0.24738700  0.81802897  1
  O  O2  1  0.09312654  0.24738700  0.31802897  1
  O  O3  1  0.59312654  0.75261300  0.18197103  1
  O  O4  1  0.68241085  0.15025837  0.58648827  1
  O  O5  1  0.18241085  0.84974163  0.91351173  1
  O  O6  1  0.31758915  0.84974163  0.41351173  1
  O  O7  1  0.81758915  0.15025837  0.08648827  1
  O  O8  1  0.09514061  0.16143097  0.58046419  1
  O  O9  1  0.59514061  0.83856903  0.91953581  1
  O  O10  1  0.90485939  0.83856903  0.41953581  1
  O  O11  1  0.40485939  0.16143097  0.08046419  1
loop_
_geom_bond_atom_site_label_1
_geom_bond_atom_site_label_2
_geom_bond_distance
_geom_bond_site_symmetry_2
K0 O1 2.703972 1_555
K0 O4 2.719941 1_555
K0 O8 2.765653 1_555
K0 O6 2.771748 1_555
K0 O4 2.850921 1_565
K0 O0 2.914343 1_455
K0 O8 2.931251 1_565
K0 O0 3.009356 1_555
K1 O0 2.703972 1_555
K1 O5 2.719941 1_655
K1 O9 2.765653 1_555
K1 O7 2.771748 1_556
K1 O5 2.850921 1_645
K1 O1 2.914343 1_555
K1 O9 2.931251 1_545
K1 O1 3.009356 1_655
K2 O3 2.703972 1_555
K2 O6 2.719941 1_555
K2 O10 2.765653 1_555
K2 O4 2.771748 1_555
K2 O6 2.850921 1_545
K2 O2 2.914343 1_655
K2 O10 2.931251 1_545
K2 O2 3.009356 1_555
K3 O2 2.703972 1_555
K3 O7 2.719941 1_455
K3 O11 2.765653 1_555
K3 O5 2.771748 1_554
K3 O7 2.850921 1_465
K3 O3 2.914343 1_555
K3 O11 2.931251 1_565
K3 O3 3.009356 1_455
C0 O4 1.267567 1_555
C0 O0 1.272190 1_545
C0 O8 1.278366 1_655
C1 O5 1.267567 1_555
C1 O1 1.272190 1_565
C1 O9 1.278366 1_555
C2 O6 1.267567 1_555
C2 O2 1.272190 1_565
C2 O10 1.278366 1_455
C3 O7 1.267567 1_555
C3 O3 1.272190 1_545
C3 O11 1.278366 1_555
