# generated using pymatgen
data_Ca2Ga7Au
_symmetry_space_group_name_H-M   'P 1'
_cell_length_a   4.19293969
_cell_length_b   4.19293969
_cell_length_c   11.21982477
_cell_angle_alpha   90.00000000
_cell_angle_beta   90.00000000
_cell_angle_gamma   90.00000000
_symmetry_Int_Tables_number   1
_chemical_formula_structural   Ca2Ga7Au
_chemical_formula_sum   'Ca2 Ga7 Au1'
_cell_volume   197.25285852
_cell_formula_units_Z   1
loop_
 _symmetry_equiv_pos_site_id
 _symmetry_equiv_pos_as_xyz
  1  'x, y, z'
loop_
 _atom_site_type_symbol
 _atom_site_label
 _atom_site_symmetry_multiplicity
 _atom_site_fract_x
 _atom_site_fract_y
 _atom_site_fract_z
 _atom_site_occupancy
  Ca  Ca0  1  0.00000000  -0.00000000  0.99849780  1
  Ca  Ca1  1  0.50000000  0.50000000  0.49988998  1
  Ga  Ga0  1  0.00000000  0.50000000  0.25256840  1
  Ga  Ga1  1  0.50000000  0.00000000  0.74807014  1
  Ga  Ga2  1  0.50000000  -0.00000000  0.25256840  1
  Ga  Ga3  1  0.00000000  0.50000000  0.74807014  1
  Ga  Ga4  1  -0.00000000  -0.00000000  0.61128398  1
  Ga  Ga5  1  -0.00000000  -0.00000000  0.39178746  1
  Ga  Ga6  1  0.50000000  0.50000000  0.88645479  1
  Au  Au0  1  0.50000000  0.50000000  0.11080892  1
loop_
_geom_bond_atom_site_label_1
_geom_bond_atom_site_label_2
_geom_bond_distance
_geom_bond_site_symmetry_2
Ca0 Ga6 3.220354 1_445
Ca0 Ga6 3.220354 1_555
Ca0 Ga6 3.220354 1_545
Ca0 Ga6 3.220354 1_455
Ca0 Ga1 3.505696 1_455
Ca0 Ga3 3.505696 1_545
Ca0 Ga3 3.505696 1_555
Ca0 Ga1 3.505696 1_555
Ca0 Ga0 3.538540 1_546
Ca0 Ga2 3.538540 1_456
Ca0 Ga2 3.538540 1_556
Ca0 Ga0 3.538540 1_556
Ca1 Ga5 3.203354 1_555
Ca1 Ga5 3.203354 1_655
Ca1 Ga5 3.203354 1_565
Ca1 Ga5 3.203354 1_665
Ca1 Ga4 3.217518 1_565
Ca1 Ga4 3.217518 1_665
Ca1 Ga4 3.217518 1_655
Ca1 Ga4 3.217518 1_555
Ca1 Ga0 3.477827 1_555
Ca1 Ga0 3.477827 1_655
Ca1 Ga2 3.477827 1_565
Ca1 Ga2 3.477827 1_555
Ca1 Ga3 3.485518 1_655
Ca1 Ga1 3.485518 1_565
Ca1 Ga3 3.485518 1_555
Ca1 Ga1 3.485518 1_555
Ga0 Ga5 2.614397 1_555
Ga0 Ga5 2.614397 1_565
Ga1 Ga4 2.598180 1_555
Ga1 Ga4 2.598180 1_655
Ga1 Ga6 2.608814 1_555
Ga1 Ga6 2.608814 1_545
Ga1 Ga3 2.964856 1_645
Ga1 Ga3 2.964856 1_655
Ga1 Ga3 2.964856 1_545
Ga1 Ga3 2.964856 1_555
Ga2 Ga5 2.614397 1_555
Ga2 Ga5 2.614397 1_655
Ga3 Ga4 2.598180 1_555
Ga3 Ga4 2.598180 1_565
Ga3 Ga6 2.608814 1_555
Ga3 Ga6 2.608814 1_455
Ga4 Ga5 2.462712 1_555
Au0 Ga6 2.517214 1_554
Au0 Ga0 2.631526 1_555
Au0 Ga0 2.631526 1_655
Au0 Ga2 2.631526 1_555
Au0 Ga2 2.631526 1_565
Au0 Ca0 3.221529 1_664
Au0 Ca0 3.221529 1_654
Au0 Ca0 3.221529 1_554
Au0 Ca0 3.221529 1_564
