# generated using pymatgen
data_Na2Sr(P2O9)2
_symmetry_space_group_name_H-M   'P 1'
_cell_length_a   8.95638154
_cell_length_b   8.95638154
_cell_length_c   8.95638154
_cell_angle_alpha   136.30938345
_cell_angle_beta   129.64432236
_cell_angle_gamma   68.83222590
_symmetry_Int_Tables_number   1
_chemical_formula_structural   Na2Sr(P2O9)2
_chemical_formula_sum   'Na2 Sr1 P4 O18'
_cell_volume   375.29874590
_cell_formula_units_Z   1
loop_
 _symmetry_equiv_pos_site_id
 _symmetry_equiv_pos_as_xyz
  1  'x, y, z'
loop_
 _atom_site_type_symbol
 _atom_site_label
 _atom_site_symmetry_multiplicity
 _atom_site_fract_x
 _atom_site_fract_y
 _atom_site_fract_z
 _atom_site_occupancy
  Na  Na0  1  0.73802300  0.59309300  0.85507100  1
  Na  Na1  1  0.26197700  0.11704800  0.85507100  1
  Sr  Sr0  1  0.50000000  0.52487000  0.02487000  1
  P  P0  1  0.69936700  0.04138200  0.94264000  1
  P  P1  1  0.30063300  0.24327300  0.34201500  1
  P  P2  1  0.90125800  0.24327300  0.94264000  1
  P  P3  1  0.09874200  0.04138200  0.34201500  1
  O  O0  1  0.60731400  0.80678100  0.74871900  1
  O  O1  1  0.39268600  0.14140500  0.19946700  1
  O  O2  1  0.94193800  0.14140500  0.74871900  1
  O  O3  1  0.05806200  0.80678100  0.19946700  1
  O  O4  1  0.42248000  0.43218900  0.63990500  1
  O  O5  1  0.57752000  0.21742400  0.00970800  1
  O  O6  1  0.20771600  0.21742400  0.63990500  1
  O  O7  1  0.79228400  0.43218900  0.00970800  1
  O  O8  1  0.21411300  0.04743200  0.26154500  1
  O  O9  1  0.78588700  0.04743200  0.83332000  1
  O  O10  1  0.89461700  0.11729900  0.22268200  1
  O  O11  1  0.10538300  0.32806500  0.22268200  1
  O  O12  1  0.90359500  0.64613300  0.54972800  1
  O  O13  1  0.09640500  0.64613300  0.74253900  1
  O  O14  1  0.34827600  0.61587800  0.26760200  1
  O  O15  1  0.65172400  0.91932600  0.26760200  1
  O  O16  1  0.89735000  0.55044200  0.65309200  1
  O  O17  1  0.10265000  0.75574100  0.65309200  1
loop_
_geom_bond_atom_site_label_1
_geom_bond_atom_site_label_2
_geom_bond_distance
_geom_bond_site_symmetry_2
Na0 O3 2.352876 1_656
Na0 O0 2.352881 1_555
Na0 O7 2.398531 1_556
Na0 O4 2.398544 1_555
Na0 O16 2.712140 1_555
Na0 O15 3.031005 1_556
Na1 O1 2.352873 1_556
Na1 O2 2.352873 1_455
Na1 O6 2.398540 1_555
Na1 O5 2.398548 1_556
Na1 O17 2.712143 1_545
Na1 O14 3.031005 1_556
O0 P0 1.502508 1_565
O1 P1 1.502508 1_555
O2 P2 1.502508 1_555
O3 P3 1.502508 1_565
O4 P1 1.503973 1_555
O4 Sr0 2.506319 1_556
O5 P0 1.503968 1_554
O5 Sr0 2.506322 1_555
O6 P3 1.503973 1_555
O6 Sr0 2.506323 1_556
O7 P2 1.503973 1_554
O7 Sr0 2.506323 1_555
O8 P3 1.623979 1_555
O8 P1 1.623979 1_555
O9 P0 1.623971 1_555
O9 P2 1.623984 1_555
O10 P0 1.614576 1_554
O10 P3 1.614576 1_655
O11 P2 1.614576 1_454
O11 P1 1.614576 1_555
O12 O13 1.469334 1_655
O12 O17 1.686059 1_655
O12 O16 1.686064 1_555
O12 Sr0 3.180073 1_555
O13 O16 1.686059 1_455
O13 O17 1.686064 1_555
O13 Sr0 3.180070 1_556
O14 Sr0 2.764855 1_555
O15 Sr0 2.764855 1_555
