# generated using pymatgen
data_Ho5Ge3
_symmetry_space_group_name_H-M   'P 1'
_cell_length_a   6.36386025
_cell_length_b   8.41232612
_cell_length_c   8.41228556
_cell_angle_alpha   120.00016950
_cell_angle_beta   90.00000000
_cell_angle_gamma   90.00000000
_symmetry_Int_Tables_number   1
_chemical_formula_structural   Ho5Ge3
_chemical_formula_sum   'Ho10 Ge6'
_cell_volume   390.01439026
_cell_formula_units_Z   2
loop_
 _symmetry_equiv_pos_site_id
 _symmetry_equiv_pos_as_xyz
  1  'x, y, z'
loop_
 _atom_site_type_symbol
 _atom_site_label
 _atom_site_symmetry_multiplicity
 _atom_site_fract_x
 _atom_site_fract_y
 _atom_site_fract_z
 _atom_site_occupancy
  Ho  Ho0  1  0.49999679  0.33333370  0.66667193  1
  Ho  Ho1  1  0.49999879  0.66666377  0.33332907  1
  Ho  Ho2  1  -0.00000021  0.66666730  0.33332907  1
  Ho  Ho3  1  0.00000179  0.33333623  0.66667193  1
  Ho  Ho4  1  0.75000344  0.24188378  -0.00000000  1
  Ho  Ho5  1  0.74999728  0.75812009  0.75811260  1
  Ho  Ho6  1  0.74999828  0.00000849  0.24188840  1
  Ho  Ho7  1  0.25000244  0.75811622  0.00000000  1
  Ho  Ho8  1  0.24999928  0.24187891  0.24188640  1
  Ho  Ho9  1  0.24999928  0.99999151  0.75811260  1
  Ge  Ge0  1  0.74999657  0.60675878  -0.00000000  1
  Ge  Ge1  1  0.75000092  0.39325494  0.39325964  1
  Ge  Ge2  1  0.75000092  0.99999531  0.60673936  1
  Ge  Ge3  1  0.24999757  0.39324122  0.00000000  1
  Ge  Ge4  1  0.25000192  0.60674506  0.60674036  1
  Ge  Ge5  1  0.25000192  0.00000469  0.39325964  1
loop_
_geom_bond_atom_site_label_1
_geom_bond_atom_site_label_2
_geom_bond_distance
_geom_bond_site_symmetry_2
Ge0 Ho5 2.890116 1_554
Ge0 Ho6 2.890123 1_565
Ge0 Ho1 3.038872 1_555
Ge0 Ho0 3.038876 1_554
Ge0 Ho2 3.038881 1_655
Ge0 Ho3 3.038888 1_654
Ge0 Ho4 3.069447 1_555
Ge0 Ho7 3.427193 1_555
Ge0 Ho7 3.427263 1_655
Ge1 Ho6 2.890091 1_555
Ge1 Ho4 2.890178 1_555
Ge1 Ho3 3.038866 1_655
Ge1 Ho0 3.038889 1_555
Ge1 Ho1 3.038908 1_555
Ge1 Ho2 3.038922 1_655
Ge1 Ho5 3.069298 1_555
Ge1 Ho8 3.427270 1_655
Ge1 Ho8 3.427289 1_555
Ge2 Ho5 2.890105 1_555
Ge2 Ho4 2.890185 1_566
Ge2 Ho2 3.038840 1_655
Ge2 Ho1 3.038867 1_555
Ge2 Ho0 3.038903 1_565
Ge2 Ho3 3.038910 1_665
Ge2 Ho6 3.069286 1_565
Ge2 Ho9 3.427271 1_655
Ge2 Ho9 3.427291 1_555
Ge3 Ho8 2.890115 1_555
Ge3 Ho9 2.890122 1_544
Ge3 Ho3 3.038858 1_554
Ge3 Ho0 3.038864 1_554
Ge3 Ho2 3.038877 1_555
Ge3 Ho1 3.038880 1_555
Ge3 Ho7 3.069447 1_555
Ge3 Ho4 3.427193 1_455
Ge3 Ho4 3.427263 1_555
Ge4 Ho9 2.890090 1_555
Ge4 Ho7 2.890178 1_556
Ge4 Ho1 3.038846 1_555
Ge4 Ho2 3.038879 1_555
Ge4 Ho3 3.038906 1_555
Ge4 Ho0 3.038906 1_555
Ge4 Ho8 3.069307 1_555
Ge4 Ho5 3.427249 1_555
Ge4 Ho5 3.427304 1_455
Ge5 Ho8 2.890097 1_555
Ge5 Ho7 2.890178 1_545
Ge5 Ho0 3.038837 1_555
Ge5 Ho3 3.038866 1_555
Ge5 Ho2 3.038894 1_545
Ge5 Ho1 3.038901 1_545
Ge5 Ho9 3.069303 1_545
Ge5 Ho6 3.427253 1_555
Ge5 Ho6 3.427296 1_455
