# generated using pymatgen
data_In2O3
_symmetry_space_group_name_H-M   'P 1'
_cell_length_a   5.52750049
_cell_length_b   5.70446195
_cell_length_c   15.97001531
_cell_angle_alpha   90.00000000
_cell_angle_beta   90.00000000
_cell_angle_gamma   90.00000000
_symmetry_Int_Tables_number   1
_chemical_formula_structural   In2O3
_chemical_formula_sum   'In16 O24'
_cell_volume   503.55719984
_cell_formula_units_Z   8
loop_
 _symmetry_equiv_pos_site_id
 _symmetry_equiv_pos_as_xyz
  1  'x, y, z'
loop_
 _atom_site_type_symbol
 _atom_site_label
 _atom_site_symmetry_multiplicity
 _atom_site_fract_x
 _atom_site_fract_y
 _atom_site_fract_z
 _atom_site_occupancy
  In  In0  1  0.49996601  0.79601542  0.57056865  1
  In  In1  1  -0.00003399  0.70398458  0.42943135  1
  In  In2  1  0.50003399  0.29601542  0.92943135  1
  In  In3  1  0.00003399  0.20398458  0.07056865  1
  In  In4  1  0.50003399  0.20398458  0.42943135  1
  In  In5  1  0.00003399  0.29601542  0.57056865  1
  In  In6  1  0.49996601  0.70398458  0.07056865  1
  In  In7  1  -0.00003399  0.79601542  0.92943135  1
  In  In8  1  0.49772964  0.74191719  0.81820684  1
  In  In9  1  0.99772964  0.75808281  0.18179316  1
  In  In10  1  0.50227036  0.24191719  0.68179316  1
  In  In11  1  0.00227036  0.25808281  0.31820684  1
  In  In12  1  0.50227036  0.25808281  0.18179316  1
  In  In13  1  0.00227036  0.24191719  0.81820684  1
  In  In14  1  0.49772964  0.75808281  0.31820684  1
  In  In15  1  0.99772964  0.74191719  0.68179316  1
  O  O0  1  0.85921642  0.87678445  0.79816420  1
  O  O1  1  0.35921642  0.62321555  0.20183580  1
  O  O2  1  0.14078358  0.37678445  0.70183580  1
  O  O3  1  0.64078358  0.12321555  0.29816420  1
  O  O4  1  0.14078358  0.12321555  0.20183580  1
  O  O5  1  0.64078358  0.37678445  0.79816420  1
  O  O6  1  0.85921642  0.62321555  0.29816420  1
  O  O7  1  0.35921642  0.87678445  0.70183580  1
  O  O8  1  0.70575600  0.52307380  0.62452194  1
  O  O9  1  0.20575600  0.97692620  0.37547806  1
  O  O10  1  0.29424400  0.02307380  0.87547806  1
  O  O11  1  0.79424400  0.47692620  0.12452194  1
  O  O12  1  0.29424400  0.47692620  0.37547806  1
  O  O13  1  0.79424400  0.02307380  0.62452194  1
  O  O14  1  0.70575600  0.97692620  0.12452194  1
  O  O15  1  0.20575600  0.52307380  0.87547806  1
  O  O16  1  0.64698836  0.65780482  0.94763175  1
  O  O17  1  0.14698836  0.84219518  0.05236825  1
  O  O18  1  0.35301164  0.15780482  0.55236825  1
  O  O19  1  0.85301164  0.34219518  0.44763175  1
  O  O20  1  0.35301164  0.34219518  0.05236825  1
  O  O21  1  0.85301164  0.15780482  0.94763175  1
  O  O22  1  0.64698836  0.84219518  0.44763175  1
  O  O23  1  0.14698836  0.65780482  0.55236825  1
loop_
_geom_bond_atom_site_label_1
_geom_bond_atom_site_label_2
_geom_bond_distance
_geom_bond_site_symmetry_2
In0 O8 2.111997 1_555
In0 O23 2.124339 1_555
In0 O22 2.141118 1_555
In0 O18 2.236879 1_565
In0 O13 2.250772 1_565
In0 O7 2.283023 1_555
In1 O9 2.111997 1_555
In1 O22 2.124339 1_455
In1 O23 2.141118 1_555
In1 O19 2.236879 1_455
In1 O12 2.250772 1_555
In1 O6 2.283023 1_455
In2 O10 2.111997 1_555
In2 O21 2.124339 1_555
In2 O20 2.141118 1_556
In2 O16 2.236879 1_555
In2 O15 2.250772 1_555
In2 O5 2.283023 1_555
In3 O11 2.111997 1_455
In3 O20 2.124339 1_555
In3 O21 2.141118 1_454
In3 O17 2.236879 1_545
In3 O14 2.250772 1_445
In3 O4 2.283023 1_555
In4 O12 2.111997 1_555
In4 O19 2.124339 1_555
In4 O18 2.141118 1_555
In4 O22 2.236879 1_545
In4 O9 2.250772 1_545
In4 O3 2.283023 1_555
In5 O13 2.111997 1_455
In5 O18 2.124339 1_555
In5 O19 2.141118 1_455
In5 O23 2.236879 1_555
In5 O8 2.250772 1_455
In5 O2 2.283023 1_555
In6 O14 2.111997 1_555
In6 O17 2.124339 1_555
In6 O16 2.141118 1_554
In6 O20 2.236879 1_555
In6 O11 2.250772 1_555
In6 O1 2.283023 1_555
In7 O15 2.111997 1_555
In7 O16 2.124339 1_455
In7 O17 2.141118 1_556
In7 O21 2.236879 1_465
In7 O10 2.250772 1_565
In7 O0 2.283023 1_455
In8 O7 2.152187 1_555
In8 O10 2.161934 1_565
In8 O0 2.164907 1_555
In8 O15 2.235983 1_555
In8 O5 2.250804 1_555
In8 O16 2.276630 1_555
In9 O6 2.152187 1_555
In9 O11 2.161934 1_555
In9 O1 2.164907 1_655
In9 O14 2.235983 1_555
In9 O4 2.250804 1_665
In9 O17 2.276630 1_655
In10 O5 2.152187 1_555
In10 O8 2.161934 1_555
In10 O2 2.164907 1_555
In10 O13 2.235983 1_555
In10 O7 2.250804 1_545
In10 O18 2.276630 1_555
In11 O4 2.152187 1_555
In11 O9 2.161934 1_545
In11 O3 2.164907 1_455
In11 O12 2.235983 1_555
In11 O6 2.250804 1_455
In11 O19 2.276630 1_455
In12 O3 2.152187 1_555
In12 O14 2.161934 1_545
In12 O4 2.164907 1_555
In12 O11 2.235983 1_555
In12 O1 2.250804 1_555
In12 O20 2.276630 1_555
In13 O2 2.152187 1_555
In13 O15 2.161934 1_555
In13 O5 2.164907 1_455
In13 O10 2.235983 1_555
In13 O0 2.250804 1_445
In13 O21 2.276630 1_455
In14 O1 2.152187 1_555
In14 O12 2.161934 1_555
In14 O6 2.164907 1_555
In14 O9 2.235983 1_555
In14 O3 2.250804 1_565
In14 O22 2.276630 1_555
In15 O0 2.152187 1_555
In15 O13 2.161934 1_565
In15 O7 2.164907 1_655
In15 O8 2.235983 1_555
In15 O2 2.250804 1_655
In15 O23 2.276630 1_655
