# generated using pymatgen
data_KCe2FeO5
_symmetry_space_group_name_H-M   'P 1'
_cell_length_a   5.95898100
_cell_length_b   9.20004900
_cell_length_c   11.04157100
_cell_angle_alpha   90.00000000
_cell_angle_beta   90.00000000
_cell_angle_gamma   90.00000000
_symmetry_Int_Tables_number   1
_chemical_formula_structural   KCe2FeO5
_chemical_formula_sum   'K4 Ce8 Fe4 O20'
_cell_volume   605.33113258
_cell_formula_units_Z   4
loop_
 _symmetry_equiv_pos_site_id
 _symmetry_equiv_pos_as_xyz
  1  'x, y, z'
loop_
 _atom_site_type_symbol
 _atom_site_label
 _atom_site_symmetry_multiplicity
 _atom_site_fract_x
 _atom_site_fract_y
 _atom_site_fract_z
 _atom_site_occupancy
  K  K0  1  0.24771300  0.00330400  0.35352300  1
  K  K1  1  0.24771300  0.49669600  0.85352300  1
  K  K2  1  0.74771300  0.99669600  0.64647700  1
  K  K3  1  0.74771300  0.50330400  0.14647700  1
  Ce  Ce0  1  0.23018300  0.28798700  0.14126700  1
  Ce  Ce1  1  0.23018300  0.21201300  0.64126700  1
  Ce  Ce2  1  0.73018300  0.71201300  0.85873300  1
  Ce  Ce3  1  0.73018300  0.78798700  0.35873300  1
  Ce  Ce4  1  0.24516000  0.00096800  0.88541100  1
  Ce  Ce5  1  0.24516000  0.49903200  0.38541100  1
  Ce  Ce6  1  0.74516000  0.99903200  0.11458900  1
  Ce  Ce7  1  0.74516000  0.50096800  0.61458900  1
  Fe  Fe0  1  0.25489100  0.74495100  0.11236700  1
  Fe  Fe1  1  0.25489100  0.75504900  0.61236700  1
  Fe  Fe2  1  0.75489100  0.25504900  0.88763300  1
  Fe  Fe3  1  0.75489100  0.24495100  0.38763300  1
  O  O0  1  0.88412700  0.22180200  0.06077900  1
  O  O1  1  0.38412700  0.77819800  0.93922100  1
  O  O2  1  0.38412700  0.72180200  0.43922100  1
  O  O3  1  0.88412700  0.27819800  0.56077900  1
  O  O4  1  0.38101900  0.07681900  0.07080800  1
  O  O5  1  0.38101900  0.42318100  0.57080800  1
  O  O6  1  0.88101900  0.92318100  0.92919200  1
  O  O7  1  0.88101900  0.57681900  0.42919200  1
  O  O8  1  0.04623600  0.19864000  0.80931800  1
  O  O9  1  0.49935600  0.33510500  0.29454100  1
  O  O10  1  0.54623600  0.80136000  0.19068200  1
  O  O11  1  0.99935600  0.66489500  0.70545900  1
  O  O12  1  0.99935600  0.83510500  0.20545900  1
  O  O13  1  0.54623600  0.69864000  0.69068200  1
  O  O14  1  0.49935600  0.16489500  0.79454100  1
  O  O15  1  0.04623600  0.30136000  0.30931800  1
  O  O16  1  0.21921700  0.97722300  0.62914000  1
  O  O17  1  0.21921700  0.52277700  0.12914000  1
  O  O18  1  0.71921700  0.02277700  0.37086000  1
  O  O19  1  0.71921700  0.47722300  0.87086000  1
loop_
_geom_bond_atom_site_label_1
_geom_bond_atom_site_label_2
_geom_bond_distance
_geom_bond_site_symmetry_2
K0 O12 2.693993 1_445
K0 O18 2.821890 1_555
K0 O2 2.874611 1_545
K0 O15 3.032976 1_555
K0 O16 3.057409 1_545
K0 O10 3.138329 1_545
K0 O18 3.160192 1_455
K0 O4 3.291346 1_555
K1 O11 2.693993 1_455
K1 O19 2.821890 1_555
K1 O1 2.874611 1_555
K1 O8 3.032976 1_555
K1 O17 3.057409 1_556
K1 O13 3.138329 1_555
K1 O19 3.160192 1_455
K1 O5 3.291346 1_555
K2 O14 2.693993 1_565
K2 O16 2.821890 1_655
K2 O3 2.874611 1_565
K2 O13 3.032976 1_555
K2 O18 3.057409 1_565
K2 O8 3.138329 1_665
K2 O16 3.160192 1_555
K2 O6 3.291346 1_555
K3 O9 2.693993 1_555
K3 O17 2.821890 1_655
K3 O0 2.874611 1_555
K3 O10 3.032976 1_555
K3 O19 3.057409 1_554
K3 O15 3.138329 1_655
K3 O17 3.160192 1_555
K3 O7 3.291346 1_555
Ce0 O15 2.158636 1_555
Ce0 O17 2.165212 1_555
Ce0 O4 2.277596 1_555
Ce0 O0 2.326586 1_455
Ce0 O9 2.371684 1_555
Ce1 O8 2.158636 1_555
Ce1 O16 2.165212 1_545
Ce1 O5 2.277596 1_555
Ce1 O3 2.326586 1_455
Ce1 O14 2.371684 1_555
Ce2 O13 2.158636 1_555
Ce2 O19 2.165212 1_555
Ce2 O6 2.277596 1_555
Ce2 O1 2.326586 1_555
Ce2 O11 2.371684 1_555
Ce3 O10 2.158636 1_555
Ce3 O18 2.165212 1_565
Ce3 O7 2.277596 1_555
Ce3 O2 2.326586 1_555
Ce3 O12 2.371684 1_555
Ce4 O1 2.288928 1_545
Ce4 O4 2.309308 1_556
Ce4 O8 2.327730 1_555
Ce4 O6 2.335453 1_445
Ce4 O14 2.361281 1_555
Ce4 O16 2.842262 1_545
Ce5 O2 2.288928 1_555
Ce5 O5 2.309308 1_555
Ce5 O15 2.327730 1_555
Ce5 O7 2.335453 1_455
Ce5 O9 2.361281 1_555
Ce5 O17 2.842262 1_555
Ce6 O0 2.288928 1_565
Ce6 O6 2.309308 1_554
Ce6 O10 2.327730 1_555
Ce6 O4 2.335453 1_565
Ce6 O12 2.361281 1_555
Ce6 O18 2.842262 1_565
Ce7 O3 2.288928 1_555
Ce7 O7 2.309308 1_555
Ce7 O13 2.327730 1_555
Ce7 O5 2.335453 1_555
Ce7 O11 2.361281 1_555
Ce7 O19 2.842262 1_555
Fe0 O10 2.007779 1_555
Fe0 O12 2.015734 1_455
Fe0 O17 2.063365 1_555
Fe0 O1 2.083658 1_554
Fe1 O13 2.007779 1_555
Fe1 O11 2.015734 1_455
Fe1 O16 2.063365 1_555
Fe1 O2 2.083658 1_555
Fe2 O8 2.007779 1_655
Fe2 O14 2.015734 1_555
Fe2 O19 2.063365 1_555
Fe2 O0 2.083658 1_556
Fe3 O15 2.007779 1_655
Fe3 O9 2.015734 1_555
Fe3 O18 2.063365 1_555
Fe3 O3 2.083658 1_555
