# generated using pymatgen
data_Li9Co7O16
_symmetry_space_group_name_H-M   'P 1'
_cell_length_a   5.84149500
_cell_length_b   5.85756889
_cell_length_c   8.68490872
_cell_angle_alpha   89.10769385
_cell_angle_beta   70.38406939
_cell_angle_gamma   89.66039429
_symmetry_Int_Tables_number   1
_chemical_formula_structural   Li9Co7O16
_chemical_formula_sum   'Li9 Co7 O16'
_cell_volume   279.89056408
_cell_formula_units_Z   1
loop_
 _symmetry_equiv_pos_site_id
 _symmetry_equiv_pos_as_xyz
  1  'x, y, z'
loop_
 _atom_site_type_symbol
 _atom_site_label
 _atom_site_symmetry_multiplicity
 _atom_site_fract_x
 _atom_site_fract_y
 _atom_site_fract_z
 _atom_site_occupancy
  Li  Li0  1  0.00000000  0.00000000  0.00000000  1
  Li  Li1  1  0.12418300  0.74714900  0.24653800  1
  Li  Li2  1  0.50000000  0.00000000  0.00000000  1
  Li  Li3  1  0.63338200  0.74668600  0.24058500  1
  Li  Li4  1  0.74992800  0.49912400  0.50051300  1
  Li  Li5  1  0.25007200  0.50087600  0.49948700  1
  Li  Li6  1  0.36661800  0.25331400  0.75941500  1
  Li  Li7  1  0.87581700  0.25285100  0.75346200  1
  Li  Li8  1  0.00000000  0.50000000  0.00000000  1
  Co  Co0  1  0.87284000  0.74404200  0.76125100  1
  Co  Co1  1  0.50000000  0.50000000  0.00000000  1
  Co  Co2  1  0.12716000  0.25595800  0.23874900  1
  Co  Co3  1  0.24902200  0.00081700  0.50003200  1
  Co  Co4  1  0.36980100  0.74439200  0.75533200  1
  Co  Co5  1  0.63019900  0.25560800  0.24466800  1
  Co  Co6  1  0.75097800  0.99918300  0.49996800  1
  O  O0  1  0.74185200  0.73676200  0.98821900  1
  O  O1  1  0.85625800  0.47494300  0.25434100  1
  O  O2  1  0.27569300  0.73609100  0.98045600  1
  O  O3  1  0.39293400  0.48648300  0.23800100  1
  O  O4  1  0.51289100  0.23873300  0.48114600  1
  O  O5  1  0.00662200  0.23802000  0.49627700  1
  O  O6  1  0.13675900  0.98215500  0.74833500  1
  O  O7  1  0.61333500  0.97862200  0.74171400  1
  O  O8  1  0.25814800  0.26323800  0.01178100  1
  O  O9  1  0.38666500  0.02137800  0.25828600  1
  O  O10  1  0.72430700  0.26390900  0.01954400  1
  O  O11  1  0.86324100  0.01784500  0.25166500  1
  O  O12  1  0.99337800  0.76198000  0.50372300  1
  O  O13  1  0.48710900  0.76126700  0.51885400  1
  O  O14  1  0.60706600  0.51351700  0.76199900  1
  O  O15  1  0.14374200  0.52505700  0.74565900  1
loop_
_geom_bond_atom_site_label_1
_geom_bond_atom_site_label_2
_geom_bond_distance
_geom_bond_site_symmetry_2
Li0 O11 2.064004 1_455
Li0 O6 2.064004 1_544
Li0 O8 2.190452 1_555
Li0 O0 2.190452 1_444
Li0 O10 2.192535 1_455
Li0 O2 2.192535 1_544
Li1 O12 2.107086 1_455
Li1 O3 2.167578 1_555
Li1 O2 2.181398 1_554
Li1 O11 2.183487 1_465
Li1 O1 2.225174 1_455
Li1 O9 2.254101 1_565
Li2 O0 2.065431 1_544
Li2 O8 2.065431 1_555
Li2 O2 2.077710 1_544
Li2 O10 2.077710 1_555
Li2 O7 2.120500 1_544
Li2 O9 2.120500 1_555
Li3 O0 2.068772 1_554
Li3 O1 2.077719 1_555
Li3 O3 2.084226 1_555
Li3 O11 2.109918 1_565
Li3 O9 2.126289 1_565
Li3 O13 2.279714 1_555
Li4 O1 2.023262 1_555
Li4 O12 2.108971 1_555
Li4 O4 2.112194 1_555
Li4 O5 2.127553 1_655
Li4 O13 2.134404 1_555
Li4 O14 2.143256 1_555
Li5 O15 2.023262 1_555
Li5 O5 2.108971 1_555
Li5 O13 2.112194 1_555
Li5 O12 2.127553 1_455
Li5 O4 2.134404 1_555
Li5 O3 2.143256 1_555
Li6 O8 2.068772 1_556
Li6 O15 2.077719 1_555
Li6 O14 2.084226 1_555
Li6 O6 2.109918 1_545
Li6 O7 2.126289 1_545
Li6 O4 2.279714 1_555
Li7 O5 2.107086 1_655
Li7 O14 2.167578 1_555
Li7 O10 2.181398 1_556
Li7 O6 2.183487 1_645
Li7 O15 2.225174 1_655
Li7 O7 2.254101 1_545
Li8 O8 2.069343 1_555
Li8 O0 2.069343 1_454
Li8 O1 2.086138 1_455
Li8 O15 2.086138 1_554
Li8 O10 2.090552 1_455
Li8 O2 2.090552 1_554
Co0 O0 1.859563 1_555
Co0 O15 2.001348 1_655
Co0 O6 2.058940 1_655
Co0 O14 2.061920 1_555
Co0 O7 2.086994 1_555
Co0 O12 2.108413 1_555
Co1 O2 1.943880 1_554
Co1 O10 1.943880 1_555
Co1 O3 1.948712 1_555
Co1 O14 1.948712 1_554
Co1 O0 1.962527 1_554
Co1 O8 1.962527 1_555
Co2 O8 1.859563 1_555
Co2 O1 2.001348 1_455
Co2 O11 2.058940 1_455
Co2 O3 2.061920 1_555
Co2 O9 2.086994 1_555
Co2 O5 2.108413 1_555
Co3 O9 1.982142 1_555
Co3 O5 1.985662 1_555
Co3 O13 2.013029 1_545
Co3 O6 2.033821 1_545
Co3 O12 2.044393 1_445
Co3 O4 2.047810 1_555
Co4 O2 1.844720 1_555
Co4 O15 1.870676 1_555
Co4 O13 1.935699 1_555
Co4 O14 1.944844 1_555
Co4 O7 1.955846 1_555
Co4 O6 1.956259 1_555
Co5 O10 1.844720 1_555
Co5 O1 1.870676 1_555
Co5 O4 1.935699 1_555
Co5 O3 1.944844 1_555
Co5 O9 1.955846 1_555
Co5 O11 1.956259 1_555
Co6 O7 1.982142 1_555
Co6 O12 1.985662 1_555
Co6 O4 2.013029 1_565
Co6 O11 2.033821 1_565
Co6 O5 2.044393 1_665
Co6 O13 2.047810 1_555
