# generated using pymatgen
data_InAs4Pd15
_symmetry_space_group_name_H-M   'P 1'
_cell_length_a   18.47709191
_cell_length_b   18.47709191
_cell_length_c   18.47709221
_cell_angle_alpha   13.85315503
_cell_angle_beta   13.85315503
_cell_angle_gamma   13.85315517
_symmetry_Int_Tables_number   1
_chemical_formula_structural   InAs4Pd15
_chemical_formula_sum   'In1 As4 Pd15'
_cell_volume   314.71300205
_cell_formula_units_Z   1
loop_
 _symmetry_equiv_pos_site_id
 _symmetry_equiv_pos_as_xyz
  1  'x, y, z'
loop_
 _atom_site_type_symbol
 _atom_site_label
 _atom_site_symmetry_multiplicity
 _atom_site_fract_x
 _atom_site_fract_y
 _atom_site_fract_z
 _atom_site_occupancy
  In  In0  1  0.00000000  0.00000000  0.00000000  1
  As  As0  1  0.59912600  0.59912600  0.59912600  1
  As  As1  1  0.19981000  0.19981000  0.19981000  1
  As  As2  1  0.80019000  0.80019000  0.80019000  1
  As  As3  1  0.40087400  0.40087400  0.40087400  1
  Pd  Pd0  1  0.05153000  0.05153000  0.05153000  1
  Pd  Pd1  1  0.44973800  0.44973800  0.44973800  1
  Pd  Pd2  1  0.84927600  0.84927600  0.84927600  1
  Pd  Pd3  1  0.64735400  0.64735400  0.64735400  1
  Pd  Pd4  1  0.25095200  0.25095200  0.25095200  1
  Pd  Pd5  1  0.35264600  0.35264600  0.35264600  1
  Pd  Pd6  1  0.74904800  0.74904800  0.74904800  1
  Pd  Pd7  1  0.15072400  0.15072400  0.15072400  1
  Pd  Pd8  1  0.94847000  0.94847000  0.94847000  1
  Pd  Pd9  1  0.55026200  0.55026200  0.55026200  1
  Pd  Pd10  1  0.69846100  0.69846100  0.69846100  1
  Pd  Pd11  1  0.10089200  0.10089200  0.10089200  1
  Pd  Pd12  1  0.50000000  0.50000000  0.50000000  1
  Pd  Pd13  1  0.30153900  0.30153900  0.30153900  1
  Pd  Pd14  1  0.89910800  0.89910800  0.89910800  1
loop_
_geom_bond_atom_site_label_1
_geom_bond_atom_site_label_2
_geom_bond_distance
_geom_bond_site_symmetry_2
In0 Pd5 2.782833 1_554
In0 Pd3 2.782833 1_445
In0 Pd5 2.782833 1_455
In0 Pd5 2.782833 1_545
In0 Pd3 2.782833 1_454
In0 Pd3 2.782833 1_544
In0 Pd8 2.828543 1_444
In0 Pd0 2.828543 1_555
In0 Pd13 3.109048 1_455
In0 Pd10 3.109048 1_544
In0 Pd10 3.109048 1_454
In0 Pd13 3.109048 1_545
In0 Pd10 3.109048 1_445
In0 Pd13 3.109048 1_554
As0 Pd3 2.647292 1_555
As0 Pd9 2.682203 1_555
As0 Pd4 2.698882 1_556
As0 Pd4 2.698882 1_565
As0 Pd4 2.698882 1_655
As0 Pd8 2.718956 1_554
As0 Pd8 2.718957 1_455
As0 Pd8 2.718957 1_545
As0 Pd14 3.157815 1_545
As0 Pd14 3.157815 1_455
As0 Pd14 3.157816 1_554
As1 Pd7 2.694389 1_555
As1 Pd9 2.739220 1_554
As1 Pd9 2.739220 1_545
As1 Pd9 2.739220 1_455
As1 Pd2 2.740767 1_445
As1 Pd2 2.740767 1_454
As1 Pd2 2.740767 1_544
As1 Pd4 2.807245 1_555
As1 Pd14 3.135069 1_454
As1 Pd14 3.135069 1_544
As1 Pd14 3.135069 1_445
As2 Pd2 2.694389 1_555
As2 Pd1 2.739220 1_556
As2 Pd1 2.739220 1_565
As2 Pd1 2.739220 1_655
As2 Pd7 2.740767 1_665
As2 Pd7 2.740767 1_656
As2 Pd7 2.740767 1_566
As2 Pd6 2.807245 1_555
As2 Pd11 3.135069 1_656
As2 Pd11 3.135069 1_566
As2 Pd11 3.135069 1_665
As3 Pd5 2.647292 1_555
As3 Pd1 2.682203 1_555
As3 Pd6 2.698882 1_554
As3 Pd6 2.698882 1_455
As3 Pd6 2.698882 1_545
As3 Pd0 2.718956 1_556
As3 Pd0 2.718957 1_565
As3 Pd0 2.718957 1_655
As3 Pd11 3.157815 1_655
As3 Pd11 3.157815 1_565
As3 Pd11 3.157816 1_556
Pd0 Pd11 2.709539 1_555
Pd0 Pd10 2.791760 1_445
Pd0 Pd10 2.791760 1_544
Pd0 Pd10 2.791760 1_454
Pd1 Pd11 2.710244 1_556
Pd1 Pd11 2.710244 1_565
Pd1 Pd11 2.710244 1_655
Pd1 Pd12 2.758941 1_555
Pd10 Pd5 2.662661 1_556
Pd10 Pd5 2.662661 1_565
Pd10 Pd5 2.662661 1_655
Pd10 Pd6 2.776781 1_555
Pd10 Pd3 2.805324 1_555
Pd11 Pd7 2.735338 1_555
Pd11 Pd6 2.766362 1_445
Pd11 Pd6 2.766362 1_454
Pd11 Pd6 2.766362 1_544
Pd12 Pd2 2.717752 1_554
Pd12 Pd7 2.717752 1_556
Pd12 Pd2 2.717752 1_455
Pd12 Pd2 2.717752 1_545
Pd12 Pd7 2.717752 1_655
Pd12 Pd7 2.717752 1_565
Pd12 Pd9 2.758941 1_555
Pd13 Pd3 2.662661 1_554
Pd13 Pd3 2.662661 1_545
Pd13 Pd3 2.662661 1_455
Pd13 Pd4 2.776781 1_555
Pd13 Pd8 2.791760 1_445
Pd13 Pd8 2.791760 1_544
Pd13 Pd8 2.791760 1_454
Pd13 Pd5 2.805324 1_555
Pd14 Pd8 2.709539 1_555
Pd14 Pd9 2.710244 1_556
Pd14 Pd9 2.710244 1_565
Pd14 Pd9 2.710244 1_655
Pd14 Pd2 2.735338 1_555
Pd14 Pd4 2.766362 1_665
Pd14 Pd4 2.766362 1_566
Pd14 Pd4 2.766362 1_656
