# generated using pymatgen
data_Ga3C3N7
_symmetry_space_group_name_H-M   'P 1'
_cell_length_a   6.58405886
_cell_length_b   13.10652807
_cell_length_c   14.46323544
_cell_angle_alpha   90.00000000
_cell_angle_beta   90.00000000
_cell_angle_gamma   90.00000000
_symmetry_Int_Tables_number   1
_chemical_formula_structural   Ga3C3N7
_chemical_formula_sum   'Ga24 C24 N56'
_cell_volume   1248.09264128
_cell_formula_units_Z   8
loop_
 _symmetry_equiv_pos_site_id
 _symmetry_equiv_pos_as_xyz
  1  'x, y, z'
loop_
 _atom_site_type_symbol
 _atom_site_label
 _atom_site_symmetry_multiplicity
 _atom_site_fract_x
 _atom_site_fract_y
 _atom_site_fract_z
 _atom_site_occupancy
  Ga  Ga0  1  0.15706615  0.53094761  0.11429383  1
  Ga  Ga1  1  0.34293385  0.46905239  0.61429383  1
  Ga  Ga2  1  0.65706615  0.96905239  0.88570617  1
  Ga  Ga3  1  0.84293385  0.03094761  0.38570617  1
  Ga  Ga4  1  0.34838482  0.66349253  0.29248697  1
  Ga  Ga5  1  0.15161518  0.33650747  0.79248697  1
  Ga  Ga6  1  0.84838482  0.83650747  0.70751303  1
  Ga  Ga7  1  0.65161518  0.16349253  0.20751303  1
  Ga  Ga8  1  0.48123357  0.40631923  0.21779631  1
  Ga  Ga9  1  0.01876643  0.59368077  0.71779631  1
  Ga  Ga10  1  0.98123357  0.09368077  0.78220369  1
  Ga  Ga11  1  0.51876643  0.90631923  0.28220369  1
  Ga  Ga12  1  0.62087621  0.65548071  0.14672475  1
  Ga  Ga13  1  0.87912379  0.34451929  0.64672475  1
  Ga  Ga14  1  0.12087621  0.84451929  0.85327525  1
  Ga  Ga15  1  0.37912379  0.15548071  0.35327525  1
  Ga  Ga16  1  0.46925939  0.59610347  0.93482534  1
  Ga  Ga17  1  0.03074061  0.40389653  0.43482534  1
  Ga  Ga18  1  0.96925939  0.90389653  0.06517466  1
  Ga  Ga19  1  0.53074061  0.09610347  0.56517466  1
  Ga  Ga20  1  0.81355993  0.73859352  0.35559064  1
  Ga  Ga21  1  0.68644007  0.26140648  0.85559064  1
  Ga  Ga22  1  0.31355993  0.76140648  0.64440936  1
  Ga  Ga23  1  0.18644007  0.23859352  0.14440936  1
  C  C0  1  0.82763243  0.86570355  0.49836643  1
  C  C1  1  0.67236757  0.13429645  0.99836643  1
  C  C2  1  0.32763243  0.63429645  0.50163357  1
  C  C3  1  0.17236757  0.36570355  0.00163357  1
  C  C4  1  0.33329804  0.86319852  0.46225140  1
  C  C5  1  0.16670196  0.13680148  0.96225140  1
  C  C6  1  0.83329804  0.63680148  0.53774860  1
  C  C7  1  0.66670196  0.36319852  0.03774860  1
  C  C8  1  0.41610012  0.43762417  0.41531060  1
  C  C9  1  0.08389988  0.56237583  0.91531060  1
  C  C10  1  0.91610012  0.06237583  0.58468940  1
  C  C11  1  0.58389988  0.93762417  0.08468940  1
  C  C12  1  0.79504616  0.69671057  0.96783984  1
  C  C13  1  0.70495384  0.30328943  0.46783984  1
  C  C14  1  0.29504616  0.80328943  0.03216016  1
  C  C15  1  0.20495384  0.19671057  0.53216016  1
  C  C16  1  0.01179730  0.75736382  0.20120919  1
  C  C17  1  0.48820270  0.24263618  0.70120919  1
  C  C18  1  0.51179730  0.74263618  0.79879081  1
  C  C19  1  0.98820270  0.25736382  0.29879081  1
  C  C20  1  0.93697268  0.52205354  0.25978212  1
  C  C21  1  0.56302732  0.47794646  0.75978212  1
  C  C22  1  0.43697268  0.97794646  0.74021788  1
  C  C23  1  0.06302732  0.02205354  0.24021788  1
  N  N0  1  0.32208388  0.64321064  0.42025604  1
  N  N1  1  0.17791612  0.35678936  0.92025604  1
  N  N2  1  0.82208388  0.85678936  0.57974396  1
  N  N3  1  0.67791612  0.14321064  0.07974396  1
  N  N4  1  0.83195981  0.87844157  0.41109870  1
  N  N5  1  0.66804019  0.12155843  0.91109870  1
  N  N6  1  0.33195981  0.62155843  0.58890130  1
  N  N7  1  0.16804019  0.37844157  0.08890130  1
  N  N8  1  0.30724073  0.85060345  0.54523623  1
  N  N9  1  0.19275927  0.14939655  0.04523623  1
  N  N10  1  0.80724073  0.64939655  0.45476377  1
  N  N11  1  0.69275927  0.35060345  0.95476377  1
  N  N12  1  0.34143804  0.88164318  0.37949079  1
  N  N13  1  0.15856196  0.11835682  0.87949079  1
  N  N14  1  0.84143804  0.61835682  0.62050921  1
  N  N15  1  0.65856196  0.38164318  0.12050921  1
  N  N16  1  0.51628556  0.44321987  0.34672854  1
  N  N17  1  0.98371444  0.55678013  0.84672854  1
  N  N18  1  0.01628556  0.05678013  0.65327146  1
  N  N19  1  0.48371444  0.94321987  0.15327146  1
  N  N20  1  0.30020084  0.43020242  0.48522033  1
  N  N21  1  0.19979916  0.56979758  0.98522033  1
  N  N22  1  0.80020084  0.06979758  0.51477967  1
  N  N23  1  0.69979916  0.93020242  0.01477967  1
  N  N24  1  0.38268371  0.74452924  0.08043153  1
  N  N25  1  0.11731629  0.25547076  0.58043153  1
  N  N26  1  0.88268371  0.75547076  0.91956847  1
  N  N27  1  0.61731629  0.24452924  0.41956847  1
  N  N28  1  0.69348512  0.62963673  0.01368230  1
  N  N29  1  0.80651488  0.37036327  0.51368230  1
  N  N30  1  0.19348512  0.87036327  0.98631770  1
  N  N31  1  0.30651488  0.12963673  0.48631770  1
  N  N32  1  0.92224622  0.77796159  0.13049789  1
  N  N33  1  0.57775378  0.22203841  0.63049789  1
  N  N34  1  0.42224622  0.72203841  0.86950211  1
  N  N35  1  0.07775378  0.27796159  0.36950211  1
  N  N36  1  0.07685545  0.73193835  0.27866838  1
  N  N37  1  0.42314455  0.26806165  0.77866838  1
  N  N38  1  0.57685545  0.76806165  0.72133162  1
  N  N39  1  0.92314455  0.23193835  0.22133162  1
  N  N40  1  0.89979736  0.55680116  0.18037186  1
  N  N41  1  0.60020264  0.44319884  0.68037186  1
  N  N42  1  0.39979736  0.94319884  0.81962814  1
  N  N43  1  0.10020264  0.05680116  0.31962814  1
  N  N44  1  0.51526734  0.50557792  0.83584404  1
  N  N45  1  0.98473266  0.49442208  0.33584404  1
  N  N46  1  0.01526734  0.99442208  0.16415596  1
  N  N47  1  0.48473266  0.00557792  0.66415596  1
  N  N48  1  0.59416152  0.74483912  0.26489871  1
  N  N49  1  0.90583848  0.25516088  0.76489871  1
  N  N50  1  0.09416152  0.75516088  0.73510129  1
  N  N51  1  0.40583848  0.24483912  0.23510129  1
  N  N52  1  0.39070189  0.55694120  0.19279710  1
  N  N53  1  0.10929811  0.44305880  0.69279710  1
  N  N54  1  0.89070189  0.94305880  0.80720290  1
  N  N55  1  0.60929811  0.05694120  0.30720290  1
loop_
_geom_bond_atom_site_label_1
_geom_bond_atom_site_label_2
_geom_bond_distance
_geom_bond_site_symmetry_2
Ga0 N52 1.942036 1_555
Ga0 N21 1.955365 1_554
Ga0 N40 1.974181 1_455
Ga0 N7 2.033568 1_555
Ga1 N53 1.942036 1_555
Ga1 N20 1.955365 1_555
Ga1 N41 1.974181 1_555
Ga1 N6 2.033568 1_555
Ga2 N54 1.942036 1_555
Ga2 N23 1.955365 1_556
Ga2 N42 1.974181 1_555
Ga2 N5 2.033568 1_565
Ga3 N55 1.942036 1_555
Ga3 N22 1.955365 1_555
Ga3 N43 1.974181 1_655
Ga3 N4 2.033568 1_545
Ga4 N0 1.874989 1_555
Ga4 N48 1.978518 1_555
Ga4 N36 2.010178 1_555
Ga4 N52 2.026521 1_555
Ga5 N1 1.874989 1_555
Ga5 N49 1.978518 1_455
Ga5 N37 2.010178 1_555
Ga5 N53 2.026521 1_555
Ga6 N2 1.874989 1_555
Ga6 N50 1.978518 1_655
Ga6 N38 2.010178 1_555
Ga6 N54 2.026521 1_555
Ga7 N3 1.874989 1_555
Ga7 N51 1.978518 1_555
Ga7 N39 2.010178 1_555
Ga7 N55 2.026521 1_555
Ga8 N15 1.856783 1_555
Ga8 N16 1.940248 1_555
Ga8 N52 2.093614 1_555
Ga8 N51 2.188240 1_555
Ga9 N14 1.856783 1_455
Ga9 N17 1.940248 1_455
Ga9 N53 2.093614 1_555
Ga9 N50 2.188240 1_555
Ga10 N13 1.856783 1_655
Ga10 N18 1.940248 1_655
Ga10 N54 2.093614 1_545
Ga10 N49 2.188240 1_555
Ga11 N12 1.856783 1_555
Ga11 N19 1.940248 1_555
Ga11 N55 2.093614 1_565
Ga11 N48 2.188240 1_555
Ga12 N28 2.011446 1_555
Ga12 N48 2.079395 1_555
Ga12 N52 2.099694 1_555
Ga12 N24 2.177377 1_555
Ga12 N40 2.298272 1_555
Ga12 N32 2.563058 1_555
Ga13 N29 2.011446 1_555
Ga13 N49 2.079395 1_555
Ga13 N53 2.099694 1_655
Ga13 N25 2.177377 1_655
Ga13 N41 2.298272 1_555
Ga13 N33 2.563058 1_555
Ga14 N30 2.011446 1_555
Ga14 N50 2.079395 1_555
Ga14 N54 2.099694 1_455
Ga14 N26 2.177377 1_455
Ga14 N42 2.298272 1_555
Ga14 N34 2.563058 1_555
Ga15 N31 2.011446 1_555
Ga15 N51 2.079395 1_555
Ga15 N55 2.099694 1_555
Ga15 N27 2.177377 1_555
Ga15 N43 2.298272 1_555
Ga15 N35 2.563058 1_555
Ga16 N44 1.883861 1_555
Ga16 N28 1.916631 1_556
Ga16 N34 1.926866 1_555
Ga16 N21 1.948772 1_555
Ga17 N45 1.883861 1_455
Ga17 N29 1.916631 1_455
Ga17 N35 1.926866 1_555
Ga17 N20 1.948772 1_555
Ga18 N46 1.883861 1_655
Ga18 N30 1.916631 1_654
Ga18 N32 1.926866 1_555
Ga18 N23 1.948772 1_555
Ga19 N47 1.883861 1_555
Ga19 N31 1.916631 1_555
Ga19 N33 1.926866 1_555
Ga19 N22 1.948772 1_555
Ga20 N10 1.850902 1_555
Ga20 N48 1.952928 1_555
Ga20 N4 2.004697 1_555
Ga20 N36 2.061691 1_655
Ga21 N11 1.850902 1_555
Ga21 N49 1.952928 1_555
Ga21 N5 2.004697 1_555
Ga21 N37 2.061691 1_555
Ga22 N8 1.850902 1_555
Ga22 N50 1.952928 1_555
Ga22 N6 2.004697 1_555
Ga22 N38 2.061691 1_555
Ga23 N9 1.850902 1_555
Ga23 N51 1.952928 1_555
Ga23 N7 2.004697 1_555
Ga23 N39 2.061691 1_455
C0 N2 1.183331 1_555
C0 N4 1.273486 1_555
C1 N3 1.183331 1_556
C1 N5 1.273486 1_555
C2 N0 1.183331 1_555
C2 N6 1.273486 1_555
C3 N1 1.183331 1_554
C3 N7 1.273486 1_555
C4 N12 1.222329 1_555
C4 N8 1.223615 1_555
C5 N13 1.222329 1_555
C5 N9 1.223615 1_556
C6 N14 1.222329 1_555
C6 N10 1.223615 1_555
C7 N15 1.222329 1_555
C7 N11 1.223615 1_554
C8 N16 1.193478 1_555
C8 N20 1.270484 1_555
C9 N17 1.193478 1_455
C9 N21 1.270484 1_555
C10 N18 1.193478 1_655
C10 N22 1.270484 1_555
C11 N19 1.193478 1_555
C11 N23 1.270484 1_555
C12 N26 1.188902 1_555
C12 N28 1.288244 1_556
C13 N27 1.188902 1_555
C13 N29 1.288244 1_555
C14 N24 1.188902 1_555
C14 N30 1.288244 1_554
C15 N25 1.188902 1_555
C15 N31 1.288244 1_555
C16 N32 1.210977 1_455
C16 N36 1.244839 1_555
C17 N33 1.210977 1_555
C17 N37 1.244839 1_555
C18 N34 1.210977 1_555
C18 N38 1.244839 1_555
C19 N35 1.210977 1_655
C19 N39 1.244839 1_555
C20 N45 1.200108 1_555
C20 N40 1.259538 1_555
C21 N44 1.200108 1_555
C21 N41 1.259538 1_555
C22 N47 1.200108 1_565
C22 N42 1.259538 1_555
C23 N46 1.200108 1_545
C23 N43 1.259538 1_555
