# generated using pymatgen
data_BaLu2F8
_symmetry_space_group_name_H-M   'P 1'
_cell_length_a   6.93074800
_cell_length_b   8.10917400
_cell_length_c   22.12755900
_cell_angle_alpha   90.00000000
_cell_angle_beta   90.00000000
_cell_angle_gamma   90.00000000
_symmetry_Int_Tables_number   1
_chemical_formula_structural   BaLu2F8
_chemical_formula_sum   'Ba8 Lu16 F64'
_cell_volume   1243.62726535
_cell_formula_units_Z   8
loop_
 _symmetry_equiv_pos_site_id
 _symmetry_equiv_pos_as_xyz
  1  'x, y, z'
loop_
 _atom_site_type_symbol
 _atom_site_label
 _atom_site_symmetry_multiplicity
 _atom_site_fract_x
 _atom_site_fract_y
 _atom_site_fract_z
 _atom_site_occupancy
  Ba  Ba0  1  0.10663300  0.25000000  0.63547500  1
  Ba  Ba1  1  0.89336700  0.75000000  0.36452500  1
  Ba  Ba2  1  0.39336700  0.75000000  0.13547500  1
  Ba  Ba3  1  0.60663300  0.25000000  0.86452500  1
  Ba  Ba4  1  0.28677900  0.25000000  0.12048700  1
  Ba  Ba5  1  0.71322100  0.75000000  0.87951300  1
  Ba  Ba6  1  0.21322100  0.75000000  0.62048700  1
  Ba  Ba7  1  0.78677900  0.25000000  0.37951300  1
  Lu  Lu0  1  0.34282200  0.01885300  0.28663600  1
  Lu  Lu1  1  0.65717800  0.98114700  0.71336400  1
  Lu  Lu2  1  0.15717800  0.98114700  0.78663600  1
  Lu  Lu3  1  0.65717800  0.51885300  0.71336400  1
  Lu  Lu4  1  0.84282200  0.01885300  0.21336400  1
  Lu  Lu5  1  0.34282200  0.48114700  0.28663600  1
  Lu  Lu6  1  0.84282200  0.48114700  0.21336400  1
  Lu  Lu7  1  0.15717800  0.51885300  0.78663600  1
  Lu  Lu8  1  0.25681400  0.02116800  0.47222900  1
  Lu  Lu9  1  0.74318600  0.97883200  0.52777100  1
  Lu  Lu10  1  0.24318600  0.97883200  0.97222900  1
  Lu  Lu11  1  0.74318600  0.52116800  0.52777100  1
  Lu  Lu12  1  0.75681400  0.02116800  0.02777100  1
  Lu  Lu13  1  0.25681400  0.47883200  0.47222900  1
  Lu  Lu14  1  0.75681400  0.47883200  0.02777100  1
  Lu  Lu15  1  0.24318600  0.52116800  0.97222900  1
  F  F0  1  0.16836300  0.25000000  0.76815100  1
  F  F1  1  0.83163700  0.75000000  0.23184900  1
  F  F2  1  0.33163700  0.75000000  0.26815100  1
  F  F3  1  0.66836300  0.25000000  0.73184900  1
  F  F4  1  0.16720200  0.25000000  0.42458700  1
  F  F5  1  0.83279800  0.75000000  0.57541300  1
  F  F6  1  0.33279800  0.75000000  0.92458700  1
  F  F7  1  0.66720200  0.25000000  0.07541300  1
  F  F8  1  0.02092700  0.01745700  0.29736900  1
  F  F9  1  0.97907300  0.98254300  0.70263100  1
  F  F10  1  0.47907300  0.98254300  0.79736900  1
  F  F11  1  0.97907300  0.51745700  0.70263100  1
  F  F12  1  0.52092700  0.01745700  0.20263100  1
  F  F13  1  0.02092700  0.48254300  0.29736900  1
  F  F14  1  0.52092700  0.48254300  0.20263100  1
  F  F15  1  0.47907300  0.51745700  0.79736900  1
  F  F16  1  0.05842100  0.06362800  0.04895800  1
  F  F17  1  0.94157900  0.93637200  0.95104200  1
  F  F18  1  0.44157900  0.93637200  0.54895800  1
  F  F19  1  0.94157900  0.56362800  0.95104200  1
  F  F20  1  0.55842100  0.06362800  0.45104200  1
  F  F21  1  0.05842100  0.43637200  0.04895800  1
  F  F22  1  0.55842100  0.43637200  0.45104200  1
  F  F23  1  0.44157900  0.56362800  0.54895800  1
  F  F24  1  0.30189800  0.25000000  0.52839700  1
  F  F25  1  0.69810200  0.75000000  0.47160300  1
  F  F26  1  0.19810200  0.75000000  0.02839700  1
  F  F27  1  0.80189800  0.25000000  0.97160300  1
  F  F28  1  0.79838800  0.25000000  0.52089900  1
  F  F29  1  0.20161200  0.75000000  0.47910100  1
  F  F30  1  0.70161200  0.75000000  0.02089900  1
  F  F31  1  0.29838800  0.25000000  0.97910100  1
  F  F32  1  0.25621700  0.25000000  0.24084300  1
  F  F33  1  0.74378300  0.75000000  0.75915700  1
  F  F34  1  0.24378300  0.75000000  0.74084300  1
  F  F35  1  0.75621700  0.25000000  0.25915700  1
  F  F36  1  0.14312800  0.53337600  0.18800500  1
  F  F37  1  0.85687200  0.46662400  0.81199500  1
  F  F38  1  0.35687200  0.46662400  0.68800500  1
  F  F39  1  0.85687200  0.03337600  0.81199500  1
  F  F40  1  0.64312800  0.53337600  0.31199500  1
  F  F41  1  0.14312800  0.96662400  0.18800500  1
  F  F42  1  0.64312800  0.96662400  0.31199500  1
  F  F43  1  0.35687200  0.03337600  0.68800500  1
  F  F44  1  0.27529200  0.55986500  0.37777200  1
  F  F45  1  0.72470800  0.44013500  0.62222800  1
  F  F46  1  0.22470800  0.44013500  0.87777200  1
  F  F47  1  0.72470800  0.05986500  0.62222800  1
  F  F48  1  0.77529200  0.55986500  0.12222800  1
  F  F49  1  0.27529200  0.94013500  0.37777200  1
  F  F50  1  0.77529200  0.94013500  0.12222800  1
  F  F51  1  0.22470800  0.05986500  0.87777200  1
  F  F52  1  0.06016400  0.00487700  0.55462400  1
  F  F53  1  0.93983600  0.99512300  0.44537600  1
  F  F54  1  0.43983600  0.99512300  0.05462400  1
  F  F55  1  0.93983600  0.50487700  0.44537600  1
  F  F56  1  0.56016400  0.00487700  0.94537600  1
  F  F57  1  0.06016400  0.49512300  0.55462400  1
  F  F58  1  0.56016400  0.49512300  0.94537600  1
  F  F59  1  0.43983600  0.50487700  0.05462400  1
  F  F60  1  0.43137900  0.25000000  0.33455300  1
  F  F61  1  0.56862100  0.75000000  0.66544700  1
  F  F62  1  0.06862100  0.75000000  0.83455300  1
  F  F63  1  0.93137900  0.25000000  0.16544700  1
loop_
_geom_bond_atom_site_label_1
_geom_bond_atom_site_label_2
_geom_bond_distance
_geom_bond_site_symmetry_2
Ba0 F57 2.693604 1_555
Ba0 F52 2.693604 1_555
Ba0 F38 2.728520 1_555
Ba0 F43 2.728520 1_555
Ba0 F24 2.728634 1_555
Ba0 F9 2.773758 1_445
Ba0 F11 2.773758 1_455
Ba0 F0 2.966807 1_555
Ba0 F47 3.077325 1_455
Ba0 F45 3.077325 1_455
Ba1 F55 2.693604 1_555
Ba1 F53 2.693604 1_555
Ba1 F42 2.728520 1_555
Ba1 F40 2.728520 1_555
Ba1 F25 2.728634 1_555
Ba1 F13 2.773758 1_655
Ba1 F8 2.773758 1_665
Ba1 F1 2.966807 1_555
Ba1 F44 3.077325 1_655
Ba1 F49 3.077325 1_655
Ba2 F59 2.693604 1_555
Ba2 F54 2.693604 1_555
Ba2 F36 2.728520 1_555
Ba2 F41 2.728520 1_555
Ba2 F26 2.728634 1_555
Ba2 F12 2.773758 1_565
Ba2 F14 2.773758 1_555
Ba2 F2 2.966807 1_555
Ba2 F48 3.077325 1_555
Ba2 F50 3.077325 1_555
Ba3 F58 2.693604 1_555
Ba3 F56 2.693604 1_555
Ba3 F39 2.728520 1_555
Ba3 F37 2.728520 1_555
Ba3 F27 2.728634 1_555
Ba3 F10 2.773758 1_545
Ba3 F15 2.773758 1_555
Ba3 F3 2.966807 1_555
Ba3 F46 3.077325 1_555
Ba3 F51 3.077325 1_555
Ba4 F63 2.656507 1_455
Ba4 F32 2.671595 1_555
Ba4 F21 2.700768 1_555
Ba4 F16 2.700768 1_555
Ba4 F54 2.742464 1_545
Ba4 F59 2.742464 1_555
Ba4 F7 2.818955 1_555
Ba4 F36 2.916136 1_555
Ba4 F41 2.916136 1_545
Ba4 F14 3.081131 1_555
Ba4 F12 3.081131 1_555
Ba4 F31 3.129562 1_554
Ba5 F62 2.656507 1_655
Ba5 F33 2.671595 1_555
Ba5 F19 2.700768 1_555
Ba5 F17 2.700768 1_555
Ba5 F58 2.742464 1_555
Ba5 F56 2.742464 1_565
Ba5 F6 2.818955 1_555
Ba5 F37 2.916136 1_555
Ba5 F39 2.916136 1_565
Ba5 F10 3.081131 1_555
Ba5 F15 3.081131 1_555
Ba5 F30 3.129562 1_556
Ba6 F61 2.656507 1_555
Ba6 F34 2.671595 1_555
Ba6 F23 2.700768 1_555
Ba6 F18 2.700768 1_555
Ba6 F57 2.742464 1_555
Ba6 F52 2.742464 1_565
Ba6 F5 2.818955 1_455
Ba6 F38 2.916136 1_555
Ba6 F43 2.916136 1_565
Ba6 F11 3.081131 1_455
Ba6 F9 3.081131 1_455
Ba6 F29 3.129562 1_555
Ba7 F60 2.656507 1_555
Ba7 F35 2.671595 1_555
Ba7 F20 2.700768 1_555
Ba7 F22 2.700768 1_555
Ba7 F53 2.742464 1_545
Ba7 F55 2.742464 1_555
Ba7 F4 2.818955 1_655
Ba7 F40 2.916136 1_555
Ba7 F42 2.916136 1_545
Ba7 F8 3.081131 1_655
Ba7 F13 3.081131 1_655
Ba7 F28 3.129562 1_555
F0 Lu2 2.219567 1_545
F0 Lu7 2.219567 1_555
F1 Lu6 2.219567 1_555
F1 Lu4 2.219567 1_565
F2 Lu0 2.219567 1_565
F2 Lu5 2.219567 1_555
F3 Lu3 2.219567 1_555
F3 Lu1 2.219567 1_545
F4 Lu13 2.222717 1_555
F4 Lu8 2.222717 1_555
F5 Lu9 2.222717 1_555
F5 Lu11 2.222717 1_555
F6 Lu10 2.222717 1_555
F6 Lu15 2.222717 1_555
F7 Lu14 2.222717 1_555
F7 Lu12 2.222717 1_555
F8 Lu4 2.231391 1_455
F8 Lu0 2.243607 1_555
F9 Lu2 2.231391 1_655
F9 Lu1 2.243607 1_555
F10 Lu1 2.231391 1_555
F10 Lu2 2.243607 1_555
F11 Lu7 2.231391 1_655
F11 Lu3 2.243607 1_555
F12 Lu0 2.231391 1_555
F12 Lu4 2.243607 1_555
F13 Lu6 2.231391 1_455
F13 Lu5 2.243607 1_555
F14 Lu5 2.231391 1_555
F14 Lu6 2.243607 1_555
F15 Lu3 2.231391 1_555
F15 Lu7 2.243607 1_555
F16 Lu12 2.169782 1_455
F16 Lu10 2.235011 1_544
F17 Lu10 2.169782 1_655
F17 Lu12 2.235011 1_566
F18 Lu9 2.169782 1_555
F18 Lu8 2.235011 1_565
F19 Lu15 2.169782 1_655
F19 Lu14 2.235011 1_556
F20 Lu8 2.169782 1_555
F20 Lu9 2.235011 1_545
F21 Lu14 2.169782 1_455
F21 Lu15 2.235011 1_554
F22 Lu13 2.169782 1_555
F22 Lu11 2.235011 1_555
F23 Lu11 2.169782 1_555
F23 Lu13 2.235011 1_555
F24 Lu13 2.255157 1_555
F24 Lu8 2.255157 1_555
F25 Lu11 2.255157 1_555
F25 Lu9 2.255157 1_555
F26 Lu10 2.255157 1_554
F26 Lu15 2.255157 1_554
F27 Lu14 2.255157 1_556
F27 Lu12 2.255157 1_556
F28 Lu11 2.237157 1_555
F28 Lu9 2.237157 1_545
F29 Lu13 2.237157 1_555
F29 Lu8 2.237157 1_565
F30 Lu14 2.237157 1_555
F30 Lu12 2.237157 1_565
F31 Lu10 2.237157 1_545
F31 Lu15 2.237157 1_555
F32 Lu5 2.213697 1_555
F32 Lu0 2.213697 1_555
F33 Lu1 2.213697 1_555
F33 Lu3 2.213697 1_555
F34 Lu2 2.213697 1_555
F34 Lu7 2.213697 1_555
F35 Lu6 2.213697 1_555
F35 Lu4 2.213697 1_555
F36 Lu6 2.196873 1_455
F36 Lu5 2.618790 1_555
F37 Lu7 2.196873 1_655
F37 Lu3 2.618790 1_555
F38 Lu3 2.196873 1_555
F38 Lu7 2.618790 1_555
F39 Lu2 2.196873 1_645
F39 Lu1 2.618790 1_545
F40 Lu5 2.196873 1_555
F40 Lu6 2.618790 1_555
F41 Lu4 2.196873 1_465
F41 Lu0 2.618790 1_565
F42 Lu0 2.196873 1_565
F42 Lu4 2.618790 1_565
F43 Lu1 2.196873 1_545
F43 Lu2 2.618790 1_545
F44 Lu5 2.166397 1_555
F44 Lu13 2.194704 1_555
F45 Lu3 2.166397 1_555
F45 Lu11 2.194704 1_555
F46 Lu7 2.166397 1_555
F46 Lu15 2.194704 1_555
F47 Lu1 2.166397 1_545
F47 Lu9 2.194704 1_545
F48 Lu6 2.166397 1_555
F48 Lu14 2.194704 1_555
F49 Lu0 2.166397 1_565
F49 Lu8 2.194704 1_565
F50 Lu4 2.166397 1_565
F50 Lu12 2.194704 1_565
F51 Lu2 2.166397 1_545
F51 Lu10 2.194704 1_545
F52 Lu8 2.280152 1_555
F52 Lu9 2.285611 1_445
F53 Lu9 2.280152 1_555
F53 Lu8 2.285611 1_665
F54 Lu10 2.280152 1_554
F54 Lu12 2.285611 1_565
F55 Lu11 2.280152 1_555
F55 Lu13 2.285611 1_655
F56 Lu12 2.280152 1_556
F56 Lu10 2.285611 1_545
F57 Lu13 2.280152 1_555
F57 Lu11 2.285611 1_455
F58 Lu14 2.280152 1_556
F58 Lu15 2.285611 1_555
F59 Lu15 2.280152 1_554
F59 Lu14 2.285611 1_555
F60 Lu5 2.239271 1_555
F60 Lu0 2.239271 1_555
F61 Lu1 2.239271 1_555
F61 Lu3 2.239271 1_555
F62 Lu7 2.239271 1_555
F62 Lu2 2.239271 1_555
F63 Lu6 2.239271 1_555
F63 Lu4 2.239271 1_555
