# generated using pymatgen
data_Mg2Si3
_symmetry_space_group_name_H-M   'P 1'
_cell_length_a   3.79334000
_cell_length_b   5.94544026
_cell_length_c   16.91042088
_cell_angle_alpha   93.14280838
_cell_angle_beta   92.11976814
_cell_angle_gamma   99.26371540
_symmetry_Int_Tables_number   1
_chemical_formula_structural   Mg2Si3
_chemical_formula_sum   'Mg8 Si12'
_cell_volume   375.43548573
_cell_formula_units_Z   4
loop_
 _symmetry_equiv_pos_site_id
 _symmetry_equiv_pos_as_xyz
  1  'x, y, z'
loop_
 _atom_site_type_symbol
 _atom_site_label
 _atom_site_symmetry_multiplicity
 _atom_site_fract_x
 _atom_site_fract_y
 _atom_site_fract_z
 _atom_site_occupancy
  Mg  Mg0  1  0.46554600  0.89790500  0.78528200  1
  Mg  Mg1  1  0.20030600  0.22288100  0.19468100  1
  Mg  Mg2  1  0.59533100  0.19703100  0.94265100  1
  Mg  Mg3  1  0.04676000  0.90875900  0.05333100  1
  Mg  Mg4  1  0.08533500  0.66429700  0.29146900  1
  Mg  Mg5  1  0.55298500  0.44112700  0.71308700  1
  Mg  Mg6  1  0.96747500  0.43029900  0.45856000  1
  Mg  Mg7  1  0.43262900  0.12449600  0.55472000  1
  Si  Si0  1  0.45314300  0.69419100  0.94625600  1
  Si  Si1  1  0.22437200  0.43109800  0.04882900  1
  Si  Si2  1  0.91833700  0.60940500  0.85785700  1
  Si  Si3  1  0.76247600  0.52102000  0.13568100  1
  Si  Si4  1  0.78380100  0.05223000  0.32615500  1
  Si  Si5  1  0.96759900  0.11453900  0.68120000  1
  Si  Si6  1  0.87761600  0.89181400  0.45553200  1
  Si  Si7  1  0.55058500  0.65200400  0.55620200  1
  Si  Si8  1  0.36929300  0.30661900  0.34488800  1
  Si  Si9  1  0.08219700  0.73432400  0.64336500  1
  Si  Si10  1  0.05504000  0.22780100  0.82253200  1
  Si  Si11  1  0.60907100  0.87814300  0.18783200  1
loop_
_geom_bond_atom_site_label_1
_geom_bond_atom_site_label_2
_geom_bond_distance
_geom_bond_site_symmetry_2
Mg0 Si10 2.754824 1_565
Mg0 Si10 2.755431 1_665
Mg0 Si9 2.801869 1_555
Mg0 Si2 2.833729 1_455
Mg0 Si5 2.844383 1_565
Mg0 Si2 2.902040 1_555
Mg0 Mg5 2.988676 1_555
Mg0 Si5 3.018366 1_465
Mg0 Si0 3.038391 1_555
Mg0 Mg2 3.096662 1_565
Mg1 Si8 2.597852 1_555
Mg1 Si11 2.762089 1_545
Mg1 Si11 2.778324 1_445
Mg1 Si3 2.796302 1_555
Mg1 Si3 2.813356 1_455
Mg1 Si1 2.817644 1_555
Mg1 Si4 2.908557 1_455
Mg1 Mg3 2.932223 1_545
Mg2 Si10 2.720390 1_655
Mg2 Si1 2.772013 1_556
Mg2 Si10 2.865914 1_555
Mg2 Si0 2.955611 1_545
Mg2 Si2 3.019386 1_555
Mg2 Si1 3.032204 1_656
Mg2 Si0 3.086675 1_555
Mg2 Mg3 3.203488 1_546
Mg2 Mg3 3.229935 1_646
Mg3 Si0 2.805124 1_554
Mg3 Si3 2.842394 1_455
Mg3 Si11 2.861888 1_455
Mg3 Si0 2.914925 1_454
Mg3 Si1 3.020082 1_555
Mg3 Si1 3.075736 1_565
Mg3 Si11 3.093168 1_555
Mg4 Si8 2.715628 1_555
Mg4 Si4 2.778969 1_465
Mg4 Si11 2.885058 1_555
Mg4 Si3 2.888807 1_455
Mg4 Si11 2.949819 1_455
Mg4 Si6 3.200181 1_455
Mg4 Si4 3.233088 1_565
Mg5 Si5 2.720359 1_455
Mg5 Si5 2.732354 1_555
Mg5 Si9 2.780751 1_655
Mg5 Si2 2.819401 1_555
Mg5 Si10 2.889027 1_555
Mg5 Si9 2.947876 1_555
Mg5 Si7 2.996157 1_555
Mg5 Si10 3.071685 1_655
Mg5 Mg7 3.162957 1_555
Mg6 Si8 2.642276 1_655
Mg6 Si7 2.755052 1_555
Mg6 Si7 2.812285 1_655
Mg6 Si6 2.821896 1_555
Mg6 Si8 2.893046 1_555
Mg6 Si4 3.062636 1_555
Mg6 Si6 3.161960 1_545
Mg7 Si6 2.776020 1_445
Mg7 Si5 2.819437 1_455
Mg7 Si6 2.878072 1_545
Mg7 Si5 2.903054 1_555
Mg7 Si7 2.916139 1_545
Mg7 Si9 2.988518 1_545
Mg7 Si7 3.094472 1_555
Si0 Si2 2.442976 1_455
Si0 Si2 2.449814 1_555
Si0 Si1 2.486024 1_556
Si1 Si3 2.432844 1_455
Si1 Si3 2.439311 1_555
Si4 Si8 2.368584 1_555
Si4 Si6 2.470486 1_545
Si4 Si8 2.476793 1_655
Si5 Si9 2.426264 1_645
Si6 Si7 2.514510 1_555
Si7 Si9 2.421151 1_655
Si7 Si9 2.442043 1_555
Si10 Si5 2.443046 1_455
Si10 Si2 2.454855 1_455
Si11 Si3 2.419714 1_555
Si11 Si4 2.526055 1_565
