# generated using pymatgen
data_MgSi
_symmetry_space_group_name_H-M   'P 1'
_cell_length_a   4.42870000
_cell_length_b   5.53886873
_cell_length_c   9.86318090
_cell_angle_alpha   99.77194894
_cell_angle_beta   93.90321337
_cell_angle_gamma   110.03469419
_symmetry_Int_Tables_number   1
_chemical_formula_structural   MgSi
_chemical_formula_sum   'Mg6 Si6'
_cell_volume   221.91336565
_cell_formula_units_Z   6
loop_
 _symmetry_equiv_pos_site_id
 _symmetry_equiv_pos_as_xyz
  1  'x, y, z'
loop_
 _atom_site_type_symbol
 _atom_site_label
 _atom_site_symmetry_multiplicity
 _atom_site_fract_x
 _atom_site_fract_y
 _atom_site_fract_z
 _atom_site_occupancy
  Mg  Mg0  1  0.62299200  0.20192900  0.14392900  1
  Mg  Mg1  1  0.05563300  0.19101800  0.67027600  1
  Mg  Mg2  1  0.23693800  0.41083800  0.37786200  1
  Mg  Mg3  1  0.94436700  0.80898200  0.32972400  1
  Mg  Mg4  1  0.76306200  0.58916200  0.62213800  1
  Mg  Mg5  1  0.37700800  0.79807100  0.85607100  1
  Si  Si0  1  0.31420700  0.59772800  0.13654800  1
  Si  Si1  1  0.37674700  0.85825100  0.57792700  1
  Si  Si2  1  0.68579300  0.40227200  0.86345200  1
  Si  Si3  1  0.10735600  0.20698800  0.95211700  1
  Si  Si4  1  0.89264400  0.79301200  0.04788300  1
  Si  Si5  1  0.62325300  0.14174900  0.42207300  1
loop_
_geom_bond_atom_site_label_1
_geom_bond_atom_site_label_2
_geom_bond_distance
_geom_bond_site_symmetry_2
Mg0 Si5 2.819134 1_555
Mg0 Si3 2.875493 1_554
Mg0 Si3 2.951400 1_654
Mg0 Si4 2.955070 1_545
Mg0 Si0 2.962475 1_555
Mg0 Si0 3.109428 1_655
Mg0 Si0 3.137368 1_545
Mg0 Si2 3.145951 1_554
Mg0 Mg5 3.163057 1_544
Mg0 Mg2 3.184249 1_655
Mg0 Si4 3.213136 1_445
Mg0 Mg2 3.251476 1_555
Mg0 Mg3 3.311169 1_555
Mg1 Si3 2.757501 1_555
Mg1 Si1 2.766175 1_545
Mg1 Si5 2.917407 1_455
Mg1 Si1 2.920052 1_445
Mg1 Si2 2.943370 1_455
Mg1 Si2 3.011604 1_555
Mg1 Mg5 3.311169 1_555
Mg2 Si5 2.684196 1_555
Mg2 Si5 2.721145 1_455
Mg2 Si1 2.746058 1_555
Mg2 Si0 2.749212 1_555
Mg3 Si4 2.757501 1_555
Mg3 Si5 2.766175 1_565
Mg3 Si1 2.917407 1_655
Mg3 Si5 2.920052 1_665
Mg3 Si0 2.943370 1_655
Mg3 Si0 3.011604 1_555
Mg4 Si1 2.684196 1_555
Mg4 Si1 2.721145 1_655
Mg4 Si5 2.746058 1_555
Mg4 Si2 2.749212 1_555
Mg4 Mg5 3.184249 1_655
Mg4 Mg5 3.251476 1_555
Mg5 Si1 2.819134 1_555
Mg5 Si4 2.875493 1_556
Mg5 Si4 2.951400 1_456
Mg5 Si3 2.955070 1_565
Mg5 Si2 2.962475 1_555
Mg5 Si2 3.109428 1_455
Mg5 Si2 3.137368 1_565
Mg5 Si0 3.145951 1_556
Mg5 Si3 3.213136 1_665
Si0 Si3 2.431154 1_554
Si0 Si4 2.627325 1_455
Si0 Si4 2.687885 1_555
Si1 Si5 2.427724 1_565
Si2 Si4 2.431154 1_556
Si2 Si3 2.627325 1_655
Si2 Si3 2.687885 1_555
Si3 Si4 2.533297 1_446
