# generated using pymatgen
data_Y3Ho
_symmetry_space_group_name_H-M   'P 1'
_cell_length_a   7.25408693
_cell_length_b   7.25408693
_cell_length_c   5.83918978
_cell_angle_alpha   90.00000000
_cell_angle_beta   90.00000000
_cell_angle_gamma   119.99992058
_symmetry_Int_Tables_number   1
_chemical_formula_structural   Y3Ho
_chemical_formula_sum   'Y6 Ho2'
_cell_volume   266.10257759
_cell_formula_units_Z   2
loop_
 _symmetry_equiv_pos_site_id
 _symmetry_equiv_pos_as_xyz
  1  'x, y, z'
loop_
 _atom_site_type_symbol
 _atom_site_label
 _atom_site_symmetry_multiplicity
 _atom_site_fract_x
 _atom_site_fract_y
 _atom_site_fract_z
 _atom_site_occupancy
  Y  Y0  1  0.16737029  0.33473859  0.25000000  1
  Y  Y1  1  0.66526141  0.83262971  0.25000000  1
  Y  Y2  1  0.16737029  0.83262971  0.25000000  1
  Y  Y3  1  0.83262971  0.66526141  0.75000000  1
  Y  Y4  1  0.33473859  0.16737029  0.75000000  1
  Y  Y5  1  0.83262971  0.16737029  0.75000000  1
  Ho  Ho0  1  0.33333300  0.66666700  0.75000000  1
  Ho  Ho1  1  0.66666700  0.33333300  0.25000000  1
loop_
_geom_bond_atom_site_label_1
_geom_bond_atom_site_label_2
_geom_bond_distance
_geom_bond_site_symmetry_2
Y0 Y4 3.598080 1_555
Y0 Y4 3.598080 1_554
Y0 Y5 3.598096 1_455
Y0 Y5 3.598096 1_454
Y0 Y2 3.611745 1_555
Y0 Y1 3.611750 1_555
Y0 Y2 3.642341 1_545
Y0 Y1 3.642346 1_445
Y1 Y3 3.598080 1_554
Y1 Y3 3.598080 1_555
Y1 Y5 3.598096 1_565
Y1 Y5 3.598096 1_564
Y1 Y2 3.611745 1_555
Y1 Y2 3.642341 1_655
Y2 Y3 3.598096 1_454
Y2 Y4 3.598096 1_564
Y2 Y4 3.598096 1_565
Y2 Y3 3.598096 1_455
Y3 Y5 3.611745 1_555
Y3 Y4 3.611750 1_555
Y3 Y5 3.642341 1_565
Y3 Y4 3.642346 1_665
Y4 Y5 3.611745 1_555
Y4 Y5 3.642341 1_455
Ho0 Y2 3.587787 1_555
Ho0 Y2 3.587787 1_556
Ho0 Y0 3.587799 1_555
Ho0 Y0 3.587799 1_556
Ho0 Y1 3.587799 1_556
Ho0 Y1 3.587799 1_555
Ho0 Y3 3.627051 1_555
Ho0 Y4 3.627051 1_555
Ho0 Y4 3.627058 1_565
Ho0 Y3 3.627058 1_455
Ho0 Y5 3.627059 1_455
Ho0 Y5 3.627059 1_565
Ho1 Y5 3.587787 1_555
Ho1 Y5 3.587787 1_554
Ho1 Y4 3.587799 1_554
Ho1 Y4 3.587799 1_555
Ho1 Y3 3.587799 1_554
Ho1 Y3 3.587799 1_555
Ho1 Y0 3.627051 1_555
Ho1 Y1 3.627051 1_555
Ho1 Y1 3.627058 1_545
Ho1 Y0 3.627058 1_655
Ho1 Y2 3.627059 1_655
Ho1 Y2 3.627059 1_545
