# generated using pymatgen
data_KTm(SO5)2
_symmetry_space_group_name_H-M   'P 1'
_cell_length_a   8.18212100
_cell_length_b   10.04469600
_cell_length_c   10.95113064
_cell_angle_alpha   81.26690235
_cell_angle_beta   90.00000000
_cell_angle_gamma   90.00000000
_symmetry_Int_Tables_number   1
_chemical_formula_structural   KTm(SO5)2
_chemical_formula_sum   'K4 Tm4 S8 O40'
_cell_volume   889.60492652
_cell_formula_units_Z   4
loop_
 _symmetry_equiv_pos_site_id
 _symmetry_equiv_pos_as_xyz
  1  'x, y, z'
loop_
 _atom_site_type_symbol
 _atom_site_label
 _atom_site_symmetry_multiplicity
 _atom_site_fract_x
 _atom_site_fract_y
 _atom_site_fract_z
 _atom_site_occupancy
  K  K0  1  0.26898400  0.91065600  0.13404500  1
  K  K1  1  0.73101600  0.08934400  0.86595500  1
  K  K2  1  0.76898400  0.58934400  0.86595500  1
  K  K3  1  0.23101600  0.41065600  0.13404500  1
  Tm  Tm0  1  0.76434600  0.96719800  0.31799200  1
  Tm  Tm1  1  0.23565400  0.03280200  0.68200800  1
  Tm  Tm2  1  0.26434600  0.53280200  0.68200800  1
  Tm  Tm3  1  0.73565400  0.46719800  0.31799200  1
  S  S0  1  0.64842300  0.68993000  0.53165900  1
  S  S1  1  0.35157700  0.31007000  0.46834100  1
  S  S2  1  0.14842300  0.81007000  0.46834100  1
  S  S3  1  0.85157700  0.18993000  0.53165900  1
  S  S4  1  0.77270500  0.79306600  0.11674600  1
  S  S5  1  0.22729500  0.20693400  0.88325400  1
  S  S6  1  0.27270500  0.70693400  0.88325400  1
  S  S7  1  0.72729500  0.29306600  0.11674600  1
  O  O0  1  0.62144400  0.85220900  0.16442600  1
  O  O1  1  0.37855600  0.14779100  0.83557400  1
  O  O2  1  0.12144400  0.64779100  0.83557400  1
  O  O3  1  0.87855600  0.35220900  0.16442600  1
  O  O4  1  0.91131900  0.85320200  0.18073900  1
  O  O5  1  0.08868100  0.14679800  0.81926100  1
  O  O6  1  0.41131900  0.64679800  0.81926100  1
  O  O7  1  0.58868100  0.35320200  0.18073900  1
  O  O8  1  0.98166100  0.87217100  0.43633400  1
  O  O9  1  0.01833900  0.12782900  0.56366600  1
  O  O10  1  0.48166100  0.62782900  0.56366600  1
  O  O11  1  0.51833900  0.37217100  0.43633400  1
  O  O12  1  0.61678300  0.81192100  0.43914400  1
  O  O13  1  0.38321700  0.18807900  0.56085600  1
  O  O14  1  0.11678300  0.68807900  0.56085600  1
  O  O15  1  0.88321700  0.31192100  0.43914400  1
  O  O16  1  0.28556000  0.67974600  0.01759200  1
  O  O17  1  0.71444000  0.32025400  0.98240800  1
  O  O18  1  0.78556000  0.82025400  0.98240800  1
  O  O19  1  0.21444000  0.17974600  0.01759200  1
  O  O20  1  0.47345500  0.55186700  0.28837100  1
  O  O21  1  0.52654500  0.44813300  0.71162900  1
  O  O22  1  0.97345500  0.94813300  0.71162900  1
  O  O23  1  0.02654500  0.05186700  0.28837100  1
  O  O24  1  0.72993500  0.72194700  0.64102500  1
  O  O25  1  0.27006500  0.27805300  0.35897500  1
  O  O26  1  0.22993500  0.77805300  0.35897500  1
  O  O27  1  0.77006500  0.22194700  0.64102500  1
  O  O28  1  0.74499500  0.59277100  0.46997200  1
  O  O29  1  0.25500500  0.40722900  0.53002800  1
  O  O30  1  0.24499500  0.90722900  0.53002800  1
  O  O31  1  0.75500500  0.09277100  0.46997200  1
  O  O32  1  0.77457700  0.64247200  0.15858200  1
  O  O33  1  0.22542300  0.35752800  0.84141800  1
  O  O34  1  0.27457700  0.85752800  0.84141800  1
  O  O35  1  0.72542300  0.14247200  0.15858200  1
  O  O36  1  0.51073000  0.96771000  0.70456000  1
  O  O37  1  0.48927000  0.03229000  0.29544000  1
  O  O38  1  0.01073000  0.53229000  0.29544000  1
  O  O39  1  0.98927000  0.46771000  0.70456000  1
loop_
_geom_bond_atom_site_label_1
_geom_bond_atom_site_label_2
_geom_bond_distance
_geom_bond_site_symmetry_2
K0 O26 2.635799 1_555
K0 O16 2.814728 1_555
K0 O19 2.843347 1_565
K0 O37 2.919085 1_565
K0 O0 2.951737 1_555
K0 O4 3.011491 1_455
K0 O23 3.087238 1_565
K0 O34 3.328007 1_554
K1 O27 2.635799 1_555
K1 O17 2.814728 1_555
K1 O18 2.843347 1_545
K1 O36 2.919085 1_545
K1 O1 2.951737 1_555
K1 O5 3.011491 1_655
K1 O22 3.087238 1_545
K1 O35 3.328007 1_556
K2 O24 2.635799 1_555
K2 O18 2.814728 1_555
K2 O17 2.843347 1_555
K2 O39 2.919085 1_555
K2 O2 2.951737 1_655
K2 O6 3.011491 1_555
K2 O21 3.087238 1_555
K2 O32 3.328007 1_556
K3 O25 2.635799 1_555
K3 O19 2.814728 1_555
K3 O16 2.843347 1_555
K3 O38 2.919085 1_555
K3 O3 2.951737 1_455
K3 O7 3.011491 1_555
K3 O20 3.087238 1_555
K3 O33 3.328007 1_554
O0 S4 1.500500 1_555
O0 Tm0 2.473712 1_555
O1 S5 1.500500 1_555
O1 Tm1 2.473712 1_555
O2 S6 1.500500 1_555
O2 Tm2 2.473712 1_555
O3 S7 1.500500 1_555
O3 Tm3 2.473712 1_555
O4 S4 1.506932 1_555
O4 Tm0 2.353540 1_555
O5 S5 1.506932 1_555
O5 Tm1 2.353540 1_555
O6 S6 1.506932 1_555
O6 Tm2 2.353540 1_555
O7 S7 1.506932 1_555
O7 Tm3 2.353540 1_555
O8 S2 1.518994 1_655
O8 Tm0 2.318761 1_555
O9 S3 1.518994 1_455
O9 Tm1 2.318761 1_555
O10 S0 1.518994 1_555
O10 Tm2 2.318761 1_555
O11 S1 1.518994 1_555
O11 Tm3 2.318761 1_555
O12 S0 1.489297 1_555
O12 Tm0 2.241058 1_555
O13 S1 1.489297 1_555
O13 Tm1 2.241058 1_555
O14 S2 1.489297 1_555
O14 Tm2 2.241058 1_555
O15 S3 1.489297 1_555
O15 Tm3 2.241058 1_555
O16 S6 1.458744 1_554
O17 S7 1.458744 1_556
O18 S4 1.458744 1_556
O19 S5 1.458744 1_554
O20 Tm3 2.312414 1_555
O21 Tm2 2.312414 1_555
O22 Tm1 2.312414 1_665
O23 Tm0 2.312414 1_445
O24 S0 1.449014 1_555
O25 S1 1.449014 1_555
O26 S2 1.449014 1_555
O27 S3 1.449014 1_555
O28 S0 1.494443 1_555
O28 Tm3 2.237048 1_555
O29 S1 1.494443 1_555
O29 Tm2 2.237048 1_555
O30 S2 1.494443 1_555
O30 Tm1 2.237048 1_565
O31 S3 1.494443 1_555
O31 Tm0 2.237048 1_545
O32 S4 1.512568 1_555
O32 Tm3 2.305490 1_555
O33 S5 1.512568 1_555
O33 Tm2 2.305490 1_555
O34 S6 1.512568 1_555
O34 Tm1 2.305490 1_565
O35 S7 1.512568 1_555
O35 Tm0 2.305490 1_545
O36 Tm1 2.346300 1_565
O37 Tm0 2.346300 1_545
O38 Tm3 2.346300 1_455
O39 Tm2 2.346300 1_655
