# generated using pymatgen
data_Tb2CoGe4
_symmetry_space_group_name_H-M   'P 1'
_cell_length_a   4.05688273
_cell_length_b   4.12597809
_cell_length_c   8.27979005
_cell_angle_alpha   75.51653897
_cell_angle_beta   90.00000000
_cell_angle_gamma   90.00000000
_symmetry_Int_Tables_number   1
_chemical_formula_structural   Tb2CoGe4
_chemical_formula_sum   'Tb2 Co1 Ge4'
_cell_volume   134.18769386
_cell_formula_units_Z   1
loop_
 _symmetry_equiv_pos_site_id
 _symmetry_equiv_pos_as_xyz
  1  'x, y, z'
loop_
 _atom_site_type_symbol
 _atom_site_label
 _atom_site_symmetry_multiplicity
 _atom_site_fract_x
 _atom_site_fract_y
 _atom_site_fract_z
 _atom_site_occupancy
  Tb  Tb0  1  0.25000000  0.89410266  0.21215648  1
  Tb  Tb1  1  0.75000000  0.10594694  0.78784637  1
  Co  Co0  1  0.25000000  0.69019980  0.61938715  1
  Ge  Ge0  1  0.25000000  0.54780644  0.90393855  1
  Ge  Ge1  1  0.75000000  0.44886016  0.10351102  1
  Ge  Ge2  1  0.25000000  0.25793480  0.48438170  1
  Ge  Ge3  1  0.75000000  0.75615120  0.48677973  1
loop_
_geom_bond_atom_site_label_1
_geom_bond_atom_site_label_2
_geom_bond_distance
_geom_bond_site_symmetry_2
Co0 Ge0 2.281152 1_555
Co0 Ge3 2.290130 1_455
Co0 Ge3 2.290130 1_555
Co0 Ge2 2.329570 1_565
Co0 Ge2 2.329735 1_555
Co0 Tb1 3.192065 1_455
Co0 Tb1 3.192065 1_555
Co0 Tb1 3.193637 1_565
Co0 Tb1 3.193637 1_465
Ge0 Ge1 2.583465 1_556
Ge0 Ge1 2.583465 1_456
Ge0 Tb1 3.038836 1_565
Ge0 Tb1 3.038836 1_465
Ge0 Tb1 3.039535 1_455
Ge0 Tb1 3.039535 1_555
Ge0 Tb0 3.216267 1_546
Ge0 Tb0 3.221487 1_556
Ge1 Tb0 3.020792 1_555
Ge1 Tb0 3.020792 1_655
Ge1 Tb0 3.022086 1_645
Ge1 Tb0 3.022086 1_545
Ge1 Tb1 3.261430 1_564
Ge1 Tb1 3.268425 1_554
Ge2 Ge3 2.891539 1_455
Ge2 Ge3 2.891539 1_555
Ge2 Ge3 2.894952 1_445
Ge2 Ge3 2.894952 1_545
Ge2 Tb0 3.001784 1_555
Ge2 Tb0 3.004385 1_545
Ge2 Tb1 3.167484 1_455
Ge2 Tb1 3.167484 1_555
Ge3 Tb0 2.993567 1_555
Ge3 Tb0 2.993567 1_655
Ge3 Tb1 3.172676 1_555
Ge3 Tb1 3.177488 1_565
