# generated using pymatgen
data_Ba3Sr
_symmetry_space_group_name_H-M   'P 1'
_cell_length_a   9.08946704
_cell_length_b   9.08946704
_cell_length_c   7.22862334
_cell_angle_alpha   90.00000000
_cell_angle_beta   90.00000000
_cell_angle_gamma   120.00000337
_symmetry_Int_Tables_number   1
_chemical_formula_structural   Ba3Sr
_chemical_formula_sum   'Ba6 Sr2'
_cell_volume   517.20540076
_cell_formula_units_Z   2
loop_
 _symmetry_equiv_pos_site_id
 _symmetry_equiv_pos_as_xyz
  1  'x, y, z'
loop_
 _atom_site_type_symbol
 _atom_site_label
 _atom_site_symmetry_multiplicity
 _atom_site_fract_x
 _atom_site_fract_y
 _atom_site_fract_z
 _atom_site_occupancy
  Ba  Ba0  1  0.16900164  0.33800328  0.25000000  1
  Ba  Ba1  1  0.66199672  0.83099836  0.25000000  1
  Ba  Ba2  1  0.16900164  0.83099836  0.25000000  1
  Ba  Ba3  1  0.83099836  0.66199672  0.75000000  1
  Ba  Ba4  1  0.33800328  0.16900164  0.75000000  1
  Ba  Ba5  1  0.83099836  0.16900164  0.75000000  1
  Sr  Sr0  1  0.33333300  0.66666700  0.75000000  1
  Sr  Sr1  1  0.66666700  0.33333300  0.25000000  1
loop_
_geom_bond_atom_site_label_1
_geom_bond_atom_site_label_2
_geom_bond_distance
_geom_bond_site_symmetry_2
Ba0 Sr0 4.444836 1_554
Ba0 Sr0 4.444836 1_555
Ba0 Ba1 4.481062 1_555
Ba0 Ba2 4.481063 1_555
Ba0 Ba5 4.488026 1_455
Ba0 Ba5 4.488026 1_454
Ba0 Ba4 4.488026 1_554
Ba0 Ba4 4.488026 1_555
Ba0 Sr1 4.544878 1_455
Ba0 Sr1 4.544887 1_555
Ba0 Ba1 4.608404 1_445
Ba0 Ba2 4.608405 1_545
Ba1 Sr0 4.444836 1_554
Ba1 Sr0 4.444836 1_555
Ba1 Ba2 4.481063 1_555
Ba1 Ba5 4.488026 1_564
Ba1 Ba5 4.488026 1_565
Ba1 Ba3 4.488026 1_555
Ba1 Ba3 4.488026 1_554
Ba1 Sr1 4.544878 1_565
Ba1 Sr1 4.544887 1_555
Ba1 Ba2 4.608405 1_655
Ba2 Sr0 4.444832 1_554
Ba2 Sr0 4.444832 1_555
Ba2 Ba3 4.488026 1_455
Ba2 Ba3 4.488026 1_454
Ba2 Ba4 4.488026 1_565
Ba2 Ba4 4.488026 1_564
Ba2 Sr1 4.544882 1_455
Ba2 Sr1 4.544882 1_565
Ba3 Sr1 4.444836 1_556
Ba3 Sr1 4.444836 1_555
Ba3 Ba4 4.481062 1_555
Ba3 Ba5 4.481063 1_555
Ba3 Sr0 4.544878 1_655
Ba3 Sr0 4.544887 1_555
Ba3 Ba4 4.608404 1_665
Ba3 Ba5 4.608405 1_565
Ba4 Sr1 4.444836 1_556
Ba4 Sr1 4.444836 1_555
Ba4 Ba5 4.481063 1_555
Ba4 Sr0 4.544878 1_545
Ba4 Sr0 4.544887 1_555
Ba4 Ba5 4.608405 1_455
Ba5 Sr1 4.444832 1_556
Ba5 Sr1 4.444832 1_555
Ba5 Sr0 4.544882 1_655
Ba5 Sr0 4.544882 1_545
