# generated using pymatgen
data_Hg2Sb7H2Xe3F59
_symmetry_space_group_name_H-M   'P 1'
_cell_length_a   10.32157500
_cell_length_b   13.23389376
_cell_length_c   19.22892966
_cell_angle_alpha   92.95333394
_cell_angle_beta   98.50977119
_cell_angle_gamma   103.02557126
_symmetry_Int_Tables_number   1
_chemical_formula_structural   Hg2Sb7H2Xe3F59
_chemical_formula_sum   'Hg4 Sb14 H4 Xe6 F118'
_cell_volume   2520.97534716
_cell_formula_units_Z   2
loop_
 _symmetry_equiv_pos_site_id
 _symmetry_equiv_pos_as_xyz
  1  'x, y, z'
loop_
 _atom_site_type_symbol
 _atom_site_label
 _atom_site_symmetry_multiplicity
 _atom_site_fract_x
 _atom_site_fract_y
 _atom_site_fract_z
 _atom_site_occupancy
  Hg  Hg0  1  0.49459300  0.09875600  0.36476600  1
  Hg  Hg1  1  0.50540700  0.90124400  0.63523400  1
  Hg  Hg2  1  0.49062200  0.34028800  0.10656400  1
  Hg  Hg3  1  0.50937800  0.65971200  0.89343600  1
  Sb  Sb0  1  0.41059700  0.80031600  0.45489300  1
  Sb  Sb1  1  0.58940300  0.19968400  0.54510700  1
  Sb  Sb2  1  0.06953100  0.01452500  0.36605900  1
  Sb  Sb3  1  0.93046900  0.98547500  0.63394100  1
  Sb  Sb4  1  0.34757100  0.02548900  0.14739600  1
  Sb  Sb5  1  0.65242900  0.97451100  0.85260400  1
  Sb  Sb6  1  0.82172200  0.31294400  0.28282700  1
  Sb  Sb7  1  0.17827800  0.68705600  0.71717300  1
  Sb  Sb8  1  0.34361000  0.36963600  0.30679700  1
  Sb  Sb9  1  0.65639000  0.63036400  0.69320300  1
  Sb  Sb10  1  0.06835700  0.32141700  0.05426100  1
  Sb  Sb11  1  0.93164300  0.67858300  0.94573900  1
  Sb  Sb12  1  0.57828400  0.61708700  0.12156800  1
  Sb  Sb13  1  0.42171600  0.38291300  0.87843200  1
  H  H0  1  0.73822500  0.00628200  0.35357400  1
  H  H1  1  0.26177500  0.99371800  0.64642600  1
  H  H2  1  0.73793500  0.30297400  0.04561700  1
  H  H3  1  0.26206500  0.69702600  0.95438300  1
  Xe  Xe0  1  0.14503100  0.31621200  0.49895400  1
  Xe  Xe1  1  0.85496900  0.68378800  0.50104600  1
  Xe  Xe2  1  0.11473600  0.59785800  0.20927700  1
  Xe  Xe3  1  0.88526400  0.40214200  0.79072300  1
  Xe  Xe4  1  0.88466800  0.02063000  0.14265600  1
  Xe  Xe5  1  0.11533200  0.97937000  0.85734400  1
  F  F0  1  0.64453100  0.99559200  0.33203900  1
  F  F1  1  0.35546900  0.00440800  0.66796100  1
  F  F2  1  0.13245400  0.36550200  0.59477000  1
  F  F3  1  0.86754600  0.63449800  0.40523000  1
  F  F4  1  0.33578200  0.38645200  0.53072700  1
  F  F5  1  0.66421800  0.61354800  0.46927300  1
  F  F6  1  0.95205100  0.25465900  0.49798600  1
  F  F7  1  0.04794900  0.74534100  0.50201400  1
  F  F8  1  0.10407000  0.45162900  0.47937300  1
  F  F9  1  0.89593000  0.54837100  0.52062700  1
  F  F10  1  0.18397700  0.19671000  0.54826400  1
  F  F11  1  0.81602300  0.80329000  0.45173600  1
  F  F12  1  0.64360000  0.27048100  0.04581800  1
  F  F13  1  0.35640000  0.72951900  0.95418200  1
  F  F14  1  0.06848900  0.73279700  0.21365300  1
  F  F15  1  0.93151100  0.26720300  0.78634700  1
  F  F16  1  0.29345700  0.68425400  0.25145700  1
  F  F17  1  0.70654300  0.31574600  0.74854300  1
  F  F18  1  0.16172900  0.64054300  0.11773300  1
  F  F19  1  0.83827100  0.35945700  0.88226700  1
  F  F20  1  0.92477800  0.55472000  0.16347100  1
  F  F21  1  0.07522200  0.44528000  0.83652900  1
  F  F22  1  0.06175600  0.59759100  0.30384400  1
  F  F23  1  0.93824400  0.40240900  0.69615600  1
  F  F24  1  0.75564000  0.90723000  0.08291800  1
  F  F25  1  0.24436000  0.09277000  0.91708200  1
  F  F26  1  0.75788400  0.09885200  0.09917800  1
  F  F27  1  0.24211600  0.90114800  0.90082200  1
  F  F28  1  0.97215300  0.90646600  0.16584500  1
  F  F29  1  0.02784700  0.09353400  0.83415500  1
  F  F30  1  0.96843700  0.02797500  0.05744200  1
  F  F31  1  0.03156300  0.97202500  0.94255800  1
  F  F32  1  0.76339800  0.97239200  0.21015400  1
  F  F33  1  0.23660200  0.02760800  0.78984600  1
  F  F34  1  0.36828500  0.66537900  0.48698100  1
  F  F35  1  0.63171500  0.33462100  0.51301900  1
  F  F36  1  0.50510000  0.75876800  0.38562200  1
  F  F37  1  0.49490000  0.24123200  0.61437800  1
  F  F38  1  0.24164600  0.77841600  0.39527100  1
  F  F39  1  0.75835400  0.22158400  0.60472900  1
  F  F40  1  0.45543200  0.94269000  0.42914200  1
  F  F41  1  0.54456800  0.05731000  0.57085800  1
  F  F42  1  0.57596800  0.83676000  0.52499500  1
  F  F43  1  0.42403200  0.16324000  0.47500500  1
  F  F44  1  0.33501300  0.85385600  0.53358600  1
  F  F45  1  0.66498700  0.14614400  0.46641400  1
  F  F46  1  0.11811100  0.97352900  0.45705900  1
  F  F47  1  0.88188900  0.02647100  0.54294100  1
  F  F48  1  0.01064500  0.87559900  0.32513400  1
  F  F49  1  0.98935500  0.12440100  0.67486600  1
  F  F50  1  0.02601000  0.06487700  0.27493500  1
  F  F51  1  0.97399000  0.93512300  0.72506500  1
  F  F52  1  0.88927200  0.01577300  0.38343800  1
  F  F53  1  0.11072800  0.98422700  0.61656200  1
  F  F54  1  0.12530800  0.16026300  0.40473000  1
  F  F55  1  0.87469200  0.83973700  0.59527000  1
  F  F56  1  0.25019700  0.02669900  0.34553800  1
  F  F57  1  0.74980300  0.97330100  0.65446200  1
  F  F58  1  0.26178500  0.97912400  0.05345200  1
  F  F59  1  0.73821500  0.02087600  0.94654800  1
  F  F60  1  0.50713400  0.98572100  0.13289000  1
  F  F61  1  0.49286600  0.01427900  0.86711000  1
  F  F62  1  0.27649800  0.89920300  0.18542900  1
  F  F63  1  0.72350200  0.10079700  0.81457100  1
  F  F64  1  0.19858100  0.08123500  0.16573400  1
  F  F65  1  0.80141900  0.91876500  0.83426600  1
  F  F66  1  0.42618200  0.16285200  0.11669100  1
  F  F67  1  0.57381800  0.83714800  0.88330900  1
  F  F68  1  0.43978900  0.08545700  0.24254100  1
  F  F69  1  0.56021100  0.91454300  0.75745900  1
  F  F70  1  0.79256200  0.43428000  0.32837400  1
  F  F71  1  0.20743800  0.56572000  0.67162600  1
  F  F72  1  0.84706700  0.18837900  0.23652100  1
  F  F73  1  0.15293300  0.81162100  0.76347900  1
  F  F74  1  0.96182800  0.39443300  0.23954300  1
  F  F75  1  0.03817200  0.60556700  0.76045700  1
  F  F76  1  0.95338200  0.30052600  0.36162700  1
  F  F77  1  0.04661800  0.69947400  0.63837300  1
  F  F78  1  0.68900800  0.32001200  0.20210800  1
  F  F79  1  0.31099200  0.67998800  0.79789200  1
  F  F80  1  0.68250100  0.22680000  0.32562100  1
  F  F81  1  0.31749900  0.77320000  0.67437900  1
  F  F82  1  0.18571000  0.27516500  0.26045700  1
  F  F83  1  0.81429000  0.72483500  0.73954300  1
  F  F84  1  0.50014000  0.46430100  0.35409800  1
  F  F85  1  0.49986000  0.53569900  0.64590200  1
  F  F86  1  0.27116800  0.48527400  0.27333400  1
  F  F87  1  0.72883200  0.51472600  0.72666600  1
  F  F88  1  0.42608500  0.36059200  0.22333100  1
  F  F89  1  0.57391500  0.63940800  0.77666900  1
  F  F90  1  0.25928600  0.37619400  0.39102300  1
  F  F91  1  0.74071400  0.62380600  0.60897700  1
  F  F92  1  0.41297800  0.25473500  0.34223500  1
  F  F93  1  0.58702200  0.74526500  0.65776500  1
  F  F94  1  0.12532700  0.42330900  0.99286900  1
  F  F95  1  0.87467300  0.57669100  0.00713100  1
  F  F96  1  0.01944400  0.21298900  0.98054100  1
  F  F97  1  0.98055600  0.78701100  0.01945900  1
  F  F98  1  0.01396300  0.22531000  0.12237200  1
  F  F99  1  0.98603700  0.77469000  0.87762800  1
  F  F100  1  0.11909200  0.43097100  0.13202700  1
  F  F101  1  0.88090800  0.56902900  0.86797300  1
  F  F102  1  0.88792500  0.34579600  0.04049100  1
  F  F103  1  0.11207500  0.65420400  0.95950900  1
  F  F104  1  0.24738800  0.29620500  0.07594600  1
  F  F105  1  0.75261200  0.70379500  0.92405400  1
  F  F106  1  0.48593300  0.72447200  0.12872600  1
  F  F107  1  0.51406700  0.27552800  0.87127400  1
  F  F108  1  0.75307400  0.70492000  0.12903300  1
  F  F109  1  0.24692600  0.29508000  0.87096700  1
  F  F110  1  0.60005300  0.60200900  0.21986700  1
  F  F111  1  0.39994700  0.39799100  0.78013300  1
  F  F112  1  0.55586800  0.62077700  0.01973000  1
  F  F113  1  0.44413200  0.37922300  0.98027000  1
  F  F114  1  0.41054900  0.50940100  0.10873300  1
  F  F115  1  0.58945100  0.49059900  0.89126700  1
  F  F116  1  0.65464900  0.49374400  0.10849200  1
  F  F117  1  0.34535100  0.50625600  0.89150800  1
loop_
_geom_bond_atom_site_label_1
_geom_bond_atom_site_label_2
_geom_bond_distance
_geom_bond_site_symmetry_2
F0 H0 0.969787 1_565
F0 Hg0 2.409802 1_565
F1 H1 0.969787 1_545
F1 Hg1 2.409802 1_545
F2 Xe0 1.955004 1_555
F3 Xe1 1.955004 1_555
F4 Xe0 1.968300 1_555
F5 Xe1 1.968300 1_555
F6 Xe0 1.971665 1_655
F7 Xe1 1.971665 1_455
F8 Xe0 1.973846 1_555
F9 Xe1 1.973846 1_555
F10 Xe0 1.972304 1_555
F11 Xe1 1.972304 1_555
F12 H2 0.972387 1_555
F12 Hg2 2.408984 1_555
F13 H3 0.972387 1_555
F13 Hg3 2.408984 1_555
F14 Xe2 1.950527 1_555
F15 Xe3 1.950527 1_555
F16 Xe2 1.969483 1_555
F17 Xe3 1.969483 1_555
F18 Xe2 1.970950 1_555
F19 Xe3 1.970950 1_555
F20 Xe2 1.969380 1_655
F21 Xe3 1.969380 1_455
F22 Xe2 1.974788 1_555
F23 Xe3 1.974788 1_555
F24 Xe4 1.952941 1_565
F25 Xe5 1.952941 1_545
F26 Xe4 1.964446 1_555
F27 Xe5 1.964446 1_555
F28 Xe4 1.965210 1_565
F29 Xe5 1.965210 1_545
F30 Xe4 1.959536 1_555
F31 Xe5 1.959536 1_555
F32 Xe4 1.965922 1_565
F33 Xe5 1.965922 1_545
F34 Sb0 1.897908 1_555
F35 Sb1 1.897908 1_555
F36 Sb0 1.891780 1_555
F37 Sb1 1.891780 1_555
F38 Sb0 1.893571 1_555
F39 Sb1 1.893571 1_555
F40 Sb0 1.944305 1_555
F40 Hg0 2.448809 1_565
F41 Sb1 1.944305 1_555
F41 Hg1 2.448809 1_545
F42 Sb0 1.960641 1_555
F42 Hg1 2.510536 1_555
F43 Sb1 1.960641 1_555
F43 Hg0 2.510536 1_555
F44 Sb0 1.971915 1_555
F44 Hg1 2.380328 1_555
F45 Sb1 1.971915 1_555
F45 Hg0 2.380328 1_555
F46 Sb2 1.889038 1_565
F47 Sb3 1.889038 1_545
F48 Sb2 1.890644 1_565
F49 Sb3 1.890644 1_545
F50 Sb2 1.933487 1_555
F51 Sb3 1.933487 1_555
F52 H0 1.554185 1_555
F52 Sb2 1.941885 1_655
F53 H1 1.554185 1_555
F53 Sb3 1.941885 1_455
F54 Sb2 1.956833 1_555
F55 Sb3 1.956833 1_555
F56 Sb2 1.935945 1_555
F56 Hg0 2.452065 1_555
F57 Sb3 1.935945 1_555
F57 Hg1 2.452065 1_555
F58 Sb4 1.895056 1_565
F59 Sb5 1.895056 1_545
F60 Sb4 1.891756 1_565
F61 Sb5 1.891756 1_545
F62 Sb4 1.896884 1_565
F63 Sb5 1.896884 1_545
F64 Sb4 1.917952 1_555
F65 Sb5 1.917952 1_555
F66 Sb4 1.974594 1_555
F66 Hg2 2.318541 1_555
F67 Sb5 1.974594 1_555
F67 Hg3 2.318541 1_555
F68 Sb4 1.969138 1_555
F68 Hg0 2.322433 1_555
F69 Sb5 1.969138 1_555
F69 Hg1 2.322433 1_555
F70 Sb6 1.893945 1_555
F71 Sb7 1.893945 1_555
F72 Sb6 1.921155 1_555
F73 Sb7 1.921155 1_555
F74 Sb6 1.921635 1_555
F75 Sb7 1.921635 1_555
F76 Sb6 1.920050 1_555
F77 Sb7 1.920050 1_555
F78 Sb6 1.933328 1_555
F78 Hg2 2.612533 1_555
F79 Sb7 1.933328 1_555
F79 Hg3 2.612533 1_555
F80 Sb6 1.936458 1_555
F80 Hg0 2.506330 1_555
F81 Sb7 1.936458 1_555
F81 Hg1 2.506330 1_555
F82 Sb8 1.884183 1_555
F83 Sb9 1.884183 1_555
F84 Sb8 1.882106 1_555
F85 Sb9 1.882106 1_555
F86 Sb8 1.946776 1_555
F87 Sb9 1.946776 1_555
F88 Sb8 1.935298 1_555
F88 Hg2 2.453258 1_555
F89 Sb9 1.935298 1_555
F89 Hg3 2.453258 1_555
F90 Sb8 1.955716 1_555
F91 Sb9 1.955716 1_555
F92 Sb8 1.934507 1_555
F92 Hg0 2.434394 1_555
F93 Sb9 1.934507 1_555
F93 Hg1 2.434394 1_555
F94 Sb10 1.889355 1_556
F95 Sb11 1.889355 1_554
F96 Sb10 1.890871 1_556
F97 Sb11 1.890871 1_554
F98 Sb10 1.927580 1_555
F99 Sb11 1.927580 1_555
F100 Sb10 1.953182 1_555
F101 Sb11 1.953182 1_555
F102 H2 1.543705 1_555
F102 Sb10 1.943251 1_655
F103 H3 1.543705 1_555
F103 Sb11 1.943251 1_455
F104 Sb10 1.940124 1_555
F104 Hg2 2.420085 1_555
F105 Sb11 1.940124 1_555
F105 Hg3 2.420085 1_555
F106 Sb12 1.891147 1_555
F107 Sb13 1.891147 1_555
F108 Sb12 1.894042 1_555
F109 Sb13 1.894042 1_555
F110 Sb12 1.896439 1_555
F111 Sb13 1.896439 1_555
F112 Sb12 1.942025 1_555
F112 Hg3 2.507761 1_554
F113 Sb13 1.942025 1_555
F113 Hg2 2.507761 1_556
F114 Sb12 1.953029 1_555
F114 Hg2 2.554980 1_555
F115 Sb13 1.953029 1_555
F115 Hg3 2.554980 1_555
F116 Sb12 1.986264 1_555
F116 Hg2 2.327172 1_555
F117 Sb13 1.986264 1_555
F117 Hg3 2.327172 1_555
