# generated using pymatgen
data_Al6B5O18
_symmetry_space_group_name_H-M   'P 1'
_cell_length_a   9.25303803
_cell_length_b   9.25303803
_cell_length_c   8.64065400
_cell_angle_alpha   90.00000000
_cell_angle_beta   90.00000000
_cell_angle_gamma   120.00000018
_symmetry_Int_Tables_number   1
_chemical_formula_structural   Al6B5O18
_chemical_formula_sum   'Al12 B10 O36'
_cell_volume   640.68704089
_cell_formula_units_Z   2
loop_
 _symmetry_equiv_pos_site_id
 _symmetry_equiv_pos_as_xyz
  1  'x, y, z'
loop_
 _atom_site_type_symbol
 _atom_site_label
 _atom_site_symmetry_multiplicity
 _atom_site_fract_x
 _atom_site_fract_y
 _atom_site_fract_z
 _atom_site_occupancy
  Al  Al0  1  0.65623700  0.63988100  0.45502100  1
  Al  Al1  1  0.98364400  0.34376300  0.45502100  1
  Al  Al2  1  0.36011900  0.01635600  0.45502100  1
  Al  Al3  1  0.34376300  0.36011900  0.95502100  1
  Al  Al4  1  0.01635600  0.65623700  0.95502100  1
  Al  Al5  1  0.63988100  0.98364400  0.95502100  1
  Al  Al6  1  0.34376300  0.36011900  0.54497900  1
  Al  Al7  1  0.01635600  0.65623700  0.54497900  1
  Al  Al8  1  0.63988100  0.98364400  0.54497900  1
  Al  Al9  1  0.65623700  0.63988100  0.04497900  1
  Al  Al10  1  0.98364400  0.34376300  0.04497900  1
  Al  Al11  1  0.36011900  0.01635600  0.04497900  1
  B  B0  1  0.15441200  0.87338300  0.75000000  1
  B  B1  1  0.71897100  0.84558800  0.75000000  1
  B  B2  1  0.12661700  0.28102900  0.75000000  1
  B  B3  1  0.84558800  0.12661700  0.25000000  1
  B  B4  1  0.28102900  0.15441200  0.25000000  1
  B  B5  1  0.87338300  0.71897100  0.25000000  1
  B  B6  1  0.33333300  0.66666700  0.45567600  1
  B  B7  1  0.66666700  0.33333300  0.95567600  1
  B  B8  1  0.66666700  0.33333300  0.54432400  1
  B  B9  1  0.33333300  0.66666700  0.04432400  1
  O  O0  1  0.68025700  0.66117400  0.25000000  1
  O  O1  1  0.98091700  0.31974300  0.25000000  1
  O  O2  1  0.33882600  0.01908300  0.25000000  1
  O  O3  1  0.31974300  0.33882600  0.75000000  1
  O  O4  1  0.01908300  0.68025700  0.75000000  1
  O  O5  1  0.66117400  0.98091700  0.75000000  1
  O  O6  1  0.87098200  0.67044600  0.42004800  1
  O  O7  1  0.79946400  0.12901800  0.42004800  1
  O  O8  1  0.32955400  0.20053600  0.42004800  1
  O  O9  1  0.12901800  0.32955400  0.92004800  1
  O  O10  1  0.20053600  0.87098200  0.92004800  1
  O  O11  1  0.67044600  0.79946400  0.92004800  1
  O  O12  1  0.12901800  0.32955400  0.57995200  1
  O  O13  1  0.20053600  0.87098200  0.57995200  1
  O  O14  1  0.67044600  0.79946400  0.57995200  1
  O  O15  1  0.87098200  0.67044600  0.07995200  1
  O  O16  1  0.79946400  0.12901800  0.07995200  1
  O  O17  1  0.32955400  0.20053600  0.07995200  1
  O  O18  1  0.59102000  0.43342700  0.54491600  1
  O  O19  1  0.84240700  0.40898000  0.54491600  1
  O  O20  1  0.56657300  0.15759300  0.54491600  1
  O  O21  1  0.40898000  0.56657300  0.04491600  1
  O  O22  1  0.15759300  0.59102000  0.04491600  1
  O  O23  1  0.43342700  0.84240700  0.04491600  1
  O  O24  1  0.40898000  0.56657300  0.45508400  1
  O  O25  1  0.15759300  0.59102000  0.45508400  1
  O  O26  1  0.43342700  0.84240700  0.45508400  1
  O  O27  1  0.59102000  0.43342700  0.95508400  1
  O  O28  1  0.84240700  0.40898000  0.95508400  1
  O  O29  1  0.56657300  0.15759300  0.95508400  1
  O  O30  1  0.17581800  0.03010300  0.75000000  1
  O  O31  1  0.85428500  0.82418200  0.75000000  1
  O  O32  1  0.96989700  0.14571500  0.75000000  1
  O  O33  1  0.82418200  0.96989700  0.25000000  1
  O  O34  1  0.14571500  0.17581800  0.25000000  1
  O  O35  1  0.03010300  0.85428500  0.25000000  1
loop_
_geom_bond_atom_site_label_1
_geom_bond_atom_site_label_2
_geom_bond_distance
_geom_bond_site_symmetry_2
Al0 O14 1.780130 1_555
Al0 O0 1.784011 1_555
Al0 O18 1.861197 1_555
Al0 O6 1.886180 1_555
Al0 O24 2.035336 1_555
Al1 O12 1.780130 1_655
Al1 O1 1.784011 1_555
Al1 O19 1.861197 1_555
Al1 O7 1.886180 1_555
Al1 O25 2.035336 1_655
Al2 O13 1.780130 1_545
Al2 O2 1.784011 1_555
Al2 O20 1.861197 1_555
Al2 O8 1.886180 1_555
Al2 O26 2.035336 1_545
Al3 O17 1.780130 1_556
Al3 O3 1.784011 1_555
Al3 O21 1.861197 1_556
Al3 O9 1.886180 1_555
Al3 O27 2.035336 1_555
Al4 O15 1.780130 1_456
Al4 O4 1.784011 1_555
Al4 O22 1.861197 1_556
Al4 O10 1.886180 1_555
Al4 O28 2.035336 1_455
Al5 O16 1.780130 1_566
Al5 O5 1.784011 1_555
Al5 O23 1.861197 1_556
Al5 O11 1.886180 1_555
Al5 O29 2.035336 1_565
Al6 O8 1.780130 1_555
Al6 O3 1.784011 1_555
Al6 O24 1.861197 1_555
Al6 O12 1.886180 1_555
Al6 O18 2.035336 1_555
Al7 O6 1.780130 1_455
Al7 O4 1.784011 1_555
Al7 O25 1.861197 1_555
Al7 O13 1.886180 1_555
Al7 O19 2.035336 1_455
Al8 O7 1.780130 1_565
Al8 O5 1.784011 1_555
Al8 O26 1.861197 1_555
Al8 O14 1.886180 1_555
Al8 O20 2.035336 1_565
Al9 O11 1.780130 1_554
Al9 O0 1.784011 1_555
Al9 O27 1.861197 1_554
Al9 O15 1.886180 1_555
Al9 O21 2.035336 1_555
Al10 O9 1.780130 1_654
Al10 O1 1.784011 1_555
Al10 O28 1.861197 1_554
Al10 O16 1.886180 1_555
Al10 O22 2.035336 1_655
Al11 O10 1.780130 1_544
Al11 O2 1.784011 1_555
Al11 O29 1.861197 1_554
Al11 O17 1.886180 1_555
Al11 O23 2.035336 1_545
B0 O30 1.361946 1_565
B0 O10 1.533311 1_555
B0 O13 1.533311 1_555
B0 O4 1.588616 1_555
B1 O31 1.361946 1_555
B1 O11 1.533311 1_555
B1 O14 1.533311 1_555
B1 O5 1.588616 1_555
B2 O32 1.361946 1_455
B2 O12 1.533311 1_555
B2 O9 1.533311 1_555
B2 O3 1.588616 1_555
B3 O33 1.361946 1_545
B3 O7 1.533311 1_555
B3 O16 1.533311 1_555
B3 O1 1.588616 1_555
B4 O34 1.361946 1_555
B4 O8 1.533311 1_555
B4 O17 1.533311 1_555
B4 O2 1.588616 1_555
B5 O35 1.361946 1_655
B5 O6 1.533311 1_555
B5 O15 1.533311 1_555
B5 O0 1.588616 1_555
B6 O25 1.412812 1_555
B6 O26 1.412813 1_555
B6 O24 1.412821 1_555
B7 O28 1.412812 1_555
B7 O29 1.412813 1_555
B7 O27 1.412821 1_555
B8 O19 1.412812 1_555
B8 O20 1.412813 1_555
B8 O18 1.412821 1_555
B9 O22 1.412812 1_555
B9 O23 1.412813 1_555
B9 O21 1.412821 1_555
