# generated using pymatgen
data_CePrAl4
_symmetry_space_group_name_H-M   'P 1'
_cell_length_a   5.66069667
_cell_length_b   5.66069667
_cell_length_c   5.66069667
_cell_angle_alpha   60.00000000
_cell_angle_beta   60.00000000
_cell_angle_gamma   60.00000000
_symmetry_Int_Tables_number   1
_chemical_formula_structural   CePrAl4
_chemical_formula_sum   'Ce1 Pr1 Al4'
_cell_volume   128.26100921
_cell_formula_units_Z   1
loop_
 _symmetry_equiv_pos_site_id
 _symmetry_equiv_pos_as_xyz
  1  'x, y, z'
loop_
 _atom_site_type_symbol
 _atom_site_label
 _atom_site_symmetry_multiplicity
 _atom_site_fract_x
 _atom_site_fract_y
 _atom_site_fract_z
 _atom_site_occupancy
  Ce  Ce0  1  0.25000000  0.25000000  0.25000000  1
  Pr  Pr0  1  0.00000000  0.00000000  0.00000000  1
  Al  Al0  1  0.62461300  0.62461300  0.12616100  1
  Al  Al1  1  0.62461300  0.12616100  0.62461300  1
  Al  Al2  1  0.12616100  0.62461300  0.62461300  1
  Al  Al3  1  0.62461300  0.62461300  0.62461300  1
loop_
_geom_bond_atom_site_label_1
_geom_bond_atom_site_label_2
_geom_bond_distance
_geom_bond_site_symmetry_2
Ce0 Pr0 3.466455 1_655
Ce0 Pr0 3.466455 1_565
Ce0 Pr0 3.466455 1_556
Ce0 Pr0 3.466455 1_555
Al0 Al3 2.821586 1_555
Al0 Al1 2.821586 1_555
Al0 Al2 2.821586 1_555
Al0 Al1 2.839111 1_564
Al0 Al3 2.839111 1_554
Al0 Al2 2.839111 1_654
Al0 Ce0 3.317948 1_555
Al0 Ce0 3.317948 1_655
Al0 Ce0 3.317948 1_565
Al0 Pr0 3.319816 1_565
Al0 Pr0 3.319816 1_655
Al0 Pr0 3.319816 1_665
Al1 Al3 2.821586 1_555
Al1 Al2 2.821586 1_555
Al1 Al3 2.839111 1_545
Al1 Al2 2.839111 1_645
Al1 Ce0 3.317948 1_555
Al1 Ce0 3.317948 1_556
Al1 Ce0 3.317948 1_655
Al1 Pr0 3.319816 1_655
Al1 Pr0 3.319816 1_556
Al1 Pr0 3.319816 1_656
Al2 Al3 2.821586 1_555
Al2 Al3 2.839111 1_455
Al2 Ce0 3.317948 1_555
Al2 Ce0 3.317948 1_556
Al2 Ce0 3.317948 1_565
Al2 Pr0 3.319816 1_565
Al2 Pr0 3.319816 1_556
Al2 Pr0 3.319816 1_566
Al3 Ce0 3.317948 1_565
Al3 Ce0 3.317948 1_556
Al3 Ce0 3.317948 1_655
Al3 Pr0 3.319816 1_566
Al3 Pr0 3.319816 1_656
Al3 Pr0 3.319816 1_665
