# generated using pymatgen
data_Lu2Ga5Ni12
_symmetry_space_group_name_H-M   'P 1'
_cell_length_a   8.38331992
_cell_length_b   8.38331992
_cell_length_c   8.28875900
_cell_angle_alpha   90.00000000
_cell_angle_beta   90.00000000
_cell_angle_gamma   119.99999940
_symmetry_Int_Tables_number   1
_chemical_formula_structural   Lu2Ga5Ni12
_chemical_formula_sum   'Lu4 Ga10 Ni24'
_cell_volume   504.48961053
_cell_formula_units_Z   2
loop_
 _symmetry_equiv_pos_site_id
 _symmetry_equiv_pos_as_xyz
  1  'x, y, z'
loop_
 _atom_site_type_symbol
 _atom_site_label
 _atom_site_symmetry_multiplicity
 _atom_site_fract_x
 _atom_site_fract_y
 _atom_site_fract_z
 _atom_site_occupancy
  Lu  Lu0  1  0.00000000  0.00000000  0.25000000  1
  Lu  Lu1  1  0.00000000  0.00000000  0.75000000  1
  Lu  Lu2  1  0.33333300  0.66666700  0.75000000  1
  Lu  Lu3  1  0.66666700  0.33333300  0.25000000  1
  Ga  Ga0  1  0.33333300  0.66666700  0.39417400  1
  Ga  Ga1  1  0.66666700  0.33333300  0.60582600  1
  Ga  Ga2  1  0.66666700  0.33333300  0.89417400  1
  Ga  Ga3  1  0.33333300  0.66666700  0.10582600  1
  Ga  Ga4  1  0.50000000  0.50000000  0.50000000  1
  Ga  Ga5  1  0.50000000  0.00000000  0.50000000  1
  Ga  Ga6  1  0.00000000  0.50000000  0.50000000  1
  Ga  Ga7  1  0.50000000  0.50000000  0.00000000  1
  Ga  Ga8  1  0.50000000  0.00000000  0.00000000  1
  Ga  Ga9  1  0.00000000  0.50000000  0.00000000  1
  Ni  Ni0  1  0.32542800  0.35203900  0.25000000  1
  Ni  Ni1  1  0.64796100  0.97338900  0.25000000  1
  Ni  Ni2  1  0.02661100  0.67457200  0.25000000  1
  Ni  Ni3  1  0.64796100  0.67457200  0.25000000  1
  Ni  Ni4  1  0.02661100  0.35203900  0.25000000  1
  Ni  Ni5  1  0.32542800  0.97338900  0.25000000  1
  Ni  Ni6  1  0.67457200  0.64796100  0.75000000  1
  Ni  Ni7  1  0.35203900  0.02661100  0.75000000  1
  Ni  Ni8  1  0.97338900  0.32542800  0.75000000  1
  Ni  Ni9  1  0.35203900  0.32542800  0.75000000  1
  Ni  Ni10  1  0.97338900  0.64796100  0.75000000  1
  Ni  Ni11  1  0.67457200  0.02661100  0.75000000  1
  Ni  Ni12  1  0.16618700  0.83381300  0.51453600  1
  Ni  Ni13  1  0.16618700  0.33237400  0.51453600  1
  Ni  Ni14  1  0.66762600  0.83381300  0.51453600  1
  Ni  Ni15  1  0.83381300  0.16618700  0.48546400  1
  Ni  Ni16  1  0.83381300  0.66762600  0.48546400  1
  Ni  Ni17  1  0.33237400  0.16618700  0.48546400  1
  Ni  Ni18  1  0.83381300  0.16618700  0.01453600  1
  Ni  Ni19  1  0.83381300  0.66762600  0.01453600  1
  Ni  Ni20  1  0.33237400  0.16618700  0.01453600  1
  Ni  Ni21  1  0.16618700  0.83381300  0.98546400  1
  Ni  Ni22  1  0.16618700  0.33237400  0.98546400  1
  Ni  Ni23  1  0.66762600  0.83381300  0.98546400  1
loop_
_geom_bond_atom_site_label_1
_geom_bond_atom_site_label_2
_geom_bond_distance
_geom_bond_site_symmetry_2
Lu0 Ni2 2.846276 1_545
Lu0 Ni5 2.846276 1_545
Lu0 Ni1 2.846276 1_445
Lu0 Ni4 2.846276 1_555
Lu0 Ni0 2.846276 1_555
Lu0 Ni3 2.846276 1_445
Lu0 Ni15 3.103572 1_455
Lu0 Ni18 3.103572 1_455
Lu0 Ni17 3.103572 1_555
Lu0 Ni16 3.103572 1_445
Lu0 Ni20 3.103572 1_555
Lu0 Ni19 3.103572 1_445
Lu0 Ni12 3.260496 1_545
Lu0 Ni21 3.260496 1_544
Lu0 Ni13 3.260496 1_555
Lu0 Ni22 3.260496 1_554
Lu0 Ni14 3.260496 1_445
Lu0 Ni23 3.260496 1_444
Lu1 Ni8 2.846276 1_455
Lu1 Ni11 2.846276 1_455
Lu1 Ni7 2.846276 1_555
Lu1 Ni10 2.846276 1_445
Lu1 Ni9 2.846276 1_555
Lu1 Ni6 2.846276 1_445
Lu1 Ni12 3.103572 1_545
Lu1 Ni21 3.103572 1_545
Lu1 Ni22 3.103572 1_555
Lu1 Ni13 3.103572 1_555
Lu1 Ni14 3.103572 1_445
Lu1 Ni23 3.103572 1_445
Lu1 Ni18 3.260496 1_456
Lu1 Ni15 3.260496 1_455
Lu1 Ni20 3.260496 1_556
Lu1 Ni19 3.260496 1_446
Lu1 Ni17 3.260496 1_555
Lu1 Ni16 3.260496 1_445
Lu2 Ni7 2.942253 1_565
Lu2 Ni10 2.942253 1_455
Lu2 Ni11 2.942256 1_565
Lu2 Ni8 2.942256 1_455
Lu2 Ni6 2.942261 1_555
Lu2 Ni9 2.942261 1_555
Lu2 Ni21 3.114411 1_555
Lu2 Ni12 3.114411 1_555
Lu2 Ni14 3.114417 1_555
Lu2 Ni23 3.114417 1_555
Lu2 Ni13 3.114417 1_555
Lu2 Ni22 3.114417 1_555
Lu3 Ni4 2.942253 1_655
Lu3 Ni1 2.942253 1_545
Lu3 Ni2 2.942256 1_655
Lu3 Ni5 2.942256 1_545
Lu3 Ni0 2.942261 1_555
Lu3 Ni3 2.942261 1_555
Lu3 Ni15 3.114411 1_555
Lu3 Ni18 3.114411 1_555
Lu3 Ni16 3.114417 1_555
Lu3 Ni17 3.114417 1_555
Lu3 Ni19 3.114417 1_555
Lu3 Ni20 3.114417 1_555
Ga0 Ga3 2.390047 1_555
Ga0 Ga5 2.574117 1_565
Ga0 Ga6 2.574117 1_555
Ga0 Ga4 2.574124 1_555
Ga0 Ni12 2.624065 1_555
Ga0 Ni14 2.624071 1_555
Ga0 Ni13 2.624071 1_555
Ga0 Ni5 2.866132 1_555
Ga0 Ni2 2.866132 1_555
Ga0 Ni1 2.866136 1_555
Ga0 Ni4 2.866136 1_555
Ga0 Ni3 2.866139 1_555
Ga0 Ni0 2.866139 1_555
Ga0 Lu2 2.949356 1_555
Ga1 Ga2 2.390047 1_555
Ga1 Ga5 2.574117 1_555
Ga1 Ga6 2.574117 1_655
Ga1 Ga4 2.574124 1_555
Ga1 Ni15 2.624065 1_555
Ga1 Ni16 2.624071 1_555
Ga1 Ni17 2.624071 1_555
Ga1 Ni8 2.866132 1_555
Ga1 Ni11 2.866132 1_555
Ga1 Ni10 2.866136 1_555
Ga1 Ni7 2.866136 1_555
Ga1 Ni9 2.866139 1_555
Ga1 Ni6 2.866139 1_555
Ga1 Lu3 2.949356 1_555
Ga2 Ga8 2.574117 1_556
Ga2 Ga9 2.574117 1_656
Ga2 Ga7 2.574124 1_556
Ga2 Ni18 2.624065 1_556
Ga2 Ni19 2.624071 1_556
Ga2 Ni20 2.624071 1_556
Ga2 Ni8 2.866132 1_555
Ga2 Ni11 2.866132 1_555
Ga2 Ni10 2.866136 1_555
Ga2 Ni7 2.866136 1_555
Ga2 Ni9 2.866139 1_555
Ga2 Ni6 2.866139 1_555
Ga2 Lu3 2.949356 1_556
Ga3 Ga8 2.574117 1_565
Ga3 Ga9 2.574117 1_555
Ga3 Ga7 2.574124 1_555
Ga3 Ni21 2.624065 1_554
Ga3 Ni23 2.624071 1_554
Ga3 Ni22 2.624071 1_554
Ga3 Ni5 2.866132 1_555
Ga3 Ni2 2.866132 1_555
Ga3 Ni1 2.866136 1_555
Ga3 Ni4 2.866136 1_555
Ga3 Ni3 2.866139 1_555
Ga3 Ni0 2.866139 1_555
Ga3 Lu2 2.949356 1_554
Ga4 Ni14 2.426539 1_555
Ga4 Ni16 2.426539 1_555
Ga4 Ni13 2.426539 1_555
Ga4 Ni17 2.426539 1_555
Ga4 Ni6 2.481746 1_555
Ga4 Ni9 2.481746 1_555
Ga4 Ni3 2.481746 1_555
Ga4 Ni0 2.481746 1_555
Ga4 Lu2 3.186011 1_555
Ga4 Lu3 3.186011 1_555
Ga5 Ni14 2.426539 1_545
Ga5 Ni17 2.426539 1_555
Ga5 Ni15 2.426539 1_555
Ga5 Ni12 2.426539 1_545
Ga5 Ni7 2.481746 1_555
Ga5 Ni1 2.481746 1_545
Ga5 Ni11 2.481746 1_555
Ga5 Ni5 2.481746 1_545
Ga5 Lu3 3.186005 1_555
Ga5 Lu2 3.186005 1_545
Ga6 Ni13 2.426539 1_555
Ga6 Ni16 2.426539 1_455
Ga6 Ni12 2.426539 1_555
Ga6 Ni15 2.426539 1_455
Ga6 Ni10 2.481746 1_455
Ga6 Ni4 2.481746 1_555
Ga6 Ni2 2.481746 1_555
Ga6 Ni8 2.481746 1_455
Ga6 Lu2 3.186005 1_555
Ga6 Lu3 3.186005 1_455
Ga7 Ni19 2.426539 1_555
Ga7 Ni23 2.426539 1_554
Ga7 Ni20 2.426539 1_555
Ga7 Ni22 2.426539 1_554
Ga7 Ni3 2.481746 1_555
Ga7 Ni0 2.481746 1_555
Ga7 Ni9 2.481746 1_554
Ga7 Ni6 2.481746 1_554
Ga7 Lu2 3.186011 1_554
Ga7 Lu3 3.186011 1_555
Ga8 Ni20 2.426539 1_555
Ga8 Ni23 2.426539 1_544
Ga8 Ni18 2.426539 1_555
Ga8 Ni21 2.426539 1_544
Ga8 Ni7 2.481746 1_554
Ga8 Ni1 2.481746 1_545
Ga8 Ni5 2.481746 1_545
Ga8 Ni11 2.481746 1_554
Ga8 Lu3 3.186005 1_555
Ga8 Lu2 3.186005 1_544
Ga9 Ni19 2.426539 1_455
Ga9 Ni22 2.426539 1_554
Ga9 Ni21 2.426539 1_554
Ga9 Ni18 2.426539 1_455
Ga9 Ni10 2.481746 1_454
Ga9 Ni4 2.481746 1_555
Ga9 Ni8 2.481746 1_454
Ga9 Ni2 2.481746 1_555
Ga9 Lu3 3.186005 1_455
Ga9 Lu2 3.186005 1_554
Ni0 Ni4 2.505079 1_555
Ni0 Ni17 2.516110 1_555
Ni0 Ni20 2.516110 1_555
Ni0 Ni13 2.529241 1_555
Ni0 Ni22 2.529241 1_554
Ni0 Ni3 2.703897 1_555
Ni1 Ni3 2.505079 1_555
Ni1 Ni15 2.516110 1_565
Ni1 Ni18 2.516110 1_565
Ni1 Ni23 2.529241 1_554
Ni1 Ni14 2.529241 1_555
Ni1 Ni5 2.703897 1_555
Ni2 Ni5 2.505079 1_555
Ni2 Ni21 2.529241 1_554
Ni2 Ni4 2.703897 1_555
Ni6 Ni9 2.703897 1_555
Ni7 Ni9 2.505079 1_555
Ni10 Ni6 2.505079 1_555
Ni10 Ni21 2.516110 1_655
Ni10 Ni12 2.516110 1_655
Ni10 Ni19 2.529241 1_556
Ni10 Ni16 2.529241 1_555
Ni10 Ni8 2.703897 1_555
Ni11 Ni8 2.505079 1_555
Ni11 Ni23 2.516110 1_545
Ni11 Ni14 2.516110 1_545
Ni11 Ni18 2.529241 1_556
Ni11 Ni15 2.529241 1_555
Ni11 Ni7 2.703897 1_555
Ni12 Ni16 2.425093 1_455
Ni12 Ni17 2.425093 1_565
Ni12 Ni7 2.516110 1_565
Ni12 Ni2 2.529241 1_555
Ni12 Ni5 2.529241 1_555
Ni13 Ni17 2.425093 1_555
Ni13 Ni15 2.425093 1_455
Ni13 Ni9 2.516110 1_555
Ni13 Ni8 2.516110 1_455
Ni13 Ni4 2.529241 1_555
Ni14 Ni16 2.425093 1_555
Ni14 Ni15 2.425093 1_565
Ni14 Ni6 2.516110 1_555
Ni14 Ni3 2.529241 1_555
Ni15 Ni4 2.516110 1_655
Ni15 Ni8 2.529241 1_555
Ni16 Ni3 2.516110 1_555
Ni16 Ni2 2.516110 1_655
Ni16 Ni6 2.529241 1_555
Ni17 Ni5 2.516110 1_545
Ni17 Ni7 2.529241 1_555
Ni17 Ni9 2.529241 1_555
Ni18 Ni23 2.425093 1_544
Ni18 Ni22 2.425093 1_654
Ni18 Ni4 2.516110 1_655
Ni18 Ni8 2.529241 1_554
Ni19 Ni23 2.425093 1_554
Ni19 Ni21 2.425093 1_654
Ni19 Ni3 2.516110 1_555
Ni19 Ni2 2.516110 1_655
Ni19 Ni6 2.529241 1_554
Ni20 Ni22 2.425093 1_554
Ni20 Ni21 2.425093 1_544
Ni20 Ni5 2.516110 1_545
Ni20 Ni7 2.529241 1_554
Ni20 Ni9 2.529241 1_554
Ni21 Ni7 2.516110 1_565
Ni21 Ni5 2.529241 1_556
Ni22 Ni9 2.516110 1_555
Ni22 Ni8 2.516110 1_455
Ni22 Ni4 2.529241 1_556
Ni23 Ni6 2.516110 1_555
Ni23 Ni3 2.529241 1_556
