# generated using pymatgen
data_Ba3SrCa2(WO6)2
_symmetry_space_group_name_H-M   'P 1'
_cell_length_a   5.98435900
_cell_length_b   6.01234375
_cell_length_c   10.37892276
_cell_angle_alpha   73.65523655
_cell_angle_beta   73.25046008
_cell_angle_gamma   60.15636267
_symmetry_Int_Tables_number   1
_chemical_formula_structural   Ba3SrCa2(WO6)2
_chemical_formula_sum   'Ba3 Sr1 Ca2 W2 O12'
_cell_volume   305.85788824
_cell_formula_units_Z   1
loop_
 _symmetry_equiv_pos_site_id
 _symmetry_equiv_pos_as_xyz
  1  'x, y, z'
loop_
 _atom_site_type_symbol
 _atom_site_label
 _atom_site_symmetry_multiplicity
 _atom_site_fract_x
 _atom_site_fract_y
 _atom_site_fract_z
 _atom_site_occupancy
  Ba  Ba0  1  0.62483600  0.62467000  0.12569100  1
  Ba  Ba1  1  0.12514700  0.12533600  0.62431500  1
  Ba  Ba2  1  0.37474700  0.37505500  0.87487800  1
  Sr  Sr0  1  0.87529400  0.87493500  0.37515900  1
  Ca  Ca0  1  0.99973500  0.99989600  0.00054600  1
  Ca  Ca1  1  0.50026000  0.50009600  0.49946900  1
  W  W0  1  0.75068100  0.75035500  0.74878400  1
  W  W1  1  0.24930000  0.24963800  0.25122200  1
  O  O0  1  0.13365200  0.59588900  0.13655500  1
  O  O1  1  0.63613400  0.09465200  0.63328000  1
  O  O2  1  0.86451800  0.40515600  0.86449900  1
  O  O3  1  0.36570800  0.90437000  0.36562700  1
  O  O4  1  0.30388400  0.38954400  0.38273700  1
  O  O5  1  0.81087200  0.88291900  0.88200700  1
  O  O6  1  0.18947100  0.11808600  0.11756000  1
  O  O7  1  0.69185100  0.62104900  0.61380800  1
  O  O8  1  0.88810400  0.33950200  0.34725100  1
  O  O9  1  0.38888300  0.84632700  0.84640000  1
  O  O10  1  0.61456500  0.14932200  0.15711900  1
  O  O11  1  0.11235700  0.65320300  0.65309300  1
loop_
_geom_bond_atom_site_label_1
_geom_bond_atom_site_label_2
_geom_bond_distance
_geom_bond_site_symmetry_2
Ba0 O6 2.808748 1_565
Ba0 O8 2.808985 1_555
Ba0 O10 2.813658 1_555
Ba0 O5 2.816782 1_554
Ba0 O3 2.994987 1_555
Ba0 O0 2.996132 1_655
Ba0 O0 2.997845 1_555
Ba0 O2 3.006095 1_554
Ba0 O4 3.229736 1_555
Ba0 O10 3.230314 1_565
Ba0 O6 3.230898 1_655
Ba0 O9 3.237988 1_554
Ba1 O4 2.803158 1_555
Ba1 O11 2.806908 1_545
Ba1 O9 2.811326 1_545
Ba1 O7 2.811894 1_455
Ba1 O3 2.987043 1_545
Ba1 O1 2.996230 1_455
Ba1 O2 2.997537 1_455
Ba1 O1 2.997748 1_555
Ba1 O8 3.223153 1_455
Ba1 O7 3.231883 1_545
Ba1 O11 3.232050 1_555
Ba1 O5 3.232594 1_445
Ba2 O11 2.804313 1_555
Ba2 O6 2.804563 1_556
Ba2 O5 2.806129 1_545
Ba2 O9 2.806375 1_555
Ba2 O2 2.994978 1_555
Ba2 O2 2.999366 1_455
Ba2 O1 3.011748 1_555
Ba2 O0 3.014172 1_556
Ba2 O5 3.231742 1_455
Ba2 O9 3.232130 1_545
Ba2 O7 3.271808 1_555
Ba2 O10 3.275622 1_556
Ca0 O0 2.306481 1_655
Ca0 O2 2.311983 1_564
Ca0 O6 2.313596 1_665
Ca0 O10 2.315745 1_565
Ca0 O5 2.316314 1_554
Ca0 O9 2.319335 1_654
Ca1 O3 2.298356 1_555
Ca1 O1 2.303235 1_555
Ca1 O8 2.308659 1_555
Ca1 O4 2.311282 1_555
Ca1 O11 2.311778 1_555
Ca1 O7 2.313331 1_555
O0 W1 1.968631 1_555
O0 Sr0 2.981264 1_455
O1 W0 1.963857 1_545
O1 Sr0 2.978386 1_545
O2 W0 1.968616 1_555
O3 W1 1.963319 1_565
O3 Sr0 2.994618 1_555
O3 Sr0 2.998993 1_455
O4 W1 1.963192 1_555
O4 Sr0 2.763820 1_455
O4 Sr0 3.274778 1_545
O5 W0 1.967219 1_555
O6 W1 1.965699 1_555
O6 Sr0 3.233990 1_445
O7 W0 1.964828 1_555
O7 Sr0 2.764571 1_555
O8 W1 1.963801 1_655
O8 Sr0 2.763393 1_545
O8 Sr0 3.274061 1_555
O9 W0 1.966848 1_555
O10 W1 1.970949 1_555
O10 Sr0 2.765756 1_545
O11 W0 1.959961 1_455
O11 Sr0 3.228480 1_455
