# generated using pymatgen
data_Li9Mn2Co5O16
_symmetry_space_group_name_H-M   'P 1'
_cell_length_a   3.01554500
_cell_length_b   7.78989100
_cell_length_c   12.50573728
_cell_angle_alpha   89.49890540
_cell_angle_beta   89.77268533
_cell_angle_gamma   82.15365428
_symmetry_Int_Tables_number   1
_chemical_formula_structural   Li9Mn2Co5O16
_chemical_formula_sum   'Li9 Mn2 Co5 O16'
_cell_volume   291.00674287
_cell_formula_units_Z   1
loop_
 _symmetry_equiv_pos_site_id
 _symmetry_equiv_pos_as_xyz
  1  'x, y, z'
loop_
 _atom_site_type_symbol
 _atom_site_label
 _atom_site_symmetry_multiplicity
 _atom_site_fract_x
 _atom_site_fract_y
 _atom_site_fract_z
 _atom_site_occupancy
  Li  Li0  1  0.18923500  0.62590800  0.06132000  1
  Li  Li1  1  0.94040000  0.11923800  0.31614400  1
  Li  Li2  1  0.68499200  0.62513600  0.55780300  1
  Li  Li3  1  0.81098900  0.37535200  0.94024800  1
  Li  Li4  1  0.56203600  0.87404000  0.19047600  1
  Li  Li5  1  0.31429800  0.37481000  0.44036900  1
  Li  Li6  1  0.44104100  0.12608600  0.80967600  1
  Li  Li7  1  0.05736100  0.87967800  0.68439700  1
  Li  Li8  1  0.50046800  0.99913900  0.49984000  1
  Mn  Mn0  1  0.99469200  0.99879400  0.00043900  1
  Mn  Mn1  1  0.25012600  0.49960900  0.74764900  1
  Co  Co0  1  0.74907100  0.50271300  0.25221100  1
  Co  Co1  1  0.62415000  0.74962800  0.87390900  1
  Co  Co2  1  0.36934400  0.25189900  0.12831100  1
  Co  Co3  1  0.12000800  0.76109100  0.37899800  1
  Co  Co4  1  0.88902800  0.23774600  0.61936900  1
  O  O0  1  0.62116700  0.81387000  0.02361300  1
  O  O1  1  0.33385300  0.31639700  0.27575000  1
  O  O2  1  0.10362000  0.80112200  0.51624800  1
  O  O3  1  0.25008500  0.56918200  0.89814900  1
  O  O4  1  0.94116200  0.07075100  0.14990600  1
  O  O5  1  0.74670000  0.57014800  0.39752600  1
  O  O6  1  0.87076700  0.31328100  0.76800200  1
  O  O7  1  0.49182500  0.07626500  0.65269900  1
  O  O8  1  0.79310200  0.43618900  0.10405700  1
  O  O9  1  0.51664000  0.92268800  0.34693100  1
  O  O10  1  0.26323400  0.42832300  0.59995300  1
  O  O11  1  0.36573000  0.18810100  0.97678000  1
  O  O12  1  0.17200100  0.68450700  0.23205200  1
  O  O13  1  0.89722000  0.19668700  0.48238200  1
  O  O14  1  0.00528300  0.92689700  0.85046200  1
  O  O15  1  0.63037200  0.68472600  0.72433000  1
loop_
_geom_bond_atom_site_label_1
_geom_bond_atom_site_label_2
_geom_bond_distance
_geom_bond_site_symmetry_2
Li0 O8 2.088040 1_455
Li0 O3 2.093690 1_554
Li0 O0 2.136949 1_555
Li0 O0 2.147148 1_455
Li0 O12 2.186217 1_555
Li0 O8 2.246089 1_555
Li1 O4 2.116146 1_555
Li1 O1 2.121542 1_655
Li1 O9 2.155330 1_545
Li1 O13 2.168233 1_555
Li1 O9 2.186461 1_645
Li1 O1 2.277338 1_555
Li2 O2 2.048889 1_655
Li2 O5 2.055712 1_555
Li2 O2 2.135781 1_555
Li2 O15 2.138436 1_555
Li2 O10 2.181489 1_555
Li2 O10 2.220852 1_655
Li3 O8 2.105515 1_556
Li3 O11 2.112584 1_655
Li3 O11 2.158122 1_555
Li3 O3 2.171133 1_555
Li3 O3 2.199259 1_655
Li3 O6 2.213057 1_555
Li4 O9 1.996812 1_555
Li4 O12 2.071097 1_555
Li4 O4 2.091107 1_565
Li4 O0 2.144139 1_555
Li4 O12 2.255260 1_655
Li4 O4 2.306848 1_465
Li5 O10 2.043270 1_555
Li5 O13 2.059542 1_455
Li5 O1 2.111113 1_555
Li5 O13 2.149407 1_555
Li5 O5 2.194095 1_455
Li5 O5 2.196515 1_555
Li6 O7 2.005642 1_555
Li6 O6 2.138827 1_555
Li6 O11 2.153133 1_555
Li6 O6 2.159745 1_455
Li6 O14 2.198885 1_645
Li6 O14 2.220828 1_545
Li7 O14 2.113745 1_555
Li7 O7 2.166187 1_465
Li7 O15 2.174663 1_455
Li7 O7 2.179872 1_565
Li7 O2 2.193784 1_555
Li7 O15 2.195127 1_555
Li8 O9 2.006231 1_555
Li8 O7 2.007818 1_565
Li8 O13 2.083743 1_565
Li8 O2 2.085702 1_555
Li8 O13 2.226647 1_465
Li8 O2 2.227343 1_655
Mn0 O4 1.955857 1_565
Mn0 O14 1.960991 1_654
Mn0 O0 1.964944 1_555
Mn0 O11 1.988559 1_664
Mn0 O0 2.232058 1_655
Mn0 O11 2.256703 1_564
Mn1 O10 1.932067 1_555
Mn1 O3 1.963135 1_555
Mn1 O15 1.980098 1_555
Mn1 O6 1.981118 1_455
Mn1 O15 2.217754 1_455
Mn1 O6 2.220350 1_555
Co0 O5 1.895797 1_555
Co0 O8 1.927435 1_555
Co0 O12 2.044490 1_655
Co0 O1 2.060758 1_555
Co0 O12 2.102775 1_555
Co0 O1 2.144926 1_655
Co1 O14 1.933237 1_655
Co1 O3 1.939824 1_555
Co1 O15 1.941331 1_555
Co1 O0 1.941783 1_556
Co1 O14 2.183871 1_555
Co1 O3 2.214320 1_655
Co2 O1 1.914046 1_555
Co2 O11 1.963740 1_554
Co2 O4 2.054130 1_455
Co2 O8 2.067864 1_555
Co2 O4 2.090509 1_555
Co2 O8 2.118476 1_455
Co3 O2 1.746493 1_555
Co3 O9 1.890627 1_555
Co3 O12 1.936199 1_555
Co3 O5 1.995611 1_455
Co3 O9 2.104180 1_455
Co3 O5 2.251109 1_555
Co4 O13 1.744934 1_555
Co4 O7 1.894475 1_555
Co4 O6 1.952879 1_555
Co4 O10 1.996297 1_655
Co4 O7 2.105440 1_655
Co4 O10 2.248669 1_555
