# generated using pymatgen
data_Eu(AlAu)2
_symmetry_space_group_name_H-M   'P 1'
_cell_length_a   4.43211094
_cell_length_b   4.43211094
_cell_length_c   10.48054643
_cell_angle_alpha   90.00000000
_cell_angle_beta   90.00000000
_cell_angle_gamma   90.00000000
_symmetry_Int_Tables_number   1
_chemical_formula_structural   Eu(AlAu)2
_chemical_formula_sum   'Eu2 Al4 Au4'
_cell_volume   205.87573925
_cell_formula_units_Z   2
loop_
 _symmetry_equiv_pos_site_id
 _symmetry_equiv_pos_as_xyz
  1  'x, y, z'
loop_
 _atom_site_type_symbol
 _atom_site_label
 _atom_site_symmetry_multiplicity
 _atom_site_fract_x
 _atom_site_fract_y
 _atom_site_fract_z
 _atom_site_occupancy
  Eu  Eu0  1  0.75000000  0.75000000  0.75090138  1
  Eu  Eu1  1  0.25000000  0.25000000  0.24909862  1
  Al  Al0  1  0.75000000  0.75000000  0.12819717  1
  Al  Al1  1  0.25000000  0.25000000  0.87180283  1
  Al  Al2  1  0.75000000  0.25000000  0.50000000  1
  Al  Al3  1  0.25000000  0.75000000  0.50000000  1
  Au  Au0  1  0.75000000  0.75000000  0.37001374  1
  Au  Au1  1  0.25000000  0.25000000  0.62998626  1
  Au  Au2  1  0.75000000  0.25000000  0.00000000  1
  Au  Au3  1  0.25000000  0.75000000  0.00000000  1
loop_
_geom_bond_atom_site_label_1
_geom_bond_atom_site_label_2
_geom_bond_distance
_geom_bond_site_symmetry_2
Al0 Au0 2.534370 1_555
Al0 Au3 2.591544 1_655
Al0 Au2 2.591544 1_555
Al0 Au3 2.591544 1_555
Al0 Au2 2.591544 1_565
Al0 Eu1 3.380441 1_665
Al0 Eu1 3.380441 1_565
Al0 Eu1 3.380441 1_555
Al0 Eu1 3.380441 1_655
Al1 Au1 2.534370 1_555
Al1 Au2 2.591544 1_556
Al1 Au3 2.591544 1_546
Al1 Au3 2.591544 1_556
Al1 Au2 2.591544 1_456
Al1 Eu0 3.380441 1_455
Al1 Eu0 3.380441 1_555
Al1 Eu0 3.380441 1_445
Al1 Eu0 3.380441 1_545
Al2 Au1 2.601314 1_555
Al2 Au1 2.601314 1_655
Al2 Au0 2.601314 1_545
Al2 Au0 2.601314 1_555
Al2 Eu1 3.438839 1_655
Al2 Eu0 3.438839 1_555
Al2 Eu0 3.438839 1_545
Al2 Eu1 3.438839 1_555
Al3 Au1 2.601314 1_555
Al3 Au1 2.601314 1_565
Al3 Au0 2.601314 1_455
Al3 Au0 2.601314 1_555
Al3 Eu1 3.438839 1_565
Al3 Eu0 3.438839 1_455
Al3 Eu0 3.438839 1_555
Al3 Eu1 3.438839 1_555
Au0 Eu1 3.380494 1_565
Au0 Eu1 3.380494 1_655
Au0 Eu1 3.380494 1_665
Au0 Eu1 3.380494 1_555
Au1 Eu0 3.380494 1_445
Au1 Eu0 3.380494 1_455
Au1 Eu0 3.380494 1_555
Au1 Eu0 3.380494 1_545
Au2 Eu1 3.424413 1_555
Au2 Eu1 3.424413 1_655
Au2 Eu0 3.424413 1_544
Au2 Eu0 3.424413 1_554
Au3 Eu1 3.424413 1_555
Au3 Eu1 3.424413 1_565
Au3 Eu0 3.424413 1_454
Au3 Eu0 3.424413 1_554
