# generated using pymatgen
data_CsMg6Al
_symmetry_space_group_name_H-M   'P 1'
_cell_length_a   5.16535800
_cell_length_b   7.29259700
_cell_length_c   11.88224800
_cell_angle_alpha   90.00000000
_cell_angle_beta   90.00000000
_cell_angle_gamma   90.00000000
_symmetry_Int_Tables_number   1
_chemical_formula_structural   CsMg6Al
_chemical_formula_sum   'Cs2 Mg12 Al2'
_cell_volume   447.59090578
_cell_formula_units_Z   2
loop_
 _symmetry_equiv_pos_site_id
 _symmetry_equiv_pos_as_xyz
  1  'x, y, z'
loop_
 _atom_site_type_symbol
 _atom_site_label
 _atom_site_symmetry_multiplicity
 _atom_site_fract_x
 _atom_site_fract_y
 _atom_site_fract_z
 _atom_site_occupancy
  Cs  Cs0  1  0.50000000  0.50000000  0.84005700  1
  Cs  Cs1  1  0.50000000  0.00000000  0.34005700  1
  Mg  Mg0  1  0.50000000  0.24224000  0.08277800  1
  Mg  Mg1  1  0.50000000  0.75776000  0.08277800  1
  Mg  Mg2  1  0.00000000  0.20636100  0.91366200  1
  Mg  Mg3  1  0.00000000  0.79363900  0.91366200  1
  Mg  Mg4  1  0.00000000  0.50000000  0.16528500  1
  Mg  Mg5  1  0.00000000  0.50000000  0.64065200  1
  Mg  Mg6  1  0.50000000  0.74224000  0.58277800  1
  Mg  Mg7  1  0.50000000  0.25776000  0.58277800  1
  Mg  Mg8  1  0.00000000  0.70636100  0.41366200  1
  Mg  Mg9  1  0.00000000  0.29363900  0.41366200  1
  Mg  Mg10  1  0.00000000  0.00000000  0.66528500  1
  Mg  Mg11  1  0.00000000  0.00000000  0.14065200  1
  Al  Al0  1  0.50000000  0.50000000  0.36112900  1
  Al  Al1  1  0.50000000  0.00000000  0.86112900  1
loop_
_geom_bond_atom_site_label_1
_geom_bond_atom_site_label_2
_geom_bond_distance
_geom_bond_site_symmetry_2
Cs0 Mg1 3.442570 1_556
Cs0 Mg0 3.442570 1_556
Cs0 Mg2 3.467088 1_555
Cs0 Mg3 3.467088 1_655
Cs0 Mg2 3.467088 1_655
Cs0 Mg3 3.467088 1_555
Cs0 Mg5 3.504881 1_555
Cs0 Mg5 3.504881 1_655
Cs0 Mg6 3.530765 1_555
Cs0 Mg7 3.530765 1_555
Cs1 Mg6 3.442570 1_545
Cs1 Mg7 3.442570 1_555
Cs1 Mg8 3.467088 1_545
Cs1 Mg9 3.467088 1_555
Cs1 Mg9 3.467088 1_655
Cs1 Mg8 3.467088 1_645
Cs1 Mg11 3.504881 1_655
Cs1 Mg11 3.504881 1_555
Cs1 Mg1 3.530765 1_545
Cs1 Mg0 3.530765 1_555
Mg0 Mg11 3.203725 1_655
Mg0 Mg11 3.203725 1_555
Mg0 Mg2 3.282788 1_554
Mg0 Mg2 3.282788 1_654
Mg0 Mg4 3.341373 1_655
Mg0 Mg4 3.341373 1_555
Mg1 Mg11 3.203725 1_565
Mg1 Mg11 3.203725 1_665
Mg1 Mg3 3.282788 1_554
Mg1 Mg3 3.282788 1_654
Mg1 Mg4 3.341373 1_655
Mg1 Mg4 3.341373 1_555
Mg2 Mg3 3.009815 1_545
Mg4 Mg8 3.312821 1_555
Mg4 Mg9 3.312821 1_555
Mg5 Mg9 3.088588 1_555
Mg5 Mg8 3.088588 1_555
Mg5 Mg7 3.203725 1_455
Mg5 Mg7 3.203725 1_555
Mg5 Mg6 3.203725 1_455
Mg5 Mg6 3.203725 1_555
Mg6 Mg8 3.282788 1_555
Mg6 Mg8 3.282788 1_655
Mg7 Mg9 3.282788 1_555
Mg7 Mg9 3.282788 1_655
Mg8 Mg9 3.009815 1_555
Mg10 Mg2 3.312821 1_555
Mg10 Mg3 3.312821 1_545
Mg10 Mg7 3.341373 1_555
Mg10 Mg6 3.341373 1_445
Mg10 Mg6 3.341373 1_545
Mg10 Mg7 3.341373 1_455
Mg11 Mg2 3.088588 1_554
Mg11 Mg3 3.088588 1_544
Al0 Mg9 3.053623 1_555
Al0 Mg9 3.053623 1_655
Al0 Mg8 3.053623 1_555
Al0 Mg8 3.053623 1_655
Al0 Mg7 3.171284 1_555
Al0 Mg6 3.171284 1_555
Al0 Cs1 3.654885 1_555
Al0 Cs1 3.654885 1_565
Al1 Mg3 3.053623 1_545
Al1 Mg2 3.053623 1_655
Al1 Mg2 3.053623 1_555
Al1 Mg3 3.053623 1_645
Al1 Mg0 3.171284 1_556
Al1 Mg1 3.171284 1_546
Al1 Cs0 3.654885 1_555
Al1 Cs0 3.654885 1_545
