# generated using pymatgen
data_Li9Mn2Co5O16
_symmetry_space_group_name_H-M   'P 1'
_cell_length_a   5.14063700
_cell_length_b   6.44982917
_cell_length_c   8.62336510
_cell_angle_alpha   96.80829099
_cell_angle_beta   94.30360512
_cell_angle_gamma   95.53339840
_symmetry_Int_Tables_number   1
_chemical_formula_structural   Li9Mn2Co5O16
_chemical_formula_sum   'Li9 Mn2 Co5 O16'
_cell_volume   281.49546427
_cell_formula_units_Z   1
loop_
 _symmetry_equiv_pos_site_id
 _symmetry_equiv_pos_as_xyz
  1  'x, y, z'
loop_
 _atom_site_type_symbol
 _atom_site_label
 _atom_site_symmetry_multiplicity
 _atom_site_fract_x
 _atom_site_fract_y
 _atom_site_fract_z
 _atom_site_occupancy
  Li  Li0  1  0.76082600  0.31272200  0.69397300  1
  Li  Li1  1  0.23917400  0.68727800  0.30602700  1
  Li  Li2  1  0.76744500  0.07114900  0.93915000  1
  Li  Li3  1  0.24025700  0.20145500  0.82069500  1
  Li  Li4  1  0.76032700  0.56517400  0.43675000  1
  Li  Li5  1  0.23255500  0.92885100  0.06085000  1
  Li  Li6  1  0.23967300  0.43482600  0.56325000  1
  Li  Li7  1  0.75974300  0.79854500  0.17930500  1
  Li  Li8  1  0.00000000  0.50000000  0.00000000  1
  Mn  Mn0  1  0.99982100  0.74693200  0.75321900  1
  Mn  Mn1  1  0.00017900  0.25306800  0.24678100  1
  Co  Co0  1  0.50070700  0.12355400  0.37607900  1
  Co  Co1  1  0.49929300  0.87644600  0.62392100  1
  Co  Co2  1  0.49764300  0.62098200  0.87768500  1
  Co  Co3  1  0.00000000  0.00000000  0.50000000  1
  Co  Co4  1  0.50235700  0.37901800  0.12231500  1
  O  O0  1  0.11934500  0.48544500  0.77594600  1
  O  O1  1  0.61146800  0.85831000  0.41696900  1
  O  O2  1  0.12098300  0.21906600  0.04724200  1
  O  O3  1  0.60252000  0.35527700  0.91395400  1
  O  O4  1  0.11449300  0.73536100  0.53924400  1
  O  O5  1  0.64286000  0.12091800  0.17234200  1
  O  O6  1  0.64346500  0.61960800  0.66977600  1
  O  O7  1  0.11232400  0.98056200  0.29128300  1
  O  O8  1  0.38853200  0.14169000  0.58303100  1
  O  O9  1  0.88065500  0.51455500  0.22405400  1
  O  O10  1  0.35714000  0.87908200  0.82765800  1
  O  O11  1  0.88767600  0.01943800  0.70871700  1
  O  O12  1  0.35653500  0.38039200  0.33022400  1
  O  O13  1  0.87901700  0.78093400  0.95275800  1
  O  O14  1  0.88550700  0.26463900  0.46075600  1
  O  O15  1  0.39748000  0.64472300  0.08604600  1
loop_
_geom_bond_atom_site_label_1
_geom_bond_atom_site_label_2
_geom_bond_distance
_geom_bond_site_symmetry_2
Li0 O11 2.074156 1_555
Li0 O0 2.087885 1_655
Li0 O3 2.118356 1_555
Li0 O6 2.152841 1_555
Li0 O14 2.153017 1_555
Li0 O8 2.205160 1_555
Li1 O7 2.074156 1_555
Li1 O9 2.087885 1_455
Li1 O15 2.118356 1_555
Li1 O12 2.152841 1_555
Li1 O4 2.153017 1_555
Li1 O1 2.205160 1_555
Li2 O13 2.023741 1_545
Li2 O2 2.069430 1_656
Li2 O3 2.119136 1_555
Li2 O11 2.123390 1_555
Li2 O5 2.153328 1_556
Li2 O10 2.411885 1_545
Li3 O0 2.059485 1_555
Li3 O3 2.080583 1_555
Li3 O2 2.084703 1_556
Li3 O11 2.157308 1_455
Li3 O10 2.225541 1_545
Li3 O8 2.243589 1_555
Li4 O9 1.980046 1_555
Li4 O4 2.108046 1_655
Li4 O1 2.127258 1_555
Li4 O14 2.128391 1_555
Li4 O6 2.139323 1_555
Li4 O12 2.355874 1_555
Li5 O2 2.023741 1_565
Li5 O13 2.069430 1_454
Li5 O15 2.119136 1_555
Li5 O7 2.123390 1_555
Li5 O10 2.153328 1_554
Li5 O5 2.411885 1_565
Li6 O0 1.980046 1_555
Li6 O14 2.108046 1_455
Li6 O8 2.127258 1_555
Li6 O4 2.128391 1_555
Li6 O12 2.139323 1_555
Li6 O6 2.355874 1_555
Li7 O9 2.059485 1_555
Li7 O15 2.080583 1_555
Li7 O13 2.084703 1_554
Li7 O7 2.157308 1_655
Li7 O5 2.225541 1_565
Li7 O1 2.243589 1_555
Li8 O13 2.047031 1_454
Li8 O2 2.047031 1_555
Li8 O0 2.064999 1_554
Li8 O9 2.064999 1_455
Li8 O15 2.199402 1_555
Li8 O3 2.199402 1_454
Mn0 O13 1.868614 1_555
Mn0 O0 1.876303 1_655
Mn0 O11 1.972552 1_565
Mn0 O4 1.974045 1_655
Mn0 O10 1.975838 1_655
Mn0 O6 1.979887 1_555
Mn1 O2 1.868614 1_555
Mn1 O9 1.876303 1_455
Mn1 O7 1.972552 1_545
Mn1 O14 1.974045 1_455
Mn1 O5 1.975838 1_455
Mn1 O12 1.979887 1_555
Co0 O8 1.910249 1_555
Co0 O1 1.917300 1_545
Co0 O12 1.948829 1_555
Co0 O5 1.951663 1_555
Co0 O14 2.133712 1_555
Co0 O7 2.153445 1_545
Co1 O1 1.910249 1_555
Co1 O8 1.917300 1_565
Co1 O6 1.948829 1_555
Co1 O10 1.951663 1_555
Co1 O4 2.133712 1_555
Co1 O11 2.153445 1_565
Co2 O3 1.898786 1_555
Co2 O15 1.898891 1_556
Co2 O10 1.958163 1_555
Co2 O6 1.993898 1_555
Co2 O0 2.133071 1_555
Co2 O13 2.141989 1_555
Co3 O4 1.917072 1_545
Co3 O14 1.917072 1_455
Co3 O7 1.924837 1_545
Co3 O11 1.924837 1_455
Co3 O8 2.148318 1_555
Co3 O1 2.148318 1_445
Co4 O15 1.898786 1_555
Co4 O3 1.898891 1_554
Co4 O5 1.958163 1_555
Co4 O12 1.993898 1_555
Co4 O9 2.133071 1_555
Co4 O2 2.141989 1_555
