# generated using pymatgen
data_InC4Br7N4
_symmetry_space_group_name_H-M   'P 1'
_cell_length_a   7.53532800
_cell_length_b   16.41249000
_cell_length_c   20.68085194
_cell_angle_alpha   51.50431530
_cell_angle_beta   90.00000000
_cell_angle_gamma   90.00000000
_symmetry_Int_Tables_number   1
_chemical_formula_structural   InC4Br7N4
_chemical_formula_sum   'In4 C16 Br28 N16'
_cell_volume   2001.77585812
_cell_formula_units_Z   4
loop_
 _symmetry_equiv_pos_site_id
 _symmetry_equiv_pos_as_xyz
  1  'x, y, z'
loop_
 _atom_site_type_symbol
 _atom_site_label
 _atom_site_symmetry_multiplicity
 _atom_site_fract_x
 _atom_site_fract_y
 _atom_site_fract_z
 _atom_site_occupancy
  In  In0  1  0.00000000  0.00000000  0.50000000  1
  In  In1  1  0.00000000  0.00000000  0.00000000  1
  In  In2  1  0.00000000  0.50000000  0.00000000  1
  In  In3  1  0.00000000  0.50000000  0.50000000  1
  C  C0  1  0.51921300  0.32951300  0.97033100  1
  C  C1  1  0.51921300  0.67048700  0.52966900  1
  C  C2  1  0.48078700  0.67048700  0.02966900  1
  C  C3  1  0.48078700  0.32951300  0.47033100  1
  C  C4  1  0.49439400  0.82663100  0.19773100  1
  C  C5  1  0.49439400  0.17336900  0.30226900  1
  C  C6  1  0.50560600  0.17336900  0.80226900  1
  C  C7  1  0.50560600  0.82663100  0.69773100  1
  C  C8  1  0.90122500  0.14176500  0.64241200  1
  C  C9  1  0.90122500  0.85823500  0.85758800  1
  C  C10  1  0.09877500  0.85823500  0.35758800  1
  C  C11  1  0.09877500  0.14176500  0.14241200  1
  C  C12  1  0.90390500  0.36429100  0.78058900  1
  C  C13  1  0.90390500  0.63570900  0.71941100  1
  C  C14  1  0.09609500  0.63570900  0.21941100  1
  C  C15  1  0.09609500  0.36429100  0.28058900  1
  Br  Br0  1  0.75504300  0.13512000  0.47350800  1
  Br  Br1  1  0.75504300  0.86488000  0.02649200  1
  Br  Br2  1  0.24495700  0.86488000  0.52649200  1
  Br  Br3  1  0.24495700  0.13512000  0.97350800  1
  Br  Br4  1  0.25403000  0.12616900  0.48303200  1
  Br  Br5  1  0.25403000  0.87383100  0.01696800  1
  Br  Br6  1  0.74597000  0.87383100  0.51696800  1
  Br  Br7  1  0.74597000  0.12616900  0.98303200  1
  Br  Br8  1  0.22866500  0.64132300  0.88508200  1
  Br  Br9  1  0.22866500  0.35867700  0.61491800  1
  Br  Br10  1  0.77133500  0.35867700  0.11491800  1
  Br  Br11  1  0.77133500  0.64132300  0.38508200  1
  Br  Br12  1  0.61363000  0.00000000  0.25000000  1
  Br  Br13  1  0.38637000  0.00000000  0.75000000  1
  Br  Br14  1  0.98977300  0.90416300  0.66232100  1
  Br  Br15  1  0.98977300  0.09583700  0.83767900  1
  Br  Br16  1  0.01022700  0.09583700  0.33767900  1
  Br  Br17  1  0.01022700  0.90416300  0.16232100  1
  Br  Br18  1  0.98699100  0.59942300  0.06448000  1
  Br  Br19  1  0.98699100  0.40057700  0.43552000  1
  Br  Br20  1  0.01300900  0.40057700  0.93552000  1
  Br  Br21  1  0.01300900  0.59942300  0.56448000  1
  Br  Br22  1  0.73417200  0.61711900  0.89727800  1
  Br  Br23  1  0.73417200  0.38288100  0.60272200  1
  Br  Br24  1  0.26582800  0.38288100  0.10272200  1
  Br  Br25  1  0.26582800  0.61711900  0.39727800  1
  Br  Br26  1  0.61354900  0.50000000  0.25000000  1
  Br  Br27  1  0.38645100  0.50000000  0.75000000  1
  N  N0  1  0.50160100  0.91771000  0.14464200  1
  N  N1  1  0.50160100  0.08229000  0.35535800  1
  N  N2  1  0.49839900  0.08229000  0.85535800  1
  N  N3  1  0.49839900  0.91771000  0.64464200  1
  N  N4  1  0.47937400  0.41659800  0.93906900  1
  N  N5  1  0.47937400  0.58340200  0.56093100  1
  N  N6  1  0.52062600  0.58340200  0.06093100  1
  N  N7  1  0.52062600  0.41659800  0.43906900  1
  N  N8  1  0.04843000  0.15592300  0.61798800  1
  N  N9  1  0.04843000  0.84407700  0.88201200  1
  N  N10  1  0.95157000  0.84407700  0.38201200  1
  N  N11  1  0.95157000  0.15592300  0.11798800  1
  N  N12  1  0.05166400  0.34214400  0.77826900  1
  N  N13  1  0.05166400  0.65785600  0.72173100  1
  N  N14  1  0.94833600  0.65785600  0.22173100  1
  N  N15  1  0.94833600  0.34214400  0.27826900  1
loop_
_geom_bond_atom_site_label_1
_geom_bond_atom_site_label_2
_geom_bond_distance
_geom_bond_site_symmetry_2
C0 N4 1.183461 1_555
C1 N5 1.183461 1_555
C2 N6 1.183461 1_555
C3 N7 1.183461 1_555
C4 N0 1.183110 1_555
C5 N1 1.183110 1_555
C6 N2 1.183110 1_555
C7 N3 1.183110 1_555
C8 N8 1.180433 1_655
C9 N9 1.180433 1_655
C10 N10 1.180433 1_455
C11 N11 1.180433 1_455
C12 N12 1.181450 1_655
C13 N13 1.181450 1_655
C14 N14 1.181450 1_455
C15 N15 1.181450 1_455
Br0 In0 2.666962 1_655
Br1 In1 2.666962 1_665
Br2 In0 2.666962 1_565
Br3 In1 2.666962 1_556
Br4 In0 2.677812 1_555
Br5 In1 2.677812 1_565
Br6 In0 2.677812 1_665
Br7 In1 2.677812 1_656
Br8 In2 2.671067 1_556
Br9 In3 2.671067 1_555
Br10 In2 2.671067 1_655
Br11 In3 2.671067 1_655
Br14 In0 2.678743 1_665
Br15 In1 2.678743 1_656
Br16 In0 2.678743 1_555
Br17 In1 2.678743 1_565
Br18 In2 2.675713 1_655
Br19 In3 2.675713 1_655
Br20 In2 2.675713 1_556
Br21 In3 2.675713 1_555
Br22 In2 2.671460 1_656
Br23 In3 2.671460 1_655
Br24 In2 2.671460 1_555
Br25 In3 2.671460 1_555
