# generated using pymatgen
data_Na2Mn3(PO4)3
_symmetry_space_group_name_H-M   'P 1'
_cell_length_a   8.79070344
_cell_length_b   8.79070344
_cell_length_c   6.74999562
_cell_angle_alpha   72.77931208
_cell_angle_beta   72.77931208
_cell_angle_gamma   92.68284704
_symmetry_Int_Tables_number   1
_chemical_formula_structural   Na2Mn3(PO4)3
_chemical_formula_sum   'Na4 Mn6 P6 O24'
_cell_volume   470.70134464
_cell_formula_units_Z   2
loop_
 _symmetry_equiv_pos_site_id
 _symmetry_equiv_pos_as_xyz
  1  'x, y, z'
loop_
 _atom_site_type_symbol
 _atom_site_label
 _atom_site_symmetry_multiplicity
 _atom_site_fract_x
 _atom_site_fract_y
 _atom_site_fract_z
 _atom_site_occupancy
  Na  Na0  1  0.98570200  0.01429800  0.25000000  1
  Na  Na1  1  0.01429800  0.98570200  0.75000000  1
  Na  Na2  1  0.50000000  0.50000000  0.00000000  1
  Na  Na3  1  0.50000000  0.50000000  0.50000000  1
  Mn  Mn0  1  0.26851900  0.73148100  0.25000000  1
  Mn  Mn1  1  0.73148100  0.26851900  0.75000000  1
  Mn  Mn2  1  0.38105200  0.06271000  0.36413700  1
  Mn  Mn3  1  0.61894800  0.93729000  0.63586300  1
  Mn  Mn4  1  0.93729000  0.61894800  0.13586300  1
  Mn  Mn5  1  0.06271000  0.38105200  0.86413700  1
  P  P0  1  0.65675200  0.87511300  0.12468200  1
  P  P1  1  0.34324800  0.12488700  0.87531800  1
  P  P2  1  0.12488700  0.34324800  0.37531800  1
  P  P3  1  0.87511300  0.65675200  0.62468200  1
  P  P4  1  0.71645500  0.28354500  0.25000000  1
  P  P5  1  0.28354500  0.71645500  0.75000000  1
  O  O0  1  0.54085800  0.26325100  0.24641000  1
  O  O1  1  0.45914200  0.73674900  0.75359000  1
  O  O2  1  0.73674900  0.45914200  0.25359000  1
  O  O3  1  0.26325100  0.54085800  0.74641000  1
  O  O4  1  0.59926300  0.95342300  0.31023100  1
  O  O5  1  0.40073700  0.04657700  0.68976900  1
  O  O6  1  0.04657700  0.40073700  0.18976900  1
  O  O7  1  0.95342300  0.59926300  0.81023100  1
  O  O8  1  0.32352700  0.99636200  0.10211800  1
  O  O9  1  0.67647300  0.00363800  0.89788200  1
  O  O10  1  0.00363800  0.67647300  0.39788200  1
  O  O11  1  0.99636200  0.32352700  0.60211800  1
  O  O12  1  0.74414900  0.17005400  0.45937300  1
  O  O13  1  0.25585100  0.82994600  0.54062700  1
  O  O14  1  0.82994600  0.25585100  0.04062700  1
  O  O15  1  0.17005400  0.74414900  0.95937300  1
  O  O16  1  0.53125600  0.72845400  0.17406800  1
  O  O17  1  0.46874400  0.27154600  0.82593200  1
  O  O18  1  0.27154600  0.46874400  0.32593200  1
  O  O19  1  0.72845400  0.53125600  0.67406800  1
  O  O20  1  0.82753400  0.82934900  0.11569000  1
  O  O21  1  0.17246600  0.17065100  0.88431000  1
  O  O22  1  0.17065100  0.17246600  0.38431000  1
  O  O23  1  0.82934900  0.82753400  0.61569000  1
loop_
_geom_bond_atom_site_label_1
_geom_bond_atom_site_label_2
_geom_bond_distance
_geom_bond_site_symmetry_2
Na0 O23 2.461292 1_545
Na0 O21 2.461292 1_654
Na0 O22 2.608824 1_655
Na0 O20 2.608824 1_545
Na0 O12 2.832315 1_555
Na0 O14 2.832315 1_555
Na0 O8 2.867455 1_645
Na0 O10 2.867455 1_645
Na1 O22 2.461292 1_565
Na1 O20 2.461292 1_456
Na1 O21 2.608824 1_565
Na1 O23 2.608824 1_455
Na1 O15 2.832315 1_555
Na1 O13 2.832315 1_555
Na1 O11 2.867455 1_465
Na1 O9 2.867455 1_465
Na2 O0 2.366620 1_555
Na2 O1 2.366620 1_554
Na2 O18 2.433754 1_555
Na2 O19 2.433754 1_554
Na2 O16 2.650627 1_555
Na2 O17 2.650627 1_554
Na3 O3 2.366620 1_555
Na3 O2 2.366620 1_555
Na3 O17 2.433754 1_555
Na3 O16 2.433754 1_555
Na3 O18 2.650627 1_555
Na3 O19 2.650627 1_555
Mn0 O8 2.210127 1_555
Mn0 O10 2.210127 1_555
Mn0 O16 2.216023 1_555
Mn0 O18 2.216023 1_555
Mn0 O13 2.344162 1_555
Mn0 O15 2.344162 1_554
Mn1 O11 2.210127 1_555
Mn1 O9 2.210127 1_555
Mn1 O19 2.216023 1_555
Mn1 O17 2.216023 1_555
Mn1 O14 2.344162 1_556
Mn1 O12 2.344162 1_555
Mn2 O0 1.997612 1_555
Mn2 O13 2.094475 1_545
Mn2 O22 2.113312 1_555
Mn2 O4 2.168222 1_545
Mn2 O8 2.199243 1_545
Mn2 O5 2.219067 1_555
Mn3 O1 1.997612 1_555
Mn3 O12 2.094475 1_565
Mn3 O23 2.113312 1_555
Mn3 O5 2.168222 1_565
Mn3 O9 2.199243 1_565
Mn3 O4 2.219067 1_555
Mn4 O2 1.997612 1_555
Mn4 O15 2.094475 1_654
Mn4 O20 2.113312 1_555
Mn4 O6 2.168222 1_655
Mn4 O10 2.199243 1_655
Mn4 O7 2.219067 1_554
Mn5 O3 1.997612 1_555
Mn5 O14 2.094475 1_456
Mn5 O21 2.113312 1_555
Mn5 O7 2.168222 1_455
Mn5 O11 2.199243 1_455
Mn5 O6 2.219067 1_556
O0 P4 1.553740 1_555
O1 P5 1.553740 1_555
O2 P4 1.553740 1_555
O3 P5 1.553740 1_555
O4 P0 1.570426 1_555
O5 P1 1.570426 1_555
O6 P2 1.570426 1_555
O7 P3 1.570426 1_555
O8 P1 1.565438 1_564
O9 P0 1.565438 1_546
O10 P3 1.565438 1_455
O11 P2 1.565438 1_655
O12 P4 1.563181 1_555
O13 P5 1.563181 1_555
O14 P4 1.563181 1_555
O15 P5 1.563181 1_555
O16 P0 1.544322 1_555
O17 P1 1.544322 1_555
O18 P2 1.544322 1_555
O19 P3 1.544322 1_555
O20 P0 1.560915 1_555
O21 P1 1.560915 1_555
O22 P2 1.560915 1_555
O23 P3 1.560915 1_555
