# generated using pymatgen
data_Cs2MnNiF6
_symmetry_space_group_name_H-M   'P 1'
_cell_length_a   10.78681103
_cell_length_b   10.78681103
_cell_length_c   10.78681058
_cell_angle_alpha   33.92159481
_cell_angle_beta   33.92159481
_cell_angle_gamma   33.92159932
_symmetry_Int_Tables_number   1
_chemical_formula_structural   Cs2MnNiF6
_chemical_formula_sum   'Cs4 Mn2 Ni2 F12'
_cell_volume   348.37111752
_cell_formula_units_Z   2
loop_
 _symmetry_equiv_pos_site_id
 _symmetry_equiv_pos_as_xyz
  1  'x, y, z'
loop_
 _atom_site_type_symbol
 _atom_site_label
 _atom_site_symmetry_multiplicity
 _atom_site_fract_x
 _atom_site_fract_y
 _atom_site_fract_z
 _atom_site_occupancy
  Cs  Cs0  1  0.86715100  0.86715100  0.86715100  1
  Cs  Cs1  1  0.13161300  0.13161300  0.13161300  1
  Cs  Cs2  1  0.71486600  0.71486600  0.71486600  1
  Cs  Cs3  1  0.28685000  0.28685000  0.28685000  1
  Mn  Mn0  1  0.00185000  0.00185000  0.00185000  1
  Mn  Mn1  1  0.59282200  0.59282200  0.59282200  1
  Ni  Ni0  1  0.49928700  0.49928700  0.49928700  1
  Ni  Ni1  1  0.40900200  0.40900200  0.40900200  1
  F  F0  1  0.39860600  0.82881300  0.39860600  1
  F  F1  1  0.39860600  0.39860600  0.82881300  1
  F  F2  1  0.82881300  0.39860600  0.39860600  1
  F  F3  1  0.59575700  0.17401900  0.59575700  1
  F  F4  1  0.59575700  0.59575700  0.17401900  1
  F  F5  1  0.17401900  0.59575700  0.59575700  1
  F  F6  1  0.21186400  0.69835400  0.21186400  1
  F  F7  1  0.21186400  0.21186400  0.69835300  1
  F  F8  1  0.69835300  0.21186400  0.21186400  1
  F  F9  1  0.79706500  0.28879000  0.79706500  1
  F  F10  1  0.79706500  0.79706500  0.28879000  1
  F  F11  1  0.28879000  0.79706500  0.79706500  1
loop_
_geom_bond_atom_site_label_1
_geom_bond_atom_site_label_2
_geom_bond_distance
_geom_bond_site_symmetry_2
Cs0 F2 3.166751 1_556
Cs0 F0 3.166751 1_556
Cs0 F0 3.166751 1_655
Cs0 F2 3.166751 1_565
Cs0 F1 3.166751 1_655
Cs0 F1 3.166751 1_565
Cs0 F4 3.186846 1_556
Cs0 F3 3.186846 1_565
Cs0 F5 3.186846 1_655
Cs0 F10 3.371111 1_556
Cs0 F9 3.371111 1_565
Cs0 F11 3.371111 1_655
Cs1 F1 3.130419 1_554
Cs1 F0 3.130419 1_545
Cs1 F2 3.130419 1_455
Cs1 F5 3.173511 1_554
Cs1 F3 3.173511 1_554
Cs1 F3 3.173511 1_455
Cs1 F5 3.173511 1_545
Cs1 F4 3.173512 1_455
Cs1 F4 3.173512 1_545
Cs1 F6 3.339993 1_545
Cs1 F7 3.340004 1_554
Cs1 F8 3.340004 1_455
Cs2 F4 3.074054 1_556
Cs2 F3 3.074054 1_565
Cs2 F5 3.074054 1_655
Cs2 F6 3.155380 1_655
Cs2 F6 3.155380 1_556
Cs2 F8 3.155381 1_565
Cs2 F8 3.155381 1_556
Cs2 F7 3.155381 1_565
Cs2 F7 3.155381 1_655
Cs2 F10 3.236381 1_555
Cs2 F11 3.236382 1_555
Cs2 F9 3.236382 1_555
Cs3 F9 3.155034 1_455
Cs3 F11 3.155034 1_545
Cs3 F11 3.155034 1_554
Cs3 F9 3.155034 1_554
Cs3 F10 3.155035 1_455
Cs3 F10 3.155035 1_545
Cs3 F1 3.155935 1_554
Cs3 F2 3.155936 1_455
Cs3 F0 3.155936 1_545
Cs3 F7 3.190629 1_555
Cs3 F8 3.190629 1_555
Cs3 F6 3.190640 1_555
F0 Ni0 2.034170 1_555
F0 Mn1 2.200125 1_555
F1 Ni0 2.034170 1_555
F1 Mn1 2.200125 1_555
F2 Ni0 2.034170 1_555
F2 Mn1 2.200125 1_555
F3 Ni0 2.038254 1_555
F3 Ni1 2.080307 1_555
F4 Ni0 2.038254 1_555
F4 Ni1 2.080307 1_555
F5 Ni0 2.038254 1_555
F5 Ni1 2.080307 1_555
F6 Ni1 2.064034 1_555
F6 Mn0 2.209555 1_565
F7 Ni1 2.064036 1_555
F7 Mn0 2.209552 1_556
F8 Ni1 2.064036 1_555
F8 Mn0 2.209553 1_655
F9 Mn1 2.129834 1_555
F9 Mn0 2.177947 1_656
F10 Mn1 2.129833 1_555
F10 Mn0 2.177947 1_665
F11 Mn1 2.129834 1_555
F11 Mn0 2.177947 1_566
