# generated using pymatgen
data_Ca2MnGaO5
_symmetry_space_group_name_H-M   'P 1'
_cell_length_a   5.37513370
_cell_length_b   5.61743900
_cell_length_c   8.44171964
_cell_angle_alpha   109.41055999
_cell_angle_beta   108.54649186
_cell_angle_gamma   90.29094591
_symmetry_Int_Tables_number   1
_chemical_formula_structural   Ca2MnGaO5
_chemical_formula_sum   'Ca4 Mn2 Ga2 O10'
_cell_volume   226.16427569
_cell_formula_units_Z   2
loop_
 _symmetry_equiv_pos_site_id
 _symmetry_equiv_pos_as_xyz
  1  'x, y, z'
loop_
 _atom_site_type_symbol
 _atom_site_label
 _atom_site_symmetry_multiplicity
 _atom_site_fract_x
 _atom_site_fract_y
 _atom_site_fract_z
 _atom_site_occupancy
  Ca  Ca0  1  0.61030100  0.13848200  0.21866400  1
  Ca  Ca1  1  0.39248300  0.86143900  0.78074800  1
  Ca  Ca2  1  0.10671200  0.58235300  0.21778800  1
  Ca  Ca3  1  0.88821800  0.41810700  0.78257900  1
  Mn  Mn0  1  0.98669500  0.00055600  0.99981400  1
  Mn  Mn1  1  0.48476400  0.49979400  0.99993500  1
  Ga  Ga0  1  0.28099200  0.18512200  0.50466400  1
  Ga  Ga1  1  0.77597700  0.81547200  0.49519100  1
  O  O0  1  0.63143900  0.12731100  0.49929400  1
  O  O1  1  0.13213100  0.87270200  0.50050500  1
  O  O2  1  0.31642800  0.42914100  0.72401700  1
  O  O3  1  0.59154500  0.57066200  0.27674600  1
  O  O4  1  0.79560400  0.76961600  0.70275600  1
  O  O5  1  0.08816400  0.22963200  0.29748700  1
  O  O6  1  0.25104400  0.77514700  0.03309700  1
  O  O7  1  0.22788700  0.23668900  0.97310600  1
  O  O8  1  0.72392700  0.23255900  0.96604000  1
  O  O9  1  0.74769000  0.75522000  0.02757400  1
loop_
_geom_bond_atom_site_label_1
_geom_bond_atom_site_label_2
_geom_bond_distance
_geom_bond_site_symmetry_2
Ca0 O3 2.321046 1_555
Ca0 O0 2.357257 1_555
Ca0 O5 2.444473 1_655
Ca0 O9 2.499664 1_545
Ca0 O6 2.501827 1_545
Ca0 O8 2.602804 1_554
Ca0 O7 2.624422 1_554
Ca1 O2 2.320778 1_555
Ca1 O1 2.356565 1_555
Ca1 O8 2.447217 1_565
Ca1 O4 2.467356 1_555
Ca1 O7 2.553572 1_565
Ca1 O9 2.578779 1_556
Ca1 O6 2.657788 1_556
Ca2 O5 2.305475 1_555
Ca2 O1 2.361742 1_555
Ca2 O6 2.467558 1_555
Ca2 O3 2.498366 1_555
Ca2 O9 2.515877 1_455
Ca2 O7 2.581456 1_554
Ca2 O8 2.648122 1_454
Ca2 O3 2.969261 1_455
Ca3 O4 2.298221 1_555
Ca3 O0 2.360756 1_555
Ca3 O8 2.489662 1_555
Ca3 O7 2.489813 1_655
Ca3 O2 2.507742 1_655
Ca3 O6 2.610706 1_656
Ca3 O9 2.615186 1_556
Ca3 O2 2.958049 1_555
Mn0 O6 1.924063 1_646
Mn0 O8 1.945299 1_555
Mn0 O7 1.964268 1_655
Mn0 O9 1.998212 1_546
Mn0 O4 2.282993 1_545
Mn0 O5 2.289022 1_656
Mn1 O9 1.912495 1_556
Mn1 O7 1.923545 1_555
Mn1 O8 1.988993 1_555
Mn1 O6 2.001193 1_556
Mn1 O2 2.107772 1_555
Mn1 O3 2.115306 1_556
Ga0 O5 1.826384 1_555
Ga0 O2 1.852024 1_555
Ga0 O1 1.910081 1_545
Ga0 O0 1.925251 1_555
Ga1 O4 1.824936 1_555
Ga1 O3 1.847195 1_555
Ga1 O0 1.914153 1_565
Ga1 O1 1.923469 1_655
