# generated using pymatgen
data_VH12C6NO4
_symmetry_space_group_name_H-M   'P 1'
_cell_length_a   7.55686668
_cell_length_b   7.88762500
_cell_length_c   8.49518452
_cell_angle_alpha   90.00000000
_cell_angle_beta   91.98039584
_cell_angle_gamma   90.00000000
_symmetry_Int_Tables_number   1
_chemical_formula_structural   VH12C6NO4
_chemical_formula_sum   'V2 H24 C12 N2 O8'
_cell_volume   506.05923456
_cell_formula_units_Z   2
loop_
 _symmetry_equiv_pos_site_id
 _symmetry_equiv_pos_as_xyz
  1  'x, y, z'
loop_
 _atom_site_type_symbol
 _atom_site_label
 _atom_site_symmetry_multiplicity
 _atom_site_fract_x
 _atom_site_fract_y
 _atom_site_fract_z
 _atom_site_occupancy
  V  V0  1  0.29760700  0.80569300  0.74654000  1
  V  V1  1  0.70239300  0.30569300  0.25346000  1
  H  H0  1  0.73816100  0.60010800  0.83196900  1
  H  H1  1  0.26183900  0.10010800  0.16803100  1
  H  H2  1  0.65988900  0.59172800  0.63161900  1
  H  H3  1  0.34011100  0.09172800  0.36838100  1
  H  H4  1  0.53765100  0.33869300  0.75118600  1
  H  H5  1  0.46234900  0.83869300  0.24881400  1
  H  H6  1  0.49023000  0.44976200  0.92673100  1
  H  H7  1  0.50977000  0.94976200  0.07326900  1
  H  H8  1  0.16009900  0.58749700  0.36863900  1
  H  H9  1  0.83990100  0.08749700  0.63136100  1
  H  H10  1  0.01419200  0.56568300  0.52668000  1
  H  H11  1  0.98580800  0.06568300  0.47332000  1
  H  H12  1  0.40524500  0.46411200  0.51233800  1
  H  H13  1  0.59475500  0.96411200  0.48766200  1
  H  H14  1  0.22460300  0.33064800  0.55844200  1
  H  H15  1  0.77539700  0.83064800  0.44155800  1
  H  H16  1  0.02734200  0.56083800  0.03211100  1
  H  H17  1  0.97265800  0.06083800  0.96788900  1
  H  H18  1  0.26138700  0.56012900  0.06656900  1
  H  H19  1  0.73861300  0.06012900  0.93343100  1
  H  H20  1  0.19882800  0.31901100  0.89035800  1
  H  H21  1  0.80117200  0.81901100  0.10964200  1
  H  H22  1  0.04751200  0.44159800  0.77317400  1
  H  H23  1  0.95248800  0.94159800  0.22682600  1
  C  C0  1  0.61813000  0.60438300  0.75438100  1
  C  C1  1  0.38187000  0.10438300  0.24561900  1
  C  C2  1  0.49274500  0.46124500  0.79807500  1
  C  C3  1  0.50725500  0.96124500  0.20192500  1
  C  C4  1  0.15295100  0.59130300  0.49797000  1
  C  C5  1  0.84704900  0.09130300  0.50203000  1
  C  C6  1  0.27862300  0.45997400  0.57183300  1
  C  C7  1  0.72137700  0.95997400  0.42816700  1
  C  C8  1  0.15524500  0.57679900  0.97522400  1
  C  C9  1  0.84475500  0.07679900  0.02477600  1
  C  C10  1  0.17217300  0.44712400  0.84340100  1
  C  C11  1  0.82782700  0.94712400  0.15659900  1
  N  N0  1  0.31249800  0.50342100  0.73886200  1
  N  N1  1  0.68750200  0.00342100  0.26113800  1
  O  O0  1  0.53595100  0.76541500  0.77262900  1
  O  O1  1  0.46404900  0.26541500  0.22737100  1
  O  O2  1  0.20004300  0.75747400  0.55087800  1
  O  O3  1  0.79995700  0.25747400  0.44912200  1
  O  O4  1  0.16483600  0.74502600  0.91397000  1
  O  O5  1  0.83516400  0.24502600  0.08603000  1
  O  O6  1  0.28917500  0.01370500  0.75104500  1
  O  O7  1  0.71082500  0.51370500  0.24895500  1
loop_
_geom_bond_atom_site_label_1
_geom_bond_atom_site_label_2
_geom_bond_distance
_geom_bond_site_symmetry_2
C0 H0 1.103184 1_555
C0 H2 1.104492 1_555
C0 O0 1.424659 1_555
C1 H1 1.103184 1_555
C1 H3 1.104492 1_555
C1 O1 1.424659 1_555
C2 H6 1.097522 1_555
C2 H4 1.103435 1_555
C2 N0 1.473659 1_555
C3 H7 1.097522 1_555
C3 H5 1.103435 1_555
C3 N1 1.473659 1_565
C4 H8 1.102289 1_555
C4 H10 1.103415 1_555
C4 O2 1.426718 1_555
C5 H9 1.102289 1_555
C5 H11 1.103415 1_555
C5 O3 1.426718 1_555
C6 H12 1.097968 1_555
C6 H14 1.103145 1_555
C6 N0 1.473520 1_555
C7 H13 1.097968 1_555
C7 H15 1.103145 1_555
C7 N1 1.473520 1_565
C8 H16 1.102674 1_556
C8 H18 1.104446 1_556
C8 O4 1.428052 1_555
C9 H17 1.102674 1_554
C9 H19 1.104446 1_554
C9 O5 1.428052 1_555
C10 H22 1.098376 1_555
C10 H20 1.102394 1_555
C10 N0 1.474936 1_555
C11 H23 1.098376 1_555
C11 H21 1.102394 1_555
C11 N1 1.474936 1_565
O0 V0 1.834815 1_555
O1 V1 1.834815 1_555
O2 V0 1.834773 1_555
O3 V1 1.834773 1_555
O4 V0 1.832312 1_555
O5 V1 1.832312 1_555
O6 V0 1.642455 1_545
O7 V1 1.642455 1_555
