# generated using pymatgen
data_LaMg6Cu
_symmetry_space_group_name_H-M   'P 1'
_cell_length_a   4.95418100
_cell_length_b   5.98538800
_cell_length_c   12.92518500
_cell_angle_alpha   90.00000000
_cell_angle_beta   90.00000000
_cell_angle_gamma   90.00000000
_symmetry_Int_Tables_number   1
_chemical_formula_structural   LaMg6Cu
_chemical_formula_sum   'La2 Mg12 Cu2'
_cell_volume   383.26657518
_cell_formula_units_Z   2
loop_
 _symmetry_equiv_pos_site_id
 _symmetry_equiv_pos_as_xyz
  1  'x, y, z'
loop_
 _atom_site_type_symbol
 _atom_site_label
 _atom_site_symmetry_multiplicity
 _atom_site_fract_x
 _atom_site_fract_y
 _atom_site_fract_z
 _atom_site_occupancy
  La  La0  1  0.50000000  0.50000000  0.19808200  1
  La  La1  1  0.50000000  0.00000000  0.69808200  1
  Mg  Mg0  1  0.50000000  0.24747400  0.43889700  1
  Mg  Mg1  1  0.50000000  0.75252600  0.43889700  1
  Mg  Mg2  1  0.00000000  0.75357600  0.07550800  1
  Mg  Mg3  1  0.00000000  0.24642400  0.07550800  1
  Mg  Mg4  1  0.00000000  0.00000000  0.29386000  1
  Mg  Mg5  1  0.00000000  0.50000000  0.35760800  1
  Mg  Mg6  1  0.50000000  0.74747400  0.93889700  1
  Mg  Mg7  1  0.50000000  0.25252600  0.93889700  1
  Mg  Mg8  1  0.00000000  0.25357600  0.57550800  1
  Mg  Mg9  1  0.00000000  0.74642400  0.57550800  1
  Mg  Mg10  1  0.00000000  0.50000000  0.79386000  1
  Mg  Mg11  1  0.00000000  0.00000000  0.85760800  1
  Cu  Cu0  1  0.50000000  0.00000000  0.12163600  1
  Cu  Cu1  1  0.50000000  0.50000000  0.62163600  1
loop_
_geom_bond_atom_site_label_1
_geom_bond_atom_site_label_2
_geom_bond_distance
_geom_bond_site_symmetry_2
La0 Mg5 3.222952 1_555
La0 Mg5 3.222952 1_655
La0 Mg2 3.309007 1_655
La0 Mg2 3.309007 1_555
La0 Mg3 3.309007 1_555
La0 Mg3 3.309007 1_655
La0 Mg1 3.460155 1_555
La0 Mg0 3.460155 1_555
La1 Mg11 3.222952 1_655
La1 Mg11 3.222952 1_555
La1 Mg8 3.309007 1_555
La1 Mg8 3.309007 1_655
La1 Mg9 3.309007 1_545
La1 Mg9 3.309007 1_645
La1 Mg7 3.460155 1_555
La1 Mg6 3.460155 1_545
Mg0 Mg8 3.042217 1_555
Mg0 Mg8 3.042217 1_655
Mg0 Mg5 3.086167 1_555
Mg0 Mg5 3.086167 1_655
Mg0 Mg4 3.441548 1_555
Mg0 Mg4 3.441548 1_655
Mg1 Mg9 3.042217 1_555
Mg1 Mg9 3.042217 1_655
Mg1 Mg5 3.086167 1_555
Mg1 Mg5 3.086167 1_655
Mg1 Mg4 3.441548 1_665
Mg1 Mg4 3.441548 1_565
Mg2 Mg3 2.949887 1_565
Mg2 Mg3 3.035501 1_555
Mg2 Mg6 3.042217 1_454
Mg2 Mg6 3.042217 1_554
Mg2 Mg4 3.184415 1_565
Mg3 Mg7 3.042217 1_554
Mg3 Mg7 3.042217 1_454
Mg3 Mg4 3.184415 1_555
Mg4 Mg5 3.104049 1_545
Mg4 Mg5 3.104049 1_555
Mg5 Mg9 3.179238 1_555
Mg5 Mg8 3.179238 1_555
Mg8 Mg9 2.949887 1_555
Mg8 Mg9 3.035501 1_545
Mg10 Mg11 3.104049 1_565
Mg10 Mg11 3.104049 1_555
Mg10 Mg9 3.184415 1_555
Mg10 Mg8 3.184415 1_555
Mg10 Mg6 3.441548 1_455
Mg10 Mg7 3.441548 1_455
Mg10 Mg6 3.441548 1_555
Mg10 Mg7 3.441548 1_555
Mg11 Mg6 3.086167 1_445
Mg11 Mg6 3.086167 1_545
Mg11 Mg7 3.086167 1_555
Mg11 Mg7 3.086167 1_455
Mg11 Mg3 3.179238 1_556
Mg11 Mg2 3.179238 1_546
Cu0 Mg7 2.804152 1_554
Cu0 Mg6 2.804152 1_544
Cu0 Mg3 2.943961 1_555
Cu0 Mg3 2.943961 1_655
Cu0 Mg2 2.943961 1_645
Cu0 Mg2 2.943961 1_545
Cu0 La0 3.151590 1_545
Cu0 La0 3.151590 1_555
Cu0 Mg4 3.330341 1_555
Cu0 Mg4 3.330341 1_655
Cu1 Mg1 2.804152 1_555
Cu1 Mg0 2.804152 1_555
Cu1 Mg9 2.943961 1_555
Cu1 Mg9 2.943961 1_655
Cu1 Mg8 2.943961 1_555
Cu1 Mg8 2.943961 1_655
Cu1 La1 3.151590 1_565
Cu1 La1 3.151590 1_555
Cu1 Mg10 3.330341 1_655
Cu1 Mg10 3.330341 1_555
