# generated using pymatgen
data_La2Mn3CuGe4
_symmetry_space_group_name_H-M   'P 1'
_cell_length_a   4.14593600
_cell_length_b   4.14593600
_cell_length_c   10.80830500
_cell_angle_alpha   90.00000000
_cell_angle_beta   90.00000000
_cell_angle_gamma   90.00000000
_symmetry_Int_Tables_number   1
_chemical_formula_structural   La2Mn3CuGe4
_chemical_formula_sum   'La2 Mn3 Cu1 Ge4'
_cell_volume   185.78163428
_cell_formula_units_Z   1
loop_
 _symmetry_equiv_pos_site_id
 _symmetry_equiv_pos_as_xyz
  1  'x, y, z'
loop_
 _atom_site_type_symbol
 _atom_site_label
 _atom_site_symmetry_multiplicity
 _atom_site_fract_x
 _atom_site_fract_y
 _atom_site_fract_z
 _atom_site_occupancy
  La  La0  1  0.50000000  0.00000000  0.75071800  1
  La  La1  1  0.00000000  0.50000000  0.24928200  1
  Mn  Mn0  1  0.00000000  0.00000000  0.50000000  1
  Mn  Mn1  1  0.00000000  0.00000000  0.00000000  1
  Mn  Mn2  1  0.50000000  0.50000000  0.50000000  1
  Cu  Cu0  1  0.50000000  0.50000000  0.00000000  1
  Ge  Ge0  1  0.00000000  0.50000000  0.87189500  1
  Ge  Ge1  1  0.50000000  0.00000000  0.37644200  1
  Ge  Ge2  1  0.50000000  0.00000000  0.12810500  1
  Ge  Ge3  1  0.00000000  0.50000000  0.62355800  1
loop_
_geom_bond_atom_site_label_1
_geom_bond_atom_site_label_2
_geom_bond_distance
_geom_bond_site_symmetry_2
La0 Mn1 3.399490 1_556
La0 Mn1 3.399490 1_656
La0 Mn0 3.411805 1_555
La0 Mn2 3.411805 1_545
La0 Mn0 3.411805 1_655
La0 Mn2 3.411805 1_555
La1 Mn1 3.399490 1_555
La1 Mn1 3.399490 1_565
La1 Mn0 3.411805 1_565
La1 Mn2 3.411805 1_555
La1 Mn0 3.411805 1_555
La1 Mn2 3.411805 1_455
Cu0 Ge0 2.492851 1_554
Cu0 Ge2 2.492851 1_555
Cu0 Ge2 2.492851 1_565
Cu0 Ge0 2.492851 1_654
Cu0 Mn1 2.931619 1_565
Cu0 Mn1 2.931619 1_655
Cu0 Mn1 2.931619 1_665
Cu0 Mn1 2.931619 1_555
Cu0 La1 3.399490 1_555
Cu0 La1 3.399490 1_655
Cu0 La0 3.399490 1_564
Cu0 La0 3.399490 1_554
Ge0 Mn1 2.492851 1_566
Ge0 Mn1 2.492851 1_556
Ge0 Ge3 2.684102 1_555
Ge0 La0 3.210881 1_555
Ge0 La0 3.210881 1_565
Ge0 La0 3.210881 1_465
Ge0 La0 3.210881 1_455
Ge1 Mn0 2.465893 1_655
Ge1 Mn2 2.465893 1_555
Ge1 Mn0 2.465893 1_555
Ge1 Mn2 2.465893 1_545
Ge1 Ge2 2.684102 1_555
Ge1 La1 3.237796 1_645
Ge1 La1 3.237796 1_555
Ge1 La1 3.237796 1_545
Ge1 La1 3.237796 1_655
Ge2 Mn1 2.492851 1_655
Ge2 Mn1 2.492851 1_555
Ge2 La1 3.210881 1_555
Ge2 La1 3.210881 1_545
Ge2 La1 3.210881 1_645
Ge2 La1 3.210881 1_655
Ge3 Mn0 2.465893 1_555
Ge3 Mn2 2.465893 1_455
Ge3 Mn0 2.465893 1_565
Ge3 Mn2 2.465893 1_555
Ge3 La0 3.237796 1_555
Ge3 La0 3.237796 1_465
Ge3 La0 3.237796 1_565
Ge3 La0 3.237796 1_455
