# generated using pymatgen
data_Ba6Na2V2Sb2O17
_symmetry_space_group_name_H-M   'P 1'
_cell_length_a   6.00786773
_cell_length_b   6.00786773
_cell_length_c   30.44963100
_cell_angle_alpha   90.00000000
_cell_angle_beta   90.00000000
_cell_angle_gamma   119.99999704
_symmetry_Int_Tables_number   1
_chemical_formula_structural   Ba6Na2V2Sb2O17
_chemical_formula_sum   'Ba12 Na4 V4 Sb4 O34'
_cell_volume   951.81688344
_cell_formula_units_Z   2
loop_
 _symmetry_equiv_pos_site_id
 _symmetry_equiv_pos_as_xyz
  1  'x, y, z'
loop_
 _atom_site_type_symbol
 _atom_site_label
 _atom_site_symmetry_multiplicity
 _atom_site_fract_x
 _atom_site_fract_y
 _atom_site_fract_z
 _atom_site_occupancy
  Ba  Ba0  1  0.33333300  0.66666700  0.17783000  1
  Ba  Ba1  1  0.66666700  0.33333300  0.82217000  1
  Ba  Ba2  1  0.66666700  0.33333300  0.67783000  1
  Ba  Ba3  1  0.33333300  0.66666700  0.32217000  1
  Ba  Ba4  1  0.00000000  0.00000000  0.00000000  1
  Ba  Ba5  1  0.00000000  0.00000000  0.50000000  1
  Ba  Ba6  1  0.33333300  0.66666700  0.59134700  1
  Ba  Ba7  1  0.66666700  0.33333300  0.40865300  1
  Ba  Ba8  1  0.66666700  0.33333300  0.09134700  1
  Ba  Ba9  1  0.33333300  0.66666700  0.90865300  1
  Ba  Ba10  1  0.00000000  0.00000000  0.25000000  1
  Ba  Ba11  1  0.00000000  0.00000000  0.75000000  1
  Na  Na0  1  0.00000000  0.00000000  0.12462300  1
  Na  Na1  1  0.00000000  0.00000000  0.87537700  1
  Na  Na2  1  0.00000000  0.00000000  0.62462300  1
  Na  Na3  1  0.00000000  0.00000000  0.37537700  1
  V  V0  1  0.33333300  0.66666700  0.05215900  1
  V  V1  1  0.66666700  0.33333300  0.94784100  1
  V  V2  1  0.66666700  0.33333300  0.55215900  1
  V  V3  1  0.33333300  0.66666700  0.44784100  1
  Sb  Sb0  1  0.33333300  0.66666700  0.70244100  1
  Sb  Sb1  1  0.66666700  0.33333300  0.29755900  1
  Sb  Sb2  1  0.66666700  0.33333300  0.20244100  1
  Sb  Sb3  1  0.33333300  0.66666700  0.79755900  1
  O  O0  1  0.33333300  0.66666700  0.50467300  1
  O  O1  1  0.66666700  0.33333300  0.49532700  1
  O  O2  1  0.66666700  0.33333300  0.00467300  1
  O  O3  1  0.33333300  0.66666700  0.99532700  1
  O  O4  1  0.17277900  0.34555800  0.66994100  1
  O  O5  1  0.82722100  0.65444200  0.33005900  1
  O  O6  1  0.65444200  0.82722100  0.66994100  1
  O  O7  1  0.82722100  0.65444200  0.16994100  1
  O  O8  1  0.34555800  0.17277900  0.33005900  1
  O  O9  1  0.17277900  0.34555800  0.83005900  1
  O  O10  1  0.17277900  0.82722100  0.66994100  1
  O  O11  1  0.34555800  0.17277900  0.16994100  1
  O  O12  1  0.82722100  0.17277900  0.33005900  1
  O  O13  1  0.65444200  0.82722100  0.83005900  1
  O  O14  1  0.82722100  0.17277900  0.16994100  1
  O  O15  1  0.17277900  0.82722100  0.83005900  1
  O  O16  1  0.51842400  0.03684900  0.25000000  1
  O  O17  1  0.48157600  0.96315100  0.75000000  1
  O  O18  1  0.96315100  0.48157600  0.25000000  1
  O  O19  1  0.03684900  0.51842400  0.75000000  1
  O  O20  1  0.51842400  0.48157600  0.25000000  1
  O  O21  1  0.48157600  0.51842400  0.75000000  1
  O  O22  1  0.17618500  0.35237000  0.07261600  1
  O  O23  1  0.82381500  0.64763000  0.92738400  1
  O  O24  1  0.64763000  0.82381500  0.07261600  1
  O  O25  1  0.82381500  0.64763000  0.57261600  1
  O  O26  1  0.35237000  0.17618500  0.92738400  1
  O  O27  1  0.17618500  0.35237000  0.42738400  1
  O  O28  1  0.17618500  0.82381500  0.07261600  1
  O  O29  1  0.35237000  0.17618500  0.57261600  1
  O  O30  1  0.82381500  0.17618500  0.92738400  1
  O  O31  1  0.64763000  0.82381500  0.42738400  1
  O  O32  1  0.82381500  0.17618500  0.57261600  1
  O  O33  1  0.17618500  0.82381500  0.42738400  1
loop_
_geom_bond_atom_site_label_1
_geom_bond_atom_site_label_2
_geom_bond_distance
_geom_bond_site_symmetry_2
Ba0 O20 2.922135 1_555
Ba0 O16 2.922135 1_565
Ba0 O18 2.922135 1_455
Ba0 O11 3.014192 1_565
Ba0 O7 3.014192 1_455
Ba0 O14 3.014195 1_565
Ba0 O14 3.014195 1_455
Ba0 O7 3.014198 1_555
Ba0 O11 3.014198 1_555
Ba1 O21 2.922135 1_555
Ba1 O19 2.922135 1_655
Ba1 O17 2.922135 1_545
Ba1 O13 3.014192 1_545
Ba1 O9 3.014192 1_655
Ba1 O15 3.014195 1_545
Ba1 O15 3.014195 1_655
Ba1 O9 3.014198 1_555
Ba1 O13 3.014198 1_555
Ba2 O21 2.922135 1_555
Ba2 O17 2.922135 1_545
Ba2 O19 2.922135 1_655
Ba2 O6 3.014192 1_545
Ba2 O4 3.014192 1_655
Ba2 O10 3.014195 1_545
Ba2 O10 3.014195 1_655
Ba2 O4 3.014198 1_555
Ba2 O6 3.014198 1_555
Ba3 O20 2.922135 1_555
Ba3 O16 2.922135 1_565
Ba3 O18 2.922135 1_455
Ba3 O8 3.014192 1_565
Ba3 O5 3.014192 1_455
Ba3 O12 3.014195 1_565
Ba3 O12 3.014195 1_455
Ba3 O8 3.014198 1_555
Ba3 O5 3.014198 1_555
Ba4 O28 2.872341 1_545
Ba4 O30 2.872341 1_454
Ba4 O24 2.872341 1_445
Ba4 O22 2.872341 1_555
Ba4 O26 2.872341 1_554
Ba4 O23 2.872341 1_444
Ba5 O32 2.872341 1_455
Ba5 O33 2.872341 1_545
Ba5 O29 2.872341 1_555
Ba5 O25 2.872341 1_445
Ba5 O31 2.872341 1_445
Ba5 O27 2.872341 1_555
Ba6 O0 2.639191 1_555
Ba6 O10 2.918646 1_555
Ba6 O6 2.918649 1_555
Ba6 O4 2.918649 1_555
Ba6 O29 3.059201 1_565
Ba6 O25 3.059201 1_455
Ba6 O32 3.059204 1_565
Ba6 O32 3.059204 1_455
Ba6 O25 3.059207 1_555
Ba6 O29 3.059207 1_555
Ba7 O1 2.639191 1_555
Ba7 O12 2.918646 1_555
Ba7 O5 2.918649 1_555
Ba7 O8 2.918649 1_555
Ba7 O27 3.059201 1_655
Ba7 O31 3.059201 1_545
Ba7 O33 3.059204 1_655
Ba7 O33 3.059204 1_545
Ba7 O31 3.059207 1_555
Ba7 O27 3.059207 1_555
Ba8 O2 2.639191 1_555
Ba8 O14 2.918646 1_555
Ba8 O7 2.918649 1_555
Ba8 O11 2.918649 1_555
Ba8 O22 3.059201 1_655
Ba8 O24 3.059201 1_545
Ba8 O28 3.059204 1_655
Ba8 O28 3.059204 1_545
Ba8 O24 3.059207 1_555
Ba8 O22 3.059207 1_555
Ba9 O3 2.639191 1_555
Ba9 O15 2.918646 1_555
Ba9 O13 2.918649 1_555
Ba9 O9 2.918649 1_555
Ba9 O26 3.059201 1_565
Ba9 O23 3.059201 1_455
Ba9 O30 3.059204 1_565
Ba9 O30 3.059204 1_455
Ba9 O23 3.059207 1_555
Ba9 O26 3.059207 1_555
Ba10 O18 3.010043 1_445
Ba10 O16 3.010043 1_555
Ba10 O20 3.010046 1_555
Ba10 O20 3.010046 1_445
Ba10 O18 3.010049 1_455
Ba10 O16 3.010049 1_455
Ba10 O12 3.029067 1_455
Ba10 O14 3.029067 1_455
Ba10 O8 3.029067 1_555
Ba10 O5 3.029067 1_445
Ba10 O11 3.029067 1_555
Ba10 O7 3.029067 1_445
Ba11 O17 3.010043 1_445
Ba11 O19 3.010043 1_555
Ba11 O21 3.010046 1_555
Ba11 O21 3.010046 1_445
Ba11 O17 3.010049 1_545
Ba11 O19 3.010049 1_545
Ba11 O15 3.029067 1_545
Ba11 O10 3.029067 1_545
Ba11 O4 3.029067 1_555
Ba11 O9 3.029067 1_555
Ba11 O6 3.029067 1_445
Ba11 O13 3.029067 1_445
Na0 O14 2.266431 1_455
Na0 O7 2.266431 1_445
Na0 O11 2.266431 1_555
Na0 O28 2.422604 1_545
Na0 O24 2.422604 1_445
Na0 O22 2.422604 1_555
Na1 O15 2.266431 1_545
Na1 O9 2.266431 1_555
Na1 O13 2.266431 1_445
Na1 O30 2.422604 1_455
Na1 O23 2.422604 1_445
Na1 O26 2.422604 1_555
Na2 O10 2.266431 1_545
Na2 O4 2.266431 1_555
Na2 O6 2.266431 1_445
Na2 O32 2.422604 1_455
Na2 O29 2.422604 1_555
Na2 O25 2.422604 1_445
Na3 O12 2.266431 1_455
Na3 O8 2.266431 1_555
Na3 O5 2.266431 1_445
Na3 O33 2.422604 1_545
Na3 O27 2.422604 1_555
Na3 O31 2.422604 1_445
O0 V3 1.730513 1_555
O1 V2 1.730513 1_555
O2 V1 1.730513 1_554
O3 V0 1.730513 1_556
O4 Sb0 1.941813 1_555
O5 Sb1 1.941813 1_555
O6 Sb0 1.941813 1_555
O7 Sb2 1.941813 1_555
O8 Sb1 1.941813 1_555
O9 Sb3 1.941813 1_555
O10 Sb0 1.941808 1_555
O11 Sb2 1.941813 1_555
O12 Sb1 1.941808 1_555
O13 Sb3 1.941813 1_555
O14 Sb2 1.941808 1_555
O15 Sb3 1.941808 1_555
O16 Sb1 2.115834 1_555
O16 Sb2 2.115834 1_555
O17 Sb0 2.115834 1_555
O17 Sb3 2.115834 1_555
O18 Sb1 2.115834 1_555
O18 Sb2 2.115834 1_555
O19 Sb0 2.115834 1_555
O19 Sb3 2.115834 1_555
O20 Sb1 2.115841 1_555
O20 Sb2 2.115841 1_555
O21 Sb0 2.115841 1_555
O21 Sb3 2.115841 1_555
O22 V0 1.749898 1_555
O23 V1 1.749898 1_555
O24 V0 1.749898 1_555
O25 V2 1.749898 1_555
O26 V1 1.749898 1_555
O27 V3 1.749898 1_555
O28 V0 1.749893 1_555
O29 V2 1.749898 1_555
O30 V1 1.749893 1_555
O31 V3 1.749898 1_555
O32 V2 1.749893 1_555
O33 V3 1.749893 1_555
