# generated using pymatgen
data_DyNbO4
_symmetry_space_group_name_H-M   'P 1'
_cell_length_a   5.20981749
_cell_length_b   5.21075240
_cell_length_c   6.61444608
_cell_angle_alpha   113.20825355
_cell_angle_beta   113.20759868
_cell_angle_gamma   89.98143671
_symmetry_Int_Tables_number   1
_chemical_formula_structural   DyNbO4
_chemical_formula_sum   'Dy2 Nb2 O8'
_cell_volume   149.10415988
_cell_formula_units_Z   2
loop_
 _symmetry_equiv_pos_site_id
 _symmetry_equiv_pos_as_xyz
  1  'x, y, z'
loop_
 _atom_site_type_symbol
 _atom_site_label
 _atom_site_symmetry_multiplicity
 _atom_site_fract_x
 _atom_site_fract_y
 _atom_site_fract_z
 _atom_site_occupancy
  Dy  Dy0  1  0.62499998  0.87500859  0.25000113  1
  Dy  Dy1  1  0.37500012  0.12499115  0.74999892  1
  Nb  Nb0  1  0.12496969  0.37501632  0.25001021  1
  Nb  Nb1  1  0.87503002  0.62498436  0.74999048  1
  O  O0  1  0.78313107  0.46524973  0.06843840  1
  O  O1  1  0.28514047  0.10314700  0.06839526  1
  O  O2  1  0.96537298  0.78517094  0.56847308  1
  O  O3  1  0.60305919  0.28313426  0.56838478  1
  O  O4  1  0.21686828  0.53475049  0.93156209  1
  O  O5  1  0.71485788  0.89685282  0.93160430  1
  O  O6  1  0.03462669  0.21482812  0.43152623  1
  O  O7  1  0.39694163  0.71686622  0.43161612  1
loop_
_geom_bond_atom_site_label_1
_geom_bond_atom_site_label_2
_geom_bond_distance
_geom_bond_site_symmetry_2
Dy0 O0 2.331841 1_555
Dy0 O6 2.332102 1_665
Dy0 O1 2.332166 1_565
Dy0 O7 2.332278 1_555
Dy0 O3 2.372849 1_565
Dy0 O4 2.372879 1_554
Dy0 O5 2.373484 1_554
Dy0 O2 2.373547 1_555
Dy1 O4 2.331846 1_555
Dy1 O2 2.332104 1_445
Dy1 O5 2.332159 1_545
Dy1 O3 2.332278 1_555
Dy1 O7 2.372845 1_545
Dy1 O0 2.372879 1_556
Dy1 O1 2.373486 1_556
Dy1 O6 2.373549 1_555
Nb0 O0 1.895769 1_455
Nb0 O1 1.895862 1_555
Nb0 O6 1.896113 1_555
Nb0 O7 1.896683 1_555
Nb1 O4 1.895769 1_655
Nb1 O5 1.895860 1_555
Nb1 O2 1.896115 1_555
Nb1 O3 1.896681 1_555
