# generated using pymatgen
data_Dy5Ge3B
_symmetry_space_group_name_H-M   'P 1'
_cell_length_a   8.64050180
_cell_length_b   8.64050180
_cell_length_c   6.37065700
_cell_angle_alpha   90.00000000
_cell_angle_beta   90.00000000
_cell_angle_gamma   119.99999845
_symmetry_Int_Tables_number   1
_chemical_formula_structural   Dy5Ge3B
_chemical_formula_sum   'Dy10 Ge6 B2'
_cell_volume   411.90094781
_cell_formula_units_Z   2
loop_
 _symmetry_equiv_pos_site_id
 _symmetry_equiv_pos_as_xyz
  1  'x, y, z'
loop_
 _atom_site_type_symbol
 _atom_site_label
 _atom_site_symmetry_multiplicity
 _atom_site_fract_x
 _atom_site_fract_y
 _atom_site_fract_z
 _atom_site_occupancy
  Dy  Dy0  1  0.66666700  0.33333300  0.50000000  1
  Dy  Dy1  1  0.33333300  0.66666700  0.50000000  1
  Dy  Dy2  1  0.33333300  0.66666700  0.00000000  1
  Dy  Dy3  1  0.66666700  0.33333300  0.00000000  1
  Dy  Dy4  1  0.76144200  0.76144200  0.25000000  1
  Dy  Dy5  1  0.23855800  0.00000000  0.25000000  1
  Dy  Dy6  1  0.00000000  0.23855800  0.25000000  1
  Dy  Dy7  1  0.23855800  0.23855800  0.75000000  1
  Dy  Dy8  1  0.76144200  0.00000000  0.75000000  1
  Dy  Dy9  1  0.00000000  0.76144200  0.75000000  1
  Ge  Ge0  1  0.39683300  0.39683300  0.25000000  1
  Ge  Ge1  1  0.60316700  0.00000000  0.25000000  1
  Ge  Ge2  1  0.00000000  0.60316700  0.25000000  1
  Ge  Ge3  1  0.60316700  0.60316700  0.75000000  1
  Ge  Ge4  1  0.39683300  0.00000000  0.75000000  1
  Ge  Ge5  1  0.00000000  0.39683300  0.75000000  1
  B  B0  1  0.00000000  0.00000000  0.50000000  1
  B  B1  1  0.00000000  0.00000000  0.00000000  1
loop_
_geom_bond_atom_site_label_1
_geom_bond_atom_site_label_2
_geom_bond_distance
_geom_bond_site_symmetry_2
Dy0 Ge5 3.090745 1_655
Dy0 Ge1 3.090745 1_555
Dy0 Ge4 3.090747 1_555
Dy0 Ge2 3.090747 1_655
Dy0 Ge0 3.090752 1_555
Dy0 Ge3 3.090752 1_555
Dy1 Ge4 3.090745 1_565
Dy1 Ge2 3.090745 1_555
Dy1 Ge5 3.090747 1_555
Dy1 Ge1 3.090747 1_565
Dy1 Ge0 3.090752 1_555
Dy1 Ge3 3.090752 1_555
Dy2 Ge4 3.090745 1_564
Dy2 Ge2 3.090745 1_555
Dy2 Ge1 3.090747 1_565
Dy2 Ge5 3.090747 1_554
Dy2 Ge0 3.090752 1_555
Dy2 Ge3 3.090752 1_554
Dy3 Ge1 3.090745 1_555
Dy3 Ge5 3.090745 1_654
Dy3 Ge2 3.090747 1_655
Dy3 Ge4 3.090747 1_554
Dy3 Ge0 3.090752 1_555
Dy3 Ge3 3.090752 1_554
Dy4 Ge1 2.989647 1_565
Dy4 Ge2 2.989647 1_655
Dy4 Ge0 3.150405 1_555
Dy4 Ge3 3.466494 1_555
Dy4 Ge3 3.466494 1_554
Dy5 Ge0 2.989647 1_555
Dy5 Ge2 2.989647 1_545
Dy5 Ge1 3.150405 1_555
Dy5 Ge4 3.466494 1_554
Dy5 Ge4 3.466494 1_555
Dy6 Ge0 2.989647 1_555
Dy6 Ge1 2.989647 1_455
Dy6 Ge2 3.150405 1_555
Dy6 Ge5 3.466494 1_555
Dy6 Ge5 3.466494 1_554
Dy7 Ge4 2.989647 1_555
Dy7 Ge5 2.989647 1_555
Dy7 Ge3 3.150405 1_555
Dy7 Ge0 3.466494 1_555
Dy7 Ge0 3.466494 1_556
Dy8 Ge3 2.989647 1_545
Dy8 Ge5 2.989647 1_655
Dy8 Ge4 3.150405 1_555
Dy8 Ge1 3.466494 1_555
Dy8 Ge1 3.466494 1_556
Dy9 Ge3 2.989647 1_455
Dy9 Ge4 2.989647 1_565
Dy9 Ge5 3.150405 1_555
Dy9 Ge2 3.466494 1_555
Dy9 Ge2 3.466494 1_556
B0 Dy5 2.604875 1_555
B0 Dy6 2.604875 1_555
B0 Dy9 2.604875 1_545
B0 Dy8 2.604875 1_455
B0 Dy7 2.604875 1_555
B0 Dy4 2.604875 1_445
B1 Dy5 2.604875 1_555
B1 Dy6 2.604875 1_555
B1 Dy9 2.604875 1_544
B1 Dy8 2.604875 1_454
B1 Dy7 2.604875 1_554
B1 Dy4 2.604875 1_445
