# generated using pymatgen
data_Tb2CuAg
_symmetry_space_group_name_H-M   'P 1'
_cell_length_a   3.51618812
_cell_length_b   3.51618812
_cell_length_c   7.18746594
_cell_angle_alpha   90.00000000
_cell_angle_beta   90.00000000
_cell_angle_gamma   90.00000000
_symmetry_Int_Tables_number   1
_chemical_formula_structural   Tb2CuAg
_chemical_formula_sum   'Tb2 Cu1 Ag1'
_cell_volume   88.86280221
_cell_formula_units_Z   1
loop_
 _symmetry_equiv_pos_site_id
 _symmetry_equiv_pos_as_xyz
  1  'x, y, z'
loop_
 _atom_site_type_symbol
 _atom_site_label
 _atom_site_symmetry_multiplicity
 _atom_site_fract_x
 _atom_site_fract_y
 _atom_site_fract_z
 _atom_site_occupancy
  Tb  Tb0  1  0.50000000  0.50000000  0.26458224  1
  Tb  Tb1  1  0.50000000  0.50000000  0.73541776  1
  Cu  Cu0  1  -0.00000000  -0.00000000  0.50000000  1
  Ag  Ag0  1  -0.00000000  -0.00000000  -0.00000000  1
loop_
_geom_bond_atom_site_label_1
_geom_bond_atom_site_label_2
_geom_bond_distance
_geom_bond_site_symmetry_2
Cu0 Tb1 3.007465 1_545
Cu0 Tb0 3.007465 1_555
Cu0 Tb0 3.007465 1_545
Cu0 Tb0 3.007465 1_455
Cu0 Tb0 3.007465 1_445
Cu0 Tb1 3.007465 1_455
Cu0 Tb1 3.007465 1_555
Cu0 Tb1 3.007465 1_445
Ag0 Tb0 3.130201 1_455
Ag0 Tb0 3.130201 1_545
Ag0 Tb1 3.130201 1_444
Ag0 Tb1 3.130201 1_454
Ag0 Tb0 3.130201 1_445
Ag0 Tb1 3.130201 1_554
Ag0 Tb1 3.130201 1_544
Ag0 Tb0 3.130201 1_555
