# generated using pymatgen
data_KNaGdNbO5
_symmetry_space_group_name_H-M   'P 1'
_cell_length_a   5.72115400
_cell_length_b   5.72115400
_cell_length_c   8.36856800
_cell_angle_alpha   90.00000000
_cell_angle_beta   90.00000000
_cell_angle_gamma   90.00000000
_symmetry_Int_Tables_number   1
_chemical_formula_structural   KNaGdNbO5
_chemical_formula_sum   'K2 Na2 Gd2 Nb2 O10'
_cell_volume   273.91664622
_cell_formula_units_Z   2
loop_
 _symmetry_equiv_pos_site_id
 _symmetry_equiv_pos_as_xyz
  1  'x, y, z'
loop_
 _atom_site_type_symbol
 _atom_site_label
 _atom_site_symmetry_multiplicity
 _atom_site_fract_x
 _atom_site_fract_y
 _atom_site_fract_z
 _atom_site_occupancy
  K  K0  1  0.50000000  0.50000000  0.00000000  1
  K  K1  1  0.00000000  0.00000000  0.00000000  1
  Na  Na0  1  0.00000000  0.50000000  0.24191600  1
  Na  Na1  1  0.50000000  0.00000000  0.75808400  1
  Gd  Gd0  1  0.00000000  0.00000000  0.50000000  1
  Gd  Gd1  1  0.50000000  0.50000000  0.50000000  1
  Nb  Nb0  1  0.50000000  0.00000000  0.26140200  1
  Nb  Nb1  1  0.00000000  0.50000000  0.73859800  1
  O  O0  1  0.00000000  0.50000000  0.96286800  1
  O  O1  1  0.50000000  0.00000000  0.03713200  1
  O  O2  1  0.23264200  0.73264200  0.66537100  1
  O  O3  1  0.76735800  0.26735800  0.66537100  1
  O  O4  1  0.73264200  0.23264200  0.33462900  1
  O  O5  1  0.23264200  0.26735800  0.66537100  1
  O  O6  1  0.76735800  0.73264200  0.66537100  1
  O  O7  1  0.26735800  0.23264200  0.33462900  1
  O  O8  1  0.26735800  0.76735800  0.33462900  1
  O  O9  1  0.73264200  0.76735800  0.33462900  1
loop_
_geom_bond_atom_site_label_1
_geom_bond_atom_site_label_2
_geom_bond_distance
_geom_bond_site_symmetry_2
K0 O1 2.877405 1_565
K0 O0 2.877405 1_654
K0 O0 2.877405 1_554
K0 O1 2.877405 1_555
K1 O0 2.877405 1_544
K1 O0 2.877405 1_554
K1 O1 2.877405 1_455
K1 O1 2.877405 1_555
Na0 O7 2.298110 1_555
Na0 O4 2.298110 1_455
Na0 O9 2.298110 1_455
Na0 O8 2.298110 1_555
Na0 O0 2.335232 1_554
Na1 O2 2.298110 1_545
Na1 O6 2.298110 1_545
Na1 O5 2.298110 1_555
Na1 O3 2.298110 1_555
Na1 O1 2.335232 1_556
Gd0 O5 2.454874 1_555
Gd0 O3 2.454874 1_455
Gd0 O2 2.454874 1_545
Gd0 O6 2.454874 1_445
Gd0 O8 2.454874 1_545
Gd0 O4 2.454874 1_455
Gd0 O9 2.454874 1_445
Gd0 O7 2.454874 1_555
Gd1 O5 2.454874 1_555
Gd1 O2 2.454874 1_555
Gd1 O3 2.454874 1_555
Gd1 O6 2.454874 1_555
Gd1 O9 2.454874 1_555
Gd1 O7 2.454874 1_555
Gd1 O4 2.454874 1_555
Gd1 O8 2.454874 1_555
Nb0 O1 1.876819 1_555
Nb0 O7 1.979533 1_555
Nb0 O4 1.979533 1_555
Nb0 O9 1.979533 1_545
Nb0 O8 1.979533 1_545
Nb1 O0 1.876819 1_555
Nb1 O5 1.979533 1_555
Nb1 O2 1.979533 1_555
Nb1 O6 1.979533 1_455
Nb1 O3 1.979533 1_455
