# generated using pymatgen
data_Sm3PO7
_symmetry_space_group_name_H-M   'P 1'
_cell_length_a   9.22828568
_cell_length_b   9.22828568
_cell_length_c   12.23530775
_cell_angle_alpha   102.75353632
_cell_angle_beta   102.75353632
_cell_angle_gamma   90.91170344
_symmetry_Int_Tables_number   1
_chemical_formula_structural   Sm3PO7
_chemical_formula_sum   'Sm18 P6 O42'
_cell_volume   988.90326847
_cell_formula_units_Z   6
loop_
 _symmetry_equiv_pos_site_id
 _symmetry_equiv_pos_as_xyz
  1  'x, y, z'
loop_
 _atom_site_type_symbol
 _atom_site_label
 _atom_site_symmetry_multiplicity
 _atom_site_fract_x
 _atom_site_fract_y
 _atom_site_fract_z
 _atom_site_occupancy
  Sm  Sm0  1  0.32388600  0.01268600  0.91417300  1
  Sm  Sm1  1  0.01268600  0.32388600  0.91417300  1
  Sm  Sm2  1  0.68232900  0.29732800  0.68597800  1
  Sm  Sm3  1  0.29732800  0.68232900  0.68597800  1
  Sm  Sm4  1  0.66941100  0.32249500  0.99702000  1
  Sm  Sm5  1  0.32249500  0.66941100  0.99702000  1
  Sm  Sm6  1  0.65209600  0.96670400  0.79787500  1
  Sm  Sm7  1  0.96670400  0.65209600  0.79787500  1
  Sm  Sm8  1  0.66530300  0.01431700  0.13202400  1
  Sm  Sm9  1  0.01431700  0.66530300  0.13202400  1
  Sm  Sm10  1  0.31463500  0.96593000  0.23929000  1
  Sm  Sm11  1  0.96593000  0.31463500  0.23929000  1
  Sm  Sm12  1  0.32845000  0.01355000  0.57431700  1
  Sm  Sm13  1  0.01355000  0.32845000  0.57431700  1
  Sm  Sm14  1  0.65777200  0.30992300  0.37439400  1
  Sm  Sm15  1  0.30992300  0.65777200  0.37439400  1
  Sm  Sm16  1  0.65658000  0.96712000  0.45718500  1
  Sm  Sm17  1  0.96712000  0.65658000  0.45718500  1
  P  P0  1  0.65651000  0.65651000  0.95134100  1
  P  P1  1  0.98589900  0.98589900  0.36575200  1
  P  P2  1  0.32109300  0.32109300  0.41920000  1
  P  P3  1  0.32492100  0.32492100  0.79808800  1
  P  P4  1  0.99438300  0.99438300  0.00365200  1
  P  P5  1  0.65202700  0.65202700  0.57408100  1
  O  O0  1  0.38605600  0.93241700  0.74158700  1
  O  O1  1  0.93241700  0.38605600  0.74158700  1
  O  O2  1  0.41910400  0.41910400  0.36776600  1
  O  O3  1  0.69203500  0.69203500  0.46559700  1
  O  O4  1  0.48835400  0.29442600  0.79467200  1
  O  O5  1  0.29442600  0.48835400  0.79467200  1
  O  O6  1  0.70249900  0.27772800  0.18582100  1
  O  O7  1  0.27772800  0.70249900  0.18582100  1
  O  O8  1  0.56041400  0.56041400  0.00543700  1
  O  O9  1  0.42502000  0.23031700  0.49261700  1
  O  O10  1  0.23031700  0.42502000  0.49261700  1
  O  O11  1  0.08485400  0.08485400  0.47707900  1
  O  O12  1  0.59484000  0.04583900  0.63012100  1
  O  O13  1  0.04583900  0.59484000  0.63012100  1
  O  O14  1  0.21555200  0.21555200  0.31121600  1
  O  O15  1  0.89689300  0.89689300  0.89128500  1
  O  O16  1  0.77808800  0.20548300  0.84942600  1
  O  O17  1  0.20548300  0.77808800  0.84942600  1
  O  O18  1  0.41197000  0.91565400  0.07421000  1
  O  O19  1  0.91565400  0.41197000  0.07421000  1
  O  O20  1  0.29214700  0.29214700  0.91109100  1
  O  O21  1  0.56818100  0.06380500  0.29742800  1
  O  O22  1  0.06380500  0.56818100  0.29742800  1
  O  O23  1  0.87718100  0.87718100  0.39730600  1
  O  O24  1  0.75387100  0.75387100  0.68325800  1
  O  O25  1  0.21835400  0.21835400  0.69337100  1
  O  O26  1  0.10363700  0.10363700  0.97278400  1
  O  O27  1  0.76444200  0.76444200  0.05668900  1
  O  O28  1  0.55015000  0.74554700  0.87805100  1
  O  O29  1  0.74554700  0.55015000  0.87805100  1
  O  O30  1  0.48703600  0.68046300  0.57308000  1
  O  O31  1  0.68046300  0.48703600  0.57308000  1
  O  O32  1  0.57230900  0.08457200  0.96339100  1
  O  O33  1  0.08457200  0.57230900  0.96339100  1
  O  O34  1  0.40755800  0.89511100  0.40815400  1
  O  O35  1  0.89511100  0.40755800  0.40815400  1
  O  O36  1  0.77534300  0.20122100  0.52249000  1
  O  O37  1  0.20122100  0.77534300  0.52249000  1
  O  O38  1  0.88921800  0.08368500  0.29519800  1
  O  O39  1  0.08368500  0.88921800  0.29519800  1
  O  O40  1  0.89580700  0.09047100  0.07380100  1
  O  O41  1  0.09047100  0.89580700  0.07380100  1
loop_
_geom_bond_atom_site_label_1
_geom_bond_atom_site_label_2
_geom_bond_distance
_geom_bond_site_symmetry_2
O0 Sm0 2.279189 1_565
O0 Sm12 2.289237 1_565
O0 Sm3 2.336728 1_555
O0 Sm6 2.394671 1_555
O1 Sm1 2.279189 1_655
O1 Sm13 2.289237 1_655
O1 Sm2 2.336728 1_555
O1 Sm7 2.394671 1_555
O2 P2 1.583906 1_555
O2 Sm15 2.429108 1_555
O2 Sm14 2.429108 1_555
O3 P5 1.569345 1_555
O3 Sm16 2.586285 1_555
O3 Sm17 2.586285 1_555
O4 P3 1.546536 1_555
O4 Sm2 2.457425 1_555
O4 Sm4 2.620122 1_555
O5 P3 1.546536 1_555
O5 Sm3 2.457425 1_555
O5 Sm5 2.620122 1_555
O6 Sm11 2.372114 1_555
O6 Sm8 2.372189 1_555
O6 Sm14 2.388252 1_555
O6 Sm4 2.390423 1_554
O7 Sm10 2.372114 1_555
O7 Sm9 2.372189 1_555
O7 Sm15 2.388252 1_555
O7 Sm5 2.390423 1_554
O8 P0 1.582465 1_554
O8 Sm5 2.420563 1_554
O8 Sm4 2.420563 1_554
O9 P2 1.551098 1_555
O9 Sm12 2.648481 1_555
O9 Sm2 2.906018 1_555
O10 P2 1.551098 1_555
O10 Sm13 2.648481 1_555
O10 Sm3 2.906018 1_555
O11 P1 1.548636 1_445
O11 Sm12 2.472595 1_555
O11 Sm13 2.472595 1_555
O12 Sm16 2.279533 1_545
O12 Sm6 2.284860 1_545
O12 Sm2 2.345540 1_555
O12 Sm12 2.396687 1_555
O13 Sm17 2.279533 1_455
O13 Sm7 2.284860 1_455
O13 Sm3 2.345540 1_555
O13 Sm13 2.396687 1_555
O14 P2 1.573638 1_555
O14 Sm10 2.538558 1_545
O14 Sm11 2.538558 1_455
O15 P4 1.546291 1_556
O15 Sm7 2.460906 1_555
O15 Sm6 2.460906 1_555
O16 Sm1 2.300815 1_655
O16 Sm4 2.325099 1_555
O16 Sm2 2.343198 1_555
O16 Sm6 2.363520 1_545
O17 Sm0 2.300815 1_565
O17 Sm5 2.325099 1_555
O17 Sm3 2.343198 1_555
O17 Sm7 2.363520 1_455
O18 Sm5 2.320772 1_554
O18 Sm0 2.321912 1_564
O18 Sm10 2.345684 1_555
O18 Sm8 2.390099 1_565
O19 Sm4 2.320772 1_554
O19 Sm1 2.321912 1_654
O19 Sm11 2.345684 1_555
O19 Sm9 2.390099 1_655
O20 P3 1.568743 1_555
O20 Sm1 2.607733 1_555
O20 Sm0 2.607733 1_555
O21 Sm16 2.317646 1_545
O21 Sm14 2.319715 1_555
O21 Sm8 2.348043 1_555
O21 Sm10 2.389701 1_545
O22 Sm17 2.317646 1_455
O22 Sm15 2.319715 1_555
O22 Sm9 2.348043 1_555
O22 Sm11 2.389701 1_455
O23 P1 1.572322 1_555
O23 Sm16 2.411181 1_555
O23 Sm17 2.411181 1_555
O24 P5 1.553802 1_555
O24 Sm6 2.475989 1_555
O24 Sm7 2.475989 1_555
O25 P3 1.559632 1_555
O25 Sm13 2.495032 1_555
O25 Sm12 2.495032 1_555
O26 P4 1.574669 1_446
O26 Sm0 2.404568 1_555
O26 Sm1 2.404568 1_555
O27 P0 1.574906 1_554
O27 Sm8 2.550474 1_565
O27 Sm9 2.550474 1_655
O28 P0 1.550805 1_555
O28 Sm6 2.691280 1_555
O28 Sm3 2.870043 1_555
O29 P0 1.550805 1_555
O29 Sm7 2.691280 1_555
O29 Sm2 2.870043 1_555
O30 P5 1.546989 1_555
O30 Sm3 2.455901 1_555
O30 Sm15 2.575856 1_555
O31 P5 1.546989 1_555
O31 Sm2 2.455901 1_555
O31 Sm14 2.575856 1_555
O32 Sm4 2.273489 1_555
O32 Sm0 2.285618 1_555
O32 Sm8 2.289205 1_556
O32 Sm6 2.353237 1_545
O33 Sm5 2.273489 1_555
O33 Sm1 2.285618 1_555
O33 Sm9 2.289205 1_556
O33 Sm7 2.353237 1_455
O34 Sm15 2.270019 1_555
O34 Sm16 2.291114 1_555
O34 Sm10 2.294121 1_555
O34 Sm12 2.358066 1_565
O35 Sm14 2.270019 1_555
O35 Sm17 2.291114 1_555
O35 Sm11 2.294121 1_555
O35 Sm13 2.358066 1_655
O36 Sm16 2.298392 1_545
O36 Sm14 2.331514 1_555
O36 Sm2 2.350255 1_555
O36 Sm13 2.363599 1_655
O37 Sm17 2.298392 1_455
O37 Sm15 2.331514 1_555
O37 Sm3 2.350255 1_555
O37 Sm12 2.363599 1_565
O38 P1 1.544361 1_545
O38 Sm8 2.497545 1_555
O38 Sm11 2.514136 1_555
O39 P1 1.544361 1_455
O39 Sm9 2.497545 1_555
O39 Sm10 2.514136 1_555
O40 P4 1.544298 1_545
O40 Sm11 2.515446 1_555
O40 Sm8 2.523623 1_555
O41 P4 1.544298 1_455
O41 Sm10 2.515446 1_555
O41 Sm9 2.523623 1_555
