# generated using pymatgen
data_La2MgBiO6
_symmetry_space_group_name_H-M   'P 1'
_cell_length_a   5.86813313
_cell_length_b   5.86813313
_cell_length_c   5.86813317
_cell_angle_alpha   60.88021158
_cell_angle_beta   60.88021158
_cell_angle_gamma   60.88022062
_symmetry_Int_Tables_number   1
_chemical_formula_structural   La2MgBiO6
_chemical_formula_sum   'La2 Mg1 Bi1 O6'
_cell_volume   145.71963922
_cell_formula_units_Z   1
loop_
 _symmetry_equiv_pos_site_id
 _symmetry_equiv_pos_as_xyz
  1  'x, y, z'
loop_
 _atom_site_type_symbol
 _atom_site_label
 _atom_site_symmetry_multiplicity
 _atom_site_fract_x
 _atom_site_fract_y
 _atom_site_fract_z
 _atom_site_occupancy
  La  La0  1  0.75060100  0.75060100  0.75060100  1
  La  La1  1  0.24939900  0.24939900  0.24939900  1
  Mg  Mg0  1  0.50000000  0.50000000  0.50000000  1
  Bi  Bi0  1  0.00000000  0.00000000  0.00000000  1
  O  O0  1  0.74274200  0.36385500  0.15305800  1
  O  O1  1  0.15305800  0.74274200  0.36385500  1
  O  O2  1  0.36385500  0.15305800  0.74274200  1
  O  O3  1  0.25725800  0.63614500  0.84694200  1
  O  O4  1  0.63614500  0.84694200  0.25725800  1
  O  O5  1  0.84694200  0.25725800  0.63614500  1
loop_
_geom_bond_atom_site_label_1
_geom_bond_atom_site_label_2
_geom_bond_distance
_geom_bond_site_symmetry_2
La0 O0 2.347230 1_556
La0 O1 2.347230 1_655
La0 O2 2.347231 1_565
La1 O3 2.347230 1_554
La1 O5 2.347230 1_455
La1 O4 2.347231 1_545
Mg0 O2 2.113086 1_555
Mg0 O4 2.113086 1_555
Mg0 O3 2.113086 1_555
Mg0 O0 2.113086 1_555
Mg0 O1 2.113086 1_555
Mg0 O5 2.113086 1_555
Bi0 O4 2.248157 1_445
Bi0 O2 2.248157 1_554
Bi0 O1 2.248157 1_545
Bi0 O5 2.248157 1_454
Bi0 O0 2.248157 1_455
Bi0 O3 2.248157 1_544
