# generated using pymatgen
data_Mg6CrCo
_symmetry_space_group_name_H-M   'P 1'
_cell_length_a   4.81418600
_cell_length_b   6.04997100
_cell_length_c   10.43286800
_cell_angle_alpha   90.00000000
_cell_angle_beta   90.00000000
_cell_angle_gamma   90.00000000
_symmetry_Int_Tables_number   1
_chemical_formula_structural   Mg6CrCo
_chemical_formula_sum   'Mg12 Cr2 Co2'
_cell_volume   303.86443420
_cell_formula_units_Z   2
loop_
 _symmetry_equiv_pos_site_id
 _symmetry_equiv_pos_as_xyz
  1  'x, y, z'
loop_
 _atom_site_type_symbol
 _atom_site_label
 _atom_site_symmetry_multiplicity
 _atom_site_fract_x
 _atom_site_fract_y
 _atom_site_fract_z
 _atom_site_occupancy
  Mg  Mg0  1  0.50000000  0.24908800  0.08266600  1
  Mg  Mg1  1  0.50000000  0.75091200  0.08266600  1
  Mg  Mg2  1  0.00000000  0.24382900  0.91044000  1
  Mg  Mg3  1  0.00000000  0.75617100  0.91044000  1
  Mg  Mg4  1  0.00000000  0.50000000  0.17581300  1
  Mg  Mg5  1  0.00000000  0.50000000  0.67189400  1
  Mg  Mg6  1  0.50000000  0.74908800  0.58266600  1
  Mg  Mg7  1  0.50000000  0.25091200  0.58266600  1
  Mg  Mg8  1  0.00000000  0.74382900  0.41044000  1
  Mg  Mg9  1  0.00000000  0.25617100  0.41044000  1
  Mg  Mg10  1  0.00000000  0.00000000  0.67581300  1
  Mg  Mg11  1  0.00000000  0.00000000  0.17189400  1
  Cr  Cr0  1  0.50000000  0.50000000  0.83393400  1
  Cr  Cr1  1  0.50000000  0.00000000  0.33393400  1
  Co  Co0  1  0.50000000  0.50000000  0.33215200  1
  Co  Co1  1  0.50000000  0.00000000  0.83215200  1
loop_
_geom_bond_atom_site_label_1
_geom_bond_atom_site_label_2
_geom_bond_distance
_geom_bond_site_symmetry_2
Mg0 Mg11 2.988587 1_655
Mg0 Mg11 2.988587 1_555
Mg0 Mg2 3.003937 1_654
Mg0 Mg2 3.003937 1_554
Mg0 Mg4 3.007130 1_655
Mg0 Mg4 3.007130 1_555
Mg0 Mg1 3.013950 1_545
Mg0 Mg1 3.036021 1_555
Mg1 Mg11 2.988587 1_565
Mg1 Mg11 2.988587 1_665
Mg1 Mg3 3.003937 1_554
Mg1 Mg3 3.003937 1_654
Mg1 Mg4 3.007130 1_555
Mg1 Mg4 3.007130 1_655
Mg2 Mg5 2.931840 1_555
Mg2 Mg3 2.950317 1_545
Mg2 Mg3 3.099654 1_555
Mg2 Mg4 3.172872 1_556
Mg3 Mg5 2.931840 1_555
Mg3 Mg4 3.172872 1_556
Mg4 Mg8 2.857967 1_555
Mg4 Mg9 2.857967 1_555
Mg5 Mg6 2.988587 1_455
Mg5 Mg6 2.988587 1_555
Mg5 Mg7 2.988587 1_455
Mg5 Mg7 2.988587 1_555
Mg5 Mg8 3.101052 1_555
Mg5 Mg9 3.101052 1_555
Mg6 Mg8 3.003937 1_655
Mg6 Mg8 3.003937 1_555
Mg6 Mg7 3.013950 1_555
Mg6 Mg7 3.036021 1_565
Mg7 Mg9 3.003937 1_555
Mg7 Mg9 3.003937 1_655
Mg8 Mg9 2.950317 1_555
Mg8 Mg9 3.099654 1_565
Mg10 Mg2 2.857967 1_555
Mg10 Mg3 2.857967 1_545
Mg10 Mg7 3.007130 1_555
Mg10 Mg7 3.007130 1_455
Mg10 Mg6 3.007130 1_545
Mg10 Mg6 3.007130 1_445
Mg10 Mg5 3.025262 1_545
Mg10 Mg5 3.025262 1_555
Mg10 Mg9 3.172872 1_555
Mg10 Mg8 3.172872 1_545
Mg11 Mg8 2.931840 1_545
Mg11 Mg9 2.931840 1_555
Mg11 Mg4 3.025262 1_545
Mg11 Mg4 3.025262 1_555
Mg11 Mg2 3.101052 1_554
Mg11 Mg3 3.101052 1_544
Cr0 Mg5 2.941433 1_555
Cr0 Mg5 2.941433 1_655
Cr0 Mg3 2.972061 1_555
Cr0 Mg3 2.972061 1_655
Cr0 Mg2 2.972061 1_555
Cr0 Mg2 2.972061 1_655
Cr0 Mg1 3.006380 1_556
Cr0 Mg0 3.006380 1_556
Cr0 Mg6 3.023732 1_555
Cr0 Mg7 3.023732 1_555
Cr1 Mg11 2.941433 1_555
Cr1 Mg11 2.941433 1_655
Cr1 Mg8 2.972061 1_645
Cr1 Mg8 2.972061 1_545
Cr1 Mg9 2.972061 1_555
Cr1 Mg9 2.972061 1_655
Cr1 Mg7 3.006380 1_555
Cr1 Mg6 3.006380 1_545
Cr1 Mg0 3.023732 1_555
Cr1 Mg1 3.023732 1_545
Co0 Mg4 2.907657 1_655
Co0 Mg4 2.907657 1_555
Co0 Mg9 2.938928 1_555
Co0 Mg8 2.938928 1_655
Co0 Mg8 2.938928 1_555
Co0 Mg9 2.938928 1_655
Co0 Mg1 3.013172 1_555
Co0 Mg0 3.013172 1_555
Co0 Mg6 3.016914 1_555
Co0 Mg7 3.016914 1_555
Co0 Cr1 3.025043 1_555
Co0 Cr1 3.025043 1_565
Co1 Mg10 2.907657 1_555
Co1 Mg10 2.907657 1_655
Co1 Mg2 2.938928 1_655
Co1 Mg2 2.938928 1_555
Co1 Mg3 2.938928 1_645
Co1 Mg3 2.938928 1_545
Co1 Mg7 3.013172 1_555
Co1 Mg6 3.013172 1_545
Co1 Mg0 3.016914 1_556
Co1 Mg1 3.016914 1_546
Co1 Cr0 3.025043 1_545
Co1 Cr0 3.025043 1_555
