# generated using pymatgen
data_GdSe2
_symmetry_space_group_name_H-M   'P 1'
_cell_length_a   4.09072184
_cell_length_b   4.09072184
_cell_length_c   8.39537485
_cell_angle_alpha   90.00000000
_cell_angle_beta   90.00000000
_cell_angle_gamma   90.00000000
_symmetry_Int_Tables_number   1
_chemical_formula_structural   GdSe2
_chemical_formula_sum   'Gd2 Se4'
_cell_volume   140.48824616
_cell_formula_units_Z   2
loop_
 _symmetry_equiv_pos_site_id
 _symmetry_equiv_pos_as_xyz
  1  'x, y, z'
loop_
 _atom_site_type_symbol
 _atom_site_label
 _atom_site_symmetry_multiplicity
 _atom_site_fract_x
 _atom_site_fract_y
 _atom_site_fract_z
 _atom_site_occupancy
  Gd  Gd0  1  0.75000000  0.75000000  0.72605392  1
  Gd  Gd1  1  0.25000000  0.25000000  0.27394608  1
  Se  Se0  1  0.75000000  0.25000000  0.00000000  1
  Se  Se1  1  0.25000000  0.75000000  -0.00000000  1
  Se  Se2  1  0.75000000  0.75000000  0.36862916  1
  Se  Se3  1  0.25000000  0.25000000  0.63137084  1
loop_
_geom_bond_atom_site_label_1
_geom_bond_atom_site_label_2
_geom_bond_distance
_geom_bond_site_symmetry_2
Gd0 Se3 2.999811 1_565
Gd0 Se3 2.999811 1_665
Gd0 Se3 2.999811 1_555
Gd0 Se3 2.999811 1_655
Gd0 Se2 3.000715 1_555
Gd0 Se0 3.077816 1_556
Gd0 Se0 3.077816 1_566
Gd0 Se1 3.077816 1_656
Gd0 Se1 3.077816 1_556
Gd1 Se2 2.999811 1_455
Gd1 Se2 2.999811 1_445
Gd1 Se2 2.999811 1_555
Gd1 Se2 2.999811 1_545
Gd1 Se3 3.000715 1_555
Gd1 Se0 3.077816 1_455
Gd1 Se0 3.077816 1_555
Gd1 Se1 3.077816 1_555
Gd1 Se1 3.077816 1_545
Se0 Se1 2.892577 1_645
Se0 Se1 2.892577 1_555
Se0 Se1 2.892577 1_545
Se0 Se1 2.892577 1_655
