# generated using pymatgen
data_SrNdMnSnO6
_symmetry_space_group_name_H-M   'P 1'
_cell_length_a   5.69291945
_cell_length_b   5.69291945
_cell_length_c   5.69291945
_cell_angle_alpha   60.00000000
_cell_angle_beta   60.00000000
_cell_angle_gamma   60.00000000
_symmetry_Int_Tables_number   1
_chemical_formula_structural   SrNdMnSnO6
_chemical_formula_sum   'Sr1 Nd1 Mn1 Sn1 O6'
_cell_volume   130.46382876
_cell_formula_units_Z   1
loop_
 _symmetry_equiv_pos_site_id
 _symmetry_equiv_pos_as_xyz
  1  'x, y, z'
loop_
 _atom_site_type_symbol
 _atom_site_label
 _atom_site_symmetry_multiplicity
 _atom_site_fract_x
 _atom_site_fract_y
 _atom_site_fract_z
 _atom_site_occupancy
  Sr  Sr0  1  0.75000000  0.75000000  0.75000000  1
  Nd  Nd0  1  0.25000000  0.25000000  0.25000000  1
  Mn  Mn0  1  0.00000000  0.00000000  0.00000000  1
  Sn  Sn0  1  0.50000000  0.50000000  0.50000000  1
  O  O0  1  0.75326635  0.24673365  0.24673365  1
  O  O1  1  0.24673365  0.75326635  0.75326635  1
  O  O2  1  0.75326635  0.24673365  0.75326635  1
  O  O3  1  0.24673365  0.75326635  0.24673365  1
  O  O4  1  0.75326635  0.75326635  0.24673365  1
  O  O5  1  0.24673365  0.24673365  0.75326635  1
loop_
_geom_bond_atom_site_label_1
_geom_bond_atom_site_label_2
_geom_bond_distance
_geom_bond_site_symmetry_2
Nd0 O5 2.846581 1_555
Nd0 O3 2.846581 1_555
Nd0 O0 2.846581 1_555
Nd0 O4 2.846581 1_455
Nd0 O1 2.846581 1_554
Nd0 O3 2.846581 1_545
Nd0 O2 2.846581 1_455
Nd0 O2 2.846581 1_554
Nd0 O4 2.846581 1_545
Nd0 O5 2.846581 1_554
Nd0 O1 2.846581 1_545
Nd0 O0 2.846581 1_455
Mn0 O3 1.986454 1_545
Mn0 O5 1.986454 1_554
Mn0 O0 1.986454 1_455
Mn0 O2 1.986454 1_454
Mn0 O4 1.986454 1_445
Mn0 O1 1.986454 1_544
O0 Sn0 2.039048 1_555
O0 Sr0 2.846581 1_554
O0 Sr0 2.846581 1_545
O1 Sn0 2.039048 1_555
O1 Sr0 2.846581 1_555
O1 Sr0 2.846581 1_455
O2 Sn0 2.039048 1_555
O2 Sr0 2.846581 1_555
O2 Sr0 2.846581 1_545
O3 Sn0 2.039048 1_555
O3 Sr0 2.846581 1_455
O3 Sr0 2.846581 1_554
O4 Sn0 2.039048 1_555
O4 Sr0 2.846581 1_555
O4 Sr0 2.846581 1_554
O5 Sn0 2.039048 1_555
O5 Sr0 2.846581 1_455
O5 Sr0 2.846581 1_545
