# generated using pymatgen
data_EuZrFeBiO6
_symmetry_space_group_name_H-M   'P 1'
_cell_length_a   5.74717446
_cell_length_b   5.74717446
_cell_length_c   5.74717446
_cell_angle_alpha   60.00000000
_cell_angle_beta   60.00000000
_cell_angle_gamma   60.00000000
_symmetry_Int_Tables_number   1
_chemical_formula_structural   EuZrFeBiO6
_chemical_formula_sum   'Eu1 Zr1 Fe1 Bi1 O6'
_cell_volume   134.22955276
_cell_formula_units_Z   1
loop_
 _symmetry_equiv_pos_site_id
 _symmetry_equiv_pos_as_xyz
  1  'x, y, z'
loop_
 _atom_site_type_symbol
 _atom_site_label
 _atom_site_symmetry_multiplicity
 _atom_site_fract_x
 _atom_site_fract_y
 _atom_site_fract_z
 _atom_site_occupancy
  Eu  Eu0  1  0.75000000  0.75000000  0.75000000  1
  Zr  Zr0  1  0.50000000  0.50000000  0.50000000  1
  Fe  Fe0  1  -0.00000000  0.00000000  0.00000000  1
  Bi  Bi0  1  0.25000000  0.25000000  0.25000000  1
  O  O0  1  0.75548929  0.24451071  0.24451071  1
  O  O1  1  0.24451071  0.75548929  0.75548929  1
  O  O2  1  0.75548929  0.24451071  0.75548929  1
  O  O3  1  0.24451071  0.75548929  0.24451071  1
  O  O4  1  0.75548929  0.75548929  0.24451071  1
  O  O5  1  0.24451071  0.24451071  0.75548929  1
loop_
_geom_bond_atom_site_label_1
_geom_bond_atom_site_label_2
_geom_bond_distance
_geom_bond_site_symmetry_2
Eu0 O4 2.873934 1_556
Eu0 O1 2.873934 1_655
Eu0 O5 2.873934 1_655
Eu0 O5 2.873934 1_565
Eu0 O3 2.873934 1_556
Eu0 O2 2.873934 1_565
Eu0 O0 2.873934 1_556
Eu0 O4 2.873934 1_555
Eu0 O0 2.873934 1_565
Eu0 O3 2.873934 1_655
Eu0 O2 2.873934 1_555
Eu0 O1 2.873934 1_555
Fe0 O3 1.987318 1_545
Fe0 O5 1.987318 1_554
Fe0 O0 1.987318 1_455
Fe0 O2 1.987318 1_454
Fe0 O1 1.987318 1_544
Fe0 O4 1.987318 1_445
Bi0 O5 2.873934 1_554
Bi0 O4 2.873934 1_545
Bi0 O4 2.873934 1_455
Bi0 O5 2.873934 1_555
Bi0 O1 2.873934 1_554
Bi0 O2 2.873934 1_455
Bi0 O3 2.873934 1_545
Bi0 O2 2.873934 1_554
Bi0 O3 2.873934 1_555
Bi0 O0 2.873934 1_455
Bi0 O1 2.873934 1_545
Bi0 O0 2.873934 1_555
O0 Zr0 2.076548 1_555
O1 Zr0 2.076548 1_555
O2 Zr0 2.076548 1_555
O3 Zr0 2.076548 1_555
O4 Zr0 2.076548 1_555
O5 Zr0 2.076548 1_555
