# generated using pymatgen
data_NaSiBO4
_symmetry_space_group_name_H-M   'P 1'
_cell_length_a   4.82396900
_cell_length_b   9.60744900
_cell_length_c   13.34804400
_cell_angle_alpha   90.00000000
_cell_angle_beta   90.00000000
_cell_angle_gamma   90.00000000
_symmetry_Int_Tables_number   1
_chemical_formula_structural   NaSiBO4
_chemical_formula_sum   'Na8 Si8 B8 O32'
_cell_volume   618.62892969
_cell_formula_units_Z   8
loop_
 _symmetry_equiv_pos_site_id
 _symmetry_equiv_pos_as_xyz
  1  'x, y, z'
loop_
 _atom_site_type_symbol
 _atom_site_label
 _atom_site_symmetry_multiplicity
 _atom_site_fract_x
 _atom_site_fract_y
 _atom_site_fract_z
 _atom_site_occupancy
  Na  Na0  1  0.94956000  0.47473200  0.74713600  1
  Na  Na1  1  0.94956000  0.02526800  0.24713600  1
  Na  Na2  1  0.44349700  0.28496900  0.49950300  1
  Na  Na3  1  0.05044000  0.97473200  0.74713600  1
  Na  Na4  1  0.55650300  0.78496900  0.49950300  1
  Na  Na5  1  0.05044000  0.52526800  0.24713600  1
  Na  Na6  1  0.44349700  0.21503100  0.99950300  1
  Na  Na7  1  0.55650300  0.71503100  0.99950300  1
  Si  Si0  1  0.55946700  0.03089000  0.62381000  1
  Si  Si1  1  0.55946700  0.46911000  0.12381000  1
  Si  Si2  1  0.95471000  0.27451700  0.37279700  1
  Si  Si3  1  0.04529000  0.77451700  0.37279700  1
  Si  Si4  1  0.95471000  0.22548300  0.87279700  1
  Si  Si5  1  0.44053300  0.53089000  0.62381000  1
  Si  Si6  1  0.04529000  0.72548300  0.87279700  1
  Si  Si7  1  0.44053300  0.96911000  0.12381000  1
  B  B0  1  0.54700900  0.72262600  0.24908900  1
  B  B1  1  0.94328400  0.52646300  0.49769900  1
  B  B2  1  0.94328400  0.97353700  0.99769900  1
  B  B3  1  0.45299100  0.27737400  0.74908900  1
  B  B4  1  0.05671600  0.47353700  0.99769900  1
  B  B5  1  0.45299100  0.22262600  0.24908900  1
  B  B6  1  0.05671600  0.02646300  0.49769900  1
  B  B7  1  0.54700900  0.77737400  0.74908900  1
  O  O0  1  0.15744900  0.24702900  0.27669100  1
  O  O1  1  0.47802300  0.80902100  0.16097100  1
  O  O2  1  0.15744900  0.25297100  0.77669100  1
  O  O3  1  0.65108900  0.99869900  0.02955800  1
  O  O4  1  0.48806000  0.07264700  0.22009100  1
  O  O5  1  0.63442600  0.25116500  0.33671900  1
  O  O6  1  0.99056300  0.93454300  0.41103700  1
  O  O7  1  0.84255100  0.75297100  0.77669100  1
  O  O8  1  0.97621800  0.67389600  0.46821200  1
  O  O9  1  0.48806000  0.42735300  0.72009100  1
  O  O10  1  0.97621800  0.82610400  0.96821200  1
  O  O11  1  0.36557400  0.74883500  0.83671900  1
  O  O12  1  0.87234100  0.99605400  0.58368900  1
  O  O13  1  0.51194000  0.92735300  0.72009100  1
  O  O14  1  0.63442600  0.24883500  0.83671900  1
  O  O15  1  0.51194000  0.57264700  0.22009100  1
  O  O16  1  0.52197700  0.19097900  0.66097100  1
  O  O17  1  0.34891100  0.49869900  0.02955800  1
  O  O18  1  0.84255100  0.74702900  0.27669100  1
  O  O19  1  0.47802300  0.69097900  0.66097100  1
  O  O20  1  0.34891100  0.00130100  0.52955800  1
  O  O21  1  0.12765900  0.49605400  0.58368900  1
  O  O22  1  0.12765900  0.00394600  0.08369000  1
  O  O23  1  0.52197700  0.30902100  0.16097100  1
  O  O24  1  0.65108900  0.50130100  0.52955800  1
  O  O25  1  0.87234100  0.50394600  0.08369000  1
  O  O26  1  0.00943700  0.06545700  0.91103700  1
  O  O27  1  0.02378200  0.32610400  0.96821200  1
  O  O28  1  0.36557400  0.75116500  0.33671900  1
  O  O29  1  0.02378200  0.17389600  0.46821200  1
  O  O30  1  0.99056300  0.56545700  0.91103700  1
  O  O31  1  0.00943700  0.43454300  0.41103700  1
loop_
_geom_bond_atom_site_label_1
_geom_bond_atom_site_label_2
_geom_bond_distance
_geom_bond_site_symmetry_2
Na0 O9 2.300817 1_555
Na0 O21 2.353699 1_655
Na0 O30 2.363294 1_555
Na0 O2 2.387596 1_655
Na0 O9 2.661879 1_655
Na0 O7 2.750986 1_555
Na1 O4 2.300817 1_555
Na1 O22 2.353686 1_655
Na1 O6 2.363294 1_545
Na1 O0 2.387596 1_655
Na1 O4 2.661879 1_655
Na1 O18 2.750986 1_545
Na2 O29 2.326498 1_555
Na2 O24 2.341692 1_555
Na2 O16 2.367273 1_555
Na2 O5 2.382236 1_555
Na3 O13 2.300817 1_555
Na3 O12 2.353699 1_455
Na3 O26 2.363294 1_565
Na3 O7 2.387596 1_455
Na3 O13 2.661879 1_455
Na3 O2 2.750986 1_565
Na4 O8 2.326498 1_555
Na4 O20 2.341692 1_565
Na4 O19 2.367273 1_555
Na4 O28 2.382236 1_555
Na5 O15 2.300817 1_555
Na5 O25 2.353686 1_455
Na5 O31 2.363294 1_555
Na5 O18 2.387596 1_455
Na5 O15 2.661879 1_455
Na5 O0 2.750986 1_555
Na6 O27 2.326498 1_555
Na6 O3 2.341692 1_546
Na6 O23 2.367273 1_556
Na6 O14 2.382236 1_555
Na7 O10 2.326498 1_555
Na7 O17 2.341692 1_556
Na7 O1 2.367273 1_556
Na7 O11 2.382236 1_555
B0 O1 1.477552 1_555
B0 O28 1.486402 1_555
B0 O18 1.491070 1_555
B0 O15 1.501558 1_555
B1 O8 1.478682 1_555
B1 O21 1.481169 1_655
B1 O31 1.489915 1_655
B1 O24 1.492007 1_555
B2 O10 1.478682 1_555
B2 O22 1.481179 1_666
B2 O26 1.489915 1_665
B2 O3 1.492007 1_556
B3 O16 1.477552 1_555
B3 O14 1.486402 1_555
B3 O2 1.491070 1_555
B3 O9 1.501558 1_555
B4 O27 1.478682 1_555
B4 O25 1.481179 1_456
B4 O30 1.489915 1_455
B4 O17 1.492007 1_556
B5 O23 1.477552 1_555
B5 O5 1.486402 1_555
B5 O0 1.491070 1_555
B5 O4 1.501558 1_555
B6 O29 1.478682 1_555
B6 O12 1.481169 1_445
B6 O6 1.489915 1_445
B6 O20 1.492007 1_555
B7 O19 1.477552 1_555
B7 O11 1.486402 1_555
B7 O7 1.491070 1_555
B7 O13 1.501558 1_555
O0 Si2 1.634590 1_455
O1 Si7 1.626142 1_555
O2 Si4 1.634590 1_455
O3 Si7 1.641723 1_555
O4 Si7 1.641246 1_545
O5 Si2 1.633828 1_555
O6 Si3 1.641329 1_655
O7 Si6 1.634590 1_655
O8 Si3 1.633285 1_655
O9 Si5 1.641246 1_555
O10 Si6 1.633285 1_655
O11 Si6 1.633828 1_555
O12 Si0 1.636088 1_565
O13 Si0 1.641246 1_565
O14 Si4 1.633828 1_555
O15 Si1 1.641246 1_555
O16 Si0 1.626142 1_555
O17 Si1 1.641723 1_555
O18 Si3 1.634590 1_655
O19 Si5 1.626142 1_555
O20 Si0 1.641723 1_555
O21 Si5 1.636088 1_555
O22 Si7 1.636084 1_545
O23 Si1 1.626142 1_555
O24 Si5 1.641723 1_555
O25 Si1 1.636084 1_555
O26 Si4 1.641329 1_455
O27 Si4 1.633285 1_455
O28 Si3 1.633828 1_555
O29 Si2 1.633285 1_455
O30 Si6 1.641329 1_655
O31 Si2 1.641329 1_455
