# generated using pymatgen
data_Gd3MgAlS7
_symmetry_space_group_name_H-M   'P 1'
_cell_length_a   9.77476405
_cell_length_b   9.77476405
_cell_length_c   6.18327400
_cell_angle_alpha   90.00000000
_cell_angle_beta   90.00000000
_cell_angle_gamma   120.00000035
_symmetry_Int_Tables_number   1
_chemical_formula_structural   Gd3MgAlS7
_chemical_formula_sum   'Gd6 Mg2 Al2 S14'
_cell_volume   511.63669865
_cell_formula_units_Z   2
loop_
 _symmetry_equiv_pos_site_id
 _symmetry_equiv_pos_as_xyz
  1  'x, y, z'
loop_
 _atom_site_type_symbol
 _atom_site_label
 _atom_site_symmetry_multiplicity
 _atom_site_fract_x
 _atom_site_fract_y
 _atom_site_fract_z
 _atom_site_occupancy
  Gd  Gd0  1  0.61984800  0.84519100  0.26715000  1
  Gd  Gd1  1  0.15480900  0.77465700  0.26715000  1
  Gd  Gd2  1  0.22534300  0.38015200  0.26715000  1
  Gd  Gd3  1  0.38015200  0.15480900  0.76715000  1
  Gd  Gd4  1  0.84519100  0.22534300  0.76715000  1
  Gd  Gd5  1  0.77465700  0.61984800  0.76715000  1
  Mg  Mg0  1  0.00000000  0.00000000  0.44956200  1
  Mg  Mg1  1  0.00000000  0.00000000  0.94956200  1
  Al  Al0  1  0.33333300  0.66666700  0.84608300  1
  Al  Al1  1  0.66666700  0.33333300  0.34608300  1
  S  S0  1  0.75672700  0.89482500  0.68752800  1
  S  S1  1  0.10517500  0.86190200  0.68752800  1
  S  S2  1  0.13809800  0.24327300  0.68752800  1
  S  S3  1  0.24327300  0.10517500  0.18752800  1
  S  S4  1  0.89482500  0.13809800  0.18752800  1
  S  S5  1  0.86190200  0.75672700  0.18752800  1
  S  S6  1  0.47719200  0.56985100  0.99801700  1
  S  S7  1  0.43014900  0.90734100  0.99801700  1
  S  S8  1  0.09265900  0.52280800  0.99801700  1
  S  S9  1  0.52280800  0.43014900  0.49801700  1
  S  S10  1  0.56985100  0.09265900  0.49801700  1
  S  S11  1  0.90734100  0.47719200  0.49801700  1
  S  S12  1  0.33333300  0.66666700  0.48229300  1
  S  S13  1  0.66666700  0.33333300  0.98229300  1
loop_
_geom_bond_atom_site_label_1
_geom_bond_atom_site_label_2
_geom_bond_distance
_geom_bond_site_symmetry_2
Gd0 S7 2.775450 1_554
Gd0 S12 2.787667 1_555
Gd0 S4 2.822877 1_565
Gd0 S0 2.851809 1_555
Gd0 S6 2.864322 1_554
Gd0 S5 2.938384 1_555
Gd0 S10 3.051240 1_565
Gd1 S8 2.775450 1_554
Gd1 S12 2.787661 1_555
Gd1 S5 2.822877 1_455
Gd1 S1 2.851809 1_555
Gd1 S7 2.864322 1_554
Gd1 S3 2.938384 1_565
Gd1 S11 3.051240 1_455
Gd2 S6 2.775450 1_554
Gd2 S12 2.787669 1_555
Gd2 S3 2.822877 1_555
Gd2 S2 2.851809 1_555
Gd2 S8 2.864322 1_554
Gd2 S4 2.938384 1_455
Gd2 S9 3.051240 1_555
Gd3 S10 2.775450 1_555
Gd3 S13 2.787667 1_555
Gd3 S1 2.822877 1_545
Gd3 S3 2.851809 1_556
Gd3 S9 2.864322 1_555
Gd3 S2 2.938384 1_555
Gd3 S7 3.051240 1_545
Gd4 S11 2.775450 1_555
Gd4 S13 2.787661 1_555
Gd4 S2 2.822877 1_655
Gd4 S4 2.851809 1_556
Gd4 S10 2.864322 1_555
Gd4 S0 2.938384 1_545
Gd4 S8 3.051240 1_655
Gd5 S9 2.775450 1_555
Gd5 S13 2.787669 1_555
Gd5 S0 2.822877 1_555
Gd5 S5 2.851809 1_556
Gd5 S11 2.864322 1_555
Gd5 S1 2.938384 1_655
Gd5 S6 3.051240 1_555
Mg0 S2 2.536113 1_555
Mg0 S0 2.536113 1_445
Mg0 S1 2.536113 1_545
Mg0 S5 2.625255 1_445
Mg0 S3 2.625255 1_555
Mg0 S4 2.625255 1_455
Mg1 S5 2.536113 1_446
Mg1 S3 2.536113 1_556
Mg1 S4 2.536113 1_456
Mg1 S2 2.625255 1_555
Mg1 S0 2.625255 1_445
Mg1 S1 2.625255 1_545
Al0 S12 2.249413 1_555
Al0 S7 2.255267 1_555
Al0 S8 2.255268 1_555
Al0 S6 2.255275 1_555
Al1 S13 2.249413 1_554
Al1 S10 2.255267 1_555
Al1 S11 2.255268 1_555
Al1 S9 2.255275 1_555
