# generated using pymatgen
data_Mg(CuO2)2
_symmetry_space_group_name_H-M   'P 1'
_cell_length_a   7.33308276
_cell_length_b   7.33308276
_cell_length_c   8.73006633
_cell_angle_alpha   58.20551467
_cell_angle_beta   58.20551467
_cell_angle_gamma   22.64759687
_symmetry_Int_Tables_number   1
_chemical_formula_structural   Mg(CuO2)2
_chemical_formula_sum   'Mg2 Cu4 O8'
_cell_volume   152.45419049
_cell_formula_units_Z   2
loop_
 _symmetry_equiv_pos_site_id
 _symmetry_equiv_pos_as_xyz
  1  'x, y, z'
loop_
 _atom_site_type_symbol
 _atom_site_label
 _atom_site_symmetry_multiplicity
 _atom_site_fract_x
 _atom_site_fract_y
 _atom_site_fract_z
 _atom_site_occupancy
  Mg  Mg0  1  0.68286500  0.68286500  0.83047100  1
  Mg  Mg1  1  0.31713500  0.31713500  0.16952900  1
  Cu  Cu0  1  0.39237900  0.39237900  0.80971900  1
  Cu  Cu1  1  0.85378600  0.85378600  0.47705800  1
  Cu  Cu2  1  0.14621400  0.14621400  0.52294200  1
  Cu  Cu3  1  0.60762100  0.60762100  0.19028100  1
  O  O0  1  0.13519000  0.13519000  0.30968200  1
  O  O1  1  0.56279500  0.56279500  0.67462200  1
  O  O2  1  0.44321000  0.44321000  0.32907200  1
  O  O3  1  0.86481000  0.86481000  0.69031800  1
  O  O4  1  0.86884400  0.86884400  0.97741400  1
  O  O5  1  0.23496200  0.23496200  0.64238200  1
  O  O6  1  0.13115600  0.13115600  0.02258600  1
  O  O7  1  0.76503800  0.76503800  0.35761800  1
loop_
_geom_bond_atom_site_label_1
_geom_bond_atom_site_label_2
_geom_bond_distance
_geom_bond_site_symmetry_2
Mg0 O5 2.002184 1_655
Mg0 O5 2.002184 1_565
Mg0 O6 2.024557 1_566
Mg0 O6 2.024557 1_656
Mg0 O3 2.214192 1_555
Mg1 O7 2.002184 1_455
Mg1 O7 2.002184 1_545
Mg1 O4 2.024557 1_454
Mg1 O4 2.024557 1_544
Mg1 O0 2.214192 1_555
Cu0 O3 1.939355 1_545
Cu0 O3 1.939355 1_455
Cu0 O4 1.948992 1_455
Cu0 O4 1.948992 1_545
Cu0 O1 2.071406 1_555
Cu1 O2 1.900161 1_565
Cu1 O2 1.900161 1_655
Cu1 O3 1.951544 1_555
Cu1 O7 2.036230 1_555
Cu1 O5 2.103763 1_655
Cu1 O5 2.103763 1_565
Cu2 O1 1.886440 1_455
Cu2 O1 1.886440 1_545
Cu2 O0 1.951544 1_555
Cu2 O5 2.036230 1_555
Cu2 O7 2.103763 1_545
Cu2 O7 2.103763 1_455
Cu3 O0 1.939355 1_655
Cu3 O0 1.939355 1_565
Cu3 O6 1.948992 1_655
Cu3 O6 1.948992 1_565
Cu3 O2 1.994878 1_555
