# generated using pymatgen
data_Sr5Mg
_symmetry_space_group_name_H-M   'P 1'
_cell_length_a   8.55231694
_cell_length_b   8.55231694
_cell_length_c   38.25230600
_cell_angle_alpha   90.00000000
_cell_angle_beta   90.00000000
_cell_angle_gamma   120.00000725
_symmetry_Int_Tables_number   1
_chemical_formula_structural   Sr5Mg
_chemical_formula_sum   'Sr40 Mg8'
_cell_volume   2423.01328320
_cell_formula_units_Z   8
loop_
 _symmetry_equiv_pos_site_id
 _symmetry_equiv_pos_as_xyz
  1  'x, y, z'
loop_
 _atom_site_type_symbol
 _atom_site_label
 _atom_site_symmetry_multiplicity
 _atom_site_fract_x
 _atom_site_fract_y
 _atom_site_fract_z
 _atom_site_occupancy
  Sr  Sr0_0  1  0.16666650  0.33333350  0.43280200  1
  Sr  Sr0_1  1  0.16666650  0.33333350  0.93280200  1
  Sr  Sr0_2  1  0.16666650  0.83333350  0.43280200  1
  Sr  Sr0_3  1  0.16666650  0.83333350  0.93280200  1
  Sr  Sr0_4  1  0.66666650  0.33333350  0.43280200  1
  Sr  Sr0_5  1  0.66666650  0.33333350  0.93280200  1
  Sr  Sr0_6  1  0.66666650  0.83333350  0.43280200  1
  Sr  Sr0_7  1  0.66666650  0.83333350  0.93280200  1
  Sr  Sr1_0  1  0.00000000  0.00000000  0.34077250  1
  Sr  Sr1_1  1  0.00000000  0.00000000  0.84077250  1
  Sr  Sr1_2  1  0.00000000  0.50000000  0.34077250  1
  Sr  Sr1_3  1  0.00000000  0.50000000  0.84077250  1
  Sr  Sr1_4  1  0.50000000  0.00000000  0.34077250  1
  Sr  Sr1_5  1  0.50000000  0.00000000  0.84077250  1
  Sr  Sr1_6  1  0.50000000  0.50000000  0.34077250  1
  Sr  Sr1_7  1  0.50000000  0.50000000  0.84077250  1
  Sr  Sr2_0  1  0.16666650  0.33333350  0.25000000  1
  Sr  Sr2_1  1  0.16666650  0.33333350  0.75000000  1
  Sr  Sr2_2  1  0.16666650  0.83333350  0.25000000  1
  Sr  Sr2_3  1  0.16666650  0.83333350  0.75000000  1
  Sr  Sr2_4  1  0.66666650  0.33333350  0.25000000  1
  Sr  Sr2_5  1  0.66666650  0.33333350  0.75000000  1
  Sr  Sr2_6  1  0.66666650  0.83333350  0.25000000  1
  Sr  Sr2_7  1  0.66666650  0.83333350  0.75000000  1
  Sr  Sr3_0  1  0.00000000  0.00000000  0.15922750  1
  Sr  Sr3_1  1  0.00000000  0.00000000  0.65922750  1
  Sr  Sr3_2  1  0.00000000  0.50000000  0.15922750  1
  Sr  Sr3_3  1  0.00000000  0.50000000  0.65922750  1
  Sr  Sr3_4  1  0.50000000  0.00000000  0.15922750  1
  Sr  Sr3_5  1  0.50000000  0.00000000  0.65922750  1
  Sr  Sr3_6  1  0.50000000  0.50000000  0.15922750  1
  Sr  Sr3_7  1  0.50000000  0.50000000  0.65922750  1
  Sr  Sr4_0  1  0.16666650  0.33333350  0.06719800  1
  Sr  Sr4_1  1  0.16666650  0.33333350  0.56719800  1
  Sr  Sr4_2  1  0.16666650  0.83333350  0.06719800  1
  Sr  Sr4_3  1  0.16666650  0.83333350  0.56719800  1
  Sr  Sr4_4  1  0.66666650  0.33333350  0.06719800  1
  Sr  Sr4_5  1  0.66666650  0.33333350  0.56719800  1
  Sr  Sr4_6  1  0.66666650  0.83333350  0.06719800  1
  Sr  Sr4_7  1  0.66666650  0.83333350  0.56719800  1
  Mg  Mg0_0  1  0.00000000  0.00000000  0.00000000  1
  Mg  Mg0_1  1  0.00000000  0.00000000  0.50000000  1
  Mg  Mg0_2  1  0.00000000  0.50000000  0.00000000  1
  Mg  Mg0_3  1  0.00000000  0.50000000  0.50000000  1
  Mg  Mg0_4  1  0.50000000  0.00000000  0.00000000  1
  Mg  Mg0_5  1  0.50000000  0.00000000  0.50000000  1
  Mg  Mg0_6  1  0.50000000  0.50000000  0.00000000  1
  Mg  Mg0_7  1  0.50000000  0.50000000  0.50000000  1
loop_
_geom_bond_atom_site_label_1
_geom_bond_atom_site_label_2
_geom_bond_distance
_geom_bond_site_symmetry_2
Sr0_0 Sr1_2 4.299763 1_555
Sr0_0 Sr1_0 4.299765 1_555
Sr0_0 Sr1_6 4.299765 1_555
Sr0_1 Sr1_3 4.299763 1_555
Sr0_1 Sr1_7 4.299765 1_555
Sr0_1 Sr1_1 4.299765 1_555
Sr0_2 Sr1_0 4.299763 1_565
Sr0_2 Sr1_4 4.299765 1_565
Sr0_2 Sr1_2 4.299765 1_555
Sr0_3 Sr1_1 4.299763 1_565
Sr0_3 Sr1_3 4.299765 1_555
Sr0_3 Sr1_5 4.299765 1_565
Sr0_4 Sr1_6 4.299763 1_555
Sr0_4 Sr1_4 4.299765 1_555
Sr0_4 Sr1_2 4.299765 1_655
Sr0_5 Sr1_7 4.299763 1_555
Sr0_5 Sr1_3 4.299765 1_655
Sr0_5 Sr1_5 4.299765 1_555
Sr0_6 Sr1_4 4.299763 1_565
Sr0_6 Sr1_0 4.299765 1_665
Sr0_6 Sr1_6 4.299765 1_555
Sr0_7 Sr1_5 4.299763 1_565
Sr0_7 Sr1_7 4.299765 1_555
Sr0_7 Sr1_1 4.299765 1_665
Sr1_0 Sr2_2 4.260486 1_545
Sr1_0 Sr2_6 4.260488 1_445
Sr1_0 Sr2_0 4.260488 1_555
Sr1_0 Sr1_6 4.276158 1_445
Sr1_0 Sr1_6 4.276158 1_555
Sr1_0 Sr1_2 4.276158 1_555
Sr1_0 Sr1_2 4.276158 1_545
Sr1_0 Sr1_4 4.276158 1_455
Sr1_0 Sr1_4 4.276158 1_555
Sr1_1 Sr2_3 4.260486 1_545
Sr1_1 Sr2_7 4.260488 1_445
Sr1_1 Sr2_1 4.260488 1_555
Sr1_1 Sr1_7 4.276158 1_445
Sr1_1 Sr1_7 4.276158 1_555
Sr1_1 Sr1_3 4.276158 1_555
Sr1_1 Sr1_3 4.276158 1_545
Sr1_1 Sr1_5 4.276158 1_555
Sr1_1 Sr1_5 4.276158 1_455
Sr1_2 Sr2_0 4.260486 1_555
Sr1_2 Sr2_2 4.260488 1_555
Sr1_2 Sr2_4 4.260488 1_455
Sr1_2 Sr1_4 4.276158 1_455
Sr1_2 Sr1_4 4.276158 1_565
Sr1_2 Sr1_6 4.276158 1_455
Sr1_2 Sr1_6 4.276158 1_555
Sr1_3 Sr2_1 4.260486 1_555
Sr1_3 Sr2_3 4.260488 1_555
Sr1_3 Sr2_5 4.260488 1_455
Sr1_3 Sr1_5 4.276158 1_455
Sr1_3 Sr1_5 4.276158 1_565
Sr1_3 Sr1_7 4.276158 1_455
Sr1_3 Sr1_7 4.276158 1_555
Sr1_4 Sr2_6 4.260486 1_545
Sr1_4 Sr2_4 4.260488 1_555
Sr1_4 Sr2_2 4.260488 1_545
Sr1_4 Sr1_6 4.276158 1_555
Sr1_4 Sr1_6 4.276158 1_545
Sr1_5 Sr2_7 4.260486 1_545
Sr1_5 Sr2_5 4.260488 1_555
Sr1_5 Sr2_3 4.260488 1_545
Sr1_5 Sr1_7 4.276158 1_555
Sr1_5 Sr1_7 4.276158 1_545
Sr1_6 Sr2_4 4.260486 1_555
Sr1_6 Sr2_0 4.260488 1_555
Sr1_6 Sr2_6 4.260488 1_555
Sr1_7 Sr2_5 4.260486 1_555
Sr1_7 Sr2_7 4.260488 1_555
Sr1_7 Sr2_1 4.260488 1_555
Sr2_0 Sr3_2 4.260486 1_555
Sr2_0 Sr3_6 4.260488 1_555
Sr2_0 Sr3_0 4.260488 1_555
Sr2_0 Sr2_6 4.276158 1_555
Sr2_0 Sr2_6 4.276158 1_445
Sr2_0 Sr2_2 4.276158 1_555
Sr2_0 Sr2_4 4.276158 1_555
Sr2_0 Sr2_4 4.276158 1_455
Sr2_0 Sr2_2 4.276158 1_545
Sr2_1 Sr3_3 4.260486 1_555
Sr2_1 Sr3_7 4.260488 1_555
Sr2_1 Sr3_1 4.260488 1_555
Sr2_1 Sr2_7 4.276158 1_555
Sr2_1 Sr2_7 4.276158 1_445
Sr2_1 Sr2_3 4.276158 1_555
Sr2_1 Sr2_5 4.276158 1_555
Sr2_1 Sr2_5 4.276158 1_455
Sr2_1 Sr2_3 4.276158 1_545
Sr2_2 Sr3_0 4.260486 1_565
Sr2_2 Sr3_4 4.260488 1_565
Sr2_2 Sr3_2 4.260488 1_555
Sr2_2 Sr2_4 4.276158 1_455
Sr2_2 Sr2_4 4.276158 1_565
Sr2_2 Sr2_6 4.276158 1_455
Sr2_2 Sr2_6 4.276158 1_555
Sr2_3 Sr3_1 4.260486 1_565
Sr2_3 Sr3_5 4.260488 1_565
Sr2_3 Sr3_3 4.260488 1_555
Sr2_3 Sr2_5 4.276158 1_565
Sr2_3 Sr2_5 4.276158 1_455
Sr2_3 Sr2_7 4.276158 1_455
Sr2_3 Sr2_7 4.276158 1_555
Sr2_4 Sr3_6 4.260486 1_555
Sr2_4 Sr3_4 4.260488 1_555
Sr2_4 Sr3_2 4.260488 1_655
Sr2_4 Sr2_6 4.276158 1_555
Sr2_4 Sr2_6 4.276158 1_545
Sr2_5 Sr3_7 4.260486 1_555
Sr2_5 Sr3_5 4.260488 1_555
Sr2_5 Sr3_3 4.260488 1_655
Sr2_5 Sr2_7 4.276158 1_555
Sr2_5 Sr2_7 4.276158 1_545
Sr2_6 Sr3_4 4.260486 1_565
Sr2_6 Sr3_6 4.260488 1_555
Sr2_6 Sr3_0 4.260488 1_665
Sr2_7 Sr3_5 4.260486 1_565
Sr2_7 Sr3_7 4.260488 1_555
Sr2_7 Sr3_1 4.260488 1_665
Sr3_0 Sr3_6 4.276158 1_445
Sr3_0 Sr3_6 4.276158 1_555
Sr3_0 Sr3_2 4.276158 1_555
Sr3_0 Sr3_4 4.276158 1_555
Sr3_0 Sr3_4 4.276158 1_455
Sr3_0 Sr3_2 4.276158 1_545
Sr3_0 Sr4_2 4.299763 1_545
Sr3_0 Sr4_0 4.299765 1_555
Sr3_0 Sr4_6 4.299765 1_445
Sr3_1 Sr3_7 4.276158 1_445
Sr3_1 Sr3_7 4.276158 1_555
Sr3_1 Sr3_3 4.276158 1_555
Sr3_1 Sr3_5 4.276158 1_555
Sr3_1 Sr3_3 4.276158 1_545
Sr3_1 Sr3_5 4.276158 1_455
Sr3_1 Sr4_3 4.299763 1_545
Sr3_1 Sr4_1 4.299765 1_555
Sr3_1 Sr4_7 4.299765 1_445
Sr3_2 Sr3_4 4.276158 1_565
Sr3_2 Sr3_4 4.276158 1_455
Sr3_2 Sr3_6 4.276158 1_455
Sr3_2 Sr3_6 4.276158 1_555
Sr3_2 Sr4_0 4.299763 1_555
Sr3_2 Sr4_2 4.299765 1_555
Sr3_2 Sr4_4 4.299765 1_455
Sr3_3 Sr3_5 4.276158 1_455
Sr3_3 Sr3_5 4.276158 1_565
Sr3_3 Sr3_7 4.276158 1_455
Sr3_3 Sr3_7 4.276158 1_555
Sr3_3 Sr4_1 4.299763 1_555
Sr3_3 Sr4_3 4.299765 1_555
Sr3_3 Sr4_5 4.299765 1_455
Sr3_4 Sr3_6 4.276158 1_555
Sr3_4 Sr3_6 4.276158 1_545
Sr3_4 Sr4_6 4.299763 1_545
Sr3_4 Sr4_4 4.299765 1_555
Sr3_4 Sr4_2 4.299765 1_545
Sr3_5 Sr3_7 4.276158 1_555
Sr3_5 Sr3_7 4.276158 1_545
Sr3_5 Sr4_7 4.299763 1_545
Sr3_5 Sr4_5 4.299765 1_555
Sr3_5 Sr4_3 4.299765 1_545
Sr3_6 Sr4_4 4.299763 1_555
Sr3_6 Sr4_0 4.299765 1_555
Sr3_6 Sr4_6 4.299765 1_555
Sr3_7 Sr4_5 4.299763 1_555
Sr3_7 Sr4_7 4.299765 1_555
Sr3_7 Sr4_1 4.299765 1_555
Mg0_0 Sr0_3 3.564060 1_544
Mg0_0 Sr4_2 3.564060 1_545
Mg0_0 Sr0_1 3.564063 1_554
Mg0_0 Sr0_7 3.564063 1_444
Mg0_0 Sr4_0 3.564063 1_555
Mg0_0 Sr4_6 3.564063 1_445
Mg0_1 Sr4_3 3.564060 1_545
Mg0_1 Sr0_2 3.564060 1_545
Mg0_1 Sr0_0 3.564063 1_555
Mg0_1 Sr0_6 3.564063 1_445
Mg0_1 Sr4_1 3.564063 1_555
Mg0_1 Sr4_7 3.564063 1_445
Mg0_2 Sr0_1 3.564060 1_554
Mg0_2 Sr4_0 3.564060 1_555
Mg0_2 Sr0_3 3.564063 1_554
Mg0_2 Sr4_2 3.564063 1_555
Mg0_2 Sr4_4 3.564063 1_455
Mg0_2 Sr0_5 3.564063 1_454
Mg0_3 Sr0_0 3.564060 1_555
Mg0_3 Sr4_1 3.564060 1_555
Mg0_3 Sr0_2 3.564063 1_555
Mg0_3 Sr4_3 3.564063 1_555
Mg0_3 Sr4_5 3.564063 1_455
Mg0_3 Sr0_4 3.564063 1_455
Mg0_4 Sr0_7 3.564060 1_544
Mg0_4 Sr4_6 3.564060 1_545
Mg0_4 Sr0_3 3.564063 1_544
Mg0_4 Sr0_5 3.564063 1_554
Mg0_4 Sr4_4 3.564063 1_555
Mg0_4 Sr4_2 3.564063 1_545
Mg0_5 Sr0_6 3.564060 1_545
Mg0_5 Sr4_7 3.564060 1_545
Mg0_5 Sr4_3 3.564063 1_545
Mg0_5 Sr0_4 3.564063 1_555
Mg0_5 Sr0_2 3.564063 1_545
Mg0_5 Sr4_5 3.564063 1_555
Mg0_6 Sr0_5 3.564060 1_554
Mg0_6 Sr4_4 3.564060 1_555
Mg0_6 Sr0_7 3.564063 1_554
Mg0_6 Sr4_6 3.564063 1_555
Mg0_6 Sr0_1 3.564063 1_554
Mg0_6 Sr4_0 3.564063 1_555
Mg0_7 Sr0_4 3.564060 1_555
Mg0_7 Sr4_5 3.564060 1_555
Mg0_7 Sr0_6 3.564063 1_555
Mg0_7 Sr4_7 3.564063 1_555
Mg0_7 Sr0_0 3.564063 1_555
Mg0_7 Sr4_1 3.564063 1_555
