# generated using pymatgen
data_Pr5Sn3Au
_symmetry_space_group_name_H-M   'P 1'
_cell_length_a   9.57744042
_cell_length_b   9.57743990
_cell_length_c   6.91739107
_cell_angle_alpha   90.00000000
_cell_angle_beta   90.00000000
_cell_angle_gamma   120.00002655
_symmetry_Int_Tables_number   1
_chemical_formula_structural   Pr5Sn3Au
_chemical_formula_sum   'Pr10 Sn6 Au2'
_cell_volume   549.50511473
_cell_formula_units_Z   2
loop_
 _symmetry_equiv_pos_site_id
 _symmetry_equiv_pos_as_xyz
  1  'x, y, z'
loop_
 _atom_site_type_symbol
 _atom_site_label
 _atom_site_symmetry_multiplicity
 _atom_site_fract_x
 _atom_site_fract_y
 _atom_site_fract_z
 _atom_site_occupancy
  Pr  Pr0  1  0.26813519  -0.00007418  0.75000000  1
  Pr  Pr1  1  0.73179063  -0.00007418  0.25000000  1
  Pr  Pr2  1  0.00007418  0.26820937  0.75000000  1
  Pr  Pr3  1  0.00007418  0.73186481  0.25000000  1
  Pr  Pr4  1  0.73179063  0.73186481  0.75000000  1
  Pr  Pr5  1  0.26813519  0.26820937  0.25000000  1
  Pr  Pr6  1  0.33333300  0.66666700  0.50000000  1
  Pr  Pr7  1  0.66666700  0.33333300  0.50000000  1
  Pr  Pr8  1  0.66666700  0.33333300  -0.00000000  1
  Pr  Pr9  1  0.33333300  0.66666700  0.00000000  1
  Sn  Sn0  1  0.61579105  0.00009374  0.75000000  1
  Sn  Sn1  1  0.38430169  0.00009374  0.25000000  1
  Sn  Sn2  1  -0.00009374  0.61569831  0.75000000  1
  Sn  Sn3  1  -0.00009374  0.38420795  0.25000000  1
  Sn  Sn4  1  0.38430169  0.38420795  0.75000000  1
  Sn  Sn5  1  0.61579105  0.61569831  0.25000000  1
  Au  Au0  1  -0.00000000  -0.00000000  0.50000000  1
  Au  Au1  1  -0.00000000  -0.00000000  0.00000000  1
loop_
_geom_bond_atom_site_label_1
_geom_bond_atom_site_label_2
_geom_bond_distance
_geom_bond_site_symmetry_2
Pr0 Sn2 3.269213 1_545
Pr0 Sn4 3.269355 1_555
Pr0 Sn0 3.328849 1_555
Pr0 Sn1 3.632990 1_555
Pr0 Sn1 3.632990 1_556
Pr0 Pr9 3.944738 1_546
Pr0 Pr6 3.944738 1_545
Pr0 Pr7 3.945604 1_555
Pr0 Pr8 3.945604 1_556
Pr1 Sn5 3.269211 1_545
Pr1 Sn3 3.269354 1_655
Pr1 Sn1 3.328859 1_555
Pr1 Sn0 3.632993 1_555
Pr1 Sn0 3.632993 1_554
Pr1 Pr9 3.944742 1_545
Pr1 Pr6 3.944742 1_545
Pr1 Pr8 3.945600 1_555
Pr1 Pr7 3.945600 1_555
Pr2 Sn4 3.269214 1_555
Pr2 Sn0 3.269362 1_455
Pr2 Sn2 3.328859 1_555
Pr2 Sn3 3.632990 1_556
Pr2 Sn3 3.632990 1_555
Pr2 Pr6 3.944742 1_555
Pr2 Pr9 3.944742 1_556
Pr2 Pr8 3.945600 1_456
Pr2 Pr7 3.945600 1_455
Pr3 Sn1 3.269213 1_565
Pr3 Sn5 3.269364 1_455
Pr3 Sn3 3.328859 1_555
Pr3 Sn2 3.632990 1_554
Pr3 Sn2 3.632990 1_555
Pr3 Pr9 3.944738 1_555
Pr3 Pr6 3.944738 1_555
Pr3 Pr7 3.945604 1_455
Pr3 Pr8 3.945604 1_455
Pr4 Sn0 3.269221 1_565
Pr4 Sn2 3.269356 1_655
Pr4 Sn4 3.328858 1_555
Pr4 Sn5 3.632991 1_556
Pr4 Sn5 3.632991 1_555
Pr4 Pr9 3.944746 1_556
Pr4 Pr6 3.944746 1_555
Pr4 Pr8 3.945608 1_556
Pr4 Pr7 3.945608 1_555
Pr5 Sn3 3.269214 1_555
Pr5 Sn1 3.269356 1_555
Pr5 Sn5 3.328853 1_555
Pr5 Sn4 3.632990 1_554
Pr5 Sn4 3.632990 1_555
Pr5 Pr9 3.944746 1_555
Pr5 Pr6 3.944746 1_555
Pr5 Pr7 3.945608 1_555
Pr5 Pr8 3.945608 1_555
Pr6 Sn0 3.444956 1_565
Pr6 Sn1 3.444957 1_565
Pr6 Sn2 3.444957 1_555
Pr6 Sn5 3.444958 1_555
Pr6 Sn3 3.444959 1_555
Pr6 Sn4 3.444966 1_555
Pr6 Pr9 3.458696 1_556
Pr6 Pr9 3.458696 1_555
Pr7 Sn0 3.443706 1_555
Pr7 Sn3 3.443709 1_655
Pr7 Sn1 3.443711 1_555
Pr7 Sn2 3.443711 1_655
Pr7 Sn4 3.443718 1_555
Pr7 Sn5 3.443723 1_555
Pr7 Pr8 3.458696 1_556
Pr7 Pr8 3.458696 1_555
Pr8 Sn0 3.443706 1_554
Pr8 Sn3 3.443709 1_655
Pr8 Sn1 3.443711 1_555
Pr8 Sn2 3.443711 1_654
Pr8 Sn4 3.443718 1_554
Pr8 Sn5 3.443723 1_555
Pr9 Sn0 3.444956 1_564
Pr9 Sn1 3.444957 1_565
Pr9 Sn2 3.444957 1_554
Pr9 Sn5 3.444958 1_555
Pr9 Sn3 3.444959 1_555
Pr9 Sn4 3.444966 1_554
Au0 Pr5 3.096343 1_555
Au0 Pr4 3.096343 1_445
Au0 Pr2 3.096343 1_555
Au0 Pr3 3.096343 1_545
Au0 Pr1 3.096344 1_455
Au0 Pr0 3.096344 1_555
Au1 Pr5 3.096343 1_555
Au1 Pr4 3.096343 1_444
Au1 Pr2 3.096343 1_554
Au1 Pr3 3.096343 1_545
Au1 Pr1 3.096344 1_455
Au1 Pr0 3.096344 1_554
