# generated using pymatgen
data_As2Pd5
_symmetry_space_group_name_H-M   'P 1'
_cell_length_a   7.35368592
_cell_length_b   7.35368592
_cell_length_c   13.81772511
_cell_angle_alpha   90.00000000
_cell_angle_beta   90.00000000
_cell_angle_gamma   119.99999373
_symmetry_Int_Tables_number   1
_chemical_formula_structural   As2Pd5
_chemical_formula_sum   'As12 Pd30'
_cell_volume   647.10888378
_cell_formula_units_Z   6
loop_
 _symmetry_equiv_pos_site_id
 _symmetry_equiv_pos_as_xyz
  1  'x, y, z'
loop_
 _atom_site_type_symbol
 _atom_site_label
 _atom_site_symmetry_multiplicity
 _atom_site_fract_x
 _atom_site_fract_y
 _atom_site_fract_z
 _atom_site_occupancy
  As  As0  1  0.66666700  0.33333300  0.55288992  1
  As  As1  1  0.33333300  0.66666700  0.05288992  1
  As  As2  1  0.66666700  0.33333300  0.05288992  1
  As  As3  1  0.33333300  0.66666700  0.55288992  1
  As  As4  1  0.67333028  0.67333028  0.78264309  1
  As  As5  1  -0.00000000  0.32666972  0.78264309  1
  As  As6  1  0.32666972  0.32666972  0.28264309  1
  As  As7  1  0.00000000  0.67333028  0.28264309  1
  As  As8  1  0.32666972  -0.00000000  0.78264309  1
  As  As9  1  0.67333028  0.00000000  0.28264309  1
  As  As10  1  0.00000000  -0.00000000  0.01261351  1
  As  As11  1  0.00000000  -0.00000000  0.51261351  1
  Pd  Pd0  1  0.66666700  0.33333300  0.84036547  1
  Pd  Pd1  1  0.33333300  0.66666700  0.34036547  1
  Pd  Pd2  1  0.66666700  0.33333300  0.34036547  1
  Pd  Pd3  1  0.33333300  0.66666700  0.84036547  1
  Pd  Pd4  1  0.70398441  0.70398441  0.58894618  1
  Pd  Pd5  1  -0.00000000  0.29601559  0.58894618  1
  Pd  Pd6  1  0.29601559  0.29601559  0.08894618  1
  Pd  Pd7  1  0.00000000  0.70398441  0.08894618  1
  Pd  Pd8  1  0.29601559  -0.00000000  0.58894618  1
  Pd  Pd9  1  0.70398441  0.00000000  0.08894618  1
  Pd  Pd10  1  0.76014840  0.76014840  0.38215712  1
  Pd  Pd11  1  -0.00000000  0.23985160  0.38215712  1
  Pd  Pd12  1  0.23985160  0.23985160  0.88215712  1
  Pd  Pd13  1  0.00000000  0.76014840  0.88215712  1
  Pd  Pd14  1  0.23985160  -0.00000000  0.38215712  1
  Pd  Pd15  1  0.76014840  0.00000000  0.88215712  1
  Pd  Pd16  1  0.38709253  0.38709253  0.69421620  1
  Pd  Pd17  1  -0.00000000  0.61290747  0.69421620  1
  Pd  Pd18  1  0.61290747  0.61290747  0.19421620  1
  Pd  Pd19  1  0.00000000  0.38709253  0.19421620  1
  Pd  Pd20  1  0.61290747  -0.00000000  0.69421620  1
  Pd  Pd21  1  0.38709253  0.00000000  0.19421620  1
  Pd  Pd22  1  0.00000000  -0.00000000  0.71583252  1
  Pd  Pd23  1  0.00000000  -0.00000000  0.21583252  1
  Pd  Pd24  1  0.60238021  0.60238021  0.97471748  1
  Pd  Pd25  1  0.00000000  0.39761979  0.97471748  1
  Pd  Pd26  1  0.39761979  0.39761979  0.47471748  1
  Pd  Pd27  1  -0.00000000  0.60238021  0.47471748  1
  Pd  Pd28  1  0.39761979  0.00000000  0.97471748  1
  Pd  Pd29  1  0.60238021  -0.00000000  0.47471748  1
loop_
_geom_bond_atom_site_label_1
_geom_bond_atom_site_label_2
_geom_bond_distance
_geom_bond_site_symmetry_2
As0 Pd29 2.497989 1_555
As0 Pd27 2.497992 1_655
As0 Pd26 2.497996 1_555
As0 Pd5 2.646640 1_655
As0 Pd8 2.646644 1_555
As0 Pd4 2.646647 1_555
As0 Pd2 2.936604 1_555
As0 Pd20 3.001534 1_555
As0 Pd17 3.001537 1_655
As0 Pd16 3.001540 1_555
As1 Pd28 2.497989 1_564
As1 Pd25 2.497992 1_554
As1 Pd24 2.497996 1_554
As1 Pd7 2.646640 1_555
As1 Pd9 2.646644 1_565
As1 Pd6 2.646647 1_555
As1 Pd3 2.936604 1_554
As1 Pd21 3.001534 1_565
As1 Pd19 3.001537 1_555
As1 Pd18 3.001540 1_555
As2 Pd25 2.497989 1_654
As2 Pd28 2.497992 1_554
As2 Pd24 2.497996 1_554
As2 Pd9 2.646640 1_555
As2 Pd7 2.646644 1_655
As2 Pd6 2.646647 1_555
As2 Pd0 2.936604 1_554
As2 Pd19 3.001534 1_655
As2 Pd21 3.001537 1_555
As2 Pd18 3.001540 1_555
As3 Pd27 2.497989 1_555
As3 Pd29 2.497992 1_565
As3 Pd26 2.497996 1_555
As3 Pd8 2.646640 1_565
As3 Pd5 2.646644 1_555
As3 Pd4 2.646647 1_555
As3 Pd1 2.936604 1_555
As3 Pd17 3.001534 1_555
As3 Pd20 3.001537 1_565
As3 Pd16 3.001540 1_555
As4 Pd16 2.433835 1_555
As4 Pd15 2.556445 1_565
As4 Pd13 2.556445 1_655
As4 Pd22 2.573507 1_665
As4 Pd0 2.601386 1_555
As4 Pd3 2.601386 1_555
As4 Pd4 2.685927 1_555
As4 Pd24 2.704829 1_555
As4 Pd20 2.920350 1_565
As4 Pd17 2.920350 1_655
As5 Pd17 2.433835 1_555
As5 Pd12 2.556445 1_555
As5 Pd15 2.556445 1_455
As5 Pd22 2.573506 1_555
As5 Pd0 2.601379 1_455
As5 Pd3 2.601383 1_555
As5 Pd5 2.685927 1_555
As5 Pd25 2.704829 1_555
As5 Pd16 2.920350 1_555
As5 Pd20 2.920350 1_455
As6 Pd18 2.433835 1_555
As6 Pd11 2.556445 1_555
As6 Pd14 2.556445 1_555
As6 Pd23 2.573507 1_555
As6 Pd2 2.601386 1_555
As6 Pd1 2.601386 1_555
As6 Pd6 2.685927 1_555
As6 Pd26 2.704829 1_555
As6 Pd19 2.920350 1_555
As6 Pd21 2.920350 1_555
As7 Pd19 2.433835 1_555
As7 Pd10 2.556445 1_455
As7 Pd14 2.556445 1_565
As7 Pd23 2.573506 1_565
As7 Pd1 2.601379 1_555
As7 Pd2 2.601383 1_455
As7 Pd7 2.685927 1_555
As7 Pd27 2.704829 1_555
As7 Pd18 2.920350 1_455
As7 Pd21 2.920350 1_565
As8 Pd20 2.433835 1_555
As8 Pd12 2.556445 1_555
As8 Pd13 2.556445 1_545
As8 Pd22 2.573506 1_555
As8 Pd3 2.601379 1_545
As8 Pd0 2.601383 1_555
As8 Pd8 2.685927 1_555
As8 Pd28 2.704829 1_555
As8 Pd16 2.920350 1_555
As8 Pd17 2.920350 1_545
As9 Pd21 2.433835 1_555
As9 Pd10 2.556445 1_545
As9 Pd11 2.556445 1_655
As9 Pd23 2.573506 1_655
As9 Pd2 2.601379 1_555
As9 Pd1 2.601383 1_545
As9 Pd9 2.685927 1_555
As9 Pd29 2.704829 1_555
As9 Pd18 2.920350 1_545
As9 Pd19 2.920350 1_655
As10 Pd9 2.418877 1_455
As10 Pd7 2.418877 1_545
As10 Pd6 2.418878 1_555
As10 Pd13 2.521978 1_544
As10 Pd15 2.521978 1_454
As10 Pd12 2.521978 1_554
As10 Pd23 2.808024 1_555
As10 Pd28 2.970489 1_554
As10 Pd25 2.970489 1_554
As10 Pd24 2.970489 1_444
As11 Pd5 2.418877 1_555
As11 Pd8 2.418877 1_555
As11 Pd4 2.418878 1_445
As11 Pd11 2.521978 1_555
As11 Pd14 2.521978 1_555
As11 Pd10 2.521978 1_445
As11 Pd22 2.808024 1_555
As11 Pd29 2.970489 1_455
As11 Pd27 2.970489 1_545
As11 Pd26 2.970489 1_555
Pd0 Pd15 2.915406 1_555
Pd0 Pd13 2.915411 1_655
Pd0 Pd12 2.915413 1_555
Pd0 Pd25 2.918828 1_655
Pd0 Pd28 2.918830 1_555
Pd0 Pd24 2.918834 1_555
Pd0 Pd20 3.045313 1_555
Pd0 Pd17 3.045315 1_655
Pd0 Pd16 3.045318 1_555
Pd1 Pd14 2.915406 1_565
Pd1 Pd11 2.915411 1_555
Pd1 Pd10 2.915413 1_555
Pd1 Pd27 2.918828 1_555
Pd1 Pd29 2.918830 1_565
Pd1 Pd26 2.918834 1_555
Pd1 Pd21 3.045313 1_565
Pd1 Pd19 3.045315 1_555
Pd1 Pd18 3.045318 1_555
Pd2 Pd29 2.918828 1_555
Pd2 Pd27 2.918830 1_655
Pd2 Pd26 2.918834 1_555
Pd2 Pd21 3.045315 1_555
Pd10 Pd29 2.852905 1_565
Pd10 Pd27 2.852905 1_655
Pd10 Pd4 2.887049 1_555
Pd10 Pd23 2.897036 1_665
Pd10 Pd2 2.915413 1_555
Pd10 Pd26 2.956842 1_555
Pd11 Pd26 2.852905 1_555
Pd11 Pd29 2.852905 1_455
Pd11 Pd5 2.887049 1_555
Pd11 Pd23 2.897036 1_555
Pd11 Pd2 2.915406 1_455
Pd11 Pd27 2.956841 1_555
Pd12 Pd25 2.852905 1_555
Pd12 Pd28 2.852905 1_555
Pd12 Pd6 2.887049 1_556
Pd12 Pd22 2.897036 1_555
Pd12 Pd3 2.915413 1_555
Pd12 Pd24 2.956842 1_555
Pd13 Pd24 2.852905 1_455
Pd13 Pd28 2.852905 1_565
Pd13 Pd7 2.887049 1_556
Pd13 Pd22 2.897036 1_565
Pd13 Pd3 2.915406 1_555
Pd13 Pd25 2.956841 1_555
Pd14 Pd26 2.852905 1_555
Pd14 Pd27 2.852905 1_545
Pd14 Pd8 2.887049 1_555
Pd14 Pd23 2.897036 1_555
Pd14 Pd2 2.915411 1_555
Pd14 Pd29 2.956841 1_555
Pd15 Pd24 2.852905 1_545
Pd15 Pd25 2.852905 1_655
Pd15 Pd9 2.887049 1_556
Pd15 Pd22 2.897036 1_655
Pd15 Pd3 2.915411 1_545
Pd15 Pd28 2.956841 1_555
Pd16 Pd4 2.747043 1_555
Pd16 Pd22 2.862185 1_555
Pd16 Pd8 2.959866 1_555
Pd16 Pd5 2.959866 1_555
Pd16 Pd26 3.033961 1_555
Pd16 Pd3 3.045318 1_555
Pd17 Pd5 2.747043 1_555
Pd17 Pd22 2.862185 1_565
Pd17 Pd4 2.959866 1_455
Pd17 Pd8 2.959866 1_565
Pd17 Pd27 3.033961 1_555
Pd17 Pd3 3.045313 1_555
Pd18 Pd6 2.747043 1_555
Pd18 Pd23 2.862185 1_665
Pd18 Pd9 2.959866 1_565
Pd18 Pd7 2.959866 1_655
Pd18 Pd24 3.033961 1_554
Pd18 Pd2 3.045318 1_555
Pd19 Pd7 2.747043 1_555
Pd19 Pd23 2.862185 1_555
Pd19 Pd6 2.959866 1_555
Pd19 Pd9 2.959866 1_455
Pd19 Pd25 3.033961 1_554
Pd19 Pd2 3.045313 1_455
Pd20 Pd8 2.747043 1_555
Pd20 Pd22 2.862185 1_655
Pd20 Pd4 2.959866 1_545
Pd20 Pd5 2.959866 1_655
Pd20 Pd29 3.033961 1_555
Pd20 Pd3 3.045315 1_545
Pd21 Pd9 2.747043 1_555
Pd21 Pd23 2.862185 1_555
Pd21 Pd6 2.959866 1_555
Pd21 Pd7 2.959866 1_545
Pd21 Pd28 3.033961 1_554
Pd22 Pd5 2.795081 1_555
Pd22 Pd8 2.795081 1_555
Pd22 Pd4 2.795081 1_445
Pd23 Pd9 2.795081 1_455
Pd23 Pd7 2.795081 1_545
Pd23 Pd6 2.795081 1_555
Pd24 Pd6 2.750797 1_556
Pd24 Pd3 2.918834 1_555
Pd24 Pd9 3.068299 1_566
Pd24 Pd7 3.068299 1_656
Pd25 Pd7 2.750797 1_556
Pd25 Pd3 2.918830 1_555
Pd25 Pd6 3.068299 1_556
Pd25 Pd9 3.068299 1_456
Pd26 Pd4 2.750797 1_555
Pd26 Pd8 3.068299 1_555
Pd26 Pd5 3.068299 1_555
Pd27 Pd5 2.750797 1_555
Pd27 Pd4 3.068299 1_455
Pd27 Pd8 3.068299 1_565
Pd28 Pd9 2.750797 1_556
Pd28 Pd3 2.918828 1_545
Pd28 Pd6 3.068299 1_556
Pd28 Pd7 3.068299 1_546
Pd29 Pd8 2.750797 1_555
Pd29 Pd4 3.068299 1_545
Pd29 Pd5 3.068299 1_655
