# generated using pymatgen
data_Ba2VTe4HO13
_symmetry_space_group_name_H-M   'P 1'
_cell_length_a   11.02033500
_cell_length_b   7.43893300
_cell_length_c   19.34415110
_cell_angle_alpha   90.00000000
_cell_angle_beta   119.78544894
_cell_angle_gamma   90.00000000
_symmetry_Int_Tables_number   1
_chemical_formula_structural   Ba2VTe4HO13
_chemical_formula_sum   'Ba8 V4 Te16 H4 O52'
_cell_volume   1376.32381297
_cell_formula_units_Z   4
loop_
 _symmetry_equiv_pos_site_id
 _symmetry_equiv_pos_as_xyz
  1  'x, y, z'
loop_
 _atom_site_type_symbol
 _atom_site_label
 _atom_site_symmetry_multiplicity
 _atom_site_fract_x
 _atom_site_fract_y
 _atom_site_fract_z
 _atom_site_occupancy
  Ba  Ba0  1  0.05079000  0.26818000  0.30378400  1
  Ba  Ba1  1  0.05079000  0.23182000  0.80378400  1
  Ba  Ba2  1  0.94921000  0.73182000  0.69621600  1
  Ba  Ba3  1  0.94921000  0.76818000  0.19621600  1
  Ba  Ba4  1  0.92689600  0.23528800  0.03650600  1
  Ba  Ba5  1  0.92689600  0.26471200  0.53650600  1
  Ba  Ba6  1  0.07310400  0.76471200  0.96349400  1
  Ba  Ba7  1  0.07310400  0.73528800  0.46349400  1
  V  V0  1  0.51258000  0.74994300  0.10587600  1
  V  V1  1  0.51258000  0.75005700  0.60587600  1
  V  V2  1  0.48742000  0.25005700  0.89412400  1
  V  V3  1  0.48742000  0.24994300  0.39412400  1
  Te  Te0  1  0.65946100  0.14816000  0.10524300  1
  Te  Te1  1  0.65946100  0.35184000  0.60524300  1
  Te  Te2  1  0.34053900  0.85184000  0.89475700  1
  Te  Te3  1  0.34053900  0.64816000  0.39475700  1
  Te  Te4  1  0.73680400  0.01997600  0.31282200  1
  Te  Te5  1  0.73680400  0.48002400  0.81282200  1
  Te  Te6  1  0.26319600  0.98002400  0.68717800  1
  Te  Te7  1  0.26319600  0.51997600  0.18717800  1
  Te  Te8  1  0.69431300  0.48256600  0.28149300  1
  Te  Te9  1  0.69431300  0.01743400  0.78149300  1
  Te  Te10  1  0.30568700  0.51743400  0.71850700  1
  Te  Te11  1  0.30568700  0.98256600  0.21850700  1
  Te  Te12  1  0.74106000  0.76736000  0.46673500  1
  Te  Te13  1  0.74106000  0.73264000  0.96673500  1
  Te  Te14  1  0.25894000  0.23264000  0.53326500  1
  Te  Te15  1  0.25894000  0.26736000  0.03326500  1
  H  H0  1  0.68023500  0.96334900  0.55339200  1
  H  H1  1  0.68023500  0.53665100  0.05339200  1
  H  H2  1  0.31976500  0.03665100  0.44660800  1
  H  H3  1  0.31976500  0.46334900  0.94660800  1
  O  O0  1  0.85259900  0.15064100  0.14946100  1
  O  O1  1  0.85259900  0.34935900  0.64946100  1
  O  O2  1  0.14740100  0.84935900  0.85053900  1
  O  O3  1  0.14740100  0.65064100  0.35053900  1
  O  O4  1  0.64956800  0.88502000  0.09742000  1
  O  O5  1  0.64956800  0.61498000  0.59742000  1
  O  O6  1  0.35043200  0.11498000  0.90258000  1
  O  O7  1  0.35043200  0.38502000  0.40258000  1
  O  O8  1  0.64449500  0.15800200  0.20016200  1
  O  O9  1  0.64449500  0.34199800  0.70016200  1
  O  O10  1  0.35550500  0.84199800  0.79983800  1
  O  O11  1  0.35550500  0.65800200  0.29983800  1
  O  O12  1  0.90119400  0.95969000  0.31339100  1
  O  O13  1  0.90119400  0.54031000  0.81339100  1
  O  O14  1  0.09880600  0.04031000  0.68660900  1
  O  O15  1  0.09880600  0.45969000  0.18660900  1
  O  O16  1  0.79420900  0.26580700  0.35429000  1
  O  O17  1  0.79420900  0.23419300  0.85429000  1
  O  O18  1  0.20579100  0.73419300  0.64571000  1
  O  O19  1  0.20579100  0.76580700  0.14571000  1
  O  O20  1  0.77531100  0.63661800  0.37298700  1
  O  O21  1  0.77531100  0.86338200  0.87298700  1
  O  O22  1  0.22468900  0.36338200  0.62701300  1
  O  O23  1  0.22468900  0.13661800  0.12701300  1
  O  O24  1  0.83413700  0.51754800  0.25541000  1
  O  O25  1  0.83413700  0.98245200  0.75541000  1
  O  O26  1  0.16586300  0.48245200  0.74459000  1
  O  O27  1  0.16586300  0.01754800  0.24459000  1
  O  O28  1  0.83083800  0.95976400  0.43927100  1
  O  O29  1  0.83083800  0.54023600  0.93927100  1
  O  O30  1  0.16916200  0.04023600  0.56072900  1
  O  O31  1  0.16916200  0.45976400  0.06072900  1
  O  O32  1  0.77238900  0.93865100  0.55817400  1
  O  O33  1  0.77238900  0.56134900  0.05817400  1
  O  O34  1  0.22761100  0.06134900  0.44182600  1
  O  O35  1  0.22761100  0.43865100  0.94182600  1
  O  O36  1  0.90212600  0.64502000  0.53806300  1
  O  O37  1  0.90212600  0.85498000  0.03806300  1
  O  O38  1  0.09787400  0.35498000  0.46193700  1
  O  O39  1  0.09787400  0.14502000  0.96193700  1
  O  O40  1  0.54982800  0.75266600  0.20408800  1
  O  O41  1  0.54982800  0.74733400  0.70408800  1
  O  O42  1  0.45017200  0.24733400  0.79591200  1
  O  O43  1  0.45017200  0.25266600  0.29591200  1
  O  O44  1  0.35488300  0.84783400  0.03888600  1
  O  O45  1  0.35488300  0.65216600  0.53888600  1
  O  O46  1  0.64511700  0.15216600  0.96111400  1
  O  O47  1  0.64511700  0.34783400  0.46111400  1
  O  O48  1  0.52445500  0.53491700  0.08193100  1
  O  O49  1  0.52445500  0.96508300  0.58193100  1
  O  O50  1  0.47554500  0.46508300  0.91806900  1
  O  O51  1  0.47554500  0.03491700  0.41806900  1
loop_
_geom_bond_atom_site_label_1
_geom_bond_atom_site_label_2
_geom_bond_distance
_geom_bond_site_symmetry_2
Ba0 O24 2.792431 1_455
Ba0 O27 2.799666 1_555
Ba0 O0 2.822908 1_455
Ba0 O34 2.850496 1_555
Ba0 O12 2.884973 1_445
Ba0 O38 2.910081 1_555
Ba0 O15 2.939200 1_555
Ba0 O7 3.007028 1_555
Ba0 O3 3.014876 1_555
Ba1 O25 2.792431 1_445
Ba1 O26 2.799666 1_555
Ba1 O1 2.822908 1_455
Ba1 O35 2.850496 1_555
Ba1 O13 2.884973 1_455
Ba1 O39 2.910081 1_555
Ba1 O14 2.939200 1_555
Ba1 O6 3.007028 1_555
Ba1 O2 3.014876 1_545
Ba2 O26 2.792431 1_655
Ba2 O25 2.799666 1_555
Ba2 O2 2.822908 1_655
Ba2 O32 2.850496 1_555
Ba2 O14 2.884973 1_665
Ba2 O36 2.910081 1_555
Ba2 O13 2.939200 1_555
Ba2 O5 3.007028 1_555
Ba2 O1 3.014876 1_555
Ba3 O27 2.792431 1_665
Ba3 O24 2.799666 1_555
Ba3 O3 2.822908 1_655
Ba3 O33 2.850496 1_555
Ba3 O15 2.884973 1_655
Ba3 O37 2.910081 1_555
Ba3 O12 2.939200 1_555
Ba3 O4 3.007028 1_555
Ba3 O0 3.014876 1_565
Ba4 O0 2.760187 1_555
Ba4 O46 2.766368 1_554
Ba4 O29 2.797559 1_554
Ba4 O37 2.843821 1_545
Ba4 O23 2.943755 1_655
Ba4 O39 2.963493 1_654
Ba4 O31 2.982149 1_655
Ba4 O15 3.056392 1_655
Ba4 O17 3.072761 1_554
Ba4 O33 3.109223 1_555
Ba5 O1 2.760187 1_555
Ba5 O47 2.766368 1_555
Ba5 O28 2.797559 1_545
Ba5 O36 2.843821 1_555
Ba5 O22 2.943755 1_655
Ba5 O38 2.963493 1_655
Ba5 O30 2.982149 1_655
Ba5 O14 3.056392 1_655
Ba5 O16 3.072761 1_555
Ba5 O32 3.109223 1_545
Ba6 O2 2.760187 1_555
Ba6 O44 2.766368 1_556
Ba6 O31 2.797559 1_556
Ba6 O39 2.843821 1_565
Ba6 O21 2.943755 1_455
Ba6 O37 2.963493 1_456
Ba6 O29 2.982149 1_455
Ba6 O13 3.056392 1_455
Ba6 O19 3.072761 1_556
Ba6 O35 3.109223 1_555
Ba7 O3 2.760187 1_555
Ba7 O45 2.766368 1_555
Ba7 O30 2.797559 1_565
Ba7 O38 2.843821 1_555
Ba7 O20 2.943755 1_455
Ba7 O36 2.963493 1_455
Ba7 O28 2.982149 1_455
Ba7 O12 3.056392 1_455
Ba7 O18 3.072761 1_555
Ba7 O34 3.109223 1_565
H0 O32 0.990130 1_555
H1 O33 0.990130 1_555
H2 O34 0.990130 1_555
H3 O35 0.990130 1_555
O0 Te0 1.858358 1_555
O1 Te1 1.858358 1_555
O2 Te2 1.858358 1_555
O3 Te3 1.858358 1_555
O4 V0 1.887016 1_555
O4 Te0 1.962174 1_565
O5 V1 1.887016 1_555
O5 Te1 1.962174 1_555
O6 V2 1.887016 1_555
O6 Te2 1.962174 1_545
O7 V3 1.887016 1_555
O7 Te3 1.962174 1_555
O8 Te0 1.924784 1_555
O8 Te4 2.153122 1_555
O9 Te1 1.924784 1_555
O9 Te5 2.153122 1_555
O10 Te2 1.924784 1_555
O10 Te6 2.153122 1_555
O11 Te3 1.924784 1_555
O11 Te7 2.153122 1_555
O12 Te4 1.861033 1_565
O13 Te5 1.861033 1_555
O14 Te6 1.861033 1_545
O15 Te7 1.861033 1_555
O16 Te4 1.970716 1_555
O16 Te8 2.062713 1_555
O17 Te5 1.970716 1_555
O17 Te9 2.062713 1_555
O18 Te6 1.970716 1_555
O18 Te10 2.062713 1_555
O19 Te7 1.970716 1_555
O19 Te11 2.062713 1_555
O20 Te8 1.916490 1_555
O20 Te12 2.248810 1_555
O21 Te9 1.916490 1_565
O21 Te13 2.248810 1_555
O22 Te10 1.916490 1_555
O22 Te14 2.248810 1_555
O23 Te11 1.916490 1_545
O23 Te15 2.248810 1_555
O24 Te8 1.862555 1_555
O25 Te9 1.862555 1_565
O26 Te10 1.862555 1_555
O27 Te11 1.862555 1_545
O28 Te12 1.957525 1_555
O28 Te4 2.176998 1_565
O29 Te13 1.957525 1_555
O29 Te5 2.176998 1_555
O30 Te14 1.957525 1_555
O30 Te6 2.176998 1_545
O31 Te15 1.957525 1_555
O31 Te7 2.176998 1_555
O32 Te12 2.065140 1_555
O33 Te13 2.065140 1_554
O34 Te14 2.065140 1_555
O35 Te15 2.065140 1_556
O36 Te12 1.857271 1_555
O37 Te13 1.857271 1_554
O38 Te14 1.857271 1_555
O39 Te15 1.857271 1_556
O40 V0 1.733051 1_555
O40 Te8 2.538852 1_555
O41 V1 1.733051 1_555
O41 Te9 2.538852 1_565
O42 V2 1.733051 1_555
O42 Te10 2.538852 1_555
O43 V3 1.733051 1_555
O43 Te11 2.538852 1_545
O44 V0 1.729834 1_555
O45 V1 1.729834 1_555
O46 V2 1.729834 1_555
O47 V3 1.729834 1_555
O48 V0 1.688344 1_555
O49 V1 1.688344 1_555
O50 V2 1.688344 1_555
O51 V3 1.688344 1_555
