# generated using pymatgen
data_Sc2OsRh
_symmetry_space_group_name_H-M   'P 1'
_cell_length_a   10.69543145
_cell_length_b   10.69543145
_cell_length_c   10.69543145
_cell_angle_alpha   128.03472837
_cell_angle_beta   117.47647303
_cell_angle_gamma   85.55377855
_symmetry_Int_Tables_number   1
_chemical_formula_structural   Sc2OsRh
_chemical_formula_sum   'Sc2 Os1 Rh1'
_cell_volume   816.67591921
_cell_formula_units_Z   1
loop_
 _symmetry_equiv_pos_site_id
 _symmetry_equiv_pos_as_xyz
  1  'x, y, z'
loop_
 _atom_site_type_symbol
 _atom_site_label
 _atom_site_symmetry_multiplicity
 _atom_site_fract_x
 _atom_site_fract_y
 _atom_site_fract_z
 _atom_site_occupancy
  Sc  Sc0  1  0.00000000  0.24739600  0.24739600  1
  Sc  Sc1  1  0.00000000  0.75260400  0.75260400  1
  Os  Os0  1  0.00000000  0.50000000  0.50000000  1
  Rh  Rh0  1  0.00000000  0.00000000  0.00000000  1
loop_
_geom_bond_atom_site_label_1
_geom_bond_atom_site_label_2
_geom_bond_distance
_geom_bond_site_symmetry_2
Os0 Sc0 2.367230 1_555
Os0 Sc1 2.367230 1_555
Rh0 Sc1 2.318425 1_544
Rh0 Sc0 2.318425 1_555
