# generated using pymatgen
data_Li9Mn2Co5O16
_symmetry_space_group_name_H-M   'P 1'
_cell_length_a   5.05897000
_cell_length_b   5.11135533
_cell_length_c   11.80329098
_cell_angle_alpha   91.73733227
_cell_angle_beta   93.07170272
_cell_angle_gamma   108.65643293
_symmetry_Int_Tables_number   1
_chemical_formula_structural   Li9Mn2Co5O16
_chemical_formula_sum   'Li9 Mn2 Co5 O16'
_cell_volume   288.39505009
_cell_formula_units_Z   1
loop_
 _symmetry_equiv_pos_site_id
 _symmetry_equiv_pos_as_xyz
  1  'x, y, z'
loop_
 _atom_site_type_symbol
 _atom_site_label
 _atom_site_symmetry_multiplicity
 _atom_site_fract_x
 _atom_site_fract_y
 _atom_site_fract_z
 _atom_site_occupancy
  Li  Li0  1  0.99732300  0.50077900  0.13035000  1
  Li  Li1  1  0.49897900  0.50292600  0.25785900  1
  Li  Li2  1  0.99448900  0.48967500  0.38381600  1
  Li  Li3  1  0.50044800  0.49576000  0.49666000  1
  Li  Li4  1  0.00396500  0.50220400  0.62294800  1
  Li  Li5  1  0.50325300  0.50114300  0.74811500  1
  Li  Li6  1  0.00960900  0.50806900  0.86505100  1
  Li  Li7  1  0.49291900  0.49694900  0.99839700  1
  Li  Li8  1  0.49869200  0.00594200  0.37617900  1
  Mn  Mn0  1  0.99843400  0.99749200  0.99899500  1
  Mn  Mn1  1  0.49479500  0.99681200  0.13025900  1
  Co  Co0  1  0.00378400  0.00859800  0.25387400  1
  Co  Co1  1  0.99485700  0.99993300  0.49324200  1
  Co  Co2  1  0.50668000  0.00207200  0.61947700  1
  Co  Co3  1  0.00045100  0.99911400  0.74378800  1
  Co  Co4  1  0.50078000  0.00143700  0.87142500  1
  O  O0  1  0.24559500  0.76513700  0.00565900  1
  O  O1  1  0.74022700  0.77282200  0.13664900  1
  O  O2  1  0.25771300  0.79345300  0.24032400  1
  O  O3  1  0.77272200  0.75935700  0.38822600  1
  O  O4  1  0.24838200  0.77820500  0.50672800  1
  O  O5  1  0.75496600  0.75909100  0.63067200  1
  O  O6  1  0.26604000  0.77068700  0.75410900  1
  O  O7  1  0.74943800  0.77453400  0.87699100  1
  O  O8  1  0.75325800  0.22897000  0.24397700  1
  O  O9  1  0.23306600  0.24162700  0.36962600  1
  O  O10  1  0.76380800  0.22176300  0.50528000  1
  O  O11  1  0.23381900  0.22376300  0.61630700  1
  O  O12  1  0.74205900  0.23446200  0.74758400  1
  O  O13  1  0.25414400  0.22730500  0.86560300  1
  O  O14  1  0.72635400  0.20836900  0.00496300  1
  O  O15  1  0.25895000  0.23155000  0.11686500  1
loop_
_geom_bond_atom_site_label_1
_geom_bond_atom_site_label_2
_geom_bond_distance
_geom_bond_site_symmetry_2
Li0 O2 2.023945 1_655
Li0 O8 2.108654 1_555
Li0 O14 2.154294 1_555
Li0 O1 2.189038 1_555
Li0 O0 2.191422 1_655
Li0 O15 2.201242 1_655
Li1 O9 2.116922 1_555
Li1 O3 2.119339 1_555
Li1 O1 2.160811 1_555
Li1 O15 2.175761 1_555
Li1 O8 2.191707 1_555
Li1 O2 2.211100 1_555
Li2 O9 2.019922 1_655
Li2 O3 2.037848 1_555
Li2 O4 2.094783 1_655
Li2 O10 2.137402 1_555
Li2 O8 2.144693 1_555
Li2 O2 2.476097 1_655
Li3 O9 2.075014 1_555
Li3 O3 2.111127 1_555
Li3 O5 2.124955 1_555
Li3 O11 2.206832 1_555
Li3 O4 2.215425 1_555
Li3 O10 2.221429 1_555
Li4 O10 2.010974 1_455
Li4 O5 2.093427 1_455
Li4 O11 2.108470 1_555
Li4 O6 2.127186 1_555
Li4 O4 2.141025 1_555
Li4 O12 2.227885 1_455
Li5 O12 2.090813 1_555
Li5 O7 2.091024 1_555
Li5 O6 2.098635 1_555
Li5 O5 2.123051 1_555
Li5 O13 2.155648 1_555
Li5 O11 2.165883 1_555
Li6 O12 2.044619 1_455
Li6 O6 2.091425 1_555
Li6 O0 2.134944 1_556
Li6 O13 2.173810 1_555
Li6 O7 2.182299 1_455
Li6 O14 2.475853 1_456
Li7 O13 2.101530 1_555
Li7 O15 2.112256 1_556
Li7 O0 2.133932 1_556
Li7 O14 2.165165 1_556
Li7 O1 2.174738 1_556
Li7 O7 2.212512 1_555
Li8 O10 2.017482 1_555
Li8 O2 2.018648 1_545
Li8 O9 2.072006 1_555
Li8 O3 2.153663 1_545
Li8 O4 2.169735 1_545
Li8 O8 2.185621 1_555
Mn0 O7 1.935684 1_555
Mn0 O15 1.948750 1_666
Mn0 O0 1.981252 1_656
Mn0 O14 2.004083 1_566
Mn0 O13 2.211438 1_665
Mn0 O1 2.246290 1_556
Mn1 O8 1.908425 1_565
Mn1 O2 1.912580 1_555
Mn1 O1 1.939793 1_555
Mn1 O15 1.948159 1_565
Mn1 O0 1.973606 1_555
Mn1 O14 2.049623 1_565
Co0 O9 1.865037 1_555
Co0 O8 1.947872 1_455
Co0 O2 1.949433 1_545
Co0 O1 1.953898 1_445
Co0 O3 2.207383 1_445
Co0 O15 2.230364 1_555
Co1 O3 1.784823 1_555
Co1 O10 1.878303 1_565
Co1 O11 1.925223 1_665
Co1 O4 1.968201 1_655
Co1 O9 2.110113 1_665
Co1 O5 2.235126 1_555
Co2 O4 1.884829 1_545
Co2 O12 1.976985 1_555
Co2 O10 2.028552 1_555
Co2 O5 2.031716 1_545
Co2 O11 2.046626 1_555
Co2 O6 2.192297 1_545
Co3 O5 1.891627 1_455
Co3 O13 1.953902 1_565
Co3 O12 2.041303 1_465
Co3 O6 2.044039 1_555
Co3 O11 2.098633 1_565
Co3 O7 2.189285 1_455
Co4 O6 1.883457 1_545
Co4 O13 1.952335 1_555
Co4 O14 1.959410 1_556
Co4 O7 1.964952 1_545
Co4 O12 2.100445 1_555
Co4 O0 2.230115 1_546
