# generated using pymatgen
data_FePSe
_symmetry_space_group_name_H-M   'P 1'
_cell_length_a   5.71437600
_cell_length_b   5.73688200
_cell_length_c   5.80583608
_cell_angle_alpha   67.31281716
_cell_angle_beta   90.00000000
_cell_angle_gamma   90.00000000
_symmetry_Int_Tables_number   1
_chemical_formula_structural   FePSe
_chemical_formula_sum   'Fe4 P4 Se4'
_cell_volume   175.60401189
_cell_formula_units_Z   4
loop_
 _symmetry_equiv_pos_site_id
 _symmetry_equiv_pos_as_xyz
  1  'x, y, z'
loop_
 _atom_site_type_symbol
 _atom_site_label
 _atom_site_symmetry_multiplicity
 _atom_site_fract_x
 _atom_site_fract_y
 _atom_site_fract_z
 _atom_site_occupancy
  Fe  Fe0  1  0.99090400  0.73585900  0.28782500  1
  Fe  Fe1  1  0.49090400  0.26414100  0.21217500  1
  Fe  Fe2  1  0.00909600  0.26414100  0.71217500  1
  Fe  Fe3  1  0.50909600  0.73585900  0.78782500  1
  P  P0  1  0.63457600  0.85857500  0.38173700  1
  P  P1  1  0.13457600  0.14142500  0.11826300  1
  P  P2  1  0.36542400  0.14142500  0.61826300  1
  P  P3  1  0.86542400  0.85857500  0.88173700  1
  Se  Se0  1  0.37125500  0.66169500  0.18495400  1
  Se  Se1  1  0.87125500  0.33830500  0.31504600  1
  Se  Se2  1  0.62874500  0.33830500  0.81504600  1
  Se  Se3  1  0.12874500  0.66169500  0.68495400  1
loop_
_geom_bond_atom_site_label_1
_geom_bond_atom_site_label_2
_geom_bond_distance
_geom_bond_site_symmetry_2
Fe0 P0 2.288032 1_555
Fe0 P3 2.299574 1_554
Fe0 P1 2.299944 1_665
Fe0 Se3 2.315344 1_655
Fe0 Se1 2.327249 1_555
Fe0 Se0 2.336177 1_655
Fe1 P1 2.288032 1_555
Fe1 P2 2.299574 1_555
Fe1 P0 2.299944 1_545
Fe1 Se2 2.315344 1_554
Fe1 Se0 2.327249 1_555
Fe1 Se1 2.336177 1_555
Fe2 P2 2.288032 1_555
Fe2 P1 2.299574 1_556
Fe2 P3 2.299944 1_445
Fe2 Se1 2.315344 1_455
Fe2 Se3 2.327249 1_555
Fe2 Se2 2.336177 1_455
Fe3 P3 2.288032 1_555
Fe3 P0 2.299574 1_555
Fe3 P2 2.299944 1_565
Fe3 Se0 2.315344 1_556
Fe3 Se2 2.327249 1_555
Fe3 Se3 2.336177 1_555
P0 Se0 2.416733 1_555
P1 Se1 2.416733 1_455
P2 Se2 2.416733 1_555
P3 Se3 2.416733 1_655
