# generated using pymatgen
data_Ca(NiO2)2
_symmetry_space_group_name_H-M   'P 1'
_cell_length_a   6.09314500
_cell_length_b   6.19648250
_cell_length_c   14.85435992
_cell_angle_alpha   91.91185045
_cell_angle_beta   89.75402756
_cell_angle_gamma   119.26570736
_symmetry_Int_Tables_number   1
_chemical_formula_structural   Ca(NiO2)2
_chemical_formula_sum   'Ca6 Ni12 O24'
_cell_volume   488.93864021
_cell_formula_units_Z   6
loop_
 _symmetry_equiv_pos_site_id
 _symmetry_equiv_pos_as_xyz
  1  'x, y, z'
loop_
 _atom_site_type_symbol
 _atom_site_label
 _atom_site_symmetry_multiplicity
 _atom_site_fract_x
 _atom_site_fract_y
 _atom_site_fract_z
 _atom_site_occupancy
  Ca  Ca0  1  0.83247500  0.66653900  0.95792600  1
  Ca  Ca1  1  0.50244900  0.00011600  0.61339600  1
  Ca  Ca2  1  0.50122300  0.00304700  0.00362300  1
  Ca  Ca3  1  0.16493000  0.33076900  0.27354400  1
  Ca  Ca4  1  0.83140900  0.66345500  0.71688900  1
  Ca  Ca5  1  0.50050300  0.00282600  0.36888400  1
  Ni  Ni0  1  0.33078700  0.16166600  0.83006700  1
  Ni  Ni1  1  0.33378500  0.66927400  0.82757300  1
  Ni  Ni2  1  0.00356000  0.50121500  0.49734500  1
  Ni  Ni3  1  0.83085300  0.16244200  0.82944400  1
  Ni  Ni4  1  0.16621000  0.32745900  0.66390000  1
  Ni  Ni5  1  0.00288900  0.00403200  0.49763200  1
  Ni  Ni6  1  0.66963200  0.82536900  0.17135200  1
  Ni  Ni7  1  0.49878800  0.50009200  0.49710900  1
  Ni  Ni8  1  0.15509800  0.82441300  0.17169600  1
  Ni  Ni9  1  0.83578100  0.67601400  0.33934300  1
  Ni  Ni10  1  0.67220400  0.34564400  0.17224700  1
  Ni  Ni11  1  0.16673900  0.33358300  0.04724700  1
  O  O0  1  0.64603200  0.29504200  0.89245200  1
  O  O1  1  0.49481600  0.99383000  0.75591100  1
  O  O2  1  0.19871100  0.85012400  0.89173700  1
  O  O3  1  0.65095400  0.84941100  0.88975100  1
  O  O4  1  0.02539000  0.46161300  0.76044500  1
  O  O5  1  0.31384300  0.61016400  0.57328100  1
  O  O6  1  0.43260600  0.45924700  0.75818100  1
  O  O7  1  0.16828000  0.33413800  0.92211700  1
  O  O8  1  0.89475300  0.18766300  0.57416300  1
  O  O9  1  0.17685000  0.36221300  0.42851500  1
  O  O10  1  0.02802000  0.05391700  0.76226400  1
  O  O11  1  0.29475300  0.17895000  0.57019100  1
  O  O12  1  0.70791100  0.82680500  0.42419700  1
  O  O13  1  0.96710100  0.93381700  0.26064500  1
  O  O14  1  0.11390100  0.81919200  0.42259800  1
  O  O15  1  0.82382500  0.63623400  0.56639200  1
  O  O16  1  0.82937200  0.65638100  0.10795400  1
  O  O17  1  0.56419000  0.54153300  0.26103400  1
  O  O18  1  0.69356500  0.39948300  0.41778100  1
  O  O19  1  0.96985800  0.53630500  0.26126500  1
  O  O20  1  0.32409400  0.17412500  0.10056000  1
  O  O21  1  0.50324200  0.00864600  0.22244600  1
  O  O22  1  0.84835100  0.17224200  0.09966300  1
  O  O23  1  0.33026600  0.66097500  0.09724100  1
loop_
_geom_bond_atom_site_label_1
_geom_bond_atom_site_label_2
_geom_bond_distance
_geom_bond_site_symmetry_2
Ca0 O2 2.194148 1_655
Ca0 O0 2.199728 1_555
Ca0 O3 2.201023 1_555
Ca0 O16 2.231295 1_556
Ca1 O1 2.118519 1_545
Ca1 O11 2.160317 1_555
Ca1 O5 2.170073 1_545
Ca1 O8 2.172839 1_555
Ca2 O2 2.295912 1_544
Ca2 O3 2.308314 1_544
Ca2 O20 2.316345 1_555
Ca2 O22 2.316476 1_555
Ca2 O0 2.324918 1_554
Ca2 O23 2.353146 1_545
Ca3 O17 2.136437 1_555
Ca3 O19 2.136712 1_455
Ca3 O13 2.147445 1_445
Ca3 O9 2.302193 1_555
Ca4 O10 2.192621 1_665
Ca4 O4 2.210385 1_655
Ca4 O6 2.216934 1_555
Ca4 O15 2.235244 1_555
Ca5 O21 2.176602 1_555
Ca5 O12 2.208677 1_545
Ca5 O14 2.214519 1_545
Ca5 O18 2.239159 1_555
Ni0 O10 1.905330 1_555
Ni0 O0 1.908782 1_555
Ni0 O2 1.950957 1_545
Ni0 O6 1.983053 1_555
Ni0 O1 2.055299 1_545
Ni0 O7 2.217603 1_555
Ni1 O2 1.914518 1_555
Ni1 O3 1.916043 1_555
Ni1 O4 1.935834 1_555
Ni1 O6 1.946820 1_555
Ni1 O1 2.084463 1_555
Ni1 O7 2.331673 1_555
Ni2 O9 1.929581 1_555
Ni2 O15 1.944279 1_455
Ni2 O5 2.005507 1_555
Ni2 O18 2.041379 1_455
Ni2 O8 2.097275 1_455
Ni2 O14 2.100341 1_555
Ni3 O10 1.904247 1_655
Ni3 O0 1.914059 1_555
Ni3 O3 1.948109 1_545
Ni3 O4 1.964698 1_655
Ni3 O1 2.080507 1_545
Ni3 O7 2.245429 1_655
Ni4 O8 1.950397 1_455
Ni4 O6 1.977417 1_555
Ni4 O11 2.001943 1_555
Ni4 O4 2.022674 1_555
Ni4 O5 2.072704 1_555
Ni4 O10 2.115701 1_555
Ni5 O11 1.884940 1_555
Ni5 O12 1.906155 1_445
Ni5 O8 1.913508 1_455
Ni5 O14 1.917679 1_545
Ni5 O9 2.224003 1_555
Ni5 O15 2.267662 1_445
Ni6 O16 1.963038 1_555
Ni6 O21 1.988787 1_565
Ni6 O13 2.065532 1_555
Ni6 O17 2.079653 1_555
Ni6 O23 2.100159 1_555
Ni6 O22 2.189528 1_565
Ni7 O5 1.924684 1_555
Ni7 O18 1.961652 1_555
Ni7 O9 1.984074 1_555
Ni7 O15 2.004803 1_555
Ni7 O11 2.097074 1_555
Ni7 O12 2.123074 1_555
Ni8 O16 1.962030 1_455
Ni8 O21 1.989981 1_565
Ni8 O13 2.050366 1_455
Ni8 O23 2.088059 1_555
Ni8 O19 2.099231 1_455
Ni8 O20 2.198746 1_565
Ni9 O19 1.838025 1_555
Ni9 O17 1.841084 1_555
Ni9 O13 1.850830 1_555
Ni9 O14 1.913927 1_655
Ni9 O12 1.921875 1_555
Ni9 O18 1.928056 1_555
Ni10 O16 1.961793 1_555
Ni10 O21 1.992959 1_555
Ni10 O19 2.062761 1_555
Ni10 O17 2.076717 1_555
Ni10 O20 2.121861 1_555
Ni10 O22 2.123501 1_555
Ni11 O7 1.858819 1_554
Ni11 O20 1.872887 1_555
Ni11 O22 1.874019 1_455
Ni11 O23 1.894555 1_555
