# generated using pymatgen
data_Sr6La14Mn17(CuO20)3
_symmetry_space_group_name_H-M   'P 1'
_cell_length_a   5.51922059
_cell_length_b   5.51847001
_cell_length_c   55.22452874
_cell_angle_alpha   60.83249064
_cell_angle_beta   60.81226663
_cell_angle_gamma   60.89251545
_symmetry_Int_Tables_number   1
_chemical_formula_structural   Sr6La14Mn17(CuO20)3
_chemical_formula_sum   'Sr6 La14 Mn17 Cu3 O60'
_cell_volume   1212.04065100
_cell_formula_units_Z   1
loop_
 _symmetry_equiv_pos_site_id
 _symmetry_equiv_pos_as_xyz
  1  'x, y, z'
loop_
 _atom_site_type_symbol
 _atom_site_label
 _atom_site_symmetry_multiplicity
 _atom_site_fract_x
 _atom_site_fract_y
 _atom_site_fract_z
 _atom_site_occupancy
  Sr  Sr0  1  0.25121768  0.25256522  0.02471625  1
  Sr  Sr1  1  0.24773777  0.25080547  0.12520170  1
  Sr  Sr2  1  0.24971441  0.24820798  0.22497137  1
  Sr  Sr3  1  0.25210198  0.25133657  0.32472043  1
  Sr  Sr4  1  0.24932393  0.25157384  0.42462771  1
  Sr  Sr5  1  0.25203993  0.25316161  0.52412202  1
  La  La0  1  0.74773711  0.74916335  0.07524471  1
  La  La1  1  0.75012887  0.75115890  0.17511219  1
  La  La2  1  0.75205256  0.75001866  0.27474828  1
  La  La3  1  0.74889517  0.75050508  0.37468938  1
  La  La4  1  0.25439873  0.24935153  0.62450984  1
  La  La5  1  0.75246588  0.75349986  0.47408801  1
  La  La6  1  0.24783303  0.24964134  0.72506147  1
  La  La7  1  0.75037290  0.74944485  0.57451505  1
  La  La8  1  0.25407723  0.25286106  0.82427119  1
  La  La9  1  0.75465261  0.75588777  0.67336800  1
  La  La10  1  0.24393816  0.23658923  0.92806940  1
  La  La11  1  0.74634650  0.74803795  0.77602591  1
  La  La12  1  0.74819422  0.74560007  0.87582536  1
  La  La13  1  0.74779464  0.74719701  0.97626917  1
  Mn  Mn0  1  0.00074386  0.99581441  0.00050764  1
  Mn  Mn1  1  0.00051566  0.00055182  0.09983038  1
  Mn  Mn2  1  -0.00005274  0.99945389  0.19986492  1
  Mn  Mn3  1  0.50116451  0.49911949  0.05015927  1
  Mn  Mn4  1  -0.00029659  0.00058807  0.29999004  1
  Mn  Mn5  1  0.49902893  0.50027878  0.15002181  1
  Mn  Mn6  1  0.00155106  0.00167288  0.39946457  1
  Mn  Mn7  1  0.50028923  0.49993115  0.24989695  1
  Mn  Mn8  1  -0.00183470  0.00002599  0.50016165  1
  Mn  Mn9  1  0.49998207  0.50236076  0.34976528  1
  Mn  Mn10  1  0.99808140  0.00405410  0.59978704  1
  Mn  Mn11  1  0.50035453  0.49921331  0.45002773  1
  Mn  Mn12  1  0.00137636  -0.00043763  0.69993630  1
  Mn  Mn13  1  0.50206918  0.50149411  0.54949490  1
  Mn  Mn14  1  0.00024569  -0.00039326  0.90002510  1
  Mn  Mn15  1  0.50153862  0.49963084  0.74988988  1
  Mn  Mn16  1  0.49679383  0.50040880  0.85034383  1
  Cu  Cu0  1  -0.00166340  0.99718011  0.80061598  1
  Cu  Cu1  1  0.49798579  0.49877292  0.65061955  1
  Cu  Cu2  1  0.49907070  0.49816082  0.95036501  1
  O  O0  1  0.18853149  0.74997284  0.03109151  1
  O  O1  1  0.31198347  0.19386767  0.07436112  1
  O  O2  1  0.25419146  0.70481559  0.07917297  1
  O  O3  1  0.74953029  0.30943413  0.01905802  1
  O  O4  1  0.19452262  0.75037445  0.13062471  1
  O  O5  1  0.70216499  0.79854207  0.02474327  1
  O  O6  1  0.30703798  0.18926664  0.17525004  1
  O  O7  1  0.79635779  0.25503323  0.06995338  1
  O  O8  1  0.24693817  0.70479760  0.17955875  1
  O  O9  1  0.74878052  0.30595694  0.11933148  1
  O  O10  1  0.19081157  0.75027568  0.23067113  1
  O  O11  1  0.70807971  0.79160757  0.12481053  1
  O  O12  1  0.30809221  0.19315499  0.27491781  1
  O  O13  1  0.79311129  0.24774653  0.17076545  1
  O  O14  1  0.24978996  0.70882973  0.27899895  1
  O  O15  1  0.75186009  0.30746451  0.21906855  1
  O  O16  1  0.19248957  0.74849441  0.33084351  1
  O  O17  1  0.70513690  0.79430796  0.22464691  1
  O  O18  1  0.31059385  0.19308361  0.37459265  1
  O  O19  1  0.79149417  0.25092741  0.27072289  1
  O  O20  1  0.25211733  0.70690804  0.37916921  1
  O  O21  1  0.74920089  0.31096605  0.31914853  1
  O  O22  1  0.19408093  0.75342310  0.43027413  1
  O  O23  1  0.70552477  0.79482396  0.32523452  1
  O  O24  1  0.30503134  0.19089386  0.47560603  1
  O  O25  1  0.79573463  0.25213280  0.37025277  1
  O  O26  1  0.24632806  0.70747250  0.47946259  1
  O  O27  1  0.75198452  0.30459592  0.41908063  1
  O  O28  1  0.18918970  0.74853359  0.53154509  1
  O  O29  1  0.71051854  0.79250965  0.42493556  1
  O  O30  1  0.31141523  0.18845700  0.57597637  1
  O  O31  1  0.79042827  0.24696861  0.47109407  1
  O  O32  1  0.24924290  0.68940369  0.58124924  1
  O  O33  1  0.74613802  0.31382428  0.51915972  1
  O  O34  1  0.18434976  0.75861013  0.63024915  1
  O  O35  1  0.69959235  0.79590933  0.52623509  1
  O  O36  1  0.31005258  0.17232476  0.67671029  1
  O  O37  1  0.79733912  0.24973371  0.57028527  1
  O  O38  1  0.24044376  0.68664363  0.68300790  1
  O  O39  1  0.76128122  0.30715587  0.61807632  1
  O  O40  1  0.17766105  0.75258820  0.73210369  1
  O  O41  1  0.69493106  0.81905844  0.62476710  1
  O  O42  1  0.32410459  0.19110907  0.77375104  1
  O  O43  1  0.82720830  0.23384255  0.66918241  1
  O  O44  1  0.26092706  0.68017225  0.78056522  1
  O  O45  1  0.75225752  0.32072573  0.71770734  1
  O  O46  1  0.18699927  0.73703992  0.83298990  1
  O  O47  1  0.68311649  0.81876433  0.72486953  1
  O  O48  1  0.31796001  0.18207837  0.87435103  1
  O  O49  1  0.80941442  0.25836567  0.76770712  1
  O  O50  1  0.25361420  0.67678191  0.88211053  1
  O  O51  1  0.73716489  0.32436755  0.81936177  1
  O  O52  1  0.17921169  0.76253686  0.93018183  1
  O  O53  1  0.67160755  0.80962030  0.82632767  1
  O  O54  1  0.30498941  0.18055057  0.97490324  1
  O  O55  1  0.82087900  0.25179474  0.86778972  1
  O  O56  1  0.23736349  0.71665547  0.97989740  1
  O  O57  1  0.76231741  0.30510453  0.91758004  1
  O  O58  1  0.69676408  0.82286223  0.92261215  1
  O  O59  1  0.81204915  0.24224856  0.97037992  1
loop_
_geom_bond_atom_site_label_1
_geom_bond_atom_site_label_2
_geom_bond_distance
_geom_bond_site_symmetry_2
La0 O1 2.462643 1_565
La0 O0 2.465432 1_655
La0 O9 2.470907 1_555
La0 O2 2.747277 1_555
La0 O7 2.753425 1_555
La0 O11 2.754271 1_555
La0 O5 2.791473 1_555
La0 O2 2.791850 1_655
La0 O7 2.794244 1_565
La1 O6 2.464414 1_565
La1 O15 2.468662 1_555
La1 O4 2.484843 1_655
La1 O17 2.741595 1_555
La1 O8 2.749053 1_655
La1 O13 2.749447 1_565
La1 O13 2.790133 1_555
La1 O11 2.791833 1_555
La1 O8 2.793491 1_555
La2 O10 2.457640 1_655
La2 O21 2.468115 1_555
La2 O12 2.480832 1_565
La2 O14 2.760962 1_655
La2 O19 2.765649 1_555
La2 O19 2.770767 1_565
La2 O14 2.778062 1_555
La2 O17 2.785706 1_555
La2 O23 2.795053 1_555
La3 O18 2.463501 1_565
La3 O16 2.464749 1_655
La3 O27 2.487012 1_555
La3 O23 2.739660 1_555
La3 O20 2.749339 1_555
La3 O25 2.755733 1_555
La3 O25 2.786261 1_565
La3 O20 2.791964 1_655
La3 O29 2.793595 1_555
La4 O41 2.436021 1_545
La4 O32 2.439189 1_555
La4 O43 2.443323 1_455
La4 O30 2.710724 1_555
La4 O39 2.761019 1_455
La4 O34 2.765217 1_545
La4 O34 2.799913 1_555
La4 O39 2.800507 1_555
La4 O36 2.850873 1_555
La5 O22 2.458287 1_655
La5 O24 2.475422 1_565
La5 O33 2.488923 1_555
La5 O29 2.731830 1_555
La5 O31 2.751266 1_565
La5 O26 2.761205 1_655
La5 O31 2.780596 1_555
La5 O26 2.786453 1_555
La5 O35 2.864263 1_555
La5 O27 3.077652 1_565
La5 O24 3.119438 1_655
La5 O28 3.179732 1_555
La6 O38 2.397599 1_555
La6 O49 2.417198 1_455
La6 O47 2.422335 1_545
La6 O36 2.739231 1_555
La6 O42 2.763446 1_555
La6 O40 2.769836 1_545
La6 O45 2.772071 1_455
La6 O40 2.804290 1_555
La6 O45 2.806078 1_555
La7 O28 2.427163 1_655
La7 O39 2.454210 1_555
La7 O30 2.456600 1_565
La7 O35 2.691778 1_555
La7 O37 2.756756 1_555
La7 O32 2.768797 1_555
La7 O37 2.784338 1_565
La7 O32 2.796461 1_655
La7 O41 2.835347 1_555
La8 O53 2.409747 1_545
La8 O44 2.416133 1_555
La8 O55 2.426484 1_455
La8 O51 2.748177 1_555
La8 O46 2.761489 1_555
La8 O48 2.773036 1_555
La8 O42 2.792168 1_555
La8 O51 2.814857 1_455
La8 O46 2.826161 1_545
La9 O34 2.405540 1_655
La9 O36 2.412887 1_565
La9 O45 2.455707 1_555
La9 O41 2.696831 1_555
La9 O43 2.741107 1_565
La9 O38 2.795586 1_655
La9 O38 2.804825 1_555
La9 O43 2.819527 1_555
La9 O47 2.845848 1_555
La10 O59 2.389329 1_455
La10 O58 2.436052 1_545
La10 O50 2.515938 1_555
La10 O54 2.620597 1_555
La10 O52 2.748822 1_545
La10 O52 2.801059 1_555
La10 O57 2.802663 1_455
La10 O57 2.808312 1_555
La10 O56 2.901924 1_545
La10 O48 2.937027 1_555
La11 O51 2.395690 1_555
La11 O42 2.422314 1_565
La11 O40 2.432686 1_655
La11 O44 2.758713 1_555
La11 O53 2.769204 1_555
La11 O49 2.788060 1_555
La11 O49 2.792852 1_565
La11 O44 2.799507 1_655
La11 O47 2.830114 1_555
La12 O57 2.399914 1_555
La12 O46 2.423498 1_655
La12 O48 2.424828 1_565
La12 O58 2.679365 1_555
La12 O50 2.769822 1_555
La12 O55 2.779439 1_555
La12 O53 2.795673 1_555
La12 O50 2.798455 1_655
La12 O55 2.805241 1_565
La13 O3 2.419747 1_556
La13 O54 2.452625 1_565
La13 O52 2.495959 1_655
La13 O5 2.705954 1_556
La13 O56 2.724268 1_655
La13 O59 2.767490 1_565
La13 O59 2.793888 1_555
La13 O56 2.807765 1_555
La13 O58 2.920221 1_555
La13 O0 3.094903 1_556
La13 O54 3.144696 1_655
La13 O57 3.201603 1_565
Mn0 O56 1.917347 1_554
Mn0 O54 1.950115 1_564
Mn0 O59 1.951634 1_464
Mn0 O5 1.966231 1_455
Mn0 O0 1.968071 1_555
Mn0 O3 1.993845 1_465
Mn1 O11 1.981448 1_445
Mn1 O2 1.989722 1_545
Mn1 O9 1.990545 1_455
Mn1 O7 1.994846 1_455
Mn1 O4 1.998486 1_545
Mn1 O1 2.008706 1_555
Mn2 O13 1.970868 1_465
Mn2 O8 1.972233 1_555
Mn2 O6 1.977351 1_565
Mn2 O17 1.977916 1_455
Mn2 O10 1.988278 1_555
Mn2 O15 1.991258 1_465
Mn3 O7 1.957153 1_555
Mn3 O2 1.962415 1_555
Mn3 O1 1.967158 1_555
Mn3 O5 1.983708 1_555
Mn3 O3 1.996212 1_555
Mn3 O0 2.007458 1_555
Mn4 O23 1.977891 1_445
Mn4 O19 1.982921 1_455
Mn4 O14 1.984391 1_545
Mn4 O12 1.992579 1_555
Mn4 O16 1.997085 1_545
Mn4 O21 2.000098 1_455
Mn5 O11 1.977484 1_555
Mn5 O8 1.980779 1_555
Mn5 O4 1.983684 1_555
Mn5 O13 1.986366 1_555
Mn5 O9 1.994337 1_555
Mn5 O6 2.002080 1_555
Mn6 O25 1.972218 1_455
Mn6 O20 1.972666 1_545
Mn6 O29 1.977001 1_445
Mn6 O27 1.983652 1_455
Mn6 O18 1.991310 1_555
Mn6 O22 1.993981 1_545
Mn7 O17 1.975581 1_555
Mn7 O19 1.976842 1_555
Mn7 O14 1.977730 1_555
Mn7 O12 1.984434 1_555
Mn7 O15 1.994148 1_555
Mn7 O10 1.999172 1_555
Mn8 O31 1.972611 1_455
Mn8 O26 1.977256 1_545
Mn8 O24 1.979921 1_555
Mn8 O35 1.992065 1_445
Mn8 O33 2.009567 1_455
Mn8 O28 2.013838 1_545
Mn9 O23 1.969313 1_555
Mn9 O20 1.974854 1_555
Mn9 O16 1.980044 1_555
Mn9 O21 1.981229 1_555
Mn9 O25 1.984158 1_555
Mn9 O18 1.985526 1_555
Mn10 O39 1.938666 1_555
Mn10 O41 1.944882 1_545
Mn10 O34 1.957695 1_645
Mn10 O37 1.966253 1_555
Mn10 O30 1.986255 1_655
Mn10 O32 1.997864 1_645
Mn11 O31 1.980963 1_555
Mn11 O29 1.989477 1_555
Mn11 O26 1.989803 1_555
Mn11 O24 2.002253 1_555
Mn11 O22 2.003802 1_555
Mn11 O27 2.006492 1_555
Mn12 O36 1.927047 1_555
Mn12 O43 1.929497 1_455
Mn12 O38 1.936649 1_545
Mn12 O47 1.995950 1_445
Mn12 O40 1.998898 1_545
Mn12 O45 2.000815 1_455
Mn13 O35 1.949704 1_555
Mn13 O33 1.956124 1_555
Mn13 O28 1.971072 1_555
Mn13 O37 1.992884 1_555
Mn13 O30 2.008796 1_555
Mn13 O32 2.018833 1_555
Mn14 O58 1.917957 1_445
Mn14 O52 1.919438 1_545
Mn14 O57 1.924586 1_455
Mn14 O48 2.000114 1_555
Mn14 O55 2.012340 1_455
Mn14 O50 2.013174 1_545
Mn15 O42 1.941866 1_555
Mn15 O49 1.944465 1_555
Mn15 O44 1.946700 1_555
Mn15 O47 2.002427 1_555
Mn15 O45 2.007660 1_555
Mn15 O40 2.014224 1_555
Mn16 O53 1.936326 1_555
Mn16 O46 1.937349 1_555
Mn16 O51 1.945141 1_555
Mn16 O50 1.980704 1_555
Mn16 O48 1.989560 1_555
Mn16 O55 2.003705 1_555
Cu0 O46 2.049676 1_555
Cu0 O53 2.055554 1_455
Cu0 O44 2.059899 1_555
Cu0 O51 2.060089 1_465
Cu0 O49 2.073738 1_465
Cu0 O42 2.074086 1_565
Cu1 O38 2.046602 1_555
Cu1 O36 2.056089 1_555
Cu1 O34 2.056740 1_555
Cu1 O41 2.059061 1_555
Cu1 O43 2.064314 1_555
Cu1 O39 2.066375 1_555
Cu2 O56 2.030960 1_555
Cu2 O54 2.037521 1_555
Cu2 O59 2.041415 1_555
Cu2 O52 2.077440 1_555
Cu2 O57 2.081473 1_555
Cu2 O58 2.084338 1_555
O0 Sr0 2.770834 1_555
O0 Sr0 2.792697 1_565
O1 Sr0 2.767553 1_555
O1 Sr1 2.808529 1_555
O2 Sr1 2.555518 1_555
O2 Sr0 3.052954 1_565
O3 Sr0 2.768791 1_555
O3 Sr0 2.786744 1_655
O4 Sr1 2.774822 1_565
O4 Sr1 2.776225 1_555
O5 Sr0 2.530844 1_565
O5 Sr0 3.062353 1_655
O6 Sr2 2.769231 1_555
O6 Sr1 2.778638 1_555
O7 Sr0 2.535058 1_655
O7 Sr1 3.076796 1_555
O8 Sr2 2.545398 1_555
O8 Sr1 3.045270 1_565
O9 Sr1 2.773672 1_555
O9 Sr1 2.782189 1_655
O10 Sr2 2.771558 1_565
O10 Sr2 2.784813 1_555
O11 Sr1 2.571616 1_565
O11 Sr1 3.021643 1_655
O12 Sr3 2.774550 1_555
O12 Sr2 2.785484 1_555
O13 Sr1 2.543522 1_655
O13 Sr2 3.033028 1_555
O14 Sr3 2.556556 1_555
O14 Sr2 3.017522 1_565
O15 Sr2 2.767485 1_655
O15 Sr2 2.791200 1_555
O16 Sr3 2.768974 1_555
O16 Sr3 2.790679 1_565
O17 Sr2 2.543018 1_565
O17 Sr2 3.050192 1_655
O18 Sr3 2.774212 1_555
O18 Sr4 2.775860 1_555
O19 Sr2 2.558835 1_655
O19 Sr3 3.016020 1_555
O20 Sr4 2.543159 1_555
O20 Sr3 3.043402 1_565
O21 Sr3 2.772462 1_555
O21 Sr3 2.784378 1_655
O22 Sr4 2.763069 1_565
O22 Sr4 2.790609 1_555
O23 Sr3 2.544809 1_565
O23 Sr3 3.048518 1_655
O24 Sr5 2.723499 1_555
O24 Sr4 2.820904 1_555
O25 Sr3 2.547488 1_655
O25 Sr4 3.046192 1_555
O26 Sr5 2.518155 1_555
O26 Sr4 3.053319 1_565
O27 Sr4 2.768653 1_655
O27 Sr4 2.783819 1_555
O28 Sr5 2.780600 1_565
O28 Sr5 2.791508 1_555
O29 Sr4 2.573685 1_565
O29 Sr4 3.019655 1_655
O30 Sr5 2.870548 1_555
O31 Sr4 2.580753 1_655
O31 Sr5 2.986325 1_555
O32 Sr5 3.172431 1_565
O33 Sr5 2.773762 1_555
O33 Sr5 2.780459 1_655
O35 Sr5 2.532288 1_565
O35 Sr5 3.064324 1_655
O37 Sr5 2.560600 1_655
O54 Sr0 2.822773 1_556
O56 Sr0 2.550763 1_556
O59 Sr0 3.086177 1_556
