# generated using pymatgen
data_HfMg
_symmetry_space_group_name_H-M   'P 1'
_cell_length_a   5.02675069
_cell_length_b   5.02675069
_cell_length_c   5.66327500
_cell_angle_alpha   90.00000000
_cell_angle_beta   90.00000000
_cell_angle_gamma   120.00000914
_symmetry_Int_Tables_number   1
_chemical_formula_structural   HfMg
_chemical_formula_sum   'Hf2 Mg2'
_cell_volume   123.92899724
_cell_formula_units_Z   2
loop_
 _symmetry_equiv_pos_site_id
 _symmetry_equiv_pos_as_xyz
  1  'x, y, z'
loop_
 _atom_site_type_symbol
 _atom_site_label
 _atom_site_symmetry_multiplicity
 _atom_site_fract_x
 _atom_site_fract_y
 _atom_site_fract_z
 _atom_site_occupancy
  Hf  Hf0  1  0.33333300  0.66666700  0.75000000  1
  Hf  Hf1  1  0.66666700  0.33333300  0.25000000  1
  Mg  Mg0  1  0.33333300  0.66666700  0.25000000  1
  Mg  Mg1  1  0.66666700  0.33333300  0.75000000  1
loop_
_geom_bond_atom_site_label_1
_geom_bond_atom_site_label_2
_geom_bond_distance
_geom_bond_site_symmetry_2
Hf0 Mg0 2.831637 1_555
Hf0 Mg0 2.831637 1_556
Hf0 Mg1 2.902193 1_455
Hf0 Mg1 2.902193 1_565
Hf0 Mg1 2.902202 1_555
Hf1 Mg1 2.831637 1_554
Hf1 Mg1 2.831637 1_555
Hf1 Mg0 2.902193 1_545
Hf1 Mg0 2.902193 1_655
Hf1 Mg0 2.902202 1_555
