# generated using pymatgen
data_Ba2LuUO6
_symmetry_space_group_name_H-M   'P 1'
_cell_length_a   6.11481331
_cell_length_b   6.11481331
_cell_length_c   6.11483768
_cell_angle_alpha   59.99986818
_cell_angle_beta   59.99986818
_cell_angle_gamma   60.00026364
_symmetry_Int_Tables_number   1
_chemical_formula_structural   Ba2LuUO6
_chemical_formula_sum   'Ba2 Lu1 U1 O6'
_cell_volume   161.67256935
_cell_formula_units_Z   1
loop_
 _symmetry_equiv_pos_site_id
 _symmetry_equiv_pos_as_xyz
  1  'x, y, z'
loop_
 _atom_site_type_symbol
 _atom_site_label
 _atom_site_symmetry_multiplicity
 _atom_site_fract_x
 _atom_site_fract_y
 _atom_site_fract_z
 _atom_site_occupancy
  Ba  Ba0  1  0.75000000  0.75000000  0.75000000  1
  Ba  Ba1  1  0.25000000  0.25000000  0.25000000  1
  Lu  Lu0  1  0.50000000  0.50000000  0.50000000  1
  U  U0  1  -0.00000000  -0.00000000  -0.00000000  1
  O  O0  1  0.75208781  0.75208781  0.24791219  1
  O  O1  1  0.24791219  0.24791219  0.75208781  1
  O  O2  1  0.75208562  0.24791438  0.75208562  1
  O  O3  1  0.24791438  0.75208562  0.24791438  1
  O  O4  1  0.24791438  0.75208562  0.75208562  1
  O  O5  1  0.75208562  0.24791438  0.24791438  1
loop_
_geom_bond_atom_site_label_1
_geom_bond_atom_site_label_2
_geom_bond_distance
_geom_bond_site_symmetry_2
Ba0 O2 3.057460 1_555
Ba0 O4 3.057460 1_555
Ba0 O4 3.057460 1_655
Ba0 O5 3.057460 1_556
Ba0 O5 3.057460 1_565
Ba0 O3 3.057460 1_556
Ba0 O2 3.057460 1_565
Ba0 O3 3.057460 1_655
Ba0 O0 3.057472 1_555
Ba0 O1 3.057472 1_655
Ba0 O1 3.057472 1_565
Ba0 O0 3.057472 1_556
Ba1 O4 3.057460 1_554
Ba1 O2 3.057460 1_455
Ba1 O5 3.057460 1_555
Ba1 O5 3.057460 1_455
Ba1 O3 3.057460 1_545
Ba1 O2 3.057460 1_554
Ba1 O4 3.057460 1_545
Ba1 O3 3.057460 1_555
Ba1 O1 3.057472 1_555
Ba1 O1 3.057472 1_554
Ba1 O0 3.057472 1_545
Ba1 O0 3.057472 1_455
Lu0 O2 2.179957 1_555
Lu0 O4 2.179957 1_555
Lu0 O5 2.179957 1_555
Lu0 O3 2.179957 1_555
Lu0 O0 2.179959 1_555
Lu0 O1 2.179959 1_555
O0 U0 2.143850 1_665
O1 U0 2.143850 1_556
O2 U0 2.143886 1_656
O3 U0 2.143886 1_565
O4 U0 2.143886 1_566
O5 U0 2.143886 1_655
