# generated using pymatgen
data_Sr3Fe2O7
_symmetry_space_group_name_H-M   'P 1'
_cell_length_a   3.82483423
_cell_length_b   3.82483431
_cell_length_c   10.44769686
_cell_angle_alpha   100.54072404
_cell_angle_beta   100.54071982
_cell_angle_gamma   89.99922900
_symmetry_Int_Tables_number   1
_chemical_formula_structural   Sr3Fe2O7
_chemical_formula_sum   'Sr3 Fe2 O7'
_cell_volume   147.63969801
_cell_formula_units_Z   1
loop_
 _symmetry_equiv_pos_site_id
 _symmetry_equiv_pos_as_xyz
  1  'x, y, z'
loop_
 _atom_site_type_symbol
 _atom_site_label
 _atom_site_symmetry_multiplicity
 _atom_site_fract_x
 _atom_site_fract_y
 _atom_site_fract_z
 _atom_site_occupancy
  Sr  Sr0  1  0.68313529  0.68313429  0.36637229  1
  Sr  Sr1  1  0.31685296  0.31685196  0.63359949  1
  Sr  Sr2  1  0.50001401  0.50001501  0.00001739  1
  Fe  Fe0  1  0.90342882  0.90342882  0.80692697  1
  Fe  Fe1  1  0.09657160  0.09657160  0.19306614  1
  O  O0  1  0.00002270  0.00002270  0.00004644  1
  O  O1  1  0.80750826  0.80750926  0.61500730  1
  O  O2  1  0.19244788  0.19244988  0.38493634  1
  O  O3  1  0.90492164  0.40487977  0.80976101  1
  O  O4  1  0.40487977  0.90492164  0.80976101  1
  O  O5  1  0.59512719  0.09508987  0.19025331  1
  O  O6  1  0.09509087  0.59512719  0.19025331  1
loop_
_geom_bond_atom_site_label_1
_geom_bond_atom_site_label_2
_geom_bond_distance
_geom_bond_site_symmetry_2
Fe0 O4 1.912498 1_555
Fe0 O3 1.912498 1_555
Fe0 O4 1.912764 1_655
Fe0 O3 1.912764 1_565
Fe0 O1 1.936856 1_555
Fe0 O0 1.948965 1_666
Fe1 O5 1.912479 1_555
Fe1 O6 1.912479 1_555
Fe1 O5 1.912777 1_455
Fe1 O6 1.912777 1_545
Fe1 O2 1.936357 1_555
Fe1 O0 1.947958 1_555
O0 Sr2 2.704545 1_545
O0 Sr2 2.704550 1_445
O0 Sr2 2.704551 1_455
O0 Sr2 2.704619 1_555
O1 Sr0 2.509228 1_555
O1 Sr1 2.710797 1_555
O1 Sr1 2.711044 1_565
O1 Sr1 2.711054 1_655
O1 Sr1 2.711374 1_665
O2 Sr1 2.509512 1_555
O2 Sr0 2.710861 1_555
O2 Sr0 2.711021 1_455
O2 Sr0 2.711037 1_545
O2 Sr0 2.711270 1_445
O3 Sr1 2.611009 1_655
O3 Sr1 2.611251 1_555
O3 Sr2 2.709919 1_556
O3 Sr2 2.710048 1_656
O4 Sr1 2.611006 1_565
O4 Sr1 2.611254 1_555
O4 Sr2 2.709916 1_556
O4 Sr2 2.710050 1_566
O5 Sr0 2.610725 1_545
O5 Sr0 2.610950 1_555
O5 Sr2 2.709792 1_555
O5 Sr2 2.709882 1_545
O6 Sr0 2.610725 1_455
O6 Sr0 2.610950 1_555
O6 Sr2 2.709787 1_555
O6 Sr2 2.709887 1_455
