# generated using pymatgen
data_Rb2Cd3(B4O7)4
_symmetry_space_group_name_H-M   'P 1'
_cell_length_a   11.56662301
_cell_length_b   11.56662301
_cell_length_c   13.52600380
_cell_angle_alpha   88.45252117
_cell_angle_beta   88.45252117
_cell_angle_gamma   39.31871207
_symmetry_Int_Tables_number   1
_chemical_formula_structural   Rb2Cd3(B4O7)4
_chemical_formula_sum   'Rb4 Cd6 B32 O56'
_cell_volume   1146.15193985
_cell_formula_units_Z   2
loop_
 _symmetry_equiv_pos_site_id
 _symmetry_equiv_pos_as_xyz
  1  'x, y, z'
loop_
 _atom_site_type_symbol
 _atom_site_label
 _atom_site_symmetry_multiplicity
 _atom_site_fract_x
 _atom_site_fract_y
 _atom_site_fract_z
 _atom_site_occupancy
  Rb  Rb0  1  0.22185600  0.27740000  0.90682400  1
  Rb  Rb1  1  0.72260000  0.77814400  0.59317600  1
  Rb  Rb2  1  0.77814400  0.72260000  0.09317600  1
  Rb  Rb3  1  0.27740000  0.22185600  0.40682400  1
  Cd  Cd0  1  0.74164500  0.25835500  0.25000000  1
  Cd  Cd1  1  0.25835500  0.74164500  0.75000000  1
  Cd  Cd2  1  0.24293300  0.75887600  0.10183100  1
  Cd  Cd3  1  0.24112400  0.75706700  0.39816900  1
  Cd  Cd4  1  0.75706700  0.24112400  0.89816900  1
  Cd  Cd5  1  0.75887600  0.24293300  0.60183100  1
  B  B0  1  0.99445500  0.15925700  0.41233300  1
  B  B1  1  0.84074300  0.00554500  0.08766700  1
  B  B2  1  0.00554500  0.84074300  0.58766700  1
  B  B3  1  0.15925700  0.99445500  0.91233300  1
  B  B4  1  0.17128700  0.02105800  0.24094900  1
  B  B5  1  0.97894200  0.82871300  0.25905100  1
  B  B6  1  0.82871300  0.97894200  0.75905100  1
  B  B7  1  0.02105800  0.17128700  0.74094900  1
  B  B8  1  0.48715900  0.32824600  0.08743700  1
  B  B9  1  0.67175400  0.51284100  0.41256300  1
  B  B10  1  0.51284100  0.67175400  0.91256300  1
  B  B11  1  0.32824600  0.48715900  0.58743700  1
  B  B12  1  0.51504000  0.67613300  0.24710200  1
  B  B13  1  0.32386700  0.48496000  0.25289800  1
  B  B14  1  0.48496000  0.32386700  0.75289800  1
  B  B15  1  0.67613300  0.51504000  0.74710200  1
  B  B16  1  0.99615200  0.17764200  0.07886900  1
  B  B17  1  0.82235800  0.00384800  0.42113100  1
  B  B18  1  0.00384800  0.82235800  0.92113100  1
  B  B19  1  0.17764200  0.99615200  0.57886900  1
  B  B20  1  0.65057600  0.48794500  0.07680900  1
  B  B21  1  0.51205500  0.34942400  0.42319100  1
  B  B22  1  0.34942400  0.51205500  0.92319100  1
  B  B23  1  0.48794500  0.65057600  0.57680900  1
  B  B24  1  0.28470100  0.33571100  0.16017700  1
  B  B25  1  0.66428900  0.71529900  0.33982300  1
  B  B26  1  0.71529900  0.66428900  0.83982300  1
  B  B27  1  0.33571100  0.28470100  0.66017700  1
  B  B28  1  0.23246000  0.14323200  0.65241800  1
  B  B29  1  0.85676800  0.76754000  0.84758200  1
  B  B30  1  0.76754000  0.85676800  0.34758200  1
  B  B31  1  0.14323200  0.23246000  0.15241800  1
  O  O0  1  0.12392400  0.01450800  0.01261400  1
  O  O1  1  0.98549200  0.87607600  0.48738600  1
  O  O2  1  0.87607600  0.98549200  0.98738600  1
  O  O3  1  0.01450800  0.12392400  0.51261400  1
  O  O4  1  0.83123700  0.32296700  0.37429000  1
  O  O5  1  0.67703300  0.16876300  0.12571000  1
  O  O6  1  0.16876300  0.67703300  0.62571000  1
  O  O7  1  0.32296700  0.83123700  0.87429000  1
  O  O8  1  0.01392100  0.11031300  0.17844900  1
  O  O9  1  0.88968700  0.98607900  0.32155100  1
  O  O10  1  0.98607900  0.88968700  0.82155100  1
  O  O11  1  0.11031300  0.01392100  0.67844900  1
  O  O12  1  0.19361600  0.68636900  0.95914900  1
  O  O13  1  0.31363100  0.80638400  0.54085100  1
  O  O14  1  0.80638400  0.31363100  0.04085100  1
  O  O15  1  0.68636900  0.19361600  0.45914900  1
  O  O16  1  0.63287600  0.51460600  0.17723800  1
  O  O17  1  0.48539400  0.36712400  0.32276200  1
  O  O18  1  0.36712400  0.48539400  0.82276200  1
  O  O19  1  0.51460600  0.63287600  0.67723800  1
  O  O20  1  0.32741100  0.82664400  0.21142200  1
  O  O21  1  0.17335600  0.67258900  0.28857800  1
  O  O22  1  0.67258900  0.17335600  0.78857800  1
  O  O23  1  0.82664400  0.32741100  0.71142200  1
  O  O24  1  0.39047800  0.47901500  0.15552000  1
  O  O25  1  0.52098500  0.60952200  0.34448000  1
  O  O26  1  0.60952200  0.52098500  0.84448000  1
  O  O27  1  0.47901500  0.39047800  0.65552000  1
  O  O28  1  0.39805200  0.28226500  0.08361300  1
  O  O29  1  0.71773500  0.60194800  0.41638700  1
  O  O30  1  0.60194800  0.71773500  0.91638700  1
  O  O31  1  0.28226500  0.39805200  0.58361300  1
  O  O32  1  0.97789100  0.86492300  0.15108000  1
  O  O33  1  0.13507700  0.02210900  0.34892000  1
  O  O34  1  0.02210900  0.13507700  0.84892000  1
  O  O35  1  0.86492300  0.97789100  0.65108000  1
  O  O36  1  0.11915900  0.20764900  0.73095300  1
  O  O37  1  0.79235100  0.88084100  0.76904700  1
  O  O38  1  0.88084100  0.79235100  0.26904700  1
  O  O39  1  0.20764900  0.11915900  0.23095300  1
  O  O40  1  0.40389600  0.26981600  0.74701700  1
  O  O41  1  0.73018400  0.59610400  0.75298300  1
  O  O42  1  0.59610400  0.73018400  0.25298300  1
  O  O43  1  0.26981600  0.40389600  0.24701700  1
  O  O44  1  0.04460200  0.26361700  0.07658700  1
  O  O45  1  0.73638300  0.95539800  0.42341300  1
  O  O46  1  0.95539800  0.73638300  0.92341300  1
  O  O47  1  0.26361700  0.04460200  0.57658700  1
  O  O48  1  0.50829800  0.62586300  0.01492800  1
  O  O49  1  0.37413700  0.49170200  0.48507200  1
  O  O50  1  0.49170200  0.37413700  0.98507200  1
  O  O51  1  0.62586300  0.50829800  0.51492800  1
  O  O52  1  0.17101800  0.32951000  0.14364500  1
  O  O53  1  0.67049000  0.82898200  0.35635500  1
  O  O54  1  0.82898200  0.67049000  0.85635500  1
  O  O55  1  0.32951000  0.17101800  0.64364500  1
loop_
_geom_bond_atom_site_label_1
_geom_bond_atom_site_label_2
_geom_bond_distance
_geom_bond_site_symmetry_2
Cd0 O9 2.316865 1_545
Cd0 O8 2.316865 1_655
Cd0 O16 2.340113 1_555
Cd0 O17 2.340113 1_555
Cd0 O4 2.412237 1_555
Cd0 O5 2.412237 1_555
Cd1 O10 2.316865 1_455
Cd1 O11 2.316865 1_565
Cd1 O18 2.340113 1_555
Cd1 O19 2.340113 1_555
Cd1 O6 2.412237 1_555
Cd1 O7 2.412237 1_555
Cd2 O20 2.256668 1_555
Cd2 O24 2.304487 1_555
Cd2 O32 2.337105 1_455
Cd2 O12 2.374955 1_554
Cd2 O0 2.386037 1_565
Cd2 O48 2.401244 1_555
Cd3 O21 2.256668 1_555
Cd3 O25 2.304487 1_555
Cd3 O33 2.337105 1_565
Cd3 O13 2.374955 1_555
Cd3 O1 2.386037 1_455
Cd3 O49 2.401244 1_555
Cd4 O22 2.256668 1_555
Cd4 O26 2.304487 1_555
Cd4 O34 2.337105 1_655
Cd4 O14 2.374955 1_556
Cd4 O2 2.386037 1_545
Cd4 O50 2.401244 1_555
Cd5 O23 2.256668 1_555
Cd5 O27 2.304487 1_555
Cd5 O35 2.337105 1_545
Cd5 O15 2.374955 1_555
Cd5 O3 2.386037 1_655
Cd5 O51 2.401244 1_555
B0 O4 1.372263 1_555
B0 O3 1.378778 1_655
B0 O33 1.379708 1_655
B1 O5 1.372263 1_555
B1 O2 1.378778 1_544
B1 O32 1.379708 1_545
B2 O6 1.372263 1_555
B2 O1 1.378778 1_455
B2 O35 1.379708 1_455
B3 O7 1.372263 1_555
B3 O0 1.378778 1_566
B3 O34 1.379708 1_565
B4 O20 1.484474 1_545
B4 O39 1.486528 1_555
B4 O8 1.490646 1_555
B4 O33 1.506129 1_555
B5 O21 1.484474 1_655
B5 O38 1.486528 1_555
B5 O9 1.490646 1_555
B5 O32 1.506129 1_555
B6 O22 1.484474 1_565
B6 O37 1.486528 1_555
B6 O10 1.490646 1_555
B6 O35 1.506129 1_555
B7 O23 1.484474 1_455
B7 O36 1.486528 1_555
B7 O11 1.490646 1_555
B7 O34 1.506129 1_555
B8 O24 1.467463 1_555
B8 O28 1.483346 1_555
B8 O50 1.483622 1_554
B8 O5 1.495173 1_555
B9 O25 1.467463 1_555
B9 O29 1.483346 1_555
B9 O51 1.483622 1_555
B9 O4 1.495173 1_555
B10 O26 1.467463 1_555
B10 O30 1.483346 1_555
B10 O48 1.483622 1_556
B10 O7 1.495173 1_555
B11 O27 1.467463 1_555
B11 O31 1.483346 1_555
B11 O49 1.483622 1_555
B11 O6 1.495173 1_555
B12 O20 1.462508 1_555
B12 O42 1.479889 1_555
B12 O25 1.483677 1_555
B12 O16 1.525462 1_555
B13 O21 1.462508 1_555
B13 O43 1.479889 1_555
B13 O24 1.483677 1_555
B13 O17 1.525462 1_555
B14 O22 1.462508 1_555
B14 O40 1.479889 1_555
B14 O27 1.483677 1_555
B14 O18 1.525462 1_555
B15 O23 1.462508 1_555
B15 O41 1.479889 1_555
B15 O26 1.483677 1_555
B15 O19 1.525462 1_555
B16 O44 1.470917 1_655
B16 O8 1.474300 1_655
B16 O14 1.493898 1_555
B16 O0 1.500906 1_655
B17 O45 1.470917 1_545
B17 O9 1.474300 1_545
B17 O15 1.493898 1_555
B17 O1 1.500906 1_545
B18 O46 1.470917 1_455
B18 O10 1.474300 1_455
B18 O12 1.493898 1_555
B18 O2 1.500906 1_455
B19 O47 1.470917 1_565
B19 O11 1.474300 1_565
B19 O13 1.493898 1_555
B19 O3 1.500906 1_565
B20 O16 1.375569 1_555
B20 O48 1.376204 1_555
B20 O14 1.390338 1_555
B21 O17 1.375569 1_555
B21 O49 1.376204 1_555
B21 O15 1.390338 1_555
B22 O18 1.375569 1_555
B22 O50 1.376204 1_555
B22 O12 1.390338 1_555
B23 O19 1.375569 1_555
B23 O51 1.376204 1_555
B23 O13 1.390338 1_555
B24 O43 1.363943 1_555
B24 O28 1.371412 1_555
B24 O52 1.395298 1_555
B25 O42 1.363943 1_555
B25 O29 1.371412 1_555
B25 O53 1.395298 1_555
B26 O41 1.363943 1_555
B26 O30 1.371412 1_555
B26 O54 1.395298 1_555
B27 O40 1.363943 1_555
B27 O31 1.371412 1_555
B27 O55 1.395298 1_555
B28 O36 1.362989 1_555
B28 O47 1.374949 1_555
B28 O55 1.387959 1_555
B29 O37 1.362989 1_555
B29 O46 1.374949 1_555
B29 O54 1.387959 1_555
B30 O38 1.362989 1_555
B30 O45 1.374949 1_555
B30 O53 1.387959 1_555
B31 O39 1.362989 1_555
B31 O44 1.374949 1_555
B31 O52 1.387959 1_555
O28 Rb0 3.212876 1_554
O29 Rb1 3.212876 1_555
O30 Rb2 3.212876 1_556
O31 Rb3 3.212876 1_555
O36 Rb0 3.075685 1_555
O37 Rb1 3.075685 1_555
O38 Rb2 3.075685 1_555
O39 Rb3 3.075685 1_555
O40 Rb0 2.931233 1_555
O41 Rb1 2.931233 1_555
O42 Rb2 2.931233 1_555
O43 Rb3 2.931233 1_555
O44 Rb0 3.119800 1_554
O44 Rb2 3.527594 1_455
O45 Rb1 3.119800 1_555
O45 Rb3 3.527594 1_565
O46 Rb2 3.119800 1_556
O46 Rb0 3.527594 1_655
O47 Rb3 3.119800 1_555
O47 Rb1 3.527594 1_545
O52 Rb2 3.133687 1_455
O52 Rb0 3.228619 1_554
O53 Rb3 3.133687 1_565
O53 Rb1 3.228619 1_555
O54 Rb0 3.133687 1_655
O54 Rb2 3.228619 1_556
O55 Rb1 3.133687 1_545
O55 Rb3 3.228619 1_555
