# generated using pymatgen
data_Zr(MnN)4
_symmetry_space_group_name_H-M   'P 1'
_cell_length_a   5.16190581
_cell_length_b   5.57424424
_cell_length_c   8.45962350
_cell_angle_alpha   58.98904664
_cell_angle_beta   78.14181211
_cell_angle_gamma   67.83869654
_symmetry_Int_Tables_number   1
_chemical_formula_structural   Zr(MnN)4
_chemical_formula_sum   'Zr2 Mn8 N8'
_cell_volume   193.19231027
_cell_formula_units_Z   2
loop_
 _symmetry_equiv_pos_site_id
 _symmetry_equiv_pos_as_xyz
  1  'x, y, z'
loop_
 _atom_site_type_symbol
 _atom_site_label
 _atom_site_symmetry_multiplicity
 _atom_site_fract_x
 _atom_site_fract_y
 _atom_site_fract_z
 _atom_site_occupancy
  Zr  Zr0  1  0.74824200  0.73050000  0.82813600  1
  Zr  Zr1  1  0.25175800  0.26950000  0.17186400  1
  Mn  Mn0  1  0.71555200  0.67375300  0.24419000  1
  Mn  Mn1  1  0.28444800  0.32624700  0.75581000  1
  Mn  Mn2  1  0.76683000  0.14113400  0.94017000  1
  Mn  Mn3  1  0.23317000  0.85886600  0.05983000  1
  Mn  Mn4  1  0.75064400  0.47017200  0.58436000  1
  Mn  Mn5  1  0.24935600  0.52982800  0.41564000  1
  Mn  Mn6  1  0.25181700  0.90833700  0.59853000  1
  Mn  Mn7  1  0.74818300  0.09166300  0.40147000  1
  N  N0  1  0.00535500  0.68961600  0.58629700  1
  N  N1  1  0.99464500  0.31038400  0.41370300  1
  N  N2  1  0.96170000  0.73992800  0.02440200  1
  N  N3  1  0.03830000  0.26007200  0.97559800  1
  N  N4  1  0.49663300  0.50989900  0.79418000  1
  N  N5  1  0.50336700  0.49010100  0.20582000  1
  N  N6  1  0.53460000  0.86735300  0.38680700  1
  N  N7  1  0.46540000  0.13264700  0.61319300  1
loop_
_geom_bond_atom_site_label_1
_geom_bond_atom_site_label_2
_geom_bond_distance
_geom_bond_site_symmetry_2
Mn0 N6 1.900175 1_555
Mn0 N5 1.920268 1_555
Mn0 N2 1.970666 1_555
Mn0 N1 1.972111 1_555
Mn1 N7 1.900175 1_555
Mn1 N4 1.920268 1_555
Mn1 N3 1.970666 1_555
Mn1 N0 1.972111 1_555
Mn2 N2 1.864540 1_546
Mn2 N3 1.889783 1_655
Mn2 N4 1.903966 1_555
Mn3 N3 1.864540 1_564
Mn3 N2 1.889783 1_455
Mn3 N5 1.903966 1_555
Mn4 N6 2.007255 1_555
Mn4 N4 2.036744 1_555
Mn4 N1 2.048242 1_555
Mn4 N0 2.113792 1_655
Mn5 N7 2.007255 1_555
Mn5 N5 2.036744 1_555
Mn5 N0 2.048242 1_555
Mn5 N1 2.113792 1_455
Mn6 N7 2.012534 1_565
Mn6 N4 2.055136 1_555
Mn6 N1 2.056078 1_465
Mn6 N0 2.114238 1_555
Mn6 N6 2.118134 1_555
Mn7 N6 2.012534 1_545
Mn7 N5 2.055136 1_555
Mn7 N0 2.056078 1_645
Mn7 N1 2.114238 1_555
Mn7 N7 2.118134 1_555
N0 Zr0 2.266113 1_455
N1 Zr1 2.266113 1_655
N2 Zr0 2.204317 1_554
N2 Zr1 2.260352 1_655
N3 Zr1 2.204317 1_556
N3 Zr0 2.260352 1_455
N4 Zr0 2.236888 1_555
N5 Zr1 2.236888 1_555
N6 Zr1 2.210186 1_565
N7 Zr0 2.210186 1_545
