# generated using pymatgen
data_Mg2CdH24(BrO2)6
_symmetry_space_group_name_H-M   'P 1'
_cell_length_a   8.69076555
_cell_length_b   8.69076555
_cell_length_c   8.69076525
_cell_angle_alpha   74.16184362
_cell_angle_beta   74.16184362
_cell_angle_gamma   74.16184633
_symmetry_Int_Tables_number   1
_chemical_formula_structural   Mg2CdH24(BrO2)6
_chemical_formula_sum   'Mg2 Cd1 H24 Br6 O12'
_cell_volume   593.38730525
_cell_formula_units_Z   1
loop_
 _symmetry_equiv_pos_site_id
 _symmetry_equiv_pos_as_xyz
  1  'x, y, z'
loop_
 _atom_site_type_symbol
 _atom_site_label
 _atom_site_symmetry_multiplicity
 _atom_site_fract_x
 _atom_site_fract_y
 _atom_site_fract_z
 _atom_site_occupancy
  Mg  Mg0  1  0.32183800  0.32183800  0.32183800  1
  Mg  Mg1  1  0.67816200  0.67816200  0.67816200  1
  Cd  Cd0  1  0.00000000  0.00000000  0.00000000  1
  H  H0  1  0.06055600  0.17932700  0.39105200  1
  H  H1  1  0.17932700  0.39105200  0.06055600  1
  H  H2  1  0.39105200  0.06055600  0.17932700  1
  H  H3  1  0.93944400  0.82067300  0.60894800  1
  H  H4  1  0.82067300  0.60894800  0.93944400  1
  H  H5  1  0.60894800  0.93944400  0.82067300  1
  H  H6  1  0.15243900  0.09320100  0.53558800  1
  H  H7  1  0.09320100  0.53558900  0.15243900  1
  H  H8  1  0.53558900  0.15243900  0.09320100  1
  H  H9  1  0.84756100  0.90679900  0.46441100  1
  H  H10  1  0.90679900  0.46441200  0.84756100  1
  H  H11  1  0.46441200  0.84756100  0.90679900  1
  H  H12  1  0.62358300  0.40230000  0.20385400  1
  H  H13  1  0.40230000  0.20385400  0.62358300  1
  H  H14  1  0.20385400  0.62358300  0.40230000  1
  H  H15  1  0.37641700  0.59770000  0.79614600  1
  H  H16  1  0.59770000  0.79614600  0.37641700  1
  H  H17  1  0.79614600  0.37641700  0.59770000  1
  H  H18  1  0.48873900  0.56288500  0.15591600  1
  H  H19  1  0.56288500  0.15591600  0.48873900  1
  H  H20  1  0.15591600  0.48873900  0.56288500  1
  H  H21  1  0.51126100  0.43711500  0.84408400  1
  H  H22  1  0.43711500  0.84408400  0.51126100  1
  H  H23  1  0.84408400  0.51126100  0.43711500  1
  Br  Br0  1  0.84725100  0.15309500  0.27394600  1
  Br  Br1  1  0.15309500  0.27394600  0.84725100  1
  Br  Br2  1  0.27394600  0.84725100  0.15309500  1
  Br  Br3  1  0.15274900  0.84690500  0.72605400  1
  Br  Br4  1  0.84690500  0.72605400  0.15274900  1
  Br  Br5  1  0.72605400  0.15274900  0.84690500  1
  O  O0  1  0.14346800  0.18898400  0.44355100  1
  O  O1  1  0.18898400  0.44355100  0.14346800  1
  O  O2  1  0.44355100  0.14346800  0.18898400  1
  O  O3  1  0.85653200  0.81101600  0.55644900  1
  O  O4  1  0.81101600  0.55644900  0.85653200  1
  O  O5  1  0.55644900  0.85653200  0.81101600  1
  O  O6  1  0.50811800  0.44470900  0.19969500  1
  O  O7  1  0.44470900  0.19969500  0.50811800  1
  O  O8  1  0.19969500  0.50811800  0.44470900  1
  O  O9  1  0.49188200  0.55529100  0.80030500  1
  O  O10  1  0.55529100  0.80030500  0.49188200  1
  O  O11  1  0.80030500  0.49188200  0.55529100  1
loop_
_geom_bond_atom_site_label_1
_geom_bond_atom_site_label_2
_geom_bond_distance
_geom_bond_site_symmetry_2
Mg0 O0 2.066475 1_555
Mg0 O1 2.066475 1_555
Mg0 O2 2.066475 1_555
Mg0 O6 2.067572 1_555
Mg0 O7 2.067572 1_555
Mg0 O8 2.067572 1_555
Mg1 O3 2.066475 1_555
Mg1 O4 2.066475 1_555
Mg1 O5 2.066475 1_555
Mg1 O9 2.067572 1_555
Mg1 O10 2.067572 1_555
Mg1 O11 2.067572 1_555
H0 O0 0.983767 1_555
H1 O1 0.983767 1_555
H2 O2 0.983767 1_555
H3 O3 0.983767 1_555
H4 O4 0.983767 1_555
H5 O5 0.983767 1_555
H6 O0 0.986906 1_555
H7 O1 0.986911 1_555
H8 O2 0.986911 1_555
H9 O3 0.986911 1_555
H10 O4 0.986906 1_555
H11 O5 0.986906 1_555
H12 O6 0.977121 1_555
H13 O7 0.977121 1_555
H14 O8 0.977121 1_555
H15 O9 0.977121 1_555
H16 O10 0.977121 1_555
H17 O11 0.977121 1_555
H18 O6 0.977345 1_555
H19 O7 0.977345 1_555
H20 O8 0.977345 1_555
H21 O9 0.977345 1_555
H22 O10 0.977345 1_555
H23 O11 0.977345 1_555
Br0 Cd0 2.870636 1_655
Br1 Cd0 2.870636 1_556
Br2 Cd0 2.870636 1_565
Br3 Cd0 2.870636 1_566
Br4 Cd0 2.870636 1_665
Br5 Cd0 2.870636 1_656
