# generated using pymatgen
data_KCaV2F9
_symmetry_space_group_name_H-M   'P 1'
_cell_length_a   7.56575738
_cell_length_b   7.56575738
_cell_length_c   23.89680100
_cell_angle_alpha   90.00000000
_cell_angle_beta   90.00000000
_cell_angle_gamma   119.51726423
_symmetry_Int_Tables_number   1
_chemical_formula_structural   KCaV2F9
_chemical_formula_sum   'K6 Ca6 V12 F54'
_cell_volume   1190.32978194
_cell_formula_units_Z   6
loop_
 _symmetry_equiv_pos_site_id
 _symmetry_equiv_pos_as_xyz
  1  'x, y, z'
loop_
 _atom_site_type_symbol
 _atom_site_label
 _atom_site_symmetry_multiplicity
 _atom_site_fract_x
 _atom_site_fract_y
 _atom_site_fract_z
 _atom_site_occupancy
  K  K0  1  0.48890000  0.51110000  0.75000000  1
  K  K1  1  0.51110000  0.48890000  0.25000000  1
  K  K2  1  0.53769600  0.49483400  0.58386200  1
  K  K3  1  0.46230400  0.50516600  0.08386200  1
  K  K4  1  0.50516600  0.46230400  0.91613800  1
  K  K5  1  0.49483400  0.53769600  0.41613800  1
  Ca  Ca0  1  0.01678900  0.01678900  0.50000000  1
  Ca  Ca1  1  0.98321100  0.98321100  0.00000000  1
  Ca  Ca2  1  0.00048500  0.48509200  0.83319000  1
  Ca  Ca3  1  0.99951500  0.51490800  0.33319000  1
  Ca  Ca4  1  0.51490800  0.99951500  0.66681000  1
  Ca  Ca5  1  0.48509200  0.00048500  0.16681000  1
  V  V0  1  0.01904900  0.51829700  0.50193400  1
  V  V1  1  0.98095100  0.48170300  0.00193400  1
  V  V2  1  0.48170300  0.98095100  0.99806600  1
  V  V3  1  0.51829700  0.01904900  0.49806600  1
  V  V4  1  0.01290500  0.49770200  0.66493500  1
  V  V5  1  0.98709500  0.50229800  0.16493500  1
  V  V6  1  0.50229800  0.98709500  0.83506500  1
  V  V7  1  0.49770200  0.01290500  0.33506500  1
  V  V8  1  0.98729100  0.00230900  0.16850800  1
  V  V9  1  0.01270900  0.99769100  0.66850800  1
  V  V10  1  0.99769100  0.01270900  0.33149200  1
  V  V11  1  0.00230900  0.98729100  0.83149200  1
  F  F0  1  0.17538100  0.37892200  0.51620100  1
  F  F1  1  0.82461900  0.62107800  0.01620100  1
  F  F2  1  0.62107800  0.82461900  0.98379900  1
  F  F3  1  0.37892200  0.17538100  0.48379900  1
  F  F4  1  0.72097800  0.36414600  0.68012000  1
  F  F5  1  0.27902200  0.63585400  0.18012000  1
  F  F6  1  0.63585400  0.27902200  0.81988000  1
  F  F7  1  0.36414600  0.72097800  0.31988000  1
  F  F8  1  0.96446600  0.22434300  0.64864600  1
  F  F9  1  0.03553400  0.77565700  0.14864600  1
  F  F10  1  0.77565700  0.03553400  0.85135400  1
  F  F11  1  0.22434300  0.96446600  0.35135400  1
  F  F12  1  0.07559300  0.47619400  0.74339000  1
  F  F13  1  0.92440700  0.52380600  0.24339000  1
  F  F14  1  0.52380600  0.92440700  0.75661000  1
  F  F15  1  0.47619400  0.07559300  0.25661000  1
  F  F16  1  0.04162500  0.97074200  0.58954600  1
  F  F17  1  0.95837500  0.02925800  0.08954600  1
  F  F18  1  0.02925800  0.95837500  0.91045400  1
  F  F19  1  0.97074200  0.04162500  0.41045400  1
  F  F20  1  0.24709300  0.79181300  0.51715600  1
  F  F21  1  0.75290700  0.20818700  0.01715600  1
  F  F22  1  0.20818700  0.75290700  0.98284400  1
  F  F23  1  0.79181300  0.24709300  0.48284400  1
  F  F24  1  0.97469100  0.02530900  0.75000000  1
  F  F25  1  0.02530900  0.97469100  0.25000000  1
  F  F26  1  0.90598900  0.45912500  0.92305500  1
  F  F27  1  0.09401100  0.54087500  0.42305500  1
  F  F28  1  0.54087500  0.09401100  0.57694500  1
  F  F29  1  0.45912500  0.90598900  0.07694500  1
  F  F30  1  0.17094100  0.28261400  0.83731000  1
  F  F31  1  0.82905900  0.71738600  0.33731000  1
  F  F32  1  0.71738600  0.82905900  0.66269000  1
  F  F33  1  0.28261400  0.17094100  0.16269000  1
  F  F34  1  0.14173700  0.34751600  0.98853100  1
  F  F35  1  0.85826300  0.65248400  0.48853100  1
  F  F36  1  0.65248400  0.85826300  0.51146900  1
  F  F37  1  0.34751600  0.14173700  0.01146900  1
  F  F38  1  0.83589900  0.69241100  0.82379500  1
  F  F39  1  0.16410100  0.30758900  0.32379500  1
  F  F40  1  0.30758900  0.16410100  0.67620500  1
  F  F41  1  0.69241100  0.83589900  0.17620500  1
  F  F42  1  0.05809600  0.76776700  0.68525300  1
  F  F43  1  0.94190400  0.23223300  0.18525300  1
  F  F44  1  0.23223300  0.94190400  0.81474700  1
  F  F45  1  0.76776700  0.05809600  0.31474700  1
  F  F46  1  0.30551500  0.63738600  0.64835800  1
  F  F47  1  0.69448500  0.36261400  0.14835800  1
  F  F48  1  0.36261400  0.69448500  0.85164200  1
  F  F49  1  0.63738600  0.30551500  0.35164200  1
  F  F50  1  0.94387700  0.50628300  0.58330900  1
  F  F51  1  0.05612300  0.49371700  0.08330900  1
  F  F52  1  0.49371700  0.05612300  0.91669100  1
  F  F53  1  0.50628300  0.94387700  0.41669100  1
loop_
_geom_bond_atom_site_label_1
_geom_bond_atom_site_label_2
_geom_bond_distance
_geom_bond_site_symmetry_2
Ca0 F19 2.190935 1_455
Ca0 F16 2.190935 1_545
Ca0 F36 2.419315 1_445
Ca0 F35 2.419315 1_445
Ca0 F3 2.420085 1_555
Ca0 F0 2.420085 1_555
Ca1 F17 2.190935 1_565
Ca1 F18 2.190935 1_654
Ca1 F37 2.419315 1_665
Ca1 F34 2.419315 1_664
Ca1 F2 2.420085 1_554
Ca1 F1 2.420085 1_555
Ca2 F12 2.229386 1_555
Ca2 F26 2.241210 1_455
Ca2 F6 2.429865 1_455
Ca2 F48 2.435910 1_555
Ca2 F30 2.442587 1_555
Ca2 F38 2.446595 1_455
Ca3 F13 2.229386 1_555
Ca3 F27 2.241210 1_655
Ca3 F7 2.429865 1_655
Ca3 F49 2.435910 1_555
Ca3 F31 2.442587 1_555
Ca3 F39 2.446595 1_655
Ca4 F14 2.229386 1_555
Ca4 F28 2.241210 1_565
Ca4 F4 2.429865 1_565
Ca4 F46 2.435910 1_555
Ca4 F32 2.442587 1_555
Ca4 F40 2.446595 1_565
Ca5 F15 2.229386 1_555
Ca5 F29 2.241210 1_545
Ca5 F5 2.429865 1_545
Ca5 F47 2.435910 1_555
Ca5 F33 2.442587 1_555
Ca5 F41 2.446595 1_545
F0 V0 1.963686 1_555
F0 K2 2.920398 1_555
F0 K5 3.184550 1_555
F1 V1 1.963686 1_555
F1 K3 2.920398 1_555
F1 K4 3.184550 1_554
F2 V2 1.963686 1_555
F2 K4 2.920398 1_555
F2 K3 3.184550 1_556
F3 V3 1.963686 1_555
F3 K5 2.920398 1_555
F3 K2 3.184550 1_555
F4 V4 1.957481 1_655
F4 K0 3.005221 1_555
F4 K2 3.089123 1_555
F5 V5 1.957481 1_455
F5 K1 3.005221 1_555
F5 K3 3.089123 1_555
F6 V6 1.957481 1_545
F6 K0 3.005221 1_555
F6 K4 3.089123 1_555
F7 V7 1.957481 1_565
F7 K1 3.005221 1_555
F7 K5 3.089123 1_555
F8 V4 1.953534 1_655
F8 V9 1.978827 1_645
F9 V5 1.953534 1_455
F9 V8 1.978827 1_465
F10 V6 1.953534 1_545
F10 V11 1.978827 1_645
F11 V7 1.953534 1_565
F11 V10 1.978827 1_465
F12 V4 1.960213 1_555
F12 K0 3.009813 1_555
F13 V5 1.960213 1_555
F13 K1 3.009813 1_555
F14 V6 1.960213 1_555
F14 K0 3.009813 1_555
F15 V7 1.960213 1_555
F15 K1 3.009813 1_555
F16 V9 1.921958 1_555
F17 V8 1.921958 1_555
F18 V11 1.921958 1_555
F19 V10 1.921958 1_555
F20 V0 1.968049 1_555
F20 V3 1.974325 1_565
F21 V1 1.968049 1_555
F21 V2 1.974325 1_544
F22 V2 1.968049 1_555
F22 V1 1.974325 1_456
F23 V3 1.968049 1_555
F23 V0 1.974325 1_655
F24 V11 1.994486 1_645
F24 V9 1.994486 1_645
F25 V8 1.994486 1_465
F25 V10 1.994486 1_465
F26 V1 1.951519 1_556
F26 K4 3.048935 1_555
F27 V0 1.951519 1_555
F27 K5 3.048935 1_555
F28 V3 1.951519 1_555
F28 K2 3.048935 1_555
F29 V2 1.951519 1_554
F29 K3 3.048935 1_555
F30 V11 1.957145 1_545
F30 K4 2.898865 1_555
F30 K0 3.005120 1_555
F31 V10 1.957145 1_565
F31 K5 2.898865 1_555
F31 K1 3.005120 1_555
F32 V9 1.957145 1_655
F32 K2 2.898865 1_555
F32 K0 3.005120 1_555
F33 V8 1.957145 1_455
F33 K3 2.898865 1_555
F33 K1 3.005120 1_555
F34 V1 1.957035 1_456
F34 K4 2.992386 1_555
F34 K3 3.105504 1_556
F35 V0 1.957035 1_655
F35 K5 2.992386 1_555
F35 K2 3.105504 1_555
F36 V3 1.957035 1_565
F36 K2 2.992386 1_555
F36 K5 3.105504 1_555
F37 V2 1.957035 1_544
F37 K3 2.992386 1_555
F37 K4 3.105504 1_554
F38 V11 1.956657 1_655
F38 K0 2.887070 1_555
F38 K4 3.141512 1_555
F39 V10 1.956657 1_455
F39 K1 2.887070 1_555
F39 K5 3.141512 1_555
F40 V9 1.956657 1_545
F40 K0 2.887070 1_555
F40 K2 3.141512 1_555
F41 V8 1.956657 1_565
F41 K1 2.887070 1_555
F41 K3 3.141512 1_555
F42 V4 1.959368 1_555
F42 V9 1.972985 1_555
F43 V5 1.959368 1_555
F43 V8 1.972985 1_555
F44 V6 1.959368 1_555
F44 V11 1.972985 1_555
F45 V7 1.959368 1_555
F45 V10 1.972985 1_555
F46 V4 1.967078 1_555
F46 K2 2.913966 1_555
F46 K0 3.169192 1_555
F47 V5 1.967078 1_555
F47 K3 2.913966 1_555
F47 K1 3.169192 1_555
F48 V6 1.967078 1_555
F48 K4 2.913966 1_555
F48 K0 3.169192 1_555
F49 V7 1.967078 1_555
F49 K5 2.913966 1_555
F49 K1 3.169192 1_555
F50 V0 2.015504 1_655
F50 V4 2.028598 1_655
F50 K2 3.031356 1_555
F51 V1 2.015504 1_455
F51 V5 2.028598 1_455
F51 K3 3.031356 1_555
F52 V2 2.015504 1_545
F52 V6 2.028598 1_545
F52 K4 3.031356 1_555
F53 V3 2.015504 1_565
F53 V7 2.028598 1_565
F53 K5 3.031356 1_555
