# generated using pymatgen
data_La4CeZn5
_symmetry_space_group_name_H-M   'P 1'
_cell_length_a   3.71265500
_cell_length_b   3.71265500
_cell_length_c   18.57556900
_cell_angle_alpha   90.00000000
_cell_angle_beta   90.00000000
_cell_angle_gamma   90.00000000
_symmetry_Int_Tables_number   1
_chemical_formula_structural   La4CeZn5
_chemical_formula_sum   'La4 Ce1 Zn5'
_cell_volume   256.04206078
_cell_formula_units_Z   1
loop_
 _symmetry_equiv_pos_site_id
 _symmetry_equiv_pos_as_xyz
  1  'x, y, z'
loop_
 _atom_site_type_symbol
 _atom_site_label
 _atom_site_symmetry_multiplicity
 _atom_site_fract_x
 _atom_site_fract_y
 _atom_site_fract_z
 _atom_site_occupancy
  La  La0  1  0.00000000  0.00000000  0.19871100  1
  La  La1  1  0.00000000  0.00000000  0.39977400  1
  La  La2  1  0.00000000  0.00000000  0.60022600  1
  La  La3  1  0.00000000  0.00000000  0.80128900  1
  Ce  Ce0  1  0.00000000  0.00000000  0.00000000  1
  Zn  Zn0  1  0.50000000  0.50000000  0.09765700  1
  Zn  Zn1  1  0.50000000  0.50000000  0.29996100  1
  Zn  Zn2  1  0.50000000  0.50000000  0.50000000  1
  Zn  Zn3  1  0.50000000  0.50000000  0.70003900  1
  Zn  Zn4  1  0.50000000  0.50000000  0.90234300  1
loop_
_geom_bond_atom_site_label_1
_geom_bond_atom_site_label_2
_geom_bond_distance
_geom_bond_site_symmetry_2
La0 Zn0 3.227312 1_445
La0 Zn0 3.227312 1_555
La0 Zn0 3.227312 1_455
La0 Zn0 3.227312 1_545
La0 Zn1 3.229431 1_455
La0 Zn1 3.229431 1_445
La0 Zn1 3.229431 1_545
La0 Zn1 3.229431 1_555
La1 Zn1 3.213958 1_455
La1 Zn1 3.213958 1_545
La1 Zn1 3.213958 1_555
La1 Zn1 3.213958 1_445
La1 Zn2 3.218390 1_545
La1 Zn2 3.218390 1_555
La1 Zn2 3.218390 1_455
La1 Zn2 3.218390 1_445
La2 Zn3 3.213958 1_455
La2 Zn3 3.213958 1_445
La2 Zn3 3.213958 1_545
La2 Zn3 3.213958 1_555
La2 Zn2 3.218390 1_445
La2 Zn2 3.218390 1_545
La2 Zn2 3.218390 1_555
La2 Zn2 3.218390 1_455
La3 Zn4 3.227312 1_445
La3 Zn4 3.227312 1_555
La3 Zn4 3.227312 1_545
La3 Zn4 3.227312 1_455
La3 Zn3 3.229431 1_545
La3 Zn3 3.229431 1_555
La3 Zn3 3.229431 1_445
La3 Zn3 3.229431 1_455
Ce0 Zn4 3.191022 1_454
Ce0 Zn4 3.191022 1_444
Ce0 Zn0 3.191022 1_545
Ce0 Zn0 3.191022 1_555
Ce0 Zn0 3.191022 1_455
Ce0 Zn4 3.191022 1_544
Ce0 Zn4 3.191022 1_554
Ce0 Zn0 3.191022 1_445
