# generated using pymatgen
data_SrMg14C
_symmetry_space_group_name_H-M   'P 1'
_cell_length_a   6.65619612
_cell_length_b   6.09368694
_cell_length_c   10.24025634
_cell_angle_alpha   90.00000000
_cell_angle_beta   90.00000000
_cell_angle_gamma   117.24172624
_symmetry_Int_Tables_number   1
_chemical_formula_structural   SrMg14C
_chemical_formula_sum   'Sr1 Mg14 C1'
_cell_volume   369.28316172
_cell_formula_units_Z   1
loop_
 _symmetry_equiv_pos_site_id
 _symmetry_equiv_pos_as_xyz
  1  'x, y, z'
loop_
 _atom_site_type_symbol
 _atom_site_label
 _atom_site_symmetry_multiplicity
 _atom_site_fract_x
 _atom_site_fract_y
 _atom_site_fract_z
 _atom_site_occupancy
  Sr  Sr0  1  0.11537396  0.30768648  0.12500000  1
  Mg  Mg0  1  0.16743612  0.33371756  0.62500000  1
  Mg  Mg1  1  0.14682330  0.82341115  0.62500000  1
  Mg  Mg2  1  0.59161623  0.27657178  0.12500000  1
  Mg  Mg3  1  0.65643525  0.33301043  0.62500000  1
  Mg  Mg4  1  0.59161623  0.81504345  0.12500000  1
  Mg  Mg5  1  0.65643525  0.82342382  0.62500000  1
  Mg  Mg6  1  0.34325723  0.16535549  0.37976417  1
  Mg  Mg7  1  0.34325723  0.16535549  0.87023583  1
  Mg  Mg8  1  0.34325723  0.67790274  0.37976417  1
  Mg  Mg9  1  0.34325723  0.67790274  0.87023583  1
  Mg  Mg10  1  0.82777902  0.16389001  0.39120451  1
  Mg  Mg11  1  0.82777902  0.16389001  0.85879549  1
  Mg  Mg12  1  0.87920892  0.68960496  0.32358893  1
  Mg  Mg13  1  0.87920892  0.68960496  0.92641107  1
  C  C0  1  0.28725884  0.89362892  0.12500000  1
loop_
_geom_bond_atom_site_label_1
_geom_bond_atom_site_label_2
_geom_bond_distance
_geom_bond_site_symmetry_2
Mg0 Mg1 3.049284 1_545
Mg0 Mg1 3.049284 1_555
Mg0 Mg10 3.126049 1_455
Mg0 Mg11 3.126049 1_455
Mg0 Mg6 3.134945 1_555
Mg0 Mg7 3.134945 1_555
Mg0 Mg8 3.134951 1_555
Mg0 Mg9 3.134951 1_555
Mg0 Mg5 3.256849 1_555
Mg0 Mg3 3.256849 1_555
Mg0 Mg5 3.399351 1_445
Mg0 Mg3 3.399352 1_455
Mg1 Mg8 3.140645 1_555
Mg1 Mg9 3.140645 1_555
Mg1 Mg6 3.140651 1_565
Mg1 Mg7 3.140651 1_565
Mg1 Mg3 3.264154 1_455
Mg1 Mg5 3.264154 1_455
Mg1 Mg3 3.392041 1_565
Mg1 Mg5 3.392042 1_555
Mg1 Mg12 3.469122 1_455
Mg1 Mg13 3.469122 1_455
Mg2 Sr0 3.261112 1_555
Mg2 Sr0 3.403621 1_655
Mg3 Mg5 2.988426 1_555
Mg3 Mg5 3.105261 1_545
Mg3 Mg6 3.121860 1_555
Mg3 Mg7 3.121860 1_555
Mg4 Sr0 3.261112 1_555
Mg4 Sr0 3.403621 1_665
Mg5 Mg8 3.121860 1_555
Mg5 Mg9 3.121860 1_555
Mg6 Sr0 3.326190 1_555
Mg7 Sr0 3.326190 1_556
Mg8 Sr0 3.326196 1_555
Mg9 Sr0 3.326196 1_556
Mg10 Mg3 3.028312 1_555
Mg10 Mg5 3.028318 1_545
Mg10 Mg12 3.139316 1_555
Mg10 Mg12 3.139316 1_545
Mg10 Sr0 3.213684 1_655
Mg10 Mg8 3.231294 1_545
Mg10 Mg6 3.231294 1_555
Mg10 Mg2 3.370719 1_555
Mg10 Mg4 3.370724 1_545
Mg10 Mg8 3.429047 1_655
Mg10 Mg6 3.429047 1_655
Mg11 Mg3 3.028312 1_555
Mg11 Mg5 3.028318 1_545
Mg11 Mg13 3.139316 1_555
Mg11 Mg13 3.139316 1_545
Mg11 Sr0 3.213684 1_656
Mg11 Mg9 3.231294 1_545
Mg11 Mg7 3.231294 1_555
Mg11 Mg2 3.370719 1_556
Mg11 Mg4 3.370724 1_546
Mg11 Mg9 3.429047 1_655
Mg11 Mg7 3.429047 1_655
C0 Mg2 2.285080 1_565
C0 Mg4 2.285080 1_555
C0 Sr0 3.212157 1_555
C0 Sr0 3.212157 1_565
