# generated using pymatgen
data_Zn3Cd3(BO3)4
_symmetry_space_group_name_H-M   'P 1'
_cell_length_a   6.49392230
_cell_length_b   6.49392230
_cell_length_c   6.49392222
_cell_angle_alpha   81.86436618
_cell_angle_beta   81.86436618
_cell_angle_gamma   81.86435720
_symmetry_Int_Tables_number   1
_chemical_formula_structural   Zn3Cd3(BO3)4
_chemical_formula_sum   'Zn3 Cd3 B4 O12'
_cell_volume   266.30053851
_cell_formula_units_Z   1
loop_
 _symmetry_equiv_pos_site_id
 _symmetry_equiv_pos_as_xyz
  1  'x, y, z'
loop_
 _atom_site_type_symbol
 _atom_site_label
 _atom_site_symmetry_multiplicity
 _atom_site_fract_x
 _atom_site_fract_y
 _atom_site_fract_z
 _atom_site_occupancy
  Zn  Zn0  1  0.83515400  0.51789900  0.21825000  1
  Zn  Zn1  1  0.21825000  0.83515400  0.51789900  1
  Zn  Zn2  1  0.51789900  0.21825000  0.83515400  1
  Cd  Cd0  1  0.71600300  0.01710500  0.34345700  1
  Cd  Cd1  1  0.34345700  0.71600300  0.01710500  1
  Cd  Cd2  1  0.01710500  0.34345700  0.71600300  1
  B  B0  1  0.89249500  0.89249500  0.89249500  1
  B  B1  1  0.40591200  0.40591200  0.40591200  1
  B  B2  1  0.63705100  0.63705100  0.63705100  1
  B  B3  1  0.15206200  0.15206200  0.15206200  1
  O  O0  1  0.79098600  0.80809700  0.08157100  1
  O  O1  1  0.08157100  0.79098600  0.80809700  1
  O  O2  1  0.80809700  0.08157100  0.79098600  1
  O  O3  1  0.58879700  0.34905200  0.27769800  1
  O  O4  1  0.27769800  0.58879700  0.34905200  1
  O  O5  1  0.34905200  0.27769800  0.58879700  1
  O  O6  1  0.51846500  0.82419100  0.57453600  1
  O  O7  1  0.57453600  0.51846500  0.82419100  1
  O  O8  1  0.82419100  0.57453600  0.51846500  1
  O  O9  1  0.05305400  0.33931700  0.06159400  1
  O  O10  1  0.06159400  0.05305400  0.33931700  1
  O  O11  1  0.33931700  0.06159400  0.05305400  1
loop_
_geom_bond_atom_site_label_1
_geom_bond_atom_site_label_2
_geom_bond_distance
_geom_bond_site_symmetry_2
Cd0 O6 2.201081 1_545
Cd0 O3 2.201550 1_555
Cd0 O0 2.281111 1_545
Cd0 O10 2.285011 1_655
Cd1 O7 2.201081 1_554
Cd1 O4 2.201550 1_555
Cd1 O1 2.281111 1_554
Cd1 O11 2.285010 1_565
Cd2 O8 2.201081 1_455
Cd2 O5 2.201550 1_555
Cd2 O2 2.281111 1_455
Cd2 O9 2.285010 1_556
B0 O1 1.387525 1_655
B0 O2 1.387525 1_565
B0 O0 1.387525 1_556
B1 O4 1.386757 1_555
B1 O3 1.386757 1_555
B1 O5 1.386757 1_555
B2 O6 1.385171 1_555
B2 O8 1.385171 1_555
B2 O7 1.385171 1_555
B3 O9 1.385878 1_555
B3 O11 1.385878 1_555
B3 O10 1.385878 1_555
O0 Zn0 1.966506 1_555
O1 Zn1 1.966506 1_555
O2 Zn2 1.966505 1_555
O3 Zn0 2.027958 1_555
O4 Zn1 2.027958 1_555
O5 Zn2 2.027958 1_555
O6 Zn1 2.024211 1_555
O7 Zn2 2.024211 1_555
O8 Zn0 2.024211 1_555
O9 Zn0 1.960649 1_455
O10 Zn1 1.960649 1_545
O11 Zn2 1.960649 1_554
