# generated using pymatgen
data_Fe8H10O17
_symmetry_space_group_name_H-M   'P 1'
_cell_length_a   6.13736800
_cell_length_b   10.54836913
_cell_length_c   10.72137103
_cell_angle_alpha   93.42568392
_cell_angle_beta   91.14579198
_cell_angle_gamma   91.78072819
_symmetry_Int_Tables_number   1
_chemical_formula_structural   Fe8H10O17
_chemical_formula_sum   'Fe16 H20 O34'
_cell_volume   692.35225040
_cell_formula_units_Z   2
loop_
 _symmetry_equiv_pos_site_id
 _symmetry_equiv_pos_as_xyz
  1  'x, y, z'
loop_
 _atom_site_type_symbol
 _atom_site_label
 _atom_site_symmetry_multiplicity
 _atom_site_fract_x
 _atom_site_fract_y
 _atom_site_fract_z
 _atom_site_occupancy
  Fe  Fe0  1  0.02171200  0.32312700  0.90849800  1
  Fe  Fe1  1  0.99405500  0.16006500  0.38418400  1
  Fe  Fe2  1  0.24634000  0.83814300  0.43366900  1
  Fe  Fe3  1  0.22245400  0.71321800  0.91196800  1
  Fe  Fe4  1  0.99889000  0.66514200  0.20563400  1
  Fe  Fe5  1  0.99553400  0.86692300  0.72455900  1
  Fe  Fe6  1  0.24496200  0.17219200  0.68133600  1
  Fe  Fe7  1  0.25260400  0.35696800  0.19882100  1
  Fe  Fe8  1  0.50140600  0.32441300  0.90138800  1
  Fe  Fe9  1  0.48991500  0.14620000  0.38204900  1
  Fe  Fe10  1  0.72742200  0.83117500  0.42328500  1
  Fe  Fe11  1  0.78964700  0.86093400  0.03717100  1
  Fe  Fe12  1  0.49039600  0.67977400  0.18094700  1
  Fe  Fe13  1  0.50634600  0.87200700  0.73317800  1
  Fe  Fe14  1  0.76148600  0.17538600  0.67039800  1
  Fe  Fe15  1  0.74758400  0.33271600  0.19424900  1
  H  H0  1  0.99971700  0.38260700  0.64749200  1
  H  H1  1  0.99517600  0.42115300  0.39661700  1
  H  H2  1  0.19872800  0.87300500  0.18082600  1
  H  H3  1  0.98362500  0.65584900  0.48912400  1
  H  H4  1  0.98968900  0.99417200  0.52405000  1
  H  H5  1  0.86210300  0.68978400  0.83325700  1
  H  H6  1  0.30073600  0.50129400  0.99273300  1
  H  H7  1  0.17894000  0.08731300  0.18193200  1
  H  H8  1  0.48018300  0.37365400  0.64258200  1
  H  H9  1  0.49596200  0.01639100  0.57257400  1
  H  H10  1  0.52058600  0.40444600  0.40455000  1
  H  H11  1  0.75423600  0.52357000  0.07646000  1
  H  H12  1  0.40337400  0.61948400  0.37636300  1
  H  H13  1  0.75783400  0.11251200  0.90377700  1
  H  H14  1  0.82377400  0.51045400  0.84827900  1
  H  H15  1  0.67929600  0.08172800  0.17486600  1
  H  H16  1  0.48138300  0.01389000  0.02807200  1
  H  H17  1  0.14190200  0.96827600  0.00841400  1
  H  H18  1  0.55645700  0.60093700  0.77982000  1
  H  H19  1  0.42545600  0.64596000  0.65833900  1
  O  O0  1  0.00606000  0.31429500  0.70369600  1
  O  O1  1  0.99457300  0.05246300  0.67165700  1
  O  O2  1  0.99898300  0.35384100  0.33148100  1
  O  O3  1  0.00141100  0.31842500  0.08723800  1
  O  O4  1  0.24166100  0.80377400  0.23853600  1
  O  O5  1  0.25686700  0.54861700  0.21164700  1
  O  O6  1  0.25584000  0.88224700  0.85309700  1
  O  O7  1  0.24538800  0.82948300  0.61167400  1
  O  O8  1  0.98360300  0.69883600  0.41142200  1
  O  O9  1  0.98921000  0.96665200  0.43092800  1
  O  O10  1  0.98400100  0.66944300  0.77838700  1
  O  O11  1  0.98889900  0.70840300  0.03090900  1
  O  O12  1  0.25478800  0.20441700  0.86714300  1
  O  O13  1  0.26813300  0.46337000  0.90840900  1
  O  O14  1  0.22921900  0.15175100  0.25171400  1
  O  O15  1  0.25045800  0.19329600  0.49769800  1
  O  O16  1  0.51041800  0.31072400  0.70250600  1
  O  O17  1  0.50054900  0.05046100  0.66434500  1
  O  O18  1  0.50397500  0.34775300  0.33043800  1
  O  O19  1  0.49358400  0.32092500  0.08337300  1
  O  O20  1  0.74856900  0.78884700  0.23100700  1
  O  O21  1  0.74627000  0.53324800  0.16949200  1
  O  O22  1  0.75681500  0.88813400  0.85514900  1
  O  O23  1  0.73749200  0.82876900  0.60669300  1
  O  O24  1  0.47119300  0.69258100  0.42535000  1
  O  O25  1  0.49468900  0.96279900  0.42452400  1
  O  O26  1  0.49125000  0.70618400  0.01034500  1
  O  O27  1  0.75282300  0.19533500  0.86709300  1
  O  O28  1  0.77115600  0.44801900  0.90573300  1
  O  O29  1  0.73417300  0.14940500  0.25116200  1
  O  O30  1  0.74789500  0.19726100  0.49397500  1
  O  O31  1  0.59243500  0.99308500  0.08846300  1
  O  O32  1  0.06213600  0.96836600  0.08743700  1
  O  O33  1  0.44982000  0.65892100  0.74898700  1
loop_
_geom_bond_atom_site_label_1
_geom_bond_atom_site_label_2
_geom_bond_distance
_geom_bond_site_symmetry_2
Fe0 O3 1.926359 1_556
Fe0 O12 1.970070 1_555
Fe0 O28 2.056667 1_455
Fe0 O13 2.082521 1_555
Fe0 O27 2.120964 1_455
Fe0 O0 2.192219 1_555
Fe1 O30 1.968436 1_555
Fe1 O15 1.979522 1_655
Fe1 O14 2.045207 1_655
Fe1 O29 2.114082 1_555
Fe1 O9 2.129189 1_545
Fe1 O2 2.152460 1_555
Fe2 O7 1.916204 1_555
Fe2 O25 1.989638 1_555
Fe2 O24 2.095280 1_555
Fe2 O4 2.101290 1_555
Fe2 O9 2.112976 1_455
Fe2 O8 2.147528 1_455
Fe3 O6 1.932963 1_555
Fe3 O11 1.939003 1_456
Fe3 O26 1.945985 1_556
Fe3 O10 2.049691 1_455
Fe3 O33 2.314342 1_555
Fe4 O11 1.954617 1_555
Fe4 O5 2.036698 1_655
Fe4 O20 2.058122 1_555
Fe4 O4 2.065145 1_655
Fe4 O21 2.065688 1_555
Fe4 O8 2.218029 1_555
Fe5 O7 2.006726 1_655
Fe5 O23 2.021521 1_555
Fe5 O22 2.054717 1_555
Fe5 O1 2.070118 1_565
Fe5 O6 2.084918 1_655
Fe5 O10 2.193964 1_555
Fe6 O1 1.955678 1_455
Fe6 O15 1.995404 1_555
Fe6 O12 2.000166 1_555
Fe6 O17 2.061859 1_555
Fe6 O0 2.135854 1_555
Fe6 O16 2.153784 1_555
Fe7 O3 1.949967 1_555
Fe7 O19 1.978866 1_555
Fe7 O5 2.017361 1_555
Fe7 O18 2.078326 1_555
Fe7 O2 2.130227 1_455
Fe7 O14 2.271295 1_555
Fe8 O19 1.955192 1_556
Fe8 O12 1.957311 1_555
Fe8 O28 2.073292 1_555
Fe8 O13 2.079761 1_555
Fe8 O27 2.112688 1_555
Fe8 O16 2.130488 1_555
Fe9 O15 1.997162 1_555
Fe9 O30 2.007678 1_555
Fe9 O25 2.014725 1_545
Fe9 O29 2.074685 1_555
Fe9 O14 2.107657 1_555
Fe9 O18 2.228193 1_555
Fe10 O23 1.967825 1_555
Fe10 O25 2.022356 1_555
Fe10 O20 2.090506 1_555
Fe10 O9 2.113865 1_555
Fe10 O24 2.114976 1_555
Fe10 O8 2.135445 1_555
Fe11 O31 1.936603 1_555
Fe11 O22 1.996536 1_554
Fe11 O32 2.035839 1_655
Fe11 O11 2.049716 1_555
Fe11 O20 2.271239 1_555
Fe11 O26 2.416253 1_555
Fe12 O26 1.866651 1_555
Fe12 O20 1.975183 1_555
Fe12 O5 2.006653 1_555
Fe12 O4 2.118443 1_555
Fe12 O21 2.237410 1_555
Fe13 O22 1.994699 1_555
Fe13 O6 2.025143 1_555
Fe13 O23 2.025524 1_555
Fe13 O17 2.063599 1_565
Fe13 O7 2.065282 1_555
Fe13 O33 2.280504 1_555
Fe14 O30 1.919637 1_555
Fe14 O1 1.960739 1_555
Fe14 O17 2.039572 1_555
Fe14 O0 2.075315 1_655
Fe14 O27 2.108663 1_555
Fe14 O16 2.151765 1_555
Fe15 O19 1.937754 1_555
Fe15 O3 1.957363 1_655
Fe15 O29 2.061833 1_555
Fe15 O2 2.108011 1_555
Fe15 O18 2.113503 1_555
Fe15 O21 2.147795 1_555
H0 O0 0.967758 1_655
H1 O2 0.966854 1_555
H2 O4 1.022250 1_555
H3 O8 0.971989 1_555
H4 O9 1.022871 1_555
H4 O1 1.662558 1_565
H5 O10 0.981992 1_555
H6 O13 0.980805 1_555
H7 O14 1.016826 1_555
H8 O16 0.970410 1_555
H9 O17 1.026662 1_555
H9 O25 1.652618 1_545
H10 O18 0.967246 1_555
H11 O21 0.998885 1_555
H12 O24 0.983123 1_555
H13 O27 0.980379 1_555
H14 O28 0.980144 1_555
H15 O29 1.093816 1_555
H15 O31 1.364693 1_545
H16 O31 0.969818 1_545
H17 O32 0.986910 1_555
H18 O33 0.975755 1_555
H19 O33 0.981133 1_555
