# generated using pymatgen
data_Li2Cu2TeO6
_symmetry_space_group_name_H-M   'P 1'
_cell_length_a   5.21889795
_cell_length_b   5.21889795
_cell_length_c   5.45524065
_cell_angle_alpha   104.29642476
_cell_angle_beta   104.29642476
_cell_angle_gamma   112.43785564
_symmetry_Int_Tables_number   1
_chemical_formula_structural   Li2Cu2TeO6
_chemical_formula_sum   'Li2 Cu2 Te1 O6'
_cell_volume   123.04798617
_cell_formula_units_Z   1
loop_
 _symmetry_equiv_pos_site_id
 _symmetry_equiv_pos_as_xyz
  1  'x, y, z'
loop_
 _atom_site_type_symbol
 _atom_site_label
 _atom_site_symmetry_multiplicity
 _atom_site_fract_x
 _atom_site_fract_y
 _atom_site_fract_z
 _atom_site_occupancy
  Li  Li0  1  0.80926800  0.19073200  0.50000000  1
  Li  Li1  1  0.19073200  0.80926800  0.50000000  1
  Cu  Cu0  1  0.33607100  0.66392900  0.00000000  1
  Cu  Cu1  1  0.66392900  0.33607100  0.00000000  1
  Te  Te0  1  0.00000000  0.00000000  0.00000000  1
  O  O0  1  0.76291900  0.76291900  0.17689900  1
  O  O1  1  0.23708100  0.23708100  0.82310100  1
  O  O2  1  0.02316900  0.35561000  0.24635000  1
  O  O3  1  0.35561000  0.02316900  0.24635000  1
  O  O4  1  0.97683100  0.64439000  0.75365000  1
  O  O5  1  0.64439000  0.97683100  0.75365000  1
loop_
_geom_bond_atom_site_label_1
_geom_bond_atom_site_label_2
_geom_bond_distance
_geom_bond_site_symmetry_2
Li0 O4 2.118684 1_555
Li0 O3 2.118684 1_555
Li0 O2 2.125785 1_655
Li0 O5 2.125785 1_545
Li0 O1 2.363012 1_655
Li0 O0 2.363012 1_545
Li1 O2 2.118684 1_555
Li1 O5 2.118684 1_555
Li1 O3 2.125785 1_565
Li1 O4 2.125785 1_455
Li1 O1 2.363012 1_565
Li1 O0 2.363012 1_455
Cu0 O4 1.968117 1_454
Cu0 O3 1.968117 1_565
Cu0 O0 1.993551 1_555
Cu0 O1 1.993551 1_554
Cu1 O2 1.968117 1_655
Cu1 O5 1.968117 1_544
Cu1 O0 1.993551 1_555
Cu1 O1 1.993551 1_554
O0 Te0 2.000967 1_665
O1 Te0 2.000967 1_556
O2 Te0 1.944651 1_555
O3 Te0 1.944651 1_555
O4 Te0 1.944651 1_666
O5 Te0 1.944651 1_666
