# generated using pymatgen
data_Mg2Sn
_symmetry_space_group_name_H-M   'P 1'
_cell_length_a   6.03147536
_cell_length_b   6.03147536
_cell_length_c   6.03147554
_cell_angle_alpha   55.59256199
_cell_angle_beta   55.59256199
_cell_angle_gamma   55.59256364
_symmetry_Int_Tables_number   1
_chemical_formula_structural   Mg2Sn
_chemical_formula_sum   'Mg4 Sn2'
_cell_volume   139.28067511
_cell_formula_units_Z   2
loop_
 _symmetry_equiv_pos_site_id
 _symmetry_equiv_pos_as_xyz
  1  'x, y, z'
loop_
 _atom_site_type_symbol
 _atom_site_label
 _atom_site_symmetry_multiplicity
 _atom_site_fract_x
 _atom_site_fract_y
 _atom_site_fract_z
 _atom_site_occupancy
  Mg  Mg0  1  1.00000000  0.66546494  0.33453506  1
  Mg  Mg1  1  0.66546494  0.33453506  0.00000000  1
  Mg  Mg2  1  0.50000000  0.50000000  0.50000000  1
  Mg  Mg3  1  0.33453506  0.00000000  0.66546494  1
  Sn  Sn0  1  0.83534010  0.83534010  0.83534010  1
  Sn  Sn1  1  0.16465990  0.16465990  0.16465990  1
loop_
_geom_bond_atom_site_label_1
_geom_bond_atom_site_label_2
_geom_bond_distance
_geom_bond_site_symmetry_2
Mg0 Sn1 3.137595 1_665
Mg0 Sn0 3.137595 1_554
Mg0 Mg2 3.156112 1_555
Mg0 Mg2 3.156112 1_655
Mg0 Sn1 3.180800 1_655
Mg0 Sn0 3.180800 1_555
Mg0 Mg1 3.241934 1_556
Mg0 Mg1 3.241934 1_655
Mg0 Mg3 3.241934 1_655
Mg0 Mg3 3.241934 1_565
Mg0 Mg3 3.259481 1_664
Mg0 Mg1 3.259481 1_565
Mg1 Sn1 3.137595 1_655
Mg1 Sn0 3.137595 1_544
Mg1 Mg2 3.156113 1_554
Mg1 Mg2 3.156113 1_555
Mg1 Sn0 3.180800 1_554
Mg1 Sn1 3.180800 1_555
Mg1 Mg3 3.241934 1_555
Mg1 Mg3 3.241934 1_564
Mg1 Mg3 3.259481 1_654
Mg2 Mg3 3.156112 1_555
Mg2 Mg3 3.156112 1_565
Mg2 Sn0 3.247916 1_554
Mg2 Sn1 3.247916 1_556
Mg2 Sn1 3.247916 1_565
Mg2 Sn0 3.247916 1_455
Mg2 Sn0 3.247916 1_545
Mg2 Sn1 3.247916 1_655
Mg3 Sn0 3.137595 1_445
Mg3 Sn1 3.137595 1_556
Mg3 Sn0 3.180800 1_545
Mg3 Sn1 3.180800 1_555
Sn0 Sn1 3.248349 1_665
Sn0 Sn1 3.248349 1_656
Sn0 Sn1 3.248349 1_566
