# generated using pymatgen
data_Cu2H12C4Br3N
_symmetry_space_group_name_H-M   'P 1'
_cell_length_a   6.72304200
_cell_length_b   9.98371900
_cell_length_c   17.62809200
_cell_angle_alpha   90.00000000
_cell_angle_beta   90.00000000
_cell_angle_gamma   90.00000000
_symmetry_Int_Tables_number   1
_chemical_formula_structural   Cu2H12C4Br3N
_chemical_formula_sum   'Cu8 H48 C16 Br12 N4'
_cell_volume   1183.21449597
_cell_formula_units_Z   4
loop_
 _symmetry_equiv_pos_site_id
 _symmetry_equiv_pos_as_xyz
  1  'x, y, z'
loop_
 _atom_site_type_symbol
 _atom_site_label
 _atom_site_symmetry_multiplicity
 _atom_site_fract_x
 _atom_site_fract_y
 _atom_site_fract_z
 _atom_site_occupancy
  Cu  Cu0  1  0.50266600  0.06241600  0.56875100  1
  Cu  Cu1  1  0.99733400  0.43758400  0.06875100  1
  Cu  Cu2  1  0.00266600  0.93758400  0.43124900  1
  Cu  Cu3  1  0.49733400  0.56241600  0.93124900  1
  Cu  Cu4  1  0.49733400  0.93758400  0.43124900  1
  Cu  Cu5  1  0.00266600  0.56241600  0.93124900  1
  Cu  Cu6  1  0.99733400  0.06241600  0.56875100  1
  Cu  Cu7  1  0.50266600  0.43758400  0.06875100  1
  H  H0  1  0.43030900  0.66163600  0.71384600  1
  H  H1  1  0.06969100  0.83836400  0.21384600  1
  H  H2  1  0.93030900  0.33836400  0.28615400  1
  H  H3  1  0.56969100  0.16163600  0.78615400  1
  H  H4  1  0.56969100  0.33836400  0.28615400  1
  H  H5  1  0.93030900  0.16163600  0.78615400  1
  H  H6  1  0.06969100  0.66163600  0.71384600  1
  H  H7  1  0.43030900  0.83836400  0.21384600  1
  H  H8  1  0.56210600  0.55083200  0.65167000  1
  H  H9  1  0.93789400  0.94916800  0.15167000  1
  H  H10  1  0.06210600  0.44916800  0.34833000  1
  H  H11  1  0.43789400  0.05083200  0.84833000  1
  H  H12  1  0.43789400  0.44916800  0.34833000  1
  H  H13  1  0.06210600  0.05083200  0.84833000  1
  H  H14  1  0.93789400  0.55083200  0.65167000  1
  H  H15  1  0.56210600  0.94916800  0.15167000  1
  H  H16  1  0.43086800  0.69317500  0.61348800  1
  H  H17  1  0.06913200  0.80682500  0.11348800  1
  H  H18  1  0.93086800  0.30682500  0.38651200  1
  H  H19  1  0.56913200  0.19317500  0.88651200  1
  H  H20  1  0.56913200  0.30682500  0.38651200  1
  H  H21  1  0.93086800  0.19317500  0.88651200  1
  H  H22  1  0.06913200  0.69317500  0.61348800  1
  H  H23  1  0.43086800  0.80682500  0.11348800  1
  H  H24  1  0.25000000  0.47169400  0.76468000  1
  H  H25  1  0.25000000  0.02830600  0.26468000  1
  H  H26  1  0.75000000  0.52830600  0.23532000  1
  H  H27  1  0.75000000  0.97169400  0.73532000  1
  H  H28  1  0.11640700  0.36264100  0.70118600  1
  H  H29  1  0.38359300  0.13735900  0.20118600  1
  H  H30  1  0.61640700  0.63735900  0.29881400  1
  H  H31  1  0.88359300  0.86264100  0.79881400  1
  H  H32  1  0.88359300  0.63735900  0.29881400  1
  H  H33  1  0.61640700  0.86264100  0.79881400  1
  H  H34  1  0.38359300  0.36264100  0.70118600  1
  H  H35  1  0.11640700  0.13735900  0.20118600  1
  H  H36  1  0.25000000  0.54622300  0.52947400  1
  H  H37  1  0.25000000  0.95377700  0.02947400  1
  H  H38  1  0.75000000  0.45377700  0.47052600  1
  H  H39  1  0.75000000  0.04622300  0.97052600  1
  H  H40  1  0.38325400  0.40399200  0.56736200  1
  H  H41  1  0.11674600  0.09600800  0.06736200  1
  H  H42  1  0.88325400  0.59600800  0.43263800  1
  H  H43  1  0.61674600  0.90399200  0.93263800  1
  H  H44  1  0.61674600  0.59600800  0.43263800  1
  H  H45  1  0.88325400  0.90399200  0.93263800  1
  H  H46  1  0.11674600  0.40399200  0.56736200  1
  H  H47  1  0.38325400  0.09600800  0.06736200  1
  C  C0  1  0.43206000  0.61583600  0.65744500  1
  C  C1  1  0.06794000  0.88416400  0.15744500  1
  C  C2  1  0.93206000  0.38416400  0.34255500  1
  C  C3  1  0.56794000  0.11583600  0.84255500  1
  C  C4  1  0.56794000  0.38416400  0.34255500  1
  C  C5  1  0.93206000  0.11583600  0.84255500  1
  C  C6  1  0.06794000  0.61583600  0.65744500  1
  C  C7  1  0.43206000  0.88416400  0.15744500  1
  C  C8  1  0.25000000  0.42385900  0.70886300  1
  C  C9  1  0.25000000  0.07614100  0.20886300  1
  C  C10  1  0.75000000  0.57614100  0.29113700  1
  C  C11  1  0.75000000  0.92385900  0.79113700  1
  C  C12  1  0.25000000  0.46670500  0.57225000  1
  C  C13  1  0.25000000  0.03329500  0.07225000  1
  C  C14  1  0.75000000  0.53329500  0.42775000  1
  C  C15  1  0.75000000  0.96670500  0.92775000  1
  Br  Br0  1  0.75000000  0.87541900  0.53917700  1
  Br  Br1  1  0.75000000  0.62458100  0.03917700  1
  Br  Br2  1  0.25000000  0.12458100  0.46082300  1
  Br  Br3  1  0.25000000  0.37541900  0.96082300  1
  Br  Br4  1  0.75000000  0.24278000  0.59329400  1
  Br  Br5  1  0.75000000  0.25722000  0.09329400  1
  Br  Br6  1  0.25000000  0.75722000  0.40670600  1
  Br  Br7  1  0.25000000  0.74278000  0.90670600  1
  Br  Br8  1  0.25000000  0.00731100  0.66306200  1
  Br  Br9  1  0.25000000  0.49268900  0.16306200  1
  Br  Br10  1  0.75000000  0.99268900  0.33693800  1
  Br  Br11  1  0.75000000  0.50731100  0.83693800  1
  N  N0  1  0.25000000  0.53069700  0.64913500  1
  N  N1  1  0.25000000  0.96930300  0.14913500  1
  N  N2  1  0.75000000  0.46930300  0.35086500  1
  N  N3  1  0.75000000  0.03069700  0.85086500  1
loop_
_geom_bond_atom_site_label_1
_geom_bond_atom_site_label_2
_geom_bond_distance
_geom_bond_site_symmetry_2
C0 H8 1.093595 1_555
C0 H16 1.093932 1_555
C0 H0 1.094412 1_555
C0 N0 1.497376 1_555
C1 H9 1.093595 1_455
C1 H17 1.093932 1_555
C1 H1 1.094412 1_555
C1 N1 1.497376 1_555
C2 H10 1.093595 1_655
C2 H18 1.093932 1_555
C2 H2 1.094412 1_555
C2 N2 1.497376 1_555
C3 H11 1.093595 1_555
C3 H19 1.093932 1_555
C3 H3 1.094412 1_555
C3 N3 1.497376 1_555
C4 H12 1.093595 1_555
C4 H20 1.093932 1_555
C4 H4 1.094412 1_555
C4 N2 1.497376 1_555
C5 H13 1.093595 1_655
C5 H21 1.093932 1_555
C5 H5 1.094412 1_555
C5 N3 1.497376 1_555
C6 H14 1.093595 1_455
C6 H22 1.093932 1_555
C6 H6 1.094412 1_555
C6 N0 1.497376 1_555
C7 H15 1.093595 1_555
C7 H23 1.093932 1_555
C7 H7 1.094412 1_555
C7 N1 1.497376 1_555
C8 H24 1.093721 1_555
C8 H34 1.094776 1_555
C8 H28 1.094776 1_555
C8 N0 1.498766 1_555
C9 H25 1.093721 1_555
C9 H29 1.094776 1_555
C9 H35 1.094776 1_555
C9 N1 1.498766 1_545
C10 H26 1.093721 1_555
C10 H32 1.094776 1_555
C10 H30 1.094776 1_555
C10 N2 1.498766 1_555
C11 H27 1.093721 1_555
C11 H31 1.094776 1_555
C11 H33 1.094776 1_555
C11 N3 1.498766 1_565
C12 H36 1.094924 1_555
C12 H40 1.096369 1_555
C12 H46 1.096369 1_555
C12 N0 1.498366 1_555
C13 H37 1.094924 1_545
C13 H47 1.096369 1_555
C13 H41 1.096369 1_555
C13 N1 1.498366 1_545
C14 H38 1.094924 1_555
C14 H42 1.096369 1_555
C14 H44 1.096369 1_555
C14 N2 1.498366 1_555
C15 H39 1.094924 1_565
C15 H43 1.096369 1_555
C15 H45 1.096369 1_555
C15 N3 1.498366 1_565
Br0 Cu6 2.553865 1_565
Br0 Cu0 2.553865 1_565
Br0 Cu4 2.624971 1_555
Br0 Cu2 2.624971 1_655
Br1 Cu1 2.553865 1_555
Br1 Cu7 2.553865 1_555
Br1 Cu3 2.624971 1_554
Br1 Cu5 2.624971 1_654
Br2 Cu2 2.553865 1_545
Br2 Cu4 2.553865 1_545
Br2 Cu0 2.624971 1_555
Br2 Cu6 2.624971 1_455
Br3 Cu3 2.553865 1_555
Br3 Cu5 2.553865 1_555
Br3 Cu7 2.624971 1_556
Br3 Cu1 2.624971 1_456
Br4 Cu6 2.488924 1_555
Br4 Cu0 2.488924 1_555
Br5 Cu1 2.488924 1_555
Br5 Cu7 2.488924 1_555
Br6 Cu4 2.488924 1_555
Br6 Cu2 2.488924 1_555
Br7 Cu5 2.488924 1_555
Br7 Cu3 2.488924 1_555
Br8 Cu0 2.439709 1_555
Br8 Cu6 2.439709 1_455
Br9 Cu7 2.439709 1_555
Br9 Cu1 2.439709 1_455
Br10 Cu4 2.439709 1_555
Br10 Cu2 2.439709 1_655
Br11 Cu3 2.439709 1_555
Br11 Cu5 2.439709 1_655
