# generated using pymatgen
data_Li(CrS2)2
_symmetry_space_group_name_H-M   'P 1'
_cell_length_a   6.83928520
_cell_length_b   5.89744644
_cell_length_c   6.02838582
_cell_angle_alpha   90.26330539
_cell_angle_beta   89.99764519
_cell_angle_gamma   90.00064884
_symmetry_Int_Tables_number   1
_chemical_formula_structural   Li(CrS2)2
_chemical_formula_sum   'Li2 Cr4 S8'
_cell_volume   243.14826373
_cell_formula_units_Z   2
loop_
 _symmetry_equiv_pos_site_id
 _symmetry_equiv_pos_as_xyz
  1  'x, y, z'
loop_
 _atom_site_type_symbol
 _atom_site_label
 _atom_site_symmetry_multiplicity
 _atom_site_fract_x
 _atom_site_fract_y
 _atom_site_fract_z
 _atom_site_occupancy
  Li  Li0  1  0.00001697  0.99994191  0.00000670  1
  Li  Li1  1  0.50000013  0.99996471  0.00003917  1
  Cr  Cr0  1  0.25003003  0.49993236  0.50001204  1
  Cr  Cr1  1  0.75000640  0.49992701  0.50000599  1
  Cr  Cr2  1  -0.00001605  0.00010501  0.50000601  1
  Cr  Cr3  1  0.49997479  0.00005062  0.50003011  1
  S  S0  1  0.00001599  0.33240688  0.27799988  1
  S  S1  1  0.50002522  0.33237041  0.27804733  1
  S  S2  1  0.24998329  0.83283305  0.27546227  1
  S  S3  1  0.74999662  0.83283991  0.27546368  1
  S  S4  1  0.24997243  0.16715604  0.72466935  1
  S  S5  1  0.74998361  0.16714445  0.72465999  1
  S  S6  1  0.50000698  0.66766602  0.72180555  1
  S  S7  1  0.00000358  0.66766062  0.72179293  1
loop_
_geom_bond_atom_site_label_1
_geom_bond_atom_site_label_2
_geom_bond_distance
_geom_bond_site_symmetry_2
Li0 S0 2.573440 1_565
Li0 S7 2.573480 1_554
Li0 S4 2.581618 1_564
Li0 S2 2.581993 1_555
Li0 S5 2.582086 1_464
Li0 S3 2.582123 1_455
Li1 S1 2.573234 1_565
Li1 S6 2.573636 1_554
Li1 S5 2.581830 1_564
Li1 S2 2.582042 1_555
Li1 S3 2.582045 1_555
Li1 S4 2.582125 1_564
Cr0 S6 2.382684 1_555
Cr0 S7 2.382808 1_555
Cr0 S1 2.382870 1_555
Cr0 S0 2.383097 1_555
Cr0 S4 2.389590 1_555
Cr0 S2 2.389825 1_555
Cr1 S7 2.382761 1_655
Cr1 S6 2.382765 1_555
Cr1 S1 2.382831 1_555
Cr1 S0 2.382979 1_655
Cr1 S5 2.389609 1_555
Cr1 S3 2.389858 1_555
Cr2 S7 2.378141 1_545
Cr2 S0 2.378194 1_555
Cr2 S5 2.390742 1_455
Cr2 S4 2.390808 1_555
Cr2 S3 2.390907 1_445
Cr2 S2 2.390924 1_545
Cr3 S6 2.377810 1_545
Cr3 S1 2.378202 1_555
Cr3 S4 2.390861 1_555
Cr3 S5 2.390897 1_555
Cr3 S2 2.390900 1_545
Cr3 S3 2.390963 1_545
