# generated using pymatgen
data_YAsPt
_symmetry_space_group_name_H-M   'P 1'
_cell_length_a   4.26372849
_cell_length_b   4.26372873
_cell_length_c   15.42569775
_cell_angle_alpha   90.00000000
_cell_angle_beta   90.00000000
_cell_angle_gamma   119.99999804
_symmetry_Int_Tables_number   1
_chemical_formula_structural   YAsPt
_chemical_formula_sum   'Y4 As4 Pt4'
_cell_volume   242.85920300
_cell_formula_units_Z   4
loop_
 _symmetry_equiv_pos_site_id
 _symmetry_equiv_pos_as_xyz
  1  'x, y, z'
loop_
 _atom_site_type_symbol
 _atom_site_label
 _atom_site_symmetry_multiplicity
 _atom_site_fract_x
 _atom_site_fract_y
 _atom_site_fract_z
 _atom_site_occupancy
  Y  Y0  1  -0.00000000  -0.00000000  -0.00000000  1
  Y  Y1  1  -0.00000000  -0.00000000  0.50000000  1
  Y  Y2  1  -0.00000000  -0.00000000  0.25000000  1
  Y  Y3  1  0.00000000  -0.00000000  0.75000000  1
  As  As0  1  0.33333300  0.66666700  0.88317226  1
  As  As1  1  0.66666700  0.33333300  0.38317226  1
  As  As2  1  0.66666700  0.33333300  0.11682774  1
  As  As3  1  0.33333300  0.66666700  0.61682774  1
  Pt  Pt0  1  0.33333300  0.66666700  0.36532131  1
  Pt  Pt1  1  0.66666700  0.33333300  0.86532131  1
  Pt  Pt2  1  0.66666700  0.33333300  0.63467869  1
  Pt  Pt3  1  0.33333300  0.66666700  0.13467869  1
loop_
_geom_bond_atom_site_label_1
_geom_bond_atom_site_label_2
_geom_bond_distance
_geom_bond_site_symmetry_2
As0 Pt1 2.477016 1_455
As0 Pt1 2.477016 1_565
As0 Pt1 2.477023 1_555
As0 Y0 3.050824 1_566
As0 Y0 3.050826 1_666
As0 Y0 3.050827 1_556
As0 Y3 3.206217 1_565
As0 Y3 3.206220 1_665
As0 Y3 3.206220 1_555
As1 Pt0 2.477016 1_655
As1 Pt0 2.477016 1_545
As1 Pt0 2.477023 1_555
As1 Y1 3.050824 1_655
As1 Y1 3.050826 1_555
As1 Y1 3.050827 1_665
As1 Y2 3.206217 1_655
As1 Y2 3.206220 1_555
As1 Y2 3.206220 1_665
As2 Pt3 2.477016 1_655
As2 Pt3 2.477016 1_545
As2 Pt3 2.477023 1_555
As2 Y0 3.050824 1_655
As2 Y0 3.050826 1_555
As2 Y0 3.050827 1_665
As2 Y2 3.206217 1_655
As2 Y2 3.206220 1_555
As2 Y2 3.206220 1_665
As3 Pt2 2.477016 1_455
As3 Pt2 2.477016 1_565
As3 Pt2 2.477023 1_555
As3 Y1 3.050824 1_565
As3 Y1 3.050826 1_665
As3 Y1 3.050827 1_555
As3 Y3 3.206217 1_565
As3 Y3 3.206220 1_665
As3 Y3 3.206220 1_555
Pt0 Y2 3.037155 1_565
Pt0 Y2 3.037158 1_665
Pt0 Y2 3.037158 1_555
Pt0 Y1 3.221155 1_565
Pt0 Y1 3.221158 1_665
Pt0 Y1 3.221158 1_555
Pt1 Y3 3.037155 1_655
Pt1 Y3 3.037158 1_555
Pt1 Y3 3.037158 1_665
Pt1 Y0 3.221155 1_656
Pt1 Y0 3.221158 1_556
Pt1 Y0 3.221158 1_666
Pt2 Y3 3.037155 1_655
Pt2 Y3 3.037158 1_555
Pt2 Y3 3.037158 1_665
Pt2 Y1 3.221155 1_655
Pt2 Y1 3.221158 1_555
Pt2 Y1 3.221158 1_665
Pt3 Y2 3.037155 1_565
Pt3 Y2 3.037158 1_665
Pt3 Y2 3.037158 1_555
Pt3 Y0 3.221155 1_565
Pt3 Y0 3.221158 1_665
Pt3 Y0 3.221158 1_555
