# generated using pymatgen
data_CaZn(GeO3)4
_symmetry_space_group_name_H-M   'P 1'
_cell_length_a   5.21622646
_cell_length_b   5.21622646
_cell_length_c   7.53392876
_cell_angle_alpha   90.00000000
_cell_angle_beta   90.00000000
_cell_angle_gamma   87.43538195
_symmetry_Int_Tables_number   1
_chemical_formula_structural   CaZn(GeO3)4
_chemical_formula_sum   'Ca1 Zn1 Ge4 O12'
_cell_volume   204.78548688
_cell_formula_units_Z   1
loop_
 _symmetry_equiv_pos_site_id
 _symmetry_equiv_pos_as_xyz
  1  'x, y, z'
loop_
 _atom_site_type_symbol
 _atom_site_label
 _atom_site_symmetry_multiplicity
 _atom_site_fract_x
 _atom_site_fract_y
 _atom_site_fract_z
 _atom_site_occupancy
  Ca  Ca0  1  0.52977043  0.47022957  0.50000000  1
  Zn  Zn0  1  0.97576181  0.02423819  0.00000000  1
  Ge  Ge0  1  0.48554834  0.98675719  0.23932867  1
  Ge  Ge1  1  0.48554834  0.98675719  0.76067133  1
  Ge  Ge2  1  0.01324281  0.51445166  0.76067133  1
  Ge  Ge3  1  0.01324281  0.51445166  0.23932867  1
  O  O0  1  0.30454700  0.30030694  0.26110176  1
  O  O1  1  0.69969306  0.69545300  0.26110176  1
  O  O2  1  0.69969306  0.69545300  0.73889824  1
  O  O3  1  0.30454700  0.30030694  0.73889824  1
  O  O4  1  0.17989353  0.82010647  0.18925766  1
  O  O5  1  0.77984420  0.22015580  0.28904828  1
  O  O6  1  0.77984420  0.22015580  0.71095172  1
  O  O7  1  0.17989353  0.82010647  0.81074234  1
  O  O8  1  0.58959307  0.01694995  0.00000000  1
  O  O9  1  0.45382540  0.94863862  0.50000000  1
  O  O10  1  0.98305005  0.41040693  0.00000000  1
  O  O11  1  0.05136138  0.54617460  0.50000000  1
loop_
_geom_bond_atom_site_label_1
_geom_bond_atom_site_label_2
_geom_bond_distance
_geom_bond_site_symmetry_2
Ca0 O1 2.344875 1_555
Ca0 O0 2.344875 1_555
Ca0 O2 2.344875 1_555
Ca0 O3 2.344875 1_555
Ca0 O5 2.403480 1_555
Ca0 O6 2.403480 1_555
Ca0 O11 2.509170 1_555
Ca0 O9 2.509170 1_555
Ca0 O11 2.766911 1_655
Ca0 O9 2.766911 1_545
Ge0 O1 1.852476 1_555
Ge0 O0 1.858799 1_565
Ge0 O4 1.887855 1_555
Ge0 O8 1.891591 1_565
Ge0 O9 1.981586 1_555
Ge0 O5 2.036259 1_565
Ge1 O2 1.852476 1_555
Ge1 O3 1.858799 1_565
Ge1 O7 1.887855 1_555
Ge1 O8 1.891591 1_566
Ge1 O9 1.981586 1_555
Ge1 O6 2.036259 1_565
Ge2 O3 1.852476 1_555
Ge2 O2 1.858799 1_455
Ge2 O7 1.887855 1_555
Ge2 O10 1.891591 1_456
Ge2 O11 1.981586 1_555
Ge2 O6 2.036259 1_455
Ge3 O0 1.852476 1_555
Ge3 O1 1.858799 1_455
Ge3 O4 1.887855 1_555
Ge3 O10 1.891591 1_455
Ge3 O11 1.981586 1_555
Ge3 O5 2.036259 1_455
O4 Zn0 2.049190 1_465
O7 Zn0 2.049190 1_466
O8 Zn0 2.016402 1_555
O10 Zn0 2.016402 1_555
