# generated using pymatgen
data_KTaWO6
_symmetry_space_group_name_H-M   'P 1'
_cell_length_a   7.46771018
_cell_length_b   7.46771018
_cell_length_c   7.46771018
_cell_angle_alpha   120.19120183
_cell_angle_beta   119.68156905
_cell_angle_gamma   90.11078456
_symmetry_Int_Tables_number   1
_chemical_formula_structural   KTaWO6
_chemical_formula_sum   'K2 Ta2 W2 O12'
_cell_volume   294.74955794
_cell_formula_units_Z   2
loop_
 _symmetry_equiv_pos_site_id
 _symmetry_equiv_pos_as_xyz
  1  'x, y, z'
loop_
 _atom_site_type_symbol
 _atom_site_label
 _atom_site_symmetry_multiplicity
 _atom_site_fract_x
 _atom_site_fract_y
 _atom_site_fract_z
 _atom_site_occupancy
  K  K0  1  0.01757700  0.04943000  0.53185400  1
  K  K1  1  0.98242300  0.51427700  0.03185400  1
  Ta  Ta0  1  0.50000000  0.99846000  0.49846000  1
  Ta  Ta1  1  0.00000000  0.99846000  0.99846000  1
  W  W0  1  0.49967700  0.49730600  0.49762900  1
  W  W1  1  0.50032300  0.99795200  0.99762900  1
  O  O0  1  0.18629700  0.93802000  0.25172300  1
  O  O1  1  0.55651600  0.30649100  0.24997500  1
  O  O2  1  0.19460500  0.94212300  0.88040000  1
  O  O3  1  0.55978600  0.31345500  0.61857300  1
  O  O4  1  0.19488200  0.31345500  0.25366800  1
  O  O5  1  0.56172300  0.94212300  0.24751800  1
  O  O6  1  0.81370300  0.06542600  0.75172300  1
  O  O7  1  0.44348400  0.69345800  0.74997500  1
  O  O8  1  0.80511800  0.05878700  0.11857300  1
  O  O9  1  0.43827700  0.68579600  0.38040000  1
  O  O10  1  0.80539500  0.68579600  0.74751800  1
  O  O11  1  0.44021400  0.05878700  0.75366800  1
loop_
_geom_bond_atom_site_label_1
_geom_bond_atom_site_label_2
_geom_bond_distance
_geom_bond_site_symmetry_2
K0 O6 2.703182 1_455
K0 O11 2.723056 1_555
K0 O8 2.723063 1_455
K0 O0 2.742217 1_545
K0 O2 2.803341 1_545
K0 O5 2.803347 1_445
K1 O0 2.703184 1_655
K1 O4 2.723054 1_655
K1 O3 2.723059 1_554
K1 O6 2.742216 1_554
K1 O9 2.803346 1_655
K1 O10 2.803353 1_554
O0 Ta1 1.992824 1_554
O0 Ta0 1.992824 1_555
O1 W0 1.939121 1_555
O1 W1 1.970314 1_544
O2 W1 1.949930 1_555
O2 Ta1 1.991087 1_555
O3 W0 1.936555 1_555
O3 Ta0 2.003591 1_545
O4 W0 1.936555 1_555
O4 Ta1 2.003591 1_544
O5 W1 1.949930 1_554
O5 Ta0 1.991087 1_555
O6 Ta0 1.992824 1_545
O6 Ta1 1.992824 1_645
O7 W1 1.939127 1_555
O7 W0 1.970312 1_555
O8 W1 1.936555 1_544
O8 Ta1 2.003591 1_644
O9 W0 1.949937 1_555
O9 Ta0 1.991080 1_555
O10 W0 1.949932 1_555
O10 Ta1 1.991082 1_655
O11 W1 1.936562 1_545
O11 Ta0 2.003584 1_545
