# generated using pymatgen
data_TaCr3(CuS4)2
_symmetry_space_group_name_H-M   'P 1'
_cell_length_a   11.41128058
_cell_length_b   7.02735700
_cell_length_c   11.96548907
_cell_angle_alpha   90.00000000
_cell_angle_beta   89.62141067
_cell_angle_gamma   90.00000000
_symmetry_Int_Tables_number   1
_chemical_formula_structural   TaCr3(CuS4)2
_chemical_formula_sum   'Ta4 Cr12 Cu8 S32'
_cell_volume   959.50529195
_cell_formula_units_Z   4
loop_
 _symmetry_equiv_pos_site_id
 _symmetry_equiv_pos_as_xyz
  1  'x, y, z'
loop_
 _atom_site_type_symbol
 _atom_site_label
 _atom_site_symmetry_multiplicity
 _atom_site_fract_x
 _atom_site_fract_y
 _atom_site_fract_z
 _atom_site_occupancy
  Ta  Ta0  1  0.90640400  0.09046400  0.19144700  1
  Ta  Ta1  1  0.40640400  0.90953600  0.19144700  1
  Ta  Ta2  1  0.88356000  0.61197800  0.82507100  1
  Ta  Ta3  1  0.38356000  0.38802200  0.82507100  1
  Cr  Cr0  1  0.11772100  0.89376100  0.69650200  1
  Cr  Cr1  1  0.61772100  0.10623900  0.69650200  1
  Cr  Cr2  1  0.11635400  0.36488600  0.32876000  1
  Cr  Cr3  1  0.61635400  0.63511400  0.32876000  1
  Cr  Cr4  1  0.17769800  0.62577800  0.93852000  1
  Cr  Cr5  1  0.83312900  0.37956000  0.45267300  1
  Cr  Cr6  1  0.33312900  0.62044000  0.45267300  1
  Cr  Cr7  1  0.67769800  0.37422200  0.93852000  1
  Cr  Cr8  1  0.15088500  0.14906900  0.96903900  1
  Cr  Cr9  1  0.84935200  0.86544400  0.47680700  1
  Cr  Cr10  1  0.34935100  0.13455600  0.47680700  1
  Cr  Cr11  1  0.65088500  0.85093100  0.96903900  1
  Cu  Cu0  1  0.05099900  0.39509700  0.64244200  1
  Cu  Cu1  1  0.88473800  0.61707000  0.19329400  1
  Cu  Cu2  1  0.38473800  0.38293000  0.19329400  1
  Cu  Cu3  1  0.55099800  0.60490300  0.64244200  1
  Cu  Cu4  1  0.11282100  0.87759000  0.34067000  1
  Cu  Cu5  1  0.87283900  0.13384800  0.83231500  1
  Cu  Cu6  1  0.37283900  0.86615200  0.83231500  1
  Cu  Cu7  1  0.61282100  0.12241000  0.34067000  1
  S  S0  1  0.04201300  0.85885700  0.88554000  1
  S  S1  1  0.96793100  0.14022900  0.38993400  1
  S  S2  1  0.46793100  0.85977100  0.38993400  1
  S  S3  1  0.54201300  0.14114300  0.88554000  1
  S  S4  1  0.03983500  0.32959800  0.13829100  1
  S  S5  1  0.96872000  0.68318600  0.63795300  1
  S  S6  1  0.46872000  0.31681400  0.63795300  1
  S  S7  1  0.53983500  0.67040200  0.13829100  1
  S  S8  1  0.04012800  0.39647200  0.87454800  1
  S  S9  1  0.97044100  0.59940800  0.37300600  1
  S  S10  1  0.47044100  0.40059200  0.37300600  1
  S  S11  1  0.54012800  0.60352800  0.87454800  1
  S  S12  1  0.02607500  0.84096200  0.15612000  1
  S  S13  1  0.97523000  0.10964700  0.66174200  1
  S  S14  1  0.47523000  0.89035300  0.66174200  1
  S  S15  1  0.52607500  0.15903800  0.15612000  1
  S  S16  1  0.21325700  0.88014400  0.51905700  1
  S  S17  1  0.78677600  0.11213500  0.02476800  1
  S  S18  1  0.28677600  0.88786500  0.02476800  1
  S  S19  1  0.71325700  0.11985600  0.51905700  1
  S  S20  1  0.20617700  0.37546500  0.51014500  1
  S  S21  1  0.79521000  0.61893900  0.01334800  1
  S  S22  1  0.29521000  0.38106100  0.01334800  1
  S  S23  1  0.70617700  0.62453500  0.51014500  1
  S  S24  1  0.24780300  0.12234400  0.79215800  1
  S  S25  1  0.75699700  0.89020400  0.29722400  1
  S  S26  1  0.25699700  0.10979600  0.29722400  1
  S  S27  1  0.74780300  0.87765600  0.79215800  1
  S  S28  1  0.25518700  0.62550700  0.75801500  1
  S  S29  1  0.75172200  0.39105800  0.27461200  1
  S  S30  1  0.25172200  0.60894200  0.27461200  1
  S  S31  1  0.75518700  0.37449300  0.75801500  1
loop_
_geom_bond_atom_site_label_1
_geom_bond_atom_site_label_2
_geom_bond_distance
_geom_bond_site_symmetry_2
Cr0 S13 2.264384 1_465
Cr0 S5 2.363746 1_455
Cr0 S16 2.382252 1_555
Cr0 S0 2.428383 1_555
Cr0 S24 2.473106 1_565
Cr0 S28 2.563469 1_555
Cr1 S14 2.264384 1_545
Cr1 S6 2.363746 1_555
Cr1 S19 2.382252 1_555
Cr1 S3 2.428383 1_555
Cr1 S27 2.473106 1_545
Cr1 S31 2.563469 1_555
Cr2 S30 2.394616 1_555
Cr2 S9 2.399413 1_455
Cr2 S20 2.407489 1_555
Cr2 S1 2.424964 1_455
Cr2 S26 2.433842 1_555
Cr2 S4 2.458521 1_555
Cr3 S29 2.394616 1_555
Cr3 S10 2.399413 1_555
Cr3 S23 2.407489 1_555
Cr3 S2 2.424964 1_555
Cr3 S25 2.433842 1_555
Cr3 S7 2.458521 1_555
Cr4 S28 2.328418 1_555
Cr4 S0 2.344143 1_555
Cr4 S22 2.360746 1_556
Cr4 S8 2.379683 1_555
Cr4 S18 2.454277 1_556
Cr5 S29 2.331319 1_555
Cr5 S23 2.349911 1_555
Cr5 S9 2.393955 1_555
Cr5 S1 2.396501 1_555
Cr5 S19 2.412148 1_555
Cr6 S30 2.331319 1_555
Cr6 S20 2.349911 1_555
Cr6 S10 2.393955 1_555
Cr6 S2 2.396501 1_555
Cr6 S16 2.412148 1_555
Cr7 S31 2.328418 1_555
Cr7 S3 2.344143 1_555
Cr7 S21 2.360746 1_556
Cr7 S11 2.379683 1_555
Cr7 S17 2.454277 1_556
Cr8 S22 2.379677 1_556
Cr8 S24 2.388916 1_555
Cr8 S8 2.432549 1_555
Cr8 S18 2.496456 1_546
Cr8 S0 2.591784 1_545
Cr8 S4 2.698658 1_556
Cr9 S23 2.384521 1_555
Cr9 S25 2.405872 1_555
Cr9 S19 2.419390 1_565
Cr9 S1 2.573270 1_565
Cr9 S9 2.631429 1_555
Cr9 S5 2.692301 1_555
Cr10 S20 2.384513 1_555
Cr10 S26 2.405867 1_555
Cr10 S16 2.419383 1_545
Cr10 S2 2.573276 1_545
Cr10 S10 2.631435 1_555
Cr10 S6 2.692307 1_555
Cr11 S21 2.379677 1_556
Cr11 S27 2.388916 1_555
Cr11 S11 2.432549 1_555
Cr11 S17 2.496456 1_566
Cr11 S3 2.591784 1_565
Cr11 S7 2.698658 1_556
Cu0 S13 2.195936 1_455
Cu0 S5 2.232424 1_455
Cu0 S20 2.371399 1_555
Cu0 S8 2.779229 1_555
Cu1 S12 2.294581 1_655
Cu1 S9 2.371416 1_555
Cu1 S21 2.389349 1_555
Cu1 S29 2.398706 1_555
Cu1 S25 2.707676 1_555
Cu1 S4 2.762466 1_655
Cu2 S15 2.294581 1_555
Cu2 S10 2.371416 1_555
Cu2 S22 2.389349 1_555
Cu2 S30 2.398706 1_555
Cu2 S26 2.707676 1_555
Cu2 S7 2.762466 1_555
Cu3 S14 2.195931 1_555
Cu3 S6 2.232420 1_555
Cu3 S23 2.371408 1_555
Cu3 S11 2.779228 1_555
Cu4 S26 2.372444 1_565
Cu4 S16 2.429453 1_555
Cu4 S12 2.439527 1_555
Cu4 S1 2.544546 1_465
Cu4 S9 2.569580 1_455
Cu4 S30 2.585471 1_555
Cu5 S31 2.338469 1_555
Cu5 S27 2.348835 1_545
Cu5 S13 2.351220 1_555
Cu5 S17 2.502150 1_556
Cu5 S8 2.705252 1_655
Cu5 S0 2.807676 1_645
Cu6 S28 2.338469 1_555
Cu6 S24 2.348835 1_565
Cu6 S14 2.351220 1_555
Cu6 S18 2.502150 1_556
Cu6 S11 2.705252 1_555
Cu6 S3 2.807676 1_565
Cu7 S25 2.372444 1_545
Cu7 S19 2.429453 1_555
Cu7 S15 2.439527 1_555
Cu7 S2 2.544546 1_545
Cu7 S10 2.569580 1_555
Cu7 S29 2.585471 1_555
S0 Ta2 2.611535 1_455
S1 Ta0 2.505570 1_555
S2 Ta1 2.505570 1_555
S3 Ta3 2.611535 1_555
S4 Ta0 2.352472 1_455
S5 Ta2 2.485750 1_555
S6 Ta3 2.485750 1_555
S7 Ta1 2.352472 1_555
S8 Ta2 2.418692 1_455
S11 Ta3 2.418692 1_555
S12 Ta0 2.260556 1_465
S15 Ta1 2.260556 1_545
S17 Ta0 2.429055 1_555
S18 Ta1 2.429055 1_555
S21 Ta2 2.462528 1_554
S22 Ta3 2.462528 1_554
S24 Ta3 2.459431 1_555
S25 Ta0 2.541785 1_565
S26 Ta1 2.541785 1_545
S27 Ta2 2.459431 1_555
S28 Ta3 2.364412 1_555
S29 Ta0 2.923155 1_555
S30 Ta1 2.923155 1_555
S31 Ta2 2.364412 1_555
