# generated using pymatgen
data_FeSn3
_symmetry_space_group_name_H-M   'P 1'
_cell_length_a   6.64242270
_cell_length_b   6.64242270
_cell_length_c   4.56294200
_cell_angle_alpha   90.00000000
_cell_angle_beta   90.00000000
_cell_angle_gamma   120.00000695
_symmetry_Int_Tables_number   1
_chemical_formula_structural   FeSn3
_chemical_formula_sum   'Fe2 Sn6'
_cell_volume   174.35265600
_cell_formula_units_Z   2
loop_
 _symmetry_equiv_pos_site_id
 _symmetry_equiv_pos_as_xyz
  1  'x, y, z'
loop_
 _atom_site_type_symbol
 _atom_site_label
 _atom_site_symmetry_multiplicity
 _atom_site_fract_x
 _atom_site_fract_y
 _atom_site_fract_z
 _atom_site_occupancy
  Fe  Fe0  1  0.33333300  0.66666700  0.75000000  1
  Fe  Fe1  1  0.66666700  0.33333300  0.25000000  1
  Sn  Sn0  1  0.18211100  0.36422200  0.25000000  1
  Sn  Sn1  1  0.63577800  0.81788900  0.25000000  1
  Sn  Sn2  1  0.18211100  0.81788900  0.25000000  1
  Sn  Sn3  1  0.81788900  0.63577800  0.75000000  1
  Sn  Sn4  1  0.36422200  0.18211100  0.75000000  1
  Sn  Sn5  1  0.81788900  0.18211100  0.75000000  1
loop_
_geom_bond_atom_site_label_1
_geom_bond_atom_site_label_2
_geom_bond_distance
_geom_bond_site_symmetry_2
Fe0 Sn2 2.869155 1_555
Fe0 Sn2 2.869155 1_556
Fe0 Sn0 2.869159 1_555
Fe0 Sn1 2.869159 1_555
Fe0 Sn1 2.869159 1_556
Fe0 Sn0 2.869159 1_556
Fe0 Sn4 3.325958 1_565
Fe0 Sn3 3.325958 1_455
Fe0 Sn5 3.325961 1_565
Fe0 Sn5 3.325961 1_455
Fe0 Sn3 3.325965 1_555
Fe0 Sn4 3.325965 1_555
Fe1 Sn5 2.869155 1_555
Fe1 Sn5 2.869155 1_554
Fe1 Sn3 2.869159 1_555
Fe1 Sn3 2.869159 1_554
Fe1 Sn4 2.869159 1_554
Fe1 Sn4 2.869159 1_555
Fe1 Sn0 3.325958 1_655
Fe1 Sn1 3.325958 1_545
Fe1 Sn2 3.325961 1_655
Fe1 Sn2 3.325961 1_545
Fe1 Sn0 3.325965 1_555
Fe1 Sn1 3.325965 1_555
Sn0 Sn1 3.013448 1_555
Sn0 Sn2 3.013448 1_555
Sn0 Sn5 3.097568 1_455
Sn0 Sn5 3.097568 1_454
Sn0 Sn4 3.097568 1_555
Sn0 Sn4 3.097568 1_554
Sn1 Sn2 3.013448 1_555
Sn1 Sn5 3.097568 1_564
Sn1 Sn5 3.097568 1_565
Sn1 Sn3 3.097568 1_555
Sn1 Sn3 3.097568 1_554
Sn2 Sn4 3.097568 1_565
Sn2 Sn4 3.097568 1_564
Sn2 Sn3 3.097568 1_455
Sn2 Sn3 3.097568 1_454
Sn3 Sn4 3.013448 1_555
Sn3 Sn5 3.013448 1_555
Sn4 Sn5 3.013448 1_555
