# generated using pymatgen
data_Li5Mn2CoO8
_symmetry_space_group_name_H-M   'P 1'
_cell_length_a   5.13512403
_cell_length_b   5.13479095
_cell_length_c   5.71408501
_cell_angle_alpha   90.00174946
_cell_angle_beta   89.99503550
_cell_angle_gamma   111.53940944
_symmetry_Int_Tables_number   1
_chemical_formula_structural   Li5Mn2CoO8
_chemical_formula_sum   'Li5 Mn2 Co1 O8'
_cell_volume   140.14593829
_cell_formula_units_Z   1
loop_
 _symmetry_equiv_pos_site_id
 _symmetry_equiv_pos_as_xyz
  1  'x, y, z'
loop_
 _atom_site_type_symbol
 _atom_site_label
 _atom_site_symmetry_multiplicity
 _atom_site_fract_x
 _atom_site_fract_y
 _atom_site_fract_z
 _atom_site_occupancy
  Li  Li0  1  0.50004900  0.49982500  0.00520200  1
  Li  Li1  1  0.50000000  0.00000000  0.25000000  1
  Li  Li2  1  0.49995000  0.50017500  0.49479700  1
  Li  Li3  1  0.50000000  0.00000000  0.74999900  1
  Li  Li4  1  0.99999900  0.50000000  0.25000100  1
  Mn  Mn0  1  0.99996100  0.99996400  0.00018800  1
  Mn  Mn1  1  0.00004100  0.00003600  0.49981100  1
  Co  Co0  1  0.00000000  0.50000000  0.75000000  1
  O  O0  1  0.21033400  0.75377700  0.98776800  1
  O  O1  1  0.23600300  0.21768400  0.24997700  1
  O  O2  1  0.21044600  0.75380700  0.51218700  1
  O  O3  1  0.23656200  0.22446900  0.75000800  1
  O  O4  1  0.78955300  0.24619400  0.98781300  1
  O  O5  1  0.76399700  0.78231600  0.25002500  1
  O  O6  1  0.78966700  0.24622200  0.51223100  1
  O  O7  1  0.76343800  0.77553100  0.74999100  1
loop_
_geom_bond_atom_site_label_1
_geom_bond_atom_site_label_2
_geom_bond_distance
_geom_bond_site_symmetry_2
Li0 O1 2.109738 1_555
Li0 O5 2.110631 1_555
Li0 O3 2.133461 1_554
Li0 O7 2.134003 1_554
Li0 O4 2.310343 1_554
Li0 O0 2.312608 1_554
Li1 O1 2.049355 1_555
Li1 O5 2.049355 1_545
Li1 O4 2.161698 1_554
Li1 O2 2.161699 1_545
Li1 O6 2.162322 1_555
Li1 O0 2.162326 1_544
Li2 O5 2.109728 1_555
Li2 O1 2.110617 1_555
Li2 O7 2.133463 1_555
Li2 O3 2.134001 1_555
Li2 O2 2.310347 1_555
Li2 O6 2.312621 1_555
Li3 O2 2.067735 1_545
Li3 O4 2.067742 1_555
Li3 O6 2.067790 1_555
Li3 O0 2.067793 1_545
Li3 O3 2.074472 1_555
Li3 O7 2.074472 1_545
Li4 O6 2.018967 1_555
Li4 O0 2.018982 1_654
Li4 O2 2.019103 1_655
Li4 O4 2.019107 1_554
Li4 O5 2.204571 1_555
Li4 O1 2.204579 1_655
Mn0 O5 1.939245 1_555
Mn0 O1 1.939441 1_665
Mn0 O0 1.942368 1_654
Mn0 O4 1.942700 1_564
Mn0 O7 1.954373 1_554
Mn0 O3 1.954496 1_664
Mn1 O1 1.939228 1_555
Mn1 O5 1.939433 1_445
Mn1 O6 1.942367 1_455
Mn1 O2 1.942683 1_545
Mn1 O3 1.954369 1_555
Mn1 O7 1.954500 1_445
Co0 O0 1.917599 1_555
Co0 O6 1.917604 1_455
Co0 O4 1.917958 1_455
Co0 O2 1.917958 1_555
Co0 O3 2.176993 1_555
Co0 O7 2.176993 1_455
