# generated using pymatgen
data_V2Zn3(P2O9)2
_symmetry_space_group_name_H-M   'P 1'
_cell_length_a   7.84327177
_cell_length_b   7.84327177
_cell_length_c   7.80441201
_cell_angle_alpha   68.85407240
_cell_angle_beta   68.85407240
_cell_angle_gamma   106.30393880
_symmetry_Int_Tables_number   1
_chemical_formula_structural   V2Zn3(P2O9)2
_chemical_formula_sum   'V2 Zn3 P4 O18'
_cell_volume   368.10142628
_cell_formula_units_Z   1
loop_
 _symmetry_equiv_pos_site_id
 _symmetry_equiv_pos_as_xyz
  1  'x, y, z'
loop_
 _atom_site_type_symbol
 _atom_site_label
 _atom_site_symmetry_multiplicity
 _atom_site_fract_x
 _atom_site_fract_y
 _atom_site_fract_z
 _atom_site_occupancy
  V  V0  1  0.60658300  0.10500800  0.00021200  1
  V  V1  1  0.10500800  0.60658300  0.00021200  1
  Zn  Zn0  1  0.38589900  0.38589900  0.28658700  1
  Zn  Zn1  1  0.64952500  0.88724900  0.50022400  1
  Zn  Zn2  1  0.88724900  0.64952500  0.50022400  1
  P  P0  1  0.30726800  0.92941600  0.50007100  1
  P  P1  1  0.81778100  0.81778100  0.10407000  1
  P  P2  1  0.42162900  0.42162900  0.88230700  1
  P  P3  1  0.92941600  0.30726800  0.50007100  1
  O  O0  1  0.93594800  0.43448100  0.00153000  1
  O  O1  1  0.12904600  0.34518300  0.49728000  1
  O  O2  1  0.01770900  0.81132100  0.96869200  1
  O  O3  1  0.81132100  0.01770900  0.96869200  1
  O  O4  1  0.78472100  0.32143600  0.69571500  1
  O  O5  1  0.43448100  0.93594800  0.00153000  1
  O  O6  1  0.48719300  0.28762300  0.03443200  1
  O  O7  1  0.62629500  0.62629500  0.18782100  1
  O  O8  1  0.63053900  0.63053900  0.71288100  1
  O  O9  1  0.28762300  0.48719300  0.03443200  1
  O  O10  1  0.81524400  0.11893700  0.50001100  1
  O  O11  1  0.32143600  0.78472100  0.69571500  1
  O  O12  1  0.51616700  0.97714700  0.30360600  1
  O  O13  1  0.34518300  0.12904600  0.49728000  1
  O  O14  1  0.97714700  0.51616700  0.30360600  1
  O  O15  1  0.84370800  0.84370800  0.28325700  1
  O  O16  1  0.31497500  0.31497500  0.80149200  1
  O  O17  1  0.11893700  0.81524400  0.50001100  1
loop_
_geom_bond_atom_site_label_1
_geom_bond_atom_site_label_2
_geom_bond_distance
_geom_bond_site_symmetry_2
O0 V1 1.598626 1_655
O1 P3 1.499926 1_455
O1 Zn0 1.932408 1_555
O2 P1 1.570242 1_456
O2 V1 1.887285 1_556
O3 P1 1.570242 1_546
O3 V0 1.887285 1_556
O4 P3 1.604584 1_555
O4 V0 1.960444 1_556
O4 Zn2 2.171770 1_555
O5 V0 1.598626 1_565
O6 P2 1.619361 1_554
O6 V0 1.961699 1_555
O6 Zn0 2.325570 1_555
O7 P1 1.501836 1_555
O7 Zn0 1.900286 1_555
O8 P2 1.576148 1_555
O8 Zn2 2.018170 1_555
O8 Zn1 2.018170 1_555
O9 P2 1.619361 1_554
O9 V1 1.961699 1_555
O9 Zn0 2.325570 1_555
O10 P3 1.497308 1_555
O10 Zn1 1.913563 1_545
O11 P0 1.604584 1_555
O11 V1 1.960444 1_556
O11 Zn1 2.171770 1_555
O12 P0 1.613871 1_555
O12 V0 1.947084 1_565
O12 Zn1 2.176537 1_555
O13 P0 1.499926 1_545
O13 Zn0 1.932408 1_555
O14 P3 1.613871 1_555
O14 V1 1.947084 1_655
O14 Zn2 2.176537 1_555
O15 P1 1.557401 1_555
O15 Zn1 2.037663 1_555
O15 Zn2 2.037663 1_555
O16 P2 1.471647 1_555
O17 P0 1.497308 1_555
O17 Zn2 1.913563 1_455
