# generated using pymatgen
data_BaCu6Te6Se
_symmetry_space_group_name_H-M   'P 1'
_cell_length_a   7.00029000
_cell_length_b   6.97330900
_cell_length_c   7.06966551
_cell_angle_alpha   88.82107534
_cell_angle_beta   90.00000000
_cell_angle_gamma   90.00000000
_symmetry_Int_Tables_number   1
_chemical_formula_structural   BaCu6Te6Se
_chemical_formula_sum   'Ba1 Cu6 Te6 Se1'
_cell_volume   345.03397918
_cell_formula_units_Z   1
loop_
 _symmetry_equiv_pos_site_id
 _symmetry_equiv_pos_as_xyz
  1  'x, y, z'
loop_
 _atom_site_type_symbol
 _atom_site_label
 _atom_site_symmetry_multiplicity
 _atom_site_fract_x
 _atom_site_fract_y
 _atom_site_fract_z
 _atom_site_occupancy
  Ba  Ba0  1  0.49873400  0.50000000  0.50000000  1
  Cu  Cu0  1  0.20024800  0.20008600  0.20426600  1
  Cu  Cu1  1  0.20024800  0.79991400  0.79573400  1
  Cu  Cu2  1  0.80312100  0.19428700  0.80631700  1
  Cu  Cu3  1  0.80312100  0.80571300  0.19368300  1
  Cu  Cu4  1  0.80014300  0.79135400  0.80081400  1
  Cu  Cu5  1  0.80014300  0.20864600  0.19918600  1
  Te  Te0  1  0.29708800  0.00000000  0.50000000  1
  Te  Te1  1  0.69924800  0.00000000  0.50000000  1
  Te  Te2  1  0.49667700  0.29668700  0.00144800  1
  Te  Te3  1  0.49667700  0.70331300  0.99855200  1
  Te  Te4  1  0.99719400  0.49490400  0.70139800  1
  Te  Te5  1  0.99719400  0.50509600  0.29860200  1
  Se  Se0  1  0.01146400  0.00000000  0.00000000  1
loop_
_geom_bond_atom_site_label_1
_geom_bond_atom_site_label_2
_geom_bond_distance
_geom_bond_site_symmetry_2
Ba0 Cu5 3.644195 1_555
Ba0 Cu4 3.644195 1_555
Ba0 Cu0 3.645684 1_555
Ba0 Cu1 3.645684 1_555
Ba0 Cu3 3.685740 1_555
Ba0 Cu2 3.685740 1_555
Ba0 Te1 3.758592 1_565
Ba0 Te1 3.758592 1_555
Ba0 Te0 3.761558 1_565
Ba0 Te0 3.761558 1_555
Ba0 Te5 3.768567 1_555
Ba0 Te4 3.768567 1_555
Ba0 Te5 3.788540 1_455
Ba0 Te4 3.788540 1_455
Ba0 Te2 3.790905 1_556
Ba0 Te3 3.790905 1_554
Ba0 Te3 3.826051 1_555
Ba0 Te2 3.826051 1_555
Cu0 Se0 2.421063 1_555
Cu0 Te0 2.580208 1_555
Cu0 Te2 2.603068 1_555
Cu0 Te5 2.654707 1_455
Cu1 Se0 2.421063 1_566
Cu1 Te0 2.580208 1_565
Cu1 Te3 2.603068 1_555
Cu1 Te4 2.654707 1_455
Cu2 Se0 2.400256 1_656
Cu2 Te4 2.593522 1_555
Cu2 Te2 2.656190 1_556
Cu2 Te1 2.678555 1_555
Cu3 Se0 2.400256 1_665
Cu3 Te5 2.593522 1_555
Cu3 Te3 2.656190 1_554
Cu3 Te1 2.678555 1_565
Cu4 Se0 2.524384 1_666
Cu4 Te4 2.594229 1_555
Cu4 Te3 2.609350 1_555
Cu4 Te1 2.647843 1_565
Cu5 Se0 2.524384 1_655
Cu5 Te5 2.594229 1_555
Cu5 Te2 2.609350 1_555
Cu5 Te1 2.647843 1_555
Te0 Te1 2.815237 1_555
Te2 Te3 2.835181 1_554
Te4 Te5 2.847058 1_555
