# generated using pymatgen
data_Ce4CoS7
_symmetry_space_group_name_H-M   'P 1'
_cell_length_a   7.10341400
_cell_length_b   9.50357800
_cell_length_c   9.52689060
_cell_angle_alpha   60.18257196
_cell_angle_beta   90.00000000
_cell_angle_gamma   90.00000000
_symmetry_Int_Tables_number   1
_chemical_formula_structural   Ce4CoS7
_chemical_formula_sum   'Ce8 Co2 S14'
_cell_volume   557.99733234
_cell_formula_units_Z   2
loop_
 _symmetry_equiv_pos_site_id
 _symmetry_equiv_pos_as_xyz
  1  'x, y, z'
loop_
 _atom_site_type_symbol
 _atom_site_label
 _atom_site_symmetry_multiplicity
 _atom_site_fract_x
 _atom_site_fract_y
 _atom_site_fract_z
 _atom_site_occupancy
  Ce  Ce0  1  0.73245600  0.80677000  0.83341100  1
  Ce  Ce1  1  0.73490400  0.36230300  0.80426200  1
  Ce  Ce2  1  0.73820500  0.83124700  0.36517300  1
  Ce  Ce3  1  0.23245600  0.19323000  0.16658900  1
  Ce  Ce4  1  0.23490400  0.63769700  0.19573800  1
  Ce  Ce5  1  0.23820500  0.16875300  0.63482700  1
  Ce  Ce6  1  0.20682600  0.66314000  0.68290500  1
  Ce  Ce7  1  0.70682600  0.33686000  0.31709500  1
  Co  Co0  1  0.38736500  0.00096800  0.99642500  1
  Co  Co1  1  0.88736500  0.99903200  0.00357500  1
  S  S0  1  0.34135400  0.85914400  0.87305900  1
  S  S1  1  0.34471700  0.26621700  0.85830500  1
  S  S2  1  0.34890200  0.87744300  0.25972000  1
  S  S3  1  0.84135400  0.14085600  0.12694100  1
  S  S4  1  0.84471700  0.73378300  0.14169500  1
  S  S5  1  0.84890200  0.12255700  0.74028000  1
  S  S6  1  0.97857300  0.92367900  0.55004100  1
  S  S7  1  0.96754500  0.52603200  0.93233600  1
  S  S8  1  0.98266500  0.54784300  0.53378700  1
  S  S9  1  0.47857300  0.07632100  0.44995900  1
  S  S10  1  0.46754500  0.47396800  0.06766400  1
  S  S11  1  0.48266500  0.45215700  0.46621300  1
  S  S12  1  0.58248600  0.66747000  0.66529300  1
  S  S13  1  0.08248600  0.33253000  0.33470700  1
loop_
_geom_bond_atom_site_label_1
_geom_bond_atom_site_label_2
_geom_bond_distance
_geom_bond_site_symmetry_2
Ce0 S12 2.749784 1_555
Ce0 S4 2.777946 1_556
Ce0 S5 2.798219 1_565
Ce0 S7 2.880038 1_555
Ce0 S0 2.880201 1_555
Ce0 S6 2.931902 1_555
Ce1 S12 2.741827 1_555
Ce1 S5 2.756764 1_555
Ce1 S3 2.831473 1_556
Ce1 S1 2.883312 1_555
Ce1 S8 2.885814 1_555
Ce1 S7 2.920430 1_555
Ce2 S12 2.719472 1_555
Ce2 S3 2.775694 1_565
Ce2 S4 2.815032 1_555
Ce2 S6 2.885729 1_555
Ce2 S2 2.900129 1_555
Ce2 S8 2.923591 1_555
Ce3 S13 2.749784 1_555
Ce3 S1 2.777946 1_554
Ce3 S2 2.798219 1_545
Ce3 S10 2.880038 1_555
Ce3 S3 2.880201 1_455
Ce3 S9 2.931902 1_555
Ce4 S13 2.741827 1_555
Ce4 S2 2.756764 1_555
Ce4 S0 2.831473 1_554
Ce4 S4 2.883312 1_455
Ce4 S11 2.885814 1_555
Ce4 S10 2.920430 1_555
Ce5 S13 2.719472 1_555
Ce5 S0 2.775694 1_545
Ce5 S1 2.815032 1_555
Ce5 S9 2.885729 1_555
Ce5 S5 2.900129 1_455
Ce5 S11 2.923591 1_555
Ce6 S12 2.672771 1_555
Ce6 S7 2.674776 1_455
Ce6 S6 2.691667 1_455
Ce6 S8 2.702278 1_455
Ce6 S0 3.319736 1_555
Ce6 S1 3.422360 1_555
Ce7 S13 2.672771 1_655
Ce7 S10 2.674776 1_555
Ce7 S9 2.691667 1_555
Ce7 S11 2.702278 1_555
Ce7 S3 3.319736 1_555
Ce7 S4 3.422360 1_555
Co0 S2 2.194617 1_546
Co0 S1 2.208858 1_555
Co0 S0 2.209106 1_545
Co1 S5 2.194617 1_564
Co1 S4 2.208858 1_555
Co1 S3 2.209106 1_565
