# generated using pymatgen
data_K2EuNb5O15
_symmetry_space_group_name_H-M   'P 1'
_cell_length_a   12.74623400
_cell_length_b   12.74623400
_cell_length_c   3.97065600
_cell_angle_alpha   90.00000000
_cell_angle_beta   90.00000000
_cell_angle_gamma   90.00000000
_symmetry_Int_Tables_number   1
_chemical_formula_structural   K2EuNb5O15
_chemical_formula_sum   'K4 Eu2 Nb10 O30'
_cell_volume   645.09850831
_cell_formula_units_Z   2
loop_
 _symmetry_equiv_pos_site_id
 _symmetry_equiv_pos_as_xyz
  1  'x, y, z'
loop_
 _atom_site_type_symbol
 _atom_site_label
 _atom_site_symmetry_multiplicity
 _atom_site_fract_x
 _atom_site_fract_y
 _atom_site_fract_z
 _atom_site_occupancy
  K  K0  1  0.33062800  0.16937200  0.50000000  1
  K  K1  1  0.66937200  0.83062800  0.50000000  1
  K  K2  1  0.16937200  0.66937200  0.50000000  1
  K  K3  1  0.83062800  0.33062800  0.50000000  1
  Eu  Eu0  1  0.50000000  0.50000000  0.50000000  1
  Eu  Eu1  1  0.00000000  0.00000000  0.50000000  1
  Nb  Nb0  1  0.50000000  0.00000000  0.00000000  1
  Nb  Nb1  1  0.00000000  0.50000000  0.00000000  1
  Nb  Nb2  1  0.21421500  0.92574200  0.00000000  1
  Nb  Nb3  1  0.78578500  0.07425800  0.00000000  1
  Nb  Nb4  1  0.28578500  0.42574200  0.00000000  1
  Nb  Nb5  1  0.71421500  0.57425800  0.00000000  1
  Nb  Nb6  1  0.92574200  0.78578500  0.00000000  1
  Nb  Nb7  1  0.07425800  0.21421500  0.00000000  1
  Nb  Nb8  1  0.42574200  0.71421500  0.00000000  1
  Nb  Nb9  1  0.57425800  0.28578500  0.00000000  1
  O  O0  1  0.50000000  0.00000000  0.50000000  1
  O  O1  1  0.00000000  0.50000000  0.50000000  1
  O  O2  1  0.28644200  0.78644200  0.00000000  1
  O  O3  1  0.71355800  0.21355800  0.00000000  1
  O  O4  1  0.21355800  0.28644200  0.00000000  1
  O  O5  1  0.78644200  0.71355800  0.00000000  1
  O  O6  1  0.15673200  0.50398200  0.00000000  1
  O  O7  1  0.84326800  0.49601800  0.00000000  1
  O  O8  1  0.34326800  0.00398200  0.00000000  1
  O  O9  1  0.65673200  0.99601800  0.00000000  1
  O  O10  1  0.50398200  0.84326800  0.00000000  1
  O  O11  1  0.49601800  0.15673200  0.00000000  1
  O  O12  1  0.00398200  0.65673200  0.00000000  1
  O  O13  1  0.99601800  0.34326800  0.00000000  1
  O  O14  1  0.43165700  0.69769600  0.50000000  1
  O  O15  1  0.56834300  0.30230400  0.50000000  1
  O  O16  1  0.06834300  0.19769600  0.50000000  1
  O  O17  1  0.93165700  0.80230400  0.50000000  1
  O  O18  1  0.69769600  0.56834300  0.50000000  1
  O  O19  1  0.30230400  0.43165700  0.50000000  1
  O  O20  1  0.19769600  0.93165700  0.50000000  1
  O  O21  1  0.80230400  0.06834300  0.50000000  1
  O  O22  1  0.56492100  0.63153900  0.00000000  1
  O  O23  1  0.43507900  0.36846100  0.00000000  1
  O  O24  1  0.93507900  0.13153900  0.00000000  1
  O  O25  1  0.06492100  0.86846100  0.00000000  1
  O  O26  1  0.63153900  0.43507900  0.00000000  1
  O  O27  1  0.36846100  0.56492100  0.00000000  1
  O  O28  1  0.13153900  0.06492100  0.00000000  1
  O  O29  1  0.86846100  0.93507900  0.00000000  1
loop_
_geom_bond_atom_site_label_1
_geom_bond_atom_site_label_2
_geom_bond_distance
_geom_bond_site_symmetry_2
K0 O4 2.897388 1_556
K0 O4 2.897388 1_555
K0 O8 2.900270 1_556
K0 O8 2.900270 1_555
K0 O11 2.900270 1_556
K0 O11 2.900270 1_555
K0 O0 3.053082 1_555
K1 O5 2.897388 1_555
K1 O5 2.897388 1_556
K1 O9 2.900270 1_556
K1 O10 2.900270 1_555
K1 O10 2.900270 1_556
K1 O9 2.900270 1_555
K1 O0 3.053082 1_565
K2 O2 2.897388 1_555
K2 O2 2.897388 1_556
K2 O6 2.900270 1_556
K2 O6 2.900270 1_555
K2 O12 2.900270 1_556
K2 O12 2.900270 1_555
K2 O1 3.053082 1_555
K3 O3 2.897388 1_556
K3 O3 2.897388 1_555
K3 O13 2.900270 1_556
K3 O13 2.900270 1_555
K3 O7 2.900270 1_556
K3 O7 2.900270 1_555
K3 O1 3.053082 1_655
Eu0 O19 2.666202 1_555
Eu0 O18 2.666202 1_555
Eu0 O14 2.666202 1_555
Eu0 O15 2.666202 1_555
Eu0 O22 2.727152 1_555
Eu0 O22 2.727152 1_556
Eu0 O26 2.727152 1_555
Eu0 O26 2.727152 1_556
Eu0 O23 2.727152 1_556
Eu0 O23 2.727152 1_555
Eu0 O27 2.727152 1_556
Eu0 O27 2.727152 1_555
Eu1 O16 2.666202 1_555
Eu1 O21 2.666202 1_455
Eu1 O20 2.666202 1_545
Eu1 O17 2.666202 1_445
Eu1 O25 2.727152 1_545
Eu1 O24 2.727152 1_455
Eu1 O25 2.727152 1_546
Eu1 O29 2.727152 1_446
Eu1 O28 2.727152 1_555
Eu1 O24 2.727152 1_456
Eu1 O28 2.727152 1_556
Eu1 O29 2.727152 1_445
Nb0 O0 1.985328 1_555
Nb0 O0 1.985328 1_554
Nb0 O9 1.998387 1_545
Nb0 O8 1.998387 1_555
Nb0 O10 1.998387 1_545
Nb0 O11 1.998387 1_555
Nb1 O1 1.985328 1_554
Nb1 O1 1.985328 1_555
Nb1 O13 1.998387 1_455
Nb1 O12 1.998387 1_555
Nb1 O7 1.998387 1_455
Nb1 O6 1.998387 1_555
Nb2 O8 1.923633 1_565
Nb2 O20 1.997885 1_555
Nb2 O20 1.997885 1_554
Nb2 O2 2.000031 1_555
Nb2 O25 2.038195 1_555
Nb2 O28 2.063399 1_565
Nb3 O9 1.923633 1_545
Nb3 O21 1.997885 1_555
Nb3 O21 1.997885 1_554
Nb3 O3 2.000031 1_555
Nb3 O24 2.038195 1_555
Nb3 O29 2.063399 1_545
Nb4 O6 1.923633 1_555
Nb4 O19 1.997885 1_555
Nb4 O19 1.997885 1_554
Nb4 O4 2.000031 1_555
Nb4 O23 2.038195 1_555
Nb4 O27 2.063399 1_555
Nb5 O7 1.923633 1_555
Nb5 O18 1.997885 1_554
Nb5 O18 1.997885 1_555
Nb5 O5 2.000031 1_555
Nb5 O22 2.038195 1_555
Nb5 O26 2.063399 1_555
Nb6 O12 1.923633 1_655
Nb6 O17 1.997885 1_555
Nb6 O17 1.997885 1_554
Nb6 O5 2.000031 1_555
Nb6 O29 2.038195 1_555
Nb6 O25 2.063399 1_655
Nb7 O13 1.923633 1_455
Nb7 O16 1.997885 1_555
Nb7 O16 1.997885 1_554
Nb7 O4 2.000031 1_555
Nb7 O28 2.038195 1_555
Nb7 O24 2.063399 1_455
Nb8 O10 1.923633 1_555
Nb8 O14 1.997885 1_555
Nb8 O14 1.997885 1_554
Nb8 O2 2.000031 1_555
Nb8 O27 2.038195 1_555
Nb8 O22 2.063399 1_555
Nb9 O11 1.923633 1_555
Nb9 O15 1.997885 1_555
Nb9 O15 1.997885 1_554
Nb9 O3 2.000031 1_555
Nb9 O26 2.038195 1_555
Nb9 O23 2.063399 1_555
