# generated using pymatgen
data_CaMn2O4
_symmetry_space_group_name_H-M   'P 1'
_cell_length_a   6.56464298
_cell_length_b   6.56464298
_cell_length_c   15.54912230
_cell_angle_alpha   83.52045124
_cell_angle_beta   83.52045124
_cell_angle_gamma   54.37769200
_symmetry_Int_Tables_number   1
_chemical_formula_structural   CaMn2O4
_chemical_formula_sum   'Ca6 Mn12 O24'
_cell_volume   540.29122640
_cell_formula_units_Z   6
loop_
 _symmetry_equiv_pos_site_id
 _symmetry_equiv_pos_as_xyz
  1  'x, y, z'
loop_
 _atom_site_type_symbol
 _atom_site_label
 _atom_site_symmetry_multiplicity
 _atom_site_fract_x
 _atom_site_fract_y
 _atom_site_fract_z
 _atom_site_occupancy
  Ca  Ca0  1  0.17109500  0.17109500  0.95362900  1
  Ca  Ca1  1  0.50214100  0.50214100  0.62069100  1
  Ca  Ca2  1  0.49753000  0.49753000  0.00044900  1
  Ca  Ca3  1  0.83585300  0.83585300  0.28342100  1
  Ca  Ca4  1  0.16666200  0.16666200  0.71498700  1
  Ca  Ca5  1  0.49642700  0.49642700  0.37573800  1
  Mn  Mn0  1  0.17072500  0.67438700  0.83324400  1
  Mn  Mn1  1  0.66900300  0.66900300  0.82457300  1
  Mn  Mn2  1  0.49925700  0.99843200  0.49981100  1
  Mn  Mn3  1  0.67438700  0.17072500  0.83324400  1
  Mn  Mn4  1  0.83761100  0.83761100  0.66442400  1
  Mn  Mn5  1  0.99772900  0.99772900  0.49948800  1
  Mn  Mn6  1  0.83486000  0.33129500  0.16841400  1
  Mn  Mn7  1  0.99843200  0.49925700  0.49981100  1
  Mn  Mn8  1  0.33129500  0.83486000  0.16841400  1
  Mn  Mn9  1  0.16200400  0.16200400  0.33696000  1
  Mn  Mn10  1  0.32519800  0.32519800  0.17294800  1
  Mn  Mn11  1  0.82999900  0.82999900  0.04879600  1
  O  O0  1  0.35780200  0.35780200  0.90401800  1
  O  O1  1  0.49531000  0.49531000  0.76194600  1
  O  O2  1  0.35287400  0.81427400  0.89063600  1
  O  O3  1  0.81427400  0.35287400  0.89063600  1
  O  O4  1  0.55681200  0.98218500  0.75311200  1
  O  O5  1  0.69080100  0.69080100  0.57679400  1
  O  O6  1  0.98218500  0.55681200  0.75311200  1
  O  O7  1  0.84867400  0.84867400  0.91012600  1
  O  O8  1  0.69487600  0.12063900  0.57663800  1
  O  O9  1  0.82420800  0.82420800  0.43045300  1
  O  O10  1  0.97622900  0.97622900  0.75616400  1
  O  O11  1  0.12063900  0.69487600  0.57663800  1
  O  O12  1  0.87437900  0.30264900  0.42443200  1
  O  O13  1  0.02532000  0.02532000  0.24595700  1
  O  O14  1  0.30264900  0.87437900  0.42443200  1
  O  O15  1  0.17411100  0.17411100  0.56961600  1
  O  O16  1  0.15623100  0.15623100  0.09968300  1
  O  O17  1  0.02163900  0.44518800  0.25098600  1
  O  O18  1  0.30817800  0.30817800  0.42414400  1
  O  O19  1  0.44518800  0.02163900  0.25098600  1
  O  O20  1  0.16837400  0.64546400  0.10337200  1
  O  O21  1  0.50602700  0.50602700  0.23301100  1
  O  O22  1  0.64546400  0.16837400  0.10337200  1
  O  O23  1  0.65129800  0.65129800  0.09171100  1
loop_
_geom_bond_atom_site_label_1
_geom_bond_atom_site_label_2
_geom_bond_distance
_geom_bond_site_symmetry_2
Ca0 O2 2.206393 1_545
Ca0 O3 2.206393 1_455
Ca0 O0 2.218724 1_555
Ca0 O16 2.255571 1_556
Ca1 O1 2.187702 1_555
Ca1 O11 2.200593 1_555
Ca1 O8 2.200593 1_555
Ca1 O5 2.222329 1_555
Ca2 O20 2.301994 1_555
Ca2 O22 2.301994 1_555
Ca2 O3 2.324947 1_554
Ca2 O2 2.324947 1_554
Ca2 O0 2.352006 1_554
Ca2 O23 2.425931 1_555
Ca3 O19 2.197374 1_565
Ca3 O17 2.197374 1_655
Ca3 O13 2.215479 1_665
Ca3 O9 2.272972 1_555
Ca4 O4 2.223803 1_545
Ca4 O6 2.223803 1_455
Ca4 O10 2.234894 1_445
Ca4 O15 2.251009 1_555
Ca5 O21 2.207859 1_555
Ca5 O12 2.208496 1_555
Ca5 O14 2.208496 1_555
Ca5 O18 2.231583 1_555
Mn0 O0 1.963202 1_555
Mn0 O10 1.963478 1_455
Mn0 O1 1.998588 1_555
Mn0 O7 2.031836 1_455
Mn0 O2 2.185031 1_555
Mn0 O6 2.314740 1_455
Mn1 O3 1.925087 1_555
Mn1 O2 1.925087 1_555
Mn1 O6 1.977170 1_555
Mn1 O4 1.977170 1_555
Mn1 O1 2.358864 1_555
Mn1 O7 2.623117 1_555
Mn2 O18 1.978465 1_565
Mn2 O5 1.982013 1_555
Mn2 O9 1.984635 1_555
Mn2 O15 1.989029 1_565
Mn2 O8 2.341442 1_565
Mn2 O14 2.341790 1_555
Mn3 O0 1.963202 1_555
Mn3 O10 1.963478 1_545
Mn3 O1 1.998588 1_555
Mn3 O7 2.031836 1_545
Mn3 O3 2.185031 1_555
Mn3 O4 2.314740 1_545
Mn4 O8 1.970169 1_565
Mn4 O11 1.970169 1_655
Mn4 O6 1.970813 1_555
Mn4 O4 1.970813 1_555
Mn4 O10 2.289428 1_555
Mn4 O5 2.321417 1_555
Mn5 O14 1.955097 1_655
Mn5 O12 1.955097 1_565
Mn5 O8 1.963231 1_565
Mn5 O11 1.963231 1_655
Mn5 O9 2.410563 1_555
Mn5 O15 2.449920 1_665
Mn6 O16 1.964105 1_655
Mn6 O21 1.967426 1_555
Mn6 O13 1.979838 1_655
Mn6 O23 2.024257 1_555
Mn6 O17 2.313165 1_655
Mn6 O22 2.406127 1_555
Mn7 O18 1.978465 1_655
Mn7 O5 1.982013 1_555
Mn7 O9 1.984635 1_555
Mn7 O15 1.989029 1_655
Mn7 O11 2.341442 1_655
Mn7 O12 2.341790 1_555
Mn8 O16 1.964105 1_565
Mn8 O21 1.967426 1_555
Mn8 O13 1.979838 1_565
Mn8 O23 2.024257 1_555
Mn8 O19 2.313165 1_565
Mn8 O20 2.406127 1_555
Mn9 O17 1.952885 1_555
Mn9 O19 1.952885 1_555
Mn9 O12 1.985085 1_455
Mn9 O14 1.985085 1_545
Mn9 O13 2.263511 1_555
Mn9 O18 2.310658 1_555
Mn10 O22 1.966514 1_555
Mn10 O20 1.966514 1_555
Mn10 O19 1.976213 1_555
Mn10 O17 1.976213 1_555
Mn10 O16 2.400430 1_555
Mn10 O21 2.415048 1_555
Mn11 O22 2.044677 1_565
Mn11 O20 2.044677 1_655
Mn11 O23 2.108880 1_555
Mn11 O7 2.139493 1_554
