# generated using pymatgen
data_RbEuGeS4
_symmetry_space_group_name_H-M   'P 1'
_cell_length_a   6.64454200
_cell_length_b   6.80092600
_cell_length_c   9.29523421
_cell_angle_alpha   71.47114520
_cell_angle_beta   90.00000000
_cell_angle_gamma   90.00000000
_symmetry_Int_Tables_number   1
_chemical_formula_structural   RbEuGeS4
_chemical_formula_sum   'Rb2 Eu2 Ge2 S8'
_cell_volume   398.26925220
_cell_formula_units_Z   2
loop_
 _symmetry_equiv_pos_site_id
 _symmetry_equiv_pos_as_xyz
  1  'x, y, z'
loop_
 _atom_site_type_symbol
 _atom_site_label
 _atom_site_symmetry_multiplicity
 _atom_site_fract_x
 _atom_site_fract_y
 _atom_site_fract_z
 _atom_site_occupancy
  Rb  Rb0  1  0.75042500  0.23211600  0.56385500  1
  Rb  Rb1  1  0.25042500  0.76788400  0.43614500  1
  Eu  Eu0  1  0.76654900  0.26597100  0.05247600  1
  Eu  Eu1  1  0.26654900  0.73402900  0.94752400  1
  Ge  Ge0  1  0.73615000  0.72016300  0.17298900  1
  Ge  Ge1  1  0.23615000  0.27983700  0.82701100  1
  S  S0  1  0.74584200  0.90903700  0.32583700  1
  S  S1  1  0.24584200  0.09096300  0.67416300  1
  S  S2  1  0.49189900  0.48130700  0.21743700  1
  S  S3  1  0.99189900  0.51869300  0.78256300  1
  S  S4  1  0.50163300  0.49133400  0.79703000  1
  S  S5  1  0.00163300  0.50866600  0.20297000  1
  S  S6  1  0.68440100  0.92475400  0.93615700  1
  S  S7  1  0.18440100  0.07524600  0.06384300  1
loop_
_geom_bond_atom_site_label_1
_geom_bond_atom_site_label_2
_geom_bond_distance
_geom_bond_site_symmetry_2
Rb0 S6 3.455484 1_545
Rb0 S1 3.490466 1_655
Rb0 S1 3.547962 1_555
Rb0 S2 3.566960 1_555
Rb0 S0 3.579562 1_545
Rb0 S4 3.600950 1_555
Rb0 S3 3.608878 1_555
Rb0 S5 3.683255 1_655
Rb1 S7 3.455484 1_565
Rb1 S0 3.490466 1_555
Rb1 S0 3.547962 1_455
Rb1 S3 3.566960 1_455
Rb1 S1 3.579562 1_565
Rb1 S5 3.600950 1_555
Rb1 S2 3.608878 1_555
Rb1 S4 3.683255 1_555
Eu0 S6 2.906332 1_544
Eu0 S0 2.906512 1_545
Eu0 S5 2.930625 1_655
Eu0 S3 2.958052 1_554
Eu0 S4 2.961843 1_554
Eu0 S2 3.041945 1_555
Eu0 S7 3.052071 1_655
Eu1 S7 2.906332 1_566
Eu1 S1 2.906512 1_565
Eu1 S4 2.930625 1_555
Eu1 S2 2.958052 1_556
Eu1 S5 2.961843 1_556
Eu1 S3 3.041945 1_455
Eu1 S6 3.052071 1_555
Ge0 S0 2.198314 1_555
Ge0 S6 2.225686 1_554
Ge0 S5 2.236865 1_655
Ge0 S2 2.239838 1_555
Ge1 S1 2.198314 1_555
Ge1 S7 2.225686 1_556
Ge1 S4 2.236865 1_555
Ge1 S3 2.239838 1_455
