# generated using pymatgen
data_Ca7(TiS2)8
_symmetry_space_group_name_H-M   'P 1'
_cell_length_a   7.22967817
_cell_length_b   7.22967817
_cell_length_c   13.22446300
_cell_angle_alpha   90.00000000
_cell_angle_beta   90.00000000
_cell_angle_gamma   120.00000151
_symmetry_Int_Tables_number   1
_chemical_formula_structural   Ca7(TiS2)8
_chemical_formula_sum   'Ca7 Ti8 S16'
_cell_volume   598.61362901
_cell_formula_units_Z   1
loop_
 _symmetry_equiv_pos_site_id
 _symmetry_equiv_pos_as_xyz
  1  'x, y, z'
loop_
 _atom_site_type_symbol
 _atom_site_label
 _atom_site_symmetry_multiplicity
 _atom_site_fract_x
 _atom_site_fract_y
 _atom_site_fract_z
 _atom_site_occupancy
  Ca  Ca0  1  0.00000000  0.00000000  0.00000000  1
  Ca  Ca1  1  0.00000000  0.50000000  0.00000000  1
  Ca  Ca2  1  0.00000000  0.50000000  0.50000000  1
  Ca  Ca3  1  0.50000000  0.00000000  0.00000000  1
  Ca  Ca4  1  0.50000000  0.00000000  0.50000000  1
  Ca  Ca5  1  0.50000000  0.50000000  0.00000000  1
  Ca  Ca6  1  0.50000000  0.50000000  0.50000000  1
  Ti  Ti0  1  0.00000000  0.00000000  0.74703800  1
  Ti  Ti1  1  0.00000000  0.00000000  0.25296200  1
  Ti  Ti2  1  0.96357400  0.48178700  0.75063500  1
  Ti  Ti3  1  0.03642600  0.51821300  0.24936500  1
  Ti  Ti4  1  0.51821300  0.03642600  0.75063500  1
  Ti  Ti5  1  0.48178700  0.96357400  0.24936500  1
  Ti  Ti6  1  0.51821300  0.48178700  0.75063500  1
  Ti  Ti7  1  0.48178700  0.51821300  0.24936500  1
  S  S0  1  0.33307700  0.16653900  0.14231400  1
  S  S1  1  0.33496700  0.16748300  0.63971500  1
  S  S2  1  0.33333300  0.66666700  0.13109600  1
  S  S3  1  0.33333300  0.66666700  0.64718100  1
  S  S4  1  0.83346100  0.16653900  0.14231400  1
  S  S5  1  0.83251700  0.16748300  0.63971500  1
  S  S6  1  0.83346100  0.66692300  0.14231400  1
  S  S7  1  0.83251700  0.66503300  0.63971500  1
  S  S8  1  0.16653900  0.33307700  0.85768600  1
  S  S9  1  0.16748300  0.33496700  0.36028500  1
  S  S10  1  0.16653900  0.83346100  0.85768600  1
  S  S11  1  0.16748300  0.83251700  0.36028500  1
  S  S12  1  0.66666700  0.33333300  0.86890400  1
  S  S13  1  0.66666700  0.33333300  0.35281900  1
  S  S14  1  0.66692300  0.83346100  0.85768600  1
  S  S15  1  0.66503300  0.83251700  0.36028500  1
loop_
_geom_bond_atom_site_label_1
_geom_bond_atom_site_label_2
_geom_bond_distance
_geom_bond_site_symmetry_2
Ca0 S0 2.809095 1_555
Ca0 S8 2.809095 1_554
Ca0 S6 2.809095 1_445
Ca0 S14 2.809095 1_444
Ca0 S4 2.809099 1_455
Ca0 S10 2.809099 1_544
Ca1 S12 2.713172 1_454
Ca1 S2 2.713172 1_555
Ca1 S4 2.810880 1_455
Ca1 S10 2.810880 1_554
Ca1 S6 2.810885 1_455
Ca1 S8 2.810885 1_554
Ca2 S7 2.783570 1_455
Ca2 S9 2.783570 1_555
Ca2 S5 2.783575 1_455
Ca2 S11 2.783575 1_555
Ca2 S13 2.853789 1_455
Ca2 S3 2.853789 1_555
Ca3 S12 2.713172 1_554
Ca3 S2 2.713172 1_545
Ca3 S4 2.810880 1_555
Ca3 S10 2.810880 1_544
Ca3 S14 2.810885 1_544
Ca3 S0 2.810885 1_555
Ca4 S1 2.783570 1_555
Ca4 S15 2.783570 1_545
Ca4 S5 2.783575 1_555
Ca4 S11 2.783575 1_545
Ca4 S13 2.853789 1_555
Ca4 S3 2.853789 1_545
Ca5 S2 2.713177 1_555
Ca5 S12 2.713177 1_554
Ca5 S6 2.810880 1_555
Ca5 S0 2.810880 1_555
Ca5 S14 2.810880 1_554
Ca5 S8 2.810880 1_554
Ca6 S7 2.783575 1_555
Ca6 S1 2.783575 1_555
Ca6 S15 2.783575 1_555
Ca6 S9 2.783575 1_555
Ca6 S3 2.853794 1_555
Ca6 S13 2.853794 1_555
S0 Ti1 2.547572 1_555
S0 Ti7 2.625040 1_555
S0 Ti5 2.625046 1_545
S1 Ti4 2.461667 1_555
S1 Ti6 2.461672 1_555
S1 Ti0 2.532364 1_555
S2 Ti5 2.429396 1_555
S2 Ti3 2.429396 1_555
S2 Ti7 2.429401 1_555
S3 Ti4 2.689129 1_565
S3 Ti2 2.689129 1_455
S3 Ti6 2.689135 1_555
S4 Ti1 2.547577 1_655
S4 Ti3 2.625041 1_655
S4 Ti5 2.625041 1_545
S5 Ti2 2.461672 1_555
S5 Ti4 2.461672 1_555
S5 Ti0 2.532359 1_655
S6 Ti1 2.547572 1_665
S6 Ti7 2.625040 1_555
S6 Ti3 2.625046 1_655
S7 Ti2 2.461667 1_555
S7 Ti6 2.461672 1_555
S7 Ti0 2.532364 1_665
S8 Ti0 2.547572 1_555
S8 Ti6 2.625040 1_555
S8 Ti2 2.625046 1_455
S9 Ti3 2.461667 1_555
S9 Ti7 2.461672 1_555
S9 Ti1 2.532364 1_555
S10 Ti0 2.547577 1_565
S10 Ti4 2.625041 1_565
S10 Ti2 2.625041 1_455
S11 Ti5 2.461672 1_555
S11 Ti3 2.461672 1_555
S11 Ti1 2.532359 1_565
S12 Ti2 2.429396 1_555
S12 Ti4 2.429396 1_555
S12 Ti6 2.429401 1_555
S13 Ti3 2.689129 1_655
S13 Ti5 2.689129 1_545
S13 Ti7 2.689135 1_555
S14 Ti0 2.547572 1_665
S14 Ti6 2.625040 1_555
S14 Ti4 2.625046 1_565
S15 Ti5 2.461667 1_555
S15 Ti7 2.461672 1_555
S15 Ti1 2.532364 1_665
