# generated using pymatgen
data_Pu4Sb3
_symmetry_space_group_name_H-M   'P 1'
_cell_length_a   8.08049640
_cell_length_b   8.07934308
_cell_length_c   8.08001748
_cell_angle_alpha   109.41344673
_cell_angle_beta   109.49844561
_cell_angle_gamma   109.49792834
_symmetry_Int_Tables_number   1
_chemical_formula_structural   Pu4Sb3
_chemical_formula_sum   'Pu8 Sb6'
_cell_volume   406.09238875
_cell_formula_units_Z   2
loop_
 _symmetry_equiv_pos_site_id
 _symmetry_equiv_pos_as_xyz
  1  'x, y, z'
loop_
 _atom_site_type_symbol
 _atom_site_label
 _atom_site_symmetry_multiplicity
 _atom_site_fract_x
 _atom_site_fract_y
 _atom_site_fract_z
 _atom_site_occupancy
  Pu  Pu0  1  0.84690084  0.84609307  0.84470351  1
  Pu  Pu1  1  0.65316138  0.99779348  0.49919533  1
  Pu  Pu2  1  0.49854630  0.65389295  0.00074751  1
  Pu  Pu3  1  0.34681368  0.34459814  0.34600084  1
  Pu  Pu4  1  0.00150013  0.50227844  0.65537279  1
  Pu  Pu5  1  0.15314142  0.99919148  0.49781229  1
  Pu  Pu6  1  0.99849905  0.50078147  0.15390492  1
  Pu  Pu7  1  0.50145863  0.15537264  0.00219625  1
  Sb  Sb0  1  0.62495431  0.37476939  0.75008000  1
  Sb  Sb1  1  0.87514718  0.12521952  0.24997049  1
  Sb  Sb2  1  0.37502442  0.74980747  0.62509773  1
  Sb  Sb3  1  0.12484975  0.25003330  0.87487449  1
  Sb  Sb4  1  0.75005969  0.62510272  0.37503575  1
  Sb  Sb5  1  0.24994322  0.87506892  0.12500510  1
loop_
_geom_bond_atom_site_label_1
_geom_bond_atom_site_label_2
_geom_bond_distance
_geom_bond_site_symmetry_2
Pu0 Sb3 3.157099 1_665
Pu0 Sb5 3.163150 1_656
Pu0 Sb1 3.179466 1_566
Pu0 Sb4 3.283647 1_555
Pu0 Sb2 3.298231 1_555
Pu0 Sb0 3.300307 1_555
Pu1 Sb2 3.158420 1_555
Pu1 Sb5 3.164601 1_555
Pu1 Sb0 3.178868 1_565
Pu1 Sb4 3.282729 1_555
Pu1 Sb3 3.297534 1_665
Pu1 Sb1 3.299907 1_565
Pu2 Sb3 3.156873 1_554
Pu2 Sb4 3.163988 1_555
Pu2 Sb0 3.180191 1_554
Pu2 Sb5 3.284308 1_555
Pu2 Sb2 3.296520 1_554
Pu2 Sb1 3.300379 1_565
Pu3 Sb0 3.158692 1_555
Pu3 Sb4 3.164680 1_555
Pu3 Sb2 3.179026 1_555
Pu3 Sb5 3.282303 1_545
Pu3 Sb1 3.297229 1_455
Pu3 Sb3 3.299341 1_554
Pu4 Sb2 3.155619 1_555
Pu4 Sb4 3.164095 1_455
Pu4 Sb1 3.179669 1_455
Pu4 Sb5 3.283543 1_556
Pu4 Sb3 3.297131 1_555
Pu4 Sb0 3.300107 1_455
Pu5 Sb1 3.157915 1_465
Pu5 Sb4 3.163231 1_455
Pu5 Sb3 3.179838 1_565
Pu5 Sb5 3.283266 1_555
Pu5 Sb0 3.297809 1_565
Pu5 Sb2 3.300009 1_555
Pu6 Sb0 3.155878 1_554
Pu6 Sb5 3.164161 1_655
Pu6 Sb3 3.179739 1_654
Pu6 Sb4 3.283130 1_555
Pu6 Sb1 3.296389 1_555
Pu6 Sb2 3.299814 1_655
Pu7 Sb1 3.156745 1_555
Pu7 Sb5 3.164111 1_545
Pu7 Sb2 3.180367 1_544
Pu7 Sb4 3.283963 1_555
Pu7 Sb0 3.296107 1_554
Pu7 Sb3 3.300150 1_554
