# generated using pymatgen
data_Ca(TiS2)4
_symmetry_space_group_name_H-M   'P 1'
_cell_length_a   7.13213633
_cell_length_b   7.13213633
_cell_length_c   7.13213672
_cell_angle_alpha   61.18167687
_cell_angle_beta   61.18167687
_cell_angle_gamma   61.18167465
_symmetry_Int_Tables_number   1
_chemical_formula_structural   Ca(TiS2)4
_chemical_formula_sum   'Ca1 Ti4 S8'
_cell_volume   263.35314265
_cell_formula_units_Z   1
loop_
 _symmetry_equiv_pos_site_id
 _symmetry_equiv_pos_as_xyz
  1  'x, y, z'
loop_
 _atom_site_type_symbol
 _atom_site_label
 _atom_site_symmetry_multiplicity
 _atom_site_fract_x
 _atom_site_fract_y
 _atom_site_fract_z
 _atom_site_occupancy
  Ca  Ca0  1  0.00000000  0.00000000  0.00000000  1
  Ti  Ti0  1  0.50000000  0.50000000  0.50000000  1
  Ti  Ti1  1  0.50000000  0.50000000  0.00000000  1
  Ti  Ti2  1  0.50000000  0.00000000  0.50000000  1
  Ti  Ti3  1  0.00000000  0.50000000  0.50000000  1
  S  S0  1  0.73797300  0.27312900  0.73797300  1
  S  S1  1  0.73797300  0.73797300  0.27312900  1
  S  S2  1  0.27312900  0.73797300  0.73797300  1
  S  S3  1  0.74261800  0.74261800  0.74261800  1
  S  S4  1  0.25738200  0.25738200  0.25738200  1
  S  S5  1  0.26202700  0.26202700  0.72687100  1
  S  S6  1  0.72687100  0.26202700  0.26202700  1
  S  S7  1  0.26202700  0.72687100  0.26202700  1
loop_
_geom_bond_atom_site_label_1
_geom_bond_atom_site_label_2
_geom_bond_distance
_geom_bond_site_symmetry_2
Ca0 S0 2.669703 1_454
Ca0 S7 2.669703 1_545
Ca0 S6 2.669703 1_455
Ca0 S2 2.669703 1_544
Ca0 S5 2.669703 1_554
Ca0 S1 2.669703 1_445
S0 Ti0 2.421049 1_555
S0 Ti1 2.490189 1_556
S0 Ti3 2.490189 1_655
S1 Ti0 2.421049 1_555
S1 Ti2 2.490189 1_565
S1 Ti3 2.490189 1_655
S2 Ti0 2.421049 1_555
S2 Ti1 2.490189 1_556
S2 Ti2 2.490189 1_565
S3 Ti2 2.473911 1_565
S3 Ti3 2.473911 1_655
S3 Ti1 2.473911 1_556
S4 Ti2 2.473911 1_555
S4 Ti3 2.473911 1_555
S4 Ti1 2.473911 1_555
S5 Ti0 2.421049 1_555
S5 Ti2 2.490189 1_555
S5 Ti3 2.490189 1_555
S6 Ti0 2.421049 1_555
S6 Ti1 2.490189 1_555
S6 Ti2 2.490189 1_555
S7 Ti0 2.421049 1_555
S7 Ti1 2.490189 1_555
S7 Ti3 2.490189 1_555
