# generated using pymatgen
data_Dy3(Al3Ru)4
_symmetry_space_group_name_H-M   'P 1'
_cell_length_a   8.76160912
_cell_length_b   8.76166525
_cell_length_c   9.49420504
_cell_angle_alpha   90.00005576
_cell_angle_beta   89.99999382
_cell_angle_gamma   119.99997292
_symmetry_Int_Tables_number   1
_chemical_formula_structural   Dy3(Al3Ru)4
_chemical_formula_sum   'Dy6 Al24 Ru8'
_cell_volume   631.18967685
_cell_formula_units_Z   2
loop_
 _symmetry_equiv_pos_site_id
 _symmetry_equiv_pos_as_xyz
  1  'x, y, z'
loop_
 _atom_site_type_symbol
 _atom_site_label
 _atom_site_symmetry_multiplicity
 _atom_site_fract_x
 _atom_site_fract_y
 _atom_site_fract_z
 _atom_site_occupancy
  Dy  Dy0  1  0.19312512  0.80687127  0.24999151  1
  Dy  Dy1  1  0.19312575  0.38625461  0.24999263  1
  Dy  Dy2  1  0.61374674  0.80687350  0.24999124  1
  Dy  Dy3  1  0.80687349  0.19312899  0.75000839  1
  Dy  Dy4  1  0.80687347  0.61374405  0.75000791  1
  Dy  Dy5  1  0.38625476  0.19312736  0.75000900  1
  Al  Al0  1  0.56105774  0.43894158  0.24999462  1
  Al  Al1  1  0.56105819  0.12211699  0.24999426  1
  Al  Al2  1  0.87788369  0.43894200  0.24999417  1
  Al  Al3  1  0.43894230  0.56105831  0.75000622  1
  Al  Al4  1  0.43894191  0.87788333  0.75000623  1
  Al  Al5  1  0.12211541  0.56105807  0.75000649  1
  Al  Al6  1  0.32471140  0.16235148  0.42315720  1
  Al  Al7  1  0.83764437  0.16235686  0.42315085  1
  Al  Al8  1  0.83764422  0.67528773  0.42315060  1
  Al  Al9  1  0.67528931  0.83764459  0.57683749  1
  Al  Al10  1  0.16235965  0.83764828  0.57684400  1
  Al  Al11  1  0.16235545  0.32471172  0.57685048  1
  Al  Al12  1  0.67528518  0.83764280  0.92316587  1
  Al  Al13  1  0.16235734  0.83764234  0.92316593  1
  Al  Al14  1  0.16235696  0.32471477  0.92316521  1
  Al  Al15  1  0.32471461  0.16235714  0.07683494  1
  Al  Al16  1  0.83764212  0.16235784  0.07683495  1
  Al  Al17  1  0.83764252  0.67528498  0.07683545  1
  Al  Al18  1  0.66666691  0.33333394  0.50911071  1
  Al  Al19  1  0.33333265  0.66666589  0.49089074  1
  Al  Al20  1  0.33333260  0.66666645  0.00912476  1
  Al  Al21  1  0.66666704  0.33333350  0.99087572  1
  Al  Al22  1  -0.00000061  -0.00000035  0.24999352  1
  Al  Al23  1  0.00000019  0.00000023  0.75000707  1
  Ru  Ru0  1  0.00000002  0.00000029  0.50000042  1
  Ru  Ru1  1  -0.00000027  -0.00000022  -0.00000003  1
  Ru  Ru2  1  0.49999941  0.49999963  0.50000002  1
  Ru  Ru3  1  0.50000026  -0.00000040  0.49999998  1
  Ru  Ru4  1  0.00000047  0.50000047  0.50000014  1
  Ru  Ru5  1  0.49999967  0.50000016  0.00000051  1
  Ru  Ru6  1  0.49999966  -0.00000038  0.00000039  1
  Ru  Ru7  1  0.00000031  0.50000019  0.00000041  1
loop_
_geom_bond_atom_site_label_1
_geom_bond_atom_site_label_2
_geom_bond_distance
_geom_bond_site_symmetry_2
Dy0 Ru7 3.343066 1_555
Dy0 Ru6 3.343081 1_565
Dy0 Ru4 3.343186 1_555
Dy0 Ru3 3.343199 1_565
Dy0 Dy1 3.685305 1_555
Dy0 Dy2 3.685312 1_555
Dy1 Ru7 3.343070 1_555
Dy1 Ru5 3.343082 1_555
Dy1 Ru4 3.343172 1_555
Dy1 Ru2 3.343183 1_555
Dy1 Dy2 3.685321 1_555
Dy2 Ru6 3.343076 1_565
Dy2 Ru5 3.343078 1_555
Dy2 Ru3 3.343191 1_565
Dy2 Ru2 3.343206 1_555
Dy3 Ru7 3.343075 1_656
Dy3 Ru6 3.343084 1_556
Dy3 Ru4 3.343189 1_655
Dy3 Ru3 3.343190 1_555
Dy3 Dy4 3.685288 1_555
Dy3 Dy5 3.685290 1_555
Dy4 Ru7 3.343072 1_656
Dy4 Ru5 3.343086 1_556
Dy4 Ru4 3.343172 1_655
Dy4 Ru2 3.343189 1_555
Dy4 Dy5 3.685301 1_555
Dy5 Ru6 3.343078 1_556
Dy5 Ru5 3.343082 1_556
Dy5 Ru3 3.343198 1_555
Dy5 Ru2 3.343200 1_555
Al0 Ru5 2.547953 1_555
Al0 Ru2 2.548051 1_555
Al0 Al2 2.775903 1_555
Al0 Al1 2.775913 1_555
Al0 Al8 2.800925 1_555
Al0 Al17 2.800930 1_555
Al0 Al15 2.800932 1_555
Al0 Al6 2.800984 1_555
Al0 Al18 2.936096 1_555
Al0 Al21 2.936119 1_554
Al0 Dy1 3.019446 1_555
Al0 Dy2 3.019461 1_555
Al1 Ru6 2.547953 1_555
Al1 Ru3 2.548059 1_555
Al1 Al2 2.775909 1_555
Al1 Al16 2.800920 1_555
Al1 Al15 2.800923 1_555
Al1 Al7 2.800924 1_555
Al1 Al6 2.800940 1_555
Al1 Al18 2.936100 1_555
Al1 Al21 2.936118 1_554
Al1 Dy2 3.019460 1_545
Al1 Dy0 3.019463 1_545
Al2 Ru7 2.547949 1_655
Al2 Ru4 2.548056 1_655
Al2 Al8 2.800927 1_555
Al2 Al7 2.800933 1_555
Al2 Al21 2.936110 1_554
Al2 Dy1 3.019426 1_655
Al2 Dy0 3.019435 1_655
Al3 Ru5 2.547951 1_556
Al3 Ru2 2.548056 1_555
Al3 Al5 2.775912 1_555
Al3 Al4 2.775916 1_555
Al3 Al9 2.801004 1_555
Al3 Dy4 3.019443 1_555
Al3 Dy5 3.019457 1_555
Al4 Ru6 2.547952 1_566
Al4 Ru3 2.548061 1_565
Al4 Al5 2.775915 1_555
Al4 Al9 2.800995 1_555
Al4 Dy3 3.019455 1_565
Al4 Dy5 3.019457 1_565
Al5 Ru7 2.547946 1_556
Al5 Ru4 2.548055 1_555
Al5 Dy4 3.019417 1_455
Al5 Dy3 3.019435 1_455
Al6 Ru0 2.569584 1_555
Al6 Ru3 2.664406 1_555
Al6 Ru2 2.664467 1_555
Al6 Dy5 3.138137 1_555
Al6 Dy0 3.184657 1_545
Al6 Dy1 3.184708 1_555
Al7 Ru0 2.569614 1_655
Al7 Ru3 2.664440 1_555
Al7 Ru4 2.664452 1_655
Al7 Al9 2.863509 1_545
Al7 Dy3 3.138191 1_555
Al7 Dy1 3.184619 1_655
Al7 Dy2 3.184647 1_545
Al8 Ru0 2.569625 1_665
Al8 Ru4 2.664444 1_655
Al8 Ru2 2.664446 1_555
Al8 Al9 2.863497 1_555
Al8 Dy4 3.138190 1_555
Al8 Dy0 3.184617 1_655
Al8 Dy2 3.184638 1_555
Al9 Ru0 2.569563 1_665
Al9 Ru3 2.664416 1_565
Al9 Ru2 2.664431 1_555
Al9 Dy2 3.138084 1_555
Al9 Dy4 3.184709 1_555
Al9 Dy3 3.184714 1_565
Al10 Ru0 2.569594 1_565
Al10 Ru3 2.664402 1_565
Al10 Ru4 2.664468 1_555
Al10 Al19 2.719992 1_555
Al10 Al4 2.800940 1_555
Al10 Al5 2.800988 1_555
Al10 Al6 2.863451 1_565
Al10 Al8 2.863547 1_455
Al10 Al23 2.961995 1_565
Al10 Dy0 3.138143 1_555
Al10 Dy5 3.184646 1_565
Al10 Dy4 3.184683 1_455
Al11 Ru0 2.569617 1_555
Al11 Ru2 2.664443 1_555
Al11 Ru4 2.664448 1_555
Al11 Al19 2.720012 1_555
Al11 Al3 2.800927 1_555
Al11 Al5 2.800931 1_555
Al11 Al7 2.863549 1_455
Al11 Al6 2.863557 1_555
Al11 Al23 2.961971 1_555
Al11 Dy1 3.138195 1_555
Al11 Dy3 3.184620 1_455
Al11 Dy5 3.184638 1_555
Al12 Ru1 2.569582 1_666
Al12 Ru6 2.664395 1_566
Al12 Ru5 2.664408 1_556
Al12 Al20 2.719982 1_556
Al12 Al4 2.800924 1_555
Al12 Al3 2.800932 1_555
Al12 Al17 2.863437 1_556
Al12 Al16 2.863439 1_566
Al12 Al23 2.961991 1_665
Al12 Dy2 3.137884 1_556
Al12 Dy4 3.184658 1_555
Al12 Dy3 3.184659 1_565
Al13 Ru1 2.569592 1_566
Al13 Ru6 2.664388 1_566
Al13 Ru7 2.664404 1_556
Al13 Al20 2.719978 1_556
Al13 Al4 2.800927 1_555
Al13 Al5 2.800932 1_555
Al13 Al17 2.863428 1_456
Al13 Al15 2.863438 1_566
Al13 Al23 2.961997 1_565
Al13 Dy0 3.137887 1_556
Al13 Dy4 3.184632 1_455
Al13 Dy5 3.184646 1_565
Al14 Ru1 2.569604 1_556
Al14 Ru5 2.664393 1_556
Al14 Ru7 2.664395 1_556
Al14 Al20 2.719992 1_556
Al14 Al3 2.800932 1_555
Al14 Al5 2.800934 1_555
Al14 Al16 2.863430 1_456
Al14 Al15 2.863439 1_556
Al14 Al23 2.961995 1_555
Al14 Dy1 3.137904 1_556
Al14 Dy3 3.184621 1_455
Al14 Dy5 3.184633 1_555
Al15 Ru1 2.569587 1_555
Al15 Ru6 2.664396 1_555
Al15 Ru5 2.664410 1_555
Al15 Al21 2.719982 1_554
Al15 Al22 2.961991 1_555
Al15 Dy5 3.137891 1_554
Al15 Dy0 3.184651 1_545
Al15 Dy1 3.184651 1_555
Al16 Ru1 2.569599 1_655
Al16 Ru6 2.664389 1_555
Al16 Ru7 2.664405 1_655
Al16 Al21 2.719977 1_554
Al16 Al2 2.800931 1_555
Al16 Al22 2.961998 1_655
Al16 Dy3 3.137897 1_554
Al16 Dy1 3.184627 1_655
Al16 Dy2 3.184637 1_545
Al17 Ru1 2.569604 1_665
Al17 Ru5 2.664393 1_555
Al17 Ru7 2.664398 1_655
Al17 Al21 2.719991 1_554
Al17 Al2 2.800930 1_555
Al17 Al22 2.961996 1_665
Al17 Dy4 3.137907 1_554
Al17 Dy0 3.184610 1_655
Al17 Dy2 3.184623 1_555
Al18 Ru4 2.530740 1_655
Al18 Ru2 2.530744 1_555
Al18 Ru3 2.530762 1_555
Al18 Al6 2.719987 1_555
Al18 Al7 2.720005 1_555
Al18 Al8 2.720011 1_555
Al18 Al2 2.936096 1_555
Al18 Dy4 3.123790 1_555
Al18 Dy3 3.123798 1_555
Al18 Dy5 3.123801 1_555
Al19 Ru4 2.530729 1_555
Al19 Ru2 2.530742 1_555
Al19 Ru3 2.530757 1_565
Al19 Al9 2.719976 1_555
Al19 Al5 2.936092 1_555
Al19 Al3 2.936092 1_555
Al19 Al4 2.936094 1_555
Al19 Dy1 3.123802 1_555
Al19 Dy0 3.123816 1_555
Al19 Dy2 3.123819 1_555
Al20 Ru7 2.530735 1_555
Al20 Ru5 2.530750 1_555
Al20 Ru6 2.530758 1_565
Al20 Al5 2.936111 1_554
Al20 Al3 2.936118 1_554
Al20 Al4 2.936119 1_554
Al20 Dy0 3.123585 1_555
Al20 Dy2 3.123589 1_555
Al20 Dy1 3.123598 1_555
Al21 Ru7 2.530742 1_656
Al21 Ru5 2.530755 1_556
Al21 Ru6 2.530763 1_556
Al21 Dy5 3.123581 1_555
Al21 Dy3 3.123582 1_555
Al21 Dy4 3.123591 1_555
Al22 Ru1 2.373490 1_555
Al22 Ru0 2.373617 1_555
Al22 Dy2 2.930799 1_445
Al22 Dy0 2.930819 1_545
Al22 Dy1 2.930836 1_555
Al22 Al7 2.961970 1_455
Al22 Al8 2.961976 1_445
Al22 Al6 2.961996 1_555
Al23 Ru1 2.373484 1_556
Al23 Ru0 2.373614 1_555
Al23 Dy5 2.930814 1_555
Al23 Dy3 2.930829 1_455
Al23 Dy4 2.930845 1_445
Al23 Al9 2.962020 1_445
