# generated using pymatgen
data_Li4MnCo2O7
_symmetry_space_group_name_H-M   'P 1'
_cell_length_a   2.95014300
_cell_length_b   9.77305381
_cell_length_c   9.83508695
_cell_angle_alpha   114.84078194
_cell_angle_beta   92.78693074
_cell_angle_gamma   96.74722941
_symmetry_Int_Tables_number   1
_chemical_formula_structural   Li4MnCo2O7
_chemical_formula_sum   'Li8 Mn2 Co4 O14'
_cell_volume   254.03153131
_cell_formula_units_Z   2
loop_
 _symmetry_equiv_pos_site_id
 _symmetry_equiv_pos_as_xyz
  1  'x, y, z'
loop_
 _atom_site_type_symbol
 _atom_site_label
 _atom_site_symmetry_multiplicity
 _atom_site_fract_x
 _atom_site_fract_y
 _atom_site_fract_z
 _atom_site_occupancy
  Li  Li0  1  0.92778600  0.86522400  0.21929100  1
  Li  Li1  1  0.20381900  0.41633400  0.35133500  1
  Li  Li2  1  0.50864300  0.00618000  0.50332500  1
  Li  Li3  1  0.78238700  0.56526000  0.63963400  1
  Li  Li4  1  0.08222600  0.14769900  0.78462100  1
  Li  Li5  1  0.36017400  0.71426400  0.92784600  1
  Li  Li6  1  0.62852000  0.28309400  0.07975000  1
  Li  Li7  1  0.58669500  0.15160900  0.28458800  1
  Mn  Mn0  1  0.00154900  0.00818600  0.01128700  1
  Mn  Mn1  1  0.28657100  0.56969800  0.14063900  1
  Co  Co0  1  0.85578900  0.71231200  0.42890000  1
  Co  Co1  1  0.13816500  0.27774500  0.55863700  1
  Co  Co2  1  0.42137500  0.85665300  0.71588800  1
  Co  Co3  1  0.71898900  0.42504600  0.85220600  1
  O  O0  1  0.48322800  0.93671600  0.09526200  1
  O  O1  1  0.71514100  0.50645800  0.24872400  1
  O  O2  1  0.04327100  0.09235500  0.41574600  1
  O  O3  1  0.31756400  0.65233300  0.53034900  1
  O  O4  1  0.58081400  0.22484700  0.67963800  1
  O  O5  1  0.87963400  0.79851200  0.82188200  1
  O  O6  1  0.19503500  0.36783300  0.96131600  1
  O  O7  1  0.40107200  0.77722600  0.32210500  1
  O  O8  1  0.70247900  0.35240500  0.47401300  1
  O  O9  1  0.96878100  0.92085300  0.61543300  1
  O  O10  1  0.23834900  0.47828900  0.73832800  1
  O  O11  1  0.51055800  0.06078600  0.90510900  1
  O  O12  1  0.86120200  0.63292500  0.02832800  1
  O  O13  1  0.10018500  0.19915500  0.16581900  1
loop_
_geom_bond_atom_site_label_1
_geom_bond_atom_site_label_2
_geom_bond_distance
_geom_bond_site_symmetry_2
Li0 O0 2.114728 1_555
Li0 O7 2.141770 1_655
Li0 O7 2.178554 1_555
Li0 O2 2.220671 1_665
Li0 O12 2.235387 1_555
Li0 O0 2.302767 1_655
Li1 O13 2.113532 1_555
Li1 O8 2.150206 1_455
Li1 O1 2.156943 1_555
Li1 O8 2.164956 1_555
Li1 O1 2.185495 1_455
Li1 O3 2.209268 1_555
Li2 O2 2.025412 1_555
Li2 O4 2.088745 1_555
Li2 O2 2.090056 1_655
Li2 O9 2.155647 1_545
Li2 O7 2.170598 1_545
Li2 O9 2.253644 1_445
Li3 O8 2.009157 1_555
Li3 O10 2.075804 1_655
Li3 O3 2.158520 1_555
Li3 O10 2.182835 1_555
Li3 O5 2.203381 1_555
Li3 O3 2.233822 1_655
Li4 O4 2.083099 1_555
Li4 O6 2.096060 1_555
Li4 O9 2.113726 1_445
Li4 O4 2.142507 1_455
Li4 O11 2.162135 1_555
Li4 O11 2.381903 1_455
Li5 O12 2.074126 1_456
Li5 O0 2.078016 1_556
Li5 O12 2.141832 1_556
Li5 O5 2.150664 1_455
Li5 O5 2.166171 1_555
Li5 O10 2.247304 1_555
Li6 O13 2.015653 1_655
Li6 O13 2.056756 1_555
Li6 O1 2.090924 1_555
Li6 O11 2.102482 1_554
Li6 O6 2.143027 1_554
Li6 O6 2.347432 1_654
Li7 O13 2.022404 1_555
Li7 O8 2.036505 1_555
Li7 O13 2.082769 1_655
Li7 O2 2.110826 1_655
Li7 O0 2.116477 1_545
Li7 O2 2.275979 1_555
Mn0 O13 1.823174 1_555
Mn0 O0 1.947584 1_545
Mn0 O0 1.965891 1_445
Mn0 O11 1.982878 1_454
Mn0 O11 2.007946 1_554
Mn0 O5 2.086372 1_444
Mn1 O1 1.927563 1_555
Mn1 O12 1.948744 1_455
Mn1 O6 1.995147 1_554
Mn1 O7 2.037640 1_555
Mn1 O1 2.198949 1_455
Mn1 O12 2.232759 1_555
Co0 O3 1.934389 1_655
Co0 O7 1.981936 1_555
Co0 O1 2.024045 1_555
Co0 O9 2.066382 1_555
Co0 O3 2.070537 1_555
Co0 O7 2.139588 1_655
Co1 O2 1.743358 1_555
Co1 O8 1.871835 1_455
Co1 O4 1.978190 1_555
Co1 O10 1.988670 1_555
Co1 O8 2.087155 1_555
Co1 O4 2.212365 1_455
Co2 O9 1.934422 1_455
Co2 O5 1.943823 1_555
Co2 O3 2.037508 1_555
Co2 O11 2.054809 1_565
Co2 O5 2.100044 1_455
Co2 O9 2.101347 1_555
Co3 O4 1.957065 1_555
Co3 O6 1.994657 1_655
Co3 O10 2.011059 1_555
Co3 O12 2.018961 1_556
Co3 O6 2.077465 1_555
Co3 O10 2.083734 1_655
