# generated using pymatgen
data_KMg14AlO16
_symmetry_space_group_name_H-M   'P 1'
_cell_length_a   4.37914600
_cell_length_b   8.50758500
_cell_length_c   8.60315900
_cell_angle_alpha   90.00000000
_cell_angle_beta   90.00000000
_cell_angle_gamma   90.00000000
_symmetry_Int_Tables_number   1
_chemical_formula_structural   KMg14AlO16
_chemical_formula_sum   'K1 Mg14 Al1 O16'
_cell_volume   320.51892024
_cell_formula_units_Z   1
loop_
 _symmetry_equiv_pos_site_id
 _symmetry_equiv_pos_as_xyz
  1  'x, y, z'
loop_
 _atom_site_type_symbol
 _atom_site_label
 _atom_site_symmetry_multiplicity
 _atom_site_fract_x
 _atom_site_fract_y
 _atom_site_fract_z
 _atom_site_occupancy
  K  K0  1  0.00000000  0.50000000  0.00000000  1
  Mg  Mg0  1  0.00000000  0.00000000  0.50000000  1
  Mg  Mg1  1  0.00000000  0.50000000  0.50000000  1
  Mg  Mg2  1  0.50000000  0.74817500  0.00000000  1
  Mg  Mg3  1  0.50000000  0.25182500  0.00000000  1
  Mg  Mg4  1  0.50000000  0.74834200  0.50000000  1
  Mg  Mg5  1  0.50000000  0.25165800  0.50000000  1
  Mg  Mg6  1  0.50000000  0.00000000  0.74998600  1
  Mg  Mg7  1  0.50000000  0.50000000  0.74826900  1
  Mg  Mg8  1  0.50000000  0.00000000  0.25001400  1
  Mg  Mg9  1  0.50000000  0.50000000  0.25173100  1
  Mg  Mg10  1  0.00000000  0.74812700  0.74663000  1
  Mg  Mg11  1  0.00000000  0.25187300  0.74663000  1
  Mg  Mg12  1  0.00000000  0.74812700  0.25337000  1
  Mg  Mg13  1  0.00000000  0.25187300  0.25337000  1
  Al  Al0  1  0.00000000  0.00000000  0.00000000  1
  O  O0  1  0.00000000  0.00000000  0.76240200  1
  O  O1  1  0.00000000  0.50000000  0.72542100  1
  O  O2  1  0.00000000  0.00000000  0.23759800  1
  O  O3  1  0.00000000  0.50000000  0.27457900  1
  O  O4  1  0.50000000  0.75139200  0.75090500  1
  O  O5  1  0.50000000  0.24860800  0.75090500  1
  O  O6  1  0.50000000  0.75139200  0.24909500  1
  O  O7  1  0.50000000  0.24860800  0.24909500  1
  O  O8  1  0.50000000  0.00000000  0.00000000  1
  O  O9  1  0.50000000  0.50000000  0.00000000  1
  O  O10  1  0.50000000  0.00000000  0.50000000  1
  O  O11  1  0.50000000  0.50000000  0.50000000  1
  O  O12  1  0.00000000  0.78771300  0.00000000  1
  O  O13  1  0.00000000  0.21228700  0.00000000  1
  O  O14  1  0.00000000  0.75905900  0.50000000  1
  O  O15  1  0.00000000  0.24094100  0.50000000  1
loop_
_geom_bond_atom_site_label_1
_geom_bond_atom_site_label_2
_geom_bond_distance
_geom_bond_site_symmetry_2
K0 O9 2.189573 1_555
K0 O9 2.189573 1_455
K0 O3 2.362247 1_555
K0 O1 2.362247 1_554
K0 O12 2.447743 1_555
K0 O13 2.447743 1_555
Mg0 O15 2.049826 1_555
Mg0 O14 2.049826 1_545
Mg0 O10 2.189573 1_555
Mg0 O10 2.189573 1_455
Mg0 O0 2.257486 1_555
Mg0 O2 2.257486 1_555
Mg1 O1 1.939333 1_555
Mg1 O3 1.939333 1_555
Mg1 O11 2.189573 1_455
Mg1 O11 2.189573 1_555
Mg1 O14 2.203966 1_555
Mg1 O15 2.203966 1_555
Mg2 O9 2.111370 1_555
Mg2 O8 2.142423 1_565
Mg2 O6 2.143179 1_555
Mg2 O4 2.143179 1_554
Mg2 O12 2.215260 1_655
Mg2 O12 2.215260 1_555
Mg3 O9 2.111370 1_555
Mg3 O8 2.142423 1_555
Mg3 O7 2.143179 1_555
Mg3 O5 2.143179 1_554
Mg3 O13 2.215260 1_555
Mg3 O13 2.215260 1_655
Mg4 O11 2.112791 1_555
Mg4 O10 2.141002 1_565
Mg4 O4 2.158732 1_555
Mg4 O6 2.158732 1_555
Mg4 O14 2.191470 1_555
Mg4 O14 2.191470 1_655
Mg5 O11 2.112791 1_555
Mg5 O10 2.141002 1_555
Mg5 O5 2.158732 1_555
Mg5 O7 2.158732 1_555
Mg5 O15 2.191470 1_655
Mg5 O15 2.191470 1_555
Mg6 O5 2.115068 1_555
Mg6 O4 2.115068 1_545
Mg6 O10 2.150669 1_555
Mg6 O8 2.150910 1_556
Mg6 O0 2.192177 1_655
Mg6 O0 2.192177 1_555
Mg7 O11 2.135898 1_555
Mg7 O4 2.138859 1_555
Mg7 O5 2.138859 1_555
Mg7 O9 2.165682 1_556
Mg7 O1 2.198378 1_655
Mg7 O1 2.198378 1_555
Mg8 O7 2.115068 1_555
Mg8 O6 2.115068 1_545
Mg8 O10 2.150669 1_555
Mg8 O8 2.150910 1_555
Mg8 O2 2.192177 1_655
Mg8 O2 2.192177 1_555
Mg9 O11 2.135898 1_555
Mg9 O6 2.138859 1_555
Mg9 O7 2.138859 1_555
Mg9 O9 2.165682 1_555
Mg9 O3 2.198378 1_555
Mg9 O3 2.198378 1_655
Mg10 O1 2.118833 1_555
Mg10 O14 2.123834 1_555
Mg10 O0 2.147123 1_565
Mg10 O4 2.190058 1_555
Mg10 O4 2.190058 1_455
Mg10 O12 2.205646 1_556
Mg11 O1 2.118833 1_555
Mg11 O15 2.123834 1_555
Mg11 O0 2.147123 1_555
Mg11 O5 2.190058 1_455
Mg11 O5 2.190058 1_555
Mg11 O13 2.205646 1_556
Mg12 O3 2.118833 1_555
Mg12 O14 2.123834 1_555
Mg12 O2 2.147123 1_565
Mg12 O6 2.190058 1_455
Mg12 O6 2.190058 1_555
Mg12 O12 2.205646 1_555
Mg13 O3 2.118833 1_555
Mg13 O15 2.123834 1_555
Mg13 O2 2.147123 1_555
Mg13 O7 2.190058 1_455
Mg13 O7 2.190058 1_555
Mg13 O13 2.205646 1_555
Al0 O12 1.806050 1_545
Al0 O13 1.806050 1_555
Al0 O2 2.044093 1_555
Al0 O0 2.044093 1_554
Al0 O8 2.189573 1_455
Al0 O8 2.189573 1_555
