# generated using pymatgen
data_MgO
_symmetry_space_group_name_H-M   'P 1'
_cell_length_a   9.52265640
_cell_length_b   11.01083822
_cell_length_c   9.36602495
_cell_angle_alpha   89.57876438
_cell_angle_beta   90.69372860
_cell_angle_gamma   92.52557984
_symmetry_Int_Tables_number   1
_chemical_formula_structural   MgO
_chemical_formula_sum   'Mg40 O40'
_cell_volume   981.00178456
_cell_formula_units_Z   40
loop_
 _symmetry_equiv_pos_site_id
 _symmetry_equiv_pos_as_xyz
  1  'x, y, z'
loop_
 _atom_site_type_symbol
 _atom_site_label
 _atom_site_symmetry_multiplicity
 _atom_site_fract_x
 _atom_site_fract_y
 _atom_site_fract_z
 _atom_site_occupancy
  Mg  Mg0  1  0.53400800  0.79804600  0.25111300  1
  Mg  Mg1  1  0.14997300  0.52689400  0.82120900  1
  Mg  Mg2  1  0.73010800  0.44727600  0.09129800  1
  Mg  Mg3  1  0.58540900  0.04235500  0.57844800  1
  Mg  Mg4  1  0.31130400  0.34917400  0.63640000  1
  Mg  Mg5  1  0.28595700  0.51224000  0.14456600  1
  Mg  Mg6  1  0.62438000  0.31208800  0.72429600  1
  Mg  Mg7  1  0.65142300  0.55664400  0.67183700  1
  Mg  Mg8  1  0.89196200  0.19199100  0.24516900  1
  Mg  Mg9  1  0.92215300  0.88163600  0.39973200  1
  Mg  Mg10  1  0.00989600  0.33877800  0.03190600  1
  Mg  Mg11  1  0.05870200  0.13121800  0.49229300  1
  Mg  Mg12  1  0.06017700  0.63574500  0.55691000  1
  Mg  Mg13  1  0.26995700  0.80077500  0.06176500  1
  Mg  Mg14  1  0.85903000  0.60162500  0.90365700  1
  Mg  Mg15  1  0.99601200  0.63416100  0.17019900  1
  Mg  Mg16  1  0.77237100  0.12941800  0.96471300  1
  Mg  Mg17  1  0.75720600  0.86789600  0.04833600  1
  Mg  Mg18  1  0.41691300  0.72440700  0.86237100  1
  Mg  Mg19  1  0.18915400  0.77395600  0.33704900  1
  Mg  Mg20  1  0.78928000  0.35225800  0.43752800  1
  Mg  Mg21  1  0.69333700  0.00532400  0.31593900  1
  Mg  Mg22  1  0.42558400  0.10873100  0.81535800  1
  Mg  Mg23  1  0.47999300  0.45722800  0.91373400  1
  Mg  Mg24  1  0.76621600  0.65614400  0.36610600  1
  Mg  Mg25  1  0.43345200  0.00351400  0.12186700  1
  Mg  Mg26  1  0.37312400  0.59735200  0.52975200  1
  Mg  Mg27  1  0.23516900  0.87978400  0.65130600  1
  Mg  Mg28  1  0.34032200  0.26189300  0.05845600  1
  Mg  Mg29  1  0.35976700  0.08272500  0.40998400  1
  Mg  Mg30  1  0.59481200  0.23594000  0.20347100  1
  Mg  Mg31  1  0.52244400  0.48897200  0.32134200  1
  Mg  Mg32  1  0.99155700  0.34544400  0.65713300  1
  Mg  Mg33  1  0.18204700  0.35245500  0.35925900  1
  Mg  Mg34  1  0.10796500  0.16380100  0.85793000  1
  Mg  Mg35  1  0.02763800  0.81444000  0.88962100  1
  Mg  Mg36  1  0.59560900  0.78801400  0.53472400  1
  Mg  Mg37  1  0.86606100  0.80767100  0.67204900  1
  Mg  Mg38  1  0.12355400  0.05261000  0.14321600  1
  Mg  Mg39  1  0.84721500  0.03939700  0.69730200  1
  O  O0  1  0.65474000  0.03134600  0.09988100  1
  O  O1  1  0.77198400  0.27540200  0.09276500  1
  O  O2  1  0.99937000  0.66250500  0.76411200  1
  O  O3  1  0.69886900  0.18248600  0.38106800  1
  O  O4  1  0.49566200  0.43783800  0.61568900  1
  O  O5  1  0.50096300  0.69477900  0.68585800  1
  O  O6  1  0.38532700  0.02201300  0.63445100  1
  O  O7  1  0.74551100  0.83283700  0.27020000  1
  O  O8  1  0.53902000  0.66454800  0.38063200  1
  O  O9  1  0.23314700  0.82518900  0.85879200  1
  O  O10  1  0.98257600  0.70357700  0.36771300  1
  O  O11  1  0.93497500  0.49775000  0.05073300  1
  O  O12  1  0.25059600  0.21837200  0.49260600  1
  O  O13  1  0.10510900  0.34671600  0.84471300  1
  O  O14  1  0.24158200  0.92123900  0.21326500  1
  O  O15  1  0.24298500  0.73445700  0.52838600  1
  O  O16  1  0.27579900  0.09244200  0.96630300  1
  O  O17  1  0.67336900  0.51903600  0.88884700  1
  O  O18  1  0.15615100  0.47814300  0.60958600  1
  O  O19  1  0.43753700  0.28727100  0.84461600  1
  O  O20  1  0.19709300  0.66760000  0.17098200  1
  O  O21  1  0.66037600  0.12931000  0.76298300  1
  O  O22  1  0.50365400  0.94682300  0.38130600  1
  O  O23  1  0.90087600  0.74195100  0.03674100  1
  O  O24  1  0.47986700  0.81791100  0.04796800  1
  O  O25  1  0.40762000  0.15778500  0.22019800  1
  O  O26  1  0.99200400  0.16258100  0.68347100  1
  O  O27  1  0.74315600  0.93568500  0.55196700  1
  O  O28  1  0.50373000  0.40224900  0.12353700  1
  O  O29  1  0.03172300  0.91100400  0.58836400  1
  O  O30  1  0.76879200  0.67991500  0.57205100  1
  O  O31  1  0.98265500  0.04247700  0.31298000  1
  O  O32  1  0.18407200  0.34537300  0.14612300  1
  O  O33  1  0.85329600  0.91793800  0.85293300  1
  O  O34  1  0.73167500  0.48348700  0.30429100  1
  O  O35  1  0.32406800  0.48721400  0.35775400  1
  O  O36  1  0.32519600  0.56489500  0.93237600  1
  O  O37  1  0.79195900  0.39560600  0.63991900  1
  O  O38  1  0.98306000  0.14364000  0.02961500  1
  O  O39  1  0.98191500  0.29701200  0.40286000  1
loop_
_geom_bond_atom_site_label_1
_geom_bond_atom_site_label_2
_geom_bond_distance
_geom_bond_site_symmetry_2
Mg0 O8 1.900810 1_555
Mg0 O24 1.978342 1_555
Mg0 O7 2.039480 1_555
Mg0 O22 2.081746 1_555
Mg1 O36 1.986493 1_555
Mg1 O13 2.021891 1_555
Mg1 O18 2.059476 1_555
Mg1 O2 2.175034 1_455
Mg2 O1 1.951069 1_555
Mg2 O34 2.036974 1_555
Mg2 O11 2.044122 1_555
Mg2 O17 2.121900 1_554
Mg2 O28 2.214379 1_555
Mg3 O27 1.966301 1_545
Mg3 O6 1.985037 1_555
Mg3 O21 2.085133 1_555
Mg3 O22 2.245768 1_545
Mg3 O3 2.612498 1_555
Mg4 O4 1.981714 1_555
Mg4 O12 2.039263 1_555
Mg4 O18 2.105522 1_555
Mg4 O19 2.389262 1_555
Mg5 O20 1.960223 1_555
Mg5 O32 2.039660 1_555
Mg5 O35 2.043948 1_555
Mg5 O36 2.099375 1_554
Mg5 O28 2.457811 1_555
Mg6 O37 1.976688 1_555
Mg6 O21 2.084747 1_555
Mg6 O19 2.124028 1_555
Mg6 O4 2.133772 1_555
Mg7 O30 1.959057 1_555
Mg7 O4 2.002024 1_555
Mg7 O17 2.081167 1_555
Mg7 O5 2.140803 1_555
Mg7 O37 2.291522 1_555
Mg8 O31 1.988998 1_555
Mg8 O39 2.039477 1_555
Mg8 O1 2.054280 1_555
Mg8 O3 2.247186 1_555
Mg8 O38 2.282716 1_555
Mg9 O31 2.007188 1_565
Mg9 O29 2.061216 1_655
Mg9 O10 2.092156 1_555
Mg9 O7 2.114366 1_555
Mg9 O27 2.335236 1_555
Mg10 O11 1.929170 1_455
Mg10 O32 1.961692 1_555
Mg10 O13 1.983145 1_554
Mg10 O38 2.152799 1_455
Mg10 O1 2.414683 1_455
Mg11 O26 1.945454 1_455
Mg11 O12 2.026192 1_555
Mg11 O31 2.057192 1_455
Mg11 O39 2.156199 1_455
Mg11 O29 2.583338 1_545
Mg12 O15 2.030619 1_555
Mg12 O18 2.050929 1_555
Mg12 O2 2.058865 1_455
Mg12 O10 2.059479 1_455
Mg13 O20 1.893020 1_555
Mg13 O9 1.947763 1_554
Mg13 O14 1.978470 1_555
Mg13 O24 2.005134 1_555
Mg14 O11 1.937613 1_556
Mg14 O17 1.956067 1_555
Mg14 O2 1.973324 1_555
Mg14 O23 2.015405 1_556
Mg15 O20 1.933841 1_655
Mg15 O11 1.943668 1_555
Mg15 O23 1.958910 1_555
Mg15 O10 2.014427 1_555
Mg16 O0 1.982726 1_556
Mg16 O1 2.012748 1_556
Mg16 O38 2.088906 1_556
Mg16 O21 2.158331 1_555
Mg17 O23 1.994911 1_555
Mg17 O7 2.114109 1_555
Mg17 O33 2.114622 1_554
Mg17 O0 2.145483 1_565
Mg17 O24 2.673861 1_555
Mg18 O5 1.882331 1_555
Mg18 O36 2.034516 1_555
Mg18 O24 2.094700 1_556
Mg18 O9 2.112821 1_555
Mg19 O15 1.910333 1_555
Mg19 O20 1.958004 1_555
Mg19 O14 2.034290 1_555
Mg19 O10 2.104478 1_455
Mg20 O37 1.957759 1_555
Mg20 O39 1.989007 1_555
Mg20 O34 1.993185 1_555
Mg20 O3 2.092116 1_555
Mg21 O22 1.992700 1_545
Mg21 O7 2.034135 1_545
Mg21 O3 2.046406 1_555
Mg21 O0 2.072416 1_555
Mg21 O27 2.383633 1_545
Mg22 O6 1.976208 1_555
Mg22 O19 1.984983 1_555
Mg22 O16 2.021856 1_555
Mg22 O21 2.295920 1_555
Mg23 O36 1.942189 1_555
Mg23 O17 1.950911 1_555
Mg23 O19 2.007324 1_555
Mg23 O28 2.064625 1_556
Mg24 O30 1.948184 1_555
Mg24 O34 2.003503 1_555
Mg24 O10 2.102964 1_555
Mg24 O7 2.152831 1_555
Mg24 O8 2.175500 1_555
Mg25 O25 1.964544 1_555
Mg25 O0 2.128259 1_555
Mg25 O14 2.184586 1_545
Mg25 O24 2.226817 1_545
Mg25 O16 2.321876 1_554
Mg25 O22 2.591556 1_545
Mg26 O15 1.994788 1_555
Mg26 O35 2.060240 1_555
Mg26 O5 2.152990 1_555
Mg26 O8 2.220133 1_555
Mg26 O4 2.287235 1_555
Mg26 O18 2.516937 1_555
Mg27 O15 1.982719 1_555
Mg27 O9 2.030008 1_555
Mg27 O29 2.060842 1_555
Mg27 O6 2.080040 1_565
Mg28 O32 1.973372 1_555
Mg28 O25 2.008805 1_555
Mg28 O16 2.124496 1_554
Mg28 O28 2.227162 1_555
Mg28 O19 2.227170 1_554
Mg29 O25 2.003792 1_555
Mg29 O12 2.020820 1_555
Mg29 O22 2.093866 1_545
Mg29 O6 2.215251 1_555
Mg30 O25 1.952491 1_555
Mg30 O1 2.020274 1_555
Mg30 O3 2.022923 1_555
Mg30 O28 2.184073 1_555
Mg30 O0 2.549655 1_555
Mg31 O35 1.922897 1_555
Mg31 O34 2.004345 1_555
Mg31 O8 2.014316 1_555
Mg31 O28 2.092582 1_555
Mg32 O37 2.006868 1_555
Mg32 O26 2.026913 1_555
Mg32 O13 2.051607 1_655
Mg32 O18 2.143681 1_655
Mg32 O39 2.444085 1_555
Mg33 O35 1.963217 1_555
Mg33 O32 1.998692 1_555
Mg33 O39 2.020920 1_455
Mg33 O12 2.050286 1_555
Mg34 O26 1.960816 1_455
Mg34 O38 2.016803 1_456
Mg34 O13 2.018299 1_555
Mg34 O16 2.064369 1_555
Mg35 O9 1.979890 1_555
Mg35 O23 1.982944 1_456
Mg35 O2 2.057808 1_455
Mg35 O33 2.078507 1_455
Mg36 O5 1.948820 1_555
Mg36 O8 2.041298 1_555
Mg36 O30 2.100380 1_555
Mg36 O27 2.107382 1_555
Mg36 O22 2.440637 1_555
Mg37 O30 1.896704 1_555
Mg37 O29 2.063048 1_655
Mg37 O33 2.099363 1_555
Mg37 O27 2.170653 1_555
Mg37 O2 2.245429 1_555
Mg38 O14 1.974217 1_545
Mg38 O38 1.998664 1_455
Mg38 O31 2.092056 1_455
Mg38 O16 2.243036 1_554
Mg39 O26 1.895901 1_555
Mg39 O33 1.973003 1_545
Mg39 O27 2.007323 1_545
Mg39 O21 2.171366 1_555
Mg39 O29 2.531844 1_645
