# generated using pymatgen
data_Ti4S3N2
_symmetry_space_group_name_H-M   'P 1'
_cell_length_a   5.89256470
_cell_length_b   3.39359205
_cell_length_c   9.57858544
_cell_angle_alpha   90.00000757
_cell_angle_beta   49.54174583
_cell_angle_gamma   73.26442308
_symmetry_Int_Tables_number   1
_chemical_formula_structural   Ti4S3N2
_chemical_formula_sum   'Ti4 S3 N2'
_cell_volume   134.90073640
_cell_formula_units_Z   1
loop_
 _symmetry_equiv_pos_site_id
 _symmetry_equiv_pos_as_xyz
  1  'x, y, z'
loop_
 _atom_site_type_symbol
 _atom_site_label
 _atom_site_symmetry_multiplicity
 _atom_site_fract_x
 _atom_site_fract_y
 _atom_site_fract_z
 _atom_site_occupancy
  Ti  Ti0  1  0.27973900  0.86013100  0.65234900  1
  Ti  Ti1  1  0.72026100  0.13986900  0.34765100  1
  Ti  Ti2  1  0.58753200  0.70623400  0.14647500  1
  Ti  Ti3  1  0.41246800  0.29376600  0.85352500  1
  S  S0  1  0.00000000  0.00000000  0.00000000  1
  S  S1  1  0.80148700  0.59925700  0.78889000  1
  S  S2  1  0.19851300  0.40074300  0.21111000  1
  N  N0  1  0.47896200  0.76051900  0.38522300  1
  N  N1  1  0.52103800  0.23948100  0.61477700  1
loop_
_geom_bond_atom_site_label_1
_geom_bond_atom_site_label_2
_geom_bond_distance
_geom_bond_site_symmetry_2
S0 Ti3 2.416518 1_554
S0 Ti2 2.416518 1_445
S0 Ti2 2.416519 1_455
S0 Ti3 2.416519 1_544
S0 Ti1 2.541079 1_455
S0 Ti0 2.541079 1_544
S1 Ti3 2.497920 1_565
S1 Ti3 2.497922 1_555
S1 Ti0 2.662641 1_655
S1 Ti0 2.662641 1_645
S1 Ti2 2.754128 1_556
S2 Ti2 2.497920 1_545
S2 Ti2 2.497922 1_555
S2 Ti1 2.662641 1_455
S2 Ti1 2.662641 1_465
S2 Ti3 2.754128 1_554
N0 Ti2 1.925202 1_555
N0 Ti0 1.978012 1_555
N0 Ti1 2.049052 1_565
N0 Ti1 2.049055 1_555
N1 Ti3 1.925202 1_555
N1 Ti1 1.978012 1_555
N1 Ti0 2.049052 1_545
N1 Ti0 2.049055 1_555
