# generated using pymatgen
data_Mg5Si9
_symmetry_space_group_name_H-M   'P 1'
_cell_length_a   6.89024292
_cell_length_b   7.46070852
_cell_length_c   12.64171191
_cell_angle_alpha   83.82737515
_cell_angle_beta   77.66273599
_cell_angle_gamma   60.25781502
_symmetry_Int_Tables_number   1
_chemical_formula_structural   Mg5Si9
_chemical_formula_sum   'Mg10 Si18'
_cell_volume   551.22127737
_cell_formula_units_Z   2
loop_
 _symmetry_equiv_pos_site_id
 _symmetry_equiv_pos_as_xyz
  1  'x, y, z'
loop_
 _atom_site_type_symbol
 _atom_site_label
 _atom_site_symmetry_multiplicity
 _atom_site_fract_x
 _atom_site_fract_y
 _atom_site_fract_z
 _atom_site_occupancy
  Mg  Mg0  1  0.48441600  0.05241600  0.72166200  1
  Mg  Mg1  1  0.22485500  0.90398300  0.43517000  1
  Mg  Mg2  1  0.48978200  0.40935700  0.53510300  1
  Mg  Mg3  1  0.78161700  0.56545600  0.37459700  1
  Mg  Mg4  1  0.03542900  0.34048200  0.56678200  1
  Mg  Mg5  1  0.73617100  0.93879800  0.47002500  1
  Mg  Mg6  1  0.41781300  0.76325000  0.17046600  1
  Mg  Mg7  1  0.84113600  0.81167900  0.89017300  1
  Mg  Mg8  1  0.60646200  0.23292900  0.12918600  1
  Mg  Mg9  1  0.49173300  0.59417900  0.94180100  1
  Si  Si0  1  0.90137000  0.73920800  0.14300200  1
  Si  Si1  1  0.15137100  0.34359800  0.89664100  1
  Si  Si2  1  0.85201400  0.19195100  0.33020000  1
  Si  Si3  1  0.18590900  0.80655200  0.70818100  1
  Si  Si4  1  0.21007400  0.52983000  0.23897400  1
  Si  Si5  1  0.76196100  0.27159100  0.78252800  1
  Si  Si6  1  0.21098600  0.20547300  0.27113000  1
  Si  Si7  1  0.74383900  0.60480600  0.74407100  1
  Si  Si8  1  0.01975700  0.18728700  0.13960400  1
  Si  Si9  1  0.87793100  0.07397800  0.62155000  1
  Si  Si10  1  0.09988900  0.05652200  0.85195700  1
  Si  Si11  1  0.09475900  0.91071800  0.03131200  1
  Si  Si12  1  0.58329300  0.93709800  0.28416600  1
  Si  Si13  1  0.14317300  0.49720000  0.72255000  1
  Si  Si14  1  0.51877900  0.21290300  0.93116100  1
  Si  Si15  1  0.84677100  0.51149900  0.04680100  1
  Si  Si16  1  0.54631800  0.72180800  0.59428800  1
  Si  Si17  1  0.14258100  0.58559800  0.42668200  1
loop_
_geom_bond_atom_site_label_1
_geom_bond_atom_site_label_2
_geom_bond_distance
_geom_bond_site_symmetry_2
Mg0 Si10 2.792708 1_555
Mg0 Si9 2.811040 1_555
Mg0 Si16 2.894047 1_545
Mg0 Si7 2.918523 1_545
Mg0 Si13 2.965725 1_555
Mg0 Si1 2.965872 1_555
Mg0 Si14 3.120103 1_555
Mg1 Si17 2.718854 1_555
Mg1 Si9 2.846368 1_465
Mg1 Si6 2.870078 1_565
Mg1 Si12 2.879925 1_555
Mg1 Si2 2.888564 1_465
Mg1 Si16 3.021358 1_555
Mg2 Si17 2.687605 1_555
Mg2 Si16 2.747038 1_555
Mg2 Si13 2.847980 1_555
Mg2 Si9 2.937520 1_555
Mg2 Si2 3.113535 1_555
Mg3 Si12 2.662469 1_555
Mg3 Si2 2.682235 1_555
Mg3 Si17 2.780983 1_655
Mg3 Si16 2.932329 1_555
Mg3 Si4 2.980270 1_655
Mg3 Si6 2.982396 1_655
Mg4 Si17 2.666554 1_555
Mg4 Si9 2.670983 1_455
Mg4 Si13 2.788718 1_555
Mg4 Si7 2.836151 1_455
Mg4 Si5 3.117154 1_455
Mg4 Si16 3.125900 1_455
Mg5 Si17 2.723774 1_655
Mg5 Si16 2.734216 1_555
Mg5 Si2 2.739289 1_565
Mg5 Si12 2.776246 1_555
Mg5 Si9 2.798731 1_565
Mg6 Si4 2.729615 1_555
Mg6 Si12 2.759879 1_555
Mg6 Si15 2.802924 1_555
Mg6 Si11 2.843765 1_555
Mg6 Si8 3.043977 1_565
Mg6 Si6 3.162038 1_565
Mg7 Si14 2.721633 1_565
Mg7 Si15 2.816143 1_556
Mg7 Si7 2.900294 1_555
Mg7 Si3 2.920818 1_655
Mg7 Si13 2.943835 1_655
Mg7 Si1 3.062379 1_655
Mg7 Si10 3.069588 1_665
Mg7 Si11 3.111339 1_656
Mg8 Si4 2.707586 1_555
Mg8 Si8 2.726023 1_655
Mg8 Si14 2.733225 1_554
Mg8 Si12 2.832199 1_545
Mg8 Si6 3.012039 1_555
Mg8 Si11 3.076584 1_645
Mg8 Si2 3.251234 1_555
Mg9 Si11 2.679941 1_556
Mg9 Si7 2.740522 1_555
Mg9 Si14 2.773106 1_555
Mg9 Si15 2.800201 1_556
Mg9 Si5 2.882209 1_555
Si0 Si15 2.404297 1_555
Si0 Si4 2.415566 1_655
Si0 Si12 2.419178 1_555
Si0 Si11 2.430168 1_655
Si1 Si14 2.341211 1_555
Si1 Si13 2.367814 1_555
Si1 Si15 2.403701 1_456
Si1 Si10 2.476249 1_555
Si2 Si8 2.435290 1_655
Si2 Si6 2.475405 1_655
Si3 Si9 2.450635 1_465
Si4 Si6 2.407451 1_555
Si5 Si9 2.394779 1_555
Si5 Si7 2.426989 1_555
Si6 Si8 2.383534 1_555
Si10 Si5 2.372761 1_455
Si10 Si11 2.408102 1_546
Si10 Si3 2.510933 1_545
Si11 Si8 2.376125 1_565
Si12 Si6 2.372829 1_565
Si13 Si7 2.413439 1_455
Si13 Si3 2.451080 1_555
Si14 Si5 2.394881 1_555
Si15 Si8 2.403041 1_655
Si16 Si3 2.397835 1_555
Si16 Si7 2.401387 1_555
Si17 Si4 2.359882 1_555
