# generated using pymatgen
data_V4NO11
_symmetry_space_group_name_H-M   'P 1'
_cell_length_a   6.08491149
_cell_length_b   6.08491149
_cell_length_c   10.59290260
_cell_angle_alpha   89.31907613
_cell_angle_beta   89.31907613
_cell_angle_gamma   35.26010500
_symmetry_Int_Tables_number   1
_chemical_formula_structural   V4NO11
_chemical_formula_sum   'V4 N1 O11'
_cell_volume   226.40352364
_cell_formula_units_Z   1
loop_
 _symmetry_equiv_pos_site_id
 _symmetry_equiv_pos_as_xyz
  1  'x, y, z'
loop_
 _atom_site_type_symbol
 _atom_site_label
 _atom_site_symmetry_multiplicity
 _atom_site_fract_x
 _atom_site_fract_y
 _atom_site_fract_z
 _atom_site_occupancy
  V  V0  1  0.93458900  0.93458900  0.15930000  1
  V  V1  1  0.06849900  0.06849900  0.83928300  1
  V  V2  1  0.22781900  0.22781900  0.16824900  1
  V  V3  1  0.77430100  0.77430100  0.83095400  1
  N  N0  1  0.53787300  0.53787300  0.49203700  1
  O  O0  1  0.94988200  0.94988200  0.31053600  1
  O  O1  1  0.05577700  0.05577700  0.68748200  1
  O  O2  1  0.39829600  0.39829600  0.12880500  1
  O  O3  1  0.60376700  0.60376700  0.87086200  1
  O  O4  1  0.76057600  0.76057600  0.12969400  1
  O  O5  1  0.24198900  0.24198900  0.87039400  1
  O  O6  1  0.21083400  0.21083400  0.31916100  1
  O  O7  1  0.79068300  0.79068300  0.67985500  1
  O  O8  1  0.08276800  0.08276800  0.10003000  1
  O  O9  1  0.91977000  0.91977000  0.89801000  1
  O  O10  1  0.44257700  0.44257700  0.51534900  1
loop_
_geom_bond_atom_site_label_1
_geom_bond_atom_site_label_2
_geom_bond_distance
_geom_bond_site_symmetry_2
N0 O10 1.129506 1_555
O0 V0 1.614014 1_555
O1 V1 1.616600 1_555
O2 V0 1.918682 1_455
O2 V0 1.918682 1_545
O2 V2 2.015793 1_555
O3 V1 1.918083 1_565
O3 V1 1.918083 1_655
O3 V3 2.017403 1_555
O4 V2 1.924496 1_655
O4 V2 1.924496 1_565
O4 V0 2.046324 1_555
O5 V3 1.925487 1_455
O5 V3 1.925487 1_545
O5 V1 2.043037 1_555
O6 V2 1.608248 1_555
O7 V3 1.609461 1_555
O8 V0 1.822336 1_445
O8 V2 1.839232 1_555
O9 V1 1.826427 1_665
O9 V3 1.838757 1_555
