# generated using pymatgen
data_K3Tl(Cl3O)2
_symmetry_space_group_name_H-M   'P 1'
_cell_length_a   15.03531249
_cell_length_b   15.03531249
_cell_length_c   15.03531249
_cell_angle_alpha   118.30937249
_cell_angle_beta   118.30937249
_cell_angle_gamma   92.95407733
_symmetry_Int_Tables_number   1
_chemical_formula_structural   K3Tl(Cl3O)2
_chemical_formula_sum   'K21 Tl7 Cl42 O14'
_cell_volume   2461.25643430
_cell_formula_units_Z   7
loop_
 _symmetry_equiv_pos_site_id
 _symmetry_equiv_pos_as_xyz
  1  'x, y, z'
loop_
 _atom_site_type_symbol
 _atom_site_label
 _atom_site_symmetry_multiplicity
 _atom_site_fract_x
 _atom_site_fract_y
 _atom_site_fract_z
 _atom_site_occupancy
  K  K0  1  0.50000000  0.50000000  0.00000000  1
  K  K1  1  0.19889000  0.19889000  0.39778000  1
  K  K2  1  0.80111000  0.80111000  0.60222000  1
  K  K3  1  0.19889000  0.80111000  0.00000000  1
  K  K4  1  0.80111000  0.19889000  0.00000000  1
  K  K5  1  0.86173900  0.14625200  0.28451400  1
  K  K6  1  0.86173900  0.57722500  0.71548600  1
  K  K7  1  0.14625200  0.86173900  0.28451400  1
  K  K8  1  0.57722500  0.86173900  0.71548600  1
  K  K9  1  0.13826100  0.85374800  0.71548600  1
  K  K10  1  0.13826100  0.42277500  0.28451400  1
  K  K11  1  0.85374800  0.13826100  0.71548600  1
  K  K12  1  0.42277500  0.13826100  0.28451400  1
  K  K13  1  0.62231100  0.90302800  0.28071700  1
  K  K14  1  0.62231100  0.34159400  0.71928300  1
  K  K15  1  0.90302800  0.62231100  0.28071700  1
  K  K16  1  0.34159400  0.62231100  0.71928300  1
  K  K17  1  0.37768900  0.09697200  0.71928300  1
  K  K18  1  0.37768900  0.65840600  0.28071700  1
  K  K19  1  0.09697200  0.37768900  0.71928300  1
  K  K20  1  0.65840600  0.37768900  0.28071700  1
  Tl  Tl0  1  0.00000000  0.00000000  0.00000000  1
  Tl  Tl1  1  0.00000000  0.50000000  0.50000000  1
  Tl  Tl2  1  0.50000000  0.00000000  0.50000000  1
  Tl  Tl3  1  0.00000000  0.00000000  0.50000000  1
  Tl  Tl4  1  0.50000000  0.50000000  0.50000000  1
  Tl  Tl5  1  0.00000000  0.50000000  0.00000000  1
  Tl  Tl6  1  0.50000000  0.00000000  0.00000000  1
  Cl  Cl0  1  0.88429600  0.88429600  0.00000000  1
  Cl  Cl1  1  0.11570400  0.11570400  0.00000000  1
  Cl  Cl2  1  0.18120900  0.00000000  0.18120900  1
  Cl  Cl3  1  0.81879100  0.00000000  0.81879100  1
  Cl  Cl4  1  0.00000000  0.81879100  0.81879100  1
  Cl  Cl5  1  0.00000000  0.18120900  0.18120900  1
  Cl  Cl6  1  0.87700300  0.37700300  0.50000000  1
  Cl  Cl7  1  0.37700300  0.87700300  0.50000000  1
  Cl  Cl8  1  0.12299700  0.62299700  0.50000000  1
  Cl  Cl9  1  0.62299700  0.12299700  0.50000000  1
  Cl  Cl10  1  0.38515800  0.12993100  0.51508900  1
  Cl  Cl11  1  0.61484200  0.87006900  0.48491100  1
  Cl  Cl12  1  0.38515800  0.87006900  0.25522700  1
  Cl  Cl13  1  0.61484200  0.12993100  0.74477300  1
  Cl  Cl14  1  0.12993100  0.61484200  0.74477300  1
  Cl  Cl15  1  0.87006900  0.38515800  0.25522700  1
  Cl  Cl16  1  0.12993100  0.38515800  0.51508900  1
  Cl  Cl17  1  0.87006900  0.61484200  0.48491100  1
  Cl  Cl18  1  0.81870300  0.49547200  0.00000000  1
  Cl  Cl19  1  0.49547200  0.81870300  0.00000000  1
  Cl  Cl20  1  0.81870300  0.81870300  0.32323100  1
  Cl  Cl21  1  0.49547200  0.49547200  0.67676900  1
  Cl  Cl22  1  0.18129700  0.50452800  0.00000000  1
  Cl  Cl23  1  0.50452800  0.18129700  0.00000000  1
  Cl  Cl24  1  0.18129700  0.18129700  0.67676900  1
  Cl  Cl25  1  0.50452800  0.50452800  0.32323100  1
  Cl  Cl26  1  0.00741800  0.67464600  0.00000000  1
  Cl  Cl27  1  0.67464600  0.00741800  0.00000000  1
  Cl  Cl28  1  0.00741800  0.00741800  0.33277200  1
  Cl  Cl29  1  0.67464600  0.67464600  0.66722800  1
  Cl  Cl30  1  0.99258200  0.32535400  0.00000000  1
  Cl  Cl31  1  0.32535400  0.99258200  0.00000000  1
  Cl  Cl32  1  0.99258200  0.99258200  0.66722800  1
  Cl  Cl33  1  0.32535400  0.32535400  0.33277200  1
  Cl  Cl34  1  0.11925200  0.61925200  0.23850400  1
  Cl  Cl35  1  0.38074800  0.88074800  0.76149600  1
  Cl  Cl36  1  0.11925200  0.88074800  0.50000000  1
  Cl  Cl37  1  0.38074800  0.61925200  0.50000000  1
  Cl  Cl38  1  0.61925200  0.38074800  0.50000000  1
  Cl  Cl39  1  0.88074800  0.11925200  0.50000000  1
  Cl  Cl40  1  0.61925200  0.11925200  0.23850400  1
  Cl  Cl41  1  0.88074800  0.38074800  0.76149600  1
  O  O0  1  0.62309800  0.62309800  0.00000000  1
  O  O1  1  0.37690200  0.37690200  0.00000000  1
  O  O2  1  0.68824300  0.50000000  0.18824300  1
  O  O3  1  0.31175700  0.50000000  0.81175700  1
  O  O4  1  0.50000000  0.31175700  0.81175700  1
  O  O5  1  0.50000000  0.68824300  0.18824300  1
  O  O6  1  0.74114400  0.80856100  0.06741700  1
  O  O7  1  0.74114400  0.67372700  0.93258300  1
  O  O8  1  0.80856100  0.74114400  0.06741700  1
  O  O9  1  0.67372700  0.74114400  0.93258300  1
  O  O10  1  0.25885600  0.19143900  0.93258300  1
  O  O11  1  0.25885600  0.32627300  0.06741700  1
  O  O12  1  0.19143900  0.25885600  0.93258300  1
  O  O13  1  0.32627300  0.25885600  0.06741700  1
loop_
_geom_bond_atom_site_label_1
_geom_bond_atom_site_label_2
_geom_bond_distance
_geom_bond_site_symmetry_2
K0 O0 2.549112 1_555
K0 O1 2.549112 1_555
K0 O5 2.902306 1_555
K0 O2 2.902306 1_555
K0 O3 2.902306 1_554
K0 O4 2.902306 1_554
K13 O5 2.906531 1_555
K14 O4 2.906531 1_555
K15 O2 2.906531 1_555
K16 O3 2.906531 1_555
K17 O4 2.906531 1_555
K18 O5 2.906531 1_555
K19 O3 2.906531 1_555
K20 O2 2.906531 1_555
Cl0 Tl0 2.395998 1_665
Cl1 Tl0 2.395998 1_555
Cl2 Tl0 2.793857 1_555
Cl2 K3 3.078554 1_545
Cl2 K1 3.078554 1_555
Cl2 K12 3.276311 1_555
Cl2 K7 3.276317 1_545
Cl3 Tl0 2.793857 1_656
Cl3 K4 3.078554 1_556
Cl3 K2 3.078554 1_545
Cl3 K8 3.276311 1_545
Cl3 K11 3.276317 1_555
Cl4 Tl0 2.793857 1_566
Cl4 K3 3.078554 1_556
Cl4 K2 3.078554 1_455
Cl4 K6 3.276311 1_455
Cl4 K9 3.276317 1_555
Cl5 Tl0 2.793857 1_555
Cl5 K4 3.078554 1_455
Cl5 K1 3.078554 1_555
Cl5 K10 3.276311 1_555
Cl5 K5 3.276317 1_455
Cl6 Tl1 2.547021 1_655
Cl6 K6 3.337338 1_555
Cl6 K5 3.337347 1_555
Cl6 K19 3.380907 1_655
Cl6 K20 3.380907 1_555
Cl7 Tl2 2.547021 1_565
Cl7 K8 3.337338 1_555
Cl7 K7 3.337347 1_555
Cl7 K17 3.380907 1_565
Cl7 K18 3.380907 1_555
Cl8 Tl1 2.547021 1_555
Cl8 K10 3.337338 1_555
Cl8 K9 3.337347 1_555
Cl8 K16 3.380907 1_555
Cl8 K15 3.380907 1_455
Cl9 Tl2 2.547021 1_555
Cl9 K12 3.337338 1_555
Cl9 K11 3.337347 1_555
Cl9 K14 3.380907 1_555
Cl9 K13 3.380907 1_545
Cl10 Tl2 2.673601 1_555
Cl10 K1 3.062345 1_555
Cl10 K14 3.383501 1_555
Cl10 K17 3.383501 1_555
Cl11 Tl2 2.673601 1_565
Cl11 K2 3.062345 1_555
Cl11 K13 3.383501 1_555
Cl11 K18 3.383501 1_555
Cl12 Tl2 2.673601 1_565
Cl12 K3 3.062345 1_555
Cl12 K13 3.383501 1_555
Cl12 K18 3.383501 1_555
Cl13 Tl2 2.673601 1_555
Cl13 K4 3.062345 1_556
Cl13 K14 3.383501 1_555
Cl13 K17 3.383501 1_555
Cl14 Tl1 2.673601 1_555
Cl14 K3 3.062345 1_556
Cl14 K16 3.383501 1_555
Cl14 K19 3.383501 1_555
Cl15 Tl1 2.673601 1_655
Cl15 K4 3.062345 1_555
Cl15 K15 3.383501 1_555
Cl15 K20 3.383501 1_555
Cl16 Tl1 2.673601 1_555
Cl16 K1 3.062345 1_555
Cl16 K16 3.383501 1_555
Cl16 K19 3.383501 1_555
Cl17 Tl1 2.673601 1_655
Cl17 K2 3.062345 1_555
Cl17 K15 3.383501 1_555
Cl17 K20 3.383501 1_555
Cl18 Tl5 2.723197 1_655
Cl18 K14 3.177969 1_554
Cl18 K15 3.177969 1_555
Cl19 Tl6 2.723197 1_565
Cl19 K16 3.177969 1_554
Cl19 K13 3.177969 1_555
Cl20 Tl3 2.723197 1_665
Cl20 K15 3.177969 1_555
Cl20 K13 3.177969 1_555
Cl21 Tl4 2.723197 1_555
Cl21 K14 3.177969 1_555
Cl21 K16 3.177969 1_555
Cl22 Tl5 2.723197 1_555
Cl22 K19 3.177969 1_554
Cl22 K18 3.177969 1_555
Cl23 Tl6 2.723197 1_555
Cl23 K17 3.177969 1_554
Cl23 K20 3.177969 1_555
Cl24 Tl3 2.723197 1_555
Cl24 K17 3.177969 1_555
Cl24 K19 3.177969 1_555
Cl25 Tl4 2.723197 1_555
Cl25 K18 3.177969 1_555
Cl25 K20 3.177969 1_555
Cl26 Tl5 2.622476 1_555
Cl26 K6 3.175184 1_454
Cl26 K7 3.175185 1_555
Cl26 K3 3.367335 1_555
Cl27 Tl6 2.622476 1_555
Cl27 K8 3.175184 1_544
Cl27 K5 3.175185 1_555
Cl27 K4 3.367335 1_555
Cl28 Tl3 2.622476 1_555
Cl28 K5 3.175172 1_455
Cl28 K7 3.175172 1_545
Cl28 K1 3.367335 1_555
Cl29 Tl4 2.622476 1_555
Cl29 K8 3.175184 1_555
Cl29 K6 3.175184 1_555
Cl29 K2 3.367335 1_555
Cl30 Tl5 2.622476 1_655
Cl30 K10 3.175184 1_655
Cl30 K11 3.175185 1_554
Cl30 K4 3.367335 1_555
Cl31 Tl6 2.622476 1_565
Cl31 K12 3.175184 1_565
Cl31 K9 3.175185 1_554
Cl31 K3 3.367335 1_555
Cl32 Tl3 2.622476 1_665
Cl32 K9 3.175172 1_655
Cl32 K11 3.175172 1_565
Cl32 K2 3.367335 1_555
Cl33 Tl4 2.622476 1_555
Cl33 K10 3.175184 1_555
Cl33 K12 3.175184 1_555
Cl33 K1 3.367335 1_555
Cl34 Tl5 2.600190 1_555
Cl34 K10 3.335364 1_555
Cl34 K7 3.335364 1_555
Cl34 K18 3.594254 1_555
Cl34 K15 3.594254 1_455
Cl35 Tl6 2.600190 1_566
Cl35 K8 3.335364 1_555
Cl35 K9 3.335364 1_555
Cl35 K17 3.594254 1_565
Cl35 K16 3.594254 1_555
Cl36 Tl3 2.600190 1_565
Cl36 K7 3.335355 1_555
Cl36 K9 3.335355 1_555
Cl36 K17 3.594254 1_565
Cl36 K15 3.594254 1_455
Cl37 Tl4 2.600190 1_555
Cl37 K8 3.335364 1_555
Cl37 K10 3.335364 1_555
Cl37 K18 3.594254 1_555
Cl37 K16 3.594254 1_555
Cl38 Tl4 2.600190 1_555
Cl38 K6 3.335364 1_555
Cl38 K12 3.335364 1_555
Cl38 K20 3.594254 1_555
Cl38 K14 3.594254 1_555
Cl39 Tl3 2.600190 1_655
Cl39 K5 3.335355 1_555
Cl39 K11 3.335355 1_555
Cl39 K19 3.594254 1_655
Cl39 K13 3.594254 1_545
Cl40 Tl6 2.600190 1_555
Cl40 K12 3.335364 1_555
Cl40 K5 3.335364 1_555
Cl40 K20 3.594254 1_555
Cl40 K13 3.594254 1_545
Cl41 Tl5 2.600190 1_656
Cl41 K6 3.335364 1_555
Cl41 K11 3.335364 1_555
Cl41 K19 3.594254 1_655
Cl41 K14 3.594254 1_555
O6 O9 1.469971 1_554
O6 O8 1.469971 1_555
O7 O9 1.469971 1_555
O7 O8 1.469971 1_556
O10 O13 1.469971 1_556
O10 O12 1.469971 1_555
O11 O12 1.469971 1_554
O11 O13 1.469971 1_555
