# generated using pymatgen
data_LiEr6B3O14
_symmetry_space_group_name_H-M   'P 1'
_cell_length_a   8.35087540
_cell_length_b   8.80311982
_cell_length_c   15.48419400
_cell_angle_alpha   90.00000000
_cell_angle_beta   90.00000000
_cell_angle_gamma   91.74673903
_symmetry_Int_Tables_number   1
_chemical_formula_structural   LiEr6B3O14
_chemical_formula_sum   'Li4 Er24 B12 O56'
_cell_volume   1137.77233376
_cell_formula_units_Z   4
loop_
 _symmetry_equiv_pos_site_id
 _symmetry_equiv_pos_as_xyz
  1  'x, y, z'
loop_
 _atom_site_type_symbol
 _atom_site_label
 _atom_site_symmetry_multiplicity
 _atom_site_fract_x
 _atom_site_fract_y
 _atom_site_fract_z
 _atom_site_occupancy
  Li  Li0  1  0.68051100  0.56049500  0.39609300  1
  Li  Li1  1  0.31948900  0.43950500  0.60390700  1
  Li  Li2  1  0.81948900  0.93950500  0.89609300  1
  Li  Li3  1  0.18051100  0.06049500  0.10390700  1
  Er  Er0  1  0.14256200  0.69275000  0.17780600  1
  Er  Er1  1  0.85743800  0.30725000  0.82219400  1
  Er  Er2  1  0.35743800  0.80725000  0.67780600  1
  Er  Er3  1  0.64256200  0.19275000  0.32219400  1
  Er  Er4  1  0.96023200  0.94443900  0.67397000  1
  Er  Er5  1  0.03976800  0.05556100  0.32603000  1
  Er  Er6  1  0.53976800  0.55556100  0.17397000  1
  Er  Er7  1  0.46023200  0.44443900  0.82603000  1
  Er  Er8  1  0.72701400  0.57529000  0.64393700  1
  Er  Er9  1  0.27298600  0.42471000  0.35606300  1
  Er  Er10  1  0.77298600  0.92471000  0.14393700  1
  Er  Er11  1  0.22701400  0.07529000  0.85606300  1
  Er  Er12  1  0.05197800  0.71759500  0.48680400  1
  Er  Er13  1  0.94802200  0.28240500  0.51319600  1
  Er  Er14  1  0.44802200  0.78240500  0.98680400  1
  Er  Er15  1  0.55197800  0.21759500  0.01319600  1
  Er  Er16  1  0.69966800  0.93877700  0.49609700  1
  Er  Er17  1  0.30033200  0.06122300  0.50390300  1
  Er  Er18  1  0.80033200  0.56122300  0.99609700  1
  Er  Er19  1  0.19966800  0.43877700  0.00390300  1
  Er  Er20  1  0.42187000  0.83435500  0.33411800  1
  Er  Er21  1  0.57813000  0.16564500  0.66588200  1
  Er  Er22  1  0.07813000  0.66564500  0.83411800  1
  Er  Er23  1  0.92187000  0.33435500  0.16588200  1
  B  B0  1  0.42884200  0.97270900  0.17300100  1
  B  B1  1  0.57115800  0.02729100  0.82699900  1
  B  B2  1  0.07115800  0.52729100  0.67300100  1
  B  B3  1  0.92884200  0.47270900  0.32699900  1
  B  B4  1  0.06410000  0.85470400  0.00054400  1
  B  B5  1  0.93590000  0.14529600  0.99945600  1
  B  B6  1  0.43590000  0.64529600  0.50054400  1
  B  B7  1  0.56410000  0.35470400  0.49945600  1
  B  B8  1  0.82029800  0.77851700  0.30699300  1
  B  B9  1  0.17970200  0.22148300  0.69300700  1
  B  B10  1  0.67970200  0.72148300  0.80699300  1
  B  B11  1  0.32029800  0.27851700  0.19300700  1
  O  O0  1  0.94049900  0.82274100  0.24832200  1
  O  O1  1  0.05950100  0.17725900  0.75167800  1
  O  O2  1  0.55950100  0.67725900  0.74832200  1
  O  O3  1  0.44049900  0.32274100  0.25167800  1
  O  O4  1  0.71100200  0.40680900  0.53357600  1
  O  O5  1  0.28899800  0.59319100  0.46642400  1
  O  O6  1  0.78899800  0.09319100  0.03357600  1
  O  O7  1  0.21100200  0.90680900  0.96642400  1
  O  O8  1  0.84395800  0.77894300  0.57934100  1
  O  O9  1  0.15604200  0.22105700  0.42065900  1
  O  O10  1  0.65604200  0.72105700  0.07934100  1
  O  O11  1  0.34395800  0.27894300  0.92065900  1
  O  O12  1  0.02804700  0.88174000  0.08611900  1
  O  O13  1  0.97195300  0.11826000  0.91388100  1
  O  O14  1  0.47195300  0.61826000  0.58611900  1
  O  O15  1  0.52804700  0.38174000  0.41388100  1
  O  O16  1  0.46619800  0.99099300  0.08689700  1
  O  O17  1  0.53380200  0.00900700  0.91310300  1
  O  O18  1  0.03380200  0.50900700  0.58689700  1
  O  O19  1  0.96619800  0.49099300  0.41310300  1
  O  O20  1  0.28174200  0.92282400  0.20490300  1
  O  O21  1  0.71825800  0.07717600  0.79509700  1
  O  O22  1  0.21825800  0.57717600  0.70490300  1
  O  O23  1  0.78174200  0.42282400  0.29509700  1
  O  O24  1  0.45641500  0.27752900  0.55179600  1
  O  O25  1  0.54358500  0.72247200  0.44820400  1
  O  O26  1  0.04358500  0.22247100  0.05179600  1
  O  O27  1  0.95641500  0.77752800  0.94820400  1
  O  O28  1  0.19254400  0.89463200  0.40177200  1
  O  O29  1  0.80745600  0.10536800  0.59822800  1
  O  O30  1  0.30745600  0.60536800  0.90177200  1
  O  O31  1  0.69254400  0.39463200  0.09822800  1
  O  O32  1  0.00880400  0.53588200  0.08962400  1
  O  O33  1  0.99119600  0.46411800  0.91037600  1
  O  O34  1  0.49119600  0.96411800  0.58962400  1
  O  O35  1  0.50880400  0.03588200  0.41037600  1
  O  O36  1  0.16237700  0.87582300  0.58545100  1
  O  O37  1  0.83762300  0.12417700  0.41454900  1
  O  O38  1  0.33762300  0.62417700  0.08545100  1
  O  O39  1  0.66237700  0.37582300  0.91454900  1
  O  O40  1  0.15404900  0.87763200  0.76835000  1
  O  O41  1  0.84595100  0.12236800  0.23165000  1
  O  O42  1  0.34595100  0.62236800  0.26835000  1
  O  O43  1  0.65404900  0.37763200  0.73165000  1
  O  O44  1  0.82650500  0.77216200  0.77462400  1
  O  O45  1  0.17349500  0.22783800  0.22537600  1
  O  O46  1  0.67349500  0.72783800  0.27462400  1
  O  O47  1  0.32650500  0.27216200  0.72537600  1
  O  O48  1  0.85162600  0.79951400  0.39399300  1
  O  O49  1  0.14837400  0.20048600  0.60600700  1
  O  O50  1  0.64837400  0.70048600  0.89399300  1
  O  O51  1  0.35162600  0.29951400  0.10600700  1
  O  O52  1  0.55055900  0.99683200  0.23284700  1
  O  O53  1  0.44944100  0.00316800  0.76715300  1
  O  O54  1  0.94944100  0.50316800  0.73284700  1
  O  O55  1  0.05055900  0.49683200  0.26715300  1
loop_
_geom_bond_atom_site_label_1
_geom_bond_atom_site_label_2
_geom_bond_distance
_geom_bond_site_symmetry_2
Li0 O15 2.012710 1_555
Li0 O25 2.022662 1_555
Li0 O23 2.165985 1_555
Li0 O46 2.390906 1_555
Li0 O19 2.494883 1_555
Li0 O48 2.507385 1_555
Li0 O4 2.539304 1_555
Li1 O14 2.012710 1_555
Li1 O24 2.022656 1_555
Li1 O22 2.165985 1_555
Li1 O47 2.390906 1_555
Li1 O18 2.494883 1_555
Li1 O49 2.507385 1_555
Li1 O5 2.539304 1_555
Li2 O13 2.012710 1_565
Li2 O27 2.022662 1_555
Li2 O21 2.165985 1_565
Li2 O44 2.390906 1_555
Li2 O17 2.494883 1_565
Li2 O50 2.507385 1_555
Li2 O6 2.539304 1_566
Li3 O12 2.012710 1_545
Li3 O26 2.022656 1_555
Li3 O20 2.165985 1_545
Li3 O45 2.390906 1_555
Li3 O16 2.494883 1_545
Li3 O51 2.507385 1_555
Li3 O7 2.539304 1_544
Er0 O32 2.219234 1_555
Er0 O38 2.263356 1_555
Er0 O42 2.301839 1_555
Er0 O55 2.323369 1_555
Er0 O0 2.338105 1_455
Er0 O20 2.342122 1_555
Er0 O12 2.407271 1_555
Er1 O33 2.219234 1_555
Er1 O39 2.263356 1_555
Er1 O43 2.301839 1_555
Er1 O54 2.323369 1_555
Er1 O1 2.338105 1_655
Er1 O21 2.342122 1_555
Er1 O13 2.407271 1_555
Er2 O34 2.219234 1_555
Er2 O36 2.263356 1_555
Er2 O40 2.301839 1_555
Er2 O53 2.323369 1_565
Er2 O2 2.338105 1_555
Er2 O22 2.342122 1_555
Er2 O14 2.407271 1_555
Er3 O35 2.219234 1_555
Er3 O37 2.263356 1_555
Er3 O41 2.301839 1_555
Er3 O52 2.323369 1_545
Er3 O3 2.338105 1_555
Er3 O23 2.342122 1_555
Er3 O15 2.407271 1_555
Er4 O29 2.262814 1_565
Er4 O8 2.264079 1_555
Er4 O36 2.270535 1_655
Er4 O40 2.271402 1_655
Er4 O44 2.423411 1_555
Er4 O1 2.496409 1_665
Er5 O28 2.262814 1_545
Er5 O9 2.264079 1_555
Er5 O37 2.270535 1_455
Er5 O41 2.271402 1_455
Er5 O45 2.423411 1_555
Er5 O0 2.496409 1_445
Er6 O31 2.262814 1_555
Er6 O10 2.264079 1_555
Er6 O38 2.270535 1_555
Er6 O42 2.271402 1_555
Er6 O46 2.423411 1_555
Er6 O3 2.496409 1_555
Er7 O30 2.262814 1_555
Er7 O11 2.264079 1_555
Er7 O39 2.270535 1_555
Er7 O43 2.271402 1_555
Er7 O47 2.423411 1_555
Er7 O2 2.496409 1_555
Er8 O8 2.249774 1_555
Er8 O4 2.264005 1_555
Er8 O43 2.275714 1_555
Er8 O2 2.334880 1_555
Er8 O14 2.351708 1_555
Er8 O54 2.412561 1_555
Er9 O9 2.249774 1_555
Er9 O5 2.264005 1_555
Er9 O42 2.275714 1_555
Er9 O3 2.334880 1_555
Er9 O15 2.351708 1_555
Er9 O55 2.412561 1_555
Er10 O10 2.249774 1_555
Er10 O6 2.264005 1_565
Er10 O41 2.275714 1_565
Er10 O0 2.334880 1_555
Er10 O12 2.351708 1_655
Er10 O52 2.412561 1_555
Er11 O11 2.249774 1_555
Er11 O7 2.264005 1_545
Er11 O40 2.275714 1_545
Er11 O1 2.334880 1_555
Er11 O13 2.351708 1_455
Er11 O53 2.412561 1_555
Er12 O36 2.246107 1_555
Er12 O5 2.312746 1_555
Er12 O8 2.328010 1_455
Er12 O28 2.329983 1_555
Er12 O48 2.336275 1_455
Er12 O19 2.389061 1_455
Er12 O18 2.404129 1_555
Er13 O37 2.246107 1_555
Er13 O4 2.312746 1_555
Er13 O9 2.328010 1_655
Er13 O29 2.329983 1_555
Er13 O49 2.336275 1_655
Er13 O18 2.389061 1_655
Er13 O19 2.404129 1_555
Er14 O38 2.246107 1_556
Er14 O7 2.312746 1_555
Er14 O10 2.328010 1_556
Er14 O30 2.329983 1_555
Er14 O50 2.336275 1_555
Er14 O17 2.389061 1_565
Er14 O16 2.404129 1_556
Er15 O39 2.246107 1_554
Er15 O6 2.312746 1_555
Er15 O11 2.328010 1_554
Er15 O31 2.329983 1_555
Er15 O51 2.336275 1_555
Er15 O16 2.389061 1_545
Er15 O17 2.404129 1_554
Er16 O35 2.261864 1_565
Er16 O8 2.279572 1_555
Er16 O34 2.280682 1_555
Er16 O29 2.319765 1_565
Er16 O37 2.338964 1_565
Er16 O48 2.389072 1_555
Er16 O25 2.392361 1_555
Er17 O34 2.261864 1_545
Er17 O9 2.279572 1_555
Er17 O35 2.280682 1_555
Er17 O28 2.319765 1_545
Er17 O36 2.338964 1_545
Er17 O49 2.389072 1_555
Er17 O24 2.392368 1_555
Er18 O33 2.261864 1_555
Er18 O10 2.279572 1_556
Er18 O32 2.280682 1_656
Er18 O31 2.319765 1_556
Er18 O39 2.338964 1_555
Er18 O50 2.389072 1_555
Er18 O27 2.392361 1_555
Er19 O32 2.261864 1_555
Er19 O11 2.279572 1_554
Er19 O33 2.280682 1_454
Er19 O30 2.319765 1_554
Er19 O38 2.338964 1_555
Er19 O51 2.389072 1_555
Er19 O26 2.392368 1_555
Er20 O42 2.202132 1_555
Er20 O35 2.233855 1_565
Er20 O28 2.260180 1_555
Er20 O25 2.277026 1_555
Er20 O52 2.359218 1_555
Er20 O20 2.456543 1_555
Er20 O46 2.502683 1_555
Er21 O43 2.202132 1_555
Er21 O34 2.233855 1_545
Er21 O29 2.260180 1_555
Er21 O24 2.277030 1_555
Er21 O53 2.359218 1_555
Er21 O21 2.456543 1_555
Er21 O47 2.502683 1_555
Er22 O40 2.202132 1_555
Er22 O33 2.233855 1_455
Er22 O30 2.260180 1_555
Er22 O27 2.277026 1_455
Er22 O54 2.359218 1_455
Er22 O22 2.456543 1_555
Er22 O44 2.502683 1_455
Er23 O41 2.202132 1_555
Er23 O32 2.233855 1_655
Er23 O31 2.260180 1_555
Er23 O26 2.277030 1_655
Er23 O55 2.359218 1_655
Er23 O23 2.456543 1_555
Er23 O45 2.502683 1_655
B0 O16 1.377578 1_555
B0 O20 1.383103 1_555
B0 O52 1.387013 1_555
B1 O17 1.377578 1_555
B1 O21 1.383103 1_555
B1 O53 1.387013 1_555
B2 O18 1.377578 1_555
B2 O22 1.383103 1_555
B2 O54 1.387013 1_455
B3 O19 1.377578 1_555
B3 O23 1.383103 1_555
B3 O55 1.387013 1_655
B4 O27 1.374706 1_454
B4 O12 1.381102 1_555
B4 O7 1.400055 1_554
B5 O26 1.374702 1_656
B5 O13 1.381102 1_555
B5 O6 1.400055 1_556
B6 O25 1.374706 1_555
B6 O14 1.381102 1_555
B6 O5 1.400055 1_555
B7 O24 1.374702 1_555
B7 O15 1.381102 1_555
B7 O4 1.400055 1_555
B8 O48 1.383621 1_555
B8 O46 1.385574 1_555
B8 O0 1.400230 1_555
B9 O49 1.383621 1_555
B9 O47 1.385574 1_555
B9 O1 1.400230 1_555
B10 O50 1.383621 1_555
B10 O44 1.385574 1_555
B10 O2 1.400230 1_555
B11 O51 1.383621 1_555
B11 O45 1.385574 1_555
B11 O3 1.400230 1_555
