# generated using pymatgen
data_LiZnP
_symmetry_space_group_name_H-M   'P 1'
_cell_length_a   4.03052612
_cell_length_b   4.03052617
_cell_length_c   4.03052470
_cell_angle_alpha   60.00000382
_cell_angle_beta   60.00000343
_cell_angle_gamma   59.99999315
_symmetry_Int_Tables_number   1
_chemical_formula_structural   LiZnP
_chemical_formula_sum   'Li1 Zn1 P1'
_cell_volume   46.29883628
_cell_formula_units_Z   1
loop_
 _symmetry_equiv_pos_site_id
 _symmetry_equiv_pos_as_xyz
  1  'x, y, z'
loop_
 _atom_site_type_symbol
 _atom_site_label
 _atom_site_symmetry_multiplicity
 _atom_site_fract_x
 _atom_site_fract_y
 _atom_site_fract_z
 _atom_site_occupancy
  Li  Li0  1  0.75000000  0.75000000  0.75000000  1
  Zn  Zn0  1  0.25000000  0.25000000  0.25000000  1
  P  P0  1  0.00000000  0.00000000  -0.00000000  1
loop_
_geom_bond_atom_site_label_1
_geom_bond_atom_site_label_2
_geom_bond_distance
_geom_bond_site_symmetry_2
Li0 P0 2.468182 1_665
Li0 P0 2.468183 1_666
Li0 P0 2.468183 1_566
Li0 P0 2.468183 1_656
Li0 Zn0 2.850012 1_565
Li0 Zn0 2.850012 1_656
Li0 Zn0 2.850012 1_566
Li0 Zn0 2.850012 1_655
Li0 Zn0 2.850013 1_665
Li0 Zn0 2.850013 1_556
P0 Zn0 2.468182 1_554
P0 Zn0 2.468183 1_555
P0 Zn0 2.468183 1_455
P0 Zn0 2.468183 1_545
