# generated using pymatgen
data_Sr3TaCoO7
_symmetry_space_group_name_H-M   'P 1'
_cell_length_a   5.60025659
_cell_length_b   11.00177128
_cell_length_c   5.59952191
_cell_angle_alpha   104.74116576
_cell_angle_beta   90.05225718
_cell_angle_gamma   89.98950412
_symmetry_Int_Tables_number   1
_chemical_formula_structural   Sr3TaCoO7
_chemical_formula_sum   'Sr6 Ta2 Co2 O14'
_cell_volume   333.64608607
_cell_formula_units_Z   2
loop_
 _symmetry_equiv_pos_site_id
 _symmetry_equiv_pos_as_xyz
  1  'x, y, z'
loop_
 _atom_site_type_symbol
 _atom_site_label
 _atom_site_symmetry_multiplicity
 _atom_site_fract_x
 _atom_site_fract_y
 _atom_site_fract_z
 _atom_site_occupancy
  Sr  Sr0  1  0.49983200  0.96263400  0.98134100  1
  Sr  Sr1  1  0.99979800  0.96229400  0.48101800  1
  Sr  Sr2  1  0.99999500  0.38261300  0.69128300  1
  Sr  Sr3  1  0.50006000  0.38741300  0.19373000  1
  Sr  Sr4  1  0.50008500  0.63750500  0.81912900  1
  Sr  Sr5  1  0.00056100  0.63733200  0.31870900  1
  Ta  Ta0  1  0.49998400  0.19376400  0.59684200  1
  Ta  Ta1  1  0.99998700  0.19458700  0.09727300  1
  Co  Co0  1  0.00009000  0.78610400  0.89301000  1
  Co  Co1  1  0.50059200  0.79575400  0.39846100  1
  O  O0  1  0.99988300  0.60059300  0.80012600  1
  O  O1  1  0.49977200  0.60972900  0.30454900  1
  O  O2  1  0.50004500  0.38817300  0.69417600  1
  O  O3  1  0.00009500  0.38987400  0.19505300  1
  O  O4  1  0.50027300  0.01196600  0.50629600  1
  O  O5  1  0.99998500  0.01551100  0.00786400  1
  O  O6  1  0.76423900  0.80826900  0.66871400  1
  O  O7  1  0.23527300  0.80818900  0.13937700  1
  O  O8  1  0.73535000  0.80668500  0.16742700  1
  O  O9  1  0.26403500  0.80674800  0.63894400  1
  O  O10  1  0.74945000  0.20365000  0.85170900  1
  O  O11  1  0.25074100  0.20356500  0.35168300  1
  O  O12  1  0.74949900  0.20353300  0.35167300  1
  O  O13  1  0.25037600  0.20351700  0.85161300  1
loop_
_geom_bond_atom_site_label_1
_geom_bond_atom_site_label_2
_geom_bond_distance
_geom_bond_site_symmetry_2
Co0 O7 1.876991 1_556
Co0 O6 1.879940 1_455
Co0 O0 1.973773 1_455
Co0 O9 2.104486 1_555
Co0 O8 2.106544 1_456
Co0 O5 2.440810 1_466
Co1 O8 1.870523 1_555
Co1 O9 1.871706 1_555
Co1 O1 1.979253 1_555
Co1 O6 2.092603 1_555
Co1 O7 2.104315 1_555
Co1 O4 2.300421 1_565
O0 Sr2 2.319231 1_555
O0 Sr5 2.825726 1_655
O0 Sr4 2.826439 1_555
O0 Sr5 2.828112 1_656
O0 Sr4 2.828635 1_655
O1 Sr3 2.365366 1_555
O1 Sr5 2.811110 1_555
O1 Sr4 2.811454 1_554
O1 Sr4 2.819176 1_555
O1 Sr5 2.819866 1_655
O2 Ta0 2.068444 1_555
O2 Sr4 2.652806 1_555
O2 Sr3 2.799403 1_556
O2 Sr3 2.800143 1_555
O2 Sr2 2.800477 1_555
O2 Sr2 2.801030 1_455
O3 Ta1 2.077786 1_455
O3 Sr5 2.632868 1_555
O3 Sr2 2.800044 1_455
O3 Sr3 2.800057 1_555
O3 Sr3 2.800445 1_455
O3 Sr2 2.801609 1_454
O4 Ta0 1.934269 1_555
O4 Sr0 2.846932 1_545
O4 Sr1 2.846981 1_545
O4 Sr0 2.850141 1_544
O4 Sr1 2.852152 1_445
O5 Ta1 1.905306 1_555
O5 Sr1 2.855122 1_545
O5 Sr0 2.855275 1_644
O5 Sr0 2.856898 1_544
O5 Sr1 2.857761 1_544
O6 Sr1 2.574116 1_555
O6 Sr0 2.575289 1_555
O6 Sr4 2.689963 1_555
O6 Sr5 2.693962 1_655
O7 Sr1 2.574173 1_455
O7 Sr0 2.575641 1_554
O7 Sr4 2.689128 1_554
O7 Sr5 2.689504 1_555
O8 Sr1 2.583385 1_555
O8 Sr0 2.583709 1_554
O8 Sr4 2.674475 1_554
O8 Sr5 2.682333 1_655
O9 Sr1 2.582072 1_455
O9 Sr0 2.585309 1_555
O9 Sr5 2.676179 1_555
O9 Sr4 2.680516 1_555
O10 Ta0 1.979338 1_555
O10 Ta1 1.983807 1_556
O10 Sr2 2.748765 1_555
O10 Sr3 2.781941 1_556
O11 Ta0 1.978949 1_555
O11 Ta1 1.983931 1_455
O11 Sr2 2.750605 1_455
O11 Sr3 2.781477 1_555
O12 Ta0 1.981776 1_555
O12 Ta1 1.984697 1_555
O12 Sr2 2.748707 1_555
O12 Sr3 2.780888 1_555
O13 Ta0 1.981517 1_555
O13 Ta1 1.985069 1_456
O13 Sr2 2.747988 1_455
O13 Sr3 2.782464 1_556
