# generated using pymatgen
data_Sr6Mg(Te4O11)2
_symmetry_space_group_name_H-M   'P 1'
_cell_length_a   7.63523787
_cell_length_b   9.83787425
_cell_length_c   10.05687551
_cell_angle_alpha   101.32571552
_cell_angle_beta   107.22615048
_cell_angle_gamma   101.73909503
_symmetry_Int_Tables_number   1
_chemical_formula_structural   Sr6Mg(Te4O11)2
_chemical_formula_sum   'Sr6 Mg1 Te8 O22'
_cell_volume   679.31786062
_cell_formula_units_Z   1
loop_
 _symmetry_equiv_pos_site_id
 _symmetry_equiv_pos_as_xyz
  1  'x, y, z'
loop_
 _atom_site_type_symbol
 _atom_site_label
 _atom_site_symmetry_multiplicity
 _atom_site_fract_x
 _atom_site_fract_y
 _atom_site_fract_z
 _atom_site_occupancy
  Sr  Sr0  1  0.30080594  0.04303015  0.27120067  1
  Sr  Sr1  1  0.76009416  0.96006272  0.88494857  1
  Sr  Sr2  1  0.84833309  0.08591361  0.33220000  1
  Sr  Sr3  1  0.10252990  0.88266643  0.63672879  1
  Sr  Sr4  1  0.31220586  0.53755402  0.63049048  1
  Sr  Sr5  1  0.66180622  0.43836364  0.39039118  1
  Mg  Mg0  1  0.34650330  0.03895626  0.97022723  1
  Te  Te0  1  0.07064634  0.37085801  0.20042907  1
  Te  Te1  1  0.85883921  0.61328209  0.75848910  1
  Te  Te2  1  0.05684059  0.22835131  0.76786111  1
  Te  Te3  1  0.89819589  0.74288331  0.19814089  1
  Te  Te4  1  0.39241178  0.74815048  0.01147810  1
  Te  Te5  1  0.57596399  0.30674258  0.96501671  1
  Te  Te6  1  0.46084522  0.76445829  0.43590445  1
  Te  Te7  1  0.57262052  0.17238799  0.61622768  1
  O  O0  1  0.98544121  0.55717581  0.62947649  1
  O  O1  1  0.94566146  0.44767037  0.31878454  1
  O  O2  1  0.39323537  0.55863225  0.38167857  1
  O  O3  1  0.61612349  0.48660330  0.63789908  1
  O  O4  1  0.84228718  0.22473122  0.06095952  1
  O  O5  1  0.20536316  0.82858794  0.88931302  1
  O  O6  1  0.76808505  0.07158556  0.67364270  1
  O  O7  1  0.26683687  0.79595104  0.28511818  1
  O  O8  1  0.35232891  0.77959744  0.58196916  1
  O  O9  1  0.62644138  0.19753133  0.43766245  1
  O  O10  1  0.08537707  0.15094802  0.59220097  1
  O  O11  1  0.94473602  0.85977932  0.38419312  1
  O  O12  1  0.47916824  0.25182207  0.10822522  1
  O  O13  1  0.51939068  0.73106029  0.87651842  1
  O  O14  1  0.50782738  0.95246338  0.12291197  1
  O  O15  1  0.49427693  0.10810777  0.84931706  1
  O  O16  1  0.93911971  0.90972036  0.12694267  1
  O  O17  1  0.10400892  0.08467354  0.86608354  1
  O  O18  1  0.15448695  0.24243735  0.30647547  1
  O  O19  1  0.80939104  0.77521170  0.69600542  1
  O  O20  1  0.62707790  0.68598888  0.15767040  1
  O  O21  1  0.33969308  0.35177421  0.84999701  1
loop_
_geom_bond_atom_site_label_1
_geom_bond_atom_site_label_2
_geom_bond_distance
_geom_bond_site_symmetry_2
Mg0 O5 2.004559 1_545
Mg0 O15 2.009883 1_555
Mg0 O17 2.025492 1_555
Mg0 O14 2.102030 1_546
Mg0 O12 2.121380 1_556
O0 Te1 1.897662 1_555
O0 Sr4 2.538444 1_655
O0 Sr5 2.730457 1_555
O0 Sr3 3.124582 1_655
O1 Te0 1.873874 1_655
O1 Sr5 2.468553 1_555
O2 Te6 1.907423 1_555
O2 Sr5 2.556197 1_555
O2 Te0 2.639800 1_555
O2 Sr4 2.784896 1_555
O3 Te1 1.895700 1_555
O3 Sr4 2.454995 1_555
O3 Sr5 2.580773 1_555
O4 Te0 1.952856 1_655
O4 Te5 2.351191 1_554
O4 Sr1 2.678370 1_544
O5 Te4 1.994441 1_556
O5 Sr3 2.621384 1_555
O6 Te7 1.964914 1_555
O6 Te2 2.223115 1_655
O6 Sr1 2.586256 1_545
O7 Te6 1.905427 1_555
O7 Sr0 2.427740 1_565
O7 Te3 2.593159 1_455
O8 Te6 1.884584 1_555
O8 Sr3 2.481705 1_555
O8 Sr4 2.500028 1_555
O9 Te7 2.006284 1_555
O9 Sr5 2.484050 1_555
O9 Sr0 2.508407 1_555
O9 Sr2 2.562196 1_555
O10 Te2 1.874913 1_555
O10 Sr2 2.567280 1_455
O10 Sr3 2.784572 1_545
O11 Te3 1.882703 1_555
O11 Sr3 2.409379 1_655
O11 Sr2 2.580630 1_565
O12 Te5 1.919893 1_554
O12 Sr5 2.816824 1_555
O13 Te4 1.888518 1_556
O13 Sr1 2.570652 1_555
O13 Sr4 2.618164 1_555
O14 Te4 1.970323 1_555
O14 Sr0 2.638888 1_565
O14 Sr2 2.682837 1_565
O15 Te5 1.934613 1_555
O15 Sr1 2.710329 1_545
O15 Sr3 3.176009 1_545
O16 Te3 1.920860 1_555
O16 Sr1 2.610590 1_554
O16 Sr0 2.618583 1_665
O16 Sr2 2.770778 1_565
O17 Te2 1.910040 1_555
O17 Sr3 2.728541 1_545
O17 Sr1 2.740545 1_445
O18 Te0 1.896652 1_555
O18 Sr0 2.464866 1_555
O18 Sr2 2.636712 1_455
O19 Te1 1.890134 1_555
O19 Sr1 2.530678 1_555
O19 Sr3 2.560740 1_655
O20 Te3 1.924601 1_555
O20 Te4 2.232629 1_555
O21 Te5 2.019702 1_555
O21 Te2 2.074402 1_555
O21 Sr4 3.118352 1_555
