# generated using pymatgen
data_Tb2InCu2
_symmetry_space_group_name_H-M   'P 1'
_cell_length_a   7.46898899
_cell_length_b   7.46898899
_cell_length_c   3.77371780
_cell_angle_alpha   90.00000000
_cell_angle_beta   90.00000000
_cell_angle_gamma   89.99995627
_symmetry_Int_Tables_number   1
_chemical_formula_structural   Tb2InCu2
_chemical_formula_sum   'Tb4 In2 Cu4'
_cell_volume   210.51985336
_cell_formula_units_Z   2
loop_
 _symmetry_equiv_pos_site_id
 _symmetry_equiv_pos_as_xyz
  1  'x, y, z'
loop_
 _atom_site_type_symbol
 _atom_site_label
 _atom_site_symmetry_multiplicity
 _atom_site_fract_x
 _atom_site_fract_y
 _atom_site_fract_z
 _atom_site_occupancy
  Tb  Tb0  1  0.67283182  0.17283182  0.50000000  1
  Tb  Tb1  1  0.32716818  0.82716818  0.50000000  1
  Tb  Tb2  1  0.17282628  0.32717372  0.50000000  1
  Tb  Tb3  1  0.82717372  0.67282628  0.50000000  1
  In  In0  1  0.50000000  0.50000000  0.00000000  1
  In  In1  1  -0.00000000  0.00000000  0.00000000  1
  Cu  Cu0  1  0.11991294  0.61991294  -0.00000000  1
  Cu  Cu1  1  0.88008706  0.38008706  -0.00000000  1
  Cu  Cu2  1  0.61996959  0.88003041  0.00000000  1
  Cu  Cu3  1  0.38003041  0.11996959  0.00000000  1
loop_
_geom_bond_atom_site_label_1
_geom_bond_atom_site_label_2
_geom_bond_distance
_geom_bond_site_symmetry_2
In0 Tb1 3.346320 1_555
In0 Tb0 3.346320 1_555
In0 Tb0 3.346320 1_554
In0 Tb1 3.346320 1_554
In0 Tb3 3.346336 1_555
In0 Tb3 3.346336 1_554
In0 Tb2 3.346336 1_555
In0 Tb2 3.346336 1_554
In1 Tb1 3.346320 1_545
In1 Tb1 3.346320 1_544
In1 Tb0 3.346320 1_454
In1 Tb0 3.346320 1_455
In1 Tb3 3.346336 1_444
In1 Tb3 3.346336 1_445
In1 Tb2 3.346336 1_555
In1 Tb2 3.346336 1_554
Cu0 Cu1 2.533221 1_455
Cu0 Tb1 2.890116 1_555
Cu0 Tb1 2.890116 1_554
Cu0 Tb2 2.914972 1_555
Cu0 Tb2 2.914972 1_554
Cu0 Tb3 2.914972 1_455
Cu0 Tb3 2.914972 1_454
Cu0 In1 2.976795 1_565
Cu0 In0 2.976795 1_555
Cu1 Tb0 2.890116 1_555
Cu1 Tb0 2.890116 1_554
Cu1 Tb2 2.914972 1_654
Cu1 Tb2 2.914972 1_655
Cu1 Tb3 2.914972 1_554
Cu1 Tb3 2.914972 1_555
Cu1 In1 2.976795 1_655
Cu1 In0 2.976795 1_555
Cu2 Cu3 2.534416 1_565
Cu2 Tb3 2.889705 1_555
Cu2 Tb3 2.889705 1_554
Cu2 Tb1 2.915269 1_555
Cu2 Tb1 2.915269 1_554
Cu2 Tb0 2.915269 1_564
Cu2 Tb0 2.915269 1_565
Cu2 In1 2.976520 1_665
Cu2 In0 2.976520 1_555
Cu3 Tb2 2.889705 1_555
Cu3 Tb2 2.889705 1_554
Cu3 Tb1 2.915269 1_544
Cu3 Tb1 2.915269 1_545
Cu3 Tb0 2.915269 1_555
Cu3 Tb0 2.915269 1_554
Cu3 In0 2.976520 1_555
Cu3 In1 2.976520 1_555
