# generated using pymatgen
data_YTm3(SnPd2)4
_symmetry_space_group_name_H-M   'P 1'
_cell_length_a   15.78993038
_cell_length_b   15.78993038
_cell_length_c   15.78993068
_cell_angle_alpha   17.47844704
_cell_angle_beta   17.47844704
_cell_angle_gamma   17.47844448
_symmetry_Int_Tables_number   1
_chemical_formula_structural   YTm3(SnPd2)4
_chemical_formula_sum   'Y1 Tm3 Sn4 Pd8'
_cell_volume   309.93619684
_cell_formula_units_Z   1
loop_
 _symmetry_equiv_pos_site_id
 _symmetry_equiv_pos_as_xyz
  1  'x, y, z'
loop_
 _atom_site_type_symbol
 _atom_site_label
 _atom_site_symmetry_multiplicity
 _atom_site_fract_x
 _atom_site_fract_y
 _atom_site_fract_z
 _atom_site_occupancy
  Y  Y0  1  0.50000000  0.50000000  0.50000000  1
  Tm  Tm0  1  0.74999300  0.74999300  0.74999300  1
  Tm  Tm1  1  0.00000000  0.00000000  0.00000000  1
  Tm  Tm2  1  0.25000700  0.25000700  0.25000700  1
  Sn  Sn0  1  0.62500300  0.62500300  0.62500300  1
  Sn  Sn1  1  0.37499700  0.37499700  0.37499700  1
  Sn  Sn2  1  0.87510700  0.87510700  0.87510700  1
  Sn  Sn3  1  0.12489300  0.12489300  0.12489300  1
  Pd  Pd0  1  0.93751700  0.93751700  0.93751700  1
  Pd  Pd1  1  0.68747500  0.68747500  0.68747500  1
  Pd  Pd2  1  0.18799100  0.18799100  0.18799100  1
  Pd  Pd3  1  0.43696700  0.43696700  0.43696700  1
  Pd  Pd4  1  0.56303300  0.56303300  0.56303300  1
  Pd  Pd5  1  0.31252500  0.31252500  0.31252500  1
  Pd  Pd6  1  0.81200900  0.81200900  0.81200900  1
  Pd  Pd7  1  0.06248300  0.06248300  0.06248300  1
loop_
_geom_bond_atom_site_label_1
_geom_bond_atom_site_label_2
_geom_bond_distance
_geom_bond_site_symmetry_2
Pd0 Sn2 2.910495 1_555
Pd0 Tm1 2.913899 1_666
Pd0 Sn0 2.935438 1_655
Pd0 Sn0 2.935438 1_565
Pd0 Sn0 2.935438 1_556
Pd0 Tm2 2.935808 1_566
Pd0 Tm2 2.935808 1_656
Pd0 Tm2 2.935809 1_665
Pd1 Sn0 2.913386 1_555
Pd1 Tm0 2.915531 1_555
Pd1 Tm1 2.935268 1_656
Pd1 Tm1 2.935268 1_566
Pd1 Tm1 2.935269 1_665
Pd1 Sn1 2.935994 1_655
Pd1 Sn1 2.935994 1_565
Pd1 Sn1 2.935994 1_556
Pd2 Tm2 2.892121 1_555
Pd2 Sn2 2.929776 1_544
Pd2 Sn2 2.929776 1_454
Pd2 Sn2 2.929776 1_445
Pd2 Sn3 2.942580 1_555
Pd2 Y0 2.943311 1_455
Pd2 Y0 2.943311 1_545
Pd2 Y0 2.943312 1_554
Pd3 Sn1 2.889975 1_555
Pd3 Tm0 2.927627 1_545
Pd3 Tm0 2.927627 1_455
Pd3 Tm0 2.927627 1_554
Pd3 Y0 2.939549 1_555
Pd3 Sn3 2.942288 1_565
Pd3 Sn3 2.942288 1_655
Pd3 Sn3 2.942289 1_556
Pd4 Sn0 2.889975 1_555
Pd4 Tm2 2.927627 1_655
Pd4 Tm2 2.927627 1_565
Pd4 Tm2 2.927627 1_556
Pd4 Y0 2.939549 1_555
Pd4 Sn2 2.942288 1_455
Pd4 Sn2 2.942288 1_545
Pd4 Sn2 2.942289 1_554
Pd5 Sn1 2.913386 1_555
Pd5 Tm2 2.915531 1_555
Pd5 Tm1 2.935268 1_565
Pd5 Tm1 2.935268 1_655
Pd5 Tm1 2.935269 1_556
Pd5 Sn0 2.935994 1_545
Pd5 Sn0 2.935994 1_455
Pd5 Sn0 2.935994 1_554
Pd6 Tm0 2.892121 1_555
Pd6 Sn3 2.929776 1_656
Pd6 Sn3 2.929776 1_566
Pd6 Sn3 2.929776 1_665
Pd6 Sn2 2.942580 1_555
Pd6 Y0 2.943311 1_655
Pd6 Y0 2.943311 1_565
Pd6 Y0 2.943312 1_556
Pd7 Sn3 2.910495 1_555
Pd7 Tm1 2.913899 1_555
Pd7 Sn1 2.935438 1_455
Pd7 Sn1 2.935438 1_545
Pd7 Sn1 2.935438 1_554
Pd7 Tm0 2.935808 1_544
Pd7 Tm0 2.935808 1_454
Pd7 Tm0 2.935809 1_445
