# generated using pymatgen
data_EuAl3(BO3)4
_symmetry_space_group_name_H-M   'P 1'
_cell_length_a   5.96691806
_cell_length_b   5.96691806
_cell_length_c   11.28548110
_cell_angle_alpha   81.50343243
_cell_angle_beta   81.50343243
_cell_angle_gamma   104.10647599
_symmetry_Int_Tables_number   1
_chemical_formula_structural   EuAl3(BO3)4
_chemical_formula_sum   'Eu2 Al6 B8 O24'
_cell_volume   378.27694118
_cell_formula_units_Z   2
loop_
 _symmetry_equiv_pos_site_id
 _symmetry_equiv_pos_as_xyz
  1  'x, y, z'
loop_
 _atom_site_type_symbol
 _atom_site_label
 _atom_site_symmetry_multiplicity
 _atom_site_fract_x
 _atom_site_fract_y
 _atom_site_fract_z
 _atom_site_occupancy
  Eu  Eu0  1  0.96359200  0.03640800  0.75000000  1
  Eu  Eu1  1  0.03640800  0.96359200  0.25000000  1
  Al  Al0  1  0.69492900  0.19444300  0.02834100  1
  Al  Al1  1  0.30507100  0.80555700  0.97165900  1
  Al  Al2  1  0.80555700  0.30507100  0.47165900  1
  Al  Al3  1  0.19444300  0.69492900  0.52834100  1
  Al  Al4  1  0.41167500  0.58832500  0.75000000  1
  Al  Al5  1  0.58832500  0.41167500  0.25000000  1
  B  B0  1  0.49298700  0.12123800  0.72215500  1
  B  B1  1  0.50701300  0.87876200  0.27784500  1
  B  B2  1  0.87876200  0.50701300  0.77784500  1
  B  B3  1  0.12123800  0.49298700  0.22215500  1
  B  B4  1  0.71983500  0.77741100  0.50535500  1
  B  B5  1  0.28016500  0.22258900  0.49464500  1
  B  B6  1  0.22258900  0.28016500  0.99464500  1
  B  B7  1  0.77741100  0.71983500  0.00535500  1
  O  O0  1  0.19464800  0.99671200  0.56123300  1
  O  O1  1  0.80535200  0.00328800  0.43876700  1
  O  O2  1  0.00328800  0.80535200  0.93876700  1
  O  O3  1  0.99671200  0.19464800  0.06123300  1
  O  O4  1  0.42301300  0.89609900  0.79506100  1
  O  O5  1  0.57698700  0.10390100  0.20493900  1
  O  O6  1  0.10390100  0.57698700  0.70493900  1
  O  O7  1  0.89609900  0.42301300  0.29506100  1
  O  O8  1  0.69655700  0.18111900  0.63682200  1
  O  O9  1  0.30344300  0.81888100  0.36317800  1
  O  O10  1  0.81888100  0.30344300  0.86317800  1
  O  O11  1  0.18111900  0.69655700  0.13682200  1
  O  O12  1  0.63058100  0.86927800  0.99722900  1
  O  O13  1  0.36941900  0.13072200  0.00277100  1
  O  O14  1  0.13072200  0.36941900  0.50277100  1
  O  O15  1  0.86927800  0.63058100  0.49722900  1
  O  O16  1  0.35604500  0.27096400  0.74146600  1
  O  O17  1  0.64395500  0.72903600  0.25853400  1
  O  O18  1  0.72903600  0.64395500  0.75853400  1
  O  O19  1  0.27096400  0.35604500  0.24146600  1
  O  O20  1  0.49305400  0.69745000  0.57400100  1
  O  O21  1  0.50694600  0.30255000  0.42599900  1
  O  O22  1  0.30255000  0.50694600  0.92599900  1
  O  O23  1  0.69745000  0.49305400  0.07400100  1
loop_
_geom_bond_atom_site_label_1
_geom_bond_atom_site_label_2
_geom_bond_distance
_geom_bond_site_symmetry_2
Eu0 O18 2.397447 1_545
Eu0 O16 2.397447 1_655
Eu0 O10 2.421157 1_555
Eu0 O8 2.421157 1_555
Eu0 O2 2.436303 1_645
Eu0 O0 2.436303 1_645
Eu1 O17 2.397447 1_455
Eu1 O19 2.397447 1_565
Eu1 O9 2.421157 1_555
Eu1 O11 2.421157 1_555
Eu1 O1 2.436303 1_465
Eu1 O3 2.436303 1_465
Al0 O10 1.855864 1_554
Al0 O3 1.891282 1_555
Al0 O23 1.923814 1_555
Al0 O13 1.959184 1_555
Al0 O5 1.959898 1_555
Al0 O12 1.978186 1_544
Al1 O11 1.855864 1_556
Al1 O2 1.891282 1_555
Al1 O22 1.923814 1_555
Al1 O12 1.959184 1_555
Al1 O4 1.959898 1_555
Al1 O13 1.978186 1_566
Al2 O8 1.855864 1_555
Al2 O1 1.891282 1_555
Al2 O21 1.923814 1_555
Al2 O15 1.959184 1_555
Al2 O7 1.959898 1_555
Al2 O14 1.978186 1_655
Al3 O9 1.855864 1_555
Al3 O0 1.891282 1_555
Al3 O20 1.923814 1_555
Al3 O14 1.959184 1_555
Al3 O6 1.959898 1_555
Al3 O15 1.978186 1_455
Al4 O16 1.860745 1_555
Al4 O18 1.860745 1_555
Al4 O22 1.945146 1_555
Al4 O20 1.945146 1_555
Al4 O6 1.965032 1_555
Al4 O4 1.965032 1_555
Al5 O19 1.860745 1_555
Al5 O17 1.860745 1_555
Al5 O21 1.945146 1_555
Al5 O23 1.945146 1_555
Al5 O7 1.965032 1_555
Al5 O5 1.965032 1_555
B0 O8 1.368077 1_555
B0 O16 1.368982 1_555
B0 O4 1.398012 1_545
B1 O9 1.368077 1_555
B1 O17 1.368982 1_555
B1 O5 1.398012 1_565
B2 O10 1.368077 1_555
B2 O18 1.368982 1_555
B2 O6 1.398012 1_655
B3 O11 1.368077 1_555
B3 O19 1.368982 1_555
B3 O7 1.398012 1_455
B4 O1 1.376151 1_565
B4 O20 1.387516 1_555
B4 O15 1.396980 1_555
B5 O0 1.376151 1_545
B5 O21 1.387516 1_555
B5 O14 1.396980 1_555
B6 O3 1.376151 1_456
B6 O22 1.387516 1_555
B6 O13 1.396980 1_556
B7 O2 1.376151 1_654
B7 O23 1.387516 1_555
B7 O12 1.396980 1_554
