# generated using pymatgen
data_Si4SnH35(C6N)2
_symmetry_space_group_name_H-M   'P 1'
_cell_length_a   12.74603000
_cell_length_b   12.82342107
_cell_length_c   18.48698810
_cell_angle_alpha   85.22618269
_cell_angle_beta   76.58065307
_cell_angle_gamma   63.39429993
_symmetry_Int_Tables_number   1
_chemical_formula_structural   Si4SnH35(C6N)2
_chemical_formula_sum   'Si16 Sn4 H140 C48 N8'
_cell_volume   2627.18365425
_cell_formula_units_Z   4
loop_
 _symmetry_equiv_pos_site_id
 _symmetry_equiv_pos_as_xyz
  1  'x, y, z'
loop_
 _atom_site_type_symbol
 _atom_site_label
 _atom_site_symmetry_multiplicity
 _atom_site_fract_x
 _atom_site_fract_y
 _atom_site_fract_z
 _atom_site_occupancy
  Si  Si0  1  0.74690800  0.59485000  0.61144500  1
  Si  Si1  1  0.25309200  0.40515000  0.38855500  1
  Si  Si2  1  0.56731700  0.50674600  0.70000100  1
  Si  Si3  1  0.43268300  0.49325400  0.29999900  1
  Si  Si4  1  0.20335800  0.95339400  0.60026600  1
  Si  Si5  1  0.79664200  0.04660600  0.39973400  1
  Si  Si6  1  0.03469000  0.91421000  0.73572800  1
  Si  Si7  1  0.96531000  0.08579000  0.26427200  1
  Si  Si8  1  0.64702600  0.68164200  0.89378700  1
  Si  Si9  1  0.35297400  0.31835800  0.10621300  1
  Si  Si10  1  0.37045900  0.81274400  0.92299200  1
  Si  Si11  1  0.62954100  0.18725600  0.07700800  1
  Si  Si12  1  0.18767600  0.20946800  0.78929600  1
  Si  Si13  1  0.81232400  0.79053200  0.21070400  1
  Si  Si14  1  0.46070600  0.05811000  0.73660800  1
  Si  Si15  1  0.53929400  0.94189000  0.26339200  1
  Sn  Sn0  1  0.52367100  0.76860300  0.74520500  1
  Sn  Sn1  1  0.47632900  0.23139700  0.25479500  1
  Sn  Sn2  1  0.28089800  0.92418100  0.76186800  1
  Sn  Sn3  1  0.71910200  0.07581900  0.23813200  1
  H  H0  1  0.65173900  0.77947400  0.54135900  1
  H  H1  1  0.34826100  0.22052600  0.45864100  1
  H  H2  1  0.77461200  0.66693700  0.48325500  1
  H  H3  1  0.22538800  0.33306300  0.51674500  1
  H  H4  1  0.63303900  0.66338500  0.50923000  1
  H  H5  1  0.36696100  0.33661500  0.49077000  1
  H  H6  1  0.90470900  0.57448700  0.67841600  1
  H  H7  1  0.09529100  0.42551300  0.32158400  1
  H  H8  1  0.92472000  0.63346300  0.58873700  1
  H  H9  1  0.07528000  0.36653700  0.41126300  1
  H  H10  1  0.81484100  0.72457700  0.66336700  1
  H  H11  1  0.18515900  0.27542300  0.33663300  1
  H  H12  1  0.78815500  0.40523100  0.55099000  1
  H  H13  1  0.21184500  0.59476900  0.44901000  1
  H  H14  1  0.91114600  0.43983100  0.52898700  1
  H  H15  1  0.08885400  0.56016900  0.47101300  1
  H  H16  1  0.88009000  0.37899200  0.61613200  1
  H  H17  1  0.11991000  0.62100800  0.38386800  1
  H  H18  1  0.35650800  0.62860100  0.77234100  1
  H  H19  1  0.64349200  0.37139900  0.22765900  1
  H  H20  1  0.41020900  0.47864300  0.79317400  1
  H  H21  1  0.58979100  0.52135700  0.20682600  1
  H  H22  1  0.45859200  0.56656600  0.83290400  1
  H  H23  1  0.54140800  0.43343400  0.16709600  1
  H  H24  1  0.58046400  0.47384600  0.56476800  1
  H  H25  1  0.41953600  0.52615400  0.43523200  1
  H  H26  1  0.48408900  0.42316800  0.62504800  1
  H  H27  1  0.51591100  0.57683200  0.37495200  1
  H  H28  1  0.43304100  0.57486900  0.60887700  1
  H  H29  1  0.56695900  0.42513100  0.39112300  1
  H  H30  1  0.72337800  0.35585500  0.76363100  1
  H  H31  1  0.27662200  0.64414500  0.23636900  1
  H  H32  1  0.62905500  0.30333900  0.73817900  1
  H  H33  1  0.37094500  0.69666100  0.26182100  1
  H  H34  1  0.74834400  0.31139000  0.67005500  1
  H  H35  1  0.25165600  0.68861000  0.32994500  1
  H  H36  1  0.42634500  0.88505800  0.58571400  1
  H  H37  1  0.57365500  0.11494200  0.41428600  1
  H  H38  1  0.36743900  0.98272500  0.51581400  1
  H  H39  1  0.63256100  0.01727500  0.48418600  1
  H  H40  1  0.34456900  0.03815200  0.60596800  1
  H  H41  1  0.65543100  0.96184800  0.39403200  1
  H  H42  1  0.07950000  0.16666300  0.58245300  1
  H  H43  1  0.92050000  0.83333700  0.41754700  1
  H  H44  1  0.12982300  0.08240000  0.49903200  1
  H  H45  1  0.87017700  0.91760000  0.50096800  1
  H  H46  1  0.00439500  0.08560600  0.56652300  1
  H  H47  1  0.99560500  0.91439400  0.43347700  1
  H  H48  1  0.15030300  0.80117900  0.56205100  1
  H  H49  1  0.84969700  0.19882100  0.43794900  1
  H  H50  1  0.24628800  0.83506700  0.48863200  1
  H  H51  1  0.75371200  0.16493300  0.51136800  1
  H  H52  1  0.30641600  0.74215700  0.56033500  1
  H  H53  1  0.69358400  0.25784300  0.43966500  1
  H  H54  1  0.91181100  0.08986500  0.82057600  1
  H  H55  1  0.08818900  0.91013500  0.17942400  1
  H  H56  1  0.86219200  0.97949600  0.84206800  1
  H  H57  1  0.13780800  0.02050400  0.15793200  1
  H  H58  1  0.98999100  0.96624300  0.87220000  1
  H  H59  1  0.01000900  0.03375700  0.12780000  1
  H  H60  1  0.96159000  0.91599900  0.61821900  1
  H  H61  1  0.03841000  0.08400100  0.38178100  1
  H  H62  1  0.85198200  0.93694500  0.70135800  1
  H  H63  1  0.14801800  0.06305500  0.29864200  1
  H  H64  1  0.88288000  0.05481400  0.66480100  1
  H  H65  1  0.11712000  0.94518600  0.33519900  1
  H  H66  1  0.14829000  0.71639900  0.78689300  1
  H  H67  1  0.85171000  0.28360100  0.21310700  1
  H  H68  1  0.00433700  0.73846300  0.77771300  1
  H  H69  1  0.99566300  0.26153700  0.22228700  1
  H  H70  1  0.12417500  0.70359400  0.69791600  1
  H  H71  1  0.87582500  0.29640600  0.30208400  1
  H  H72  1  0.68238900  0.85940400  0.89224700  1
  H  H73  1  0.31761100  0.14059600  0.10775300  1
  H  H74  1  0.81481800  0.72891600  0.89588300  1
  H  H75  1  0.18518200  0.27108400  0.10411700  1
  H  H76  1  0.76906300  0.77239500  0.81019900  1
  H  H77  1  0.23093700  0.22760500  0.18980100  1
  H  H78  1  0.57332100  0.61507900  0.02025900  1
  H  H79  1  0.42667900  0.38492100  0.97974100  1
  H  H80  1  0.71662600  0.61051500  0.00848200  1
  H  H81  1  0.28337400  0.38948500  0.99151800  1
  H  H82  1  0.58651400  0.74525600  0.03000600  1
  H  H83  1  0.41348600  0.25474400  0.96999400  1
  H  H84  1  0.78174800  0.52955000  0.79296000  1
  H  H85  1  0.21825200  0.47045000  0.20704000  1
  H  H86  1  0.82501900  0.48971300  0.88008300  1
  H  H87  1  0.17498100  0.51028700  0.11991700  1
  H  H88  1  0.70026700  0.47505800  0.86412700  1
  H  H89  1  0.29973300  0.52494200  0.13587300  1
  H  H90  1  0.39110700  0.68846300  0.03678200  1
  H  H91  1  0.60889300  0.31153700  0.96321800  1
  H  H92  1  0.24441900  0.74736000  0.02010800  1
  H  H93  1  0.75558100  0.25264000  0.97989200  1
  H  H94  1  0.36186700  0.62450600  0.96668900  1
  H  H95  1  0.63813300  0.37549400  0.03331100  1
  H  H96  1  0.36600400  0.00646600  0.94158200  1
  H  H97  1  0.63399600  0.99353400  0.05841800  1
  H  H98  1  0.26832400  0.97559600  0.01641200  1
  H  H99  1  0.73167600  0.02440400  0.98358800  1
  H  H100  1  0.42546600  0.90781300  0.01141900  1
  H  H101  1  0.57453400  0.09218700  0.98858100  1
  H  H102  1  0.21073800  0.80365800  0.87128800  1
  H  H103  1  0.78926200  0.19634200  0.12871200  1
  H  H104  1  0.16256900  0.94485800  0.91045300  1
  H  H105  1  0.83743100  0.05514200  0.08954700  1
  H  H106  1  0.04481100  0.20222400  0.71819400  1
  H  H107  1  0.95518900  0.79777600  0.28180600  1
  H  H108  1  0.01170400  0.34793400  0.73999600  1
  H  H109  1  0.98829600  0.65206600  0.26000400  1
  H  H110  1  0.13402000  0.26858000  0.66591200  1
  H  H111  1  0.86598000  0.73142000  0.33408800  1
  H  H112  1  0.15077100  0.15259900  0.92318600  1
  H  H113  1  0.84922900  0.84740100  0.07681400  1
  H  H114  1  0.04029200  0.29296500  0.90702800  1
  H  H115  1  0.95970800  0.70703500  0.09297200  1
  H  H116  1  0.03160000  0.16705300  0.88224800  1
  H  H117  1  0.96840000  0.83294700  0.11775200  1
  H  H118  1  0.18739800  0.40248400  0.75845900  1
  H  H119  1  0.81260200  0.59751600  0.24154100  1
  H  H120  1  0.18903500  0.37209500  0.85336500  1
  H  H121  1  0.81096500  0.62790500  0.14663500  1
  H  H122  1  0.32377900  0.31174100  0.78513400  1
  H  H123  1  0.67622100  0.68825900  0.21486600  1
  H  H124  1  0.43226000  0.24842300  0.67412100  1
  H  H125  1  0.56774000  0.75157700  0.32587900  1
  H  H126  1  0.57734500  0.13469600  0.63975800  1
  H  H127  1  0.42265500  0.86530400  0.36024200  1
  H  H128  1  0.45125900  0.14425800  0.60895500  1
  H  H129  1  0.54874100  0.85574200  0.39104500  1
  H  H130  1  0.50507600  0.04027500  0.86394800  1
  H  H131  1  0.49492400  0.95972500  0.13605200  1
  H  H132  1  0.60047400  0.08579500  0.79733000  1
  H  H133  1  0.39952600  0.91420500  0.20267000  1
  H  H134  1  0.45095500  0.18749700  0.83604800  1
  H  H135  1  0.54904500  0.81250300  0.16395200  1
  H  H136  1  0.59869900  0.89666400  0.64408000  1
  H  H137  1  0.40130100  0.10333600  0.35592000  1
  H  H138  1  0.66239600  0.89041900  0.72166800  1
  H  H139  1  0.33760400  0.10958100  0.27833200  1
  C  C0  1  0.23798300  0.87273900  0.87541000  1
  C  C1  1  0.76201700  0.12726100  0.12459000  1
  C  C2  1  0.57957300  0.90423900  0.70502300  1
  C  C3  1  0.42042700  0.09576100  0.29497700  1
  C  C4  1  0.69579400  0.68510300  0.52927000  1
  C  C5  1  0.30420600  0.31489700  0.47073000  1
  C  C6  1  0.85697500  0.63621400  0.63892300  1
  C  C7  1  0.14302500  0.36378600  0.36107700  1
  C  C8  1  0.83803300  0.43981700  0.57454600  1
  C  C9  1  0.16196700  0.56018300  0.42545400  1
  C  C10  1  0.43599500  0.55073200  0.78233000  1
  C  C11  1  0.56400500  0.44926800  0.21767000  1
  C  C12  1  0.51153100  0.49412100  0.61671000  1
  C  C13  1  0.48846900  0.50587900  0.38329000  1
  C  C14  1  0.67883900  0.35566300  0.71943100  1
  C  C15  1  0.32116100  0.64433700  0.28056900  1
  C  C16  1  0.34928800  0.96552600  0.57571200  1
  C  C17  1  0.65071200  0.03447400  0.42428800  1
  C  C18  1  0.09270100  0.08453400  0.55930300  1
  C  C19  1  0.90729900  0.91546600  0.44069700  1
  C  C20  1  0.22833500  0.82024600  0.54886000  1
  C  C21  1  0.77166500  0.17975400  0.45114000  1
  C  C22  1  0.94264800  0.99529700  0.82632000  1
  C  C23  1  0.05735200  0.00470300  0.17368000  1
  C  C24  1  0.92441700  0.96036000  0.67295500  1
  C  C25  1  0.07558300  0.03964000  0.32704500  1
  C  C26  1  0.08296100  0.75337000  0.75097500  1
  C  C27  1  0.91703900  0.24663000  0.24902500  1
  C  C28  1  0.73586100  0.76933600  0.87040900  1
  C  C29  1  0.26413900  0.23066400  0.12959100  1
  C  C30  1  0.62581600  0.66315100  0.99791800  1
  C  C31  1  0.37418400  0.33684900  0.00208200  1
  C  C32  1  0.74755800  0.53014700  0.85327100  1
  C  C33  1  0.25244200  0.46985300  0.14672900  1
  C  C34  1  0.34058100  0.70755900  0.99284900  1
  C  C35  1  0.65941900  0.29244100  0.00715100  1
  C  C36  1  0.35686900  0.93735200  0.97785800  1
  C  C37  1  0.64313100  0.06264800  0.02214200  1
  C  C38  1  0.08505400  0.26096600  0.72191000  1
  C  C39  1  0.91494600  0.73903400  0.27809000  1
  C  C40  1  0.09448800  0.20326600  0.88401900  1
  C  C41  1  0.90551200  0.79673400  0.11598100  1
  C  C42  1  0.22791300  0.33362400  0.79683500  1
  C  C43  1  0.77208700  0.66637600  0.20316500  1
  C  C44  1  0.48128500  0.15564100  0.65759600  1
  C  C45  1  0.51871500  0.84435900  0.34240400  1
  C  C46  1  0.50744600  0.09681800  0.81625600  1
  C  C47  1  0.49255400  0.90318200  0.18374400  1
  N  N0  1  0.62675400  0.60930300  0.68655500  1
  N  N1  1  0.37324600  0.39069700  0.31344500  1
  N  N2  1  0.15783100  0.94510300  0.69746800  1
  N  N3  1  0.84216900  0.05489700  0.30253200  1
  N  N4  1  0.51238500  0.74698600  0.86142400  1
  N  N5  1  0.48761500  0.25301400  0.13857600  1
  N  N6  1  0.31215300  0.07371300  0.76114400  1
  N  N7  1  0.68784700  0.92628700  0.23885600  1
loop_
_geom_bond_atom_site_label_1
_geom_bond_atom_site_label_2
_geom_bond_distance
_geom_bond_site_symmetry_2
C0 H102 1.100090 1_555
C0 H104 1.101537 1_555
C0 Si10 1.905269 1_555
C0 Sn2 2.167987 1_555
C1 H103 1.100090 1_555
C1 H105 1.101537 1_555
C1 Si11 1.905269 1_555
C1 Sn3 2.167987 1_555
C2 H136 1.098969 1_555
C2 H138 1.102113 1_555
C2 Si14 1.906103 1_565
C2 Sn0 2.175789 1_555
C3 H137 1.098969 1_555
C3 H139 1.102113 1_555
C3 Si15 1.906103 1_545
C3 Sn1 2.175789 1_555
C4 H0 1.099024 1_555
C4 H4 1.099486 1_555
C4 H2 1.101760 1_555
C4 Si0 1.887635 1_555
C5 H1 1.099024 1_555
C5 H5 1.099486 1_555
C5 H3 1.101760 1_555
C5 Si1 1.887635 1_555
C6 H10 1.097316 1_555
C6 H6 1.099277 1_555
C6 H8 1.101795 1_555
C6 Si0 1.884076 1_555
C7 H11 1.097316 1_555
C7 H7 1.099277 1_555
C7 H9 1.101795 1_555
C7 Si1 1.884076 1_555
C8 H12 1.097141 1_555
C8 H16 1.097160 1_555
C8 H14 1.101652 1_555
C8 Si0 1.885858 1_555
C9 H13 1.097141 1_555
C9 H17 1.097160 1_555
C9 H15 1.101652 1_555
C9 Si1 1.885858 1_555
C10 H22 1.098775 1_555
C10 H18 1.098934 1_555
C10 H20 1.101585 1_555
C10 Si2 1.884455 1_555
C11 H23 1.098775 1_555
C11 H19 1.098934 1_555
C11 H21 1.101585 1_555
C11 Si3 1.884455 1_555
C12 H24 1.098634 1_555
C12 H28 1.099295 1_555
C12 H26 1.100288 1_555
C12 Si2 1.885624 1_555
C13 H25 1.098634 1_555
C13 H29 1.099295 1_555
C13 H27 1.100288 1_555
C13 Si3 1.885624 1_555
C14 H34 1.095810 1_555
C14 H30 1.098578 1_555
C14 H32 1.101612 1_555
C14 Si2 1.886152 1_555
C15 H35 1.095810 1_555
C15 H31 1.098578 1_555
C15 H33 1.101612 1_555
C15 Si3 1.886152 1_555
C16 H40 1.097607 1_565
C16 H36 1.099266 1_555
C16 H38 1.102043 1_555
C16 Si4 1.882950 1_555
C17 H41 1.097607 1_545
C17 H37 1.099266 1_555
C17 H39 1.102043 1_555
C17 Si5 1.882950 1_555
C18 H46 1.096168 1_555
C18 H42 1.097052 1_555
C18 H44 1.102228 1_555
C18 Si4 1.884174 1_545
C19 H47 1.096168 1_555
C19 H43 1.097052 1_555
C19 H45 1.102228 1_555
C19 Si5 1.884174 1_565
C20 H48 1.097175 1_555
C20 H52 1.099186 1_555
C20 H50 1.101677 1_555
C20 Si4 1.887469 1_555
C21 H49 1.097175 1_555
C21 H53 1.099186 1_555
C21 H51 1.101677 1_555
C21 Si5 1.887469 1_555
C22 H58 1.098158 1_555
C22 H54 1.098808 1_565
C22 H56 1.102350 1_555
C22 Si6 1.883522 1_655
C23 H59 1.098158 1_555
C23 H55 1.098808 1_545
C23 H57 1.102350 1_555
C23 Si7 1.883522 1_455
C24 H64 1.096523 1_565
C24 H60 1.097224 1_555
C24 H62 1.102417 1_555
C24 Si6 1.889506 1_655
C25 H65 1.096523 1_545
C25 H61 1.097224 1_555
C25 H63 1.102417 1_555
C25 Si7 1.889506 1_455
C26 H66 1.099860 1_555
C26 H70 1.100117 1_555
C26 H68 1.100503 1_555
C26 Si6 1.886553 1_555
C27 H67 1.099860 1_555
C27 H71 1.100117 1_555
C27 H69 1.100503 1_555
C27 Si7 1.886553 1_555
C28 H72 1.098319 1_555
C28 H76 1.099357 1_555
C28 H74 1.102446 1_555
C28 Si8 1.888365 1_555
C29 H73 1.098319 1_555
C29 H77 1.099357 1_555
C29 H75 1.102446 1_555
C29 Si9 1.888365 1_555
C30 H78 1.094115 1_556
C30 H82 1.097718 1_556
C30 H80 1.103027 1_556
C30 Si8 1.890788 1_555
C31 H79 1.094115 1_554
C31 H83 1.097718 1_554
C31 H81 1.103027 1_554
C31 Si9 1.890788 1_555
C32 H88 1.097410 1_555
C32 H84 1.098194 1_555
C32 H86 1.102352 1_555
C32 Si8 1.882559 1_555
C33 H89 1.097410 1_555
C33 H85 1.098194 1_555
C33 H87 1.102352 1_555
C33 Si9 1.882559 1_555
C34 H90 1.096713 1_556
C34 H94 1.098993 1_555
C34 H92 1.101155 1_556
C34 Si10 1.890525 1_555
C35 H91 1.096713 1_554
C35 H95 1.098993 1_555
C35 H93 1.101155 1_554
C35 Si11 1.890525 1_555
C36 H96 1.098204 1_565
C36 H100 1.099512 1_556
C36 H98 1.100595 1_556
C36 Si10 1.884784 1_555
C37 H97 1.098204 1_545
C37 H101 1.099512 1_554
C37 H99 1.100595 1_554
C37 Si11 1.884784 1_555
C38 H106 1.098315 1_555
C38 H110 1.099379 1_555
C38 H108 1.101217 1_555
C38 Si12 1.882727 1_555
C39 H107 1.098315 1_555
C39 H111 1.099379 1_555
C39 H109 1.101217 1_555
C39 Si13 1.882727 1_555
C40 H112 1.098356 1_555
C40 H116 1.098795 1_555
C40 H114 1.102065 1_555
C40 Si12 1.891996 1_555
C41 H113 1.098356 1_555
C41 H117 1.098795 1_555
C41 H115 1.102065 1_555
C41 Si13 1.891996 1_555
C42 H122 1.094943 1_555
C42 H118 1.098669 1_555
C42 H120 1.098899 1_555
C42 Si12 1.902294 1_555
C43 H123 1.094943 1_555
C43 H119 1.098669 1_555
C43 H121 1.098899 1_555
C43 Si13 1.902294 1_555
C44 H124 1.097886 1_555
C44 H128 1.099092 1_555
C44 H126 1.101265 1_555
C44 Si14 1.891708 1_555
C45 H125 1.097886 1_555
C45 H129 1.099092 1_555
C45 H127 1.101265 1_555
C45 Si15 1.891708 1_555
C46 H134 1.096843 1_555
C46 H130 1.097661 1_555
C46 H132 1.101779 1_555
C46 Si14 1.887616 1_555
C47 H135 1.096843 1_555
C47 H131 1.097661 1_555
C47 H133 1.101779 1_555
C47 Si15 1.887616 1_555
N0 Si0 1.763362 1_555
N0 Si2 1.765186 1_555
N0 Sn0 2.092426 1_555
N1 Si1 1.763362 1_555
N1 Si3 1.765186 1_555
N1 Sn1 2.092426 1_555
N2 Si6 1.765149 1_555
N2 Si4 1.765392 1_555
N2 Sn2 2.094440 1_555
N3 Si7 1.765149 1_555
N3 Si5 1.765392 1_555
N3 Sn3 2.094440 1_555
N4 Si8 1.763612 1_555
N4 Si10 1.765438 1_555
N4 Sn0 2.122943 1_555
N5 Si9 1.763612 1_555
N5 Si11 1.765438 1_555
N5 Sn1 2.122943 1_555
N6 Si14 1.762981 1_555
N6 Si12 1.764166 1_555
N6 Sn2 2.124430 1_545
N7 Si15 1.762981 1_555
N7 Si13 1.764166 1_555
N7 Sn3 2.124430 1_565
