# generated using pymatgen
data_YCo5Si3
_symmetry_space_group_name_H-M   'P 1'
_cell_length_a   3.68925300
_cell_length_b   14.69475960
_cell_length_c   14.69475960
_cell_angle_alpha   119.99999820
_cell_angle_beta   90.00000000
_cell_angle_gamma   90.00000000
_symmetry_Int_Tables_number   1
_chemical_formula_structural   YCo5Si3
_chemical_formula_sum   'Y6 Co30 Si18'
_cell_volume   689.91255748
_cell_formula_units_Z   6
loop_
 _symmetry_equiv_pos_site_id
 _symmetry_equiv_pos_as_xyz
  1  'x, y, z'
loop_
 _atom_site_type_symbol
 _atom_site_label
 _atom_site_symmetry_multiplicity
 _atom_site_fract_x
 _atom_site_fract_y
 _atom_site_fract_z
 _atom_site_occupancy
  Y  Y0  1  0.75000000  0.70680700  0.09986700  1
  Y  Y1  1  0.25000000  0.29319300  0.90013300  1
  Y  Y2  1  0.75000000  0.39306100  0.29319300  1
  Y  Y3  1  0.25000000  0.60693900  0.70680700  1
  Y  Y4  1  0.75000000  0.90013300  0.60693900  1
  Y  Y5  1  0.25000000  0.09986700  0.39306100  1
  Co  Co0  1  0.75000000  0.58708200  0.85247300  1
  Co  Co1  1  0.25000000  0.41291800  0.14752700  1
  Co  Co2  1  0.75000000  0.26539100  0.41291800  1
  Co  Co3  1  0.25000000  0.73460900  0.58708200  1
  Co  Co4  1  0.75000000  0.14752700  0.73460900  1
  Co  Co5  1  0.25000000  0.85247300  0.26539100  1
  Co  Co6  1  0.75000000  0.45940600  0.53347700  1
  Co  Co7  1  0.25000000  0.54059400  0.46652300  1
  Co  Co8  1  0.75000000  0.07407100  0.54059400  1
  Co  Co9  1  0.25000000  0.92592900  0.45940600  1
  Co  Co10  1  0.75000000  0.46652300  0.92592900  1
  Co  Co11  1  0.25000000  0.53347700  0.07407100  1
  Co  Co12  1  0.75000000  0.90300100  0.02910400  1
  Co  Co13  1  0.25000000  0.09699900  0.97089600  1
  Co  Co14  1  0.75000000  0.12610300  0.09699900  1
  Co  Co15  1  0.25000000  0.87389700  0.90300100  1
  Co  Co16  1  0.75000000  0.97089600  0.87389700  1
  Co  Co17  1  0.25000000  0.02910400  0.12610300  1
  Co  Co18  1  0.75000000  0.77398600  0.34667800  1
  Co  Co19  1  0.25000000  0.22601400  0.65332200  1
  Co  Co20  1  0.75000000  0.57269200  0.22601400  1
  Co  Co21  1  0.25000000  0.42730800  0.77398600  1
  Co  Co22  1  0.75000000  0.65332200  0.42730800  1
  Co  Co23  1  0.25000000  0.34667800  0.57269200  1
  Co  Co24  1  0.75000000  0.95188900  0.21840000  1
  Co  Co25  1  0.25000000  0.04811100  0.78160000  1
  Co  Co26  1  0.75000000  0.26651100  0.04811100  1
  Co  Co27  1  0.25000000  0.73348900  0.95188900  1
  Co  Co28  1  0.75000000  0.78160000  0.73348900  1
  Co  Co29  1  0.25000000  0.21840000  0.26651100  1
  Si  Si0  1  0.75000000  0.44295500  0.68153300  1
  Si  Si1  1  0.25000000  0.55704500  0.31846700  1
  Si  Si2  1  0.75000000  0.23857800  0.55704500  1
  Si  Si3  1  0.25000000  0.76142200  0.44295500  1
  Si  Si4  1  0.75000000  0.31846700  0.76142200  1
  Si  Si5  1  0.25000000  0.68153300  0.23857800  1
  Si  Si6  1  0.75000000  0.75354200  0.87151000  1
  Si  Si7  1  0.25000000  0.24645800  0.12849000  1
  Si  Si8  1  0.75000000  0.11796900  0.24645800  1
  Si  Si9  1  0.25000000  0.88203100  0.75354200  1
  Si  Si10  1  0.75000000  0.12849000  0.88203100  1
  Si  Si11  1  0.25000000  0.87151000  0.11796900  1
  Si  Si12  1  0.75000000  0.93708200  0.36898200  1
  Si  Si13  1  0.25000000  0.06291800  0.63101800  1
  Si  Si14  1  0.75000000  0.43190000  0.06291800  1
  Si  Si15  1  0.25000000  0.56810000  0.93708200  1
  Si  Si16  1  0.75000000  0.63101800  0.56810000  1
  Si  Si17  1  0.25000000  0.36898200  0.43190000  1
loop_
_geom_bond_atom_site_label_1
_geom_bond_atom_site_label_2
_geom_bond_distance
_geom_bond_site_symmetry_2
Co0 Si15 2.317989 1_555
Co0 Si15 2.317989 1_655
Co0 Si6 2.318908 1_555
Co0 Si0 2.339930 1_555
Co0 Co10 2.493179 1_555
Co0 Co27 2.649992 1_555
Co0 Co27 2.649992 1_655
Co0 Co21 2.745421 1_555
Co0 Co21 2.745421 1_655
Co0 Y3 2.948599 1_655
Co0 Y3 2.948599 1_555
Co0 Y0 3.148886 1_556
Co1 Si14 2.317989 1_455
Co1 Si14 2.317989 1_555
Co1 Si7 2.318908 1_555
Co1 Si1 2.339930 1_555
Co1 Co11 2.493179 1_555
Co1 Co26 2.649992 1_555
Co1 Co26 2.649992 1_455
Co1 Co20 2.745421 1_555
Co1 Co20 2.745421 1_455
Co1 Y2 2.948599 1_455
Co1 Y2 2.948599 1_555
Co1 Y1 3.148886 1_554
Co2 Si17 2.317989 1_555
Co2 Si17 2.317989 1_655
Co2 Si8 2.318902 1_555
Co2 Si2 2.339930 1_555
Co2 Co6 2.493179 1_555
Co2 Co29 2.649992 1_655
Co2 Co29 2.649992 1_555
Co2 Co23 2.745421 1_655
Co2 Co23 2.745421 1_555
Co2 Y5 2.948611 1_655
Co2 Y5 2.948611 1_555
Co2 Y2 3.148899 1_555
Co3 Si16 2.317989 1_455
Co3 Si16 2.317989 1_555
Co3 Si9 2.318902 1_555
Co3 Si3 2.339930 1_555
Co3 Co7 2.493179 1_555
Co3 Y4 2.948611 1_455
Co3 Y4 2.948611 1_555
Co3 Y3 3.148899 1_555
Co4 Si13 2.317989 1_555
Co4 Si13 2.317989 1_655
Co4 Si10 2.318893 1_555
Co4 Si4 2.339930 1_555
Co4 Co8 2.493179 1_555
Co4 Y1 2.948606 1_555
Co4 Y1 2.948606 1_655
Co4 Y4 3.148886 1_545
Co5 Si12 2.317989 1_455
Co5 Si12 2.317989 1_555
Co5 Si11 2.318893 1_555
Co5 Si5 2.339930 1_555
Co5 Co9 2.493179 1_555
Co5 Y0 2.948606 1_455
Co5 Y0 2.948606 1_555
Co5 Y5 3.148886 1_565
Co6 Si0 2.306042 1_555
Co6 Si16 2.309823 1_555
Co6 Si17 2.326559 1_555
Co6 Si17 2.326559 1_655
Co6 Co7 2.639657 1_555
Co6 Co7 2.639657 1_655
Co6 Y3 3.011352 1_555
Co6 Y3 3.011352 1_655
Co6 Y2 3.158396 1_555
Co7 Si1 2.306042 1_555
Co7 Si17 2.309823 1_555
Co7 Si16 2.326559 1_455
Co7 Si16 2.326559 1_555
Co7 Y2 3.011352 1_455
Co7 Y2 3.011352 1_555
Co7 Y3 3.158396 1_555
Co8 Si2 2.306042 1_555
Co8 Si12 2.309823 1_545
Co8 Si13 2.326559 1_655
Co8 Si13 2.326559 1_555
Co8 Co9 2.639657 1_545
Co8 Co9 2.639657 1_645
Co8 Y5 3.011345 1_655
Co8 Y5 3.011345 1_555
Co8 Y4 3.158382 1_545
Co9 Si3 2.306042 1_555
Co9 Si13 2.309823 1_565
Co9 Si12 2.326559 1_455
Co9 Si12 2.326559 1_555
Co9 Y4 3.011345 1_555
Co9 Y4 3.011345 1_455
Co9 Y5 3.158382 1_565
Co10 Si4 2.306042 1_555
Co10 Si14 2.309823 1_556
Co10 Si15 2.326559 1_555
Co10 Si15 2.326559 1_655
Co10 Co11 2.639657 1_656
Co10 Co11 2.639657 1_556
Co10 Co21 2.726411 1_555
Co10 Co21 2.726411 1_655
Co10 Y1 3.011356 1_555
Co10 Y1 3.011356 1_655
Co10 Y0 3.158393 1_556
Co11 Si5 2.306042 1_555
Co11 Si15 2.309823 1_554
Co11 Si14 2.326559 1_455
Co11 Si14 2.326559 1_555
Co11 Co20 2.726411 1_555
Co11 Co20 2.726411 1_455
Co11 Y0 3.011356 1_555
Co11 Y0 3.011356 1_455
Co11 Y1 3.158393 1_554
Co12 Si6 2.258409 1_554
Co12 Si11 2.434403 1_655
Co12 Si11 2.434403 1_555
Co12 Co15 2.495366 1_554
Co12 Co15 2.495366 1_654
Co12 Co17 2.495366 1_665
Co12 Co17 2.495366 1_565
Co12 Co24 2.501077 1_555
Co12 Co27 2.840512 1_654
Co12 Co27 2.840512 1_554
Co13 Si7 2.258409 1_556
Co13 Si10 2.434403 1_555
Co13 Si10 2.434403 1_455
Co13 Co14 2.495366 1_456
Co13 Co14 2.495366 1_556
Co13 Co16 2.495366 1_545
Co13 Co16 2.495366 1_445
Co13 Co25 2.501077 1_555
Co13 Co26 2.840512 1_556
Co13 Co26 2.840512 1_456
Co14 Si8 2.258401 1_555
Co14 Si7 2.434393 1_555
Co14 Si7 2.434393 1_655
Co14 Co17 2.495366 1_555
Co14 Co17 2.495366 1_655
Co14 Co26 2.501077 1_555
Co14 Co29 2.840512 1_655
Co14 Co29 2.840512 1_555
Co15 Si9 2.258401 1_555
Co15 Si6 2.434393 1_555
Co15 Si6 2.434393 1_455
Co15 Co16 2.495366 1_455
Co15 Co16 2.495366 1_555
Co15 Co27 2.501077 1_555
Co15 Co28 2.840512 1_455
Co15 Co28 2.840512 1_555
Co16 Si10 2.258416 1_565
Co16 Si9 2.434396 1_655
Co16 Si9 2.434396 1_555
Co16 Co28 2.501077 1_555
Co16 Co25 2.840512 1_565
Co16 Co25 2.840512 1_665
Co17 Si11 2.258416 1_545
Co17 Si8 2.434396 1_555
Co17 Si8 2.434396 1_455
Co17 Co29 2.501077 1_555
Co17 Co24 2.840512 1_545
Co17 Co24 2.840512 1_445
Co18 Si12 2.250750 1_555
Co18 Si5 2.369307 1_555
Co18 Si5 2.369307 1_655
Co18 Si3 2.387363 1_655
Co18 Si3 2.387363 1_555
Co18 Co9 2.726411 1_555
Co18 Co9 2.726411 1_655
Co18 Co5 2.745421 1_655
Co18 Co5 2.745421 1_555
Co19 Si13 2.250750 1_555
Co19 Si4 2.369307 1_555
Co19 Si4 2.369307 1_455
Co19 Si2 2.387363 1_455
Co19 Si2 2.387363 1_555
Co19 Co8 2.726411 1_455
Co19 Co8 2.726411 1_555
Co19 Co4 2.745421 1_455
Co19 Co4 2.745421 1_555
Co20 Si14 2.250750 1_555
Co20 Si1 2.369307 1_555
Co20 Si1 2.369307 1_655
Co20 Si5 2.387363 1_655
Co20 Si5 2.387363 1_555
Co21 Si15 2.250750 1_555
Co21 Si0 2.369307 1_455
Co21 Si0 2.369307 1_555
Co21 Si4 2.387363 1_555
Co21 Si4 2.387363 1_455
Co22 Si16 2.250750 1_555
Co22 Si3 2.369307 1_555
Co22 Si3 2.369307 1_655
Co22 Si1 2.387363 1_555
Co22 Si1 2.387363 1_655
Co22 Co7 2.726411 1_555
Co22 Co7 2.726411 1_655
Co22 Co3 2.745421 1_555
Co22 Co3 2.745421 1_655
Co23 Si17 2.250750 1_555
Co23 Si2 2.369307 1_555
Co23 Si2 2.369307 1_455
Co23 Si0 2.387363 1_455
Co23 Si0 2.387363 1_555
Co23 Co6 2.726411 1_455
Co23 Co6 2.726411 1_555
Co24 Si8 2.262704 1_565
Co24 Si11 2.287493 1_655
Co24 Si11 2.287493 1_555
Co24 Si12 2.329194 1_555
Co24 Co5 2.649992 1_655
Co24 Co5 2.649992 1_555
Co24 Y5 3.022824 1_565
Co24 Y5 3.022824 1_665
Co24 Y0 3.119478 1_555
Co25 Si9 2.262704 1_545
Co25 Si10 2.287493 1_555
Co25 Si10 2.287493 1_455
Co25 Si13 2.329194 1_555
Co25 Co4 2.649992 1_455
Co25 Co4 2.649992 1_555
Co25 Y4 3.022824 1_445
Co25 Y4 3.022824 1_545
Co25 Y1 3.119478 1_555
Co26 Si10 2.262699 1_554
Co26 Si7 2.287499 1_555
Co26 Si7 2.287499 1_655
Co26 Si14 2.329194 1_555
Co26 Y1 3.022817 1_554
Co26 Y1 3.022817 1_654
Co26 Y2 3.119479 1_555
Co27 Si11 2.262699 1_556
Co27 Si6 2.287499 1_455
Co27 Si6 2.287499 1_555
Co27 Si15 2.329194 1_555
Co27 Y0 3.022817 1_456
Co27 Y0 3.022817 1_556
Co27 Y3 3.119479 1_555
Co28 Si6 2.262690 1_555
Co28 Si9 2.287490 1_655
Co28 Si9 2.287490 1_555
Co28 Si16 2.329194 1_555
Co28 Co3 2.649992 1_655
Co28 Co3 2.649992 1_555
Co28 Y3 3.022829 1_655
Co28 Y3 3.022829 1_555
Co28 Y4 3.119491 1_555
Co29 Si7 2.262690 1_555
Co29 Si8 2.287490 1_455
Co29 Si8 2.287490 1_555
Co29 Si17 2.329194 1_555
Co29 Y2 3.022829 1_455
Co29 Y2 3.022829 1_555
Co29 Y5 3.119491 1_555
Si0 Si4 2.621470 1_555
Si0 Si2 2.621470 1_555
Si0 Y3 2.907285 1_655
Si0 Y3 2.907285 1_555
Si1 Si5 2.621470 1_555
Si1 Si3 2.621470 1_555
Si1 Y2 2.907285 1_455
Si1 Y2 2.907285 1_555
Si2 Si4 2.621470 1_555
Si2 Y5 2.907290 1_655
Si2 Y5 2.907290 1_555
Si3 Si5 2.621470 1_555
Si3 Y4 2.907290 1_455
Si3 Y4 2.907290 1_555
Si4 Y1 2.907297 1_555
Si4 Y1 2.907297 1_655
Si5 Y0 2.907297 1_455
Si5 Y0 2.907297 1_555
Si6 Y3 2.947434 1_655
Si6 Y3 2.947434 1_555
Si7 Y2 2.947434 1_455
Si7 Y2 2.947434 1_555
Si8 Y5 2.947448 1_655
Si8 Y5 2.947448 1_555
Si9 Y4 2.947448 1_455
Si9 Y4 2.947448 1_555
Si10 Y1 2.947425 1_555
Si10 Y1 2.947425 1_655
Si11 Y0 2.947425 1_455
Si11 Y0 2.947425 1_555
Si12 Y5 2.898882 1_565
Si12 Y5 2.898882 1_665
Si13 Y4 2.898882 1_445
Si13 Y4 2.898882 1_545
Si14 Y1 2.898887 1_554
Si14 Y1 2.898887 1_654
Si15 Y0 2.898887 1_456
Si15 Y0 2.898887 1_556
Si16 Y3 2.898894 1_555
Si16 Y3 2.898894 1_655
Si17 Y2 2.898894 1_555
Si17 Y2 2.898894 1_455
