# generated using pymatgen
data_SrCaInSbO6
_symmetry_space_group_name_H-M   'P 1'
_cell_length_a   5.79758226
_cell_length_b   5.79758226
_cell_length_c   5.79758226
_cell_angle_alpha   60.00000000
_cell_angle_beta   60.00000000
_cell_angle_gamma   60.00000000
_symmetry_Int_Tables_number   1
_chemical_formula_structural   SrCaInSbO6
_chemical_formula_sum   'Sr1 Ca1 In1 Sb1 O6'
_cell_volume   137.79255728
_cell_formula_units_Z   1
loop_
 _symmetry_equiv_pos_site_id
 _symmetry_equiv_pos_as_xyz
  1  'x, y, z'
loop_
 _atom_site_type_symbol
 _atom_site_label
 _atom_site_symmetry_multiplicity
 _atom_site_fract_x
 _atom_site_fract_y
 _atom_site_fract_z
 _atom_site_occupancy
  Sr  Sr0  1  0.25000000  0.25000000  0.25000000  1
  Ca  Ca0  1  0.75000000  0.75000000  0.75000000  1
  In  In0  1  0.00000000  -0.00000000  0.00000000  1
  Sb  Sb0  1  0.50000000  0.50000000  0.50000000  1
  O  O0  1  0.74136454  0.25863546  0.25863546  1
  O  O1  1  0.25863546  0.74136454  0.74136454  1
  O  O2  1  0.74136454  0.25863546  0.74136454  1
  O  O3  1  0.25863546  0.74136454  0.25863546  1
  O  O4  1  0.74136454  0.74136454  0.25863546  1
  O  O5  1  0.25863546  0.25863546  0.74136454  1
loop_
_geom_bond_atom_site_label_1
_geom_bond_atom_site_label_2
_geom_bond_distance
_geom_bond_site_symmetry_2
Ca0 O1 2.899656 1_655
Ca0 O2 2.899656 1_565
Ca0 O3 2.899656 1_556
Ca0 O0 2.899656 1_556
Ca0 O4 2.899656 1_556
Ca0 O0 2.899656 1_565
Ca0 O3 2.899656 1_655
Ca0 O4 2.899656 1_555
Ca0 O1 2.899656 1_555
Ca0 O5 2.899656 1_565
Ca0 O5 2.899656 1_655
Ca0 O2 2.899656 1_555
In0 O3 2.120557 1_545
In0 O5 2.120557 1_554
In0 O0 2.120557 1_455
In0 O4 2.120557 1_445
In0 O2 2.120557 1_454
In0 O1 2.120557 1_544
O0 Sb0 1.978953 1_555
O0 Sr0 2.899656 1_555
O0 Sr0 2.899656 1_655
O1 Sb0 1.978953 1_555
O1 Sr0 2.899656 1_556
O1 Sr0 2.899656 1_565
O2 Sb0 1.978953 1_555
O2 Sr0 2.899656 1_556
O2 Sr0 2.899656 1_655
O3 Sb0 1.978953 1_555
O3 Sr0 2.899656 1_555
O3 Sr0 2.899656 1_565
O4 Sb0 1.978953 1_555
O4 Sr0 2.899656 1_565
O4 Sr0 2.899656 1_655
O5 Sb0 1.978953 1_555
O5 Sr0 2.899656 1_555
O5 Sr0 2.899656 1_556
