# generated using pymatgen
data_La3Zr
_symmetry_space_group_name_H-M   'P 1'
_cell_length_a   7.20375539
_cell_length_b   7.20375539
_cell_length_c   5.87699000
_cell_angle_alpha   90.00000000
_cell_angle_beta   90.00000000
_cell_angle_gamma   119.99999444
_symmetry_Int_Tables_number   1
_chemical_formula_structural   La3Zr
_chemical_formula_sum   'La6 Zr2'
_cell_volume   264.12135913
_cell_formula_units_Z   2
loop_
 _symmetry_equiv_pos_site_id
 _symmetry_equiv_pos_as_xyz
  1  'x, y, z'
loop_
 _atom_site_type_symbol
 _atom_site_label
 _atom_site_symmetry_multiplicity
 _atom_site_fract_x
 _atom_site_fract_y
 _atom_site_fract_z
 _atom_site_occupancy
  La  La0  1  0.17249900  0.34499700  0.25000000  1
  La  La1  1  0.65500300  0.82750100  0.25000000  1
  La  La2  1  0.17249900  0.82750100  0.25000000  1
  La  La3  1  0.82750100  0.65500300  0.75000000  1
  La  La4  1  0.34499700  0.17249900  0.75000000  1
  La  La5  1  0.82750100  0.17249900  0.75000000  1
  Zr  Zr0  1  0.33333300  0.66666700  0.75000000  1
  Zr  Zr1  1  0.66666700  0.33333300  0.25000000  1
loop_
_geom_bond_atom_site_label_1
_geom_bond_atom_site_label_2
_geom_bond_distance
_geom_bond_site_symmetry_2
La0 La2 3.475841 1_555
La0 La1 3.475841 1_555
La0 Zr0 3.558360 1_554
La0 Zr0 3.558360 1_555
La0 Zr1 3.602613 1_555
La0 Zr1 3.602613 1_455
La0 La4 3.642412 1_555
La0 La4 3.642412 1_554
La0 La5 3.642420 1_455
La0 La5 3.642420 1_454
La0 La2 3.727915 1_545
La0 La1 3.727915 1_445
La1 La2 3.475841 1_555
La1 Zr0 3.558360 1_554
La1 Zr0 3.558360 1_555
La1 Zr1 3.602613 1_555
La1 Zr1 3.602613 1_565
La1 La3 3.642412 1_554
La1 La3 3.642412 1_555
La1 La5 3.642420 1_565
La1 La5 3.642420 1_564
La1 La2 3.727915 1_655
La2 Zr0 3.558353 1_554
La2 Zr0 3.558353 1_555
La2 Zr1 3.602613 1_455
La2 Zr1 3.602613 1_565
La2 La4 3.642420 1_565
La2 La4 3.642420 1_564
La2 La3 3.642420 1_455
La2 La3 3.642420 1_454
La3 La5 3.475841 1_555
La3 La4 3.475841 1_555
La3 Zr1 3.558360 1_555
La3 Zr1 3.558360 1_556
La3 Zr0 3.602613 1_555
La3 Zr0 3.602613 1_655
La3 La5 3.727915 1_565
La3 La4 3.727915 1_665
La4 La5 3.475841 1_555
La4 Zr1 3.558360 1_555
La4 Zr1 3.558360 1_556
La4 Zr0 3.602613 1_555
La4 Zr0 3.602613 1_545
La4 La5 3.727915 1_455
La5 Zr1 3.558353 1_555
La5 Zr1 3.558353 1_556
La5 Zr0 3.602613 1_545
La5 Zr0 3.602613 1_655
