# generated using pymatgen
data_Nd6AlFe13
_symmetry_space_group_name_H-M   'P 1'
_cell_length_a   12.87400495
_cell_length_b   12.87400495
_cell_length_c   12.87400495
_cell_angle_alpha   143.71587793
_cell_angle_beta   143.71587793
_cell_angle_gamma   52.25236643
_symmetry_Int_Tables_number   1
_chemical_formula_structural   Nd6AlFe13
_chemical_formula_sum   'Nd12 Al2 Fe26'
_cell_volume   742.94802180
_cell_formula_units_Z   2
loop_
 _symmetry_equiv_pos_site_id
 _symmetry_equiv_pos_as_xyz
  1  'x, y, z'
loop_
 _atom_site_type_symbol
 _atom_site_label
 _atom_site_symmetry_multiplicity
 _atom_site_fract_x
 _atom_site_fract_y
 _atom_site_fract_z
 _atom_site_occupancy
  Nd  Nd0  1  0.10666700  0.10666700  0.00000000  1
  Nd  Nd1  1  0.89333300  0.89333300  0.00000000  1
  Nd  Nd2  1  0.39333300  0.39333300  0.00000000  1
  Nd  Nd3  1  0.60666700  0.60666700  0.00000000  1
  Nd  Nd4  1  0.85096800  0.35096800  0.82809900  1
  Nd  Nd5  1  0.14903200  0.64903200  0.17190100  1
  Nd  Nd6  1  0.52286900  0.02286900  0.17190100  1
  Nd  Nd7  1  0.35096800  0.52286900  0.50000000  1
  Nd  Nd8  1  0.97713100  0.14903200  0.50000000  1
  Nd  Nd9  1  0.47713100  0.97713100  0.82809900  1
  Nd  Nd10  1  0.64903200  0.47713100  0.50000000  1
  Nd  Nd11  1  0.02286900  0.85096800  0.50000000  1
  Al  Al0  1  0.25000000  0.25000000  0.00000000  1
  Al  Al1  1  0.75000000  0.75000000  0.00000000  1
  Fe  Fe0  1  0.20951100  0.06765100  0.27716200  1
  Fe  Fe1  1  0.79048900  0.93234900  0.72283800  1
  Fe  Fe2  1  0.06765100  0.79048900  0.85813900  1
  Fe  Fe3  1  0.70951100  0.43234900  0.14186100  1
  Fe  Fe4  1  0.93234900  0.20951100  0.14186100  1
  Fe  Fe5  1  0.29048900  0.56765100  0.85813900  1
  Fe  Fe6  1  0.56765100  0.70951100  0.27716200  1
  Fe  Fe7  1  0.43234900  0.29048900  0.72283800  1
  Fe  Fe8  1  0.50000000  0.00000000  0.50000000  1
  Fe  Fe9  1  0.00000000  0.50000000  0.50000000  1
  Fe  Fe10  1  0.20863800  0.70863800  0.72773800  1
  Fe  Fe11  1  0.79136200  0.29136200  0.27226200  1
  Fe  Fe12  1  0.98089900  0.48089900  0.27226200  1
  Fe  Fe13  1  0.70863800  0.98089900  0.50000000  1
  Fe  Fe14  1  0.51910100  0.79136200  0.50000000  1
  Fe  Fe15  1  0.01910100  0.51910100  0.72773800  1
  Fe  Fe16  1  0.29136200  0.01910100  0.50000000  1
  Fe  Fe17  1  0.48089900  0.20863800  0.50000000  1
  Fe  Fe18  1  0.73704900  0.23704900  0.85539100  1
  Fe  Fe19  1  0.26295100  0.76295100  0.14460900  1
  Fe  Fe20  1  0.38165800  0.88165800  0.14460900  1
  Fe  Fe21  1  0.23704900  0.38165800  0.50000000  1
  Fe  Fe22  1  0.11834200  0.26295100  0.50000000  1
  Fe  Fe23  1  0.61834200  0.11834200  0.85539100  1
  Fe  Fe24  1  0.76295100  0.61834200  0.50000000  1
  Fe  Fe25  1  0.88165800  0.73704900  0.50000000  1
loop_
_geom_bond_atom_site_label_1
_geom_bond_atom_site_label_2
_geom_bond_distance
_geom_bond_site_symmetry_2
Nd0 Nd6 3.525052 1_555
Nd0 Nd11 3.525052 1_544
Nd0 Nd7 3.525052 1_555
Nd0 Nd4 3.525052 1_454
Nd1 Nd8 3.525052 1_565
Nd1 Nd9 3.525052 1_554
Nd1 Nd5 3.525052 1_655
Nd1 Nd10 3.525052 1_554
Nd2 Nd9 3.525052 1_544
Nd2 Nd8 3.525052 1_454
Nd2 Nd5 3.525052 1_555
Nd3 Nd7 3.525052 1_554
Nd3 Nd6 3.525052 1_565
Nd3 Nd4 3.525052 1_554
Nd4 Nd5 3.507841 1_656
Nd4 Nd6 3.720027 1_555
Nd4 Nd8 3.927532 1_555
Nd5 Nd9 3.720027 1_555
Nd5 Nd7 3.927532 1_555
Nd6 Nd9 3.507841 1_544
Nd6 Nd8 3.927532 1_555
Nd7 Nd9 3.927532 1_555
Nd10 Nd7 3.507841 1_555
Nd10 Nd2 3.525052 1_555
Nd10 Nd8 3.720027 1_555
Nd10 Nd4 3.927532 1_555
Nd10 Nd6 3.927532 1_555
Nd11 Nd8 3.507841 1_465
Nd11 Nd3 3.525052 1_455
Nd11 Nd7 3.720027 1_555
Nd11 Nd5 3.927532 1_555
Nd11 Nd9 3.927532 1_555
Al0 Nd0 3.313464 1_555
Al0 Nd2 3.313464 1_555
Al0 Nd10 3.333287 1_555
Al0 Nd5 3.333287 1_555
Al0 Nd9 3.333287 1_544
Al0 Nd4 3.333287 1_454
Al0 Nd6 3.333287 1_555
Al0 Nd8 3.333287 1_454
Al0 Nd11 3.333287 1_544
Al0 Nd7 3.333287 1_555
Al1 Nd1 3.313464 1_555
Al1 Nd3 3.313464 1_555
Al1 Nd10 3.333287 1_554
Al1 Nd4 3.333287 1_554
Al1 Nd7 3.333287 1_554
Al1 Nd6 3.333287 1_565
Al1 Nd5 3.333287 1_655
Al1 Nd8 3.333287 1_565
Al1 Nd11 3.333287 1_655
Al1 Nd9 3.333287 1_554
Fe0 Fe8 2.391249 1_555
Fe0 Fe21 2.473039 1_555
Fe0 Fe22 2.473039 1_555
Fe0 Fe4 2.496228 1_455
Fe0 Fe2 2.496235 1_544
Fe0 Fe7 2.526565 1_555
Fe0 Fe20 2.563103 1_545
Fe0 Fe19 2.563103 1_545
Fe0 Fe17 2.634752 1_555
Fe0 Fe16 2.634752 1_555
Fe0 Nd0 3.032488 1_555
Fe0 Nd1 3.032488 1_445
Fe1 Fe8 2.391249 1_565
Fe1 Fe25 2.473039 1_555
Fe1 Fe24 2.473039 1_555
Fe1 Fe2 2.496228 1_655
Fe1 Fe4 2.496235 1_566
Fe1 Fe6 2.526565 1_555
Fe1 Fe18 2.563103 1_565
Fe1 Fe23 2.563103 1_565
Fe1 Fe13 2.634752 1_555
Fe1 Fe14 2.634752 1_555
Fe1 Nd0 3.032488 1_666
Fe1 Nd1 3.032488 1_556
Fe2 Fe9 2.391244 1_555
Fe2 Fe20 2.473036 1_556
Fe2 Fe5 2.526565 1_555
Fe2 Fe25 2.563093 1_455
Fe2 Fe24 2.563105 1_455
Fe2 Nd0 3.032480 1_566
Fe2 Nd1 3.032499 1_456
Fe3 Fe9 2.391244 1_655
Fe3 Fe6 2.496228 1_555
Fe3 Fe7 2.496235 1_554
Fe3 Fe4 2.526565 1_555
Fe3 Nd2 3.032480 1_555
Fe3 Nd3 3.032499 1_555
Fe4 Fe9 2.391244 1_655
Fe4 Nd1 3.032480 1_545
Fe4 Nd0 3.032499 1_655
Fe5 Fe9 2.391244 1_555
Fe5 Fe7 2.496228 1_555
Fe5 Fe6 2.496235 1_556
Fe5 Nd3 3.032480 1_556
Fe5 Nd2 3.032499 1_556
Fe6 Fe8 2.391249 1_565
Fe6 Nd3 3.032488 1_555
Fe6 Nd2 3.032488 1_555
Fe7 Fe8 2.391249 1_555
Fe7 Nd3 3.032488 1_556
Fe7 Nd2 3.032488 1_556
Fe10 Fe20 2.501063 1_556
Fe10 Fe21 2.529085 1_555
Fe10 Fe25 2.529085 1_455
Fe10 Fe9 2.542918 1_555
Fe10 Fe12 2.582122 1_455
Fe10 Fe2 2.634752 1_555
Fe10 Fe5 2.634752 1_555
Fe10 Nd11 3.108765 1_555
Fe10 Nd7 3.108765 1_555
Fe10 Nd3 3.239216 1_556
Fe10 Nd0 3.239216 1_566
Fe10 Nd6 3.298211 1_566
Fe11 Fe23 2.501063 1_554
Fe11 Fe22 2.529085 1_655
Fe11 Fe24 2.529085 1_555
Fe11 Fe9 2.542918 1_655
Fe11 Fe15 2.582122 1_655
Fe11 Fe4 2.634752 1_555
Fe11 Fe3 2.634752 1_555
Fe11 Nd8 3.108765 1_555
Fe11 Nd10 3.108765 1_555
Fe11 Nd2 3.239216 1_555
Fe11 Nd1 3.239216 1_545
Fe11 Nd9 3.298211 1_544
Fe12 Fe18 2.501056 1_554
Fe12 Fe21 2.529078 1_655
Fe12 Fe25 2.529078 1_555
Fe12 Fe9 2.542899 1_655
Fe12 Fe4 2.634752 1_555
Fe12 Fe3 2.634752 1_555
Fe12 Nd7 3.108781 1_655
Fe12 Nd11 3.108781 1_655
Fe12 Nd0 3.239217 1_655
Fe12 Nd3 3.239217 1_555
Fe12 Nd4 3.298226 1_554
Fe13 Fe25 2.501054 1_555
Fe13 Fe20 2.529085 1_555
Fe13 Fe18 2.529085 1_565
Fe13 Fe8 2.542911 1_565
Fe13 Fe17 2.582133 1_565
Fe13 Fe6 2.634752 1_555
Fe13 Nd6 3.108775 1_565
Fe13 Nd4 3.108775 1_565
Fe13 Nd3 3.239214 1_555
Fe13 Nd0 3.239214 1_666
Fe13 Nd11 3.298214 1_655
Fe14 Fe24 2.501054 1_555
Fe14 Fe19 2.529085 1_555
Fe14 Fe23 2.529085 1_565
Fe14 Fe8 2.542911 1_565
Fe14 Fe16 2.582133 1_565
Fe14 Fe6 2.634752 1_555
Fe14 Nd9 3.108775 1_555
Fe14 Nd5 3.108775 1_555
Fe14 Nd2 3.239214 1_555
Fe14 Nd1 3.239214 1_556
Fe14 Nd10 3.298214 1_555
Fe15 Fe19 2.501056 1_556
Fe15 Fe22 2.529078 1_555
Fe15 Fe24 2.529078 1_455
Fe15 Fe9 2.542899 1_555
Fe15 Fe5 2.634752 1_555
Fe15 Fe2 2.634752 1_555
Fe15 Nd8 3.108781 1_455
Fe15 Nd10 3.108781 1_455
Fe15 Nd2 3.239217 1_556
Fe15 Nd1 3.239217 1_456
Fe15 Nd5 3.298226 1_556
Fe16 Fe22 2.501054 1_555
Fe16 Fe23 2.529085 1_555
Fe16 Fe19 2.529085 1_545
Fe16 Fe8 2.542911 1_555
Fe16 Fe7 2.634752 1_555
Fe16 Nd9 3.108775 1_545
Fe16 Nd5 3.108775 1_545
Fe16 Nd2 3.239214 1_556
Fe16 Nd1 3.239214 1_445
Fe16 Nd8 3.298214 1_455
Fe17 Fe21 2.501054 1_555
Fe17 Fe20 2.529085 1_545
Fe17 Fe18 2.529085 1_555
Fe17 Fe8 2.542911 1_555
Fe17 Fe7 2.634752 1_555
Fe17 Nd6 3.108775 1_555
Fe17 Nd4 3.108775 1_555
Fe17 Nd0 3.239214 1_555
Fe17 Nd3 3.239214 1_556
Fe17 Nd7 3.298214 1_555
Fe18 Fe8 2.437577 1_555
Fe18 Fe4 2.473049 1_556
Fe18 Fe3 2.473049 1_556
Fe18 Fe7 2.563103 1_555
Fe18 Fe23 2.744179 1_555
Fe18 Nd4 2.953007 1_555
Fe18 Nd0 3.146894 1_656
Fe18 Nd3 3.146894 1_556
Fe19 Fe8 2.437577 1_565
Fe19 Fe5 2.473049 1_554
Fe19 Fe2 2.473049 1_554
Fe19 Fe6 2.563103 1_555
Fe19 Fe20 2.744179 1_555
Fe19 Nd5 2.953007 1_555
Fe19 Nd2 3.146894 1_555
Fe19 Nd1 3.146894 1_455
Fe20 Fe8 2.437577 1_565
Fe20 Fe5 2.473036 1_554
Fe20 Fe6 2.563103 1_555
Fe20 Nd6 2.953007 1_565
Fe20 Nd3 3.146894 1_555
Fe20 Nd0 3.146894 1_565
Fe21 Fe9 2.437577 1_555
Fe21 Fe7 2.473039 1_555
Fe21 Fe5 2.563093 1_555
Fe21 Fe4 2.563105 1_455
Fe21 Fe22 2.744179 1_555
Fe21 Nd7 2.953007 1_555
Fe21 Nd0 3.146894 1_555
Fe21 Nd3 3.146894 1_556
Fe22 Fe9 2.437577 1_555
Fe22 Fe7 2.473039 1_555
Fe22 Fe4 2.563093 1_455
Fe22 Fe5 2.563105 1_555
Fe22 Nd8 2.953007 1_455
Fe22 Nd2 3.146894 1_556
Fe22 Nd1 3.146894 1_445
Fe23 Fe8 2.437577 1_555
Fe23 Fe4 2.473036 1_556
Fe23 Fe3 2.473036 1_556
Fe23 Fe7 2.563103 1_555
Fe23 Nd9 2.953007 1_545
Fe23 Nd1 3.146894 1_546
Fe23 Nd2 3.146894 1_556
Fe24 Fe9 2.437577 1_655
Fe24 Fe6 2.473039 1_555
Fe24 Fe3 2.563093 1_555
Fe24 Fe25 2.744179 1_555
Fe24 Nd10 2.953007 1_555
Fe24 Nd2 3.146894 1_555
Fe24 Nd1 3.146894 1_556
Fe25 Fe9 2.437577 1_655
Fe25 Fe6 2.473039 1_555
Fe25 Fe3 2.563105 1_555
Fe25 Nd11 2.953007 1_655
Fe25 Nd3 3.146894 1_555
Fe25 Nd0 3.146894 1_666
