# generated using pymatgen
data_Li7Mn5O12
_symmetry_space_group_name_H-M   'P 1'
_cell_length_a   7.74865049
_cell_length_b   8.34799583
_cell_length_c   7.75742872
_cell_angle_alpha   105.24544785
_cell_angle_beta   67.75354715
_cell_angle_gamma   105.48884084
_symmetry_Int_Tables_number   1
_chemical_formula_structural   Li7Mn5O12
_chemical_formula_sum   'Li14 Mn10 O24'
_cell_volume   440.14533582
_cell_formula_units_Z   2
loop_
 _symmetry_equiv_pos_site_id
 _symmetry_equiv_pos_as_xyz
  1  'x, y, z'
loop_
 _atom_site_type_symbol
 _atom_site_label
 _atom_site_symmetry_multiplicity
 _atom_site_fract_x
 _atom_site_fract_y
 _atom_site_fract_z
 _atom_site_occupancy
  Li  Li0  1  0.16662400  0.33327900  0.16669200  1
  Li  Li1  1  0.66664900  0.83327600  0.66669500  1
  Li  Li2  1  0.91554300  0.58239500  0.41591400  1
  Li  Li3  1  0.41783000  0.08434700  0.91744500  1
  Li  Li4  1  0.41374300  0.58151300  0.91633500  1
  Li  Li5  1  0.91954000  0.08509600  0.41703500  1
  Li  Li6  1  0.31424400  0.16547300  0.35122100  1
  Li  Li7  1  0.80715100  0.66481100  0.84536300  1
  Li  Li8  1  0.01912300  0.50116800  0.98212500  1
  Li  Li9  1  0.52617700  0.00182700  0.48797900  1
  Li  Li10  1  0.25589900  0.25130200  0.75328700  1
  Li  Li11  1  0.74893400  0.75881400  0.25992500  1
  Li  Li12  1  0.58436600  0.90787300  0.07344600  1
  Li  Li13  1  0.07742800  0.41532500  0.58005400  1
  Mn  Mn0  1  0.66665900  0.33333000  0.66657700  1
  Mn  Mn1  1  0.16672600  0.83341200  0.16654600  1
  Mn  Mn2  1  0.49102400  0.49839200  0.50854900  1
  Mn  Mn3  1  0.99239600  0.99627600  0.00772800  1
  Mn  Mn4  1  0.34109200  0.67046400  0.32572400  1
  Mn  Mn5  1  0.84220600  0.16816500  0.82482200  1
  Mn  Mn6  1  0.25273600  0.74910600  0.74960400  1
  Mn  Mn7  1  0.74726100  0.24826300  0.25539400  1
  Mn  Mn8  1  0.08058600  0.91768200  0.58377300  1
  Mn  Mn9  1  0.58605600  0.41827600  0.07782500  1
  O  O0  1  0.21669100  0.98200200  0.77144600  1
  O  O1  1  0.72288600  0.48235300  0.26204900  1
  O  O2  1  0.11668100  0.68472800  0.56200000  1
  O  O3  1  0.61033100  0.18422900  0.07128200  1
  O  O4  1  0.16024400  0.06512700  0.15886300  1
  O  O5  1  0.65680900  0.56431800  0.65836800  1
  O  O6  1  0.17314700  0.60167800  0.17449400  1
  O  O7  1  0.67650100  0.10234300  0.67495600  1
  O  O8  1  0.56212400  0.65334700  0.10525600  1
  O  O9  1  0.07340100  0.15034700  0.59677700  1
  O  O10  1  0.77122800  0.01328900  0.22806600  1
  O  O11  1  0.25991800  0.51636300  0.73656200  1
  O  O12  1  0.38479800  0.83022100  0.93191800  1
  O  O13  1  0.88691600  0.33110600  0.43158400  1
  O  O14  1  0.94862700  0.83651700  0.40135000  1
  O  O15  1  0.44639900  0.33549800  0.90164700  1
  O  O16  1  0.33737400  0.90054800  0.31253500  1
  O  O17  1  0.83237500  0.42350700  0.81783300  1
  O  O18  1  0.99594100  0.76615900  0.02079300  1
  O  O19  1  0.50088200  0.24307000  0.51542900  1
  O  O20  1  0.49779300  0.75695700  0.48729900  1
  O  O21  1  0.00331100  0.22910800  0.98902600  1
  O  O22  1  0.33001500  0.43757800  0.34432400  1
  O  O23  1  0.83561000  0.90973600  0.84608200  1
loop_
_geom_bond_atom_site_label_1
_geom_bond_atom_site_label_2
_geom_bond_distance
_geom_bond_site_symmetry_2
Li0 O21 2.087978 1_554
Li0 O22 2.088309 1_555
Li0 O4 2.211069 1_555
Li0 O6 2.212914 1_555
Li0 O13 2.355139 1_455
Li0 O15 2.356065 1_554
Li1 O20 2.126435 1_555
Li1 O23 2.126973 1_555
Li1 O5 2.210701 1_555
Li1 O7 2.211704 1_565
Li1 O12 2.366215 1_555
Li1 O14 2.367281 1_555
Li2 O13 2.080802 1_555
Li2 O14 2.095832 1_555
Li2 O1 2.123616 1_555
Li2 O2 2.135467 1_655
Li2 O6 2.161948 1_655
Li2 O5 2.170755 1_555
Li3 O15 2.080020 1_555
Li3 O12 2.095740 1_545
Li3 O3 2.122402 1_556
Li3 O0 2.135006 1_545
Li3 O4 2.161830 1_556
Li3 O7 2.170584 1_555
Li4 O11 2.043245 1_555
Li4 O8 2.067551 1_556
Li4 O15 2.104161 1_555
Li4 O12 2.114655 1_555
Li4 O6 2.162845 1_556
Li4 O5 2.170723 1_555
Li5 O9 2.043202 1_655
Li5 O10 2.067476 1_555
Li5 O13 2.104297 1_555
Li5 O14 2.113775 1_545
Li5 O4 2.163243 1_655
Li5 O7 2.170429 1_555
Li6 O9 2.106224 1_555
Li6 O4 2.123517 1_555
Li6 O19 2.143435 1_555
Li6 O16 2.198921 1_545
Li6 O22 2.255738 1_555
Li6 O3 2.493704 1_555
Li7 O23 1.995821 1_555
Li7 O17 2.023381 1_555
Li7 O5 2.069468 1_555
Li7 O8 2.187390 1_556
Li7 O18 2.224552 1_556
Li7 O2 2.568915 1_655
Li8 O11 2.106095 1_555
Li8 O6 2.123803 1_556
Li8 O17 2.144616 1_455
Li8 O18 2.199610 1_456
Li8 O21 2.255300 1_555
Li8 O1 2.494331 1_456
Li9 O20 1.995527 1_545
Li9 O19 2.023172 1_555
Li9 O7 2.069268 1_555
Li9 O10 2.187577 1_555
Li9 O16 2.224689 1_545
Li9 O0 2.569101 1_545
Li10 O15 2.074676 1_555
Li10 O9 2.075912 1_555
Li10 O19 2.088946 1_555
Li10 O21 2.117465 1_555
Li10 O0 2.221603 1_545
Li10 O11 2.241670 1_555
Li11 O20 2.073061 1_555
Li11 O8 2.094975 1_555
Li11 O14 2.096120 1_555
Li11 O18 2.101668 1_555
Li11 O10 2.156755 1_565
Li11 O1 2.266291 1_555
Li12 O23 2.073512 1_554
Li12 O10 2.094984 1_565
Li12 O12 2.095880 1_554
Li12 O16 2.101416 1_555
Li12 O8 2.157139 1_555
Li12 O3 2.265612 1_565
Li13 O13 2.075381 1_455
Li13 O11 2.075900 1_555
Li13 O17 2.088919 1_455
Li13 O22 2.117457 1_555
Li13 O2 2.222175 1_555
Li13 O9 2.240957 1_555
Mn0 O19 1.936870 1_555
Mn0 O17 1.937093 1_555
Mn0 O5 1.968511 1_555
Mn0 O7 1.968886 1_555
Mn0 O13 1.969680 1_555
Mn0 O15 1.970049 1_555
Mn1 O18 1.935760 1_455
Mn1 O16 1.936332 1_555
Mn1 O12 1.959234 1_554
Mn1 O14 1.960160 1_455
Mn1 O4 1.965349 1_565
Mn1 O6 1.965981 1_555
Mn2 O5 1.928813 1_555
Mn2 O22 1.990546 1_555
Mn2 O11 1.990861 1_555
Mn2 O1 2.072395 1_555
Mn2 O19 2.168302 1_555
Mn2 O20 2.192979 1_555
Mn3 O10 1.913906 1_565
Mn3 O23 1.943853 1_554
Mn3 O4 1.948692 1_665
Mn3 O18 1.958063 1_555
Mn3 O21 1.964002 1_664
Mn3 O0 1.994519 1_654
Mn4 O8 1.913906 1_555
Mn4 O20 1.942900 1_555
Mn4 O6 1.949901 1_555
Mn4 O16 1.958489 1_555
Mn4 O22 1.963888 1_555
Mn4 O2 1.994973 1_555
Mn5 O7 1.928635 1_555
Mn5 O21 1.990923 1_655
Mn5 O9 1.991291 1_655
Mn5 O3 2.072281 1_556
Mn5 O17 2.168656 1_555
Mn5 O23 2.192231 1_545
Mn6 O12 1.930795 1_555
Mn6 O11 1.933507 1_555
Mn6 O2 1.991483 1_555
Mn6 O0 1.991893 1_555
Mn6 O20 2.197379 1_555
Mn6 O18 2.286812 1_456
Mn7 O13 1.934032 1_555
Mn7 O10 1.968049 1_555
Mn7 O3 1.973413 1_555
Mn7 O1 1.998464 1_555
Mn7 O19 2.191234 1_555
Mn7 O21 2.263445 1_654
Mn8 O14 1.930943 1_455
Mn8 O9 1.932928 1_565
Mn8 O0 1.992259 1_555
Mn8 O2 1.992636 1_555
Mn8 O23 2.197115 1_455
Mn8 O16 2.287036 1_555
Mn9 O15 1.933955 1_554
Mn9 O8 1.968615 1_555
Mn9 O1 1.973561 1_555
Mn9 O3 1.998071 1_555
Mn9 O17 2.190804 1_554
Mn9 O22 2.264058 1_555
