# generated using pymatgen
data_Li10Zn(PS4)4
_symmetry_space_group_name_H-M   'P 1'
_cell_length_a   6.18418300
_cell_length_b   10.23460996
_cell_length_c   10.27875122
_cell_angle_alpha   78.84645003
_cell_angle_beta   89.75015815
_cell_angle_gamma   89.92417185
_symmetry_Int_Tables_number   1
_chemical_formula_structural   Li10Zn(PS4)4
_chemical_formula_sum   'Li10 Zn1 P4 S16'
_cell_volume   638.27601285
_cell_formula_units_Z   1
loop_
 _symmetry_equiv_pos_site_id
 _symmetry_equiv_pos_as_xyz
  1  'x, y, z'
loop_
 _atom_site_type_symbol
 _atom_site_label
 _atom_site_symmetry_multiplicity
 _atom_site_fract_x
 _atom_site_fract_y
 _atom_site_fract_z
 _atom_site_occupancy
  Li  Li0  1  0.00553900  0.53595800  0.22071600  1
  Li  Li1  1  0.49513100  0.21313100  0.53339000  1
  Li  Li2  1  0.49818100  0.72055800  0.02864600  1
  Li  Li3  1  0.49314300  0.97954100  0.26657700  1
  Li  Li4  1  0.49810900  0.46251700  0.79448900  1
  Li  Li5  1  0.99579400  0.78135500  0.45537600  1
  Li  Li6  1  0.99573400  0.27006700  0.97242200  1
  Li  Li7  1  0.48902600  0.57075300  0.43054700  1
  Li  Li8  1  0.99475900  0.17063800  0.31498600  1
  Li  Li9  1  0.98749200  0.67534000  0.82392700  1
  Zn  Zn0  1  0.99467000  0.03356700  0.73035000  1
  P  P0  1  0.00342000  0.40706100  0.59967100  1
  P  P1  1  0.00802500  0.90738900  0.08122200  1
  P  P2  1  0.48554800  0.84032100  0.65476000  1
  P  P3  1  0.49812400  0.34720200  0.16471700  1
  S  S0  1  0.89085200  0.55082800  0.44758900  1
  S  S1  1  0.86610100  0.05498400  0.93719600  1
  S  S2  1  0.33474400  0.40032800  0.60389600  1
  S  S3  1  0.33310400  0.91633100  0.07692200  1
  S  S4  1  0.89202100  0.22324800  0.56283800  1
  S  S5  1  0.89530400  0.72590300  0.04983900  1
  S  S6  1  0.37757900  0.01825100  0.69598200  1
  S  S7  1  0.39855100  0.52840800  0.20532500  1
  S  S8  1  0.82779900  0.85387000  0.64765700  1
  S  S9  1  0.83308900  0.34908200  0.15638400  1
  S  S10  1  0.39355100  0.19466100  0.31480400  1
  S  S11  1  0.39092800  0.68911100  0.80427800  1
  S  S12  1  0.39269100  0.80556300  0.47320600  1
  S  S13  1  0.38292200  0.31220500  0.99123400  1
  S  S14  1  0.88737100  0.94473300  0.25925000  1
  S  S15  1  0.89118100  0.44142400  0.77747700  1
loop_
_geom_bond_atom_site_label_1
_geom_bond_atom_site_label_2
_geom_bond_distance
_geom_bond_site_symmetry_2
Li0 S9 2.394470 1_455
Li0 S7 2.437007 1_555
Li0 S5 2.452513 1_455
Li0 S0 2.467159 1_455
Li1 S10 2.378101 1_555
Li1 S2 2.388619 1_555
Li1 S6 2.450162 1_555
Li1 S4 2.479092 1_555
Li2 S3 2.382829 1_555
Li2 S5 2.468082 1_555
Li2 S7 2.481292 1_555
Li2 S11 2.482589 1_554
Li3 S3 2.388451 1_555
Li3 S10 2.426601 1_565
Li3 S14 2.466333 1_555
Li3 S12 2.568202 1_555
Li4 S13 2.398011 1_555
Li4 S2 2.401050 1_555
Li4 S11 2.431732 1_555
Li4 S15 2.448595 1_555
Li5 S14 2.452390 1_555
Li5 S0 2.464082 1_555
Li5 S8 2.466549 1_555
Li5 S12 2.478419 1_655
Li6 S9 2.411227 1_556
Li6 S1 2.436190 1_555
Li6 S13 2.448625 1_655
Li6 S15 2.481469 1_555
Li7 S2 2.432021 1_555
Li7 S0 2.497190 1_555
Li7 S7 2.502038 1_555
Li7 S12 2.593089 1_555
Li8 S9 2.418711 1_555
Li8 S10 2.478709 1_655
Li8 S14 2.575781 1_545
Li8 S4 2.774811 1_555
Li9 S11 2.504159 1_655
Li9 S8 2.515292 1_555
Li9 S5 2.537225 1_556
Li9 S15 2.600498 1_555
P0 S15 2.045150 1_455
P0 S2 2.050402 1_555
P0 S0 2.051872 1_455
P0 S4 2.106729 1_455
P1 S3 2.012455 1_555
P1 S5 2.068153 1_455
P1 S14 2.075881 1_455
P1 S1 2.094382 1_464
P2 S11 2.042969 1_555
P2 S12 2.050739 1_555
P2 S6 2.057762 1_565
P2 S8 2.121279 1_555
P3 S13 2.018531 1_554
P3 S7 2.070522 1_555
P3 S9 2.072843 1_555
P3 S10 2.073087 1_555
S1 Zn0 2.316397 1_555
S4 Zn0 2.418554 1_555
S6 Zn0 2.402048 1_455
S8 Zn0 2.405671 1_565
