# generated using pymatgen
data_Ca2Cu9O13
_symmetry_space_group_name_H-M   'P 1'
_cell_length_a   5.18558143
_cell_length_b   5.18558143
_cell_length_c   16.39812937
_cell_angle_alpha   81.88936245
_cell_angle_beta   81.88936245
_cell_angle_gamma   34.51711199
_symmetry_Int_Tables_number   1
_chemical_formula_structural   Ca2Cu9O13
_chemical_formula_sum   'Ca2 Cu9 O13'
_cell_volume   247.12343827
_cell_formula_units_Z   1
loop_
 _symmetry_equiv_pos_site_id
 _symmetry_equiv_pos_as_xyz
  1  'x, y, z'
loop_
 _atom_site_type_symbol
 _atom_site_label
 _atom_site_symmetry_multiplicity
 _atom_site_fract_x
 _atom_site_fract_y
 _atom_site_fract_z
 _atom_site_occupancy
  Ca  Ca0  1  0.78390400  0.78390400  0.22850900  1
  Ca  Ca1  1  0.21609600  0.21609600  0.77149100  1
  Cu  Cu0  1  0.50000000  0.50000000  0.50000000  1
  Cu  Cu1  1  0.35338200  0.35338200  0.03792500  1
  Cu  Cu2  1  0.64661800  0.64661800  0.96207500  1
  Cu  Cu3  1  0.24852600  0.24852600  0.42141700  1
  Cu  Cu4  1  0.75147400  0.75147400  0.57858300  1
  Cu  Cu5  1  0.06257900  0.06257900  0.11950400  1
  Cu  Cu6  1  0.93742100  0.93742100  0.88049600  1
  Cu  Cu7  1  0.00433800  0.00433800  0.33695700  1
  Cu  Cu8  1  0.99566200  0.99566200  0.66304300  1
  O  O0  1  0.00000000  0.00000000  0.00000000  1
  O  O1  1  0.11654600  0.11654600  0.22686700  1
  O  O2  1  0.88345400  0.88345400  0.77313300  1
  O  O3  1  0.70096000  0.70096000  0.07140700  1
  O  O4  1  0.29904000  0.29904000  0.92859300  1
  O  O5  1  0.42246700  0.42246700  0.13840900  1
  O  O6  1  0.57753300  0.57753300  0.86159100  1
  O  O7  1  0.37316600  0.37316600  0.32270300  1
  O  O8  1  0.62683400  0.62683400  0.67729700  1
  O  O9  1  0.60857100  0.60857100  0.38835400  1
  O  O10  1  0.39142900  0.39142900  0.61164600  1
  O  O11  1  0.86734800  0.86734800  0.47140700  1
  O  O12  1  0.13265200  0.13265200  0.52859300  1
loop_
_geom_bond_atom_site_label_1
_geom_bond_atom_site_label_2
_geom_bond_distance
_geom_bond_site_symmetry_2
Ca0 O1 2.264575 1_565
Ca0 O1 2.264575 1_655
Ca0 O5 2.415388 1_655
Ca0 O5 2.415388 1_565
Ca0 O7 2.436757 1_655
Ca0 O7 2.436757 1_565
Ca1 O2 2.264575 1_545
Ca1 O2 2.264575 1_455
Ca1 O6 2.415388 1_455
Ca1 O6 2.415388 1_545
Ca1 O8 2.436757 1_455
Ca1 O8 2.436757 1_545
Cu0 O9 1.981509 1_555
Cu0 O10 1.981509 1_555
Cu0 O12 2.120113 1_565
Cu0 O11 2.120113 1_545
Cu0 O11 2.120113 1_455
Cu0 O12 2.120113 1_655
Cu1 O5 1.875202 1_555
Cu1 O4 1.946552 1_554
Cu1 O0 2.143721 1_565
Cu1 O0 2.143721 1_655
Cu1 O3 2.168506 1_545
Cu1 O3 2.168506 1_455
Cu2 O6 1.875202 1_555
Cu2 O3 1.946552 1_556
Cu2 O0 2.143721 1_566
Cu2 O0 2.143721 1_656
Cu2 O4 2.168506 1_565
Cu2 O4 2.168506 1_655
Cu3 O7 1.885135 1_555
Cu3 O12 1.951890 1_555
Cu3 O11 2.169998 1_545
Cu3 O11 2.169998 1_455
Cu3 O9 2.191876 1_545
Cu3 O9 2.191876 1_455
Cu4 O8 1.885135 1_555
Cu4 O11 1.951890 1_555
Cu4 O12 2.169998 1_565
Cu4 O12 2.169998 1_655
Cu4 O10 2.191876 1_565
Cu4 O10 2.191876 1_655
Cu5 O1 1.913970 1_555
Cu5 O5 2.064369 1_455
Cu5 O5 2.064369 1_545
Cu5 O3 2.132603 1_545
Cu5 O3 2.132603 1_455
Cu5 O0 2.140845 1_555
Cu6 O2 1.913970 1_555
Cu6 O6 2.064369 1_565
Cu6 O6 2.064369 1_655
Cu6 O4 2.132603 1_565
Cu6 O4 2.132603 1_655
Cu6 O0 2.140845 1_666
Cu7 O1 1.975161 1_555
Cu7 O7 2.049166 1_545
Cu7 O7 2.049166 1_455
Cu7 O9 2.097636 1_545
Cu7 O9 2.097636 1_455
Cu7 O11 2.412015 1_445
Cu8 O2 1.975161 1_555
Cu8 O8 2.049166 1_565
Cu8 O8 2.049166 1_655
Cu8 O10 2.097636 1_565
Cu8 O10 2.097636 1_655
Cu8 O12 2.412015 1_665
