# generated using pymatgen
data_Mn5SnO8
_symmetry_space_group_name_H-M   'P 1'
_cell_length_a   6.16413005
_cell_length_b   10.67118740
_cell_length_c   6.29562136
_cell_angle_alpha   87.82835574
_cell_angle_beta   61.37456240
_cell_angle_gamma   73.61706046
_symmetry_Int_Tables_number   1
_chemical_formula_structural   Mn5SnO8
_chemical_formula_sum   'Mn10 Sn2 O16'
_cell_volume   346.40845314
_cell_formula_units_Z   2
loop_
 _symmetry_equiv_pos_site_id
 _symmetry_equiv_pos_as_xyz
  1  'x, y, z'
loop_
 _atom_site_type_symbol
 _atom_site_label
 _atom_site_symmetry_multiplicity
 _atom_site_fract_x
 _atom_site_fract_y
 _atom_site_fract_z
 _atom_site_occupancy
  Mn  Mn0  1  0.24158000  0.62575400  0.86988800  1
  Mn  Mn1  1  0.62383100  0.81077300  0.42787600  1
  Mn  Mn2  1  0.14130200  0.80902500  0.41808400  1
  Mn  Mn3  1  0.62390300  0.81277900  0.94229400  1
  Mn  Mn4  1  0.62162200  0.31068000  0.45114900  1
  Mn  Mn5  1  0.23517600  0.12366600  0.38481700  1
  Mn  Mn6  1  0.61489600  0.31295200  0.94189800  1
  Mn  Mn7  1  0.13417600  0.31056500  0.93746800  1
  Mn  Mn8  1  0.62381400  0.56879200  0.18898700  1
  Mn  Mn9  1  0.61963500  0.06724900  0.69595000  1
  Sn  Sn0  1  0.01504700  0.00072500  0.99744200  1
  Sn  Sn1  1  0.01540600  0.49966500  0.50224700  1
  O  O0  1  0.39845600  0.43217400  0.29787300  1
  O  O1  1  0.41161200  0.93339200  0.80002500  1
  O  O2  1  0.86589400  0.43964900  0.32068000  1
  O  O3  1  0.84540800  0.94183200  0.82349800  1
  O  O4  1  0.88653200  0.19818000  0.06244500  1
  O  O5  1  0.89276200  0.69975000  0.54722700  1
  O  O6  1  0.88997400  0.42755900  0.82903400  1
  O  O7  1  0.89044900  0.92940800  0.32278300  1
  O  O8  1  0.40096000  0.69931800  0.04269300  1
  O  O9  1  0.39539900  0.17461300  0.57915400  1
  O  O10  1  0.84239300  0.70514100  0.06068100  1
  O  O11  1  0.83660900  0.18100000  0.59789500  1
  O  O12  1  0.35534000  0.19420500  0.04784200  1
  O  O13  1  0.35806600  0.69764900  0.53454800  1
  O  O14  1  0.35810900  0.42185600  0.81589400  1
  O  O15  1  0.36164700  0.92164800  0.30962700  1
loop_
_geom_bond_atom_site_label_1
_geom_bond_atom_site_label_2
_geom_bond_distance
_geom_bond_site_symmetry_2
Mn0 O10 2.069889 1_456
Mn0 O8 2.070959 1_556
Mn0 O13 2.072863 1_555
Mn0 O14 2.075140 1_555
Mn1 O15 2.138542 1_555
Mn1 O13 2.142893 1_555
Mn1 O5 2.175862 1_555
Mn1 O10 2.187782 1_555
Mn1 O7 2.193119 1_555
Mn1 O1 2.289699 1_555
Mn2 O13 1.926738 1_555
Mn2 O15 1.930137 1_555
Mn2 O5 2.027405 1_455
Mn2 O7 2.027615 1_455
Mn2 O8 2.246308 1_555
Mn2 O3 2.490995 1_455
Mn3 O10 1.926907 1_556
Mn3 O8 1.949965 1_556
Mn3 O1 2.063194 1_555
Mn3 O3 2.079515 1_555
Mn3 O15 2.207528 1_556
Mn3 O5 2.353236 1_555
Mn4 O11 2.136909 1_555
Mn4 O0 2.162263 1_555
Mn4 O9 2.163106 1_555
Mn4 O2 2.175828 1_555
Mn4 O14 2.205540 1_555
Mn4 O4 2.320370 1_555
Mn5 O15 2.062736 1_545
Mn5 O11 2.065483 1_455
Mn5 O9 2.068569 1_555
Mn5 O12 2.074545 1_555
Mn6 O14 2.140298 1_555
Mn6 O12 2.160446 1_556
Mn6 O0 2.194251 1_556
Mn6 O6 2.196645 1_555
Mn6 O11 2.202353 1_555
Mn6 O4 2.206780 1_556
Mn7 O14 1.935243 1_555
Mn7 O12 1.941796 1_556
Mn7 O6 2.037272 1_455
Mn7 O4 2.048895 1_456
Mn7 O9 2.288243 1_555
Mn7 O2 2.365740 1_456
Mn8 O10 2.135153 1_555
Mn8 O0 2.163167 1_555
Mn8 O8 2.170501 1_555
Mn8 O2 2.179918 1_555
Mn8 O13 2.201927 1_555
Mn8 O6 2.323809 1_554
Mn9 O11 1.926464 1_555
Mn9 O9 1.944347 1_555
Mn9 O1 2.066690 1_545
Mn9 O3 2.076394 1_545
Mn9 O12 2.218478 1_556
Mn9 O7 2.364025 1_545
O0 Sn1 1.987293 1_555
O1 Sn0 2.049946 1_565
O2 Sn1 1.990980 1_655
O3 Sn0 2.051263 1_665
O4 Sn0 2.011945 1_654
O5 Sn1 2.034869 1_655
O6 Sn1 2.028291 1_655
O7 Sn0 2.017070 1_664
