# generated using pymatgen
data_Ti3AlO6
_symmetry_space_group_name_H-M   'P 1'
_cell_length_a   5.95064994
_cell_length_b   5.95064994
_cell_length_c   14.53785600
_cell_angle_alpha   90.00000000
_cell_angle_beta   90.00000000
_cell_angle_gamma   119.99999934
_symmetry_Int_Tables_number   1
_chemical_formula_structural   Ti3AlO6
_chemical_formula_sum   'Ti12 Al4 O24'
_cell_volume   445.82026204
_cell_formula_units_Z   4
loop_
 _symmetry_equiv_pos_site_id
 _symmetry_equiv_pos_as_xyz
  1  'x, y, z'
loop_
 _atom_site_type_symbol
 _atom_site_label
 _atom_site_symmetry_multiplicity
 _atom_site_fract_x
 _atom_site_fract_y
 _atom_site_fract_z
 _atom_site_occupancy
  Ti  Ti0  1  0.15888600  0.84111400  0.66304500  1
  Ti  Ti1  1  0.84111400  0.15888600  0.33695500  1
  Ti  Ti2  1  0.50000000  0.50000000  0.00000000  1
  Ti  Ti3  1  0.15888600  0.31777100  0.66304500  1
  Ti  Ti4  1  0.84111400  0.68222900  0.33695500  1
  Ti  Ti5  1  0.50000000  0.00000000  0.00000000  1
  Ti  Ti6  1  0.00000000  0.00000000  0.50000000  1
  Ti  Ti7  1  0.66666700  0.33333300  0.17992100  1
  Ti  Ti8  1  0.33333300  0.66666700  0.82007900  1
  Ti  Ti9  1  0.68222900  0.84111400  0.66304500  1
  Ti  Ti10  1  0.31777100  0.15888600  0.33695500  1
  Ti  Ti11  1  0.00000000  0.50000000  0.00000000  1
  Al  Al0  1  0.33333300  0.66666700  0.45933700  1
  Al  Al1  1  0.00000000  0.00000000  0.12462100  1
  Al  Al2  1  0.66666700  0.33333300  0.54066300  1
  Al  Al3  1  0.00000000  0.00000000  0.87537900  1
  O  O0  1  0.33333300  0.66666700  0.58211600  1
  O  O1  1  0.00000000  0.00000000  0.24695100  1
  O  O2  1  0.66666700  0.33333300  0.93515000  1
  O  O3  1  0.34007400  0.17003700  0.58008700  1
  O  O4  1  0.96107500  0.48053800  0.26000700  1
  O  O5  1  0.66607600  0.83303800  0.91527500  1
  O  O6  1  0.82996300  0.17003700  0.58008700  1
  O  O7  1  0.51946200  0.48053800  0.26000700  1
  O  O8  1  0.16696200  0.83303800  0.91527500  1
  O  O9  1  0.82996300  0.65992600  0.58008700  1
  O  O10  1  0.51946200  0.03892500  0.26000700  1
  O  O11  1  0.16696200  0.33392400  0.91527500  1
  O  O12  1  0.65992600  0.82996300  0.41991300  1
  O  O13  1  0.33392400  0.16696200  0.08472500  1
  O  O14  1  0.03892500  0.51946200  0.73999300  1
  O  O15  1  0.66666700  0.33333300  0.41788400  1
  O  O16  1  0.33333300  0.66666700  0.06485000  1
  O  O17  1  0.00000000  0.00000000  0.75304900  1
  O  O18  1  0.17003700  0.82996300  0.41991300  1
  O  O19  1  0.83303800  0.16696200  0.08472500  1
  O  O20  1  0.48053800  0.51946200  0.73999300  1
  O  O21  1  0.17003700  0.34007400  0.41991300  1
  O  O22  1  0.83303800  0.66607600  0.08472500  1
  O  O23  1  0.48053800  0.96107500  0.73999300  1
loop_
_geom_bond_atom_site_label_1
_geom_bond_atom_site_label_2
_geom_bond_distance
_geom_bond_site_symmetry_2
Al0 O18 1.777975 1_555
Al0 O21 1.777979 1_555
Al0 O12 1.777979 1_555
Al0 O0 1.784943 1_555
Al1 O1 1.778416 1_555
Al1 O19 1.815963 1_455
Al1 O13 1.815963 1_555
Al1 O22 1.815963 1_445
Al2 O6 1.777975 1_555
Al2 O3 1.777979 1_555
Al2 O9 1.777979 1_555
Al2 O15 1.784943 1_555
Al3 O17 1.778416 1_555
Al3 O8 1.815963 1_545
Al3 O11 1.815963 1_555
Al3 O5 1.815963 1_445
O0 Ti0 2.148725 1_555
O0 Ti9 2.148734 1_555
O0 Ti3 2.148734 1_555
O1 Ti10 2.096147 1_555
O1 Ti4 2.096147 1_445
O1 Ti1 2.096151 1_455
O2 Ti11 1.959510 1_656
O2 Ti5 1.959510 1_556
O2 Ti2 1.959515 1_556
O3 Ti3 2.082711 1_555
O3 Ti0 2.082715 1_545
O3 Ti6 2.104040 1_555
O4 Ti7 1.912449 1_555
O4 Ti4 2.014495 1_555
O4 Ti1 2.014495 1_555
O5 Ti5 2.112526 1_566
O5 Ti2 2.112526 1_556
O5 Ti8 2.203569 1_555
O6 Ti3 2.082716 1_655
O6 Ti9 2.082716 1_545
O6 Ti6 2.104040 1_655
O7 Ti7 1.912457 1_555
O7 Ti4 2.014495 1_555
O7 Ti10 2.014495 1_555
O8 Ti5 2.112526 1_566
O8 Ti11 2.112526 1_556
O8 Ti8 2.203565 1_555
O9 Ti9 2.082711 1_555
O9 Ti0 2.082715 1_655
O9 Ti6 2.104040 1_665
O10 Ti7 1.912449 1_555
O10 Ti10 2.014495 1_555
O10 Ti1 2.014495 1_555
O11 Ti11 2.112526 1_556
O11 Ti2 2.112526 1_556
O11 Ti8 2.203569 1_555
O12 Ti4 2.082711 1_555
O12 Ti1 2.082715 1_565
O12 Ti6 2.104040 1_665
O13 Ti5 2.112526 1_555
O13 Ti2 2.112526 1_555
O13 Ti7 2.203569 1_555
O14 Ti8 1.912449 1_555
O14 Ti3 2.014495 1_555
O14 Ti0 2.014495 1_555
O15 Ti1 2.148725 1_555
O15 Ti4 2.148734 1_555
O15 Ti10 2.148734 1_555
O16 Ti11 1.959510 1_555
O16 Ti5 1.959510 1_565
O16 Ti2 1.959515 1_555
O17 Ti3 2.096147 1_555
O17 Ti9 2.096147 1_445
O17 Ti0 2.096151 1_545
O18 Ti10 2.082716 1_565
O18 Ti4 2.082716 1_455
O18 Ti6 2.104040 1_565
O19 Ti5 2.112526 1_555
O19 Ti11 2.112526 1_655
O19 Ti7 2.203565 1_555
O20 Ti8 1.912457 1_555
O20 Ti3 2.014495 1_555
O20 Ti9 2.014495 1_555
O21 Ti10 2.082711 1_555
O21 Ti1 2.082715 1_455
O21 Ti6 2.104040 1_555
O22 Ti11 2.112526 1_655
O22 Ti2 2.112526 1_555
O22 Ti7 2.203569 1_555
O23 Ti8 1.912449 1_555
O23 Ti9 2.014495 1_555
O23 Ti0 2.014495 1_555
