# generated using pymatgen
data_Ba3CaTi3O8
_symmetry_space_group_name_H-M   'P 1'
_cell_length_a   6.06359675
_cell_length_b   5.93973418
_cell_length_c   7.41517365
_cell_angle_alpha   88.80895886
_cell_angle_beta   89.20302099
_cell_angle_gamma   121.70414856
_symmetry_Int_Tables_number   1
_chemical_formula_structural   Ba3CaTi3O8
_chemical_formula_sum   'Ba3 Ca1 Ti3 O8'
_cell_volume   227.06665723
_cell_formula_units_Z   1
loop_
 _symmetry_equiv_pos_site_id
 _symmetry_equiv_pos_as_xyz
  1  'x, y, z'
loop_
 _atom_site_type_symbol
 _atom_site_label
 _atom_site_symmetry_multiplicity
 _atom_site_fract_x
 _atom_site_fract_y
 _atom_site_fract_z
 _atom_site_occupancy
  Ba  Ba0  1  0.08635200  0.01238500  0.06636700  1
  Ba  Ba1  1  0.24683700  0.65400600  0.60057300  1
  Ba  Ba2  1  0.66688300  0.33325100  0.33298700  1
  Ca  Ca0  1  0.66675000  0.83350600  0.83342900  1
  Ti  Ti0  1  0.98980700  0.02016200  0.50960000  1
  Ti  Ti1  1  0.34356500  0.64646000  0.15715200  1
  Ti  Ti2  1  0.66545800  0.33277000  0.83269500  1
  O  O0  1  0.03250500  0.51428600  0.00689100  1
  O  O1  1  0.16662600  0.33314000  0.33344100  1
  O  O2  1  0.50982200  0.00820100  0.01027900  1
  O  O3  1  0.66616200  0.83320400  0.33329800  1
  O  O4  1  0.30198200  0.15298300  0.66029600  1
  O  O5  1  0.51514500  0.48850900  0.01613500  1
  O  O6  1  0.82369000  0.65884300  0.65635300  1
  O  O7  1  0.81841300  0.17829500  0.65053700  1
loop_
_geom_bond_atom_site_label_1
_geom_bond_atom_site_label_2
_geom_bond_distance
_geom_bond_site_symmetry_2
Ba0 O2 2.608588 1_555
Ba0 O1 2.645308 1_555
Ba0 O5 2.664117 1_555
Ba0 O0 2.845559 1_545
Ba0 O3 2.909312 1_445
Ba0 O4 3.179917 1_554
Ba0 O0 3.187607 1_555
Ba1 O6 2.608381 1_455
Ba1 O1 2.646129 1_555
Ba1 O7 2.661640 1_455
Ba1 O4 2.847637 1_565
Ba1 O3 2.907456 1_555
Ba1 O0 3.179453 1_556
Ba1 O4 3.187382 1_555
Ba2 O5 2.842370 1_555
Ba2 O7 2.845148 1_555
Ba2 O2 2.946797 1_555
Ba2 O6 2.952481 1_555
Ba2 O3 2.967804 1_545
Ba2 O3 2.971937 1_555
Ba2 O0 3.025791 1_655
Ba2 O1 3.030635 1_655
Ba2 O4 3.030706 1_555
Ba2 O1 3.032965 1_555
Ca0 O7 2.179303 1_565
Ca0 O5 2.179380 1_556
Ca0 O2 2.182083 1_566
Ca0 O6 2.183010 1_555
O0 Ti1 1.988414 1_555
O0 Ti2 2.323803 1_454
O1 Ti0 2.019127 1_455
O1 Ti1 2.021029 1_555
O2 Ti2 2.070957 1_554
O2 Ti1 2.101087 1_545
O3 Ti1 2.147902 1_555
O3 Ti0 2.152816 1_565
O4 Ti0 1.995000 1_455
O4 Ti2 2.300750 1_555
O5 Ti1 2.022986 1_555
O5 Ti2 2.107293 1_554
O6 Ti2 2.070795 1_555
O6 Ti0 2.098801 1_565
O7 Ti0 2.022637 1_555
O7 Ti2 2.106572 1_555
