# generated using pymatgen
data_NiH12(BrO7)2
_symmetry_space_group_name_H-M   'P 1'
_cell_length_a   6.05306000
_cell_length_b   8.14406401
_cell_length_c   8.22597898
_cell_angle_alpha   119.09402626
_cell_angle_beta   89.63028339
_cell_angle_gamma   90.76505327
_symmetry_Int_Tables_number   1
_chemical_formula_structural   NiH12(BrO7)2
_chemical_formula_sum   'Ni1 H12 Br2 O14'
_cell_volume   354.31412725
_cell_formula_units_Z   1
loop_
 _symmetry_equiv_pos_site_id
 _symmetry_equiv_pos_as_xyz
  1  'x, y, z'
loop_
 _atom_site_type_symbol
 _atom_site_label
 _atom_site_symmetry_multiplicity
 _atom_site_fract_x
 _atom_site_fract_y
 _atom_site_fract_z
 _atom_site_occupancy
  Ni  Ni0  1  0.50000000  0.00000000  0.00000000  1
  H  H0  1  0.27596100  0.99741200  0.29449400  1
  H  H1  1  0.27032300  0.70912300  0.70310000  1
  H  H2  1  0.26653500  0.29289000  0.00414200  1
  H  H3  1  0.72403900  0.00258800  0.70550600  1
  H  H4  1  0.72967700  0.29087700  0.29690000  1
  H  H5  1  0.73346500  0.70711000  0.99585800  1
  H  H6  1  0.32178500  0.50349900  0.05587800  1
  H  H7  1  0.32717600  0.94286100  0.45066800  1
  H  H8  1  0.31582100  0.55403000  0.49502900  1
  H  H9  1  0.67821500  0.49650100  0.94412200  1
  H  H10  1  0.67282400  0.05713900  0.54933200  1
  H  H11  1  0.68417900  0.44597000  0.50497100  1
  Br  Br0  1  0.06202900  0.32363600  0.66569400  1
  Br  Br1  1  0.93797100  0.67636400  0.33430600  1
  O  O0  1  0.78099400  0.33982800  0.67043200  1
  O  O1  1  0.21900600  0.66017200  0.32956800  1
  O  O2  1  0.27214300  0.89081700  0.06283500  1
  O  O3  1  0.27818100  0.94131100  0.82927300  1
  O  O4  1  0.27412100  0.16592200  0.11291000  1
  O  O5  1  0.72785700  0.10918300  0.93716500  1
  O  O6  1  0.72181900  0.05868900  0.17072700  1
  O  O7  1  0.72587900  0.83407800  0.88709000  1
  O  O8  1  0.31624000  0.05124700  0.42953600  1
  O  O9  1  0.31336700  0.57372700  0.62275900  1
  O  O10  1  0.31380700  0.37523900  0.94997000  1
  O  O11  1  0.68376000  0.94875300  0.57046400  1
  O  O12  1  0.68663300  0.42627300  0.37724100  1
  O  O13  1  0.68619300  0.62476100  0.05003000  1
loop_
_geom_bond_atom_site_label_1
_geom_bond_atom_site_label_2
_geom_bond_distance
_geom_bond_site_symmetry_2
Ni0 O6 1.832482 1_555
Ni0 O3 1.832482 1_544
Ni0 O5 1.834427 1_554
Ni0 O2 1.834427 1_545
Ni0 O7 1.835873 1_544
Ni0 O4 1.835873 1_555
H0 O8 1.006313 1_565
H0 O2 1.666373 1_555
H1 O9 1.008614 1_555
H1 O3 1.656748 1_555
H2 O10 1.007022 1_554
H2 O4 1.665349 1_555
H3 O11 1.006313 1_545
H3 O5 1.666373 1_555
H4 O12 1.008614 1_555
H4 O6 1.656748 1_555
H5 O13 1.007022 1_556
H5 O7 1.665349 1_555
H6 O10 0.983175 1_554
H7 O8 0.982187 1_565
H8 O9 0.982794 1_555
H9 O13 0.983175 1_556
H10 O11 0.982187 1_545
H11 O12 0.982794 1_555
Br0 O0 1.706710 1_455
Br1 O1 1.706710 1_655
