# generated using pymatgen
data_KFe4(PO4)3
_symmetry_space_group_name_H-M   'P 1'
_cell_length_a   6.35114000
_cell_length_b   9.93671000
_cell_length_c   16.72077300
_cell_angle_alpha   90.00000000
_cell_angle_beta   90.00000000
_cell_angle_gamma   90.00000000
_symmetry_Int_Tables_number   1
_chemical_formula_structural   KFe4(PO4)3
_chemical_formula_sum   'K4 Fe16 P12 O48'
_cell_volume   1055.23855936
_cell_formula_units_Z   4
loop_
 _symmetry_equiv_pos_site_id
 _symmetry_equiv_pos_as_xyz
  1  'x, y, z'
loop_
 _atom_site_type_symbol
 _atom_site_label
 _atom_site_symmetry_multiplicity
 _atom_site_fract_x
 _atom_site_fract_y
 _atom_site_fract_z
 _atom_site_occupancy
  K  K0  1  0.00000000  0.29106300  0.46833900  1
  K  K1  1  0.00000000  0.70893700  0.53166100  1
  K  K2  1  0.50000000  0.79106300  0.03166100  1
  K  K3  1  0.50000000  0.20893700  0.96833900  1
  Fe  Fe0  1  0.50000000  0.03830100  0.40561600  1
  Fe  Fe1  1  0.50000000  0.96169900  0.59438400  1
  Fe  Fe2  1  0.00000000  0.53830100  0.09438400  1
  Fe  Fe3  1  0.00000000  0.46169900  0.90561600  1
  Fe  Fe4  1  0.50000000  0.48284600  0.36243800  1
  Fe  Fe5  1  0.50000000  0.51715400  0.63756200  1
  Fe  Fe6  1  0.00000000  0.98284600  0.13756200  1
  Fe  Fe7  1  0.00000000  0.01715400  0.86243800  1
  Fe  Fe8  1  0.24908300  0.75044500  0.29585700  1
  Fe  Fe9  1  0.24908300  0.24955500  0.70414300  1
  Fe  Fe10  1  0.25091700  0.25044500  0.20414300  1
  Fe  Fe11  1  0.25091700  0.74955500  0.79585700  1
  Fe  Fe12  1  0.75091700  0.24955500  0.70414300  1
  Fe  Fe13  1  0.75091700  0.75044500  0.29585700  1
  Fe  Fe14  1  0.74908300  0.74955500  0.79585700  1
  Fe  Fe15  1  0.74908300  0.25044500  0.20414300  1
  P  P0  1  0.00000000  0.04239800  0.33392200  1
  P  P1  1  0.00000000  0.95760200  0.66607800  1
  P  P2  1  0.50000000  0.54239800  0.16607800  1
  P  P3  1  0.50000000  0.45760200  0.83392200  1
  P  P4  1  0.00000000  0.45902300  0.28471000  1
  P  P5  1  0.00000000  0.54097700  0.71529000  1
  P  P6  1  0.50000000  0.95902300  0.21529000  1
  P  P7  1  0.50000000  0.04097700  0.78471000  1
  P  P8  1  0.50000000  0.71299600  0.46260400  1
  P  P9  1  0.50000000  0.28700400  0.53739600  1
  P  P10  1  0.00000000  0.21299600  0.03739600  1
  P  P11  1  0.00000000  0.78700400  0.96260400  1
  O  O0  1  0.00000000  0.88691500  0.31994500  1
  O  O1  1  0.00000000  0.11308500  0.68005500  1
  O  O2  1  0.50000000  0.38691500  0.18005500  1
  O  O3  1  0.50000000  0.61308500  0.81994500  1
  O  O4  1  0.00000000  0.61492300  0.27742600  1
  O  O5  1  0.00000000  0.38507700  0.72257400  1
  O  O6  1  0.50000000  0.11492300  0.22257400  1
  O  O7  1  0.50000000  0.88507700  0.77742600  1
  O  O8  1  0.19777100  0.08710400  0.37921400  1
  O  O9  1  0.19777100  0.91289600  0.62078600  1
  O  O10  1  0.30222900  0.58710400  0.12078600  1
  O  O11  1  0.30222900  0.41289600  0.87921400  1
  O  O12  1  0.80222900  0.91289600  0.62078600  1
  O  O13  1  0.80222900  0.08710400  0.37921400  1
  O  O14  1  0.69777100  0.41289600  0.87921400  1
  O  O15  1  0.69777100  0.58710400  0.12078600  1
  O  O16  1  0.50000000  0.89632100  0.30274100  1
  O  O17  1  0.50000000  0.10367900  0.69725900  1
  O  O18  1  0.00000000  0.39632100  0.19725900  1
  O  O19  1  0.00000000  0.60367900  0.80274100  1
  O  O20  1  0.00000000  0.11411700  0.24769300  1
  O  O21  1  0.00000000  0.88588300  0.75230700  1
  O  O22  1  0.50000000  0.61411700  0.25230700  1
  O  O23  1  0.50000000  0.38588300  0.74769300  1
  O  O24  1  0.50000000  0.35628600  0.45610900  1
  O  O25  1  0.50000000  0.64371400  0.54389100  1
  O  O26  1  0.00000000  0.85628600  0.04389100  1
  O  O27  1  0.00000000  0.14371400  0.95610900  1
  O  O28  1  0.30433700  0.66917000  0.41132300  1
  O  O29  1  0.30433700  0.33083000  0.58867700  1
  O  O30  1  0.19566300  0.16917000  0.08867700  1
  O  O31  1  0.19566300  0.83083000  0.91132300  1
  O  O32  1  0.69566300  0.33083000  0.58867700  1
  O  O33  1  0.69566300  0.66917000  0.41132300  1
  O  O34  1  0.80433700  0.83083000  0.91132300  1
  O  O35  1  0.80433700  0.16917000  0.08867700  1
  O  O36  1  0.79800500  0.40454400  0.32444100  1
  O  O37  1  0.79800500  0.59545600  0.67555900  1
  O  O38  1  0.70199500  0.90454400  0.17555900  1
  O  O39  1  0.70199500  0.09545600  0.82444100  1
  O  O40  1  0.20199500  0.59545600  0.67555900  1
  O  O41  1  0.20199500  0.40454400  0.32444100  1
  O  O42  1  0.29800500  0.09545600  0.82444100  1
  O  O43  1  0.29800500  0.90454400  0.17555900  1
  O  O44  1  0.50000000  0.86729600  0.47818600  1
  O  O45  1  0.50000000  0.13270400  0.52181400  1
  O  O46  1  0.00000000  0.36729600  0.02181400  1
  O  O47  1  0.00000000  0.63270400  0.97818600  1
loop_
_geom_bond_atom_site_label_1
_geom_bond_atom_site_label_2
_geom_bond_distance
_geom_bond_site_symmetry_2
K0 O8 2.811755 1_555
K0 O13 2.811755 1_455
K0 O32 2.817964 1_455
K0 O29 2.817964 1_555
K0 O41 2.950699 1_555
K0 O36 2.950699 1_455
K0 O24 3.247476 1_555
K0 O24 3.247476 1_455
K1 O12 2.811755 1_455
K1 O9 2.811755 1_555
K1 O33 2.817964 1_455
K1 O28 2.817964 1_555
K1 O37 2.950699 1_455
K1 O40 2.950699 1_555
K1 O25 3.247476 1_455
K1 O25 3.247476 1_555
K2 O15 2.811755 1_555
K2 O10 2.811755 1_555
K2 O34 2.817964 1_554
K2 O31 2.817964 1_554
K2 O43 2.950699 1_555
K2 O38 2.950699 1_555
K2 O26 3.247476 1_555
K2 O26 3.247476 1_655
K3 O11 2.811755 1_555
K3 O14 2.811755 1_555
K3 O30 2.817964 1_556
K3 O35 2.817964 1_556
K3 O42 2.950699 1_555
K3 O39 2.950699 1_555
K3 O27 3.247476 1_655
K3 O27 3.247476 1_555
Fe0 O13 2.028431 1_555
Fe0 O8 2.028431 1_555
Fe0 O44 2.088008 1_545
Fe0 O45 2.157519 1_555
Fe0 O16 2.224705 1_545
Fe1 O12 2.028431 1_555
Fe1 O9 2.028431 1_555
Fe1 O45 2.088008 1_565
Fe1 O44 2.157519 1_555
Fe1 O17 2.224705 1_565
Fe2 O10 2.028431 1_555
Fe2 O15 2.028431 1_455
Fe2 O46 2.088008 1_555
Fe2 O47 2.157519 1_554
Fe2 O18 2.224705 1_555
Fe3 O14 2.028431 1_455
Fe3 O11 2.028431 1_555
Fe3 O47 2.088008 1_555
Fe3 O46 2.157519 1_556
Fe3 O19 2.224705 1_555
Fe4 O24 2.008650 1_555
Fe4 O41 2.142719 1_555
Fe4 O36 2.142719 1_555
Fe4 O22 2.256656 1_555
Fe4 O28 2.374922 1_555
Fe4 O33 2.374922 1_555
Fe5 O25 2.008650 1_555
Fe5 O40 2.142719 1_555
Fe5 O37 2.142719 1_555
Fe5 O23 2.256656 1_555
Fe5 O29 2.374922 1_555
Fe5 O32 2.374922 1_555
Fe6 O26 2.008650 1_555
Fe6 O38 2.142719 1_455
Fe6 O43 2.142719 1_555
Fe6 O20 2.256656 1_565
Fe6 O30 2.374922 1_565
Fe6 O35 2.374922 1_465
Fe7 O27 2.008650 1_555
Fe7 O42 2.142719 1_555
Fe7 O39 2.142719 1_455
Fe7 O21 2.256656 1_545
Fe7 O34 2.374922 1_445
Fe7 O31 2.374922 1_545
Fe8 O4 2.100243 1_555
Fe8 O28 2.122005 1_555
Fe8 O0 2.122199 1_555
Fe8 O16 2.157306 1_555
Fe8 O22 2.214708 1_555
Fe8 O43 2.547010 1_555
Fe9 O5 2.100243 1_555
Fe9 O29 2.122005 1_555
Fe9 O1 2.122199 1_555
Fe9 O17 2.157306 1_555
Fe9 O23 2.214708 1_555
Fe9 O42 2.547010 1_555
Fe10 O6 2.100243 1_555
Fe10 O30 2.122005 1_555
Fe10 O2 2.122199 1_555
Fe10 O18 2.157306 1_555
Fe10 O20 2.214708 1_555
Fe10 O41 2.547010 1_555
Fe11 O7 2.100243 1_555
Fe11 O31 2.122005 1_555
Fe11 O3 2.122199 1_555
Fe11 O19 2.157306 1_555
Fe11 O21 2.214708 1_555
Fe11 O40 2.547010 1_555
Fe12 O5 2.100243 1_655
Fe12 O32 2.122005 1_555
Fe12 O1 2.122199 1_655
Fe12 O17 2.157306 1_555
Fe12 O23 2.214708 1_555
Fe12 O39 2.547010 1_555
Fe13 O4 2.100243 1_655
Fe13 O33 2.122005 1_555
Fe13 O0 2.122199 1_655
Fe13 O16 2.157306 1_555
Fe13 O22 2.214708 1_555
Fe13 O38 2.547010 1_555
Fe14 O7 2.100243 1_555
Fe14 O34 2.122005 1_555
Fe14 O3 2.122199 1_555
Fe14 O19 2.157306 1_655
Fe14 O21 2.214708 1_655
Fe14 O37 2.547010 1_555
Fe15 O6 2.100243 1_555
Fe15 O35 2.122005 1_555
Fe15 O2 2.122199 1_555
Fe15 O18 2.157306 1_655
Fe15 O20 2.214708 1_655
Fe15 O36 2.547010 1_555
O0 P0 1.562566 1_565
O1 P1 1.562566 1_545
O2 P2 1.562566 1_555
O3 P3 1.562566 1_555
O4 P4 1.553913 1_555
O5 P5 1.553913 1_555
O6 P6 1.553913 1_545
O7 P7 1.553913 1_565
O8 P0 1.532509 1_555
O9 P1 1.532509 1_555
O10 P2 1.532509 1_555
O11 P3 1.532509 1_555
O12 P1 1.532509 1_655
O13 P0 1.532509 1_655
O14 P3 1.532509 1_555
O15 P2 1.532509 1_555
O16 P6 1.589454 1_555
O17 P7 1.589454 1_555
O18 P4 1.589454 1_555
O19 P5 1.589454 1_555
O20 P0 1.608323 1_555
O21 P1 1.608323 1_555
O22 P2 1.608323 1_555
O23 P3 1.608323 1_555
O24 P9 1.523587 1_555
O25 P8 1.523587 1_555
O26 P11 1.523587 1_554
O27 P10 1.523587 1_556
O28 P8 1.571351 1_555
O29 P9 1.571351 1_555
O30 P10 1.571351 1_555
O31 P11 1.571351 1_555
O32 P9 1.571351 1_555
O33 P8 1.571351 1_555
O34 P11 1.571351 1_655
O35 P10 1.571351 1_655
O36 P4 1.542796 1_655
O37 P5 1.542796 1_655
O38 P6 1.542796 1_555
O39 P7 1.542796 1_555
O40 P5 1.542796 1_555
O41 P4 1.542796 1_555
O42 P7 1.542796 1_555
O43 P6 1.542796 1_555
O44 P8 1.555214 1_555
O45 P9 1.555214 1_555
O46 P10 1.555214 1_555
O47 P11 1.555214 1_555
