# generated using pymatgen
data_Cr5Cu2(PO4)6
_symmetry_space_group_name_H-M   'P 1'
_cell_length_a   6.33404700
_cell_length_b   8.02089416
_cell_length_c   9.36356207
_cell_angle_alpha   106.03140442
_cell_angle_beta   108.02200660
_cell_angle_gamma   101.52073911
_symmetry_Int_Tables_number   1
_chemical_formula_structural   Cr5Cu2(PO4)6
_chemical_formula_sum   'Cr5 Cu2 P6 O24'
_cell_volume   413.07631015
_cell_formula_units_Z   1
loop_
 _symmetry_equiv_pos_site_id
 _symmetry_equiv_pos_as_xyz
  1  'x, y, z'
loop_
 _atom_site_type_symbol
 _atom_site_label
 _atom_site_symmetry_multiplicity
 _atom_site_fract_x
 _atom_site_fract_y
 _atom_site_fract_z
 _atom_site_occupancy
  Cr  Cr0  1  0.05004400  0.21395000  0.02160400  1
  Cr  Cr1  1  0.94995600  0.78605000  0.97839600  1
  Cr  Cr2  1  0.62008200  0.03906600  0.38989200  1
  Cr  Cr3  1  0.37991800  0.96093400  0.61010800  1
  Cr  Cr4  1  0.00000000  0.50000000  0.50000000  1
  Cu  Cu0  1  0.29585900  0.32737100  0.79822500  1
  Cu  Cu1  1  0.70414100  0.67262900  0.20177500  1
  P  P0  1  0.60804100  0.26149900  0.13571100  1
  P  P1  1  0.39195900  0.73850100  0.86428900  1
  P  P2  1  0.09571900  0.10108700  0.33557400  1
  P  P3  1  0.90428100  0.89891300  0.66442600  1
  P  P4  1  0.22030900  0.64421500  0.26432800  1
  P  P5  1  0.77969100  0.35578500  0.73567200  1
  O  O0  1  0.31552100  0.04695900  0.42005500  1
  O  O1  1  0.68447900  0.95304100  0.57994500  1
  O  O2  1  0.21534100  0.69256800  0.44061800  1
  O  O3  1  0.78465900  0.30743200  0.55938200  1
  O  O4  1  0.00951900  0.68717100  0.15801000  1
  O  O5  1  0.99048100  0.31282900  0.84199000  1
  O  O6  1  0.20504900  0.44635400  0.20162000  1
  O  O7  1  0.79495100  0.55364600  0.79838000  1
  O  O8  1  0.12576400  0.30027300  0.41704100  1
  O  O9  1  0.87423600  0.69972700  0.58295900  1
  O  O10  1  0.55283500  0.12987300  0.21879000  1
  O  O11  1  0.44716500  0.87012700  0.78121000  1
  O  O12  1  0.74085300  0.45754900  0.27436000  1
  O  O13  1  0.25914700  0.54245100  0.72564000  1
  O  O14  1  0.37215900  0.25676500  0.01265400  1
  O  O15  1  0.62784100  0.74323500  0.98734600  1
  O  O16  1  0.11683900  0.02489600  0.65706400  1
  O  O17  1  0.88316100  0.97510400  0.34293600  1
  O  O18  1  0.07431900  0.05226300  0.15646000  1
  O  O19  1  0.92568100  0.94773700  0.84354000  1
  O  O20  1  0.45276400  0.76316600  0.26998400  1
  O  O21  1  0.54723600  0.23683400  0.73001600  1
  O  O22  1  0.75086100  0.21151000  0.03597100  1
  O  O23  1  0.24913900  0.78849000  0.96402900  1
loop_
_geom_bond_atom_site_label_1
_geom_bond_atom_site_label_2
_geom_bond_distance
_geom_bond_site_symmetry_2
Cr0 O22 1.937534 1_455
Cr0 O6 1.946653 1_555
Cr0 O5 2.015816 1_454
Cr0 O14 2.032133 1_555
Cr0 O18 2.040595 1_555
Cr0 O19 2.123414 1_444
Cr1 O23 1.937534 1_655
Cr1 O7 1.946653 1_555
Cr1 O4 2.015816 1_656
Cr1 O15 2.032133 1_555
Cr1 O19 2.040595 1_555
Cr1 O18 2.123414 1_666
Cr2 O10 1.903921 1_555
Cr2 O17 1.975726 1_545
Cr2 O1 2.037360 1_545
Cr2 O0 2.044812 1_555
Cr2 O20 2.058048 1_545
Cr2 O3 2.105217 1_555
Cr3 O11 1.903921 1_555
Cr3 O16 1.975726 1_565
Cr3 O0 2.037360 1_565
Cr3 O1 2.044812 1_555
Cr3 O21 2.058048 1_565
Cr3 O2 2.105217 1_555
Cr4 O9 2.002410 1_455
Cr4 O8 2.002410 1_555
Cr4 O13 2.123133 1_555
Cr4 O12 2.123133 1_455
Cr4 O2 2.158099 1_555
Cr4 O3 2.158099 1_455
Cu0 O13 2.049912 1_555
Cu0 O21 2.074945 1_555
Cu0 O5 2.085599 1_455
Cu0 O14 2.173148 1_556
Cu0 O16 2.263060 1_555
Cu1 O12 2.049912 1_555
Cu1 O20 2.074945 1_555
Cu1 O4 2.085599 1_655
Cu1 O15 2.173148 1_554
Cu1 O17 2.263060 1_555
O0 P2 1.581846 1_555
O1 P3 1.581846 1_555
O2 P4 1.599887 1_555
O3 P5 1.599887 1_555
O4 P4 1.563061 1_555
O5 P5 1.563061 1_555
O6 P4 1.503885 1_555
O7 P5 1.503885 1_555
O8 P2 1.512015 1_555
O9 P3 1.512015 1_555
O10 P0 1.522013 1_555
O11 P1 1.522013 1_555
O12 P0 1.591893 1_555
O13 P1 1.591893 1_555
O14 P0 1.565041 1_555
O15 P1 1.565041 1_555
O16 P3 1.546280 1_445
O17 P2 1.546280 1_665
O18 P2 1.568412 1_555
O19 P3 1.568412 1_555
O20 P4 1.563237 1_555
O21 P5 1.563237 1_555
O22 P0 1.520576 1_555
O23 P1 1.520576 1_555
