# generated using pymatgen
data_NdEu(GeO3)4
_symmetry_space_group_name_H-M   'P 1'
_cell_length_a   6.75701780
_cell_length_b   6.75701780
_cell_length_c   9.52475898
_cell_angle_alpha   90.00000000
_cell_angle_beta   90.00000000
_cell_angle_gamma   90.00000000
_symmetry_Int_Tables_number   1
_chemical_formula_structural   NdEu(GeO3)4
_chemical_formula_sum   'Nd1 Eu1 Ge4 O12'
_cell_volume   434.87467864
_cell_formula_units_Z   1
loop_
 _symmetry_equiv_pos_site_id
 _symmetry_equiv_pos_as_xyz
  1  'x, y, z'
loop_
 _atom_site_type_symbol
 _atom_site_label
 _atom_site_symmetry_multiplicity
 _atom_site_fract_x
 _atom_site_fract_y
 _atom_site_fract_z
 _atom_site_occupancy
  Nd  Nd0  1  -0.00000000  -0.00000000  0.00000000  1
  Eu  Eu0  1  0.50000000  0.50000000  0.50000000  1
  Ge  Ge0  1  -0.00000000  0.50000000  0.74483613  1
  Ge  Ge1  1  -0.00000000  0.50000000  0.25516387  1
  Ge  Ge2  1  0.50000000  0.00000000  0.74483613  1
  Ge  Ge3  1  0.50000000  -0.00000000  0.25516387  1
  O  O0  1  0.24628190  0.24628190  0.75322467  1
  O  O1  1  0.24628190  0.24628190  0.24677533  1
  O  O2  1  0.75371810  0.75371810  0.24677533  1
  O  O3  1  0.75371810  0.75371810  0.75322467  1
  O  O4  1  0.75371810  0.24628190  0.75322467  1
  O  O5  1  0.75371810  0.24628190  0.24677533  1
  O  O6  1  0.24628190  0.75371810  0.24677533  1
  O  O7  1  0.24628190  0.75371810  0.75322467  1
  O  O8  1  -0.00000000  0.50000000  0.50000000  1
  O  O9  1  -0.00000000  0.50000000  0.00000000  1
  O  O10  1  0.50000000  0.00000000  0.50000000  1
  O  O11  1  0.50000000  0.00000000  0.00000000  1
loop_
_geom_bond_atom_site_label_1
_geom_bond_atom_site_label_2
_geom_bond_distance
_geom_bond_site_symmetry_2
Nd0 O0 3.326169 1_554
Nd0 O5 3.326169 1_455
Nd0 O3 3.326169 1_444
Nd0 O6 3.326169 1_545
Nd0 O7 3.326169 1_544
Nd0 O4 3.326169 1_454
Nd0 O1 3.326169 1_555
Nd0 O2 3.326169 1_445
Nd0 O11 3.378509 1_555
Nd0 O9 3.378509 1_545
Nd0 O9 3.378509 1_555
Nd0 O11 3.378509 1_455
Eu0 O10 3.378509 1_565
Eu0 O8 3.378509 1_555
Eu0 O8 3.378509 1_655
Eu0 O10 3.378509 1_555
Eu0 O4 3.419863 1_555
Eu0 O7 3.419863 1_555
Eu0 O5 3.419863 1_555
Eu0 O2 3.419863 1_555
Eu0 O6 3.419863 1_555
Eu0 O3 3.419863 1_555
Eu0 O1 3.419863 1_555
Eu0 O0 3.419863 1_555
Ge0 O8 2.332005 1_555
Ge0 O7 2.390566 1_555
Ge0 O0 2.390566 1_555
Ge0 O3 2.390566 1_455
Ge0 O4 2.390566 1_455
Ge0 O9 2.430374 1_556
Ge1 O8 2.332005 1_555
Ge1 O6 2.390566 1_555
Ge1 O1 2.390566 1_555
Ge1 O2 2.390566 1_455
Ge1 O5 2.390566 1_455
Ge1 O9 2.430374 1_555
Ge2 O10 2.332005 1_555
Ge2 O4 2.390566 1_555
Ge2 O0 2.390566 1_555
Ge2 O3 2.390566 1_545
Ge2 O7 2.390566 1_545
Ge2 O11 2.430374 1_556
Ge3 O10 2.332005 1_555
Ge3 O5 2.390566 1_555
Ge3 O2 2.390566 1_545
Ge3 O1 2.390566 1_555
Ge3 O6 2.390566 1_545
Ge3 O11 2.430374 1_555
