# generated using pymatgen
data_SrMg6Ti
_symmetry_space_group_name_H-M   'P 1'
_cell_length_a   6.62507900
_cell_length_b   6.62507900
_cell_length_c   4.57826400
_cell_angle_alpha   90.00000000
_cell_angle_beta   90.00000000
_cell_angle_gamma   90.00000000
_symmetry_Int_Tables_number   1
_chemical_formula_structural   SrMg6Ti
_chemical_formula_sum   'Sr1 Mg6 Ti1'
_cell_volume   200.94766070
_cell_formula_units_Z   1
loop_
 _symmetry_equiv_pos_site_id
 _symmetry_equiv_pos_as_xyz
  1  'x, y, z'
loop_
 _atom_site_type_symbol
 _atom_site_label
 _atom_site_symmetry_multiplicity
 _atom_site_fract_x
 _atom_site_fract_y
 _atom_site_fract_z
 _atom_site_occupancy
  Sr  Sr0  1  0.00000000  0.00000000  0.50000000  1
  Mg  Mg0  1  0.50000000  0.00000000  0.50000000  1
  Mg  Mg1  1  0.00000000  0.50000000  0.50000000  1
  Mg  Mg2  1  0.27740800  0.72259200  0.00000000  1
  Mg  Mg3  1  0.72259200  0.27740800  0.00000000  1
  Mg  Mg4  1  0.27740800  0.27740800  0.00000000  1
  Mg  Mg5  1  0.72259200  0.72259200  0.00000000  1
  Ti  Ti0  1  0.50000000  0.50000000  0.50000000  1
loop_
_geom_bond_atom_site_label_1
_geom_bond_atom_site_label_2
_geom_bond_distance
_geom_bond_site_symmetry_2
Mg0 Mg2 3.285198 1_546
Mg0 Mg4 3.285198 1_556
Mg0 Mg4 3.285198 1_555
Mg0 Mg3 3.285198 1_556
Mg0 Mg2 3.285198 1_545
Mg0 Mg3 3.285198 1_555
Mg0 Mg5 3.285198 1_545
Mg0 Mg5 3.285198 1_546
Mg0 Sr0 3.312539 1_555
Mg0 Sr0 3.312539 1_655
Mg0 Ti0 3.312539 1_555
Mg0 Ti0 3.312539 1_545
Mg1 Mg5 3.285198 1_456
Mg1 Mg5 3.285198 1_455
Mg1 Mg4 3.285198 1_556
Mg1 Mg4 3.285198 1_555
Mg1 Mg3 3.285198 1_456
Mg1 Mg2 3.285198 1_556
Mg1 Mg3 3.285198 1_455
Mg1 Mg2 3.285198 1_555
Mg1 Ti0 3.312539 1_455
Mg1 Sr0 3.312539 1_555
Mg1 Ti0 3.312539 1_555
Mg1 Sr0 3.312539 1_565
Mg2 Mg4 2.949379 1_555
Mg2 Mg5 2.949379 1_555
Mg2 Ti0 3.096699 1_554
Mg2 Ti0 3.096699 1_555
Mg2 Sr0 3.463453 1_565
Mg2 Sr0 3.463453 1_564
Mg3 Mg4 2.949379 1_555
Mg3 Mg5 2.949379 1_555
Mg3 Ti0 3.096699 1_554
Mg3 Ti0 3.096699 1_555
Mg3 Sr0 3.463453 1_654
Mg3 Sr0 3.463453 1_655
Mg4 Ti0 3.096699 1_554
Mg4 Ti0 3.096699 1_555
Mg4 Sr0 3.463453 1_555
Mg4 Sr0 3.463453 1_554
Mg5 Ti0 3.096699 1_554
Mg5 Ti0 3.096699 1_555
Mg5 Sr0 3.463453 1_664
Mg5 Sr0 3.463453 1_665
