# generated using pymatgen
data_Cs2UC2S2(NO2)4
_symmetry_space_group_name_H-M   'P 1'
_cell_length_a   10.38167400
_cell_length_b   10.90330100
_cell_length_c   14.73619400
_cell_angle_alpha   90.00000000
_cell_angle_beta   90.00000000
_cell_angle_gamma   90.00000000
_symmetry_Int_Tables_number   1
_chemical_formula_structural   Cs2UC2S2(NO2)4
_chemical_formula_sum   'Cs8 U4 C8 S8 N16 O32'
_cell_volume   1668.05635497
_cell_formula_units_Z   4
loop_
 _symmetry_equiv_pos_site_id
 _symmetry_equiv_pos_as_xyz
  1  'x, y, z'
loop_
 _atom_site_type_symbol
 _atom_site_label
 _atom_site_symmetry_multiplicity
 _atom_site_fract_x
 _atom_site_fract_y
 _atom_site_fract_z
 _atom_site_occupancy
  Cs  Cs0  1  0.51856300  0.75000000  0.46280300  1
  Cs  Cs1  1  0.98143700  0.75000000  0.96280300  1
  Cs  Cs2  1  0.48143700  0.25000000  0.53719700  1
  Cs  Cs3  1  0.01856300  0.25000000  0.03719700  1
  Cs  Cs4  1  0.03372900  0.75000000  0.31406400  1
  Cs  Cs5  1  0.46627100  0.75000000  0.81406400  1
  Cs  Cs6  1  0.96627100  0.25000000  0.68593600  1
  Cs  Cs7  1  0.53372900  0.25000000  0.18593600  1
  U  U0  1  0.60534500  0.75000000  0.12042400  1
  U  U1  1  0.89465500  0.75000000  0.62042400  1
  U  U2  1  0.39465500  0.25000000  0.87957600  1
  U  U3  1  0.10534500  0.25000000  0.37957600  1
  C  C0  1  0.31554900  0.58517000  0.09973500  1
  C  C1  1  0.18445100  0.91483000  0.59973500  1
  C  C2  1  0.68445100  0.08517000  0.90026500  1
  C  C3  1  0.81554900  0.41483000  0.40026500  1
  C  C4  1  0.68445100  0.41483000  0.90026500  1
  C  C5  1  0.81554900  0.08517000  0.40026500  1
  C  C6  1  0.31554900  0.91483000  0.09973500  1
  C  C7  1  0.18445100  0.58517000  0.59973500  1
  S  S0  1  0.17020300  0.53640800  0.11378600  1
  S  S1  1  0.32979700  0.96359200  0.61378600  1
  S  S2  1  0.82979700  0.03640800  0.88621400  1
  S  S3  1  0.67020300  0.46359200  0.38621400  1
  S  S4  1  0.82979700  0.46359200  0.88621400  1
  S  S5  1  0.67020300  0.03640800  0.38621400  1
  S  S6  1  0.17020300  0.96359200  0.11378600  1
  S  S7  1  0.32979700  0.53640800  0.61378600  1
  N  N0  1  0.42247300  0.62317000  0.09094300  1
  N  N1  1  0.07752700  0.87683000  0.59094300  1
  N  N2  1  0.57752700  0.12317000  0.90905700  1
  N  N3  1  0.92247300  0.37683000  0.40905700  1
  N  N4  1  0.57752700  0.37683000  0.90905700  1
  N  N5  1  0.92247300  0.12317000  0.40905700  1
  N  N6  1  0.42247300  0.87683000  0.09094300  1
  N  N7  1  0.07752700  0.62317000  0.59094300  1
  N  N8  1  0.77098800  0.52304300  0.14585400  1
  N  N9  1  0.72901200  0.97695700  0.64585400  1
  N  N10  1  0.22901200  0.02304300  0.85414600  1
  N  N11  1  0.27098800  0.47695700  0.35414600  1
  N  N12  1  0.22901200  0.47695700  0.85414600  1
  N  N13  1  0.27098800  0.02304300  0.35414600  1
  N  N14  1  0.77098800  0.97695700  0.14585400  1
  N  N15  1  0.72901200  0.52304300  0.64585400  1
  O  O0  1  0.64814800  0.75000000  0.00064700  1
  O  O1  1  0.85185200  0.75000000  0.50064700  1
  O  O2  1  0.35185200  0.25000000  0.99935300  1
  O  O3  1  0.14814800  0.25000000  0.49935300  1
  O  O4  1  0.57482500  0.75000000  0.24106800  1
  O  O5  1  0.92517500  0.75000000  0.74106800  1
  O  O6  1  0.42517500  0.25000000  0.75893200  1
  O  O7  1  0.07482500  0.25000000  0.25893200  1
  O  O8  1  0.64999000  0.51852500  0.12916600  1
  O  O9  1  0.85001000  0.98147500  0.62916600  1
  O  O10  1  0.35001000  0.01852500  0.87083400  1
  O  O11  1  0.14999000  0.48147500  0.37083400  1
  O  O12  1  0.35001000  0.48147500  0.87083400  1
  O  O13  1  0.14999000  0.01852500  0.37083400  1
  O  O14  1  0.64999000  0.98147500  0.12916600  1
  O  O15  1  0.85001000  0.51852500  0.62916600  1
  O  O16  1  0.81909100  0.63196600  0.15135700  1
  O  O17  1  0.68090900  0.86803400  0.65135700  1
  O  O18  1  0.18090900  0.13196600  0.84864300  1
  O  O19  1  0.31909100  0.36803400  0.34864300  1
  O  O20  1  0.18090900  0.36803400  0.84864300  1
  O  O21  1  0.31909100  0.13196600  0.34864300  1
  O  O22  1  0.81909100  0.86803400  0.15135700  1
  O  O23  1  0.68090900  0.63196600  0.65135700  1
  O  O24  1  0.83686400  0.42988300  0.15604000  1
  O  O25  1  0.66313600  0.07011700  0.65604000  1
  O  O26  1  0.16313600  0.92988300  0.84396000  1
  O  O27  1  0.33686400  0.57011700  0.34396000  1
  O  O28  1  0.16313600  0.57011700  0.84396000  1
  O  O29  1  0.33686400  0.92988300  0.34396000  1
  O  O30  1  0.83686400  0.07011700  0.15604000  1
  O  O31  1  0.66313600  0.42988300  0.65604000  1
loop_
_geom_bond_atom_site_label_1
_geom_bond_atom_site_label_2
_geom_bond_distance
_geom_bond_site_symmetry_2
Cs0 O29 3.236059 1_555
Cs0 O27 3.236059 1_555
Cs0 O4 3.319325 1_555
Cs0 O23 3.495334 1_555
Cs0 O17 3.495334 1_555
Cs0 O1 3.504751 1_555
Cs0 S5 3.674777 1_565
Cs0 S3 3.674777 1_555
Cs0 S7 3.770183 1_555
Cs0 S1 3.770183 1_555
Cs1 O28 3.236059 1_655
Cs1 O26 3.236059 1_655
Cs1 O5 3.319325 1_555
Cs1 O22 3.495334 1_556
Cs1 O16 3.495334 1_556
Cs1 O0 3.504751 1_556
Cs1 S2 3.674777 1_565
Cs1 S4 3.674777 1_555
Cs1 S6 3.770183 1_656
Cs1 S0 3.770183 1_656
Cs2 O31 3.236059 1_555
Cs2 O25 3.236059 1_555
Cs2 O6 3.319325 1_555
Cs2 O21 3.495334 1_555
Cs2 O19 3.495334 1_555
Cs2 O3 3.504751 1_555
Cs2 S1 3.674777 1_545
Cs2 S7 3.674777 1_555
Cs2 S5 3.770183 1_555
Cs2 S3 3.770183 1_555
Cs3 O24 3.236059 1_455
Cs3 O30 3.236059 1_455
Cs3 O7 3.319325 1_555
Cs3 O20 3.495334 1_554
Cs3 O18 3.495334 1_554
Cs3 O2 3.504751 1_554
Cs3 S6 3.674777 1_545
Cs3 S0 3.674777 1_555
Cs3 S4 3.770183 1_454
Cs3 S2 3.770183 1_454
Cs4 O13 3.275474 1_565
Cs4 O11 3.275474 1_555
Cs4 O1 3.335436 1_455
Cs4 O22 3.517168 1_455
Cs4 O16 3.517168 1_455
Cs4 O29 3.734270 1_555
Cs4 O27 3.734270 1_555
Cs4 S6 4.017632 1_555
Cs4 S0 4.017632 1_555
Cs5 O10 3.275474 1_565
Cs5 O12 3.275474 1_555
Cs5 O0 3.335436 1_556
Cs5 O23 3.517168 1_555
Cs5 O17 3.517168 1_555
Cs5 O26 3.734270 1_555
Cs5 O28 3.734270 1_555
Cs5 S7 4.017632 1_555
Cs5 S1 4.017632 1_555
Cs6 O15 3.275474 1_555
Cs6 O9 3.275474 1_545
Cs6 O3 3.335436 1_655
Cs6 O20 3.517168 1_655
Cs6 O18 3.517168 1_655
Cs6 O25 3.734270 1_555
Cs6 O31 3.734270 1_555
Cs6 S4 4.017632 1_555
Cs6 S2 4.017632 1_555
Cs7 O14 3.275474 1_545
Cs7 O8 3.275474 1_555
Cs7 O2 3.335436 1_554
Cs7 O19 3.517168 1_555
Cs7 O21 3.517168 1_555
Cs7 O24 3.734270 1_555
Cs7 O30 3.734270 1_555
Cs7 S3 4.017632 1_555
Cs7 S5 4.017632 1_555
C0 N0 1.191916 1_555
C0 S0 1.613204 1_555
C1 N1 1.191916 1_555
C1 S1 1.613204 1_555
C2 N2 1.191916 1_555
C2 S2 1.613204 1_555
C3 N3 1.191916 1_555
C3 S3 1.613204 1_555
C4 N4 1.191916 1_555
C4 S4 1.613204 1_555
C5 N5 1.191916 1_555
C5 S5 1.613204 1_555
C6 N6 1.191916 1_555
C6 S6 1.613204 1_555
C7 N7 1.191916 1_555
C7 S7 1.613204 1_555
N0 U0 2.388603 1_555
N1 U1 2.388603 1_455
N2 U2 2.388603 1_555
N3 U3 2.388603 1_655
N4 U2 2.388603 1_555
N5 U3 2.388603 1_655
N6 U0 2.388603 1_555
N7 U1 2.388603 1_455
N8 O24 1.233696 1_555
N8 O8 1.280955 1_555
N8 O16 1.290894 1_555
N9 O25 1.233696 1_565
N9 O9 1.280955 1_555
N9 O17 1.290894 1_555
N10 O26 1.233696 1_545
N10 O10 1.280955 1_555
N10 O18 1.290894 1_555
N11 O27 1.233696 1_555
N11 O11 1.280955 1_555
N11 O19 1.290894 1_555
N12 O28 1.233696 1_555
N12 O12 1.280955 1_555
N12 O20 1.290894 1_555
N13 O29 1.233696 1_545
N13 O13 1.280955 1_555
N13 O21 1.290894 1_555
N14 O30 1.233696 1_565
N14 O14 1.280955 1_555
N14 O22 1.290894 1_555
N15 O31 1.233696 1_555
N15 O15 1.280955 1_555
N15 O23 1.290894 1_555
O0 U0 1.820134 1_555
O1 U1 1.820134 1_555
O2 U2 1.820134 1_555
O3 U3 1.820134 1_555
O4 U0 1.805847 1_555
O5 U1 1.805847 1_555
O6 U2 1.805847 1_555
O7 U3 1.805847 1_555
