# generated using pymatgen
data_K2RbLuV2O8
_symmetry_space_group_name_H-M   'P 1'
_cell_length_a   5.96356407
_cell_length_b   5.96356407
_cell_length_c   7.76894100
_cell_angle_alpha   90.00000000
_cell_angle_beta   90.00000000
_cell_angle_gamma   120.00000076
_symmetry_Int_Tables_number   1
_chemical_formula_structural   K2RbLuV2O8
_chemical_formula_sum   'K2 Rb1 Lu1 V2 O8'
_cell_volume   239.27880462
_cell_formula_units_Z   1
loop_
 _symmetry_equiv_pos_site_id
 _symmetry_equiv_pos_as_xyz
  1  'x, y, z'
loop_
 _atom_site_type_symbol
 _atom_site_label
 _atom_site_symmetry_multiplicity
 _atom_site_fract_x
 _atom_site_fract_y
 _atom_site_fract_z
 _atom_site_occupancy
  K  K0  1  0.33333300  0.66666700  0.70147800  1
  K  K1  1  0.66666700  0.33333300  0.29852200  1
  Rb  Rb0  1  0.00000000  0.00000000  0.00000000  1
  Lu  Lu0  1  0.00000000  0.00000000  0.50000000  1
  V  V0  1  0.33333300  0.66666700  0.25437200  1
  V  V1  1  0.66666700  0.33333300  0.74562800  1
  O  O0  1  0.33333300  0.66666700  0.03763300  1
  O  O1  1  0.66666700  0.33333300  0.96236700  1
  O  O2  1  0.17232400  0.82767600  0.33161500  1
  O  O3  1  0.82767600  0.17232400  0.66838500  1
  O  O4  1  0.17232400  0.34464700  0.33161500  1
  O  O5  1  0.82767600  0.65535300  0.66838500  1
  O  O6  1  0.65535300  0.82767600  0.33161500  1
  O  O7  1  0.34464700  0.17232400  0.66838500  1
loop_
_geom_bond_atom_site_label_1
_geom_bond_atom_site_label_2
_geom_bond_distance
_geom_bond_site_symmetry_2
K0 O0 2.611568 1_556
K0 O3 2.993416 1_565
K0 O3 2.993416 1_455
K0 O7 2.993416 1_565
K0 O5 2.993416 1_455
K0 O7 2.993416 1_555
K0 O5 2.993416 1_555
K1 O1 2.611568 1_554
K1 O2 2.993416 1_655
K1 O2 2.993416 1_545
K1 O4 2.993416 1_655
K1 O6 2.993416 1_545
K1 O4 2.993416 1_555
K1 O6 2.993416 1_555
Lu0 O7 2.208978 1_555
Lu0 O4 2.208978 1_555
Lu0 O6 2.208978 1_445
Lu0 O5 2.208978 1_445
Lu0 O3 2.208983 1_455
Lu0 O2 2.208983 1_545
O0 V0 1.683833 1_555
O0 Rb0 3.455453 1_565
O0 Rb0 3.455458 1_555
O0 Rb0 3.455458 1_665
O1 V1 1.683833 1_555
O1 Rb0 3.455453 1_656
O1 Rb0 3.455458 1_666
O1 Rb0 3.455458 1_556
O2 V0 1.768049 1_555
O2 Rb0 3.131389 1_565
O3 V1 1.768049 1_555
O3 Rb0 3.131389 1_656
O4 V0 1.768058 1_555
O4 Rb0 3.131386 1_555
O5 V1 1.768058 1_555
O5 Rb0 3.131386 1_666
O6 V0 1.768058 1_555
O6 Rb0 3.131386 1_665
O7 V1 1.768058 1_555
O7 Rb0 3.131386 1_556
