# generated using pymatgen
data_Li9Mn2Co5O16
_symmetry_space_group_name_H-M   'P 1'
_cell_length_a   2.98076500
_cell_length_b   7.77021291
_cell_length_c   12.56294062
_cell_angle_alpha   89.38745764
_cell_angle_beta   89.70394553
_cell_angle_gamma   81.25798350
_symmetry_Int_Tables_number   1
_chemical_formula_structural   Li9Mn2Co5O16
_chemical_formula_sum   'Li9 Mn2 Co5 O16'
_cell_volume   287.57391486
_cell_formula_units_Z   1
loop_
 _symmetry_equiv_pos_site_id
 _symmetry_equiv_pos_as_xyz
  1  'x, y, z'
loop_
 _atom_site_type_symbol
 _atom_site_label
 _atom_site_symmetry_multiplicity
 _atom_site_fract_x
 _atom_site_fract_y
 _atom_site_fract_z
 _atom_site_occupancy
  Li  Li0  1  0.05887100  0.37545800  0.68936300  1
  Li  Li1  1  0.81421500  0.87442400  0.94045900  1
  Li  Li2  1  0.55764400  0.38064500  0.18124500  1
  Li  Li3  1  0.69037700  0.12322200  0.56454300  1
  Li  Li4  1  0.44235600  0.61935500  0.81875500  1
  Li  Li5  1  0.18578500  0.12557600  0.05954100  1
  Li  Li6  1  0.30962300  0.87677800  0.43545700  1
  Li  Li7  1  0.94112900  0.62454200  0.31063700  1
  Li  Li8  1  0.00000000  0.50000000  0.00000000  1
  Mn  Mn0  1  0.87611500  0.74711900  0.62654800  1
  Mn  Mn1  1  0.12388500  0.25288100  0.37345200  1
  Co  Co0  1  0.61934400  0.26333800  0.88015800  1
  Co  Co1  1  0.38065600  0.73666200  0.11984200  1
  Co  Co2  1  0.50000000  0.50000000  0.50000000  1
  Co  Co3  1  0.24493800  0.00301400  0.75563300  1
  Co  Co4  1  0.75506200  0.99698600  0.24436700  1
  O  O0  1  0.50082800  0.56629400  0.64788800  1
  O  O1  1  0.24692600  0.06956100  0.89810900  1
  O  O2  1  0.98457500  0.57382400  0.15373800  1
  O  O3  1  0.06630700  0.33387500  0.52303300  1
  O  O4  1  0.82832800  0.81762100  0.77520500  1
  O  O5  1  0.60255300  0.30284100  0.01745100  1
  O  O6  1  0.75568200  0.06430200  0.39813600  1
  O  O7  1  0.33565700  0.81680400  0.26897100  1
  O  O8  1  0.66434300  0.18319600  0.73102900  1
  O  O9  1  0.39744700  0.69715900  0.98254900  1
  O  O10  1  0.17167200  0.18237900  0.22479500  1
  O  O11  1  0.24431800  0.93569800  0.60186400  1
  O  O12  1  0.01542500  0.42617600  0.84626200  1
  O  O13  1  0.75307400  0.93043900  0.10189100  1
  O  O14  1  0.93369300  0.66612500  0.47696700  1
  O  O15  1  0.49917200  0.43370600  0.35211200  1
loop_
_geom_bond_atom_site_label_1
_geom_bond_atom_site_label_2
_geom_bond_distance
_geom_bond_site_symmetry_2
Li0 O12 2.013907 1_555
Li0 O8 2.097545 1_455
Li0 O0 2.116567 1_455
Li0 O3 2.117327 1_555
Li0 O0 2.185391 1_555
Li0 O8 2.221815 1_555
Li1 O9 2.053739 1_555
Li1 O13 2.080055 1_556
Li1 O9 2.113091 1_655
Li1 O4 2.125962 1_555
Li1 O1 2.157341 1_565
Li1 O1 2.194502 1_665
Li2 O2 2.122745 1_455
Li2 O10 2.123807 1_555
Li2 O2 2.134717 1_555
Li2 O5 2.148680 1_555
Li2 O15 2.191218 1_555
Li2 O10 2.271083 1_655
Li3 O11 2.081200 1_645
Li3 O8 2.146149 1_555
Li3 O6 2.146417 1_555
Li3 O11 2.163020 1_545
Li3 O3 2.177158 1_655
Li3 O3 2.340455 1_555
Li4 O12 2.122745 1_655
Li4 O4 2.123807 1_555
Li4 O12 2.134717 1_555
Li4 O9 2.148680 1_555
Li4 O0 2.191218 1_555
Li4 O4 2.271083 1_455
Li5 O5 2.053739 1_555
Li5 O1 2.080055 1_554
Li5 O5 2.113091 1_455
Li5 O10 2.125962 1_555
Li5 O13 2.157341 1_545
Li5 O13 2.194502 1_445
Li6 O6 2.081200 1_465
Li6 O7 2.146149 1_555
Li6 O11 2.146417 1_555
Li6 O6 2.163020 1_565
Li6 O14 2.177158 1_455
Li6 O14 2.340455 1_555
Li7 O2 2.013907 1_555
Li7 O7 2.097545 1_655
Li7 O15 2.116567 1_655
Li7 O14 2.117327 1_555
Li7 O15 2.185391 1_555
Li7 O7 2.221815 1_555
Li8 O2 2.018967 1_455
Li8 O12 2.018967 1_554
Li8 O9 2.083341 1_554
Li8 O5 2.083341 1_455
Li8 O5 2.186631 1_555
Li8 O9 2.186631 1_454
Mn0 O0 1.940106 1_555
Mn0 O4 1.950285 1_555
Mn0 O11 1.980769 1_655
Mn0 O14 1.986442 1_555
Mn0 O0 2.171483 1_655
Mn0 O11 2.224266 1_555
Mn1 O15 1.940106 1_555
Mn1 O10 1.950285 1_555
Mn1 O6 1.980769 1_455
Mn1 O3 1.986442 1_555
Mn1 O15 2.171483 1_455
Mn1 O6 2.224266 1_555
Co0 O5 1.754260 1_556
Co0 O12 1.900926 1_655
Co0 O8 1.978062 1_555
Co0 O1 2.012084 1_555
Co0 O12 2.080105 1_555
Co0 O1 2.226723 1_655
Co1 O9 1.754260 1_554
Co1 O2 1.900926 1_455
Co1 O7 1.978062 1_555
Co1 O13 2.012084 1_555
Co1 O2 2.080105 1_555
Co1 O13 2.226723 1_455
Co2 O0 1.933410 1_555
Co2 O15 1.933410 1_555
Co2 O14 1.979019 1_555
Co2 O3 1.979019 1_555
Co2 O14 1.983463 1_455
Co2 O3 1.983463 1_655
Co3 O1 1.868702 1_555
Co3 O11 2.006825 1_545
Co3 O8 2.034046 1_555
Co3 O4 2.052017 1_445
Co3 O8 2.076172 1_455
Co3 O4 2.096414 1_545
Co4 O13 1.868702 1_555
Co4 O6 2.006825 1_565
Co4 O7 2.034046 1_555
Co4 O10 2.052017 1_665
Co4 O7 2.076172 1_655
Co4 O10 2.096414 1_565
