# generated using pymatgen
data_NaNd(CO3)2
_symmetry_space_group_name_H-M   'P 1'
_cell_length_a   5.16955500
_cell_length_b   6.41023000
_cell_length_c   7.15275700
_cell_angle_alpha   90.00000000
_cell_angle_beta   90.00000000
_cell_angle_gamma   90.00000000
_symmetry_Int_Tables_number   1
_chemical_formula_structural   NaNd(CO3)2
_chemical_formula_sum   'Na2 Nd2 C4 O12'
_cell_volume   237.02832288
_cell_formula_units_Z   2
loop_
 _symmetry_equiv_pos_site_id
 _symmetry_equiv_pos_as_xyz
  1  'x, y, z'
loop_
 _atom_site_type_symbol
 _atom_site_label
 _atom_site_symmetry_multiplicity
 _atom_site_fract_x
 _atom_site_fract_y
 _atom_site_fract_z
 _atom_site_occupancy
  Na  Na0  1  0.00000000  0.48228400  0.02779400  1
  Na  Na1  1  0.00000000  0.51771600  0.52779400  1
  Nd  Nd0  1  0.50000000  0.12979000  0.32795800  1
  Nd  Nd1  1  0.50000000  0.87021000  0.82795800  1
  C  C0  1  0.50000000  0.58018300  0.24320100  1
  C  C1  1  0.50000000  0.41981700  0.74320100  1
  C  C2  1  0.00000000  0.03632100  0.99856000  1
  C  C3  1  0.00000000  0.96367900  0.49856000  1
  O  O0  1  0.00000000  0.14193400  0.41446900  1
  O  O1  1  0.00000000  0.85806600  0.91446900  1
  O  O2  1  0.28744400  0.48366000  0.28024700  1
  O  O3  1  0.71255700  0.51634000  0.78024700  1
  O  O4  1  0.28744400  0.51634000  0.78024700  1
  O  O5  1  0.71255700  0.48366000  0.28024700  1
  O  O6  1  0.22075800  0.12522300  0.03434700  1
  O  O7  1  0.77924200  0.87477700  0.53434700  1
  O  O8  1  0.22075800  0.87477700  0.53434700  1
  O  O9  1  0.77924200  0.12522300  0.03434700  1
  O  O10  1  0.50000000  0.23465400  0.66483000  1
  O  O11  1  0.50000000  0.76534600  0.16483000  1
loop_
_geom_bond_atom_site_label_1
_geom_bond_atom_site_label_2
_geom_bond_distance
_geom_bond_site_symmetry_2
Na0 O3 2.321829 1_454
Na0 O4 2.321833 1_554
Na0 O5 2.338549 1_455
Na0 O2 2.338552 1_555
Na0 O1 2.541575 1_554
Na0 O6 2.558004 1_555
Na0 O9 2.558004 1_455
Na1 O5 2.321829 1_455
Na1 O2 2.321833 1_555
Na1 O3 2.338549 1_455
Na1 O4 2.338552 1_555
Na1 O0 2.541575 1_555
Na1 O8 2.558004 1_555
Na1 O7 2.558004 1_455
Nd0 O10 2.501570 1_555
Nd0 O2 2.543512 1_555
Nd0 O5 2.543514 1_555
Nd0 O6 2.548578 1_555
Nd0 O9 2.548578 1_555
Nd0 O11 2.611350 1_545
Nd0 O7 2.633513 1_545
Nd0 O8 2.633513 1_545
Nd0 O0 2.658954 1_555
Nd0 O0 2.658954 1_655
Nd1 O11 2.501570 1_556
Nd1 O4 2.543512 1_555
Nd1 O3 2.543514 1_555
Nd1 O7 2.548578 1_555
Nd1 O8 2.548578 1_555
Nd1 O10 2.611350 1_565
Nd1 O9 2.633513 1_566
Nd1 O6 2.633513 1_566
Nd1 O1 2.658954 1_655
Nd1 O1 2.658954 1_555
C0 O2 1.288586 1_555
C0 O5 1.288590 1_555
C0 O11 1.312653 1_555
C1 O4 1.288586 1_555
C1 O3 1.288590 1_555
C1 O10 1.312653 1_555
C2 O1 1.291295 1_545
C2 O9 1.301028 1_456
C2 O6 1.301028 1_556
C3 O0 1.291295 1_565
C3 O8 1.301028 1_555
C3 O7 1.301028 1_455
