# generated using pymatgen
data_Ti7(Fe3O8)3
_symmetry_space_group_name_H-M   'P 1'
_cell_length_a   7.57007100
_cell_length_b   7.61301657
_cell_length_c   8.94683151
_cell_angle_alpha   112.97587299
_cell_angle_beta   112.98143579
_cell_angle_gamma   85.69468889
_symmetry_Int_Tables_number   1
_chemical_formula_structural   Ti7(Fe3O8)3
_chemical_formula_sum   'Ti7 Fe9 O24'
_cell_volume   435.21145572
_cell_formula_units_Z   1
loop_
 _symmetry_equiv_pos_site_id
 _symmetry_equiv_pos_as_xyz
  1  'x, y, z'
loop_
 _atom_site_type_symbol
 _atom_site_label
 _atom_site_symmetry_multiplicity
 _atom_site_fract_x
 _atom_site_fract_y
 _atom_site_fract_z
 _atom_site_occupancy
  Ti  Ti0  1  0.71416500  0.71548800  0.14332500  1
  Ti  Ti1  1  0.53211200  0.02900000  0.35879900  1
  Ti  Ti2  1  0.96828200  0.47008400  0.64995900  1
  Ti  Ti3  1  0.77679400  0.78181800  0.85196300  1
  Ti  Ti4  1  0.21954600  0.21996900  0.14332000  1
  Ti  Ti5  1  0.03095400  0.53096300  0.35355900  1
  Ti  Ti6  1  0.28019700  0.28032300  0.85179700  1
  Fe  Fe0  1  0.28354500  0.78114600  0.85055900  1
  Fe  Fe1  1  0.21803000  0.71628200  0.14535800  1
  Fe  Fe2  1  0.46910200  0.47110600  0.64510900  1
  Fe  Fe3  1  0.77859100  0.27905500  0.85258500  1
  Fe  Fe4  1  0.71623400  0.21827000  0.14662200  1
  Fe  Fe5  1  0.47364700  0.97194600  0.64659300  1
  Fe  Fe6  1  0.03311600  0.03306300  0.35662000  1
  Fe  Fe7  1  0.97042700  0.96705300  0.64714800  1
  Fe  Fe8  1  0.52805100  0.53391900  0.35451100  1
  O  O0  1  0.27154700  0.46215900  0.75721200  1
  O  O1  1  0.95364300  0.30224000  0.41139200  1
  O  O2  1  0.81044800  0.93705800  0.09315200  1
  O  O3  1  0.51751800  0.21317400  0.25849200  1
  O  O4  1  0.78960600  0.95928900  0.39020400  1
  O  O5  1  0.46513200  0.79700400  0.10714500  1
  O  O6  1  0.77890000  0.96294300  0.75909900  1
  O  O7  1  0.45499700  0.81181200  0.40673400  1
  O  O8  1  0.03266500  0.70125000  0.88907300  1
  O  O9  1  0.29926300  0.43208300  0.08241400  1
  O  O10  1  0.71920600  0.54461700  0.60610600  1
  O  O11  1  0.02422200  0.72423800  0.26193800  1
  O  O12  1  0.97460700  0.28746700  0.74421200  1
  O  O13  1  0.28121000  0.45796100  0.39334200  1
  O  O14  1  0.70032500  0.56417600  0.91771600  1
  O  O15  1  0.96772000  0.29896700  0.10699500  1
  O  O16  1  0.55131200  0.19017000  0.58540100  1
  O  O17  1  0.21947600  0.04055300  0.25040400  1
  O  O18  1  0.53330900  0.20403700  0.89622200  1
  O  O19  1  0.20223600  0.04919400  0.59671200  1
  O  O20  1  0.48271000  0.78158200  0.74812000  1
  O  O21  1  0.19883500  0.06423800  0.91582000  1
  O  O22  1  0.04867100  0.67932000  0.58121600  1
  O  O23  1  0.72964800  0.53498500  0.24305200  1
loop_
_geom_bond_atom_site_label_1
_geom_bond_atom_site_label_2
_geom_bond_distance
_geom_bond_site_symmetry_2
Fe0 O20 2.048234 1_555
Fe0 O21 2.121185 1_565
Fe0 O5 2.125682 1_556
Fe0 O8 2.223434 1_555
Fe0 O22 2.229826 1_555
Fe0 O0 2.234651 1_555
Fe1 O11 2.091968 1_555
Fe1 O9 2.120363 1_555
Fe1 O8 2.132257 1_554
Fe1 O7 2.192683 1_555
Fe1 O5 2.197638 1_555
Fe1 O17 2.272115 1_565
Fe2 O16 2.101144 1_555
Fe2 O13 2.109629 1_555
Fe2 O0 2.118254 1_555
Fe2 O20 2.169944 1_555
Fe2 O10 2.201593 1_555
Fe2 O14 2.240068 1_555
Fe3 O12 2.081405 1_555
Fe3 O15 2.114764 1_556
Fe3 O14 2.119261 1_555
Fe3 O18 2.196738 1_555
Fe3 O16 2.198354 1_555
Fe3 O6 2.218199 1_545
Fe4 O18 2.087762 1_554
Fe4 O3 2.116822 1_555
Fe4 O2 2.135057 1_545
Fe4 O23 2.216455 1_555
Fe4 O1 2.217196 1_555
Fe4 O15 2.236099 1_555
Fe5 O7 1.964235 1_555
Fe5 O20 1.973378 1_555
Fe5 O19 2.018386 1_565
Fe5 O16 2.124503 1_565
Fe5 O18 2.136679 1_565
Fe5 O6 2.138090 1_555
Fe6 O19 1.984574 1_555
Fe6 O17 1.999449 1_555
Fe6 O1 2.015598 1_455
Fe6 O4 2.126853 1_445
Fe6 O2 2.160839 1_445
Fe6 O11 2.161977 1_545
Fe7 O6 2.066780 1_555
Fe7 O22 2.136918 1_655
Fe7 O4 2.147263 1_555
Fe7 O19 2.162732 1_665
Fe7 O21 2.207558 1_665
Fe7 O12 2.245392 1_565
Fe8 O7 2.062604 1_555
Fe8 O10 2.120984 1_555
Fe8 O23 2.126030 1_555
Fe8 O13 2.184667 1_555
Fe8 O9 2.227749 1_555
Fe8 O3 2.246112 1_555
O0 Ti6 1.869335 1_555
O0 Ti2 2.121095 1_455
O1 Ti2 1.976902 1_555
O1 Ti5 2.176033 1_655
O2 Ti3 1.934698 1_554
O2 Ti0 2.146931 1_555
O3 Ti1 1.914469 1_555
O3 Ti4 2.088450 1_555
O4 Ti1 1.921871 1_565
O4 Ti0 2.150222 1_555
O5 Ti0 1.883755 1_555
O5 Ti1 2.141107 1_565
O6 Ti3 1.870821 1_555
O7 Ti1 2.037802 1_565
O8 Ti3 1.927875 1_455
O8 Ti2 2.070441 1_455
O9 Ti6 1.882635 1_554
O9 Ti4 2.087779 1_555
O10 Ti2 1.861880 1_555
O10 Ti3 2.134911 1_555
O11 Ti5 1.933211 1_555
O11 Ti0 2.159403 1_455
O12 Ti2 1.876155 1_555
O12 Ti6 2.136402 1_655
O13 Ti5 1.869315 1_555
O13 Ti4 2.156841 1_555
O14 Ti0 1.857412 1_556
O14 Ti3 2.144158 1_555
O15 Ti4 1.896871 1_655
O15 Ti5 2.115549 1_655
O16 Ti1 1.868564 1_555
O17 Ti4 1.950816 1_555
O17 Ti1 2.189177 1_555
O18 Ti6 1.893426 1_555
O19 Ti6 2.149894 1_555
O20 Ti3 2.050247 1_555
O21 Ti4 1.862222 1_556
O21 Ti6 2.139375 1_555
O22 Ti5 1.858955 1_555
O22 Ti2 2.118637 1_455
O23 Ti0 1.884020 1_555
O23 Ti5 2.105515 1_655
