# generated using pymatgen
data_CaTi4O8
_symmetry_space_group_name_H-M   'P 1'
_cell_length_a   6.63893642
_cell_length_b   6.63893642
_cell_length_c   6.63893633
_cell_angle_alpha   53.14546654
_cell_angle_beta   53.14546654
_cell_angle_gamma   53.14547117
_symmetry_Int_Tables_number   1
_chemical_formula_structural   CaTi4O8
_chemical_formula_sum   'Ca1 Ti4 O8'
_cell_volume   173.68303288
_cell_formula_units_Z   1
loop_
 _symmetry_equiv_pos_site_id
 _symmetry_equiv_pos_as_xyz
  1  'x, y, z'
loop_
 _atom_site_type_symbol
 _atom_site_label
 _atom_site_symmetry_multiplicity
 _atom_site_fract_x
 _atom_site_fract_y
 _atom_site_fract_z
 _atom_site_occupancy
  Ca  Ca0  1  0.50000000  0.50000000  0.50000000  1
  Ti  Ti0  1  0.00000000  0.50000000  0.50000000  1
  Ti  Ti1  1  0.50000000  0.00000000  0.50000000  1
  Ti  Ti2  1  0.50000000  0.50000000  0.00000000  1
  Ti  Ti3  1  0.00000000  0.00000000  0.00000000  1
  O  O0  1  0.27691900  0.76521400  0.76521400  1
  O  O1  1  0.23478600  0.23478600  0.72308100  1
  O  O2  1  0.72308100  0.23478600  0.23478600  1
  O  O3  1  0.23478600  0.72308100  0.23478600  1
  O  O4  1  0.27516700  0.27516700  0.27516700  1
  O  O5  1  0.72483300  0.72483300  0.72483300  1
  O  O6  1  0.76521400  0.27691900  0.76521400  1
  O  O7  1  0.76521400  0.76521400  0.27691900  1
loop_
_geom_bond_atom_site_label_1
_geom_bond_atom_site_label_2
_geom_bond_distance
_geom_bond_site_symmetry_2
Ca0 O7 2.420024 1_555
Ca0 O1 2.420024 1_555
Ca0 O0 2.420024 1_555
Ca0 O6 2.420024 1_555
Ca0 O3 2.420024 1_555
Ca0 O2 2.420024 1_555
O0 Ti1 2.017952 1_565
O0 Ti2 2.017952 1_556
O0 Ti3 2.068479 1_566
O1 Ti1 2.017952 1_555
O1 Ti0 2.017952 1_555
O1 Ti3 2.068479 1_556
O2 Ti1 2.017952 1_555
O2 Ti2 2.017952 1_555
O2 Ti3 2.068479 1_655
O3 Ti0 2.017952 1_555
O3 Ti2 2.017952 1_555
O3 Ti3 2.068479 1_565
O4 Ti2 1.980897 1_555
O4 Ti0 1.980897 1_555
O4 Ti1 1.980897 1_555
O5 Ti2 1.980897 1_556
O5 Ti0 1.980897 1_655
O5 Ti1 1.980897 1_565
O6 Ti0 2.017952 1_655
O6 Ti2 2.017952 1_556
O6 Ti3 2.068479 1_656
O7 Ti1 2.017952 1_565
O7 Ti0 2.017952 1_655
O7 Ti3 2.068479 1_665
