# generated using pymatgen
data_Gd3Ga2
_symmetry_space_group_name_H-M   'P 1'
_cell_length_a   4.37356100
_cell_length_b   7.71560600
_cell_length_c   7.71560600
_cell_angle_alpha   90.00000000
_cell_angle_beta   90.00000000
_cell_angle_gamma   90.00000000
_symmetry_Int_Tables_number   1
_chemical_formula_structural   Gd3Ga2
_chemical_formula_sum   'Gd6 Ga4'
_cell_volume   260.36060527
_cell_formula_units_Z   2
loop_
 _symmetry_equiv_pos_site_id
 _symmetry_equiv_pos_as_xyz
  1  'x, y, z'
loop_
 _atom_site_type_symbol
 _atom_site_label
 _atom_site_symmetry_multiplicity
 _atom_site_fract_x
 _atom_site_fract_y
 _atom_site_fract_z
 _atom_site_occupancy
  Gd  Gd0  1  0.00000000  0.32668600  0.67331400  1
  Gd  Gd1  1  0.00000000  0.67331400  0.32668600  1
  Gd  Gd2  1  0.00000000  0.17331400  0.17331400  1
  Gd  Gd3  1  0.00000000  0.82668600  0.82668600  1
  Gd  Gd4  1  0.50000000  0.00000000  0.50000000  1
  Gd  Gd5  1  0.50000000  0.50000000  0.00000000  1
  Ga  Ga0  1  0.50000000  0.11910900  0.88089100  1
  Ga  Ga1  1  0.50000000  0.88089100  0.11910900  1
  Ga  Ga2  1  0.50000000  0.38089100  0.38089100  1
  Ga  Ga3  1  0.50000000  0.61910900  0.61910900  1
loop_
_geom_bond_atom_site_label_1
_geom_bond_atom_site_label_2
_geom_bond_distance
_geom_bond_site_symmetry_2
Ga0 Ga1 2.599319 1_546
Ga0 Gd5 3.079145 1_556
Ga0 Gd4 3.079145 1_555
Ga0 Gd0 3.148355 1_655
Ga0 Gd0 3.148355 1_555
Ga0 Gd3 3.169772 1_645
Ga0 Gd3 3.169772 1_545
Ga0 Gd2 3.169772 1_556
Ga0 Gd2 3.169772 1_656
Ga1 Gd4 3.079145 1_565
Ga1 Gd5 3.079145 1_555
Ga1 Gd1 3.148355 1_655
Ga1 Gd1 3.148355 1_555
Ga1 Gd3 3.169772 1_554
Ga1 Gd2 3.169772 1_565
Ga1 Gd3 3.169772 1_654
Ga1 Gd2 3.169772 1_665
Ga2 Ga3 2.599319 1_555
Ga2 Gd4 3.079145 1_555
Ga2 Gd5 3.079145 1_555
Ga2 Gd2 3.148355 1_655
Ga2 Gd2 3.148355 1_555
Ga2 Gd0 3.169772 1_655
Ga2 Gd1 3.169772 1_655
Ga2 Gd1 3.169772 1_555
Ga2 Gd0 3.169772 1_555
Ga3 Gd4 3.079145 1_565
Ga3 Gd5 3.079145 1_556
Ga3 Gd3 3.148355 1_555
Ga3 Gd3 3.148355 1_655
Ga3 Gd0 3.169772 1_655
Ga3 Gd0 3.169772 1_555
Ga3 Gd1 3.169772 1_655
Ga3 Gd1 3.169772 1_555
