# generated using pymatgen
data_HfTaFe4
_symmetry_space_group_name_H-M   'P 1'
_cell_length_a   4.86531218
_cell_length_b   4.86531218
_cell_length_c   7.94601800
_cell_angle_alpha   90.00000000
_cell_angle_beta   90.00000000
_cell_angle_gamma   120.00000248
_symmetry_Int_Tables_number   1
_chemical_formula_structural   HfTaFe4
_chemical_formula_sum   'Hf2 Ta2 Fe8'
_cell_volume   162.89268776
_cell_formula_units_Z   2
loop_
 _symmetry_equiv_pos_site_id
 _symmetry_equiv_pos_as_xyz
  1  'x, y, z'
loop_
 _atom_site_type_symbol
 _atom_site_label
 _atom_site_symmetry_multiplicity
 _atom_site_fract_x
 _atom_site_fract_y
 _atom_site_fract_z
 _atom_site_occupancy
  Hf  Hf0  1  0.66666700  0.33333300  0.43457500  1
  Hf  Hf1  1  0.33333300  0.66666700  0.56542500  1
  Ta  Ta0  1  0.33333300  0.66666700  0.94111300  1
  Ta  Ta1  1  0.66666700  0.33333300  0.05888700  1
  Fe  Fe0  1  0.00000000  0.00000000  0.50000000  1
  Fe  Fe1  1  0.00000000  0.00000000  0.00000000  1
  Fe  Fe2  1  0.66359900  0.83179900  0.24530900  1
  Fe  Fe3  1  0.16820100  0.83179900  0.24530900  1
  Fe  Fe4  1  0.16820100  0.33640100  0.24530900  1
  Fe  Fe5  1  0.33640100  0.16820100  0.75469100  1
  Fe  Fe6  1  0.83179900  0.16820100  0.75469100  1
  Fe  Fe7  1  0.83179900  0.66359900  0.75469100  1
loop_
_geom_bond_atom_site_label_1
_geom_bond_atom_site_label_2
_geom_bond_distance
_geom_bond_site_symmetry_2
Hf0 Ta1 2.985224 1_555
Hf0 Hf1 2.995239 1_655
Hf0 Hf1 2.995239 1_545
Hf0 Hf1 2.995247 1_555
Hf1 Ta0 2.985224 1_555
Ta0 Ta1 2.960775 1_456
Ta0 Ta1 2.960775 1_566
Ta0 Ta1 2.960783 1_556
Fe0 Fe5 2.470782 1_555
Fe0 Fe7 2.470782 1_445
Fe0 Fe4 2.470782 1_555
Fe0 Fe2 2.470782 1_445
Fe0 Fe3 2.470784 1_545
Fe0 Fe6 2.470784 1_455
Fe0 Hf1 2.856688 1_545
Fe0 Hf0 2.856688 1_455
Fe0 Hf1 2.856692 1_445
Fe0 Hf0 2.856692 1_445
Fe0 Hf1 2.856692 1_555
Fe0 Hf0 2.856692 1_555
Fe1 Fe7 2.410099 1_444
Fe1 Fe2 2.410099 1_445
Fe1 Fe4 2.410099 1_555
Fe1 Fe5 2.410099 1_554
Fe1 Fe6 2.410101 1_454
Fe1 Fe3 2.410101 1_545
Fe1 Ta1 2.847692 1_455
Fe1 Ta0 2.847692 1_544
Fe1 Ta1 2.847696 1_445
Fe1 Ta0 2.847696 1_444
Fe1 Ta1 2.847696 1_555
Fe1 Ta0 2.847696 1_554
Fe2 Fe4 2.410266 1_555
Fe2 Fe3 2.410266 1_555
Fe2 Fe4 2.455046 1_665
Fe2 Fe3 2.455046 1_655
Fe2 Ta0 2.789098 1_554
Fe2 Ta1 2.848205 1_565
Fe2 Ta1 2.848205 1_555
Fe2 Hf0 2.860023 1_565
Fe2 Hf0 2.860023 1_555
Fe2 Hf1 2.899416 1_555
Fe3 Fe4 2.410266 1_555
Fe3 Fe4 2.455046 1_565
Fe3 Ta0 2.789094 1_554
Fe3 Ta1 2.848205 1_455
Fe3 Ta1 2.848205 1_565
Fe3 Hf0 2.860023 1_455
Fe3 Hf0 2.860023 1_565
Fe3 Hf1 2.899412 1_555
Fe4 Ta0 2.789098 1_554
Fe4 Ta1 2.848205 1_455
Fe4 Ta1 2.848205 1_555
Fe4 Hf0 2.860023 1_455
Fe4 Hf0 2.860023 1_555
Fe4 Hf1 2.899416 1_555
Fe5 Fe7 2.410266 1_555
Fe5 Fe6 2.410266 1_555
Fe5 Fe7 2.455046 1_445
Fe5 Fe6 2.455046 1_455
Fe5 Ta1 2.789098 1_556
Fe5 Ta0 2.848205 1_545
Fe5 Ta0 2.848205 1_555
Fe5 Hf1 2.860023 1_545
Fe5 Hf1 2.860023 1_555
Fe5 Hf0 2.899416 1_555
Fe6 Fe7 2.410266 1_555
Fe6 Fe7 2.455046 1_545
Fe6 Ta1 2.789094 1_556
Fe6 Ta0 2.848205 1_655
Fe6 Ta0 2.848205 1_545
Fe6 Hf1 2.860023 1_545
Fe6 Hf1 2.860023 1_655
Fe6 Hf0 2.899412 1_555
Fe7 Ta1 2.789098 1_556
Fe7 Ta0 2.848205 1_655
Fe7 Ta0 2.848205 1_555
Fe7 Hf1 2.860023 1_655
Fe7 Hf1 2.860023 1_555
Fe7 Hf0 2.899416 1_555
