# generated using pymatgen
data_DyCr2O2
_symmetry_space_group_name_H-M   'P 1'
_cell_length_a   8.36163356
_cell_length_b   8.36163356
_cell_length_c   8.36163356
_cell_angle_alpha   99.85292758
_cell_angle_beta   99.85292758
_cell_angle_gamma   131.12930511
_symmetry_Int_Tables_number   1
_chemical_formula_structural   DyCr2O2
_chemical_formula_sum   'Dy4 Cr8 O8'
_cell_volume   400.90845631
_cell_formula_units_Z   4
loop_
 _symmetry_equiv_pos_site_id
 _symmetry_equiv_pos_as_xyz
  1  'x, y, z'
loop_
 _atom_site_type_symbol
 _atom_site_label
 _atom_site_symmetry_multiplicity
 _atom_site_fract_x
 _atom_site_fract_y
 _atom_site_fract_z
 _atom_site_occupancy
  Dy  Dy0  1  0.87500000  0.12500000  0.25000000  1
  Dy  Dy1  1  0.87500000  0.62500000  0.75000000  1
  Dy  Dy2  1  0.37500000  0.12500000  0.25000000  1
  Dy  Dy3  1  0.87500000  0.12500000  0.75000000  1
  Cr  Cr0  1  0.45236800  0.08345000  0.63108200  1
  Cr  Cr1  1  0.45236800  0.82128600  0.36891800  1
  Cr  Cr2  1  0.57128600  0.70236800  0.86891800  1
  Cr  Cr3  1  0.29763200  0.42871400  0.13108200  1
  Cr  Cr4  1  0.29763200  0.16655000  0.86891800  1
  Cr  Cr5  1  0.83345000  0.70236800  0.13108200  1
  Cr  Cr6  1  0.17871400  0.54763200  0.63108200  1
  Cr  Cr7  1  0.91655000  0.54763200  0.36891800  1
  O  O0  1  0.58238200  0.39607100  0.81368900  1
  O  O1  1  0.58238200  0.76869400  0.18631100  1
  O  O2  1  0.51869400  0.83238200  0.68631100  1
  O  O3  1  0.16761800  0.48130700  0.31368900  1
  O  O4  1  0.16761800  0.85392900  0.68631100  1
  O  O5  1  0.14607100  0.83238200  0.31368900  1
  O  O6  1  0.23130600  0.41761800  0.81368900  1
  O  O7  1  0.60392900  0.41761800  0.18631100  1
loop_
_geom_bond_atom_site_label_1
_geom_bond_atom_site_label_2
_geom_bond_distance
_geom_bond_site_symmetry_2
Dy0 O1 2.137256 1_545
Dy0 O3 2.137261 1_655
Dy1 O4 2.137261 1_655
Dy1 O0 2.137261 1_555
Dy2 O7 2.137261 1_555
Dy2 O5 2.137261 1_545
Dy3 O6 2.137256 1_655
Dy3 O2 2.137256 1_545
Cr0 O4 2.057639 1_545
Cr0 O0 2.161911 1_555
Cr0 O5 2.589171 1_545
Cr0 O2 2.589177 1_545
Cr1 O3 2.057639 1_555
Cr1 O1 2.161907 1_555
Cr1 O5 2.589171 1_555
Cr1 O2 2.589171 1_555
Cr2 O6 2.057644 1_555
Cr2 O2 2.161907 1_555
Cr2 O0 2.589171 1_555
Cr2 O1 2.589171 1_556
Cr3 O1 2.057644 1_555
Cr3 O3 2.161911 1_555
Cr3 O7 2.589171 1_555
Cr3 O6 2.589171 1_554
Cr4 O0 2.057639 1_555
Cr4 O4 2.161911 1_545
Cr4 O7 2.589171 1_556
Cr4 O6 2.589177 1_555
Cr5 O7 2.057639 1_555
Cr5 O5 2.161911 1_655
Cr5 O0 2.589171 1_554
Cr5 O1 2.589177 1_555
Cr6 O2 2.057644 1_555
Cr6 O6 2.161907 1_555
Cr6 O4 2.589171 1_555
Cr6 O3 2.589171 1_555
Cr7 O5 2.057639 1_655
Cr7 O7 2.161911 1_555
Cr7 O3 2.589171 1_655
Cr7 O4 2.589171 1_655
