# generated using pymatgen
data_NaNd(SeO5)2
_symmetry_space_group_name_H-M   'P 1'
_cell_length_a   7.22084900
_cell_length_b   11.21862400
_cell_length_c   11.33532755
_cell_angle_alpha   69.29573196
_cell_angle_beta   90.00000000
_cell_angle_gamma   90.00000000
_symmetry_Int_Tables_number   1
_chemical_formula_structural   NaNd(SeO5)2
_chemical_formula_sum   'Na4 Nd4 Se8 O40'
_cell_volume   858.94926495
_cell_formula_units_Z   4
loop_
 _symmetry_equiv_pos_site_id
 _symmetry_equiv_pos_as_xyz
  1  'x, y, z'
loop_
 _atom_site_type_symbol
 _atom_site_label
 _atom_site_symmetry_multiplicity
 _atom_site_fract_x
 _atom_site_fract_y
 _atom_site_fract_z
 _atom_site_occupancy
  Na  Na0  1  0.64361100  0.96373600  0.36977100  1
  Na  Na1  1  0.35638900  0.03626400  0.63022900  1
  Na  Na2  1  0.14361100  0.53626400  0.63022900  1
  Na  Na3  1  0.85638900  0.46373600  0.36977100  1
  Nd  Nd0  1  0.38578100  0.66595000  0.24874500  1
  Nd  Nd1  1  0.61421900  0.33405000  0.75125500  1
  Nd  Nd2  1  0.88578100  0.83405000  0.75125500  1
  Nd  Nd3  1  0.11421900  0.16595000  0.24874500  1
  Se  Se0  1  0.87225300  0.72090300  0.10571800  1
  Se  Se1  1  0.12774700  0.27909700  0.89428200  1
  Se  Se2  1  0.37225300  0.77909700  0.89428200  1
  Se  Se3  1  0.62774700  0.22090300  0.10571800  1
  Se  Se4  1  0.65447700  0.64057300  0.55298200  1
  Se  Se5  1  0.34552300  0.35942700  0.44701800  1
  Se  Se6  1  0.15447700  0.85942700  0.44701800  1
  Se  Se7  1  0.84552300  0.14057300  0.55298200  1
  O  O0  1  0.83744500  0.87713600  0.08511700  1
  O  O1  1  0.16255500  0.12286400  0.91488300  1
  O  O2  1  0.33744500  0.62286400  0.91488300  1
  O  O3  1  0.66255500  0.37713600  0.08511700  1
  O  O4  1  0.56150500  0.83694400  0.80711100  1
  O  O5  1  0.43849500  0.16305600  0.19288900  1
  O  O6  1  0.06150500  0.66305600  0.19288900  1
  O  O7  1  0.93849500  0.33694400  0.80711100  1
  O  O8  1  0.82215800  0.53214100  0.57114300  1
  O  O9  1  0.17784200  0.46785900  0.42885700  1
  O  O10  1  0.32215800  0.96785900  0.42885700  1
  O  O11  1  0.67784200  0.03214100  0.57114300  1
  O  O12  1  0.53551700  0.88109900  0.20165200  1
  O  O13  1  0.46448300  0.11890100  0.79834800  1
  O  O14  1  0.03551700  0.61890100  0.79834800  1
  O  O15  1  0.96448300  0.38109900  0.20165200  1
  O  O16  1  0.60537400  0.71485300  0.40006200  1
  O  O17  1  0.39462600  0.28514700  0.59993800  1
  O  O18  1  0.10537400  0.78514700  0.59993800  1
  O  O19  1  0.89462600  0.21485300  0.40006200  1
  O  O20  1  0.70551000  0.75372100  0.61048400  1
  O  O21  1  0.29449000  0.24627900  0.38951600  1
  O  O22  1  0.20551000  0.74627900  0.38951600  1
  O  O23  1  0.79449000  0.25372100  0.61048400  1
  O  O24  1  0.97580800  0.94948300  0.36969200  1
  O  O25  1  0.02419200  0.05051700  0.63030800  1
  O  O26  1  0.47580800  0.55051700  0.63030800  1
  O  O27  1  0.52419200  0.44948300  0.36969200  1
  O  O28  1  0.39201100  0.79978300  0.03192800  1
  O  O29  1  0.60798900  0.20021700  0.96807200  1
  O  O30  1  0.89201100  0.70021700  0.96807200  1
  O  O31  1  0.10798900  0.29978300  0.03192800  1
  O  O32  1  0.29532700  0.52424500  0.12101500  1
  O  O33  1  0.70467300  0.47575500  0.87898500  1
  O  O34  1  0.79532700  0.97575500  0.87898500  1
  O  O35  1  0.20467300  0.02424500  0.12101500  1
  O  O36  1  0.70037100  0.63131900  0.18993100  1
  O  O37  1  0.29962900  0.36868100  0.81006900  1
  O  O38  1  0.20037100  0.86868100  0.81006900  1
  O  O39  1  0.79962900  0.13131900  0.18993100  1
loop_
_geom_bond_atom_site_label_1
_geom_bond_atom_site_label_2
_geom_bond_distance
_geom_bond_site_symmetry_2
Na0 O24 2.404089 1_555
Na0 O10 2.420831 1_555
Na0 O39 2.499896 1_565
Na0 O12 2.519830 1_555
Na0 O11 2.664389 1_565
Na0 O16 2.704109 1_555
Na0 O5 2.836148 1_565
Na0 O20 2.941133 1_555
Na1 O25 2.404089 1_555
Na1 O11 2.420831 1_555
Na1 O38 2.499896 1_545
Na1 O13 2.519830 1_555
Na1 O10 2.664389 1_545
Na1 O17 2.704109 1_555
Na1 O4 2.836148 1_545
Na1 O21 2.941133 1_555
Na2 O26 2.404089 1_555
Na2 O8 2.420831 1_455
Na2 O37 2.499896 1_555
Na2 O14 2.519830 1_555
Na2 O9 2.664389 1_555
Na2 O18 2.704109 1_555
Na2 O7 2.836148 1_455
Na2 O22 2.941133 1_555
Na3 O27 2.404089 1_555
Na3 O9 2.420831 1_655
Na3 O36 2.499896 1_555
Na3 O15 2.519830 1_555
Na3 O8 2.664389 1_555
Na3 O19 2.704109 1_555
Na3 O6 2.836148 1_655
Na3 O23 2.941133 1_555
Nd0 O28 2.384818 1_555
Nd0 O6 2.428850 1_555
Nd0 O36 2.436953 1_555
Nd0 O22 2.463652 1_555
Nd0 O12 2.523643 1_555
Nd0 O27 2.534114 1_555
Nd0 O16 2.534296 1_555
Nd0 O32 2.584123 1_555
Nd0 O9 2.855388 1_555
Nd1 O29 2.384818 1_555
Nd1 O7 2.428850 1_555
Nd1 O37 2.436953 1_555
Nd1 O23 2.463652 1_555
Nd1 O13 2.523643 1_555
Nd1 O26 2.534114 1_555
Nd1 O17 2.534296 1_555
Nd1 O33 2.584123 1_555
Nd1 O8 2.855388 1_555
Nd2 O30 2.384818 1_555
Nd2 O4 2.428850 1_555
Nd2 O38 2.436953 1_655
Nd2 O20 2.463652 1_555
Nd2 O14 2.523643 1_655
Nd2 O25 2.534114 1_665
Nd2 O18 2.534296 1_655
Nd2 O34 2.584123 1_555
Nd2 O11 2.855388 1_565
Nd3 O31 2.384818 1_555
Nd3 O5 2.428850 1_555
Nd3 O39 2.436953 1_455
Nd3 O21 2.463652 1_555
Nd3 O15 2.523643 1_455
Nd3 O24 2.534114 1_445
Nd3 O19 2.534296 1_455
Nd3 O35 2.584123 1_555
Nd3 O10 2.855388 1_545
O0 Se0 1.703033 1_555
O1 Se1 1.703033 1_555
O2 Se2 1.703033 1_555
O3 Se3 1.703033 1_555
O4 Se2 1.676778 1_555
O5 Se3 1.676778 1_555
O6 Se0 1.676778 1_455
O7 Se1 1.676778 1_655
O8 Se4 1.676637 1_555
O9 Se5 1.676637 1_555
O10 Se6 1.676637 1_555
O11 Se7 1.676637 1_555
O16 Se4 1.674346 1_555
O17 Se5 1.674346 1_555
O18 Se6 1.674346 1_555
O19 Se7 1.674346 1_555
O20 Se4 1.660409 1_555
O21 Se5 1.660409 1_555
O22 Se6 1.660409 1_555
O23 Se7 1.660409 1_555
O24 Se6 1.681458 1_655
O25 Se7 1.681458 1_455
O26 Se4 1.681458 1_555
O27 Se5 1.681458 1_555
O28 Se2 1.662726 1_554
O29 Se3 1.662726 1_556
O30 Se0 1.662726 1_556
O31 Se1 1.662726 1_554
O36 Se0 1.668331 1_555
O37 Se1 1.668331 1_555
O38 Se2 1.668331 1_555
O39 Se3 1.668331 1_555
