# generated using pymatgen
data_Na4Cu7P4(ClO9)2
_symmetry_space_group_name_H-M   'P 1'
_cell_length_a   6.43844500
_cell_length_b   8.56314505
_cell_length_c   8.56314506
_cell_angle_alpha   104.99337353
_cell_angle_beta   90.00000000
_cell_angle_gamma   90.00000000
_symmetry_Int_Tables_number   1
_chemical_formula_structural   Na4Cu7P4(ClO9)2
_chemical_formula_sum   'Na4 Cu7 P4 Cl2 O18'
_cell_volume   456.04198305
_cell_formula_units_Z   1
loop_
 _symmetry_equiv_pos_site_id
 _symmetry_equiv_pos_as_xyz
  1  'x, y, z'
loop_
 _atom_site_type_symbol
 _atom_site_label
 _atom_site_symmetry_multiplicity
 _atom_site_fract_x
 _atom_site_fract_y
 _atom_site_fract_z
 _atom_site_occupancy
  Na  Na0  1  0.00508500  0.30602900  0.68951800  1
  Na  Na1  1  0.00508500  0.68951800  0.30602900  1
  Na  Na2  1  0.49491500  0.30602900  0.68951800  1
  Na  Na3  1  0.49491500  0.68951800  0.30602900  1
  Cu  Cu0  1  0.00256500  0.00206200  0.00206200  1
  Cu  Cu1  1  0.25000000  0.67843100  0.90225300  1
  Cu  Cu2  1  0.25000000  0.90225300  0.67843100  1
  Cu  Cu3  1  0.49743500  0.00206200  0.00206200  1
  Cu  Cu4  1  0.75000000  0.08433100  0.31531400  1
  Cu  Cu5  1  0.75000000  0.31531400  0.08433100  1
  Cu  Cu6  1  0.75000000  0.62030400  0.62030400  1
  P  P0  1  0.25000000  0.04195200  0.37633800  1
  P  P1  1  0.25000000  0.37633800  0.04195200  1
  P  P2  1  0.75000000  0.63300400  0.96179900  1
  P  P3  1  0.75000000  0.96179900  0.63300400  1
  Cl  Cl0  1  0.25000000  0.60684300  0.60684300  1
  Cl  Cl1  1  0.75000000  0.40215000  0.40215000  1
  O  O0  1  0.05390800  0.02231800  0.26215000  1
  O  O1  1  0.05390800  0.26215000  0.02231800  1
  O  O2  1  0.25000000  0.19708600  0.50939200  1
  O  O3  1  0.25000000  0.44806100  0.88944900  1
  O  O4  1  0.25000000  0.88944900  0.44806100  1
  O  O5  1  0.25000000  0.50939200  0.19708600  1
  O  O6  1  0.25000000  0.90850400  0.90850400  1
  O  O7  1  0.44609200  0.02231800  0.26215000  1
  O  O8  1  0.44609200  0.26215000  0.02231800  1
  O  O9  1  0.55342000  0.74195100  0.98436400  1
  O  O10  1  0.55342000  0.98436400  0.74195100  1
  O  O11  1  0.75000000  0.09785300  0.54233600  1
  O  O12  1  0.75000000  0.50832300  0.79168200  1
  O  O13  1  0.75000000  0.54233600  0.09785300  1
  O  O14  1  0.75000000  0.79168200  0.50832300  1
  O  O15  1  0.75000000  0.09351300  0.09351300  1
  O  O16  1  0.94658000  0.74195100  0.98436400  1
  O  O17  1  0.94658000  0.98436400  0.74195100  1
loop_
_geom_bond_atom_site_label_1
_geom_bond_atom_site_label_2
_geom_bond_distance
_geom_bond_site_symmetry_2
Na0 O2 2.234150 1_555
Na0 O12 2.383131 1_455
Na0 O3 2.412354 1_555
Na0 O11 2.510197 1_455
Na1 O5 2.234150 1_555
Na1 O14 2.383131 1_455
Na1 O4 2.412354 1_555
Na1 O13 2.510197 1_455
Na2 O2 2.234150 1_555
Na2 O12 2.383131 1_555
Na2 O3 2.412354 1_555
Na2 O11 2.510197 1_555
Na3 O5 2.234150 1_555
Na3 O14 2.383131 1_555
Na3 O4 2.412354 1_555
Na3 O13 2.510197 1_555
Cu0 O6 1.868032 1_544
Cu0 O15 1.885071 1_455
Cu0 O1 2.213542 1_555
Cu0 O0 2.213542 1_555
Cu0 O16 2.222478 1_444
Cu0 O17 2.222478 1_444
Cu1 O3 1.947209 1_555
Cu1 O6 1.956984 1_555
Cu1 O16 2.099698 1_455
Cu1 O9 2.099698 1_555
Cu2 O4 1.947209 1_555
Cu2 O6 1.956984 1_555
Cu2 O17 2.099698 1_455
Cu2 O10 2.099698 1_555
Cu3 O6 1.868032 1_544
Cu3 O15 1.885071 1_555
Cu3 O8 2.213542 1_555
Cu3 O7 2.213542 1_555
Cu3 O9 2.222478 1_544
Cu3 O10 2.222478 1_544
Cu4 O11 1.917332 1_555
Cu4 O15 1.921157 1_555
Cu4 O0 2.047636 1_655
Cu4 O7 2.047636 1_555
Cu5 O13 1.917332 1_555
Cu5 O15 1.921157 1_555
Cu5 O8 2.047636 1_555
Cu5 O1 2.047636 1_655
Cu6 O14 1.949689 1_555
Cu6 O12 1.949689 1_555
Cl0 Cu2 2.443870 1_555
Cl0 Cu1 2.443870 1_555
Cl1 Cu6 2.274607 1_555
Cl1 Cu4 2.629175 1_555
Cl1 Cu5 2.629175 1_555
Cl1 Na1 3.237007 1_655
Cl1 Na3 3.237007 1_555
Cl1 Na2 3.237007 1_555
Cl1 Na0 3.237007 1_655
O0 P0 1.579016 1_555
O1 P1 1.579016 1_555
O2 P0 1.509881 1_555
O3 P1 1.580378 1_556
O4 P0 1.580378 1_565
O5 P1 1.509881 1_555
O7 P0 1.579016 1_555
O8 P1 1.579016 1_555
O9 P2 1.554458 1_555
O10 P3 1.554458 1_555
O11 P3 1.558259 1_545
O12 P2 1.567561 1_555
O13 P2 1.558259 1_554
O14 P3 1.567561 1_555
O16 P2 1.554458 1_555
O17 P3 1.554458 1_555
