# generated using pymatgen
data_Ca(SiRh)2
_symmetry_space_group_name_H-M   'P 1'
_cell_length_a   4.08162345
_cell_length_b   4.08162345
_cell_length_c   5.76849127
_cell_angle_alpha   110.71906239
_cell_angle_beta   110.71906239
_cell_angle_gamma   90.00000000
_symmetry_Int_Tables_number   1
_chemical_formula_structural   Ca(SiRh)2
_chemical_formula_sum   'Ca1 Si2 Rh2'
_cell_volume   83.20768308
_cell_formula_units_Z   1
loop_
 _symmetry_equiv_pos_site_id
 _symmetry_equiv_pos_as_xyz
  1  'x, y, z'
loop_
 _atom_site_type_symbol
 _atom_site_label
 _atom_site_symmetry_multiplicity
 _atom_site_fract_x
 _atom_site_fract_y
 _atom_site_fract_z
 _atom_site_occupancy
  Ca  Ca0  1  0.00000000  -0.00000000  0.00000000  1
  Si  Si0  1  0.62739047  0.62739047  0.25477995  1
  Si  Si1  1  0.37260953  0.37260953  0.74522005  1
  Rh  Rh0  1  0.25000000  0.75000000  0.50000000  1
  Rh  Rh1  1  0.75000000  0.25000000  0.50000000  1
loop_
_geom_bond_atom_site_label_1
_geom_bond_atom_site_label_2
_geom_bond_distance
_geom_bond_site_symmetry_2
Ca0 Si0 3.154220 1_445
Ca0 Si1 3.154220 1_554
Ca0 Si1 3.154222 1_544
Ca0 Si1 3.154222 1_454
Ca0 Si0 3.154222 1_455
Ca0 Si0 3.154222 1_545
Ca0 Si1 3.154225 1_444
Ca0 Si0 3.154225 1_555
Ca0 Rh0 3.225109 1_555
Ca0 Rh0 3.225109 1_444
Ca0 Rh1 3.225109 1_444
Ca0 Rh1 3.225109 1_555
Ca0 Rh1 3.225109 1_454
Ca0 Rh1 3.225109 1_455
Ca0 Rh0 3.225109 1_544
Ca0 Rh0 3.225109 1_545
Si0 Si1 2.545029 1_554
Rh0 Si0 2.380117 1_455
Rh0 Si1 2.380117 1_565
Rh0 Si1 2.380121 1_555
Rh0 Si0 2.380121 1_555
Rh1 Si0 2.380117 1_545
Rh1 Si1 2.380117 1_655
Rh1 Si0 2.380121 1_555
Rh1 Si1 2.380121 1_555
