# generated using pymatgen
data_LaMgCrWO6
_symmetry_space_group_name_H-M   'P 1'
_cell_length_a   5.45614124
_cell_length_b   5.65278900
_cell_length_c   7.82078940
_cell_angle_alpha   90.00000000
_cell_angle_beta   88.81233217
_cell_angle_gamma   90.00000000
_symmetry_Int_Tables_number   1
_chemical_formula_structural   LaMgCrWO6
_chemical_formula_sum   'La2 Mg2 Cr2 W2 O12'
_cell_volume   241.16021350
_cell_formula_units_Z   2
loop_
 _symmetry_equiv_pos_site_id
 _symmetry_equiv_pos_as_xyz
  1  'x, y, z'
loop_
 _atom_site_type_symbol
 _atom_site_label
 _atom_site_symmetry_multiplicity
 _atom_site_fract_x
 _atom_site_fract_y
 _atom_site_fract_z
 _atom_site_occupancy
  La  La0  1  0.01290600  0.95797900  0.75394800  1
  La  La1  1  0.51290600  0.54202100  0.25394800  1
  Mg  Mg0  1  0.47472600  0.44840400  0.74975600  1
  Mg  Mg1  1  0.97472600  0.05159600  0.24975600  1
  Cr  Cr0  1  0.50047500  0.99957200  0.49934100  1
  Cr  Cr1  1  0.00047500  0.50042800  0.99934100  1
  W  W0  1  0.49849300  0.00297900  0.00230800  1
  W  W1  1  0.99849300  0.49702100  0.50230800  1
  O  O0  1  0.09080800  0.44796100  0.24775300  1
  O  O1  1  0.20794000  0.22573300  0.93478600  1
  O  O2  1  0.21522000  0.21492000  0.55619300  1
  O  O3  1  0.31388300  0.69164100  0.93944700  1
  O  O4  1  0.32185800  0.69277100  0.56561600  1
  O  O5  1  0.36368900  0.97407100  0.25085200  1
  O  O6  1  0.59080800  0.05203900  0.74775300  1
  O  O7  1  0.70794000  0.27426700  0.43478600  1
  O  O8  1  0.71522000  0.28508000  0.05619300  1
  O  O9  1  0.81388300  0.80835900  0.43944700  1
  O  O10  1  0.82185800  0.80722900  0.06561600  1
  O  O11  1  0.86368900  0.52592900  0.75085200  1
loop_
_geom_bond_atom_site_label_1
_geom_bond_atom_site_label_2
_geom_bond_distance
_geom_bond_site_symmetry_2
La0 O1 2.342190 1_565
La0 O6 2.365081 1_465
La0 O2 2.376816 1_565
La0 O11 2.574686 1_455
La0 O4 2.674987 1_555
La0 O3 2.677098 1_555
La0 O10 2.765641 1_456
La0 O9 2.838148 1_455
La1 O7 2.342190 1_555
La1 O0 2.365081 1_555
La1 O8 2.376816 1_555
La1 O5 2.574686 1_555
La1 O10 2.674987 1_555
La1 O9 2.677098 1_555
La1 O4 2.765641 1_555
La1 O3 2.838148 1_554
Mg0 O11 2.167202 1_555
Mg0 O4 2.174294 1_555
Mg0 O3 2.192621 1_555
Mg0 O6 2.328330 1_555
Mg0 O1 2.389543 1_555
Mg0 O2 2.475325 1_555
Mg1 O5 2.167202 1_645
Mg1 O10 2.174294 1_545
Mg1 O9 2.192621 1_545
Mg1 O0 2.328330 1_655
Mg1 O7 2.389543 1_555
Mg1 O8 2.475325 1_555
Cr0 O7 1.980833 1_565
Cr0 O2 2.018222 1_565
Cr0 O6 2.035918 1_565
Cr0 O4 2.050662 1_555
Cr0 O9 2.068483 1_555
Cr0 O5 2.101102 1_555
Cr1 O1 1.980833 1_555
Cr1 O8 2.018222 1_456
Cr1 O0 2.035918 1_556
Cr1 O10 2.050662 1_456
Cr1 O3 2.068483 1_555
Cr1 O11 2.101102 1_455
O0 W1 2.062137 1_455
O1 W0 2.100542 1_556
O2 W1 2.034571 1_455
O3 W0 2.091444 1_566
O4 W1 2.149096 1_455
O5 W0 2.070461 1_565
O6 W0 2.062137 1_556
O7 W1 2.100542 1_555
O8 W0 2.034571 1_555
O9 W1 2.091444 1_555
O10 W0 2.149096 1_565
O11 W1 2.070461 1_555
