# generated using pymatgen
data_Li6Co2OF11
_symmetry_space_group_name_H-M   'P 1'
_cell_length_a   5.12700700
_cell_length_b   5.45240942
_cell_length_c   8.69552588
_cell_angle_alpha   106.83925886
_cell_angle_beta   90.28045342
_cell_angle_gamma   117.97610253
_symmetry_Int_Tables_number   1
_chemical_formula_structural   Li6Co2OF11
_chemical_formula_sum   'Li6 Co2 O1 F11'
_cell_volume   202.59892816
_cell_formula_units_Z   1
loop_
 _symmetry_equiv_pos_site_id
 _symmetry_equiv_pos_as_xyz
  1  'x, y, z'
loop_
 _atom_site_type_symbol
 _atom_site_label
 _atom_site_symmetry_multiplicity
 _atom_site_fract_x
 _atom_site_fract_y
 _atom_site_fract_z
 _atom_site_occupancy
  Li  Li0  1  0.10961300  0.34977400  0.08155100  1
  Li  Li1  1  0.17894700  0.87326100  0.56826500  1
  Li  Li2  1  0.34271500  0.89335000  0.16676800  1
  Li  Li3  1  0.37012700  0.37853300  0.68262800  1
  Li  Li4  1  0.85069200  0.15191000  0.43774800  1
  Li  Li5  1  0.63241000  0.09647600  0.81330300  1
  Co  Co0  1  0.66076100  0.64309000  0.32184500  1
  Co  Co1  1  0.84017000  0.60546600  0.92588800  1
  O  O0  1  0.61335200  0.62661800  0.13410900  1
  F  F0  1  0.04125600  0.02229100  0.22736300  1
  F  F1  1  0.04938500  0.51959200  0.72690300  1
  F  F2  1  0.44721200  0.85663800  0.35839700  1
  F  F3  1  0.28257000  0.30998300  0.45548700  1
  F  F4  1  0.23356200  0.76619200  0.96992200  1
  F  F5  1  0.75060400  0.72533400  0.51602500  1
  F  F6  1  0.74277500  0.22640800  0.02281500  1
  F  F7  1  0.44174800  0.38765100  0.89096600  1
  F  F8  1  0.54200800  0.12483700  0.62491700  1
  F  F9  1  0.93089300  0.48077000  0.27910500  1
  F  F10  1  0.91997400  0.93455100  0.79547700  1
loop_
_geom_bond_atom_site_label_1
_geom_bond_atom_site_label_2
_geom_bond_distance
_geom_bond_site_symmetry_2
Co0 O0 1.619498 1_555
Co0 F5 1.619936 1_555
Co0 F2 1.908009 1_555
Co0 F9 1.950390 1_555
Co0 Li4 2.344466 1_565
Co1 F4 1.767004 1_655
Co1 F7 1.784447 1_555
Co1 F1 2.093718 1_655
Co1 F10 2.273216 1_555
F0 Li2 1.993371 1_545
F0 Li4 2.171873 1_455
F0 Li0 2.376469 1_555
F1 Li3 2.113104 1_555
F1 Li4 2.552883 1_455
F2 Li2 1.840878 1_555
F2 Li4 1.888154 1_565
F2 Li1 2.296940 1_555
F3 Li3 1.910097 1_555
F3 Li4 1.949011 1_455
F4 Li2 1.631794 1_556
F5 Li1 1.948316 1_655
F5 Li4 2.436627 1_565
F6 Li0 1.689756 1_655
F6 Li5 1.734107 1_554
F7 Li3 1.828500 1_555
F7 Li5 2.184816 1_555
F7 Li0 2.363215 1_556
F8 Li1 1.671257 1_545
F8 Li5 1.768822 1_555
F8 Li3 1.920312 1_555
F8 Li4 2.262870 1_555
F9 Li0 2.054086 1_655
F9 Li4 2.456441 1_555
F10 Li5 2.030117 1_565
F10 Li1 2.416103 1_655
