# generated using pymatgen
data_V2O3
_symmetry_space_group_name_H-M   'P 1'
_cell_length_a   3.11156919
_cell_length_b   6.89020777
_cell_length_c   7.61419757
_cell_angle_alpha   81.36893012
_cell_angle_beta   90.71645392
_cell_angle_gamma   76.54371534
_symmetry_Int_Tables_number   1
_chemical_formula_structural   V2O3
_chemical_formula_sum   'V6 O9'
_cell_volume   156.77310112
_cell_formula_units_Z   3
loop_
 _symmetry_equiv_pos_site_id
 _symmetry_equiv_pos_as_xyz
  1  'x, y, z'
loop_
 _atom_site_type_symbol
 _atom_site_label
 _atom_site_symmetry_multiplicity
 _atom_site_fract_x
 _atom_site_fract_y
 _atom_site_fract_z
 _atom_site_occupancy
  V  V0  1  0.96167000  0.06605800  0.18155700  1
  V  V1  1  0.64547000  0.69728800  0.49588500  1
  V  V2  1  0.31218900  0.36810400  0.86999900  1
  V  V3  1  0.01861000  0.93346800  0.81613100  1
  V  V4  1  0.36332400  0.29294600  0.50886300  1
  V  V5  1  0.68869500  0.63097900  0.13331500  1
  O  O0  1  0.47997100  0.99688700  0.99870300  1
  O  O1  1  0.55362900  0.89687400  0.65993100  1
  O  O2  1  0.45911300  0.11954100  0.32563300  1
  O  O3  1  0.17143100  0.65110000  0.96317900  1
  O  O4  1  0.82569000  0.35018000  0.03777100  1
  O  O5  1  0.13643200  0.76980300  0.29243400  1
  O  O6  1  0.88410700  0.23003800  0.71302700  1
  O  O7  1  0.21420300  0.55000500  0.63071600  1
  O  O8  1  0.78546600  0.44672800  0.37285500  1
loop_
_geom_bond_atom_site_label_1
_geom_bond_atom_site_label_2
_geom_bond_distance
_geom_bond_site_symmetry_2
O0 V3 2.146769 1_555
O0 V0 2.159653 1_466
O0 V3 2.198224 1_655
O0 V0 2.211690 1_566
O0 V5 2.504874 1_556
O0 V2 2.527543 1_565
O1 V3 1.946315 1_655
O1 V1 1.968399 1_555
O1 V3 2.047841 1_555
O2 V0 1.918486 1_555
O2 V4 1.951357 1_555
O2 V0 2.019744 1_455
O3 V5 2.011290 1_456
O3 V5 2.019408 1_556
O3 V3 2.041394 1_555
O3 V2 2.126700 1_555
O4 V2 2.002458 1_554
O4 V2 2.006654 1_654
O4 V0 2.041984 1_555
O4 V5 2.121470 1_555
O5 V0 2.032204 1_465
O5 V1 2.120418 1_555
O5 V5 2.229496 1_555
O5 V1 2.272722 1_455
O5 V5 2.291191 1_455
O6 V3 2.019738 1_645
O6 V4 2.153653 1_555
O6 V4 2.232588 1_655
O6 V2 2.235833 1_655
O6 V2 2.259852 1_555
O7 V1 2.005377 1_455
O7 V2 2.026372 1_555
O7 V1 2.059148 1_555
O7 V4 2.082009 1_555
O8 V5 2.035282 1_555
O8 V4 2.040967 1_655
O8 V1 2.047780 1_555
O8 V4 2.067111 1_555
