# generated using pymatgen
data_Ca2B8O15
_symmetry_space_group_name_H-M   'P 1'
_cell_length_a   6.49791800
_cell_length_b   9.44469395
_cell_length_c   10.16406109
_cell_angle_alpha   117.00568183
_cell_angle_beta   90.51809556
_cell_angle_gamma   99.89107244
_symmetry_Int_Tables_number   1
_chemical_formula_structural   Ca2B8O15
_chemical_formula_sum   'Ca4 B16 O30'
_cell_volume   544.80172524
_cell_formula_units_Z   2
loop_
 _symmetry_equiv_pos_site_id
 _symmetry_equiv_pos_as_xyz
  1  'x, y, z'
loop_
 _atom_site_type_symbol
 _atom_site_label
 _atom_site_symmetry_multiplicity
 _atom_site_fract_x
 _atom_site_fract_y
 _atom_site_fract_z
 _atom_site_occupancy
  Ca  Ca0  1  0.51917600  0.46247100  0.71998500  1
  Ca  Ca1  1  0.48082400  0.53752900  0.28001500  1
  Ca  Ca2  1  0.84011600  0.01315400  0.17206400  1
  Ca  Ca3  1  0.15988400  0.98684600  0.82793600  1
  B  B0  1  0.24820200  0.84639500  0.21851500  1
  B  B1  1  0.75179800  0.15360500  0.78148500  1
  B  B2  1  0.58097700  0.27796000  0.12654100  1
  B  B3  1  0.41902300  0.72204000  0.87345900  1
  B  B4  1  0.23549800  0.31167300  0.15696800  1
  B  B5  1  0.76450200  0.68832700  0.84303200  1
  B  B6  1  0.20113900  0.78253000  0.47829200  1
  B  B7  1  0.79886100  0.21747000  0.52170800  1
  B  B8  1  0.07492300  0.65286600  0.73589700  1
  B  B9  1  0.92507700  0.34713400  0.26410300  1
  B  B10  1  0.05470800  0.34749700  0.80790200  1
  B  B11  1  0.94529200  0.65250300  0.19209800  1
  B  B12  1  0.26958300  0.14941600  0.02476600  1
  B  B13  1  0.73041700  0.85058400  0.97523400  1
  B  B14  1  0.55440500  0.75485900  0.42753300  1
  B  B15  1  0.44559500  0.24514100  0.57246700  1
  O  O0  1  0.45164900  0.36399500  0.15233500  1
  O  O1  1  0.54835100  0.63600500  0.84766500  1
  O  O2  1  0.49896700  0.19309000  0.04816800  1
  O  O3  1  0.50103300  0.80691000  0.95183200  1
  O  O4  1  0.14931300  0.20354200  0.10419100  1
  O  O5  1  0.85068700  0.79645800  0.89580900  1
  O  O6  1  0.13969200  0.37737600  0.21972900  1
  O  O7  1  0.86030800  0.62262400  0.78027100  1
  O  O8  1  0.65479000  0.61212000  0.47731400  1
  O  O9  1  0.34521000  0.38788000  0.52268600  1
  O  O10  1  0.21753500  0.97867600  0.07132600  1
  O  O11  1  0.78246500  0.02132400  0.92867400  1
  O  O12  1  0.15795900  0.69016200  0.21394300  1
  O  O13  1  0.84204100  0.30983800  0.78605700  1
  O  O14  1  0.14328900  0.86521300  0.32702900  1
  O  O15  1  0.85671100  0.13478700  0.67297100  1
  O  O16  1  0.39560600  0.72167500  0.52730300  1
  O  O17  1  0.60439400  0.27832500  0.47269700  1
  O  O18  1  0.06989900  0.76076200  0.57769400  1
  O  O19  1  0.93010100  0.23923800  0.42230600  1
  O  O20  1  0.19682100  0.23024000  0.86265700  1
  O  O21  1  0.80317900  0.76976000  0.13734300  1
  O  O22  1  0.71460700  0.88930100  0.41122100  1
  O  O23  1  0.28539300  0.11069900  0.58877900  1
  O  O24  1  0.47308500  0.82246100  0.26823800  1
  O  O25  1  0.52691500  0.17753900  0.73176200  1
  O  O26  1  0.78696000  0.26915100  0.17834400  1
  O  O27  1  0.21304000  0.73084900  0.82165600  1
  O  O28  1  0.15146100  0.49886700  0.77448500  1
  O  O29  1  0.84853900  0.50113300  0.22551500  1
loop_
_geom_bond_atom_site_label_1
_geom_bond_atom_site_label_2
_geom_bond_distance
_geom_bond_site_symmetry_2
Ca0 O1 1.537369 1_555
Ca0 O9 2.048907 1_555
Ca0 O28 2.503466 1_555
Ca1 O0 1.537369 1_555
Ca1 O8 2.048907 1_555
Ca1 O29 2.503466 1_555
Ca2 O21 2.130427 1_545
Ca2 O19 2.445923 1_555
Ca2 O26 2.473125 1_555
Ca2 O11 2.536268 1_554
Ca2 O10 2.680643 1_645
Ca2 O4 2.767015 1_655
Ca3 O20 2.130427 1_565
Ca3 O18 2.445923 1_555
Ca3 O27 2.473125 1_555
Ca3 O10 2.536268 1_556
Ca3 O11 2.680643 1_465
Ca3 O5 2.767015 1_455
B0 O14 1.260955 1_555
B0 O12 1.470817 1_555
B0 O24 1.626562 1_555
B1 O15 1.260955 1_555
B1 O13 1.470817 1_555
B1 O25 1.626562 1_555
B2 O2 0.909253 1_555
B2 O0 1.216689 1_555
B2 O26 1.463191 1_555
B3 O3 0.909253 1_555
B3 O1 1.216689 1_555
B3 O27 1.463191 1_555
B4 O4 0.972070 1_555
B4 O6 0.979777 1_555
B4 O0 1.415276 1_555
B5 O5 0.972070 1_555
B5 O7 0.979777 1_555
B5 O1 1.415276 1_555
B6 O18 1.390778 1_555
B6 O16 1.635057 1_555
B6 O14 2.072588 1_555
B7 O19 1.390778 1_555
B7 O17 1.635057 1_555
B7 O15 2.072588 1_555
B8 O27 1.132891 1_555
B8 O7 1.490401 1_455
B8 O28 1.811000 1_555
B9 O26 1.132891 1_555
B9 O6 1.490401 1_655
B9 O29 1.811000 1_555
B10 O13 1.356210 1_455
B10 O28 1.640292 1_555
B10 O20 1.814030 1_555
B11 O12 1.356210 1_655
B11 O29 1.640292 1_555
B11 O21 1.814030 1_555
B12 O4 1.139148 1_555
B12 O2 1.463431 1_555
B12 O10 1.856704 1_545
B12 Ca3 1.917437 1_544
B12 O20 2.184785 1_554
B13 O5 1.139148 1_555
B13 O3 1.463431 1_555
B13 O11 1.856704 1_565
B13 Ca2 1.917437 1_566
B13 O21 2.184785 1_556
B14 O16 1.545236 1_555
B14 O22 1.569595 1_555
B14 O8 1.847852 1_555
B14 Ca1 1.882779 1_555
B14 O24 2.085079 1_555
B15 O17 1.545236 1_555
B15 O23 1.569595 1_555
B15 O9 1.847852 1_555
B15 Ca0 1.882779 1_555
B15 O25 2.085079 1_555
