# generated using pymatgen
data_Mg2Bi
_symmetry_space_group_name_H-M   'P 1'
_cell_length_a   5.63004296
_cell_length_b   5.63004296
_cell_length_c   5.53833000
_cell_angle_alpha   90.00000000
_cell_angle_beta   90.00000000
_cell_angle_gamma   117.25339760
_symmetry_Int_Tables_number   1
_chemical_formula_structural   Mg2Bi
_chemical_formula_sum   'Mg4 Bi2'
_cell_volume   156.06270005
_cell_formula_units_Z   2
loop_
 _symmetry_equiv_pos_site_id
 _symmetry_equiv_pos_as_xyz
  1  'x, y, z'
loop_
 _atom_site_type_symbol
 _atom_site_label
 _atom_site_symmetry_multiplicity
 _atom_site_fract_x
 _atom_site_fract_y
 _atom_site_fract_z
 _atom_site_occupancy
  Mg  Mg0  1  0.00270600  0.33510800  0.75000000  1
  Mg  Mg1  1  0.33510800  0.00270600  0.75000000  1
  Mg  Mg2  1  0.66489200  0.99729400  0.25000000  1
  Mg  Mg3  1  0.99729400  0.66489200  0.25000000  1
  Bi  Bi0  1  0.67954100  0.67954100  0.75000000  1
  Bi  Bi1  1  0.32045900  0.32045900  0.25000000  1
loop_
_geom_bond_atom_site_label_1
_geom_bond_atom_site_label_2
_geom_bond_distance
_geom_bond_site_symmetry_2
Mg0 Mg1 3.195642 1_555
Mg0 Mg3 3.341907 1_455
Mg0 Mg3 3.341907 1_456
Mg0 Mg1 3.344740 1_455
Mg0 Mg1 3.344740 1_565
Mg0 Mg2 3.404395 1_445
Mg0 Mg2 3.404395 1_446
Mg1 Mg2 3.341907 1_545
Mg1 Mg2 3.341907 1_546
Mg1 Mg3 3.404395 1_445
Mg1 Mg3 3.404395 1_446
Mg2 Mg3 3.195642 1_555
Mg2 Mg3 3.344740 1_455
Mg2 Mg3 3.344740 1_565
Bi0 Mg0 3.209678 1_655
Bi0 Mg1 3.209678 1_565
Bi0 Mg0 3.283693 1_665
Bi0 Mg1 3.283693 1_665
Bi0 Mg2 3.318222 1_556
Bi0 Mg2 3.318222 1_555
Bi0 Mg3 3.318222 1_556
Bi0 Mg3 3.318222 1_555
Bi0 Mg1 3.393156 1_555
Bi0 Mg0 3.393156 1_555
Bi1 Mg2 3.209678 1_545
Bi1 Mg3 3.209678 1_455
Bi1 Mg3 3.283693 1_445
Bi1 Mg2 3.283693 1_445
Bi1 Mg1 3.318222 1_555
Bi1 Mg0 3.318222 1_554
Bi1 Mg1 3.318222 1_554
Bi1 Mg0 3.318222 1_555
Bi1 Mg2 3.393156 1_555
Bi1 Mg3 3.393156 1_555
