# generated using pymatgen
data_Te4MoW3(SeS)2
_symmetry_space_group_name_H-M   'P 1'
_cell_length_a   3.39562567
_cell_length_b   3.39562567
_cell_length_c   38.75713800
_cell_angle_alpha   90.00000000
_cell_angle_beta   90.00000000
_cell_angle_gamma   119.99999363
_symmetry_Int_Tables_number   1
_chemical_formula_structural   Te4MoW3(SeS)2
_chemical_formula_sum   'Te4 Mo1 W3 Se2 S2'
_cell_volume   387.00981182
_cell_formula_units_Z   1
loop_
 _symmetry_equiv_pos_site_id
 _symmetry_equiv_pos_as_xyz
  1  'x, y, z'
loop_
 _atom_site_type_symbol
 _atom_site_label
 _atom_site_symmetry_multiplicity
 _atom_site_fract_x
 _atom_site_fract_y
 _atom_site_fract_z
 _atom_site_occupancy
  Te  Te0  1  0.33333300  0.66666700  0.33013500  1
  Te  Te1  1  0.33333300  0.66666700  0.70615100  1
  Te  Te2  1  0.33333300  0.66666700  0.23350900  1
  Te  Te3  1  0.33333300  0.66666700  0.60890900  1
  Mo  Mo0  1  0.66666700  0.33333300  0.28180800  1
  W  W0  1  0.33333300  0.66666700  0.09389800  1
  W  W1  1  0.33333300  0.66666700  0.46964400  1
  W  W2  1  0.66666700  0.33333300  0.65754000  1
  Se  Se0  1  0.66666700  0.33333300  0.05119100  1
  Se  Se1  1  0.66666700  0.33333300  0.13664100  1
  S  S0  1  0.66666700  0.33333300  0.43081100  1
  S  S1  1  0.66666700  0.33333300  0.50851000  1
loop_
_geom_bond_atom_site_label_1
_geom_bond_atom_site_label_2
_geom_bond_distance
_geom_bond_site_symmetry_2
Te1 W2 2.719000 1_455
Te1 W2 2.719000 1_565
Te1 W2 2.719004 1_555
Te3 W2 2.719537 1_455
Te3 W2 2.719537 1_565
Te3 W2 2.719541 1_555
Mo0 Te2 2.710635 1_545
Mo0 Te2 2.710635 1_655
Mo0 Te2 2.710639 1_555
Mo0 Te0 2.711385 1_545
Mo0 Te0 2.711385 1_655
Mo0 Te0 2.711389 1_555
Se0 W0 2.565757 1_545
Se0 W0 2.565757 1_655
Se0 W0 2.565761 1_555
Se1 W0 2.566657 1_545
Se1 W0 2.566657 1_655
Se1 W0 2.566661 1_555
S0 W1 2.471560 1_545
S0 W1 2.471560 1_655
S0 W1 2.471565 1_555
S1 W1 2.472339 1_655
S1 W1 2.472339 1_545
S1 W1 2.472344 1_555
