# generated using pymatgen
data_Ca8Mn7CrO24
_symmetry_space_group_name_H-M   'P 1'
_cell_length_a   10.81485483
_cell_length_b   15.13859100
_cell_length_c   10.67035184
_cell_angle_alpha   89.99990609
_cell_angle_beta   90.01549510
_cell_angle_gamma   90.00019382
_symmetry_Int_Tables_number   1
_chemical_formula_structural   Ca8Mn7CrO24
_chemical_formula_sum   'Ca32 Mn28 Cr4 O96'
_cell_volume   1746.96769419
_cell_formula_units_Z   4
loop_
 _symmetry_equiv_pos_site_id
 _symmetry_equiv_pos_as_xyz
  1  'x, y, z'
loop_
 _atom_site_type_symbol
 _atom_site_label
 _atom_site_symmetry_multiplicity
 _atom_site_fract_x
 _atom_site_fract_y
 _atom_site_fract_z
 _atom_site_occupancy
  Ca  Ca0  1  0.02185893  0.12499852  0.49603767  1
  Ca  Ca1  1  0.02126496  0.12499728  0.99552105  1
  Ca  Ca2  1  0.02229810  0.62500003  0.49548147  1
  Ca  Ca3  1  0.02236646  0.62500040  0.99590405  1
  Ca  Ca4  1  0.52252211  0.12500282  0.49585929  1
  Ca  Ca5  1  0.52289830  0.12499929  0.99520003  1
  Ca  Ca6  1  0.52232571  0.62499977  0.49569393  1
  Ca  Ca7  1  0.52223956  0.62499825  0.99559367  1
  Ca  Ca8  1  0.47820602  0.37515081  0.00415280  1
  Ca  Ca9  1  0.47783168  0.37484559  0.50457335  1
  Ca  Ca10  1  0.47820489  0.87484961  0.00415678  1
  Ca  Ca11  1  0.47782692  0.87515463  0.50458080  1
  Ca  Ca12  1  0.97752596  0.37526200  0.00413210  1
  Ca  Ca13  1  0.97769677  0.37518178  0.50457335  1
  Ca  Ca14  1  0.97752653  0.87473951  0.00412974  1
  Ca  Ca15  1  0.97769740  0.87481662  0.50456777  1
  Ca  Ca16  1  0.22820093  0.37542085  0.24596405  1
  Ca  Ca17  1  0.22799763  0.37523066  0.74531255  1
  Ca  Ca18  1  0.22819884  0.87458436  0.24596662  1
  Ca  Ca19  1  0.22799572  0.87476736  0.74531386  1
  Ca  Ca20  1  0.72731093  0.37502376  0.24567341  1
  Ca  Ca21  1  0.72755043  0.37481921  0.74550394  1
  Ca  Ca22  1  0.72731919  0.87497730  0.24567098  1
  Ca  Ca23  1  0.72754745  0.87517687  0.74549869  1
  Ca  Ca24  1  0.27259034  0.12499832  0.25489566  1
  Ca  Ca25  1  0.27241754  0.12499957  0.75377490  1
  Ca  Ca26  1  0.27212097  0.62500086  0.25420048  1
  Ca  Ca27  1  0.27237162  0.62499794  0.75446927  1
  Ca  Ca28  1  0.77142687  0.12499947  0.25462027  1
  Ca  Ca29  1  0.77202467  0.12499755  0.75427770  1
  Ca  Ca30  1  0.77248669  0.62500093  0.25433704  1
  Ca  Ca31  1  0.77225389  0.62499851  0.75436643  1
  Mn  Mn0  1  0.00008320  0.00006864  0.74969913  1
  Mn  Mn1  1  0.00007954  0.50015073  0.25012743  1
  Mn  Mn2  1  0.00000081  0.50001867  0.74998213  1
  Mn  Mn3  1  0.49982014  0.99995928  0.25027733  1
  Mn  Mn4  1  0.50008997  0.00019384  0.75021081  1
  Mn  Mn5  1  0.50006960  0.50001591  0.25006733  1
  Mn  Mn6  1  0.50000672  0.49991787  0.75001500  1
  Mn  Mn7  1  0.25005901  0.00020375  0.49965444  1
  Mn  Mn8  1  0.25014605  0.50011781  0.99982332  1
  Mn  Mn9  1  0.25006059  0.49998094  0.49993391  1
  Mn  Mn10  1  0.74974633  0.99987643  0.00009022  1
  Mn  Mn11  1  0.75012611  0.00011105  0.50022662  1
  Mn  Mn12  1  0.74997352  0.50003468  0.99997993  1
  Mn  Mn13  1  0.74995580  0.49994846  0.50007251  1
  Mn  Mn14  1  0.25005901  0.24979541  0.49965353  1
  Mn  Mn15  1  0.25014780  0.74988238  0.99982255  1
  Mn  Mn16  1  0.25006077  0.75002039  0.49993373  1
  Mn  Mn17  1  0.74974721  0.25012387  0.00009176  1
  Mn  Mn18  1  0.75012710  0.24989015  0.50022741  1
  Mn  Mn19  1  0.74997139  0.74996507  0.99998213  1
  Mn  Mn20  1  0.74995421  0.75005315  0.50007446  1
  Mn  Mn21  1  0.00008144  0.24993162  0.74970167  1
  Mn  Mn22  1  0.00008117  0.74984803  0.25012880  1
  Mn  Mn23  1  0.00000125  0.74998307  0.74998056  1
  Mn  Mn24  1  0.49982020  0.25004097  0.25027512  1
  Mn  Mn25  1  0.50008942  0.24980598  0.75021279  1
  Mn  Mn26  1  0.50007257  0.74998385  0.25006774  1
  Mn  Mn27  1  0.50000842  0.75008019  0.75001535  1
  Cr  Cr0  1  0.99931035  0.99954898  0.24938333  1
  Cr  Cr1  1  0.24973015  0.99967473  0.99992429  1
  Cr  Cr2  1  0.24973619  0.25033365  0.99989463  1
  Cr  Cr3  1  0.99930146  0.25043621  0.24937311  1
  O  O0  1  0.10413859  0.26958187  0.10401715  1
  O  O1  1  0.10388039  0.27020738  0.60285226  1
  O  O2  1  0.10394486  0.77053899  0.10299110  1
  O  O3  1  0.10390152  0.77022048  0.60304225  1
  O  O4  1  0.60355860  0.27029012  0.10301861  1
  O  O5  1  0.60387686  0.27024524  0.60291663  1
  O  O6  1  0.60388836  0.77021870  0.10299706  1
  O  O7  1  0.60393376  0.77016331  0.60301380  1
  O  O8  1  0.39618046  0.22971415  0.39696579  1
  O  O9  1  0.39654209  0.23014187  0.89699604  1
  O  O10  1  0.39608522  0.72980431  0.39695357  1
  O  O11  1  0.39620324  0.72973959  0.89695610  1
  O  O12  1  0.89541894  0.22954263  0.39625705  1
  O  O13  1  0.89642447  0.22976195  0.89725701  1
  O  O14  1  0.89606502  0.72985314  0.39703150  1
  O  O15  1  0.89612006  0.72983185  0.89698669  1
  O  O16  1  0.14651389  0.23025750  0.35291692  1
  O  O17  1  0.14532454  0.22955182  0.85392330  1
  O  O18  1  0.14627012  0.72976695  0.35309675  1
  O  O19  1  0.14603457  0.72987635  0.85294209  1
  O  O20  1  0.64629819  0.22973948  0.35280704  1
  O  O21  1  0.64640800  0.22979281  0.85310447  1
  O  O22  1  0.64604951  0.72978622  0.35294249  1
  O  O23  1  0.64614258  0.72978010  0.85307101  1
  O  O24  1  0.35422965  0.27024894  0.14641132  1
  O  O25  1  0.35371918  0.27016859  0.64721902  1
  O  O26  1  0.35384727  0.77039425  0.14689439  1
  O  O27  1  0.35387662  0.77019440  0.64696139  1
  O  O28  1  0.85340373  0.26968056  0.14678739  1
  O  O29  1  0.85408442  0.27029122  0.64712020  1
  O  O30  1  0.85396846  0.77040814  0.14710048  1
  O  O31  1  0.85395256  0.77019719  0.64699671  1
  O  O32  1  0.35384785  0.47960615  0.14689330  1
  O  O33  1  0.35387512  0.47980535  0.64696330  1
  O  O34  1  0.35422891  0.97974935  0.14640985  1
  O  O35  1  0.35372054  0.97983262  0.64721882  1
  O  O36  1  0.85396831  0.47959119  0.14709924  1
  O  O37  1  0.85395224  0.47980250  0.64699711  1
  O  O38  1  0.85340378  0.98031860  0.14678937  1
  O  O39  1  0.85408202  0.97970682  0.64712202  1
  O  O40  1  0.14651539  0.01974253  0.35291636  1
  O  O41  1  0.14531932  0.02044718  0.85392584  1
  O  O42  1  0.14626993  0.52023116  0.35309768  1
  O  O43  1  0.14603552  0.52012756  0.85294256  1
  O  O44  1  0.64629609  0.02025739  0.35280831  1
  O  O45  1  0.64640586  0.02020612  0.85310552  1
  O  O46  1  0.64605386  0.52021396  0.35293894  1
  O  O47  1  0.64614279  0.52021761  0.85306966  1
  O  O48  1  0.39618142  0.02028373  0.39696479  1
  O  O49  1  0.39654262  0.01986075  0.89699576  1
  O  O50  1  0.39608534  0.52019426  0.39695466  1
  O  O51  1  0.39620259  0.52026029  0.89695842  1
  O  O52  1  0.89541626  0.02045672  0.39625375  1
  O  O53  1  0.89641948  0.02023705  0.89725311  1
  O  O54  1  0.89606535  0.52014740  0.39703212  1
  O  O55  1  0.89612169  0.52016639  0.89698673  1
  O  O56  1  0.10394687  0.47946162  0.10299145  1
  O  O57  1  0.10390030  0.47978210  0.60304140  1
  O  O58  1  0.10414179  0.98041963  0.10401755  1
  O  O59  1  0.10387781  0.97979042  0.60285169  1
  O  O60  1  0.60388829  0.47978175  0.10299757  1
  O  O61  1  0.60393370  0.47983540  0.60301267  1
  O  O62  1  0.60356213  0.97970994  0.10302141  1
  O  O63  1  0.60387980  0.97975530  0.60291890  1
  O  O64  1  0.00969084  0.37492730  0.28867252  1
  O  O65  1  0.00971358  0.37490863  0.78918261  1
  O  O66  1  0.00969335  0.87507182  0.28867225  1
  O  O67  1  0.00971377  0.87509245  0.78918297  1
  O  O68  1  0.50959744  0.37506886  0.28914196  1
  O  O69  1  0.50948207  0.37500855  0.78928396  1
  O  O70  1  0.50959617  0.87493058  0.28914438  1
  O  O71  1  0.50948158  0.87499116  0.78927992  1
  O  O72  1  0.49024085  0.12500030  0.21075999  1
  O  O73  1  0.49020427  0.12500005  0.71082625  1
  O  O74  1  0.49041411  0.62500001  0.21090024  1
  O  O75  1  0.49044184  0.62499925  0.71092144  1
  O  O76  1  0.99095113  0.12499916  0.21209153  1
  O  O77  1  0.99031285  0.12499971  0.71083632  1
  O  O78  1  0.99052099  0.62500002  0.21093267  1
  O  O79  1  0.99043812  0.62499930  0.71085217  1
  O  O80  1  0.24033747  0.12499991  0.03753926  1
  O  O81  1  0.24027978  0.12499955  0.53906702  1
  O  O82  1  0.24054145  0.62499962  0.03908104  1
  O  O83  1  0.24042963  0.62499965  0.53914271  1
  O  O84  1  0.74077764  0.12500023  0.03945886  1
  O  O85  1  0.74022432  0.12500073  0.53929409  1
  O  O86  1  0.74041594  0.62499969  0.03909294  1
  O  O87  1  0.74045304  0.62500024  0.53908919  1
  O  O88  1  0.25942636  0.37493816  0.46074236  1
  O  O89  1  0.25958604  0.37487780  0.96127084  1
  O  O90  1  0.25942906  0.87505997  0.46074516  1
  O  O91  1  0.25959217  0.87512149  0.96126890  1
  O  O92  1  0.75973577  0.37499677  0.46080357  1
  O  O93  1  0.75966193  0.37505126  0.96096672  1
  O  O94  1  0.75973729  0.87500246  0.46080769  1
  O  O95  1  0.75966097  0.87494818  0.96096716  1
loop_
_geom_bond_atom_site_label_1
_geom_bond_atom_site_label_2
_geom_bond_distance
_geom_bond_site_symmetry_2
Ca0 O77 2.317321 1_455
Ca0 O12 2.346794 1_455
Ca0 O52 2.346800 1_455
Ca0 O81 2.406276 1_555
Ca0 O40 2.586471 1_555
Ca0 O16 2.586479 1_555
Ca0 O59 2.630127 1_545
Ca0 O1 2.630147 1_555
Ca1 O13 2.331703 1_455
Ca1 O53 2.331703 1_455
Ca1 O76 2.334110 1_456
Ca1 O80 2.411167 1_556
Ca1 O41 2.566883 1_555
Ca1 O17 2.566961 1_555
Ca1 O58 2.633149 1_546
Ca1 O0 2.633221 1_556
Ca2 O79 2.323860 1_455
Ca2 O54 2.342236 1_455
Ca2 O14 2.342250 1_455
Ca2 O83 2.404500 1_555
Ca2 O18 2.573400 1_555
Ca2 O42 2.573420 1_555
Ca2 O57 2.632195 1_555
Ca2 O3 2.632234 1_555
Ca3 O78 2.320227 1_456
Ca3 O15 2.344352 1_455
Ca3 O55 2.344364 1_455
Ca3 O82 2.403966 1_556
Ca3 O43 2.576332 1_555
Ca3 O19 2.576350 1_555
Ca3 O2 2.633971 1_556
Ca3 O56 2.633984 1_556
Ca4 O73 2.320342 1_555
Ca4 O8 2.343607 1_555
Ca4 O48 2.343682 1_555
Ca4 O85 2.399478 1_555
Ca4 O20 2.576229 1_555
Ca4 O44 2.576300 1_555
Ca4 O5 2.629274 1_555
Ca4 O63 2.629361 1_545
Ca5 O72 2.327153 1_556
Ca5 O49 2.344776 1_555
Ca5 O9 2.344824 1_555
Ca5 O84 2.403067 1_556
Ca5 O45 2.569211 1_555
Ca5 O21 2.569224 1_555
Ca5 O4 2.630925 1_556
Ca5 O62 2.630934 1_546
Ca6 O75 2.322388 1_555
Ca6 O10 2.343190 1_555
Ca6 O50 2.343190 1_555
Ca6 O87 2.403908 1_555
Ca6 O22 2.574499 1_555
Ca6 O46 2.574548 1_555
Ca6 O7 2.630411 1_555
Ca6 O61 2.630418 1_555
Ca7 O74 2.323128 1_556
Ca7 O51 2.340717 1_555
Ca7 O11 2.340763 1_555
Ca7 O86 2.404642 1_556
Ca7 O23 2.574020 1_555
Ca7 O47 2.574028 1_555
Ca7 O60 2.631621 1_556
Ca7 O6 2.631667 1_556
Ca8 O69 2.317634 1_554
Ca8 O60 2.338395 1_555
Ca8 O4 2.338789 1_555
Ca8 O89 2.408094 1_554
Ca8 O24 2.573890 1_555
Ca8 O32 2.574930 1_555
Ca8 O9 2.627901 1_554
Ca8 O51 2.630585 1_554
Ca9 O68 2.324352 1_555
Ca9 O5 2.337963 1_555
Ca9 O61 2.342773 1_555
Ca9 O88 2.407756 1_555
Ca9 O25 2.574999 1_555
Ca9 O33 2.575155 1_555
Ca9 O8 2.631499 1_555
Ca9 O50 2.634644 1_555
Ca10 O71 2.317720 1_554
Ca10 O6 2.338385 1_555
Ca10 O62 2.338805 1_555
Ca10 O91 2.408029 1_554
Ca10 O34 2.573842 1_555
Ca10 O26 2.574900 1_555
Ca10 O49 2.627945 1_564
Ca10 O11 2.630612 1_554
Ca11 O70 2.324411 1_555
Ca11 O63 2.337986 1_555
Ca11 O7 2.342793 1_555
Ca11 O90 2.407686 1_555
Ca11 O35 2.574934 1_555
Ca11 O27 2.575057 1_555
Ca11 O48 2.631490 1_565
Ca11 O10 2.634686 1_555
Ca12 O65 2.319952 1_654
Ca12 O56 2.338707 1_655
Ca12 O0 2.360012 1_655
Ca12 O93 2.400644 1_554
Ca12 O36 2.570678 1_555
Ca12 O28 2.583563 1_555
Ca12 O55 2.625586 1_554
Ca12 O13 2.630779 1_554
Ca13 O64 2.329673 1_655
Ca13 O57 2.339555 1_655
Ca13 O1 2.342366 1_655
Ca13 O92 2.402916 1_555
Ca13 O37 2.571010 1_555
Ca13 O29 2.573553 1_555
Ca13 O54 2.629025 1_555
Ca13 O12 2.643492 1_555
Ca14 O67 2.319923 1_654
Ca14 O2 2.338714 1_655
Ca14 O58 2.360038 1_655
Ca14 O95 2.400655 1_554
Ca14 O30 2.570715 1_555
Ca14 O38 2.583580 1_555
Ca14 O15 2.625622 1_554
Ca14 O53 2.630776 1_564
Ca15 O66 2.329620 1_655
Ca15 O3 2.339550 1_655
Ca15 O59 2.342360 1_655
Ca15 O94 2.402887 1_555
Ca15 O31 2.571024 1_555
Ca15 O39 2.573622 1_555
Ca15 O14 2.628976 1_555
Ca15 O52 2.643508 1_565
Ca16 O88 2.316428 1_555
Ca16 O32 2.335029 1_555
Ca16 O24 2.349869 1_555
Ca16 O64 2.406827 1_555
Ca16 O56 2.571526 1_555
Ca16 O0 2.580774 1_555
Ca16 O42 2.626469 1_555
Ca16 O16 2.629198 1_555
Ca17 O89 2.329451 1_555
Ca17 O33 2.336996 1_555
Ca17 O25 2.339807 1_555
Ca17 O65 2.406803 1_555
Ca17 O57 2.570960 1_555
Ca17 O1 2.576663 1_555
Ca17 O43 2.629986 1_555
Ca17 O17 2.647017 1_555
Ca18 O90 2.316438 1_555
Ca18 O26 2.335103 1_555
Ca18 O34 2.349817 1_555
Ca18 O66 2.406772 1_555
Ca18 O2 2.571584 1_555
Ca18 O58 2.580726 1_555
Ca18 O18 2.626526 1_555
Ca18 O40 2.629113 1_565
Ca19 O91 2.329430 1_555
Ca19 O27 2.337024 1_555
Ca19 O35 2.339859 1_555
Ca19 O67 2.406779 1_555
Ca19 O3 2.570900 1_555
Ca19 O59 2.576679 1_555
Ca19 O19 2.629891 1_555
Ca19 O41 2.647056 1_565
Ca20 O92 2.322051 1_555
Ca20 O36 2.342923 1_555
Ca20 O28 2.348823 1_555
Ca20 O68 2.399913 1_555
Ca20 O60 2.571642 1_555
Ca20 O4 2.573131 1_555
Ca20 O20 2.629125 1_555
Ca20 O46 2.629437 1_555
Ca21 O93 2.325055 1_555
Ca21 O29 2.340836 1_555
Ca21 O37 2.345247 1_555
Ca21 O69 2.404325 1_555
Ca21 O5 2.570773 1_555
Ca21 O61 2.573979 1_555
Ca21 O21 2.628502 1_555
Ca21 O47 2.634011 1_555
Ca22 O94 2.322109 1_555
Ca22 O30 2.342880 1_555
Ca22 O38 2.348722 1_555
Ca22 O70 2.400024 1_555
Ca22 O6 2.571679 1_555
Ca22 O62 2.573118 1_555
Ca22 O44 2.629135 1_565
Ca22 O22 2.629514 1_555
Ca23 O95 2.325118 1_555
Ca23 O39 2.340817 1_555
Ca23 O31 2.345216 1_555
Ca23 O71 2.404301 1_555
Ca23 O63 2.570737 1_555
Ca23 O7 2.573895 1_555
Ca23 O45 2.628572 1_565
Ca23 O23 2.634003 1_555
Ca24 O40 2.343667 1_555
Ca24 O16 2.343723 1_555
Ca24 O80 2.345259 1_555
Ca24 O72 2.400633 1_555
Ca24 O48 2.568357 1_555
Ca24 O8 2.568367 1_555
Ca24 O34 2.637253 1_545
Ca24 O24 2.637262 1_555
Ca25 O81 2.317130 1_555
Ca25 O17 2.353118 1_555
Ca25 O41 2.353156 1_555
Ca25 O73 2.399623 1_555
Ca25 O49 2.582582 1_555
Ca25 O9 2.582611 1_555
Ca25 O35 2.626022 1_545
Ca25 O25 2.626034 1_555
Ca26 O82 2.320577 1_555
Ca26 O18 2.341426 1_555
Ca26 O42 2.341461 1_555
Ca26 O74 2.405718 1_555
Ca26 O10 2.575595 1_555
Ca26 O50 2.575634 1_555
Ca26 O26 2.633888 1_555
Ca26 O32 2.633920 1_555
Ca27 O83 2.323342 1_555
Ca27 O43 2.343514 1_555
Ca27 O19 2.343608 1_555
Ca27 O75 2.403862 1_555
Ca27 O51 2.572569 1_555
Ca27 O11 2.572592 1_555
Ca27 O33 2.631477 1_555
Ca27 O27 2.631532 1_555
Ca28 O84 2.319564 1_555
Ca28 O20 2.333216 1_555
Ca28 O44 2.333248 1_555
Ca28 O76 2.417224 1_555
Ca28 O52 2.566258 1_555
Ca28 O12 2.566295 1_555
Ca28 O38 2.628251 1_545
Ca28 O28 2.628254 1_555
Ca29 O85 2.319496 1_555
Ca29 O45 2.339890 1_555
Ca29 O21 2.339920 1_555
Ca29 O77 2.405955 1_555
Ca29 O53 2.579025 1_555
Ca29 O13 2.579112 1_555
Ca29 O39 2.633105 1_545
Ca29 O29 2.633151 1_555
Ca30 O86 2.322679 1_555
Ca30 O46 2.343885 1_555
Ca30 O22 2.343920 1_555
Ca30 O78 2.403185 1_555
Ca30 O14 2.573510 1_555
Ca30 O54 2.573531 1_555
Ca30 O30 2.632854 1_555
Ca30 O36 2.632899 1_555
Ca31 O87 2.322595 1_555
Ca31 O47 2.342280 1_555
Ca31 O23 2.342303 1_555
Ca31 O79 2.405002 1_555
Ca31 O15 2.574484 1_555
Ca31 O55 2.574484 1_555
Ca31 O37 2.631592 1_555
Ca31 O31 2.631621 1_555
Mn0 O77 1.939083 1_455
Mn0 O67 1.941094 1_545
Mn0 O39 1.945576 1_445
Mn0 O41 1.948896 1_555
Mn0 O59 1.952043 1_545
Mn0 O53 1.957030 1_455
Mn1 O78 1.938513 1_455
Mn1 O64 1.942586 1_555
Mn1 O42 1.948928 1_555
Mn1 O36 1.949727 1_455
Mn1 O54 1.953235 1_455
Mn1 O56 1.955954 1_555
Mn2 O79 1.940305 1_455
Mn2 O65 1.942464 1_555
Mn2 O43 1.947571 1_555
Mn2 O37 1.948095 1_455
Mn2 O57 1.953396 1_555
Mn2 O55 1.953606 1_455
Mn3 O70 1.940537 1_555
Mn3 O72 1.942099 1_565
Mn3 O44 1.949317 1_565
Mn3 O34 1.949409 1_555
Mn3 O48 1.949813 1_565
Mn3 O62 1.955149 1_555
Mn4 O73 1.938507 1_555
Mn4 O71 1.943346 1_545
Mn4 O49 1.948535 1_555
Mn4 O45 1.949415 1_555
Mn4 O35 1.951297 1_545
Mn4 O63 1.956206 1_545
Mn5 O68 1.939662 1_555
Mn5 O74 1.940495 1_555
Mn5 O46 1.946806 1_555
Mn5 O32 1.951213 1_555
Mn5 O50 1.953328 1_555
Mn5 O60 1.953993 1_555
Mn6 O69 1.939522 1_555
Mn6 O75 1.941710 1_555
Mn6 O33 1.948979 1_555
Mn6 O47 1.949480 1_555
Mn6 O51 1.953078 1_555
Mn6 O61 1.953730 1_555
Mn7 O81 1.938368 1_555
Mn7 O90 1.942112 1_545
Mn7 O48 1.947125 1_555
Mn7 O40 1.947326 1_555
Mn7 O59 1.951488 1_545
Mn7 O35 1.957098 1_545
Mn8 O82 1.939178 1_556
Mn8 O89 1.942763 1_555
Mn8 O51 1.947749 1_555
Mn8 O56 1.952055 1_556
Mn8 O43 1.953172 1_555
Mn8 O32 1.953444 1_556
Mn9 O83 1.941101 1_555
Mn9 O88 1.941265 1_555
Mn9 O50 1.948326 1_555
Mn9 O57 1.950252 1_555
Mn9 O42 1.951368 1_555
Mn9 O33 1.952994 1_555
Mn10 O95 1.939736 1_554
Mn10 O84 1.942649 1_565
Mn10 O38 1.947744 1_555
Mn10 O62 1.949324 1_555
Mn10 O45 1.950036 1_564
Mn10 O53 1.953513 1_564
Mn11 O85 1.939031 1_555
Mn11 O94 1.942900 1_545
Mn11 O52 1.948228 1_555
Mn11 O63 1.948885 1_545
Mn11 O39 1.953270 1_545
Mn11 O44 1.956356 1_555
Mn12 O86 1.940046 1_556
Mn12 O93 1.940165 1_555
Mn12 O60 1.949182 1_556
Mn12 O55 1.949299 1_555
Mn12 O47 1.952091 1_555
Mn12 O36 1.955523 1_556
Mn13 O92 1.940337 1_555
Mn13 O87 1.941074 1_555
Mn13 O61 1.947830 1_555
Mn13 O54 1.949404 1_555
Mn13 O37 1.953158 1_555
Mn13 O46 1.954643 1_555
Mn14 O81 1.938369 1_555
Mn14 O88 1.942097 1_555
Mn14 O8 1.947111 1_555
Mn14 O16 1.947321 1_555
Mn14 O1 1.951473 1_555
Mn14 O25 1.957103 1_555
Mn15 O82 1.939192 1_556
Mn15 O91 1.942753 1_555
Mn15 O11 1.947751 1_555
Mn15 O2 1.952094 1_556
Mn15 O19 1.953177 1_555
Mn15 O26 1.953446 1_556
Mn16 O83 1.941129 1_555
Mn16 O90 1.941210 1_555
Mn16 O10 1.948338 1_555
Mn16 O3 1.950255 1_555
Mn16 O18 1.951381 1_555
Mn16 O27 1.952983 1_555
Mn17 O93 1.939726 1_554
Mn17 O84 1.942642 1_555
Mn17 O28 1.947705 1_555
Mn17 O4 1.949338 1_555
Mn17 O21 1.950053 1_554
Mn17 O13 1.953541 1_554
Mn18 O85 1.939024 1_555
Mn18 O92 1.942879 1_555
Mn18 O12 1.948234 1_555
Mn18 O5 1.948902 1_555
Mn18 O29 1.953248 1_555
Mn18 O20 1.956376 1_555
Mn19 O86 1.940043 1_556
Mn19 O95 1.940163 1_555
Mn19 O6 1.949150 1_556
Mn19 O15 1.949322 1_555
Mn19 O23 1.952091 1_555
Mn19 O30 1.955528 1_556
Mn20 O94 1.940297 1_555
Mn20 O87 1.941084 1_555
Mn20 O7 1.947806 1_555
Mn20 O14 1.949435 1_555
Mn20 O31 1.953145 1_555
Mn20 O22 1.954650 1_555
Mn21 O77 1.939100 1_455
Mn21 O65 1.941101 1_555
Mn21 O29 1.945562 1_455
Mn21 O17 1.948930 1_555
Mn21 O1 1.952079 1_555
Mn21 O13 1.957000 1_455
Mn22 O78 1.938498 1_455
Mn22 O66 1.942589 1_555
Mn22 O18 1.948905 1_555
Mn22 O30 1.949744 1_455
Mn22 O14 1.953224 1_455
Mn22 O2 1.955949 1_555
Mn23 O79 1.940348 1_455
Mn23 O67 1.942459 1_555
Mn23 O19 1.947562 1_555
Mn23 O31 1.948085 1_455
Mn23 O3 1.953380 1_555
Mn23 O15 1.953638 1_455
Mn24 O68 1.940526 1_555
Mn24 O72 1.942089 1_555
Mn24 O20 1.949349 1_555
Mn24 O24 1.949377 1_555
Mn24 O8 1.949851 1_555
Mn24 O4 1.955129 1_555
Mn25 O73 1.938507 1_555
Mn25 O69 1.943350 1_555
Mn25 O9 1.948512 1_555
Mn25 O21 1.949424 1_555
Mn25 O25 1.951319 1_555
Mn25 O5 1.956227 1_555
Mn26 O70 1.939660 1_555
Mn26 O74 1.940494 1_555
Mn26 O22 1.946761 1_555
Mn26 O26 1.951242 1_555
Mn26 O10 1.953336 1_555
Mn26 O6 1.953983 1_555
Mn27 O71 1.939536 1_555
Mn27 O75 1.941706 1_555
Mn27 O27 1.948999 1_555
Mn27 O23 1.949472 1_555
Mn27 O11 1.953055 1_555
Mn27 O7 1.953713 1_555
Cr0 O66 1.933735 1_655
Cr0 O38 1.942206 1_555
Cr0 O76 1.942477 1_565
Cr0 O58 1.943219 1_655
Cr0 O52 1.954380 1_565
Cr0 O40 1.961480 1_665
Cr1 O91 1.933099 1_555
Cr1 O80 1.941902 1_566
Cr1 O58 1.949024 1_556
Cr1 O41 1.949337 1_565
Cr1 O34 1.952020 1_556
Cr1 O49 1.954870 1_565
Cr2 O89 1.932883 1_555
Cr2 O80 1.942095 1_556
Cr2 O17 1.949134 1_555
Cr2 O0 1.949270 1_556
Cr2 O24 1.952228 1_556
Cr2 O9 1.954649 1_555
Cr3 O64 1.933969 1_655
Cr3 O28 1.942112 1_555
Cr3 O76 1.942257 1_555
Cr3 O0 1.943206 1_655
Cr3 O12 1.954387 1_555
Cr3 O16 1.961576 1_655
