# generated using pymatgen
data_Ba2Sr2Co(CuO4)3
_symmetry_space_group_name_H-M   'P 1'
_cell_length_a   7.91885700
_cell_length_b   7.92900000
_cell_length_c   7.93472133
_cell_angle_alpha   89.90755086
_cell_angle_beta   90.00000000
_cell_angle_gamma   90.00000000
_symmetry_Int_Tables_number   1
_chemical_formula_structural   Ba2Sr2Co(CuO4)3
_chemical_formula_sum   'Ba4 Sr4 Co2 Cu6 O24'
_cell_volume   498.20953120
_cell_formula_units_Z   2
loop_
 _symmetry_equiv_pos_site_id
 _symmetry_equiv_pos_as_xyz
  1  'x, y, z'
loop_
 _atom_site_type_symbol
 _atom_site_label
 _atom_site_symmetry_multiplicity
 _atom_site_fract_x
 _atom_site_fract_y
 _atom_site_fract_z
 _atom_site_occupancy
  Ba  Ba0  1  0.50000000  0.75103200  0.24808800  1
  Ba  Ba1  1  0.50000000  0.24790200  0.24762600  1
  Ba  Ba2  1  0.00000000  0.75221600  0.75169200  1
  Ba  Ba3  1  0.00000000  0.24879100  0.24851800  1
  Sr  Sr0  1  0.50000000  0.75511400  0.75332000  1
  Sr  Sr1  1  0.50000000  0.24557600  0.75228400  1
  Sr  Sr2  1  0.00000000  0.24472200  0.75400500  1
  Sr  Sr3  1  0.00000000  0.75460500  0.24556700  1
  Co  Co0  1  0.25010100  0.49991900  0.50465300  1
  Co  Co1  1  0.74989900  0.49991900  0.50465300  1
  Cu  Cu0  1  0.25001200  0.99993300  0.99974200  1
  Cu  Cu1  1  0.24996100  0.49996600  0.00028800  1
  Cu  Cu2  1  0.24995200  0.99971100  0.50060900  1
  Cu  Cu3  1  0.74998800  0.99993300  0.99974200  1
  Cu  Cu4  1  0.75003900  0.49996600  0.00028800  1
  Cu  Cu5  1  0.75004800  0.99971100  0.50060900  1
  O  O0  1  0.50000000  0.99987600  0.98605200  1
  O  O1  1  0.50000000  0.50019300  0.98493900  1
  O  O2  1  0.50000000  0.00005700  0.51497500  1
  O  O3  1  0.50000000  0.50000100  0.50576100  1
  O  O4  1  0.00000000  0.00127400  0.99575800  1
  O  O5  1  0.00000000  0.49927100  0.99764400  1
  O  O6  1  0.00000000  0.00159300  0.50461100  1
  O  O7  1  0.00000000  0.49921000  0.50460800  1
  O  O8  1  0.25487300  0.00513300  0.74857200  1
  O  O9  1  0.25276900  0.49790400  0.74315400  1
  O  O10  1  0.24395400  0.99366400  0.25158800  1
  O  O11  1  0.24629700  0.50322600  0.25939000  1
  O  O12  1  0.74512700  0.00513300  0.74857200  1
  O  O13  1  0.74723100  0.49790400  0.74315400  1
  O  O14  1  0.75604600  0.99366400  0.25158800  1
  O  O15  1  0.75370300  0.50322600  0.25939000  1
  O  O16  1  0.25112000  0.74818300  0.99621900  1
  O  O17  1  0.24987700  0.25187800  0.98579100  1
  O  O18  1  0.25066700  0.74208500  0.50369700  1
  O  O19  1  0.24981900  0.25768400  0.50857200  1
  O  O20  1  0.74888000  0.74818300  0.99621900  1
  O  O21  1  0.75012300  0.25187800  0.98579100  1
  O  O22  1  0.74933300  0.74208500  0.50369700  1
  O  O23  1  0.75018100  0.25768400  0.50857200  1
loop_
_geom_bond_atom_site_label_1
_geom_bond_atom_site_label_2
_geom_bond_distance
_geom_bond_site_symmetry_2
Ba0 O14 2.795208 1_555
Ba0 O10 2.795208 1_555
Ba0 O16 2.806943 1_554
Ba0 O20 2.806943 1_554
Ba0 O15 2.811469 1_555
Ba0 O11 2.811469 1_555
Ba0 O22 2.831341 1_555
Ba0 O18 2.831341 1_555
Ba0 O3 2.851122 1_555
Ba0 O0 2.864057 1_554
Ba0 O1 2.885990 1_554
Ba0 O2 2.897717 1_565
Ba1 O15 2.853771 1_555
Ba1 O11 2.853771 1_555
Ba1 O14 2.859296 1_545
Ba1 O10 2.859296 1_545
Ba1 O0 2.861547 1_544
Ba1 O3 2.864268 1_555
Ba1 O23 2.866808 1_555
Ba1 O19 2.866808 1_555
Ba1 O17 2.870589 1_554
Ba1 O21 2.870589 1_554
Ba1 O1 2.886644 1_554
Ba1 O2 2.889376 1_555
Ba2 O4 2.768123 1_565
Ba2 O20 2.778465 1_455
Ba2 O16 2.778465 1_555
Ba2 O6 2.782244 1_565
Ba2 O5 2.796139 1_555
Ba2 O18 2.796300 1_555
Ba2 O22 2.796300 1_455
Ba2 O7 2.807275 1_555
Ba2 O9 2.842117 1_555
Ba2 O13 2.842117 1_455
Ba2 O8 2.845267 1_565
Ba2 O12 2.845267 1_465
Ba3 O10 2.797242 1_545
Ba3 O14 2.797242 1_445
Ba3 O11 2.807488 1_555
Ba3 O15 2.807488 1_455
Ba3 O4 2.808328 1_554
Ba3 O5 2.809664 1_554
Ba3 O6 2.820994 1_555
Ba3 O7 2.843335 1_555
Ba3 O19 2.859526 1_555
Ba3 O23 2.859526 1_455
Ba3 O17 2.874313 1_554
Ba3 O21 2.874313 1_454
Co0 O9 1.892599 1_555
Co0 O18 1.920142 1_555
Co0 O19 1.920884 1_555
Co0 O11 1.946461 1_555
Co0 O3 1.978934 1_555
Co0 O7 1.980522 1_555
Co1 O13 1.892599 1_555
Co1 O22 1.920142 1_555
Co1 O23 1.920884 1_555
Co1 O15 1.946461 1_555
Co1 O3 1.978934 1_555
Co1 O7 1.980522 1_655
Cu0 O4 1.980090 1_565
Cu0 O0 1.982597 1_555
Cu0 O8 1.993696 1_565
Cu0 O16 1.996386 1_555
Cu0 O10 1.999441 1_556
Cu0 O17 2.000559 1_565
Cu1 O16 1.968347 1_554
Cu1 O17 1.970636 1_554
Cu1 O5 1.979524 1_554
Cu1 O1 1.983766 1_554
Cu1 O9 2.040500 1_554
Cu1 O11 2.056311 1_555
Cu2 O8 1.968442 1_565
Cu2 O10 1.977142 1_555
Cu2 O6 1.979645 1_565
Cu2 O2 1.983375 1_565
Cu2 O18 2.042832 1_555
Cu2 O19 2.046546 1_565
Cu3 O4 1.980090 1_665
Cu3 O0 1.982597 1_555
Cu3 O12 1.993696 1_565
Cu3 O20 1.996386 1_555
Cu3 O14 1.999441 1_556
Cu3 O21 2.000559 1_565
Cu4 O20 1.968347 1_554
Cu4 O21 1.970636 1_554
Cu4 O5 1.979524 1_654
Cu4 O1 1.983766 1_554
Cu4 O13 2.040500 1_554
Cu4 O15 2.056311 1_555
Cu5 O12 1.968442 1_565
Cu5 O14 1.977142 1_555
Cu5 O6 1.979645 1_665
Cu5 O2 1.983375 1_565
Cu5 O22 2.042832 1_555
Cu5 O23 2.046546 1_565
O0 Sr0 2.681067 1_555
O0 Sr1 2.687795 1_565
O1 Sr0 2.729682 1_555
O1 Sr1 2.737832 1_555
O2 Sr0 2.708643 1_545
O2 Sr1 2.710565 1_555
O3 Sr1 2.807704 1_555
O3 Sr0 2.821883 1_555
O4 Sr2 2.719147 1_555
O4 Sr3 2.782404 1_546
O5 Sr2 2.797051 1_555
O5 Sr3 2.825155 1_556
O6 Sr2 2.764876 1_555
O6 Sr3 2.841309 1_545
O7 Sr2 2.823969 1_555
O7 Sr3 2.883062 1_555
O8 Sr1 2.720966 1_555
O8 Sr2 2.772099 1_555
O8 Sr0 2.774718 1_545
O9 Sr1 2.800097 1_555
O9 Sr0 2.828285 1_555
O9 Sr2 2.836089 1_555
O10 Sr3 2.706933 1_555
O11 Sr3 2.790722 1_555
O12 Sr1 2.720966 1_555
O12 Sr2 2.772099 1_655
O12 Sr0 2.774718 1_545
O13 Sr1 2.800097 1_555
O13 Sr0 2.828285 1_555
O13 Sr2 2.836089 1_655
O14 Sr3 2.706933 1_655
O15 Sr3 2.790722 1_655
O16 Sr0 2.757088 1_555
O16 Sr3 2.805686 1_556
O17 Sr2 2.702123 1_555
O17 Sr1 2.712718 1_555
O18 Sr0 2.798722 1_555
O18 Sr3 2.853855 1_555
O19 Sr1 2.770035 1_555
O19 Sr2 2.777777 1_555
O20 Sr0 2.757088 1_555
O20 Sr3 2.805686 1_656
O21 Sr2 2.702123 1_655
O21 Sr1 2.712718 1_555
O22 Sr0 2.798722 1_555
O22 Sr3 2.853855 1_655
O23 Sr1 2.770035 1_555
O23 Sr2 2.777777 1_655
