# generated using pymatgen
data_MgCr2F12
_symmetry_space_group_name_H-M   'P 1'
_cell_length_a   5.20560513
_cell_length_b   10.41304829
_cell_length_c   5.24267319
_cell_angle_alpha   56.01076366
_cell_angle_beta   55.98791156
_cell_angle_gamma   56.35684454
_symmetry_Int_Tables_number   1
_chemical_formula_structural   MgCr2F12
_chemical_formula_sum   'Mg1 Cr2 F12'
_cell_volume   182.88387025
_cell_formula_units_Z   1
loop_
 _symmetry_equiv_pos_site_id
 _symmetry_equiv_pos_as_xyz
  1  'x, y, z'
loop_
 _atom_site_type_symbol
 _atom_site_label
 _atom_site_symmetry_multiplicity
 _atom_site_fract_x
 _atom_site_fract_y
 _atom_site_fract_z
 _atom_site_occupancy
  Mg  Mg0  1  0.50000000  0.75000000  0.50000000  1
  Cr  Cr0  1  0.00451913  0.01095673  0.98289251  1
  Cr  Cr1  1  -0.00451913  0.48904327  0.01710749  1
  F  F0  1  0.36647671  0.04968387  0.77209325  1
  F  F1  1  0.35390729  0.55592993  0.76800872  1
  F  F2  1  0.09759294  0.38717466  0.36010469  1
  F  F3  1  0.12014263  0.88298170  0.35010547  1
  F  F4  1  0.23124180  0.32290434  0.89233815  1
  F  F5  1  0.23340124  0.82210408  0.88213046  1
  F  F6  1  0.90240706  0.11282534  0.63989531  1
  F  F7  1  0.87985737  0.61701830  0.64989453  1
  F  F8  1  0.63352329  0.45031613  0.22790675  1
  F  F9  1  0.64609271  0.94407007  0.23199128  1
  F  F10  1  0.76875820  0.17709566  0.10766185  1
  F  F11  1  0.76659876  0.67789592  0.11786954  1
loop_
_geom_bond_atom_site_label_1
_geom_bond_atom_site_label_2
_geom_bond_distance
_geom_bond_site_symmetry_2
Cr0 F10 1.715107 1_456
Cr0 F0 1.717055 1_555
Cr0 F6 1.718498 1_455
Cr0 F9 1.835449 1_446
Cr0 F3 1.839453 1_546
Cr0 F5 1.851235 1_545
Cr1 F4 1.715107 1_554
Cr1 F8 1.717055 1_455
Cr1 F2 1.718498 1_555
Cr1 F1 1.835449 1_554
Cr1 F7 1.839453 1_454
Cr1 F11 1.851235 1_455
F1 Mg0 1.992289 1_555
F3 Mg0 1.983149 1_555
F5 Mg0 1.979920 1_555
F7 Mg0 1.983149 1_555
F9 Mg0 1.992289 1_555
F11 Mg0 1.979920 1_555
