# generated using pymatgen
data_TiAg
_symmetry_space_group_name_H-M   'P 1'
_cell_length_a   5.80762438
_cell_length_b   5.80762438
_cell_length_c   16.26540586
_cell_angle_alpha   90.00000000
_cell_angle_beta   90.00000000
_cell_angle_gamma   90.00000000
_symmetry_Int_Tables_number   1
_chemical_formula_structural   TiAg
_chemical_formula_sum   'Ti16 Ag16'
_cell_volume   548.60775682
_cell_formula_units_Z   16
loop_
 _symmetry_equiv_pos_site_id
 _symmetry_equiv_pos_as_xyz
  1  'x, y, z'
loop_
 _atom_site_type_symbol
 _atom_site_label
 _atom_site_symmetry_multiplicity
 _atom_site_fract_x
 _atom_site_fract_y
 _atom_site_fract_z
 _atom_site_occupancy
  Ti  Ti0_0  1  0.37500000  0.37500000  0.44174400  1
  Ti  Ti0_1  1  0.37500000  0.37500000  0.94174400  1
  Ti  Ti0_2  1  0.37500000  0.87500000  0.44174400  1
  Ti  Ti0_3  1  0.37500000  0.87500000  0.94174400  1
  Ti  Ti0_4  1  0.87500000  0.37500000  0.44174400  1
  Ti  Ti0_5  1  0.87500000  0.37500000  0.94174400  1
  Ti  Ti0_6  1  0.87500000  0.87500000  0.44174400  1
  Ti  Ti0_7  1  0.87500000  0.87500000  0.94174400  1
  Ti  Ti1_0  1  0.12500000  0.12500000  0.05825600  1
  Ti  Ti1_1  1  0.12500000  0.12500000  0.55825600  1
  Ti  Ti1_2  1  0.12500000  0.62500000  0.05825600  1
  Ti  Ti1_3  1  0.12500000  0.62500000  0.55825600  1
  Ti  Ti1_4  1  0.62500000  0.12500000  0.05825600  1
  Ti  Ti1_5  1  0.62500000  0.12500000  0.55825600  1
  Ti  Ti1_6  1  0.62500000  0.62500000  0.05825600  1
  Ti  Ti1_7  1  0.62500000  0.62500000  0.55825600  1
  Ag  Ag0_0  1  0.37500000  0.37500000  0.18662570  1
  Ag  Ag0_1  1  0.37500000  0.37500000  0.68662570  1
  Ag  Ag0_2  1  0.37500000  0.87500000  0.18662570  1
  Ag  Ag0_3  1  0.37500000  0.87500000  0.68662570  1
  Ag  Ag0_4  1  0.87500000  0.37500000  0.18662570  1
  Ag  Ag0_5  1  0.87500000  0.37500000  0.68662570  1
  Ag  Ag0_6  1  0.87500000  0.87500000  0.18662570  1
  Ag  Ag0_7  1  0.87500000  0.87500000  0.68662570  1
  Ag  Ag1_0  1  0.12500000  0.12500000  0.31337430  1
  Ag  Ag1_1  1  0.12500000  0.12500000  0.81337430  1
  Ag  Ag1_2  1  0.12500000  0.62500000  0.31337430  1
  Ag  Ag1_3  1  0.12500000  0.62500000  0.81337430  1
  Ag  Ag1_4  1  0.62500000  0.12500000  0.31337430  1
  Ag  Ag1_5  1  0.62500000  0.12500000  0.81337430  1
  Ag  Ag1_6  1  0.62500000  0.62500000  0.31337430  1
  Ag  Ag1_7  1  0.62500000  0.62500000  0.81337430  1
loop_
_geom_bond_atom_site_label_1
_geom_bond_atom_site_label_2
_geom_bond_distance
_geom_bond_site_symmetry_2
Ti0_0 Ti1_3 2.794195 1_555
Ti0_0 Ti1_7 2.794195 1_555
Ti0_0 Ti1_1 2.794195 1_555
Ti0_0 Ti1_5 2.794195 1_555
Ti0_0 Ti0_4 2.903812 1_455
Ti0_0 Ti0_2 2.903812 1_545
Ti0_0 Ti0_4 2.903812 1_555
Ti0_0 Ti0_2 2.903812 1_555
Ti0_1 Ti1_2 2.794195 1_556
Ti0_1 Ti1_4 2.794195 1_556
Ti0_1 Ti1_0 2.794195 1_556
Ti0_1 Ti1_6 2.794195 1_556
Ti0_1 Ti0_3 2.903812 1_545
Ti0_1 Ti0_3 2.903812 1_555
Ti0_1 Ti0_5 2.903812 1_455
Ti0_1 Ti0_5 2.903812 1_555
Ti0_2 Ti1_5 2.794195 1_565
Ti0_2 Ti1_1 2.794195 1_565
Ti0_2 Ti1_3 2.794195 1_555
Ti0_2 Ti1_7 2.794195 1_555
Ti0_2 Ti0_6 2.903812 1_555
Ti0_2 Ti0_6 2.903812 1_455
Ti0_3 Ti1_0 2.794195 1_566
Ti0_3 Ti1_2 2.794195 1_556
Ti0_3 Ti1_4 2.794195 1_566
Ti0_3 Ti1_6 2.794195 1_556
Ti0_3 Ti0_7 2.903812 1_455
Ti0_3 Ti0_7 2.903812 1_555
Ti0_4 Ti1_3 2.794195 1_655
Ti0_4 Ti1_1 2.794195 1_655
Ti0_4 Ti1_7 2.794195 1_555
Ti0_4 Ti1_5 2.794195 1_555
Ti0_4 Ti0_6 2.903812 1_545
Ti0_4 Ti0_6 2.903812 1_555
Ti0_5 Ti1_0 2.794195 1_656
Ti0_5 Ti1_6 2.794195 1_556
Ti0_5 Ti1_4 2.794195 1_556
Ti0_5 Ti1_2 2.794195 1_656
Ti0_5 Ti0_7 2.903812 1_555
Ti0_5 Ti0_7 2.903812 1_545
Ti0_6 Ti1_5 2.794195 1_565
Ti0_6 Ti1_1 2.794195 1_665
Ti0_6 Ti1_7 2.794195 1_555
Ti0_6 Ti1_3 2.794195 1_655
Ti0_7 Ti1_0 2.794195 1_666
Ti0_7 Ti1_4 2.794195 1_566
Ti0_7 Ti1_6 2.794195 1_556
Ti0_7 Ti1_2 2.794195 1_656
Ti1_0 Ti1_4 2.903812 1_555
Ti1_0 Ti1_2 2.903812 1_545
Ti1_0 Ti1_2 2.903812 1_555
Ti1_0 Ti1_4 2.903812 1_455
Ti1_1 Ti1_3 2.903812 1_545
Ti1_1 Ti1_5 2.903812 1_555
Ti1_1 Ti1_3 2.903812 1_555
Ti1_1 Ti1_5 2.903812 1_455
Ti1_2 Ti1_6 2.903812 1_455
Ti1_2 Ti1_6 2.903812 1_555
Ti1_3 Ti1_7 2.903812 1_455
Ti1_3 Ti1_7 2.903812 1_555
Ti1_4 Ti1_6 2.903812 1_555
Ti1_4 Ti1_6 2.903812 1_545
Ti1_5 Ti1_7 2.903812 1_545
Ti1_5 Ti1_7 2.903812 1_555
Ag0_0 Ag0_4 2.903812 1_455
Ag0_0 Ag0_2 2.903812 1_555
Ag0_0 Ag0_4 2.903812 1_555
Ag0_0 Ag0_2 2.903812 1_545
Ag0_0 Ag1_0 2.909696 1_555
Ag0_0 Ag1_4 2.909696 1_555
Ag0_0 Ag1_2 2.909696 1_555
Ag0_0 Ag1_6 2.909696 1_555
Ag0_0 Ti1_4 2.928437 1_555
Ag0_0 Ti1_2 2.928437 1_555
Ag0_0 Ti1_6 2.928437 1_555
Ag0_0 Ti1_0 2.928437 1_555
Ag0_1 Ag0_3 2.903812 1_545
Ag0_1 Ag0_3 2.903812 1_555
Ag0_1 Ag0_5 2.903812 1_555
Ag0_1 Ag0_5 2.903812 1_455
Ag0_1 Ag1_3 2.909696 1_555
Ag0_1 Ag1_1 2.909696 1_555
Ag0_1 Ag1_5 2.909696 1_555
Ag0_1 Ag1_7 2.909696 1_555
Ag0_1 Ti1_3 2.928437 1_555
Ag0_1 Ti1_7 2.928437 1_555
Ag0_1 Ti1_1 2.928437 1_555
Ag0_1 Ti1_5 2.928437 1_555
Ag0_2 Ag0_6 2.903812 1_455
Ag0_2 Ag0_6 2.903812 1_555
Ag0_2 Ag1_4 2.909696 1_565
Ag0_2 Ag1_2 2.909696 1_555
Ag0_2 Ag1_6 2.909696 1_555
Ag0_2 Ag1_0 2.909696 1_565
Ag0_2 Ti1_4 2.928437 1_565
Ag0_2 Ti1_2 2.928437 1_555
Ag0_2 Ti1_6 2.928437 1_555
Ag0_2 Ti1_0 2.928437 1_565
Ag0_3 Ag0_7 2.903812 1_455
Ag0_3 Ag0_7 2.903812 1_555
Ag0_3 Ag1_1 2.909696 1_565
Ag0_3 Ag1_3 2.909696 1_555
Ag0_3 Ag1_5 2.909696 1_565
Ag0_3 Ag1_7 2.909696 1_555
Ag0_3 Ti1_1 2.928437 1_565
Ag0_3 Ti1_3 2.928437 1_555
Ag0_3 Ti1_7 2.928437 1_555
Ag0_3 Ti1_5 2.928437 1_565
Ag0_4 Ag0_6 2.903812 1_555
Ag0_4 Ag0_6 2.903812 1_545
Ag0_4 Ag1_4 2.909696 1_555
Ag0_4 Ag1_2 2.909696 1_655
Ag0_4 Ag1_6 2.909696 1_555
Ag0_4 Ag1_0 2.909696 1_655
Ag0_4 Ti1_0 2.928437 1_655
Ag0_4 Ti1_4 2.928437 1_555
Ag0_4 Ti1_6 2.928437 1_555
Ag0_4 Ti1_2 2.928437 1_655
Ag0_5 Ag0_7 2.903812 1_545
Ag0_5 Ag0_7 2.903812 1_555
Ag0_5 Ag1_1 2.909696 1_655
Ag0_5 Ag1_5 2.909696 1_555
Ag0_5 Ag1_7 2.909696 1_555
Ag0_5 Ag1_3 2.909696 1_655
Ag0_5 Ti1_1 2.928437 1_655
Ag0_5 Ti1_7 2.928437 1_555
Ag0_5 Ti1_3 2.928437 1_655
Ag0_5 Ti1_5 2.928437 1_555
Ag0_6 Ag1_0 2.909696 1_665
Ag0_6 Ag1_4 2.909696 1_565
Ag0_6 Ag1_2 2.909696 1_655
Ag0_6 Ag1_6 2.909696 1_555
Ag0_6 Ti1_4 2.928437 1_565
Ag0_6 Ti1_0 2.928437 1_665
Ag0_6 Ti1_6 2.928437 1_555
Ag0_6 Ti1_2 2.928437 1_655
Ag0_7 Ag1_1 2.909696 1_665
Ag0_7 Ag1_5 2.909696 1_565
Ag0_7 Ag1_7 2.909696 1_555
Ag0_7 Ag1_3 2.909696 1_655
Ag0_7 Ti1_1 2.928437 1_665
Ag0_7 Ti1_7 2.928437 1_555
Ag0_7 Ti1_3 2.928437 1_655
Ag0_7 Ti1_5 2.928437 1_565
Ag1_0 Ag1_2 2.903812 1_545
Ag1_0 Ag1_2 2.903812 1_555
Ag1_0 Ag1_4 2.903812 1_555
Ag1_0 Ag1_4 2.903812 1_455
Ag1_0 Ti0_2 2.928437 1_545
Ag1_0 Ti0_4 2.928437 1_455
Ag1_0 Ti0_6 2.928437 1_445
Ag1_0 Ti0_0 2.928437 1_555
Ag1_1 Ag1_5 2.903812 1_555
Ag1_1 Ag1_3 2.903812 1_555
Ag1_1 Ag1_5 2.903812 1_455
Ag1_1 Ag1_3 2.903812 1_545
Ag1_1 Ti0_3 2.928437 1_545
Ag1_1 Ti0_1 2.928437 1_555
Ag1_1 Ti0_5 2.928437 1_455
Ag1_1 Ti0_7 2.928437 1_445
Ag1_2 Ag1_6 2.903812 1_555
Ag1_2 Ag1_6 2.903812 1_455
Ag1_2 Ti0_2 2.928437 1_555
Ag1_2 Ti0_6 2.928437 1_455
Ag1_2 Ti0_4 2.928437 1_455
Ag1_2 Ti0_0 2.928437 1_555
Ag1_3 Ag1_7 2.903812 1_455
Ag1_3 Ag1_7 2.903812 1_555
Ag1_3 Ti0_1 2.928437 1_555
Ag1_3 Ti0_5 2.928437 1_455
Ag1_3 Ti0_7 2.928437 1_455
Ag1_3 Ti0_3 2.928437 1_555
Ag1_4 Ag1_6 2.903812 1_555
Ag1_4 Ag1_6 2.903812 1_545
Ag1_4 Ti0_2 2.928437 1_545
Ag1_4 Ti0_0 2.928437 1_555
Ag1_4 Ti0_4 2.928437 1_555
Ag1_4 Ti0_6 2.928437 1_545
Ag1_5 Ag1_7 2.903812 1_545
Ag1_5 Ag1_7 2.903812 1_555
Ag1_5 Ti0_3 2.928437 1_545
Ag1_5 Ti0_1 2.928437 1_555
Ag1_5 Ti0_7 2.928437 1_545
Ag1_5 Ti0_5 2.928437 1_555
Ag1_6 Ti0_2 2.928437 1_555
Ag1_6 Ti0_0 2.928437 1_555
Ag1_6 Ti0_6 2.928437 1_555
Ag1_6 Ti0_4 2.928437 1_555
Ag1_7 Ti0_1 2.928437 1_555
Ag1_7 Ti0_5 2.928437 1_555
Ag1_7 Ti0_3 2.928437 1_555
Ag1_7 Ti0_7 2.928437 1_555
