# generated using pymatgen
data_VW3
_symmetry_space_group_name_H-M   'P 1'
_cell_length_a   4.41958009
_cell_length_b   4.41958009
_cell_length_c   4.41958009
_cell_angle_alpha   60.00000000
_cell_angle_beta   60.00000000
_cell_angle_gamma   60.00000000
_symmetry_Int_Tables_number   1
_chemical_formula_structural   VW3
_chemical_formula_sum   'V1 W3'
_cell_volume   61.04189771
_cell_formula_units_Z   1
loop_
 _symmetry_equiv_pos_site_id
 _symmetry_equiv_pos_as_xyz
  1  'x, y, z'
loop_
 _atom_site_type_symbol
 _atom_site_label
 _atom_site_symmetry_multiplicity
 _atom_site_fract_x
 _atom_site_fract_y
 _atom_site_fract_z
 _atom_site_occupancy
  V  V0  1  0.75000100  0.75000100  0.75000100  1
  W  W0  1  -0.00000000  -0.00000000  -0.00000000  1
  W  W1  1  0.50000100  0.50000100  0.50000100  1
  W  W2  1  0.25000000  0.25000000  0.25000000  1
loop_
_geom_bond_atom_site_label_1
_geom_bond_atom_site_label_2
_geom_bond_distance
_geom_bond_site_symmetry_2
V0 W0 2.706418 1_666
V0 W1 2.706429 1_555
V0 W1 2.706429 1_565
V0 W1 2.706429 1_655
V0 W1 2.706429 1_556
V0 W0 2.706433 1_665
V0 W0 2.706433 1_656
V0 W0 2.706433 1_566
V0 W2 3.125109 1_665
V0 W2 3.125109 1_656
V0 W2 3.125109 1_566
V0 W2 3.125121 1_655
V0 W2 3.125121 1_565
V0 W2 3.125121 1_556
W0 W2 2.706429 1_455
W0 W2 2.706429 1_554
W0 W2 2.706429 1_555
W0 W2 2.706429 1_545
W1 W2 2.706425 1_655
W1 W2 2.706425 1_556
W1 W2 2.706425 1_565
W1 W2 2.706440 1_555
