# generated using pymatgen
data_Mn4AsP3
_symmetry_space_group_name_H-M   'P 1'
_cell_length_a   3.24531000
_cell_length_b   5.27233100
_cell_length_c   5.90977500
_cell_angle_alpha   89.99804159
_cell_angle_beta   90.00000000
_cell_angle_gamma   90.00000000
_symmetry_Int_Tables_number   1
_chemical_formula_structural   Mn4AsP3
_chemical_formula_sum   'Mn4 As1 P3'
_cell_volume   101.11830991
_cell_formula_units_Z   1
loop_
 _symmetry_equiv_pos_site_id
 _symmetry_equiv_pos_as_xyz
  1  'x, y, z'
loop_
 _atom_site_type_symbol
 _atom_site_label
 _atom_site_symmetry_multiplicity
 _atom_site_fract_x
 _atom_site_fract_y
 _atom_site_fract_z
 _atom_site_occupancy
  Mn  Mn0  1  0.50000000  0.50159900  0.30827200  1
  Mn  Mn1  1  0.50000000  0.00896200  0.20416800  1
  Mn  Mn2  1  0.00000000  0.48936300  0.68498700  1
  Mn  Mn3  1  0.00000000  0.00889200  0.80003900  1
  As  As0  1  0.50000000  0.68972400  0.92524500  1
  P  P0  1  0.50000000  0.18930000  0.57149000  1
  P  P1  1  0.00000000  0.30415600  0.07866600  1
  P  P2  1  0.00000000  0.80800500  0.42713200  1
loop_
_geom_bond_atom_site_label_1
_geom_bond_atom_site_label_2
_geom_bond_distance
_geom_bond_site_symmetry_2
Mn0 P0 2.265104 1_555
Mn0 P1 2.357538 1_655
Mn0 P1 2.357538 1_555
Mn0 P2 2.395049 1_555
Mn0 P2 2.395049 1_655
Mn1 P2 2.343443 1_545
Mn1 P2 2.343443 1_645
Mn1 P1 2.367549 1_555
Mn1 P1 2.367549 1_655
Mn1 P0 2.369915 1_555
Mn2 P2 2.268114 1_555
Mn2 P0 2.363430 1_555
Mn2 P0 2.363430 1_455
Mn2 P1 2.523133 1_556
Mn3 P1 2.266043 1_556
Mn3 P0 2.315592 1_555
Mn3 P0 2.315592 1_455
Mn3 P2 2.445130 1_545
As0 Mn1 2.355895 1_566
As0 Mn2 2.401054 1_655
As0 Mn2 2.401054 1_555
As0 Mn3 2.451961 1_565
As0 Mn3 2.451961 1_665
As0 Mn0 2.471341 1_556
