# generated using pymatgen
data_Ca2Nb2SbO8
_symmetry_space_group_name_H-M   'P 1'
_cell_length_a   5.49851300
_cell_length_b   6.92604404
_cell_length_c   10.28169461
_cell_angle_alpha   71.26236570
_cell_angle_beta   88.43113356
_cell_angle_gamma   88.41617486
_symmetry_Int_Tables_number   1
_chemical_formula_structural   Ca2Nb2SbO8
_chemical_formula_sum   'Ca4 Nb4 Sb2 O16'
_cell_volume   370.59200785
_cell_formula_units_Z   2
loop_
 _symmetry_equiv_pos_site_id
 _symmetry_equiv_pos_as_xyz
  1  'x, y, z'
loop_
 _atom_site_type_symbol
 _atom_site_label
 _atom_site_symmetry_multiplicity
 _atom_site_fract_x
 _atom_site_fract_y
 _atom_site_fract_z
 _atom_site_occupancy
  Ca  Ca0  1  0.25082900  0.44683600  0.41925000  1
  Ca  Ca1  1  0.24130500  0.85853000  0.57522300  1
  Ca  Ca2  1  0.74917100  0.55316400  0.58075000  1
  Ca  Ca3  1  0.75869500  0.14147000  0.42477700  1
  Nb  Nb0  1  0.25786900  0.25681000  0.75715200  1
  Nb  Nb1  1  0.26285700  0.00185200  0.24658300  1
  Nb  Nb2  1  0.74213100  0.74319000  0.24284800  1
  Nb  Nb3  1  0.73714300  0.99814800  0.75341700  1
  Sb  Sb0  1  0.22763800  0.68898800  0.99522100  1
  Sb  Sb1  1  0.77236200  0.31101200  0.00477900  1
  O  O0  1  0.90086400  0.20042100  0.85356800  1
  O  O1  1  0.60616800  0.05554900  0.13925700  1
  O  O2  1  0.09913600  0.79957900  0.14643200  1
  O  O3  1  0.39383200  0.94445100  0.86074300  1
  O  O4  1  0.41646200  0.37926600  0.86353900  1
  O  O5  1  0.07880800  0.22114700  0.12337600  1
  O  O6  1  0.58353800  0.62073400  0.13646100  1
  O  O7  1  0.92119200  0.77885300  0.87662400  1
  O  O8  1  0.52393900  0.25584200  0.61423800  1
  O  O9  1  0.97589800  0.88579100  0.37459000  1
  O  O10  1  0.64331800  0.85165200  0.63057400  1
  O  O11  1  0.84927300  0.47929500  0.37791900  1
  O  O12  1  0.35668200  0.14834800  0.36942600  1
  O  O13  1  0.15072700  0.52070500  0.62208100  1
  O  O14  1  0.02410200  0.11420900  0.62541000  1
  O  O15  1  0.47606100  0.74415800  0.38576200  1
loop_
_geom_bond_atom_site_label_1
_geom_bond_atom_site_label_2
_geom_bond_distance
_geom_bond_site_symmetry_2
Ca0 O11 2.251394 1_455
Ca0 O12 2.339370 1_555
Ca0 O13 2.349652 1_555
Ca0 O15 2.356896 1_555
Ca0 O8 2.524962 1_555
Ca0 O14 2.869030 1_555
Ca1 O10 2.293030 1_555
Ca1 O14 2.294538 1_565
Ca1 O13 2.298222 1_555
Ca1 O12 2.485360 1_565
Ca1 O9 2.513970 1_455
Ca1 O15 2.624021 1_555
Ca2 O13 2.251394 1_655
Ca2 O10 2.339370 1_555
Ca2 O11 2.349652 1_555
Ca2 O8 2.356896 1_555
Ca2 O15 2.524962 1_555
Ca2 O9 2.869030 1_555
Ca3 O12 2.293030 1_555
Ca3 O9 2.294538 1_545
Ca3 O11 2.298222 1_555
Ca3 O10 2.485360 1_545
Ca3 O14 2.513970 1_655
Ca3 O8 2.624021 1_555
Nb0 O4 1.834501 1_555
Nb0 O13 1.992705 1_555
Nb0 O8 2.046360 1_555
Nb0 O0 2.162334 1_455
Nb0 O3 2.201696 1_545
Nb0 O14 2.342526 1_555
Nb1 O5 1.919595 1_555
Nb1 O12 1.943927 1_555
Nb1 O9 2.035843 1_445
Nb1 O1 2.140211 1_555
Nb1 O2 2.209228 1_545
Nb1 O15 2.223254 1_545
Nb2 O6 1.834501 1_555
Nb2 O11 1.992705 1_555
Nb2 O15 2.046360 1_555
Nb2 O2 2.162334 1_655
Nb2 O1 2.201696 1_565
Nb2 O9 2.342526 1_555
Nb3 O7 1.919595 1_555
Nb3 O10 1.943927 1_555
Nb3 O14 2.035843 1_665
Nb3 O3 2.140211 1_555
Nb3 O0 2.209228 1_565
Nb3 O8 2.223254 1_565
O0 Sb1 2.044028 1_556
O1 Sb1 2.079870 1_555
O2 Sb0 2.044028 1_554
O3 Sb0 2.079870 1_555
O4 Sb1 2.413561 1_556
O5 Sb1 2.068918 1_455
O6 Sb0 2.413561 1_554
O7 Sb0 2.068918 1_655
