# generated using pymatgen
data_MgV3CoSn2(PO4)6
_symmetry_space_group_name_H-M   'P 1'
_cell_length_a   9.21520333
_cell_length_b   8.61272511
_cell_length_c   8.61269895
_cell_angle_alpha   61.61582670
_cell_angle_beta   61.40603567
_cell_angle_gamma   64.18722077
_symmetry_Int_Tables_number   1
_chemical_formula_structural   MgV3CoSn2(PO4)6
_chemical_formula_sum   'Mg1 V3 Co1 Sn2 P6 O24'
_cell_volume   508.55742871
_cell_formula_units_Z   1
loop_
 _symmetry_equiv_pos_site_id
 _symmetry_equiv_pos_as_xyz
  1  'x, y, z'
loop_
 _atom_site_type_symbol
 _atom_site_label
 _atom_site_symmetry_multiplicity
 _atom_site_fract_x
 _atom_site_fract_y
 _atom_site_fract_z
 _atom_site_occupancy
  Mg  Mg0  1  0.47055500  0.97529700  0.46068400  1
  V  V0  1  0.06167200  0.64954300  0.65171600  1
  V  V1  1  0.44264500  0.84123400  0.87609700  1
  V  V2  1  0.95915800  0.33479300  0.35263100  1
  Co  Co0  1  0.51989100  0.21315800  0.09248900  1
  Sn  Sn0  1  0.92978500  0.03074300  0.01681800  1
  Sn  Sn1  1  0.54919000  0.45220700  0.50009100  1
  P  P0  1  0.24358000  0.26252400  0.53841600  1
  P  P1  1  0.24797900  0.95762700  0.26244000  1
  P  P2  1  0.24618700  0.54954000  0.94966100  1
  P  P3  1  0.74845900  0.46640300  0.04023900  1
  P  P4  1  0.75257500  0.03033200  0.74600700  1
  P  P5  1  0.76701600  0.72323600  0.47564400  1
  O  O0  1  0.07934800  0.11050000  0.29493100  1
  O  O1  1  0.10123800  0.48915500  0.12834400  1
  O  O2  1  0.07896600  0.27812900  0.52233500  1
  O  O3  1  0.29880200  0.06568500  0.67880400  1
  O  O4  1  0.40482500  0.26022200  0.35308100  1
  O  O5  1  0.21848700  0.41589000  0.60039500  1
  O  O6  1  0.29296700  0.95359900  0.06826900  1
  O  O7  1  0.22329100  0.77041700  0.41492400  1
  O  O8  1  0.58740800  0.62395800  0.03012500  1
  O  O9  1  0.19161700  0.62458700  0.77403300  1
  O  O10  1  0.72945100  0.29207000  0.03905500  1
  O  O11  1  0.59286900  0.00282000  0.76120700  1
  O  O12  1  0.39683300  0.99409100  0.26949200  1
  O  O13  1  0.27835800  0.71070700  0.94747100  1
  O  O14  1  0.76917400  0.40895300  0.23293100  1
  O  O15  1  0.41174100  0.39480300  0.91015500  1
  O  O16  1  0.76724500  0.22018000  0.58453500  1
  O  O17  1  0.72583000  0.04967000  0.93120200  1
  O  O18  1  0.78143400  0.56269900  0.43006000  1
  O  O19  1  0.58950000  0.75469200  0.63509000  1
  O  O20  1  0.74016900  0.90839000  0.30899100  1
  O  O21  1  0.92361400  0.68916200  0.51624100  1
  O  O22  1  0.91677400  0.50294800  0.88191100  1
  O  O23  1  0.91851000  0.88316800  0.70004500  1
loop_
_geom_bond_atom_site_label_1
_geom_bond_atom_site_label_2
_geom_bond_distance
_geom_bond_site_symmetry_2
Mg0 O12 1.980130 1_555
Mg0 O3 2.027710 1_565
Mg0 O19 2.028949 1_555
Mg0 O4 2.080477 1_565
Mg0 O20 2.138648 1_555
Co0 O15 1.926483 1_554
Co0 O10 2.097126 1_555
Co0 O17 2.126738 1_554
Co0 O4 2.130412 1_555
Co0 O12 2.154924 1_545
O0 P1 1.542383 1_545
O0 V2 1.930810 1_455
O1 P2 1.516375 1_554
O1 V2 1.966350 1_455
O2 P0 1.531092 1_555
O2 V2 1.997654 1_455
O3 P0 1.576001 1_555
O3 V1 2.276574 1_545
O4 P0 1.578091 1_555
O5 P0 1.539296 1_555
O5 V0 2.008760 1_555
O6 P1 1.532575 1_555
O6 V1 1.937450 1_554
O7 P1 1.548059 1_555
O7 V0 1.971154 1_555
O8 P3 1.519572 1_555
O8 V1 2.049642 1_554
O9 P2 1.572957 1_555
O9 V0 1.832495 1_555
O10 P3 1.590768 1_555
O10 Sn0 2.227892 1_555
O11 P4 1.526118 1_555
O11 V1 1.972223 1_545
O12 P1 1.567476 1_555
O13 P2 1.530738 1_555
O13 V1 1.966728 1_555
O14 P3 1.573463 1_555
O14 V2 2.159552 1_555
O14 Sn1 2.288057 1_555
O15 P2 1.543695 1_555
O16 P4 1.573682 1_555
O16 V2 2.087112 1_555
O16 Sn1 2.253945 1_555
O17 P4 1.572623 1_555
O17 Sn0 2.246835 1_556
O18 P5 1.545876 1_555
O18 V2 2.092710 1_555
O18 Sn1 2.417042 1_555
O19 P5 1.566115 1_555
O19 V1 2.144600 1_555
O20 P5 1.576236 1_555
O20 Sn0 2.317219 1_565
O21 P5 1.519037 1_555
O21 V0 1.939267 1_655
O22 P3 1.535212 1_556
O22 V0 1.965195 1_655
O23 P4 1.520268 1_565
O23 V0 1.980246 1_655
