# generated using pymatgen
data_U(GePt)2
_symmetry_space_group_name_H-M   'P 1'
_cell_length_a   4.29955900
_cell_length_b   4.29955900
_cell_length_c   10.17418400
_cell_angle_alpha   90.00000000
_cell_angle_beta   90.00000000
_cell_angle_gamma   90.00000000
_symmetry_Int_Tables_number   1
_chemical_formula_structural   U(GePt)2
_chemical_formula_sum   'U2 Ge4 Pt4'
_cell_volume   188.08207753
_cell_formula_units_Z   2
loop_
 _symmetry_equiv_pos_site_id
 _symmetry_equiv_pos_as_xyz
  1  'x, y, z'
loop_
 _atom_site_type_symbol
 _atom_site_label
 _atom_site_symmetry_multiplicity
 _atom_site_fract_x
 _atom_site_fract_y
 _atom_site_fract_z
 _atom_site_occupancy
  U  U0  1  0.00000000  0.50000000  0.25011100  1
  U  U1  1  0.50000000  0.00000000  0.74988900  1
  Ge  Ge0  1  0.00000000  0.00000000  0.50000000  1
  Ge  Ge1  1  0.50000000  0.50000000  0.50000000  1
  Ge  Ge2  1  0.00000000  0.50000000  0.86522400  1
  Ge  Ge3  1  0.50000000  0.00000000  0.13477600  1
  Pt  Pt0  1  0.00000000  0.00000000  0.00000000  1
  Pt  Pt1  1  0.50000000  0.50000000  0.00000000  1
  Pt  Pt2  1  0.00000000  0.50000000  0.62801100  1
  Pt  Pt3  1  0.50000000  0.00000000  0.37198900  1
loop_
_geom_bond_atom_site_label_1
_geom_bond_atom_site_label_2
_geom_bond_distance
_geom_bond_site_symmetry_2
Ge0 Pt3 2.513527 1_555
Ge0 Pt2 2.513527 1_545
Ge0 Pt2 2.513527 1_555
Ge0 Pt3 2.513527 1_455
Ge0 U0 3.329480 1_545
Ge0 U0 3.329480 1_555
Ge0 U1 3.329480 1_555
Ge0 U1 3.329480 1_455
Ge1 Pt2 2.513527 1_655
Ge1 Pt3 2.513527 1_555
Ge1 Pt3 2.513527 1_565
Ge1 Pt2 2.513527 1_555
Ge1 U0 3.329480 1_655
Ge1 U0 3.329480 1_555
Ge1 U1 3.329480 1_555
Ge1 U1 3.329480 1_565
Ge2 Pt2 2.413449 1_555
Ge2 Pt0 2.549871 1_566
Ge2 Pt1 2.549871 1_556
Ge2 Pt1 2.549871 1_456
Ge2 Pt0 2.549871 1_556
Ge2 U1 3.258844 1_465
Ge2 U1 3.258844 1_555
Ge2 U1 3.258844 1_455
Ge2 U1 3.258844 1_565
Ge3 Pt3 2.413449 1_555
Ge3 Pt0 2.549871 1_555
Ge3 Pt0 2.549871 1_655
Ge3 Pt1 2.549871 1_555
Ge3 Pt1 2.549871 1_545
Ge3 U0 3.258844 1_645
Ge3 U0 3.258844 1_655
Ge3 U0 3.258844 1_545
Ge3 U0 3.258844 1_555
Pt0 U1 3.331205 1_454
Pt0 U1 3.331205 1_554
Pt0 U0 3.331205 1_545
Pt0 U0 3.331205 1_555
Pt1 U1 3.331205 1_564
Pt1 U1 3.331205 1_554
Pt1 U0 3.331205 1_655
Pt1 U0 3.331205 1_555
Pt2 U1 3.283402 1_465
Pt2 U1 3.283402 1_555
Pt2 U1 3.283402 1_455
Pt2 U1 3.283402 1_565
Pt3 U0 3.283402 1_645
Pt3 U0 3.283402 1_545
Pt3 U0 3.283402 1_655
Pt3 U0 3.283402 1_555
