# generated using pymatgen
data_K9Y3Si12(O16F)2
_symmetry_space_group_name_H-M   'P 1'
_cell_length_a   6.93545500
_cell_length_b   11.52128632
_cell_length_c   11.53353942
_cell_angle_alpha   92.13656782
_cell_angle_beta   89.74344449
_cell_angle_gamma   99.55296864
_symmetry_Int_Tables_number   1
_chemical_formula_structural   K9Y3Si12(O16F)2
_chemical_formula_sum   'K9 Y3 Si12 O32 F2'
_cell_volume   908.17839983
_cell_formula_units_Z   1
loop_
 _symmetry_equiv_pos_site_id
 _symmetry_equiv_pos_as_xyz
  1  'x, y, z'
loop_
 _atom_site_type_symbol
 _atom_site_label
 _atom_site_symmetry_multiplicity
 _atom_site_fract_x
 _atom_site_fract_y
 _atom_site_fract_z
 _atom_site_occupancy
  K  K0  1  0.26622700  0.38634300  0.01658800  1
  K  K1  1  0.73377300  0.61365700  0.98341200  1
  K  K2  1  0.17124000  0.19406300  0.77617200  1
  K  K3  1  0.82876000  0.80593700  0.22382800  1
  K  K4  1  0.16287100  0.15489400  0.21408200  1
  K  K5  1  0.83712900  0.84510600  0.78591800  1
  K  K6  1  0.50000000  0.00000000  0.00000000  1
  K  K7  1  0.02197400  0.66931800  0.51067300  1
  K  K8  1  0.97802600  0.33068200  0.48932700  1
  Y  Y0  1  0.00000000  0.00000000  0.50000000  1
  Y  Y1  1  0.48834400  0.51077500  0.33702900  1
  Y  Y2  1  0.51165600  0.48922500  0.66297100  1
  Si  Si0  1  0.55786200  0.76745100  0.51044600  1
  Si  Si1  1  0.44213800  0.23254900  0.48955400  1
  Si  Si2  1  0.33738600  0.86485900  0.31083500  1
  Si  Si3  1  0.66261400  0.13514100  0.68916500  1
  Si  Si4  1  0.65605700  0.09120900  0.30347500  1
  Si  Si5  1  0.34394300  0.90879100  0.69652500  1
  Si  Si6  1  0.68964300  0.30538500  0.15937200  1
  Si  Si7  1  0.31035700  0.69461500  0.84062800  1
  Si  Si8  1  0.98584500  0.51265600  0.25820100  1
  Si  Si9  1  0.01415500  0.48734400  0.74179900  1
  Si  Si10  1  0.28703300  0.66688600  0.12098600  1
  Si  Si11  1  0.71296700  0.33311400  0.87901400  1
  O  O0  1  0.52964300  0.62430000  0.51463900  1
  O  O1  1  0.47035700  0.37570000  0.48536100  1
  O  O2  1  0.49090400  0.79242900  0.37488200  1
  O  O3  1  0.50909600  0.20757100  0.62511800  1
  O  O4  1  0.39021600  0.81440400  0.59482700  1
  O  O5  1  0.60978400  0.18559600  0.40517300  1
  O  O6  1  0.77384500  0.83718900  0.53899200  1
  O  O7  1  0.22615500  0.16281100  0.46100800  1
  O  O8  1  0.14510300  0.87682700  0.38355600  1
  O  O9  1  0.85489700  0.12317300  0.61644400  1
  O  O10  1  0.28014800  0.79765200  0.18318500  1
  O  O11  1  0.71985200  0.20234800  0.81681500  1
  O  O12  1  0.45797900  0.99422200  0.27316900  1
  O  O13  1  0.54202100  0.00577800  0.72683100  1
  O  O14  1  0.69179000  0.16424000  0.18163100  1
  O  O15  1  0.30821000  0.83576000  0.81836900  1
  O  O16  1  0.84340100  0.03404000  0.33413900  1
  O  O17  1  0.15659900  0.96596000  0.66586100  1
  O  O18  1  0.90394900  0.37425700  0.20970900  1
  O  O19  1  0.09605100  0.62574300  0.79029100  1
  O  O20  1  0.69844600  0.31521200  0.01847900  1
  O  O21  1  0.30155400  0.68478800  0.98152100  1
  O  O22  1  0.50364100  0.35321700  0.21460800  1
  O  O23  1  0.49635900  0.64678300  0.78539200  1
  O  O24  1  0.16416700  0.50767600  0.34624800  1
  O  O25  1  0.83583300  0.49232400  0.65375200  1
  O  O26  1  0.81085500  0.57181800  0.31444600  1
  O  O27  1  0.18914500  0.42818200  0.68555400  1
  O  O28  1  0.06764600  0.58513700  0.13895600  1
  O  O29  1  0.93235400  0.41486300  0.86104400  1
  O  O30  1  0.46129200  0.60450000  0.16554900  1
  O  O31  1  0.53870800  0.39550000  0.83445100  1
  F  F0  1  0.24675200  0.15894400  0.99529700  1
  F  F1  1  0.75324800  0.84105600  0.00470300  1
loop_
_geom_bond_atom_site_label_1
_geom_bond_atom_site_label_2
_geom_bond_distance
_geom_bond_site_symmetry_2
K0 O31 2.812485 1_554
K0 O22 2.894856 1_555
K0 O29 3.003636 1_454
K1 O30 2.812485 1_556
K1 O23 2.894856 1_555
K1 O28 3.003636 1_656
K2 O17 2.863366 1_545
K2 O9 2.864205 1_455
K2 O3 2.900443 1_555
K2 O27 2.912271 1_555
K2 O11 3.179951 1_455
K2 O31 3.204519 1_555
K3 O16 2.863366 1_565
K3 O8 2.864205 1_655
K3 O2 2.900443 1_555
K3 O26 2.912271 1_555
K3 O10 3.179951 1_655
K3 O30 3.204519 1_555
K4 O16 2.803138 1_455
K4 O7 2.879271 1_555
K4 O22 3.002211 1_555
K4 O12 3.073157 1_545
K4 O14 3.310097 1_455
K4 O18 3.336377 1_455
K5 O17 2.803138 1_655
K5 O6 2.879271 1_555
K5 O23 3.002211 1_555
K5 O13 3.073157 1_565
K5 O15 3.310097 1_655
K5 O19 3.336377 1_655
K6 O14 2.938074 1_555
K6 O15 2.938074 1_544
K6 O13 3.164910 1_554
K6 O12 3.164910 1_545
K6 O10 3.373763 1_545
K6 O11 3.373763 1_554
K7 O26 2.796780 1_455
K7 O6 2.803826 1_455
K7 O25 2.811791 1_455
K7 O8 2.857795 1_555
K7 O24 2.892514 1_555
K7 O4 2.956856 1_555
K8 O27 2.796780 1_655
K8 O7 2.803826 1_655
K8 O24 2.811791 1_655
K8 O9 2.857795 1_555
K8 O25 2.892514 1_555
K8 O5 2.956856 1_555
O0 Si0 1.630798 1_555
O0 Y2 2.344444 1_555
O0 Y1 2.381208 1_555
O1 Si1 1.630798 1_555
O1 Y1 2.344444 1_555
O1 Y2 2.381208 1_555
O2 Si2 1.650323 1_555
O2 Si0 1.681521 1_555
O3 Si3 1.650323 1_555
O3 Si1 1.681521 1_555
O4 Si5 1.636674 1_555
O4 Si0 1.658623 1_555
O5 Si4 1.636674 1_555
O5 Si1 1.658623 1_555
O6 Si0 1.607171 1_555
O6 Y0 2.293691 1_665
O7 Si1 1.607171 1_555
O7 Y0 2.293691 1_555
O8 Si2 1.594768 1_555
O8 Y0 2.269387 1_565
O9 Si3 1.594768 1_555
O9 Y0 2.269387 1_655
O10 Si10 1.652184 1_555
O10 Si2 1.656168 1_555
O11 Si11 1.652184 1_555
O11 Si3 1.656168 1_555
O12 Si4 1.650355 1_565
O12 Si2 1.655561 1_555
O13 Si5 1.650355 1_545
O13 Si3 1.655561 1_555
O14 Si6 1.658241 1_555
O14 Si4 1.661346 1_555
O15 Si7 1.658241 1_555
O15 Si5 1.661346 1_555
O16 Si4 1.597710 1_555
O16 Y0 2.282268 1_655
O17 Si5 1.597710 1_555
O17 Y0 2.282268 1_565
O18 Si6 1.660640 1_555
O18 Si8 1.677405 1_555
O19 Si7 1.660640 1_555
O19 Si9 1.677405 1_555
O20 Si11 1.629855 1_554
O20 Si6 1.633307 1_555
O21 Si10 1.629855 1_556
O21 Si7 1.633307 1_555
O22 Si6 1.605023 1_555
O22 Y1 2.274100 1_555
O23 Si7 1.605023 1_555
O23 Y2 2.274100 1_555
O24 Si8 1.613443 1_455
O24 Y1 2.244771 1_555
O25 Si9 1.613443 1_655
O25 Y2 2.244771 1_555
O26 Si8 1.610246 1_555
O26 Y1 2.247634 1_555
O27 Si9 1.610246 1_555
O27 Y2 2.247634 1_555
O28 Si10 1.667699 1_555
O28 Si8 1.682885 1_455
O29 Si11 1.667699 1_555
O29 Si9 1.682885 1_655
O30 Si10 1.600893 1_555
O30 Y1 2.311413 1_555
O31 Si11 1.600893 1_555
O31 Y2 2.311413 1_555
F0 K4 2.587394 1_556
F0 K0 2.603352 1_556
F0 K2 2.642650 1_555
F0 K6 2.741736 1_556
F1 K5 2.587394 1_554
F1 K1 2.603352 1_554
F1 K3 2.642650 1_555
F1 K6 2.741736 1_565
