# generated using pymatgen
data_Sm4PdO7
_symmetry_space_group_name_H-M   'P 1'
_cell_length_a   6.86774358
_cell_length_b   7.20626376
_cell_length_c   7.85646946
_cell_angle_alpha   110.92442089
_cell_angle_beta   108.27621647
_cell_angle_gamma   84.19091930
_symmetry_Int_Tables_number   1
_chemical_formula_structural   Sm4PdO7
_chemical_formula_sum   'Sm8 Pd2 O14'
_cell_volume   344.83490917
_cell_formula_units_Z   2
loop_
 _symmetry_equiv_pos_site_id
 _symmetry_equiv_pos_as_xyz
  1  'x, y, z'
loop_
 _atom_site_type_symbol
 _atom_site_label
 _atom_site_symmetry_multiplicity
 _atom_site_fract_x
 _atom_site_fract_y
 _atom_site_fract_z
 _atom_site_occupancy
  Sm  Sm0  1  0.20859385  0.62566324  0.21435011  1
  Sm  Sm1  1  0.79140615  0.37433676  0.78564989  1
  Sm  Sm2  1  0.63548385  0.85786265  0.14478484  1
  Sm  Sm3  1  0.36451615  0.14213735  0.85521516  1
  Sm  Sm4  1  0.79060744  0.39643135  0.26817565  1
  Sm  Sm5  1  0.20939256  0.60356865  0.73182435  1
  Sm  Sm6  1  0.66611207  0.82711429  0.62060585  1
  Sm  Sm7  1  0.33388793  0.17288571  0.37939415  1
  Pd  Pd0  1  -0.00000000  -0.00000000  -0.00000000  1
  Pd  Pd1  1  -0.00000000  -0.00000000  0.50000000  1
  O  O0  1  0.29649636  0.92735950  0.50667788  1
  O  O1  1  0.70350364  0.07264050  0.49332212  1
  O  O2  1  0.84776504  0.58673362  0.09633310  1
  O  O3  1  0.15223496  0.41326638  0.90366690  1
  O  O4  1  0.49160933  0.21026703  0.17569004  1
  O  O5  1  0.50839067  0.78973297  0.82430996  1
  O  O6  1  0.56133643  0.65792627  0.29738174  1
  O  O7  1  0.43866357  0.34207373  0.70261826  1
  O  O8  1  0.94697995  0.06907811  0.25857863  1
  O  O9  1  0.05302005  0.93092189  0.74142137  1
  O  O10  1  0.26177895  0.85682492  0.08357758  1
  O  O11  1  0.73822105  0.14317508  0.91642242  1
  O  O12  1  0.84333649  0.53906049  0.59941807  1
  O  O13  1  0.15666351  0.46093951  0.40058193  1
loop_
_geom_bond_atom_site_label_1
_geom_bond_atom_site_label_2
_geom_bond_distance
_geom_bond_site_symmetry_2
O0 Pd1 2.039600 1_565
O0 Sm7 2.390247 1_565
O0 Sm0 2.489062 1_555
O0 Sm3 2.535499 1_565
O0 Sm6 2.536182 1_555
O1 Pd1 2.039600 1_655
O1 Sm6 2.390247 1_545
O1 Sm1 2.489062 1_555
O1 Sm2 2.535499 1_545
O1 Sm7 2.536182 1_555
O2 Sm1 2.304180 1_554
O2 Sm2 2.308250 1_555
O2 Sm0 2.364978 1_655
O2 Sm4 2.370917 1_555
O3 Sm0 2.304180 1_556
O3 Sm3 2.308250 1_555
O3 Sm1 2.364978 1_455
O3 Sm5 2.370917 1_555
O4 Sm3 2.273251 1_554
O4 Sm7 2.293773 1_555
O4 Sm4 2.338786 1_555
O4 Sm2 2.585834 1_545
O5 Sm2 2.273251 1_556
O5 Sm6 2.293773 1_555
O5 Sm5 2.338786 1_555
O5 Sm3 2.585834 1_565
O6 Sm6 2.296282 1_555
O6 Sm0 2.315781 1_555
O6 Sm4 2.323797 1_555
O6 Sm2 2.353232 1_555
O7 Sm7 2.296282 1_555
O7 Sm1 2.315781 1_555
O7 Sm5 2.323797 1_555
O7 Sm3 2.353232 1_555
O8 Pd1 2.045109 1_655
O8 Pd0 2.052408 1_655
O8 Sm4 2.476846 1_555
O8 Sm2 2.485983 1_545
O8 Sm7 2.614288 1_655
O9 Pd1 2.045109 1_565
O9 Pd0 2.052408 1_566
O9 Sm5 2.476846 1_555
O9 Sm3 2.485983 1_565
O9 Sm6 2.614288 1_455
O10 Pd0 2.023829 1_565
O10 Sm0 2.354764 1_555
O10 Sm2 2.458763 1_555
O10 Sm7 2.561186 1_565
O10 Sm5 2.646541 1_554
O11 Pd0 2.023829 1_656
O11 Sm1 2.354764 1_555
O11 Sm3 2.458763 1_555
O11 Sm6 2.561186 1_545
O11 Sm4 2.646541 1_556
O12 Sm6 2.277468 1_555
O12 Sm1 2.308792 1_555
O12 Sm4 2.352394 1_555
O12 Sm5 2.422653 1_655
O13 Sm7 2.277468 1_555
O13 Sm0 2.308792 1_555
O13 Sm5 2.352394 1_555
O13 Sm4 2.422653 1_455
