# generated using pymatgen
data_Gd4InIr
_symmetry_space_group_name_H-M   'P 1'
_cell_length_a   9.78160682
_cell_length_b   9.78160682
_cell_length_c   9.78160682
_cell_angle_alpha   60.00000000
_cell_angle_beta   60.00000000
_cell_angle_gamma   60.00000000
_symmetry_Int_Tables_number   1
_chemical_formula_structural   Gd4InIr
_chemical_formula_sum   'Gd16 In4 Ir4'
_cell_volume   661.78300123
_cell_formula_units_Z   4
loop_
 _symmetry_equiv_pos_site_id
 _symmetry_equiv_pos_as_xyz
  1  'x, y, z'
loop_
 _atom_site_type_symbol
 _atom_site_label
 _atom_site_symmetry_multiplicity
 _atom_site_fract_x
 _atom_site_fract_y
 _atom_site_fract_z
 _atom_site_occupancy
  Gd  Gd0  1  0.93927454  0.56072546  0.56072546  1
  Gd  Gd1  1  0.93927454  0.56072546  0.93927454  1
  Gd  Gd2  1  0.93927454  0.93927454  0.56072546  1
  Gd  Gd3  1  0.56072546  0.93927454  0.93927454  1
  Gd  Gd4  1  0.56072546  0.93927454  0.56072546  1
  Gd  Gd5  1  0.56072546  0.56072546  0.93927454  1
  Gd  Gd6  1  0.80902071  0.19097929  0.19097929  1
  Gd  Gd7  1  0.80902071  0.19097929  0.80902071  1
  Gd  Gd8  1  0.80902071  0.80902071  0.19097929  1
  Gd  Gd9  1  0.19097929  0.80902071  0.80902071  1
  Gd  Gd10  1  0.19097929  0.80902071  0.19097929  1
  Gd  Gd11  1  0.19097929  0.19097929  0.80902071  1
  Gd  Gd12  1  0.95486183  0.34837939  0.34837939  1
  Gd  Gd13  1  0.34837939  0.95486183  0.34837939  1
  Gd  Gd14  1  0.34837939  0.34837939  0.95486183  1
  Gd  Gd15  1  0.34837939  0.34837939  0.34837939  1
  In  In0  1  0.25306451  0.58231183  0.58231183  1
  In  In1  1  0.58231183  0.25306451  0.58231183  1
  In  In2  1  0.58231183  0.58231183  0.25306451  1
  In  In3  1  0.58231183  0.58231183  0.58231183  1
  Ir  Ir0  1  0.57724364  0.14091879  0.14091879  1
  Ir  Ir1  1  0.14091879  0.57724364  0.14091879  1
  Ir  Ir2  1  0.14091879  0.14091879  0.57724364  1
  Ir  Ir3  1  0.14091879  0.14091879  0.14091879  1
loop_
_geom_bond_atom_site_label_1
_geom_bond_atom_site_label_2
_geom_bond_distance
_geom_bond_site_symmetry_2
Gd0 In0 3.294082 1_655
Gd0 In3 3.294082 1_555
Gd0 Gd12 3.511797 1_555
Gd0 Gd15 3.511797 1_655
Gd0 Ir1 3.512069 1_655
Gd0 Ir2 3.512069 1_655
Gd0 Gd7 3.651332 1_555
Gd0 Gd10 3.651332 1_655
Gd0 Gd11 3.651332 1_655
Gd0 Gd8 3.651332 1_555
Gd0 Gd1 3.702818 1_555
Gd0 Gd4 3.702818 1_555
Gd0 Gd2 3.702818 1_555
Gd0 Gd5 3.702818 1_555
Gd1 In0 3.294082 1_655
Gd1 In2 3.294082 1_556
Gd1 Gd14 3.511797 1_655
Gd1 Gd12 3.511797 1_556
Gd1 Ir3 3.512069 1_656
Gd1 Ir1 3.512069 1_656
Gd1 Gd9 3.651332 1_655
Gd1 Gd8 3.651332 1_556
Gd1 Gd11 3.651332 1_655
Gd1 Gd6 3.651332 1_556
Gd1 Gd3 3.702818 1_555
Gd1 Gd2 3.702818 1_555
Gd1 Gd5 3.702818 1_555
Gd2 In0 3.294082 1_655
Gd2 In1 3.294082 1_565
Gd2 Ir3 3.512069 1_665
Gd2 Ir2 3.512069 1_665
Gd2 Gd6 3.651332 1_565
Gd2 Gd9 3.651332 1_655
Gd2 Gd7 3.651332 1_565
Gd2 Gd3 3.702818 1_555
Gd2 Gd4 3.702818 1_555
Gd3 In1 3.294082 1_565
Gd3 In2 3.294082 1_556
Gd3 Ir3 3.512069 1_566
Gd3 Ir0 3.512069 1_566
Gd3 Gd8 3.651332 1_556
Gd3 Gd7 3.651332 1_565
Gd3 Gd4 3.702818 1_555
Gd3 Gd5 3.702818 1_555
Gd4 In1 3.294082 1_565
Gd4 In3 3.294082 1_555
Gd4 Ir0 3.512069 1_565
Gd4 Ir2 3.512069 1_565
Gd4 Gd6 3.651332 1_565
Gd4 Gd9 3.651332 1_555
Gd4 Gd8 3.651332 1_555
Gd4 Gd5 3.702818 1_555
Gd5 In2 3.294082 1_556
Gd5 In3 3.294082 1_555
Gd5 Ir0 3.512069 1_556
Gd5 Ir1 3.512069 1_556
Gd5 Gd7 3.651332 1_555
Gd5 Gd9 3.651332 1_555
Gd5 Gd6 3.651332 1_556
Gd6 Ir0 2.842470 1_555
Gd6 Ir3 2.842470 1_655
Gd6 In2 3.525381 1_555
Gd6 In1 3.525381 1_555
Gd7 Ir0 2.842470 1_556
Gd7 Ir2 2.842470 1_655
Gd7 In1 3.525381 1_555
Gd7 In3 3.525381 1_555
Gd8 Ir0 2.842470 1_565
Gd8 Ir1 2.842470 1_655
Gd8 In2 3.525381 1_555
Gd8 In3 3.525381 1_555
Gd9 Ir2 2.842470 1_565
Gd9 Ir1 2.842470 1_556
Gd9 In3 3.525381 1_555
Gd9 In0 3.525381 1_555
Gd10 Ir1 2.842470 1_555
Gd10 Ir3 2.842470 1_565
Gd10 In2 3.525381 1_555
Gd10 In0 3.525381 1_555
Gd10 Gd2 3.651332 1_455
Gd10 Gd5 3.651332 1_554
Gd10 Gd3 3.651332 1_554
Gd11 Ir2 2.842470 1_555
Gd11 Ir3 2.842470 1_556
Gd11 In0 3.525381 1_555
Gd11 In1 3.525381 1_555
Gd11 Gd4 3.651332 1_545
Gd11 Gd3 3.651332 1_545
Gd12 Ir3 2.877487 1_655
Gd12 Ir1 2.877487 1_655
Gd12 Ir2 2.877487 1_655
Gd12 In3 3.508634 1_555
Gd12 In2 3.508634 1_555
Gd12 In1 3.508634 1_555
Gd12 Gd2 3.511797 1_545
Gd13 Ir3 2.877487 1_565
Gd13 Ir0 2.877487 1_565
Gd13 Ir2 2.877487 1_565
Gd13 In3 3.508634 1_555
Gd13 In2 3.508634 1_555
Gd13 In0 3.508634 1_555
Gd13 Gd4 3.511797 1_555
Gd13 Gd3 3.511797 1_554
Gd13 Gd2 3.511797 1_455
Gd14 Ir3 2.877487 1_556
Gd14 Ir1 2.877487 1_556
Gd14 Ir0 2.877487 1_556
Gd14 In3 3.508634 1_555
Gd14 In0 3.508634 1_555
Gd14 In1 3.508634 1_555
Gd14 Gd5 3.511797 1_555
Gd14 Gd3 3.511797 1_545
Gd15 Ir0 2.877487 1_555
Gd15 Ir1 2.877487 1_555
Gd15 Ir2 2.877487 1_555
Gd15 In0 3.508634 1_555
Gd15 In2 3.508634 1_555
Gd15 In1 3.508634 1_555
Gd15 Gd5 3.511797 1_554
Gd15 Gd4 3.511797 1_545
In0 In2 3.220568 1_555
In0 In3 3.220568 1_555
In0 In1 3.220568 1_555
In1 In2 3.220568 1_555
In1 In3 3.220568 1_555
In2 In3 3.220568 1_555
