# generated using pymatgen
data_Mg4Si7
_symmetry_space_group_name_H-M   'P 1'
_cell_length_a   4.02022500
_cell_length_b   7.12831692
_cell_length_c   14.45082785
_cell_angle_alpha   94.92208532
_cell_angle_beta   97.54035457
_cell_angle_gamma   90.12110519
_symmetry_Int_Tables_number   1
_chemical_formula_structural   Mg4Si7
_chemical_formula_sum   'Mg8 Si14'
_cell_volume   408.99119101
_cell_formula_units_Z   2
loop_
 _symmetry_equiv_pos_site_id
 _symmetry_equiv_pos_as_xyz
  1  'x, y, z'
loop_
 _atom_site_type_symbol
 _atom_site_label
 _atom_site_symmetry_multiplicity
 _atom_site_fract_x
 _atom_site_fract_y
 _atom_site_fract_z
 _atom_site_occupancy
  Mg  Mg0  1  0.01330500  0.06871200  0.91910900  1
  Mg  Mg1  1  0.81795700  0.31347100  0.51121300  1
  Mg  Mg2  1  0.23626100  0.12435600  0.36063500  1
  Mg  Mg3  1  0.39335900  0.51518200  0.65477300  1
  Mg  Mg4  1  0.97061000  0.56231400  0.83128100  1
  Mg  Mg5  1  0.16002000  0.59067600  0.21478700  1
  Mg  Mg6  1  0.28775600  0.61364200  0.42562000  1
  Mg  Mg7  1  0.34853600  0.01603000  0.58083400  1
  Si  Si0  1  0.52639800  0.41541100  0.95543300  1
  Si  Si1  1  0.53043100  0.75940700  0.96099400  1
  Si  Si2  1  0.07777200  0.80131900  0.05543000  1
  Si  Si3  1  0.06950500  0.39152800  0.04563400  1
  Si  Si4  1  0.85504500  0.69909300  0.56137100  1
  Si  Si5  1  0.77961100  0.92961100  0.44955200  1
  Si  Si6  1  0.65495000  0.13640300  0.21974700  1
  Si  Si7  1  0.45788300  0.85745800  0.80229600  1
  Si  Si8  1  0.90959700  0.23572700  0.70192600  1
  Si  Si9  1  0.10635200  0.11596900  0.12591100  1
  Si  Si10  1  0.74365900  0.41164200  0.32645600  1
  Si  Si11  1  0.45809800  0.23010600  0.80662000  1
  Si  Si12  1  0.91549900  0.88729000  0.70653900  1
  Si  Si13  1  0.68364800  0.82835100  0.28742700  1
loop_
_geom_bond_atom_site_label_1
_geom_bond_atom_site_label_2
_geom_bond_distance
_geom_bond_site_symmetry_2
Mg0 Si3 2.802976 1_556
Mg0 Si2 2.844887 1_546
Mg0 Si11 2.870308 1_555
Mg0 Si11 2.885762 1_455
Mg0 Si7 2.943375 1_445
Mg0 Si7 2.945951 1_545
Mg0 Si9 2.952562 1_556
Mg0 Si1 3.076983 1_545
Mg0 Si1 3.084703 1_445
Mg0 Si0 3.179600 1_555
Mg0 Si12 3.203474 1_445
Mg0 Si0 3.206629 1_455
Mg1 Si4 2.780594 1_555
Mg1 Si10 2.796329 1_555
Mg1 Si5 2.801556 1_545
Mg1 Si8 2.834545 1_555
Mg2 Si5 2.804077 1_445
Mg2 Si6 2.813271 1_555
Mg2 Si5 2.816376 1_545
Mg2 Si10 2.879857 1_455
Mg2 Si6 2.897611 1_455
Mg2 Si13 2.989762 1_545
Mg2 Si10 3.003172 1_555
Mg2 Si13 3.080145 1_445
Mg3 Si4 2.788007 1_455
Mg3 Si4 2.817150 1_555
Mg3 Si8 2.935823 1_555
Mg3 Si8 2.962983 1_455
Mg3 Si7 3.086178 1_555
Mg3 Si11 3.103188 1_555
Mg4 Si8 2.846848 1_555
Mg4 Si0 2.930541 1_655
Mg4 Si0 2.942774 1_555
Mg4 Si7 2.964518 1_655
Mg4 Si7 2.965397 1_555
Mg4 Si1 2.996702 1_655
Mg4 Si1 3.008018 1_555
Mg4 Si12 3.046112 1_555
Mg4 Si11 3.101930 1_555
Mg4 Si11 3.103834 1_655
Mg5 Si3 2.700306 1_555
Mg5 Si13 2.739257 1_555
Mg5 Si13 2.806441 1_455
Mg5 Si2 2.839475 1_555
Mg5 Si10 2.843920 1_455
Mg5 Si10 3.018364 1_555
Mg6 Si10 2.778758 1_455
Mg6 Si10 2.798664 1_555
Mg6 Si4 2.817908 1_455
Mg6 Si4 2.834699 1_555
Mg6 Si5 2.961519 1_555
Mg6 Si5 3.071978 1_455
Mg6 Si13 3.195616 1_555
Mg7 Si5 2.765644 1_545
Mg7 Si5 2.804391 1_445
Mg7 Si12 2.877853 1_445
Mg7 Si12 2.923275 1_545
Mg7 Si4 2.974024 1_445
Mg7 Si8 2.996735 1_455
Mg7 Si8 3.013513 1_555
Mg7 Si4 3.064371 1_545
Si0 Si3 2.401468 1_556
Si0 Si3 2.405836 1_656
Si0 Si11 2.408480 1_555
Si0 Si1 2.446477 1_555
Si1 Si2 2.418130 1_556
Si1 Si2 2.435707 1_656
Si1 Si7 2.435829 1_555
Si2 Si9 2.378541 1_565
Si3 Si9 2.360768 1_555
Si4 Si5 2.394220 1_555
Si6 Si9 2.401313 1_655
Si6 Si9 2.429815 1_555
Si10 Si6 2.384952 1_555
Si11 Si8 2.507625 1_455
Si11 Si8 2.513169 1_555
Si11 Si7 2.651718 1_545
Si12 Si4 2.375164 1_555
Si12 Si7 2.444423 1_655
Si12 Si7 2.462026 1_555
Si12 Si8 2.490454 1_565
Si13 Si5 2.372797 1_555
Si13 Si6 2.476247 1_565
