# generated using pymatgen
data_Li4MnCo2O7
_symmetry_space_group_name_H-M   'P 1'
_cell_length_a   2.99040495
_cell_length_b   2.99040495
_cell_length_c   33.97170365
_cell_angle_alpha   87.00892890
_cell_angle_beta   87.00892890
_cell_angle_gamma   57.45720591
_symmetry_Int_Tables_number   1
_chemical_formula_structural   Li4MnCo2O7
_chemical_formula_sum   'Li8 Mn2 Co4 O14'
_cell_volume   255.64038112
_cell_formula_units_Z   2
loop_
 _symmetry_equiv_pos_site_id
 _symmetry_equiv_pos_as_xyz
  1  'x, y, z'
loop_
 _atom_site_type_symbol
 _atom_site_label
 _atom_site_symmetry_multiplicity
 _atom_site_fract_x
 _atom_site_fract_y
 _atom_site_fract_z
 _atom_site_occupancy
  Li  Li0  1  0.79217700  0.79217700  0.56772800  1
  Li  Li1  1  0.20782300  0.20782300  0.43227200  1
  Li  Li2  1  0.64355300  0.64355300  0.28486300  1
  Li  Li3  1  0.07257100  0.07257100  0.14234500  1
  Li  Li4  1  0.50000000  0.50000000  0.00000000  1
  Li  Li5  1  0.92742900  0.92742900  0.85765500  1
  Li  Li6  1  0.35644700  0.35644700  0.71513700  1
  Li  Li7  1  0.50000000  0.50000000  0.50000000  1
  Mn  Mn0  1  0.07297400  0.07297400  0.64275700  1
  Mn  Mn1  1  0.92702600  0.92702600  0.35724300  1
  Co  Co0  1  0.35706600  0.35706600  0.21396400  1
  Co  Co1  1  0.78549400  0.78549400  0.07132600  1
  Co  Co2  1  0.21450600  0.21450600  0.92867400  1
  Co  Co3  1  0.64293400  0.64293400  0.78603600  1
  O  O0  1  0.44110400  0.44110400  0.61104900  1
  O  O1  1  0.85968400  0.85968400  0.46420200  1
  O  O2  1  0.30076000  0.30076000  0.32341900  1
  O  O3  1  0.71305200  0.71305200  0.18102700  1
  O  O4  1  0.15718800  0.15718800  0.03932500  1
  O  O5  1  0.58544800  0.58544800  0.89677500  1
  O  O6  1  0.99875500  0.99875500  0.75300200  1
  O  O7  1  0.14031600  0.14031600  0.53579800  1
  O  O8  1  0.55889600  0.55889600  0.38895100  1
  O  O9  1  0.00124500  0.00124500  0.24699800  1
  O  O10  1  0.41455200  0.41455200  0.10322500  1
  O  O11  1  0.84281200  0.84281200  0.96067500  1
  O  O12  1  0.28694800  0.28694800  0.81897300  1
  O  O13  1  0.69924000  0.69924000  0.67658100  1
loop_
_geom_bond_atom_site_label_1
_geom_bond_atom_site_label_2
_geom_bond_distance
_geom_bond_site_symmetry_2
Li0 O7 1.994943 1_655
Li0 O7 1.994943 1_565
Li0 O7 2.067522 1_665
Li0 O0 2.231315 1_565
Li0 O0 2.231315 1_655
Li0 O0 2.287695 1_555
Li1 O1 1.994943 1_455
Li1 O1 1.994943 1_545
Li1 O1 2.067522 1_445
Li1 O8 2.231315 1_545
Li1 O8 2.231315 1_455
Li1 O8 2.287695 1_555
Li2 O9 2.095710 1_655
Li2 O9 2.095710 1_565
Li2 O2 2.142418 1_565
Li2 O2 2.142418 1_655
Li2 O2 2.160441 1_555
Li2 O9 2.210586 1_665
Li3 O3 2.109723 1_455
Li3 O3 2.109723 1_545
Li3 O10 2.156411 1_455
Li3 O10 2.156411 1_545
Li3 O10 2.167797 1_555
Li3 O3 2.233207 1_445
Li4 O4 2.159040 1_655
Li4 O4 2.159040 1_565
Li4 O11 2.159040 1_544
Li4 O11 2.159040 1_454
Li4 O4 2.175173 1_555
Li4 O11 2.175173 1_554
Li5 O12 2.109723 1_565
Li5 O12 2.109723 1_655
Li5 O5 2.156411 1_655
Li5 O5 2.156411 1_565
Li5 O5 2.167797 1_555
Li5 O12 2.233207 1_665
Li6 O6 2.095710 1_455
Li6 O6 2.095710 1_545
Li6 O13 2.142418 1_545
Li6 O13 2.142418 1_455
Li6 O13 2.160441 1_555
Li6 O6 2.210586 1_445
Li7 O7 2.047692 1_655
Li7 O7 2.047692 1_565
Li7 O1 2.047692 1_455
Li7 O1 2.047692 1_545
Li7 O1 2.182760 1_555
Li7 O7 2.182760 1_555
Mn0 O0 1.947646 1_545
Mn0 O0 1.947646 1_455
Mn0 O13 1.978753 1_545
Mn0 O13 1.978753 1_455
Mn0 O0 2.154158 1_555
Mn0 O13 2.212294 1_445
Mn1 O8 1.947646 1_565
Mn1 O8 1.947646 1_655
Mn1 O2 1.978753 1_565
Mn1 O2 1.978753 1_655
Mn1 O8 2.154158 1_555
Mn1 O2 2.212294 1_665
Co0 O3 1.997270 1_455
Co0 O3 1.997270 1_545
Co0 O9 1.999548 1_655
Co0 O9 1.999548 1_565
Co0 O3 2.118749 1_555
Co0 O9 2.119583 1_555
Co1 O10 1.945712 1_565
Co1 O10 1.945712 1_655
Co1 O4 1.946217 1_655
Co1 O4 1.946217 1_565
Co1 O10 2.169836 1_555
Co1 O4 2.174801 1_665
Co2 O5 1.945712 1_545
Co2 O5 1.945712 1_455
Co2 O11 1.946217 1_455
Co2 O11 1.946217 1_545
Co2 O5 2.169836 1_555
Co2 O11 2.174801 1_445
Co3 O12 1.997270 1_655
Co3 O12 1.997270 1_565
Co3 O6 1.999548 1_545
Co3 O6 1.999548 1_455
Co3 O12 2.118749 1_555
Co3 O6 2.119583 1_555
