# generated using pymatgen
data_Mg7Si4
_symmetry_space_group_name_H-M   'P 1'
_cell_length_a   5.15654300
_cell_length_b   5.98325066
_cell_length_c   14.26470366
_cell_angle_alpha   92.75068161
_cell_angle_beta   94.93359366
_cell_angle_gamma   96.50012334
_symmetry_Int_Tables_number   1
_chemical_formula_structural   Mg7Si4
_chemical_formula_sum   'Mg14 Si8'
_cell_volume   434.91664829
_cell_formula_units_Z   2
loop_
 _symmetry_equiv_pos_site_id
 _symmetry_equiv_pos_as_xyz
  1  'x, y, z'
loop_
 _atom_site_type_symbol
 _atom_site_label
 _atom_site_symmetry_multiplicity
 _atom_site_fract_x
 _atom_site_fract_y
 _atom_site_fract_z
 _atom_site_occupancy
  Mg  Mg0  1  0.63173900  0.09352600  0.09073000  1
  Mg  Mg1  1  0.29214500  0.45612800  0.36050800  1
  Mg  Mg2  1  0.77113300  0.42821200  0.49449100  1
  Mg  Mg3  1  0.72074700  0.12551700  0.30006700  1
  Mg  Mg4  1  0.52075900  0.60622400  0.15794900  1
  Mg  Mg5  1  0.79131300  0.71498900  0.69301600  1
  Mg  Mg6  1  0.82258600  0.21740400  0.69416900  1
  Mg  Mg7  1  0.73994600  0.92130100  0.48584200  1
  Mg  Mg8  1  0.13849900  0.27095700  0.00741000  1
  Mg  Mg9  1  0.03630300  0.75985100  0.04755300  1
  Mg  Mg10  1  0.58542400  0.23423900  0.88487000  1
  Mg  Mg11  1  0.51366800  0.73613200  0.90616600  1
  Mg  Mg12  1  0.26483900  0.69892000  0.56736200  1
  Mg  Mg13  1  0.26184700  0.19801400  0.54895400  1
  Si  Si0  1  0.03225400  0.94593100  0.85886000  1
  Si  Si1  1  0.01058900  0.43605500  0.18457800  1
  Si  Si2  1  0.82799400  0.63010800  0.32325100  1
  Si  Si3  1  0.32613800  0.44792300  0.73334300  1
  Si  Si4  1  0.00808000  0.53286200  0.85812600  1
  Si  Si5  1  0.20059300  0.06982200  0.20121700  1
  Si  Si6  1  0.19074600  0.95296600  0.37300100  1
  Si  Si7  1  0.30906700  0.01921100  0.72485900  1
loop_
_geom_bond_atom_site_label_1
_geom_bond_atom_site_label_2
_geom_bond_distance
_geom_bond_site_symmetry_2
Mg0 Si5 2.828350 1_555
Mg0 Si1 2.861659 1_655
Mg0 Si5 3.229384 1_655
Mg1 Si2 2.737316 1_455
Mg1 Si1 2.779431 1_555
Mg1 Si2 2.942005 1_555
Mg1 Si6 3.013246 1_545
Mg1 Si6 3.075586 1_555
Mg1 Si5 3.129330 1_555
Mg2 Si2 2.799670 1_555
Mg2 Mg7 2.980629 1_555
Mg2 Mg7 3.015006 1_545
Mg2 Mg6 3.172539 1_555
Mg3 Si6 2.873652 1_645
Mg3 Si5 2.897502 1_555
Mg3 Si1 2.913516 1_655
Mg3 Mg7 2.969589 1_545
Mg3 Si5 2.993898 1_655
Mg3 Si2 3.004135 1_555
Mg3 Si6 3.093661 1_545
Mg3 Si2 3.104062 1_545
Mg4 Si2 2.713720 1_555
Mg4 Si1 2.775637 1_555
Mg4 Si1 2.831098 1_655
Mg5 Si0 2.800278 1_655
Mg5 Si4 2.837844 1_655
Mg5 Si3 2.845305 1_555
Mg5 Mg6 2.991288 1_565
Mg5 Mg6 3.000466 1_555
Mg5 Si7 3.042909 1_665
Mg5 Mg7 3.258393 1_555
Mg6 Si3 2.796867 1_655
Mg6 Si7 2.854462 1_555
Mg6 Si7 2.902618 1_655
Mg6 Si4 2.954687 1_655
Mg6 Si0 3.106972 1_645
Mg6 Si3 3.120812 1_555
Mg6 Mg7 3.355209 1_545
Mg7 Si2 2.931427 1_555
Mg7 Si6 2.933191 1_655
Mg7 Si6 3.164428 1_555
Mg8 Si0 2.781345 1_544
Mg8 Si4 2.784815 1_554
Mg8 Si1 2.827089 1_555
Mg8 Si5 3.073779 1_555
Mg9 Si5 2.810120 1_565
Mg9 Si1 2.818037 1_555
Mg9 Si4 2.950006 1_554
Mg9 Si0 2.961118 1_554
Mg10 Si4 2.722997 1_655
Mg10 Si7 2.763952 1_555
Mg10 Si3 2.872189 1_555
Mg10 Si0 3.067201 1_645
Mg10 Mg6 3.078882 1_555
Mg10 Si0 3.145198 1_545
Mg11 Si4 2.764145 1_555
Mg11 Si0 2.948264 1_555
Mg11 Si3 2.964909 1_555
Mg11 Si0 2.968777 1_655
Mg11 Si4 3.061217 1_655
Mg12 Si7 2.858608 1_565
Mg12 Si3 2.877697 1_555
Mg12 Mg7 3.004192 1_555
Mg12 Si6 3.239904 1_555
Mg12 Mg7 3.297123 1_455
Mg13 Si7 2.776977 1_555
Mg13 Si6 2.819682 1_545
Mg13 Si3 2.936711 1_555
Mg13 Mg7 3.037372 1_445
Mg13 Mg6 3.205987 1_455
Mg13 Mg7 3.285176 1_545
Mg13 Mg6 3.396433 1_555
Si0 Si4 2.459975 1_555
Si0 Si7 2.508290 1_565
Si1 Si5 2.512751 1_555
Si1 Si2 2.548537 1_455
Si2 Si6 2.560503 1_655
Si3 Si7 2.553299 1_555
Si3 Si4 2.592399 1_555
Si5 Si6 2.583395 1_545
