# generated using pymatgen
data_Zn(MoO2)2
_symmetry_space_group_name_H-M   'P 1'
_cell_length_a   6.46042062
_cell_length_b   6.46042062
_cell_length_c   6.46042062
_cell_angle_alpha   124.38018523
_cell_angle_beta   123.06720580
_cell_angle_gamma   83.66715944
_symmetry_Int_Tables_number   1
_chemical_formula_structural   Zn(MoO2)2
_chemical_formula_sum   'Zn2 Mo4 O8'
_cell_volume   178.70236502
_cell_formula_units_Z   2
loop_
 _symmetry_equiv_pos_site_id
 _symmetry_equiv_pos_as_xyz
  1  'x, y, z'
loop_
 _atom_site_type_symbol
 _atom_site_label
 _atom_site_symmetry_multiplicity
 _atom_site_fract_x
 _atom_site_fract_y
 _atom_site_fract_z
 _atom_site_occupancy
  Zn  Zn0  1  0.00000000  0.50000000  0.00000000  1
  Zn  Zn1  1  0.00000000  0.00000000  0.50000000  1
  Mo  Mo0  1  0.62069800  0.87069800  0.75000000  1
  Mo  Mo1  1  0.37930200  0.12930200  0.25000000  1
  Mo  Mo2  1  0.00000000  0.50000000  0.50000000  1
  Mo  Mo3  1  0.50000000  0.50000000  0.00000000  1
  O  O0  1  0.77533800  0.27598200  0.49935600  1
  O  O1  1  0.22471000  0.72640500  0.00169400  1
  O  O2  1  0.27662700  0.27598200  0.00064400  1
  O  O3  1  0.22471000  0.22301600  0.49830600  1
  O  O4  1  0.77529000  0.77698400  0.50169400  1
  O  O5  1  0.77529000  0.27359500  0.99830600  1
  O  O6  1  0.72337300  0.72401800  0.99935600  1
  O  O7  1  0.22466200  0.72401800  0.50064400  1
loop_
_geom_bond_atom_site_label_1
_geom_bond_atom_site_label_2
_geom_bond_distance
_geom_bond_site_symmetry_2
Mo0 O7 2.086240 1_555
Mo0 O6 2.086241 1_555
Mo0 O5 2.110778 1_565
Mo0 O4 2.110783 1_555
Mo1 O0 2.086240 1_555
Mo1 O2 2.086241 1_555
Mo1 O1 2.110778 1_545
Mo1 O3 2.110783 1_555
Mo2 O0 2.156654 1_455
Mo2 O7 2.156654 1_555
Mo2 O5 2.175274 1_454
Mo2 O1 2.175274 1_556
Mo2 O3 2.175274 1_555
Mo2 O4 2.175274 1_455
Mo3 O2 2.156649 1_555
Mo3 O6 2.156649 1_554
Mo3 O3 2.175274 1_554
Mo3 O4 2.175274 1_555
Mo3 O5 2.175278 1_554
Mo3 O1 2.175278 1_555
O0 Zn0 2.171740 1_656
O0 Zn1 2.171740 1_655
O1 Zn0 2.163341 1_555
O2 Zn1 2.171740 1_554
O2 Zn0 2.171745 1_555
O3 Zn1 2.163336 1_555
O4 Zn1 2.163336 1_665
O5 Zn0 2.163341 1_656
O6 Zn1 2.171740 1_666
O6 Zn0 2.171745 1_656
O7 Zn1 2.171740 1_565
O7 Zn0 2.171740 1_555
