# generated using pymatgen
data_Rb2Pt(CN)4
_symmetry_space_group_name_H-M   'P 1'
_cell_length_a   7.98142700
_cell_length_b   8.98179754
_cell_length_c   8.98179754
_cell_angle_alpha   78.79990154
_cell_angle_beta   63.62071666
_cell_angle_gamma   63.62071666
_symmetry_Int_Tables_number   1
_chemical_formula_structural   Rb2Pt(CN)4
_chemical_formula_sum   'Rb4 Pt2 C8 N8'
_cell_volume   516.76851943
_cell_formula_units_Z   2
loop_
 _symmetry_equiv_pos_site_id
 _symmetry_equiv_pos_as_xyz
  1  'x, y, z'
loop_
 _atom_site_type_symbol
 _atom_site_label
 _atom_site_symmetry_multiplicity
 _atom_site_fract_x
 _atom_site_fract_y
 _atom_site_fract_z
 _atom_site_occupancy
  Rb  Rb0  1  0.00000000  0.00000000  0.00000000  1
  Rb  Rb1  1  0.50000000  0.50000000  0.50000000  1
  Rb  Rb2  1  0.25000000  0.47118200  0.02881800  1
  Rb  Rb3  1  0.75000000  0.52881800  0.97118200  1
  Pt  Pt0  1  0.50000000  0.00000000  0.50000000  1
  Pt  Pt1  1  0.00000000  0.00000000  0.50000000  1
  C  C0  1  0.48442400  0.82603400  0.67396600  1
  C  C1  1  0.51557600  0.17396600  0.32603400  1
  C  C2  1  0.98442400  0.17396600  0.32603400  1
  C  C3  1  0.01557600  0.82603400  0.67396600  1
  C  C4  1  0.32484600  0.17515400  0.67515400  1
  C  C5  1  0.82484600  0.17515400  0.67515400  1
  C  C6  1  0.67515400  0.82484600  0.32484600  1
  C  C7  1  0.17515400  0.82484600  0.32484600  1
  N  N0  1  0.47241800  0.72324400  0.77675600  1
  N  N1  1  0.52758200  0.27675600  0.22324400  1
  N  N2  1  0.97241800  0.27675600  0.22324400  1
  N  N3  1  0.02758200  0.72324400  0.77675600  1
  N  N4  1  0.22132200  0.27867800  0.77867800  1
  N  N5  1  0.72132200  0.27867800  0.77867800  1
  N  N6  1  0.77867800  0.72132200  0.22132200  1
  N  N7  1  0.27867800  0.72132200  0.22132200  1
loop_
_geom_bond_atom_site_label_1
_geom_bond_atom_site_label_2
_geom_bond_distance
_geom_bond_site_symmetry_2
C0 N0 1.175926 1_555
C0 Pt0 1.987458 1_565
C0 Rb0 3.509088 1_566
C0 Rb1 3.509088 1_555
C1 N1 1.175926 1_555
C1 Pt0 1.987458 1_555
C1 Rb0 3.509088 1_655
C1 Rb1 3.509088 1_555
C2 N2 1.175926 1_555
C2 Pt1 1.987458 1_655
C2 Rb1 3.509088 1_555
C2 Rb0 3.509088 1_655
C3 N3 1.175926 1_555
C3 Pt1 1.987458 1_565
C3 Rb1 3.509088 1_555
C3 Rb0 3.509088 1_566
C4 N4 1.175721 1_555
C4 Pt0 1.989223 1_555
C4 Rb0 3.581813 1_556
C4 Rb1 3.581813 1_555
C5 N5 1.175721 1_555
C5 Pt1 1.989223 1_655
C5 Rb1 3.581813 1_555
C5 Rb0 3.581813 1_656
C6 N6 1.175721 1_555
C6 Pt0 1.989223 1_565
C6 Rb0 3.581813 1_665
C6 Rb1 3.581813 1_555
C7 N7 1.175721 1_555
C7 Pt1 1.989223 1_565
C7 Rb1 3.581813 1_555
C7 Rb0 3.581813 1_565
N0 Rb3 3.134146 1_555
N0 Rb0 3.362407 1_566
N0 Rb1 3.362407 1_555
N0 Rb2 3.378071 1_556
N1 Rb2 3.134146 1_555
N1 Rb0 3.362407 1_655
N1 Rb1 3.362407 1_555
N1 Rb3 3.378071 1_554
N2 Rb2 3.134146 1_655
N2 Rb1 3.362407 1_555
N2 Rb0 3.362407 1_655
N2 Rb3 3.378071 1_554
N3 Rb3 3.134146 1_455
N3 Rb1 3.362407 1_555
N3 Rb0 3.362407 1_566
N3 Rb2 3.378071 1_556
N4 Rb3 3.226044 1_455
N4 Rb2 3.226044 1_556
N4 Rb1 3.494699 1_555
N4 Rb0 3.494699 1_556
N5 Rb2 3.226044 1_556
N5 Rb3 3.226044 1_555
N5 Rb0 3.494699 1_656
N5 Rb1 3.494699 1_555
N6 Rb2 3.226044 1_655
N6 Rb3 3.226044 1_554
N6 Rb1 3.494699 1_555
N6 Rb0 3.494699 1_665
N7 Rb3 3.226044 1_554
N7 Rb2 3.226044 1_555
N7 Rb0 3.494699 1_565
N7 Rb1 3.494699 1_555
