# generated using pymatgen
data_La2CuGe
_symmetry_space_group_name_H-M   'P 1'
_cell_length_a   11.27612935
_cell_length_b   11.27612935
_cell_length_c   11.27612935
_cell_angle_alpha   123.23956547
_cell_angle_beta   119.53376647
_cell_angle_gamma   87.64578025
_symmetry_Int_Tables_number   1
_chemical_formula_structural   La2CuGe
_chemical_formula_sum   'La2 Cu1 Ge1'
_cell_volume   990.30588709
_cell_formula_units_Z   1
loop_
 _symmetry_equiv_pos_site_id
 _symmetry_equiv_pos_as_xyz
  1  'x, y, z'
loop_
 _atom_site_type_symbol
 _atom_site_label
 _atom_site_symmetry_multiplicity
 _atom_site_fract_x
 _atom_site_fract_y
 _atom_site_fract_z
 _atom_site_occupancy
  La  La0  1  0.00000000  0.24673600  0.24673600  1
  La  La1  1  0.00000000  0.75326400  0.75326400  1
  Cu  Cu0  1  0.00000000  0.00000000  0.00000000  1
  Ge  Ge0  1  0.00000000  0.50000000  0.50000000  1
loop_
_geom_bond_atom_site_label_1
_geom_bond_atom_site_label_2
_geom_bond_distance
_geom_bond_site_symmetry_2
Cu0 La1 2.644899 1_544
Cu0 La0 2.644899 1_555
Ge0 La0 2.714876 1_555
Ge0 La1 2.714876 1_555
