# generated using pymatgen
data_Dy(AlCr)6
_symmetry_space_group_name_H-M   'P 1'
_cell_length_a   5.06395900
_cell_length_b   6.69590098
_cell_length_c   6.69590098
_cell_angle_alpha   97.53760466
_cell_angle_beta   112.21844356
_cell_angle_gamma   67.78155644
_symmetry_Int_Tables_number   1
_chemical_formula_structural   Dy(AlCr)6
_chemical_formula_sum   'Dy1 Al6 Cr6'
_cell_volume   194.55992457
_cell_formula_units_Z   1
loop_
 _symmetry_equiv_pos_site_id
 _symmetry_equiv_pos_as_xyz
  1  'x, y, z'
loop_
 _atom_site_type_symbol
 _atom_site_label
 _atom_site_symmetry_multiplicity
 _atom_site_fract_x
 _atom_site_fract_y
 _atom_site_fract_z
 _atom_site_occupancy
  Dy  Dy0  1  0.00000000  0.00000000  0.00000000  1
  Al  Al0  1  0.65309300  0.34690700  0.65309300  1
  Al  Al1  1  0.34690700  0.65309300  0.34690700  1
  Al  Al2  1  0.00000000  0.33345000  0.33345000  1
  Al  Al3  1  0.00000000  0.66655000  0.66655000  1
  Al  Al4  1  0.69706000  0.80294000  0.19706000  1
  Al  Al5  1  0.30294000  0.19706000  0.80294000  1
  Cr  Cr0  1  0.50000000  0.00000000  0.50000000  1
  Cr  Cr1  1  0.00000000  0.00000000  0.50000000  1
  Cr  Cr2  1  0.50000000  0.50000000  0.00000000  1
  Cr  Cr3  1  0.00000000  0.50000000  0.00000000  1
  Cr  Cr4  1  0.50000000  0.76055800  0.76055800  1
  Cr  Cr5  1  0.50000000  0.23944200  0.23944200  1
loop_
_geom_bond_atom_site_label_1
_geom_bond_atom_site_label_2
_geom_bond_distance
_geom_bond_site_symmetry_2
Al0 Cr5 2.658098 1_555
Al0 Cr4 2.658098 1_555
Al0 Al1 2.665562 1_555
Al0 Cr1 2.680239 1_655
Al0 Cr3 2.680239 1_656
Al0 Cr0 2.680240 1_555
Al0 Cr2 2.680240 1_556
Al0 Al5 2.848280 1_655
Al0 Al5 2.848280 1_555
Al0 Dy0 3.020067 1_656
Al1 Cr5 2.658098 1_555
Al1 Cr4 2.658098 1_555
Al1 Cr3 2.680239 1_555
Al1 Cr1 2.680239 1_565
Al1 Cr2 2.680240 1_555
Al1 Cr0 2.680240 1_565
Al1 Al4 2.848280 1_455
Al1 Al4 2.848280 1_555
Al1 Dy0 3.020067 1_565
Al2 Cr0 2.623374 1_555
Al2 Cr2 2.623374 1_455
Al2 Cr1 2.623374 1_555
Al2 Cr3 2.623374 1_555
Al2 Cr5 2.664475 1_455
Al2 Cr5 2.664475 1_555
Al2 Al3 2.940115 1_555
Al2 Dy0 2.943204 1_555
Al2 Al5 3.019344 1_555
Al2 Al4 3.019344 1_455
Al3 Cr2 2.623374 1_556
Al3 Cr0 2.623374 1_465
Al3 Cr3 2.623374 1_556
Al3 Cr1 2.623374 1_565
Al3 Cr4 2.664475 1_455
Al3 Cr4 2.664475 1_555
Al3 Dy0 2.943204 1_566
Al3 Al5 3.019344 1_555
Al3 Al4 3.019344 1_455
Al4 Cr1 2.585413 1_665
Al4 Cr3 2.585413 1_655
Al4 Cr0 2.585413 1_565
Al4 Cr2 2.585413 1_555
Al4 Cr5 2.722081 1_565
Al4 Cr4 2.722081 1_554
Al4 Dy0 3.058433 1_565
Al4 Dy0 3.058433 1_665
Al5 Cr3 2.585413 1_556
Al5 Cr1 2.585413 1_555
Al5 Cr2 2.585413 1_556
Al5 Cr0 2.585413 1_555
Al5 Cr5 2.722081 1_556
Al5 Cr4 2.722081 1_545
Al5 Dy0 3.058433 1_656
Al5 Dy0 3.058433 1_556
Cr0 Cr5 2.519571 1_555
Cr0 Cr4 2.519571 1_545
Cr0 Cr1 2.531979 1_655
Cr0 Cr1 2.531979 1_555
Cr0 Dy0 3.347950 1_656
Cr0 Dy0 3.347950 1_555
Cr1 Cr5 2.519570 1_455
Cr1 Cr4 2.519570 1_545
Cr1 Dy0 3.347950 1_555
Cr1 Dy0 3.347950 1_556
Cr2 Cr5 2.519571 1_555
Cr2 Cr4 2.519571 1_554
Cr2 Cr3 2.531979 1_555
Cr2 Cr3 2.531979 1_655
Cr2 Dy0 3.347950 1_655
Cr2 Dy0 3.347950 1_565
Cr3 Cr5 2.519570 1_555
Cr3 Cr4 2.519570 1_454
Cr3 Dy0 3.347950 1_555
Cr3 Dy0 3.347950 1_565
Cr4 Dy0 3.298113 1_666
Cr4 Dy0 3.298113 1_566
Cr5 Dy0 3.298113 1_555
Cr5 Dy0 3.298113 1_655
