# generated using pymatgen
data_FeBO3
_symmetry_space_group_name_H-M   'P 1'
_cell_length_a   4.99805430
_cell_length_b   7.38751429
_cell_length_c   7.38774594
_cell_angle_alpha   108.32990118
_cell_angle_beta   70.59003088
_cell_angle_gamma   109.41150467
_symmetry_Int_Tables_number   1
_chemical_formula_structural   FeBO3
_chemical_formula_sum   'Fe4 B4 O12'
_cell_volume   236.18171737
_cell_formula_units_Z   4
loop_
 _symmetry_equiv_pos_site_id
 _symmetry_equiv_pos_as_xyz
  1  'x, y, z'
loop_
 _atom_site_type_symbol
 _atom_site_label
 _atom_site_symmetry_multiplicity
 _atom_site_fract_x
 _atom_site_fract_y
 _atom_site_fract_z
 _atom_site_occupancy
  Fe  Fe0  1  0.75013000  0.75024400  0.24967400  1
  Fe  Fe1  1  0.49985700  0.49968500  0.50026900  1
  Fe  Fe2  1  0.25012800  0.25024200  0.74968200  1
  Fe  Fe3  1  0.99986300  0.99967900  0.00027500  1
  B  B0  1  0.87499900  0.20825600  0.45827100  1
  B  B1  1  0.37500200  0.70824800  0.95826400  1
  B  B2  1  0.62500800  0.29173000  0.04170400  1
  B  B3  1  0.12500800  0.79173800  0.54170300  1
  O  O0  1  0.87508800  0.04859000  0.29861900  1
  O  O1  1  0.37509600  0.54859600  0.79859700  1
  O  O2  1  0.62491100  0.45144200  0.20141000  1
  O  O3  1  0.12489700  0.95142100  0.70141900  1
  O  O4  1  0.63484100  0.28706400  0.53850200  1
  O  O5  1  0.13484000  0.78704900  0.03850600  1
  O  O6  1  0.61505100  0.78859400  0.03717200  1
  O  O7  1  0.11506000  0.28860500  0.53716900  1
  O  O8  1  0.38470400  0.21135200  0.96294100  1
  O  O9  1  0.88471100  0.71135700  0.46292300  1
  O  O10  1  0.36540900  0.71305800  0.46144000  1
  O  O11  1  0.86539900  0.21305200  0.96146000  1
loop_
_geom_bond_atom_site_label_1
_geom_bond_atom_site_label_2
_geom_bond_distance
_geom_bond_site_symmetry_2
Fe0 O6 2.027817 1_555
Fe0 O0 2.027913 1_565
Fe0 O2 2.031364 1_555
Fe0 O5 2.032343 1_655
Fe0 O9 2.033322 1_555
Fe0 O10 2.034745 1_555
Fe1 O4 2.027874 1_555
Fe1 O1 2.027884 1_555
Fe1 O2 2.031846 1_555
Fe1 O7 2.032290 1_555
Fe1 O10 2.033508 1_555
Fe1 O9 2.034848 1_555
Fe2 O7 2.027905 1_555
Fe2 O1 2.027982 1_555
Fe2 O3 2.031495 1_545
Fe2 O4 2.032404 1_555
Fe2 O8 2.033385 1_555
Fe2 O11 2.034816 1_455
Fe3 O5 2.027906 1_655
Fe3 O0 2.027994 1_565
Fe3 O3 2.031817 1_654
Fe3 O6 2.032356 1_555
Fe3 O11 2.033508 1_564
Fe3 O8 2.034804 1_664
B0 O7 1.380402 1_655
B0 O4 1.380448 1_555
B0 O0 1.381087 1_555
B1 O6 1.380392 1_556
B1 O5 1.380436 1_556
B1 O1 1.381092 1_555
B2 O8 1.380882 1_554
B2 O11 1.380906 1_554
B2 O2 1.381520 1_555
B3 O9 1.380924 1_455
B3 O10 1.380959 1_555
B3 O3 1.381438 1_555
