# generated using pymatgen
data_Li5Mn(CoO4)2
_symmetry_space_group_name_H-M   'P 1'
_cell_length_a   2.91066900
_cell_length_b   5.07703800
_cell_length_c   9.74222840
_cell_angle_alpha   78.85252904
_cell_angle_beta   90.00000000
_cell_angle_gamma   90.00000000
_symmetry_Int_Tables_number   1
_chemical_formula_structural   Li5Mn(CoO4)2
_chemical_formula_sum   'Li5 Mn1 Co2 O8'
_cell_volume   141.25028868
_cell_formula_units_Z   1
loop_
 _symmetry_equiv_pos_site_id
 _symmetry_equiv_pos_as_xyz
  1  'x, y, z'
loop_
 _atom_site_type_symbol
 _atom_site_label
 _atom_site_symmetry_multiplicity
 _atom_site_fract_x
 _atom_site_fract_y
 _atom_site_fract_z
 _atom_site_occupancy
  Li  Li0  1  0.00000000  0.23858400  0.26901600  1
  Li  Li1  1  0.50000000  0.25853900  0.73797200  1
  Li  Li2  1  0.00000000  0.76141600  0.73098400  1
  Li  Li3  1  0.50000000  0.74146100  0.26202800  1
  Li  Li4  1  0.50000000  0.00000000  0.50000000  1
  Mn  Mn0  1  0.00000000  0.00000000  0.00000000  1
  Co  Co0  1  0.00000000  0.50000000  0.50000000  1
  Co  Co1  1  0.50000000  0.50000000  0.00000000  1
  O  O0  1  0.00000000  0.35817400  0.89040800  1
  O  O1  1  0.50000000  0.38555800  0.38706300  1
  O  O2  1  0.00000000  0.82904000  0.38933800  1
  O  O3  1  0.50000000  0.89821400  0.88485700  1
  O  O4  1  0.00000000  0.17096000  0.61066200  1
  O  O5  1  0.50000000  0.10178600  0.11514300  1
  O  O6  1  0.00000000  0.64182600  0.10959200  1
  O  O7  1  0.50000000  0.61444200  0.61293700  1
loop_
_geom_bond_atom_site_label_1
_geom_bond_atom_site_label_2
_geom_bond_distance
_geom_bond_site_symmetry_2
Li0 O1 2.080677 1_455
Li0 O1 2.080677 1_555
Li0 O2 2.180593 1_545
Li0 O5 2.291320 1_555
Li0 O5 2.291320 1_455
Li0 O6 2.318209 1_555
Li1 O7 1.974269 1_555
Li1 O4 2.016742 1_655
Li1 O4 2.016742 1_555
Li1 O3 2.093355 1_545
Li1 O0 2.206758 1_555
Li1 O0 2.206758 1_655
Li2 O7 2.080677 1_555
Li2 O7 2.080677 1_455
Li2 O4 2.180593 1_565
Li2 O3 2.291320 1_555
Li2 O3 2.291320 1_455
Li2 O0 2.318209 1_555
Li3 O1 1.974269 1_555
Li3 O2 2.016742 1_555
Li3 O2 2.016742 1_655
Li3 O5 2.093355 1_565
Li3 O6 2.206758 1_555
Li3 O6 2.206758 1_655
Li4 O7 2.051720 1_545
Li4 O1 2.051720 1_555
Li4 O2 2.096542 1_545
Li4 O2 2.096542 1_645
Li4 O4 2.096542 1_655
Li4 O4 2.096542 1_555
Mn0 O6 1.922499 1_545
Mn0 O0 1.922499 1_554
Mn0 O5 1.966601 1_555
Mn0 O3 1.966601 1_444
Mn0 O5 1.966601 1_455
Mn0 O3 1.966601 1_544
Co0 O4 1.804612 1_555
Co0 O2 1.804612 1_555
Co0 O7 1.978218 1_455
Co0 O7 1.978218 1_555
Co0 O1 1.978218 1_455
Co0 O1 1.978218 1_555
Co1 O6 2.018332 1_555
Co1 O6 2.018332 1_655
Co1 O0 2.018332 1_654
Co1 O0 2.018332 1_554
Co1 O3 2.113968 1_554
Co1 O5 2.113968 1_555
