# generated using pymatgen
data_Sr3(AlN2)2
_symmetry_space_group_name_H-M   'P 1'
_cell_length_a   5.91148632
_cell_length_b   9.58619902
_cell_length_c   9.99181118
_cell_angle_alpha   90.00000000
_cell_angle_beta   90.00000000
_cell_angle_gamma   90.00000000
_symmetry_Int_Tables_number   1
_chemical_formula_structural   Sr3(AlN2)2
_chemical_formula_sum   'Sr12 Al8 N16'
_cell_volume   566.22279402
_cell_formula_units_Z   4
loop_
 _symmetry_equiv_pos_site_id
 _symmetry_equiv_pos_as_xyz
  1  'x, y, z'
loop_
 _atom_site_type_symbol
 _atom_site_label
 _atom_site_symmetry_multiplicity
 _atom_site_fract_x
 _atom_site_fract_y
 _atom_site_fract_z
 _atom_site_occupancy
  Sr  Sr0  1  0.25000000  0.59438363  0.50000000  1
  Sr  Sr1  1  0.25000000  0.90561637  -0.00000000  1
  Sr  Sr2  1  0.75000000  0.40561637  0.50000000  1
  Sr  Sr3  1  0.75000000  0.09438363  -0.00000000  1
  Sr  Sr4  1  0.38343940  0.58527765  0.15482425  1
  Sr  Sr5  1  0.38343940  0.91472235  0.34517575  1
  Sr  Sr6  1  0.11656060  0.58527765  0.84517575  1
  Sr  Sr7  1  0.11656060  0.91472235  0.65482425  1
  Sr  Sr8  1  0.61656060  0.41472235  0.84517575  1
  Sr  Sr9  1  0.61656060  0.08527765  0.65482425  1
  Sr  Sr10  1  0.88343940  0.41472235  0.15482425  1
  Sr  Sr11  1  0.88343940  0.08527765  0.34517575  1
  Al  Al0  1  0.82963539  0.75000000  0.25000000  1
  Al  Al1  1  0.67036461  0.75000000  0.75000000  1
  Al  Al2  1  0.17036461  0.25000000  0.75000000  1
  Al  Al3  1  0.32963539  0.25000000  0.25000000  1
  Al  Al4  1  0.25000000  0.23047633  -0.00000000  1
  Al  Al5  1  0.75000000  0.73047633  0.50000000  1
  Al  Al6  1  0.75000000  0.76952367  -0.00000000  1
  Al  Al7  1  0.25000000  0.26952367  0.50000000  1
  N  N0  1  0.47860247  0.17012950  0.40235370  1
  N  N1  1  0.47860247  0.32987050  0.09764630  1
  N  N2  1  0.02139753  0.17012950  0.59764630  1
  N  N3  1  0.02139753  0.32987050  0.90235370  1
  N  N4  1  0.52139753  0.82987050  0.59764630  1
  N  N5  1  0.52139753  0.67012950  0.90235370  1
  N  N6  1  0.97860247  0.82987050  0.40235370  1
  N  N7  1  0.97860247  0.67012950  0.09764630  1
  N  N8  1  0.13142685  0.37093018  0.35431058  1
  N  N9  1  0.13142685  0.12906982  0.14568942  1
  N  N10  1  0.36857315  0.37093018  0.64568942  1
  N  N11  1  0.36857315  0.12906982  0.85431058  1
  N  N12  1  0.86857315  0.87093018  0.85431058  1
  N  N13  1  0.63142685  0.62906982  0.35431058  1
  N  N14  1  0.63142685  0.87093018  0.14568942  1
  N  N15  1  0.86857315  0.62906982  0.64568942  1
loop_
_geom_bond_atom_site_label_1
_geom_bond_atom_site_label_2
_geom_bond_distance
_geom_bond_site_symmetry_2
Al0 N6 1.918092 1_555
Al0 N7 1.918092 1_555
Al0 N13 1.950147 1_555
Al0 N14 1.950147 1_555
Al1 N4 1.918092 1_555
Al1 N5 1.918092 1_555
Al1 N15 1.950147 1_555
Al1 N12 1.950147 1_555
Al2 N2 1.918092 1_555
Al2 N3 1.918092 1_555
Al2 N11 1.950147 1_555
Al2 N10 1.950147 1_555
Al3 N1 1.918092 1_555
Al3 N0 1.918092 1_555
Al3 N8 1.950147 1_555
Al3 N9 1.950147 1_555
Al4 N11 1.885569 1_554
Al4 N9 1.885569 1_555
Al4 N3 1.919896 1_554
Al4 N1 1.919896 1_555
Al5 N15 1.885569 1_555
Al5 N13 1.885569 1_555
Al5 N4 1.919896 1_555
Al5 N6 1.919896 1_555
Al6 N12 1.885569 1_554
Al6 N14 1.885569 1_555
Al6 N5 1.919896 1_554
Al6 N7 1.919896 1_555
Al7 N10 1.885569 1_555
Al7 N8 1.885569 1_555
Al7 N2 1.919896 1_555
Al7 N0 1.919896 1_555
N0 Sr5 2.576325 1_545
N0 Sr11 2.591404 1_555
N0 Sr9 2.773163 1_555
N0 Sr2 2.936301 1_555
N1 Sr4 2.576325 1_555
N1 Sr10 2.591404 1_555
N1 Sr8 2.773163 1_554
N1 Sr3 2.936301 1_555
N2 Sr7 2.576325 1_545
N2 Sr9 2.591404 1_455
N2 Sr11 2.773163 1_455
N2 Sr2 2.936301 1_455
N3 Sr6 2.576325 1_555
N3 Sr8 2.591404 1_455
N3 Sr10 2.773163 1_456
N3 Sr3 2.936301 1_456
N4 Sr9 2.576325 1_565
N4 Sr7 2.591404 1_555
N4 Sr5 2.773163 1_555
N4 Sr0 2.936301 1_555
N5 Sr8 2.576325 1_555
N5 Sr6 2.591404 1_555
N5 Sr4 2.773163 1_556
N5 Sr1 2.936301 1_556
N6 Sr11 2.576325 1_565
N6 Sr5 2.591404 1_655
N6 Sr7 2.773163 1_655
N6 Sr0 2.936301 1_655
N7 Sr10 2.576325 1_555
N7 Sr4 2.591404 1_655
N7 Sr6 2.773163 1_654
N7 Sr1 2.936301 1_655
N8 Sr10 2.509637 1_455
N8 Sr0 2.683067 1_555
N8 Sr2 2.704394 1_455
N9 Sr11 2.509637 1_455
N9 Sr1 2.683067 1_545
N9 Sr3 2.704394 1_455
N10 Sr8 2.509637 1_555
N10 Sr0 2.683067 1_555
N10 Sr2 2.704394 1_555
N11 Sr9 2.509637 1_555
N11 Sr1 2.683067 1_546
N11 Sr3 2.704394 1_556
N12 Sr7 2.509637 1_655
N12 Sr3 2.683067 1_566
N12 Sr1 2.704394 1_656
N13 Sr4 2.509637 1_555
N13 Sr2 2.683067 1_555
N13 Sr0 2.704394 1_555
N14 Sr5 2.509637 1_555
N14 Sr3 2.683067 1_565
N14 Sr1 2.704394 1_555
N15 Sr6 2.509637 1_655
N15 Sr2 2.683067 1_555
N15 Sr0 2.704394 1_655
