# generated using pymatgen
data_MgTi3Fe2Co(PO4)6
_symmetry_space_group_name_H-M   'P 1'
_cell_length_a   8.48452814
_cell_length_b   8.75259965
_cell_length_c   8.80909811
_cell_angle_alpha   60.15809259
_cell_angle_beta   59.86251203
_cell_angle_gamma   60.04697972
_symmetry_Int_Tables_number   1
_chemical_formula_structural   MgTi3Fe2Co(PO4)6
_chemical_formula_sum   'Mg1 Ti3 Fe2 Co1 P6 O24'
_cell_volume   462.80394659
_cell_formula_units_Z   1
loop_
 _symmetry_equiv_pos_site_id
 _symmetry_equiv_pos_as_xyz
  1  'x, y, z'
loop_
 _atom_site_type_symbol
 _atom_site_label
 _atom_site_symmetry_multiplicity
 _atom_site_fract_x
 _atom_site_fract_y
 _atom_site_fract_z
 _atom_site_occupancy
  Mg  Mg0  1  0.75175100  0.13799800  0.35707300  1
  Ti  Ti0  1  0.06768900  0.63970600  0.64947000  1
  Ti  Ti1  1  0.42773900  0.85270600  0.86141300  1
  Ti  Ti2  1  0.94275100  0.36304500  0.34644800  1
  Fe  Fe0  1  0.99857300  0.99850800  0.98816600  1
  Fe  Fe1  1  0.49070600  0.51752000  0.50008400  1
  Co  Co0  1  0.55276600  0.15168700  0.14773300  1
  P  P0  1  0.26916500  0.24483100  0.54644400  1
  P  P1  1  0.23571100  0.95587400  0.24979700  1
  P  P2  1  0.25743500  0.54403200  0.94942700  1
  P  P3  1  0.74759900  0.45834600  0.04460700  1
  P  P4  1  0.74933500  0.04071400  0.75188100  1
  P  P5  1  0.75286000  0.74233500  0.46590300  1
  O  O0  1  0.03466000  0.10512800  0.31286400  1
  O  O1  1  0.07426600  0.49588800  0.10748400  1
  O  O2  1  0.10842200  0.29865700  0.47828500  1
  O  O3  1  0.23682600  0.08579800  0.73751900  1
  O  O4  1  0.47137800  0.18625400  0.40323300  1
  O  O5  1  0.26783600  0.40714400  0.57631900  1
  O  O6  1  0.22220100  0.93441800  0.09053100  1
  O  O7  1  0.25924700  0.76042200  0.40806900  1
  O  O8  1  0.56470000  0.61150300  0.00639800  1
  O  O9  1  0.26693400  0.56958000  0.75631600  1
  O  O10  1  0.77711600  0.25568800  0.07161100  1
  O  O11  1  0.56390100  0.99669600  0.82805800  1
  O  O12  1  0.40250700  0.01198100  0.19541500  1
  O  O13  1  0.22606400  0.74020100  0.93915100  1
  O  O14  1  0.72356700  0.43361700  0.24525100  1
  O  O15  1  0.44082800  0.39462100  0.98117300  1
  O  O16  1  0.72563800  0.22675600  0.57803100  1
  O  O17  1  0.78346200  0.06141300  0.89522700  1
  O  O18  1  0.73044300  0.59708400  0.43167700  1
  O  O19  1  0.57255100  0.80648800  0.62286600  1
  O  O20  1  0.78409000  0.91570400  0.28645900  1
  O  O21  1  0.93374300  0.65456200  0.51927000  1
  O  O22  1  0.92826100  0.50424200  0.89319500  1
  O  O23  1  0.92289800  0.88457000  0.67714800  1
loop_
_geom_bond_atom_site_label_1
_geom_bond_atom_site_label_2
_geom_bond_distance
_geom_bond_site_symmetry_2
Mg0 O4 2.049117 1_555
Mg0 O0 2.116446 1_655
Mg0 O10 2.128599 1_555
Mg0 O20 2.178944 1_545
Mg0 O14 2.191904 1_555
Mg0 O16 2.311106 1_555
Fe0 O17 2.086350 1_565
Fe0 O13 2.190995 1_655
Fe0 O6 2.208995 1_656
Fe0 O3 2.219614 1_665
Fe0 O10 2.274665 1_566
Fe0 O20 2.315526 1_556
Fe1 O7 2.178938 1_555
Fe1 O18 2.179793 1_555
Fe1 O9 2.182560 1_555
Fe1 O5 2.205299 1_555
Fe1 O14 2.284800 1_555
Fe1 O16 2.343301 1_555
Co0 O12 1.950583 1_555
Co0 O15 1.963114 1_554
Co0 O4 2.131326 1_555
Co0 O10 2.177761 1_555
Co0 O17 2.288253 1_554
Co0 O20 2.336662 1_545
O0 P1 1.571774 1_545
O0 Ti2 2.113483 1_455
O1 P2 1.558404 1_554
O1 Ti2 1.878645 1_455
O2 P0 1.530238 1_555
O2 Ti2 1.959343 1_455
O3 P0 1.559447 1_555
O3 Ti1 2.058257 1_545
O4 P0 1.545918 1_555
O5 P0 1.562299 1_555
O5 Ti0 2.048702 1_555
O6 P1 1.569071 1_555
O6 Ti1 2.069558 1_554
O7 P1 1.573220 1_555
O7 Ti0 2.070785 1_555
O8 P3 1.522029 1_555
O8 Ti1 1.948238 1_554
O9 P2 1.565920 1_555
O9 Ti0 2.026592 1_555
O10 P3 1.569049 1_555
O11 P4 1.536851 1_565
O11 Ti1 1.937476 1_555
O12 P1 1.500830 1_545
O13 P2 1.562128 1_555
O13 Ti1 2.049718 1_555
O14 P3 1.585529 1_555
O14 Ti2 2.145749 1_555
O15 P2 1.500186 1_555
O16 P4 1.593035 1_555
O16 Ti2 2.230897 1_555
O17 P4 1.535711 1_555
O18 P5 1.556873 1_555
O18 Ti2 2.119551 1_555
O19 P5 1.535692 1_555
O19 Ti1 1.961156 1_555
O20 P5 1.570116 1_555
O21 P5 1.534350 1_555
O21 Ti0 1.907051 1_655
O22 P3 1.522704 1_556
O22 Ti0 1.931739 1_655
O23 P4 1.543361 1_565
O23 Ti0 1.937021 1_655
