# generated using pymatgen
data_PbS2
_symmetry_space_group_name_H-M   'P 1'
_cell_length_a   5.75964767
_cell_length_b   5.75964767
_cell_length_c   5.75964767
_cell_angle_alpha   98.05457125
_cell_angle_beta   115.46387250
_cell_angle_gamma   115.46387250
_symmetry_Int_Tables_number   1
_chemical_formula_structural   PbS2
_chemical_formula_sum   'Pb2 S4'
_cell_volume   142.83734106
_cell_formula_units_Z   2
loop_
 _symmetry_equiv_pos_site_id
 _symmetry_equiv_pos_as_xyz
  1  'x, y, z'
loop_
 _atom_site_type_symbol
 _atom_site_label
 _atom_site_symmetry_multiplicity
 _atom_site_fract_x
 _atom_site_fract_y
 _atom_site_fract_z
 _atom_site_occupancy
  Pb  Pb0  1  0.00000000  0.75000000  0.75000000  1
  Pb  Pb1  1  0.00000000  0.25000000  0.25000000  1
  S  S0  1  0.26193605  0.88096703  0.38096703  1
  S  S1  1  0.73806395  0.11903297  0.61903297  1
  S  S2  1  0.50000000  0.61903297  0.88096703  1
  S  S3  1  0.50000000  0.38096703  0.11903297  1
loop_
_geom_bond_atom_site_label_1
_geom_bond_atom_site_label_2
_geom_bond_distance
_geom_bond_site_symmetry_2
Pb0 S0 3.096908 1_556
Pb0 S1 3.096908 1_455
Pb0 S3 3.096909 1_566
Pb0 S2 3.096909 1_455
Pb0 S3 3.096909 1_455
Pb0 S2 3.096909 1_555
Pb0 S1 3.096917 1_465
Pb0 S0 3.096917 1_555
Pb1 S1 3.096908 1_454
Pb1 S0 3.096908 1_555
Pb1 S3 3.096909 1_455
Pb1 S2 3.096909 1_555
Pb1 S3 3.096909 1_555
Pb1 S2 3.096909 1_444
Pb1 S0 3.096917 1_545
Pb1 S1 3.096917 1_455
S0 S1 2.070518 1_565
S2 S3 2.070536 1_556
