# generated using pymatgen
data_BaLa2Sc2O7
_symmetry_space_group_name_H-M   'P 1'
_cell_length_a   5.89305200
_cell_length_b   5.89305200
_cell_length_c   20.80108900
_cell_angle_alpha   90.00000000
_cell_angle_beta   90.00000000
_cell_angle_gamma   90.00000000
_symmetry_Int_Tables_number   1
_chemical_formula_structural   BaLa2Sc2O7
_chemical_formula_sum   'Ba4 La8 Sc8 O28'
_cell_volume   722.38150585
_cell_formula_units_Z   4
loop_
 _symmetry_equiv_pos_site_id
 _symmetry_equiv_pos_as_xyz
  1  'x, y, z'
loop_
 _atom_site_type_symbol
 _atom_site_label
 _atom_site_symmetry_multiplicity
 _atom_site_fract_x
 _atom_site_fract_y
 _atom_site_fract_z
 _atom_site_occupancy
  Ba  Ba0  1  0.24076900  0.75923100  0.50000000  1
  Ba  Ba1  1  0.75923100  0.24076900  0.50000000  1
  Ba  Ba2  1  0.25923100  0.25923100  0.00000000  1
  Ba  Ba3  1  0.74076900  0.74076900  0.00000000  1
  La  La0  1  0.22679900  0.77320100  0.31620600  1
  La  La1  1  0.77320100  0.22679900  0.31620600  1
  La  La2  1  0.27320100  0.27320100  0.81620600  1
  La  La3  1  0.72679900  0.72679900  0.81620600  1
  La  La4  1  0.77320100  0.22679900  0.68379400  1
  La  La5  1  0.22679900  0.77320100  0.68379400  1
  La  La6  1  0.72679900  0.72679900  0.18379400  1
  La  La7  1  0.27320100  0.27320100  0.18379400  1
  Sc  Sc0  1  0.24280900  0.75719100  0.09953600  1
  Sc  Sc1  1  0.75719100  0.24280900  0.09953600  1
  Sc  Sc2  1  0.25719100  0.25719100  0.59953600  1
  Sc  Sc3  1  0.74280900  0.74280900  0.59953600  1
  Sc  Sc4  1  0.75719100  0.24280900  0.90046400  1
  Sc  Sc5  1  0.24280900  0.75719100  0.90046400  1
  Sc  Sc6  1  0.74280900  0.74280900  0.40046400  1
  Sc  Sc7  1  0.25719100  0.25719100  0.40046400  1
  O  O0  1  0.28333800  0.28333800  0.50000000  1
  O  O1  1  0.71666200  0.71666200  0.50000000  1
  O  O2  1  0.21666200  0.78333800  0.00000000  1
  O  O3  1  0.78333800  0.21666200  0.00000000  1
  O  O4  1  0.30741900  0.69258100  0.20848600  1
  O  O5  1  0.69258100  0.30741900  0.20848600  1
  O  O6  1  0.19258100  0.19258100  0.70848600  1
  O  O7  1  0.80741900  0.80741900  0.70848600  1
  O  O8  1  0.69258100  0.30741900  0.79151400  1
  O  O9  1  0.30741900  0.69258100  0.79151400  1
  O  O10  1  0.80741900  0.80741900  0.29151400  1
  O  O11  1  0.19258100  0.19258100  0.29151400  1
  O  O12  1  0.00000000  0.50000000  0.38965800  1
  O  O13  1  0.50000000  0.00000000  0.88965800  1
  O  O14  1  0.00000000  0.50000000  0.61034200  1
  O  O15  1  0.50000000  0.00000000  0.11034200  1
  O  O16  1  0.50000000  0.00000000  0.38965800  1
  O  O17  1  0.00000000  0.50000000  0.88965800  1
  O  O18  1  0.50000000  0.00000000  0.61034200  1
  O  O19  1  0.00000000  0.50000000  0.11034200  1
  O  O20  1  0.50000000  0.50000000  0.37412100  1
  O  O21  1  0.00000000  0.00000000  0.87412100  1
  O  O22  1  0.50000000  0.50000000  0.62587900  1
  O  O23  1  0.00000000  0.00000000  0.12587900  1
  O  O24  1  0.50000000  0.50000000  0.09463800  1
  O  O25  1  0.00000000  0.00000000  0.59463800  1
  O  O26  1  0.50000000  0.50000000  0.90536200  1
  O  O27  1  0.00000000  0.00000000  0.40536200  1
loop_
_geom_bond_atom_site_label_1
_geom_bond_atom_site_label_2
_geom_bond_distance
_geom_bond_site_symmetry_2
Ba0 O27 2.810984 1_565
Ba0 O25 2.810984 1_565
Ba0 O1 2.815660 1_555
Ba0 O0 2.815660 1_555
Ba0 O1 3.098761 1_455
Ba0 O0 3.098761 1_565
Ba0 O16 3.100810 1_565
Ba0 O12 3.100810 1_555
Ba0 O14 3.100810 1_555
Ba0 O18 3.100810 1_565
Ba0 O22 3.394647 1_555
Ba0 O20 3.394647 1_555
Ba1 O27 2.810984 1_655
Ba1 O25 2.810984 1_655
Ba1 O1 2.815660 1_555
Ba1 O0 2.815660 1_555
Ba1 O1 3.098761 1_545
Ba1 O0 3.098761 1_655
Ba1 O16 3.100810 1_555
Ba1 O12 3.100810 1_655
Ba1 O18 3.100810 1_555
Ba1 O14 3.100810 1_655
Ba1 O22 3.394647 1_555
Ba1 O20 3.394647 1_555
Ba2 O24 2.810984 1_555
Ba2 O26 2.810984 1_554
Ba2 O3 2.815660 1_455
Ba2 O2 2.815660 1_545
Ba2 O3 3.098761 1_555
Ba2 O2 3.098761 1_555
Ba2 O19 3.100810 1_555
Ba2 O15 3.100810 1_555
Ba2 O13 3.100810 1_554
Ba2 O17 3.100810 1_554
Ba2 O23 3.394647 1_555
Ba2 O21 3.394647 1_554
Ba3 O26 2.810984 1_554
Ba3 O24 2.810984 1_555
Ba3 O3 2.815660 1_565
Ba3 O2 2.815660 1_655
Ba3 O3 3.098761 1_555
Ba3 O2 3.098761 1_555
Ba3 O19 3.100810 1_655
Ba3 O15 3.100810 1_565
Ba3 O13 3.100810 1_564
Ba3 O17 3.100810 1_654
Ba3 O23 3.394647 1_665
Ba3 O21 3.394647 1_664
La0 O4 2.339261 1_555
La0 O10 2.532277 1_455
La0 O11 2.532277 1_565
La0 O20 2.575929 1_555
La0 O12 2.590910 1_555
La0 O16 2.590910 1_565
La0 O27 2.648017 1_565
La1 O5 2.339261 1_555
La1 O10 2.532277 1_545
La1 O11 2.532277 1_655
La1 O20 2.575929 1_555
La1 O16 2.590910 1_555
La1 O12 2.590910 1_655
La1 O27 2.648017 1_655
La2 O6 2.339261 1_555
La2 O8 2.532277 1_555
La2 O9 2.532277 1_555
La2 O21 2.575929 1_555
La2 O17 2.590910 1_555
La2 O13 2.590910 1_555
La2 O26 2.648017 1_555
La3 O7 2.339261 1_555
La3 O8 2.532277 1_555
La3 O9 2.532277 1_555
La3 O21 2.575929 1_665
La3 O13 2.590910 1_565
La3 O17 2.590910 1_655
La3 O26 2.648017 1_555
La4 O8 2.339261 1_555
La4 O7 2.532277 1_545
La4 O6 2.532277 1_655
La4 O22 2.575929 1_555
La4 O18 2.590910 1_555
La4 O14 2.590910 1_655
La4 O25 2.648017 1_655
La5 O9 2.339261 1_555
La5 O7 2.532277 1_455
La5 O6 2.532277 1_565
La5 O22 2.575929 1_555
La5 O14 2.590910 1_555
La5 O18 2.590910 1_565
La5 O25 2.648017 1_565
La6 O10 2.339261 1_555
La6 O5 2.532277 1_555
La6 O4 2.532277 1_555
La6 O23 2.575929 1_665
La6 O15 2.590910 1_565
La6 O19 2.590910 1_655
La6 O24 2.648017 1_555
La7 O11 2.339261 1_555
La7 O5 2.532277 1_555
La7 O4 2.532277 1_555
La7 O23 2.575929 1_555
La7 O15 2.590910 1_555
La7 O19 2.590910 1_555
La7 O24 2.648017 1_555
O0 Sc2 2.081893 1_555
O0 Sc7 2.081893 1_555
O1 Sc3 2.081893 1_555
O1 Sc6 2.081893 1_555
O2 Sc5 2.081893 1_554
O2 Sc0 2.081893 1_555
O3 Sc4 2.081893 1_554
O3 Sc1 2.081893 1_555
O4 Sc0 2.329369 1_555
O5 Sc1 2.329369 1_555
O6 Sc2 2.329369 1_555
O7 Sc3 2.329369 1_555
O8 Sc4 2.329369 1_555
O9 Sc5 2.329369 1_555
O10 Sc6 2.329369 1_555
O11 Sc7 2.329369 1_555
O12 Sc6 2.096455 1_455
O12 Sc7 2.096455 1_555
O13 Sc4 2.096455 1_555
O13 Sc5 2.096455 1_545
O14 Sc3 2.096455 1_455
O14 Sc2 2.096455 1_555
O15 Sc1 2.096455 1_555
O15 Sc0 2.096455 1_545
O16 Sc7 2.096455 1_555
O16 Sc6 2.096455 1_545
O17 Sc5 2.096455 1_555
O17 Sc4 2.096455 1_455
O18 Sc3 2.096455 1_545
O18 Sc2 2.096455 1_555
O19 Sc0 2.096455 1_555
O19 Sc1 2.096455 1_455
O20 Sc7 2.096457 1_555
O20 Sc6 2.096457 1_555
O21 Sc4 2.096457 1_455
O21 Sc5 2.096457 1_545
O22 Sc2 2.096457 1_555
O22 Sc3 2.096457 1_555
O23 Sc1 2.096457 1_455
O23 Sc0 2.096457 1_545
O24 Sc0 2.145859 1_555
O24 Sc1 2.145859 1_555
O25 Sc3 2.145859 1_445
O25 Sc2 2.145859 1_555
O26 Sc5 2.145859 1_555
O26 Sc4 2.145859 1_555
O27 Sc6 2.145859 1_445
O27 Sc7 2.145859 1_555
