# generated using pymatgen
data_HoAl3Cu
_symmetry_space_group_name_H-M   'P 1'
_cell_length_a   4.09663373
_cell_length_b   4.09661003
_cell_length_c   6.04686474
_cell_angle_alpha   70.23384906
_cell_angle_beta   70.23457676
_cell_angle_gamma   90.04531084
_symmetry_Int_Tables_number   1
_chemical_formula_structural   HoAl3Cu
_chemical_formula_sum   'Ho1 Al3 Cu1'
_cell_volume   89.11180377
_cell_formula_units_Z   1
loop_
 _symmetry_equiv_pos_site_id
 _symmetry_equiv_pos_as_xyz
  1  'x, y, z'
loop_
 _atom_site_type_symbol
 _atom_site_label
 _atom_site_symmetry_multiplicity
 _atom_site_fract_x
 _atom_site_fract_y
 _atom_site_fract_z
 _atom_site_occupancy
  Ho  Ho0  1  0.99542883  0.99541962  0.00961116  1
  Al  Al0  1  0.40149398  0.40148094  0.19734751  1
  Al  Al1  1  0.74210195  0.24178768  0.51628069  1
  Al  Al2  1  0.24176249  0.74210011  0.51626101  1
  Cu  Cu0  1  0.61921276  0.61921165  0.76049863  1
loop_
_geom_bond_atom_site_label_1
_geom_bond_atom_site_label_2
_geom_bond_distance
_geom_bond_site_symmetry_2
Al0 Cu0 2.319611 1_554
Al0 Al2 2.657465 1_555
Al0 Al1 2.657515 1_555
Al0 Al2 2.657841 1_545
Al0 Al1 2.657942 1_455
Al0 Ho0 3.061567 1_445
Al0 Ho0 3.063215 1_555
Al0 Ho0 3.064557 1_455
Al0 Ho0 3.064557 1_545
Al1 Cu0 2.422312 1_555
Al1 Cu0 2.426261 1_545
Al1 Ho0 3.324703 1_546
Al1 Ho0 3.325855 1_446
Al1 Ho0 3.380077 1_545
Al1 Ho0 3.382623 1_555
Al2 Cu0 2.422486 1_555
Al2 Cu0 2.426219 1_455
Al2 Ho0 3.324810 1_456
Al2 Ho0 3.325899 1_446
Al2 Ho0 3.379866 1_455
Al2 Ho0 3.382683 1_555
Cu0 Ho0 3.179952 1_446
Cu0 Ho0 3.185504 1_456
Cu0 Ho0 3.185520 1_546
Cu0 Ho0 3.186900 1_556
