# generated using pymatgen
data_NaCa2SiO4F
_symmetry_space_group_name_H-M   'P 1'
_cell_length_a   7.79583711
_cell_length_b   9.34365096
_cell_length_c   7.36401813
_cell_angle_alpha   97.76286290
_cell_angle_beta   89.29449446
_cell_angle_gamma   85.22781262
_symmetry_Int_Tables_number   1
_chemical_formula_structural   NaCa2SiO4F
_chemical_formula_sum   'Na4 Ca8 Si4 O16 F4'
_cell_volume   529.49771797
_cell_formula_units_Z   4
loop_
 _symmetry_equiv_pos_site_id
 _symmetry_equiv_pos_as_xyz
  1  'x, y, z'
loop_
 _atom_site_type_symbol
 _atom_site_label
 _atom_site_symmetry_multiplicity
 _atom_site_fract_x
 _atom_site_fract_y
 _atom_site_fract_z
 _atom_site_occupancy
  Na  Na0  1  0.18066800  0.46127400  0.40361800  1
  Na  Na1  1  0.97413200  0.01840800  0.56655500  1
  Na  Na2  1  0.44615900  0.52932400  0.09152800  1
  Na  Na3  1  0.95870400  0.93777600  0.03071100  1
  Ca  Ca0  1  0.97164100  0.53500300  0.08581500  1
  Ca  Ca1  1  0.50162900  0.43368200  0.68117500  1
  Ca  Ca2  1  0.56654300  0.93766800  0.00239000  1
  Ca  Ca3  1  0.69514900  0.27071400  0.23928600  1
  Ca  Ca4  1  0.27747900  0.81401700  0.74809200  1
  Ca  Ca5  1  0.44121800  0.08251400  0.53300400  1
  Ca  Ca6  1  0.80059700  0.66241100  0.68393500  1
  Ca  Ca7  1  0.26078100  0.15935300  0.06822100  1
  Si  Si0  1  0.69747100  0.74306100  0.28628800  1
  Si  Si1  1  0.78560400  0.23949500  0.83082400  1
  Si  Si2  1  0.27084600  0.80507800  0.26362200  1
  Si  Si3  1  0.13837600  0.35605500  0.76202500  1
  O  O0  1  0.69502500  0.22334600  0.62780900  1
  O  O1  1  0.00101700  0.23065500  0.78775800  1
  O  O2  1  0.76675500  0.10918100  0.95459700  1
  O  O3  1  0.71385500  0.39505200  0.95331800  1
  O  O4  1  0.49549600  0.11601800  0.23419600  1
  O  O5  1  0.78304700  0.60311500  0.36714100  1
  O  O6  1  0.49104300  0.75983900  0.24909800  1
  O  O7  1  0.79627800  0.76854300  0.10036600  1
  O  O8  1  0.25097100  0.38091900  0.94919900  1
  O  O9  1  0.38279900  0.02622900  0.81335600  1
  O  O10  1  0.02674800  0.51102600  0.74631500  1
  O  O11  1  0.52175000  0.66985300  0.76910000  1
  O  O12  1  0.26787000  0.30104900  0.58832300  1
  O  O13  1  0.23295300  0.89587500  0.09056200  1
  O  O14  1  0.18513700  0.65114400  0.23944700  1
  O  O15  1  0.23605400  0.90396300  0.46207000  1
  F  F0  1  0.97619100  0.83876500  0.74202800  1
  F  F1  1  0.48713600  0.43698300  0.36842900  1
  F  F2  1  0.72094100  0.88371800  0.45299700  1
  F  F3  1  0.00193500  0.30889600  0.22680100  1
loop_
_geom_bond_atom_site_label_1
_geom_bond_atom_site_label_2
_geom_bond_distance
_geom_bond_site_symmetry_2
Na0 O12 2.226434 1_555
Na0 O14 2.280089 1_555
Na0 O10 2.745966 1_555
Na1 O15 2.297954 1_645
Na1 O1 2.415613 1_655
Na1 O0 2.766559 1_555
Na2 O8 2.309651 1_554
Na2 O6 2.359695 1_555
Na2 O14 2.418256 1_555
Na2 O3 2.476326 1_554
Na2 O11 2.940325 1_554
Na3 O13 2.202073 1_655
Na3 O7 2.214300 1_555
Na3 O2 2.232206 1_564
Ca0 O14 2.289751 1_655
Ca0 O7 2.465551 1_555
Ca0 F3 2.472367 1_655
Ca0 O5 2.504332 1_555
Ca0 O10 2.508266 1_654
Ca0 O3 2.615637 1_554
Ca0 O8 2.619158 1_654
Ca1 O11 2.233264 1_555
Ca1 F1 2.311461 1_555
Ca1 O12 2.345598 1_555
Ca1 O0 2.360873 1_555
Ca1 O3 2.657361 1_555
Ca1 O8 2.878422 1_555
Ca2 O9 2.199426 1_564
Ca2 O4 2.247753 1_565
Ca2 O2 2.383956 1_564
Ca2 O7 2.468653 1_555
Ca2 O6 2.712887 1_555
Ca2 O13 2.744660 1_555
Ca2 O11 2.886862 1_554
Ca3 O4 2.207797 1_555
Ca3 F1 2.256409 1_555
Ca3 O2 2.441505 1_554
Ca3 F3 2.449725 1_655
Ca3 O3 2.547005 1_554
Ca3 O0 2.953610 1_555
Ca4 O9 2.204521 1_565
Ca4 O11 2.258646 1_555
Ca4 F0 2.342497 1_455
Ca4 O15 2.386792 1_555
Ca4 O13 2.545373 1_556
Ca5 O9 2.248606 1_555
Ca5 O4 2.303070 1_555
Ca5 O12 2.337568 1_555
Ca5 O15 2.417321 1_545
Ca5 O0 2.520521 1_555
Ca5 F2 2.747991 1_545
Ca6 F0 2.229669 1_555
Ca6 O11 2.247946 1_555
Ca6 O10 2.258458 1_655
Ca6 O5 2.332231 1_555
Ca7 O4 2.251996 1_555
Ca7 O9 2.258990 1_554
Ca7 O8 2.350624 1_554
Ca7 O13 2.516390 1_545
Ca7 F3 2.533798 1_555
O0 Si1 1.655062 1_555
O1 Si3 1.679047 1_555
O1 Si1 1.698311 1_455
O2 Si1 1.631324 1_555
O3 Si1 1.654462 1_555
O5 Si0 1.607597 1_555
O6 Si0 1.633963 1_555
O6 Si2 1.731886 1_555
O7 Si0 1.617763 1_555
O8 Si3 1.643634 1_555
O10 Si3 1.644825 1_555
O12 Si3 1.619799 1_555
O13 Si2 1.640364 1_555
O14 Si2 1.624972 1_555
O15 Si2 1.626850 1_555
F0 Na3 2.198712 1_556
F0 Na1 2.251534 1_565
F1 Na2 2.334498 1_555
F1 Na0 2.388610 1_555
F2 Si0 1.696328 1_555
F2 Na1 2.519684 1_565
F3 Na0 2.353290 1_555
