# generated using pymatgen
data_Li3MnV(PO4)3
_symmetry_space_group_name_H-M   'P 1'
_cell_length_a   8.92070946
_cell_length_b   8.42093348
_cell_length_c   14.77209028
_cell_angle_alpha   89.64367789
_cell_angle_beta   74.69287881
_cell_angle_gamma   62.91701432
_symmetry_Int_Tables_number   1
_chemical_formula_structural   Li3MnV(PO4)3
_chemical_formula_sum   'Li12 Mn4 V4 P12 O48'
_cell_volume   944.53024449
_cell_formula_units_Z   4
loop_
 _symmetry_equiv_pos_site_id
 _symmetry_equiv_pos_as_xyz
  1  'x, y, z'
loop_
 _atom_site_type_symbol
 _atom_site_label
 _atom_site_symmetry_multiplicity
 _atom_site_fract_x
 _atom_site_fract_y
 _atom_site_fract_z
 _atom_site_occupancy
  Li  Li0  1  0.14805500  0.25425900  0.33132300  1
  Li  Li1  1  0.14719500  0.79829600  0.13552600  1
  Li  Li2  1  0.15118000  0.29484500  0.63265000  1
  Li  Li3  1  0.14937100  0.72703300  0.46274500  1
  Li  Li4  1  0.14702200  0.22458200  0.96181200  1
  Li  Li5  1  0.15004600  0.75658800  0.83350900  1
  Li  Li6  1  0.84706000  0.24890300  0.16910900  1
  Li  Li7  1  0.85514900  0.77474700  0.03877600  1
  Li  Li8  1  0.85069000  0.27704600  0.53768200  1
  Li  Li9  1  0.85215100  0.69807000  0.36434000  1
  Li  Li10  1  0.85290900  0.20185300  0.86776600  1
  Li  Li11  1  0.85171300  0.74150200  0.66523600  1
  Mn  Mn0  1  0.56012800  0.21835800  0.07793200  1
  Mn  Mn1  1  0.43718700  0.28344500  0.42406200  1
  Mn  Mn2  1  0.56051600  0.71977800  0.57439900  1
  Mn  Mn3  1  0.95645500  0.52064700  0.17428100  1
  V  V0  1  0.04318100  0.97779700  0.32517200  1
  V  V1  1  0.05046200  0.47603300  0.82554300  1
  V  V2  1  0.44284200  0.77944400  0.92514900  1
  V  V3  1  0.95235500  0.02395500  0.67382300  1
  P  P0  1  0.25095100  0.08317700  0.12309800  1
  P  P1  1  0.24998300  0.02386600  0.47975100  1
  P  P2  1  0.24924300  0.52316000  0.27476300  1
  P  P3  1  0.25221800  0.02050900  0.77022500  1
  P  P4  1  0.24861200  0.58838600  0.62769600  1
  P  P5  1  0.25589800  0.51963700  0.98037800  1
  P  P6  1  0.74868700  0.47915100  0.01772000  1
  P  P7  1  0.74768400  0.41218400  0.37523000  1
  P  P8  1  0.74820400  0.97888000  0.22853400  1
  P  P9  1  0.75066400  0.47733900  0.73126900  1
  P  P10  1  0.74469300  0.98031600  0.51884900  1
  P  P11  1  0.75571100  0.91238600  0.87181200  1
  O  O0  1  0.09851900  0.25149900  0.10102300  1
  O  O1  1  0.19678300  0.06407300  0.22970300  1
  O  O2  1  0.10241500  0.62551900  0.07154200  1
  O  O3  1  0.09732000  0.11832900  0.57682800  1
  O  O4  1  0.09473800  0.48049300  0.27672300  1
  O  O5  1  0.42473200  0.09109900  0.09621800  1
  O  O6  1  0.26545000  0.18452500  0.43249300  1
  O  O7  1  0.18926700  0.72428600  0.25813600  1
  O  O8  1  0.19328000  0.22108800  0.75578100  1
  O  O9  1  0.26720400  0.50301300  0.37725300  1
  O  O10  1  0.41642600  0.40113900  0.19944600  1
  O  O11  1  0.09779400  0.76525400  0.60623400  1
  O  O12  1  0.27519000  0.92040300  0.05880300  1
  O  O13  1  0.25809600  0.43251700  0.56980100  1
  O  O14  1  0.58023400  0.10513600  0.30181100  1
  O  O15  1  0.19556300  0.57430600  0.73568100  1
  O  O16  1  0.18758100  0.93265200  0.41770800  1
  O  O17  1  0.19665800  0.42593300  0.91698600  1
  O  O18  1  0.73507100  0.00456700  0.12463000  1
  O  O19  1  0.57681900  0.61202000  0.99668800  1
  O  O20  1  0.57466400  0.11697600  0.50273900  1
  O  O21  1  0.09646600  0.97836700  0.76919300  1
  O  O22  1  0.72788900  0.32325700  0.06635200  1
  O  O23  1  0.57191700  0.40757500  0.40812000  1
  O  O24  1  0.42345700  0.59499900  0.59872800  1
  O  O25  1  0.28413100  0.67225800  0.92772500  1
  O  O26  1  0.90481300  0.02177300  0.22865200  1
  O  O27  1  0.41965900  0.88780800  0.49595200  1
  O  O28  1  0.42442900  0.38206800  0.99861700  1
  O  O29  1  0.26834000  0.99388500  0.87306700  1
  O  O30  1  0.79952600  0.58047700  0.07876300  1
  O  O31  1  0.80560000  0.07112900  0.58298900  1
  O  O32  1  0.79771400  0.42680900  0.26937100  1
  O  O33  1  0.42009500  0.89621400  0.69637100  1
  O  O34  1  0.73670900  0.56732200  0.43674300  1
  O  O35  1  0.74021300  0.06894100  0.93130700  1
  O  O36  1  0.90019100  0.23488200  0.39596500  1
  O  O37  1  0.58202500  0.60944000  0.80646800  1
  O  O38  1  0.73534000  0.49876600  0.62988600  1
  O  O39  1  0.80565700  0.78215100  0.24420800  1
  O  O40  1  0.80481300  0.27912700  0.74902600  1
  O  O41  1  0.72604100  0.82148400  0.56787700  1
  O  O42  1  0.58098100  0.89890900  0.90064800  1
  O  O43  1  0.90417500  0.52175500  0.73332400  1
  O  O44  1  0.89773800  0.88363000  0.42397500  1
  O  O45  1  0.90148900  0.38279400  0.92184900  1
  O  O46  1  0.80419200  0.92654300  0.76452900  1
  O  O47  1  0.90438300  0.73663600  0.89390600  1
loop_
_geom_bond_atom_site_label_1
_geom_bond_atom_site_label_2
_geom_bond_distance
_geom_bond_site_symmetry_2
Li0 O4 1.965839 1_555
Li0 O6 1.982558 1_555
Li0 O1 2.014643 1_555
Li0 O36 2.244843 1_455
Li1 O2 1.978756 1_555
Li1 O7 1.985353 1_555
Li1 O12 2.004207 1_555
Li1 O26 2.205841 1_465
Li2 O13 1.908291 1_555
Li2 O8 1.992346 1_555
Li2 O3 1.998760 1_555
Li2 O43 2.278031 1_455
Li3 O9 1.944654 1_555
Li3 O16 1.990040 1_555
Li3 O11 2.041287 1_555
Li3 O44 2.253849 1_455
Li4 O0 1.978441 1_556
Li4 O17 2.006072 1_555
Li4 O29 2.007992 1_545
Li4 O45 2.221891 1_455
Li5 O15 1.938990 1_555
Li5 O25 1.991297 1_555
Li5 O21 2.005959 1_555
Li5 O47 2.219894 1_455
Li6 O32 1.927342 1_555
Li6 O26 2.004588 1_555
Li6 O22 2.015048 1_555
Li6 O0 2.212948 1_655
Li7 O30 1.960557 1_555
Li7 O18 1.981630 1_565
Li7 O47 2.063873 1_554
Li7 O2 2.170506 1_655
Li8 O38 1.985513 1_555
Li8 O36 2.020399 1_555
Li8 O31 2.023624 1_555
Li8 O3 2.223920 1_655
Li9 O34 1.962896 1_555
Li9 O39 1.981954 1_555
Li9 O44 2.041567 1_555
Li9 O4 2.157673 1_655
Li10 O35 1.912511 1_555
Li10 O40 1.952716 1_555
Li10 O45 1.986686 1_555
Li10 O21 2.241243 1_645
Li11 O46 1.964128 1_555
Li11 O41 1.982566 1_555
Li11 O43 2.022804 1_555
Li11 O11 2.237426 1_655
Mn0 O5 1.919103 1_555
Mn0 O28 1.986920 1_554
Mn0 O22 2.028770 1_555
Mn0 O18 2.036461 1_555
Mn0 O10 2.063320 1_555
Mn0 O35 2.282870 1_554
Mn1 O23 1.893166 1_555
Mn1 O20 1.996694 1_555
Mn1 O6 2.028908 1_555
Mn1 O9 2.044732 1_555
Mn1 O14 2.053424 1_555
Mn1 O13 2.270362 1_555
Mn2 O24 1.913445 1_555
Mn2 O41 1.999639 1_555
Mn2 O27 2.013301 1_555
Mn2 O33 2.042052 1_555
Mn2 O38 2.140296 1_555
Mn2 O34 2.182017 1_555
Mn3 O39 2.079222 1_555
Mn3 O4 2.127330 1_655
Mn3 O32 2.134877 1_555
Mn3 O30 2.143917 1_555
Mn3 O0 2.145941 1_655
Mn3 O2 2.183028 1_655
O0 P0 1.561358 1_555
O1 P0 1.550859 1_555
O1 V0 2.065845 1_545
O2 P5 1.553383 1_554
O3 P1 1.593898 1_555
O3 V3 2.073697 1_455
O4 P2 1.568232 1_555
O5 P0 1.527816 1_555
O6 P1 1.563357 1_555
O7 P2 1.566586 1_555
O7 V0 2.011963 1_555
O8 P3 1.555959 1_555
O8 V1 2.034202 1_555
O9 P2 1.564211 1_555
O10 P2 1.503550 1_555
O11 P4 1.588597 1_555
O11 V3 2.048294 1_465
O12 P0 1.570206 1_565
O12 V2 2.097003 1_554
O13 P4 1.528411 1_555
O14 P8 1.501549 1_545
O15 P4 1.559720 1_555
O15 V1 2.043757 1_555
O16 P1 1.551554 1_565
O16 V0 2.037090 1_555
O17 P5 1.558523 1_555
O17 V1 2.031152 1_555
O18 P8 1.576105 1_545
O19 P6 1.544095 1_556
O19 V2 1.909699 1_555
O20 P10 1.509762 1_545
O21 P3 1.586466 1_565
O21 V3 2.070017 1_465
O22 P6 1.553565 1_555
O23 P7 1.532657 1_555
O24 P4 1.531471 1_555
O25 P5 1.580836 1_555
O25 V2 1.988827 1_555
O26 P8 1.594689 1_545
O26 V0 2.049409 1_645
O27 P1 1.506585 1_565
O28 P5 1.516242 1_555
O29 P3 1.568647 1_565
O29 V2 2.081224 1_555
O30 P6 1.524699 1_555
O31 P10 1.561059 1_545
O31 V3 2.029644 1_555
O32 P7 1.529334 1_555
O33 P3 1.500931 1_565
O34 P7 1.547031 1_555
O35 P11 1.521128 1_545
O36 P7 1.593313 1_555
O36 V0 2.053493 1_645
O37 P9 1.530954 1_555
O37 V2 1.981935 1_555
O38 P9 1.541570 1_555
O39 P8 1.531506 1_555
O40 P9 1.554166 1_555
O40 V3 2.065473 1_555
O41 P10 1.571028 1_555
O42 P11 1.560075 1_555
O42 V2 1.884253 1_555
O43 P9 1.582601 1_555
O43 V1 2.044892 1_655
O44 P10 1.575691 1_555
O44 V0 2.089263 1_655
O45 P6 1.584309 1_556
O45 V1 2.084341 1_655
O46 P11 1.547755 1_555
O46 V3 2.062454 1_565
O47 P11 1.578314 1_555
O47 V1 2.064622 1_655
