# generated using pymatgen
data_SrClO
_symmetry_space_group_name_H-M   'P 1'
_cell_length_a   4.27242064
_cell_length_b   4.27242064
_cell_length_c   9.65073700
_cell_angle_alpha   90.00000000
_cell_angle_beta   90.00000000
_cell_angle_gamma   120.00000998
_symmetry_Int_Tables_number   1
_chemical_formula_structural   SrClO
_chemical_formula_sum   'Sr2 Cl2 O2'
_cell_volume   152.55943736
_cell_formula_units_Z   2
loop_
 _symmetry_equiv_pos_site_id
 _symmetry_equiv_pos_as_xyz
  1  'x, y, z'
loop_
 _atom_site_type_symbol
 _atom_site_label
 _atom_site_symmetry_multiplicity
 _atom_site_fract_x
 _atom_site_fract_y
 _atom_site_fract_z
 _atom_site_occupancy
  Sr  Sr0  1  0.66666700  0.33333300  0.43912800  1
  Sr  Sr1  1  0.33333300  0.66666700  0.93912800  1
  Cl  Cl0  1  0.66666700  0.33333300  0.74915000  1
  Cl  Cl1  1  0.33333300  0.66666700  0.24915000  1
  O  O0  1  0.00000000  0.00000000  0.98453300  1
  O  O1  1  0.00000000  0.00000000  0.48453300  1
loop_
_geom_bond_atom_site_label_1
_geom_bond_atom_site_label_2
_geom_bond_distance
_geom_bond_site_symmetry_2
Cl0 Sr0 2.991941 1_555
Cl0 Sr1 3.073430 1_545
Cl0 Sr1 3.073430 1_655
Cl0 Sr1 3.073436 1_555
Cl1 Sr1 2.991941 1_554
Cl1 Sr0 3.073430 1_455
Cl1 Sr0 3.073430 1_565
Cl1 Sr0 3.073436 1_555
O0 Sr1 2.505300 1_545
O0 Sr1 2.505303 1_445
O0 Sr1 2.505303 1_555
O1 Sr0 2.505300 1_455
O1 Sr0 2.505303 1_445
O1 Sr0 2.505303 1_555
