# generated using pymatgen
data_DyAg(WO4)2
_symmetry_space_group_name_H-M   'P 1'
_cell_length_a   7.39152572
_cell_length_b   7.39152572
_cell_length_c   7.33607771
_cell_angle_alpha   65.85628883
_cell_angle_beta   65.85628883
_cell_angle_gamma   94.17584625
_symmetry_Int_Tables_number   1
_chemical_formula_structural   DyAg(WO4)2
_chemical_formula_sum   'Dy2 Ag2 W4 O16'
_cell_volume   319.57094829
_cell_formula_units_Z   2
loop_
 _symmetry_equiv_pos_site_id
 _symmetry_equiv_pos_as_xyz
  1  'x, y, z'
loop_
 _atom_site_type_symbol
 _atom_site_label
 _atom_site_symmetry_multiplicity
 _atom_site_fract_x
 _atom_site_fract_y
 _atom_site_fract_z
 _atom_site_occupancy
  Dy  Dy0  1  0.69829600  0.30170400  0.00000000  1
  Dy  Dy1  1  0.30170400  0.69829600  0.00000000  1
  Ag  Ag0  1  0.68364800  0.68364800  0.48201600  1
  Ag  Ag1  1  0.31635200  0.31635200  0.51798400  1
  W  W0  1  0.21117000  0.21117000  0.03304600  1
  W  W1  1  0.78883000  0.78883000  0.96695400  1
  W  W2  1  0.83533700  0.16466300  0.50000000  1
  W  W3  1  0.16466300  0.83533700  0.50000000  1
  O  O0  1  0.35337200  0.10199400  0.24453500  1
  O  O1  1  0.64662800  0.89800600  0.75546500  1
  O  O2  1  0.89800600  0.64662800  0.75546500  1
  O  O3  1  0.10199400  0.35337200  0.24453500  1
  O  O4  1  0.68572800  0.21951300  0.35019900  1
  O  O5  1  0.31427200  0.78048700  0.64980100  1
  O  O6  1  0.78048700  0.31427200  0.64980100  1
  O  O7  1  0.21951300  0.68572800  0.35019900  1
  O  O8  1  0.69915100  0.96025700  0.08413700  1
  O  O9  1  0.30084900  0.03974300  0.91586300  1
  O  O10  1  0.03974300  0.30084900  0.91586300  1
  O  O11  1  0.96025700  0.69915100  0.08413700  1
  O  O12  1  0.97803200  0.97803200  0.34156300  1
  O  O13  1  0.02196800  0.02196800  0.65843700  1
  O  O14  1  0.55579900  0.55579900  0.13518500  1
  O  O15  1  0.44420100  0.44420100  0.86481500  1
loop_
_geom_bond_atom_site_label_1
_geom_bond_atom_site_label_2
_geom_bond_distance
_geom_bond_site_symmetry_2
Dy0 O0 2.332672 1_555
Dy0 O2 2.332672 1_554
Dy0 O8 2.341328 1_545
Dy0 O10 2.341328 1_654
Dy0 O6 2.344711 1_554
Dy0 O4 2.344711 1_555
Dy0 O15 2.564694 1_554
Dy0 O14 2.564694 1_555
Dy1 O3 2.332672 1_555
Dy1 O1 2.332672 1_554
Dy1 O11 2.341328 1_455
Dy1 O9 2.341328 1_564
Dy1 O5 2.344711 1_554
Dy1 O7 2.344711 1_555
Dy1 O15 2.564694 1_554
Dy1 O14 2.564694 1_555
Ag0 O15 2.358625 1_555
Ag0 O12 2.484632 1_555
Ag0 O8 2.742890 1_555
Ag0 O11 2.742890 1_555
Ag0 O5 2.781707 1_555
Ag0 O6 2.781707 1_555
Ag1 O14 2.358625 1_555
Ag1 O13 2.484632 1_555
Ag1 O10 2.742890 1_555
Ag1 O9 2.742890 1_555
Ag1 O4 2.781707 1_555
Ag1 O7 2.781707 1_555
O0 W3 1.944760 1_545
O0 W0 2.143948 1_555
O1 W2 1.944760 1_565
O1 W1 2.143948 1_555
O2 W3 1.944760 1_655
O2 W1 2.143948 1_555
O3 W2 1.944760 1_455
O3 W0 2.143948 1_555
O4 W2 1.813811 1_555
O5 W3 1.813811 1_555
O6 W2 1.813811 1_555
O7 W3 1.813811 1_555
O8 W1 1.825165 1_554
O9 W0 1.825165 1_556
O10 W0 1.825165 1_556
O11 W1 1.825165 1_554
O12 W0 2.061075 1_665
O12 W2 2.210676 1_565
O12 W3 2.210676 1_655
O13 W1 2.061075 1_445
O13 W2 2.210676 1_455
O13 W3 2.210676 1_545
O14 W1 1.883285 1_554
O15 W0 1.883285 1_556
