# generated using pymatgen
data_Eu2In3Cu
_symmetry_space_group_name_H-M   'P 1'
_cell_length_a   7.48347800
_cell_length_b   9.93215469
_cell_length_c   17.20741776
_cell_angle_alpha   90.01252229
_cell_angle_beta   90.00000000
_cell_angle_gamma   90.00000000
_symmetry_Int_Tables_number   1
_chemical_formula_structural   Eu2In3Cu
_chemical_formula_sum   'Eu16 In24 Cu8'
_cell_volume   1278.97676093
_cell_formula_units_Z   8
loop_
 _symmetry_equiv_pos_site_id
 _symmetry_equiv_pos_as_xyz
  1  'x, y, z'
loop_
 _atom_site_type_symbol
 _atom_site_label
 _atom_site_symmetry_multiplicity
 _atom_site_fract_x
 _atom_site_fract_y
 _atom_site_fract_z
 _atom_site_occupancy
  Eu  Eu0_0  1  0.00000000  0.49988700  0.00710000  1
  Eu  Eu0_1  1  0.00000000  0.49988700  0.50710000  1
  Eu  Eu0_2  1  0.00000000  0.99988700  0.00710000  1
  Eu  Eu0_3  1  0.00000000  0.99988700  0.50710000  1
  Eu  Eu0_4  1  0.50000000  0.49988700  0.00710000  1
  Eu  Eu0_5  1  0.50000000  0.49988700  0.50710000  1
  Eu  Eu0_6  1  0.50000000  0.99988700  0.00710000  1
  Eu  Eu0_7  1  0.50000000  0.99988700  0.50710000  1
  Eu  Eu1_0  1  0.00000000  0.25009450  0.24566000  1
  Eu  Eu1_1  1  0.00000000  0.25009450  0.74566000  1
  Eu  Eu1_2  1  0.00000000  0.75009450  0.24566000  1
  Eu  Eu1_3  1  0.00000000  0.75009450  0.74566000  1
  Eu  Eu1_4  1  0.50000000  0.25009450  0.24566000  1
  Eu  Eu1_5  1  0.50000000  0.25009450  0.74566000  1
  Eu  Eu1_6  1  0.50000000  0.75009450  0.24566000  1
  Eu  Eu1_7  1  0.50000000  0.75009450  0.74566000  1
  In  In0_0  1  0.25000000  0.24999000  0.41795600  1
  In  In0_1  1  0.25000000  0.24999000  0.91795600  1
  In  In0_2  1  0.25000000  0.74999000  0.41795600  1
  In  In0_3  1  0.25000000  0.74999000  0.91795600  1
  In  In0_4  1  0.75000000  0.24999000  0.41795600  1
  In  In0_5  1  0.75000000  0.24999000  0.91795600  1
  In  In0_6  1  0.75000000  0.74999000  0.41795600  1
  In  In0_7  1  0.75000000  0.74999000  0.91795600  1
  In  In1_0  1  0.25000000  0.24992300  0.09092950  1
  In  In1_1  1  0.25000000  0.24992300  0.59092950  1
  In  In1_2  1  0.25000000  0.74992300  0.09092950  1
  In  In1_3  1  0.25000000  0.74992300  0.59092950  1
  In  In1_4  1  0.75000000  0.24992300  0.09092950  1
  In  In1_5  1  0.75000000  0.24992300  0.59092950  1
  In  In1_6  1  0.75000000  0.74992300  0.09092950  1
  In  In1_7  1  0.75000000  0.74992300  0.59092950  1
  In  In2_0  1  0.25000000  0.00000250  0.32401650  1
  In  In2_1  1  0.25000000  0.00000250  0.82401650  1
  In  In2_2  1  0.25000000  0.50000250  0.32401650  1
  In  In2_3  1  0.25000000  0.50000250  0.82401650  1
  In  In2_4  1  0.75000000  0.00000250  0.32401650  1
  In  In2_5  1  0.75000000  0.00000250  0.82401650  1
  In  In2_6  1  0.75000000  0.50000250  0.32401650  1
  In  In2_7  1  0.75000000  0.50000250  0.82401650  1
  Cu  Cu0_0  1  0.25000000  0.00000250  0.16433800  1
  Cu  Cu0_1  1  0.25000000  0.00000250  0.66433800  1
  Cu  Cu0_2  1  0.25000000  0.50000250  0.16433800  1
  Cu  Cu0_3  1  0.25000000  0.50000250  0.66433800  1
  Cu  Cu0_4  1  0.75000000  0.00000250  0.16433800  1
  Cu  Cu0_5  1  0.75000000  0.00000250  0.66433800  1
  Cu  Cu0_6  1  0.75000000  0.50000250  0.16433800  1
  Cu  Cu0_7  1  0.75000000  0.50000250  0.66433800  1
loop_
_geom_bond_atom_site_label_1
_geom_bond_atom_site_label_2
_geom_bond_distance
_geom_bond_site_symmetry_2
Eu0_0 In1_4 3.427273 1_455
Eu0_0 In1_0 3.427273 1_555
Eu0_0 In1_6 3.427334 1_455
Eu0_0 In1_2 3.427334 1_555
Eu0_0 In0_1 3.465812 1_554
Eu0_0 In0_5 3.465812 1_454
Eu0_0 In0_3 3.467758 1_554
Eu0_0 In0_7 3.467758 1_454
Eu0_0 In2_3 3.664033 1_554
Eu0_0 In2_7 3.664033 1_454
Eu0_0 Eu0_4 3.741739 1_455
Eu0_0 Eu0_4 3.741739 1_555
Eu0_1 In1_1 3.427273 1_555
Eu0_1 In1_5 3.427273 1_455
Eu0_1 In1_7 3.427334 1_455
Eu0_1 In1_3 3.427334 1_555
Eu0_1 In0_4 3.465812 1_455
Eu0_1 In0_0 3.465812 1_555
Eu0_1 In0_2 3.467758 1_555
Eu0_1 In0_6 3.467758 1_455
Eu0_1 In2_6 3.664033 1_455
Eu0_1 In2_2 3.664033 1_555
Eu0_1 Eu0_5 3.741739 1_455
Eu0_1 Eu0_5 3.741739 1_555
Eu0_2 In1_2 3.427273 1_555
Eu0_2 In1_6 3.427273 1_455
Eu0_2 In1_4 3.427334 1_465
Eu0_2 In1_0 3.427334 1_565
Eu0_2 In0_3 3.465812 1_554
Eu0_2 In0_7 3.465812 1_454
Eu0_2 In0_1 3.467758 1_564
Eu0_2 In0_5 3.467758 1_464
Eu0_2 In2_1 3.664033 1_564
Eu0_2 In2_5 3.664033 1_464
Eu0_2 Eu0_6 3.741739 1_555
Eu0_2 Eu0_6 3.741739 1_455
Eu0_3 In1_3 3.427273 1_555
Eu0_3 In1_7 3.427273 1_455
Eu0_3 In1_5 3.427334 1_465
Eu0_3 In1_1 3.427334 1_565
Eu0_3 In0_2 3.465812 1_555
Eu0_3 In0_6 3.465812 1_455
Eu0_3 In0_0 3.467758 1_565
Eu0_3 In0_4 3.467758 1_465
Eu0_3 In2_0 3.664033 1_565
Eu0_3 In2_4 3.664033 1_465
Eu0_3 Eu0_7 3.741739 1_555
Eu0_3 Eu0_7 3.741739 1_455
Eu0_4 In1_4 3.427273 1_555
Eu0_4 In1_0 3.427273 1_555
Eu0_4 In1_2 3.427334 1_555
Eu0_4 In1_6 3.427334 1_555
Eu0_4 In0_1 3.465812 1_554
Eu0_4 In0_5 3.465812 1_554
Eu0_4 In0_7 3.467758 1_554
Eu0_4 In0_3 3.467758 1_554
Eu0_4 In2_3 3.664033 1_554
Eu0_4 In2_7 3.664033 1_554
Eu0_5 In1_1 3.427273 1_555
Eu0_5 In1_5 3.427273 1_555
Eu0_5 In1_3 3.427334 1_555
Eu0_5 In1_7 3.427334 1_555
Eu0_5 In0_0 3.465812 1_555
Eu0_5 In0_4 3.465812 1_555
Eu0_5 In0_2 3.467758 1_555
Eu0_5 In0_6 3.467758 1_555
Eu0_5 In2_2 3.664033 1_555
Eu0_5 In2_6 3.664033 1_555
Eu0_6 In1_2 3.427273 1_555
Eu0_6 In1_6 3.427273 1_555
Eu0_6 In1_4 3.427334 1_565
Eu0_6 In1_0 3.427334 1_565
Eu0_6 In0_7 3.465812 1_554
Eu0_6 In0_3 3.465812 1_554
Eu0_6 In0_5 3.467758 1_564
Eu0_6 In0_1 3.467758 1_564
Eu0_6 In2_1 3.664033 1_564
Eu0_6 In2_5 3.664033 1_564
Eu0_7 In1_3 3.427273 1_555
Eu0_7 In1_7 3.427273 1_555
Eu0_7 In1_5 3.427334 1_565
Eu0_7 In1_1 3.427334 1_565
Eu0_7 In0_2 3.465812 1_555
Eu0_7 In0_6 3.465812 1_555
Eu0_7 In0_0 3.467758 1_565
Eu0_7 In0_4 3.467758 1_565
Eu0_7 In2_4 3.664033 1_565
Eu0_7 In2_0 3.664033 1_565
Eu1_0 In1_0 3.254094 1_555
Eu1_0 In1_4 3.254094 1_455
Eu1_0 In2_6 3.387858 1_455
Eu1_0 In2_2 3.387858 1_555
Eu1_0 In2_0 3.389629 1_555
Eu1_0 In2_4 3.389629 1_455
Eu1_0 In0_0 3.505711 1_555
Eu1_0 In0_4 3.505711 1_455
Eu1_0 Eu1_4 3.741739 1_455
Eu1_0 Eu1_4 3.741739 1_555
Eu1_1 In1_1 3.254094 1_555
Eu1_1 In1_5 3.254094 1_455
Eu1_1 In2_3 3.387858 1_555
Eu1_1 In2_7 3.387858 1_455
Eu1_1 In2_1 3.389629 1_555
Eu1_1 In2_5 3.389629 1_455
Eu1_1 In0_1 3.505711 1_555
Eu1_1 In0_5 3.505711 1_455
Eu1_1 Eu1_5 3.741739 1_555
Eu1_1 Eu1_5 3.741739 1_455
Eu1_2 In1_6 3.254094 1_455
Eu1_2 In1_2 3.254094 1_555
Eu1_2 In2_0 3.387858 1_565
Eu1_2 In2_4 3.387858 1_465
Eu1_2 In2_6 3.389629 1_455
Eu1_2 In2_2 3.389629 1_555
Eu1_2 In0_2 3.505711 1_555
Eu1_2 In0_6 3.505711 1_455
Eu1_2 Eu1_6 3.741739 1_455
Eu1_2 Eu1_6 3.741739 1_555
Eu1_3 In1_3 3.254094 1_555
Eu1_3 In1_7 3.254094 1_455
Eu1_3 In2_1 3.387858 1_565
Eu1_3 In2_5 3.387858 1_465
Eu1_3 In2_3 3.389629 1_555
Eu1_3 In2_7 3.389629 1_455
Eu1_3 In0_3 3.505711 1_555
Eu1_3 In0_7 3.505711 1_455
Eu1_3 Eu1_7 3.741739 1_455
Eu1_3 Eu1_7 3.741739 1_555
Eu1_4 In1_0 3.254094 1_555
Eu1_4 In1_4 3.254094 1_555
Eu1_4 In2_2 3.387858 1_555
Eu1_4 In2_6 3.387858 1_555
Eu1_4 In2_0 3.389629 1_555
Eu1_4 In2_4 3.389629 1_555
Eu1_4 In0_0 3.505711 1_555
Eu1_4 In0_4 3.505711 1_555
Eu1_5 In1_5 3.254094 1_555
Eu1_5 In1_1 3.254094 1_555
Eu1_5 In2_7 3.387858 1_555
Eu1_5 In2_3 3.387858 1_555
Eu1_5 In2_1 3.389629 1_555
Eu1_5 In2_5 3.389629 1_555
Eu1_5 In0_1 3.505711 1_555
Eu1_5 In0_5 3.505711 1_555
Eu1_6 In1_2 3.254094 1_555
Eu1_6 In1_6 3.254094 1_555
Eu1_6 In2_4 3.387858 1_565
Eu1_6 In2_0 3.387858 1_565
Eu1_6 In2_2 3.389629 1_555
Eu1_6 In2_6 3.389629 1_555
Eu1_6 In0_6 3.505711 1_555
Eu1_6 In0_2 3.505711 1_555
Eu1_7 In1_3 3.254094 1_555
Eu1_7 In1_7 3.254094 1_555
Eu1_7 In2_1 3.387858 1_565
Eu1_7 In2_5 3.387858 1_565
Eu1_7 In2_7 3.389629 1_555
Eu1_7 In2_3 3.389629 1_555
Eu1_7 In0_3 3.505711 1_555
Eu1_7 In0_7 3.505711 1_555
In0_0 In2_0 2.962438 1_555
In0_0 In2_2 2.963239 1_555
In0_0 In1_1 2.976427 1_555
In0_1 In2_1 2.962438 1_555
In0_1 In2_3 2.963239 1_555
In0_1 In1_0 2.976427 1_556
In0_2 In2_2 2.962438 1_555
In0_2 In2_0 2.963239 1_565
In0_2 In1_3 2.976427 1_555
In0_3 In2_3 2.962438 1_555
In0_3 In2_1 2.963239 1_565
In0_3 In1_2 2.976427 1_556
In0_4 In2_4 2.962438 1_555
In0_4 In2_6 2.963239 1_555
In0_4 In1_5 2.976427 1_555
In0_5 In2_5 2.962438 1_555
In0_5 In2_7 2.963239 1_555
In0_5 In1_4 2.976427 1_556
In0_6 In2_6 2.962438 1_555
In0_6 In2_4 2.963239 1_565
In0_6 In1_7 2.976427 1_555
In0_7 In2_7 2.962438 1_555
In0_7 In2_5 2.963239 1_565
In0_7 In1_6 2.976427 1_556
Cu0_0 In2_0 2.747655 1_555
Cu0_0 In1_0 2.785414 1_555
Cu0_0 In1_2 2.786329 1_545
Cu0_0 Eu0_2 3.289491 1_545
Cu0_0 Eu0_6 3.289491 1_545
Cu0_0 Eu1_2 3.408925 1_545
Cu0_0 Eu1_6 3.408925 1_545
Cu0_0 Eu1_4 3.409811 1_555
Cu0_0 Eu1_0 3.409811 1_555
Cu0_1 In2_1 2.747655 1_555
Cu0_1 In1_1 2.785414 1_555
Cu0_1 In1_3 2.786329 1_545
Cu0_1 Eu0_3 3.289491 1_545
Cu0_1 Eu0_7 3.289491 1_545
Cu0_1 Eu1_7 3.408925 1_545
Cu0_1 Eu1_3 3.408925 1_545
Cu0_1 Eu1_1 3.409811 1_555
Cu0_1 Eu1_5 3.409811 1_555
Cu0_2 In2_2 2.747655 1_555
Cu0_2 In1_2 2.785414 1_555
Cu0_2 In1_0 2.786329 1_555
Cu0_2 Eu0_4 3.289491 1_555
Cu0_2 Eu0_0 3.289491 1_555
Cu0_2 Eu1_4 3.408925 1_555
Cu0_2 Eu1_0 3.408925 1_555
Cu0_2 Eu1_2 3.409811 1_555
Cu0_2 Eu1_6 3.409811 1_555
Cu0_3 In2_3 2.747655 1_555
Cu0_3 In1_3 2.785414 1_555
Cu0_3 In1_1 2.786329 1_555
Cu0_3 Eu0_1 3.289491 1_555
Cu0_3 Eu0_5 3.289491 1_555
Cu0_3 Eu1_5 3.408925 1_555
Cu0_3 Eu1_1 3.408925 1_555
Cu0_3 Eu1_3 3.409811 1_555
Cu0_3 Eu1_7 3.409811 1_555
Cu0_4 In2_4 2.747655 1_555
Cu0_4 In1_4 2.785414 1_555
Cu0_4 In1_6 2.786329 1_545
Cu0_4 Eu0_6 3.289491 1_545
Cu0_4 Eu0_2 3.289491 1_645
Cu0_4 Eu1_2 3.408925 1_645
Cu0_4 Eu1_6 3.408925 1_545
Cu0_4 Eu1_0 3.409811 1_655
Cu0_4 Eu1_4 3.409811 1_555
Cu0_5 In2_5 2.747655 1_555
Cu0_5 In1_5 2.785414 1_555
Cu0_5 In1_7 2.786329 1_545
Cu0_5 Eu0_7 3.289491 1_545
Cu0_5 Eu0_3 3.289491 1_645
Cu0_5 Eu1_7 3.408925 1_545
Cu0_5 Eu1_3 3.408925 1_645
Cu0_5 Eu1_1 3.409811 1_655
Cu0_5 Eu1_5 3.409811 1_555
Cu0_6 In2_6 2.747655 1_555
Cu0_6 In1_6 2.785414 1_555
Cu0_6 In1_4 2.786329 1_555
Cu0_6 Eu0_4 3.289491 1_555
Cu0_6 Eu0_0 3.289491 1_655
Cu0_6 Eu1_0 3.408925 1_655
Cu0_6 Eu1_4 3.408925 1_555
Cu0_6 Eu1_2 3.409811 1_655
Cu0_6 Eu1_6 3.409811 1_555
Cu0_7 In2_7 2.747655 1_555
Cu0_7 In1_7 2.785414 1_555
Cu0_7 In1_5 2.786329 1_555
Cu0_7 Eu0_1 3.289491 1_655
Cu0_7 Eu0_5 3.289491 1_555
Cu0_7 Eu1_5 3.408925 1_555
Cu0_7 Eu1_1 3.408925 1_655
Cu0_7 Eu1_3 3.409811 1_655
Cu0_7 Eu1_7 3.409811 1_555
