# generated using pymatgen
data_Na3AsSO15
_symmetry_space_group_name_H-M   'P 1'
_cell_length_a   7.72102474
_cell_length_b   13.97837748
_cell_length_c   15.02341097
_cell_angle_alpha   90.00000000
_cell_angle_beta   90.00000000
_cell_angle_gamma   90.00000000
_symmetry_Int_Tables_number   1
_chemical_formula_structural   Na3AsSO15
_chemical_formula_sum   'Na12 As4 S4 O60'
_cell_volume   1621.43766031
_cell_formula_units_Z   4
loop_
 _symmetry_equiv_pos_site_id
 _symmetry_equiv_pos_as_xyz
  1  'x, y, z'
loop_
 _atom_site_type_symbol
 _atom_site_label
 _atom_site_symmetry_multiplicity
 _atom_site_fract_x
 _atom_site_fract_y
 _atom_site_fract_z
 _atom_site_occupancy
  Na  Na0  1  0.60350712  0.68524655  0.87620100  1
  Na  Na1  1  0.89649288  0.31475345  0.37620100  1
  Na  Na2  1  0.10350712  0.81475345  0.12379900  1
  Na  Na3  1  0.39649288  0.18524655  0.62379900  1
  Na  Na4  1  0.86968408  0.51896014  0.06805363  1
  Na  Na5  1  0.63031592  0.48103986  0.56805363  1
  Na  Na6  1  0.36968408  0.98103986  0.93194637  1
  Na  Na7  1  0.13031592  0.01896014  0.43194637  1
  Na  Na8  1  0.75132803  0.20664094  0.11361992  1
  Na  Na9  1  0.74867197  0.79335906  0.61361992  1
  Na  Na10  1  0.25132803  0.29335906  0.88638008  1
  Na  Na11  1  0.24867197  0.70664094  0.38638008  1
  As  As0  1  0.84186598  0.00084958  0.22781277  1
  As  As1  1  0.65813402  0.99915042  0.72781277  1
  As  As2  1  0.34186598  0.49915042  0.77218723  1
  As  As3  1  0.15813402  0.50084958  0.27218723  1
  S  S0  1  0.82418214  0.75110242  0.30324147  1
  S  S1  1  0.67581786  0.24889758  0.80324147  1
  S  S2  1  0.32418214  0.74889758  0.69675853  1
  S  S3  1  0.17581786  0.25110242  0.19675853  1
  O  O0  1  0.91672848  0.93587181  0.14337113  1
  O  O1  1  0.58327152  0.06412819  0.64337113  1
  O  O2  1  0.41672848  0.56412819  0.85662887  1
  O  O3  1  0.08327152  0.43587181  0.35662887  1
  O  O4  1  0.92367768  0.98675437  0.32944869  1
  O  O5  1  0.57632232  0.01324563  0.82944869  1
  O  O6  1  0.42367768  0.51324563  0.67055131  1
  O  O7  1  0.07632232  0.48675437  0.17055131  1
  O  O8  1  0.68703380  0.08116770  0.20818536  1
  O  O9  1  0.81296620  0.91883230  0.70818536  1
  O  O10  1  0.18703380  0.41883230  0.79181464  1
  O  O11  1  0.31296620  0.58116770  0.29181464  1
  O  O12  1  0.51797584  0.75502899  0.71453134  1
  O  O13  1  0.98202416  0.24497101  0.21453134  1
  O  O14  1  0.01797584  0.74497101  0.28546866  1
  O  O15  1  0.48202416  0.25502899  0.78546866  1
  O  O16  1  0.46026048  0.81792171  0.03108320  1
  O  O17  1  0.03973952  0.18207829  0.53108320  1
  O  O18  1  0.96026048  0.68207829  0.96891680  1
  O  O19  1  0.53973952  0.31792171  0.46891680  1
  O  O20  1  0.93944182  0.85168493  0.88132249  1
  O  O21  1  0.56055818  0.14831507  0.38132249  1
  O  O22  1  0.43944182  0.64831507  0.11867751  1
  O  O23  1  0.06055818  0.35168493  0.61867751  1
  O  O24  1  0.53239065  0.60016891  0.06883226  1
  O  O25  1  0.96760935  0.39983109  0.56883226  1
  O  O26  1  0.03239065  0.89983109  0.93116774  1
  O  O27  1  0.46760935  0.10016891  0.43116774  1
  O  O28  1  0.96875595  0.68179362  0.05943677  1
  O  O29  1  0.53124405  0.31820638  0.55943677  1
  O  O30  1  0.46875595  0.81820638  0.94056323  1
  O  O31  1  0.03124405  0.18179362  0.44056323  1
  O  O32  1  0.85479995  0.61213103  0.93595362  1
  O  O33  1  0.64520005  0.38786897  0.43595362  1
  O  O34  1  0.35479995  0.88786897  0.06404638  1
  O  O35  1  0.14520005  0.11213103  0.56404638  1
  O  O36  1  0.65593644  0.39705113  0.17473915  1
  O  O37  1  0.84406356  0.60294887  0.67473915  1
  O  O38  1  0.15593644  0.10294887  0.82526085  1
  O  O39  1  0.34406356  0.89705113  0.32526085  1
  O  O40  1  0.62342349  0.35362283  0.98333997  1
  O  O41  1  0.87657651  0.64637717  0.48333997  1
  O  O42  1  0.12342349  0.14637717  0.01666003  1
  O  O43  1  0.37657651  0.85362283  0.51666003  1
  O  O44  1  0.96573033  0.35949663  0.00707247  1
  O  O45  1  0.53426967  0.64050337  0.50707247  1
  O  O46  1  0.46573033  0.14050337  0.99292753  1
  O  O47  1  0.03426967  0.85949663  0.49292753  1
  O  O48  1  0.96242438  0.13066196  0.01069930  1
  O  O49  1  0.53757562  0.86933804  0.51069930  1
  O  O50  1  0.46242438  0.36933804  0.98930070  1
  O  O51  1  0.03757562  0.63066196  0.48930070  1
  O  O52  1  0.45324405  0.17382981  0.07147019  1
  O  O53  1  0.04675595  0.82617019  0.57147019  1
  O  O54  1  0.95324405  0.32617019  0.92852981  1
  O  O55  1  0.54675595  0.67382981  0.42852981  1
  O  O56  1  0.70003781  0.42882064  0.24902308  1
  O  O57  1  0.79996219  0.57117936  0.74902308  1
  O  O58  1  0.20003781  0.07117936  0.75097692  1
  O  O59  1  0.29996219  0.92882064  0.25097692  1
loop_
_geom_bond_atom_site_label_1
_geom_bond_atom_site_label_2
_geom_bond_distance
_geom_bond_site_symmetry_2
Na0 O2 2.243336 1_555
Na0 O30 2.339166 1_555
Na0 O32 2.369584 1_555
Na0 O12 2.699411 1_555
Na0 O57 2.914396 1_555
Na1 O3 2.243336 1_655
Na1 O31 2.339166 1_655
Na1 O33 2.369584 1_555
Na1 O13 2.699411 1_555
Na1 O56 2.914396 1_555
Na2 O0 2.243336 1_455
Na2 O28 2.339166 1_455
Na2 O34 2.369584 1_555
Na2 O14 2.699411 1_555
Na2 O59 2.914396 1_555
Na3 O1 2.243336 1_555
Na3 O29 2.339166 1_555
Na3 O35 2.369584 1_555
Na3 O15 2.699411 1_555
Na3 O58 2.914396 1_555
Na4 O7 2.262596 1_655
Na4 O32 2.376553 1_554
Na4 O28 2.404732 1_555
Na4 O44 2.521484 1_555
Na4 O24 2.840927 1_555
Na4 O36 2.862951 1_555
Na5 O6 2.262596 1_555
Na5 O33 2.376553 1_555
Na5 O29 2.404732 1_555
Na5 O45 2.521484 1_555
Na5 O25 2.840927 1_555
Na5 O37 2.862951 1_555
Na6 O5 2.262596 1_565
Na6 O34 2.376553 1_556
Na6 O30 2.404732 1_555
Na6 O46 2.521484 1_565
Na6 O26 2.840927 1_555
Na6 O38 2.862951 1_565
Na7 O4 2.262596 1_445
Na7 O35 2.376553 1_555
Na7 O31 2.404732 1_555
Na7 O47 2.521484 1_545
Na7 O27 2.840927 1_555
Na7 O39 2.862951 1_545
Na8 O8 2.311063 1_555
Na8 O13 2.399613 1_555
Na8 O52 2.430701 1_555
Na8 O48 2.485011 1_555
Na8 O36 2.910299 1_555
Na8 O40 3.004553 1_554
Na9 O9 2.311063 1_555
Na9 O12 2.399613 1_555
Na9 O53 2.430701 1_655
Na9 O49 2.485011 1_555
Na9 O37 2.910299 1_555
Na9 O41 3.004553 1_555
Na10 O10 2.311063 1_555
Na10 O15 2.399613 1_555
Na10 O54 2.430701 1_455
Na10 O50 2.485011 1_555
Na10 O38 2.910299 1_555
Na10 O42 3.004553 1_556
Na11 O11 2.311063 1_555
Na11 O14 2.399613 1_555
Na11 O55 2.430701 1_555
Na11 O51 2.485011 1_555
Na11 O39 2.910299 1_555
Na11 O43 3.004553 1_555
As0 O0 1.663860 1_545
As0 O4 1.664123 1_545
As0 O8 1.666306 1_555
As1 O1 1.663860 1_565
As1 O5 1.664123 1_565
As1 O9 1.666306 1_555
As2 O2 1.663860 1_555
As2 O6 1.664123 1_555
As2 O10 1.666306 1_555
As3 O3 1.663860 1_555
As3 O7 1.664123 1_555
As3 O11 1.666306 1_555
O12 S2 1.522337 1_555
O13 S3 1.522337 1_655
O14 S0 1.522337 1_455
O15 S1 1.522337 1_555
O16 O30 1.361506 1_554
O16 O34 1.365379 1_555
O17 O31 1.361506 1_555
O17 O35 1.365379 1_555
O18 O28 1.361506 1_556
O18 O32 1.365379 1_555
O19 O29 1.361506 1_555
O19 O33 1.365379 1_555
O20 O26 1.236423 1_655
O21 O27 1.236423 1_555
O22 O24 1.236423 1_555
O23 O25 1.236423 1_455
O36 O56 1.248443 1_555
O37 O57 1.248443 1_555
O38 O58 1.248443 1_555
O39 O59 1.248443 1_555
O40 O50 1.265511 1_555
O41 O51 1.265511 1_655
O42 O48 1.265511 1_455
O43 O49 1.265511 1_555
O44 O54 1.272266 1_554
O45 O55 1.272266 1_555
O46 O52 1.272266 1_556
O47 O53 1.272266 1_555
