# generated using pymatgen
data_Ba4Y2Cu7O15
_symmetry_space_group_name_H-M   'P 1'
_cell_length_a   25.61177723
_cell_length_b   25.61177723
_cell_length_c   3.87367200
_cell_angle_alpha   90.00000000
_cell_angle_beta   90.00000000
_cell_angle_gamma   171.24455319
_symmetry_Int_Tables_number   1
_chemical_formula_structural   Ba4Y2Cu7O15
_chemical_formula_sum   'Ba4 Y2 Cu7 O15'
_cell_volume   386.78214272
_cell_formula_units_Z   1
loop_
 _symmetry_equiv_pos_site_id
 _symmetry_equiv_pos_as_xyz
  1  'x, y, z'
loop_
 _atom_site_type_symbol
 _atom_site_label
 _atom_site_symmetry_multiplicity
 _atom_site_fract_x
 _atom_site_fract_y
 _atom_site_fract_z
 _atom_site_occupancy
  Ba  Ba0  1  0.68798000  0.31202000  0.50000000  1
  Ba  Ba1  1  0.31202000  0.68798000  0.50000000  1
  Ba  Ba2  1  0.54187400  0.45812600  0.50000000  1
  Ba  Ba3  1  0.45812600  0.54187400  0.50000000  1
  Y  Y0  1  0.61503800  0.38496200  0.50000000  1
  Y  Y1  1  0.38496200  0.61503800  0.50000000  1
  Cu  Cu0  1  0.08142200  0.91857800  0.00000000  1
  Cu  Cu1  1  0.91857800  0.08142200  0.00000000  1
  Cu  Cu2  1  0.14856100  0.85143900  0.00000000  1
  Cu  Cu3  1  0.85143900  0.14856100  0.00000000  1
  Cu  Cu4  1  0.00000000  0.00000000  0.00000000  1
  Cu  Cu5  1  0.22985500  0.77014500  0.00000000  1
  Cu  Cu6  1  0.77014500  0.22985500  0.00000000  1
  O  O0  1  0.58713200  0.41286800  0.00000000  1
  O  O1  1  0.41286800  0.58713200  0.00000000  1
  O  O2  1  0.73307300  0.26692700  0.00000000  1
  O  O3  1  0.26692700  0.73307300  0.00000000  1
  O  O4  1  0.08725800  0.91274200  0.50000000  1
  O  O5  1  0.91274200  0.08725800  0.50000000  1
  O  O6  1  0.03676400  0.96323600  0.00000000  1
  O  O7  1  0.96323600  0.03676400  0.00000000  1
  O  O8  1  0.19365900  0.80634100  0.00000000  1
  O  O9  1  0.80634100  0.19365900  0.00000000  1
  O  O10  1  0.14355200  0.85644800  0.50000000  1
  O  O11  1  0.85644800  0.14355200  0.50000000  1
  O  O12  1  0.64340900  0.35659100  0.00000000  1
  O  O13  1  0.35659100  0.64340900  0.00000000  1
  O  O14  1  0.50000000  0.50000000  0.00000000  1
loop_
_geom_bond_atom_site_label_1
_geom_bond_atom_site_label_2
_geom_bond_distance
_geom_bond_site_symmetry_2
Ba0 O8 2.767204 1_655
Ba0 O8 2.767204 1_545
Ba0 O8 2.767204 1_656
Ba0 O8 2.767204 1_546
Ba0 O12 2.988886 1_556
Ba0 O12 2.988886 1_555
Ba0 O10 2.995140 1_655
Ba0 O10 2.995140 1_545
Ba0 O2 3.009241 1_555
Ba0 O2 3.009241 1_556
Ba1 O9 2.767204 1_456
Ba1 O9 2.767204 1_455
Ba1 O9 2.767204 1_566
Ba1 O9 2.767204 1_565
Ba1 O13 2.988886 1_555
Ba1 O13 2.988886 1_556
Ba1 O11 2.995140 1_565
Ba1 O11 2.995140 1_455
Ba1 O3 3.009241 1_555
Ba1 O3 3.009241 1_556
Ba2 O6 2.764309 1_655
Ba2 O6 2.764309 1_656
Ba2 O6 2.764309 1_545
Ba2 O6 2.764309 1_546
Ba2 O14 2.885355 1_555
Ba2 O14 2.885355 1_556
Ba2 O0 3.015696 1_555
Ba2 O0 3.015696 1_556
Ba2 O4 3.032299 1_545
Ba2 O4 3.032299 1_655
Ba3 O7 2.764309 1_565
Ba3 O7 2.764309 1_566
Ba3 O7 2.764309 1_455
Ba3 O7 2.764309 1_456
Ba3 O14 2.885355 1_556
Ba3 O14 2.885355 1_555
Ba3 O1 3.015696 1_556
Ba3 O1 3.015696 1_555
Ba3 O5 3.032299 1_455
Ba3 O5 3.032299 1_565
Cu0 O4 1.959637 1_555
Cu0 O4 1.959637 1_554
Cu0 O0 1.976614 1_565
Cu0 O0 1.976614 1_455
Cu0 O6 2.280868 1_555
Cu1 O5 1.959637 1_554
Cu1 O5 1.959637 1_555
Cu1 O1 1.976614 1_655
Cu1 O1 1.976614 1_545
Cu1 O7 2.280868 1_555
Cu2 O10 1.953659 1_555
Cu2 O10 1.953659 1_554
Cu2 O12 1.972611 1_565
Cu2 O12 1.972611 1_455
Cu2 O8 2.303340 1_555
Cu3 O11 1.953659 1_555
Cu3 O11 1.953659 1_554
Cu3 O13 1.972611 1_655
Cu3 O13 1.972611 1_545
Cu3 O9 2.303340 1_555
Cu4 O7 1.877689 1_455
Cu4 O6 1.877689 1_545
Cu4 O14 1.954982 1_555
Cu4 O14 1.954982 1_445
Cu5 O8 1.848678 1_555
Cu5 O3 1.893419 1_555
Cu5 O2 1.961879 1_455
Cu5 O2 1.961879 1_565
Cu6 O9 1.848678 1_555
Cu6 O2 1.893419 1_555
Cu6 O3 1.961879 1_655
Cu6 O3 1.961879 1_545
O0 Y0 2.404733 1_554
O0 Y0 2.404733 1_555
O1 Y1 2.404733 1_555
O1 Y1 2.404733 1_554
O4 Y0 2.415586 1_565
O4 Y0 2.415586 1_455
O5 Y1 2.415586 1_655
O5 Y1 2.415586 1_545
O10 Y0 2.437795 1_455
O10 Y0 2.437795 1_565
O11 Y1 2.437795 1_545
O11 Y1 2.437795 1_655
O12 Y0 2.418885 1_554
O12 Y0 2.418885 1_555
O13 Y1 2.418885 1_555
O13 Y1 2.418885 1_554
