# generated using pymatgen
data_KRb2CO3F
_symmetry_space_group_name_H-M   'P 1'
_cell_length_a   7.32585790
_cell_length_b   7.32585790
_cell_length_c   7.25152366
_cell_angle_alpha   64.48176570
_cell_angle_beta   64.48176570
_cell_angle_gamma   64.13738719
_symmetry_Int_Tables_number   1
_chemical_formula_structural   KRb2CO3F
_chemical_formula_sum   'K2 Rb4 C2 O6 F2'
_cell_volume   301.56861710
_cell_formula_units_Z   2
loop_
 _symmetry_equiv_pos_site_id
 _symmetry_equiv_pos_as_xyz
  1  'x, y, z'
loop_
 _atom_site_type_symbol
 _atom_site_label
 _atom_site_symmetry_multiplicity
 _atom_site_fract_x
 _atom_site_fract_y
 _atom_site_fract_z
 _atom_site_occupancy
  K  K0  1  0.25003100  0.17950800  0.57043200  1
  K  K1  1  0.82049200  0.74996900  0.42956800  1
  Rb  Rb0  1  0.68312200  0.31687800  0.00000000  1
  Rb  Rb1  1  0.18330200  0.24961600  0.06711200  1
  Rb  Rb2  1  0.31682500  0.68317500  0.50000000  1
  Rb  Rb3  1  0.75038400  0.81669800  0.93288800  1
  C  C0  1  0.24867700  0.75132300  0.00000000  1
  C  C1  1  0.74980000  0.25020000  0.50000000  1
  O  O0  1  0.24796200  0.58318100  0.16813700  1
  O  O1  1  0.41681900  0.75203800  0.83186300  1
  O  O2  1  0.08048400  0.91951600  0.00000000  1
  O  O3  1  0.58033200  0.24849700  0.66665100  1
  O  O4  1  0.91781900  0.08218100  0.50000000  1
  O  O5  1  0.75150300  0.41966700  0.33334900  1
  F  F0  1  0.50179900  0.99935200  0.26075500  1
  F  F1  1  0.00064800  0.49820100  0.73924500  1
loop_
_geom_bond_atom_site_label_1
_geom_bond_atom_site_label_2
_geom_bond_distance
_geom_bond_site_symmetry_2
K0 O1 2.904509 1_545
K0 O2 2.914154 1_546
K0 O3 3.069662 1_555
K0 O4 3.096923 1_455
K0 O0 3.133988 1_555
K1 O0 2.904509 1_655
K1 O2 2.914154 1_655
K1 O5 3.069669 1_555
K1 O4 3.096923 1_565
K1 O1 3.133988 1_555
C0 O0 1.307679 1_555
C0 O1 1.307679 1_554
C0 O2 1.308393 1_555
C1 O4 1.307040 1_555
C1 O5 1.307565 1_555
C1 O3 1.307569 1_555
O0 Rb0 2.954659 1_555
O0 Rb2 3.077292 1_555
O0 Rb1 3.095764 1_555
O1 Rb0 2.954659 1_556
O1 Rb2 3.077292 1_555
O1 Rb3 3.095764 1_555
O2 Rb0 3.091126 1_465
O2 Rb1 3.093732 1_565
O2 Rb3 3.093732 1_454
O3 Rb3 2.942455 1_545
O3 Rb2 2.942549 1_555
O3 Rb0 3.098721 1_556
O3 Rb1 3.100839 1_556
O4 Rb3 2.940175 1_545
O4 Rb1 2.940175 1_655
O4 Rb2 3.103915 1_645
O5 Rb1 2.942454 1_655
O5 Rb2 2.942552 1_555
O5 Rb0 3.098716 1_555
O5 Rb3 3.100843 1_554
F0 K0 2.654774 1_565
F0 K1 2.664846 1_555
F0 Rb2 2.731612 1_555
F0 Rb0 2.737304 1_565
F0 Rb3 2.764818 1_554
F0 Rb1 2.765855 1_565
F1 K1 2.654774 1_455
F1 K0 2.664846 1_555
F1 Rb2 2.731612 1_555
F1 Rb0 2.737304 1_456
F1 Rb1 2.764818 1_556
F1 Rb3 2.765855 1_455
