# generated using pymatgen
data_U2Co3Ge
_symmetry_space_group_name_H-M   'P 1'
_cell_length_a   5.18036600
_cell_length_b   5.18496306
_cell_length_c   7.59334100
_cell_angle_alpha   90.00000000
_cell_angle_beta   90.00000000
_cell_angle_gamma   119.97067538
_symmetry_Int_Tables_number   1
_chemical_formula_structural   U2Co3Ge
_chemical_formula_sum   'U4 Co6 Ge2'
_cell_volume   176.68427625
_cell_formula_units_Z   2
loop_
 _symmetry_equiv_pos_site_id
 _symmetry_equiv_pos_as_xyz
  1  'x, y, z'
loop_
 _atom_site_type_symbol
 _atom_site_label
 _atom_site_symmetry_multiplicity
 _atom_site_fract_x
 _atom_site_fract_y
 _atom_site_fract_z
 _atom_site_occupancy
  U  U0  1  0.66594500  0.33188900  0.57212000  1
  U  U1  1  0.33405500  0.66811100  0.42788000  1
  U  U2  1  0.33405500  0.66811100  0.07212000  1
  U  U3  1  0.66594500  0.33188900  0.92788000  1
  Co  Co0  1  0.17074800  0.34149600  0.75000000  1
  Co  Co1  1  0.65870900  0.82961900  0.75000000  1
  Co  Co2  1  0.17091100  0.82961900  0.75000000  1
  Co  Co3  1  0.82925200  0.65850400  0.25000000  1
  Co  Co4  1  0.34129100  0.17038100  0.25000000  1
  Co  Co5  1  0.82908900  0.17038100  0.25000000  1
  Ge  Ge0  1  0.00000000  0.00000000  0.00000000  1
  Ge  Ge1  1  0.00000000  0.00000000  0.50000000  1
loop_
_geom_bond_atom_site_label_1
_geom_bond_atom_site_label_2
_geom_bond_distance
_geom_bond_site_symmetry_2
U0 U3 2.701407 1_555
U1 U2 2.701407 1_555
Co0 Ge1 2.440584 1_555
Co0 Ge0 2.440584 1_556
Co0 Co2 2.530478 1_555
Co0 Co1 2.530481 1_555
Co0 Co1 2.654483 1_445
Co0 Co2 2.654485 1_545
Co0 U1 2.852183 1_555
Co0 U2 2.852183 1_556
Co0 U0 2.921523 1_455
Co0 U3 2.921523 1_455
Co0 U0 2.921528 1_555
Co0 U3 2.921528 1_555
Co1 Ge0 2.439152 1_666
Co1 Ge1 2.439152 1_665
Co1 Co2 2.526972 1_555
Co1 Co2 2.653394 1_655
Co1 U2 2.847002 1_556
Co1 U1 2.847002 1_555
Co1 U0 2.917258 1_565
Co1 U3 2.917258 1_565
Co1 U0 2.929596 1_555
Co1 U3 2.929596 1_555
Co2 Ge1 2.439155 1_565
Co2 Ge0 2.439155 1_566
Co2 U2 2.846997 1_556
Co2 U1 2.846997 1_555
Co2 U0 2.917258 1_565
Co2 U3 2.917258 1_565
Co2 U3 2.929596 1_455
Co2 U0 2.929596 1_455
Co3 Ge1 2.440584 1_665
Co3 Ge0 2.440584 1_665
Co3 Co5 2.530478 1_555
Co3 Co4 2.530481 1_555
Co3 Co4 2.654483 1_665
Co3 Co5 2.654485 1_565
Co3 U3 2.852183 1_554
Co3 U0 2.852183 1_555
Co3 U2 2.921523 1_655
Co3 U1 2.921523 1_655
Co3 U2 2.921528 1_555
Co3 U1 2.921528 1_555
Co4 Ge1 2.439152 1_555
Co4 Ge0 2.439152 1_555
Co4 Co5 2.526972 1_555
Co4 Co5 2.653394 1_455
Co4 U3 2.847002 1_554
Co4 U0 2.847002 1_555
Co4 U1 2.917258 1_545
Co4 U2 2.917258 1_545
Co4 U2 2.929596 1_555
Co4 U1 2.929596 1_555
Co5 Ge0 2.439155 1_655
Co5 Ge1 2.439155 1_655
Co5 U3 2.846997 1_554
Co5 U0 2.846997 1_555
Co5 U1 2.917258 1_545
Co5 U2 2.917258 1_545
Co5 U1 2.929596 1_655
Co5 U2 2.929596 1_655
Ge0 U3 3.038288 1_454
Ge0 U2 3.038288 1_545
Ge0 U3 3.038293 1_554
Ge0 U2 3.038293 1_445
Ge0 U3 3.050470 1_444
Ge0 U2 3.050470 1_555
Ge1 U1 3.038288 1_545
Ge1 U0 3.038288 1_455
Ge1 U1 3.038293 1_445
Ge1 U0 3.038293 1_555
Ge1 U1 3.050470 1_555
Ge1 U0 3.050470 1_445
