# generated using pymatgen
data_Ca(CoO2)8
_symmetry_space_group_name_H-M   'P 1'
_cell_length_a   2.92719263
_cell_length_b   2.91378313
_cell_length_c   40.66620471
_cell_angle_alpha   90.36501424
_cell_angle_beta   89.59165579
_cell_angle_gamma   119.74537136
_symmetry_Int_Tables_number   1
_chemical_formula_structural   Ca(CoO2)8
_chemical_formula_sum   'Ca1 Co8 O16'
_cell_volume   301.13973576
_cell_formula_units_Z   1
loop_
 _symmetry_equiv_pos_site_id
 _symmetry_equiv_pos_as_xyz
  1  'x, y, z'
loop_
 _atom_site_type_symbol
 _atom_site_label
 _atom_site_symmetry_multiplicity
 _atom_site_fract_x
 _atom_site_fract_y
 _atom_site_fract_z
 _atom_site_occupancy
  Ca  Ca0  1  0.40813100  0.68691100  0.68791300  1
  Co  Co0  1  0.97198700  0.00014400  0.99999700  1
  Co  Co1  1  0.09161900  0.01511600  0.61732100  1
  Co  Co2  1  0.62696600  0.99263300  0.87547300  1
  Co  Co3  1  0.75030000  0.01154900  0.25051800  1
  Co  Co4  1  0.49032200  0.99279900  0.49948500  1
  Co  Co5  1  0.06544500  0.01793700  0.75748500  1
  Co  Co6  1  0.38642300  0.01075200  0.12478600  1
  Co  Co7  1  0.15129500  0.99878200  0.37475400  1
  O  O0  1  0.78559600  0.64281100  0.52308100  1
  O  O1  1  0.72197000  0.67652900  0.10252700  1
  O  O2  1  0.39747900  0.68528300  0.77780800  1
  O  O3  1  0.73897300  0.35381300  0.72486600  1
  O  O4  1  0.63948300  0.33193700  0.97775200  1
  O  O5  1  0.48623200  0.66424200  0.35251500  1
  O  O6  1  0.81637800  0.33334500  0.39698400  1
  O  O7  1  0.40909900  0.70213300  0.59606400  1
  O  O8  1  0.74863400  0.35432400  0.65104300  1
  O  O9  1  0.96164100  0.65813500  0.85321900  1
  O  O10  1  0.30454300  0.66835600  0.02223200  1
  O  O11  1  0.41778400  0.34338000  0.22827400  1
  O  O12  1  0.08284700  0.67973800  0.27275400  1
  O  O13  1  0.29205000  0.32720000  0.89769100  1
  O  O14  1  0.19436800  0.34220000  0.47592200  1
  O  O15  1  0.05088000  0.34500700  0.14703600  1
loop_
_geom_bond_atom_site_label_1
_geom_bond_atom_site_label_2
_geom_bond_distance
_geom_bond_site_symmetry_2
Ca0 O8 2.253956 1_455
Ca0 O3 2.255730 1_565
Ca0 O8 2.258165 1_555
Ca0 O3 2.260561 1_555
Ca0 O8 2.261826 1_565
Ca0 O3 2.264314 1_455
Co0 O10 1.912424 1_646
Co0 O4 1.912514 1_555
Co0 O10 1.914550 1_656
Co0 O4 1.914729 1_545
Co0 O10 1.918602 1_546
Co0 O4 1.918909 1_655
Co1 O7 1.806120 1_545
Co1 O7 1.943462 1_445
Co1 O7 1.944936 1_555
Co1 O8 2.165717 1_555
Co1 O8 2.166009 1_445
Co1 O8 2.193909 1_455
Co2 O9 1.911093 1_555
Co2 O13 1.911101 1_565
Co2 O13 1.913216 1_555
Co2 O9 1.914061 1_565
Co2 O13 1.920270 1_665
Co2 O9 1.921505 1_455
Co3 O12 1.912474 1_645
Co3 O11 1.912606 1_555
Co3 O12 1.914518 1_655
Co3 O11 1.914626 1_545
Co3 O12 1.918642 1_545
Co3 O11 1.918863 1_655
Co4 O14 1.898580 1_565
Co4 O0 1.899133 1_555
Co4 O0 1.902441 1_565
Co4 O14 1.903010 1_555
Co4 O14 2.025883 1_665
Co4 O0 2.028036 1_455
Co5 O2 1.877139 1_545
Co5 O2 1.877336 1_555
Co5 O2 1.884723 1_445
Co5 O3 2.137249 1_445
Co5 O3 2.143198 1_455
Co5 O3 2.160789 1_555
Co6 O15 1.912415 1_555
Co6 O1 1.912524 1_545
Co6 O15 1.914539 1_545
Co6 O1 1.914784 1_555
Co6 O15 1.919483 1_655
Co6 O1 1.919648 1_445
Co7 O6 1.911322 1_465
Co7 O5 1.911486 1_555
Co7 O6 1.913457 1_455
Co7 O5 1.913682 1_565
Co7 O6 1.920500 1_565
Co7 O5 1.920629 1_455
