# generated using pymatgen
data_MgZnBr4O7
_symmetry_space_group_name_H-M   'P 1'
_cell_length_a   7.37257200
_cell_length_b   12.79351600
_cell_length_c   11.07058958
_cell_angle_alpha   90.00000000
_cell_angle_beta   110.36390773
_cell_angle_gamma   90.00000000
_symmetry_Int_Tables_number   1
_chemical_formula_structural   MgZnBr4O7
_chemical_formula_sum   'Mg4 Zn4 Br16 O28'
_cell_volume   978.92992551
_cell_formula_units_Z   4
loop_
 _symmetry_equiv_pos_site_id
 _symmetry_equiv_pos_as_xyz
  1  'x, y, z'
loop_
 _atom_site_type_symbol
 _atom_site_label
 _atom_site_symmetry_multiplicity
 _atom_site_fract_x
 _atom_site_fract_y
 _atom_site_fract_z
 _atom_site_occupancy
  Mg  Mg0  1  0.50000000  0.00000000  0.50000000  1
  Mg  Mg1  1  0.50000000  0.50000000  0.00000000  1
  Mg  Mg2  1  0.50000000  0.00000000  0.00000000  1
  Mg  Mg3  1  0.50000000  0.50000000  0.50000000  1
  Zn  Zn0  1  0.21051400  0.21413700  0.15104100  1
  Zn  Zn1  1  0.21051400  0.28586300  0.65104100  1
  Zn  Zn2  1  0.78948600  0.78586300  0.84895900  1
  Zn  Zn3  1  0.78948600  0.71413700  0.34895900  1
  Br  Br0  1  0.90117300  0.34035400  0.04860800  1
  Br  Br1  1  0.90117300  0.15964600  0.54860800  1
  Br  Br2  1  0.09882700  0.65964600  0.95139200  1
  Br  Br3  1  0.09882700  0.84035400  0.45139200  1
  Br  Br4  1  0.17075000  0.98854500  0.17979000  1
  Br  Br5  1  0.17075000  0.51145500  0.67979000  1
  Br  Br6  1  0.82925000  0.01145500  0.82021000  1
  Br  Br7  1  0.82925000  0.48854500  0.32021000  1
  Br  Br8  1  0.49245500  0.32454700  0.26714700  1
  Br  Br9  1  0.49245500  0.17545300  0.76714700  1
  Br  Br10  1  0.50754500  0.67545300  0.73285300  1
  Br  Br11  1  0.50754500  0.82454700  0.23285300  1
  Br  Br12  1  0.14702700  0.19212700  0.37994200  1
  Br  Br13  1  0.14702700  0.30787300  0.87994200  1
  Br  Br14  1  0.85297300  0.80787300  0.62005800  1
  Br  Br15  1  0.85297300  0.69212700  0.12005800  1
  O  O0  1  0.25323800  0.90363000  0.37115300  1
  O  O1  1  0.25323800  0.59637000  0.87115300  1
  O  O2  1  0.74676200  0.09637000  0.62884700  1
  O  O3  1  0.74676200  0.40363000  0.12884700  1
  O  O4  1  0.36113000  0.14101900  0.50312600  1
  O  O5  1  0.36113000  0.35898100  0.00312600  1
  O  O6  1  0.63887000  0.85898100  0.49687400  1
  O  O7  1  0.63887000  0.64101900  0.99687400  1
  O  O8  1  0.53880400  0.06757800  0.33070800  1
  O  O9  1  0.53880400  0.43242200  0.83070800  1
  O  O10  1  0.46119600  0.93242200  0.66929200  1
  O  O11  1  0.46119600  0.56757800  0.16929200  1
  O  O12  1  0.50019100  0.14305000  0.92366800  1
  O  O13  1  0.50019100  0.35695000  0.42366800  1
  O  O14  1  0.49980900  0.85695000  0.07633200  1
  O  O15  1  0.49980900  0.64305000  0.57633200  1
  O  O16  1  0.21121300  0.08495800  0.06198200  1
  O  O17  1  0.21121300  0.41504200  0.56198200  1
  O  O18  1  0.78878700  0.91504200  0.93801800  1
  O  O19  1  0.78878700  0.58495800  0.43801800  1
  O  O20  1  0.68110000  0.05317500  0.18056300  1
  O  O21  1  0.68110000  0.44682500  0.68056300  1
  O  O22  1  0.31890000  0.94682500  0.81943700  1
  O  O23  1  0.31890000  0.55317500  0.31943700  1
  O  O24  1  0.67870400  0.02208900  0.29498900  1
  O  O25  1  0.67870400  0.47791100  0.79498900  1
  O  O26  1  0.32129600  0.97791100  0.70501100  1
  O  O27  1  0.32129600  0.52208900  0.20501100  1
loop_
_geom_bond_atom_site_label_1
_geom_bond_atom_site_label_2
_geom_bond_distance
_geom_bond_site_symmetry_2
Mg0 O4 2.080616 1_555
Mg0 O6 2.080616 1_545
Mg0 O8 2.171393 1_555
Mg0 O10 2.171393 1_545
Mg0 O2 2.249094 1_555
Mg0 O0 2.249094 1_545
Mg1 O5 2.080616 1_555
Mg1 O7 2.080616 1_554
Mg1 O9 2.171393 1_554
Mg1 O11 2.171393 1_555
Mg1 O3 2.249094 1_555
Mg1 O1 2.249094 1_554
Mg2 O14 2.015995 1_545
Mg2 O12 2.015995 1_554
Mg2 O20 2.093745 1_555
Mg2 O22 2.093745 1_544
Mg2 O16 2.683665 1_555
Mg2 O18 2.683665 1_544
Mg3 O13 2.015995 1_555
Mg3 O15 2.015995 1_555
Mg3 O21 2.093745 1_555
Mg3 O23 2.093745 1_555
Mg3 O19 2.683665 1_555
Mg3 O17 2.683665 1_555
Br0 O3 1.855841 1_555
Br0 Zn0 2.700885 1_655
Br1 O2 1.855841 1_555
Br1 Zn1 2.700885 1_655
Br2 O1 1.855841 1_555
Br2 Zn2 2.700885 1_455
Br3 O0 1.855841 1_555
Br3 Zn3 2.700885 1_455
Br4 O16 1.892655 1_565
Br4 O0 2.267470 1_555
Br5 O17 1.892655 1_555
Br5 O1 2.267470 1_555
Br6 O18 1.892655 1_545
Br6 O2 2.267470 1_555
Br7 O19 1.892655 1_555
Br7 O3 2.267470 1_555
Br8 O13 1.763193 1_555
Br8 Zn0 2.471566 1_555
Br9 O12 1.763193 1_555
Br9 Zn1 2.471566 1_555
Br10 O15 1.763193 1_555
Br10 Zn2 2.471566 1_555
Br11 O14 1.763193 1_555
Br11 Zn3 2.471566 1_555
Br12 O4 1.811281 1_555
Br12 Zn0 2.746882 1_555
Br13 O5 1.811281 1_556
Br13 Zn1 2.746882 1_555
Br14 O6 1.811281 1_555
Br14 Zn2 2.746882 1_555
Br15 O7 1.811281 1_554
Br15 Zn3 2.746882 1_555
O10 O26 1.357473 1_555
O11 O27 1.357473 1_555
O16 Zn0 1.925330 1_555
O17 Zn1 1.925330 1_555
O18 Zn2 1.925330 1_555
O19 Zn3 1.925330 1_555
O20 O24 1.333694 1_555
O21 O25 1.333694 1_555
O22 O26 1.333694 1_555
O23 O27 1.333694 1_555
O24 O8 1.357473 1_555
O25 O9 1.357473 1_555
