# generated using pymatgen
data_MgCr8Fe3O16
_symmetry_space_group_name_H-M   'P 1'
_cell_length_a   6.05259600
_cell_length_b   6.05259600
_cell_length_c   8.51046900
_cell_angle_alpha   90.00000000
_cell_angle_beta   90.00000000
_cell_angle_gamma   90.00000000
_symmetry_Int_Tables_number   1
_chemical_formula_structural   MgCr8Fe3O16
_chemical_formula_sum   'Mg1 Cr8 Fe3 O16'
_cell_volume   311.77182637
_cell_formula_units_Z   1
loop_
 _symmetry_equiv_pos_site_id
 _symmetry_equiv_pos_as_xyz
  1  'x, y, z'
loop_
 _atom_site_type_symbol
 _atom_site_label
 _atom_site_symmetry_multiplicity
 _atom_site_fract_x
 _atom_site_fract_y
 _atom_site_fract_z
 _atom_site_occupancy
  Mg  Mg0  1  0.50000000  0.50000000  0.50000000  1
  Cr  Cr0  1  0.25092400  0.00000000  0.37518300  1
  Cr  Cr1  1  0.74981800  0.50000000  0.87470000  1
  Cr  Cr2  1  0.74907600  0.00000000  0.37518300  1
  Cr  Cr3  1  0.25018200  0.50000000  0.87470000  1
  Cr  Cr4  1  0.50000000  0.25018200  0.12530000  1
  Cr  Cr5  1  0.00000000  0.74907600  0.62481700  1
  Cr  Cr6  1  0.50000000  0.74981800  0.12530000  1
  Cr  Cr7  1  0.00000000  0.25092400  0.62481700  1
  Fe  Fe0  1  0.00000000  0.00000000  0.00000000  1
  Fe  Fe1  1  0.50000000  0.00000000  0.74995400  1
  Fe  Fe2  1  0.00000000  0.50000000  0.25004600  1
  O  O0  1  0.72359900  0.00000000  0.13765600  1
  O  O1  1  0.22734400  0.50000000  0.63596600  1
  O  O2  1  0.27640100  0.00000000  0.13765600  1
  O  O3  1  0.77265600  0.50000000  0.63596600  1
  O  O4  1  0.50000000  0.77265600  0.36403400  1
  O  O5  1  0.00000000  0.27640100  0.86234400  1
  O  O6  1  0.50000000  0.22734400  0.36403400  1
  O  O7  1  0.00000000  0.72359900  0.86234400  1
  O  O8  1  0.27660300  0.50000000  0.11289800  1
  O  O9  1  0.77676300  0.00000000  0.61316500  1
  O  O10  1  0.72339700  0.50000000  0.11289800  1
  O  O11  1  0.22323700  0.00000000  0.61316500  1
  O  O12  1  0.50000000  0.72339700  0.88710200  1
  O  O13  1  0.00000000  0.22323700  0.38683500  1
  O  O14  1  0.50000000  0.27660300  0.88710200  1
  O  O15  1  0.00000000  0.77676300  0.38683500  1
loop_
_geom_bond_atom_site_label_1
_geom_bond_atom_site_label_2
_geom_bond_distance
_geom_bond_site_symmetry_2
Mg0 O6 2.015533 1_555
Mg0 O4 2.015533 1_555
Mg0 O1 2.015533 1_555
Mg0 O3 2.015533 1_555
Cr0 O2 2.027339 1_555
Cr0 O11 2.032259 1_555
Cr0 O13 2.035203 1_555
Cr0 O15 2.035203 1_545
Cr0 O6 2.043322 1_555
Cr0 O4 2.043322 1_545
Cr1 O14 2.031179 1_555
Cr1 O12 2.031179 1_555
Cr1 O10 2.033474 1_556
Cr1 O7 2.033613 1_655
Cr1 O5 2.033613 1_655
Cr1 O3 2.036435 1_555
Cr2 O0 2.027339 1_555
Cr2 O9 2.032259 1_555
Cr2 O15 2.035203 1_645
Cr2 O13 2.035203 1_655
Cr2 O6 2.043322 1_555
Cr2 O4 2.043322 1_545
Cr3 O14 2.031179 1_555
Cr3 O12 2.031179 1_555
Cr3 O8 2.033474 1_556
Cr3 O7 2.033613 1_555
Cr3 O5 2.033613 1_555
Cr3 O1 2.036435 1_555
Cr4 O8 2.031179 1_555
Cr4 O10 2.031179 1_555
Cr4 O14 2.033474 1_554
Cr4 O2 2.033613 1_555
Cr4 O0 2.033613 1_555
Cr4 O6 2.036435 1_555
Cr5 O7 2.027339 1_555
Cr5 O15 2.032259 1_555
Cr5 O9 2.035203 1_465
Cr5 O11 2.035203 1_565
Cr5 O1 2.043322 1_555
Cr5 O3 2.043322 1_455
Cr6 O8 2.031179 1_555
Cr6 O10 2.031179 1_555
Cr6 O12 2.033474 1_554
Cr6 O0 2.033613 1_565
Cr6 O2 2.033613 1_565
Cr6 O4 2.036435 1_555
Cr7 O5 2.027339 1_555
Cr7 O13 2.032259 1_555
Cr7 O11 2.035203 1_555
Cr7 O9 2.035203 1_455
Cr7 O1 2.043322 1_555
Cr7 O3 2.043322 1_455
Fe0 O0 2.042350 1_455
Fe0 O7 2.042350 1_544
Fe0 O2 2.042350 1_555
Fe0 O5 2.042350 1_554
Fe1 O9 2.039925 1_555
Fe1 O11 2.039925 1_555
Fe1 O14 2.040876 1_555
Fe1 O12 2.040876 1_545
Fe2 O13 2.039925 1_555
Fe2 O15 2.039925 1_555
Fe2 O10 2.040876 1_455
Fe2 O8 2.040876 1_555
