# generated using pymatgen
data_BaTb4SmO12
_symmetry_space_group_name_H-M   'P 1'
_cell_length_a   6.22189007
_cell_length_b   6.22189007
_cell_length_c   8.77464176
_cell_angle_alpha   90.00000000
_cell_angle_beta   90.00000000
_cell_angle_gamma   87.55970586
_symmetry_Int_Tables_number   1
_chemical_formula_structural   BaTb4SmO12
_chemical_formula_sum   'Ba1 Tb4 Sm1 O12'
_cell_volume   339.37514729
_cell_formula_units_Z   1
loop_
 _symmetry_equiv_pos_site_id
 _symmetry_equiv_pos_as_xyz
  1  'x, y, z'
loop_
 _atom_site_type_symbol
 _atom_site_label
 _atom_site_symmetry_multiplicity
 _atom_site_fract_x
 _atom_site_fract_y
 _atom_site_fract_z
 _atom_site_occupancy
  Ba  Ba0  1  0.55751730  0.44248270  0.50000000  1
  Tb  Tb0  1  0.47280028  0.98400246  0.23748516  1
  Tb  Tb1  1  0.47280028  0.98400246  0.76251484  1
  Tb  Tb2  1  0.01599754  0.52719972  0.76251484  1
  Tb  Tb3  1  0.01599754  0.52719972  0.23748516  1
  Sm  Sm0  1  0.93937757  0.06062243  0.00000000  1
  O  O0  1  0.29364576  0.30098003  0.28665878  1
  O  O1  1  0.69901997  0.70635424  0.28665878  1
  O  O2  1  0.69901997  0.70635424  0.71334122  1
  O  O3  1  0.29364576  0.30098003  0.71334122  1
  O  O4  1  0.15510071  0.84489929  0.16353410  1
  O  O5  1  0.78381397  0.21618603  0.24656487  1
  O  O6  1  0.78381397  0.21618603  0.75343513  1
  O  O7  1  0.15510071  0.84489929  0.83646590  1
  O  O8  1  0.58942672  0.99071392  0.00000000  1
  O  O9  1  0.49972884  0.92899297  0.50000000  1
  O  O10  1  0.00928608  0.41057328  -0.00000000  1
  O  O11  1  0.07100703  0.50027116  0.50000000  1
loop_
_geom_bond_atom_site_label_1
_geom_bond_atom_site_label_2
_geom_bond_distance
_geom_bond_site_symmetry_2
Ba0 O3 2.664210 1_555
Ba0 O0 2.664210 1_555
Ba0 O1 2.664210 1_555
Ba0 O2 2.664210 1_555
Ba0 O6 2.956580 1_555
Ba0 O5 2.956580 1_555
Ba0 O11 3.033052 1_555
Ba0 O9 3.033052 1_555
Ba0 O9 3.230222 1_545
Ba0 O11 3.230222 1_655
O0 Tb3 2.223614 1_555
O0 Tb0 2.265183 1_545
O1 Tb0 2.223614 1_555
O1 Tb3 2.265183 1_655
O2 Tb1 2.223614 1_555
O2 Tb2 2.265183 1_655
O3 Tb2 2.223614 1_555
O3 Tb1 2.265183 1_545
O4 Tb3 2.285415 1_555
O4 Tb0 2.285415 1_555
O4 Sm0 2.347064 1_465
O5 Tb0 2.464937 1_545
O5 Tb3 2.464937 1_655
O5 Sm0 2.544542 1_555
O6 Tb1 2.464937 1_545
O6 Tb2 2.464937 1_655
O6 Sm0 2.544542 1_556
O7 Tb2 2.285415 1_555
O7 Tb1 2.285415 1_555
O7 Sm0 2.347064 1_466
O8 Tb0 2.207553 1_555
O8 Tb1 2.207553 1_554
O8 Sm0 2.238464 1_565
O9 Tb1 2.333736 1_555
O9 Tb0 2.333736 1_555
O10 Tb3 2.207553 1_555
O10 Tb2 2.207553 1_554
O10 Sm0 2.238464 1_455
O11 Tb3 2.333736 1_555
O11 Tb2 2.333736 1_555
