# generated using pymatgen
data_AgMo12PbS16
_symmetry_space_group_name_H-M   'P 1'
_cell_length_a   9.24944866
_cell_length_b   9.24944866
_cell_length_c   9.24944901
_cell_angle_alpha   60.33407188
_cell_angle_beta   60.33407188
_cell_angle_gamma   60.33406952
_symmetry_Int_Tables_number   1
_chemical_formula_structural   AgMo12PbS16
_chemical_formula_sum   'Ag1 Mo12 Pb1 S16'
_cell_volume   563.77090554
_cell_formula_units_Z   1
loop_
 _symmetry_equiv_pos_site_id
 _symmetry_equiv_pos_as_xyz
  1  'x, y, z'
loop_
 _atom_site_type_symbol
 _atom_site_label
 _atom_site_symmetry_multiplicity
 _atom_site_fract_x
 _atom_site_fract_y
 _atom_site_fract_z
 _atom_site_occupancy
  Ag  Ag0  1  0.00000000  0.00000000  0.00000000  1
  Mo  Mo0  1  0.18348900  0.37230500  0.03821700  1
  Mo  Mo1  1  0.68447300  0.87707400  0.53632700  1
  Mo  Mo2  1  0.37230500  0.03821700  0.18348900  1
  Mo  Mo3  1  0.87707400  0.53632700  0.68447300  1
  Mo  Mo4  1  0.03821700  0.18348900  0.37230500  1
  Mo  Mo5  1  0.53632700  0.68447300  0.87707400  1
  Mo  Mo6  1  0.31552700  0.12292600  0.46367300  1
  Mo  Mo7  1  0.81651100  0.62769500  0.96178300  1
  Mo  Mo8  1  0.12292600  0.46367300  0.31552700  1
  Mo  Mo9  1  0.62769500  0.96178300  0.81651100  1
  Mo  Mo10  1  0.46367300  0.31552700  0.12292600  1
  Mo  Mo11  1  0.96178300  0.81651100  0.62769500  1
  Pb  Pb0  1  0.50000000  0.50000000  0.50000000  1
  S  S0  1  0.11538400  0.11538400  0.11538400  1
  S  S1  1  0.62056600  0.62056600  0.62056600  1
  S  S2  1  0.37943400  0.37943400  0.37943400  1
  S  S3  1  0.88461600  0.88461600  0.88461600  1
  S  S4  1  0.24090300  0.88557300  0.49699100  1
  S  S5  1  0.73911100  0.39138300  0.99493700  1
  S  S6  1  0.88557300  0.49699100  0.24090300  1
  S  S7  1  0.39138300  0.99493700  0.73911100  1
  S  S8  1  0.49699100  0.24090300  0.88557300  1
  S  S9  1  0.99493700  0.73911100  0.39138300  1
  S  S10  1  0.26088900  0.60861700  0.00506300  1
  S  S11  1  0.75909700  0.11442700  0.50300900  1
  S  S12  1  0.60861700  0.00506300  0.26088900  1
  S  S13  1  0.11442700  0.50300900  0.75909700  1
  S  S14  1  0.00506300  0.26088900  0.60861700  1
  S  S15  1  0.50300900  0.75909700  0.11442700  1
loop_
_geom_bond_atom_site_label_1
_geom_bond_atom_site_label_2
_geom_bond_distance
_geom_bond_site_symmetry_2
Ag0 S0 2.607570 1_555
Ag0 S3 2.607570 1_444
Mo0 S0 2.431294 1_555
Mo0 S8 2.456888 1_554
Mo0 S10 2.460131 1_555
Mo0 S13 2.512622 1_554
Mo0 S6 2.513670 1_455
Mo1 S1 2.384943 1_555
Mo1 S9 2.434576 1_555
Mo1 S11 2.451698 1_565
Mo1 S7 2.474050 1_555
Mo1 S12 2.519125 1_565
Mo2 S0 2.431294 1_555
Mo2 S4 2.456888 1_545
Mo2 S12 2.460131 1_555
Mo2 S15 2.512621 1_545
Mo2 S8 2.513670 1_554
Mo3 S1 2.384943 1_555
Mo3 S5 2.434576 1_555
Mo3 S13 2.451698 1_655
Mo3 S9 2.474050 1_555
Mo3 S14 2.519125 1_655
Mo4 S0 2.431294 1_555
Mo4 S6 2.456888 1_455
Mo4 S14 2.460132 1_555
Mo4 S11 2.512622 1_455
Mo4 S4 2.513670 1_545
Mo5 S1 2.384943 1_555
Mo5 S7 2.434576 1_555
Mo5 S15 2.451698 1_556
Mo5 S5 2.474050 1_555
Mo5 S10 2.519125 1_556
Mo6 S2 2.384943 1_555
Mo6 S14 2.434576 1_555
Mo6 S4 2.451698 1_545
Mo6 S12 2.474050 1_555
Mo6 S7 2.519125 1_545
Mo7 S3 2.431294 1_555
Mo7 S15 2.456888 1_556
Mo7 S5 2.460131 1_555
Mo7 S6 2.512622 1_556
Mo7 S13 2.513670 1_655
Mo8 S2 2.384943 1_555
Mo8 S10 2.434576 1_555
Mo8 S6 2.451698 1_455
Mo8 S14 2.474050 1_555
Mo8 S9 2.519125 1_455
Mo9 S3 2.431294 1_555
Mo9 S11 2.456888 1_565
Mo9 S7 2.460131 1_555
Mo9 S8 2.512621 1_565
Mo9 S15 2.513670 1_556
Mo10 S2 2.384943 1_555
Mo10 S12 2.434576 1_555
Mo10 S8 2.451698 1_554
Mo10 S10 2.474050 1_555
Mo10 S5 2.519125 1_554
Mo11 S3 2.431294 1_555
Mo11 S13 2.456888 1_655
Mo11 S9 2.460132 1_555
Mo11 S4 2.512622 1_655
Mo11 S11 2.513670 1_565
Pb0 S1 2.724678 1_555
Pb0 S2 2.724678 1_555
Pb0 S4 3.157571 1_555
Pb0 S11 3.157571 1_555
Pb0 S6 3.157572 1_555
Pb0 S13 3.157572 1_555
Pb0 S8 3.157572 1_555
Pb0 S15 3.157572 1_555
