# generated using pymatgen
data_Y5(Si5Ir2)2
_symmetry_space_group_name_H-M   'P 1'
_cell_length_a   12.66164200
_cell_length_b   12.66164200
_cell_length_c   4.28521600
_cell_angle_alpha   90.00000000
_cell_angle_beta   90.00000000
_cell_angle_gamma   90.00000000
_symmetry_Int_Tables_number   1
_chemical_formula_structural   Y5(Si5Ir2)2
_chemical_formula_sum   'Y10 Si20 Ir8'
_cell_volume   686.99373682
_cell_formula_units_Z   2
loop_
 _symmetry_equiv_pos_site_id
 _symmetry_equiv_pos_as_xyz
  1  'x, y, z'
loop_
 _atom_site_type_symbol
 _atom_site_label
 _atom_site_symmetry_multiplicity
 _atom_site_fract_x
 _atom_site_fract_y
 _atom_site_fract_z
 _atom_site_occupancy
  Y  Y0  1  0.50000000  0.50000000  0.00000000  1
  Y  Y1  1  0.00000000  0.00000000  0.00000000  1
  Y  Y2  1  0.67576200  0.17576200  0.50000000  1
  Y  Y3  1  0.32423800  0.82423800  0.50000000  1
  Y  Y4  1  0.17576200  0.32423800  0.50000000  1
  Y  Y5  1  0.82423800  0.67576200  0.50000000  1
  Y  Y6  1  0.88362500  0.38362500  0.50000000  1
  Y  Y7  1  0.11637500  0.61637500  0.50000000  1
  Y  Y8  1  0.38362500  0.11637500  0.50000000  1
  Y  Y9  1  0.61637500  0.88362500  0.50000000  1
  Si  Si0  1  0.56612200  0.06612200  0.00000000  1
  Si  Si1  1  0.43387800  0.93387800  0.00000000  1
  Si  Si2  1  0.06612200  0.43387800  0.00000000  1
  Si  Si3  1  0.93387800  0.56612200  0.00000000  1
  Si  Si4  1  0.66350900  0.70041700  0.00000000  1
  Si  Si5  1  0.33649100  0.29958300  0.00000000  1
  Si  Si6  1  0.16350900  0.79958300  0.00000000  1
  Si  Si7  1  0.83649100  0.20041700  0.00000000  1
  Si  Si8  1  0.29958300  0.66350900  0.00000000  1
  Si  Si9  1  0.70041700  0.33649100  0.00000000  1
  Si  Si10  1  0.20041700  0.16350900  0.00000000  1
  Si  Si11  1  0.79958300  0.83649100  0.00000000  1
  Si  Si12  1  0.65733100  0.50333200  0.50000000  1
  Si  Si13  1  0.34266900  0.49666800  0.50000000  1
  Si  Si14  1  0.15733100  0.99666800  0.50000000  1
  Si  Si15  1  0.84266900  0.00333200  0.50000000  1
  Si  Si16  1  0.49666800  0.65733100  0.50000000  1
  Si  Si17  1  0.50333200  0.34266900  0.50000000  1
  Si  Si18  1  0.00333200  0.15733100  0.50000000  1
  Si  Si19  1  0.99666800  0.84266900  0.50000000  1
  Ir  Ir0  1  0.74539200  0.52054500  0.00000000  1
  Ir  Ir1  1  0.25460800  0.47945500  0.00000000  1
  Ir  Ir2  1  0.24539200  0.97945500  0.00000000  1
  Ir  Ir3  1  0.75460800  0.02054500  0.00000000  1
  Ir  Ir4  1  0.47945500  0.74539200  0.00000000  1
  Ir  Ir5  1  0.52054500  0.25460800  0.00000000  1
  Ir  Ir6  1  0.02054500  0.24539200  0.00000000  1
  Ir  Ir7  1  0.97945500  0.75460800  0.00000000  1
loop_
_geom_bond_atom_site_label_1
_geom_bond_atom_site_label_2
_geom_bond_distance
_geom_bond_site_symmetry_2
Si0 Si1 2.367996 1_545
Si0 Y2 2.906044 1_554
Si0 Y2 2.906044 1_555
Si0 Y8 3.214812 1_554
Si0 Y8 3.214812 1_555
Si0 Y9 3.214812 1_544
Si0 Y9 3.214812 1_545
Si1 Y3 2.906044 1_554
Si1 Y3 2.906044 1_555
Si1 Y8 3.214812 1_565
Si1 Y8 3.214812 1_564
Si1 Y9 3.214812 1_555
Si1 Y9 3.214812 1_554
Si2 Si3 2.367996 1_455
Si2 Y4 2.906044 1_555
Si2 Y4 2.906044 1_554
Si2 Y7 3.214812 1_555
Si2 Y7 3.214812 1_554
Si2 Y6 3.214812 1_455
Si2 Y6 3.214812 1_454
Si3 Y5 2.906044 1_555
Si3 Y5 2.906044 1_554
Si3 Y7 3.214812 1_655
Si3 Y7 3.214812 1_654
Si3 Y6 3.214812 1_555
Si3 Y6 3.214812 1_554
Si4 Y5 2.971502 1_555
Si4 Y5 2.971502 1_554
Si4 Y9 3.213721 1_554
Si4 Y9 3.213721 1_555
Si4 Y0 3.274991 1_555
Si5 Y4 2.971502 1_555
Si5 Y4 2.971502 1_554
Si5 Y8 3.213721 1_555
Si5 Y8 3.213721 1_554
Si5 Y0 3.274991 1_555
Si6 Si8 2.436577 1_555
Si6 Y3 2.971502 1_555
Si6 Y3 2.971502 1_554
Si6 Y7 3.213721 1_555
Si6 Y7 3.213721 1_554
Si6 Y1 3.274991 1_565
Si7 Si9 2.436577 1_555
Si7 Y2 2.971502 1_554
Si7 Y2 2.971502 1_555
Si7 Y6 3.213721 1_555
Si7 Y6 3.213721 1_554
Si7 Y1 3.274991 1_655
Si8 Y3 2.971502 1_554
Si8 Y3 2.971502 1_555
Si8 Y7 3.213721 1_555
Si8 Y7 3.213721 1_554
Si8 Y0 3.274991 1_555
Si9 Y2 2.971502 1_554
Si9 Y2 2.971502 1_555
Si9 Y6 3.213721 1_555
Si9 Y6 3.213721 1_554
Si9 Y0 3.274991 1_555
Si10 Si5 2.436577 1_555
Si10 Y4 2.971502 1_555
Si10 Y4 2.971502 1_554
Si10 Y8 3.213721 1_554
Si10 Y8 3.213721 1_555
Si10 Y1 3.274991 1_555
Si11 Si4 2.436577 1_555
Si11 Y5 2.971502 1_555
Si11 Y5 2.971502 1_554
Si11 Y9 3.213721 1_554
Si11 Y9 3.213721 1_555
Si11 Y1 3.274991 1_665
Si12 Si17 2.817842 1_555
Si12 Si16 2.817842 1_555
Si12 Y0 2.925899 1_556
Si12 Y0 2.925899 1_555
Si12 Y5 3.038532 1_555
Si12 Y6 3.241448 1_555
Si13 Si17 2.817842 1_555
Si13 Si16 2.817842 1_555
Si13 Y0 2.925899 1_556
Si13 Y0 2.925899 1_555
Si13 Y4 3.038532 1_555
Si13 Y7 3.241448 1_555
Si14 Si19 2.817842 1_455
Si14 Si18 2.817842 1_565
Si14 Y1 2.925899 1_565
Si14 Y1 2.925899 1_566
Si14 Y3 3.038532 1_555
Si14 Y8 3.241448 1_565
Si15 Si18 2.817842 1_655
Si15 Si19 2.817842 1_545
Si15 Y1 2.925899 1_655
Si15 Y1 2.925899 1_656
Si15 Y2 3.038532 1_555
Si15 Y9 3.241448 1_545
Si16 Y0 2.925899 1_556
Si16 Y0 2.925899 1_555
Si16 Y3 3.038532 1_555
Si16 Y9 3.241448 1_555
Si17 Y0 2.925899 1_556
Si17 Y0 2.925899 1_555
Si17 Y2 3.038532 1_555
Si17 Y8 3.241448 1_555
Si18 Y1 2.925899 1_555
Si18 Y1 2.925899 1_556
Si18 Y4 3.038532 1_555
Si18 Y6 3.241448 1_455
Si19 Y1 2.925899 1_665
Si19 Y1 2.925899 1_666
Si19 Y5 3.038532 1_555
Si19 Y7 3.241448 1_655
Ir0 Si9 2.398993 1_555
Ir0 Si12 2.425178 1_554
Ir0 Si12 2.425178 1_555
Ir0 Si3 2.455322 1_555
Ir0 Si4 2.502357 1_555
Ir0 Y5 3.074057 1_555
Ir0 Y5 3.074057 1_554
Ir0 Y0 3.117936 1_555
Ir0 Y6 3.264912 1_554
Ir0 Y6 3.264912 1_555
Ir1 Si8 2.398993 1_555
Ir1 Si13 2.425178 1_554
Ir1 Si13 2.425178 1_555
Ir1 Si2 2.455322 1_555
Ir1 Si5 2.502357 1_555
Ir1 Y4 3.074057 1_554
Ir1 Y4 3.074057 1_555
Ir1 Y0 3.117936 1_555
Ir1 Y7 3.264912 1_554
Ir1 Y7 3.264912 1_555
Ir2 Si10 2.398993 1_565
Ir2 Si14 2.425178 1_555
Ir2 Si14 2.425178 1_554
Ir2 Si1 2.455322 1_555
Ir2 Si6 2.502357 1_555
Ir2 Y3 3.074057 1_554
Ir2 Y3 3.074057 1_555
Ir2 Y1 3.117936 1_565
Ir2 Y8 3.264912 1_564
Ir2 Y8 3.264912 1_565
Ir3 Si11 2.398993 1_545
Ir3 Si15 2.425178 1_555
Ir3 Si15 2.425178 1_554
Ir3 Si0 2.455322 1_555
Ir3 Si7 2.502357 1_555
Ir3 Y2 3.074057 1_554
Ir3 Y2 3.074057 1_555
Ir3 Y1 3.117936 1_655
Ir3 Y9 3.264912 1_544
Ir3 Y9 3.264912 1_545
Ir4 Si4 2.398993 1_555
Ir4 Si16 2.425178 1_555
Ir4 Si16 2.425178 1_554
Ir4 Si1 2.455322 1_555
Ir4 Si8 2.502357 1_555
Ir4 Y3 3.074057 1_555
Ir4 Y3 3.074057 1_554
Ir4 Y0 3.117936 1_555
Ir4 Y9 3.264912 1_554
Ir4 Y9 3.264912 1_555
Ir5 Si5 2.398993 1_555
Ir5 Si17 2.425178 1_555
Ir5 Si17 2.425178 1_554
Ir5 Si0 2.455322 1_555
Ir5 Si9 2.502357 1_555
Ir5 Y2 3.074057 1_555
Ir5 Y2 3.074057 1_554
Ir5 Y0 3.117936 1_555
Ir5 Y8 3.264912 1_555
Ir5 Y8 3.264912 1_554
Ir6 Si7 2.398993 1_455
Ir6 Si18 2.425178 1_554
Ir6 Si18 2.425178 1_555
Ir6 Si2 2.455322 1_555
Ir6 Si10 2.502357 1_555
Ir6 Y4 3.074057 1_554
Ir6 Y4 3.074057 1_555
Ir6 Y1 3.117936 1_555
Ir6 Y6 3.264912 1_455
Ir6 Y6 3.264912 1_454
Ir7 Si6 2.398993 1_655
Ir7 Si19 2.425178 1_554
Ir7 Si19 2.425178 1_555
Ir7 Si3 2.455322 1_555
Ir7 Si11 2.502357 1_555
Ir7 Y5 3.074057 1_555
Ir7 Y5 3.074057 1_554
Ir7 Y1 3.117936 1_665
Ir7 Y7 3.264912 1_655
Ir7 Y7 3.264912 1_654
