# generated using pymatgen
data_SrHfMg14
_symmetry_space_group_name_H-M   'P 1'
_cell_length_a   6.58967176
_cell_length_b   6.58967119
_cell_length_c   10.34909300
_cell_angle_alpha   90.00000000
_cell_angle_beta   90.00000000
_cell_angle_gamma   120.00000286
_symmetry_Int_Tables_number   1
_chemical_formula_structural   SrHfMg14
_chemical_formula_sum   'Sr1 Hf1 Mg14'
_cell_volume   389.18889175
_cell_formula_units_Z   1
loop_
 _symmetry_equiv_pos_site_id
 _symmetry_equiv_pos_as_xyz
  1  'x, y, z'
loop_
 _atom_site_type_symbol
 _atom_site_label
 _atom_site_symmetry_multiplicity
 _atom_site_fract_x
 _atom_site_fract_y
 _atom_site_fract_z
 _atom_site_occupancy
  Sr  Sr0  1  0.16666700  0.33333300  0.12500000  1
  Hf  Hf0  1  0.16666700  0.33333300  0.62500000  1
  Mg  Mg0  1  0.17649597  0.83824749  0.12500000  1
  Mg  Mg1  1  0.16715552  0.83357726  0.62500000  1
  Mg  Mg2  1  0.66175251  0.32350403  0.12500000  1
  Mg  Mg3  1  0.66642274  0.33284448  0.62500000  1
  Mg  Mg4  1  0.66175251  0.83824749  0.12500000  1
  Mg  Mg5  1  0.66642274  0.83357726  0.62500000  1
  Mg  Mg6  1  0.33579533  0.16420467  0.38633886  1
  Mg  Mg7  1  0.33579533  0.16420467  0.86366114  1
  Mg  Mg8  1  0.33579533  0.67159166  0.38633886  1
  Mg  Mg9  1  0.33579533  0.67159166  0.86366114  1
  Mg  Mg10  1  0.82840834  0.16420467  0.38633886  1
  Mg  Mg11  1  0.82840834  0.16420467  0.86366114  1
  Mg  Mg12  1  0.83333300  0.66666700  0.37275860  1
  Mg  Mg13  1  0.83333300  0.66666700  0.87724140  1
loop_
_geom_bond_atom_site_label_1
_geom_bond_atom_site_label_2
_geom_bond_distance
_geom_bond_site_symmetry_2
Hf0 Mg6 3.134784 1_555
Hf0 Mg7 3.134784 1_555
Hf0 Mg8 3.134790 1_555
Hf0 Mg9 3.134790 1_555
Hf0 Mg10 3.134791 1_455
Hf0 Mg11 3.134791 1_455
Hf0 Mg1 3.294837 1_555
Hf0 Mg5 3.294837 1_555
Hf0 Mg5 3.294837 1_445
Hf0 Mg1 3.294837 1_545
Hf0 Mg3 3.294837 1_455
Hf0 Mg3 3.294837 1_555
Mg0 Mg2 3.197681 1_565
Mg0 Mg4 3.197681 1_555
Mg0 Mg12 3.226407 1_455
Mg0 Mg13 3.226407 1_454
Mg0 Mg9 3.282649 1_554
Mg0 Mg8 3.282649 1_555
Mg0 Mg7 3.282655 1_564
Mg0 Mg6 3.282655 1_565
Mg0 Sr0 3.295313 1_565
Mg0 Sr0 3.295313 1_555
Mg0 Mg2 3.391990 1_455
Mg0 Mg4 3.391990 1_455
Mg1 Mg8 3.108232 1_555
Mg1 Mg9 3.108232 1_555
Mg1 Mg6 3.108239 1_565
Mg1 Mg7 3.108239 1_565
Mg1 Mg13 3.231691 1_455
Mg1 Mg12 3.231691 1_455
Mg1 Mg3 3.290007 1_565
Mg1 Mg5 3.290007 1_555
Mg1 Mg3 3.299664 1_455
Mg1 Mg5 3.299665 1_455
Mg2 Mg4 3.197681 1_545
Mg2 Mg7 3.282656 1_554
Mg2 Mg6 3.282656 1_555
Mg2 Sr0 3.295313 1_555
Mg2 Sr0 3.295313 1_655
Mg2 Mg4 3.391990 1_555
Mg3 Mg6 3.108239 1_555
Mg3 Mg7 3.108239 1_555
Mg3 Mg5 3.290007 1_545
Mg3 Mg5 3.299664 1_555
Mg4 Mg9 3.282655 1_554
Mg4 Mg8 3.282655 1_555
Mg4 Sr0 3.295313 1_555
Mg4 Sr0 3.295313 1_665
Mg5 Mg8 3.108239 1_555
Mg5 Mg9 3.108239 1_555
Mg6 Mg8 3.246158 1_545
Mg6 Sr0 3.322845 1_555
Mg6 Mg8 3.343513 1_555
Mg7 Mg9 3.246158 1_545
Mg7 Sr0 3.322845 1_556
Mg7 Mg9 3.343513 1_555
Mg8 Sr0 3.322852 1_555
Mg9 Sr0 3.322852 1_556
Mg10 Mg3 3.108232 1_555
Mg10 Mg5 3.108239 1_545
Mg10 Mg8 3.246158 1_545
Mg10 Mg6 3.246158 1_555
Mg10 Mg2 3.282649 1_555
Mg10 Mg4 3.282655 1_545
Mg10 Mg12 3.297951 1_555
Mg10 Mg12 3.297951 1_545
Mg10 Sr0 3.322852 1_655
Mg10 Mg8 3.343513 1_655
Mg10 Mg6 3.343514 1_655
Mg11 Mg3 3.108232 1_555
Mg11 Mg5 3.108239 1_545
Mg11 Mg9 3.246158 1_545
Mg11 Mg7 3.246158 1_555
Mg11 Mg2 3.282649 1_556
Mg11 Mg4 3.282655 1_546
Mg11 Mg13 3.297951 1_555
Mg11 Mg13 3.297951 1_545
Mg11 Sr0 3.322852 1_656
Mg11 Mg9 3.343513 1_655
Mg11 Mg7 3.343514 1_655
Mg12 Mg4 3.226400 1_555
Mg12 Mg2 3.226407 1_555
Mg12 Mg5 3.231685 1_555
Mg12 Mg3 3.231691 1_555
Mg12 Mg6 3.297951 1_555
Mg12 Mg6 3.297951 1_665
Mg12 Mg8 3.297952 1_655
Mg12 Mg8 3.297952 1_555
Mg13 Mg4 3.226400 1_556
Mg13 Mg2 3.226407 1_556
Mg13 Mg5 3.231685 1_555
Mg13 Mg3 3.231691 1_555
Mg13 Mg7 3.297951 1_555
Mg13 Mg7 3.297951 1_665
Mg13 Mg9 3.297952 1_555
Mg13 Mg9 3.297952 1_655
