# generated using pymatgen
data_Sr2VCu2O7
_symmetry_space_group_name_H-M   'P 1'
_cell_length_a   13.08792113
_cell_length_b   13.08792113
_cell_length_c   5.26914976
_cell_angle_alpha   78.42636232
_cell_angle_beta   78.42636232
_cell_angle_gamma   146.58677099
_symmetry_Int_Tables_number   1
_chemical_formula_structural   Sr2VCu2O7
_chemical_formula_sum   'Sr4 V2 Cu4 O14'
_cell_volume   355.96326042
_cell_formula_units_Z   2
loop_
 _symmetry_equiv_pos_site_id
 _symmetry_equiv_pos_as_xyz
  1  'x, y, z'
loop_
 _atom_site_type_symbol
 _atom_site_label
 _atom_site_symmetry_multiplicity
 _atom_site_fract_x
 _atom_site_fract_y
 _atom_site_fract_z
 _atom_site_occupancy
  Sr  Sr0  1  0.37376000  0.14996100  0.00695300  1
  Sr  Sr1  1  0.62790000  0.85125300  0.02661200  1
  Sr  Sr2  1  0.85125300  0.62790000  0.02661200  1
  Sr  Sr3  1  0.14996100  0.37376000  0.00695300  1
  V  V0  1  0.83106400  0.83106400  0.37036200  1
  V  V1  1  0.18980300  0.18980300  0.52068000  1
  Cu  Cu0  1  0.43626300  0.05841900  0.52401700  1
  Cu  Cu1  1  0.56442000  0.94292100  0.51197300  1
  Cu  Cu2  1  0.94292100  0.56442000  0.51197300  1
  Cu  Cu3  1  0.05841900  0.43626300  0.52401700  1
  O  O0  1  0.13292800  0.13292800  0.21161300  1
  O  O1  1  0.86039100  0.86039100  0.99971600  1
  O  O2  1  0.67582500  0.32518500  0.02064200  1
  O  O3  1  0.32720400  0.67642000  0.51408300  1
  O  O4  1  0.67642000  0.32720400  0.51408300  1
  O  O5  1  0.32518500  0.67582500  0.02064200  1
  O  O6  1  0.17153500  0.82761700  0.02197600  1
  O  O7  1  0.82937900  0.17115000  0.51498100  1
  O  O8  1  0.17115000  0.82937900  0.51498100  1
  O  O9  1  0.82761700  0.17153500  0.02197600  1
  O  O10  1  0.75215100  0.63521400  0.59819000  1
  O  O11  1  0.23699600  0.36341600  0.48520800  1
  O  O12  1  0.36341600  0.23699600  0.48520800  1
  O  O13  1  0.63521400  0.75215100  0.59819000  1
loop_
_geom_bond_atom_site_label_1
_geom_bond_atom_site_label_2
_geom_bond_distance
_geom_bond_site_symmetry_2
Cu0 O4 1.912654 1_555
Cu0 O6 1.926966 1_546
Cu0 O2 1.930716 1_555
Cu0 O8 1.946003 1_545
Cu1 O9 1.899868 1_565
Cu1 O7 1.922612 1_565
Cu1 O3 1.922811 1_555
Cu1 O5 1.951392 1_556
Cu2 O6 1.899868 1_655
Cu2 O8 1.922612 1_655
Cu2 O4 1.922811 1_555
Cu2 O2 1.951392 1_556
Cu3 O3 1.912654 1_555
Cu3 O9 1.926966 1_456
Cu3 O5 1.930716 1_555
Cu3 O7 1.946003 1_455
O0 V0 1.790861 1_445
O0 V1 1.951426 1_555
O0 Sr3 2.917919 1_555
O0 Sr0 2.917919 1_555
O1 V0 1.805905 1_556
O1 V1 1.944810 1_665
O1 Sr2 2.916470 1_556
O1 Sr1 2.916470 1_556
O2 Sr2 2.421198 1_555
O2 Sr0 2.436977 1_555
O3 Sr1 2.423503 1_555
O3 Sr3 2.435398 1_556
O4 Sr2 2.423503 1_555
O4 Sr0 2.435398 1_556
O5 Sr1 2.421198 1_555
O5 Sr3 2.436977 1_555
O6 Sr0 2.439410 1_565
O6 Sr2 2.458802 1_455
O7 Sr3 2.423322 1_655
O7 Sr1 2.436750 1_546
O8 Sr0 2.423322 1_565
O8 Sr2 2.436750 1_456
O9 Sr3 2.439410 1_655
O9 Sr1 2.458802 1_545
O10 V0 1.710653 1_555
O10 Sr0 2.687592 1_556
O10 Sr2 2.843034 1_556
O10 Sr2 3.085047 1_555
O11 V1 1.737741 1_555
O11 Sr1 2.663660 1_555
O11 Sr3 2.832660 1_556
O11 Sr3 2.989759 1_555
O11 Sr1 3.257813 1_446
O12 V1 1.737741 1_555
O12 Sr2 2.663660 1_555
O12 Sr0 2.832660 1_556
O12 Sr0 2.989759 1_555
O12 Sr2 3.257813 1_446
O13 V0 1.710653 1_555
O13 Sr3 2.687592 1_556
O13 Sr1 2.843034 1_556
O13 Sr1 3.085047 1_555
