# generated using pymatgen
data_Sb3P3O13
_symmetry_space_group_name_H-M   'P 1'
_cell_length_a   6.71935500
_cell_length_b   7.82580000
_cell_length_c   11.40780401
_cell_angle_alpha   86.78953072
_cell_angle_beta   90.00000000
_cell_angle_gamma   90.00000000
_symmetry_Int_Tables_number   1
_chemical_formula_structural   Sb3P3O13
_chemical_formula_sum   'Sb6 P6 O26'
_cell_volume   598.93024158
_cell_formula_units_Z   2
loop_
 _symmetry_equiv_pos_site_id
 _symmetry_equiv_pos_as_xyz
  1  'x, y, z'
loop_
 _atom_site_type_symbol
 _atom_site_label
 _atom_site_symmetry_multiplicity
 _atom_site_fract_x
 _atom_site_fract_y
 _atom_site_fract_z
 _atom_site_occupancy
  Sb  Sb0  1  0.25000000  0.65103900  0.20107000  1
  Sb  Sb1  1  0.75000000  0.34896100  0.79893000  1
  Sb  Sb2  1  0.25000000  0.25084400  0.46900500  1
  Sb  Sb3  1  0.50000000  0.00000000  0.00000000  1
  Sb  Sb4  1  0.75000000  0.74915600  0.53099500  1
  Sb  Sb5  1  0.00000000  0.00000000  0.00000000  1
  P  P0  1  0.25000000  0.81970400  0.47219100  1
  P  P1  1  0.75000000  0.18029600  0.52780900  1
  P  P2  1  0.25000000  0.24515300  0.77138500  1
  P  P3  1  0.75000000  0.75484700  0.22861500  1
  P  P4  1  0.75000000  0.66836900  0.88146700  1
  P  P5  1  0.25000000  0.33163100  0.11853300  1
  O  O0  1  0.75000000  0.60504700  0.74911500  1
  O  O1  1  0.56631700  0.21987400  0.45285900  1
  O  O2  1  0.25000000  0.16913500  0.64969700  1
  O  O3  1  0.55824200  0.76529500  0.90544500  1
  O  O4  1  0.75000000  0.31106600  0.62983400  1
  O  O5  1  0.75000000  0.12787200  0.88711000  1
  O  O6  1  0.25000000  0.68893400  0.37016600  1
  O  O7  1  0.05824200  0.23470500  0.09455500  1
  O  O8  1  0.25000000  0.00475400  0.41262000  1
  O  O9  1  0.75000000  0.99524600  0.58738000  1
  O  O10  1  0.06177900  0.35668800  0.79100500  1
  O  O11  1  0.25000000  0.87212800  0.11289000  1
  O  O12  1  0.56177900  0.64331200  0.20899500  1
  O  O13  1  0.75000000  0.48169600  0.94563400  1
  O  O14  1  0.75000000  0.83086500  0.35030300  1
  O  O15  1  0.44175800  0.23470500  0.09455500  1
  O  O16  1  0.93368300  0.21987400  0.45285900  1
  O  O17  1  0.43368300  0.78012600  0.54714100  1
  O  O18  1  0.43822100  0.35668800  0.79100500  1
  O  O19  1  0.25000000  0.39495300  0.25088500  1
  O  O20  1  0.75000000  0.90975800  0.13374700  1
  O  O21  1  0.25000000  0.09024200  0.86625300  1
  O  O22  1  0.93822100  0.64331200  0.20899500  1
  O  O23  1  0.94175800  0.76529500  0.90544500  1
  O  O24  1  0.06631700  0.78012600  0.54714100  1
  O  O25  1  0.25000000  0.51830400  0.05436600  1
loop_
_geom_bond_atom_site_label_1
_geom_bond_atom_site_label_2
_geom_bond_distance
_geom_bond_site_symmetry_2
O0 P4 1.615241 1_555
O0 Sb1 2.052244 1_555
O0 Sb4 2.673768 1_555
O1 P1 1.523367 1_555
O1 Sb2 2.148299 1_555
O2 P2 1.540613 1_555
O2 Sb2 2.123723 1_555
O3 P4 1.527621 1_555
O3 Sb3 2.216360 1_566
O4 P1 1.592274 1_555
O4 Sb1 1.968024 1_555
O5 Sb1 1.952064 1_555
O5 Sb5 2.310284 1_656
O5 Sb3 2.310284 1_556
O6 P0 1.592274 1_555
O6 Sb0 1.968024 1_555
O7 P5 1.527621 1_555
O7 Sb5 2.216360 1_555
O8 P0 1.564855 1_545
O8 Sb2 2.064315 1_555
O9 P1 1.564855 1_565
O9 Sb4 2.064315 1_555
O10 P2 1.559927 1_555
O10 Sb1 2.097629 1_455
O11 Sb0 1.952064 1_555
O11 Sb5 2.310284 1_565
O11 Sb3 2.310284 1_565
O12 P3 1.559927 1_555
O12 Sb0 2.097629 1_555
O13 P4 1.596929 1_555
O13 Sb1 2.018557 1_555
O14 P3 1.540613 1_555
O14 Sb4 2.123723 1_555
O15 P5 1.527621 1_555
O15 Sb3 2.216360 1_555
O16 P1 1.523367 1_555
O16 Sb2 2.148299 1_655
O17 P0 1.523367 1_555
O17 Sb4 2.148299 1_555
O18 P2 1.559927 1_555
O18 Sb1 2.097629 1_555
O19 P5 1.615241 1_555
O19 Sb0 2.052244 1_555
O19 Sb2 2.673768 1_555
O20 P3 1.579227 1_555
O20 Sb3 2.351138 1_565
O20 Sb5 2.351138 1_665
O21 P2 1.579227 1_555
O21 Sb5 2.351138 1_556
O21 Sb3 2.351138 1_556
O22 P3 1.559927 1_555
O22 Sb0 2.097629 1_655
O23 P4 1.527621 1_555
O23 Sb5 2.216360 1_666
O24 P0 1.523367 1_555
O24 Sb4 2.148299 1_455
O25 P5 1.596929 1_555
O25 Sb0 2.018557 1_555
