# generated using pymatgen
data_Y(SnO2)2
_symmetry_space_group_name_H-M   'P 1'
_cell_length_a   7.12514266
_cell_length_b   7.12514266
_cell_length_c   7.12514288
_cell_angle_alpha   56.35947461
_cell_angle_beta   56.35947461
_cell_angle_gamma   56.35948037
_symmetry_Int_Tables_number   1
_chemical_formula_structural   Y(SnO2)2
_chemical_formula_sum   'Y2 Sn4 O8'
_cell_volume   234.24257386
_cell_formula_units_Z   2
loop_
 _symmetry_equiv_pos_site_id
 _symmetry_equiv_pos_as_xyz
  1  'x, y, z'
loop_
 _atom_site_type_symbol
 _atom_site_label
 _atom_site_symmetry_multiplicity
 _atom_site_fract_x
 _atom_site_fract_y
 _atom_site_fract_z
 _atom_site_occupancy
  Y  Y0  1  0.63362800  0.63362800  0.63362800  1
  Y  Y1  1  0.36637200  0.36637200  0.36637200  1
  Sn  Sn0  1  0.50000000  0.00000000  0.00000000  1
  Sn  Sn1  1  0.00000000  0.00000000  0.00000000  1
  Sn  Sn2  1  0.00000000  0.50000000  0.00000000  1
  Sn  Sn3  1  0.00000000  0.00000000  0.50000000  1
  O  O0  1  0.78056500  0.23180100  0.78056500  1
  O  O1  1  0.21943500  0.21943500  0.76819900  1
  O  O2  1  0.76819900  0.21943500  0.21943500  1
  O  O3  1  0.24991500  0.24991500  0.24991500  1
  O  O4  1  0.78056500  0.78056500  0.23180100  1
  O  O5  1  0.21943500  0.76819900  0.21943500  1
  O  O6  1  0.23180100  0.78056500  0.78056500  1
  O  O7  1  0.75008500  0.75008500  0.75008500  1
loop_
_geom_bond_atom_site_label_1
_geom_bond_atom_site_label_2
_geom_bond_distance
_geom_bond_site_symmetry_2
O0 Sn1 2.145507 1_656
O0 Y0 2.227471 1_555
O0 Sn0 2.550039 1_556
O0 Sn3 2.550039 1_655
O1 Sn1 2.145507 1_556
O1 Y1 2.227471 1_555
O1 Sn2 2.550039 1_556
O1 Sn0 2.550039 1_556
O2 Sn1 2.145507 1_655
O2 Y1 2.227471 1_555
O2 Sn2 2.550039 1_655
O2 Sn3 2.550039 1_655
O3 Y1 2.086657 1_555
O3 Sn3 2.449256 1_555
O3 Sn2 2.449256 1_555
O3 Sn0 2.449256 1_555
O4 Sn1 2.145507 1_665
O4 Y0 2.227471 1_555
O4 Sn2 2.550039 1_655
O4 Sn0 2.550039 1_565
O5 Sn1 2.145507 1_565
O5 Y1 2.227471 1_555
O5 Sn0 2.550039 1_565
O5 Sn3 2.550039 1_565
O6 Sn1 2.145507 1_566
O6 Y0 2.227471 1_555
O6 Sn2 2.550039 1_556
O6 Sn3 2.550039 1_565
O7 Y0 2.086657 1_555
O7 Sn3 2.449256 1_665
O7 Sn2 2.449256 1_656
O7 Sn0 2.449256 1_566
