# generated using pymatgen
data_KNb2PSe10
_symmetry_space_group_name_H-M   'P 1'
_cell_length_a   16.09096900
_cell_length_b   7.54524800
_cell_length_c   13.78024985
_cell_angle_alpha   73.39587427
_cell_angle_beta   90.00000000
_cell_angle_gamma   90.00000000
_symmetry_Int_Tables_number   1
_chemical_formula_structural   KNb2PSe10
_chemical_formula_sum   'K4 Nb8 P4 Se40'
_cell_volume   1603.30151778
_cell_formula_units_Z   4
loop_
 _symmetry_equiv_pos_site_id
 _symmetry_equiv_pos_as_xyz
  1  'x, y, z'
loop_
 _atom_site_type_symbol
 _atom_site_label
 _atom_site_symmetry_multiplicity
 _atom_site_fract_x
 _atom_site_fract_y
 _atom_site_fract_z
 _atom_site_occupancy
  K  K0  1  0.24498000  0.17439500  0.67762600  1
  K  K1  1  0.75502000  0.17439500  0.17762600  1
  K  K2  1  0.25387700  0.14739700  0.20608500  1
  K  K3  1  0.74612300  0.14739700  0.70608500  1
  Nb  Nb0  1  0.03610300  0.73164100  0.95801600  1
  Nb  Nb1  1  0.96389700  0.73164100  0.45801600  1
  Nb  Nb2  1  0.02272100  0.72528700  0.66531100  1
  Nb  Nb3  1  0.97727900  0.72528700  0.16531100  1
  Nb  Nb4  1  0.52577200  0.71277700  0.94945000  1
  Nb  Nb5  1  0.47422800  0.71277700  0.44945000  1
  Nb  Nb6  1  0.53508300  0.70639600  0.65624200  1
  Nb  Nb7  1  0.46491700  0.70639600  0.15624200  1
  P  P0  1  0.20195500  0.58160300  0.82681300  1
  P  P1  1  0.79804500  0.58160300  0.32681300  1
  P  P2  1  0.70298500  0.56195100  0.83752200  1
  P  P3  1  0.29701500  0.56195100  0.33752200  1
  Se  Se0  1  0.05722000  0.99497400  0.50018800  1
  Se  Se1  1  0.94278000  0.99497400  0.00018800  1
  Se  Se2  1  0.02963800  0.98287900  0.77205700  1
  Se  Se3  1  0.97036200  0.98287900  0.27205700  1
  Se  Se4  1  0.08123600  0.97935700  0.05115500  1
  Se  Se5  1  0.91876400  0.97935700  0.55115500  1
  Se  Se6  1  0.44104300  0.97363100  0.53685900  1
  Se  Se7  1  0.55895700  0.97363100  0.03685900  1
  Se  Se8  1  0.53132700  0.96417600  0.76470400  1
  Se  Se9  1  0.46867300  0.96417600  0.26470400  1
  Se  Se10  1  0.42103500  0.96228700  0.98765500  1
  Se  Se11  1  0.57896500  0.96228700  0.48765500  1
  Se  Se12  1  0.20306800  0.77974100  0.92131600  1
  Se  Se13  1  0.79693200  0.77974100  0.42131600  1
  Se  Se14  1  0.08318300  0.77443400  0.31133700  1
  Se  Se15  1  0.91681700  0.77443400  0.81133700  1
  Se  Se16  1  0.69435500  0.76404300  0.92889000  1
  Se  Se17  1  0.30564500  0.76404300  0.42889000  1
  Se  Se18  1  0.41791500  0.75454000  0.79106600  1
  Se  Se19  1  0.58208500  0.75454000  0.29106600  1
  Se  Se20  1  0.19580200  0.72987600  0.66049000  1
  Se  Se21  1  0.80419800  0.72987600  0.16049000  1
  Se  Se22  1  0.29116600  0.70193300  0.16950700  1
  Se  Se23  1  0.70883400  0.70193300  0.66950700  1
  Se  Se24  1  0.08330400  0.47955800  0.13176900  1
  Se  Se25  1  0.91669600  0.47955800  0.63176900  1
  Se  Se26  1  0.06959500  0.47555200  0.85078200  1
  Se  Se27  1  0.93040500  0.47555200  0.35078200  1
  Se  Se28  1  0.05326900  0.46086500  0.57511000  1
  Se  Se29  1  0.94673100  0.46086500  0.07511000  1
  Se  Se30  1  0.43299300  0.45686800  0.62326300  1
  Se  Se31  1  0.56700700  0.45686800  0.12326300  1
  Se  Se32  1  0.57048800  0.45678800  0.84555300  1
  Se  Se33  1  0.42951200  0.45678800  0.34555300  1
  Se  Se34  1  0.56834700  0.44420400  0.56160100  1
  Se  Se35  1  0.43165300  0.44420400  0.06160100  1
  Se  Se36  1  0.29966000  0.37450200  0.86599700  1
  Se  Se37  1  0.70034000  0.37450200  0.36599700  1
  Se  Se38  1  0.79999700  0.35647500  0.89151500  1
  Se  Se39  1  0.20000300  0.35647500  0.39151500  1
loop_
_geom_bond_atom_site_label_1
_geom_bond_atom_site_label_2
_geom_bond_distance
_geom_bond_site_symmetry_2
K0 Se36 3.468705 1_555
K0 Se20 3.519084 1_545
K0 Se30 3.652912 1_555
K0 Se28 3.799828 1_555
K0 Se2 3.835810 1_545
K0 Se39 3.854902 1_555
K0 Se12 3.857958 1_545
K1 Se37 3.468705 1_555
K1 Se21 3.519084 1_545
K1 Se31 3.652912 1_555
K1 Se29 3.799828 1_555
K1 Se3 3.835810 1_545
K1 Se38 3.854902 1_554
K1 Se13 3.857958 1_545
K2 Se39 3.474674 1_555
K2 Se22 3.588814 1_545
K2 Se24 3.660113 1_555
K2 Se17 3.662198 1_545
K2 Se9 3.724419 1_545
K2 Se35 3.822842 1_555
K2 Se14 3.903091 1_545
K2 Se4 3.928081 1_545
K3 Se38 3.474674 1_555
K3 Se23 3.588814 1_545
K3 Se25 3.660113 1_555
K3 Se16 3.662198 1_545
K3 Se8 3.724419 1_545
K3 Se34 3.822842 1_555
K3 Se15 3.903091 1_545
K3 Se5 3.928081 1_545
Nb0 Se29 2.638519 1_456
Nb0 Se4 2.653151 1_556
Nb0 Se1 2.683363 1_456
Nb0 Se24 2.706431 1_556
Nb0 Se2 2.719335 1_555
Nb0 Se12 2.738715 1_555
Nb0 Se15 2.738797 1_455
Nb0 Se26 2.799916 1_555
Nb1 Se28 2.638519 1_655
Nb1 Se5 2.653151 1_555
Nb1 Se0 2.683363 1_655
Nb1 Se25 2.706431 1_555
Nb1 Se3 2.719335 1_555
Nb1 Se13 2.738715 1_555
Nb1 Se14 2.738797 1_655
Nb1 Se27 2.799916 1_555
Nb2 Se0 2.642005 1_555
Nb2 Se25 2.655495 1_455
Nb2 Se28 2.680393 1_555
Nb2 Se5 2.687800 1_455
Nb2 Se15 2.741747 1_455
Nb2 Se2 2.754581 1_555
Nb2 Se20 2.785812 1_555
Nb2 Se26 2.810589 1_555
Nb3 Se1 2.642005 1_555
Nb3 Se24 2.655495 1_655
Nb3 Se29 2.680393 1_555
Nb3 Se4 2.687800 1_655
Nb3 Se14 2.741747 1_655
Nb3 Se3 2.754581 1_555
Nb3 Se21 2.785812 1_555
Nb3 Se27 2.810589 1_555
Nb4 Se7 2.639082 1_556
Nb4 Se35 2.645506 1_556
Nb4 Se10 2.688526 1_555
Nb4 Se31 2.694875 1_556
Nb4 Se8 2.706937 1_555
Nb4 Se18 2.735305 1_555
Nb4 Se16 2.743321 1_555
Nb4 Se32 2.806903 1_555
Nb5 Se6 2.639082 1_555
Nb5 Se34 2.645506 1_555
Nb5 Se11 2.688526 1_555
Nb5 Se30 2.694875 1_555
Nb5 Se9 2.706937 1_555
Nb5 Se19 2.735305 1_555
Nb5 Se17 2.743321 1_555
Nb5 Se33 2.806903 1_555
Nb6 Se30 2.634168 1_555
Nb6 Se11 2.657070 1_555
Nb6 Se6 2.676954 1_555
Nb6 Se34 2.715805 1_555
Nb6 Se18 2.742996 1_555
Nb6 Se8 2.771661 1_555
Nb6 Se23 2.801366 1_555
Nb6 Se32 2.805210 1_555
Nb7 Se31 2.634168 1_555
Nb7 Se10 2.657070 1_554
Nb7 Se7 2.676954 1_555
Nb7 Se35 2.715805 1_555
Nb7 Se19 2.742996 1_555
Nb7 Se9 2.771661 1_555
Nb7 Se22 2.801366 1_555
Nb7 Se33 2.805210 1_555
P0 Se36 2.173214 1_555
P0 Se12 2.245874 1_555
P0 Se20 2.247021 1_555
P0 Se26 2.265919 1_555
P1 Se37 2.173214 1_555
P1 Se13 2.245874 1_555
P1 Se21 2.247021 1_555
P1 Se27 2.265919 1_555
P2 Se38 2.175947 1_555
P2 Se16 2.242077 1_555
P2 Se23 2.255524 1_555
P2 Se32 2.266521 1_555
P3 Se39 2.175947 1_555
P3 Se17 2.242077 1_555
P3 Se22 2.255524 1_555
P3 Se33 2.266521 1_555
Se0 Se5 2.328812 1_455
Se1 Se4 2.328812 1_655
Se10 Se7 2.329275 1_556
Se11 Se6 2.329275 1_555
Se14 Se3 2.361298 1_455
Se15 Se2 2.361298 1_655
Se18 Se8 2.373987 1_555
Se19 Se9 2.373987 1_555
Se24 Se29 2.349862 1_455
Se25 Se28 2.349862 1_655
Se30 Se34 2.349710 1_555
Se31 Se35 2.349710 1_555
