# generated using pymatgen
data_Zr2CrFe3
_symmetry_space_group_name_H-M   'P 1'
_cell_length_a   4.98446175
_cell_length_b   4.98446175
_cell_length_c   8.25263600
_cell_angle_alpha   90.00000000
_cell_angle_beta   90.00000000
_cell_angle_gamma   120.79189169
_symmetry_Int_Tables_number   1
_chemical_formula_structural   Zr2CrFe3
_chemical_formula_sum   'Zr4 Cr2 Fe6'
_cell_volume   176.13219417
_cell_formula_units_Z   2
loop_
 _symmetry_equiv_pos_site_id
 _symmetry_equiv_pos_as_xyz
  1  'x, y, z'
loop_
 _atom_site_type_symbol
 _atom_site_label
 _atom_site_symmetry_multiplicity
 _atom_site_fract_x
 _atom_site_fract_y
 _atom_site_fract_z
 _atom_site_occupancy
  Zr  Zr0  1  0.33440800  0.66559200  0.18945100  1
  Zr  Zr1  1  0.66672400  0.33327600  0.31481600  1
  Zr  Zr2  1  0.66672400  0.33327600  0.68518400  1
  Zr  Zr3  1  0.33440800  0.66559200  0.81054900  1
  Cr  Cr0  1  0.82922400  0.66143300  0.00000000  1
  Cr  Cr1  1  0.33856700  0.17077600  0.00000000  1
  Fe  Fe0  1  0.83064900  0.16935100  0.00000000  1
  Fe  Fe1  1  0.16710300  0.33329900  0.50000000  1
  Fe  Fe2  1  0.66670100  0.83289700  0.50000000  1
  Fe  Fe3  1  0.16655500  0.83344500  0.50000000  1
  Fe  Fe4  1  0.99942100  0.00057900  0.24843800  1
  Fe  Fe5  1  0.99942100  0.00057900  0.75156200  1
loop_
_geom_bond_atom_site_label_1
_geom_bond_atom_site_label_2
_geom_bond_distance
_geom_bond_site_symmetry_2
Zr0 Zr1 3.040710 1_565
Zr0 Zr1 3.040710 1_455
Zr0 Zr1 3.060546 1_555
Zr1 Zr2 3.056512 1_555
Zr2 Zr3 3.040710 1_545
Zr2 Zr3 3.040710 1_655
Zr2 Zr3 3.060546 1_555
Cr0 Cr1 2.416330 1_555
Cr0 Fe0 2.456408 1_555
Cr0 Cr1 2.508352 1_665
Cr0 Fe4 2.512501 1_565
Cr0 Fe5 2.512501 1_564
Cr0 Fe0 2.528069 1_565
Cr0 Zr0 2.929216 1_555
Cr0 Zr3 2.929216 1_554
Cr0 Zr1 2.953811 1_555
Cr0 Zr2 2.953811 1_554
Cr0 Zr0 2.955013 1_655
Cr0 Zr3 2.955013 1_654
Cr1 Fe0 2.456408 1_555
Cr1 Fe4 2.512501 1_455
Cr1 Fe5 2.512501 1_454
Cr1 Fe0 2.528069 1_455
Cr1 Zr0 2.929216 1_555
Cr1 Zr3 2.929216 1_554
Cr1 Zr1 2.953811 1_555
Cr1 Zr2 2.953811 1_554
Cr1 Zr0 2.955013 1_545
Cr1 Zr3 2.955013 1_544
Fe0 Fe4 2.518634 1_555
Fe0 Fe5 2.518634 1_554
Fe0 Zr0 2.916955 1_545
Fe0 Zr0 2.916955 1_655
Fe0 Zr3 2.916955 1_544
Fe0 Zr3 2.916955 1_654
Fe0 Zr2 2.961198 1_554
Fe0 Zr1 2.961198 1_555
Fe1 Fe2 2.460361 1_555
Fe1 Fe2 2.464321 1_445
Fe1 Fe3 2.490106 1_545
Fe1 Fe3 2.494358 1_555
Fe1 Fe5 2.517890 1_455
Fe1 Fe4 2.517890 1_455
Fe1 Zr2 2.921928 1_555
Fe1 Zr1 2.921928 1_555
Fe1 Zr2 2.925048 1_455
Fe1 Zr1 2.925048 1_455
Fe1 Zr3 2.931346 1_555
Fe1 Zr0 2.931346 1_555
Fe2 Fe3 2.490106 1_655
Fe2 Fe3 2.494358 1_555
Fe2 Fe5 2.517890 1_565
Fe2 Fe4 2.517890 1_565
Fe2 Zr2 2.921928 1_555
Fe2 Zr1 2.921928 1_555
Fe2 Zr2 2.925048 1_565
Fe2 Zr1 2.925048 1_565
Fe2 Zr3 2.931346 1_555
Fe2 Zr0 2.931346 1_555
Fe3 Fe4 2.531514 1_465
Fe3 Fe5 2.531514 1_465
Fe3 Zr2 2.898050 1_455
Fe3 Zr1 2.898050 1_565
Fe3 Zr2 2.898050 1_565
Fe3 Zr1 2.898050 1_455
Fe3 Zr3 2.947009 1_555
Fe3 Zr0 2.947009 1_555
Fe4 Zr0 2.888901 1_655
Fe4 Zr0 2.888901 1_545
Fe4 Zr1 2.909644 1_655
Fe4 Zr1 2.909644 1_545
Fe4 Zr1 2.935247 1_555
Fe4 Zr0 2.944052 1_645
Fe5 Zr3 2.888901 1_655
Fe5 Zr3 2.888901 1_545
Fe5 Zr2 2.909644 1_655
Fe5 Zr2 2.909644 1_545
Fe5 Zr2 2.935247 1_555
Fe5 Zr3 2.944052 1_645
