# generated using pymatgen
data_GdMoC2
_symmetry_space_group_name_H-M   'P 1'
_cell_length_a   3.44343600
_cell_length_b   5.72744800
_cell_length_c   10.81953600
_cell_angle_alpha   90.00000000
_cell_angle_beta   90.00000000
_cell_angle_gamma   90.00000000
_symmetry_Int_Tables_number   1
_chemical_formula_structural   GdMoC2
_chemical_formula_sum   'Gd4 Mo4 C8'
_cell_volume   213.38397778
_cell_formula_units_Z   4
loop_
 _symmetry_equiv_pos_site_id
 _symmetry_equiv_pos_as_xyz
  1  'x, y, z'
loop_
 _atom_site_type_symbol
 _atom_site_label
 _atom_site_symmetry_multiplicity
 _atom_site_fract_x
 _atom_site_fract_y
 _atom_site_fract_z
 _atom_site_occupancy
  Gd  Gd0  1  0.25000000  0.08505000  0.86150700  1
  Gd  Gd1  1  0.25000000  0.58505000  0.63849300  1
  Gd  Gd2  1  0.75000000  0.91495000  0.13849300  1
  Gd  Gd3  1  0.75000000  0.41495000  0.36150700  1
  Mo  Mo0  1  0.25000000  0.40640800  0.10870200  1
  Mo  Mo1  1  0.25000000  0.90640800  0.39129800  1
  Mo  Mo2  1  0.75000000  0.59359200  0.89129800  1
  Mo  Mo3  1  0.75000000  0.09359200  0.60870200  1
  C  C0  1  0.25000000  0.15855200  0.24789400  1
  C  C1  1  0.25000000  0.65855200  0.25210600  1
  C  C2  1  0.75000000  0.84144800  0.75210600  1
  C  C3  1  0.75000000  0.34144800  0.74789400  1
  C  C4  1  0.25000000  0.71858100  0.98132400  1
  C  C5  1  0.25000000  0.21858100  0.51867600  1
  C  C6  1  0.75000000  0.28141900  0.01867600  1
  C  C7  1  0.75000000  0.78141900  0.48132400  1
loop_
_geom_bond_atom_site_label_1
_geom_bond_atom_site_label_2
_geom_bond_distance
_geom_bond_site_symmetry_2
C0 Mo0 2.069596 1_555
C0 Mo1 2.119646 1_545
C0 Gd2 2.512373 1_445
C0 Gd2 2.512373 1_545
C0 Gd3 2.575239 1_455
C0 Gd3 2.575239 1_555
C1 Mo1 2.069596 1_555
C1 Mo0 2.119646 1_555
C1 Gd3 2.512373 1_455
C1 Gd3 2.512373 1_555
C1 Gd2 2.575239 1_555
C1 Gd2 2.575239 1_455
C2 Mo2 2.069596 1_555
C2 Mo3 2.119646 1_565
C2 Gd0 2.512373 1_665
C2 Gd0 2.512373 1_565
C2 Gd1 2.575239 1_655
C2 Gd1 2.575239 1_555
C3 Mo3 2.069596 1_555
C3 Mo2 2.119646 1_555
C3 Gd1 2.512373 1_655
C3 Gd1 2.512373 1_555
C3 Gd0 2.575239 1_655
C3 Gd0 2.575239 1_555
C4 Mo2 2.103695 1_455
C4 Mo2 2.103695 1_555
C4 Mo0 2.257462 1_556
C4 Gd0 2.466997 1_565
C4 Gd2 2.668508 1_456
C4 Gd2 2.668508 1_556
C5 Mo3 2.103695 1_555
C5 Mo3 2.103695 1_455
C5 Mo1 2.257462 1_545
C5 Gd1 2.466997 1_555
C5 Gd3 2.668508 1_555
C5 Gd3 2.668508 1_455
C6 Mo0 2.103695 1_655
C6 Mo0 2.103695 1_555
C6 Mo2 2.257462 1_554
C6 Gd2 2.466997 1_545
C6 Gd0 2.668508 1_654
C6 Gd0 2.668508 1_554
C7 Mo1 2.103695 1_555
C7 Mo1 2.103695 1_655
C7 Mo3 2.257462 1_565
C7 Gd3 2.466997 1_555
C7 Gd1 2.668508 1_655
C7 Gd1 2.668508 1_555
