# generated using pymatgen
data_Li7Mn(OF)3
_symmetry_space_group_name_H-M   'P 1'
_cell_length_a   5.47735700
_cell_length_b   6.07130403
_cell_length_c   10.13720374
_cell_angle_alpha   105.91130603
_cell_angle_beta   91.31044697
_cell_angle_gamma   111.42760392
_symmetry_Int_Tables_number   1
_chemical_formula_structural   Li7Mn(OF)3
_chemical_formula_sum   'Li14 Mn2 O6 F6'
_cell_volume   298.92253398
_cell_formula_units_Z   2
loop_
 _symmetry_equiv_pos_site_id
 _symmetry_equiv_pos_as_xyz
  1  'x, y, z'
loop_
 _atom_site_type_symbol
 _atom_site_label
 _atom_site_symmetry_multiplicity
 _atom_site_fract_x
 _atom_site_fract_y
 _atom_site_fract_z
 _atom_site_occupancy
  Li  Li0  1  0.00206700  0.89954900  0.77512300  1
  Li  Li1  1  0.48802500  0.38086100  0.25363900  1
  Li  Li2  1  0.50934200  0.04833300  0.60343500  1
  Li  Li3  1  0.99958500  0.46709900  0.88000600  1
  Li  Li4  1  0.04411000  0.77385100  0.55468200  1
  Li  Li5  1  0.52038600  0.31837200  0.04854900  1
  Li  Li6  1  0.92846500  0.62575200  0.33357600  1
  Li  Li7  1  0.47495500  0.74295100  0.94423700  1
  Li  Li8  1  0.95350900  0.19003300  0.46126000  1
  Li  Li9  1  0.98178100  0.50860000  0.10999900  1
  Li  Li10  1  0.50187300  0.98812600  0.38246500  1
  Li  Li11  1  0.48459300  0.60563800  0.72299100  1
  Li  Li12  1  0.04279900  0.10277400  0.25935300  1
  Li  Li13  1  0.56316800  0.87170500  0.18473000  1
  Mn  Mn0  1  0.02805700  0.94181800  0.04458100  1
  Mn  Mn1  1  0.53672800  0.54807200  0.48279700  1
  O  O0  1  0.32486200  0.07340400  0.19154200  1
  O  O1  1  0.14269100  0.75105300  0.95748200  1
  O  O2  1  0.66216900  0.30507200  0.44131000  1
  O  O3  1  0.70457500  0.64264800  0.12466100  1
  O  O4  1  0.34527800  0.72391500  0.53456000  1
  O  O5  1  0.80330600  0.87335400  0.37477000  1
  F  F0  1  0.17409800  0.07375100  0.61710500  1
  F  F1  1  0.82085400  0.58051400  0.70414700  1
  F  F2  1  0.31948000  0.41343600  0.88239800  1
  F  F3  1  0.82299700  0.21186500  0.05094100  1
  F  F4  1  0.15461400  0.42090600  0.29293300  1
  F  F5  1  0.66563600  0.91654800  0.78673000  1
loop_
_geom_bond_atom_site_label_1
_geom_bond_atom_site_label_2
_geom_bond_distance
_geom_bond_site_symmetry_2
Li1 O0 1.670476 1_555
Li2 O4 1.760270 1_545
Li3 O1 1.563787 1_655
Li4 O4 1.789306 1_555
Li4 O5 2.550914 1_455
Li5 O3 1.780303 1_555
Li5 O0 2.355719 1_555
Li6 O5 1.823741 1_555
Li7 O1 1.845414 1_555
Li8 O5 1.740451 1_545
Li8 O2 1.988023 1_555
Li9 O3 1.958753 1_555
Li10 O2 1.715162 1_565
Li10 O5 2.008560 1_555
Li10 O0 2.405066 1_565
Li12 O0 1.753251 1_555
Li12 O5 2.158366 1_445
Li13 O3 1.802483 1_555
Li13 O0 2.081772 1_565
Li13 O5 2.303340 1_555
Mn0 O1 1.584690 1_554
Mn0 O0 1.946352 1_565
Mn1 O4 1.746638 1_555
Mn1 O2 1.799780 1_555
Mn1 O5 2.526546 1_555
F0 Li4 1.619588 1_545
F0 Li2 1.903101 1_555
F0 Li0 2.200507 1_545
F0 Li8 2.366772 1_455
F1 Li0 1.747330 1_655
F1 Li11 1.912447 1_555
F1 Li4 2.275966 1_655
F1 Li3 2.386708 1_555
F2 Li7 1.778674 1_555
F2 Li3 1.896407 1_455
F2 Li11 2.262861 1_555
F2 Li5 2.300707 1_556
F3 Li9 1.612595 1_555
F3 Li5 1.988953 1_555
F3 Mn0 2.290118 1_645
F4 Li12 1.728359 1_555
F4 Li1 1.964028 1_555
F4 Li6 2.029499 1_455
F5 Li11 1.702431 1_555
F5 Li0 1.887445 1_655
F5 Li7 2.223900 1_555
F5 Li2 2.463416 1_565
