# generated using pymatgen
data_Li3Mn3P8O29
_symmetry_space_group_name_H-M   'P 1'
_cell_length_a   9.78560453
_cell_length_b   9.78560453
_cell_length_c   14.11035073
_cell_angle_alpha   89.19177223
_cell_angle_beta   89.19177223
_cell_angle_gamma   59.56713442
_symmetry_Int_Tables_number   1
_chemical_formula_structural   Li3Mn3P8O29
_chemical_formula_sum   'Li6 Mn6 P16 O58'
_cell_volume   1164.86473641
_cell_formula_units_Z   2
loop_
 _symmetry_equiv_pos_site_id
 _symmetry_equiv_pos_as_xyz
  1  'x, y, z'
loop_
 _atom_site_type_symbol
 _atom_site_label
 _atom_site_symmetry_multiplicity
 _atom_site_fract_x
 _atom_site_fract_y
 _atom_site_fract_z
 _atom_site_occupancy
  Li  Li0  1  0.00000000  0.00000000  0.00000000  1
  Li  Li1  1  0.00000000  0.00000000  0.50000000  1
  Li  Li2  1  0.77002900  0.90488800  0.06512400  1
  Li  Li3  1  0.90488800  0.77002900  0.56512400  1
  Li  Li4  1  0.09511200  0.22997100  0.43487600  1
  Li  Li5  1  0.22997100  0.09511200  0.93487600  1
  Mn  Mn0  1  0.55923400  0.99709400  0.25093400  1
  Mn  Mn1  1  0.44076600  0.00290600  0.74906600  1
  Mn  Mn2  1  0.99709400  0.55923400  0.75093400  1
  Mn  Mn3  1  0.00290600  0.44076600  0.24906600  1
  Mn  Mn4  1  0.43515100  0.56484900  0.25000000  1
  Mn  Mn5  1  0.56484900  0.43515100  0.75000000  1
  P  P0  1  0.77214300  0.90655800  0.84506900  1
  P  P1  1  0.90655800  0.77214300  0.34506900  1
  P  P2  1  0.30615500  0.90717200  0.33514900  1
  P  P3  1  0.66421700  0.66550400  0.63751200  1
  P  P4  1  0.66550400  0.66421700  0.13751200  1
  P  P5  1  0.30800900  0.77750100  0.84069900  1
  P  P6  1  0.22249900  0.69199100  0.65930100  1
  P  P7  1  0.90717200  0.30615500  0.83514900  1
  P  P8  1  0.09282800  0.69384500  0.16485100  1
  P  P9  1  0.77750100  0.30800900  0.34069900  1
  P  P10  1  0.69199100  0.22249900  0.15930100  1
  P  P11  1  0.33578300  0.33449600  0.36248800  1
  P  P12  1  0.33449600  0.33578300  0.86248800  1
  P  P13  1  0.69384500  0.09282800  0.66485100  1
  P  P14  1  0.09344200  0.22785700  0.65493100  1
  P  P15  1  0.22785700  0.09344200  0.15493100  1
  O  O0  1  0.78638700  0.01332300  0.76209700  1
  O  O1  1  0.79571800  0.00015000  0.58418400  1
  O  O2  1  0.73536000  0.91807800  0.33486700  1
  O  O3  1  0.01332300  0.78638700  0.26209700  1
  O  O4  1  0.00015000  0.79571800  0.08418400  1
  O  O5  1  0.91807800  0.73536000  0.83486700  1
  O  O6  1  0.61810900  0.90245500  0.82928100  1
  O  O7  1  0.66594100  0.81982800  0.16293300  1
  O  O8  1  0.46551100  0.90573900  0.32903100  1
  O  O9  1  0.21569400  0.02570200  0.06256000  1
  O  O10  1  0.21361300  0.98667700  0.23790300  1
  O  O11  1  0.33645600  0.91996400  0.83702300  1
  O  O12  1  0.81982800  0.66594100  0.66293300  1
  O  O13  1  0.90245500  0.61810900  0.32928100  1
  O  O14  1  0.51305300  0.81141300  0.67656700  1
  O  O15  1  0.64614300  0.68084300  0.52953000  1
  O  O16  1  0.68084300  0.64614300  0.02953000  1
  O  O17  1  0.51185600  0.67748300  0.17815100  1
  O  O18  1  0.90573900  0.46551100  0.82903100  1
  O  O19  1  0.81141300  0.51305300  0.17656700  1
  O  O20  1  0.33785100  0.73607500  0.33629500  1
  O  O21  1  0.19929500  0.80070500  0.75000000  1
  O  O22  1  0.20109100  0.78948600  0.57361400  1
  O  O23  1  0.21051400  0.79890900  0.92638600  1
  O  O24  1  0.46349400  0.61813800  0.83068300  1
  O  O25  1  0.67748300  0.51185600  0.67815100  1
  O  O26  1  0.26392500  0.66214900  0.16370500  1
  O  O27  1  0.61813800  0.46349400  0.33068300  1
  O  O28  1  0.91996400  0.33645600  0.33702300  1
  O  O29  1  0.97429800  0.78430600  0.43744000  1
  O  O30  1  0.02570200  0.21569400  0.56256000  1
  O  O31  1  0.98667700  0.21361300  0.73790300  1
  O  O32  1  0.08003600  0.66354400  0.66297700  1
  O  O33  1  0.38186200  0.53650600  0.66931700  1
  O  O34  1  0.73607500  0.33785100  0.83629500  1
  O  O35  1  0.32251700  0.48814400  0.32184900  1
  O  O36  1  0.53650600  0.38186200  0.16931700  1
  O  O37  1  0.78948600  0.20109100  0.07361400  1
  O  O38  1  0.79890900  0.21051400  0.42638600  1
  O  O39  1  0.80070500  0.19929500  0.25000000  1
  O  O40  1  0.66214900  0.26392500  0.66370500  1
  O  O41  1  0.18858700  0.48694700  0.82343300  1
  O  O42  1  0.09426100  0.53448900  0.17096900  1
  O  O43  1  0.48814400  0.32251700  0.82184900  1
  O  O44  1  0.35385700  0.31915700  0.47047000  1
  O  O45  1  0.31915700  0.35385700  0.97047000  1
  O  O46  1  0.48694700  0.18858700  0.32343300  1
  O  O47  1  0.09754500  0.38189100  0.67071900  1
  O  O48  1  0.18017200  0.33405900  0.33706700  1
  O  O49  1  0.66354400  0.08003600  0.16297700  1
  O  O50  1  0.78430600  0.97429800  0.93744000  1
  O  O51  1  0.53448900  0.09426100  0.67096900  1
  O  O52  1  0.33405900  0.18017200  0.83706700  1
  O  O53  1  0.38189100  0.09754500  0.17071900  1
  O  O54  1  0.08192200  0.26464000  0.16513300  1
  O  O55  1  0.99985000  0.20428200  0.91581600  1
  O  O56  1  0.26464000  0.08192200  0.66513300  1
  O  O57  1  0.20428200  0.99985000  0.41581600  1
loop_
_geom_bond_atom_site_label_1
_geom_bond_atom_site_label_2
_geom_bond_distance
_geom_bond_site_symmetry_2
Li0 O23 2.255102 1_544
Li0 O37 2.255102 1_455
Li0 O55 2.310239 1_454
Li0 O4 2.310239 1_545
Li0 O9 2.427787 1_555
Li0 O50 2.427787 1_444
Li1 O38 2.255102 1_455
Li1 O22 2.255102 1_545
Li1 O1 2.310239 1_455
Li1 O57 2.310239 1_545
Li1 O29 2.427787 1_445
Li1 O30 2.427787 1_555
Li2 O50 1.944573 1_554
Li2 O4 1.963778 1_655
Li2 O49 2.036347 1_565
Li2 O7 2.102820 1_555
Li3 O29 1.944573 1_555
Li3 O1 1.963778 1_565
Li3 O32 2.036347 1_655
Li3 O12 2.102820 1_555
Li4 O30 1.944573 1_555
Li4 O57 1.963778 1_545
Li4 O28 2.036347 1_455
Li4 O48 2.102820 1_555
Li5 O9 1.944573 1_556
Li5 O55 1.963778 1_455
Li5 O11 2.036347 1_545
Li5 O52 2.102820 1_555
Mn0 O53 1.885440 1_565
Mn0 O8 1.904980 1_555
Mn0 O2 1.911190 1_555
Mn0 O46 1.936263 1_565
Mn0 O7 1.957159 1_555
Mn0 O49 2.004027 1_565
Mn1 O6 1.885440 1_545
Mn1 O51 1.904980 1_555
Mn1 O56 1.911190 1_555
Mn1 O14 1.936263 1_545
Mn1 O52 1.957159 1_555
Mn1 O11 2.004027 1_545
Mn2 O47 1.885440 1_655
Mn2 O18 1.904980 1_555
Mn2 O5 1.911190 1_555
Mn2 O41 1.936263 1_655
Mn2 O12 1.957159 1_555
Mn2 O32 2.004027 1_655
Mn3 O13 1.885440 1_455
Mn3 O42 1.904980 1_555
Mn3 O54 1.911190 1_555
Mn3 O19 1.936263 1_455
Mn3 O48 1.957159 1_555
Mn3 O28 2.004027 1_455
Mn4 O35 1.895039 1_555
Mn4 O17 1.895039 1_555
Mn4 O20 1.898783 1_555
Mn4 O26 1.898783 1_555
Mn4 O36 1.926830 1_555
Mn4 O27 1.926830 1_555
Mn5 O43 1.895039 1_555
Mn5 O25 1.895039 1_555
Mn5 O34 1.898783 1_555
Mn5 O40 1.898783 1_555
Mn5 O33 1.926830 1_555
Mn5 O24 1.926830 1_555
O0 P0 1.609365 1_545
O0 P13 1.612273 1_555
O1 P13 1.480905 1_555
O2 P1 1.563331 1_555
O3 P1 1.609365 1_455
O3 P8 1.612273 1_555
O4 P8 1.480905 1_555
O5 P0 1.563331 1_555
O6 P0 1.547345 1_555
O7 P4 1.571462 1_555
O8 P2 1.553527 1_555
O9 P15 1.503685 1_555
O10 P15 1.609365 1_565
O10 P2 1.612273 1_555
O11 P5 1.553818 1_555
O12 P3 1.571462 1_555
O13 P1 1.547345 1_555
O14 P3 1.545967 1_555
O15 P3 1.532847 1_555
O16 P4 1.532847 1_555
O17 P4 1.544781 1_555
O18 P7 1.553527 1_555
O19 P4 1.545967 1_555
O20 P2 1.540453 1_555
O21 P5 1.614519 1_555
O21 P6 1.614519 1_555
O22 P6 1.479217 1_555
O23 P5 1.479217 1_555
O24 P5 1.537313 1_555
O25 P3 1.544781 1_555
O26 P8 1.540453 1_555
O27 P9 1.537313 1_555
O28 P9 1.553818 1_555
O29 P1 1.503685 1_555
O30 P14 1.503685 1_555
O31 P14 1.609365 1_655
O31 P7 1.612273 1_555
O32 P6 1.553818 1_555
O33 P6 1.537313 1_555
O34 P7 1.540453 1_555
O35 P11 1.544781 1_555
O36 P10 1.537313 1_555
O37 P10 1.479217 1_555
O38 P9 1.479217 1_555
O39 P9 1.614519 1_555
O39 P10 1.614519 1_555
O40 P13 1.540453 1_555
O41 P12 1.545967 1_555
O42 P8 1.553527 1_555
O43 P12 1.544781 1_555
O44 P11 1.532847 1_555
O45 P12 1.532847 1_555
O46 P11 1.545967 1_555
O47 P14 1.547345 1_555
O48 P11 1.571462 1_555
O49 P10 1.553818 1_555
O50 P0 1.503685 1_555
O51 P13 1.553527 1_555
O52 P12 1.571462 1_555
O53 P15 1.547345 1_555
O54 P15 1.563331 1_555
O55 P7 1.480905 1_555
O56 P14 1.563331 1_555
O57 P2 1.480905 1_555
