# generated using pymatgen
data_Mg14NbBiO16
_symmetry_space_group_name_H-M   'P 1'
_cell_length_a   8.74697134
_cell_length_b   8.74697134
_cell_length_c   4.49102992
_cell_angle_alpha   90.00000000
_cell_angle_beta   90.00000000
_cell_angle_gamma   90.00000000
_symmetry_Int_Tables_number   1
_chemical_formula_structural   Mg14NbBiO16
_chemical_formula_sum   'Mg14 Nb1 Bi1 O16'
_cell_volume   343.60648790
_cell_formula_units_Z   1
loop_
 _symmetry_equiv_pos_site_id
 _symmetry_equiv_pos_as_xyz
  1  'x, y, z'
loop_
 _atom_site_type_symbol
 _atom_site_label
 _atom_site_symmetry_multiplicity
 _atom_site_fract_x
 _atom_site_fract_y
 _atom_site_fract_z
 _atom_site_occupancy
  Mg  Mg0  1  -0.00000000  0.50000000  0.00000000  1
  Mg  Mg1  1  0.50000000  0.00000000  0.00000000  1
  Mg  Mg2  1  -0.00000000  0.25181210  0.50000000  1
  Mg  Mg3  1  -0.00000000  0.74818790  0.50000000  1
  Mg  Mg4  1  0.50000000  0.23742821  0.50000000  1
  Mg  Mg5  1  0.50000000  0.76257179  0.50000000  1
  Mg  Mg6  1  0.25181210  -0.00000000  0.50000000  1
  Mg  Mg7  1  0.23742821  0.50000000  0.50000000  1
  Mg  Mg8  1  0.74818790  -0.00000000  0.50000000  1
  Mg  Mg9  1  0.76257179  0.50000000  0.50000000  1
  Mg  Mg10  1  0.24409481  0.24409481  0.00000000  1
  Mg  Mg11  1  0.24409481  0.75590519  -0.00000000  1
  Mg  Mg12  1  0.75590519  0.24409481  0.00000000  1
  Mg  Mg13  1  0.75590519  0.75590519  -0.00000000  1
  Nb  Nb0  1  -0.00000000  -0.00000000  0.00000000  1
  Bi  Bi0  1  0.50000000  0.50000000  0.00000000  1
  O  O0  1  0.26056886  -0.00000000  0.00000000  1
  O  O1  1  0.23094546  0.50000000  0.00000000  1
  O  O2  1  0.73943114  0.00000000  -0.00000000  1
  O  O3  1  0.76905454  0.50000000  -0.00000000  1
  O  O4  1  0.25096933  0.25096933  0.50000000  1
  O  O5  1  0.25096933  0.74903067  0.50000000  1
  O  O6  1  0.74903067  0.25096933  0.50000000  1
  O  O7  1  0.74903067  0.74903067  0.50000000  1
  O  O8  1  -0.00000000  0.00000000  0.50000000  1
  O  O9  1  -0.00000000  0.50000000  0.50000000  1
  O  O10  1  0.50000000  -0.00000000  0.50000000  1
  O  O11  1  0.50000000  0.50000000  0.50000000  1
  O  O12  1  -0.00000000  0.26056886  -0.00000000  1
  O  O13  1  -0.00000000  0.73943114  0.00000000  1
  O  O14  1  0.50000000  0.23094546  0.00000000  1
  O  O15  1  0.50000000  0.76905454  -0.00000000  1
loop_
_geom_bond_atom_site_label_1
_geom_bond_atom_site_label_2
_geom_bond_distance
_geom_bond_site_symmetry_2
Mg0 O3 2.020073 1_455
Mg0 O1 2.020073 1_555
Mg0 O12 2.094297 1_555
Mg0 O13 2.094297 1_555
Mg0 O9 2.245515 1_554
Mg0 O9 2.245515 1_555
Mg1 O15 2.020073 1_545
Mg1 O14 2.020073 1_555
Mg1 O0 2.094297 1_555
Mg1 O2 2.094297 1_555
Mg1 O10 2.245515 1_555
Mg1 O10 2.245515 1_554
Mg2 O9 2.170892 1_555
Mg2 O4 2.195234 1_555
Mg2 O6 2.195234 1_455
Mg2 O8 2.202593 1_555
Mg2 O12 2.246821 1_555
Mg2 O12 2.246821 1_556
Mg3 O9 2.170892 1_555
Mg3 O5 2.195234 1_555
Mg3 O7 2.195234 1_455
Mg3 O8 2.202593 1_565
Mg3 O13 2.246821 1_555
Mg3 O13 2.246821 1_556
Mg4 O10 2.076778 1_555
Mg4 O4 2.181482 1_555
Mg4 O6 2.181482 1_555
Mg4 O14 2.246231 1_555
Mg4 O14 2.246231 1_556
Mg4 O11 2.296708 1_555
Mg5 O10 2.076778 1_565
Mg5 O5 2.181482 1_555
Mg5 O7 2.181482 1_555
Mg5 O15 2.246231 1_556
Mg5 O15 2.246231 1_555
Mg5 O11 2.296708 1_555
Mg6 O10 2.170892 1_555
Mg6 O4 2.195234 1_555
Mg6 O5 2.195234 1_545
Mg6 O8 2.202593 1_555
Mg6 O0 2.246821 1_555
Mg6 O0 2.246821 1_556
Mg7 O9 2.076778 1_555
Mg7 O4 2.181482 1_555
Mg7 O5 2.181482 1_555
Mg7 O1 2.246231 1_556
Mg7 O1 2.246231 1_555
Mg7 O11 2.296708 1_555
Mg8 O10 2.170892 1_555
Mg8 O6 2.195234 1_555
Mg8 O7 2.195234 1_545
Mg8 O8 2.202593 1_655
Mg8 O2 2.246821 1_555
Mg8 O2 2.246821 1_556
Mg9 O9 2.076778 1_655
Mg9 O6 2.181482 1_555
Mg9 O7 2.181482 1_555
Mg9 O3 2.246231 1_556
Mg9 O3 2.246231 1_555
Mg9 O11 2.296708 1_555
Mg10 O12 2.139947 1_555
Mg10 O0 2.139947 1_555
Mg10 O14 2.241348 1_555
Mg10 O1 2.241348 1_555
Mg10 O4 2.247125 1_554
Mg10 O4 2.247125 1_555
Mg11 O13 2.139947 1_555
Mg11 O0 2.139947 1_565
Mg11 O1 2.241348 1_555
Mg11 O15 2.241348 1_555
Mg11 O5 2.247125 1_554
Mg11 O5 2.247125 1_555
Mg12 O12 2.139947 1_655
Mg12 O2 2.139947 1_555
Mg12 O14 2.241348 1_555
Mg12 O3 2.241348 1_555
Mg12 O6 2.247125 1_554
Mg12 O6 2.247125 1_555
Mg13 O13 2.139947 1_655
Mg13 O2 2.139947 1_565
Mg13 O15 2.241348 1_555
Mg13 O3 2.241348 1_555
Mg13 O7 2.247125 1_554
Mg13 O7 2.247125 1_555
Nb0 O8 2.245515 1_554
Nb0 O8 2.245515 1_555
Nb0 O13 2.279188 1_545
Nb0 O12 2.279188 1_555
Nb0 O0 2.279188 1_555
Nb0 O2 2.279188 1_455
Bi0 O11 2.245515 1_554
Bi0 O11 2.245515 1_555
Bi0 O1 2.353412 1_555
Bi0 O14 2.353412 1_555
Bi0 O3 2.353412 1_555
Bi0 O15 2.353412 1_555
