# generated using pymatgen
data_MnH14C8(NO3)2
_symmetry_space_group_name_H-M   'P 1'
_cell_length_a   16.40223200
_cell_length_b   8.03307100
_cell_length_c   10.25722700
_cell_angle_alpha   90.00000000
_cell_angle_beta   90.00000000
_cell_angle_gamma   90.00000000
_symmetry_Int_Tables_number   1
_chemical_formula_structural   MnH14C8(NO3)2
_chemical_formula_sum   'Mn4 H56 C32 N8 O24'
_cell_volume   1351.49524734
_cell_formula_units_Z   4
loop_
 _symmetry_equiv_pos_site_id
 _symmetry_equiv_pos_as_xyz
  1  'x, y, z'
loop_
 _atom_site_type_symbol
 _atom_site_label
 _atom_site_symmetry_multiplicity
 _atom_site_fract_x
 _atom_site_fract_y
 _atom_site_fract_z
 _atom_site_occupancy
  Mn  Mn0  1  0.50000000  0.83810500  0.25000000  1
  Mn  Mn1  1  0.00000000  0.66189500  0.75000000  1
  Mn  Mn2  1  0.50000000  0.16189500  0.75000000  1
  Mn  Mn3  1  0.00000000  0.33810500  0.25000000  1
  H  H0  1  0.42312500  0.51850900  0.37955100  1
  H  H1  1  0.07687500  0.98149100  0.87955100  1
  H  H2  1  0.92312500  0.98149100  0.62044900  1
  H  H3  1  0.57687500  0.51850900  0.12044900  1
  H  H4  1  0.57687500  0.48149100  0.62044900  1
  H  H5  1  0.92312500  0.01850900  0.12044900  1
  H  H6  1  0.07687500  0.01850900  0.37955100  1
  H  H7  1  0.42312500  0.48149100  0.87955100  1
  H  H8  1  0.36401300  0.30134200  0.44832100  1
  H  H9  1  0.13598700  0.19865800  0.94832100  1
  H  H10  1  0.86401300  0.19865800  0.55167900  1
  H  H11  1  0.63598700  0.30134200  0.05167900  1
  H  H12  1  0.63598700  0.69865800  0.55167900  1
  H  H13  1  0.86401300  0.80134200  0.05167900  1
  H  H14  1  0.13598700  0.80134200  0.44832100  1
  H  H15  1  0.36401300  0.69865800  0.94832100  1
  H  H16  1  0.26026200  0.28369200  0.39645100  1
  H  H17  1  0.23973800  0.21630800  0.89645100  1
  H  H18  1  0.76026200  0.21630800  0.60354900  1
  H  H19  1  0.73973800  0.28369200  0.10354900  1
  H  H20  1  0.73973800  0.71630800  0.60354900  1
  H  H21  1  0.76026200  0.78369200  0.10354900  1
  H  H22  1  0.23973800  0.78369200  0.39645100  1
  H  H23  1  0.26026200  0.71630800  0.89645100  1
  H  H24  1  0.33716000  0.15689100  0.32179800  1
  H  H25  1  0.16284000  0.34310900  0.82179800  1
  H  H26  1  0.83716000  0.34310900  0.67820200  1
  H  H27  1  0.66284000  0.15689100  0.17820200  1
  H  H28  1  0.66284000  0.84310900  0.67820200  1
  H  H29  1  0.83716000  0.65689100  0.17820200  1
  H  H30  1  0.16284000  0.65689100  0.32179800  1
  H  H31  1  0.33716000  0.84310900  0.82179800  1
  H  H32  1  0.31497100  0.27955300  0.09068900  1
  H  H33  1  0.18502900  0.22044700  0.59068900  1
  H  H34  1  0.81497100  0.22044700  0.90931100  1
  H  H35  1  0.68502900  0.27955300  0.40931100  1
  H  H36  1  0.68502900  0.72044700  0.90931100  1
  H  H37  1  0.81497100  0.77955300  0.40931100  1
  H  H38  1  0.18502900  0.77955300  0.09068900  1
  H  H39  1  0.31497100  0.72044700  0.59068900  1
  H  H40  1  0.22689700  0.36349800  0.17094700  1
  H  H41  1  0.27310300  0.13650200  0.67094700  1
  H  H42  1  0.72689700  0.13650200  0.82905300  1
  H  H43  1  0.77310300  0.36349800  0.32905300  1
  H  H44  1  0.77310300  0.63650200  0.82905300  1
  H  H45  1  0.72689700  0.86349800  0.32905300  1
  H  H46  1  0.27310300  0.86349800  0.17094700  1
  H  H47  1  0.22689700  0.63650200  0.67094700  1
  H  H48  1  0.29545700  0.49959500  0.08635700  1
  H  H49  1  0.20454300  0.00040500  0.58635700  1
  H  H50  1  0.79545700  0.00040500  0.91364300  1
  H  H51  1  0.70454300  0.49959500  0.41364300  1
  H  H52  1  0.70454300  0.50040500  0.91364300  1
  H  H53  1  0.79545700  0.99959500  0.41364300  1
  H  H54  1  0.20454300  0.99959500  0.08635700  1
  H  H55  1  0.29545700  0.50040500  0.58635700  1
  C  C0  1  0.45999700  0.95282700  0.51894500  1
  C  C1  1  0.04000300  0.54717300  0.01894500  1
  C  C2  1  0.95999700  0.54717300  0.48105500  1
  C  C3  1  0.54000300  0.95282700  0.98105500  1
  C  C4  1  0.54000300  0.04717300  0.48105500  1
  C  C5  1  0.95999700  0.45282700  0.98105500  1
  C  C6  1  0.04000300  0.45282700  0.51894500  1
  C  C7  1  0.45999700  0.04717300  0.01894500  1
  C  C8  1  0.39320600  0.52548500  0.28323600  1
  C  C9  1  0.10679400  0.97451500  0.78323600  1
  C  C10  1  0.89320600  0.97451500  0.71676400  1
  C  C11  1  0.60679400  0.52548500  0.21676400  1
  C  C12  1  0.60679400  0.47451500  0.71676400  1
  C  C13  1  0.89320600  0.02548500  0.21676400  1
  C  C14  1  0.10679400  0.02548500  0.28323600  1
  C  C15  1  0.39320600  0.47451500  0.78323600  1
  C  C16  1  0.32413800  0.27970500  0.36413500  1
  C  C17  1  0.17586200  0.22029500  0.86413500  1
  C  C18  1  0.82413800  0.22029500  0.63586500  1
  C  C19  1  0.67586200  0.27970500  0.13586500  1
  C  C20  1  0.67586200  0.72029500  0.63586500  1
  C  C21  1  0.82413800  0.77970500  0.13586500  1
  C  C22  1  0.17586200  0.77970500  0.36413500  1
  C  C23  1  0.32413800  0.72029500  0.86413500  1
  C  C24  1  0.29095800  0.38673200  0.14557500  1
  C  C25  1  0.20904200  0.11326800  0.64557500  1
  C  C26  1  0.79095800  0.11326800  0.85442500  1
  C  C27  1  0.70904200  0.38673200  0.35442500  1
  C  C28  1  0.70904200  0.61326800  0.85442500  1
  C  C29  1  0.79095800  0.88673200  0.35442500  1
  C  C30  1  0.20904200  0.88673200  0.14557500  1
  C  C31  1  0.29095800  0.61326800  0.64557500  1
  N  N0  1  0.33754300  0.40689400  0.26542000  1
  N  N1  1  0.16245700  0.09310600  0.76542000  1
  N  N2  1  0.83754300  0.09310600  0.73458000  1
  N  N3  1  0.66245700  0.40689400  0.23458000  1
  N  N4  1  0.66245700  0.59310600  0.73458000  1
  N  N5  1  0.83754300  0.90689400  0.23458000  1
  N  N6  1  0.16245700  0.90689400  0.26542000  1
  N  N7  1  0.33754300  0.59310600  0.76542000  1
  O  O0  1  0.43078400  0.85403600  0.43438000  1
  O  O1  1  0.06921600  0.64596400  0.93438000  1
  O  O2  1  0.93078400  0.64596400  0.56562000  1
  O  O3  1  0.56921600  0.85403600  0.06562000  1
  O  O4  1  0.56921600  0.14596400  0.56562000  1
  O  O5  1  0.93078400  0.35403600  0.06562000  1
  O  O6  1  0.06921600  0.35403600  0.43438000  1
  O  O7  1  0.43078400  0.14596400  0.93438000  1
  O  O8  1  0.43031800  0.98224800  0.63072200  1
  O  O9  1  0.06968200  0.51775200  0.13072200  1
  O  O10  1  0.93031800  0.51775200  0.36927800  1
  O  O11  1  0.56968200  0.98224800  0.86927800  1
  O  O12  1  0.56968200  0.01775200  0.36927800  1
  O  O13  1  0.93031800  0.48224800  0.86927800  1
  O  O14  1  0.06968200  0.48224800  0.63072200  1
  O  O15  1  0.43031800  0.01775200  0.13072200  1
  O  O16  1  0.41119700  0.63645200  0.20105900  1
  O  O17  1  0.08880300  0.86354800  0.70105900  1
  O  O18  1  0.91119700  0.86354800  0.79894100  1
  O  O19  1  0.58880300  0.63645200  0.29894100  1
  O  O20  1  0.58880300  0.36354800  0.79894100  1
  O  O21  1  0.91119700  0.13645200  0.29894100  1
  O  O22  1  0.08880300  0.13645200  0.20105900  1
  O  O23  1  0.41119700  0.36354800  0.70105900  1
loop_
_geom_bond_atom_site_label_1
_geom_bond_atom_site_label_2
_geom_bond_distance
_geom_bond_site_symmetry_2
Mn0 O3 2.209529 1_555
Mn0 O0 2.209529 1_555
Mn0 O15 2.210375 1_565
Mn0 O12 2.210375 1_565
Mn0 O19 2.235541 1_555
Mn0 O16 2.235541 1_555
Mn1 O2 2.209529 1_455
Mn1 O1 2.209529 1_555
Mn1 O14 2.210375 1_555
Mn1 O13 2.210375 1_455
Mn1 O17 2.235541 1_555
Mn1 O18 2.235541 1_455
Mn2 O4 2.209529 1_555
Mn2 O7 2.209529 1_555
Mn2 O8 2.210375 1_545
Mn2 O11 2.210375 1_545
Mn2 O20 2.235541 1_555
Mn2 O23 2.235541 1_555
Mn3 O6 2.209529 1_555
Mn3 O5 2.209529 1_455
Mn3 O10 2.210375 1_455
Mn3 O9 2.210375 1_555
Mn3 O22 2.235541 1_555
Mn3 O21 2.235541 1_455
C0 O8 1.267811 1_555
C0 O0 1.269556 1_555
C1 O9 1.267811 1_555
C1 O1 1.269556 1_554
C2 O10 1.267811 1_555
C2 O2 1.269556 1_555
C3 O11 1.267811 1_555
C3 O3 1.269556 1_556
C4 O12 1.267811 1_555
C4 O4 1.269556 1_555
C5 O13 1.267811 1_555
C5 O5 1.269556 1_556
C6 O14 1.267811 1_555
C6 O6 1.269556 1_555
C7 O15 1.267811 1_555
C7 O7 1.269556 1_554
C8 H0 1.104518 1_555
C8 O16 1.261815 1_555
C8 N0 1.332104 1_555
C9 H1 1.104518 1_555
C9 O17 1.261815 1_555
C9 N1 1.332104 1_565
C10 H2 1.104518 1_555
C10 O18 1.261815 1_555
C10 N2 1.332104 1_565
C11 H3 1.104518 1_555
C11 O19 1.261815 1_555
C11 N3 1.332104 1_555
C12 H4 1.104518 1_555
C12 O20 1.261815 1_555
C12 N4 1.332104 1_555
C13 H5 1.104518 1_555
C13 O21 1.261815 1_555
C13 N5 1.332104 1_545
C14 H6 1.104518 1_555
C14 O22 1.261815 1_555
C14 N6 1.332104 1_545
C15 H7 1.104518 1_555
C15 O23 1.261815 1_555
C15 N7 1.332104 1_555
C16 H8 1.097103 1_555
C16 H24 1.098877 1_555
C16 H16 1.099361 1_555
C16 N0 1.455161 1_555
C17 H9 1.097103 1_555
C17 H25 1.098877 1_555
C17 H17 1.099361 1_555
C17 N1 1.455161 1_555
C18 H10 1.097103 1_555
C18 H26 1.098877 1_555
C18 H18 1.099361 1_555
C18 N2 1.455161 1_555
C19 H11 1.097103 1_555
C19 H27 1.098877 1_555
C19 H19 1.099361 1_555
C19 N3 1.455161 1_555
C20 H12 1.097103 1_555
C20 H28 1.098877 1_555
C20 H20 1.099361 1_555
C20 N4 1.455161 1_555
C21 H13 1.097103 1_555
C21 H29 1.098877 1_555
C21 H21 1.099361 1_555
C21 N5 1.455161 1_555
C22 H14 1.097103 1_555
C22 H30 1.098877 1_555
C22 H22 1.099361 1_555
C22 N6 1.455161 1_555
C23 H15 1.097103 1_555
C23 H31 1.098877 1_555
C23 H23 1.099361 1_555
C23 N7 1.455161 1_555
C24 H48 1.093794 1_555
C24 H40 1.098465 1_555
C24 H32 1.101524 1_555
C24 N0 1.456434 1_555
C25 H49 1.093794 1_555
C25 H41 1.098465 1_555
C25 H33 1.101524 1_555
C25 N1 1.456434 1_555
C26 H50 1.093794 1_555
C26 H42 1.098465 1_555
C26 H34 1.101524 1_555
C26 N2 1.456434 1_555
C27 H51 1.093794 1_555
C27 H43 1.098465 1_555
C27 H35 1.101524 1_555
C27 N3 1.456434 1_555
C28 H52 1.093794 1_555
C28 H44 1.098465 1_555
C28 H36 1.101524 1_555
C28 N4 1.456434 1_555
C29 H53 1.093794 1_555
C29 H45 1.098465 1_555
C29 H37 1.101524 1_555
C29 N5 1.456434 1_555
C30 H54 1.093794 1_555
C30 H46 1.098465 1_555
C30 H38 1.101524 1_555
C30 N6 1.456434 1_555
C31 H55 1.093794 1_555
C31 H47 1.098465 1_555
C31 H39 1.101524 1_555
C31 N7 1.456434 1_555
