# generated using pymatgen
data_ErCoSi3
_symmetry_space_group_name_H-M   'P 1'
_cell_length_a   10.70105606
_cell_length_b   10.70105606
_cell_length_c   3.93943500
_cell_angle_alpha   90.00000000
_cell_angle_beta   90.00000000
_cell_angle_gamma   158.88876847
_symmetry_Int_Tables_number   1
_chemical_formula_structural   ErCoSi3
_chemical_formula_sum   'Er2 Co2 Si6'
_cell_volume   162.48243992
_cell_formula_units_Z   2
loop_
 _symmetry_equiv_pos_site_id
 _symmetry_equiv_pos_as_xyz
  1  'x, y, z'
loop_
 _atom_site_type_symbol
 _atom_site_label
 _atom_site_symmetry_multiplicity
 _atom_site_fract_x
 _atom_site_fract_y
 _atom_site_fract_z
 _atom_site_occupancy
  Er  Er0  1  0.66886600  0.33113400  0.50000000  1
  Er  Er1  1  0.33113400  0.66886600  0.50000000  1
  Co  Co0  1  0.89062700  0.10937300  0.00000000  1
  Co  Co1  1  0.10937300  0.89062700  0.00000000  1
  Si  Si0  1  0.94385200  0.05614800  0.50000000  1
  Si  Si1  1  0.05614800  0.94385200  0.50000000  1
  Si  Si2  1  0.78413700  0.21586300  0.00000000  1
  Si  Si3  1  0.21586300  0.78413700  0.00000000  1
  Si  Si4  1  0.55632400  0.44367600  0.00000000  1
  Si  Si5  1  0.44367600  0.55632400  0.00000000  1
loop_
_geom_bond_atom_site_label_1
_geom_bond_atom_site_label_2
_geom_bond_distance
_geom_bond_site_symmetry_2
Er0 Si3 2.949646 1_546
Er0 Si3 2.949646 1_655
Er0 Si3 2.949646 1_656
Er0 Si3 2.949646 1_545
Er0 Si1 3.076892 1_655
Er0 Si1 3.076892 1_545
Er0 Si4 3.080037 1_556
Er0 Si4 3.080037 1_555
Er0 Si2 3.124394 1_556
Er0 Si2 3.124394 1_555
Er1 Si2 2.949646 1_456
Er1 Si2 2.949646 1_455
Er1 Si2 2.949646 1_565
Er1 Si2 2.949646 1_566
Er1 Si0 3.076892 1_565
Er1 Si0 3.076892 1_455
Er1 Si5 3.080037 1_555
Er1 Si5 3.080037 1_556
Er1 Si3 3.124394 1_555
Er1 Si3 3.124394 1_556
Co0 Si2 2.240543 1_555
Co0 Si5 2.255806 1_545
Co0 Si5 2.255806 1_655
Co0 Si0 2.265801 1_555
Co0 Si0 2.265801 1_554
Co0 Er1 3.047866 1_655
Co0 Er1 3.047866 1_654
Co0 Er1 3.047866 1_544
Co0 Er1 3.047866 1_545
Co1 Si3 2.240543 1_555
Co1 Si4 2.255806 1_455
Co1 Si4 2.255806 1_565
Co1 Si1 2.265801 1_554
Co1 Si1 2.265801 1_555
Co1 Er0 3.047866 1_565
Co1 Er0 3.047866 1_564
Co1 Er0 3.047866 1_455
Co1 Er0 3.047866 1_454
Si0 Si1 2.362701 1_645
Si0 Si5 2.778970 1_546
Si0 Si5 2.778970 1_655
Si0 Si5 2.778970 1_545
Si0 Si5 2.778970 1_656
Si1 Si4 2.778970 1_455
Si1 Si4 2.778970 1_566
Si1 Si4 2.778970 1_456
Si1 Si4 2.778970 1_565
Si2 Si3 2.430298 1_545
Si2 Si3 2.430298 1_655
Si4 Si5 2.370107 1_555
