# generated using pymatgen
data_ZnCrSiO5
_symmetry_space_group_name_H-M   'P 1'
_cell_length_a   5.42298262
_cell_length_b   7.07934043
_cell_length_c   8.13319600
_cell_angle_alpha   90.04274287
_cell_angle_beta   40.72993024
_cell_angle_gamma   72.27742919
_symmetry_Int_Tables_number   1
_chemical_formula_structural   ZnCrSiO5
_chemical_formula_sum   'Zn2 Cr2 Si2 O10'
_cell_volume   180.11279699
_cell_formula_units_Z   2
loop_
 _symmetry_equiv_pos_site_id
 _symmetry_equiv_pos_as_xyz
  1  'x, y, z'
loop_
 _atom_site_type_symbol
 _atom_site_label
 _atom_site_symmetry_multiplicity
 _atom_site_fract_x
 _atom_site_fract_y
 _atom_site_fract_z
 _atom_site_occupancy
  Zn  Zn0  1  0.40158400  0.23970400  0.72973800  1
  Zn  Zn1  1  0.60273600  0.72797400  0.25830400  1
  Cr  Cr0  1  0.49775200  0.48690200  0.99726400  1
  Cr  Cr1  1  0.49993200  0.98632800  0.99458700  1
  Si  Si0  1  0.54241300  0.22972200  0.32033100  1
  Si  Si1  1  0.45394300  0.74161600  0.67211100  1
  O  O0  1  0.51915700  0.03966700  0.22528000  1
  O  O1  1  0.66261300  0.38720100  0.14717400  1
  O  O2  1  0.47988700  0.93203500  0.76439700  1
  O  O3  1  0.32962000  0.58711300  0.84917400  1
  O  O4  1  0.89161700  0.60617600  0.34042100  1
  O  O5  1  0.12194200  0.83517100  0.68019600  1
  O  O6  1  0.10658100  0.36199000  0.65298900  1
  O  O7  1  0.87786500  0.13438300  0.30949100  1
  O  O8  1  0.49019400  0.73742600  0.07548900  1
  O  O9  1  0.50889600  0.23372100  0.91507000  1
loop_
_geom_bond_atom_site_label_1
_geom_bond_atom_site_label_2
_geom_bond_distance
_geom_bond_site_symmetry_2
Cr0 O8 1.861842 1_556
Cr0 O9 1.879924 1_555
Cr0 O4 1.926089 1_456
Cr0 O6 1.931501 1_655
Cr0 O1 2.013262 1_556
Cr0 O3 2.014243 1_555
Cr1 O9 1.869177 1_565
Cr1 O8 1.883168 1_556
Cr1 O7 1.946033 1_466
Cr1 O5 1.946194 1_655
Cr1 O0 1.998307 1_566
Cr1 O2 1.999353 1_555
O0 Si0 1.635033 1_555
O0 Zn1 2.173262 1_545
O1 Si0 1.644569 1_555
O1 Zn0 2.345872 1_654
O1 Zn1 2.411907 1_555
O2 Si1 1.635356 1_555
O2 Zn0 2.150141 1_565
O3 Si1 1.644556 1_555
O3 Zn1 2.308166 1_456
O3 Zn0 2.445858 1_555
O4 Si1 1.654314 1_555
O4 Zn1 2.099516 1_555
O5 Si1 1.667054 1_555
O5 Zn1 2.092894 1_555
O6 Si0 1.655379 1_555
O6 Zn0 2.090347 1_555
O7 Si0 1.667916 1_555
O7 Zn0 2.086501 1_555
O8 Zn1 1.984530 1_555
O9 Zn0 1.981691 1_555
