# generated using pymatgen
data_LiV3OF11
_symmetry_space_group_name_H-M   'P 1'
_cell_length_a   6.29860508
_cell_length_b   7.73333072
_cell_length_c   10.65421072
_cell_angle_alpha   71.54379191
_cell_angle_beta   103.65218560
_cell_angle_gamma   110.09894423
_symmetry_Int_Tables_number   1
_chemical_formula_structural   LiV3OF11
_chemical_formula_sum   'Li2 V6 O2 F22'
_cell_volume   457.54715159
_cell_formula_units_Z   2
loop_
 _symmetry_equiv_pos_site_id
 _symmetry_equiv_pos_as_xyz
  1  'x, y, z'
loop_
 _atom_site_type_symbol
 _atom_site_label
 _atom_site_symmetry_multiplicity
 _atom_site_fract_x
 _atom_site_fract_y
 _atom_site_fract_z
 _atom_site_occupancy
  Li  Li0  1  0.42661200  0.52766700  0.81883700  1
  Li  Li1  1  0.42692200  0.02796400  0.31864900  1
  V  V0  1  0.81358000  0.02000200  0.62542000  1
  V  V1  1  0.29890000  0.23754900  0.56694200  1
  V  V2  1  0.06981300  0.06154700  0.99659800  1
  V  V3  1  0.81283300  0.51993200  0.12560400  1
  V  V4  1  0.29811000  0.73728900  0.06701500  1
  V  V5  1  0.06996400  0.56141200  0.49670100  1
  O  O0  1  0.01339900  0.76989500  0.05690700  1
  O  O1  1  0.01387200  0.27000800  0.55692700  1
  F  F0  1  0.94411000  0.54173800  0.31076000  1
  F  F1  1  0.94446600  0.04189200  0.81061400  1
  F  F2  1  0.35100300  0.51316700  0.47602900  1
  F  F3  1  0.35027500  0.01296300  0.97569900  1
  F  F4  1  0.68387600  0.27254100  0.19896200  1
  F  F5  1  0.68586000  0.77242400  0.69858300  1
  F  F6  1  0.19901600  0.31200200  0.92578600  1
  F  F7  1  0.19926200  0.81190600  0.42580600  1
  F  F8  1  0.58666900  0.62282700  0.12903500  1
  F  F9  1  0.58684700  0.12247700  0.62885600  1
  F  F10  1  0.11415300  0.47437700  0.12800700  1
  F  F11  1  0.11588200  0.97496900  0.62776900  1
  F  F12  1  0.69158200  0.49387900  0.95469600  1
  F  F13  1  0.69178500  0.99397700  0.45456100  1
  F  F14  1  0.42253000  0.30301300  0.72091100  1
  F  F15  1  0.42232100  0.80311900  0.22074900  1
  F  F16  1  0.31502700  0.70684500  0.90971700  1
  F  F17  1  0.31509900  0.20730300  0.40949300  1
  F  F18  1  0.79309200  0.52572400  0.52675100  1
  F  F19  1  0.79300000  0.02599800  0.02666100  1
  F  F20  1  0.20130600  0.58405500  0.66668700  1
  F  F21  1  0.20127000  0.08408700  0.16664500  1
loop_
_geom_bond_atom_site_label_1
_geom_bond_atom_site_label_2
_geom_bond_distance
_geom_bond_site_symmetry_2
O0 V4 1.869080 1_555
O0 V3 1.931470 1_455
O0 V2 2.065314 1_564
O1 V1 1.870764 1_555
O1 V0 1.930530 1_455
O1 V5 2.063780 1_555
F0 V5 1.985635 1_655
F0 V3 1.987072 1_555
F1 V2 1.985586 1_655
F1 V0 1.987237 1_555
F2 V1 1.987733 1_555
F2 V5 2.002779 1_555
F3 V4 1.988878 1_546
F3 V2 2.001533 1_555
F4 V3 1.793234 1_555
F4 Li1 2.272904 1_555
F5 V0 1.792476 1_565
F5 Li0 2.284388 1_555
F6 V2 1.806701 1_555
F6 Li0 2.014844 1_555
F7 V5 1.807209 1_555
F7 Li1 2.017344 1_565
F8 V3 1.867032 1_555
F8 V4 2.166100 1_555
F9 V0 1.868073 1_555
F9 V1 2.165465 1_555
F10 V4 1.948953 1_555
F10 V3 2.039032 1_455
F11 V1 1.944962 1_565
F11 V0 2.043321 1_465
F12 V3 1.846501 1_556
F12 Li0 1.966899 1_555
F13 V0 1.846453 1_565
F13 Li1 1.966987 1_565
F14 V1 1.790396 1_555
F14 Li0 2.282932 1_555
F15 V4 1.789783 1_555
F15 Li1 2.282903 1_565
F16 V4 1.796311 1_556
F16 Li0 2.278496 1_555
F17 V1 1.795756 1_555
F17 Li1 2.280214 1_555
F18 V5 1.759748 1_655
F19 V2 1.759694 1_654
F20 V5 1.840919 1_555
F20 Li0 1.929667 1_555
F21 V2 1.841442 1_554
F21 Li1 1.929647 1_555
