# generated using pymatgen
data_Tm5In3
_symmetry_space_group_name_H-M   'P 1'
_cell_length_a   6.57305800
_cell_length_b   8.89771592
_cell_length_c   8.91427278
_cell_angle_alpha   119.93857606
_cell_angle_beta   90.00000000
_cell_angle_gamma   90.00000000
_symmetry_Int_Tables_number   1
_chemical_formula_structural   Tm5In3
_chemical_formula_sum   'Tm10 In6'
_cell_volume   451.78418577
_cell_formula_units_Z   2
loop_
 _symmetry_equiv_pos_site_id
 _symmetry_equiv_pos_as_xyz
  1  'x, y, z'
loop_
 _atom_site_type_symbol
 _atom_site_label
 _atom_site_symmetry_multiplicity
 _atom_site_fract_x
 _atom_site_fract_y
 _atom_site_fract_z
 _atom_site_occupancy
  Tm  Tm0  1  0.50000100  0.33332600  0.66663900  1
  Tm  Tm1  1  0.50000100  0.66668700  0.33336100  1
  Tm  Tm2  1  0.00000100  0.66667400  0.33336100  1
  Tm  Tm3  1  0.00000100  0.33331300  0.66663900  1
  Tm  Tm4  1  0.75000500  0.24332200  0.00000000  1
  Tm  Tm5  1  0.74999700  0.75639900  0.75655500  1
  Tm  Tm6  1  0.74999700  0.99984400  0.24344500  1
  Tm  Tm7  1  0.25000500  0.75667800  0.00000000  1
  Tm  Tm8  1  0.24999700  0.24360100  0.24344500  1
  Tm  Tm9  1  0.24999700  0.00015600  0.75655500  1
  In  In0  1  0.75000000  0.60201400  0.00000000  1
  In  In1  1  0.74999900  0.39763500  0.39780000  1
  In  In2  1  0.74999900  0.99983600  0.60220000  1
  In  In3  1  0.25000000  0.39798600  0.00000000  1
  In  In4  1  0.24999900  0.60236500  0.60220000  1
  In  In5  1  0.24999900  0.00016400  0.39780000  1
loop_
_geom_bond_atom_site_label_1
_geom_bond_atom_site_label_2
_geom_bond_distance
_geom_bond_site_symmetry_2
Tm0 Tm3 3.286529 1_655
Tm0 Tm3 3.286529 1_555
Tm0 Tm5 3.808095 1_555
Tm0 Tm9 3.808220 1_555
Tm0 Tm7 3.814085 1_556
Tm0 Tm4 3.814177 1_556
Tm0 Tm8 3.816166 1_555
Tm0 Tm6 3.816176 1_545
Tm1 Tm2 3.286529 1_655
Tm1 Tm2 3.286529 1_555
Tm1 Tm6 3.808095 1_555
Tm1 Tm8 3.808220 1_555
Tm1 Tm7 3.814085 1_555
Tm1 Tm4 3.814177 1_555
Tm1 Tm9 3.816166 1_565
Tm1 Tm5 3.816176 1_555
Tm2 Tm8 3.808095 1_555
Tm2 Tm6 3.808220 1_455
Tm2 Tm4 3.814085 1_455
Tm2 Tm7 3.814177 1_555
Tm2 Tm5 3.816166 1_455
Tm2 Tm9 3.816176 1_565
Tm3 Tm9 3.808095 1_555
Tm3 Tm5 3.808220 1_455
Tm3 Tm4 3.814085 1_456
Tm3 Tm7 3.814177 1_556
Tm3 Tm6 3.816166 1_445
Tm3 Tm8 3.816176 1_555
Tm4 Tm6 3.754386 1_545
Tm4 Tm5 3.754386 1_544
Tm4 Tm8 3.937644 1_655
Tm4 Tm9 3.937644 1_654
Tm4 Tm8 3.937732 1_555
Tm4 Tm9 3.937732 1_554
Tm5 Tm6 3.761109 1_556
Tm5 Tm7 3.937644 1_556
Tm5 Tm9 3.937679 1_565
Tm5 Tm9 3.937679 1_665
Tm5 Tm7 3.937732 1_656
Tm6 Tm7 3.937644 1_555
Tm6 Tm8 3.937679 1_565
Tm6 Tm8 3.937679 1_665
Tm6 Tm7 3.937732 1_655
Tm7 Tm9 3.754386 1_564
Tm7 Tm8 3.754386 1_565
Tm8 Tm9 3.761109 1_554
In0 Tm5 3.093863 1_554
In0 Tm6 3.093863 1_555
In0 Tm1 3.186755 1_555
In0 Tm0 3.186755 1_554
In0 Tm2 3.186795 1_655
In0 Tm3 3.186795 1_654
In0 Tm4 3.191540 1_555
In0 Tm7 3.562985 1_555
In0 Tm7 3.563046 1_655
In1 Tm6 3.091887 1_545
In1 Tm4 3.098413 1_555
In1 Tm2 3.183283 1_655
In1 Tm1 3.183367 1_555
In1 Tm0 3.184284 1_555
In1 Tm3 3.184362 1_655
In1 Tm5 3.198080 1_555
In1 Tm8 3.562379 1_655
In1 Tm8 3.562403 1_555
In2 Tm5 3.091896 1_555
In2 Tm4 3.098412 1_566
In2 Tm3 3.183275 1_665
In2 Tm0 3.183359 1_565
In2 Tm1 3.184289 1_555
In2 Tm2 3.184367 1_655
In2 Tm6 3.198075 1_555
In2 Tm9 3.562381 1_665
In2 Tm9 3.562405 1_565
In3 Tm8 3.093863 1_555
In3 Tm9 3.093863 1_554
In3 Tm3 3.186755 1_554
In3 Tm2 3.186755 1_555
In3 Tm0 3.186795 1_554
In3 Tm1 3.186795 1_555
In3 Tm7 3.191540 1_555
In3 Tm4 3.562985 1_455
In3 Tm4 3.563046 1_555
In4 Tm9 3.091887 1_565
In4 Tm7 3.098413 1_556
In4 Tm0 3.183283 1_555
In4 Tm3 3.183367 1_555
In4 Tm2 3.184284 1_555
In4 Tm1 3.184362 1_555
In4 Tm8 3.198080 1_555
In4 Tm5 3.562379 1_555
In4 Tm5 3.562403 1_455
In5 Tm8 3.091896 1_555
In5 Tm7 3.098412 1_545
In5 Tm1 3.183275 1_545
In5 Tm2 3.183359 1_545
In5 Tm3 3.184289 1_555
In5 Tm0 3.184367 1_555
In5 Tm9 3.198075 1_555
In5 Tm6 3.562381 1_545
In5 Tm6 3.562405 1_445
