# generated using pymatgen
data_MgH16C4S4N2(O4F3)4
_symmetry_space_group_name_H-M   'P 1'
_cell_length_a   6.87209368
_cell_length_b   16.03411665
_cell_length_c   16.26691233
_cell_angle_alpha   90.00000000
_cell_angle_beta   98.06868249
_cell_angle_gamma   90.00000000
_symmetry_Int_Tables_number   1
_chemical_formula_structural   MgH16C4S4N2(O4F3)4
_chemical_formula_sum   'Mg2 H32 C8 S8 N4 O32 F24'
_cell_volume   1774.67375714
_cell_formula_units_Z   2
loop_
 _symmetry_equiv_pos_site_id
 _symmetry_equiv_pos_as_xyz
  1  'x, y, z'
loop_
 _atom_site_type_symbol
 _atom_site_label
 _atom_site_symmetry_multiplicity
 _atom_site_fract_x
 _atom_site_fract_y
 _atom_site_fract_z
 _atom_site_occupancy
  Mg  Mg0  1  -0.00000000  0.00000000  0.00000000  1
  Mg  Mg1  1  0.50000000  0.50000000  0.50000000  1
  H  H0  1  0.67265948  0.05336707  0.77337266  1
  H  H1  1  0.78014116  0.23710191  0.34130939  1
  H  H2  1  0.14349370  0.17807199  0.61291239  1
  H  H3  1  0.17265948  0.44663293  0.27337266  1
  H  H4  1  0.64769118  0.60806395  0.63218702  1
  H  H5  1  0.85650630  0.82192801  0.38708761  1
  H  H6  1  0.55734282  0.13372093  0.80328556  1
  H  H7  1  0.21985884  0.76289809  0.65869061  1
  H  H8  1  0.35230882  0.39193605  0.36781298  1
  H  H9  1  0.74643747  0.32585098  0.36993980  1
  H  H10  1  0.75356253  0.82585098  0.13006020  1
  H  H11  1  0.68008645  0.90426371  0.79599428  1
  H  H12  1  0.82734052  0.55336707  0.72662734  1
  H  H13  1  0.44265718  0.86627907  0.19671444  1
  H  H14  1  0.71985884  0.73710191  0.15869061  1
  H  H15  1  0.85230882  0.10806395  0.86781298  1
  H  H16  1  0.19079729  0.81664326  0.34081285  1
  H  H17  1  0.81991355  0.40426371  0.70400572  1
  H  H18  1  0.80920271  0.18335674  0.65918715  1
  H  H19  1  0.28014116  0.26289809  0.84130939  1
  H  H20  1  0.32734052  0.94663293  0.22662734  1
  H  H21  1  0.35650630  0.67807199  0.88708761  1
  H  H22  1  0.30920271  0.31664326  0.15918715  1
  H  H23  1  0.25356253  0.67414902  0.63006020  1
  H  H24  1  0.64349370  0.32192801  0.11291239  1
  H  H25  1  0.31991355  0.09573629  0.20400572  1
  H  H26  1  0.94265718  0.63372093  0.69671444  1
  H  H27  1  0.14769118  0.89193605  0.13218702  1
  H  H28  1  0.18008645  0.59573629  0.29599428  1
  H  H29  1  0.69079729  0.68335674  0.84081285  1
  H  H30  1  0.24643747  0.17414902  0.86993980  1
  H  H31  1  0.05734282  0.36627907  0.30328556  1
  C  C0  1  0.87850034  0.88033499  0.42257309  1
  C  C1  1  0.94005832  0.64145362  0.10542586  1
  C  C2  1  0.44005832  0.85854638  0.60542586  1
  C  C3  1  0.05994168  0.35854638  0.89457414  1
  C  C4  1  0.62149966  0.38033499  0.07742691  1
  C  C5  1  0.12149966  0.11966501  0.57742691  1
  C  C6  1  0.55994168  0.14145362  0.39457414  1
  C  C7  1  0.37850034  0.61966501  0.92257309  1
  S  S0  1  0.60883270  0.66706200  0.49770912  1
  S  S1  1  0.24045201  0.75567744  0.28958713  1
  S  S2  1  0.39116730  0.33293800  0.50229088  1
  S  S3  1  0.10883270  0.83293800  0.99770912  1
  S  S4  1  0.25954799  0.25567744  0.21041287  1
  S  S5  1  0.75954799  0.24432256  0.71041287  1
  S  S6  1  0.89116730  0.16706200  0.00229088  1
  S  S7  1  0.74045201  0.74432256  0.78958713  1
  N  N0  1  0.64725132  0.82668561  0.83657643  1
  N  N1  1  0.35274868  0.17331439  0.16342357  1
  N  N2  1  0.14725132  0.67331439  0.33657643  1
  N  N3  1  0.85274868  0.32668561  0.66342357  1
  O  O0  1  0.31769550  0.20486116  0.83185661  1
  O  O1  1  0.25094669  0.97823329  0.77189577  1
  O  O2  1  0.81582793  0.61347968  0.71008528  1
  O  O3  1  0.68230450  0.79513884  0.16814339  1
  O  O4  1  0.53974662  0.26690167  0.50841980  1
  O  O5  1  0.84326037  0.50360524  0.33986101  1
  O  O6  1  0.65673963  0.00360524  0.16013899  1
  O  O7  1  0.95151735  0.09945071  0.92039314  1
  O  O8  1  0.05826723  0.68076798  0.39631994  1
  O  O9  1  0.96025338  0.76690167  0.99158020  1
  O  O10  1  0.46025338  0.73309833  0.49158020  1
  O  O11  1  0.03974662  0.23309833  0.00841980  1
  O  O12  1  0.18230450  0.70486116  0.66814339  1
  O  O13  1  0.15673963  0.49639476  0.66013899  1
  O  O14  1  0.68417207  0.11347968  0.78991472  1
  O  O15  1  0.74905331  0.02176671  0.22810423  1
  O  O16  1  0.05037576  0.90105321  0.93232659  1
  O  O17  1  0.94173277  0.31923202  0.60368006  1
  O  O18  1  0.55037576  0.59894679  0.43232659  1
  O  O19  1  0.81769550  0.29513884  0.33185661  1
  O  O20  1  0.44962424  0.40105321  0.56767341  1
  O  O21  1  0.45151735  0.40054929  0.42039314  1
  O  O22  1  0.55826723  0.81923202  0.89631994  1
  O  O23  1  0.75094669  0.52176671  0.27189577  1
  O  O24  1  0.94962424  0.09894679  0.06767341  1
  O  O25  1  0.31582793  0.88652032  0.21008528  1
  O  O26  1  0.34326037  0.99639476  0.83986101  1
  O  O27  1  0.54848265  0.59945071  0.57960686  1
  O  O28  1  0.04848265  0.90054929  0.07960686  1
  O  O29  1  0.24905331  0.47823329  0.72810423  1
  O  O30  1  0.18417207  0.38652032  0.28991472  1
  O  O31  1  0.44173277  0.18076798  0.10368006  1
  F  F0  1  0.51793469  0.57171443  0.89306231  1
  F  F1  1  0.70583458  0.95666499  0.76121114  1
  F  F2  1  0.20947181  0.57506007  0.91590520  1
  F  F3  1  0.06030245  0.13545481  0.49604377  1
  F  F4  1  0.13490394  0.64255994  0.11754746  1
  F  F5  1  0.29052819  0.07506007  0.58409480  1
  F  F6  1  0.86509606  0.35744006  0.88245254  1
  F  F7  1  0.79416542  0.45666499  0.73878886  1
  F  F8  1  0.43969755  0.63545481  0.00395623  1
  F  F9  1  0.48206531  0.42828557  0.10693769  1
  F  F10  1  0.29416542  0.04333501  0.23878886  1
  F  F11  1  0.98206531  0.07171443  0.60693769  1
  F  F12  1  0.39254336  0.91133944  0.54389874  1
  F  F13  1  0.60745664  0.08866056  0.45610126  1
  F  F14  1  0.79052819  0.42493993  0.08409480  1
  F  F15  1  0.36509606  0.14255994  0.38245254  1
  F  F16  1  0.63490394  0.85744006  0.61754746  1
  F  F17  1  0.20583458  0.54333501  0.26121114  1
  F  F18  1  0.01793469  0.92828557  0.39306231  1
  F  F19  1  0.56030245  0.36454519  0.99604377  1
  F  F20  1  0.10745664  0.41133944  0.95610126  1
  F  F21  1  0.93969755  0.86454519  0.50395623  1
  F  F22  1  0.89254336  0.58866056  0.04389874  1
  F  F23  1  0.70947181  0.92493993  0.41590520  1
loop_
_geom_bond_atom_site_label_1
_geom_bond_atom_site_label_2
_geom_bond_distance
_geom_bond_site_symmetry_2
Mg0 O16 1.988902 1_544
Mg0 O24 1.988902 1_455
Mg0 O7 2.051723 1_454
Mg0 O28 2.051723 1_545
Mg1 O20 1.988902 1_555
Mg1 O18 1.988902 1_555
Mg1 O21 2.051723 1_555
Mg1 O27 2.051723 1_555
H0 O14 1.000851 1_555
H1 O19 0.983540 1_555
H3 O30 1.000851 1_555
H4 O27 1.025551 1_555
H4 O2 1.592890 1_555
H6 O14 0.982605 1_555
H7 O12 0.983540 1_555
H8 O21 1.025551 1_555
H8 O30 1.592890 1_555
H9 O19 0.975311 1_555
H10 O3 0.975311 1_555
H11 N0 1.440765 1_555
H12 O2 1.000851 1_555
H13 O25 0.982605 1_555
H14 O3 0.983540 1_555
H15 O7 1.025551 1_555
H15 O14 1.592890 1_555
H16 S1 1.358747 1_555
H17 N3 1.440765 1_555
H18 S5 1.358747 1_555
H19 O0 0.983540 1_555
H20 O25 1.000851 1_555
H22 S4 1.358747 1_555
H23 O12 0.975311 1_555
H25 N1 1.440765 1_555
H26 O2 0.982605 1_555
H27 O28 1.025551 1_555
H27 O25 1.592890 1_555
H28 N2 1.440765 1_555
H29 S7 1.358747 1_555
H30 O0 0.975311 1_555
H31 O30 0.982605 1_555
C0 H5 1.099363 1_555
C0 F23 1.355425 1_555
C0 F21 1.355454 1_555
C0 F18 1.367061 1_655
C1 F22 1.316487 1_555
C1 F4 1.325893 1_655
C2 F12 1.316487 1_555
C2 F16 1.325893 1_555
C3 F20 1.316487 1_555
C3 F6 1.325893 1_455
C4 H24 1.099363 1_555
C4 F14 1.355425 1_555
C4 F19 1.355454 1_554
C4 F9 1.367061 1_555
C5 H2 1.099363 1_555
C5 F5 1.355425 1_555
C5 F3 1.355454 1_555
C5 F11 1.367061 1_455
C6 F13 1.316487 1_555
C6 F15 1.325893 1_555
C7 H21 1.099363 1_555
C7 F2 1.355425 1_555
C7 F8 1.355454 1_556
C7 F0 1.367061 1_555
N0 O22 1.224553 1_555
N0 S7 1.695862 1_555
N1 O31 1.224553 1_555
N1 S4 1.695862 1_555
N2 O8 1.224553 1_555
N2 S1 1.695862 1_555
N3 O17 1.224553 1_555
N3 S5 1.695862 1_555
O1 O26 1.229909 1_555
O4 S2 1.464595 1_555
O7 S6 1.810295 1_556
O9 S3 1.464595 1_655
O10 S0 1.464595 1_555
O11 S6 1.464595 1_455
O13 O29 1.229909 1_555
O15 O6 1.229909 1_555
O16 S3 1.538003 1_555
O18 S0 1.538003 1_555
O20 S2 1.538003 1_555
O21 S2 1.810295 1_555
O23 O5 1.229909 1_555
O24 S6 1.538003 1_555
O27 S0 1.810295 1_555
O28 S3 1.810295 1_554
F1 H11 1.041878 1_555
F1 H0 1.583643 1_565
F7 H17 1.041878 1_555
F7 H12 1.583643 1_555
F10 H25 1.041878 1_555
F10 H20 1.583643 1_545
F17 H28 1.041878 1_555
F17 H3 1.583643 1_555
