# generated using pymatgen
data_Tm3AlNi8
_symmetry_space_group_name_H-M   'P 1'
_cell_length_a   5.01247416
_cell_length_b   5.01247416
_cell_length_c   15.96269700
_cell_angle_alpha   90.00000000
_cell_angle_beta   90.00000000
_cell_angle_gamma   120.00000206
_symmetry_Int_Tables_number   1
_chemical_formula_structural   Tm3AlNi8
_chemical_formula_sum   'Tm6 Al2 Ni16'
_cell_volume   347.32911170
_cell_formula_units_Z   2
loop_
 _symmetry_equiv_pos_site_id
 _symmetry_equiv_pos_as_xyz
  1  'x, y, z'
loop_
 _atom_site_type_symbol
 _atom_site_label
 _atom_site_symmetry_multiplicity
 _atom_site_fract_x
 _atom_site_fract_y
 _atom_site_fract_z
 _atom_site_occupancy
  Tm  Tm0  1  0.33333300  0.66666700  0.95912400  1
  Tm  Tm1  1  0.66666700  0.33333300  0.04087600  1
  Tm  Tm2  1  0.66666700  0.33333300  0.45912400  1
  Tm  Tm3  1  0.33333300  0.66666700  0.54087600  1
  Tm  Tm4  1  0.33333300  0.66666700  0.75000000  1
  Tm  Tm5  1  0.66666700  0.33333300  0.25000000  1
  Al  Al0  1  0.33333300  0.66666700  0.25000000  1
  Al  Al1  1  0.66666700  0.33333300  0.75000000  1
  Ni  Ni0  1  0.16789700  0.83210300  0.37369200  1
  Ni  Ni1  1  0.16789700  0.33579400  0.37369200  1
  Ni  Ni2  1  0.66420600  0.83210300  0.37369200  1
  Ni  Ni3  1  0.83210300  0.16789700  0.62630800  1
  Ni  Ni4  1  0.83210300  0.66420600  0.62630800  1
  Ni  Ni5  1  0.33579400  0.16789700  0.62630800  1
  Ni  Ni6  1  0.83210300  0.16789700  0.87369200  1
  Ni  Ni7  1  0.83210300  0.66420600  0.87369200  1
  Ni  Ni8  1  0.33579400  0.16789700  0.87369200  1
  Ni  Ni9  1  0.16789700  0.83210300  0.12630800  1
  Ni  Ni10  1  0.16789700  0.33579400  0.12630800  1
  Ni  Ni11  1  0.66420600  0.83210300  0.12630800  1
  Ni  Ni12  1  0.00000000  0.00000000  0.25000000  1
  Ni  Ni13  1  0.00000000  0.00000000  0.75000000  1
  Ni  Ni14  1  0.00000000  0.00000000  0.50000000  1
  Ni  Ni15  1  0.00000000  0.00000000  0.00000000  1
loop_
_geom_bond_atom_site_label_1
_geom_bond_atom_site_label_2
_geom_bond_distance
_geom_bond_site_symmetry_2
Tm0 Tm1 3.174575 1_456
Tm0 Tm1 3.174575 1_566
Tm0 Tm1 3.174583 1_556
Tm0 Tm4 3.338183 1_555
Tm1 Tm5 3.338183 1_555
Tm2 Tm3 3.174575 1_545
Tm2 Tm3 3.174575 1_655
Tm2 Tm3 3.174583 1_555
Tm2 Tm5 3.338183 1_555
Tm3 Tm4 3.338183 1_555
Al0 Ni0 2.441602 1_555
Al0 Ni9 2.441602 1_555
Al0 Ni1 2.441604 1_555
Al0 Ni2 2.441604 1_555
Al0 Ni11 2.441604 1_555
Al0 Ni10 2.441604 1_555
Al0 Tm5 2.893950 1_455
Al0 Tm5 2.893950 1_565
Al0 Ni12 2.893950 1_565
Al0 Ni12 2.893955 1_665
Al0 Ni12 2.893955 1_555
Al0 Tm5 2.893959 1_555
Al1 Ni6 2.441602 1_555
Al1 Ni3 2.441602 1_555
Al1 Ni7 2.441604 1_555
Al1 Ni8 2.441604 1_555
Al1 Ni4 2.441604 1_555
Al1 Ni5 2.441604 1_555
Al1 Tm4 2.893950 1_545
Al1 Tm4 2.893950 1_655
Al1 Ni13 2.893950 1_655
Al1 Ni13 2.893955 1_555
Al1 Ni13 2.893955 1_665
Al1 Tm4 2.893959 1_555
Ni0 Ni12 2.454231 1_565
Ni0 Ni1 2.487736 1_555
Ni0 Ni2 2.487736 1_555
Ni0 Ni14 2.487950 1_565
Ni0 Ni2 2.524738 1_455
Ni0 Ni1 2.524738 1_565
Ni0 Tm2 2.853259 1_455
Ni0 Tm2 2.853259 1_565
Ni0 Tm3 3.030666 1_555
Ni0 Tm5 3.190583 1_455
Ni0 Tm5 3.190583 1_565
Ni1 Ni12 2.454231 1_555
Ni1 Ni2 2.487736 1_555
Ni1 Ni14 2.487950 1_555
Ni1 Ni2 2.524738 1_445
Ni1 Tm2 2.853256 1_455
Ni1 Tm2 2.853261 1_555
Ni1 Tm3 3.030668 1_555
Ni1 Tm5 3.190581 1_455
Ni1 Tm5 3.190585 1_555
Ni2 Tm2 2.853256 1_565
Ni2 Tm2 2.853261 1_555
Ni2 Tm3 3.030668 1_555
Ni2 Tm5 3.190581 1_565
Ni2 Tm5 3.190585 1_555
Ni3 Ni5 2.487736 1_555
Ni3 Ni4 2.487736 1_555
Ni3 Ni4 2.524738 1_545
Ni3 Ni5 2.524738 1_655
Ni3 Tm3 2.853259 1_545
Ni3 Tm3 2.853259 1_655
Ni3 Tm2 3.030666 1_555
Ni3 Tm4 3.190583 1_545
Ni3 Tm4 3.190583 1_655
Ni4 Ni5 2.487736 1_555
Ni4 Ni5 2.524738 1_665
Ni4 Tm3 2.853256 1_655
Ni4 Tm3 2.853261 1_555
Ni4 Tm2 3.030668 1_555
Ni4 Tm4 3.190581 1_655
Ni4 Tm4 3.190585 1_555
Ni5 Tm3 2.853256 1_545
Ni5 Tm3 2.853261 1_555
Ni5 Tm2 3.030668 1_555
Ni5 Tm4 3.190581 1_545
Ni5 Tm4 3.190585 1_555
Ni6 Ni8 2.487736 1_555
Ni6 Ni7 2.487736 1_555
Ni6 Ni7 2.524738 1_545
Ni6 Ni8 2.524738 1_655
Ni6 Tm0 2.853259 1_545
Ni6 Tm0 2.853259 1_655
Ni6 Tm1 3.030666 1_556
Ni6 Tm4 3.190583 1_545
Ni6 Tm4 3.190583 1_655
Ni7 Ni8 2.487736 1_555
Ni7 Ni8 2.524738 1_665
Ni7 Tm0 2.853256 1_655
Ni7 Tm0 2.853261 1_555
Ni7 Tm1 3.030668 1_556
Ni7 Tm4 3.190581 1_655
Ni7 Tm4 3.190585 1_555
Ni8 Tm0 2.853256 1_545
Ni8 Tm0 2.853261 1_555
Ni8 Tm1 3.030668 1_556
Ni8 Tm4 3.190581 1_545
Ni8 Tm4 3.190585 1_555
Ni9 Tm1 2.853259 1_455
Ni9 Tm1 2.853259 1_565
Ni9 Tm0 3.030666 1_554
Ni9 Tm5 3.190583 1_455
Ni9 Tm5 3.190583 1_565
Ni10 Ni12 2.454231 1_555
Ni10 Ni11 2.487736 1_555
Ni10 Ni9 2.487736 1_555
Ni10 Ni15 2.487950 1_555
Ni10 Ni11 2.524738 1_445
Ni10 Ni9 2.524738 1_545
Ni10 Tm1 2.853256 1_455
Ni10 Tm1 2.853261 1_555
Ni10 Tm0 3.030668 1_554
Ni10 Tm5 3.190581 1_455
Ni10 Tm5 3.190585 1_555
Ni11 Ni12 2.454231 1_665
Ni11 Ni9 2.487736 1_555
Ni11 Ni15 2.487950 1_665
Ni11 Ni9 2.524738 1_655
Ni11 Tm1 2.853256 1_565
Ni11 Tm1 2.853261 1_555
Ni11 Tm0 3.030668 1_554
Ni11 Tm5 3.190581 1_565
Ni11 Tm5 3.190585 1_555
Ni12 Ni2 2.454231 1_445
Ni12 Ni9 2.454231 1_545
Ni12 Tm5 2.893950 1_455
Ni12 Tm5 2.893955 1_555
Ni12 Tm5 2.893955 1_445
Ni13 Ni8 2.454231 1_555
Ni13 Ni7 2.454231 1_445
Ni13 Ni5 2.454231 1_555
Ni13 Ni4 2.454231 1_445
Ni13 Ni6 2.454231 1_455
Ni13 Ni3 2.454231 1_455
Ni13 Tm4 2.893950 1_545
Ni13 Tm4 2.893955 1_555
Ni13 Tm4 2.893955 1_445
Ni14 Ni4 2.487950 1_445
Ni14 Ni5 2.487950 1_555
Ni14 Ni2 2.487950 1_445
Ni14 Ni3 2.487950 1_455
Ni14 Tm3 2.966596 1_545
Ni14 Tm2 2.966596 1_455
Ni14 Tm2 2.966600 1_445
Ni14 Tm2 2.966600 1_555
Ni14 Tm3 2.966600 1_445
Ni14 Tm3 2.966600 1_555
Ni15 Ni8 2.487950 1_554
Ni15 Ni7 2.487950 1_444
Ni15 Ni9 2.487950 1_545
Ni15 Ni6 2.487950 1_454
Ni15 Tm1 2.966596 1_455
Ni15 Tm0 2.966596 1_544
Ni15 Tm1 2.966600 1_555
Ni15 Tm1 2.966600 1_445
Ni15 Tm0 2.966600 1_554
Ni15 Tm0 2.966600 1_444
