# generated using pymatgen
data_Lu3(MnGa2)2
_symmetry_space_group_name_H-M   'P 1'
_cell_length_a   7.50692633
_cell_length_b   7.50692633
_cell_length_c   3.53210100
_cell_angle_alpha   90.00000000
_cell_angle_beta   90.00000000
_cell_angle_gamma   120.00000290
_symmetry_Int_Tables_number   1
_chemical_formula_structural   Lu3(MnGa2)2
_chemical_formula_sum   'Lu3 Mn2 Ga4'
_cell_volume   172.38046200
_cell_formula_units_Z   1
loop_
 _symmetry_equiv_pos_site_id
 _symmetry_equiv_pos_as_xyz
  1  'x, y, z'
loop_
 _atom_site_type_symbol
 _atom_site_label
 _atom_site_symmetry_multiplicity
 _atom_site_fract_x
 _atom_site_fract_y
 _atom_site_fract_z
 _atom_site_occupancy
  Lu  Lu0  1  0.38111300  0.00000000  0.50000000  1
  Lu  Lu1  1  0.00000000  0.38111300  0.50000000  1
  Lu  Lu2  1  0.61888700  0.61888700  0.50000000  1
  Mn  Mn0  1  0.33333300  0.66666700  0.00000000  1
  Mn  Mn1  1  0.66666700  0.33333300  0.00000000  1
  Ga  Ga0  1  0.28886100  0.28886100  0.00000000  1
  Ga  Ga1  1  0.00000000  0.00000000  0.50000000  1
  Ga  Ga2  1  0.00000000  0.71113900  0.00000000  1
  Ga  Ga3  1  0.71113900  0.00000000  0.00000000  1
loop_
_geom_bond_atom_site_label_1
_geom_bond_atom_site_label_2
_geom_bond_distance
_geom_bond_site_symmetry_2
Lu0 Mn0 2.934552 1_546
Lu0 Mn0 2.934552 1_545
Lu0 Mn1 2.934554 1_556
Lu0 Mn1 2.934554 1_555
Lu1 Mn1 2.934552 1_455
Lu1 Mn1 2.934552 1_456
Lu1 Mn0 2.934554 1_556
Lu1 Mn0 2.934554 1_555
Lu2 Mn1 2.934558 1_556
Lu2 Mn0 2.934558 1_556
Lu2 Mn0 2.934558 1_555
Lu2 Mn1 2.934558 1_555
Ga0 Mn0 2.684850 1_555
Ga0 Mn1 2.684850 1_555
Ga0 Ga1 2.796631 1_554
Ga0 Ga1 2.796631 1_555
Ga0 Lu2 3.042506 1_555
Ga0 Lu2 3.042506 1_554
Ga0 Lu0 3.130888 1_555
Ga0 Lu1 3.130888 1_555
Ga0 Lu0 3.130888 1_554
Ga0 Lu1 3.130888 1_554
Ga1 Ga3 2.796631 1_455
Ga1 Ga3 2.796631 1_456
Ga1 Ga2 2.796631 1_546
Ga1 Ga2 2.796631 1_545
Ga1 Lu2 2.860987 1_445
Ga1 Lu1 2.860987 1_555
Ga1 Lu0 2.860987 1_555
Ga2 Mn0 2.684843 1_555
Ga2 Mn1 2.684847 1_455
Ga2 Lu1 3.042507 1_555
Ga2 Lu1 3.042507 1_554
Ga2 Lu0 3.130888 1_565
Ga2 Lu0 3.130888 1_564
Ga2 Lu2 3.130888 1_455
Ga2 Lu2 3.130888 1_454
Ga3 Mn1 2.684843 1_555
Ga3 Mn0 2.684847 1_545
Ga3 Lu0 3.042507 1_555
Ga3 Lu0 3.042507 1_554
Ga3 Lu1 3.130888 1_654
Ga3 Lu1 3.130888 1_655
Ga3 Lu2 3.130888 1_545
Ga3 Lu2 3.130888 1_544
