# generated using pymatgen
data_Ca2B8O15
_symmetry_space_group_name_H-M   'P 1'
_cell_length_a   6.49791775
_cell_length_b   9.44469418
_cell_length_c   10.16406156
_cell_angle_alpha   117.00568070
_cell_angle_beta   90.51809366
_cell_angle_gamma   99.89107868
_symmetry_Int_Tables_number   1
_chemical_formula_structural   Ca2B8O15
_chemical_formula_sum   'Ca4 B16 O30'
_cell_volume   544.80173682
_cell_formula_units_Z   2
loop_
 _symmetry_equiv_pos_site_id
 _symmetry_equiv_pos_as_xyz
  1  'x, y, z'
loop_
 _atom_site_type_symbol
 _atom_site_label
 _atom_site_symmetry_multiplicity
 _atom_site_fract_x
 _atom_site_fract_y
 _atom_site_fract_z
 _atom_site_occupancy
  Ca  Ca0  1  0.51917600  0.18245500  0.71998500  1
  Ca  Ca1  1  0.48082400  0.81754500  0.28001500  1
  Ca  Ca2  1  0.84011600  0.18521900  0.17206500  1
  Ca  Ca3  1  0.15988400  0.81478100  0.82793600  1
  B  B0  1  0.24820200  0.06491000  0.21851500  1
  B  B1  1  0.75179800  0.93509000  0.78148500  1
  B  B2  1  0.58097700  0.40450000  0.12654100  1
  B  B3  1  0.41902300  0.59550000  0.87345900  1
  B  B4  1  0.23549800  0.46864100  0.15696800  1
  B  B5  1  0.76450200  0.53135900  0.84303200  1
  B  B6  1  0.20113900  0.26082100  0.47829200  1
  B  B7  1  0.79886100  0.73917900  0.52170800  1
  B  B8  1  0.07492300  0.38876300  0.73589700  1
  B  B9  1  0.92507700  0.61123700  0.26410300  1
  B  B10  1  0.05470800  0.15539900  0.80790200  1
  B  B11  1  0.94529200  0.84460100  0.19209800  1
  B  B12  1  0.26958300  0.17418200  0.02476600  1
  B  B13  1  0.73041700  0.82581800  0.97523400  1
  B  B14  1  0.55440500  0.18239100  0.42753300  1
  B  B15  1  0.44559500  0.81760900  0.57246700  1
  O  O0  1  0.45164900  0.51633000  0.15233500  1
  O  O1  1  0.54835100  0.48367000  0.84766500  1
  O  O2  1  0.49896700  0.24125800  0.04816800  1
  O  O3  1  0.50103300  0.75874200  0.95183200  1
  O  O4  1  0.14931300  0.30773300  0.10419100  1
  O  O5  1  0.85068700  0.69226700  0.89580900  1
  O  O6  1  0.13969200  0.59710600  0.21972900  1
  O  O7  1  0.86030800  0.40289400  0.78027100  1
  O  O8  1  0.65479000  0.08943400  0.47731400  1
  O  O9  1  0.34521000  0.91056600  0.52268600  1
  O  O10  1  0.21753500  0.05000200  0.07132600  1
  O  O11  1  0.78246500  0.94999800  0.92867400  1
  O  O12  1  0.15795900  0.90410500  0.21394300  1
  O  O13  1  0.84204100  0.09589500  0.78605700  1
  O  O14  1  0.14328900  0.19224100  0.32702900  1
  O  O15  1  0.85671100  0.80775900  0.67297100  1
  O  O16  1  0.39560600  0.24897800  0.52730300  1
  O  O17  1  0.60439400  0.75102200  0.47269700  1
  O  O18  1  0.06989900  0.33845600  0.57769400  1
  O  O19  1  0.93010100  0.66154400  0.42230600  1
  O  O20  1  0.19682100  0.09289700  0.86265700  1
  O  O21  1  0.80317900  0.90710300  0.13734300  1
  O  O22  1  0.71460700  0.30052200  0.41122100  1
  O  O23  1  0.28539300  0.69947800  0.58877900  1
  O  O24  1  0.47308500  0.09069900  0.26823800  1
  O  O25  1  0.52691500  0.90930100  0.73176200  1
  O  O26  1  0.78696000  0.44749500  0.17834400  1
  O  O27  1  0.21304000  0.55250500  0.82165600  1
  O  O28  1  0.15146100  0.27335200  0.77448500  1
  O  O29  1  0.84853900  0.72664800  0.22551500  1
loop_
_geom_bond_atom_site_label_1
_geom_bond_atom_site_label_2
_geom_bond_distance
_geom_bond_site_symmetry_2
Ca0 O8 2.443246 1_555
Ca0 O16 2.477349 1_555
Ca0 O9 2.485673 1_545
Ca0 O1 2.504167 1_555
Ca0 O13 2.565757 1_555
Ca0 O7 2.618206 1_555
Ca0 O25 2.645265 1_545
Ca0 O28 2.655143 1_555
Ca0 O20 2.786756 1_555
Ca1 O9 2.443246 1_555
Ca1 O17 2.477349 1_555
Ca1 O8 2.485673 1_565
Ca1 O0 2.504167 1_555
Ca1 O12 2.565757 1_555
Ca1 O6 2.618206 1_555
Ca1 O24 2.645265 1_565
Ca1 O29 2.655143 1_555
Ca1 O21 2.786756 1_555
Ca2 O22 2.386789 1_555
Ca2 O4 2.408897 1_655
Ca2 O11 2.429383 1_544
Ca2 O21 2.453940 1_545
Ca2 O14 2.483995 1_655
Ca2 O26 2.531848 1_555
Ca2 O24 2.746560 1_555
Ca2 O2 2.781701 1_555
Ca2 O10 2.937290 1_655
Ca3 O23 2.386797 1_555
Ca3 O5 2.408892 1_455
Ca3 O10 2.429377 1_566
Ca3 O20 2.453943 1_565
Ca3 O15 2.484001 1_455
Ca3 O27 2.531844 1_555
Ca3 O25 2.746565 1_555
Ca3 O3 2.781696 1_555
Ca3 O11 2.937288 1_455
B0 O10 1.446145 1_555
B0 O24 1.484127 1_555
B0 O14 1.489343 1_555
B0 O12 1.510655 1_545
B1 O11 1.446145 1_555
B1 O25 1.484127 1_555
B1 O15 1.489343 1_555
B1 O13 1.510655 1_565
B2 O26 1.356452 1_555
B2 O2 1.374877 1_555
B2 O0 1.395688 1_555
B3 O27 1.356452 1_555
B3 O3 1.374877 1_555
B3 O1 1.395688 1_555
B4 O6 1.352919 1_555
B4 O4 1.368494 1_555
B4 O0 1.407450 1_555
B5 O7 1.352919 1_555
B5 O5 1.368494 1_555
B5 O1 1.407450 1_555
B6 O18 1.357673 1_555
B6 O14 1.387845 1_555
B6 O16 1.394706 1_555
B7 O19 1.357673 1_555
B7 O15 1.387845 1_555
B7 O17 1.394706 1_555
B8 O18 1.453381 1_555
B8 O28 1.469792 1_555
B8 O7 1.478734 1_455
B8 O27 1.497232 1_555
B9 O19 1.453381 1_555
B9 O29 1.469792 1_555
B9 O6 1.478734 1_655
B9 O26 1.497232 1_555
B10 O28 1.363289 1_555
B10 O13 1.374441 1_455
B10 O20 1.409707 1_555
B11 O29 1.363289 1_555
B11 O12 1.374441 1_655
B11 O21 1.409707 1_555
B12 O10 1.443806 1_555
B12 O2 1.487245 1_555
B12 O20 1.496740 1_554
B12 O4 1.509561 1_555
B13 O11 1.443806 1_555
B13 O3 1.487245 1_555
B13 O21 1.496740 1_556
B13 O5 1.509561 1_555
B14 O8 1.430559 1_555
B14 O22 1.458780 1_555
B14 O16 1.466724 1_555
B14 O24 1.484780 1_555
B15 O9 1.430559 1_555
B15 O23 1.458780 1_555
B15 O17 1.466724 1_555
B15 O25 1.484780 1_555
