# generated using pymatgen
data_Nd3Tm2(GaO4)3
_symmetry_space_group_name_H-M   'P 1'
_cell_length_a   11.18782937
_cell_length_b   11.18782937
_cell_length_c   11.18782937
_cell_angle_alpha   109.47122063
_cell_angle_beta   109.47122063
_cell_angle_gamma   109.47122063
_symmetry_Int_Tables_number   1
_chemical_formula_structural   Nd3Tm2(GaO4)3
_chemical_formula_sum   'Nd12 Tm8 Ga12 O48'
_cell_volume   1077.99218406
_cell_formula_units_Z   4
loop_
 _symmetry_equiv_pos_site_id
 _symmetry_equiv_pos_as_xyz
  1  'x, y, z'
loop_
 _atom_site_type_symbol
 _atom_site_label
 _atom_site_symmetry_multiplicity
 _atom_site_fract_x
 _atom_site_fract_y
 _atom_site_fract_z
 _atom_site_occupancy
  Nd  Nd0  1  0.25000000  0.37500000  0.12500000  1
  Nd  Nd1  1  0.75000000  0.62500000  0.87500000  1
  Nd  Nd2  1  0.75000000  0.12500000  0.37500000  1
  Nd  Nd3  1  0.12500000  0.25000000  0.37500000  1
  Nd  Nd4  1  0.37500000  0.75000000  0.12500000  1
  Nd  Nd5  1  0.25000000  0.87500000  0.62500000  1
  Nd  Nd6  1  0.87500000  0.75000000  0.62500000  1
  Nd  Nd7  1  0.62500000  0.25000000  0.87500000  1
  Nd  Nd8  1  0.37500000  0.12500000  0.25000000  1
  Nd  Nd9  1  0.62500000  0.87500000  0.75000000  1
  Nd  Nd10  1  0.12500000  0.37500000  0.75000000  1
  Nd  Nd11  1  0.87500000  0.62500000  0.25000000  1
  Tm  Tm0  1  -0.00000000  0.00000000  0.00000000  1
  Tm  Tm1  1  0.50000000  0.00000000  0.50000000  1
  Tm  Tm2  1  -0.00000000  0.50000000  0.50000000  1
  Tm  Tm3  1  0.50000000  0.00000000  0.00000000  1
  Tm  Tm4  1  0.50000000  0.50000000  0.00000000  1
  Tm  Tm5  1  0.50000000  0.50000000  0.50000000  1
  Tm  Tm6  1  -0.00000000  0.00000000  0.50000000  1
  Tm  Tm7  1  -0.00000000  0.50000000  0.00000000  1
  Ga  Ga0  1  0.25000000  0.62500000  0.37500000  1
  Ga  Ga1  1  0.75000000  0.37500000  0.62500000  1
  Ga  Ga2  1  0.75000000  0.87500000  0.12500000  1
  Ga  Ga3  1  0.37500000  0.25000000  0.62500000  1
  Ga  Ga4  1  0.62500000  0.75000000  0.37500000  1
  Ga  Ga5  1  0.25000000  0.12500000  0.87500000  1
  Ga  Ga6  1  0.12500000  0.75000000  0.87500000  1
  Ga  Ga7  1  0.87500000  0.25000000  0.12500000  1
  Ga  Ga8  1  0.62500000  0.37500000  0.25000000  1
  Ga  Ga9  1  0.37500000  0.62500000  0.75000000  1
  Ga  Ga10  1  0.87500000  0.12500000  0.75000000  1
  Ga  Ga11  1  0.12500000  0.87500000  0.25000000  1
  O  O0  1  0.47246465  0.37387054  0.28442297  1
  O  O1  1  0.52753535  0.62612946  0.71557703  1
  O  O2  1  0.58944756  0.18804068  0.21557703  1
  O  O3  1  0.91055244  0.12612946  0.59859411  1
  O  O4  1  0.28442297  0.47246465  0.37387054  1
  O  O5  1  0.31195932  0.91055244  0.28442297  1
  O  O6  1  0.41055244  0.81195932  0.78442297  1
  O  O7  1  0.08944756  0.87387054  0.40140589  1
  O  O8  1  0.71557703  0.52753535  0.62612946  1
  O  O9  1  0.68804068  0.08944756  0.71557703  1
  O  O10  1  0.02753535  0.31195932  0.90140589  1
  O  O11  1  0.21557703  0.58944756  0.18804068  1
  O  O12  1  0.12612946  0.02753535  0.21557703  1
  O  O13  1  0.97246465  0.68804068  0.09859411  1
  O  O14  1  0.78442297  0.41055244  0.81195932  1
  O  O15  1  0.87387054  0.97246465  0.78442297  1
  O  O16  1  0.59859411  0.91055244  0.12612946  1
  O  O17  1  0.18804068  0.47246465  0.59859411  1
  O  O18  1  0.40140589  0.08944756  0.87387054  1
  O  O19  1  0.81195932  0.52753535  0.40140589  1
  O  O20  1  0.90140589  0.02753535  0.31195932  1
  O  O21  1  0.37387054  0.58944756  0.90140589  1
  O  O22  1  0.09859411  0.97246465  0.68804068  1
  O  O23  1  0.62612946  0.41055244  0.09859411  1
  O  O24  1  0.37387054  0.28442297  0.47246465  1
  O  O25  1  0.58944756  0.90140589  0.37387054  1
  O  O26  1  0.62612946  0.71557703  0.52753535  1
  O  O27  1  0.41055244  0.09859411  0.62612946  1
  O  O28  1  0.12612946  0.59859411  0.91055244  1
  O  O29  1  0.02753535  0.21557703  0.12612946  1
  O  O30  1  0.87387054  0.40140589  0.08944756  1
  O  O31  1  0.97246465  0.78442297  0.87387054  1
  O  O32  1  0.31195932  0.90140589  0.02753535  1
  O  O33  1  0.91055244  0.28442297  0.31195932  1
  O  O34  1  0.68804068  0.09859411  0.97246465  1
  O  O35  1  0.08944756  0.71557703  0.68804068  1
  O  O36  1  0.18804068  0.21557703  0.58944756  1
  O  O37  1  0.47246465  0.59859411  0.18804068  1
  O  O38  1  0.81195932  0.78442297  0.41055244  1
  O  O39  1  0.52753535  0.40140589  0.81195932  1
  O  O40  1  0.28442297  0.31195932  0.91055244  1
  O  O41  1  0.71557703  0.68804068  0.08944756  1
  O  O42  1  0.21557703  0.12612946  0.02753535  1
  O  O43  1  0.78442297  0.87387054  0.97246465  1
  O  O44  1  0.90140589  0.37387054  0.58944756  1
  O  O45  1  0.09859411  0.62612946  0.41055244  1
  O  O46  1  0.59859411  0.18804068  0.47246465  1
  O  O47  1  0.40140589  0.81195932  0.52753535  1
loop_
_geom_bond_atom_site_label_1
_geom_bond_atom_site_label_2
_geom_bond_distance
_geom_bond_site_symmetry_2
Nd0 O40 2.463919 1_554
Nd0 O11 2.463919 1_555
Nd0 O4 2.463920 1_555
Nd0 O42 2.463920 1_555
Nd0 O0 2.540181 1_555
Nd0 O29 2.540181 1_555
Nd0 O37 2.540185 1_555
Nd0 O10 2.540185 1_554
Nd1 O41 2.463919 1_556
Nd1 O14 2.463919 1_555
Nd1 O43 2.463920 1_555
Nd1 O8 2.463920 1_555
Nd1 O1 2.540181 1_555
Nd1 O31 2.540181 1_555
Nd1 O39 2.540185 1_555
Nd1 O13 2.540185 1_556
Nd2 O20 2.463916 1_555
Nd2 O46 2.463916 1_555
Nd2 O16 2.463920 1_545
Nd2 O44 2.463920 1_555
Nd2 O2 2.540172 1_555
Nd2 O33 2.540172 1_555
Nd2 O3 2.540181 1_555
Nd2 O25 2.540181 1_545
Nd3 O33 2.463919 1_455
Nd3 O36 2.463919 1_555
Nd3 O29 2.463920 1_555
Nd3 O24 2.463920 1_555
Nd3 O4 2.540181 1_555
Nd3 O12 2.540181 1_555
Nd3 O20 2.540185 1_455
Nd3 O17 2.540185 1_555
Nd4 O37 2.463916 1_555
Nd4 O32 2.463916 1_555
Nd4 O28 2.463920 1_554
Nd4 O25 2.463920 1_555
Nd4 O5 2.540172 1_555
Nd4 O11 2.540172 1_555
Nd4 O16 2.540181 1_555
Nd4 O21 2.540181 1_554
Nd5 O47 2.463916 1_555
Nd5 O22 2.463916 1_555
Nd5 O18 2.463920 1_565
Nd5 O45 2.463920 1_555
Nd5 O35 2.540172 1_555
Nd5 O6 2.540172 1_555
Nd5 O7 2.540181 1_555
Nd5 O27 2.540181 1_565
Nd6 O35 2.463919 1_655
Nd6 O38 2.463919 1_555
Nd6 O31 2.463920 1_555
Nd6 O26 2.463920 1_555
Nd6 O8 2.540181 1_555
Nd6 O15 2.540181 1_555
Nd6 O19 2.540185 1_555
Nd6 O22 2.540185 1_655
Nd7 O34 2.463916 1_555
Nd7 O39 2.463916 1_555
Nd7 O27 2.463920 1_555
Nd7 O30 2.463920 1_556
Nd7 O9 2.540172 1_555
Nd7 O14 2.540172 1_555
Nd7 O18 2.540181 1_555
Nd7 O23 2.540181 1_556
Nd8 O2 2.463919 1_555
Nd8 O5 2.463919 1_545
Nd8 O0 2.463920 1_555
Nd8 O12 2.463920 1_555
Nd8 O24 2.540181 1_555
Nd8 O42 2.540181 1_555
Nd8 O46 2.540185 1_555
Nd8 O32 2.540185 1_545
Nd9 O9 2.463919 1_565
Nd9 O6 2.463919 1_555
Nd9 O15 2.463920 1_555
Nd9 O1 2.463920 1_555
Nd9 O26 2.540181 1_555
Nd9 O43 2.540181 1_555
Nd9 O47 2.540185 1_555
Nd9 O34 2.540185 1_565
Nd10 O17 2.463916 1_555
Nd10 O10 2.463916 1_555
Nd10 O3 2.463920 1_455
Nd10 O21 2.463920 1_555
Nd10 O36 2.540172 1_555
Nd10 O40 2.540172 1_555
Nd10 O44 2.540181 1_455
Nd10 O28 2.540181 1_555
Nd11 O19 2.463916 1_555
Nd11 O13 2.463916 1_555
Nd11 O7 2.463920 1_655
Nd11 O23 2.463920 1_555
Nd11 O41 2.540172 1_555
Nd11 O38 2.540172 1_555
Nd11 O30 2.540181 1_555
Nd11 O45 2.540181 1_655
Ga0 O4 1.867557 1_555
Ga0 O45 1.867557 1_555
Ga0 O47 1.867562 1_555
Ga0 O11 1.867567 1_555
Ga1 O8 1.867557 1_555
Ga1 O44 1.867557 1_555
Ga1 O46 1.867562 1_555
Ga1 O14 1.867567 1_555
Ga2 O43 1.867557 1_554
Ga2 O16 1.867557 1_555
Ga2 O20 1.867562 1_565
Ga2 O41 1.867567 1_555
Ga3 O24 1.867557 1_555
Ga3 O27 1.867557 1_555
Ga3 O39 1.867562 1_555
Ga3 O36 1.867567 1_555
Ga4 O26 1.867557 1_555
Ga4 O25 1.867557 1_555
Ga4 O37 1.867562 1_555
Ga4 O38 1.867567 1_555
Ga5 O42 1.867557 1_556
Ga5 O18 1.867557 1_555
Ga5 O22 1.867562 1_545
Ga5 O40 1.867567 1_555
Ga6 O31 1.867557 1_455
Ga6 O28 1.867557 1_555
Ga6 O32 1.867562 1_556
Ga6 O35 1.867567 1_555
Ga7 O29 1.867557 1_655
Ga7 O30 1.867557 1_555
Ga7 O34 1.867562 1_554
Ga7 O33 1.867567 1_555
Ga8 O0 1.867557 1_555
Ga8 O23 1.867557 1_555
Ga8 O19 1.867562 1_555
Ga8 O2 1.867567 1_555
Ga9 O1 1.867557 1_555
Ga9 O21 1.867557 1_555
Ga9 O17 1.867562 1_555
Ga9 O6 1.867567 1_555
Ga10 O15 1.867557 1_545
Ga10 O3 1.867557 1_555
Ga10 O10 1.867562 1_655
Ga10 O9 1.867567 1_555
Ga11 O12 1.867557 1_565
Ga11 O7 1.867557 1_555
Ga11 O13 1.867562 1_455
Ga11 O5 1.867567 1_555
O0 Tm5 2.202058 1_555
O1 Tm5 2.202058 1_555
O2 Tm3 2.202053 1_555
O3 Tm6 2.202058 1_655
O4 Tm5 2.202058 1_555
O5 Tm1 2.202053 1_565
O6 Tm3 2.202053 1_566
O7 Tm6 2.202058 1_565
O8 Tm5 2.202058 1_555
O9 Tm1 2.202053 1_555
O10 Tm7 2.202048 1_556
O11 Tm7 2.202053 1_555
O12 Tm0 2.202058 1_555
O13 Tm7 2.202048 1_655
O14 Tm7 2.202053 1_656
O15 Tm0 2.202058 1_666
O16 Tm3 2.202058 1_565
O17 Tm2 2.202048 1_555
O18 Tm3 2.202058 1_556
O19 Tm2 2.202048 1_655
O20 Tm6 2.202048 1_655
O21 Tm4 2.202058 1_556
O22 Tm6 2.202048 1_565
O23 Tm4 2.202058 1_555
O24 Tm5 2.202058 1_555
O25 Tm1 2.202058 1_565
O26 Tm5 2.202058 1_555
O27 Tm1 2.202058 1_555
O28 Tm7 2.202058 1_556
O29 Tm0 2.202058 1_555
O30 Tm7 2.202058 1_655
O31 Tm0 2.202058 1_666
O32 Tm3 2.202048 1_565
O33 Tm2 2.202053 1_655
O34 Tm3 2.202048 1_556
O35 Tm2 2.202053 1_555
O36 Tm6 2.202053 1_555
O37 Tm4 2.202048 1_555
O38 Tm6 2.202053 1_665
O39 Tm4 2.202048 1_556
O40 Tm4 2.202053 1_556
O41 Tm4 2.202053 1_555
O42 Tm0 2.202058 1_555
O43 Tm0 2.202058 1_666
O44 Tm2 2.202058 1_655
O45 Tm2 2.202058 1_555
O46 Tm1 2.202048 1_555
O47 Tm1 2.202048 1_565
