# generated using pymatgen
data_TiZnBiO5
_symmetry_space_group_name_H-M   'P 1'
_cell_length_a   10.89310200
_cell_length_b   5.31034900
_cell_length_c   8.49141504
_cell_angle_alpha   71.96251136
_cell_angle_beta   90.00000000
_cell_angle_gamma   90.00000000
_symmetry_Int_Tables_number   1
_chemical_formula_structural   TiZnBiO5
_chemical_formula_sum   'Ti4 Zn4 Bi4 O20'
_cell_volume   467.05561440
_cell_formula_units_Z   4
loop_
 _symmetry_equiv_pos_site_id
 _symmetry_equiv_pos_as_xyz
  1  'x, y, z'
loop_
 _atom_site_type_symbol
 _atom_site_label
 _atom_site_symmetry_multiplicity
 _atom_site_fract_x
 _atom_site_fract_y
 _atom_site_fract_z
 _atom_site_occupancy
  Ti  Ti0  1  0.38202000  0.13634900  0.05719300  1
  Ti  Ti1  1  0.61798000  0.86365100  0.94280700  1
  Ti  Ti2  1  0.88202000  0.86365100  0.44280700  1
  Ti  Ti3  1  0.11798000  0.13634900  0.55719300  1
  Zn  Zn0  1  0.10195800  0.52639500  0.84287800  1
  Zn  Zn1  1  0.89804200  0.47360500  0.15712200  1
  Zn  Zn2  1  0.60195800  0.47360500  0.65712200  1
  Zn  Zn3  1  0.39804200  0.52639500  0.34287800  1
  Bi  Bi0  1  0.89529700  0.04566600  0.84006300  1
  Bi  Bi1  1  0.10470300  0.95433400  0.15993700  1
  Bi  Bi2  1  0.60470300  0.04566600  0.34006300  1
  Bi  Bi3  1  0.39529700  0.95433400  0.65993700  1
  O  O0  1  0.95391600  0.86724600  0.64409200  1
  O  O1  1  0.04462500  0.31773000  0.68733800  1
  O  O2  1  0.80315200  0.18116300  0.31746800  1
  O  O3  1  0.46601800  0.75710200  0.48302300  1
  O  O4  1  0.73064900  0.70722200  0.50539700  1
  O  O5  1  0.76935100  0.70722200  0.00539700  1
  O  O6  1  0.45537500  0.31773000  0.18733800  1
  O  O7  1  0.54462500  0.68227000  0.81266200  1
  O  O8  1  0.53398200  0.24289800  0.51697700  1
  O  O9  1  0.45391600  0.13275400  0.85590800  1
  O  O10  1  0.26935100  0.29277800  0.49460300  1
  O  O11  1  0.04608400  0.13275400  0.35590800  1
  O  O12  1  0.54608400  0.86724600  0.14409200  1
  O  O13  1  0.23064900  0.29277800  0.99460300  1
  O  O14  1  0.96601800  0.24289800  0.01697700  1
  O  O15  1  0.03398200  0.75710200  0.98302300  1
  O  O16  1  0.19684800  0.81883700  0.68253200  1
  O  O17  1  0.95537500  0.68227000  0.31266200  1
  O  O18  1  0.30315200  0.81883700  0.18253200  1
  O  O19  1  0.69684800  0.18116300  0.81746800  1
loop_
_geom_bond_atom_site_label_1
_geom_bond_atom_site_label_2
_geom_bond_distance
_geom_bond_site_symmetry_2
Bi0 O14 2.218466 1_556
Bi0 O15 2.225325 1_645
Bi0 O0 2.247435 1_545
Bi0 O19 2.267621 1_555
Bi0 O1 2.292338 1_655
Bi0 O5 2.349634 1_546
Bi1 O15 2.218466 1_554
Bi1 O14 2.225325 1_465
Bi1 O11 2.247435 1_565
Bi1 O18 2.267621 1_555
Bi1 O17 2.292338 1_455
Bi1 O13 2.349634 1_564
Bi2 O8 2.218466 1_555
Bi2 O3 2.225325 1_545
Bi2 O12 2.247435 1_545
Bi2 O2 2.267621 1_555
Bi2 O6 2.292338 1_555
Bi2 O4 2.349634 1_545
Bi3 O3 2.218466 1_555
Bi3 O8 2.225325 1_565
Bi3 O9 2.247435 1_565
Bi3 O16 2.267621 1_555
Bi3 O7 2.292338 1_555
Bi3 O10 2.349634 1_565
O0 Ti2 1.885543 1_555
O0 Ti3 2.264413 1_665
O1 Ti3 1.856533 1_555
O1 Zn0 2.066060 1_555
O2 Ti2 1.898012 1_545
O2 Zn1 2.006129 1_555
O3 Zn3 2.090047 1_555
O3 Zn2 2.294879 1_555
O4 Ti2 1.848778 1_555
O4 Zn2 2.043108 1_555
O5 Ti1 1.848778 1_554
O5 Zn1 2.043108 1_555
O6 Ti0 1.856533 1_555
O6 Zn3 2.066060 1_555
O7 Ti1 1.856533 1_555
O7 Zn2 2.066060 1_555
O8 Zn2 2.090047 1_555
O8 Zn3 2.294879 1_555
O9 Ti0 1.885543 1_556
O9 Ti1 2.264413 1_545
O10 Ti3 1.848778 1_555
O10 Zn3 2.043108 1_555
O11 Ti3 1.885543 1_555
O11 Ti2 2.264413 1_445
O12 Ti1 1.885543 1_554
O12 Ti0 2.264413 1_565
O13 Ti0 1.848778 1_556
O13 Zn0 2.043108 1_555
O14 Zn1 2.090047 1_555
O14 Zn0 2.294879 1_654
O15 Zn0 2.090047 1_555
O15 Zn1 2.294879 1_456
O16 Ti3 1.898012 1_565
O16 Zn0 2.006129 1_555
O17 Ti2 1.856533 1_555
O17 Zn1 2.066060 1_555
O18 Ti0 1.898012 1_565
O18 Zn3 2.006129 1_555
O19 Ti1 1.898012 1_545
O19 Zn2 2.006129 1_555
