# generated using pymatgen
data_CaZnSn
_symmetry_space_group_name_H-M   'P 1'
_cell_length_a   4.62326617
_cell_length_b   4.62326617
_cell_length_c   8.18432900
_cell_angle_alpha   90.00000000
_cell_angle_beta   90.00000000
_cell_angle_gamma   120.00000242
_symmetry_Int_Tables_number   1
_chemical_formula_structural   CaZnSn
_chemical_formula_sum   'Ca2 Zn2 Sn2'
_cell_volume   151.49960298
_cell_formula_units_Z   2
loop_
 _symmetry_equiv_pos_site_id
 _symmetry_equiv_pos_as_xyz
  1  'x, y, z'
loop_
 _atom_site_type_symbol
 _atom_site_label
 _atom_site_symmetry_multiplicity
 _atom_site_fract_x
 _atom_site_fract_y
 _atom_site_fract_z
 _atom_site_occupancy
  Ca  Ca0  1  0.00000000  0.00000000  0.50000000  1
  Ca  Ca1  1  0.00000000  0.00000000  0.00000000  1
  Zn  Zn0  1  0.33333300  0.66666700  0.75000000  1
  Zn  Zn1  1  0.66666700  0.33333300  0.25000000  1
  Sn  Sn0  1  0.33333300  0.66666700  0.25000000  1
  Sn  Sn1  1  0.66666700  0.33333300  0.75000000  1
loop_
_geom_bond_atom_site_label_1
_geom_bond_atom_site_label_2
_geom_bond_distance
_geom_bond_site_symmetry_2
Ca0 Zn0 3.363228 1_545
Ca0 Sn1 3.363228 1_455
Ca0 Zn1 3.363228 1_455
Ca0 Sn0 3.363228 1_545
Ca0 Zn0 3.363231 1_555
Ca0 Zn1 3.363231 1_445
Ca0 Sn0 3.363231 1_555
Ca0 Sn1 3.363231 1_445
Ca0 Sn1 3.363231 1_555
Ca0 Zn0 3.363231 1_445
Ca0 Sn0 3.363231 1_445
Ca0 Zn1 3.363231 1_555
Ca1 Sn1 3.363228 1_454
Ca1 Zn1 3.363228 1_455
Ca1 Sn0 3.363228 1_545
Ca1 Zn0 3.363228 1_544
Ca1 Zn0 3.363231 1_554
Ca1 Zn1 3.363231 1_445
Ca1 Sn0 3.363231 1_555
Ca1 Sn1 3.363231 1_444
Ca1 Sn0 3.363231 1_445
Ca1 Sn1 3.363231 1_554
Ca1 Zn0 3.363231 1_444
Ca1 Zn1 3.363231 1_555
Sn0 Zn1 2.669241 1_455
Sn0 Zn1 2.669241 1_565
Sn0 Zn1 2.669249 1_555
Sn1 Zn0 2.669241 1_545
Sn1 Zn0 2.669241 1_655
Sn1 Zn0 2.669249 1_555
