# generated using pymatgen
data_Tm5Zr3(Ni4As3)4
_symmetry_space_group_name_H-M   'P 1'
_cell_length_a   12.72133004
_cell_length_b   12.72133004
_cell_length_c   3.88591300
_cell_angle_alpha   90.00000000
_cell_angle_beta   90.00000000
_cell_angle_gamma   120.00000023
_symmetry_Int_Tables_number   1
_chemical_formula_structural   Tm5Zr3(Ni4As3)4
_chemical_formula_sum   'Tm5 Zr3 Ni16 As12'
_cell_volume   544.61392838
_cell_formula_units_Z   1
loop_
 _symmetry_equiv_pos_site_id
 _symmetry_equiv_pos_as_xyz
  1  'x, y, z'
loop_
 _atom_site_type_symbol
 _atom_site_label
 _atom_site_symmetry_multiplicity
 _atom_site_fract_x
 _atom_site_fract_y
 _atom_site_fract_z
 _atom_site_occupancy
  Tm  Tm0  1  0.00000000  0.18133100  0.50000000  1
  Tm  Tm1  1  0.81866900  0.81866900  0.50000000  1
  Tm  Tm2  1  0.18133100  0.00000000  0.50000000  1
  Tm  Tm3  1  0.66666700  0.33333300  0.00000000  1
  Tm  Tm4  1  0.33333300  0.66666700  0.00000000  1
  Zr  Zr0  1  0.00000000  0.56190400  0.00000000  1
  Zr  Zr1  1  0.43809600  0.43809600  0.00000000  1
  Zr  Zr2  1  0.56190400  0.00000000  0.00000000  1
  Ni  Ni0  1  0.00000000  0.72373200  0.50000000  1
  Ni  Ni1  1  0.27626800  0.27626800  0.50000000  1
  Ni  Ni2  1  0.72373200  0.00000000  0.50000000  1
  Ni  Ni3  1  0.80820000  0.18217100  0.00000000  1
  Ni  Ni4  1  0.81782900  0.62602900  0.00000000  1
  Ni  Ni5  1  0.37397100  0.19180000  0.00000000  1
  Ni  Ni6  1  0.18217100  0.80820000  0.00000000  1
  Ni  Ni7  1  0.62602900  0.81782900  0.00000000  1
  Ni  Ni8  1  0.19180000  0.37397100  0.00000000  1
  Ni  Ni9  1  0.87868800  0.36015000  0.50000000  1
  Ni  Ni10  1  0.63985000  0.51853700  0.50000000  1
  Ni  Ni11  1  0.48146300  0.12131200  0.50000000  1
  Ni  Ni12  1  0.36015000  0.87868800  0.50000000  1
  Ni  Ni13  1  0.51853700  0.63985000  0.50000000  1
  Ni  Ni14  1  0.12131200  0.48146300  0.50000000  1
  Ni  Ni15  1  0.00000000  0.00000000  0.00000000  1
  As  As0  1  0.00000000  0.82280100  0.00000000  1
  As  As1  1  0.17719900  0.17719900  0.00000000  1
  As  As2  1  0.82280100  0.00000000  0.00000000  1
  As  As3  1  0.69199900  0.17297500  0.50000000  1
  As  As4  1  0.82702500  0.51902400  0.50000000  1
  As  As5  1  0.48097600  0.30800100  0.50000000  1
  As  As6  1  0.17297500  0.69199900  0.50000000  1
  As  As7  1  0.51902400  0.82702500  0.50000000  1
  As  As8  1  0.30800100  0.48097600  0.50000000  1
  As  As9  1  0.00000000  0.35365300  0.00000000  1
  As  As10  1  0.64634700  0.64634700  0.00000000  1
  As  As11  1  0.35365300  0.00000000  0.00000000  1
loop_
_geom_bond_atom_site_label_1
_geom_bond_atom_site_label_2
_geom_bond_distance
_geom_bond_site_symmetry_2
Ni0 Zr0 2.830758 1_556
Ni0 Zr0 2.830758 1_555
Ni0 Tm2 3.092853 1_565
Ni0 Tm1 3.092853 1_455
Ni1 Zr1 2.830758 1_555
Ni1 Zr1 2.830758 1_556
Ni1 Tm0 3.092853 1_555
Ni1 Tm2 3.092853 1_555
Ni2 Zr2 2.830758 1_555
Ni2 Zr2 2.830758 1_556
Ni2 Tm0 3.092853 1_655
Ni2 Tm1 3.092853 1_545
Ni3 Zr2 2.815412 1_555
Ni3 Tm0 3.123240 1_654
Ni3 Tm0 3.123240 1_655
Ni3 Tm3 3.225201 1_555
Ni4 Zr0 2.815412 1_655
Ni4 Tm1 3.123240 1_554
Ni4 Tm1 3.123240 1_555
Ni4 Tm3 3.225212 1_555
Ni5 Zr1 2.815412 1_555
Ni5 Tm2 3.123240 1_555
Ni5 Tm2 3.123240 1_554
Ni5 Tm3 3.225212 1_555
Ni6 Zr0 2.815412 1_555
Ni6 Tm2 3.123240 1_565
Ni6 Tm2 3.123240 1_564
Ni6 Tm4 3.225201 1_555
Ni7 Zr2 2.815412 1_565
Ni7 Tm1 3.123240 1_554
Ni7 Tm1 3.123240 1_555
Ni7 Tm4 3.225212 1_555
Ni8 Zr1 2.815412 1_555
Ni8 Tm0 3.123240 1_555
Ni8 Tm0 3.123240 1_554
Ni8 Tm4 3.225212 1_555
Ni9 Zr0 2.963639 1_655
Ni9 Zr0 2.963639 1_656
Ni9 Tm3 3.200961 1_555
Ni9 Tm3 3.200961 1_556
Ni9 Tm0 3.326712 1_655
Ni10 Zr1 2.963640 1_556
Ni10 Zr1 2.963640 1_555
Ni10 Tm3 3.200961 1_556
Ni10 Tm3 3.200961 1_555
Ni10 Tm1 3.326723 1_555
Ni11 Zr2 2.963631 1_555
Ni11 Zr2 2.963631 1_556
Ni11 Tm3 3.200961 1_556
Ni11 Tm3 3.200961 1_555
Ni11 Tm2 3.326724 1_555
Ni12 Zr2 2.963639 1_565
Ni12 Zr2 2.963639 1_566
Ni12 Tm4 3.200961 1_556
Ni12 Tm4 3.200961 1_555
Ni12 Tm2 3.326712 1_565
Ni13 Zr1 2.963640 1_556
Ni13 Zr1 2.963640 1_555
Ni13 Tm4 3.200961 1_555
Ni13 Tm4 3.200961 1_556
Ni13 Tm1 3.326723 1_555
Ni14 Zr0 2.963631 1_556
Ni14 Zr0 2.963631 1_555
Ni14 Tm4 3.200961 1_555
Ni14 Tm4 3.200961 1_556
Ni14 Tm0 3.326724 1_555
Ni15 Tm1 3.016003 1_444
Ni15 Tm1 3.016003 1_445
Ni15 Tm2 3.016003 1_554
Ni15 Tm0 3.016003 1_555
Ni15 Tm2 3.016003 1_555
Ni15 Tm0 3.016003 1_554
As0 Ni15 2.254207 1_565
As0 Ni0 2.315904 1_555
As0 Ni0 2.315904 1_554
As0 Ni4 2.415691 1_455
As0 Ni6 2.415691 1_555
As0 Tm2 2.996295 1_565
As0 Tm2 2.996295 1_564
As0 Tm1 2.996295 1_455
As0 Tm1 2.996295 1_454
As1 Ni15 2.254207 1_555
As1 Ni1 2.315904 1_555
As1 Ni1 2.315904 1_554
As1 Ni5 2.415691 1_555
As1 Ni8 2.415691 1_555
As1 Tm0 2.996295 1_554
As1 Tm2 2.996295 1_555
As1 Tm2 2.996295 1_554
As1 Tm0 2.996295 1_555
As2 Ni15 2.254207 1_655
As2 Ni2 2.315904 1_554
As2 Ni2 2.315904 1_555
As2 Ni7 2.415691 1_545
As2 Ni3 2.415691 1_555
As2 Tm0 2.996295 1_654
As2 Tm0 2.996295 1_655
As2 Tm1 2.996295 1_544
As2 Tm1 2.996295 1_545
As3 Ni9 2.378030 1_555
As3 Ni3 2.408527 1_556
As3 Ni3 2.408527 1_555
As3 Ni11 2.417640 1_555
As3 Ni2 2.427620 1_555
As3 Zr2 2.777477 1_555
As3 Zr2 2.777477 1_556
As3 Tm3 2.949201 1_556
As3 Tm3 2.949201 1_555
As4 Ni10 2.378023 1_555
As4 Ni4 2.408527 1_556
As4 Ni4 2.408527 1_555
As4 Ni9 2.417653 1_555
As4 Ni0 2.427620 1_655
As4 Zr0 2.777477 1_655
As4 Zr0 2.777477 1_656
As4 Tm3 2.949207 1_555
As4 Tm3 2.949207 1_556
As5 Ni11 2.378036 1_555
As5 Ni5 2.408527 1_555
As5 Ni5 2.408527 1_556
As5 Ni10 2.417644 1_555
As5 Ni1 2.427620 1_555
As5 Zr1 2.777477 1_556
As5 Zr1 2.777477 1_555
As5 Tm3 2.949211 1_555
As5 Tm3 2.949211 1_556
As6 Ni12 2.378030 1_555
As6 Ni6 2.408527 1_556
As6 Ni6 2.408527 1_555
As6 Ni14 2.417640 1_555
As6 Ni0 2.427620 1_555
As6 Zr0 2.777477 1_556
As6 Zr0 2.777477 1_555
As6 Tm4 2.949201 1_555
As6 Tm4 2.949201 1_556
As7 Ni13 2.378023 1_555
As7 Ni7 2.408527 1_555
As7 Ni7 2.408527 1_556
As7 Ni12 2.417653 1_555
As7 Ni2 2.427620 1_565
As7 Zr2 2.777477 1_565
As7 Zr2 2.777477 1_566
As7 Tm4 2.949207 1_555
As7 Tm4 2.949207 1_556
As8 Ni14 2.378036 1_555
As8 Ni8 2.408527 1_555
As8 Ni8 2.408527 1_556
As8 Ni13 2.417644 1_555
As8 Ni1 2.427620 1_555
As8 Zr1 2.777477 1_556
As8 Zr1 2.777477 1_555
As8 Tm4 2.949211 1_556
As8 Tm4 2.949211 1_555
As9 Ni3 2.321532 1_455
As9 Ni8 2.321532 1_555
As9 Ni9 2.508203 1_455
As9 Ni9 2.508203 1_454
As9 Ni14 2.508207 1_554
As9 Ni14 2.508207 1_555
As9 Zr0 2.649230 1_555
As9 Tm0 2.929278 1_555
As9 Tm0 2.929278 1_554
As10 Ni7 2.321532 1_555
As10 Ni4 2.321532 1_555
As10 Ni10 2.508211 1_554
As10 Ni13 2.508211 1_555
As10 Ni10 2.508211 1_555
As10 Ni13 2.508211 1_554
As10 Zr1 2.649230 1_555
As10 Tm1 2.929278 1_554
As10 Tm1 2.929278 1_555
As11 Ni6 2.321532 1_545
As11 Ni5 2.321532 1_555
As11 Ni12 2.508203 1_545
As11 Ni12 2.508203 1_544
As11 Ni11 2.508207 1_554
As11 Ni11 2.508207 1_555
As11 Zr2 2.649230 1_555
As11 Tm2 2.929278 1_555
As11 Tm2 2.929278 1_554
