# generated using pymatgen
data_Ti3H2O7
_symmetry_space_group_name_H-M   'P 1'
_cell_length_a   3.77764900
_cell_length_b   8.58046065
_cell_length_c   9.50731794
_cell_angle_alpha   100.02772004
_cell_angle_beta   90.00000000
_cell_angle_gamma   102.71671790
_symmetry_Int_Tables_number   1
_chemical_formula_structural   Ti3H2O7
_chemical_formula_sum   'Ti6 H4 O14'
_cell_volume   295.78259773
_cell_formula_units_Z   2
loop_
 _symmetry_equiv_pos_site_id
 _symmetry_equiv_pos_as_xyz
  1  'x, y, z'
loop_
 _atom_site_type_symbol
 _atom_site_label
 _atom_site_symmetry_multiplicity
 _atom_site_fract_x
 _atom_site_fract_y
 _atom_site_fract_z
 _atom_site_occupancy
  Ti  Ti0  1  0.23108100  0.46216200  0.21128300  1
  Ti  Ti1  1  0.76891900  0.53783800  0.78871700  1
  Ti  Ti2  1  0.17713100  0.35426200  0.50699700  1
  Ti  Ti3  1  0.82286900  0.64573800  0.49300300  1
  Ti  Ti4  1  0.12709100  0.25418300  0.83967400  1
  Ti  Ti5  1  0.87290900  0.74581700  0.16032600  1
  H  H0  1  0.97178400  0.94356800  0.40519200  1
  H  H1  1  0.02821600  0.05643200  0.59480800  1
  H  H2  1  0.03697500  0.07395000  0.19419600  1
  H  H3  1  0.96302500  0.92605000  0.80580400  1
  O  O0  1  0.17461400  0.34922700  0.03684700  1
  O  O1  1  0.82538600  0.65077300  0.96315300  1
  O  O2  1  0.13928000  0.27855900  0.32039800  1
  O  O3  1  0.86072000  0.72144100  0.67960200  1
  O  O4  1  0.08679800  0.17359600  0.60593500  1
  O  O5  1  0.91320200  0.82640400  0.39406500  1
  O  O6  1  0.02165900  0.04331700  0.84476800  1
  O  O7  1  0.97834100  0.95668300  0.15523200  1
  O  O8  1  0.34515400  0.69030800  0.17548400  1
  O  O9  1  0.65484600  0.30969200  0.82451600  1
  O  O10  1  0.29249400  0.58498800  0.46007000  1
  O  O11  1  0.70750600  0.41501200  0.53993000  1
  O  O12  1  0.23861700  0.47723400  0.74763300  1
  O  O13  1  0.76138300  0.52276600  0.25236700  1
loop_
_geom_bond_atom_site_label_1
_geom_bond_atom_site_label_2
_geom_bond_distance
_geom_bond_site_symmetry_2
H0 O5 0.967394 1_555
H1 O4 0.967394 1_555
H2 O7 0.985296 1_445
H3 O6 0.985296 1_665
O0 Ti0 1.756194 1_555
O0 Ti4 1.901192 1_554
O1 Ti1 1.756194 1_555
O1 Ti5 1.901192 1_556
O2 Ti2 1.774107 1_555
O2 Ti0 2.001734 1_555
O3 Ti3 1.774107 1_555
O3 Ti1 2.001734 1_555
O4 Ti2 1.918141 1_555
O4 Ti4 2.204122 1_555
O5 Ti3 1.918141 1_555
O5 Ti5 2.204122 1_555
O6 Ti4 1.774230 1_555
O7 Ti5 1.774230 1_555
O8 Ti5 1.956575 1_455
O8 Ti5 1.956578 1_555
O8 Ti0 1.998589 1_555
O9 Ti4 1.956575 1_655
O9 Ti4 1.956578 1_555
O9 Ti1 1.998589 1_555
O10 Ti3 1.966571 1_455
O10 Ti3 1.966571 1_555
O10 Ti2 2.058172 1_555
O10 Ti0 2.404871 1_555
O11 Ti2 1.966571 1_655
O11 Ti2 1.966571 1_555
O11 Ti3 2.058172 1_555
O11 Ti1 2.404871 1_555
O12 Ti1 1.976562 1_455
O12 Ti1 1.976562 1_555
O12 Ti4 2.198730 1_555
O12 Ti2 2.335118 1_555
O13 Ti0 1.976562 1_655
O13 Ti0 1.976562 1_555
O13 Ti5 2.198730 1_555
O13 Ti3 2.335118 1_555
