# generated using pymatgen
data_Sb(Cl3O)2
_symmetry_space_group_name_H-M   'P 1'
_cell_length_a   7.17704924
_cell_length_b   7.17704924
_cell_length_c   12.85802556
_cell_angle_alpha   69.41638578
_cell_angle_beta   69.41638578
_cell_angle_gamma   53.29680187
_symmetry_Int_Tables_number   1
_chemical_formula_structural   Sb(Cl3O)2
_chemical_formula_sum   'Sb2 Cl12 O4'
_cell_volume   488.20080702
_cell_formula_units_Z   2
loop_
 _symmetry_equiv_pos_site_id
 _symmetry_equiv_pos_as_xyz
  1  'x, y, z'
loop_
 _atom_site_type_symbol
 _atom_site_label
 _atom_site_symmetry_multiplicity
 _atom_site_fract_x
 _atom_site_fract_y
 _atom_site_fract_z
 _atom_site_occupancy
  Sb  Sb0  1  0.00000000  0.00000000  0.00000000  1
  Sb  Sb1  1  0.00000000  0.00000000  0.50000000  1
  Cl  Cl0  1  0.18653700  0.58215000  0.06716900  1
  Cl  Cl1  1  0.41785000  0.81346300  0.43283100  1
  Cl  Cl2  1  0.81346300  0.41785000  0.93283100  1
  Cl  Cl3  1  0.58215000  0.18653700  0.56716900  1
  Cl  Cl4  1  0.31625000  0.93676700  0.83875700  1
  Cl  Cl5  1  0.06323300  0.68375000  0.66124300  1
  Cl  Cl6  1  0.68375000  0.06323300  0.16124300  1
  Cl  Cl7  1  0.93676700  0.31625000  0.33875700  1
  Cl  Cl8  1  0.77927800  0.98362000  0.89562000  1
  Cl  Cl9  1  0.01638000  0.22072200  0.60438000  1
  Cl  Cl10  1  0.22072200  0.01638000  0.10438000  1
  Cl  Cl11  1  0.98362000  0.77927800  0.39562000  1
  O  O0  1  0.52616700  0.62987700  0.17875800  1
  O  O1  1  0.37012300  0.47383300  0.32124200  1
  O  O2  1  0.47383300  0.37012300  0.82124200  1
  O  O3  1  0.62987700  0.52616700  0.67875800  1
loop_
_geom_bond_atom_site_label_1
_geom_bond_atom_site_label_2
_geom_bond_distance
_geom_bond_site_symmetry_2
Cl0 Sb0 2.392585 1_565
Cl1 Sb1 2.392585 1_565
Cl2 Sb0 2.392585 1_656
Cl3 Sb1 2.392585 1_655
Cl4 Sb0 2.403658 1_566
Cl5 Sb1 2.403658 1_565
Cl6 Sb0 2.403658 1_655
Cl7 Sb1 2.403658 1_655
Cl8 O2 2.398962 1_565
Cl8 Sb0 2.480544 1_666
Cl9 O3 2.398962 1_455
Cl9 Sb1 2.480544 1_555
Cl10 O0 2.398962 1_545
Cl10 Sb0 2.480544 1_555
Cl11 O1 2.398962 1_655
Cl11 Sb1 2.480544 1_665
