# generated using pymatgen
data_IrC4
_symmetry_space_group_name_H-M   'P 1'
_cell_length_a   4.89837200
_cell_length_b   9.19425900
_cell_length_c   7.46207800
_cell_angle_alpha   90.00000000
_cell_angle_beta   90.00000000
_cell_angle_gamma   90.00000000
_symmetry_Int_Tables_number   1
_chemical_formula_structural   IrC4
_chemical_formula_sum   'Ir8 C32'
_cell_volume   336.06886699
_cell_formula_units_Z   8
loop_
 _symmetry_equiv_pos_site_id
 _symmetry_equiv_pos_as_xyz
  1  'x, y, z'
loop_
 _atom_site_type_symbol
 _atom_site_label
 _atom_site_symmetry_multiplicity
 _atom_site_fract_x
 _atom_site_fract_y
 _atom_site_fract_z
 _atom_site_occupancy
  Ir  Ir0  1  0.37405200  0.56561300  0.86971300  1
  Ir  Ir1  1  0.87405200  0.43438700  0.63028700  1
  Ir  Ir2  1  0.62594800  0.93438700  0.36971300  1
  Ir  Ir3  1  0.12594800  0.06561300  0.13028700  1
  Ir  Ir4  1  0.62594800  0.43438700  0.13028700  1
  Ir  Ir5  1  0.12594800  0.56561300  0.36971300  1
  Ir  Ir6  1  0.37405200  0.06561300  0.63028700  1
  Ir  Ir7  1  0.87405200  0.93438700  0.86971300  1
  C  C0  1  0.44640600  0.74878900  0.69260200  1
  C  C1  1  0.94640600  0.25121100  0.80739800  1
  C  C2  1  0.55359400  0.75121100  0.19260200  1
  C  C3  1  0.05359400  0.24878900  0.30739800  1
  C  C4  1  0.55359400  0.25121100  0.30739800  1
  C  C5  1  0.05359400  0.74878900  0.19260200  1
  C  C6  1  0.44640600  0.24878900  0.80739800  1
  C  C7  1  0.94640600  0.75121100  0.69260200  1
  C  C8  1  0.30372900  0.76077900  0.08108000  1
  C  C9  1  0.80372900  0.23922100  0.41892000  1
  C  C10  1  0.69627100  0.73922100  0.58108000  1
  C  C11  1  0.19627100  0.26077900  0.91892000  1
  C  C12  1  0.69627100  0.23922100  0.91892000  1
  C  C13  1  0.19627100  0.76077900  0.58108000  1
  C  C14  1  0.30372900  0.26077900  0.41892000  1
  C  C15  1  0.80372900  0.73922100  0.08108000  1
  C  C16  1  0.77207100  0.61482000  0.95816100  1
  C  C17  1  0.27207100  0.38518000  0.54183900  1
  C  C18  1  0.22792900  0.88518000  0.45816100  1
  C  C19  1  0.72792900  0.11482000  0.04183900  1
  C  C20  1  0.22792900  0.38518000  0.04183900  1
  C  C21  1  0.72792900  0.61482000  0.45816100  1
  C  C22  1  0.77207100  0.11482000  0.54183900  1
  C  C23  1  0.27207100  0.88518000  0.95816100  1
  C  C24  1  0.96909600  0.61686500  0.81036400  1
  C  C25  1  0.46909600  0.38313500  0.68963600  1
  C  C26  1  0.03090400  0.88313500  0.31036400  1
  C  C27  1  0.53090400  0.11686500  0.18963600  1
  C  C28  1  0.03090400  0.38313500  0.18963600  1
  C  C29  1  0.53090400  0.61686500  0.31036400  1
  C  C30  1  0.96909600  0.11686500  0.68963600  1
  C  C31  1  0.46909600  0.88313500  0.81036400  1
loop_
_geom_bond_atom_site_label_1
_geom_bond_atom_site_label_2
_geom_bond_distance
_geom_bond_site_symmetry_2
C0 C10 1.482660 1_555
C0 C13 1.485239 1_555
C0 C31 1.519968 1_555
C0 Ir0 2.169954 1_555
C1 C11 1.482660 1_655
C1 C12 1.485239 1_555
C1 C30 1.519968 1_555
C1 Ir1 2.169954 1_555
C2 C8 1.482660 1_555
C2 C29 1.519968 1_555
C2 Ir2 2.169954 1_555
C3 C9 1.482660 1_455
C3 Ir3 2.169954 1_555
C4 C9 1.485239 1_555
C4 Ir4 2.169954 1_555
C5 C8 1.485239 1_555
C5 Ir5 2.169954 1_555
C6 Ir6 2.169954 1_555
C7 Ir7 2.169954 1_555
C8 Ir0 2.413759 1_554
C9 Ir1 2.413759 1_555
C10 C21 1.474307 1_555
C10 C7 1.485239 1_555
C10 Ir2 2.413759 1_555
C11 C20 1.474307 1_556
C11 C6 1.485239 1_555
C11 Ir3 2.413759 1_556
C12 C19 1.474307 1_556
C12 C6 1.482660 1_555
C12 Ir4 2.413759 1_556
C13 C18 1.474307 1_555
C13 C7 1.482660 1_455
C13 Ir5 2.413759 1_555
C14 C17 1.474307 1_555
C14 C4 1.482660 1_555
C14 C3 1.485239 1_555
C14 Ir6 2.413759 1_555
C15 C16 1.474307 1_554
C15 C5 1.482660 1_655
C15 C2 1.485239 1_555
C15 Ir7 2.413759 1_554
C16 C24 1.465641 1_555
C16 Ir0 2.107465 1_555
C16 Ir4 2.216789 1_556
C17 C25 1.465641 1_555
C17 Ir1 2.107465 1_455
C17 Ir5 2.216789 1_555
C18 C26 1.465641 1_555
C18 Ir2 2.107465 1_555
C18 Ir6 2.216789 1_565
C19 C27 1.465641 1_555
C19 Ir3 2.107465 1_655
C19 Ir7 2.216789 1_544
C20 C28 1.465641 1_555
C20 Ir4 2.107465 1_555
C20 Ir0 2.216789 1_554
C21 C29 1.465641 1_555
C21 Ir5 2.107465 1_655
C21 Ir1 2.216789 1_555
C22 C30 1.465641 1_555
C22 C9 1.474307 1_555
C22 Ir6 2.107465 1_555
C22 Ir2 2.216789 1_545
C23 C31 1.465641 1_555
C23 C8 1.474307 1_556
C23 Ir7 2.107465 1_455
C23 Ir3 2.216789 1_566
C24 C7 1.519968 1_555
C24 Ir0 2.086373 1_655
C24 Ir1 2.199375 1_555
C25 C6 1.519968 1_555
C25 Ir1 2.086373 1_555
C25 Ir0 2.199375 1_555
C26 C5 1.519968 1_555
C26 Ir2 2.086373 1_455
C26 Ir3 2.199375 1_565
C27 C4 1.519968 1_555
C27 Ir3 2.086373 1_555
C27 Ir2 2.199375 1_545
C28 C3 1.519968 1_555
C28 Ir4 2.086373 1_455
C28 Ir5 2.199375 1_555
C29 Ir5 2.086373 1_555
C29 Ir4 2.199375 1_555
C30 Ir6 2.086373 1_655
C30 Ir7 2.199375 1_545
C31 Ir7 2.086373 1_555
C31 Ir6 2.199375 1_565
