# generated using pymatgen
data_Mg3Si9B36C
_symmetry_space_group_name_H-M   'P 1'
_cell_length_a   8.00213109
_cell_length_b   8.00213109
_cell_length_c   8.00213121
_cell_angle_alpha   78.30840476
_cell_angle_beta   78.30840476
_cell_angle_gamma   78.30840530
_symmetry_Int_Tables_number   1
_chemical_formula_structural   Mg3Si9B36C
_chemical_formula_sum   'Mg3 Si9 B36 C1'
_cell_volume   484.34186494
_cell_formula_units_Z   1
loop_
 _symmetry_equiv_pos_site_id
 _symmetry_equiv_pos_as_xyz
  1  'x, y, z'
loop_
 _atom_site_type_symbol
 _atom_site_label
 _atom_site_symmetry_multiplicity
 _atom_site_fract_x
 _atom_site_fract_y
 _atom_site_fract_z
 _atom_site_occupancy
  Mg  Mg0  1  0.49904700  0.99972600  0.49904700  1
  Mg  Mg1  1  0.99972600  0.49904700  0.49904700  1
  Mg  Mg2  1  0.49904700  0.49904700  0.99972600  1
  Si  Si0  1  0.57267400  0.57267400  0.57267400  1
  Si  Si1  1  0.42901500  0.42901500  0.42901500  1
  Si  Si2  1  0.73859200  0.73859200  0.34316900  1
  Si  Si3  1  0.73859200  0.34316900  0.73859200  1
  Si  Si4  1  0.34316900  0.73859200  0.73859200  1
  Si  Si5  1  0.26167700  0.26167700  0.65533400  1
  Si  Si6  1  0.26167700  0.65533400  0.26167700  1
  Si  Si7  1  0.65533400  0.26167700  0.26167700  1
  Si  Si8  1  0.95583400  0.95583400  0.95583400  1
  B  B0  1  0.70404800  0.99409000  0.99409000  1
  B  B1  1  0.99409000  0.99409000  0.70404800  1
  B  B2  1  0.99409000  0.70404800  0.99409000  1
  B  B3  1  0.27603700  0.01786600  0.01786600  1
  B  B4  1  0.01786600  0.01786600  0.27603700  1
  B  B5  1  0.01786600  0.27603700  0.01786600  1
  B  B6  1  0.62454400  0.98060100  0.80026900  1
  B  B7  1  0.98060100  0.80026900  0.62454400  1
  B  B8  1  0.80026900  0.62454400  0.98060100  1
  B  B9  1  0.98060100  0.62454400  0.80026900  1
  B  B10  1  0.62454400  0.80026900  0.98060100  1
  B  B11  1  0.80026900  0.98060100  0.62454400  1
  B  B12  1  0.37282400  0.02253900  0.20290900  1
  B  B13  1  0.02253900  0.20290900  0.37282400  1
  B  B14  1  0.20290900  0.37282400  0.02253900  1
  B  B15  1  0.02253900  0.37282400  0.20290900  1
  B  B16  1  0.37282400  0.20290900  0.02253900  1
  B  B17  1  0.20290900  0.02253900  0.37282400  1
  B  B18  1  0.58064800  0.17872700  0.89195000  1
  B  B19  1  0.17872700  0.89195000  0.58064800  1
  B  B20  1  0.89195000  0.58064800  0.17872700  1
  B  B21  1  0.17872700  0.58064800  0.89195000  1
  B  B22  1  0.58064800  0.89195000  0.17872700  1
  B  B23  1  0.89195000  0.17872700  0.58064800  1
  B  B24  1  0.41098600  0.82578800  0.10930000  1
  B  B25  1  0.82578800  0.10930000  0.41098600  1
  B  B26  1  0.10930000  0.41098600  0.82578800  1
  B  B27  1  0.82578800  0.41098600  0.10930000  1
  B  B28  1  0.41098600  0.10930000  0.82578800  1
  B  B29  1  0.10930000  0.82578800  0.41098600  1
  B  B30  1  0.55636700  0.12560400  0.12560400  1
  B  B31  1  0.12560400  0.12560400  0.55636700  1
  B  B32  1  0.12560400  0.55636700  0.12560400  1
  B  B33  1  0.43474600  0.87841300  0.87841300  1
  B  B34  1  0.87841300  0.87841300  0.43474600  1
  B  B35  1  0.87841300  0.43474600  0.87841300  1
  C  C0  1  0.06775600  0.06775600  0.06775600  1
loop_
_geom_bond_atom_site_label_1
_geom_bond_atom_site_label_2
_geom_bond_distance
_geom_bond_site_symmetry_2
Mg0 Si7 2.837599 1_565
Mg0 Si5 2.837599 1_565
Mg0 Si4 2.839150 1_555
Mg0 Si2 2.839151 1_555
Mg1 Si6 2.837599 1_655
Mg1 Si5 2.837599 1_655
Mg1 Si3 2.839150 1_555
Mg1 Si2 2.839151 1_555
Mg2 Si6 2.837599 1_556
Mg2 Si7 2.837599 1_556
Mg2 Si4 2.839151 1_555
Mg2 Si3 2.839151 1_555
Si0 Si1 2.360379 1_555
Si0 Si2 2.374103 1_555
Si0 Si3 2.374103 1_555
Si0 Si4 2.374103 1_555
Si1 Si5 2.372133 1_555
Si1 Si7 2.372133 1_555
Si1 Si6 2.372133 1_555
B0 B30 1.747111 1_566
B0 B22 1.752847 1_556
B0 B18 1.752847 1_565
B0 B10 1.821412 1_555
B0 B6 1.821412 1_555
B0 Si8 1.945500 1_555
B1 B31 1.747111 1_665
B1 B23 1.752847 1_565
B1 B19 1.752847 1_655
B1 B7 1.821412 1_555
B1 B11 1.821412 1_555
B1 Si8 1.945500 1_555
B2 B32 1.747111 1_656
B2 B20 1.752847 1_556
B2 B21 1.752847 1_655
B2 B8 1.821412 1_555
B2 B9 1.821412 1_555
B2 Si8 1.945500 1_555
B3 C0 1.619220 1_555
B3 B33 1.859949 1_544
B4 C0 1.619220 1_555
B5 C0 1.619220 1_555
B6 Mg0 2.758859 1_555
B7 B9 1.775744 1_555
B7 Mg1 2.758859 1_555
B8 B9 1.822299 1_555
B8 Mg2 2.758859 1_555
B9 Mg1 2.758859 1_555
B10 B8 1.775744 1_555
B10 B24 1.803674 1_556
B10 B33 1.810416 1_555
B10 B22 1.821116 1_556
B10 B6 1.822299 1_555
B10 Mg2 2.758859 1_555
B11 B6 1.775744 1_555
B11 B25 1.803674 1_565
B11 B34 1.810416 1_555
B11 B23 1.821116 1_565
B11 B7 1.822299 1_555
B11 Mg0 2.758859 1_555
B12 B17 1.717033 1_555
B12 B30 1.770870 1_555
B12 B22 1.772663 1_545
B12 B3 1.814611 1_555
B12 B16 1.822683 1_555
B12 B24 1.823073 1_545
B12 Mg0 2.718308 1_545
B13 B15 1.717033 1_555
B13 B31 1.770870 1_555
B13 B23 1.772663 1_455
B13 B4 1.814611 1_555
B13 B17 1.822683 1_555
B13 B25 1.823073 1_455
B13 Mg1 2.718308 1_455
B14 B16 1.717033 1_555
B14 B32 1.770870 1_555
B14 B21 1.772663 1_554
B14 B5 1.814611 1_555
B14 B15 1.822683 1_555
B14 B26 1.823073 1_554
B14 Mg2 2.718308 1_554
B15 B32 1.770870 1_555
B15 B20 1.772663 1_455
B15 B5 1.814611 1_555
B15 B27 1.823073 1_455
B15 Mg1 2.718308 1_455
B16 B30 1.770870 1_555
B16 B18 1.772663 1_554
B16 B3 1.814611 1_555
B16 B28 1.823073 1_554
B16 Mg2 2.718308 1_554
B17 B31 1.770870 1_555
B17 B19 1.772663 1_545
B17 B4 1.814611 1_555
B17 B29 1.823073 1_545
B17 Mg0 2.718308 1_545
B18 B28 1.774376 1_555
B18 B30 1.810652 1_556
B18 B6 1.821116 1_545
B18 Si3 2.055706 1_555
B18 Mg2 2.780243 1_555
B19 B29 1.774376 1_555
B19 B31 1.810652 1_565
B19 B7 1.821116 1_455
B19 Si4 2.055706 1_555
B19 Mg0 2.780243 1_555
B20 B27 1.774376 1_555
B20 B32 1.810652 1_655
B20 B8 1.821116 1_554
B20 Si2 2.055706 1_555
B20 Mg1 2.780243 1_555
B21 B26 1.774376 1_555
B21 B32 1.810652 1_556
B21 B9 1.821116 1_455
B21 Si4 2.055706 1_555
B21 Mg2 2.780243 1_555
B22 B24 1.774376 1_555
B22 B30 1.810652 1_565
B22 Si2 2.055706 1_555
B22 Mg0 2.780243 1_555
B23 B25 1.774376 1_555
B23 B31 1.810652 1_655
B23 Si3 2.055706 1_555
B23 Mg1 2.780243 1_555
B24 B33 1.789362 1_554
B24 B3 1.804352 1_565
B24 Si6 2.042249 1_555
B24 Mg2 2.834370 1_554
B25 B34 1.789362 1_545
B25 B4 1.804352 1_655
B25 Si7 2.042249 1_555
B25 Mg0 2.834370 1_545
B26 B35 1.789362 1_455
B26 B9 1.803674 1_455
B26 B5 1.804352 1_556
B26 Si5 2.042249 1_555
B26 Mg1 2.834370 1_455
B27 B35 1.789362 1_554
B27 B8 1.803674 1_554
B27 B5 1.804352 1_655
B27 Si7 2.042249 1_555
B27 Mg2 2.834370 1_554
B28 B33 1.789362 1_545
B28 B6 1.803674 1_545
B28 B3 1.804352 1_556
B28 Si5 2.042249 1_555
B28 Mg0 2.834370 1_545
B29 B34 1.789362 1_455
B29 B7 1.803674 1_455
B29 B4 1.804352 1_565
B29 Si6 2.042249 1_555
B29 Mg1 2.834370 1_455
B30 Si7 2.044012 1_555
B31 Si5 2.044012 1_555
B32 Si6 2.044012 1_555
B33 B6 1.810416 1_555
B33 Si4 2.052487 1_555
B34 B7 1.810416 1_555
B34 B4 1.859949 1_665
B34 Si2 2.052487 1_555
B35 B9 1.810416 1_555
B35 B8 1.810416 1_555
B35 B5 1.859949 1_656
B35 Si3 2.052487 1_555
C0 Si8 1.838926 1_444
