# generated using pymatgen
data_Li2FeSiO4
_symmetry_space_group_name_H-M   'P 1'
_cell_length_a   10.80559800
_cell_length_b   5.40546400
_cell_length_c   6.28931464
_cell_angle_alpha   88.77618534
_cell_angle_beta   90.00000000
_cell_angle_gamma   90.00000000
_symmetry_Int_Tables_number   1
_chemical_formula_structural   Li2FeSiO4
_chemical_formula_sum   'Li8 Fe4 Si4 O16'
_cell_volume   367.27048686
_cell_formula_units_Z   4
loop_
 _symmetry_equiv_pos_site_id
 _symmetry_equiv_pos_as_xyz
  1  'x, y, z'
loop_
 _atom_site_type_symbol
 _atom_site_label
 _atom_site_symmetry_multiplicity
 _atom_site_fract_x
 _atom_site_fract_y
 _atom_site_fract_z
 _atom_site_occupancy
  Li  Li0  1  0.66636400  0.91619700  0.73420000  1
  Li  Li1  1  0.16636400  0.08380300  0.26580000  1
  Li  Li2  1  0.66294300  0.04744200  0.24176200  1
  Li  Li3  1  0.83522300  0.43061600  0.23674100  1
  Li  Li4  1  0.33350800  0.57640500  0.23331900  1
  Li  Li5  1  0.83350800  0.42359500  0.76668100  1
  Li  Li6  1  0.33522300  0.56938400  0.76325900  1
  Li  Li7  1  0.16294300  0.95255800  0.75823800  1
  Fe  Fe0  1  0.41881900  0.08323300  0.99809000  1
  Fe  Fe1  1  0.91881900  0.91676700  0.00191000  1
  Fe  Fe2  1  0.58243500  0.42694800  0.50840000  1
  Fe  Fe3  1  0.08243500  0.57305200  0.49160000  1
  Si  Si0  1  0.91708900  0.07015700  0.49999200  1
  Si  Si1  1  0.41708900  0.92984300  0.50000800  1
  Si  Si2  1  0.58395700  0.57048500  0.00713300  1
  Si  Si3  1  0.08395700  0.42951500  0.99286700  1
  O  O0  1  0.33996900  0.99593800  0.71848400  1
  O  O1  1  0.83905300  0.99833800  0.71832700  1
  O  O2  1  0.05783300  0.95113500  0.49461100  1
  O  O3  1  0.55783300  0.04886500  0.50538900  1
  O  O4  1  0.42410600  0.62295600  0.49889000  1
  O  O5  1  0.92410600  0.37704400  0.50111000  1
  O  O6  1  0.33905300  0.00166200  0.28167300  1
  O  O7  1  0.83996900  0.00406200  0.28151600  1
  O  O8  1  0.65764500  0.44210600  0.21084400  1
  O  O9  1  0.16127100  0.48266200  0.21491400  1
  O  O10  1  0.57929500  0.87654300  0.01788200  1
  O  O11  1  0.94026200  0.53741400  0.00174300  1
  O  O12  1  0.44026200  0.46258600  0.99825700  1
  O  O13  1  0.07929500  0.12345700  0.98211800  1
  O  O14  1  0.66127100  0.51733800  0.78508600  1
  O  O15  1  0.15764500  0.55789400  0.78915600  1
loop_
_geom_bond_atom_site_label_1
_geom_bond_atom_site_label_2
_geom_bond_distance
_geom_bond_site_symmetry_2
Li0 O1 1.920209 1_555
Li0 O3 1.978996 1_565
Li0 O10 2.024357 1_556
Li0 O14 2.173567 1_555
Li1 O6 1.920209 1_555
Li1 O2 1.978996 1_545
Li1 O13 2.024357 1_554
Li1 O9 2.173567 1_555
Li2 O10 1.925755 1_545
Li2 O7 1.942697 1_555
Li2 O3 2.009892 1_555
Li2 O8 2.138812 1_555
Li3 O8 1.926626 1_555
Li3 O5 1.936568 1_555
Li3 O11 1.941515 1_555
Li3 O7 2.317445 1_555
Li4 O9 1.932991 1_555
Li4 O4 1.956888 1_555
Li4 O12 1.983340 1_554
Li4 O6 2.325943 1_565
Li5 O14 1.932991 1_555
Li5 O5 1.956888 1_555
Li5 O11 1.983340 1_556
Li5 O1 2.325943 1_545
Li6 O15 1.926626 1_555
Li6 O4 1.936568 1_555
Li6 O12 1.941515 1_555
Li6 O0 2.317445 1_555
Li7 O13 1.925755 1_565
Li7 O0 1.942697 1_555
Li7 O2 2.009892 1_555
Li7 O15 2.138812 1_555
Fe0 O0 2.019028 1_545
Fe0 O6 2.021078 1_556
Fe0 O12 2.063651 1_555
Fe0 O10 2.065116 1_546
Fe1 O7 2.019028 1_565
Fe1 O1 2.021078 1_554
Fe1 O11 2.063651 1_555
Fe1 O13 2.065116 1_664
Fe2 O14 2.007214 1_555
Fe2 O4 2.012564 1_555
Fe2 O8 2.040307 1_555
Fe2 O3 2.061419 1_555
Fe3 O9 2.007214 1_555
Fe3 O5 2.012564 1_455
Fe3 O15 2.040307 1_555
Fe3 O2 2.061419 1_555
O0 Si1 1.652605 1_555
O1 Si0 1.650632 1_565
O2 Si0 1.651939 1_465
O3 Si1 1.651939 1_545
O4 Si1 1.660763 1_555
O5 Si0 1.660763 1_555
O6 Si1 1.650632 1_545
O7 Si0 1.652605 1_555
O8 Si2 1.648960 1_555
O9 Si3 1.657673 1_554
O10 Si2 1.657974 1_555
O11 Si3 1.659997 1_654
O12 Si2 1.659997 1_556
O13 Si3 1.657974 1_555
O14 Si2 1.657673 1_556
O15 Si3 1.648960 1_555
