# generated using pymatgen
data_LiV4(GeO4)4
_symmetry_space_group_name_H-M   'P 1'
_cell_length_a   4.44778984
_cell_length_b   4.76510299
_cell_length_c   11.52697818
_cell_angle_alpha   89.99960299
_cell_angle_beta   89.99878272
_cell_angle_gamma   89.21931378
_symmetry_Int_Tables_number   1
_chemical_formula_structural   LiV4(GeO4)4
_chemical_formula_sum   'Li1 V4 Ge4 O16'
_cell_volume   244.28213423
_cell_formula_units_Z   1
loop_
 _symmetry_equiv_pos_site_id
 _symmetry_equiv_pos_as_xyz
  1  'x, y, z'
loop_
 _atom_site_type_symbol
 _atom_site_label
 _atom_site_symmetry_multiplicity
 _atom_site_fract_x
 _atom_site_fract_y
 _atom_site_fract_z
 _atom_site_occupancy
  Li  Li0  1  0.00000000  0.25003200  0.70002000  1
  V  V0  1  0.00000200  0.75003000  0.56177200  1
  V  V1  1  0.50000500  0.74999800  0.07187700  1
  V  V2  1  0.50000100  0.25000500  0.93138000  1
  V  V3  1  0.99999300  0.24994300  0.43092100  1
  Ge  Ge0  1  0.00001700  0.75001900  0.82332900  1
  Ge  Ge1  1  0.50001300  0.25002700  0.67394900  1
  Ge  Ge2  1  0.49998800  0.74995000  0.32166400  1
  Ge  Ge3  1  0.99999500  0.24998600  0.17835200  1
  O  O0  1  0.22359400  0.07958000  0.30591100  1
  O  O1  1  0.25441100  0.57678400  0.43468300  1
  O  O2  1  0.24839200  0.07798600  0.06042400  1
  O  O3  1  0.24959100  0.09342500  0.56474800  1
  O  O4  1  0.27517700  0.58115800  0.19145500  1
  O  O5  1  0.26813200  0.08258500  0.80774300  1
  O  O6  1  0.22802700  0.57715700  0.69514900  1
  O  O7  1  0.25166200  0.57656300  0.93771100  1
  O  O8  1  0.75160400  0.42200100  0.06042300  1
  O  O9  1  0.77640000  0.42038000  0.30591300  1
  O  O10  1  0.72482200  0.91881400  0.19145600  1
  O  O11  1  0.73186400  0.41743700  0.80774300  1
  O  O12  1  0.74554100  0.92320700  0.43467000  1
  O  O13  1  0.74833400  0.92345000  0.93770900  1
  O  O14  1  0.75043200  0.40660600  0.56474300  1
  O  O15  1  0.77200200  0.92288000  0.69514500  1
loop_
_geom_bond_atom_site_label_1
_geom_bond_atom_site_label_2
_geom_bond_distance
_geom_bond_site_symmetry_2
Li0 O6 1.872077 1_555
Li0 O15 1.872117 1_445
Li0 O11 1.890648 1_455
Li0 O5 1.890746 1_555
Li0 O14 2.048859 1_455
Li0 O3 2.048899 1_555
Ge0 O7 1.910272 1_555
Ge0 O13 1.910278 1_455
Ge0 O6 1.966533 1_555
Ge0 O15 1.966600 1_455
Ge0 O5 2.004289 1_565
Ge0 O11 2.004459 1_455
Ge1 O14 1.845116 1_555
Ge1 O3 1.845169 1_555
Ge1 O6 1.975264 1_555
Ge1 O15 1.975333 1_545
Ge1 O11 2.025043 1_555
Ge1 O5 2.025131 1_555
Ge2 O1 1.896215 1_555
Ge2 O12 1.896282 1_555
Ge2 O4 1.980274 1_555
Ge2 O10 1.980419 1_555
Ge2 O9 1.989495 1_555
Ge2 O0 1.989675 1_565
Ge3 O2 1.927558 1_655
Ge3 O8 1.927606 1_555
Ge3 O9 1.946355 1_555
Ge3 O0 1.946393 1_655
Ge3 O10 2.015861 1_545
Ge3 O4 2.015891 1_655
O0 V3 1.924189 1_455
O1 V3 1.938044 1_455
O1 V0 2.020521 1_555
O2 V1 1.914380 1_545
O2 V2 2.040052 1_554
O3 V0 1.990116 1_545
O3 V3 2.036144 1_455
O4 V1 1.889185 1_555
O5 V2 1.937425 1_555
O6 V0 2.012008 1_555
O7 V2 1.897349 1_555
O7 V1 2.078414 1_556
O8 V1 1.914377 1_555
O8 V2 2.040027 1_554
O9 V3 1.924324 1_555
O10 V1 1.889157 1_555
O11 V2 1.937394 1_555
O12 V3 1.937723 1_565
O12 V0 2.020653 1_655
O13 V2 1.897322 1_565
O13 V1 2.078387 1_556
O14 V0 1.990181 1_655
O14 V3 2.036231 1_555
O15 V0 2.011849 1_655
