# generated using pymatgen
data_Cr3GaFe3As2
_symmetry_space_group_name_H-M   'P 1'
_cell_length_a   3.81982200
_cell_length_b   6.00280917
_cell_length_c   6.00129397
_cell_angle_alpha   120.00834022
_cell_angle_beta   90.00000000
_cell_angle_gamma   90.00000000
_symmetry_Int_Tables_number   1
_chemical_formula_structural   Cr3GaFe3As2
_chemical_formula_sum   'Cr3 Ga1 Fe3 As2'
_cell_volume   119.16170006
_cell_formula_units_Z   1
loop_
 _symmetry_equiv_pos_site_id
 _symmetry_equiv_pos_as_xyz
  1  'x, y, z'
loop_
 _atom_site_type_symbol
 _atom_site_label
 _atom_site_symmetry_multiplicity
 _atom_site_fract_x
 _atom_site_fract_y
 _atom_site_fract_z
 _atom_site_occupancy
  Cr  Cr0  1  0.50000000  0.57488100  0.00000000  1
  Cr  Cr1  1  0.50000000  0.42529800  0.42532800  1
  Cr  Cr2  1  0.50000000  0.99997000  0.57467200  1
  Ga  Ga0  1  0.50000000  0.00000100  0.00000000  1
  Fe  Fe0  1  0.00000000  0.24215100  0.00000000  1
  Fe  Fe1  1  0.00000000  0.75771100  0.75776100  1
  Fe  Fe2  1  0.00000000  0.99995000  0.24223900  1
  As  As0  1  0.00000000  0.33331900  0.66670000  1
  As  As1  1  0.00000000  0.66661900  0.33330000  1
loop_
_geom_bond_atom_site_label_1
_geom_bond_atom_site_label_2
_geom_bond_distance
_geom_bond_site_symmetry_2
Cr0 Ga0 2.551914 1_565
Cr1 Ga0 2.552426 1_555
Cr2 Ga0 2.552425 1_566
Fe0 Ga0 2.400137 1_455
Fe0 Ga0 2.400137 1_555
Fe1 Ga0 2.400331 1_466
Fe1 Ga0 2.400331 1_566
Fe2 Ga0 2.400331 1_465
Fe2 Ga0 2.400331 1_565
As0 Fe2 2.322622 1_545
As0 Fe0 2.322790 1_556
As0 Fe1 2.322947 1_555
As0 Cr0 2.617282 1_456
As0 Cr0 2.617282 1_556
As0 Cr1 2.617419 1_555
As0 Cr1 2.617419 1_455
As0 Cr2 2.617534 1_545
As0 Cr2 2.617534 1_445
As1 Fe1 2.322621 1_555
As1 Fe0 2.322791 1_555
As1 Fe2 2.322947 1_555
As1 Cr0 2.617282 1_455
As1 Cr0 2.617282 1_555
As1 Cr2 2.617419 1_555
As1 Cr2 2.617419 1_455
As1 Cr1 2.617533 1_455
As1 Cr1 2.617533 1_555
