# generated using pymatgen
data_KU2(PO4)3
_symmetry_space_group_name_H-M   'P 1'
_cell_length_a   9.45692124
_cell_length_b   9.45692124
_cell_length_c   8.08280137
_cell_angle_alpha   78.69526794
_cell_angle_beta   78.69526794
_cell_angle_gamma   42.32839534
_symmetry_Int_Tables_number   1
_chemical_formula_structural   KU2(PO4)3
_chemical_formula_sum   'K2 U4 P6 O24'
_cell_volume   475.89113621
_cell_formula_units_Z   2
loop_
 _symmetry_equiv_pos_site_id
 _symmetry_equiv_pos_as_xyz
  1  'x, y, z'
loop_
 _atom_site_type_symbol
 _atom_site_label
 _atom_site_symmetry_multiplicity
 _atom_site_fract_x
 _atom_site_fract_y
 _atom_site_fract_z
 _atom_site_occupancy
  K  K0  1  0.40847500  0.60809300  0.71198800  1
  K  K1  1  0.60809300  0.40847500  0.21198800  1
  U  U0  1  0.93936500  0.75243500  0.53667100  1
  U  U1  1  0.24848100  0.06026000  0.96289900  1
  U  U2  1  0.06026000  0.24848100  0.46289900  1
  U  U3  1  0.75243500  0.93936500  0.03667100  1
  P  P0  1  0.90278300  0.09725100  0.75004800  1
  P  P1  1  0.09725100  0.90278300  0.25004800  1
  P  P2  1  0.78135100  0.60011600  0.81698000  1
  P  P3  1  0.40005100  0.21888800  0.68297200  1
  P  P4  1  0.21888800  0.40005100  0.18297200  1
  P  P5  1  0.60011600  0.78135100  0.31698000  1
  O  O0  1  0.82523500  0.72731000  0.83003500  1
  O  O1  1  0.27245000  0.17490100  0.67004900  1
  O  O2  1  0.17490100  0.27245000  0.17004900  1
  O  O3  1  0.72731000  0.82523500  0.33003500  1
  O  O4  1  0.95979300  0.89554700  0.74406000  1
  O  O5  1  0.10476700  0.04041800  0.75567700  1
  O  O6  1  0.04041800  0.10476700  0.25567700  1
  O  O7  1  0.89554700  0.95979300  0.24406000  1
  O  O8  1  0.26160700  0.45546600  0.65269200  1
  O  O9  1  0.54478000  0.73749300  0.84757000  1
  O  O10  1  0.73749300  0.54478000  0.34757000  1
  O  O11  1  0.45546600  0.26160700  0.15269200  1
  O  O12  1  0.85617900  0.54982200  0.62659300  1
  O  O13  1  0.45023200  0.14310900  0.87355600  1
  O  O14  1  0.14310900  0.45023200  0.37355600  1
  O  O15  1  0.54982200  0.85617900  0.12659300  1
  O  O16  1  0.60585900  0.08667500  0.56831500  1
  O  O17  1  0.91164700  0.39480000  0.93266600  1
  O  O18  1  0.39480000  0.91164700  0.43266600  1
  O  O19  1  0.08667500  0.60585900  0.06831500  1
  O  O20  1  0.19339900  0.75207700  0.41197800  1
  O  O21  1  0.24731700  0.80816800  0.08725200  1
  O  O22  1  0.80816800  0.24731700  0.58725200  1
  O  O23  1  0.75207700  0.19339900  0.91197800  1
loop_
_geom_bond_atom_site_label_1
_geom_bond_atom_site_label_2
_geom_bond_distance
_geom_bond_site_symmetry_2
K0 O22 2.780405 1_555
K0 O8 2.781825 1_555
K0 O9 2.787830 1_555
K0 O5 2.809841 1_565
K0 O4 2.872502 1_455
K0 O20 2.900941 1_555
K0 O23 3.046862 1_555
K0 O18 3.221703 1_555
K0 O21 3.358105 1_556
K1 O21 2.780405 1_555
K1 O11 2.781825 1_555
K1 O10 2.787830 1_555
K1 O6 2.809841 1_655
K1 O7 2.872502 1_545
K1 O23 2.900941 1_554
K1 O20 3.046862 1_555
K1 O17 3.221703 1_554
K1 O22 3.358105 1_555
O0 P2 1.560541 1_555
O0 U0 2.449267 1_555
O0 U3 2.471043 1_556
O1 P3 1.564854 1_555
O1 U1 2.444705 1_555
O1 U2 2.471889 1_555
O2 P4 1.564854 1_555
O2 U2 2.444705 1_555
O2 U1 2.471889 1_554
O3 P5 1.560541 1_555
O3 U3 2.449267 1_555
O3 U0 2.471043 1_555
O4 P0 1.561068 1_565
O4 U0 2.466158 1_555
O4 U3 2.641082 1_556
O5 P0 1.564003 1_455
O5 U1 2.465870 1_555
O5 U2 2.643735 1_555
O6 P1 1.564003 1_545
O6 U2 2.465870 1_555
O6 U1 2.643735 1_554
O7 P1 1.561068 1_655
O7 U3 2.466158 1_555
O7 U0 2.641082 1_555
O8 P3 1.536039 1_555
O8 U0 2.342395 1_455
O9 P2 1.538069 1_555
O9 U1 2.341511 1_565
O10 P5 1.538069 1_555
O10 U2 2.341511 1_655
O11 P4 1.536039 1_555
O11 U3 2.342395 1_545
O12 P2 1.567621 1_555
O12 U2 2.437506 1_655
O12 U0 2.505428 1_555
O13 P3 1.569305 1_555
O13 U3 2.440837 1_546
O13 U1 2.494776 1_555
O14 P4 1.569305 1_555
O14 U0 2.440837 1_455
O14 U2 2.494776 1_555
O15 P5 1.567621 1_555
O15 U1 2.437506 1_564
O15 U3 2.505428 1_555
O16 P3 1.535980 1_555
O16 U0 2.294378 1_545
O17 P2 1.537876 1_555
O17 U1 2.305830 1_655
O18 P5 1.537876 1_555
O18 U2 2.305830 1_565
O19 P4 1.535980 1_555
O19 U3 2.294378 1_455
O20 P1 1.546034 1_555
O20 U0 2.413975 1_455
O21 P1 1.548551 1_555
O21 U1 2.406019 1_564
O22 P0 1.548551 1_555
O22 U2 2.406019 1_655
O23 P0 1.546034 1_555
O23 U3 2.413975 1_546
