# generated using pymatgen
data_Nb6I11
_symmetry_space_group_name_H-M   'P 1'
_cell_length_a   11.63456600
_cell_length_b   13.86747400
_cell_length_c   16.07136700
_cell_angle_alpha   90.00000000
_cell_angle_beta   90.00000000
_cell_angle_gamma   90.00000000
_symmetry_Int_Tables_number   1
_chemical_formula_structural   Nb6I11
_chemical_formula_sum   'Nb24 I44'
_cell_volume   2592.98716158
_cell_formula_units_Z   4
loop_
 _symmetry_equiv_pos_site_id
 _symmetry_equiv_pos_as_xyz
  1  'x, y, z'
loop_
 _atom_site_type_symbol
 _atom_site_label
 _atom_site_symmetry_multiplicity
 _atom_site_fract_x
 _atom_site_fract_y
 _atom_site_fract_z
 _atom_site_occupancy
  Nb  Nb0  1  0.90485100  0.27245800  0.60462500  1
  Nb  Nb1  1  0.40485100  0.72754200  0.39537500  1
  Nb  Nb2  1  0.40485100  0.22754200  0.10462500  1
  Nb  Nb3  1  0.90485100  0.77245800  0.89537500  1
  Nb  Nb4  1  0.10679200  0.22415800  0.40204300  1
  Nb  Nb5  1  0.60679200  0.77584200  0.59795700  1
  Nb  Nb6  1  0.60679200  0.27584200  0.90204300  1
  Nb  Nb7  1  0.10679200  0.72415800  0.09795700  1
  Nb  Nb8  1  0.86736500  0.17174700  0.45427600  1
  Nb  Nb9  1  0.36736500  0.82825300  0.54572400  1
  Nb  Nb10  1  0.36736500  0.32825300  0.95427600  1
  Nb  Nb11  1  0.86736500  0.67174700  0.04572400  1
  Nb  Nb12  1  0.12897000  0.33006700  0.54907900  1
  Nb  Nb13  1  0.62897000  0.66993300  0.45092100  1
  Nb  Nb14  1  0.62897000  0.16993300  0.04907900  1
  Nb  Nb15  1  0.12897000  0.83006700  0.95092100  1
  Nb  Nb16  1  0.06795700  0.12853900  0.54918600  1
  Nb  Nb17  1  0.56795700  0.87146100  0.45081400  1
  Nb  Nb18  1  0.56795700  0.37146100  0.04918600  1
  Nb  Nb19  1  0.06795700  0.62853900  0.95081400  1
  Nb  Nb20  1  0.92929100  0.36906000  0.45103400  1
  Nb  Nb21  1  0.42929100  0.63094000  0.54896600  1
  Nb  Nb22  1  0.42929100  0.13094000  0.95103400  1
  Nb  Nb23  1  0.92929100  0.86906000  0.04896600  1
  I  I0  1  0.84221700  0.07141700  0.61065100  1
  I  I1  1  0.34221700  0.92858300  0.38934900  1
  I  I2  1  0.34221700  0.42858300  0.11065100  1
  I  I3  1  0.84221700  0.57141700  0.88934900  1
  I  I4  1  0.15269800  0.42762700  0.38925300  1
  I  I5  1  0.65269800  0.57237300  0.61074700  1
  I  I6  1  0.65269800  0.07237300  0.88925300  1
  I  I7  1  0.15269800  0.92762700  0.11074700  1
  I  I8  1  0.96806400  0.47512200  0.60400400  1
  I  I9  1  0.46806400  0.52487800  0.39599600  1
  I  I10  1  0.46806400  0.02487800  0.10400400  1
  I  I11  1  0.96806400  0.97512200  0.89599600  1
  I  I12  1  0.02283500  0.02824000  0.39272700  1
  I  I13  1  0.52283500  0.97176000  0.60727300  1
  I  I14  1  0.52283500  0.47176000  0.89272700  1
  I  I15  1  0.02283500  0.52824000  0.10727300  1
  I  I16  1  0.09920700  0.22860400  0.70835900  1
  I  I17  1  0.59920700  0.77139600  0.29164100  1
  I  I18  1  0.59920700  0.27139600  0.20835900  1
  I  I19  1  0.09920700  0.72860400  0.79164100  1
  I  I20  1  0.91237800  0.26659700  0.29373700  1
  I  I21  1  0.41237800  0.73340300  0.70626300  1
  I  I22  1  0.41237800  0.23340300  0.79373700  1
  I  I23  1  0.91237800  0.76659700  0.20626300  1
  I  I24  1  0.70242700  0.31415600  0.50488500  1
  I  I25  1  0.20242700  0.68584400  0.49511500  1
  I  I26  1  0.20242700  0.18584400  0.00488500  1
  I  I27  1  0.70242700  0.81415600  0.99511500  1
  I  I28  1  0.29992100  0.18749000  0.50886900  1
  I  I29  1  0.79992100  0.81251000  0.49113100  1
  I  I30  1  0.79992100  0.31251000  0.00886900  1
  I  I31  1  0.29992100  0.68749000  0.99113100  1
  I  I32  1  0.16485700  0.94187800  0.61276100  1
  I  I33  1  0.66485700  0.05812200  0.38723900  1
  I  I34  1  0.66485700  0.55812200  0.11276100  1
  I  I35  1  0.16485700  0.44187800  0.88723900  1
  I  I36  1  0.81757800  0.54451900  0.37635900  1
  I  I37  1  0.31757800  0.45548100  0.62364100  1
  I  I38  1  0.31757800  0.95548100  0.87635900  1
  I  I39  1  0.81757800  0.04451900  0.12364100  1
  I  I40  1  0.76569300  0.32067500  0.75892600  1
  I  I41  1  0.26569300  0.67932500  0.24107400  1
  I  I42  1  0.26569300  0.17932500  0.25892600  1
  I  I43  1  0.76569300  0.82067500  0.74107400  1
loop_
_geom_bond_atom_site_label_1
_geom_bond_atom_site_label_2
_geom_bond_distance
_geom_bond_site_symmetry_2
I0 Nb0 2.883222 1_555
I0 Nb8 2.887449 1_555
I0 Nb16 2.915680 1_655
I1 Nb1 2.883222 1_555
I1 Nb9 2.887449 1_555
I1 Nb17 2.915680 1_555
I2 Nb2 2.883222 1_555
I2 Nb10 2.887449 1_554
I2 Nb18 2.915680 1_555
I3 Nb3 2.883222 1_555
I3 Nb11 2.887449 1_556
I3 Nb19 2.915680 1_655
I4 Nb4 2.879053 1_555
I4 Nb20 2.898544 1_455
I4 Nb12 2.916230 1_555
I5 Nb5 2.879053 1_555
I5 Nb21 2.898544 1_555
I5 Nb13 2.916230 1_555
I6 Nb6 2.879053 1_555
I6 Nb22 2.898544 1_555
I6 Nb14 2.916230 1_556
I7 Nb7 2.879053 1_555
I7 Nb23 2.898544 1_455
I7 Nb15 2.916230 1_554
I8 Nb12 2.886203 1_655
I8 Nb20 2.900120 1_555
I8 Nb0 2.905091 1_555
I9 Nb13 2.886203 1_555
I9 Nb21 2.900120 1_555
I9 Nb1 2.905091 1_555
I10 Nb14 2.886203 1_555
I10 Nb22 2.900120 1_554
I10 Nb2 2.905091 1_555
I11 Nb15 2.886203 1_655
I11 Nb23 2.900120 1_556
I11 Nb3 2.905091 1_555
I12 Nb8 2.865439 1_455
I12 Nb4 2.891028 1_555
I12 Nb16 2.921120 1_555
I13 Nb9 2.865439 1_555
I13 Nb5 2.891028 1_555
I13 Nb17 2.921120 1_555
I14 Nb10 2.865439 1_555
I14 Nb6 2.891028 1_555
I14 Nb18 2.921120 1_556
I15 Nb11 2.865439 1_455
I15 Nb7 2.891028 1_555
I15 Nb19 2.921120 1_554
I16 Nb0 2.874450 1_455
I16 Nb16 2.932879 1_555
I16 Nb12 2.941509 1_555
I17 Nb1 2.874450 1_555
I17 Nb17 2.932879 1_555
I17 Nb13 2.941509 1_555
I18 Nb2 2.874450 1_555
I18 Nb18 2.932879 1_555
I18 Nb14 2.941509 1_555
I19 Nb3 2.874450 1_455
I19 Nb19 2.932879 1_555
I19 Nb15 2.941509 1_555
I20 Nb20 2.906606 1_555
I20 Nb4 2.914177 1_655
I20 Nb8 2.942988 1_555
I21 Nb21 2.906606 1_555
I21 Nb5 2.914177 1_555
I21 Nb9 2.942988 1_555
I22 Nb22 2.906606 1_555
I22 Nb6 2.914177 1_555
I22 Nb10 2.942988 1_555
I23 Nb23 2.906606 1_555
I23 Nb7 2.914177 1_655
I23 Nb11 2.942988 1_555
I24 Nb8 2.871251 1_555
I24 Nb20 2.880189 1_555
I24 Nb0 2.906959 1_555
I25 Nb9 2.871251 1_555
I25 Nb21 2.880189 1_555
I25 Nb1 2.906959 1_555
I26 Nb10 2.871251 1_554
I26 Nb22 2.880189 1_554
I26 Nb2 2.906959 1_555
I27 Nb11 2.871251 1_556
I27 Nb23 2.880189 1_556
I27 Nb3 2.906959 1_555
I28 Nb4 2.873149 1_555
I28 Nb12 2.877977 1_555
I28 Nb16 2.893384 1_555
I29 Nb5 2.873149 1_555
I29 Nb13 2.877977 1_555
I29 Nb17 2.893384 1_555
I30 Nb6 2.873149 1_554
I30 Nb14 2.877977 1_555
I30 Nb18 2.893384 1_555
I31 Nb7 2.873149 1_556
I31 Nb15 2.877977 1_555
I31 Nb19 2.893384 1_555
I32 Nb16 3.002561 1_565
I32 Nb9 3.032279 1_555
I33 Nb17 3.002561 1_545
I33 Nb8 3.032279 1_555
I34 Nb18 3.002561 1_555
I34 Nb11 3.032279 1_555
I35 Nb19 3.002561 1_555
I35 Nb10 3.032279 1_555
I36 Nb20 3.008313 1_555
I36 Nb13 3.045645 1_555
I37 Nb21 3.008313 1_555
I37 Nb12 3.045645 1_555
I38 Nb22 3.008313 1_565
I38 Nb15 3.045645 1_555
I39 Nb23 3.008313 1_545
I39 Nb14 3.045645 1_555
I40 Nb6 3.015756 1_555
I40 Nb0 3.036106 1_555
I41 Nb7 3.015756 1_555
I41 Nb1 3.036106 1_555
I42 Nb4 3.015756 1_555
I42 Nb2 3.036106 1_555
I43 Nb5 3.015756 1_555
I43 Nb3 3.036106 1_555
