# generated using pymatgen
data_SnPS3
_symmetry_space_group_name_H-M   'P 1'
_cell_length_a   6.75029600
_cell_length_b   6.76218930
_cell_length_c   7.20177709
_cell_angle_alpha   81.07238483
_cell_angle_beta   71.88532175
_cell_angle_gamma   60.05816343
_symmetry_Int_Tables_number   1
_chemical_formula_structural   SnPS3
_chemical_formula_sum   'Sn2 P2 S6'
_cell_volume   270.74323568
_cell_formula_units_Z   2
loop_
 _symmetry_equiv_pos_site_id
 _symmetry_equiv_pos_as_xyz
  1  'x, y, z'
loop_
 _atom_site_type_symbol
 _atom_site_label
 _atom_site_symmetry_multiplicity
 _atom_site_fract_x
 _atom_site_fract_y
 _atom_site_fract_z
 _atom_site_occupancy
  Sn  Sn0  1  0.66692700  0.66614600  0.00000000  1
  Sn  Sn1  1  0.33307300  0.33385400  0.00000000  1
  P  P0  1  0.94529300  0.00000000  0.16480400  1
  P  P1  1  0.05470700  0.00000000  0.83519600  1
  S  S0  1  0.20839900  0.00000000  0.24959600  1
  S  S1  1  0.79160100  0.00000000  0.75040400  1
  S  S2  1  0.62674100  0.28953000  0.25342200  1
  S  S3  1  0.91627100  0.71047000  0.25342200  1
  S  S4  1  0.37325900  0.71047000  0.74657800  1
  S  S5  1  0.08372900  0.28953000  0.74657800  1
loop_
_geom_bond_atom_site_label_1
_geom_bond_atom_site_label_2
_geom_bond_distance
_geom_bond_site_symmetry_2
P0 S2 2.048465 1_555
P0 S3 2.048465 1_545
P0 S0 2.049791 1_655
P0 P1 2.256110 1_654
P1 S5 2.048465 1_555
P1 S4 2.048465 1_545
P1 S1 2.049791 1_455
S0 Sn0 2.955075 1_545
S0 Sn1 2.955075 1_555
S1 Sn1 2.955075 1_556
S1 Sn0 2.955075 1_546
S2 Sn0 2.971465 1_555
S2 Sn1 2.972771 1_555
S3 Sn1 2.971465 1_655
S3 Sn0 2.972771 1_555
S4 Sn1 2.971465 1_556
S4 Sn0 2.972771 1_556
S5 Sn0 2.971465 1_456
S5 Sn1 2.972771 1_556
