# generated using pymatgen
data_SrP2WO8
_symmetry_space_group_name_H-M   'P 1'
_cell_length_a   5.75618800
_cell_length_b   7.14811749
_cell_length_c   9.33491172
_cell_angle_alpha   110.90245200
_cell_angle_beta   100.40802338
_cell_angle_gamma   98.35007887
_symmetry_Int_Tables_number   1
_chemical_formula_structural   SrP2WO8
_chemical_formula_sum   'Sr2 P4 W2 O16'
_cell_volume   343.60009637
_cell_formula_units_Z   2
loop_
 _symmetry_equiv_pos_site_id
 _symmetry_equiv_pos_as_xyz
  1  'x, y, z'
loop_
 _atom_site_type_symbol
 _atom_site_label
 _atom_site_symmetry_multiplicity
 _atom_site_fract_x
 _atom_site_fract_y
 _atom_site_fract_z
 _atom_site_occupancy
  Sr  Sr0  1  0.24667600  0.73041800  0.02121500  1
  Sr  Sr1  1  0.75332400  0.26958200  0.97878500  1
  P  P0  1  0.38749700  0.21472300  0.23182800  1
  P  P1  1  0.61250300  0.78527700  0.76817200  1
  P  P2  1  0.84465100  0.73427400  0.30374900  1
  P  P3  1  0.15534900  0.26572600  0.69625100  1
  W  W0  1  0.66433000  0.28054200  0.56382600  1
  W  W1  1  0.33567000  0.71945800  0.43617400  1
  O  O0  1  0.83555900  0.66967200  0.88465800  1
  O  O1  1  0.61977100  0.30322400  0.18287600  1
  O  O2  1  0.64471500  0.01928200  0.74768200  1
  O  O3  1  0.95541600  0.39013600  0.70577600  1
  O  O4  1  0.38022900  0.69677600  0.81712400  1
  O  O5  1  0.99341300  0.17362400  0.57571400  1
  O  O6  1  0.00658700  0.82637600  0.42428600  1
  O  O7  1  0.28561300  0.12550300  0.85878600  1
  O  O8  1  0.35528500  0.98071800  0.25231800  1
  O  O9  1  0.71438700  0.87449700  0.14121400  1
  O  O10  1  0.16444100  0.33032800  0.11534200  1
  O  O11  1  0.40272300  0.21284800  0.40127100  1
  O  O12  1  0.59727700  0.78715200  0.59872900  1
  O  O13  1  0.64096600  0.58816300  0.38795900  1
  O  O14  1  0.04458400  0.60986400  0.29422400  1
  O  O15  1  0.35903400  0.41183700  0.61204100  1
loop_
_geom_bond_atom_site_label_1
_geom_bond_atom_site_label_2
_geom_bond_distance
_geom_bond_site_symmetry_2
O0 P1 1.989649 1_555
O0 Sr0 2.372830 1_656
O1 P0 1.605611 1_555
O1 Sr1 2.129426 1_554
O2 P1 1.737787 1_545
O2 Sr1 2.163252 1_555
O3 P3 1.549522 1_655
O3 W0 1.803569 1_555
O4 P1 1.605611 1_555
O4 Sr0 2.129426 1_556
O5 P3 1.217620 1_655
O5 W0 2.142356 1_555
O6 P2 1.217620 1_455
O6 W1 2.142356 1_555
O7 P3 2.182051 1_555
O7 Sr1 2.616379 1_555
O8 P0 1.737787 1_565
O8 Sr0 2.163252 1_555
O9 P2 2.182051 1_555
O9 Sr0 2.616379 1_555
O10 P0 1.989649 1_555
O10 Sr1 2.372830 1_454
O11 P0 1.573254 1_555
O11 W0 1.800883 1_555
O12 P1 1.573254 1_555
O12 W1 1.800883 1_555
O13 P2 1.909601 1_555
O13 W1 2.152909 1_555
O14 P2 1.549522 1_455
O14 W1 1.803569 1_555
O15 P3 1.909601 1_555
O15 W0 2.152909 1_555
