# generated using pymatgen
data_LiMn3O4
_symmetry_space_group_name_H-M   'P 1'
_cell_length_a   5.26094091
_cell_length_b   6.23134982
_cell_length_c   6.12252397
_cell_angle_alpha   61.42379751
_cell_angle_beta   105.45073565
_cell_angle_gamma   103.74842571
_symmetry_Int_Tables_number   1
_chemical_formula_structural   LiMn3O4
_chemical_formula_sum   'Li2 Mn6 O8'
_cell_volume   168.44582811
_cell_formula_units_Z   2
loop_
 _symmetry_equiv_pos_site_id
 _symmetry_equiv_pos_as_xyz
  1  'x, y, z'
loop_
 _atom_site_type_symbol
 _atom_site_label
 _atom_site_symmetry_multiplicity
 _atom_site_fract_x
 _atom_site_fract_y
 _atom_site_fract_z
 _atom_site_occupancy
  Li  Li0  1  0.98566900  0.01104400  0.47941600  1
  Li  Li1  1  0.01426300  0.48883000  0.02061900  1
  Mn  Mn0  1  0.99301600  0.00325800  0.99674000  1
  Mn  Mn1  1  0.00679200  0.49649900  0.50318600  1
  Mn  Mn2  1  0.50015900  0.24990200  0.25013700  1
  Mn  Mn3  1  0.50032500  0.25037700  0.74980900  1
  Mn  Mn4  1  0.50015600  0.75002300  0.25026400  1
  Mn  Mn5  1  0.49996800  0.75034500  0.74982600  1
  O  O0  1  0.25984700  0.36047400  0.37283500  1
  O  O1  1  0.27232500  0.86497500  0.91165300  1
  O  O2  1  0.72768800  0.63520700  0.58829700  1
  O  O3  1  0.74005200  0.13930000  0.12718900  1
  O  O4  1  0.75278300  0.13406400  0.60542000  1
  O  O5  1  0.74215100  0.64007200  0.13032600  1
  O  O6  1  0.25775800  0.85966600  0.36970900  1
  O  O7  1  0.24704700  0.36596500  0.89457600  1
loop_
_geom_bond_atom_site_label_1
_geom_bond_atom_site_label_2
_geom_bond_distance
_geom_bond_site_symmetry_2
Li0 O4 2.049320 1_555
Li0 O3 2.077580 1_555
Li0 O0 2.212908 1_655
Li0 O6 2.269408 1_645
Li0 O2 2.291062 1_545
Li0 O1 2.515505 1_645
Li1 O7 2.048396 1_554
Li1 O0 2.077480 1_555
Li1 O3 2.213423 1_455
Li1 O5 2.268907 1_455
Li1 O1 2.292648 1_554
Li1 O2 2.515709 1_454
Mn0 O1 2.147619 1_645
Mn0 O3 2.208601 1_556
Mn0 O6 2.213143 1_646
Mn0 O5 2.217487 1_546
Mn0 O7 2.223253 1_655
Mn0 O4 2.238287 1_555
Mn1 O2 2.148601 1_455
Mn1 O0 2.208482 1_555
Mn1 O5 2.212449 1_455
Mn1 O6 2.217617 1_555
Mn1 O4 2.221931 1_455
Mn1 O7 2.238673 1_555
Mn2 O3 2.012553 1_555
Mn2 O0 2.013132 1_555
Mn2 O4 2.105362 1_555
Mn2 O7 2.107677 1_554
Mn2 O5 2.321687 1_555
Mn2 O6 2.322885 1_545
Mn3 O0 2.177199 1_555
Mn3 O3 2.177278 1_556
Mn3 O4 2.183337 1_555
Mn3 O7 2.185425 1_555
Mn3 O2 2.270988 1_555
Mn3 O1 2.275021 1_545
Mn4 O2 1.974488 1_555
Mn4 O1 1.977667 1_554
Mn4 O6 2.004212 1_555
Mn4 O5 2.005873 1_555
Mn4 O3 2.312510 1_565
Mn4 O0 2.314734 1_555
Mn5 O1 2.154546 1_555
Mn5 O2 2.155620 1_555
Mn5 O6 2.195411 1_555
Mn5 O5 2.196790 1_556
Mn5 O4 2.315282 1_565
Mn5 O7 2.318548 1_555
