# generated using pymatgen
data_MgFe2O5
_symmetry_space_group_name_H-M   'P 1'
_cell_length_a   3.32128000
_cell_length_b   5.04169807
_cell_length_c   11.60038322
_cell_angle_alpha   90.02107213
_cell_angle_beta   90.00008389
_cell_angle_gamma   90.00002861
_symmetry_Int_Tables_number   1
_chemical_formula_structural   MgFe2O5
_chemical_formula_sum   'Mg2 Fe4 O10'
_cell_volume   194.24713926
_cell_formula_units_Z   2
loop_
 _symmetry_equiv_pos_site_id
 _symmetry_equiv_pos_as_xyz
  1  'x, y, z'
loop_
 _atom_site_type_symbol
 _atom_site_label
 _atom_site_symmetry_multiplicity
 _atom_site_fract_x
 _atom_site_fract_y
 _atom_site_fract_z
 _atom_site_occupancy
  Mg  Mg0  1  0.74999900  0.86724400  0.24981400  1
  Mg  Mg1  1  0.24999900  0.13272200  0.75006800  1
  Fe  Fe0  1  0.24999900  0.41721000  0.10166000  1
  Fe  Fe1  1  0.75000000  0.58295700  0.89836700  1
  Fe  Fe2  1  0.75000100  0.58262800  0.60171200  1
  Fe  Fe3  1  0.24999800  0.41721100  0.39830500  1
  O  O0  1  0.75000000  0.41768000  0.74999100  1
  O  O1  1  0.24999800  0.58233500  0.25002800  1
  O  O2  1  0.75000100  0.61366100  0.06984500  1
  O  O3  1  0.25000000  0.38655900  0.93024100  1
  O  O4  1  0.74999900  0.61346100  0.43034000  1
  O  O5  1  0.24999900  0.38630300  0.56972800  1
  O  O6  1  0.25000100  0.07406700  0.34272600  1
  O  O7  1  0.74999900  0.92582900  0.65721900  1
  O  O8  1  0.75000000  0.92608300  0.84282900  1
  O  O9  1  0.25000100  0.07405200  0.15712700  1
loop_
_geom_bond_atom_site_label_1
_geom_bond_atom_site_label_2
_geom_bond_distance
_geom_bond_site_symmetry_2
Mg0 O1 2.195687 1_655
Mg0 O1 2.195691 1_555
Mg0 O9 2.236456 1_565
Mg0 O9 2.236468 1_665
Mg0 O6 2.237381 1_565
Mg0 O6 2.237388 1_665
Mg0 O2 2.447673 1_555
Mg0 O4 2.454513 1_555
Mg1 O0 2.195847 1_455
Mg1 O0 2.195851 1_555
Mg1 O8 2.236476 1_445
Mg1 O8 2.236479 1_545
Mg1 O7 2.237195 1_445
Mg1 O7 2.237198 1_545
Mg1 O3 2.450359 1_555
Mg1 O5 2.452141 1_555
Fe0 O9 1.846097 1_555
Fe0 O1 1.911621 1_555
Fe0 O2 1.968544 1_455
Fe0 O2 1.968555 1_555
Fe0 O3 1.994465 1_554
Fe1 O8 1.846233 1_555
Fe1 O0 1.912038 1_555
Fe1 O3 1.968544 1_655
Fe1 O3 1.968544 1_555
Fe1 O2 1.995168 1_556
Fe2 O7 1.846018 1_555
Fe2 O0 1.910854 1_555
Fe2 O5 1.968457 1_655
Fe2 O5 1.968467 1_555
Fe2 O4 1.994106 1_555
Fe3 O6 1.846040 1_555
Fe3 O1 1.911219 1_555
Fe3 O4 1.968381 1_455
Fe3 O4 1.968385 1_555
Fe3 O5 1.994726 1_555
