# generated using pymatgen
data_Al2O3
_symmetry_space_group_name_H-M   'P 1'
_cell_length_a   10.49774145
_cell_length_b   10.06989568
_cell_length_c   10.97976935
_cell_angle_alpha   77.14738019
_cell_angle_beta   86.23373303
_cell_angle_gamma   86.90811107
_symmetry_Int_Tables_number   1
_chemical_formula_structural   Al2O3
_chemical_formula_sum   'Al40 O60'
_cell_volume   1128.23692077
_cell_formula_units_Z   20
loop_
 _symmetry_equiv_pos_site_id
 _symmetry_equiv_pos_as_xyz
  1  'x, y, z'
loop_
 _atom_site_type_symbol
 _atom_site_label
 _atom_site_symmetry_multiplicity
 _atom_site_fract_x
 _atom_site_fract_y
 _atom_site_fract_z
 _atom_site_occupancy
  Al  Al0  1  0.25194600  0.53103900  0.40788800  1
  Al  Al1  1  0.41325900  0.05286200  0.87211300  1
  Al  Al2  1  0.99308100  0.75251100  0.32177500  1
  Al  Al3  1  0.29021600  0.61093900  0.84041900  1
  Al  Al4  1  0.40181800  0.05661900  0.59762000  1
  Al  Al5  1  0.82295100  0.33302900  0.79170300  1
  Al  Al6  1  0.13081000  0.25605100  0.58071600  1
  Al  Al7  1  0.53184200  0.21171500  0.05277100  1
  Al  Al8  1  0.26749900  0.86394700  0.28872600  1
  Al  Al9  1  0.97293600  0.49997500  0.55276900  1
  Al  Al10  1  0.84241100  0.58167500  0.87111300  1
  Al  Al11  1  0.79940600  0.06183800  0.00504100  1
  Al  Al12  1  0.84973800  0.22921300  0.50552800  1
  Al  Al13  1  0.51832000  0.79834800  0.76627800  1
  Al  Al14  1  0.03836000  0.80552600  0.72684800  1
  Al  Al15  1  0.84745200  0.25440800  0.23630500  1
  Al  Al16  1  0.08004400  0.42661300  0.78783700  1
  Al  Al17  1  0.04096600  0.10705700  0.12570300  1
  Al  Al18  1  0.51996500  0.02367800  0.33054400  1
  Al  Al19  1  0.19840600  0.92004900  0.04572900  1
  Al  Al20  1  0.41778900  0.27699300  0.34654400  1
  Al  Al21  1  0.98100400  0.84436600  0.95351500  1
  Al  Al22  1  0.57862800  0.76849200  0.32234000  1
  Al  Al23  1  0.81786100  0.99006900  0.32022600  1
  Al  Al24  1  0.29808900  0.78028000  0.57113700  1
  Al  Al25  1  0.15985100  0.08000000  0.44725800  1
  Al  Al26  1  0.78826200  0.94819800  0.66127100  1
  Al  Al27  1  0.65098600  0.48511900  0.10362600  1
  Al  Al28  1  0.65226800  0.44871400  0.36077800  1
  Al  Al29  1  0.56978000  0.45859500  0.81373300  1
  Al  Al30  1  0.39295400  0.48229900  0.09862100  1
  Al  Al31  1  0.47006800  0.48781200  0.53327300  1
  Al  Al32  1  0.48167200  0.78065800  0.06279400  1
  Al  Al33  1  0.15385600  0.33897400  0.22630700  1
  Al  Al34  1  0.06447600  0.10969800  0.86293500  1
  Al  Al35  1  0.89697400  0.53828200  0.27501100  1
  Al  Al36  1  0.26098700  0.29015200  0.96523800  1
  Al  Al37  1  0.17676300  0.62411300  0.14048900  1
  Al  Al38  1  0.76223700  0.73501000  0.10294000  1
  Al  Al39  1  0.60197000  0.24731500  0.66876600  1
  O  O0  1  0.47909100  0.16556500  0.21504500  1
  O  O1  1  0.24989900  0.01741000  0.89535600  1
  O  O2  1  0.92885700  0.87449400  0.61571100  1
  O  O3  1  0.46017400  0.62898400  0.80189900  1
  O  O4  1  0.93163300  0.42198800  0.87336500  1
  O  O5  1  0.87872700  0.35465000  0.61792900  1
  O  O6  1  0.24214200  0.22327100  0.34420700  1
  O  O7  1  0.88624800  0.16414800  0.87286800  1
  O  O8  1  0.96090700  0.90711500  0.35408700  1
  O  O9  1  0.72986800  0.56437700  0.22750900  1
  O  O10  1  0.40432800  0.18894900  0.95295200  1
  O  O11  1  0.02092700  0.17020700  0.50392800  1
  O  O12  1  0.65940700  0.28729300  0.80378400  1
  O  O13  1  0.48227200  0.41782900  0.69236000  1
  O  O14  1  0.67074400  0.83953400  0.71692200  1
  O  O15  1  0.52738000  0.39905500  0.99690600  1
  O  O16  1  0.11307500  0.76957600  0.04510200  1
  O  O17  1  0.63708000  0.08602000  0.02494300  1
  O  O18  1  0.72707000  0.52332100  0.78526100  1
  O  O19  1  0.28002300  0.34371200  0.10455100  1
  O  O20  1  0.53977600  0.39382900  0.26266500  1
  O  O21  1  0.03935900  0.94938000  0.80392200  1
  O  O22  1  0.43282800  0.87124000  0.33600100  1
  O  O23  1  0.75557600  0.34173800  0.11872900  1
  O  O24  1  0.48090900  0.87674000  0.90302600  1
  O  O25  1  0.41686600  0.87367900  0.63277300  1
  O  O26  1  0.57563700  0.60192800  0.41663700  1
  O  O27  1  0.28698900  0.50893200  0.24316100  1
  O  O28  1  0.12070600  0.42793200  0.48841400  1
  O  O29  1  0.28172600  0.60120400  0.00304600  1
  O  O30  1  0.66513000  0.91374800  0.34856700  1
  O  O31  1  0.50995700  0.60582200  0.08574300  1
  O  O32  1  0.90393500  0.72366500  0.19496100  1
  O  O33  1  0.03627800  0.56679700  0.66647300  1
  O  O34  1  0.96137900  0.70556900  0.86561200  1
  O  O35  1  0.92028600  0.60501900  0.41559900  1
  O  O36  1  0.85887800  0.08583100  0.15880100  1
  O  O37  1  0.33107700  0.62818400  0.51030300  1
  O  O38  1  0.11286500  0.21758400  0.98218200  1
  O  O39  1  0.74853900  0.61945800  0.99946000  1
  O  O40  1  0.16431900  0.70607800  0.31365300  1
  O  O41  1  0.02222300  0.23378100  0.22003100  1
  O  O42  1  0.24065000  0.11125200  0.58296000  1
  O  O43  1  0.47621600  0.11518700  0.44904300  1
  O  O44  1  0.74704600  0.12476800  0.62915200  1
  O  O45  1  0.17828300  0.99726000  0.18767100  1
  O  O46  1  0.60944900  0.80212800  0.15705800  1
  O  O47  1  0.79848700  0.13613900  0.38177600  1
  O  O48  1  0.23183000  0.44498500  0.84552400  1
  O  O49  1  0.21722600  0.90717100  0.45014500  1
  O  O50  1  0.20665000  0.73664300  0.72045400  1
  O  O51  1  0.02838100  0.99425500  0.01853000  1
  O  O52  1  0.83578500  0.37299700  0.36064000  1
  O  O53  1  0.33287700  0.82364200  0.13182100  1
  O  O54  1  0.47572300  0.11887600  0.71366800  1
  O  O55  1  0.10854300  0.26362100  0.73874200  1
  O  O56  1  0.05294200  0.49746200  0.20269300  1
  O  O57  1  0.61556000  0.34908600  0.51284400  1
  O  O58  1  0.37107600  0.39125000  0.45808700  1
  O  O59  1  0.81674300  0.88478400  0.99217200  1
loop_
_geom_bond_atom_site_label_1
_geom_bond_atom_site_label_2
_geom_bond_distance
_geom_bond_site_symmetry_2
Al0 O28 1.828592 1_555
Al0 O58 1.845201 1_555
Al0 O27 1.881233 1_555
Al0 O37 1.900332 1_555
Al0 O40 2.040186 1_555
Al1 O1 1.761111 1_555
Al1 O10 1.786310 1_555
Al1 O54 1.811370 1_555
Al1 O24 1.841995 1_545
Al2 O8 1.684333 1_555
Al2 O35 1.785902 1_555
Al2 O32 1.810897 1_555
Al2 O40 1.834342 1_655
Al3 O29 1.762982 1_556
Al3 O48 1.798841 1_555
Al3 O3 1.815717 1_555
Al3 O50 1.843126 1_555
Al4 O43 1.753099 1_555
Al4 O42 1.757006 1_555
Al4 O54 1.776572 1_555
Al4 O25 1.796627 1_545
Al5 O12 1.790379 1_555
Al5 O7 1.846470 1_555
Al5 O4 1.873523 1_555
Al5 O5 1.926881 1_555
Al5 O18 2.104996 1_555
Al6 O55 1.753460 1_555
Al6 O28 1.802228 1_555
Al6 O42 1.806280 1_555
Al6 O11 1.829834 1_555
Al7 O17 1.700825 1_555
Al7 O0 1.796374 1_555
Al7 O10 1.839360 1_554
Al7 O15 1.848442 1_554
Al8 O45 1.802405 1_555
Al8 O22 1.853680 1_555
Al8 O40 1.930958 1_555
Al8 O53 1.931174 1_555
Al8 O49 1.950568 1_555
Al9 O33 1.727603 1_655
Al9 O35 1.740758 1_555
Al9 O5 1.796910 1_555
Al9 O28 1.842451 1_655
Al10 O39 1.765619 1_555
Al10 O18 1.781310 1_555
Al10 O34 1.801261 1_555
Al10 O4 1.812879 1_555
Al11 O17 1.714890 1_555
Al11 O7 1.805803 1_554
Al11 O59 1.818123 1_544
Al11 O36 1.906448 1_555
Al12 O44 1.845459 1_555
Al12 O11 1.862319 1_655
Al12 O52 1.905676 1_555
Al12 O47 1.931618 1_555
Al12 O5 1.998889 1_555
Al13 O14 1.698149 1_555
Al13 O3 1.793989 1_555
Al13 O24 1.856925 1_555
Al13 O25 1.865936 1_555
Al14 O2 1.736065 1_455
Al14 O34 1.797579 1_455
Al14 O21 1.833812 1_555
Al14 O50 1.865571 1_555
Al15 O23 1.713818 1_555
Al15 O47 1.829115 1_555
Al15 O41 1.836718 1_655
Al15 O52 1.998072 1_555
Al15 O36 2.056097 1_555
Al16 O4 1.762811 1_455
Al16 O33 1.775696 1_555
Al16 O48 1.786305 1_555
Al16 O55 1.842131 1_555
Al17 O41 1.809404 1_555
Al17 O51 1.823105 1_545
Al17 O45 1.840001 1_545
Al17 O38 1.856277 1_554
Al17 O36 1.936464 1_455
Al18 O0 1.741553 1_555
Al18 O43 1.778241 1_555
Al18 O22 1.816598 1_545
Al18 O30 1.829492 1_545
Al19 O1 1.788628 1_564
Al19 O16 1.802865 1_555
Al19 O53 1.856863 1_555
Al19 O45 1.885776 1_555
Al19 O51 1.913171 1_555
Al20 O20 1.843324 1_555
Al20 O43 1.861366 1_555
Al20 O58 1.884493 1_555
Al20 O6 1.952758 1_555
Al20 O0 2.068479 1_555
Al21 O59 1.795620 1_555
Al21 O16 1.798406 1_656
Al21 O21 1.832021 1_655
Al21 O34 1.893351 1_555
Al21 O51 1.908428 1_656
Al22 O26 1.764951 1_555
Al22 O46 1.781566 1_555
Al22 O22 1.817614 1_555
Al22 O30 1.847183 1_555
Al23 O8 1.700252 1_555
Al23 O47 1.747445 1_565
Al23 O30 1.794198 1_555
Al23 O36 1.854963 1_565
Al24 O37 1.810902 1_555
Al24 O50 1.822253 1_555
Al24 O49 1.842303 1_555
Al24 O25 1.848738 1_555
Al25 O49 1.804869 1_545
Al25 O11 1.824428 1_555
Al25 O6 1.840587 1_555
Al25 O42 1.855252 1_555
Al26 O14 1.685763 1_555
Al26 O2 1.711569 1_555
Al26 O44 1.769491 1_565
Al27 O23 1.750444 1_555
Al27 O31 1.856245 1_555
Al27 O39 1.869251 1_554
Al27 O9 1.968533 1_555
Al27 O20 2.095489 1_555
Al27 O15 2.140254 1_554
Al28 O57 1.776143 1_555
Al28 O9 1.829987 1_555
Al28 O20 1.833825 1_555
Al28 O26 1.904195 1_555
Al28 O52 2.033342 1_555
Al29 O18 1.790702 1_555
Al29 O13 1.798125 1_555
Al29 O12 1.941144 1_555
Al29 O15 1.994299 1_555
Al29 O3 1.998063 1_555
Al30 O31 1.771886 1_555
Al30 O29 1.830147 1_555
Al30 O19 1.866865 1_555
Al30 O27 1.937321 1_555
Al30 O15 2.005785 1_554
Al30 O20 2.432319 1_555
Al31 O13 1.742458 1_555
Al31 O58 1.812661 1_555
Al31 O26 1.866803 1_555
Al31 O37 1.964148 1_555
Al31 O57 2.049095 1_555
Al32 O31 1.734178 1_555
Al32 O53 1.766107 1_555
Al32 O46 1.797347 1_555
Al32 O24 1.805375 1_554
Al33 O41 1.799784 1_555
Al33 O6 1.806199 1_555
Al33 O19 1.813697 1_555
Al33 O56 1.845583 1_555
Al33 O27 2.312903 1_555
Al34 O51 1.868830 1_546
Al34 O55 1.878849 1_555
Al34 O21 1.905081 1_545
Al34 O7 1.924129 1_455
Al34 O38 1.983006 1_555
Al34 O1 2.127918 1_555
Al35 O56 1.839037 1_655
Al35 O52 1.845699 1_555
Al35 O35 1.850183 1_555
Al35 O9 1.851463 1_555
Al35 O32 1.881242 1_555
Al36 O38 1.735096 1_555
Al36 O19 1.757666 1_556
Al36 O10 1.786093 1_555
Al36 O48 1.828112 1_555
Al37 O16 1.730132 1_555
Al37 O27 1.843892 1_555
Al37 O29 1.858417 1_555
Al37 O56 1.859378 1_555
Al37 O40 2.228712 1_555
Al38 O59 1.807449 1_554
Al38 O39 1.814728 1_554
Al38 O46 1.821809 1_555
Al38 O32 1.836938 1_555
Al38 O9 1.973567 1_555
Al39 O12 1.769875 1_555
Al39 O57 1.790155 1_555
Al39 O54 1.867537 1_555
Al39 O44 1.995118 1_555
Al39 O13 2.125257 1_555
