# generated using pymatgen
data_MgGa
_symmetry_space_group_name_H-M   'P 1'
_cell_length_a   6.06109800
_cell_length_b   6.06109800
_cell_length_c   7.97593600
_cell_angle_alpha   90.00000000
_cell_angle_beta   90.00000000
_cell_angle_gamma   90.00000000
_symmetry_Int_Tables_number   1
_chemical_formula_structural   MgGa
_chemical_formula_sum   'Mg8 Ga8'
_cell_volume   293.01123475
_cell_formula_units_Z   8
loop_
 _symmetry_equiv_pos_site_id
 _symmetry_equiv_pos_as_xyz
  1  'x, y, z'
loop_
 _atom_site_type_symbol
 _atom_site_label
 _atom_site_symmetry_multiplicity
 _atom_site_fract_x
 _atom_site_fract_y
 _atom_site_fract_z
 _atom_site_occupancy
  Mg  Mg0_0  1  0.25000000  0.25000000  0.25000000  1
  Mg  Mg0_1  1  0.25000000  0.25000000  0.75000000  1
  Mg  Mg0_2  1  0.25000000  0.75000000  0.25000000  1
  Mg  Mg0_3  1  0.25000000  0.75000000  0.75000000  1
  Mg  Mg0_4  1  0.75000000  0.25000000  0.25000000  1
  Mg  Mg0_5  1  0.75000000  0.25000000  0.75000000  1
  Mg  Mg0_6  1  0.75000000  0.75000000  0.25000000  1
  Mg  Mg0_7  1  0.75000000  0.75000000  0.75000000  1
  Ga  Ga0_0  1  0.00000000  0.00000000  0.00000000  1
  Ga  Ga0_1  1  0.00000000  0.00000000  0.50000000  1
  Ga  Ga0_2  1  0.00000000  0.50000000  0.00000000  1
  Ga  Ga0_3  1  0.00000000  0.50000000  0.50000000  1
  Ga  Ga0_4  1  0.50000000  0.00000000  0.00000000  1
  Ga  Ga0_5  1  0.50000000  0.00000000  0.50000000  1
  Ga  Ga0_6  1  0.50000000  0.50000000  0.00000000  1
  Ga  Ga0_7  1  0.50000000  0.50000000  0.50000000  1
loop_
_geom_bond_atom_site_label_1
_geom_bond_atom_site_label_2
_geom_bond_distance
_geom_bond_site_symmetry_2
Mg0_0 Mg0_2 3.030549 1_555
Mg0_0 Mg0_2 3.030549 1_545
Mg0_0 Mg0_4 3.030549 1_455
Mg0_0 Mg0_4 3.030549 1_555
Mg0_1 Mg0_5 3.030549 1_455
Mg0_1 Mg0_5 3.030549 1_555
Mg0_1 Mg0_3 3.030549 1_545
Mg0_1 Mg0_3 3.030549 1_555
Mg0_2 Mg0_6 3.030549 1_455
Mg0_2 Mg0_6 3.030549 1_555
Mg0_3 Mg0_7 3.030549 1_555
Mg0_3 Mg0_7 3.030549 1_455
Mg0_4 Mg0_6 3.030549 1_545
Mg0_4 Mg0_6 3.030549 1_555
Mg0_5 Mg0_7 3.030549 1_555
Mg0_5 Mg0_7 3.030549 1_545
Ga0_0 Mg0_4 2.927129 1_455
Ga0_0 Mg0_7 2.927129 1_444
Ga0_0 Mg0_3 2.927129 1_544
Ga0_0 Mg0_5 2.927129 1_454
Ga0_0 Mg0_1 2.927129 1_554
Ga0_0 Mg0_6 2.927129 1_445
Ga0_0 Mg0_0 2.927129 1_555
Ga0_0 Mg0_2 2.927129 1_545
Ga0_0 Ga0_2 3.030549 1_555
Ga0_0 Ga0_4 3.030549 1_455
Ga0_0 Ga0_2 3.030549 1_545
Ga0_0 Ga0_4 3.030549 1_555
Ga0_1 Mg0_4 2.927129 1_455
Ga0_1 Mg0_5 2.927129 1_455
Ga0_1 Mg0_7 2.927129 1_445
Ga0_1 Mg0_1 2.927129 1_555
Ga0_1 Mg0_6 2.927129 1_445
Ga0_1 Mg0_0 2.927129 1_555
Ga0_1 Mg0_2 2.927129 1_545
Ga0_1 Mg0_3 2.927129 1_545
Ga0_1 Ga0_5 3.030549 1_555
Ga0_1 Ga0_3 3.030549 1_555
Ga0_1 Ga0_5 3.030549 1_455
Ga0_1 Ga0_3 3.030549 1_545
Ga0_2 Mg0_4 2.927129 1_455
Ga0_2 Mg0_3 2.927129 1_554
Ga0_2 Mg0_5 2.927129 1_454
Ga0_2 Mg0_2 2.927129 1_555
Ga0_2 Mg0_1 2.927129 1_554
Ga0_2 Mg0_6 2.927129 1_455
Ga0_2 Mg0_0 2.927129 1_555
Ga0_2 Mg0_7 2.927129 1_454
Ga0_2 Ga0_6 3.030549 1_455
Ga0_2 Ga0_6 3.030549 1_555
Ga0_3 Mg0_4 2.927129 1_455
Ga0_3 Mg0_3 2.927129 1_555
Ga0_3 Mg0_5 2.927129 1_455
Ga0_3 Mg0_1 2.927129 1_555
Ga0_3 Mg0_2 2.927129 1_555
Ga0_3 Mg0_6 2.927129 1_455
Ga0_3 Mg0_0 2.927129 1_555
Ga0_3 Mg0_7 2.927129 1_455
Ga0_3 Ga0_7 3.030549 1_455
Ga0_3 Ga0_7 3.030549 1_555
Ga0_4 Mg0_4 2.927129 1_555
Ga0_4 Mg0_5 2.927129 1_554
Ga0_4 Mg0_3 2.927129 1_544
Ga0_4 Mg0_6 2.927129 1_545
Ga0_4 Mg0_7 2.927129 1_544
Ga0_4 Mg0_1 2.927129 1_554
Ga0_4 Mg0_0 2.927129 1_555
Ga0_4 Mg0_2 2.927129 1_545
Ga0_4 Ga0_6 3.030549 1_545
Ga0_4 Ga0_6 3.030549 1_555
Ga0_5 Mg0_4 2.927129 1_555
Ga0_5 Mg0_6 2.927129 1_545
Ga0_5 Mg0_7 2.927129 1_545
Ga0_5 Mg0_1 2.927129 1_555
Ga0_5 Mg0_5 2.927129 1_555
Ga0_5 Mg0_3 2.927129 1_545
Ga0_5 Mg0_0 2.927129 1_555
Ga0_5 Mg0_2 2.927129 1_545
Ga0_5 Ga0_7 3.030549 1_555
Ga0_5 Ga0_7 3.030549 1_545
Ga0_6 Mg0_4 2.927129 1_555
Ga0_6 Mg0_5 2.927129 1_554
Ga0_6 Mg0_7 2.927129 1_554
Ga0_6 Mg0_3 2.927129 1_554
Ga0_6 Mg0_2 2.927129 1_555
Ga0_6 Mg0_1 2.927129 1_554
Ga0_6 Mg0_6 2.927129 1_555
Ga0_6 Mg0_0 2.927129 1_555
Ga0_7 Mg0_4 2.927129 1_555
Ga0_7 Mg0_3 2.927129 1_555
Ga0_7 Mg0_7 2.927129 1_555
Ga0_7 Mg0_1 2.927129 1_555
Ga0_7 Mg0_2 2.927129 1_555
Ga0_7 Mg0_6 2.927129 1_555
Ga0_7 Mg0_0 2.927129 1_555
Ga0_7 Mg0_5 2.927129 1_555
