# generated using pymatgen
data_PuGaRh
_symmetry_space_group_name_H-M   'P 1'
_cell_length_a   6.95619784
_cell_length_b   6.95619784
_cell_length_c   3.93817800
_cell_angle_alpha   90.00000000
_cell_angle_beta   90.00000000
_cell_angle_gamma   119.99999850
_symmetry_Int_Tables_number   1
_chemical_formula_structural   PuGaRh
_chemical_formula_sum   'Pu3 Ga3 Rh3'
_cell_volume   165.03263378
_cell_formula_units_Z   3
loop_
 _symmetry_equiv_pos_site_id
 _symmetry_equiv_pos_as_xyz
  1  'x, y, z'
loop_
 _atom_site_type_symbol
 _atom_site_label
 _atom_site_symmetry_multiplicity
 _atom_site_fract_x
 _atom_site_fract_y
 _atom_site_fract_z
 _atom_site_occupancy
  Pu  Pu0  1  0.00000000  0.41397200  0.50000000  1
  Pu  Pu1  1  0.58602800  0.58602800  0.50000000  1
  Pu  Pu2  1  0.41397200  0.00000000  0.50000000  1
  Ga  Ga0  1  0.00000000  0.75211900  0.00000000  1
  Ga  Ga1  1  0.24788100  0.24788100  0.00000000  1
  Ga  Ga2  1  0.75211900  0.00000000  0.00000000  1
  Rh  Rh0  1  0.33333300  0.66666700  0.00000000  1
  Rh  Rh1  1  0.66666700  0.33333300  0.00000000  1
  Rh  Rh2  1  0.00000000  0.00000000  0.50000000  1
loop_
_geom_bond_atom_site_label_1
_geom_bond_atom_site_label_2
_geom_bond_distance
_geom_bond_site_symmetry_2
Pu0 Rh1 2.875379 1_456
Pu0 Rh1 2.875379 1_455
Pu0 Rh0 2.875381 1_556
Pu0 Rh0 2.875381 1_555
Pu0 Rh2 2.879671 1_555
Pu1 Rh0 2.875384 1_556
Pu1 Rh0 2.875384 1_555
Pu1 Rh1 2.875384 1_555
Pu1 Rh1 2.875384 1_556
Pu1 Rh2 2.879671 1_665
Pu2 Rh0 2.875379 1_545
Pu2 Rh0 2.875379 1_546
Pu2 Rh1 2.875381 1_555
Pu2 Rh1 2.875381 1_556
Pu2 Rh2 2.879671 1_555
Ga0 Rh2 2.617356 1_564
Ga0 Rh2 2.617356 1_565
Ga0 Rh0 2.666111 1_555
Ga0 Rh1 2.666116 1_455
Ga0 Pu0 3.067611 1_555
Ga0 Pu0 3.067611 1_554
Ga0 Pu1 3.190238 1_455
Ga0 Pu1 3.190238 1_454
Ga0 Pu2 3.190238 1_565
Ga0 Pu2 3.190238 1_564
Ga1 Rh2 2.617356 1_554
Ga1 Rh2 2.617356 1_555
Ga1 Rh1 2.666118 1_555
Ga1 Rh0 2.666118 1_555
Ga1 Pu1 3.067611 1_554
Ga1 Pu1 3.067611 1_555
Ga1 Pu2 3.190238 1_554
Ga1 Pu2 3.190238 1_555
Ga1 Pu0 3.190238 1_555
Ga1 Pu0 3.190238 1_554
Ga2 Rh2 2.617356 1_654
Ga2 Rh2 2.617356 1_655
Ga2 Rh1 2.666111 1_555
Ga2 Rh0 2.666116 1_545
Ga2 Pu2 3.067611 1_554
Ga2 Pu2 3.067611 1_555
Ga2 Pu1 3.190238 1_545
Ga2 Pu1 3.190238 1_544
Ga2 Pu0 3.190238 1_655
Ga2 Pu0 3.190238 1_654
