# generated using pymatgen
data_MgTl4(NiO3)4
_symmetry_space_group_name_H-M   'P 1'
_cell_length_a   5.72781563
_cell_length_b   5.59002775
_cell_length_c   8.81385881
_cell_angle_alpha   83.86523561
_cell_angle_beta   101.96108467
_cell_angle_gamma   97.76035415
_symmetry_Int_Tables_number   1
_chemical_formula_structural   MgTl4(NiO3)4
_chemical_formula_sum   'Mg1 Tl4 Ni4 O12'
_cell_volume   272.64492835
_cell_formula_units_Z   1
loop_
 _symmetry_equiv_pos_site_id
 _symmetry_equiv_pos_as_xyz
  1  'x, y, z'
loop_
 _atom_site_type_symbol
 _atom_site_label
 _atom_site_symmetry_multiplicity
 _atom_site_fract_x
 _atom_site_fract_y
 _atom_site_fract_z
 _atom_site_occupancy
  Mg  Mg0  1  0.24924500  0.43939200  0.87431600  1
  Tl  Tl0  1  0.47200800  0.50050200  0.24284700  1
  Tl  Tl1  1  0.00354700  0.97012700  0.71346100  1
  Tl  Tl2  1  0.59659200  0.41404900  0.66005200  1
  Tl  Tl3  1  0.00483500  0.03367700  0.23349000  1
  Ni  Ni0  1  0.43777900  0.99494700  0.03030300  1
  Ni  Ni1  1  0.57100900  0.98936400  0.45196800  1
  Ni  Ni2  1  0.05114500  0.52698400  0.46002500  1
  Ni  Ni3  1  0.89013200  0.55158500  0.03000100  1
  O  O0  1  0.71694700  0.32272000  0.44306200  1
  O  O1  1  0.57984400  0.32249300  0.97893200  1
  O  O2  1  0.20436100  0.33528000  0.65269500  1
  O  O3  1  0.90657900  0.85126600  0.46134100  1
  O  O4  1  0.71865800  0.80799300  0.10451100  1
  O  O5  1  0.40284800  0.06465800  0.24572000  1
  O  O6  1  0.13459600  0.10806500  0.95269400  1
  O  O7  1  0.61296500  0.00177500  0.67181400  1
  O  O8  1  0.91700600  0.58198800  0.80417200  1
  O  O9  1  0.26255100  0.67925200  0.03257800  1
  O  O10  1  0.04213400  0.42153400  0.24719700  1
  O  O11  1  0.40021900  0.67758700  0.45881900  1
loop_
_geom_bond_atom_site_label_1
_geom_bond_atom_site_label_2
_geom_bond_distance
_geom_bond_site_symmetry_2
Mg0 O6 1.981146 1_555
Mg0 O9 2.019269 1_556
Mg0 O2 2.052985 1_555
Mg0 O1 2.084385 1_555
Mg0 O8 2.110854 1_455
Ni0 O6 1.896096 1_564
Ni0 O9 1.909064 1_555
Ni0 O1 1.947520 1_564
Ni0 O4 1.995019 1_555
Ni0 O5 2.033084 1_565
Ni1 O11 1.881404 1_555
Ni1 O5 1.905162 1_565
Ni1 O7 1.910087 1_565
Ni1 O0 1.937184 1_565
Ni1 O3 2.149054 1_555
Ni2 O2 2.012370 1_555
Ni2 O10 2.014171 1_555
Ni2 O11 2.063712 1_555
Ni2 O0 2.077978 1_455
Ni2 O3 2.094204 1_455
Ni3 O8 2.015440 1_554
Ni3 O10 2.033186 1_655
Ni3 O1 2.044081 1_554
Ni3 O4 2.073426 1_555
Ni3 O9 2.152302 1_655
O0 Tl0 2.246224 1_555
O0 Tl2 2.289940 1_555
O2 Tl2 2.219005 1_555
O2 Tl1 2.272454 1_545
O3 Tl3 2.294636 1_665
O3 Tl1 2.322122 1_655
O4 Tl3 2.132245 1_665
O4 Tl0 2.459132 1_555
O5 Tl3 2.243737 1_555
O5 Tl0 2.413263 1_555
O6 Tl1 2.266982 1_545
O6 Tl3 2.703601 1_556
O7 Tl1 2.218928 1_645
O7 Tl2 2.309568 1_555
O8 Tl2 2.164803 1_555
O8 Tl1 2.257347 1_655
O9 Tl0 2.208797 1_555
O10 Tl3 2.163614 1_555
O10 Tl0 2.449680 1_555
O11 Tl0 2.368460 1_555
O11 Tl2 2.375572 1_555
