# generated using pymatgen
data_RuPt
_symmetry_space_group_name_H-M   'P 1'
_cell_length_a   5.49265600
_cell_length_b   5.49265600
_cell_length_c   7.82974800
_cell_angle_alpha   90.00000000
_cell_angle_beta   90.00000000
_cell_angle_gamma   90.00000000
_symmetry_Int_Tables_number   1
_chemical_formula_structural   RuPt
_chemical_formula_sum   'Ru8 Pt8'
_cell_volume   236.21778093
_cell_formula_units_Z   8
loop_
 _symmetry_equiv_pos_site_id
 _symmetry_equiv_pos_as_xyz
  1  'x, y, z'
loop_
 _atom_site_type_symbol
 _atom_site_label
 _atom_site_symmetry_multiplicity
 _atom_site_fract_x
 _atom_site_fract_y
 _atom_site_fract_z
 _atom_site_occupancy
  Ru  Ru0_0  1  0.00000000  0.00000000  0.00000000  1
  Ru  Ru0_1  1  0.00000000  0.00000000  0.50000000  1
  Ru  Ru0_2  1  0.00000000  0.50000000  0.00000000  1
  Ru  Ru0_3  1  0.00000000  0.50000000  0.50000000  1
  Ru  Ru0_4  1  0.50000000  0.00000000  0.00000000  1
  Ru  Ru0_5  1  0.50000000  0.00000000  0.50000000  1
  Ru  Ru0_6  1  0.50000000  0.50000000  0.00000000  1
  Ru  Ru0_7  1  0.50000000  0.50000000  0.50000000  1
  Pt  Pt0_0  1  0.25000000  0.25000000  0.25000000  1
  Pt  Pt0_1  1  0.25000000  0.25000000  0.75000000  1
  Pt  Pt0_2  1  0.25000000  0.75000000  0.25000000  1
  Pt  Pt0_3  1  0.25000000  0.75000000  0.75000000  1
  Pt  Pt0_4  1  0.75000000  0.25000000  0.25000000  1
  Pt  Pt0_5  1  0.75000000  0.25000000  0.75000000  1
  Pt  Pt0_6  1  0.75000000  0.75000000  0.25000000  1
  Pt  Pt0_7  1  0.75000000  0.75000000  0.75000000  1
loop_
_geom_bond_atom_site_label_1
_geom_bond_atom_site_label_2
_geom_bond_distance
_geom_bond_site_symmetry_2
Ru0_0 Ru0_2 2.746328 1_555
Ru0_0 Ru0_4 2.746328 1_555
Ru0_0 Ru0_4 2.746328 1_455
Ru0_0 Ru0_2 2.746328 1_545
Ru0_1 Ru0_5 2.746328 1_555
Ru0_1 Ru0_3 2.746328 1_555
Ru0_1 Ru0_3 2.746328 1_545
Ru0_1 Ru0_5 2.746328 1_455
Ru0_2 Ru0_6 2.746328 1_555
Ru0_2 Ru0_6 2.746328 1_455
Ru0_3 Ru0_7 2.746328 1_555
Ru0_3 Ru0_7 2.746328 1_455
Ru0_4 Ru0_6 2.746328 1_555
Ru0_4 Ru0_6 2.746328 1_545
Ru0_5 Ru0_7 2.746328 1_555
Ru0_5 Ru0_7 2.746328 1_545
Pt0_0 Pt0_2 2.746328 1_555
Pt0_0 Pt0_4 2.746328 1_455
Pt0_0 Pt0_2 2.746328 1_545
Pt0_0 Pt0_4 2.746328 1_555
Pt0_0 Ru0_1 2.757303 1_555
Pt0_0 Ru0_7 2.757303 1_555
Pt0_0 Ru0_2 2.757303 1_555
Pt0_0 Ru0_4 2.757303 1_555
Pt0_0 Ru0_5 2.757303 1_555
Pt0_0 Ru0_6 2.757303 1_555
Pt0_0 Ru0_3 2.757303 1_555
Pt0_0 Ru0_0 2.757303 1_555
Pt0_1 Pt0_3 2.746328 1_545
Pt0_1 Pt0_3 2.746328 1_555
Pt0_1 Pt0_5 2.746328 1_555
Pt0_1 Pt0_5 2.746328 1_455
Pt0_1 Ru0_3 2.757303 1_555
Pt0_1 Ru0_7 2.757303 1_555
Pt0_1 Ru0_1 2.757303 1_555
Pt0_1 Ru0_5 2.757303 1_555
Pt0_1 Ru0_4 2.757303 1_556
Pt0_1 Ru0_2 2.757303 1_556
Pt0_1 Ru0_6 2.757303 1_556
Pt0_1 Ru0_0 2.757303 1_556
Pt0_2 Pt0_6 2.746328 1_555
Pt0_2 Pt0_6 2.746328 1_455
Pt0_2 Ru0_7 2.757303 1_555
Pt0_2 Ru0_5 2.757303 1_565
Pt0_2 Ru0_2 2.757303 1_555
Pt0_2 Ru0_6 2.757303 1_555
Pt0_2 Ru0_0 2.757303 1_565
Pt0_2 Ru0_1 2.757303 1_565
Pt0_2 Ru0_3 2.757303 1_555
Pt0_2 Ru0_4 2.757303 1_565
Pt0_3 Pt0_7 2.746328 1_555
Pt0_3 Pt0_7 2.746328 1_455
Pt0_3 Ru0_1 2.757303 1_565
Pt0_3 Ru0_5 2.757303 1_565
Pt0_3 Ru0_3 2.757303 1_555
Pt0_3 Ru0_7 2.757303 1_555
Pt0_3 Ru0_0 2.757303 1_566
Pt0_3 Ru0_4 2.757303 1_566
Pt0_3 Ru0_2 2.757303 1_556
Pt0_3 Ru0_6 2.757303 1_556
Pt0_4 Pt0_6 2.746328 1_545
Pt0_4 Pt0_6 2.746328 1_555
Pt0_4 Ru0_3 2.757303 1_655
Pt0_4 Ru0_7 2.757303 1_555
Pt0_4 Ru0_1 2.757303 1_655
Pt0_4 Ru0_5 2.757303 1_555
Pt0_4 Ru0_2 2.757303 1_655
Pt0_4 Ru0_0 2.757303 1_655
Pt0_4 Ru0_6 2.757303 1_555
Pt0_4 Ru0_4 2.757303 1_555
Pt0_5 Pt0_7 2.746328 1_545
Pt0_5 Pt0_7 2.746328 1_555
Pt0_5 Ru0_3 2.757303 1_655
Pt0_5 Ru0_7 2.757303 1_555
Pt0_5 Ru0_1 2.757303 1_655
Pt0_5 Ru0_5 2.757303 1_555
Pt0_5 Ru0_0 2.757303 1_656
Pt0_5 Ru0_4 2.757303 1_556
Pt0_5 Ru0_6 2.757303 1_556
Pt0_5 Ru0_2 2.757303 1_656
Pt0_6 Ru0_1 2.757303 1_665
Pt0_6 Ru0_3 2.757303 1_655
Pt0_6 Ru0_5 2.757303 1_565
Pt0_6 Ru0_2 2.757303 1_655
Pt0_6 Ru0_0 2.757303 1_665
Pt0_6 Ru0_4 2.757303 1_565
Pt0_6 Ru0_7 2.757303 1_555
Pt0_6 Ru0_6 2.757303 1_555
Pt0_7 Ru0_1 2.757303 1_665
Pt0_7 Ru0_3 2.757303 1_655
Pt0_7 Ru0_7 2.757303 1_555
Pt0_7 Ru0_5 2.757303 1_565
Pt0_7 Ru0_0 2.757303 1_666
Pt0_7 Ru0_4 2.757303 1_566
Pt0_7 Ru0_2 2.757303 1_656
Pt0_7 Ru0_6 2.757303 1_556
