# generated using pymatgen
data_Ho9Sb5CO4
_symmetry_space_group_name_H-M   'P 1'
_cell_length_a   9.89769900
_cell_length_b   9.89769900
_cell_length_c   8.95070200
_cell_angle_alpha   90.00000000
_cell_angle_beta   90.00000000
_cell_angle_gamma   90.00000000
_symmetry_Int_Tables_number   1
_chemical_formula_structural   Ho9Sb5CO4
_chemical_formula_sum   'Ho18 Sb10 C2 O8'
_cell_volume   876.85055822
_cell_formula_units_Z   2
loop_
 _symmetry_equiv_pos_site_id
 _symmetry_equiv_pos_as_xyz
  1  'x, y, z'
loop_
 _atom_site_type_symbol
 _atom_site_label
 _atom_site_symmetry_multiplicity
 _atom_site_fract_x
 _atom_site_fract_y
 _atom_site_fract_z
 _atom_site_occupancy
  Ho  Ho0  1  0.50000000  0.00000000  0.31352300  1
  Ho  Ho1  1  0.00000000  0.50000000  0.68647700  1
  Ho  Ho2  1  0.60476800  0.29552800  0.66278600  1
  Ho  Ho3  1  0.39523200  0.70447200  0.66278600  1
  Ho  Ho4  1  0.20447200  0.10476800  0.66278600  1
  Ho  Ho5  1  0.79552800  0.89523200  0.66278600  1
  Ho  Ho6  1  0.89523200  0.20447200  0.33721400  1
  Ho  Ho7  1  0.10476800  0.79552800  0.33721400  1
  Ho  Ho8  1  0.29552800  0.39523200  0.33721400  1
  Ho  Ho9  1  0.70447200  0.60476800  0.33721400  1
  Ho  Ho10  1  0.41957600  0.22420000  0.99727500  1
  Ho  Ho11  1  0.58042400  0.77580000  0.99727500  1
  Ho  Ho12  1  0.27580000  0.91957600  0.99727500  1
  Ho  Ho13  1  0.72420000  0.08042400  0.99727500  1
  Ho  Ho14  1  0.08042400  0.27580000  0.00272500  1
  Ho  Ho15  1  0.91957600  0.72420000  0.00272500  1
  Ho  Ho16  1  0.22420000  0.58042400  0.00272500  1
  Ho  Ho17  1  0.77580000  0.41957600  0.00272500  1
  Sb  Sb0  1  0.50000000  0.00000000  0.67431900  1
  Sb  Sb1  1  0.00000000  0.50000000  0.32568100  1
  Sb  Sb2  1  0.59727700  0.30711800  0.30822500  1
  Sb  Sb3  1  0.40272300  0.69288200  0.30822500  1
  Sb  Sb4  1  0.19288200  0.09727700  0.30822500  1
  Sb  Sb5  1  0.80711800  0.90272300  0.30822500  1
  Sb  Sb6  1  0.90272300  0.19288200  0.69177500  1
  Sb  Sb7  1  0.09727700  0.80711800  0.69177500  1
  Sb  Sb8  1  0.30711800  0.40272300  0.69177500  1
  Sb  Sb9  1  0.69288200  0.59727700  0.69177500  1
  C  C0  1  0.50000000  0.00000000  0.06064400  1
  C  C1  1  0.00000000  0.50000000  0.93935600  1
  O  O0  1  0.62124100  0.27411700  0.90785800  1
  O  O1  1  0.37875900  0.72588300  0.90785800  1
  O  O2  1  0.22588300  0.12124100  0.90785800  1
  O  O3  1  0.77411700  0.87875900  0.90785800  1
  O  O4  1  0.87875900  0.22588300  0.09214200  1
  O  O5  1  0.12124100  0.77411700  0.09214200  1
  O  O6  1  0.27411700  0.37875900  0.09214200  1
  O  O7  1  0.72588300  0.62124100  0.09214200  1
loop_
_geom_bond_atom_site_label_1
_geom_bond_atom_site_label_2
_geom_bond_distance
_geom_bond_site_symmetry_2
Ho0 Sb5 3.188953 1_545
Ho0 Sb4 3.188953 1_555
Ho0 Sb3 3.188953 1_545
Ho0 Sb2 3.188953 1_555
Ho0 Sb0 3.229377 1_555
Ho1 Sb9 3.188953 1_455
Ho1 Sb7 3.188953 1_555
Ho1 Sb8 3.188953 1_555
Ho1 Sb6 3.188953 1_455
Ho1 Sb1 3.229377 1_555
Ho2 O0 2.209803 1_555
Ho2 Sb0 3.105132 1_555
Ho2 Sb9 3.122152 1_555
Ho2 Sb6 3.129937 1_555
Ho2 Sb8 3.142009 1_555
Ho2 Sb2 3.176508 1_555
Ho3 O1 2.209803 1_555
Ho3 Sb0 3.105132 1_565
Ho3 Sb8 3.122152 1_555
Ho3 Sb7 3.129937 1_555
Ho3 Sb9 3.142009 1_555
Ho3 Sb3 3.176508 1_555
Ho4 O2 2.209803 1_555
Ho4 Sb0 3.105132 1_555
Ho4 Sb6 3.122152 1_455
Ho4 Sb8 3.129937 1_555
Ho4 Sb7 3.142009 1_545
Ho4 Sb4 3.176508 1_555
Ho5 O3 2.209803 1_555
Ho5 Sb0 3.105132 1_565
Ho5 Sb7 3.122152 1_655
Ho5 Sb9 3.129937 1_555
Ho5 Sb6 3.142009 1_565
Ho5 Sb5 3.176508 1_555
Ho6 O4 2.209803 1_555
Ho6 Sb1 3.105132 1_655
Ho6 Sb5 3.122152 1_545
Ho6 Sb2 3.129937 1_555
Ho6 Sb4 3.142009 1_655
Ho6 Sb6 3.176508 1_555
Ho7 O5 2.209803 1_555
Ho7 Sb1 3.105132 1_555
Ho7 Sb4 3.122152 1_565
Ho7 Sb3 3.129937 1_555
Ho7 Sb5 3.142009 1_455
Ho7 Sb7 3.176508 1_555
Ho8 O6 2.209803 1_555
Ho8 Sb1 3.105132 1_555
Ho8 Sb2 3.122152 1_555
Ho8 Sb4 3.129937 1_555
Ho8 Sb3 3.142009 1_555
Ho8 Sb8 3.176508 1_555
Ho9 O7 2.209803 1_555
Ho9 Sb1 3.105132 1_655
Ho9 Sb3 3.122152 1_555
Ho9 Sb5 3.129937 1_555
Ho9 Sb2 3.142009 1_555
Ho9 Sb9 3.176508 1_555
Ho10 O0 2.206523 1_555
Ho10 O6 2.265833 1_556
Ho10 O2 2.313949 1_555
Ho10 Sb2 3.393133 1_556
Ho10 Sb8 3.440678 1_555
Ho11 O1 2.206523 1_555
Ho11 O7 2.265833 1_556
Ho11 O3 2.313949 1_555
Ho11 Sb3 3.393133 1_556
Ho11 Sb9 3.440678 1_555
Ho12 O2 2.206523 1_565
Ho12 O5 2.265833 1_556
Ho12 O1 2.313949 1_555
Ho12 Sb4 3.393133 1_566
Ho12 Sb7 3.440678 1_555
Ho13 O3 2.206523 1_545
Ho13 O4 2.265833 1_556
Ho13 O0 2.313949 1_555
Ho13 Sb5 3.393133 1_546
Ho13 Sb6 3.440678 1_555
Ho14 O4 2.206523 1_455
Ho14 O2 2.265833 1_554
Ho14 O6 2.313949 1_555
Ho14 Sb6 3.393133 1_454
Ho14 Sb4 3.440678 1_555
Ho15 O5 2.206523 1_655
Ho15 O3 2.265833 1_554
Ho15 O7 2.313949 1_555
Ho15 Sb7 3.393133 1_654
Ho15 Sb5 3.440678 1_555
Ho16 O6 2.206523 1_555
Ho16 O1 2.265833 1_554
Ho16 O5 2.313949 1_555
Ho16 Sb8 3.393133 1_554
Ho16 Sb3 3.440678 1_555
Ho17 O7 2.206523 1_555
Ho17 O0 2.265833 1_554
Ho17 O4 2.313949 1_555
Ho17 Sb9 3.393133 1_554
Ho17 Sb2 3.440678 1_555
C0 Ho0 2.263445 1_555
C0 Ho13 2.424787 1_554
C0 Ho11 2.424787 1_544
C0 Ho10 2.424787 1_554
C0 Ho12 2.424787 1_544
C1 Ho1 2.263445 1_555
C1 Ho17 2.424787 1_456
C1 Ho15 2.424787 1_456
C1 Ho16 2.424787 1_556
C1 Ho14 2.424787 1_556
