# generated using pymatgen
data_MnC3NCl3
_symmetry_space_group_name_H-M   'P 1'
_cell_length_a   5.91302700
_cell_length_b   8.56621800
_cell_length_c   14.94036600
_cell_angle_alpha   90.00000000
_cell_angle_beta   90.00000000
_cell_angle_gamma   90.00000000
_symmetry_Int_Tables_number   1
_chemical_formula_structural   MnC3NCl3
_chemical_formula_sum   'Mn4 C12 N4 Cl12'
_cell_volume   756.76357686
_cell_formula_units_Z   4
loop_
 _symmetry_equiv_pos_site_id
 _symmetry_equiv_pos_as_xyz
  1  'x, y, z'
loop_
 _atom_site_type_symbol
 _atom_site_label
 _atom_site_symmetry_multiplicity
 _atom_site_fract_x
 _atom_site_fract_y
 _atom_site_fract_z
 _atom_site_occupancy
  Mn  Mn0  1  0.00000000  0.50000000  0.50000000  1
  Mn  Mn1  1  0.50000000  0.00000000  0.00000000  1
  Mn  Mn2  1  0.50000000  0.50000000  0.50000000  1
  Mn  Mn3  1  0.00000000  0.00000000  0.00000000  1
  C  C0  1  0.36244500  0.04445800  0.37366400  1
  C  C1  1  0.13755500  0.45554200  0.87366400  1
  C  C2  1  0.86244500  0.95554200  0.62633600  1
  C  C3  1  0.63755500  0.54445800  0.12633600  1
  C  C4  1  0.63755500  0.95554200  0.62633600  1
  C  C5  1  0.86244500  0.54445800  0.12633600  1
  C  C6  1  0.13755500  0.04445800  0.37366400  1
  C  C7  1  0.36244500  0.45554200  0.87366400  1
  C  C8  1  0.25000000  0.81032400  0.25950400  1
  C  C9  1  0.25000000  0.68967600  0.75950400  1
  C  C10  1  0.75000000  0.18967600  0.74049600  1
  C  C11  1  0.75000000  0.31032400  0.24049600  1
  N  N0  1  0.25000000  0.91737600  0.31190600  1
  N  N1  1  0.25000000  0.58262400  0.81190600  1
  N  N2  1  0.75000000  0.08262400  0.68809400  1
  N  N3  1  0.75000000  0.41737600  0.18809400  1
  Cl  Cl0  1  0.75000000  0.64665700  0.40865900  1
  Cl  Cl1  1  0.75000000  0.85334300  0.90865900  1
  Cl  Cl2  1  0.25000000  0.35334300  0.59134100  1
  Cl  Cl3  1  0.25000000  0.14665700  0.09134100  1
  Cl  Cl4  1  0.75000000  0.56595100  0.61937800  1
  Cl  Cl5  1  0.75000000  0.93404900  0.11937800  1
  Cl  Cl6  1  0.25000000  0.43404900  0.38062200  1
  Cl  Cl7  1  0.25000000  0.06595100  0.88062200  1
  Cl  Cl8  1  0.75000000  0.28904100  0.47346800  1
  Cl  Cl9  1  0.75000000  0.21095900  0.97346800  1
  Cl  Cl10  1  0.25000000  0.71095900  0.52653200  1
  Cl  Cl11  1  0.25000000  0.78904100  0.02653200  1
loop_
_geom_bond_atom_site_label_1
_geom_bond_atom_site_label_2
_geom_bond_distance
_geom_bond_site_symmetry_2
C0 C6 1.329781 1_555
C0 N0 1.574327 1_545
C1 C7 1.329781 1_555
C1 N1 1.574327 1_555
C2 C4 1.329781 1_555
C2 N2 1.574327 1_565
C3 C5 1.329781 1_555
C3 N3 1.574327 1_555
C4 N2 1.574327 1_565
C5 N3 1.574327 1_555
C6 N0 1.574327 1_545
C7 N1 1.574327 1_555
C8 N0 1.205772 1_555
C9 N1 1.205772 1_555
C10 N2 1.205772 1_555
C11 N3 1.205772 1_555
Cl0 Mn2 2.371886 1_555
Cl0 Mn0 2.371886 1_655
Cl1 Mn3 2.371886 1_666
Cl1 Mn1 2.371886 1_566
Cl2 Mn0 2.371886 1_555
Cl2 Mn2 2.371886 1_555
Cl3 Mn1 2.371886 1_555
Cl3 Mn3 2.371886 1_555
Cl4 Mn2 2.384422 1_555
Cl4 Mn0 2.384422 1_655
Cl5 Mn3 2.384422 1_665
Cl5 Mn1 2.384422 1_565
Cl6 Mn0 2.384422 1_555
Cl6 Mn2 2.384422 1_555
Cl7 Mn1 2.384422 1_556
Cl7 Mn3 2.384422 1_556
Cl8 Mn0 2.368134 1_655
Cl8 Mn2 2.368134 1_555
Cl9 Mn1 2.368134 1_556
Cl9 Mn3 2.368134 1_656
Cl10 Mn0 2.368134 1_555
Cl10 Mn2 2.368134 1_555
Cl11 Mn1 2.368134 1_565
Cl11 Mn3 2.368134 1_565
