# generated using pymatgen
data_La2C3O17
_symmetry_space_group_name_H-M   'P 1'
_cell_length_a   8.60389700
_cell_length_b   9.81075700
_cell_length_c   17.89036500
_cell_angle_alpha   90.00000000
_cell_angle_beta   90.00000000
_cell_angle_gamma   90.00000000
_symmetry_Int_Tables_number   1
_chemical_formula_structural   La2C3O17
_chemical_formula_sum   'La8 C12 O68'
_cell_volume   1510.13899718
_cell_formula_units_Z   4
loop_
 _symmetry_equiv_pos_site_id
 _symmetry_equiv_pos_as_xyz
  1  'x, y, z'
loop_
 _atom_site_type_symbol
 _atom_site_label
 _atom_site_symmetry_multiplicity
 _atom_site_fract_x
 _atom_site_fract_y
 _atom_site_fract_z
 _atom_site_occupancy
  La  La0  1  0.25000000  0.25000000  0.76406500  1
  La  La1  1  0.75000000  0.75000000  0.73593500  1
  La  La2  1  0.75000000  0.75000000  0.23593500  1
  La  La3  1  0.25000000  0.25000000  0.26406500  1
  La  La4  1  0.25000000  0.75000000  0.80209600  1
  La  La5  1  0.75000000  0.25000000  0.69790400  1
  La  La6  1  0.75000000  0.25000000  0.19790400  1
  La  La7  1  0.25000000  0.75000000  0.30209600  1
  C  C0  1  0.25000000  0.75000000  0.62234900  1
  C  C1  1  0.75000000  0.25000000  0.87765100  1
  C  C2  1  0.75000000  0.25000000  0.37765100  1
  C  C3  1  0.25000000  0.75000000  0.12234900  1
  C  C4  1  0.45208000  0.00233400  0.77660800  1
  C  C5  1  0.04792000  0.49766600  0.77660800  1
  C  C6  1  0.95208000  0.99766600  0.72339200  1
  C  C7  1  0.54792000  0.50233400  0.72339200  1
  C  C8  1  0.54792000  0.99766600  0.22339200  1
  C  C9  1  0.95208000  0.50233400  0.22339200  1
  C  C10  1  0.04792000  0.00233400  0.27660800  1
  C  C11  1  0.45208000  0.49766600  0.27660800  1
  O  O0  1  0.26609600  0.10174300  0.57332300  1
  O  O1  1  0.23390400  0.39825700  0.57332300  1
  O  O2  1  0.76609600  0.89825700  0.92667700  1
  O  O3  1  0.73390400  0.60174300  0.92667700  1
  O  O4  1  0.73390400  0.89825700  0.42667700  1
  O  O5  1  0.76609600  0.60174300  0.42667700  1
  O  O6  1  0.23390400  0.10174300  0.07332300  1
  O  O7  1  0.26609600  0.39825700  0.07332300  1
  O  O8  1  0.17285700  0.23913200  0.89127400  1
  O  O9  1  0.32714300  0.26086800  0.89127400  1
  O  O10  1  0.67285700  0.76086800  0.60872600  1
  O  O11  1  0.82714300  0.73913200  0.60872600  1
  O  O12  1  0.82714300  0.76086800  0.10872600  1
  O  O13  1  0.67285700  0.73913200  0.10872600  1
  O  O14  1  0.32714300  0.23913200  0.39127400  1
  O  O15  1  0.17285700  0.26086800  0.39127400  1
  O  O16  1  0.14431600  0.81924700  0.92499400  1
  O  O17  1  0.35568400  0.68075300  0.92499400  1
  O  O18  1  0.64431600  0.18075300  0.57500600  1
  O  O19  1  0.85568400  0.31924700  0.57500600  1
  O  O20  1  0.85568400  0.18075300  0.07500600  1
  O  O21  1  0.64431600  0.31924700  0.07500600  1
  O  O22  1  0.35568400  0.81924700  0.42499400  1
  O  O23  1  0.14431600  0.68075300  0.42499400  1
  O  O24  1  0.34780500  0.06184900  0.03752300  1
  O  O25  1  0.15219500  0.43815100  0.03752300  1
  O  O26  1  0.84780500  0.93815100  0.46247700  1
  O  O27  1  0.65219500  0.56184900  0.46247700  1
  O  O28  1  0.65219500  0.93815100  0.96247700  1
  O  O29  1  0.84780500  0.56184900  0.96247700  1
  O  O30  1  0.15219500  0.06184900  0.53752300  1
  O  O31  1  0.34780500  0.43815100  0.53752300  1
  O  O32  1  0.33989600  0.84029300  0.62509200  1
  O  O33  1  0.16010400  0.65970700  0.62509200  1
  O  O34  1  0.83989600  0.15970700  0.87490800  1
  O  O35  1  0.66010400  0.34029300  0.87490800  1
  O  O36  1  0.66010400  0.15970700  0.37490800  1
  O  O37  1  0.83989600  0.34029300  0.37490800  1
  O  O38  1  0.16010400  0.84029300  0.12509200  1
  O  O39  1  0.33989600  0.65970700  0.12509200  1
  O  O40  1  0.25000000  0.75000000  0.46776800  1
  O  O41  1  0.75000000  0.25000000  0.03223200  1
  O  O42  1  0.75000000  0.25000000  0.53223200  1
  O  O43  1  0.25000000  0.75000000  0.96776800  1
  O  O44  1  0.02300000  0.11209600  0.71345100  1
  O  O45  1  0.47700000  0.38790400  0.71345100  1
  O  O46  1  0.52300000  0.88790400  0.78654900  1
  O  O47  1  0.97700000  0.61209600  0.78654900  1
  O  O48  1  0.97700000  0.88790400  0.28654900  1
  O  O49  1  0.52300000  0.61209600  0.28654900  1
  O  O50  1  0.47700000  0.11209600  0.21345100  1
  O  O51  1  0.02300000  0.38790400  0.21345100  1
  O  O52  1  0.01588200  0.88404800  0.74388200  1
  O  O53  1  0.48411800  0.61595200  0.74388200  1
  O  O54  1  0.51588200  0.11595200  0.75611800  1
  O  O55  1  0.98411800  0.38404800  0.75611800  1
  O  O56  1  0.98411800  0.11595200  0.25611800  1
  O  O57  1  0.51588200  0.38404800  0.25611800  1
  O  O58  1  0.48411800  0.88404800  0.24388200  1
  O  O59  1  0.01588200  0.61595200  0.24388200  1
  O  O60  1  0.30147100  0.00207300  0.78754500  1
  O  O61  1  0.19852900  0.49792700  0.78754500  1
  O  O62  1  0.80147100  0.99792700  0.71245500  1
  O  O63  1  0.69852900  0.50207300  0.71245500  1
  O  O64  1  0.69852900  0.99792700  0.21245500  1
  O  O65  1  0.80147100  0.50207300  0.21245500  1
  O  O66  1  0.19852900  0.00207300  0.28754500  1
  O  O67  1  0.30147100  0.49792700  0.28754500  1
loop_
_geom_bond_atom_site_label_1
_geom_bond_atom_site_label_2
_geom_bond_distance
_geom_bond_site_symmetry_2
La0 O9 2.373024 1_555
La0 O8 2.373024 1_555
La0 O61 2.507769 1_555
La0 O60 2.507769 1_555
La0 O45 2.542622 1_555
La0 O44 2.542622 1_555
La0 O54 2.642526 1_555
La0 O55 2.642526 1_455
La1 O11 2.373024 1_555
La1 O10 2.373024 1_555
La1 O62 2.507769 1_555
La1 O63 2.507769 1_555
La1 O46 2.542622 1_555
La1 O47 2.542622 1_555
La1 O52 2.642526 1_655
La1 O53 2.642526 1_555
La2 O12 2.373024 1_555
La2 O13 2.373024 1_555
La2 O65 2.507769 1_555
La2 O64 2.507769 1_555
La2 O48 2.542622 1_555
La2 O49 2.542622 1_555
La2 O58 2.642526 1_555
La2 O59 2.642526 1_655
La3 O14 2.373024 1_555
La3 O15 2.373024 1_555
La3 O67 2.507769 1_555
La3 O66 2.507769 1_555
La3 O51 2.542622 1_555
La3 O50 2.542622 1_555
La3 O57 2.642526 1_555
La3 O56 2.642526 1_455
La4 O16 2.474387 1_555
La4 O17 2.474387 1_555
La4 O60 2.525816 1_565
La4 O61 2.525816 1_555
La4 O52 2.621392 1_555
La4 O53 2.621392 1_555
La4 O46 2.724881 1_555
La4 O47 2.724881 1_455
La5 O18 2.474387 1_555
La5 O19 2.474387 1_555
La5 O62 2.525816 1_545
La5 O63 2.525816 1_555
La5 O55 2.621392 1_555
La5 O54 2.621392 1_555
La5 O45 2.724881 1_555
La5 O44 2.724881 1_655
La6 O21 2.474387 1_555
La6 O20 2.474387 1_555
La6 O65 2.525816 1_555
La6 O64 2.525816 1_545
La6 O56 2.621392 1_555
La6 O57 2.621392 1_555
La6 O51 2.724881 1_655
La6 O50 2.724881 1_555
La7 O22 2.474387 1_555
La7 O23 2.474387 1_555
La7 O66 2.525816 1_565
La7 O67 2.525816 1_555
La7 O58 2.621392 1_555
La7 O59 2.621392 1_555
La7 O48 2.724881 1_455
La7 O49 2.724881 1_555
C0 O32 1.177013 1_555
C0 O33 1.177013 1_555
C1 O35 1.177013 1_555
C1 O34 1.177013 1_555
C2 O36 1.177013 1_555
C2 O37 1.177013 1_555
C3 O38 1.177013 1_555
C3 O39 1.177013 1_555
C4 O46 1.290074 1_545
C4 O54 1.295464 1_555
C4 O60 1.310516 1_555
C5 O47 1.290074 1_455
C5 O55 1.295464 1_455
C5 O61 1.310516 1_555
C6 O44 1.290074 1_665
C6 O52 1.295464 1_655
C6 O62 1.310516 1_555
C7 O45 1.290074 1_555
C7 O53 1.295464 1_555
C7 O63 1.310516 1_555
C8 O50 1.290074 1_565
C8 O58 1.295464 1_555
C8 O64 1.310516 1_555
C9 O51 1.290074 1_655
C9 O59 1.295464 1_655
C9 O65 1.310516 1_555
C10 O48 1.290074 1_445
C10 O56 1.295464 1_455
C10 O66 1.310516 1_555
C11 O49 1.290074 1_555
C11 O57 1.295464 1_555
C11 O67 1.310516 1_555
O0 O30 1.234415 1_555
O1 O31 1.234415 1_555
O2 O28 1.234415 1_555
O8 O9 1.344480 1_555
O10 O11 1.344480 1_555
O12 O13 1.344480 1_555
O14 O15 1.344480 1_555
O16 O43 1.368923 1_555
O17 O43 1.368923 1_555
O18 O42 1.368923 1_555
O19 O42 1.368923 1_555
O20 O41 1.368923 1_555
O21 O41 1.368923 1_555
O22 O40 1.368923 1_555
O23 O40 1.368923 1_555
O24 O6 1.234415 1_555
O25 O7 1.234415 1_555
O26 O4 1.234415 1_555
O27 O5 1.234415 1_555
O29 O3 1.234415 1_555
