# generated using pymatgen
data_KBaMg14
_symmetry_space_group_name_H-M   'P 1'
_cell_length_a   6.78182521
_cell_length_b   6.61044565
_cell_length_c   10.91554059
_cell_angle_alpha   90.00000000
_cell_angle_beta   90.00000000
_cell_angle_gamma   119.16752952
_symmetry_Int_Tables_number   1
_chemical_formula_structural   KBaMg14
_chemical_formula_sum   'K1 Ba1 Mg14'
_cell_volume   427.30258419
_cell_formula_units_Z   1
loop_
 _symmetry_equiv_pos_site_id
 _symmetry_equiv_pos_as_xyz
  1  'x, y, z'
loop_
 _atom_site_type_symbol
 _atom_site_label
 _atom_site_symmetry_multiplicity
 _atom_site_fract_x
 _atom_site_fract_y
 _atom_site_fract_z
 _atom_site_occupancy
  K  K0  1  0.16976132  0.33488016  0.12500000  1
  Ba  Ba0  1  0.16753624  0.83376762  0.12500000  1
  Mg  Mg0  1  0.16197249  0.33098575  0.62500000  1
  Mg  Mg1  1  0.16174538  0.83087219  0.62500000  1
  Mg  Mg2  1  0.66496962  0.33539590  0.12500000  1
  Mg  Mg3  1  0.66909307  0.33435782  0.62500000  1
  Mg  Mg4  1  0.66496962  0.82957273  0.12500000  1
  Mg  Mg5  1  0.66909307  0.83473425  0.62500000  1
  Mg  Mg6  1  0.34494355  0.17384914  0.39997003  1
  Mg  Mg7  1  0.34494355  0.17384914  0.85002997  1
  Mg  Mg8  1  0.34494355  0.67109541  0.39997003  1
  Mg  Mg9  1  0.34494355  0.67109541  0.85002997  1
  Mg  Mg10  1  0.82401245  0.16200672  0.38270827  1
  Mg  Mg11  1  0.82401245  0.16200672  0.86729173  1
  Mg  Mg12  1  0.82153003  0.66076552  0.38618383  1
  Mg  Mg13  1  0.82153003  0.66076552  0.86381617  1
loop_
_geom_bond_atom_site_label_1
_geom_bond_atom_site_label_2
_geom_bond_distance
_geom_bond_site_symmetry_2
K0 Mg4 3.356756 1_555
K0 Mg2 3.356756 1_555
K0 Mg4 3.425072 1_445
K0 Mg2 3.425072 1_455
K0 Mg11 3.479267 1_454
K0 Mg10 3.479267 1_455
K0 Mg7 3.575752 1_554
K0 Mg6 3.575752 1_555
K0 Mg9 3.575758 1_554
K0 Mg8 3.575758 1_555
Ba0 K0 3.305249 1_565
Ba0 K0 3.305249 1_555
Ba0 Mg2 3.387107 1_565
Ba0 Mg4 3.387107 1_555
Ba0 Mg2 3.394890 1_455
Ba0 Mg4 3.394891 1_455
Ba0 Mg12 3.510900 1_455
Ba0 Mg13 3.510900 1_454
Ba0 Mg9 3.587991 1_554
Ba0 Mg8 3.587991 1_555
Ba0 Mg7 3.587997 1_564
Ba0 Mg6 3.587997 1_565
Mg0 Mg6 3.147804 1_555
Mg0 Mg7 3.147804 1_555
Mg0 Mg8 3.147811 1_555
Mg0 Mg9 3.147811 1_555
Mg0 Mg1 3.305223 1_555
Mg0 Mg1 3.305223 1_545
Mg0 Mg10 3.316642 1_455
Mg0 Mg11 3.316642 1_455
Mg0 Mg5 3.353542 1_445
Mg0 Mg3 3.353542 1_455
Mg0 Mg5 3.428394 1_555
Mg0 Mg3 3.428395 1_555
Mg1 Mg8 3.157808 1_555
Mg1 Mg9 3.157808 1_555
Mg1 Mg6 3.157815 1_565
Mg1 Mg7 3.157815 1_565
Mg1 Mg12 3.294620 1_455
Mg1 Mg13 3.294620 1_455
Mg1 Mg3 3.353598 1_455
Mg1 Mg5 3.353598 1_455
Mg1 Mg3 3.428373 1_565
Mg1 Mg5 3.428373 1_555
Mg2 Mg4 3.266729 1_555
Mg2 Mg4 3.343717 1_545
Mg2 Mg7 3.549704 1_554
Mg2 Mg6 3.549704 1_555
Mg3 Mg6 3.117435 1_555
Mg3 Mg7 3.117435 1_555
Mg3 Mg5 3.302734 1_545
Mg3 Mg5 3.307711 1_555
Mg4 Mg9 3.549704 1_554
Mg4 Mg8 3.549704 1_555
Mg5 Mg8 3.117435 1_555
Mg5 Mg9 3.117435 1_555
Mg6 Mg8 3.287019 1_555
Mg6 Mg8 3.323426 1_545
Mg7 Mg9 3.287019 1_555
Mg7 Mg9 3.323426 1_545
Mg10 Mg3 3.250126 1_555
Mg10 Mg5 3.250132 1_545
Mg10 Mg8 3.293219 1_545
Mg10 Mg6 3.293220 1_555
Mg10 Mg12 3.305473 1_545
Mg10 Mg12 3.305473 1_555
Mg10 Mg2 3.405179 1_555
Mg10 Mg4 3.405186 1_545
Mg10 Mg8 3.500454 1_655
Mg10 Mg6 3.500454 1_655
Mg11 Mg3 3.250126 1_555
Mg11 Mg5 3.250132 1_545
Mg11 Mg9 3.293219 1_545
Mg11 Mg7 3.293220 1_555
Mg11 Mg13 3.305473 1_545
Mg11 Mg13 3.305473 1_555
Mg11 Mg2 3.405179 1_556
Mg11 Mg4 3.405186 1_546
Mg11 Mg9 3.500454 1_655
Mg11 Mg7 3.500454 1_655
Mg12 Mg5 3.216450 1_555
Mg12 Mg3 3.216457 1_555
Mg12 Mg6 3.269415 1_555
Mg12 Mg8 3.269415 1_555
Mg12 Mg4 3.414004 1_555
Mg12 Mg2 3.414010 1_555
Mg12 Mg6 3.520142 1_665
Mg12 Mg8 3.520143 1_655
Mg13 Mg5 3.216450 1_555
Mg13 Mg3 3.216457 1_555
Mg13 Mg7 3.269415 1_555
Mg13 Mg9 3.269415 1_555
Mg13 Mg4 3.414004 1_556
Mg13 Mg2 3.414010 1_556
Mg13 Mg7 3.520142 1_665
Mg13 Mg9 3.520143 1_655
