# generated using pymatgen
data_Yb2TeO6
_symmetry_space_group_name_H-M   'P 1'
_cell_length_a   8.87949185
_cell_length_b   8.87949185
_cell_length_c   5.39146943
_cell_angle_alpha   88.60347897
_cell_angle_beta   88.60347897
_cell_angle_gamma   59.01402749
_symmetry_Int_Tables_number   1
_chemical_formula_structural   Yb2TeO6
_chemical_formula_sum   'Yb6 Te3 O18'
_cell_volume   364.28600096
_cell_formula_units_Z   3
loop_
 _symmetry_equiv_pos_site_id
 _symmetry_equiv_pos_as_xyz
  1  'x, y, z'
loop_
 _atom_site_type_symbol
 _atom_site_label
 _atom_site_symmetry_multiplicity
 _atom_site_fract_x
 _atom_site_fract_y
 _atom_site_fract_z
 _atom_site_occupancy
  Yb  Yb0  1  0.60002300  0.39997700  0.00000000  1
  Yb  Yb1  1  0.39407300  0.98712500  0.99217500  1
  Yb  Yb2  1  0.01287500  0.60592700  0.00782500  1
  Yb  Yb3  1  0.27273200  0.72726800  0.50000000  1
  Yb  Yb4  1  0.74783200  0.98977800  0.49385500  1
  Yb  Yb5  1  0.01022200  0.25216800  0.50614500  1
  Te  Te0  1  0.99907500  0.00092500  0.00000000  1
  Te  Te1  1  0.66895600  0.65727600  0.36305300  1
  Te  Te2  1  0.34272400  0.33104400  0.63694700  1
  O  O0  1  0.46815600  0.70889500  0.18384900  1
  O  O1  1  0.72480900  0.80827900  0.18331400  1
  O  O2  1  0.82446900  0.45073700  0.19596800  1
  O  O3  1  0.29110500  0.53184400  0.81615100  1
  O  O4  1  0.19172100  0.27519100  0.81668600  1
  O  O5  1  0.54926300  0.17553100  0.80403200  1
  O  O6  1  0.91762100  0.57332600  0.59081500  1
  O  O7  1  0.59890600  0.59377100  0.65876000  1
  O  O8  1  0.49527200  0.93177800  0.56702300  1
  O  O9  1  0.42667400  0.08237900  0.40918500  1
  O  O10  1  0.40622900  0.40109400  0.34124000  1
  O  O11  1  0.06822200  0.50472800  0.43297700  1
  O  O12  1  0.19298200  0.94506100  0.77017300  1
  O  O13  1  0.94439200  0.85975700  0.79014200  1
  O  O14  1  0.85532100  0.19893000  0.77934200  1
  O  O15  1  0.05493900  0.80701800  0.22982700  1
  O  O16  1  0.14024300  0.05560800  0.20985800  1
  O  O17  1  0.80107000  0.14467900  0.22065800  1
loop_
_geom_bond_atom_site_label_1
_geom_bond_atom_site_label_2
_geom_bond_distance
_geom_bond_site_symmetry_2
O0 Te1 1.882439 1_555
O0 Yb3 2.349689 1_555
O0 Yb1 2.416516 1_554
O0 Yb0 2.578107 1_555
O1 Te1 1.892300 1_555
O1 Yb2 2.428788 1_655
O1 Yb4 2.435106 1_555
O1 Yb1 2.733895 1_554
O2 Te1 1.869238 1_555
O2 Yb5 2.371127 1_655
O2 Yb0 2.518361 1_555
O2 Yb2 2.819480 1_655
O3 Te2 1.882439 1_555
O3 Yb3 2.349689 1_555
O3 Yb2 2.416516 1_556
O3 Yb0 2.578107 1_556
O4 Te2 1.892300 1_555
O4 Yb1 2.428788 1_545
O4 Yb5 2.435106 1_555
O4 Yb2 2.733895 1_556
O5 Te2 1.869238 1_555
O5 Yb4 2.371127 1_545
O5 Yb0 2.518361 1_556
O5 Yb1 2.819480 1_545
O6 Te1 2.309055 1_555
O6 Yb2 2.496106 1_656
O6 Yb5 2.578290 1_655
O7 Te1 1.875003 1_555
O7 Yb0 2.484962 1_556
O7 Yb3 2.657534 1_555
O8 O9 1.419347 1_565
O8 Te1 2.388792 1_555
O8 Yb1 2.408931 1_555
O8 Yb4 2.566383 1_555
O9 Te2 2.309055 1_555
O9 Yb1 2.496106 1_544
O9 Yb4 2.578290 1_545
O10 Te2 1.875003 1_555
O10 Yb0 2.484962 1_555
O10 Yb3 2.657534 1_555
O11 O6 1.419347 1_455
O11 Te2 2.388792 1_555
O11 Yb2 2.408931 1_555
O11 Yb5 2.566383 1_555
O12 Te0 1.947453 1_466
O12 Yb3 2.245020 1_555
O12 Yb1 2.360743 1_555
O12 Yb5 2.731843 1_565
O13 Te0 1.951870 1_566
O13 Yb4 2.214076 1_555
O13 Yb2 2.306903 1_656
O13 Yb3 2.943960 1_655
O14 Te0 1.948624 1_556
O14 Yb5 2.195824 1_655
O14 Yb0 2.355061 1_556
O15 Te0 1.947453 1_465
O15 Yb3 2.245020 1_555
O15 Yb2 2.360743 1_555
O15 Yb4 2.731843 1_455
O16 Te0 1.951870 1_455
O16 Yb5 2.214076 1_555
O16 Yb1 2.306903 1_544
O16 Yb3 2.943960 1_545
O17 Te0 1.948624 1_555
O17 Yb4 2.195824 1_545
O17 Yb0 2.355061 1_555
