# generated using pymatgen
data_LiMn3(PO4)3
_symmetry_space_group_name_H-M   'P 1'
_cell_length_a   8.65339600
_cell_length_b   9.04480956
_cell_length_c   12.55063090
_cell_angle_alpha   104.67754178
_cell_angle_beta   100.84578260
_cell_angle_gamma   103.51534343
_symmetry_Int_Tables_number   1
_chemical_formula_structural   LiMn3(PO4)3
_chemical_formula_sum   'Li4 Mn12 P12 O48'
_cell_volume   891.41629010
_cell_formula_units_Z   4
loop_
 _symmetry_equiv_pos_site_id
 _symmetry_equiv_pos_as_xyz
  1  'x, y, z'
loop_
 _atom_site_type_symbol
 _atom_site_label
 _atom_site_symmetry_multiplicity
 _atom_site_fract_x
 _atom_site_fract_y
 _atom_site_fract_z
 _atom_site_occupancy
  Li  Li0  1  0.49847200  0.50595600  0.01256700  1
  Li  Li1  1  0.49957700  0.24897300  0.74920600  1
  Li  Li2  1  0.50092100  0.99332300  0.48832300  1
  Li  Li3  1  0.99161700  0.13187800  0.12075800  1
  Mn  Mn0  1  0.61139200  0.89013400  0.95821800  1
  Mn  Mn1  1  0.26096200  0.49524200  0.75592400  1
  Mn  Mn2  1  0.93292700  0.48348400  0.86682300  1
  Mn  Mn3  1  0.06640300  0.01619300  0.63180400  1
  Mn  Mn4  1  0.38574000  0.60857400  0.53978300  1
  Mn  Mn5  1  0.73785700  0.00149700  0.74106100  1
  Mn  Mn6  1  0.27399900  0.98145700  0.25769700  1
  Mn  Mn7  1  0.61338600  0.39035500  0.45628000  1
  Mn  Mn8  1  0.93457700  0.98679700  0.37142800  1
  Mn  Mn9  1  0.06638600  0.52011800  0.13085800  1
  Mn  Mn10  1  0.73392200  0.51760600  0.24727200  1
  Mn  Mn11  1  0.38396400  0.10750300  0.04238800  1
  P  P0  1  0.13212700  0.24042800  0.89208200  1
  P  P1  1  0.34951200  0.88385500  0.74870300  1
  P  P2  1  0.71194700  0.26885100  0.98043600  1
  P  P3  1  0.64975500  0.61553300  0.75067900  1
  P  P4  1  0.13339700  0.74147000  0.39372000  1
  P  P5  1  0.28770300  0.23139100  0.51995600  1
  P  P6  1  0.71193100  0.77333400  0.48050300  1
  P  P7  1  0.86486900  0.25965300  0.60832000  1
  P  P8  1  0.34328400  0.37258200  0.24341100  1
  P  P9  1  0.28838900  0.72657000  0.01876100  1
  P  P10  1  0.65435700  0.12336800  0.25393000  1
  P  P11  1  0.87052100  0.76400300  0.10834500  1
  O  O0  1  0.04226000  0.36055500  0.95003600  1
  O  O1  1  0.40892400  0.92838300  0.88411800  1
  O  O2  1  0.16640000  0.63348200  0.89900600  1
  O  O3  1  0.18181100  0.15365800  0.97956400  1
  O  O4  1  0.17831900  0.90828400  0.71929600  1
  O  O5  1  0.53660100  0.26663900  0.99471800  1
  O  O6  1  0.28068000  0.33396000  0.86227300  1
  O  O7  1  0.47746700  0.99121000  0.70957000  1
  O  O8  1  0.99712900  0.38312800  0.71464400  1
  O  O9  1  0.66834200  0.79646900  0.80155800  1
  O  O10  1  0.33347300  0.70391100  0.69970300  1
  O  O11  1  0.52310100  0.50971900  0.79165100  1
  O  O12  1  0.72672900  0.34829900  0.88466200  1
  O  O13  1  0.04340400  0.85965700  0.45406200  1
  O  O14  1  0.73740000  0.10049100  0.93812800  1
  O  O15  1  0.82158500  0.59211100  0.78097300  1
  O  O16  1  0.18732000  0.64900100  0.47432000  1
  O  O17  1  0.26818500  0.40049400  0.56594500  1
  O  O18  1  0.83441600  0.86628000  0.60062700  1
  O  O19  1  0.59061600  0.57214100  0.61592300  1
  O  O20  1  0.27289800  0.15161800  0.61624200  1
  O  O21  1  0.53785400  0.77393000  0.49820100  1
  O  O22  1  0.28097500  0.83988300  0.36619300  1
  O  O23  1  0.00390800  0.88863100  0.21348600  1
  O  O24  1  0.00181400  0.11576700  0.78604400  1
  O  O25  1  0.71892200  0.16395800  0.63984900  1
  O  O26  1  0.46284200  0.23171900  0.50473200  1
  O  O27  1  0.73289600  0.85881800  0.38893700  1
  O  O28  1  0.40662900  0.42731400  0.37834900  1
  O  O29  1  0.16441400  0.13347400  0.40196500  1
  O  O30  1  0.72869000  0.60352700  0.43207200  1
  O  O31  1  0.80990100  0.34821400  0.52486800  1
  O  O32  1  0.16619400  0.38912600  0.20819900  1
  O  O33  1  0.26995200  0.89593400  0.06684300  1
  O  O34  1  0.95565000  0.14101200  0.54945800  1
  O  O35  1  0.26885400  0.64223000  0.11111100  1
  O  O36  1  0.46617400  0.46101100  0.19212300  1
  O  O37  1  0.67519600  0.30564600  0.29834100  1
  O  O38  1  0.31481100  0.18781400  0.19984700  1
  O  O39  1  0.00302000  0.62007600  0.28528000  1
  O  O40  1  0.53472000  0.03288900  0.30618100  1
  O  O41  1  0.72372200  0.66427100  0.13554600  1
  O  O42  1  0.46304500  0.72613300  0.00192700  1
  O  O43  1  0.82617500  0.09501500  0.27584300  1
  O  O44  1  0.81903400  0.86740700  0.03317000  1
  O  O45  1  0.83742100  0.36367600  0.09872100  1
  O  O46  1  0.58749700  0.07069600  0.11825200  1
  O  O47  1  0.95726800  0.64494100  0.04547800  1
loop_
_geom_bond_atom_site_label_1
_geom_bond_atom_site_label_2
_geom_bond_distance
_geom_bond_site_symmetry_2
Li0 O42 2.117178 1_555
Li0 O41 2.162226 1_555
Li0 O5 2.227184 1_554
Li0 O6 2.309710 1_554
Li0 O36 2.443355 1_555
Li1 O20 2.150346 1_555
Li1 O12 2.168884 1_555
Li1 O7 2.210777 1_545
Li1 O11 2.232799 1_555
Li2 O21 2.112206 1_555
Li2 O22 2.118374 1_555
Li2 O26 2.221035 1_565
Li2 O25 2.314941 1_565
Li2 O40 2.461027 1_565
Li3 O32 2.310733 1_655
Li3 O44 2.353863 1_545
Mn0 O44 1.946849 1_556
Mn0 O1 1.971643 1_555
Mn0 O42 1.984068 1_556
Mn0 O14 2.061419 1_565
Mn0 O9 2.131228 1_555
Mn0 O46 2.322923 1_566
Mn1 O8 2.171532 1_455
Mn1 O10 2.177550 1_555
Mn1 O11 2.193727 1_555
Mn1 O6 2.226206 1_555
Mn1 O2 2.313254 1_555
Mn1 O17 2.338614 1_555
Mn2 O15 1.908621 1_555
Mn2 O0 1.982517 1_655
Mn2 O12 1.999565 1_555
Mn2 O2 2.054158 1_655
Mn2 O8 2.130011 1_555
Mn2 O47 2.285549 1_556
Mn3 O4 1.918595 1_545
Mn3 O20 1.990225 1_555
Mn3 O34 1.996355 1_455
Mn3 O18 2.045690 1_445
Mn3 O24 2.151703 1_555
Mn3 O13 2.263012 1_545
Mn4 O16 1.916155 1_555
Mn4 O19 1.989956 1_555
Mn4 O21 1.993928 1_555
Mn4 O17 2.056380 1_555
Mn4 O10 2.150217 1_555
Mn4 O28 2.327795 1_555
Mn5 O24 2.172498 1_655
Mn5 O9 2.177453 1_545
Mn5 O25 2.186270 1_555
Mn5 O7 2.188666 1_545
Mn5 O18 2.289097 1_545
Mn5 O14 2.408755 1_555
Mn6 O22 2.094366 1_555
Mn6 O40 2.127464 1_565
Mn6 O38 2.147249 1_565
Mn6 O23 2.198634 1_555
Mn6 O33 2.313879 1_555
Mn6 O29 2.462158 1_565
Mn7 O31 1.922605 1_555
Mn7 O26 1.998052 1_555
Mn7 O28 2.013986 1_555
Mn7 O30 2.077779 1_555
Mn7 O37 2.150180 1_555
Mn7 O19 2.321060 1_555
Mn8 O27 1.939843 1_555
Mn8 O43 1.969234 1_565
Mn8 O13 2.006948 1_655
Mn8 O29 2.021068 1_665
Mn8 O23 2.209597 1_655
Mn8 O34 2.262685 1_565
Mn9 O35 1.936123 1_555
Mn9 O32 1.958953 1_555
Mn9 O47 2.011239 1_455
Mn9 O45 2.046985 1_455
Mn9 O39 2.148946 1_555
Mn9 O0 2.301709 1_554
Mn10 O37 2.152760 1_555
Mn10 O41 2.164391 1_555
Mn10 O36 2.184457 1_555
Mn10 O39 2.204117 1_655
Mn10 O30 2.264500 1_555
Mn10 O45 2.472322 1_555
Mn11 O3 1.960901 1_554
Mn11 O46 1.980659 1_555
Mn11 O5 2.004857 1_554
Mn11 O33 2.063633 1_545
Mn11 O38 2.170694 1_555
Mn11 O1 2.304632 1_544
O0 P0 1.587971 1_555
O1 P1 1.594520 1_555
O2 P9 1.558345 1_556
O3 P0 1.556607 1_555
O4 P1 1.538879 1_555
O5 P2 1.557186 1_555
O6 P0 1.530097 1_555
O7 P1 1.534230 1_555
O8 P7 1.552556 1_555
O9 P3 1.555830 1_555
O10 P1 1.549673 1_555
O11 P3 1.533885 1_555
O12 P2 1.558916 1_555
O13 P4 1.588554 1_555
O14 P2 1.562166 1_555
O15 P3 1.541313 1_555
O16 P4 1.540796 1_555
O17 P5 1.552778 1_555
O18 P6 1.563003 1_555
O19 P3 1.587563 1_555
O20 P5 1.566617 1_555
O21 P6 1.564476 1_555
O22 P4 1.527447 1_555
O23 P11 1.552131 1_455
O24 P0 1.547443 1_555
O25 P7 1.533447 1_555
O26 P5 1.562230 1_555
O27 P6 1.553897 1_555
O28 P8 1.585125 1_555
O29 P5 1.553930 1_555
O30 P6 1.553575 1_555
O31 P7 1.542929 1_555
O32 P8 1.565844 1_555
O33 P9 1.555069 1_555
O34 P7 1.589047 1_555
O35 P9 1.554162 1_555
O36 P8 1.518509 1_555
O37 P10 1.555262 1_555
O38 P8 1.564074 1_555
O39 P4 1.554536 1_555
O40 P10 1.517565 1_555
O41 P11 1.525647 1_555
O42 P9 1.565702 1_555
O43 P10 1.553087 1_555
O44 P11 1.564340 1_555
O45 P2 1.559260 1_554
O46 P10 1.597084 1_555
O47 P11 1.586156 1_555
