# generated using pymatgen
data_LaMgFeNiO6
_symmetry_space_group_name_H-M   'P 1'
_cell_length_a   5.46300100
_cell_length_b   5.31563756
_cell_length_c   7.60472800
_cell_angle_alpha   89.68500017
_cell_angle_beta   90.00255215
_cell_angle_gamma   89.99633558
_symmetry_Int_Tables_number   1
_chemical_formula_structural   LaMgFeNiO6
_chemical_formula_sum   'La2 Mg2 Fe2 Ni2 O12'
_cell_volume   220.83289324
_cell_formula_units_Z   2
loop_
 _symmetry_equiv_pos_site_id
 _symmetry_equiv_pos_as_xyz
  1  'x, y, z'
loop_
 _atom_site_type_symbol
 _atom_site_label
 _atom_site_symmetry_multiplicity
 _atom_site_fract_x
 _atom_site_fract_y
 _atom_site_fract_z
 _atom_site_occupancy
  La  La0  1  0.03492800  0.99254400  0.24915000  1
  La  La1  1  0.46510100  0.49264000  0.74914400  1
  Mg  Mg0  1  0.55825200  0.52848200  0.24787300  1
  Mg  Mg1  1  0.94170300  0.02855000  0.74784100  1
  Fe  Fe0  1  0.50257000  0.00040200  0.00194500  1
  Fe  Fe1  1  0.99744200  0.50034100  0.50195300  1
  Ni  Ni0  1  0.49702700  0.00134300  0.49757500  1
  Ni  Ni1  1  0.00297500  0.50137500  0.99757600  1
  O  O0  1  0.02086300  0.63071100  0.74228600  1
  O  O1  1  0.20664200  0.18403700  0.94116200  1
  O  O2  1  0.19324500  0.20055100  0.55695500  1
  O  O3  1  0.30671600  0.70047500  0.05694000  1
  O  O4  1  0.29333700  0.68395300  0.44116200  1
  O  O5  1  0.47914200  0.13066800  0.24231900  1
  O  O6  1  0.54910100  0.92657000  0.75589600  1
  O  O7  1  0.73924300  0.27271500  0.55823100  1
  O  O8  1  0.73246900  0.26280200  0.94888500  1
  O  O9  1  0.76765400  0.76277200  0.44891500  1
  O  O10  1  0.76072100  0.77262100  0.05825700  1
  O  O11  1  0.95087000  0.42645000  0.25593100  1
loop_
_geom_bond_atom_site_label_1
_geom_bond_atom_site_label_2
_geom_bond_distance
_geom_bond_site_symmetry_2
La0 O11 2.352571 1_465
La0 O10 2.395143 1_455
La0 O9 2.431377 1_455
La0 O5 2.535876 1_565
La0 O3 2.603144 1_555
La0 O4 2.605572 1_555
La0 O1 2.715871 1_564
La0 O2 2.734629 1_565
La1 O6 2.352685 1_555
La1 O7 2.395006 1_555
La1 O8 2.431571 1_555
La1 O0 2.535830 1_555
La1 O2 2.603368 1_555
La1 O1 2.605969 1_555
La1 O4 2.715456 1_555
La1 O3 2.734336 1_556
Mg0 O5 2.159014 1_555
Mg0 O3 2.194874 1_555
Mg0 O11 2.213113 1_555
Mg0 O4 2.225194 1_555
Mg0 O10 2.228598 1_555
Mg0 O9 2.284312 1_555
Mg1 O0 2.159145 1_645
Mg1 O2 2.194831 1_655
Mg1 O6 2.213032 1_545
Mg1 O1 2.225456 1_655
Mg1 O7 2.228478 1_555
Mg1 O8 2.283740 1_555
Fe0 O10 1.905870 1_545
Fe0 O8 1.918284 1_554
Fe0 O6 1.930777 1_544
Fe0 O1 1.942898 1_554
Fe0 O5 1.962472 1_555
Fe0 O3 1.963271 1_545
Fe1 O7 1.905628 1_555
Fe1 O9 1.917831 1_555
Fe1 O11 1.930657 1_555
Fe1 O4 1.942839 1_655
Fe1 O0 1.962372 1_655
Fe1 O2 1.962408 1_655
Ni0 O9 1.983909 1_545
Ni0 O7 2.012972 1_555
Ni0 O2 2.021006 1_555
Ni0 O6 2.022218 1_545
Ni0 O5 2.058033 1_555
Ni0 O4 2.068053 1_545
Ni1 O8 1.983565 1_455
Ni1 O10 2.012578 1_456
Ni1 O3 2.020571 1_556
Ni1 O11 2.022679 1_456
Ni1 O0 2.058309 1_555
Ni1 O1 2.067665 1_555
