# generated using pymatgen
data_V6GaSn
_symmetry_space_group_name_H-M   'P 1'
_cell_length_a   4.88287100
_cell_length_b   4.88287100
_cell_length_c   4.88287100
_cell_angle_alpha   90.00000000
_cell_angle_beta   90.00000000
_cell_angle_gamma   90.00000000
_symmetry_Int_Tables_number   1
_chemical_formula_structural   V6GaSn
_chemical_formula_sum   'V6 Ga1 Sn1'
_cell_volume   116.41950612
_cell_formula_units_Z   1
loop_
 _symmetry_equiv_pos_site_id
 _symmetry_equiv_pos_as_xyz
  1  'x, y, z'
loop_
 _atom_site_type_symbol
 _atom_site_label
 _atom_site_symmetry_multiplicity
 _atom_site_fract_x
 _atom_site_fract_y
 _atom_site_fract_z
 _atom_site_occupancy
  V  V0  1  0.00000000  0.50000000  0.74120000  1
  V  V1  1  0.50000000  0.25880000  0.00000000  1
  V  V2  1  0.74120000  0.00000000  0.50000000  1
  V  V3  1  0.00000000  0.50000000  0.25880000  1
  V  V4  1  0.50000000  0.74120000  0.00000000  1
  V  V5  1  0.25880000  0.00000000  0.50000000  1
  Ga  Ga0  1  0.50000000  0.50000000  0.50000000  1
  Sn  Sn0  1  0.00000000  0.00000000  0.00000000  1
loop_
_geom_bond_atom_site_label_1
_geom_bond_atom_site_label_2
_geom_bond_distance
_geom_bond_site_symmetry_2
V0 V3 2.355497 1_555
V0 V3 2.527374 1_556
V0 V2 2.990753 1_465
V0 V2 2.990753 1_455
V0 V4 2.990753 1_556
V0 V4 2.990753 1_456
V0 V1 2.990753 1_456
V0 V1 2.990753 1_556
V0 V5 2.990753 1_555
V0 V5 2.990753 1_565
V1 V4 2.355497 1_555
V1 V4 2.527374 1_545
V1 V3 2.990753 1_655
V1 V5 2.990753 1_554
V1 V3 2.990753 1_555
V1 V5 2.990753 1_555
V1 V2 2.990753 1_555
V1 V2 2.990753 1_554
V2 V5 2.355497 1_555
V2 V5 2.527374 1_655
V2 V3 2.990753 1_655
V2 V4 2.990753 1_545
V2 V4 2.990753 1_546
V2 V3 2.990753 1_645
V3 V5 2.990753 1_555
V3 V5 2.990753 1_565
V3 V4 2.990753 1_555
V3 V4 2.990753 1_455
V4 V5 2.990753 1_564
V4 V5 2.990753 1_565
Ga0 V0 2.710664 1_555
Ga0 V3 2.710664 1_555
Ga0 V1 2.710664 1_555
Ga0 V5 2.710664 1_555
Ga0 V5 2.710664 1_565
Ga0 V0 2.710664 1_655
Ga0 V1 2.710664 1_556
Ga0 V3 2.710664 1_655
Ga0 V2 2.710664 1_555
Ga0 V4 2.710664 1_556
Ga0 V4 2.710664 1_555
Ga0 V2 2.710664 1_565
Sn0 V4 2.749093 1_545
Sn0 V0 2.749093 1_544
Sn0 V0 2.749093 1_554
Sn0 V4 2.749093 1_445
Sn0 V2 2.749093 1_454
Sn0 V2 2.749093 1_455
Sn0 V5 2.749093 1_554
Sn0 V3 2.749093 1_545
Sn0 V3 2.749093 1_555
Sn0 V1 2.749093 1_555
Sn0 V5 2.749093 1_555
Sn0 V1 2.749093 1_455
