# generated using pymatgen
data_Mg149Ir
_symmetry_space_group_name_H-M   'P 1'
_cell_length_a   15.93002645
_cell_length_b   15.93003078
_cell_length_c   15.65097982
_cell_angle_alpha   90.00000000
_cell_angle_beta   90.00000000
_cell_angle_gamma   120.00001095
_symmetry_Int_Tables_number   1
_chemical_formula_structural   Mg149Ir
_chemical_formula_sum   'Mg149 Ir1'
_cell_volume   3439.57851137
_cell_formula_units_Z   1
loop_
 _symmetry_equiv_pos_site_id
 _symmetry_equiv_pos_as_xyz
  1  'x, y, z'
loop_
 _atom_site_type_symbol
 _atom_site_label
 _atom_site_symmetry_multiplicity
 _atom_site_fract_x
 _atom_site_fract_y
 _atom_site_fract_z
 _atom_site_occupancy
  Mg  Mg0  1  0.60259108  0.00032699  0.00000000  1
  Mg  Mg1  1  0.39773691  0.00032699  0.00000000  1
  Mg  Mg2  1  0.81291012  0.00224239  0.00000000  1
  Mg  Mg3  1  0.18933227  0.00224239  0.00000000  1
  Mg  Mg4  1  0.99775761  0.18708988  0.00000000  1
  Mg  Mg5  1  0.18933227  0.18708988  0.00000000  1
  Mg  Mg6  1  0.80130598  0.19869302  -0.00000000  1
  Mg  Mg7  1  0.39738704  0.19869302  0.00000000  1
  Mg  Mg8  1  0.59973411  0.19946922  0.00000000  1
  Mg  Mg9  1  0.19793001  0.39585902  -0.00000000  1
  Mg  Mg10  1  0.99967301  0.39740892  0.00000000  1
  Mg  Mg11  1  0.39773691  0.39740892  0.00000000  1
  Mg  Mg12  1  0.59973411  0.40026589  0.00000000  1
  Mg  Mg13  1  0.80053078  0.40026589  0.00000000  1
  Mg  Mg14  1  0.19950882  0.59975441  0.00000000  1
  Mg  Mg15  1  0.40024559  0.59975441  0.00000000  1
  Mg  Mg16  1  0.99967301  0.60226309  0.00000000  1
  Mg  Mg17  1  0.60259108  0.60226309  0.00000000  1
  Mg  Mg18  1  0.80130598  0.60261296  -0.00000000  1
  Mg  Mg19  1  0.40024559  0.80049118  0.00000000  1
  Mg  Mg20  1  0.60414098  0.80206999  0.00000000  1
  Mg  Mg21  1  0.19793001  0.80206999  -0.00000000  1
  Mg  Mg22  1  0.81291012  0.81066773  0.00000000  1
  Mg  Mg23  1  0.99775761  0.81066773  0.00000000  1
  Mg  Mg24  1  0.06280978  0.12561957  0.15610352  1
  Mg  Mg25  1  0.87438143  0.93719022  0.15610352  1
  Mg  Mg26  1  0.06280978  0.93719022  0.15610352  1
  Mg  Mg27  1  0.06571216  0.33016163  0.16507635  1
  Mg  Mg28  1  0.26444848  0.33016163  0.16507635  1
  Mg  Mg29  1  0.06571216  0.73555152  0.16507635  1
  Mg  Mg30  1  0.66983837  0.73555152  0.16507635  1
  Mg  Mg31  1  0.66983837  0.93428684  0.16507635  1
  Mg  Mg32  1  0.26444848  0.93428684  0.16507635  1
  Mg  Mg33  1  0.46674056  0.53325944  0.16585020  1
  Mg  Mg34  1  0.06651987  0.53325944  0.16585020  1
  Mg  Mg35  1  0.46674056  0.93348113  0.16585020  1
  Mg  Mg36  1  0.26618091  0.53236181  0.16589585  1
  Mg  Mg37  1  0.26618091  0.73381909  0.16589585  1
  Mg  Mg38  1  0.46763819  0.73381909  0.16589585  1
  Mg  Mg39  1  0.66637921  0.13375893  0.16665346  1
  Mg  Mg40  1  0.46737973  0.13375893  0.16665346  1
  Mg  Mg41  1  0.46737973  0.33361979  0.16665346  1
  Mg  Mg42  1  0.86624107  0.33362079  0.16665346  1
  Mg  Mg43  1  0.86624107  0.53262027  0.16665346  1
  Mg  Mg44  1  0.66637921  0.53262127  0.16665346  1
  Mg  Mg45  1  0.66666700  0.33333300  0.16677345  1
  Mg  Mg46  1  0.26916926  0.13458513  0.16747013  1
  Mg  Mg47  1  0.86541487  0.13458513  0.16747013  1
  Mg  Mg48  1  0.86541487  0.73082974  0.16747013  1
  Mg  Mg49  1  -0.00000000  0.00000000  0.33109083  1
  Mg  Mg50  1  0.00040252  0.19882282  0.33108719  1
  Mg  Mg51  1  0.19842029  0.19882282  0.33108719  1
  Mg  Mg52  1  0.80117618  0.80157971  0.33108719  1
  Mg  Mg53  1  0.00040252  0.80157971  0.33108719  1
  Mg  Mg54  1  0.80117618  0.99959648  0.33108719  1
  Mg  Mg55  1  0.19842029  0.99959748  0.33108719  1
  Mg  Mg56  1  0.39922112  0.39948956  0.33253942  1
  Mg  Mg57  1  0.00026843  0.39948956  0.33253942  1
  Mg  Mg58  1  0.60051044  0.60077888  0.33253942  1
  Mg  Mg59  1  0.00026843  0.60077888  0.33253942  1
  Mg  Mg60  1  0.39922112  0.99973157  0.33253942  1
  Mg  Mg61  1  0.60051044  0.99973157  0.33253942  1
  Mg  Mg62  1  0.19984154  0.39968207  0.33267238  1
  Mg  Mg63  1  0.19984154  0.80015846  0.33267238  1
  Mg  Mg64  1  0.60031793  0.80015846  0.33267238  1
  Mg  Mg65  1  0.20002089  0.60001044  0.33304480  1
  Mg  Mg66  1  0.39998956  0.60001044  0.33304480  1
  Mg  Mg67  1  0.39998956  0.79997911  0.33304480  1
  Mg  Mg68  1  0.59978880  0.19957660  0.33353091  1
  Mg  Mg69  1  0.59978880  0.40021120  0.33353091  1
  Mg  Mg70  1  0.80042340  0.40021120  0.33353091  1
  Mg  Mg71  1  0.80009587  0.19990413  0.33371645  1
  Mg  Mg72  1  0.39980826  0.19990413  0.33371645  1
  Mg  Mg73  1  0.80009587  0.60019174  0.33371645  1
  Mg  Mg74  1  0.06653398  0.13306796  0.50000000  1
  Mg  Mg75  1  0.26592376  0.13296188  0.50000000  1
  Mg  Mg76  1  0.86703812  0.13296188  0.50000000  1
  Mg  Mg77  1  0.66651307  0.13319787  0.50000000  1
  Mg  Mg78  1  0.46668581  0.13319787  0.50000000  1
  Mg  Mg79  1  0.06628759  0.33258657  0.50000000  1
  Mg  Mg80  1  0.26629898  0.33258657  0.50000000  1
  Mg  Mg81  1  0.66666700  0.33333300  0.50000000  1
  Mg  Mg82  1  0.86680213  0.33348693  0.50000000  1
  Mg  Mg83  1  0.46668581  0.33348693  0.50000000  1
  Mg  Mg84  1  0.26642666  0.53285432  0.50000000  1
  Mg  Mg85  1  0.46678944  0.53321056  0.50000000  1
  Mg  Mg86  1  0.06642113  0.53321056  0.50000000  1
  Mg  Mg87  1  0.86680213  0.53331419  0.50000000  1
  Mg  Mg88  1  0.66651307  0.53331519  0.50000000  1
  Mg  Mg89  1  0.26642666  0.73357234  0.50000000  1
  Mg  Mg90  1  0.46714568  0.73357234  0.50000000  1
  Mg  Mg91  1  0.06628759  0.73370102  0.50000000  1
  Mg  Mg92  1  0.66741343  0.73370102  0.50000000  1
  Mg  Mg93  1  0.86703812  0.73407524  0.50000000  1
  Mg  Mg94  1  0.46678944  0.93357887  0.50000000  1
  Mg  Mg95  1  0.06653398  0.93346602  0.50000000  1
  Mg  Mg96  1  0.86693204  0.93346602  0.50000000  1
  Mg  Mg97  1  0.26629898  0.93371141  0.50000000  1
  Mg  Mg98  1  0.66741343  0.93371241  0.50000000  1
  Mg  Mg99  1  0.80009587  0.19990413  0.66628355  1
  Mg  Mg100  1  0.39980826  0.19990413  0.66628355  1
  Mg  Mg101  1  0.80009587  0.60019174  0.66628355  1
  Mg  Mg102  1  0.59978880  0.19957660  0.66647009  1
  Mg  Mg103  1  0.59978880  0.40021120  0.66647009  1
  Mg  Mg104  1  0.80042340  0.40021120  0.66647009  1
  Mg  Mg105  1  0.20002089  0.60001044  0.66695520  1
  Mg  Mg106  1  0.39998956  0.60001044  0.66695520  1
  Mg  Mg107  1  0.39998956  0.79997911  0.66695520  1
  Mg  Mg108  1  0.19984154  0.39968207  0.66732762  1
  Mg  Mg109  1  0.19984154  0.80015846  0.66732762  1
  Mg  Mg110  1  0.60031793  0.80015846  0.66732762  1
  Mg  Mg111  1  0.39922112  0.39948956  0.66746058  1
  Mg  Mg112  1  0.00026843  0.39948956  0.66746058  1
  Mg  Mg113  1  0.60051044  0.60077888  0.66746058  1
  Mg  Mg114  1  0.00026843  0.60077888  0.66746058  1
  Mg  Mg115  1  0.39922112  0.99973157  0.66746058  1
  Mg  Mg116  1  0.60051044  0.99973157  0.66746058  1
  Mg  Mg117  1  0.00040252  0.19882282  0.66891181  1
  Mg  Mg118  1  0.19842029  0.19882282  0.66891181  1
  Mg  Mg119  1  0.80117618  0.80157971  0.66891181  1
  Mg  Mg120  1  0.00040252  0.80157971  0.66891181  1
  Mg  Mg121  1  0.80117618  0.99959648  0.66891181  1
  Mg  Mg122  1  0.19842029  0.99959748  0.66891181  1
  Mg  Mg123  1  -0.00000000  0.00000000  0.66890917  1
  Mg  Mg124  1  0.26916926  0.13458513  0.83252987  1
  Mg  Mg125  1  0.86541487  0.13458513  0.83252987  1
  Mg  Mg126  1  0.86541487  0.73082974  0.83252987  1
  Mg  Mg127  1  0.66666700  0.33333300  0.83322755  1
  Mg  Mg128  1  0.66637921  0.13375893  0.83334654  1
  Mg  Mg129  1  0.46737973  0.13375893  0.83334654  1
  Mg  Mg130  1  0.46737973  0.33361979  0.83334654  1
  Mg  Mg131  1  0.86624107  0.33362079  0.83334654  1
  Mg  Mg132  1  0.86624107  0.53262027  0.83334654  1
  Mg  Mg133  1  0.66637921  0.53262127  0.83334654  1
  Mg  Mg134  1  0.26618091  0.53236181  0.83410415  1
  Mg  Mg135  1  0.26618091  0.73381909  0.83410415  1
  Mg  Mg136  1  0.46763819  0.73381909  0.83410415  1
  Mg  Mg137  1  0.46674056  0.53325944  0.83415080  1
  Mg  Mg138  1  0.06651987  0.53325944  0.83415080  1
  Mg  Mg139  1  0.46674056  0.93348113  0.83415080  1
  Mg  Mg140  1  0.06571216  0.33016163  0.83492265  1
  Mg  Mg141  1  0.26444848  0.33016163  0.83492265  1
  Mg  Mg142  1  0.06571216  0.73555152  0.83492265  1
  Mg  Mg143  1  0.66983837  0.73555152  0.83492265  1
  Mg  Mg144  1  0.66983837  0.93428684  0.83492265  1
  Mg  Mg145  1  0.26444848  0.93428684  0.83492265  1
  Mg  Mg146  1  0.06280978  0.12561957  0.84389648  1
  Mg  Mg147  1  0.87438143  0.93719022  0.84389648  1
  Mg  Mg148  1  0.06280978  0.93719022  0.84389648  1
  Ir  Ir0  1  -0.00000000  0.00000000  -0.00000000  1
loop_
_geom_bond_atom_site_label_1
_geom_bond_atom_site_label_2
_geom_bond_distance
_geom_bond_site_symmetry_2
Mg0 Mg6 3.162758 1_555
Mg0 Mg20 3.170657 1_545
Mg0 Mg31 3.171172 1_545
Mg0 Mg144 3.171185 1_544
Mg0 Mg39 3.192789 1_555
Mg0 Mg128 3.192789 1_554
Mg0 Mg8 3.195341 1_555
Mg0 Mg139 3.201636 1_544
Mg0 Mg35 3.201648 1_545
Mg0 Mg19 3.203566 1_545
Mg0 Mg1 3.263332 1_555
Mg0 Mg2 3.335236 1_555
Mg1 Mg7 3.162767 1_555
Mg1 Mg21 3.170656 1_545
Mg1 Mg32 3.171180 1_545
Mg1 Mg145 3.171192 1_544
Mg1 Mg40 3.192789 1_555
Mg1 Mg129 3.192789 1_554
Mg1 Mg8 3.195324 1_555
Mg1 Mg139 3.201628 1_544
Mg1 Mg35 3.201640 1_545
Mg1 Mg19 3.203559 1_545
Mg1 Mg3 3.335252 1_555
Mg2 Mg47 3.201698 1_555
Mg2 Mg6 3.225867 1_555
Mg2 Mg31 3.251788 1_545
Mg2 Mg20 3.259383 1_545
Mg3 Mg46 3.201697 1_555
Mg3 Mg7 3.225865 1_555
Mg3 Mg32 3.251788 1_545
Mg4 Mg47 3.201698 1_555
Mg4 Mg6 3.225873 1_555
Mg4 Mg9 3.259383 1_655
Mg5 Mg7 3.225873 1_555
Mg5 Mg9 3.259377 1_555
Mg6 Mg8 3.217245 1_555
Mg7 Mg8 3.217230 1_555
Mg10 Mg6 3.162774 1_555
Mg10 Mg9 3.170656 1_655
Mg10 Mg27 3.171164 1_655
Mg10 Mg140 3.171177 1_654
Mg10 Mg42 3.192789 1_555
Mg10 Mg131 3.192789 1_554
Mg10 Mg13 3.195340 1_555
Mg10 Mg138 3.201636 1_654
Mg10 Mg34 3.201649 1_655
Mg10 Mg14 3.203566 1_655
Mg10 Mg16 3.263333 1_555
Mg10 Mg4 3.335237 1_555
Mg11 Mg7 3.162767 1_555
Mg11 Mg9 3.170656 1_555
Mg11 Mg28 3.171179 1_555
Mg11 Mg141 3.171192 1_554
Mg11 Mg41 3.192789 1_555
Mg11 Mg130 3.192789 1_554
Mg11 Mg12 3.195308 1_555
Mg11 Mg137 3.201636 1_554
Mg11 Mg33 3.201649 1_555
Mg11 Mg15 3.203575 1_555
Mg11 Mg17 3.263332 1_555
Mg11 Mg5 3.335244 1_555
Mg12 Mg41 3.183908 1_555
Mg12 Mg130 3.183908 1_554
Mg12 Mg44 3.183916 1_555
Mg12 Mg133 3.183916 1_554
Mg12 Mg17 3.195309 1_555
Mg12 Mg127 3.197423 1_554
Mg12 Mg45 3.197436 1_555
Mg12 Mg13 3.198696 1_555
Mg12 Mg8 3.198697 1_555
Mg12 Mg18 3.217237 1_555
Mg12 Mg7 3.217245 1_555
Mg13 Mg132 3.183909 1_554
Mg13 Mg43 3.183909 1_555
Mg13 Mg42 3.183917 1_555
Mg13 Mg131 3.183917 1_554
Mg13 Mg16 3.195324 1_555
Mg13 Mg45 3.197420 1_555
Mg13 Mg8 3.198696 1_555
Mg13 Mg18 3.217238 1_555
Mg13 Mg6 3.217254 1_555
Mg14 Mg34 3.178654 1_555
Mg14 Mg37 3.187830 1_555
Mg14 Mg36 3.187830 1_555
Mg14 Mg19 3.197742 1_555
Mg14 Mg15 3.197742 1_555
Mg14 Mg16 3.203558 1_455
Mg14 Mg21 3.235542 1_555
Mg14 Mg9 3.235558 1_555
Mg15 Mg33 3.178662 1_555
Mg15 Mg36 3.187830 1_555
Mg15 Mg38 3.187830 1_555
Mg15 Mg19 3.197743 1_555
Mg15 Mg17 3.203574 1_555
Mg15 Mg20 3.235549 1_555
Mg15 Mg9 3.235549 1_555
Mg16 Mg18 3.162782 1_555
Mg16 Mg21 3.170656 1_655
Mg16 Mg29 3.171180 1_655
Mg16 Mg43 3.192789 1_555
Mg16 Mg34 3.201648 1_655
Mg16 Mg23 3.335253 1_555
Mg17 Mg18 3.162751 1_555
Mg17 Mg20 3.170657 1_555
Mg17 Mg30 3.171180 1_555
Mg17 Mg44 3.192773 1_555
Mg17 Mg33 3.201648 1_555
Mg17 Mg22 3.335244 1_555
Mg18 Mg48 3.162098 1_555
Mg18 Mg44 3.204637 1_555
Mg18 Mg43 3.204645 1_555
Mg18 Mg22 3.225866 1_555
Mg18 Mg23 3.225873 1_555
Mg19 Mg35 3.178662 1_555
Mg19 Mg37 3.187830 1_555
Mg19 Mg38 3.187830 1_555
Mg19 Mg21 3.235541 1_555
Mg19 Mg20 3.235557 1_555
Mg20 Mg30 3.162615 1_555
Mg20 Mg31 3.162623 1_555
Mg20 Mg38 3.207456 1_555
Mg20 Mg22 3.259376 1_555
Mg21 Mg32 3.162623 1_555
Mg21 Mg29 3.162630 1_555
Mg21 Mg37 3.207449 1_555
Mg21 Mg23 3.259392 1_455
Mg21 Mg3 3.259393 1_565
Mg22 Mg48 3.201698 1_555
Mg22 Mg30 3.251788 1_555
Mg23 Mg48 3.201698 1_555
Mg23 Mg29 3.251780 1_655
Mg24 Mg46 3.223192 1_555
Mg24 Mg47 3.223208 1_455
Mg24 Mg28 3.238529 1_555
Mg24 Mg27 3.238538 1_555
Mg24 Mg49 3.240983 1_555
Mg24 Mg51 3.317799 1_555
Mg24 Mg50 3.317799 1_555
Mg25 Mg48 3.223201 1_555
Mg25 Mg47 3.223217 1_565
Mg25 Mg30 3.238537 1_555
Mg25 Mg31 3.238545 1_555
Mg25 Mg49 3.240976 1_665
Mg25 Mg52 3.317800 1_555
Mg25 Mg54 3.317807 1_555
Mg26 Mg46 3.223199 1_565
Mg26 Mg48 3.223208 1_455
Mg26 Mg29 3.238522 1_555
Mg26 Mg32 3.238530 1_555
Mg26 Mg49 3.240983 1_565
Mg26 Mg55 3.317799 1_555
Mg26 Mg53 3.317799 1_555
Mg27 Mg47 3.154035 1_455
Mg27 Mg9 3.162630 1_555
Mg27 Mg28 3.165875 1_555
Mg27 Mg50 3.167636 1_555
Mg27 Mg42 3.205582 1_455
Mg27 Mg36 3.207378 1_555
Mg27 Mg62 3.210287 1_555
Mg27 Mg57 3.213617 1_555
Mg27 Mg34 3.228963 1_555
Mg27 Mg4 3.251788 1_455
Mg28 Mg46 3.154036 1_555
Mg28 Mg9 3.162615 1_555
Mg28 Mg51 3.167636 1_555
Mg28 Mg41 3.205606 1_555
Mg28 Mg36 3.207371 1_555
Mg28 Mg62 3.210272 1_555
Mg28 Mg56 3.213624 1_555
Mg28 Mg33 3.228978 1_555
Mg28 Mg5 3.251788 1_555
Mg29 Mg48 3.154027 1_455
Mg29 Mg32 3.165867 1_555
Mg29 Mg53 3.167628 1_555
Mg29 Mg43 3.205590 1_455
Mg29 Mg37 3.207386 1_555
Mg29 Mg63 3.210288 1_555
Mg29 Mg59 3.213625 1_555
Mg29 Mg34 3.228994 1_555
Mg30 Mg48 3.154043 1_555
Mg30 Mg31 3.165860 1_555
Mg30 Mg52 3.167628 1_555
Mg30 Mg44 3.205583 1_555
Mg30 Mg38 3.207370 1_555
Mg30 Mg64 3.210272 1_555
Mg30 Mg58 3.213624 1_555
Mg30 Mg33 3.228978 1_555
Mg31 Mg47 3.154043 1_565
Mg31 Mg54 3.167628 1_555
Mg31 Mg39 3.205599 1_565
Mg31 Mg38 3.207370 1_555
Mg31 Mg64 3.210280 1_555
Mg31 Mg61 3.213625 1_555
Mg31 Mg35 3.228978 1_555
Mg32 Mg46 3.154052 1_565
Mg32 Mg55 3.167636 1_555
Mg32 Mg40 3.205598 1_565
Mg32 Mg37 3.207371 1_555
Mg32 Mg63 3.210280 1_555
Mg32 Mg60 3.213624 1_555
Mg32 Mg35 3.228978 1_555
Mg33 Mg44 3.185369 1_555
Mg33 Mg41 3.185394 1_555
Mg33 Mg36 3.187795 1_555
Mg33 Mg38 3.187796 1_555
Mg33 Mg58 3.195612 1_555
Mg33 Mg56 3.195612 1_555
Mg33 Mg66 3.199928 1_555
Mg34 Mg42 3.185385 1_455
Mg34 Mg43 3.185393 1_455
Mg34 Mg36 3.187779 1_555
Mg34 Mg37 3.187787 1_555
Mg34 Mg57 3.195612 1_555
Mg34 Mg59 3.195620 1_555
Mg34 Mg65 3.199920 1_555
Mg35 Mg39 3.185377 1_565
Mg35 Mg40 3.185378 1_565
Mg35 Mg37 3.187795 1_555
Mg35 Mg38 3.187796 1_555
Mg35 Mg61 3.195612 1_555
Mg35 Mg60 3.195612 1_555
Mg35 Mg67 3.199928 1_555
Mg36 Mg62 3.188053 1_555
Mg36 Mg66 3.201803 1_555
Mg36 Mg65 3.201803 1_555
Mg36 Mg9 3.207457 1_555
Mg36 Mg38 3.209220 1_555
Mg36 Mg37 3.209221 1_555
Mg37 Mg63 3.188045 1_555
Mg37 Mg67 3.201803 1_555
Mg37 Mg65 3.201803 1_555
Mg37 Mg38 3.209220 1_555
Mg38 Mg64 3.188053 1_555
Mg38 Mg66 3.201803 1_555
Mg38 Mg67 3.201803 1_555
Mg39 Mg47 3.164109 1_555
Mg39 Mg40 3.170067 1_555
Mg39 Mg45 3.176932 1_555
Mg39 Mg42 3.183805 1_555
Mg39 Mg8 3.183917 1_555
Mg39 Mg68 3.187203 1_555
Mg39 Mg61 3.187452 1_545
Mg39 Mg71 3.199970 1_555
Mg39 Mg6 3.204637 1_555
Mg40 Mg46 3.164125 1_555
Mg40 Mg45 3.176939 1_555
Mg40 Mg41 3.183790 1_555
Mg40 Mg8 3.183908 1_555
Mg40 Mg68 3.187210 1_555
Mg40 Mg60 3.187452 1_545
Mg40 Mg72 3.199970 1_555
Mg40 Mg7 3.204637 1_555
Mg41 Mg46 3.164109 1_555
Mg41 Mg44 3.170083 1_555
Mg41 Mg45 3.176939 1_555
Mg41 Mg69 3.187210 1_555
Mg41 Mg56 3.187460 1_555
Mg41 Mg72 3.199962 1_555
Mg41 Mg7 3.204637 1_555
Mg42 Mg47 3.164110 1_555
Mg42 Mg43 3.170068 1_555
Mg42 Mg45 3.176931 1_555
Mg42 Mg70 3.187203 1_555
Mg42 Mg57 3.187452 1_655
Mg42 Mg71 3.199970 1_555
Mg42 Mg6 3.204645 1_555
Mg43 Mg48 3.164110 1_555
Mg43 Mg45 3.176939 1_555
Mg43 Mg44 3.183813 1_555
Mg43 Mg70 3.187211 1_555
Mg43 Mg59 3.187452 1_655
Mg43 Mg73 3.199970 1_555
Mg44 Mg48 3.164101 1_555
Mg44 Mg45 3.176964 1_555
Mg44 Mg69 3.187219 1_555
Mg44 Mg58 3.187444 1_555
Mg44 Mg73 3.199970 1_555
Mg45 Mg70 3.196360 1_555
Mg45 Mg68 3.196361 1_555
Mg45 Mg69 3.196361 1_555
Mg45 Mg8 3.197420 1_555
Mg46 Mg7 3.162105 1_555
Mg46 Mg72 3.165147 1_555
Mg46 Mg51 3.166733 1_555
Mg46 Mg55 3.166740 1_545
Mg46 Mg5 3.201689 1_555
Mg47 Mg6 3.162098 1_555
Mg47 Mg71 3.165139 1_555
Mg47 Mg50 3.166740 1_655
Mg47 Mg54 3.166749 1_545
Mg48 Mg73 3.165139 1_555
Mg48 Mg53 3.166740 1_655
Mg48 Mg52 3.166749 1_555
Mg49 Mg51 3.164051 1_555
Mg49 Mg55 3.164051 1_545
Mg49 Mg53 3.164052 1_545
Mg49 Mg50 3.164052 1_555
Mg49 Mg52 3.164059 1_445
Mg49 Mg54 3.164060 1_445
Mg49 Mg96 3.218490 1_445
Mg49 Mg74 3.218490 1_555
Mg49 Mg95 3.218490 1_545
Mg50 Mg51 3.154428 1_555
Mg50 Mg54 3.173681 1_445
Mg50 Mg62 3.188538 1_555
Mg50 Mg57 3.197777 1_555
Mg50 Mg71 3.199802 1_455
Mg50 Mg74 3.209268 1_555
Mg50 Mg76 3.220898 1_455
Mg50 Mg79 3.224061 1_555
Mg51 Mg55 3.173666 1_545
Mg51 Mg62 3.188531 1_555
Mg51 Mg56 3.197776 1_555
Mg51 Mg72 3.199802 1_555
Mg51 Mg74 3.209268 1_555
Mg51 Mg75 3.220898 1_555
Mg51 Mg80 3.224061 1_555
Mg52 Mg54 3.154413 1_555
Mg52 Mg53 3.173681 1_655
Mg52 Mg64 3.188514 1_555
Mg52 Mg58 3.197768 1_555
Mg52 Mg73 3.199811 1_555
Mg52 Mg96 3.209268 1_555
Mg52 Mg93 3.220914 1_555
Mg52 Mg92 3.224053 1_555
Mg53 Mg55 3.154428 1_555
Mg53 Mg63 3.188546 1_555
Mg53 Mg59 3.197777 1_555
Mg53 Mg73 3.199802 1_455
Mg53 Mg95 3.209268 1_555
Mg53 Mg93 3.220898 1_455
Mg53 Mg91 3.224061 1_555
Mg54 Mg64 3.188522 1_555
Mg54 Mg61 3.197768 1_555
Mg54 Mg71 3.199811 1_565
Mg54 Mg96 3.209268 1_555
Mg54 Mg76 3.220906 1_565
Mg54 Mg98 3.224053 1_555
Mg55 Mg63 3.188547 1_555
Mg55 Mg60 3.197776 1_555
Mg55 Mg72 3.199802 1_565
Mg55 Mg95 3.209268 1_555
Mg55 Mg75 3.220898 1_565
Mg55 Mg97 3.224069 1_555
Mg56 Mg62 3.177657 1_555
Mg56 Mg72 3.184142 1_555
Mg56 Mg66 3.188211 1_555
Mg56 Mg69 3.189354 1_555
Mg56 Mg80 3.198748 1_555
Mg56 Mg83 3.203079 1_555
Mg56 Mg85 3.205091 1_555
Mg56 Mg58 3.206544 1_555
Mg57 Mg62 3.177673 1_555
Mg57 Mg71 3.184141 1_455
Mg57 Mg65 3.188210 1_555
Mg57 Mg70 3.189338 1_455
Mg57 Mg79 3.198748 1_555
Mg57 Mg82 3.203071 1_455
Mg57 Mg86 3.205091 1_555
Mg57 Mg59 3.206545 1_555
Mg58 Mg64 3.177658 1_555
Mg58 Mg73 3.184141 1_555
Mg58 Mg66 3.188210 1_555
Mg58 Mg69 3.189355 1_555
Mg58 Mg92 3.198748 1_555
Mg58 Mg88 3.203071 1_555
Mg58 Mg85 3.205091 1_555
Mg59 Mg63 3.177665 1_555
Mg59 Mg73 3.184141 1_455
Mg59 Mg65 3.188210 1_555
Mg59 Mg70 3.189346 1_455
Mg59 Mg91 3.198748 1_555
Mg59 Mg87 3.203071 1_455
Mg59 Mg86 3.205091 1_555
Mg60 Mg63 3.177665 1_555
Mg60 Mg72 3.184142 1_565
Mg60 Mg67 3.188211 1_555
Mg60 Mg68 3.189346 1_565
Mg60 Mg97 3.198748 1_555
Mg60 Mg78 3.203071 1_565
Mg60 Mg94 3.205091 1_555
Mg60 Mg61 3.206544 1_555
Mg61 Mg64 3.177674 1_555
Mg61 Mg71 3.184141 1_565
Mg61 Mg67 3.188210 1_555
Mg61 Mg68 3.189339 1_565
Mg61 Mg98 3.198748 1_555
Mg61 Mg77 3.203071 1_565
Mg61 Mg94 3.205091 1_555
Mg62 Mg66 3.189806 1_555
Mg62 Mg65 3.189815 1_555
Mg62 Mg84 3.199016 1_555
Mg62 Mg80 3.202039 1_555
Mg62 Mg79 3.202047 1_555
Mg63 Mg67 3.189798 1_555
Mg63 Mg65 3.189799 1_555
Mg63 Mg89 3.199008 1_555
Mg63 Mg97 3.202039 1_555
Mg63 Mg91 3.202047 1_555
Mg64 Mg66 3.189806 1_555
Mg64 Mg67 3.189814 1_555
Mg64 Mg90 3.199016 1_555
Mg64 Mg92 3.202039 1_555
Mg64 Mg98 3.202047 1_555
Mg65 Mg67 3.185506 1_555
Mg65 Mg66 3.185506 1_555
Mg65 Mg84 3.197346 1_555
Mg65 Mg89 3.197346 1_555
Mg65 Mg86 3.197642 1_555
Mg66 Mg67 3.185507 1_555
Mg66 Mg90 3.197346 1_555
Mg66 Mg84 3.197354 1_555
Mg66 Mg85 3.197642 1_555
Mg67 Mg89 3.197354 1_555
Mg67 Mg90 3.197354 1_555
Mg67 Mg94 3.197642 1_555
Mg68 Mg78 3.187476 1_555
Mg68 Mg77 3.187476 1_555
Mg68 Mg71 3.188293 1_555
Mg68 Mg72 3.188309 1_555
Mg68 Mg81 3.192676 1_555
Mg68 Mg70 3.196114 1_555
Mg68 Mg69 3.196115 1_555
Mg69 Mg83 3.187476 1_555
Mg69 Mg88 3.187484 1_555
Mg69 Mg73 3.188301 1_555
Mg69 Mg72 3.188301 1_555
Mg69 Mg81 3.192676 1_555
Mg69 Mg70 3.196114 1_555
Mg70 Mg87 3.187476 1_555
Mg70 Mg82 3.187476 1_555
Mg70 Mg71 3.188294 1_555
Mg70 Mg73 3.188309 1_555
Mg70 Mg81 3.192676 1_555
Mg71 Mg77 3.188922 1_555
Mg71 Mg82 3.188923 1_555
Mg71 Mg76 3.191330 1_555
Mg72 Mg83 3.188923 1_555
Mg72 Mg78 3.188931 1_555
Mg72 Mg75 3.191329 1_555
Mg73 Mg88 3.188922 1_555
Mg73 Mg87 3.188931 1_555
Mg73 Mg93 3.191322 1_555
Mg74 Mg76 3.177130 1_455
Mg74 Mg75 3.177130 1_555
Mg74 Mg96 3.179664 1_445
Mg74 Mg95 3.179665 1_545
Mg74 Mg80 3.180301 1_555
Mg74 Mg79 3.180302 1_555
Mg75 Mg80 3.177043 1_555
Mg75 Mg97 3.177059 1_545
Mg75 Mg95 3.177130 1_545
Mg75 Mg83 3.196259 1_555
Mg75 Mg78 3.196267 1_555
Mg76 Mg98 3.177042 1_545
Mg76 Mg79 3.177042 1_655
Mg76 Mg96 3.177131 1_545
Mg76 Mg99 3.191330 1_555
Mg76 Mg77 3.196251 1_555
Mg76 Mg82 3.196252 1_555
Mg77 Mg94 3.180770 1_545
Mg77 Mg78 3.183254 1_555
Mg77 Mg98 3.185005 1_545
Mg77 Mg81 3.186933 1_555
Mg77 Mg99 3.188922 1_555
Mg77 Mg82 3.190610 1_555
Mg78 Mg94 3.180763 1_545
Mg78 Mg97 3.185020 1_545
Mg78 Mg81 3.186932 1_555
Mg78 Mg83 3.190611 1_555
Mg79 Mg82 3.185004 1_455
Mg79 Mg80 3.186187 1_555
Mg79 Mg84 3.189246 1_555
Mg79 Mg86 3.194883 1_555
Mg80 Mg83 3.185020 1_555
Mg80 Mg84 3.189255 1_555
Mg80 Mg85 3.194882 1_555
Mg81 Mg87 3.186932 1_555
Mg81 Mg83 3.186932 1_555
Mg81 Mg82 3.186933 1_555
Mg81 Mg88 3.186949 1_555
Mg82 Mg86 3.180770 1_655
Mg82 Mg87 3.183254 1_555
Mg82 Mg99 3.188923 1_555
Mg83 Mg85 3.180778 1_555
Mg83 Mg88 3.183261 1_555
Mg84 Mg86 3.188935 1_555
Mg84 Mg85 3.188951 1_555
Mg84 Mg89 3.197444 1_555
Mg84 Mg90 3.197451 1_555
Mg85 Mg88 3.180770 1_555
Mg85 Mg90 3.188936 1_555
Mg85 Mg92 3.194882 1_555
Mg86 Mg87 3.180762 1_455
Mg86 Mg89 3.188935 1_555
Mg86 Mg91 3.194883 1_555
Mg87 Mg91 3.185012 1_655
Mg87 Mg88 3.190618 1_555
Mg87 Mg93 3.196252 1_555
Mg88 Mg92 3.185005 1_555
Mg88 Mg93 3.196243 1_555
Mg89 Mg94 3.188951 1_555
Mg89 Mg97 3.189239 1_555
Mg89 Mg91 3.189246 1_555
Mg89 Mg90 3.197459 1_555
Mg90 Mg94 3.188951 1_555
Mg90 Mg92 3.189246 1_555
Mg90 Mg98 3.189254 1_555
Mg91 Mg93 3.177034 1_455
Mg91 Mg95 3.180302 1_555
Mg91 Mg97 3.186179 1_555
Mg92 Mg93 3.177050 1_555
Mg92 Mg96 3.180301 1_555
Mg92 Mg98 3.186188 1_555
Mg93 Mg95 3.177138 1_655
Mg93 Mg96 3.177147 1_555
Mg94 Mg97 3.194875 1_555
Mg94 Mg98 3.194882 1_555
Mg95 Mg96 3.179664 1_455
Mg95 Mg97 3.180309 1_555
Mg96 Mg98 3.180301 1_555
Mg100 Mg124 3.165147 1_555
Mg100 Mg115 3.184142 1_545
Mg100 Mg111 3.184142 1_555
Mg100 Mg103 3.188301 1_555
Mg100 Mg102 3.188309 1_555
Mg100 Mg83 3.188923 1_555
Mg100 Mg78 3.188931 1_555
Mg100 Mg75 3.191329 1_555
Mg100 Mg122 3.199802 1_545
Mg100 Mg118 3.199802 1_555
Mg100 Mg130 3.199962 1_555
Mg100 Mg129 3.199970 1_555
Mg101 Mg126 3.165139 1_555
Mg101 Mg114 3.184141 1_655
Mg101 Mg113 3.184141 1_555
Mg101 Mg103 3.188301 1_555
Mg101 Mg104 3.188309 1_555
Mg101 Mg88 3.188922 1_555
Mg101 Mg87 3.188931 1_555
Mg101 Mg93 3.191322 1_555
Mg101 Mg120 3.199802 1_655
Mg101 Mg119 3.199811 1_555
Mg101 Mg133 3.199970 1_555
Mg101 Mg132 3.199970 1_555
Mg102 Mg128 3.187190 1_555
Mg102 Mg129 3.187198 1_555
Mg102 Mg78 3.187489 1_555
Mg102 Mg77 3.187489 1_555
Mg102 Mg99 3.188293 1_555
Mg102 Mg116 3.189339 1_545
Mg102 Mg115 3.189346 1_545
Mg102 Mg81 3.192689 1_555
Mg102 Mg104 3.196114 1_555
Mg102 Mg103 3.196115 1_555
Mg102 Mg127 3.196361 1_555
Mg103 Mg130 3.187198 1_555
Mg103 Mg133 3.187206 1_555
Mg103 Mg83 3.187489 1_555
Mg103 Mg88 3.187497 1_555
Mg103 Mg111 3.189354 1_555
Mg103 Mg113 3.189355 1_555
Mg103 Mg81 3.192689 1_555
Mg103 Mg104 3.196114 1_555
Mg103 Mg127 3.196361 1_555
Mg104 Mg131 3.187190 1_555
Mg104 Mg132 3.187198 1_555
Mg104 Mg87 3.187489 1_555
Mg104 Mg82 3.187489 1_555
Mg104 Mg99 3.188294 1_555
Mg104 Mg112 3.189338 1_655
Mg104 Mg114 3.189346 1_655
Mg104 Mg81 3.192689 1_555
Mg104 Mg127 3.196360 1_555
Mg105 Mg107 3.185506 1_555
Mg105 Mg106 3.185506 1_555
Mg105 Mg112 3.188210 1_555
Mg105 Mg114 3.188210 1_555
Mg105 Mg109 3.189799 1_555
Mg105 Mg108 3.189815 1_555
Mg105 Mg84 3.197346 1_555
Mg105 Mg89 3.197346 1_555
Mg105 Mg86 3.197642 1_555
Mg105 Mg138 3.199933 1_555
Mg105 Mg135 3.201803 1_555
Mg105 Mg134 3.201803 1_555
Mg106 Mg107 3.185507 1_555
Mg106 Mg113 3.188210 1_555
Mg106 Mg111 3.188211 1_555
Mg106 Mg110 3.189806 1_555
Mg106 Mg108 3.189806 1_555
Mg106 Mg90 3.197346 1_555
Mg106 Mg84 3.197354 1_555
Mg106 Mg85 3.197642 1_555
Mg106 Mg137 3.199941 1_555
Mg106 Mg134 3.201803 1_555
Mg106 Mg136 3.201803 1_555
Mg107 Mg116 3.188210 1_555
Mg107 Mg115 3.188211 1_555
Mg107 Mg109 3.189798 1_555
Mg107 Mg110 3.189814 1_555
Mg107 Mg89 3.197354 1_555
Mg107 Mg90 3.197354 1_555
Mg107 Mg94 3.197642 1_555
Mg107 Mg139 3.199941 1_555
Mg107 Mg135 3.201803 1_555
Mg107 Mg136 3.201803 1_555
Mg108 Mg111 3.177657 1_555
Mg108 Mg112 3.177673 1_555
Mg108 Mg134 3.188053 1_555
Mg108 Mg118 3.188530 1_555
Mg108 Mg117 3.188538 1_555
Mg108 Mg84 3.199016 1_555
Mg108 Mg80 3.202039 1_555
Mg108 Mg79 3.202047 1_555
Mg108 Mg141 3.210259 1_555
Mg108 Mg140 3.210275 1_555
Mg109 Mg114 3.177665 1_555
Mg109 Mg115 3.177665 1_555
Mg109 Mg135 3.188045 1_555
Mg109 Mg120 3.188546 1_555
Mg109 Mg122 3.188547 1_555
Mg109 Mg89 3.199008 1_555
Mg109 Mg97 3.202039 1_555
Mg109 Mg91 3.202047 1_555
Mg109 Mg145 3.210267 1_555
Mg109 Mg142 3.210275 1_555
Mg110 Mg113 3.177658 1_555
Mg110 Mg116 3.177674 1_555
Mg110 Mg136 3.188053 1_555
Mg110 Mg119 3.188514 1_555
Mg110 Mg121 3.188522 1_555
Mg110 Mg90 3.199016 1_555
Mg110 Mg92 3.202039 1_555
Mg110 Mg98 3.202047 1_555
Mg110 Mg143 3.210259 1_555
Mg110 Mg144 3.210267 1_555
Mg111 Mg130 3.187460 1_555
Mg111 Mg137 3.195625 1_555
Mg111 Mg118 3.197776 1_555
Mg111 Mg80 3.198748 1_555
Mg111 Mg83 3.203079 1_555
Mg111 Mg85 3.205091 1_555
Mg111 Mg113 3.206544 1_555
Mg111 Mg141 3.213611 1_555
Mg112 Mg99 3.184141 1_455
Mg112 Mg131 3.187452 1_455
Mg112 Mg138 3.195625 1_555
Mg112 Mg117 3.197777 1_555
Mg112 Mg79 3.198748 1_555
Mg112 Mg82 3.203071 1_455
Mg112 Mg86 3.205091 1_555
Mg112 Mg114 3.206545 1_555
Mg112 Mg140 3.213604 1_555
Mg113 Mg133 3.187444 1_555
Mg113 Mg137 3.195624 1_555
Mg113 Mg119 3.197768 1_555
Mg113 Mg92 3.198748 1_555
Mg113 Mg88 3.203071 1_555
Mg113 Mg85 3.205091 1_555
Mg113 Mg143 3.213612 1_555
Mg114 Mg132 3.187452 1_455
Mg114 Mg138 3.195633 1_555
Mg114 Mg120 3.197777 1_555
Mg114 Mg91 3.198748 1_555
Mg114 Mg87 3.203071 1_455
Mg114 Mg86 3.205091 1_555
Mg114 Mg142 3.213612 1_555
Mg115 Mg129 3.187452 1_565
Mg115 Mg139 3.195625 1_555
Mg115 Mg122 3.197776 1_555
Mg115 Mg97 3.198748 1_555
Mg115 Mg78 3.203071 1_565
Mg115 Mg94 3.205091 1_555
Mg115 Mg116 3.206544 1_555
Mg115 Mg145 3.213611 1_555
Mg116 Mg99 3.184141 1_565
Mg116 Mg128 3.187452 1_565
Mg116 Mg139 3.195624 1_555
Mg116 Mg121 3.197768 1_555
Mg116 Mg98 3.198748 1_555
Mg116 Mg77 3.203071 1_565
Mg116 Mg94 3.205091 1_555
Mg116 Mg144 3.213612 1_555
Mg117 Mg118 3.154428 1_555
Mg117 Mg123 3.164052 1_555
Mg117 Mg125 3.166753 1_455
Mg117 Mg140 3.167636 1_555
Mg117 Mg121 3.173681 1_445
Mg117 Mg99 3.199802 1_455
Mg117 Mg74 3.209255 1_555
Mg117 Mg76 3.220885 1_455
Mg117 Mg79 3.224048 1_555
Mg117 Mg146 3.317812 1_555
Mg118 Mg123 3.164051 1_555
Mg118 Mg124 3.166745 1_555
Mg118 Mg141 3.167636 1_555
Mg118 Mg122 3.173666 1_545
Mg118 Mg74 3.209255 1_555
Mg118 Mg75 3.220885 1_555
Mg118 Mg80 3.224048 1_555
Mg118 Mg146 3.317812 1_555
Mg119 Mg121 3.154413 1_555
Mg119 Mg123 3.164059 1_665
Mg119 Mg126 3.166761 1_555
Mg119 Mg143 3.167628 1_555
Mg119 Mg120 3.173681 1_655
Mg119 Mg96 3.209255 1_555
Mg119 Mg93 3.220901 1_555
Mg119 Mg92 3.224040 1_555
Mg119 Mg147 3.317813 1_555
Mg120 Mg122 3.154428 1_555
Mg120 Mg123 3.164052 1_565
Mg120 Mg126 3.166753 1_455
Mg120 Mg142 3.167628 1_555
Mg120 Mg95 3.209255 1_555
Mg120 Mg93 3.220885 1_455
Mg120 Mg91 3.224048 1_555
Mg120 Mg148 3.317812 1_555
Mg121 Mg123 3.164060 1_665
Mg121 Mg125 3.166761 1_565
Mg121 Mg144 3.167628 1_555
Mg121 Mg99 3.199811 1_565
Mg121 Mg96 3.209255 1_555
Mg121 Mg76 3.220893 1_565
Mg121 Mg98 3.224040 1_555
Mg121 Mg147 3.317820 1_555
Mg122 Mg123 3.164051 1_565
Mg122 Mg124 3.166753 1_565
Mg122 Mg145 3.167636 1_555
Mg122 Mg95 3.209255 1_555
Mg122 Mg75 3.220885 1_565
Mg122 Mg97 3.224056 1_555
Mg122 Mg148 3.317812 1_555
Mg123 Mg96 3.218490 1_445
Mg123 Mg74 3.218490 1_555
Mg123 Mg95 3.218490 1_545
Mg123 Mg147 3.240976 1_445
Mg123 Mg148 3.240983 1_545
Mg123 Mg146 3.240983 1_555
Mg124 Mg141 3.154036 1_555
Mg124 Mg145 3.154052 1_545
Mg124 Mg7 3.162105 1_556
Mg124 Mg130 3.164109 1_555
Mg124 Mg129 3.164125 1_555
Mg124 Mg5 3.201689 1_556
Mg124 Mg3 3.201697 1_556
Mg124 Mg146 3.223192 1_555
Mg124 Mg148 3.223199 1_545
Mg125 Mg140 3.154035 1_655
Mg125 Mg144 3.154043 1_545
Mg125 Mg6 3.162098 1_556
Mg125 Mg128 3.164109 1_555
Mg125 Mg131 3.164110 1_555
Mg125 Mg99 3.165139 1_555
Mg125 Mg4 3.201698 1_556
Mg125 Mg2 3.201698 1_556
Mg125 Mg146 3.223208 1_655
Mg125 Mg147 3.223217 1_545
Mg126 Mg142 3.154027 1_655
Mg126 Mg143 3.154043 1_555
Mg126 Mg18 3.162098 1_556
Mg126 Mg133 3.164101 1_555
Mg126 Mg132 3.164110 1_555
Mg126 Mg23 3.201698 1_556
Mg126 Mg22 3.201698 1_556
Mg126 Mg147 3.223201 1_555
Mg126 Mg148 3.223208 1_655
Mg127 Mg131 3.176931 1_555
Mg127 Mg128 3.176932 1_555
Mg127 Mg132 3.176939 1_555
Mg127 Mg129 3.176939 1_555
Mg127 Mg130 3.176939 1_555
Mg127 Mg133 3.176964 1_555
Mg127 Mg13 3.197407 1_556
Mg127 Mg8 3.197407 1_556
Mg128 Mg129 3.170067 1_555
Mg128 Mg131 3.183805 1_555
Mg128 Mg8 3.183917 1_556
Mg128 Mg139 3.185377 1_545
Mg128 Mg99 3.199970 1_555
Mg128 Mg6 3.204637 1_556
Mg128 Mg144 3.205599 1_545
Mg129 Mg130 3.183790 1_555
Mg129 Mg8 3.183908 1_556
Mg129 Mg139 3.185378 1_545
Mg129 Mg7 3.204637 1_556
Mg129 Mg145 3.205598 1_545
Mg130 Mg133 3.170083 1_555
Mg130 Mg137 3.185394 1_555
Mg130 Mg7 3.204637 1_556
Mg130 Mg141 3.205606 1_555
Mg131 Mg132 3.170068 1_555
Mg131 Mg138 3.185385 1_655
Mg131 Mg99 3.199970 1_555
Mg131 Mg6 3.204645 1_556
Mg131 Mg140 3.205582 1_655
Mg132 Mg133 3.183813 1_555
Mg132 Mg138 3.185393 1_655
Mg132 Mg16 3.192789 1_556
Mg132 Mg18 3.204645 1_556
Mg132 Mg142 3.205590 1_655
Mg133 Mg137 3.185369 1_555
Mg133 Mg17 3.192773 1_556
Mg133 Mg18 3.204637 1_556
Mg133 Mg143 3.205583 1_555
Mg134 Mg138 3.187779 1_555
Mg134 Mg137 3.187795 1_555
Mg134 Mg15 3.187830 1_556
Mg134 Mg14 3.187830 1_556
Mg134 Mg141 3.207371 1_555
Mg134 Mg140 3.207378 1_555
Mg134 Mg9 3.207457 1_556
Mg134 Mg136 3.209220 1_555
Mg134 Mg135 3.209221 1_555
Mg135 Mg138 3.187787 1_555
Mg135 Mg139 3.187795 1_555
Mg135 Mg19 3.187830 1_556
Mg135 Mg14 3.187830 1_556
Mg135 Mg145 3.207371 1_555
Mg135 Mg142 3.207386 1_555
Mg135 Mg21 3.207449 1_556
Mg135 Mg136 3.209220 1_555
Mg136 Mg137 3.187796 1_555
Mg136 Mg139 3.187796 1_555
Mg136 Mg15 3.187830 1_556
Mg136 Mg19 3.187830 1_556
Mg136 Mg144 3.207370 1_555
Mg136 Mg143 3.207370 1_555
Mg136 Mg20 3.207456 1_556
Mg137 Mg15 3.178649 1_556
Mg137 Mg17 3.201636 1_556
Mg137 Mg143 3.228977 1_555
Mg137 Mg141 3.228977 1_555
Mg138 Mg14 3.178641 1_556
Mg138 Mg16 3.201636 1_456
Mg138 Mg140 3.228963 1_555
Mg138 Mg142 3.228994 1_555
Mg139 Mg19 3.178649 1_556
Mg139 Mg145 3.228977 1_555
Mg139 Mg144 3.228978 1_555
Mg140 Mg9 3.162643 1_556
Mg140 Mg141 3.165875 1_555
Mg140 Mg146 3.238539 1_555
Mg140 Mg4 3.251801 1_456
Mg141 Mg9 3.162628 1_556
Mg141 Mg146 3.238530 1_555
Mg141 Mg5 3.251800 1_556
Mg142 Mg21 3.162643 1_556
Mg142 Mg145 3.165867 1_555
Mg142 Mg16 3.171193 1_456
Mg142 Mg148 3.238523 1_555
Mg142 Mg23 3.251792 1_456
Mg143 Mg20 3.162628 1_556
Mg143 Mg144 3.165860 1_555
Mg143 Mg17 3.171193 1_556
Mg143 Mg147 3.238538 1_555
Mg143 Mg22 3.251800 1_556
Mg144 Mg20 3.162636 1_556
Mg144 Mg147 3.238546 1_555
Mg144 Mg2 3.251800 1_566
Mg145 Mg21 3.162635 1_556
Mg145 Mg148 3.238530 1_555
Mg145 Mg3 3.251801 1_566
Ir0 Mg25 2.995399 1_445
Ir0 Mg147 2.995399 1_444
Ir0 Mg26 2.995407 1_545
Ir0 Mg148 2.995407 1_544
Ir0 Mg24 2.995407 1_555
Ir0 Mg146 2.995407 1_554
Ir0 Mg5 2.998367 1_555
Ir0 Mg22 2.998367 1_445
Ir0 Mg3 2.998367 1_555
Ir0 Mg2 2.998367 1_455
Ir0 Mg23 2.998368 1_445
Ir0 Mg4 2.998368 1_455
