# generated using pymatgen
data_CdPb3
_symmetry_space_group_name_H-M   'P 1'
_cell_length_a   6.11701523
_cell_length_b   6.11701523
_cell_length_c   6.11701523
_cell_angle_alpha   133.82128770
_cell_angle_beta   133.82128770
_cell_angle_gamma   67.36727384
_symmetry_Int_Tables_number   1
_chemical_formula_structural   CdPb3
_chemical_formula_sum   'Cd1 Pb3'
_cell_volume   117.16587595
_cell_formula_units_Z   1
loop_
 _symmetry_equiv_pos_site_id
 _symmetry_equiv_pos_as_xyz
  1  'x, y, z'
loop_
 _atom_site_type_symbol
 _atom_site_label
 _atom_site_symmetry_multiplicity
 _atom_site_fract_x
 _atom_site_fract_y
 _atom_site_fract_z
 _atom_site_occupancy
  Cd  Cd0  1  0.00000000  0.00000000  0.00000000  1
  Pb  Pb0  1  0.75000000  0.25000000  0.50000000  1
  Pb  Pb1  1  0.25000000  0.75000000  0.50000000  1
  Pb  Pb2  1  0.50000000  0.50000000  0.00000000  1
loop_
_geom_bond_atom_site_label_1
_geom_bond_atom_site_label_2
_geom_bond_distance
_geom_bond_site_symmetry_2
Cd0 Pb2 3.392538 1_444
Cd0 Pb2 3.392538 1_455
Cd0 Pb2 3.392538 1_545
Cd0 Pb2 3.392538 1_556
Cd0 Pb0 3.497399 1_555
Cd0 Pb1 3.497399 1_444
Cd0 Pb1 3.497399 1_544
Cd0 Pb1 3.497399 1_545
Cd0 Pb1 3.497399 1_555
Cd0 Pb0 3.497399 1_454
Cd0 Pb0 3.497399 1_455
Cd0 Pb0 3.497399 1_444
Pb0 Pb1 3.392538 1_656
Pb0 Pb1 3.392538 1_544
Pb0 Pb1 3.392538 1_555
Pb0 Pb1 3.392538 1_645
Pb0 Pb2 3.497399 1_656
Pb0 Pb2 3.497399 1_555
Pb0 Pb2 3.497399 1_545
Pb0 Pb2 3.497399 1_556
Pb1 Pb2 3.497399 1_455
Pb1 Pb2 3.497399 1_555
Pb1 Pb2 3.497399 1_566
Pb1 Pb2 3.497399 1_556
