# generated using pymatgen
data_BaGd2CuO5
_symmetry_space_group_name_H-M   'P 1'
_cell_length_a   12.37670600
_cell_length_b   5.76715800
_cell_length_c   7.33729400
_cell_angle_alpha   90.00000000
_cell_angle_beta   90.00000000
_cell_angle_gamma   90.00000000
_symmetry_Int_Tables_number   1
_chemical_formula_structural   BaGd2CuO5
_chemical_formula_sum   'Ba4 Gd8 Cu4 O20'
_cell_volume   523.72444562
_cell_formula_units_Z   4
loop_
 _symmetry_equiv_pos_site_id
 _symmetry_equiv_pos_as_xyz
  1  'x, y, z'
loop_
 _atom_site_type_symbol
 _atom_site_label
 _atom_site_symmetry_multiplicity
 _atom_site_fract_x
 _atom_site_fract_y
 _atom_site_fract_z
 _atom_site_occupancy
  Ba  Ba0  1  0.40617100  0.25000000  0.57217100  1
  Ba  Ba1  1  0.90617100  0.25000000  0.92782900  1
  Ba  Ba2  1  0.59382900  0.75000000  0.42782900  1
  Ba  Ba3  1  0.09382900  0.75000000  0.07217100  1
  Gd  Gd0  1  0.78764300  0.25000000  0.38513000  1
  Gd  Gd1  1  0.28764300  0.25000000  0.11487000  1
  Gd  Gd2  1  0.21235700  0.75000000  0.61487000  1
  Gd  Gd3  1  0.71235700  0.75000000  0.88513000  1
  Gd  Gd4  1  0.57411400  0.25000000  0.10380600  1
  Gd  Gd5  1  0.07411400  0.25000000  0.39619400  1
  Gd  Gd6  1  0.42588600  0.75000000  0.89619400  1
  Gd  Gd7  1  0.92588600  0.75000000  0.60380600  1
  Cu  Cu0  1  0.16095700  0.25000000  0.78349500  1
  Cu  Cu1  1  0.66095700  0.25000000  0.71650500  1
  Cu  Cu2  1  0.83904300  0.75000000  0.21650500  1
  Cu  Cu3  1  0.33904300  0.75000000  0.28349500  1
  O  O0  1  0.93267900  0.99209500  0.33384200  1
  O  O1  1  0.43267900  0.50790500  0.16615800  1
  O  O2  1  0.06732100  0.49209500  0.66615800  1
  O  O3  1  0.56732100  0.00790500  0.83384200  1
  O  O4  1  0.06732100  0.00790500  0.66615800  1
  O  O5  1  0.56732100  0.49209500  0.83384200  1
  O  O6  1  0.93267900  0.50790500  0.33384200  1
  O  O7  1  0.43267900  0.99209500  0.16615800  1
  O  O8  1  0.72756300  0.50594100  0.14545500  1
  O  O9  1  0.22756300  0.99405900  0.35454500  1
  O  O10  1  0.27243700  0.00594100  0.85454500  1
  O  O11  1  0.77243700  0.49405900  0.64545500  1
  O  O12  1  0.27243700  0.49405900  0.85454500  1
  O  O13  1  0.77243700  0.00594100  0.64545500  1
  O  O14  1  0.72756300  0.99405900  0.14545500  1
  O  O15  1  0.22756300  0.50594100  0.35454500  1
  O  O16  1  0.59989500  0.25000000  0.41750800  1
  O  O17  1  0.09989500  0.25000000  0.08249200  1
  O  O18  1  0.40010500  0.75000000  0.58249200  1
  O  O19  1  0.90010500  0.75000000  0.91750800  1
loop_
_geom_bond_atom_site_label_1
_geom_bond_atom_site_label_2
_geom_bond_distance
_geom_bond_site_symmetry_2
Ba0 O16 2.652656 1_555
Ba0 O18 2.885550 1_545
Ba0 O18 2.885550 1_555
Ba0 O12 3.002230 1_555
Ba0 O10 3.002230 1_555
Ba0 O5 3.100591 1_555
Ba0 O3 3.100591 1_555
Ba0 O15 3.100825 1_555
Ba0 O9 3.100825 1_545
Ba0 O1 3.345832 1_555
Ba0 O7 3.345832 1_545
Ba1 O17 2.652656 1_656
Ba1 O19 2.885550 1_555
Ba1 O19 2.885550 1_545
Ba1 O11 3.002230 1_555
Ba1 O13 3.002230 1_555
Ba1 O2 3.100591 1_655
Ba1 O4 3.100591 1_655
Ba1 O8 3.100825 1_556
Ba1 O14 3.100825 1_546
Ba1 O6 3.345832 1_556
Ba1 O0 3.345832 1_546
Ba2 O18 2.652656 1_555
Ba2 O16 2.885550 1_565
Ba2 O16 2.885550 1_555
Ba2 O14 3.002230 1_555
Ba2 O8 3.002230 1_555
Ba2 O7 3.100591 1_555
Ba2 O1 3.100591 1_555
Ba2 O13 3.100825 1_565
Ba2 O11 3.100825 1_555
Ba2 O3 3.345832 1_565
Ba2 O5 3.345832 1_555
Ba3 O19 2.652656 1_454
Ba3 O17 2.885550 1_555
Ba3 O17 2.885550 1_565
Ba3 O9 3.002230 1_555
Ba3 O15 3.002230 1_555
Ba3 O0 3.100591 1_455
Ba3 O6 3.100591 1_455
Ba3 O10 3.100825 1_564
Ba3 O12 3.100825 1_554
Ba3 O4 3.345832 1_564
Ba3 O2 3.345832 1_554
Gd0 O16 2.335814 1_555
Gd0 O6 2.361393 1_555
Gd0 O0 2.361393 1_545
Gd0 O11 2.380118 1_555
Gd0 O13 2.380118 1_555
Gd0 O8 2.413341 1_555
Gd0 O14 2.413341 1_545
Gd1 O17 2.335814 1_555
Gd1 O1 2.361393 1_555
Gd1 O7 2.361393 1_545
Gd1 O12 2.380118 1_554
Gd1 O10 2.380118 1_554
Gd1 O15 2.413341 1_555
Gd1 O9 2.413341 1_545
Gd2 O18 2.335814 1_555
Gd2 O4 2.361393 1_565
Gd2 O2 2.361393 1_555
Gd2 O9 2.380118 1_555
Gd2 O15 2.380118 1_555
Gd2 O10 2.413341 1_565
Gd2 O12 2.413341 1_555
Gd3 O19 2.335814 1_555
Gd3 O3 2.361393 1_565
Gd3 O5 2.361393 1_555
Gd3 O14 2.380118 1_556
Gd3 O8 2.380118 1_556
Gd3 O13 2.413341 1_565
Gd3 O11 2.413341 1_555
Gd4 O16 2.323736 1_555
Gd4 O1 2.342188 1_555
Gd4 O7 2.342188 1_545
Gd4 O8 2.424675 1_555
Gd4 O14 2.424675 1_545
Gd4 O5 2.424878 1_554
Gd4 O3 2.424878 1_554
Gd5 O17 2.323736 1_555
Gd5 O6 2.342188 1_455
Gd5 O0 2.342188 1_445
Gd5 O15 2.424675 1_555
Gd5 O9 2.424675 1_545
Gd5 O2 2.424878 1_555
Gd5 O4 2.424878 1_555
Gd6 O18 2.323736 1_555
Gd6 O3 2.342188 1_565
Gd6 O5 2.342188 1_555
Gd6 O10 2.424675 1_565
Gd6 O12 2.424675 1_555
Gd6 O7 2.424878 1_556
Gd6 O1 2.424878 1_556
Gd7 O19 2.323736 1_555
Gd7 O4 2.342188 1_665
Gd7 O2 2.342188 1_655
Gd7 O13 2.424675 1_565
Gd7 O11 2.424675 1_555
Gd7 O0 2.424878 1_555
Gd7 O6 2.424878 1_555
Cu0 O2 2.008394 1_555
Cu0 O4 2.008394 1_555
Cu0 O12 2.038780 1_555
Cu0 O10 2.038780 1_555
Cu0 O17 2.320353 1_556
Cu1 O5 2.008394 1_555
Cu1 O3 2.008394 1_555
Cu1 O11 2.038780 1_555
Cu1 O13 2.038780 1_555
Cu1 O16 2.320353 1_555
Cu2 O0 2.008394 1_555
Cu2 O6 2.008394 1_555
Cu2 O14 2.038780 1_555
Cu2 O8 2.038780 1_555
Cu2 O19 2.320353 1_554
Cu3 O7 2.008394 1_555
Cu3 O1 2.008394 1_555
Cu3 O9 2.038780 1_555
Cu3 O15 2.038780 1_555
Cu3 O18 2.320353 1_555
