# generated using pymatgen
data_Lu2MgSe4
_symmetry_space_group_name_H-M   'P 1'
_cell_length_a   7.45590422
_cell_length_b   7.45590422
_cell_length_c   7.45590422
_cell_angle_alpha   110.30752645
_cell_angle_beta   110.30752645
_cell_angle_gamma   107.81125294
_symmetry_Int_Tables_number   1
_chemical_formula_structural   Lu2MgSe4
_chemical_formula_sum   'Lu4 Mg2 Se8'
_cell_volume   318.86478486
_cell_formula_units_Z   2
loop_
 _symmetry_equiv_pos_site_id
 _symmetry_equiv_pos_as_xyz
  1  'x, y, z'
loop_
 _atom_site_type_symbol
 _atom_site_label
 _atom_site_symmetry_multiplicity
 _atom_site_fract_x
 _atom_site_fract_y
 _atom_site_fract_z
 _atom_site_occupancy
  Lu  Lu0  1  0.87500000  0.75688500  0.38188500  1
  Lu  Lu1  1  0.50688500  0.12500000  0.88188500  1
  Lu  Lu2  1  0.37500000  0.49311500  0.61811500  1
  Lu  Lu3  1  0.24311500  0.62500000  0.11811500  1
  Mg  Mg0  1  0.00000000  0.00000000  0.00000000  1
  Mg  Mg1  1  0.75000000  0.25000000  0.50000000  1
  Se  Se0  1  0.50884100  0.37950800  0.25982800  1
  Se  Se1  1  0.75098700  0.49115900  0.87066800  1
  Se  Se2  1  0.11968000  0.24901300  0.74017200  1
  Se  Se3  1  0.62049200  0.88032000  0.12933200  1
  Se  Se4  1  0.24115900  0.00098700  0.37066800  1
  Se  Se5  1  0.99901300  0.36968000  0.24017200  1
  Se  Se6  1  0.63032000  0.87049200  0.62933200  1
  Se  Se7  1  0.12950800  0.75884100  0.75982800  1
loop_
_geom_bond_atom_site_label_1
_geom_bond_atom_site_label_2
_geom_bond_distance
_geom_bond_site_symmetry_2
Lu0 Se7 2.790088 1_655
Lu0 Se3 2.790092 1_555
Lu0 Se4 2.827900 1_665
Lu0 Se0 2.827905 1_555
Lu0 Se6 3.105839 1_555
Lu0 Se2 3.105844 1_665
Lu0 Se1 3.240324 1_554
Lu0 Se5 3.240330 1_555
Lu1 Se0 2.790088 1_556
Lu1 Se6 2.790092 1_545
Lu1 Se1 2.827900 1_555
Lu1 Se7 2.827905 1_545
Lu1 Se3 3.105839 1_546
Lu1 Se5 3.105844 1_556
Lu1 Se4 3.240324 1_555
Lu1 Se2 3.240330 1_555
Lu2 Se5 2.790088 1_455
Lu2 Se1 2.790090 1_555
Lu2 Se2 2.827905 1_555
Lu2 Se6 2.827909 1_555
Lu2 Se4 3.105844 1_555
Lu2 Se0 3.105844 1_555
Lu2 Se3 3.240325 1_556
Lu2 Se7 3.240330 1_555
Lu3 Se2 2.790088 1_554
Lu3 Se4 2.790090 1_565
Lu3 Se5 2.827905 1_455
Lu3 Se3 2.827909 1_555
Lu3 Se1 3.105844 1_454
Lu3 Se7 3.105844 1_554
Lu3 Se6 3.240325 1_555
Lu3 Se0 3.240330 1_555
Mg0 Se7 2.720191 1_544
Mg0 Se5 2.720191 1_455
Mg0 Se6 2.720195 1_444
Mg0 Se4 2.720197 1_555
Mg0 Se3 3.267892 1_445
Mg0 Se0 3.267897 1_555
Mg0 Se2 3.267897 1_554
Mg0 Se1 3.267899 1_444
Mg1 Se0 2.720191 1_555
Mg1 Se2 2.720191 1_655
Mg1 Se3 2.720195 1_545
Mg1 Se1 2.720197 1_555
Mg1 Se6 3.267892 1_545
Mg1 Se5 3.267897 1_555
Mg1 Se7 3.267897 1_655
Mg1 Se4 3.267899 1_555
