# generated using pymatgen
data_Ba3MnF6
_symmetry_space_group_name_H-M   'P 1'
_cell_length_a   7.74229036
_cell_length_b   8.03518926
_cell_length_c   7.67441415
_cell_angle_alpha   121.48654667
_cell_angle_beta   66.10390574
_cell_angle_gamma   148.19410173
_symmetry_Int_Tables_number   1
_chemical_formula_structural   Ba3MnF6
_chemical_formula_sum   'Ba3 Mn1 F6'
_cell_volume   213.77739915
_cell_formula_units_Z   1
loop_
 _symmetry_equiv_pos_site_id
 _symmetry_equiv_pos_as_xyz
  1  'x, y, z'
loop_
 _atom_site_type_symbol
 _atom_site_label
 _atom_site_symmetry_multiplicity
 _atom_site_fract_x
 _atom_site_fract_y
 _atom_site_fract_z
 _atom_site_occupancy
  Ba  Ba0  1  0.50000000  0.00000000  0.00000000  1
  Ba  Ba1  1  0.00000000  0.50000000  0.50000000  1
  Ba  Ba2  1  0.00000000  0.00000000  0.50000000  1
  Mn  Mn0  1  0.00000000  0.00000000  0.00000000  1
  F  F0  1  0.75729000  0.94591900  0.27235800  1
  F  F1  1  0.24271000  0.05408100  0.72764200  1
  F  F2  1  0.61245900  0.69923000  0.77324400  1
  F  F3  1  0.38754100  0.30077000  0.22675600  1
  F  F4  1  0.92559100  0.63147300  0.91678500  1
  F  F5  1  0.07440900  0.36852700  0.08321500  1
loop_
_geom_bond_atom_site_label_1
_geom_bond_atom_site_label_2
_geom_bond_distance
_geom_bond_site_symmetry_2
Ba0 F5 2.626161 1_655
Ba0 F4 2.626161 1_444
Ba0 F2 2.753701 1_544
Ba0 F3 2.753701 1_555
Ba0 F5 3.205268 1_545
Ba0 F4 3.205268 1_554
Ba1 F0 2.592263 1_445
Ba1 F1 2.592263 1_565
Ba1 F4 2.773201 1_455
Ba1 F5 2.773201 1_555
Ba2 F3 2.666882 1_555
Ba2 F2 2.666882 1_445
Ba2 F0 2.692722 1_445
Ba2 F1 2.692722 1_555
Ba2 F3 2.985894 1_445
Ba2 F2 2.985894 1_555
F0 Mn0 2.113681 1_665
F1 Mn0 2.113681 1_556
F2 Mn0 2.320302 1_666
F3 Mn0 2.320302 1_555
F4 Mn0 2.220688 1_666
F5 Mn0 2.220688 1_555
