# generated using pymatgen
data_Cs3GaO3
_symmetry_space_group_name_H-M   'P 1'
_cell_length_a   7.19500460
_cell_length_b   7.19500460
_cell_length_c   7.24653397
_cell_angle_alpha   81.63623666
_cell_angle_beta   81.63623666
_cell_angle_gamma   114.97627377
_symmetry_Int_Tables_number   1
_chemical_formula_structural   Cs3GaO3
_chemical_formula_sum   'Cs6 Ga2 O6'
_cell_volume   327.36734064
_cell_formula_units_Z   2
loop_
 _symmetry_equiv_pos_site_id
 _symmetry_equiv_pos_as_xyz
  1  'x, y, z'
loop_
 _atom_site_type_symbol
 _atom_site_label
 _atom_site_symmetry_multiplicity
 _atom_site_fract_x
 _atom_site_fract_y
 _atom_site_fract_z
 _atom_site_occupancy
  Cs  Cs0  1  0.62880053  0.62880053  0.66202567  1
  Cs  Cs1  1  0.79858463  0.20141537  0.50000000  1
  Cs  Cs2  1  0.20141537  0.79858463  0.50000000  1
  Cs  Cs3  1  0.74059393  0.25940607  -0.00000000  1
  Cs  Cs4  1  0.25940607  0.74059393  -0.00000000  1
  Cs  Cs5  1  0.37119947  0.37119947  0.33797433  1
  Ga  Ga0  1  0.84206302  0.84206302  0.14962989  1
  Ga  Ga1  1  0.15793698  0.15793698  0.85037011  1
  O  O0  1  0.90286288  0.90286288  0.87157328  1
  O  O1  1  0.60009422  0.85109068  0.26589415  1
  O  O2  1  0.85109068  0.60009422  0.26589415  1
  O  O3  1  0.14890932  0.39990578  0.73410585  1
  O  O4  1  0.39990578  0.14890932  0.73410585  1
  O  O5  1  0.09713712  0.09713712  0.12842672  1
loop_
_geom_bond_atom_site_label_1
_geom_bond_atom_site_label_2
_geom_bond_distance
_geom_bond_site_symmetry_2
Cs0 O0 2.922496 1_555
Cs0 O3 3.054509 1_555
Cs0 O4 3.054509 1_555
Cs0 O1 3.155427 1_555
Cs0 O2 3.155427 1_555
Cs1 O2 2.954945 1_555
Cs1 O4 2.954945 1_555
Cs1 O1 3.190574 1_545
Cs1 O3 3.190574 1_655
Cs1 O5 3.562793 1_655
Cs1 O0 3.562793 1_545
Cs2 O3 2.954945 1_555
Cs2 O1 2.954945 1_555
Cs2 O2 3.190574 1_455
Cs2 O4 3.190574 1_565
Cs2 O5 3.562793 1_565
Cs2 O0 3.562793 1_455
Cs3 O3 2.940062 1_654
Cs3 O1 2.940062 1_545
Cs3 O4 3.244569 1_554
Cs3 O2 3.244569 1_555
Cs4 O4 2.940062 1_564
Cs4 O2 2.940062 1_455
Cs4 O1 3.244569 1_555
Cs4 O3 3.244569 1_554
Cs5 O5 2.922496 1_555
Cs5 O2 3.054509 1_555
Cs5 O1 3.054509 1_555
Cs5 O3 3.155427 1_555
Cs5 O4 3.155427 1_555
Ga0 O1 1.851950 1_555
Ga0 O2 1.851950 1_555
Ga0 O5 1.936883 1_665
Ga0 O0 1.941207 1_554
Ga1 O3 1.851950 1_555
Ga1 O4 1.851950 1_555
Ga1 O0 1.936883 1_445
Ga1 O5 1.941207 1_556
