# generated using pymatgen
data_Ba9(FeSe4)4
_symmetry_space_group_name_H-M   'P 1'
_cell_length_a   19.33791760
_cell_length_b   19.33791760
_cell_length_c   9.96717999
_cell_angle_alpha   75.19118160
_cell_angle_beta   75.19118160
_cell_angle_gamma   137.23994235
_symmetry_Int_Tables_number   1
_chemical_formula_structural   Ba9(FeSe4)4
_chemical_formula_sum   'Ba18 Fe8 Se32'
_cell_volume   1804.40024243
_cell_formula_units_Z   2
loop_
 _symmetry_equiv_pos_site_id
 _symmetry_equiv_pos_as_xyz
  1  'x, y, z'
loop_
 _atom_site_type_symbol
 _atom_site_label
 _atom_site_symmetry_multiplicity
 _atom_site_fract_x
 _atom_site_fract_y
 _atom_site_fract_z
 _atom_site_occupancy
  Ba  Ba0  1  0.62560200  0.37439800  0.50000000  1
  Ba  Ba1  1  0.37512300  0.62487700  0.00000000  1
  Ba  Ba2  1  0.86616200  0.40355500  0.15704700  1
  Ba  Ba3  1  0.59644500  0.13383800  0.84295300  1
  Ba  Ba4  1  0.27048100  0.30853700  0.08083300  1
  Ba  Ba5  1  0.69146300  0.72951900  0.91916700  1
  Ba  Ba6  1  0.15570800  0.62204000  0.34109800  1
  Ba  Ba7  1  0.37796000  0.84429200  0.65890200  1
  Ba  Ba8  1  0.72878500  0.69123600  0.41985700  1
  Ba  Ba9  1  0.30876400  0.27121500  0.58014300  1
  Ba  Ba10  1  0.56877300  0.89115800  0.16107800  1
  Ba  Ba11  1  0.10884200  0.43122700  0.83892200  1
  Ba  Ba12  1  0.98096400  0.79862200  0.87817800  1
  Ba  Ba13  1  0.20137800  0.01903600  0.12182200  1
  Ba  Ba14  1  0.42303900  0.10089300  0.33890300  1
  Ba  Ba15  1  0.89910700  0.57696100  0.66109700  1
  Ba  Ba16  1  0.01694100  0.20211500  0.62789500  1
  Ba  Ba17  1  0.79788500  0.98305900  0.37210500  1
  Fe  Fe0  1  0.95602600  0.29456900  0.33492000  1
  Fe  Fe1  1  0.70543100  0.04397400  0.66508000  1
  Fe  Fe2  1  0.54029000  0.37690600  0.91327300  1
  Fe  Fe3  1  0.62309400  0.45971000  0.08672700  1
  Fe  Fe4  1  0.03923000  0.70161000  0.17432500  1
  Fe  Fe5  1  0.29839000  0.96077000  0.82567500  1
  Fe  Fe6  1  0.46086100  0.62362200  0.58645000  1
  Fe  Fe7  1  0.37637800  0.53913900  0.41355000  1
  Se  Se0  1  0.64515100  0.55159000  0.22914800  1
  Se  Se1  1  0.44841000  0.35484900  0.77085200  1
  Se  Se2  1  0.12179000  0.52695900  0.09049300  1
  Se  Se3  1  0.47304100  0.87821000  0.90950700  1
  Se  Se4  1  0.35445100  0.44713300  0.27162100  1
  Se  Se5  1  0.55286700  0.64554900  0.72837900  1
  Se  Se6  1  0.88100800  0.47277100  0.42815300  1
  Se  Se7  1  0.52722900  0.11899200  0.57184700  1
  Se  Se8  1  0.07876100  0.29117900  0.22512600  1
  Se  Se9  1  0.70882100  0.92123900  0.77487400  1
  Se  Se10  1  0.55658000  0.26731200  0.90002700  1
  Se  Se11  1  0.73268800  0.44342000  0.09997300  1
  Se  Se12  1  0.91838700  0.70630000  0.28047700  1
  Se  Se13  1  0.29370000  0.08161300  0.71952300  1
  Se  Se14  1  0.44813800  0.73600400  0.59669700  1
  Se  Se15  1  0.26399600  0.55186200  0.40330300  1
  Se  Se16  1  0.61498600  0.74537400  0.26179600  1
  Se  Se17  1  0.25462600  0.38501400  0.73820400  1
  Se  Se18  1  0.12192900  0.75322500  0.88269100  1
  Se  Se19  1  0.24677500  0.87807100  0.11730900  1
  Se  Se20  1  0.38602600  0.25491800  0.23686000  1
  Se  Se21  1  0.74508200  0.61397400  0.76314000  1
  Se  Se22  1  0.87365500  0.24584600  0.62188800  1
  Se  Se23  1  0.75415400  0.12634500  0.37811200  1
  Se  Se24  1  0.12314700  0.87685300  0.50000000  1
  Se  Se25  1  0.87023400  0.12976600  0.00000000  1
  Se  Se26  1  0.04789700  0.02426400  0.60741200  1
  Se  Se27  1  0.97573600  0.95210300  0.39258800  1
  Se  Se28  1  0.46301800  0.96482900  0.26306100  1
  Se  Se29  1  0.03517100  0.53698200  0.73693900  1
  Se  Se30  1  0.95181600  0.97559200  0.89360300  1
  Se  Se31  1  0.02440800  0.04818400  0.10639700  1
loop_
_geom_bond_atom_site_label_1
_geom_bond_atom_site_label_2
_geom_bond_distance
_geom_bond_site_symmetry_2
Ba0 Se10 3.311688 1_555
Ba0 Se11 3.311688 1_555
Ba0 Se12 3.341538 1_555
Ba0 Se13 3.341538 1_555
Ba0 Se1 3.466916 1_555
Ba0 Se0 3.466916 1_555
Ba0 Se7 3.496365 1_555
Ba0 Se6 3.496365 1_555
Ba1 Se15 3.316271 1_555
Ba1 Se14 3.316271 1_554
Ba1 Se9 3.352646 1_554
Ba1 Se8 3.352646 1_555
Ba1 Se3 3.412531 1_554
Ba1 Se2 3.412531 1_555
Ba1 Se4 3.460612 1_555
Ba1 Se5 3.460612 1_554
Ba2 Se29 3.157695 1_654
Ba2 Se2 3.280772 1_655
Ba2 Se6 3.294973 1_555
Ba2 Se11 3.320882 1_555
Ba2 Se7 3.448115 1_555
Ba2 Se18 3.491110 1_654
Ba2 Se23 3.571496 1_555
Ba3 Se28 3.157695 1_546
Ba3 Se3 3.280772 1_545
Ba3 Se7 3.294973 1_555
Ba3 Se10 3.320882 1_555
Ba3 Se6 3.448115 1_555
Ba3 Se19 3.491110 1_546
Ba3 Se22 3.571496 1_555
Ba4 Se1 3.288343 1_554
Ba4 Se5 3.296303 1_554
Ba4 Se8 3.335643 1_555
Ba4 Se4 3.351027 1_555
Ba4 Se31 3.406079 1_555
Ba4 Se27 3.458448 1_445
Ba4 Se17 3.544432 1_554
Ba4 Se20 3.583317 1_555
Ba4 Se26 3.905257 1_555
Ba5 Se0 3.288343 1_556
Ba5 Se4 3.296303 1_556
Ba5 Se9 3.335643 1_555
Ba5 Se5 3.351027 1_555
Ba5 Se30 3.406079 1_555
Ba5 Se26 3.458448 1_665
Ba5 Se16 3.544432 1_556
Ba5 Se21 3.583317 1_555
Ba5 Se27 3.905257 1_555
Ba6 Se29 3.171217 1_555
Ba6 Se15 3.319306 1_555
Ba6 Se6 3.339318 1_455
Ba6 Se2 3.385909 1_555
Ba6 Se3 3.417051 1_554
Ba6 Se19 3.483310 1_555
Ba6 Se22 3.745525 1_455
Ba7 Se28 3.171217 1_555
Ba7 Se14 3.319306 1_555
Ba7 Se7 3.339318 1_565
Ba7 Se3 3.385909 1_555
Ba7 Se2 3.417051 1_556
Ba7 Se18 3.483310 1_555
Ba7 Se23 3.745525 1_565
Ba8 Se5 3.264939 1_555
Ba8 Se1 3.291145 1_555
Ba8 Se12 3.328520 1_555
Ba8 Se0 3.362085 1_555
Ba8 Se27 3.404166 1_555
Ba8 Se31 3.462665 1_665
Ba8 Se21 3.559226 1_555
Ba8 Se16 3.568327 1_555
Ba8 Se30 3.901024 1_554
Ba9 Se4 3.264939 1_555
Ba9 Se0 3.291145 1_555
Ba9 Se13 3.328520 1_555
Ba9 Se1 3.362085 1_555
Ba9 Se26 3.404166 1_555
Ba9 Se30 3.462665 1_445
Ba9 Se20 3.559226 1_555
Ba9 Se17 3.568327 1_555
Ba9 Se31 3.901024 1_556
Ba10 Se25 3.127760 1_565
Ba10 Se14 3.343839 1_555
Ba10 Se28 3.346795 1_555
Ba10 Se15 3.385246 1_555
Ba10 Se3 3.433711 1_554
Ba10 Se16 3.530640 1_555
Ba10 Se9 3.701814 1_554
Ba11 Se25 3.127760 1_456
Ba11 Se15 3.343839 1_555
Ba11 Se29 3.346795 1_555
Ba11 Se14 3.385246 1_555
Ba11 Se2 3.433711 1_556
Ba11 Se17 3.530640 1_555
Ba11 Se8 3.701814 1_556
Ba12 Se24 3.120224 1_655
Ba12 Se13 3.333531 1_665
Ba12 Se12 3.379027 1_556
Ba12 Se0 3.394220 1_556
Ba12 Se18 3.429304 1_655
Ba12 Se26 3.449594 1_665
Ba12 Se11 3.675013 1_556
Ba12 Se30 3.887185 1_555
Ba13 Se24 3.120224 1_545
Ba13 Se12 3.333531 1_445
Ba13 Se13 3.379027 1_554
Ba13 Se1 3.394220 1_554
Ba13 Se19 3.429304 1_545
Ba13 Se27 3.449594 1_445
Ba13 Se10 3.675013 1_554
Ba13 Se31 3.887185 1_555
Ba14 Se24 3.125693 1_545
Ba14 Se10 3.314554 1_554
Ba14 Se7 3.368081 1_555
Ba14 Se28 3.434729 1_545
Ba14 Se11 3.436113 1_555
Ba14 Se20 3.517439 1_555
Ba14 Se13 3.720770 1_555
Ba15 Se24 3.125693 1_655
Ba15 Se11 3.314554 1_556
Ba15 Se6 3.368081 1_555
Ba15 Se29 3.434729 1_655
Ba15 Se10 3.436113 1_555
Ba15 Se21 3.517439 1_555
Ba15 Se12 3.720770 1_555
Ba16 Se25 3.146720 1_456
Ba16 Se9 3.331396 1_445
Ba16 Se8 3.391215 1_555
Ba16 Se4 3.435069 1_555
Ba16 Se22 3.449070 1_455
Ba16 Se30 3.471657 1_445
Ba16 Se15 3.595157 1_555
Ba16 Se26 3.943128 1_555
Ba17 Se25 3.146720 1_565
Ba17 Se8 3.331396 1_665
Ba17 Se9 3.391215 1_555
Ba17 Se5 3.435069 1_555
Ba17 Se23 3.449070 1_565
Ba17 Se31 3.471657 1_665
Ba17 Se14 3.595157 1_555
Ba17 Se27 3.943128 1_555
Fe0 Se2 2.379990 1_655
Fe0 Se22 2.386561 1_555
Fe0 Se8 2.402602 1_655
Fe0 Se23 2.405127 1_555
Fe1 Se3 2.379990 1_545
Fe1 Se23 2.386561 1_555
Fe1 Se9 2.402602 1_545
Fe1 Se22 2.405127 1_555
Fe2 Se10 2.389621 1_555
Fe2 Se20 2.392716 1_556
Fe2 Se21 2.396639 1_555
Fe2 Se1 2.416590 1_555
Fe3 Se11 2.389621 1_555
Fe3 Se21 2.392716 1_554
Fe3 Se20 2.396639 1_555
Fe3 Se0 2.416590 1_555
Fe4 Se12 2.384305 1_455
Fe4 Se6 2.404796 1_455
Fe4 Se18 2.408265 1_554
Fe4 Se19 2.409878 1_555
Fe5 Se13 2.384305 1_565
Fe5 Se7 2.404796 1_565
Fe5 Se19 2.408265 1_556
Fe5 Se18 2.409878 1_555
Fe6 Se14 2.383207 1_555
Fe6 Se16 2.401770 1_555
Fe6 Se17 2.410561 1_555
Fe6 Se5 2.414953 1_555
Fe7 Se15 2.383207 1_555
Fe7 Se17 2.401770 1_555
Fe7 Se16 2.410561 1_555
Fe7 Se4 2.414953 1_555
Se26 Se30 2.413555 1_445
Se26 Se27 2.945270 1_445
Se27 Se31 2.413555 1_665
Se30 Se31 2.930868 1_666
