# generated using pymatgen
data_Cd3Pt
_symmetry_space_group_name_H-M   'P 1'
_cell_length_a   5.99632470
_cell_length_b   5.99632470
_cell_length_c   4.80710239
_cell_angle_alpha   90.00000000
_cell_angle_beta   90.00000000
_cell_angle_gamma   119.99999915
_symmetry_Int_Tables_number   1
_chemical_formula_structural   Cd3Pt
_chemical_formula_sum   'Cd6 Pt2'
_cell_volume   149.68707155
_cell_formula_units_Z   2
loop_
 _symmetry_equiv_pos_site_id
 _symmetry_equiv_pos_as_xyz
  1  'x, y, z'
loop_
 _atom_site_type_symbol
 _atom_site_label
 _atom_site_symmetry_multiplicity
 _atom_site_fract_x
 _atom_site_fract_y
 _atom_site_fract_z
 _atom_site_occupancy
  Cd  Cd0  1  0.17096861  0.34193522  0.25000000  1
  Cd  Cd1  1  0.65806478  0.82903139  0.25000000  1
  Cd  Cd2  1  0.17096861  0.82903139  0.25000000  1
  Cd  Cd3  1  0.82903139  0.65806478  0.75000000  1
  Cd  Cd4  1  0.34193522  0.17096861  0.75000000  1
  Cd  Cd5  1  0.82903139  0.17096861  0.75000000  1
  Pt  Pt0  1  0.33333300  0.66666700  0.75000000  1
  Pt  Pt1  1  0.66666700  0.33333300  0.25000000  1
loop_
_geom_bond_atom_site_label_1
_geom_bond_atom_site_label_2
_geom_bond_distance
_geom_bond_site_symmetry_2
Cd0 Cd2 2.920787 1_555
Cd0 Cd1 2.920787 1_555
Cd0 Pt0 2.936110 1_555
Cd0 Pt0 2.936110 1_554
Cd0 Cd4 2.988308 1_555
Cd0 Cd4 2.988308 1_554
Cd0 Cd5 2.988321 1_455
Cd0 Cd5 2.988321 1_454
Cd0 Pt1 2.998492 1_555
Cd0 Pt1 2.998498 1_455
Cd0 Cd2 3.075538 1_545
Cd0 Cd1 3.075538 1_445
Cd1 Cd2 2.920787 1_555
Cd1 Pt0 2.936110 1_554
Cd1 Pt0 2.936110 1_555
Cd1 Cd3 2.988308 1_555
Cd1 Cd3 2.988308 1_554
Cd1 Cd5 2.988321 1_564
Cd1 Cd5 2.988321 1_565
Cd1 Pt1 2.998492 1_555
Cd1 Pt1 2.998498 1_565
Cd1 Cd2 3.075538 1_655
Cd2 Pt0 2.936101 1_554
Cd2 Pt0 2.936101 1_555
Cd2 Cd3 2.988321 1_454
Cd2 Cd3 2.988321 1_455
Cd2 Cd4 2.988321 1_565
Cd2 Cd4 2.988321 1_564
Cd2 Pt1 2.998495 1_455
Cd2 Pt1 2.998495 1_565
Cd3 Cd5 2.920787 1_555
Cd3 Cd4 2.920787 1_555
Cd3 Pt1 2.936110 1_555
Cd3 Pt1 2.936110 1_556
Cd3 Pt0 2.998492 1_555
Cd3 Pt0 2.998498 1_655
Cd3 Cd5 3.075538 1_565
Cd3 Cd4 3.075538 1_665
Cd4 Cd5 2.920787 1_555
Cd4 Pt1 2.936110 1_555
Cd4 Pt1 2.936110 1_556
Cd4 Pt0 2.998492 1_555
Cd4 Pt0 2.998498 1_545
Cd4 Cd5 3.075538 1_455
Cd5 Pt1 2.936101 1_555
Cd5 Pt1 2.936101 1_556
Cd5 Pt0 2.998495 1_545
Cd5 Pt0 2.998495 1_655
