# generated using pymatgen
data_Mg14VC
_symmetry_space_group_name_H-M   'P 1'
_cell_length_a   6.25189124
_cell_length_b   6.25189076
_cell_length_c   9.78390607
_cell_angle_alpha   90.00000000
_cell_angle_beta   90.00000000
_cell_angle_gamma   120.00000255
_symmetry_Int_Tables_number   1
_chemical_formula_structural   Mg14VC
_chemical_formula_sum   'Mg14 V1 C1'
_cell_volume   331.18121135
_cell_formula_units_Z   1
loop_
 _symmetry_equiv_pos_site_id
 _symmetry_equiv_pos_as_xyz
  1  'x, y, z'
loop_
 _atom_site_type_symbol
 _atom_site_label
 _atom_site_symmetry_multiplicity
 _atom_site_fract_x
 _atom_site_fract_y
 _atom_site_fract_z
 _atom_site_occupancy
  Mg  Mg0  1  0.17250644  0.83625272  0.12500000  1
  Mg  Mg1  1  0.16218149  0.83109025  0.62500000  1
  Mg  Mg2  1  0.66374728  0.32749356  0.12500000  1
  Mg  Mg3  1  0.66890975  0.33781851  0.62500000  1
  Mg  Mg4  1  0.66374728  0.83625272  0.12500000  1
  Mg  Mg5  1  0.66890975  0.83109025  0.62500000  1
  Mg  Mg6  1  0.32399937  0.17600063  0.38554643  1
  Mg  Mg7  1  0.32399937  0.17600063  0.86445357  1
  Mg  Mg8  1  0.32399937  0.64799975  0.38554643  1
  Mg  Mg9  1  0.32399937  0.64799975  0.86445357  1
  Mg  Mg10  1  0.85200025  0.17600063  0.38554643  1
  Mg  Mg11  1  0.85200025  0.17600063  0.86445357  1
  Mg  Mg12  1  0.83333300  0.66666700  0.37142628  1
  Mg  Mg13  1  0.83333300  0.66666700  0.87857372  1
  V  V0  1  0.16666700  0.33333300  0.12500000  1
  C  C0  1  0.16666700  0.33333300  0.62500000  1
loop_
_geom_bond_atom_site_label_1
_geom_bond_atom_site_label_2
_geom_bond_distance
_geom_bond_site_symmetry_2
Mg0 Mg12 3.030724 1_455
Mg0 Mg13 3.030724 1_454
Mg0 Mg2 3.071184 1_565
Mg0 Mg4 3.071184 1_555
Mg0 V0 3.126105 1_555
Mg0 V0 3.126105 1_565
Mg0 Mg9 3.145653 1_554
Mg0 Mg8 3.145653 1_555
Mg0 Mg7 3.145660 1_564
Mg0 Mg6 3.145660 1_565
Mg0 Mg2 3.180707 1_455
Mg0 Mg4 3.180707 1_455
Mg1 Mg13 3.053718 1_455
Mg1 Mg12 3.053718 1_455
Mg2 Mg4 3.071184 1_545
Mg2 V0 3.126106 1_655
Mg2 V0 3.126106 1_555
Mg2 Mg7 3.145660 1_554
Mg2 Mg6 3.145660 1_555
Mg2 Mg4 3.180707 1_555
Mg4 V0 3.126105 1_555
Mg4 V0 3.126105 1_665
Mg4 Mg9 3.145660 1_554
Mg4 Mg8 3.145660 1_555
Mg6 V0 3.066069 1_555
Mg7 V0 3.066069 1_556
Mg8 V0 3.066075 1_555
Mg9 V0 3.066075 1_556
Mg10 V0 3.066075 1_655
Mg10 Mg12 3.130629 1_555
Mg10 Mg12 3.130629 1_545
Mg10 Mg2 3.145653 1_555
Mg10 Mg4 3.145659 1_545
Mg11 V0 3.066075 1_656
Mg11 Mg13 3.130629 1_555
Mg11 Mg13 3.130629 1_545
Mg11 Mg2 3.145653 1_556
Mg11 Mg4 3.145659 1_546
Mg12 Mg4 3.030718 1_555
Mg12 Mg2 3.030724 1_555
Mg12 Mg5 3.053711 1_555
Mg12 Mg3 3.053717 1_555
Mg12 Mg6 3.130629 1_665
Mg12 Mg6 3.130629 1_555
Mg12 Mg8 3.130629 1_655
Mg12 Mg8 3.130629 1_555
Mg13 Mg4 3.030718 1_556
Mg13 Mg2 3.030724 1_556
Mg13 Mg5 3.053711 1_555
Mg13 Mg3 3.053717 1_555
Mg13 Mg7 3.130629 1_665
Mg13 Mg7 3.130629 1_555
Mg13 Mg9 3.130629 1_655
Mg13 Mg9 3.130629 1_555
C0 Mg7 2.896761 1_555
C0 Mg6 2.896761 1_555
C0 Mg8 2.896767 1_555
C0 Mg9 2.896767 1_555
C0 Mg10 2.896767 1_455
C0 Mg11 2.896767 1_455
