# generated using pymatgen
data_Er2S3
_symmetry_space_group_name_H-M   'P 1'
_cell_length_a   3.81354251
_cell_length_b   10.40918000
_cell_length_c   10.50304613
_cell_angle_alpha   90.00000000
_cell_angle_beta   90.00000000
_cell_angle_gamma   90.00000000
_symmetry_Int_Tables_number   1
_chemical_formula_structural   Er2S3
_chemical_formula_sum   'Er8 S12'
_cell_volume   416.92734818
_cell_formula_units_Z   4
loop_
 _symmetry_equiv_pos_site_id
 _symmetry_equiv_pos_as_xyz
  1  'x, y, z'
loop_
 _atom_site_type_symbol
 _atom_site_label
 _atom_site_symmetry_multiplicity
 _atom_site_fract_x
 _atom_site_fract_y
 _atom_site_fract_z
 _atom_site_occupancy
  Er  Er0  1  0.25000000  0.18720056  0.48996709  1
  Er  Er1  1  0.25000000  0.31279944  0.98996709  1
  Er  Er2  1  0.75000000  0.81279944  0.51003291  1
  Er  Er3  1  0.75000000  0.68720056  0.01003291  1
  Er  Er4  1  0.75000000  0.49569082  0.69201805  1
  Er  Er5  1  0.75000000  0.00430918  0.19201805  1
  Er  Er6  1  0.25000000  0.50430918  0.30798195  1
  Er  Er7  1  0.25000000  0.99569082  0.80798195  1
  S  S0  1  0.25000000  0.62676391  0.54595536  1
  S  S1  1  0.25000000  0.87323609  0.04595536  1
  S  S2  1  0.75000000  0.37323609  0.45404464  1
  S  S3  1  0.75000000  0.12676391  0.95404464  1
  S  S4  1  0.75000000  0.05530770  0.61853893  1
  S  S5  1  0.75000000  0.44469230  0.11853893  1
  S  S6  1  0.25000000  0.94469230  0.38146107  1
  S  S7  1  0.25000000  0.55530770  0.88146107  1
  S  S8  1  0.25000000  0.30556684  0.72713939  1
  S  S9  1  0.25000000  0.19443316  0.22713939  1
  S  S10  1  0.75000000  0.69443316  0.27286061  1
  S  S11  1  0.75000000  0.80556684  0.77286061  1
loop_
_geom_bond_atom_site_label_1
_geom_bond_atom_site_label_2
_geom_bond_distance
_geom_bond_site_symmetry_2
Er0 S4 2.710017 1_455
Er0 S4 2.710017 1_555
Er0 S2 2.743733 1_455
Er0 S2 2.743733 1_555
Er0 S9 2.761518 1_555
Er0 S6 2.769646 1_545
Er0 S8 2.779082 1_555
Er1 S5 2.710017 1_456
Er1 S5 2.710017 1_556
Er1 S3 2.743733 1_555
Er1 S3 2.743733 1_455
Er1 S8 2.761518 1_555
Er1 S7 2.769646 1_555
Er1 S9 2.779082 1_556
Er2 S6 2.710017 1_555
Er2 S6 2.710017 1_655
Er2 S0 2.743733 1_655
Er2 S0 2.743733 1_555
Er2 S11 2.761518 1_555
Er2 S4 2.769646 1_565
Er2 S10 2.779082 1_555
Er3 S7 2.710017 1_554
Er3 S7 2.710017 1_654
Er3 S1 2.743733 1_655
Er3 S1 2.743733 1_555
Er3 S10 2.761518 1_555
Er3 S5 2.769646 1_555
Er3 S11 2.779082 1_554
Er4 S8 2.772802 1_655
Er4 S8 2.772802 1_555
Er4 S0 2.801917 1_655
Er4 S0 2.801917 1_555
Er4 S2 2.805703 1_555
Er4 S7 2.824871 1_655
Er4 S7 2.824871 1_555
Er4 S11 3.335441 1_555
Er5 S9 2.772802 1_555
Er5 S9 2.772802 1_655
Er5 S1 2.801917 1_545
Er5 S1 2.801917 1_645
Er5 S3 2.805703 1_554
Er5 S6 2.824871 1_645
Er5 S6 2.824871 1_545
Er5 S10 3.335441 1_545
Er6 S10 2.772802 1_455
Er6 S10 2.772802 1_555
Er6 S2 2.801917 1_555
Er6 S2 2.801917 1_455
Er6 S0 2.805703 1_555
Er6 S5 2.824871 1_555
Er6 S5 2.824871 1_455
Er6 S9 3.335441 1_555
Er7 S11 2.772802 1_455
Er7 S11 2.772802 1_555
Er7 S3 2.801917 1_565
Er7 S3 2.801917 1_465
Er7 S1 2.805703 1_556
Er7 S4 2.824871 1_565
Er7 S4 2.824871 1_465
Er7 S8 3.335441 1_565
