# generated using pymatgen
data_Yb3Cd
_symmetry_space_group_name_H-M   'P 1'
_cell_length_a   5.09744000
_cell_length_b   5.09744000
_cell_length_c   5.09744000
_cell_angle_alpha   90.00000000
_cell_angle_beta   90.00000000
_cell_angle_gamma   90.00000000
_symmetry_Int_Tables_number   1
_chemical_formula_structural   Yb3Cd
_chemical_formula_sum   'Yb3 Cd1'
_cell_volume   132.45134345
_cell_formula_units_Z   1
loop_
 _symmetry_equiv_pos_site_id
 _symmetry_equiv_pos_as_xyz
  1  'x, y, z'
loop_
 _atom_site_type_symbol
 _atom_site_label
 _atom_site_symmetry_multiplicity
 _atom_site_fract_x
 _atom_site_fract_y
 _atom_site_fract_z
 _atom_site_occupancy
  Yb  Yb0  1  0.00000000  0.50000000  0.50000000  1
  Yb  Yb1  1  0.50000000  0.00000000  0.50000000  1
  Yb  Yb2  1  0.50000000  0.50000000  0.00000000  1
  Cd  Cd0  1  0.00000000  0.00000000  0.00000000  1
loop_
_geom_bond_atom_site_label_1
_geom_bond_atom_site_label_2
_geom_bond_distance
_geom_bond_site_symmetry_2
Yb0 Yb1 3.604434 1_465
Yb0 Yb1 3.604434 1_565
Yb0 Yb2 3.604434 1_455
Yb0 Yb1 3.604434 1_555
Yb0 Yb2 3.604434 1_456
Yb0 Yb2 3.604434 1_556
Yb0 Yb2 3.604434 1_555
Yb0 Yb1 3.604434 1_455
Yb1 Yb2 3.604434 1_556
Yb1 Yb2 3.604434 1_555
Yb1 Yb2 3.604434 1_546
Yb1 Yb2 3.604434 1_545
Cd0 Yb1 3.604434 1_554
Cd0 Yb0 3.604434 1_544
Cd0 Yb1 3.604434 1_454
Cd0 Yb2 3.604434 1_455
Cd0 Yb1 3.604434 1_555
Cd0 Yb2 3.604434 1_555
Cd0 Yb0 3.604434 1_545
Cd0 Yb0 3.604434 1_555
Cd0 Yb2 3.604434 1_445
Cd0 Yb2 3.604434 1_545
Cd0 Yb1 3.604434 1_455
Cd0 Yb0 3.604434 1_554
