# generated using pymatgen
data_NdSmCr4O12
_symmetry_space_group_name_H-M   'P 1'
_cell_length_a   5.35477620
_cell_length_b   5.35477620
_cell_length_c   7.48104120
_cell_angle_alpha   90.00000000
_cell_angle_beta   90.00000000
_cell_angle_gamma   89.62988095
_symmetry_Int_Tables_number   1
_chemical_formula_structural   NdSmCr4O12
_chemical_formula_sum   'Nd1 Sm1 Cr4 O12'
_cell_volume   214.50411769
_cell_formula_units_Z   1
loop_
 _symmetry_equiv_pos_site_id
 _symmetry_equiv_pos_as_xyz
  1  'x, y, z'
loop_
 _atom_site_type_symbol
 _atom_site_label
 _atom_site_symmetry_multiplicity
 _atom_site_fract_x
 _atom_site_fract_y
 _atom_site_fract_z
 _atom_site_occupancy
  Nd  Nd0  1  0.52050815  0.52050815  -0.00000000  1
  Sm  Sm0  1  0.98783824  0.98783824  0.50000000  1
  Cr  Cr0  1  0.50644032  0.01157036  0.74882113  1
  Cr  Cr1  1  0.50644032  0.01157036  0.25117887  1
  Cr  Cr2  1  0.01157036  0.50644032  0.25117887  1
  Cr  Cr3  1  0.01157036  0.50644032  0.74882113  1
  O  O0  1  0.77963884  0.21241105  0.74485104  1
  O  O1  1  0.21241105  0.77963884  0.74485104  1
  O  O2  1  0.21241105  0.77963884  0.25514896  1
  O  O3  1  0.77963884  0.21241105  0.25514896  1
  O  O4  1  0.72024790  0.72024790  0.70820767  1
  O  O5  1  0.28618385  0.28618385  0.79111977  1
  O  O6  1  0.28618385  0.28618385  0.20888023  1
  O  O7  1  0.72024790  0.72024790  0.29179233  1
  O  O8  1  0.52483032  0.95405868  -0.00000000  1
  O  O9  1  0.43862372  0.03915631  0.50000000  1
  O  O10  1  0.95405868  0.52483032  -0.00000000  1
  O  O11  1  0.03915631  0.43862372  0.50000000  1
loop_
_geom_bond_atom_site_label_1
_geom_bond_atom_site_label_2
_geom_bond_distance
_geom_bond_site_symmetry_2
Nd0 O10 2.321831 1_555
Nd0 O8 2.321831 1_555
Nd0 O5 2.368756 1_554
Nd0 O6 2.368756 1_555
Nd0 O4 2.658534 1_554
Nd0 O7 2.658534 1_555
Nd0 O2 2.874208 1_555
Nd0 O3 2.874208 1_555
Nd0 O0 2.874208 1_554
Nd0 O1 2.874208 1_554
Nd0 O8 3.033149 1_545
Nd0 O10 3.033149 1_455
Cr0 O0 1.821522 1_555
Cr0 O9 1.902094 1_555
Cr0 O5 1.905550 1_555
Cr0 O8 1.906590 1_546
Cr0 O4 1.952822 1_545
Cr0 O1 2.011838 1_545
Cr1 O3 1.821522 1_555
Cr1 O9 1.902094 1_555
Cr1 O6 1.905550 1_555
Cr1 O8 1.906590 1_545
Cr1 O7 1.952822 1_545
Cr1 O2 2.011838 1_545
Cr2 O2 1.821522 1_555
Cr2 O11 1.902094 1_555
Cr2 O6 1.905550 1_555
Cr2 O10 1.906590 1_455
Cr2 O7 1.952822 1_455
Cr2 O3 2.011838 1_455
Cr3 O1 1.821522 1_555
Cr3 O11 1.902094 1_555
Cr3 O5 1.905550 1_555
Cr3 O10 1.906590 1_456
Cr3 O4 1.952822 1_455
Cr3 O0 2.011838 1_455
O0 Sm0 2.454988 1_545
O1 Sm0 2.454988 1_455
O2 Sm0 2.454988 1_455
O3 Sm0 2.454988 1_545
O4 Sm0 2.561055 1_555
O7 Sm0 2.561055 1_555
O9 Sm0 2.431210 1_445
O11 Sm0 2.431210 1_445
