# generated using pymatgen
data_Nb3Fe8Si
_symmetry_space_group_name_H-M   'P 1'
_cell_length_a   4.78356374
_cell_length_b   4.78356238
_cell_length_c   7.77386200
_cell_angle_alpha   89.99968090
_cell_angle_beta   90.00034582
_cell_angle_gamma   119.99565798
_symmetry_Int_Tables_number   1
_chemical_formula_structural   Nb3Fe8Si
_chemical_formula_sum   'Nb3 Fe8 Si1'
_cell_volume   154.05984819
_cell_formula_units_Z   1
loop_
 _symmetry_equiv_pos_site_id
 _symmetry_equiv_pos_as_xyz
  1  'x, y, z'
loop_
 _atom_site_type_symbol
 _atom_site_label
 _atom_site_symmetry_multiplicity
 _atom_site_fract_x
 _atom_site_fract_y
 _atom_site_fract_z
 _atom_site_occupancy
  Nb  Nb0  1  0.33331100  0.66668800  0.44503300  1
  Nb  Nb1  1  0.33333900  0.66666000  0.06813900  1
  Nb  Nb2  1  0.66661700  0.33338400  0.91575800  1
  Fe  Fe0  1  0.00008700  0.99991200  0.50196900  1
  Fe  Fe1  1  0.99996900  0.00003200  0.00904400  1
  Fe  Fe2  1  0.16841000  0.33674900  0.74998900  1
  Fe  Fe3  1  0.16839400  0.83160600  0.74997000  1
  Fe  Fe4  1  0.66325100  0.83159000  0.74998900  1
  Fe  Fe5  1  0.83023900  0.66051600  0.25280300  1
  Fe  Fe6  1  0.83024200  0.16975800  0.25289800  1
  Fe  Fe7  1  0.33948300  0.16976100  0.25280300  1
  Si  Si0  1  0.66665800  0.33334300  0.55160600  1
loop_
_geom_bond_atom_site_label_1
_geom_bond_atom_site_label_2
_geom_bond_distance
_geom_bond_site_symmetry_2
Nb0 Si0 2.883417 1_555
Nb0 Si0 2.883444 1_455
Nb0 Si0 2.883451 1_565
Nb0 Nb1 2.929922 1_555
Nb1 Nb2 3.004642 1_554
Nb1 Nb2 3.005437 1_454
Nb1 Nb2 3.005445 1_564
Nb2 Si0 2.830867 1_555
Fe0 Fe3 2.379361 1_555
Fe0 Fe4 2.380087 1_455
Fe0 Fe2 2.380089 1_565
Fe0 Fe5 2.393524 1_455
Fe0 Fe7 2.393525 1_565
Fe0 Fe6 2.393579 1_465
Fe0 Si0 2.788335 1_455
Fe0 Si0 2.788344 1_565
Fe0 Si0 2.789354 1_465
Fe0 Nb0 2.796083 1_555
Fe0 Nb0 2.797599 1_565
Fe0 Nb0 2.797599 1_455
Fe1 Fe7 2.359921 1_655
Fe1 Fe5 2.359927 1_545
Fe1 Fe6 2.360320 1_555
Fe1 Fe2 2.449808 1_654
Fe1 Fe4 2.449810 1_544
Fe1 Fe3 2.450205 1_644
Fe1 Nb1 2.799701 1_655
Fe1 Nb1 2.799710 1_545
Fe1 Nb1 2.799984 1_645
Fe1 Nb2 2.855459 1_544
Fe1 Nb2 2.855460 1_654
Fe1 Nb2 2.855502 1_554
Fe2 Fe3 2.367218 1_555
Fe2 Fe4 2.367258 1_555
Fe2 Fe3 2.416345 1_545
Fe2 Fe4 2.416619 1_445
Fe2 Nb2 2.716414 1_555
Fe2 Nb2 2.717360 1_455
Fe2 Nb0 2.736518 1_555
Fe2 Nb1 2.825790 1_556
Fe2 Si0 2.845721 1_555
Fe2 Si0 2.846101 1_455
Fe3 Fe4 2.367218 1_555
Fe3 Fe4 2.416345 1_455
Fe3 Nb2 2.717097 1_455
Fe3 Nb2 2.717100 1_565
Fe3 Nb0 2.736142 1_555
Fe3 Nb1 2.825824 1_556
Fe3 Si0 2.845961 1_455
Fe3 Si0 2.845966 1_565
Fe4 Nb2 2.716411 1_555
Fe4 Nb2 2.717361 1_565
Fe4 Nb0 2.736519 1_555
Fe4 Nb1 2.825793 1_556
Fe4 Si0 2.845717 1_555
Fe4 Si0 2.846103 1_565
Fe5 Fe6 2.347579 1_555
Fe5 Fe7 2.347714 1_555
Fe5 Fe6 2.435984 1_565
Fe5 Fe7 2.436163 1_665
Fe5 Si0 2.689392 1_555
Fe5 Nb1 2.789514 1_555
Fe5 Nb1 2.789762 1_655
Fe5 Nb0 2.820294 1_655
Fe5 Nb0 2.820420 1_555
Fe5 Nb2 2.949899 1_554
Fe6 Fe7 2.347584 1_555
Fe6 Fe7 2.435980 1_655
Fe6 Si0 2.688713 1_555
Fe6 Nb1 2.790153 1_655
Fe6 Nb1 2.790156 1_545
Fe6 Nb0 2.820095 1_655
Fe6 Nb0 2.820100 1_545
Fe6 Nb2 2.950729 1_554
Fe7 Si0 2.689396 1_555
Fe7 Nb1 2.789510 1_555
Fe7 Nb1 2.789765 1_545
Fe7 Nb0 2.820298 1_545
Fe7 Nb0 2.820415 1_555
Fe7 Nb2 2.949904 1_554
