# generated using pymatgen
data_Y3(SiNi3)2
_symmetry_space_group_name_H-M   'P 1'
_cell_length_a   7.60351772
_cell_length_b   7.60351772
_cell_length_c   7.60351772
_cell_angle_alpha   109.47122063
_cell_angle_beta   109.47122063
_cell_angle_gamma   109.47122063
_symmetry_Int_Tables_number   1
_chemical_formula_structural   Y3(SiNi3)2
_chemical_formula_sum   'Y6 Si4 Ni12'
_cell_volume   338.39333123
_cell_formula_units_Z   2
loop_
 _symmetry_equiv_pos_site_id
 _symmetry_equiv_pos_as_xyz
  1  'x, y, z'
loop_
 _atom_site_type_symbol
 _atom_site_label
 _atom_site_symmetry_multiplicity
 _atom_site_fract_x
 _atom_site_fract_y
 _atom_site_fract_z
 _atom_site_occupancy
  Y  Y0  1  0.00000000  0.28550500  0.28550500  1
  Y  Y1  1  0.00000000  0.71449500  0.71449500  1
  Y  Y2  1  0.28550500  0.00000000  0.28550500  1
  Y  Y3  1  0.71449500  0.00000000  0.71449500  1
  Y  Y4  1  0.28550500  0.28550500  0.00000000  1
  Y  Y5  1  0.71449500  0.71449500  0.00000000  1
  Si  Si0  1  0.50000000  0.50000000  0.50000000  1
  Si  Si1  1  0.00000000  0.00000000  0.50000000  1
  Si  Si2  1  0.00000000  0.50000000  0.00000000  1
  Si  Si3  1  0.50000000  0.00000000  0.00000000  1
  Ni  Ni0  1  0.66032300  0.33016100  0.33016100  1
  Ni  Ni1  1  0.33967700  0.66983900  0.66983900  1
  Ni  Ni2  1  0.00000000  0.33016100  0.66983900  1
  Ni  Ni3  1  0.00000000  0.66983900  0.33016100  1
  Ni  Ni4  1  0.33016100  0.66032300  0.33016100  1
  Ni  Ni5  1  0.66983900  0.00000000  0.33016100  1
  Ni  Ni6  1  0.66983900  0.33967700  0.66983900  1
  Ni  Ni7  1  0.33016100  0.00000000  0.66983900  1
  Ni  Ni8  1  0.33016100  0.33016100  0.66032300  1
  Ni  Ni9  1  0.66983900  0.66983900  0.33967700  1
  Ni  Ni10  1  0.66983900  0.33016100  0.00000000  1
  Ni  Ni11  1  0.33016100  0.66983900  0.00000000  1
loop_
_geom_bond_atom_site_label_1
_geom_bond_atom_site_label_2
_geom_bond_distance
_geom_bond_site_symmetry_2
Si0 Y0 3.119736 1_555
Si0 Y3 3.119736 1_565
Si0 Y4 3.119736 1_555
Si0 Y2 3.119736 1_555
Si0 Y5 3.119736 1_556
Si0 Y1 3.119736 1_655
Si1 Y0 3.119736 1_555
Si1 Y1 3.119736 1_545
Si1 Y3 3.119736 1_455
Si1 Y2 3.119736 1_555
Si1 Y4 3.119736 1_556
Si1 Y5 3.119736 1_445
Si2 Y0 3.119736 1_555
Si2 Y5 3.119736 1_455
Si2 Y2 3.119736 1_565
Si2 Y4 3.119736 1_555
Si2 Y3 3.119736 1_454
Si2 Y1 3.119736 1_554
Si3 Y1 3.119736 1_544
Si3 Y4 3.119736 1_555
Si3 Y0 3.119736 1_655
Si3 Y2 3.119736 1_555
Si3 Y3 3.119736 1_554
Si3 Y5 3.119736 1_545
Ni0 Si3 2.410071 1_555
Ni0 Si0 2.410079 1_555
Ni0 Ni5 2.535421 1_555
Ni0 Ni10 2.535421 1_555
Ni0 Ni9 2.535429 1_555
Ni0 Ni6 2.535429 1_555
Ni0 Y0 2.827284 1_655
Ni0 Y1 2.827289 1_655
Ni0 Y2 2.925142 1_555
Ni0 Y4 2.925142 1_555
Ni1 Si3 2.410071 1_566
Ni1 Si0 2.410079 1_555
Ni1 Ni7 2.535421 1_565
Ni1 Ni11 2.535421 1_556
Ni1 Ni8 2.535429 1_555
Ni1 Ni4 2.535429 1_555
Ni1 Y1 2.827284 1_555
Ni1 Y0 2.827289 1_555
Ni1 Y3 2.925142 1_565
Ni1 Y5 2.925142 1_556
Ni2 Si2 2.410072 1_556
Ni2 Si1 2.410072 1_555
Ni2 Ni8 2.535421 1_555
Ni2 Ni6 2.535421 1_455
Ni2 Ni5 2.535424 1_455
Ni2 Y0 2.827291 1_555
Ni2 Y1 2.827291 1_555
Ni2 Y4 2.925138 1_556
Ni2 Y3 2.925138 1_455
Ni3 Si2 2.410072 1_555
Ni3 Si1 2.410072 1_565
Ni3 Ni4 2.535421 1_555
Ni3 Ni9 2.535421 1_455
Ni3 Ni7 2.535424 1_565
Ni3 Y0 2.827291 1_555
Ni3 Y1 2.827291 1_555
Ni3 Y5 2.925138 1_455
Ni3 Y2 2.925138 1_565
Ni4 Si2 2.410071 1_555
Ni4 Si0 2.410079 1_555
Ni4 Ni9 2.535429 1_555
Ni4 Y2 2.827284 1_565
Ni4 Y3 2.827289 1_565
Ni4 Y0 2.925142 1_555
Ni4 Y4 2.925142 1_555
Ni5 Si3 2.410072 1_555
Ni5 Si1 2.410072 1_655
Ni5 Ni9 2.535421 1_545
Ni5 Y2 2.827291 1_555
Ni5 Y3 2.827291 1_555
Ni5 Y5 2.925138 1_545
Ni5 Y0 2.925138 1_655
Ni6 Si2 2.410071 1_656
Ni6 Si0 2.410079 1_555
Ni6 Ni8 2.535429 1_555
Ni6 Y3 2.827284 1_555
Ni6 Y2 2.827289 1_555
Ni6 Y1 2.925142 1_655
Ni6 Y5 2.925142 1_556
Ni7 Si3 2.410072 1_556
Ni7 Si1 2.410072 1_555
Ni7 Ni8 2.535421 1_555
Ni7 Y2 2.827291 1_555
Ni7 Y3 2.827291 1_555
Ni7 Y4 2.925138 1_556
Ni7 Y1 2.925138 1_545
Ni8 Si1 2.410071 1_555
Ni8 Si0 2.410079 1_555
Ni8 Y4 2.827284 1_556
Ni8 Y5 2.827289 1_556
Ni8 Y0 2.925142 1_555
Ni8 Y2 2.925142 1_555
Ni9 Si1 2.410071 1_665
Ni9 Si0 2.410079 1_555
Ni9 Y5 2.827284 1_555
Ni9 Y4 2.827289 1_555
Ni9 Y1 2.925142 1_655
Ni9 Y3 2.925142 1_565
Ni10 Si3 2.410072 1_555
Ni10 Si2 2.410072 1_655
Ni10 Ni6 2.535421 1_554
Ni10 Ni7 2.535424 1_554
Ni10 Ni3 2.535424 1_655
Ni10 Y5 2.827291 1_555
Ni10 Y4 2.827291 1_555
Ni10 Y3 2.925138 1_554
Ni10 Y0 2.925138 1_655
Ni11 Si2 2.410072 1_555
Ni11 Si3 2.410072 1_565
Ni11 Ni4 2.535421 1_555
Ni11 Ni2 2.535424 1_554
Ni11 Ni5 2.535424 1_565
Ni11 Y4 2.827291 1_555
Ni11 Y5 2.827291 1_555
Ni11 Y2 2.925138 1_565
Ni11 Y1 2.925138 1_554
