# generated using pymatgen
data_Sm6Ge3Se14
_symmetry_space_group_name_H-M   'P 1'
_cell_length_a   10.54014072
_cell_length_b   10.54004070
_cell_length_c   6.06624936
_cell_angle_alpha   89.99953133
_cell_angle_beta   89.99886769
_cell_angle_gamma   119.99939614
_symmetry_Int_Tables_number   1
_chemical_formula_structural   Sm6Ge3Se14
_chemical_formula_sum   'Sm6 Ge3 Se14'
_cell_volume   583.63621128
_cell_formula_units_Z   1
loop_
 _symmetry_equiv_pos_site_id
 _symmetry_equiv_pos_as_xyz
  1  'x, y, z'
loop_
 _atom_site_type_symbol
 _atom_site_label
 _atom_site_symmetry_multiplicity
 _atom_site_fract_x
 _atom_site_fract_y
 _atom_site_fract_z
 _atom_site_occupancy
  Sm  Sm0  1  0.30947373  0.10577793  0.75398663  1
  Sm  Sm1  1  0.79630288  0.69052202  0.75398907  1
  Sm  Sm2  1  0.89421540  0.20369479  0.75397450  1
  Sm  Sm3  1  0.02530310  0.56136054  0.24835801  1
  Sm  Sm4  1  0.53605754  0.97470395  0.24834678  1
  Sm  Sm5  1  0.43864014  0.46394826  0.24834361  1
  Ge  Ge0  1  0.00000740  -0.00000948  0.17025519  1
  Ge  Ge1  1  0.33333534  0.66667125  0.66376224  1
  Ge  Ge2  1  0.66666487  0.33333680  0.51976484  1
  Se  Se0  1  0.00000396  -0.00000121  0.55309196  1
  Se  Se1  1  0.33333360  0.66668273  0.04667276  1
  Se  Se2  1  0.14978312  0.23421735  0.00913200  1
  Se  Se3  1  0.08442878  0.85019091  0.00910025  1
  Se  Se4  1  0.76577988  0.91555205  0.00913161  1
  Se  Se5  1  0.18338797  0.43246126  0.50411620  1
  Se  Se6  1  0.24907808  0.81663227  0.50411925  1
  Se  Se7  1  0.56754684  0.75093075  0.50412026  1
  Se  Se8  1  0.41077084  0.17338405  0.28159861  1
  Se  Se9  1  0.76258755  0.58921643  0.28149904  1
  Se  Se10  1  0.82664398  0.23740028  0.28154450  1
  Se  Se11  1  0.92505771  0.49779562  0.77303502  1
  Se  Se12  1  0.57273013  0.07493182  0.77303475  1
  Se  Se13  1  0.50220215  0.42726462  0.77306090  1
loop_
_geom_bond_atom_site_label_1
_geom_bond_atom_site_label_2
_geom_bond_distance
_geom_bond_site_symmetry_2
Ge0 Se0 2.322383 1_555
Ge0 Se2 2.375904 1_555
Ge0 Se3 2.375978 1_545
Ge0 Se4 2.375985 1_445
Ge1 Se1 2.322831 1_556
Ge1 Se7 2.372387 1_555
Ge1 Se5 2.372411 1_555
Ge1 Se6 2.372451 1_555
Ge2 Se8 2.767209 1_555
Ge2 Se9 2.767347 1_555
Ge2 Se10 2.767493 1_555
Ge2 Se13 2.839369 1_555
Ge2 Se11 2.839370 1_555
Ge2 Se12 2.839385 1_555
Se0 Sm0 3.119529 1_555
Se0 Sm1 3.119535 1_445
Se0 Sm2 3.119551 1_455
Se1 Sm4 3.108979 1_555
Se1 Sm3 3.109005 1_555
Se1 Sm5 3.109088 1_555
Se2 Sm2 2.981452 1_454
Se2 Sm0 3.056105 1_554
Se2 Sm5 3.141116 1_555
Se3 Sm0 2.981354 1_564
Se3 Sm1 3.056036 1_454
Se3 Sm3 3.140914 1_555
Se4 Sm1 2.981224 1_554
Se4 Sm2 3.056238 1_564
Se4 Sm4 3.141127 1_555
Se5 Sm5 2.977034 1_555
Se5 Sm3 3.048452 1_555
Se5 Sm2 3.170460 1_455
Se6 Sm3 2.977205 1_555
Se6 Sm4 3.048436 1_555
Se6 Sm0 3.170295 1_565
Se7 Sm4 2.977118 1_555
Se7 Sm5 3.048513 1_555
Se7 Sm1 3.170448 1_555
Se8 Sm5 2.933707 1_555
Se8 Sm4 2.989153 1_545
Se8 Sm0 3.016383 1_555
Se8 Sm0 3.336330 1_554
Se9 Sm3 2.933815 1_655
Se9 Sm5 2.988998 1_555
Se9 Sm1 3.017019 1_555
Se9 Sm1 3.335703 1_554
Se10 Sm4 2.933873 1_545
Se10 Sm3 2.989062 1_655
Se10 Sm2 3.016586 1_555
Se10 Sm2 3.335981 1_554
Se11 Sm2 2.953023 1_555
Se11 Sm1 2.956026 1_555
Se11 Sm3 3.028481 1_656
Se11 Sm3 3.314751 1_655
Se12 Sm0 2.953044 1_555
Se12 Sm2 2.956097 1_555
Se12 Sm4 3.028325 1_546
Se12 Sm4 3.314808 1_545
Se13 Sm1 2.953058 1_555
Se13 Sm0 2.956105 1_555
Se13 Sm5 3.028209 1_556
Se13 Sm5 3.315017 1_555
