# generated using pymatgen
data_La6Al5Fe9
_symmetry_space_group_name_H-M   'P 1'
_cell_length_a   13.31264716
_cell_length_b   13.31264716
_cell_length_c   13.31264716
_cell_angle_alpha   144.08883236
_cell_angle_beta   144.08883236
_cell_angle_gamma   51.69447767
_symmetry_Int_Tables_number   1
_chemical_formula_structural   La6Al5Fe9
_chemical_formula_sum   'La12 Al10 Fe18'
_cell_volume   807.17175185
_cell_formula_units_Z   2
loop_
 _symmetry_equiv_pos_site_id
 _symmetry_equiv_pos_as_xyz
  1  'x, y, z'
loop_
 _atom_site_type_symbol
 _atom_site_label
 _atom_site_symmetry_multiplicity
 _atom_site_fract_x
 _atom_site_fract_y
 _atom_site_fract_z
 _atom_site_occupancy
  La  La0  1  0.85724700  0.35724700  0.83634800  1
  La  La1  1  0.14275300  0.64275300  0.16365200  1
  La  La2  1  0.52089900  0.02089900  0.16365200  1
  La  La3  1  0.35724700  0.52089900  0.50000000  1
  La  La4  1  0.97910100  0.14275300  0.50000000  1
  La  La5  1  0.47910100  0.97910100  0.83634800  1
  La  La6  1  0.64275300  0.47910100  0.50000000  1
  La  La7  1  0.02089900  0.85724700  0.50000000  1
  La  La8  1  0.10655800  0.10655800  0.00000000  1
  La  La9  1  0.89344200  0.89344200  0.00000000  1
  La  La10  1  0.39344200  0.39344200  0.00000000  1
  La  La11  1  0.60655800  0.60655800  0.00000000  1
  Al  Al0  1  0.20960800  0.70960800  0.73698600  1
  Al  Al1  1  0.79039200  0.29039200  0.26301400  1
  Al  Al2  1  0.97262200  0.47262200  0.26301400  1
  Al  Al3  1  0.70960800  0.97262200  0.50000000  1
  Al  Al4  1  0.52737800  0.79039200  0.50000000  1
  Al  Al5  1  0.02737800  0.52737800  0.73698600  1
  Al  Al6  1  0.29039200  0.02737800  0.50000000  1
  Al  Al7  1  0.47262200  0.20960800  0.50000000  1
  Al  Al8  1  0.25000000  0.25000000  0.00000000  1
  Al  Al9  1  0.75000000  0.75000000  0.00000000  1
  Fe  Fe0  1  0.21044300  0.06809200  0.27853500  1
  Fe  Fe1  1  0.78955700  0.93190800  0.72146500  1
  Fe  Fe2  1  0.06809200  0.78955700  0.85765000  1
  Fe  Fe3  1  0.71044300  0.43190800  0.14235000  1
  Fe  Fe4  1  0.93190800  0.21044300  0.14235000  1
  Fe  Fe5  1  0.28955700  0.56809200  0.85765000  1
  Fe  Fe6  1  0.56809200  0.71044300  0.27853500  1
  Fe  Fe7  1  0.43190800  0.28955700  0.72146500  1
  Fe  Fe8  1  0.73143300  0.23143300  0.85235800  1
  Fe  Fe9  1  0.26856700  0.76856700  0.14764200  1
  Fe  Fe10  1  0.37907500  0.87907500  0.14764200  1
  Fe  Fe11  1  0.23143300  0.37907500  0.50000000  1
  Fe  Fe12  1  0.12092500  0.26856700  0.50000000  1
  Fe  Fe13  1  0.62092500  0.12092500  0.85235800  1
  Fe  Fe14  1  0.76856700  0.62092500  0.50000000  1
  Fe  Fe15  1  0.87907500  0.73143300  0.50000000  1
  Fe  Fe16  1  0.50000000  0.00000000  0.50000000  1
  Fe  Fe17  1  0.00000000  0.50000000  0.50000000  1
loop_
_geom_bond_atom_site_label_1
_geom_bond_atom_site_label_2
_geom_bond_distance
_geom_bond_site_symmetry_2
Al0 Fe10 2.533598 1_556
Al0 Fe17 2.580416 1_555
Al0 Fe15 2.610091 1_455
Al0 Fe11 2.610091 1_555
Al0 Fe5 2.628567 1_555
Al0 Fe2 2.628567 1_555
Al0 Al2 2.750914 1_455
Al0 La8 3.299800 1_566
Al0 La11 3.299800 1_556
Al0 La3 3.348477 1_555
Al0 La7 3.348477 1_555
Al0 La2 3.412015 1_566
Al1 Fe13 2.533598 1_554
Al1 Fe17 2.580416 1_655
Al1 Fe12 2.610091 1_655
Al1 Fe14 2.610091 1_555
Al1 Fe4 2.628567 1_555
Al1 Fe3 2.628567 1_555
Al1 Al5 2.750914 1_655
Al1 La10 3.299800 1_555
Al1 La9 3.299800 1_545
Al1 La6 3.348477 1_555
Al1 La4 3.348477 1_555
Al1 La5 3.412015 1_544
Al2 Fe8 2.533598 1_554
Al2 Fe17 2.580416 1_655
Al2 Fe15 2.610091 1_555
Al2 Fe11 2.610091 1_655
Al2 Fe3 2.628547 1_555
Al2 Fe4 2.628547 1_555
Al2 La11 3.299800 1_555
Al2 La8 3.299800 1_655
Al2 La7 3.348477 1_655
Al2 La3 3.348477 1_655
Al2 La0 3.412015 1_554
Al3 Fe15 2.533598 1_555
Al3 Fe16 2.580416 1_565
Al3 Fe8 2.610091 1_565
Al3 Fe10 2.610091 1_555
Al3 Fe6 2.628555 1_555
Al3 Fe1 2.628555 1_555
Al3 Al7 2.750914 1_565
Al3 La8 3.299800 1_666
Al3 La11 3.299800 1_555
Al3 La2 3.348477 1_565
Al3 La0 3.348477 1_565
Al3 La7 3.412015 1_655
Al4 Fe14 2.533598 1_555
Al4 Fe16 2.580416 1_565
Al4 Fe13 2.610091 1_565
Al4 Fe9 2.610091 1_555
Al4 Fe1 2.628555 1_555
Al4 Fe6 2.628555 1_555
Al4 Al6 2.750914 1_565
Al4 La9 3.299800 1_556
Al4 La10 3.299800 1_555
Al4 La1 3.348477 1_555
Al4 La5 3.348477 1_555
Al4 La6 3.412015 1_555
Al5 Fe9 2.533598 1_556
Al5 Fe17 2.580416 1_555
Al5 Fe14 2.610091 1_455
Al5 Fe12 2.610091 1_555
Al5 Fe2 2.628547 1_555
Al5 Fe5 2.628547 1_555
Al5 La10 3.299800 1_556
Al5 La9 3.299800 1_456
Al5 La4 3.348477 1_455
Al5 La6 3.348477 1_455
Al5 La1 3.412015 1_556
Al6 Fe12 2.533598 1_555
Al6 Fe16 2.580416 1_555
Al6 Fe13 2.610091 1_555
Al6 Fe9 2.610091 1_545
Al6 Fe0 2.628555 1_555
Al6 Fe7 2.628555 1_555
Al6 La9 3.299800 1_445
Al6 La10 3.299800 1_556
Al6 La5 3.348477 1_545
Al6 La1 3.348477 1_545
Al6 La4 3.412015 1_455
Al7 Fe11 2.533598 1_555
Al7 Fe16 2.580416 1_555
Al7 Fe10 2.610091 1_545
Al7 Fe8 2.610091 1_555
Al7 Fe0 2.628555 1_555
Al7 Fe7 2.628555 1_555
Al7 La8 3.299800 1_555
Al7 La11 3.299800 1_556
Al7 La2 3.348477 1_555
Al7 La0 3.348477 1_555
Al7 La3 3.412015 1_555
Al8 La1 3.384525 1_555
Al8 La2 3.384525 1_555
Al8 La4 3.384525 1_454
Al8 La3 3.384525 1_555
Al8 La6 3.384525 1_555
Al8 La5 3.384525 1_544
Al8 La7 3.384525 1_544
Al8 La0 3.384525 1_454
Al8 La10 3.437113 1_555
Al8 La8 3.437113 1_555
Al9 La1 3.384525 1_655
Al9 La4 3.384525 1_565
Al9 La2 3.384525 1_565
Al9 La3 3.384525 1_554
Al9 La7 3.384525 1_655
Al9 La6 3.384525 1_554
Al9 La5 3.384525 1_554
Al9 La0 3.384525 1_554
Al9 La9 3.437113 1_555
Al9 La11 3.437113 1_555
Fe0 Fe16 2.441525 1_555
Fe0 Fe12 2.497590 1_555
Fe0 Fe11 2.497590 1_555
Fe0 Fe2 2.567491 1_544
Fe0 Fe4 2.567498 1_455
Fe0 Fe7 2.570747 1_555
Fe0 Fe9 2.576611 1_545
Fe0 Fe10 2.576611 1_545
Fe0 La8 3.132955 1_555
Fe0 La9 3.132955 1_445
Fe1 Fe16 2.441525 1_565
Fe1 Fe14 2.497590 1_555
Fe1 Fe15 2.497590 1_555
Fe1 Fe4 2.567491 1_566
Fe1 Fe2 2.567498 1_655
Fe1 Fe6 2.570747 1_555
Fe1 Fe13 2.576611 1_565
Fe1 Fe8 2.576611 1_565
Fe1 La9 3.132955 1_556
Fe1 La8 3.132955 1_666
Fe2 Fe9 2.497580 1_556
Fe2 Fe5 2.570747 1_555
Fe2 La9 3.132944 1_456
Fe2 La8 3.132964 1_566
Fe3 Fe8 2.497580 1_554
Fe3 Fe7 2.567491 1_554
Fe3 Fe6 2.567498 1_555
Fe3 Fe4 2.570747 1_555
Fe3 La11 3.132944 1_555
Fe3 La10 3.132964 1_555
Fe4 Fe8 2.497580 1_554
Fe4 La8 3.132944 1_655
Fe4 La9 3.132964 1_545
Fe5 Fe9 2.497580 1_556
Fe5 Fe6 2.567491 1_556
Fe5 Fe7 2.567498 1_555
Fe5 La10 3.132944 1_556
Fe5 La11 3.132964 1_556
Fe6 Fe9 2.576611 1_555
Fe6 La11 3.132955 1_555
Fe6 La10 3.132955 1_555
Fe7 Fe8 2.576611 1_555
Fe7 La10 3.132955 1_556
Fe7 La11 3.132955 1_556
Fe8 La0 3.207875 1_555
Fe8 La8 3.266041 1_656
Fe8 La11 3.266041 1_556
Fe9 La1 3.207875 1_555
Fe9 La10 3.266041 1_555
Fe9 La9 3.266041 1_455
Fe10 Fe16 2.436234 1_565
Fe10 Fe5 2.497592 1_554
Fe10 Fe2 2.497592 1_554
Fe10 Fe6 2.576611 1_555
Fe10 Fe9 2.647958 1_555
Fe10 La2 3.207875 1_565
Fe10 La8 3.266041 1_565
Fe10 La11 3.266041 1_555
Fe11 Fe17 2.436234 1_555
Fe11 Fe7 2.497590 1_555
Fe11 Fe4 2.576609 1_455
Fe11 Fe5 2.576622 1_555
Fe11 Fe12 2.647958 1_555
Fe11 La3 3.207875 1_555
Fe11 La8 3.266041 1_555
Fe11 La11 3.266041 1_556
Fe12 Fe17 2.436234 1_555
Fe12 Fe7 2.497590 1_555
Fe12 Fe5 2.576609 1_555
Fe12 Fe4 2.576622 1_455
Fe12 La4 3.207875 1_455
Fe12 La10 3.266041 1_556
Fe12 La9 3.266041 1_445
Fe13 Fe16 2.436234 1_555
Fe13 Fe4 2.497592 1_556
Fe13 Fe3 2.497592 1_556
Fe13 Fe7 2.576611 1_555
Fe13 Fe8 2.647958 1_555
Fe13 La5 3.207875 1_545
Fe13 La10 3.266041 1_556
Fe13 La9 3.266041 1_546
Fe14 Fe17 2.436234 1_655
Fe14 Fe6 2.497590 1_555
Fe14 Fe2 2.576609 1_655
Fe14 Fe3 2.576622 1_555
Fe14 Fe15 2.647958 1_555
Fe14 La6 3.207875 1_555
Fe14 La9 3.266041 1_556
Fe14 La10 3.266041 1_555
Fe15 Fe17 2.436234 1_655
Fe15 Fe6 2.497590 1_555
Fe15 Fe3 2.576609 1_555
Fe15 Fe2 2.576622 1_655
Fe15 La7 3.207875 1_655
Fe15 La8 3.266041 1_666
Fe15 La11 3.266041 1_555
Fe16 Fe8 2.436234 1_555
Fe16 Fe9 2.436234 1_545
Fe16 Fe7 2.441525 1_555
Fe16 Fe6 2.441525 1_545
Fe17 Fe4 2.441530 1_455
Fe17 Fe5 2.441530 1_555
Fe17 Fe3 2.441530 1_455
Fe17 Fe2 2.441530 1_555
