# generated using pymatgen
data_BaCaMg14
_symmetry_space_group_name_H-M   'P 1'
_cell_length_a   6.73011390
_cell_length_b   6.67344384
_cell_length_c   10.74877272
_cell_angle_alpha   90.00000000
_cell_angle_beta   90.00000000
_cell_angle_gamma   119.72185100
_symmetry_Int_Tables_number   1
_chemical_formula_structural   BaCaMg14
_chemical_formula_sum   'Ba1 Ca1 Mg14'
_cell_volume   419.24932434
_cell_formula_units_Z   1
loop_
 _symmetry_equiv_pos_site_id
 _symmetry_equiv_pos_as_xyz
  1  'x, y, z'
loop_
 _atom_site_type_symbol
 _atom_site_label
 _atom_site_symmetry_multiplicity
 _atom_site_fract_x
 _atom_site_fract_y
 _atom_site_fract_z
 _atom_site_occupancy
  Ba  Ba0  1  0.16521498  0.83260699  0.12500000  1
  Ca  Ca0  1  0.17515724  0.33757812  0.12500000  1
  Mg  Mg0  1  0.16360369  0.33180134  0.62500000  1
  Mg  Mg1  1  0.16486582  0.83243241  0.62500000  1
  Mg  Mg2  1  0.66300866  0.33347607  0.12500000  1
  Mg  Mg3  1  0.66827145  0.33309089  0.62500000  1
  Mg  Mg4  1  0.66300866  0.82953159  0.12500000  1
  Mg  Mg5  1  0.66827145  0.83517956  0.62500000  1
  Mg  Mg6  1  0.34283916  0.17658101  0.39309315  1
  Mg  Mg7  1  0.34283916  0.17658101  0.85690685  1
  Mg  Mg8  1  0.34283916  0.66625915  0.39309315  1
  Mg  Mg9  1  0.34283916  0.66625915  0.85690685  1
  Mg  Mg10  1  0.82849415  0.16424757  0.37739875  1
  Mg  Mg11  1  0.82849415  0.16424757  0.87260125  1
  Mg  Mg12  1  0.82012656  0.66006378  0.38682332  1
  Mg  Mg13  1  0.82012656  0.66006378  0.86317668  1
loop_
_geom_bond_atom_site_label_1
_geom_bond_atom_site_label_2
_geom_bond_distance
_geom_bond_site_symmetry_2
Ba0 Ca0 3.337228 1_565
Ba0 Ca0 3.337228 1_555
Ba0 Mg2 3.360430 1_565
Ba0 Mg4 3.360431 1_555
Ba0 Mg2 3.369777 1_455
Ba0 Mg4 3.369778 1_455
Ba0 Mg13 3.462403 1_454
Ba0 Mg12 3.462403 1_455
Ba0 Mg9 3.504473 1_554
Ba0 Mg8 3.504473 1_555
Ba0 Mg7 3.504479 1_564
Ba0 Mg6 3.504479 1_565
Ca0 Mg4 3.296953 1_555
Ca0 Mg2 3.296953 1_555
Ca0 Mg11 3.386077 1_454
Ca0 Mg10 3.386077 1_455
Ca0 Mg4 3.433328 1_445
Ca0 Mg2 3.433328 1_455
Ca0 Mg6 3.454593 1_555
Ca0 Mg7 3.454593 1_554
Ca0 Mg9 3.454599 1_554
Ca0 Mg8 3.454599 1_555
Mg0 Mg6 3.159228 1_555
Mg0 Mg7 3.159228 1_555
Mg0 Mg8 3.159235 1_555
Mg0 Mg9 3.159235 1_555
Mg0 Mg11 3.304436 1_455
Mg0 Mg10 3.304436 1_455
Mg0 Mg1 3.336730 1_545
Mg0 Mg1 3.336730 1_555
Mg0 Mg5 3.337917 1_445
Mg0 Mg3 3.337917 1_455
Mg0 Mg5 3.392213 1_555
Mg0 Mg3 3.392213 1_555
Mg1 Mg8 3.192986 1_555
Mg1 Mg9 3.192986 1_555
Mg1 Mg7 3.192993 1_565
Mg1 Mg6 3.192993 1_565
Mg1 Mg12 3.257911 1_455
Mg1 Mg13 3.257911 1_455
Mg1 Mg3 3.351263 1_455
Mg1 Mg5 3.351264 1_455
Mg1 Mg3 3.378925 1_565
Mg1 Mg5 3.378925 1_555
Mg2 Mg4 3.310399 1_555
Mg2 Mg4 3.363045 1_545
Mg2 Mg6 3.436023 1_555
Mg2 Mg7 3.436023 1_554
Mg3 Mg7 3.135788 1_555
Mg3 Mg6 3.135788 1_555
Mg3 Mg5 3.322783 1_545
Mg3 Mg5 3.350661 1_555
Mg4 Mg8 3.436023 1_555
Mg4 Mg9 3.436023 1_554
Mg5 Mg9 3.135788 1_555
Mg5 Mg8 3.135788 1_555
Mg6 Mg8 3.267840 1_555
Mg6 Mg8 3.405604 1_545
Mg7 Mg9 3.267840 1_555
Mg7 Mg9 3.405604 1_545
Mg10 Mg3 3.274180 1_555
Mg10 Mg5 3.274186 1_545
Mg10 Mg8 3.314388 1_545
Mg10 Mg6 3.314388 1_555
Mg10 Mg2 3.335153 1_555
Mg10 Mg4 3.335160 1_545
Mg10 Mg12 3.338618 1_545
Mg10 Mg12 3.338618 1_555
Mg10 Mg8 3.425696 1_655
Mg10 Mg6 3.425697 1_655
Mg11 Mg3 3.274180 1_555
Mg11 Mg5 3.274186 1_545
Mg11 Mg9 3.314388 1_545
Mg11 Mg7 3.314388 1_555
Mg11 Mg2 3.335153 1_556
Mg11 Mg4 3.335160 1_546
Mg11 Mg13 3.338618 1_545
Mg11 Mg13 3.338618 1_555
Mg11 Mg9 3.425696 1_655
Mg11 Mg7 3.425697 1_655
Mg12 Mg5 3.185687 1_555
Mg12 Mg3 3.185694 1_555
Mg12 Mg6 3.233598 1_555
Mg12 Mg8 3.233598 1_555
Mg12 Mg4 3.391626 1_555
Mg12 Mg2 3.391632 1_555
Mg12 Mg6 3.498250 1_665
Mg12 Mg8 3.498251 1_655
Mg13 Mg5 3.185687 1_555
Mg13 Mg3 3.185694 1_555
Mg13 Mg7 3.233598 1_555
Mg13 Mg9 3.233598 1_555
Mg13 Mg4 3.391626 1_556
Mg13 Mg2 3.391632 1_556
Mg13 Mg7 3.498250 1_665
Mg13 Mg9 3.498251 1_655
