# generated using pymatgen
data_H5SeNO4
_symmetry_space_group_name_H-M   'P 1'
_cell_length_a   4.67405500
_cell_length_b   7.61253057
_cell_length_c   10.78359144
_cell_angle_alpha   110.63285314
_cell_angle_beta   102.21932426
_cell_angle_gamma   89.88788505
_symmetry_Int_Tables_number   1
_chemical_formula_structural   H5SeNO4
_chemical_formula_sum   'H15 Se3 N3 O12'
_cell_volume   349.84075367
_cell_formula_units_Z   3
loop_
 _symmetry_equiv_pos_site_id
 _symmetry_equiv_pos_as_xyz
  1  'x, y, z'
loop_
 _atom_site_type_symbol
 _atom_site_label
 _atom_site_symmetry_multiplicity
 _atom_site_fract_x
 _atom_site_fract_y
 _atom_site_fract_z
 _atom_site_occupancy
  H  H0  1  0.56488400  0.99421400  0.25586700  1
  H  H1  1  0.43509300  0.73809100  0.74404800  1
  H  H2  1  0.89430600  0.48458000  0.05982600  1
  H  H3  1  0.10595000  0.42418700  0.94042600  1
  H  H4  1  0.74465800  0.08025000  0.42173200  1
  H  H5  1  0.25533400  0.65864700  0.57823500  1
  H  H6  1  0.93217800  0.01219700  0.29647700  1
  H  H7  1  0.06766100  0.71563800  0.70322200  1
  H  H8  1  0.14916900  0.64091200  0.06229100  1
  H  H9  1  0.85083500  0.57903900  0.93768100  1
  H  H10  1  0.18088700  0.44859900  0.31499100  1
  H  H11  1  0.81948900  0.13366700  0.68546800  1
  H  H12  1  0.54905700  0.12842400  0.00474500  1
  H  H13  1  0.75353300  0.20935400  0.32501400  1
  H  H14  1  0.24592100  0.88448700  0.67505800  1
  Se  Se0  1  0.63695300  0.59057300  0.33452100  1
  Se  Se1  1  0.36258300  0.25603400  0.66548900  1
  Se  Se2  1  0.00759400  0.99901800  0.99680400  1
  N  N0  1  0.00009900  0.52886600  0.99998400  1
  N  N1  1  0.74908400  0.07295400  0.32486900  1
  N  N2  1  0.25067800  0.74813500  0.67505800  1
  O  O0  1  0.68250100  0.65373600  0.20761300  1
  O  O1  1  0.31700600  0.44614100  0.79228900  1
  O  O2  1  0.76797500  0.16714200  0.05999500  1
  O  O3  1  0.23430000  0.10536400  0.93983200  1
  O  O4  1  0.91928900  0.47600800  0.38535700  1
  O  O5  1  0.08077000  0.09107300  0.61455800  1
  O  O6  1  0.34502400  0.41351200  0.26159700  1
  O  O7  1  0.65506900  0.15164100  0.73864200  1
  O  O8  1  0.55133800  0.75954000  0.46259600  1
  O  O9  1  0.44836200  0.29687900  0.53740800  1
  O  O10  1  0.17388200  0.94328400  0.12840000  1
  O  O11  1  0.81953800  0.81261000  0.87190700  1
loop_
_geom_bond_atom_site_label_1
_geom_bond_atom_site_label_2
_geom_bond_distance
_geom_bond_site_symmetry_2
H0 N1 1.034755 1_565
H1 N2 1.034739 1_555
H2 N0 1.031332 1_654
H3 N0 1.031769 1_555
H4 N1 1.030929 1_555
H5 N2 1.031009 1_555
H6 N1 1.024502 1_555
H7 N2 1.024186 1_555
H8 N0 1.031847 1_554
H9 N0 1.032178 1_655
H10 O6 1.034040 1_555
H10 O4 1.547427 1_455
H11 O7 1.033903 1_555
H11 O5 1.549289 1_655
H12 O2 1.052715 1_555
H12 O3 1.470948 1_554
H13 N1 1.038042 1_555
H14 N2 1.038178 1_555
O0 Se0 1.654346 1_555
O1 Se1 1.654366 1_555
O2 Se2 1.749160 1_644
O3 Se2 1.668866 1_545
O4 Se0 1.681909 1_555
O5 Se1 1.681610 1_555
O6 Se0 1.761533 1_555
O7 Se1 1.761767 1_555
O8 Se0 1.643787 1_555
O9 Se1 1.643967 1_555
O10 Se2 1.659527 1_554
O11 Se2 1.660439 1_655
