# generated using pymatgen
data_Pb(C4N3)2
_symmetry_space_group_name_H-M   'P 1'
_cell_length_a   5.81730600
_cell_length_b   8.48627800
_cell_length_c   11.52798400
_cell_angle_alpha   90.00000000
_cell_angle_beta   90.00000000
_cell_angle_gamma   90.00000000
_symmetry_Int_Tables_number   1
_chemical_formula_structural   Pb(C4N3)2
_chemical_formula_sum   'Pb2 C16 N12'
_cell_volume   569.10516701
_cell_formula_units_Z   2
loop_
 _symmetry_equiv_pos_site_id
 _symmetry_equiv_pos_as_xyz
  1  'x, y, z'
loop_
 _atom_site_type_symbol
 _atom_site_label
 _atom_site_symmetry_multiplicity
 _atom_site_fract_x
 _atom_site_fract_y
 _atom_site_fract_z
 _atom_site_occupancy
  Pb  Pb0  1  0.00000000  0.50000000  0.50000000  1
  Pb  Pb1  1  0.00000000  0.00000000  0.00000000  1
  C  C0  1  0.40573900  0.00000000  0.73934800  1
  C  C1  1  0.40573900  0.50000000  0.76065200  1
  C  C2  1  0.59426100  0.00000000  0.26065200  1
  C  C3  1  0.59426100  0.50000000  0.23934800  1
  C  C4  1  0.58978000  0.00000000  0.66058500  1
  C  C5  1  0.58978000  0.50000000  0.83941500  1
  C  C6  1  0.41022000  0.00000000  0.33941500  1
  C  C7  1  0.41022000  0.50000000  0.16058500  1
  C  C8  1  0.68332400  0.14243000  0.62092200  1
  C  C9  1  0.68332400  0.35757000  0.87907800  1
  C  C10  1  0.31667600  0.14243000  0.37907800  1
  C  C11  1  0.68332400  0.64243000  0.87907800  1
  C  C12  1  0.31667600  0.85757000  0.37907800  1
  C  C13  1  0.31667600  0.64243000  0.12092200  1
  C  C14  1  0.68332400  0.85757000  0.62092200  1
  C  C15  1  0.31667600  0.35757000  0.12092200  1
  N  N0  1  0.76115000  0.26107300  0.58683500  1
  N  N1  1  0.76115000  0.23892700  0.91316500  1
  N  N2  1  0.23885000  0.26107300  0.41316500  1
  N  N3  1  0.76115000  0.76107300  0.91316500  1
  N  N4  1  0.23885000  0.73892700  0.41316500  1
  N  N5  1  0.23885000  0.76107300  0.08683500  1
  N  N6  1  0.76115000  0.73892700  0.58683500  1
  N  N7  1  0.23885000  0.23892700  0.08683500  1
  N  N8  1  0.25085000  0.00000000  0.80445800  1
  N  N9  1  0.25085000  0.50000000  0.69554200  1
  N  N10  1  0.74915000  0.00000000  0.19554200  1
  N  N11  1  0.74915000  0.50000000  0.30445800  1
loop_
_geom_bond_atom_site_label_1
_geom_bond_atom_site_label_2
_geom_bond_distance
_geom_bond_site_symmetry_2
C0 N8 1.172710 1_555
C0 C4 1.403801 1_555
C1 N9 1.172710 1_555
C1 C5 1.403801 1_555
C2 N10 1.172710 1_555
C2 C6 1.403801 1_555
C3 N11 1.172710 1_555
C3 C7 1.403801 1_555
C4 C8 1.402193 1_555
C5 C9 1.402193 1_555
C8 N0 1.171796 1_555
C9 N1 1.171796 1_555
C10 N2 1.171796 1_555
C10 C6 1.402193 1_555
C11 N3 1.171796 1_555
C11 C5 1.402193 1_555
C12 N4 1.171796 1_555
C12 C6 1.402193 1_565
C13 N5 1.171796 1_555
C13 C7 1.402193 1_555
C14 N6 1.171796 1_555
C14 C4 1.402193 1_565
C15 N7 1.171796 1_555
C15 C7 1.402193 1_555
N0 Pb0 2.654023 1_655
N1 Pb1 2.654023 1_656
N2 Pb0 2.654023 1_555
N3 Pb1 2.654023 1_666
N4 Pb0 2.654023 1_555
N5 Pb1 2.654023 1_565
N6 Pb0 2.654023 1_655
N7 Pb1 2.654023 1_555
N8 Pb1 2.685314 1_556
N9 Pb0 2.685314 1_555
N10 Pb1 2.685314 1_655
N11 Pb0 2.685314 1_655
