# generated using pymatgen
data_CuSb3XeF23
_symmetry_space_group_name_H-M   'P 1'
_cell_length_a   10.47025100
_cell_length_b   11.09874600
_cell_length_c   19.44545611
_cell_angle_alpha   55.55263527
_cell_angle_beta   90.00000000
_cell_angle_gamma   90.00000000
_symmetry_Int_Tables_number   1
_chemical_formula_structural   CuSb3XeF23
_chemical_formula_sum   'Cu4 Sb12 Xe4 F92'
_cell_volume   1863.44589979
_cell_formula_units_Z   4
loop_
 _symmetry_equiv_pos_site_id
 _symmetry_equiv_pos_as_xyz
  1  'x, y, z'
loop_
 _atom_site_type_symbol
 _atom_site_label
 _atom_site_symmetry_multiplicity
 _atom_site_fract_x
 _atom_site_fract_y
 _atom_site_fract_z
 _atom_site_occupancy
  Cu  Cu0  1  0.50000000  0.50000000  0.50000000  1
  Cu  Cu1  1  0.00000000  0.50000000  0.00000000  1
  Cu  Cu2  1  0.00000000  0.00000000  0.50000000  1
  Cu  Cu3  1  0.50000000  0.00000000  0.00000000  1
  Sb  Sb0  1  0.70606400  0.22250200  0.48296500  1
  Sb  Sb1  1  0.79393600  0.22250200  0.98296500  1
  Sb  Sb2  1  0.29393600  0.77749800  0.51703500  1
  Sb  Sb3  1  0.20606400  0.77749800  0.01703500  1
  Sb  Sb4  1  0.78836800  0.69682000  0.50904100  1
  Sb  Sb5  1  0.71163200  0.69682000  0.00904100  1
  Sb  Sb6  1  0.21163200  0.30318000  0.49095900  1
  Sb  Sb7  1  0.28836800  0.30318000  0.99095900  1
  Sb  Sb8  1  0.99332700  0.20569600  0.25679800  1
  Sb  Sb9  1  0.50667300  0.20569600  0.75679800  1
  Sb  Sb10  1  0.00667300  0.79430400  0.74320200  1
  Sb  Sb11  1  0.49332700  0.79430400  0.24320200  1
  Xe  Xe0  1  0.94569100  0.78867000  0.25581200  1
  Xe  Xe1  1  0.55430900  0.78867000  0.75581200  1
  Xe  Xe2  1  0.05430900  0.21133000  0.74418800  1
  Xe  Xe3  1  0.44569100  0.21133000  0.24418800  1
  F  F0  1  0.06033800  0.65156200  0.25427900  1
  F  F1  1  0.43966200  0.65156200  0.75427900  1
  F  F2  1  0.93966200  0.34843800  0.74572100  1
  F  F3  1  0.56033800  0.34843800  0.24572100  1
  F  F4  1  0.07642500  0.77411200  0.33251500  1
  F  F5  1  0.42357500  0.77411200  0.83251500  1
  F  F6  1  0.92357500  0.22588800  0.66748500  1
  F  F7  1  0.57642500  0.22588800  0.16748500  1
  F  F8  1  0.85175800  0.76397600  0.17699800  1
  F  F9  1  0.64824200  0.76397600  0.67699800  1
  F  F10  1  0.14824200  0.23602400  0.82300200  1
  F  F11  1  0.35175800  0.23602400  0.32300200  1
  F  F12  1  0.05508600  0.93117300  0.16315500  1
  F  F13  1  0.44491400  0.93117300  0.66315500  1
  F  F14  1  0.94491400  0.06882700  0.83684500  1
  F  F15  1  0.55508600  0.06882700  0.33684500  1
  F  F16  1  0.86955800  0.60508600  0.34744200  1
  F  F17  1  0.63044200  0.60508600  0.84744200  1
  F  F18  1  0.13044200  0.39491400  0.65255800  1
  F  F19  1  0.36955800  0.39491400  0.15255800  1
  F  F20  1  0.57630300  0.34282000  0.49291500  1
  F  F21  1  0.92369700  0.34282000  0.99291500  1
  F  F22  1  0.42369700  0.65718000  0.50708500  1
  F  F23  1  0.07630300  0.65718000  0.00708500  1
  F  F24  1  0.68570900  0.07040600  0.59830300  1
  F  F25  1  0.81429100  0.07040600  0.09830300  1
  F  F26  1  0.31429100  0.92959400  0.40169700  1
  F  F27  1  0.18570900  0.92959400  0.90169700  1
  F  F28  1  0.57731800  0.13732800  0.45594700  1
  F  F29  1  0.92268200  0.13732800  0.95594700  1
  F  F30  1  0.42268200  0.86267200  0.54405300  1
  F  F31  1  0.07731800  0.86267200  0.04405300  1
  F  F32  1  0.83715900  0.09949900  0.47308000  1
  F  F33  1  0.66284100  0.09949900  0.97308000  1
  F  F34  1  0.16284100  0.90050100  0.52692000  1
  F  F35  1  0.33715900  0.90050100  0.02692000  1
  F  F36  1  0.72748600  0.37234400  0.36862600  1
  F  F37  1  0.77251400  0.37234400  0.86862600  1
  F  F38  1  0.27251400  0.62765600  0.63137400  1
  F  F39  1  0.22748600  0.62765600  0.13137400  1
  F  F40  1  0.83696300  0.30226800  0.51255400  1
  F  F41  1  0.66303700  0.30226800  0.01255400  1
  F  F42  1  0.16303700  0.69773200  0.48744600  1
  F  F43  1  0.33696300  0.69773200  0.98744600  1
  F  F44  1  0.66650600  0.58808600  0.48236500  1
  F  F45  1  0.83349400  0.58808600  0.98236500  1
  F  F46  1  0.33349400  0.41191400  0.51763500  1
  F  F47  1  0.16650600  0.41191400  0.01763500  1
  F  F48  1  0.91059600  0.54960800  0.54009200  1
  F  F49  1  0.58940400  0.54960800  0.04009200  1
  F  F50  1  0.08940400  0.45039200  0.45990800  1
  F  F51  1  0.41059600  0.45039200  0.95990800  1
  F  F52  1  0.84588300  0.79845900  0.39540400  1
  F  F53  1  0.65411700  0.79845900  0.89540400  1
  F  F54  1  0.15411700  0.20154100  0.60459600  1
  F  F55  1  0.34588300  0.20154100  0.10459600  1
  F  F56  1  0.90819100  0.80650600  0.53125000  1
  F  F57  1  0.59180900  0.80650600  0.03125000  1
  F  F58  1  0.09180900  0.19349400  0.46875000  1
  F  F59  1  0.40819100  0.19349400  0.96875000  1
  F  F60  1  0.66404000  0.84432800  0.47336500  1
  F  F61  1  0.83596000  0.84432800  0.97336500  1
  F  F62  1  0.33596000  0.15567200  0.52663500  1
  F  F63  1  0.16404000  0.15567200  0.02663500  1
  F  F64  1  0.72387200  0.59123800  0.61933800  1
  F  F65  1  0.77612800  0.59123800  0.11933800  1
  F  F66  1  0.27612800  0.40876200  0.38066200  1
  F  F67  1  0.22387200  0.40876200  0.88066200  1
  F  F68  1  0.02008000  0.05699800  0.37615200  1
  F  F69  1  0.47992000  0.05699800  0.87615200  1
  F  F70  1  0.97992000  0.94300200  0.62384800  1
  F  F71  1  0.52008000  0.94300200  0.12384800  1
  F  F72  1  0.95360900  0.05144700  0.24161400  1
  F  F73  1  0.54639100  0.05144700  0.74161400  1
  F  F74  1  0.04639100  0.94855300  0.75838600  1
  F  F75  1  0.45360900  0.94855300  0.25838600  1
  F  F76  1  0.16963200  0.18200300  0.23750400  1
  F  F77  1  0.33036800  0.18200300  0.73750400  1
  F  F78  1  0.83036800  0.81799700  0.76249600  1
  F  F79  1  0.66963200  0.81799700  0.26249600  1
  F  F80  1  0.97047500  0.34858000  0.13839700  1
  F  F81  1  0.52952500  0.34858000  0.63839700  1
  F  F82  1  0.02952500  0.65142000  0.86160300  1
  F  F83  1  0.47047500  0.65142000  0.36160300  1
  F  F84  1  0.03888500  0.35265200  0.27316600  1
  F  F85  1  0.46111500  0.35265200  0.77316600  1
  F  F86  1  0.96111500  0.64734800  0.72683400  1
  F  F87  1  0.53888500  0.64734800  0.22683400  1
  F  F88  1  0.81796300  0.21398000  0.27733900  1
  F  F89  1  0.68203700  0.21398000  0.77733900  1
  F  F90  1  0.18203700  0.78602000  0.72266100  1
  F  F91  1  0.31796300  0.78602000  0.22266100  1
loop_
_geom_bond_atom_site_label_1
_geom_bond_atom_site_label_2
_geom_bond_distance
_geom_bond_site_symmetry_2
Cu0 F46 1.932204 1_555
Cu0 F44 1.932204 1_555
Cu0 F22 1.993094 1_555
Cu0 F20 1.993094 1_555
Cu0 F83 2.246294 1_555
Cu0 F81 2.246294 1_555
Cu1 F47 1.932204 1_555
Cu1 F45 1.932204 1_454
Cu1 F21 1.993094 1_454
Cu1 F23 1.993094 1_555
Cu1 F80 2.246294 1_455
Cu1 F82 2.246294 1_554
Cu2 F34 1.935596 1_545
Cu2 F32 1.935596 1_455
Cu2 F58 2.104491 1_555
Cu2 F56 2.104491 1_445
Cu2 F70 2.126190 1_445
Cu2 F68 2.126190 1_555
Cu3 F35 1.935596 1_545
Cu3 F33 1.935596 1_554
Cu3 F59 2.104491 1_554
Cu3 F57 2.104491 1_545
Cu3 F69 2.126190 1_554
Cu3 F71 2.126190 1_545
F0 Xe0 1.951609 1_455
F1 Xe1 1.951609 1_555
F2 Xe2 1.951609 1_655
F3 Xe3 1.951609 1_555
F4 Xe0 1.962595 1_455
F5 Xe1 1.962595 1_555
F6 Xe2 1.962595 1_655
F7 Xe3 1.962595 1_555
F8 Xe0 1.966307 1_555
F9 Xe1 1.966307 1_555
F10 Xe2 1.966307 1_555
F11 Xe3 1.966307 1_555
F12 Xe0 1.958547 1_455
F13 Xe1 1.958547 1_555
F14 Xe2 1.958547 1_655
F15 Xe3 1.958547 1_555
F16 Xe0 1.963325 1_555
F17 Xe1 1.963325 1_555
F18 Xe2 1.963325 1_555
F19 Xe3 1.963325 1_555
F20 Sb0 1.989684 1_555
F21 Sb1 1.989684 1_555
F22 Sb2 1.989684 1_555
F23 Sb3 1.989684 1_555
F24 Sb0 1.908418 1_555
F25 Sb1 1.908418 1_554
F26 Sb2 1.908418 1_555
F27 Sb3 1.908418 1_556
F28 Sb0 1.883782 1_555
F29 Sb1 1.883782 1_555
F30 Sb2 1.883782 1_555
F31 Sb3 1.883782 1_555
F32 Sb0 2.020285 1_555
F33 Sb1 2.020285 1_555
F34 Sb2 2.020285 1_555
F35 Sb3 2.020285 1_555
F36 Sb0 1.891131 1_555
F37 Sb1 1.891131 1_555
F38 Sb2 1.891131 1_555
F39 Sb3 1.891131 1_555
F40 Sb0 1.889303 1_555
F41 Sb1 1.889303 1_554
F42 Sb2 1.889303 1_555
F43 Sb3 1.889303 1_556
F44 Sb4 2.015355 1_555
F45 Sb5 2.015355 1_556
F46 Sb6 2.015355 1_555
F47 Sb7 2.015355 1_554
F48 Sb4 1.885689 1_555
F49 Sb5 1.885689 1_555
F50 Sb6 1.885689 1_555
F51 Sb7 1.885689 1_555
F52 Sb4 1.923031 1_555
F53 Sb5 1.923031 1_556
F54 Sb6 1.923031 1_555
F55 Sb7 1.923031 1_554
F56 Sb4 1.958889 1_555
F57 Sb5 1.958889 1_555
F58 Sb6 1.958889 1_555
F59 Sb7 1.958889 1_555
F60 Sb4 1.889764 1_555
F61 Sb5 1.889764 1_556
F62 Sb6 1.889764 1_555
F63 Sb7 1.889764 1_554
F64 Sb4 1.893663 1_555
F65 Sb5 1.893663 1_555
F66 Sb6 1.893663 1_555
F67 Sb7 1.893663 1_555
F68 Sb8 1.963536 1_455
F69 Sb9 1.963536 1_555
F70 Sb10 1.963536 1_655
F71 Sb11 1.963536 1_555
F72 Sb8 1.939794 1_555
F73 Sb9 1.939794 1_555
F74 Sb10 1.939794 1_555
F75 Sb11 1.939794 1_555
F76 Sb8 1.931083 1_455
F77 Sb9 1.931083 1_555
F78 Sb10 1.931083 1_655
F79 Sb11 1.931083 1_555
F80 Sb8 1.934537 1_555
F81 Sb9 1.934537 1_555
F82 Sb10 1.934537 1_555
F83 Sb11 1.934537 1_555
F84 Sb8 1.891131 1_455
F85 Sb9 1.891131 1_555
F86 Sb10 1.891131 1_655
F87 Sb11 1.891131 1_555
F88 Sb8 1.892307 1_555
F89 Sb9 1.892307 1_555
F90 Sb10 1.892307 1_555
F91 Sb11 1.892307 1_555
