# generated using pymatgen
data_Er2Si5Ni3
_symmetry_space_group_name_H-M   'P 1'
_cell_length_a   7.84378312
_cell_length_b   7.84378312
_cell_length_c   7.84378312
_cell_angle_alpha   138.07058986
_cell_angle_beta   104.32817105
_cell_angle_gamma   90.49022447
_symmetry_Int_Tables_number   1
_chemical_formula_structural   Er2Si5Ni3
_chemical_formula_sum   'Er4 Si10 Ni6'
_cell_volume   298.28592256
_cell_formula_units_Z   2
loop_
 _symmetry_equiv_pos_site_id
 _symmetry_equiv_pos_as_xyz
  1  'x, y, z'
loop_
 _atom_site_type_symbol
 _atom_site_label
 _atom_site_symmetry_multiplicity
 _atom_site_fract_x
 _atom_site_fract_y
 _atom_site_fract_z
 _atom_site_occupancy
  Er  Er0  1  0.86757200  0.63048800  0.23708400  1
  Er  Er1  1  0.13242800  0.36951200  0.76291600  1
  Er  Er2  1  0.39340400  0.13048800  0.26291600  1
  Er  Er3  1  0.60659600  0.86951200  0.73708400  1
  Si  Si0  1  0.50000000  0.75000000  0.25000000  1
  Si  Si1  1  0.50000000  0.25000000  0.75000000  1
  Si  Si2  1  0.23637700  0.98637700  0.75000000  1
  Si  Si3  1  0.76362300  0.51362300  0.75000000  1
  Si  Si4  1  0.76362300  0.01362300  0.25000000  1
  Si  Si5  1  0.23637700  0.48637700  0.25000000  1
  Si  Si6  1  0.04226000  0.89142900  0.15083200  1
  Si  Si7  1  0.95774000  0.10857100  0.84916800  1
  Si  Si8  1  0.74059700  0.39142900  0.34916800  1
  Si  Si9  1  0.25940300  0.60857100  0.65083200  1
  Ni  Ni0  1  0.00000000  0.75000000  0.75000000  1
  Ni  Ni1  1  0.00000000  0.25000000  0.25000000  1
  Ni  Ni2  1  0.25082100  0.86648700  0.38433500  1
  Ni  Ni3  1  0.74917900  0.13351300  0.61566500  1
  Ni  Ni4  1  0.48215200  0.36648700  0.11566500  1
  Ni  Ni5  1  0.51784800  0.63351300  0.88433500  1
loop_
_geom_bond_atom_site_label_1
_geom_bond_atom_site_label_2
_geom_bond_distance
_geom_bond_site_symmetry_2
Er0 Si8 2.852250 1_555
Er0 Ni2 2.966890 1_655
Er0 Si6 2.999276 1_655
Er0 Si7 3.016296 1_565
Er0 Si7 3.016301 1_554
Er0 Ni3 3.040128 1_565
Er0 Ni3 3.040133 1_554
Er0 Si0 3.041566 1_555
Er0 Si1 3.041566 1_554
Er0 Si4 3.055529 1_565
Er0 Si3 3.055529 1_554
Er0 Si2 3.120537 1_655
Er0 Si5 3.120537 1_655
Er0 Ni4 3.141322 1_555
Er0 Ni1 3.232201 1_655
Er0 Ni0 3.232201 1_655
Er1 Si9 2.852250 1_555
Er1 Ni3 2.966890 1_455
Er1 Si7 2.999276 1_455
Er1 Si6 3.016296 1_545
Er1 Si6 3.016301 1_556
Er1 Ni2 3.040128 1_545
Er1 Ni2 3.040133 1_556
Er1 Si0 3.041566 1_556
Er1 Si1 3.041566 1_555
Er1 Si5 3.055529 1_556
Er1 Si2 3.055529 1_545
Er1 Si3 3.120537 1_455
Er1 Si4 3.120537 1_455
Er1 Ni5 3.141322 1_555
Er1 Ni0 3.232201 1_555
Er1 Ni1 3.232201 1_555
Er2 Si6 2.852257 1_545
Er2 Ni4 2.966898 1_555
Er2 Si8 2.999280 1_555
Er2 Si9 3.016298 1_555
Er2 Si9 3.016298 1_544
Er2 Ni5 3.040133 1_555
Er2 Ni5 3.040133 1_544
Er2 Si0 3.041566 1_545
Er2 Si1 3.041566 1_555
Er2 Si3 3.055529 1_555
Er2 Si4 3.055529 1_555
Er2 Si2 3.120537 1_544
Er2 Si5 3.120537 1_555
Er2 Ni2 3.141326 1_545
Er2 Ni0 3.232201 1_544
Er2 Ni1 3.232201 1_555
Er3 Si7 2.852257 1_565
Er3 Ni5 2.966898 1_555
Er3 Si9 2.999280 1_555
Er3 Si8 3.016298 1_555
Er3 Si8 3.016298 1_566
Er3 Ni4 3.040133 1_555
Er3 Ni4 3.040133 1_566
Er3 Si1 3.041566 1_565
Er3 Si0 3.041566 1_555
Er3 Si5 3.055529 1_555
Er3 Si2 3.055529 1_555
Er3 Si3 3.120537 1_555
Er3 Si4 3.120537 1_566
Er3 Ni3 3.141326 1_565
Er3 Ni1 3.232201 1_666
Er3 Ni0 3.232201 1_655
Si2 Si7 2.463408 1_465
Si2 Si9 2.463416 1_555
Si3 Si6 2.463411 1_656
Si3 Si8 2.463416 1_555
Si4 Si6 2.463408 1_645
Si4 Si8 2.463416 1_555
Si5 Si7 2.463411 1_454
Si5 Si9 2.463416 1_555
Ni0 Si7 2.348132 1_465
Ni0 Si9 2.348134 1_555
Ni0 Si8 2.348134 1_455
Ni0 Si6 2.348135 1_556
Ni0 Si3 2.610838 1_455
Ni0 Si2 2.610838 1_555
Ni0 Ni1 2.806449 1_555
Ni0 Ni1 2.806449 1_566
Ni1 Si6 2.348132 1_545
Ni1 Si9 2.348134 1_555
Ni1 Si8 2.348134 1_455
Ni1 Si7 2.348135 1_454
Ni1 Si4 2.610838 1_455
Ni1 Si5 2.610838 1_555
Ni2 Si6 2.263775 1_555
Ni2 Si2 2.296319 1_555
Ni2 Si5 2.296322 1_555
Ni2 Si1 2.320034 1_565
Ni2 Si0 2.320037 1_555
Ni3 Si7 2.263775 1_555
Ni3 Si4 2.296319 1_555
Ni3 Si3 2.296322 1_555
Ni3 Si0 2.320034 1_545
Ni3 Si1 2.320037 1_555
Ni4 Si8 2.263775 1_555
Ni4 Si5 2.296322 1_555
Ni4 Si2 2.296322 1_544
Ni4 Si1 2.320030 1_554
Ni4 Si0 2.320030 1_555
Ni5 Si9 2.263775 1_555
Ni5 Si4 2.296322 1_566
Ni5 Si3 2.296322 1_555
Ni5 Si0 2.320030 1_556
Ni5 Si1 2.320030 1_555
