# generated using pymatgen
data_Na3Zr2Si2PO12
_symmetry_space_group_name_H-M   'P 1'
_cell_length_a   9.14703100
_cell_length_b   9.18140557
_cell_length_c   9.30629093
_cell_angle_alpha   89.74856980
_cell_angle_beta   119.05100938
_cell_angle_gamma   119.82378111
_symmetry_Int_Tables_number   1
_chemical_formula_structural   Na3Zr2Si2PO12
_chemical_formula_sum   'Na6 Zr4 Si4 P2 O24'
_cell_volume   563.03353813
_cell_formula_units_Z   2
loop_
 _symmetry_equiv_pos_site_id
 _symmetry_equiv_pos_as_xyz
  1  'x, y, z'
loop_
 _atom_site_type_symbol
 _atom_site_label
 _atom_site_symmetry_multiplicity
 _atom_site_fract_x
 _atom_site_fract_y
 _atom_site_fract_z
 _atom_site_occupancy
  Na  Na0  1  0.49414800  0.89658600  0.74321400  1
  Na  Na1  1  0.84260600  0.59788700  0.68670600  1
  Na  Na2  1  0.15214000  0.21439600  0.89389000  1
  Na  Na3  1  0.04614000  0.48245300  0.47710400  1
  Na  Na4  1  0.86026100  0.81712600  0.06810000  1
  Na  Na5  1  0.47205500  0.09988900  0.22472800  1
  Zr  Zr0  1  0.69785100  0.85321300  0.55868200  1
  Zr  Zr1  1  0.29450500  0.65159100  0.94149600  1
  Zr  Zr2  1  0.70459000  0.35750400  0.05322100  1
  Zr  Zr3  1  0.29754700  0.15173500  0.44155700  1
  Si  Si0  1  0.21886700  0.97300300  0.75744500  1
  Si  Si1  1  0.49163800  0.54058600  0.74177400  1
  Si  Si2  1  0.78215200  0.25279100  0.73766800  1
  Si  Si3  1  0.21381600  0.75018800  0.26408300  1
  P  P0  1  0.50898800  0.46009100  0.25479100  1
  P  P1  1  0.77965200  0.03323400  0.23728500  1
  O  O0  1  0.60922100  0.88674500  0.05764400  1
  O  O1  1  0.25665700  0.73558900  0.11368900  1
  O  O2  1  0.00202700  0.93906400  0.69960600  1
  O  O3  1  0.40106200  0.50569200  0.09034700  1
  O  O4  1  0.20289400  0.78859100  0.78060800  1
  O  O5  1  0.27160500  0.01720700  0.61139000  1
  O  O6  1  0.66912000  0.72122500  0.73941400  1
  O  O7  1  0.34242800  0.58032900  0.75576900  1
  O  O8  1  0.99921600  0.43185600  0.79064700  1
  O  O9  1  0.40323100  0.78131000  0.45077700  1
  O  O10  1  0.20095500  0.92333100  0.26679600  1
  O  O11  1  0.62315800  0.61153200  0.41940300  1
  O  O12  1  0.36025100  0.37300800  0.57312800  1
  O  O13  1  0.79488300  0.08272400  0.71942000  1
  O  O14  1  0.60304100  0.24404500  0.55838900  1
  O  O15  1  0.00273200  0.57248500  0.22212000  1
  O  O16  1  0.66306500  0.43322300  0.25308900  1
  O  O17  1  0.34254000  0.28193400  0.24735400  1
  O  O18  1  0.72838600  0.97312200  0.37161500  1
  O  O19  1  0.79040800  0.20703400  0.23103600  1
  O  O20  1  0.62479000  0.50820900  0.91992500  1
  O  O21  1  0.97902200  0.05840600  0.28392000  1
  O  O22  1  0.74063500  0.25775200  0.88962700  1
  O  O23  1  0.39651900  0.13731300  0.94064100  1
loop_
_geom_bond_atom_site_label_1
_geom_bond_atom_site_label_2
_geom_bond_distance
_geom_bond_site_symmetry_2
Na0 O9 2.483977 1_555
Na0 O13 2.539476 1_565
Na0 O4 2.543934 1_555
Na0 O7 2.552895 1_555
Na0 O5 2.584638 1_565
Na0 O0 2.603771 1_556
Na0 O22 2.748723 1_565
Na0 O6 2.788127 1_555
Na1 O11 2.372986 1_555
Na1 O8 2.474868 1_555
Na1 O4 2.483374 1_655
Na1 O6 2.566988 1_555
Na1 O14 2.682153 1_555
Na1 O2 2.691294 1_655
Na2 O3 2.371256 1_556
Na2 O13 2.389841 1_455
Na2 O2 2.391943 1_545
Na2 O23 2.512627 1_555
Na2 O17 2.760080 1_556
Na2 O8 2.884792 1_455
Na3 O7 2.376998 1_555
Na3 O15 2.422000 1_555
Na3 O19 2.464790 1_455
Na3 O16 2.857795 1_455
Na4 O10 2.340623 1_655
Na4 O21 2.376558 1_565
Na4 O20 2.378790 1_554
Na4 O6 2.546995 1_554
Na4 O0 2.633118 1_555
Na5 O10 2.422637 1_545
Na5 O23 2.457488 1_554
Na5 O19 2.536922 1_555
Na5 O17 2.540939 1_555
Na5 O16 2.594100 1_555
Na5 O1 2.763227 1_545
Na5 O14 2.770350 1_555
Na5 O18 2.882442 1_545
O0 P1 1.561158 1_565
O0 Zr1 2.221092 1_554
O1 Si3 1.648327 1_555
O1 Zr1 2.024294 1_554
O2 Si0 1.634239 1_555
O2 Zr0 2.089598 1_455
O3 P0 1.558890 1_555
O3 Zr1 2.152782 1_554
O4 Si0 1.648008 1_555
O4 Zr1 2.083169 1_555
O5 Si0 1.637724 1_545
O5 Zr3 2.033597 1_555
O6 Si1 1.656162 1_555
O6 Zr0 2.112147 1_555
O7 Si1 1.637463 1_555
O7 Zr1 2.153773 1_555
O8 Si2 1.642483 1_555
O8 Zr1 2.063648 1_655
O9 Si3 1.640306 1_555
O9 Zr0 2.077191 1_555
O10 Si3 1.652532 1_555
O10 Zr3 2.148228 1_565
O11 P0 1.546414 1_555
O11 Zr0 2.174378 1_555
O12 Si1 1.620182 1_555
O12 Zr3 2.033807 1_555
O13 Si2 1.637967 1_555
O13 Zr0 2.084173 1_545
O14 Si2 1.640089 1_555
O14 Zr3 2.100161 1_555
O15 Si3 1.637792 1_555
O15 Zr2 2.076985 1_455
O16 P0 1.553992 1_555
O16 Zr2 2.246648 1_555
O17 P0 1.555621 1_555
O17 Zr3 2.253619 1_555
O18 P1 1.546973 1_565
O18 Zr0 2.114319 1_555
O19 P1 1.551771 1_555
O19 Zr2 2.249499 1_555
O20 Si1 1.647790 1_555
O20 Zr2 2.023950 1_556
O21 P1 1.542873 1_555
O21 Zr3 2.179891 1_655
O22 Si2 1.638754 1_555
O22 Zr2 2.016298 1_556
O23 Si0 1.648240 1_545
O23 Zr2 2.147172 1_556
