# generated using pymatgen
data_Th4UTe5
_symmetry_space_group_name_H-M   'P 1'
_cell_length_a   3.82600300
_cell_length_b   3.82600300
_cell_length_c   19.23001500
_cell_angle_alpha   90.00000000
_cell_angle_beta   90.00000000
_cell_angle_gamma   90.00000000
_symmetry_Int_Tables_number   1
_chemical_formula_structural   Th4UTe5
_chemical_formula_sum   'Th4 U1 Te5'
_cell_volume   281.49470850
_cell_formula_units_Z   1
loop_
 _symmetry_equiv_pos_site_id
 _symmetry_equiv_pos_as_xyz
  1  'x, y, z'
loop_
 _atom_site_type_symbol
 _atom_site_label
 _atom_site_symmetry_multiplicity
 _atom_site_fract_x
 _atom_site_fract_y
 _atom_site_fract_z
 _atom_site_occupancy
  Th  Th0  1  0.00000000  0.00000000  0.19963000  1
  Th  Th1  1  0.00000000  0.00000000  0.39996500  1
  Th  Th2  1  0.00000000  0.00000000  0.60003500  1
  Th  Th3  1  0.00000000  0.00000000  0.80037000  1
  U  U0  1  0.00000000  0.00000000  0.00000000  1
  Te  Te0  1  0.50000000  0.50000000  0.09901000  1
  Te  Te1  1  0.50000000  0.50000000  0.30001200  1
  Te  Te2  1  0.50000000  0.50000000  0.50000000  1
  Te  Te3  1  0.50000000  0.50000000  0.69998800  1
  Te  Te4  1  0.50000000  0.50000000  0.90099000  1
loop_
_geom_bond_atom_site_label_1
_geom_bond_atom_site_label_2
_geom_bond_distance
_geom_bond_site_symmetry_2
Te0 U0 3.308206 1_565
Te0 U0 3.308206 1_555
Te0 U0 3.308206 1_655
Te0 U0 3.308206 1_665
Te0 Th0 3.326121 1_565
Te0 Th0 3.326121 1_665
Te0 Th0 3.326121 1_555
Te0 Th0 3.326121 1_655
Te1 Th1 3.318676 1_565
Te1 Th1 3.318676 1_555
Te1 Th1 3.318676 1_655
Te1 Th1 3.318676 1_665
Te1 Th0 3.323461 1_565
Te1 Th0 3.323461 1_665
Te1 Th0 3.323461 1_555
Te1 Th0 3.323461 1_655
Te2 Th1 3.319589 1_555
Te2 Th2 3.319589 1_655
Te2 Th2 3.319589 1_665
Te2 Th2 3.319589 1_565
Te2 Th1 3.319589 1_655
Te2 Th1 3.319589 1_665
Te2 Th2 3.319589 1_555
Te2 Th1 3.319589 1_565
Te3 Th2 3.318676 1_665
Te3 Th2 3.318676 1_655
Te3 Th2 3.318676 1_565
Te3 Th2 3.318676 1_555
Te3 Th3 3.323461 1_555
Te3 Th3 3.323461 1_565
Te3 Th3 3.323461 1_665
Te3 Th3 3.323461 1_655
Te4 U0 3.308206 1_566
Te4 U0 3.308206 1_666
Te4 U0 3.308206 1_656
Te4 U0 3.308206 1_556
Te4 Th3 3.326121 1_565
Te4 Th3 3.326121 1_665
Te4 Th3 3.326121 1_655
Te4 Th3 3.326121 1_555
