# generated using pymatgen
data_V5Cr5Ge6
_symmetry_space_group_name_H-M   'P 1'
_cell_length_a   4.81739200
_cell_length_b   7.13303214
_cell_length_c   7.11798231
_cell_angle_alpha   96.31674320
_cell_angle_beta   109.77917346
_cell_angle_gamma   70.26429302
_symmetry_Int_Tables_number   1
_chemical_formula_structural   V5Cr5Ge6
_chemical_formula_sum   'V5 Cr5 Ge6'
_cell_volume   216.64028142
_cell_formula_units_Z   1
loop_
 _symmetry_equiv_pos_site_id
 _symmetry_equiv_pos_as_xyz
  1  'x, y, z'
loop_
 _atom_site_type_symbol
 _atom_site_label
 _atom_site_symmetry_multiplicity
 _atom_site_fract_x
 _atom_site_fract_y
 _atom_site_fract_z
 _atom_site_occupancy
  V  V0  1  0.26766000  0.30759400  0.84291400  1
  V  V1  1  0.76512900  0.15855700  0.68881500  1
  V  V2  1  0.23480200  0.84068400  0.31028900  1
  V  V3  1  0.25087800  0.49989300  0.50059900  1
  V  V4  1  0.74982800  0.49989300  0.50059900  1
  Cr  Cr0  1  0.42277700  0.84436700  0.68992100  1
  Cr  Cr1  1  0.57380800  0.15781000  0.30542600  1
  Cr  Cr2  1  0.92602900  0.30479800  0.15685600  1
  Cr  Cr3  1  0.07446400  0.69472200  0.84364900  1
  Cr  Cr4  1  0.73336200  0.69328300  0.16000800  1
  Ge  Ge0  1  0.25196300  0.99758500  0.00045300  1
  Ge  Ge1  1  0.75090600  0.99758500  0.00045300  1
  Ge  Ge2  1  0.33124500  0.49989600  0.16238500  1
  Ge  Ge3  1  0.66842000  0.50336800  0.84020900  1
  Ge  Ge4  1  0.83189400  0.83514200  0.49893100  1
  Ge  Ge5  1  0.16683400  0.16482300  0.49849200  1
loop_
_geom_bond_atom_site_label_1
_geom_bond_atom_site_label_2
_geom_bond_distance
_geom_bond_site_symmetry_2
V3 V4 2.403638 1_555
V3 V4 2.413754 1_455
Cr0 Ge3 2.496587 1_555
Cr0 Ge5 2.499356 1_565
Cr0 V2 2.543032 1_555
Cr0 Ge0 2.617118 1_556
Cr0 Ge1 2.617121 1_556
Cr0 Ge4 2.728169 1_555
Cr0 Ge4 2.728174 1_455
Cr1 Ge2 2.484360 1_555
Cr1 Ge4 2.519184 1_545
Cr1 V1 2.567987 1_555
Cr1 Ge0 2.606792 1_545
Cr1 Ge1 2.606794 1_545
Cr1 Ge5 2.734389 1_655
Cr1 Ge5 2.734393 1_555
Cr2 Ge5 2.469594 1_655
Cr2 Ge3 2.499725 1_554
Cr2 Ge1 2.613282 1_545
Cr2 Ge0 2.613284 1_645
Cr2 Ge2 2.742165 1_555
Cr2 Ge2 2.742169 1_655
Cr3 Ge4 2.489813 1_455
Cr3 Ge2 2.498422 1_556
Cr3 Ge0 2.591334 1_556
Cr3 Ge1 2.591334 1_456
Cr3 V0 2.599221 1_555
Cr3 Ge3 2.730057 1_555
Cr3 Ge3 2.730066 1_455
Cr4 Ge4 2.466037 1_555
Cr4 Ge3 2.498068 1_554
Cr4 Ge0 2.596105 1_555
Cr4 Ge1 2.596109 1_555
Cr4 Ge2 2.736368 1_555
Cr4 Ge2 2.736377 1_655
Ge0 Ge1 2.403604 1_555
Ge0 Ge1 2.413788 1_455
Ge0 V2 2.617678 1_555
Ge0 V0 2.620878 1_564
Ge0 V1 2.638208 1_464
Ge1 V2 2.617674 1_655
Ge1 V0 2.620880 1_564
Ge1 V1 2.638206 1_564
Ge2 V2 2.497677 1_555
Ge2 V0 2.504469 1_554
Ge2 V4 2.564426 1_555
Ge2 V3 2.564428 1_555
Ge3 V1 2.531869 1_555
Ge3 V3 2.572895 1_555
Ge3 V4 2.572897 1_555
Ge3 V0 2.744019 1_555
Ge3 V0 2.744024 1_655
Ge4 V1 2.521736 1_565
Ge4 V4 2.553991 1_555
Ge4 V3 2.553993 1_655
Ge4 V2 2.720159 1_555
Ge4 V2 2.720159 1_655
Ge5 V0 2.502419 1_555
Ge5 V2 2.520238 1_545
Ge5 V4 2.553053 1_455
Ge5 V3 2.553055 1_555
Ge5 V1 2.725465 1_455
Ge5 V1 2.725469 1_555
