# generated using pymatgen
data_Rb2As2Pt
_symmetry_space_group_name_H-M   'P 1'
_cell_length_a   6.33572363
_cell_length_b   6.71912942
_cell_length_c   8.03291570
_cell_angle_alpha   114.72256028
_cell_angle_beta   90.00000000
_cell_angle_gamma   90.00000000
_symmetry_Int_Tables_number   1
_chemical_formula_structural   Rb2As2Pt
_chemical_formula_sum   'Rb4 As4 Pt2'
_cell_volume   310.62226824
_cell_formula_units_Z   2
loop_
 _symmetry_equiv_pos_site_id
 _symmetry_equiv_pos_as_xyz
  1  'x, y, z'
loop_
 _atom_site_type_symbol
 _atom_site_label
 _atom_site_symmetry_multiplicity
 _atom_site_fract_x
 _atom_site_fract_y
 _atom_site_fract_z
 _atom_site_occupancy
  Rb  Rb0  1  0.75000000  0.79502012  0.59004024  1
  Rb  Rb1  1  0.75000000  0.41555086  0.83110272  1
  Rb  Rb2  1  0.25000000  0.20497988  0.40995976  1
  Rb  Rb3  1  0.25000000  0.58444914  0.16889728  1
  As  As0  1  0.75000000  0.28492678  0.20925101  1
  As  As1  1  0.25000000  0.07567577  0.79074899  1
  As  As2  1  0.25000000  0.71507322  0.79074899  1
  As  As3  1  0.75000000  0.92432423  0.20925101  1
  Pt  Pt0  1  -0.00000000  -0.00000000  -0.00000000  1
  Pt  Pt1  1  0.50000000  -0.00000000  -0.00000000  1
loop_
_geom_bond_atom_site_label_1
_geom_bond_atom_site_label_2
_geom_bond_distance
_geom_bond_site_symmetry_2
As0 As3 2.422935 1_545
As0 Pt0 2.511514 1_655
As0 Pt1 2.511514 1_555
As0 Rb1 3.496795 1_554
As0 Rb0 3.512022 1_555
As0 Rb2 3.694288 1_655
As0 Rb2 3.694288 1_555
As0 Rb3 3.838800 1_655
As0 Rb3 3.838800 1_555
As1 As2 2.422935 1_545
As1 Pt0 2.511514 1_556
As1 Pt1 2.511514 1_556
As1 Rb3 3.496799 1_556
As1 Rb2 3.512022 1_555
As1 Rb0 3.694288 1_545
As1 Rb0 3.694288 1_445
As1 Rb1 3.838796 1_555
As1 Rb1 3.838796 1_455
As2 Pt1 2.511514 1_566
As2 Pt0 2.511514 1_566
As2 Rb3 3.496795 1_556
As2 Rb2 3.512022 1_555
As2 Rb0 3.694288 1_455
As2 Rb0 3.694288 1_555
As2 Rb1 3.838800 1_555
As2 Rb1 3.838800 1_455
As3 Pt1 2.511514 1_565
As3 Pt0 2.511514 1_665
As3 Rb1 3.496799 1_554
As3 Rb0 3.512022 1_555
As3 Rb2 3.694288 1_565
As3 Rb2 3.694288 1_665
As3 Rb3 3.838796 1_655
As3 Rb3 3.838796 1_555
Pt0 Rb2 3.384805 1_555
Pt0 Rb0 3.384805 1_444
Pt1 Rb2 3.384805 1_555
Pt1 Rb0 3.384805 1_544
