# generated using pymatgen
data_Te2Mo3W(Se2S)2
_symmetry_space_group_name_H-M   'P 1'
_cell_length_a   3.34335443
_cell_length_b   3.34335443
_cell_length_c   38.04026800
_cell_angle_alpha   90.00000000
_cell_angle_beta   90.00000000
_cell_angle_gamma   120.00000861
_symmetry_Int_Tables_number   1
_chemical_formula_structural   Te2Mo3W(Se2S)2
_chemical_formula_sum   'Te2 Mo3 W1 Se4 S2'
_cell_volume   368.24681620
_cell_formula_units_Z   1
loop_
 _symmetry_equiv_pos_site_id
 _symmetry_equiv_pos_as_xyz
  1  'x, y, z'
loop_
 _atom_site_type_symbol
 _atom_site_label
 _atom_site_symmetry_multiplicity
 _atom_site_fract_x
 _atom_site_fract_y
 _atom_site_fract_z
 _atom_site_occupancy
  Te  Te0  1  0.00000000  0.00000000  0.70740500  1
  Te  Te1  1  0.00000000  0.00000000  0.60770600  1
  Mo  Mo0  1  0.00000000  0.00000000  0.09391400  1
  Mo  Mo1  1  0.33333300  0.66666700  0.28179900  1
  Mo  Mo2  1  0.33333300  0.66666700  0.65756100  1
  W  W0  1  0.00000000  0.00000000  0.46963400  1
  Se  Se0  1  0.33333300  0.66666700  0.05018700  1
  Se  Se1  1  0.33333300  0.66666700  0.42572400  1
  Se  Se2  1  0.33333300  0.66666700  0.13765000  1
  Se  Se3  1  0.33333300  0.66666700  0.51357800  1
  S  S0  1  0.00000000  0.00000000  0.32179100  1
  S  S1  1  0.00000000  0.00000000  0.24180000  1
loop_
_geom_bond_atom_site_label_1
_geom_bond_atom_site_label_2
_geom_bond_distance
_geom_bond_site_symmetry_2
Mo0 Se0 2.548108 1_545
Mo0 Se0 2.548110 1_445
Mo0 Se0 2.548110 1_555
Mo0 Se2 2.548332 1_545
Mo0 Se2 2.548334 1_555
Mo0 Se2 2.548334 1_445
Mo1 S0 2.457717 1_565
Mo1 S0 2.457719 1_555
Mo1 S0 2.457719 1_665
Mo1 S1 2.457882 1_565
Mo1 S1 2.457884 1_665
Mo1 S1 2.457884 1_555
Mo2 Te0 2.705756 1_565
Mo2 Te0 2.705758 1_555
Mo2 Te0 2.705758 1_665
Mo2 Te1 2.706049 1_565
Mo2 Te1 2.706051 1_665
Mo2 Te1 2.706051 1_555
Se1 W0 2.552658 1_565
Se1 W0 2.552660 1_555
Se1 W0 2.552660 1_665
Se3 W0 2.553504 1_565
Se3 W0 2.553506 1_665
Se3 W0 2.553506 1_555
