# generated using pymatgen
data_Hf3Ga3Pd2Pt
_symmetry_space_group_name_H-M   'P 1'
_cell_length_a   7.18344178
_cell_length_b   7.18344178
_cell_length_c   6.98518200
_cell_angle_alpha   90.00000000
_cell_angle_beta   90.00000000
_cell_angle_gamma   119.99999794
_symmetry_Int_Tables_number   1
_chemical_formula_structural   Hf3Ga3Pd2Pt
_chemical_formula_sum   'Hf6 Ga6 Pd4 Pt2'
_cell_volume   312.15731677
_cell_formula_units_Z   2
loop_
 _symmetry_equiv_pos_site_id
 _symmetry_equiv_pos_as_xyz
  1  'x, y, z'
loop_
 _atom_site_type_symbol
 _atom_site_label
 _atom_site_symmetry_multiplicity
 _atom_site_fract_x
 _atom_site_fract_y
 _atom_site_fract_z
 _atom_site_occupancy
  Hf  Hf0  1  0.74627700  0.05517900  0.00000000  1
  Hf  Hf1  1  0.30890100  0.25372300  0.00000000  1
  Hf  Hf2  1  0.94482100  0.69109900  0.00000000  1
  Hf  Hf3  1  0.35656500  0.27776100  0.50000000  1
  Hf  Hf4  1  0.72223900  0.07880400  0.50000000  1
  Hf  Hf5  1  0.92119600  0.64343500  0.50000000  1
  Ga  Ga0  1  0.59829100  0.66600300  0.74990600  1
  Ga  Ga1  1  0.06771200  0.40170900  0.74990600  1
  Ga  Ga2  1  0.33399700  0.93228800  0.74990600  1
  Ga  Ga3  1  0.59829100  0.66600300  0.25009400  1
  Ga  Ga4  1  0.06771200  0.40170900  0.25009400  1
  Ga  Ga5  1  0.33399700  0.93228800  0.25009400  1
  Pd  Pd0  1  0.33333300  0.66666700  0.00000000  1
  Pd  Pd1  1  0.33333300  0.66666700  0.50000000  1
  Pd  Pd2  1  0.66666700  0.33333300  0.78488600  1
  Pd  Pd3  1  0.66666700  0.33333300  0.21511400  1
  Pt  Pt0  1  0.00000000  0.00000000  0.28472700  1
  Pt  Pt1  1  0.00000000  0.00000000  0.71527300  1
loop_
_geom_bond_atom_site_label_1
_geom_bond_atom_site_label_2
_geom_bond_distance
_geom_bond_site_symmetry_2
Hf0 Pd3 2.778481 1_555
Hf0 Pd2 2.778481 1_554
Hf0 Pt1 2.856053 1_654
Hf0 Pt0 2.856053 1_655
Hf0 Pd0 2.882616 1_545
Hf1 Pd3 2.778493 1_555
Hf1 Pd2 2.778493 1_554
Hf1 Pt0 2.856050 1_555
Hf1 Pt1 2.856050 1_554
Hf1 Pd0 2.882616 1_555
Hf2 Pd3 2.778489 1_555
Hf2 Pd2 2.778489 1_554
Hf2 Pt1 2.856048 1_664
Hf2 Pt0 2.856048 1_665
Hf2 Pd0 2.882616 1_655
Hf3 Pt0 2.773494 1_555
Hf3 Pt1 2.773494 1_555
Hf3 Pd2 2.862224 1_555
Hf3 Pd3 2.862224 1_555
Hf3 Pd1 2.880754 1_555
Hf4 Pt0 2.773493 1_655
Hf4 Pt1 2.773493 1_655
Hf4 Pd3 2.862219 1_555
Hf4 Pd2 2.862219 1_555
Hf4 Pd1 2.880750 1_545
Hf5 Pt0 2.773494 1_665
Hf5 Pt1 2.773494 1_665
Hf5 Pd2 2.862223 1_555
Hf5 Pd3 2.862223 1_555
Hf5 Pd1 2.880747 1_655
Ga0 Pd1 2.584366 1_555
Ga0 Pd0 2.585253 1_556
Ga0 Pd2 2.680572 1_555
Ga0 Pt1 2.686729 1_665
Ga0 Hf5 2.971528 1_555
Ga0 Hf2 2.971883 1_556
Ga0 Hf3 2.999621 1_555
Ga0 Hf0 3.004254 1_566
Ga0 Hf1 3.160337 1_556
Ga0 Hf4 3.161165 1_565
Ga1 Pd1 2.584363 1_555
Ga1 Pd0 2.585250 1_556
Ga1 Pd2 2.680565 1_455
Ga1 Pt1 2.686729 1_555
Ga1 Hf4 2.971528 1_455
Ga1 Hf0 2.971886 1_456
Ga1 Hf5 2.999621 1_455
Ga1 Hf1 3.004248 1_556
Ga1 Hf2 3.160341 1_456
Ga1 Hf3 3.161164 1_555
Ga2 Pd1 2.584361 1_555
Ga2 Pd0 2.585248 1_556
Ga2 Pd2 2.680567 1_565
Ga2 Pt1 2.686729 1_565
Ga2 Hf3 2.971528 1_565
Ga2 Hf1 2.971889 1_566
Ga2 Hf4 2.999621 1_565
Ga2 Hf2 3.004253 1_456
Ga2 Hf0 3.160336 1_566
Ga2 Hf5 3.161165 1_455
Ga3 Pd1 2.584366 1_555
Ga3 Pd0 2.585253 1_555
Ga3 Pd3 2.680572 1_555
Ga3 Pt0 2.686729 1_665
Ga3 Hf5 2.971528 1_555
Ga3 Hf2 2.971883 1_555
Ga3 Hf3 2.999621 1_555
Ga3 Hf0 3.004254 1_565
Ga3 Hf1 3.160337 1_555
Ga3 Hf4 3.161165 1_565
Ga4 Pd1 2.584363 1_555
Ga4 Pd0 2.585250 1_555
Ga4 Pd3 2.680565 1_455
Ga4 Pt0 2.686729 1_555
Ga4 Hf4 2.971528 1_455
Ga4 Hf0 2.971886 1_455
Ga4 Hf5 2.999621 1_455
Ga4 Hf1 3.004248 1_555
Ga4 Hf2 3.160341 1_455
Ga4 Hf3 3.161164 1_555
Ga5 Pd1 2.584361 1_555
Ga5 Pd0 2.585248 1_555
Ga5 Pd3 2.680567 1_565
Ga5 Pt0 2.686729 1_565
Ga5 Hf3 2.971528 1_565
Ga5 Hf1 2.971889 1_565
Ga5 Hf4 2.999621 1_565
Ga5 Hf2 3.004253 1_455
Ga5 Hf0 3.160336 1_565
Ga5 Hf5 3.161165 1_455
