# generated using pymatgen
data_MgCo6Ag2P6(HO6)4
_symmetry_space_group_name_H-M   'P 1'
_cell_length_a   6.52423342
_cell_length_b   8.99860519
_cell_length_c   8.93588949
_cell_angle_alpha   85.85349394
_cell_angle_beta   107.21902686
_cell_angle_gamma   105.67578497
_symmetry_Int_Tables_number   1
_chemical_formula_structural   MgCo6Ag2P6(HO6)4
_chemical_formula_sum   'Mg1 Co6 Ag2 P6 H4 O24'
_cell_volume   482.44900412
_cell_formula_units_Z   1
loop_
 _symmetry_equiv_pos_site_id
 _symmetry_equiv_pos_as_xyz
  1  'x, y, z'
loop_
 _atom_site_type_symbol
 _atom_site_label
 _atom_site_symmetry_multiplicity
 _atom_site_fract_x
 _atom_site_fract_y
 _atom_site_fract_z
 _atom_site_occupancy
  Mg  Mg0  1  0.04630913  0.33082103  0.93169122  1
  Co  Co0  1  0.25165033  0.78033776  0.23617377  1
  Co  Co1  1  0.64216296  0.57640062  0.91265552  1
  Co  Co2  1  0.10698869  0.86324106  0.53835899  1
  Co  Co3  1  0.47137321  0.50936238  0.23969111  1
  Co  Co4  1  0.88753224  0.12783918  0.44893372  1
  Co  Co5  1  0.64162864  0.19398025  0.69221217  1
  Ag  Ag0  1  0.33382289  0.45667641  0.53295706  1
  Ag  Ag1  1  0.76477173  0.48282482  0.52282307  1
  P  P0  1  0.23015386  0.15963535  0.79350341  1
  P  P1  1  0.75506127  0.83331790  0.17842504  1
  P  P2  1  0.35702596  0.14151871  0.35052742  1
  P  P3  1  0.12978612  0.62983121  0.84544880  1
  P  P4  1  0.60830545  0.82920457  0.60677185  1
  P  P5  1  0.91894839  0.41412247  0.20165733  1
  H  H0  1  0.27145902  0.08135414  0.09922146  1
  H  H1  1  0.20520620  0.88144337  0.87294022  1
  H  H2  1  0.67649587  0.90456691  0.85094638  1
  H  H3  1  0.81499331  0.10374114  0.14274192  1
  O  O0  1  0.30280108  0.53213677  0.91088928  1
  O  O1  1  0.19143579  0.78027990  0.94719525  1
  O  O2  1  0.64099735  0.95109360  0.74142467  1
  O  O3  1  0.89258971  0.27685904  0.09462309  1
  O  O4  1  0.34105125  0.29477030  0.27264157  1
  O  O5  1  0.10695522  0.67018364  0.67261715  1
  O  O6  1  0.61044436  0.67350965  0.68990431  1
  O  O7  1  0.93866528  0.35482429  0.37237633  1
  O  O8  1  0.18378701  0.08481075  0.44305928  1
  O  O9  1  0.30345954  0.02334118  0.20875668  1
  O  O10  1  0.73374481  0.80745840  0.00562405  1
  O  O11  1  0.76145106  0.00913798  0.20637714  1
  O  O12  1  0.21584614  0.17179322  0.96281991  1
  O  O13  1  0.21665779  0.99134906  0.75864924  1
  O  O14  1  0.54615410  0.73908239  0.22515869  1
  O  O15  1  0.96399240  0.79353606  0.28941973  1
  O  O16  1  0.45001693  0.27272327  0.77610792  1
  O  O17  1  0.79855585  0.89300965  0.53161865  1
  O  O18  1  0.91108772  0.51834956  0.86646124  1
  O  O19  1  0.58816451  0.14006672  0.46068415  1
  O  O20  1  0.13605319  0.54287374  0.20314743  1
  O  O21  1  0.38136064  0.82113689  0.48390368  1
  O  O22  1  0.71389187  0.48237381  0.13564500  1
  O  O23  1  0.02715813  0.21883088  0.68852510  1
loop_
_geom_bond_atom_site_label_1
_geom_bond_atom_site_label_2
_geom_bond_distance
_geom_bond_site_symmetry_2
Mg0 O3 1.964804 1_456
Mg0 O12 1.991056 1_555
Mg0 O18 2.079303 1_455
Mg0 O0 2.148000 1_555
Mg0 O23 2.416731 1_555
Co0 O20 2.076185 1_555
Co0 O14 2.083758 1_555
Co0 O15 2.102372 1_455
Co0 O9 2.127918 1_565
Co0 O21 2.142865 1_555
Co0 O1 2.494389 1_554
Co1 O22 2.079295 1_556
Co1 O6 2.090635 1_555
Co1 O18 2.115867 1_555
Co1 O0 2.136514 1_555
Co1 O10 2.157499 1_556
Co2 O5 2.038601 1_555
Co2 O17 2.083720 1_455
Co2 O8 2.102093 1_565
Co2 O21 2.119799 1_555
Co2 O13 2.182748 1_555
Co2 O15 2.206593 1_455
Co3 O4 1.928018 1_555
Co3 O14 1.995428 1_555
Co3 O22 2.130300 1_555
Co3 O20 2.214256 1_555
Co4 O19 2.019190 1_555
Co4 O7 2.077529 1_555
Co4 O8 2.087093 1_655
Co4 O17 2.171065 1_545
Co4 O23 2.186262 1_655
Co4 O11 2.306486 1_555
Co5 O16 1.933202 1_555
Co5 O19 2.064913 1_555
Co5 O2 2.197190 1_545
Co5 O23 2.474226 1_655
Ag0 O6 2.454679 1_555
Ag0 O7 2.503744 1_455
Ag0 O16 2.686727 1_555
Ag1 O5 2.478176 1_655
Ag1 O7 2.500859 1_555
H0 O9 1.066849 1_555
H0 O12 1.426144 1_554
H1 O1 1.086645 1_555
H1 O13 1.373286 1_555
H2 O2 1.022585 1_555
H2 O10 1.584170 1_556
H3 O11 1.028096 1_555
H3 O3 1.572837 1_555
O0 P3 1.568459 1_555
O1 P3 1.577499 1_555
O2 P4 1.615183 1_555
O3 P5 1.558432 1_555
O4 P2 1.514250 1_555
O5 P3 1.533348 1_555
O6 P4 1.539110 1_555
O7 P5 1.559390 1_555
O8 P2 1.549892 1_555
O9 P2 1.609285 1_555
O10 P1 1.537908 1_555
O11 P1 1.607053 1_545
O12 P0 1.556569 1_555
O13 P0 1.542045 1_565
O14 P1 1.553172 1_555
O15 P1 1.543332 1_555
O16 P0 1.561304 1_555
O17 P4 1.540766 1_555
O18 P3 1.560569 1_655
O19 P2 1.540497 1_555
O20 P5 1.566222 1_455
O21 P4 1.547257 1_555
O22 P5 1.561846 1_555
O23 P0 1.578340 1_555
