# generated using pymatgen
data_MnAlB2(PbO4)2
_symmetry_space_group_name_H-M   'P 1'
_cell_length_a   6.98169400
_cell_length_b   5.99327600
_cell_length_c   10.11154511
_cell_angle_alpha   55.78255836
_cell_angle_beta   90.00000000
_cell_angle_gamma   90.00000000
_symmetry_Int_Tables_number   1
_chemical_formula_structural   MnAlB2(PbO4)2
_chemical_formula_sum   'Mn2 Al2 B4 Pb4 O16'
_cell_volume   349.86504676
_cell_formula_units_Z   2
loop_
 _symmetry_equiv_pos_site_id
 _symmetry_equiv_pos_as_xyz
  1  'x, y, z'
loop_
 _atom_site_type_symbol
 _atom_site_label
 _atom_site_symmetry_multiplicity
 _atom_site_fract_x
 _atom_site_fract_y
 _atom_site_fract_z
 _atom_site_occupancy
  Mn  Mn0  1  0.50000000  0.00000000  0.50000000  1
  Mn  Mn1  1  0.00000000  0.00000000  0.00000000  1
  Al  Al0  1  0.50000000  0.50000000  0.50000000  1
  Al  Al1  1  0.00000000  0.50000000  0.00000000  1
  B  B0  1  0.78313900  0.49571900  0.26341600  1
  B  B1  1  0.28313900  0.50428100  0.23658400  1
  B  B2  1  0.21686100  0.50428100  0.73658400  1
  B  B3  1  0.71686100  0.49571900  0.76341600  1
  Pb  Pb0  1  0.55693500  0.90155900  0.85753500  1
  Pb  Pb1  1  0.05693500  0.09844100  0.64246500  1
  Pb  Pb2  1  0.44306500  0.09844100  0.14246500  1
  Pb  Pb3  1  0.94306500  0.90155900  0.35753500  1
  O  O0  1  0.68657500  0.36795700  0.40741000  1
  O  O1  1  0.18657500  0.63204300  0.09259000  1
  O  O2  1  0.31342500  0.63204300  0.59259000  1
  O  O3  1  0.81342500  0.36795700  0.90741000  1
  O  O4  1  0.89840700  0.84728100  0.89247600  1
  O  O5  1  0.39840700  0.15271900  0.60752400  1
  O  O6  1  0.10159300  0.15271900  0.10752400  1
  O  O7  1  0.60159300  0.84728100  0.39247600  1
  O  O8  1  0.83308700  0.76777600  0.18955600  1
  O  O9  1  0.33308700  0.23222400  0.31044400  1
  O  O10  1  0.16485300  0.63536500  0.80913300  1
  O  O11  1  0.66485300  0.36463500  0.69086700  1
  O  O12  1  0.16691300  0.23222400  0.81044400  1
  O  O13  1  0.66691300  0.76777600  0.68955600  1
  O  O14  1  0.83514700  0.36463500  0.19086700  1
  O  O15  1  0.33514700  0.63536500  0.30913300  1
loop_
_geom_bond_atom_site_label_1
_geom_bond_atom_site_label_2
_geom_bond_distance
_geom_bond_site_symmetry_2
Mn0 O5 1.908433 1_555
Mn0 O7 1.908433 1_545
Mn0 O13 1.992137 1_545
Mn0 O9 1.992137 1_555
Mn0 O2 2.261524 1_545
Mn0 O0 2.261524 1_555
Mn1 O6 1.908433 1_555
Mn1 O4 1.908433 1_444
Mn1 O12 1.992137 1_554
Mn1 O8 1.992137 1_445
Mn1 O1 2.261524 1_545
Mn1 O3 2.261524 1_454
Al0 O7 1.863373 1_555
Al0 O5 1.863373 1_555
Al0 O15 1.986624 1_555
Al0 O11 1.986624 1_555
Al0 O2 2.008196 1_555
Al0 O0 2.008196 1_555
Al1 O6 1.863373 1_555
Al1 O4 1.863373 1_454
Al1 O10 1.986624 1_554
Al1 O14 1.986624 1_455
Al1 O3 2.008196 1_454
Al1 O1 2.008196 1_555
B0 O0 1.380907 1_555
B0 O14 1.391172 1_555
B0 O8 1.402997 1_555
B1 O1 1.380907 1_555
B1 O15 1.391172 1_555
B1 O9 1.402997 1_555
B2 O2 1.380907 1_555
B2 O10 1.391172 1_555
B2 O12 1.402997 1_555
B3 O3 1.380907 1_555
B3 O11 1.391172 1_555
B3 O13 1.402997 1_555
O4 Pb1 2.366828 1_665
O4 Pb0 2.405223 1_555
O5 Pb0 2.366828 1_545
O5 Pb1 2.405223 1_555
O6 Pb3 2.366828 1_445
O6 Pb2 2.405223 1_555
O7 Pb2 2.366828 1_565
O7 Pb3 2.405223 1_555
O8 Pb3 2.376785 1_555
O9 Pb2 2.376785 1_555
O10 Pb1 2.418685 1_565
O11 Pb0 2.418685 1_545
O12 Pb1 2.376785 1_555
O13 Pb0 2.376785 1_555
O14 Pb3 2.418685 1_545
O15 Pb2 2.418685 1_565
