# generated using pymatgen
data_SnPb4Se5
_symmetry_space_group_name_H-M   'P 1'
_cell_length_a   17.81538838
_cell_length_b   17.81538838
_cell_length_c   17.81538778
_cell_angle_alpha   14.16346535
_cell_angle_beta   14.16346535
_cell_angle_gamma   14.16346688
_symmetry_Int_Tables_number   1
_chemical_formula_structural   SnPb4Se5
_chemical_formula_sum   'Sn1 Pb4 Se5'
_cell_volume   294.68078101
_cell_formula_units_Z   1
loop_
 _symmetry_equiv_pos_site_id
 _symmetry_equiv_pos_as_xyz
  1  'x, y, z'
loop_
 _atom_site_type_symbol
 _atom_site_label
 _atom_site_symmetry_multiplicity
 _atom_site_fract_x
 _atom_site_fract_y
 _atom_site_fract_z
 _atom_site_occupancy
  Sn  Sn0  1  0.00000000  0.00000000  0.00000000  1
  Pb  Pb0  1  0.60023200  0.60023200  0.60023200  1
  Pb  Pb1  1  0.20001600  0.20001600  0.20001600  1
  Pb  Pb2  1  0.79998400  0.79998400  0.79998400  1
  Pb  Pb3  1  0.39976800  0.39976800  0.39976800  1
  Se  Se0  1  0.69871800  0.69871800  0.69871800  1
  Se  Se1  1  0.50000000  0.50000000  0.50000000  1
  Se  Se2  1  0.09982200  0.09982200  0.09982200  1
  Se  Se3  1  0.30128200  0.30128200  0.30128200  1
  Se  Se4  1  0.90017800  0.90017800  0.90017800  1
loop_
_geom_bond_atom_site_label_1
_geom_bond_atom_site_label_2
_geom_bond_distance
_geom_bond_site_symmetry_2
Pb0 Se4 3.090583 1_554
Pb0 Se4 3.090584 1_455
Pb0 Se4 3.090584 1_545
Pb0 Se3 3.120995 1_556
Pb0 Se3 3.120996 1_565
Pb0 Se3 3.120996 1_655
Pb1 Se1 3.089435 1_554
Pb1 Se1 3.089436 1_545
Pb1 Se1 3.089436 1_455
Pb1 Se4 3.093852 1_445
Pb1 Se4 3.093853 1_544
Pb1 Se4 3.093853 1_454
Pb2 Se1 3.089435 1_556
Pb2 Se1 3.089436 1_655
Pb2 Se1 3.089436 1_565
Pb2 Se2 3.093852 1_665
Pb2 Se2 3.093853 1_566
Pb2 Se2 3.093853 1_656
Pb3 Se2 3.090583 1_556
Pb3 Se2 3.090584 1_655
Pb3 Se2 3.090584 1_565
Pb3 Se0 3.120995 1_554
Pb3 Se0 3.120996 1_545
Pb3 Se0 3.120996 1_455
Se0 Sn0 3.050743 1_665
Se0 Sn0 3.050744 1_566
Se0 Sn0 3.050744 1_656
Se3 Sn0 3.050743 1_556
Se3 Sn0 3.050744 1_655
Se3 Sn0 3.050744 1_565
