# generated using pymatgen
data_Mn2Sb3I3O5
_symmetry_space_group_name_H-M   'P 1'
_cell_length_a   6.42278719
_cell_length_b   9.89844813
_cell_length_c   10.35689578
_cell_angle_alpha   97.46921920
_cell_angle_beta   106.39057176
_cell_angle_gamma   91.95909171
_symmetry_Int_Tables_number   1
_chemical_formula_structural   Mn2Sb3I3O5
_chemical_formula_sum   'Mn4 Sb6 I6 O10'
_cell_volume   624.58653466
_cell_formula_units_Z   2
loop_
 _symmetry_equiv_pos_site_id
 _symmetry_equiv_pos_as_xyz
  1  'x, y, z'
loop_
 _atom_site_type_symbol
 _atom_site_label
 _atom_site_symmetry_multiplicity
 _atom_site_fract_x
 _atom_site_fract_y
 _atom_site_fract_z
 _atom_site_occupancy
  Mn  Mn0  1  0.71692480  0.41883006  0.99648607  1
  Mn  Mn1  1  0.25735504  0.29528320  0.73833248  1
  Mn  Mn2  1  0.28280871  0.58114627  0.00349720  1
  Mn  Mn3  1  0.74253406  0.70459787  0.26166393  1
  Sb  Sb0  1  0.21790881  0.85292220  0.21573603  1
  Sb  Sb1  1  0.78196608  0.14707081  0.78431866  1
  Sb  Sb2  1  0.23260908  0.27510525  0.08164966  1
  Sb  Sb3  1  0.76722837  0.72489054  0.91831194  1
  Sb  Sb4  1  0.28059129  0.56759150  0.33198557  1
  Sb  Sb5  1  0.71929038  0.43242304  0.66805911  1
  I  I0  1  0.74596574  0.41210515  0.29562981  1
  I  I1  1  0.25476995  0.58769609  0.70412927  1
  I  I2  1  0.75574757  0.97614399  0.17397978  1
  I  I3  1  0.24335005  0.02387929  0.82580183  1
  I  I4  1  0.68851952  0.79364729  0.53390992  1
  I  I5  1  0.31275107  0.20641445  0.46626328  1
  O  O0  1  0.14554599  0.46225636  0.14279646  1
  O  O1  1  0.85469056  0.53785362  0.85722225  1
  O  O2  1  0.34924608  0.37448920  0.95901615  1
  O  O3  1  0.65052196  0.62547250  0.04094775  1
  O  O4  1  0.40887218  0.68606122  0.21960262  1
  O  O5  1  0.59105034  0.31406117  0.78054032  1
  O  O6  1  0.08447929  0.74887756  0.02901674  1
  O  O7  1  0.91537992  0.25119828  0.97103366  1
  O  O8  1  0.07333268  0.72002232  0.30213944  1
  O  O9  1  0.92655846  0.27996178  0.69793106  1
loop_
_geom_bond_atom_site_label_1
_geom_bond_atom_site_label_2
_geom_bond_distance
_geom_bond_site_symmetry_2
Mn0 O3 2.122114 1_556
Mn0 O7 2.160546 1_555
Mn0 O5 2.247297 1_555
Mn0 O2 2.299493 1_555
Mn0 O1 2.311300 1_555
Mn0 O0 2.730403 1_656
Mn1 O9 2.042524 1_455
Mn1 O5 2.059626 1_555
Mn1 O2 2.219943 1_555
Mn2 O2 2.122345 1_554
Mn2 O6 2.160913 1_555
Mn2 O4 2.249215 1_555
Mn2 O3 2.299718 1_555
Mn2 O0 2.309081 1_555
Mn2 O1 2.727510 1_454
Mn3 O8 2.042474 1_655
Mn3 O4 2.059494 1_555
Mn3 O3 2.220053 1_555
I0 Mn3 2.961644 1_555
I0 Mn0 3.060457 1_554
I1 Mn1 2.961426 1_555
I1 Mn2 3.063954 1_556
I2 Mn3 2.952822 1_555
I2 Sb0 3.185291 1_655
I2 Sb3 3.407758 1_554
I3 Mn1 2.950954 1_555
I3 Sb1 3.180855 1_455
I3 Sb2 3.407610 1_556
I4 Mn3 2.962161 1_555
I4 Sb4 3.396356 1_555
I5 Mn1 2.963635 1_555
I5 Sb5 3.390557 1_555
O0 Sb2 2.027609 1_555
O0 Sb4 2.031405 1_555
O1 Sb3 2.027466 1_555
O1 Sb5 2.031863 1_555
O2 Sb2 1.988356 1_556
O3 Sb3 1.988807 1_554
O4 Sb4 2.058827 1_555
O4 Sb0 2.088523 1_555
O5 Sb5 2.058779 1_555
O5 Sb1 2.089419 1_555
O6 Sb0 2.005328 1_555
O6 Sb3 2.024984 1_454
O7 Sb1 2.005586 1_555
O7 Sb2 2.024613 1_656
O8 Sb0 2.021166 1_555
O8 Sb4 2.042181 1_555
O9 Sb1 2.021056 1_555
O9 Sb5 2.042472 1_555
