# generated using pymatgen
data_NdFeSb3
_symmetry_space_group_name_H-M   'P 1'
_cell_length_a   6.14734400
_cell_length_b   12.13396900
_cell_length_c   12.72572900
_cell_angle_alpha   90.00000000
_cell_angle_beta   90.00000000
_cell_angle_gamma   90.00000000
_symmetry_Int_Tables_number   1
_chemical_formula_structural   NdFeSb3
_chemical_formula_sum   'Nd8 Fe8 Sb24'
_cell_volume   949.23352478
_cell_formula_units_Z   8
loop_
 _symmetry_equiv_pos_site_id
 _symmetry_equiv_pos_as_xyz
  1  'x, y, z'
loop_
 _atom_site_type_symbol
 _atom_site_label
 _atom_site_symmetry_multiplicity
 _atom_site_fract_x
 _atom_site_fract_y
 _atom_site_fract_z
 _atom_site_occupancy
  Nd  Nd0  1  0.25000000  0.50000000  0.70144100  1
  Nd  Nd1  1  0.75000000  0.00000000  0.29855900  1
  Nd  Nd2  1  0.75000000  0.50000000  0.29855900  1
  Nd  Nd3  1  0.25000000  0.00000000  0.70144100  1
  Nd  Nd4  1  0.22471400  0.25000000  0.30494400  1
  Nd  Nd5  1  0.77528600  0.75000000  0.69505600  1
  Nd  Nd6  1  0.27528600  0.75000000  0.30494400  1
  Nd  Nd7  1  0.72471400  0.25000000  0.69505600  1
  Fe  Fe0  1  0.46148000  0.36142500  0.10036300  1
  Fe  Fe1  1  0.53852000  0.86142500  0.89963700  1
  Fe  Fe2  1  0.03852000  0.63857500  0.10036300  1
  Fe  Fe3  1  0.96148000  0.13857500  0.89963700  1
  Fe  Fe4  1  0.53852000  0.63857500  0.89963700  1
  Fe  Fe5  1  0.46148000  0.13857500  0.10036300  1
  Fe  Fe6  1  0.96148000  0.36142500  0.89963700  1
  Fe  Fe7  1  0.03852000  0.86142500  0.10036300  1
  Sb  Sb0  1  0.25000000  0.50000000  0.97209300  1
  Sb  Sb1  1  0.75000000  0.00000000  0.02790700  1
  Sb  Sb2  1  0.75000000  0.50000000  0.02790700  1
  Sb  Sb3  1  0.25000000  0.00000000  0.97209300  1
  Sb  Sb4  1  0.23133900  0.25000000  0.78362300  1
  Sb  Sb5  1  0.76866100  0.75000000  0.21637700  1
  Sb  Sb6  1  0.26866100  0.75000000  0.78362300  1
  Sb  Sb7  1  0.73133900  0.25000000  0.21637700  1
  Sb  Sb8  1  0.98714500  0.37642200  0.50264800  1
  Sb  Sb9  1  0.01285500  0.87642200  0.49735200  1
  Sb  Sb10  1  0.51285500  0.62357800  0.50264800  1
  Sb  Sb11  1  0.48714500  0.12357800  0.49735200  1
  Sb  Sb12  1  0.01285500  0.62357800  0.49735200  1
  Sb  Sb13  1  0.98714500  0.12357800  0.50264800  1
  Sb  Sb14  1  0.48714500  0.37642200  0.49735200  1
  Sb  Sb15  1  0.51285500  0.87642200  0.50264800  1
  Sb  Sb16  1  0.25000000  0.50000000  0.21930100  1
  Sb  Sb17  1  0.75000000  0.00000000  0.78069900  1
  Sb  Sb18  1  0.75000000  0.50000000  0.78069900  1
  Sb  Sb19  1  0.25000000  0.00000000  0.21930100  1
  Sb  Sb20  1  0.61028300  0.25000000  0.94243700  1
  Sb  Sb21  1  0.38971700  0.75000000  0.05756300  1
  Sb  Sb22  1  0.88971700  0.75000000  0.94243700  1
  Sb  Sb23  1  0.11028300  0.25000000  0.05756300  1
loop_
_geom_bond_atom_site_label_1
_geom_bond_atom_site_label_2
_geom_bond_distance
_geom_bond_site_symmetry_2
Nd0 Sb6 3.210761 1_555
Nd0 Sb4 3.210761 1_555
Nd0 Sb18 3.234929 1_555
Nd0 Sb18 3.234929 1_455
Nd0 Sb14 3.334523 1_555
Nd0 Sb12 3.334523 1_555
Nd0 Sb10 3.355487 1_555
Nd0 Sb8 3.355487 1_455
Nd0 Sb0 3.444244 1_555
Nd1 Sb5 3.210761 1_545
Nd1 Sb7 3.210761 1_555
Nd1 Sb19 3.234929 1_555
Nd1 Sb19 3.234929 1_655
Nd1 Sb13 3.334523 1_555
Nd1 Sb15 3.334523 1_545
Nd1 Sb11 3.355487 1_555
Nd1 Sb9 3.355487 1_645
Nd1 Sb1 3.444244 1_555
Nd2 Sb5 3.210761 1_555
Nd2 Sb7 3.210761 1_555
Nd2 Sb16 3.234929 1_555
Nd2 Sb16 3.234929 1_655
Nd2 Sb10 3.334523 1_555
Nd2 Sb8 3.334523 1_555
Nd2 Sb12 3.355487 1_655
Nd2 Sb14 3.355487 1_555
Nd2 Sb2 3.444244 1_555
Nd3 Sb6 3.210761 1_545
Nd3 Sb4 3.210761 1_555
Nd3 Sb17 3.234929 1_455
Nd3 Sb17 3.234929 1_555
Nd3 Sb9 3.334523 1_545
Nd3 Sb11 3.334523 1_555
Nd3 Sb13 3.355487 1_455
Nd3 Sb15 3.355487 1_545
Nd3 Sb3 3.444244 1_555
Nd4 Sb23 3.225739 1_555
Nd4 Sb19 3.227081 1_555
Nd4 Sb16 3.227081 1_555
Nd4 Sb7 3.235594 1_455
Nd4 Sb13 3.288749 1_455
Nd4 Sb8 3.288749 1_455
Nd4 Sb14 3.309238 1_555
Nd4 Sb11 3.309238 1_555
Nd4 Sb7 3.312066 1_555
Nd5 Sb22 3.225739 1_555
Nd5 Sb18 3.227081 1_555
Nd5 Sb17 3.227081 1_565
Nd5 Sb6 3.235594 1_655
Nd5 Sb9 3.288749 1_655
Nd5 Sb12 3.288749 1_655
Nd5 Sb10 3.309238 1_555
Nd5 Sb15 3.309238 1_555
Nd5 Sb6 3.312066 1_555
Nd6 Sb21 3.225739 1_555
Nd6 Sb16 3.227081 1_555
Nd6 Sb19 3.227081 1_565
Nd6 Sb5 3.235594 1_555
Nd6 Sb15 3.288749 1_555
Nd6 Sb10 3.288749 1_555
Nd6 Sb12 3.309238 1_555
Nd6 Sb9 3.309238 1_555
Nd6 Sb5 3.312066 1_455
Nd7 Sb20 3.225739 1_555
Nd7 Sb18 3.227081 1_555
Nd7 Sb17 3.227081 1_555
Nd7 Sb4 3.235594 1_555
Nd7 Sb14 3.288749 1_555
Nd7 Sb11 3.288749 1_555
Nd7 Sb13 3.309238 1_555
Nd7 Sb8 3.309238 1_555
Nd7 Sb4 3.312066 1_655
Fe0 Sb20 2.589155 1_554
Fe0 Sb7 2.599928 1_555
Fe0 Sb23 2.604920 1_555
Fe0 Sb16 2.609278 1_555
Fe0 Sb2 2.612141 1_555
Fe0 Sb0 2.679912 1_554
Fe0 Nd4 3.274801 1_555
Fe0 Nd2 3.512055 1_555
Fe1 Sb21 2.589155 1_556
Fe1 Sb6 2.599928 1_555
Fe1 Sb22 2.604920 1_555
Fe1 Sb17 2.609278 1_565
Fe1 Sb3 2.612141 1_565
Fe1 Sb1 2.679912 1_566
Fe1 Nd5 3.274801 1_555
Fe1 Nd3 3.512055 1_565
Fe2 Sb22 2.589155 1_454
Fe2 Sb5 2.599928 1_455
Fe2 Sb21 2.604920 1_555
Fe2 Sb16 2.609278 1_555
Fe2 Sb2 2.612141 1_455
Fe2 Sb0 2.679912 1_554
Fe2 Nd6 3.274801 1_555
Fe2 Nd2 3.512055 1_455
Fe3 Sb23 2.589155 1_656
Fe3 Sb4 2.599928 1_655
Fe3 Sb20 2.604920 1_555
Fe3 Sb17 2.609278 1_555
Fe3 Sb3 2.612141 1_655
Fe3 Sb1 2.679912 1_556
Fe3 Nd7 3.274801 1_555
Fe3 Nd3 3.512055 1_655
Fe4 Sb21 2.589155 1_556
Fe4 Sb6 2.599928 1_555
Fe4 Sb22 2.604920 1_555
Fe4 Sb18 2.609278 1_555
Fe4 Sb0 2.612141 1_555
Fe4 Sb2 2.679912 1_556
Fe4 Nd5 3.274801 1_555
Fe4 Nd0 3.512055 1_555
Fe5 Sb20 2.589155 1_554
Fe5 Sb7 2.599928 1_555
Fe5 Sb23 2.604920 1_555
Fe5 Sb19 2.609278 1_555
Fe5 Sb1 2.612141 1_555
Fe5 Sb3 2.679912 1_554
Fe5 Nd4 3.274801 1_555
Fe5 Nd1 3.512055 1_555
Fe6 Sb23 2.589155 1_656
Fe6 Sb4 2.599928 1_655
Fe6 Sb20 2.604920 1_555
Fe6 Sb18 2.609278 1_555
Fe6 Sb0 2.612141 1_655
Fe6 Sb2 2.679912 1_556
Fe6 Nd7 3.274801 1_555
Fe6 Nd0 3.512055 1_655
Fe7 Sb22 2.589155 1_454
Fe7 Sb5 2.599928 1_455
Fe7 Sb21 2.604920 1_555
Fe7 Sb19 2.609278 1_565
Fe7 Sb1 2.612141 1_465
Fe7 Sb3 2.679912 1_564
Fe7 Nd6 3.274801 1_555
Fe7 Nd1 3.512055 1_465
Sb10 Sb14 3.003901 1_555
Sb10 Sb15 3.068001 1_555
Sb10 Sb12 3.074411 1_555
Sb10 Sb12 3.074411 1_655
Sb11 Sb15 3.003901 1_545
Sb11 Sb14 3.068001 1_555
Sb11 Sb13 3.074411 1_455
Sb11 Sb13 3.074411 1_555
Sb12 Sb8 3.003901 1_455
Sb12 Sb9 3.068001 1_555
Sb13 Sb9 3.003901 1_645
Sb13 Sb8 3.068001 1_555
Sb14 Sb8 3.074411 1_455
Sb14 Sb8 3.074411 1_555
Sb15 Sb9 3.074411 1_555
Sb15 Sb9 3.074411 1_655
Sb20 Sb4 3.084008 1_555
Sb21 Sb5 3.084008 1_555
Sb22 Sb6 3.084008 1_655
Sb23 Sb7 3.084008 1_455
