# generated using pymatgen
data_Mg16Al12H
_symmetry_space_group_name_H-M   'P 1'
_cell_length_a   9.10495516
_cell_length_b   9.10495516
_cell_length_c   9.06015584
_cell_angle_alpha   70.47656207
_cell_angle_beta   70.47656207
_cell_angle_gamma   109.49636402
_symmetry_Int_Tables_number   1
_chemical_formula_structural   Mg16Al12H
_chemical_formula_sum   'Mg16 Al12 H1'
_cell_volume   577.26193123
_cell_formula_units_Z   1
loop_
 _symmetry_equiv_pos_site_id
 _symmetry_equiv_pos_as_xyz
  1  'x, y, z'
loop_
 _atom_site_type_symbol
 _atom_site_label
 _atom_site_symmetry_multiplicity
 _atom_site_fract_x
 _atom_site_fract_y
 _atom_site_fract_z
 _atom_site_occupancy
  Mg  Mg0  1  0.56396800  0.56396800  0.69642600  1
  Mg  Mg1  1  0.98699000  0.98699000  0.33886800  1
  Mg  Mg2  1  0.01323500  0.01323500  0.96951300  1
  Mg  Mg3  1  0.30510300  0.30510300  0.27625100  1
  Mg  Mg4  1  0.39291200  0.67093200  0.99050200  1
  Mg  Mg5  1  0.28336000  0.57612300  0.40727000  1
  Mg  Mg6  1  0.67691000  0.99648900  0.58843900  1
  Mg  Mg7  1  0.64771700  0.98734700  0.99169900  1
  Mg  Mg8  1  0.99300500  0.39400000  0.30755300  1
  Mg  Mg9  1  0.30533900  0.70929600  0.67823000  1
  Mg  Mg10  1  0.70929600  0.30533900  0.67823000  1
  Mg  Mg11  1  0.39400000  0.99300500  0.30755300  1
  Mg  Mg12  1  0.98734700  0.64771700  0.99169900  1
  Mg  Mg13  1  0.99648900  0.67691000  0.58843900  1
  Mg  Mg14  1  0.57612300  0.28336000  0.40727000  1
  Mg  Mg15  1  0.67093200  0.39291200  0.99050200  1
  Al  Al0  1  0.80377900  0.80377900  0.80087100  1
  Al  Al1  1  0.63487600  0.63487600  0.16619800  1
  Al  Al2  1  0.16985400  0.35355800  0.99650500  1
  Al  Al3  1  0.99219300  0.17704100  0.62556400  1
  Al  Al4  1  0.63148300  0.81916900  0.35104100  1
  Al  Al5  1  0.98702600  0.35787300  0.81022100  1
  Al  Al6  1  0.79988000  0.18050800  0.18167900  1
  Al  Al7  1  0.18050800  0.79988000  0.18167900  1
  Al  Al8  1  0.35787300  0.98702600  0.81022100  1
  Al  Al9  1  0.81916900  0.63148300  0.35104100  1
  Al  Al10  1  0.17704100  0.99219300  0.62556400  1
  Al  Al11  1  0.35355800  0.16985400  0.99650500  1
  H  H0  1  0.59002900  0.59002900  0.89447500  1
loop_
_geom_bond_atom_site_label_1
_geom_bond_atom_site_label_2
_geom_bond_distance
_geom_bond_site_symmetry_2
Mg0 Mg9 3.084910 1_555
Mg0 Mg10 3.084910 1_555
Mg1 Mg6 3.019595 1_555
Mg1 Mg13 3.019595 1_555
Mg1 Mg3 3.050228 1_665
Mg1 Mg2 3.194623 1_664
Mg2 Mg7 3.188935 1_445
Mg3 Mg4 3.084096 1_554
Mg3 Mg5 3.108746 1_555
Mg3 Mg8 3.156027 1_455
Mg4 Mg7 3.042800 1_555
Mg4 Mg9 3.129777 1_555
Mg4 Mg8 3.147522 1_456
Mg5 Mg9 3.113357 1_555
Mg5 Mg8 3.197885 1_455
Mg6 Mg9 3.127084 1_555
Mg6 Mg8 3.139149 1_565
Mg10 Mg7 3.019811 1_545
Mg10 Mg8 3.098516 1_555
Mg10 Mg14 3.113357 1_555
Mg10 Mg13 3.127084 1_555
Mg10 Mg6 3.129276 1_545
Mg10 Mg15 3.129777 1_555
Mg11 Mg7 3.047596 1_554
Mg11 Mg9 3.098516 1_555
Mg11 Mg13 3.139149 1_455
Mg11 Mg15 3.147522 1_564
Mg11 Mg3 3.156027 1_565
Mg11 Mg14 3.197885 1_565
Mg11 Mg5 3.284155 1_555
Mg12 Mg9 3.019811 1_655
Mg12 Mg15 3.042800 1_555
Mg12 Mg8 3.047596 1_556
Mg12 Mg2 3.188935 1_665
Mg13 Mg9 3.129276 1_655
Mg14 Mg3 3.108746 1_555
Mg14 Mg8 3.284155 1_555
Mg15 Mg3 3.084096 1_556
Al0 H0 1.886778 1_555
Al0 Al1 2.702323 1_556
Al0 Al3 2.773989 1_565
Al0 Al10 2.773989 1_655
Al0 Mg6 2.949419 1_555
Al0 Mg13 2.949419 1_555
Al0 Mg7 3.110696 1_555
Al0 Mg12 3.110696 1_555
Al0 Mg2 3.328068 1_665
Al1 Al9 2.738517 1_555
Al1 Al4 2.738517 1_555
Al1 Mg14 2.950261 1_555
Al1 Mg5 2.950261 1_555
Al1 Mg3 3.000868 1_555
Al1 Mg12 3.007847 1_554
Al1 Mg7 3.007847 1_554
Al1 Mg15 3.157955 1_554
Al1 Mg4 3.157955 1_554
Al1 Mg2 3.283737 1_664
Al2 Al5 2.738300 1_455
Al2 Al6 2.749127 1_456
Al2 Mg4 2.895108 1_555
Al2 Mg8 2.954088 1_456
Al2 Mg9 3.006775 1_555
Al2 Mg0 3.057390 1_555
Al2 Mg1 3.074478 1_446
Al2 Mg2 3.079761 1_555
Al2 Mg3 3.136296 1_556
Al3 Al5 2.711509 1_555
Al3 Mg8 2.894062 1_555
Al3 Mg3 2.963477 1_655
Al3 Mg6 2.986829 1_545
Al3 Mg5 3.066787 1_655
Al3 Mg7 3.070012 1_545
Al3 Mg2 3.074954 1_655
Al3 Mg10 3.128305 1_555
Al4 Al6 2.686176 1_565
Al4 Al9 2.791010 1_555
Al4 Mg0 2.910344 1_555
Al4 Mg5 2.947625 1_555
Al4 Mg9 2.959347 1_555
Al4 Mg7 3.026767 1_554
Al4 Mg1 3.028478 1_555
Al4 Mg11 3.126156 1_555
Al4 Mg6 3.142251 1_555
Al4 Mg2 3.307545 1_664
Al5 Al6 2.745079 1_556
Al5 Mg13 2.880787 1_555
Al5 Mg15 2.978567 1_555
Al5 Mg9 3.000638 1_655
Al5 Mg5 3.089564 1_655
Al5 Mg7 3.093468 1_545
Al5 Mg10 3.106355 1_555
Al5 Mg2 3.112783 1_655
Al6 Mg8 2.951535 1_555
Al6 Mg15 2.958808 1_554
Al6 Mg14 2.995773 1_555
Al6 Mg6 3.083052 1_545
Al6 Mg11 3.089102 1_545
Al6 Mg7 3.156903 1_544
Al6 Mg1 3.159625 1_545
Al6 Mg2 3.350232 1_654
Al7 Al9 2.686176 1_455
Al7 Al8 2.745079 1_554
Al7 Mg11 2.951535 1_555
Al7 Mg4 2.958808 1_554
Al7 Mg5 2.995773 1_555
Al7 Mg13 3.083052 1_455
Al7 Mg8 3.089102 1_455
Al7 Mg12 3.156903 1_454
Al7 Mg1 3.159625 1_455
Al7 Mg2 3.350232 1_564
Al8 Mg6 2.880787 1_555
Al8 Mg4 2.978567 1_555
Al8 Mg10 3.000638 1_565
Al8 Mg14 3.089564 1_565
Al8 Mg12 3.093468 1_455
Al8 Mg9 3.106355 1_555
Al8 Mg2 3.112783 1_565
Al9 Mg0 2.910344 1_555
Al9 Mg14 2.947625 1_555
Al9 Mg10 2.959347 1_555
Al9 Mg12 3.026767 1_554
Al9 Mg1 3.028478 1_555
Al9 Mg8 3.126156 1_555
Al9 Mg13 3.142251 1_555
Al9 Mg2 3.307545 1_664
Al10 Al8 2.711509 1_555
Al10 Al3 2.748807 1_465
Al10 Mg11 2.894062 1_555
Al10 Mg3 2.963477 1_565
Al10 Mg13 2.986829 1_455
Al10 Mg14 3.066787 1_565
Al10 Mg12 3.070012 1_455
Al10 Mg2 3.074954 1_565
Al10 Mg9 3.128305 1_555
Al11 Al2 2.731795 1_555
Al11 Al8 2.738300 1_545
Al11 Al7 2.749127 1_546
Al11 Mg15 2.895108 1_555
Al11 Mg11 2.954088 1_546
Al11 Mg10 3.006775 1_555
Al11 Mg0 3.057390 1_555
Al11 Mg1 3.074478 1_446
Al11 Mg2 3.079761 1_555
Al11 Mg3 3.136296 1_556
H0 Mg0 1.965679 1_555
H0 Mg4 2.188100 1_555
H0 Mg15 2.188100 1_555
