# generated using pymatgen
data_Sr3LaGaCo2O9
_symmetry_space_group_name_H-M   'P 1'
_cell_length_a   4.03957893
_cell_length_b   4.03957893
_cell_length_c   14.31768350
_cell_angle_alpha   81.71200239
_cell_angle_beta   81.71200239
_cell_angle_gamma   88.74921853
_symmetry_Int_Tables_number   1
_chemical_formula_structural   Sr3LaGaCo2O9
_chemical_formula_sum   'Sr3 La1 Ga1 Co2 O9'
_cell_volume   228.78390279
_cell_formula_units_Z   1
loop_
 _symmetry_equiv_pos_site_id
 _symmetry_equiv_pos_as_xyz
  1  'x, y, z'
loop_
 _atom_site_type_symbol
 _atom_site_label
 _atom_site_symmetry_multiplicity
 _atom_site_fract_x
 _atom_site_fract_y
 _atom_site_fract_z
 _atom_site_occupancy
  Sr  Sr0  1  0.29748800  0.29748800  0.40502300  1
  Sr  Sr1  1  0.69828700  0.69828700  0.60342600  1
  Sr  Sr2  1  0.42441200  0.42441200  0.15117700  1
  La  La0  1  0.57478500  0.57478500  0.85043100  1
  Ga  Ga0  1  0.85235600  0.85235600  0.29528700  1
  Co  Co0  1  0.00937800  0.00937800  0.98124500  1
  Co  Co1  1  0.14510900  0.14510900  0.70978200  1
  O  O0  1  0.78633300  0.78633300  0.42733400  1
  O  O1  1  0.21141800  0.21141800  0.57716400  1
  O  O2  1  0.36647900  0.86647900  0.26704200  1
  O  O3  1  0.13582100  0.63582100  0.72835700  1
  O  O4  1  0.63582100  0.13582100  0.72835700  1
  O  O5  1  0.86647900  0.36647900  0.26704200  1
  O  O6  1  0.07239600  0.07239600  0.85520800  1
  O  O7  1  0.71144100  0.71144100  0.00656200  1
  O  O8  1  0.28199700  0.28199700  0.00656200  1
loop_
_geom_bond_atom_site_label_1
_geom_bond_atom_site_label_2
_geom_bond_distance
_geom_bond_site_symmetry_2
La0 O7 2.516245 1_556
La0 O8 2.516248 1_556
La0 O3 2.647670 1_655
La0 O4 2.647670 1_565
La0 O3 2.647676 1_555
La0 O4 2.647676 1_555
La0 O6 2.825860 1_655
La0 O6 2.825860 1_565
La0 O6 2.888195 1_665
La0 O6 2.888201 1_555
Ga0 O0 1.851763 1_555
Ga0 O5 2.058259 1_555
Ga0 O2 2.058259 1_555
Ga0 O2 2.058263 1_655
Ga0 O5 2.058263 1_565
Co0 O8 1.685254 1_556
Co0 O7 1.685260 1_446
Co0 O6 1.767481 1_555
Co1 O1 1.859770 1_555
Co1 O3 2.036515 1_555
Co1 O4 2.036515 1_555
Co1 O4 2.036519 1_455
Co1 O3 2.036519 1_545
Co1 O6 2.039383 1_555
O0 Sr1 2.469428 1_555
O0 Sr0 2.842339 1_565
O0 Sr0 2.842339 1_655
O0 Sr0 2.904320 1_665
O0 Sr0 2.904326 1_555
O1 Sr0 2.414021 1_555
O1 Sr1 2.848970 1_545
O1 Sr1 2.848970 1_455
O1 Sr1 2.910813 1_555
O1 Sr1 2.910813 1_445
O2 Sr2 2.592224 1_555
O2 Sr2 2.592228 1_565
O2 Sr0 2.797084 1_565
O2 Sr0 2.797087 1_555
O3 Sr1 2.673751 1_455
O3 Sr1 2.673754 1_555
O4 Sr1 2.673751 1_545
O4 Sr1 2.673754 1_555
O5 Sr2 2.592224 1_555
O5 Sr2 2.592228 1_655
O5 Sr0 2.797084 1_655
O5 Sr0 2.797087 1_555
O7 Sr2 2.377053 1_555
O8 Sr2 2.377056 1_555
