# generated using pymatgen
data_Nb3AlFe8
_symmetry_space_group_name_H-M   'P 1'
_cell_length_a   4.74045878
_cell_length_b   4.74299200
_cell_length_c   7.89296334
_cell_angle_alpha   90.00000000
_cell_angle_beta   90.02952554
_cell_angle_gamma   59.98232116
_symmetry_Int_Tables_number   1
_chemical_formula_structural   Nb3AlFe8
_chemical_formula_sum   'Nb3 Al1 Fe8'
_cell_volume   153.66183403
_cell_formula_units_Z   1
loop_
 _symmetry_equiv_pos_site_id
 _symmetry_equiv_pos_as_xyz
  1  'x, y, z'
loop_
 _atom_site_type_symbol
 _atom_site_label
 _atom_site_symmetry_multiplicity
 _atom_site_fract_x
 _atom_site_fract_y
 _atom_site_fract_z
 _atom_site_occupancy
  Nb  Nb0  1  0.66672400  0.66663800  0.44026500  1
  Nb  Nb1  1  0.66673300  0.66663300  0.06838900  1
  Nb  Nb2  1  0.33353800  0.33323100  0.92289900  1
  Al  Al0  1  0.33360100  0.33320000  0.56039400  1
  Fe  Fe0  1  0.99984600  0.00007700  0.50236700  1
  Fe  Fe1  1  0.99975100  0.00012500  0.00677200  1
  Fe  Fe2  1  0.83102300  0.33804500  0.74799700  1
  Fe  Fe3  1  0.33801100  0.83099500  0.74806200  1
  Fe  Fe4  1  0.83102300  0.83093200  0.74799700  1
  Fe  Fe5  1  0.16982700  0.66023500  0.25160100  1
  Fe  Fe6  1  0.66009700  0.16995200  0.25165700  1
  Fe  Fe7  1  0.16982700  0.16993800  0.25160100  1
loop_
_geom_bond_atom_site_label_1
_geom_bond_atom_site_label_2
_geom_bond_distance
_geom_bond_site_symmetry_2
Nb0 Nb1 2.935204 1_555
Nb1 Nb2 2.968376 1_554
Nb1 Nb2 2.968380 1_564
Nb1 Nb2 2.968759 1_654
Al0 Fe0 2.773044 1_555
Al0 Fe0 2.776642 1_465
Al0 Fe0 2.776646 1_455
Al0 Fe6 2.781746 1_555
Al0 Fe5 2.782497 1_555
Al0 Fe7 2.782499 1_555
Al0 Fe2 2.793555 1_555
Al0 Fe4 2.793557 1_545
Al0 Fe4 2.796077 1_455
Al0 Fe2 2.796079 1_455
Al0 Fe3 2.796142 1_545
Al0 Fe3 2.796142 1_555
Al0 Nb2 2.861239 1_555
Al0 Nb0 2.896317 1_455
Al0 Nb0 2.897273 1_555
Al0 Nb0 2.897277 1_545
Fe0 Fe3 2.384154 1_645
Fe0 Fe2 2.384705 1_555
Fe0 Fe4 2.384705 1_545
Fe0 Fe6 2.420184 1_555
Fe0 Fe5 2.422213 1_645
Fe0 Fe7 2.422213 1_655
Fe0 Nb0 2.780842 1_555
Fe0 Nb0 2.780842 1_545
Fe0 Nb0 2.781113 1_645
Fe1 Fe7 2.383506 1_655
Fe1 Fe5 2.383508 1_645
Fe1 Fe6 2.383873 1_555
Fe1 Fe2 2.469019 1_554
Fe1 Fe4 2.469022 1_544
Fe1 Fe3 2.469986 1_644
Fe1 Nb1 2.780242 1_555
Fe1 Nb1 2.780250 1_545
Fe1 Nb1 2.780289 1_645
Fe1 Nb2 2.813164 1_554
Fe1 Nb2 2.817873 1_654
Fe1 Nb2 2.817877 1_644
Fe2 Fe3 2.336956 1_555
Fe2 Fe4 2.337759 1_555
Fe2 Fe3 2.403503 1_645
Fe2 Fe4 2.405233 1_545
Fe2 Nb2 2.742832 1_655
Fe2 Nb2 2.743197 1_555
Fe2 Nb0 2.778267 1_555
Fe2 Nb1 2.866722 1_556
Fe3 Fe4 2.336954 1_555
Fe3 Fe4 2.403505 1_455
Fe3 Nb2 2.743848 1_565
Fe3 Nb2 2.743852 1_555
Fe3 Nb0 2.779657 1_555
Fe3 Nb1 2.865126 1_556
Fe4 Nb2 2.742832 1_655
Fe4 Nb2 2.743197 1_565
Fe4 Nb0 2.778267 1_555
Fe4 Nb1 2.866724 1_556
Fe5 Fe6 2.324135 1_555
Fe5 Fe7 2.325475 1_555
Fe5 Fe6 2.416323 1_465
Fe5 Fe7 2.417517 1_565
Fe5 Nb1 2.775581 1_455
Fe5 Nb1 2.777731 1_555
Fe5 Nb0 2.799076 1_555
Fe5 Nb0 2.799557 1_455
Fe5 Nb2 2.921757 1_554
Fe6 Fe7 2.324138 1_555
Fe6 Fe7 2.416321 1_655
Fe6 Nb1 2.777985 1_555
Fe6 Nb1 2.777993 1_545
Fe6 Nb0 2.800148 1_555
Fe6 Nb0 2.800152 1_545
Fe6 Nb2 2.919917 1_554
Fe7 Nb1 2.775579 1_455
Fe7 Nb1 2.777733 1_545
Fe7 Nb0 2.799076 1_545
Fe7 Nb0 2.799557 1_455
Fe7 Nb2 2.921757 1_554
