# generated using pymatgen
data_TiMnGe2
_symmetry_space_group_name_H-M   'P 1'
_cell_length_a   7.96739300
_cell_length_b   8.99212900
_cell_length_c   9.91197900
_cell_angle_alpha   90.00000000
_cell_angle_beta   90.00000000
_cell_angle_gamma   90.00000000
_symmetry_Int_Tables_number   1
_chemical_formula_structural   TiMnGe2
_chemical_formula_sum   'Ti12 Mn12 Ge24'
_cell_volume   710.13209532
_cell_formula_units_Z   12
loop_
 _symmetry_equiv_pos_site_id
 _symmetry_equiv_pos_as_xyz
  1  'x, y, z'
loop_
 _atom_site_type_symbol
 _atom_site_label
 _atom_site_symmetry_multiplicity
 _atom_site_fract_x
 _atom_site_fract_y
 _atom_site_fract_z
 _atom_site_occupancy
  Ti  Ti0  1  0.74153700  0.83050600  0.04668100  1
  Ti  Ti1  1  0.74153700  0.16949400  0.95331900  1
  Ti  Ti2  1  0.25846300  0.66949400  0.54668100  1
  Ti  Ti3  1  0.25846300  0.33050600  0.45331900  1
  Ti  Ti4  1  0.25846300  0.16949400  0.95331900  1
  Ti  Ti5  1  0.25846300  0.83050600  0.04668100  1
  Ti  Ti6  1  0.74153700  0.33050600  0.45331900  1
  Ti  Ti7  1  0.74153700  0.66949400  0.54668100  1
  Ti  Ti8  1  0.50000000  0.83581700  0.32164500  1
  Ti  Ti9  1  0.50000000  0.16418300  0.67835500  1
  Ti  Ti10  1  0.50000000  0.66418300  0.82164500  1
  Ti  Ti11  1  0.50000000  0.33581700  0.17835500  1
  Mn  Mn0  1  0.74757800  0.58793000  0.24944900  1
  Mn  Mn1  1  0.74757800  0.41207000  0.75055100  1
  Mn  Mn2  1  0.25242200  0.91207000  0.74944900  1
  Mn  Mn3  1  0.25242200  0.08793000  0.25055100  1
  Mn  Mn4  1  0.25242200  0.41207000  0.75055100  1
  Mn  Mn5  1  0.25242200  0.58793000  0.24944900  1
  Mn  Mn6  1  0.74757800  0.08793000  0.25055100  1
  Mn  Mn7  1  0.74757800  0.91207000  0.74944900  1
  Mn  Mn8  1  0.74264800  0.00000000  0.50000000  1
  Mn  Mn9  1  0.25735200  0.50000000  0.00000000  1
  Mn  Mn10  1  0.25735200  0.00000000  0.50000000  1
  Mn  Mn11  1  0.74264800  0.50000000  0.00000000  1
  Ge  Ge0  1  0.83652500  0.83523500  0.31629500  1
  Ge  Ge1  1  0.83652500  0.16476500  0.68370500  1
  Ge  Ge2  1  0.16347500  0.66476500  0.81629500  1
  Ge  Ge3  1  0.16347500  0.33523500  0.18370500  1
  Ge  Ge4  1  0.16347500  0.16476500  0.68370500  1
  Ge  Ge5  1  0.16347500  0.83523500  0.31629500  1
  Ge  Ge6  1  0.83652500  0.33523500  0.18370500  1
  Ge  Ge7  1  0.83652500  0.66476500  0.81629500  1
  Ge  Ge8  1  0.50000000  0.53990300  0.37968400  1
  Ge  Ge9  1  0.50000000  0.46009700  0.62031600  1
  Ge  Ge10  1  0.50000000  0.96009700  0.87968400  1
  Ge  Ge11  1  0.50000000  0.03990300  0.12031600  1
  Ge  Ge12  1  0.00000000  0.54623900  0.37989300  1
  Ge  Ge13  1  0.00000000  0.45376100  0.62010700  1
  Ge  Ge14  1  0.00000000  0.95376100  0.87989300  1
  Ge  Ge15  1  0.00000000  0.04623900  0.12010700  1
  Ge  Ge16  1  0.50000000  0.63865900  0.10063000  1
  Ge  Ge17  1  0.50000000  0.36134100  0.89937000  1
  Ge  Ge18  1  0.50000000  0.86134100  0.60063000  1
  Ge  Ge19  1  0.50000000  0.13865900  0.39937000  1
  Ge  Ge20  1  0.00000000  0.63442600  0.09563600  1
  Ge  Ge21  1  0.00000000  0.36557400  0.90436400  1
  Ge  Ge22  1  0.00000000  0.86557400  0.59563600  1
  Ge  Ge23  1  0.00000000  0.13442600  0.40436400  1
loop_
_geom_bond_atom_site_label_1
_geom_bond_atom_site_label_2
_geom_bond_distance
_geom_bond_site_symmetry_2
Ge0 Mn0 2.426213 1_555
Ge0 Mn8 2.463766 1_565
Ge0 Mn6 2.467806 1_565
Ge0 Ge5 2.604939 1_655
Ge0 Ti8 2.681756 1_555
Ge0 Ti0 2.777828 1_555
Ge0 Ti7 2.829962 1_555
Ge1 Mn1 2.426213 1_555
Ge1 Mn8 2.463766 1_555
Ge1 Mn7 2.467806 1_545
Ge1 Ge4 2.604939 1_655
Ge1 Ti9 2.681756 1_555
Ge1 Ti1 2.777828 1_555
Ge1 Ti6 2.829962 1_555
Ge2 Mn2 2.426213 1_555
Ge2 Mn9 2.463766 1_556
Ge2 Mn4 2.467806 1_555
Ge2 Ge7 2.604939 1_455
Ge2 Ti10 2.681756 1_555
Ge2 Ti2 2.777828 1_555
Ge2 Ti5 2.829962 1_556
Ge3 Mn3 2.426213 1_555
Ge3 Mn9 2.463766 1_555
Ge3 Mn5 2.467806 1_555
Ge3 Ge6 2.604939 1_455
Ge3 Ti11 2.681756 1_555
Ge3 Ti3 2.777828 1_555
Ge3 Ti4 2.829962 1_554
Ge4 Mn4 2.426213 1_555
Ge4 Mn10 2.463766 1_555
Ge4 Mn2 2.467806 1_545
Ge4 Ti9 2.681756 1_555
Ge4 Ti4 2.777828 1_555
Ge4 Ti3 2.829962 1_555
Ge5 Mn5 2.426213 1_555
Ge5 Mn10 2.463766 1_565
Ge5 Mn3 2.467806 1_565
Ge5 Ti8 2.681756 1_555
Ge5 Ti5 2.777828 1_555
Ge5 Ti2 2.829962 1_555
Ge6 Mn6 2.426213 1_555
Ge6 Mn11 2.463766 1_555
Ge6 Mn0 2.467806 1_555
Ge6 Ti11 2.681756 1_555
Ge6 Ti6 2.777828 1_555
Ge6 Ti1 2.829962 1_554
Ge7 Mn7 2.426213 1_555
Ge7 Mn11 2.463766 1_556
Ge7 Mn1 2.467806 1_555
Ge7 Ti10 2.681756 1_555
Ge7 Ti7 2.777828 1_555
Ge7 Ti0 2.829962 1_556
Ge8 Mn0 2.396634 1_555
Ge8 Mn5 2.396634 1_555
Ge8 Ge9 2.490758 1_555
Ge8 Ti11 2.711113 1_555
Ge8 Ti8 2.722374 1_555
Ge8 Ti6 2.789535 1_555
Ge8 Ti3 2.789535 1_555
Ge8 Ti2 2.793069 1_555
Ge8 Ti7 2.793069 1_555
Ge9 Mn1 2.396634 1_555
Ge9 Mn4 2.396634 1_555
Ge9 Ti10 2.711113 1_555
Ge9 Ti9 2.722374 1_555
Ge9 Ti7 2.789535 1_555
Ge9 Ti2 2.789535 1_555
Ge9 Ti6 2.793069 1_555
Ge9 Ti3 2.793069 1_555
Ge10 Mn7 2.396634 1_555
Ge10 Mn2 2.396634 1_555
Ge10 Ge11 2.490758 1_566
Ge10 Ti9 2.711113 1_565
Ge10 Ti10 2.722374 1_555
Ge10 Ti1 2.789535 1_565
Ge10 Ti4 2.789535 1_565
Ge10 Ti0 2.793069 1_556
Ge10 Ti5 2.793069 1_556
Ge11 Mn6 2.396634 1_555
Ge11 Mn3 2.396634 1_555
Ge11 Ti8 2.711113 1_545
Ge11 Ti11 2.722374 1_555
Ge11 Ti5 2.789535 1_545
Ge11 Ti0 2.789535 1_545
Ge11 Ti1 2.793069 1_554
Ge11 Ti4 2.793069 1_554
Ge12 Mn5 2.420122 1_555
Ge12 Mn0 2.420122 1_455
Ge12 Ti2 2.863926 1_555
Ge12 Ti7 2.863926 1_455
Ge12 Ti3 2.921218 1_555
Ge12 Ti6 2.921218 1_455
Ge13 Mn4 2.420122 1_555
Ge13 Mn1 2.420122 1_455
Ge13 Ti3 2.863926 1_555
Ge13 Ti6 2.863926 1_455
Ge13 Ti7 2.921218 1_455
Ge13 Ti2 2.921218 1_555
Ge14 Mn2 2.420122 1_555
Ge14 Mn7 2.420122 1_455
Ge14 Ti0 2.863926 1_456
Ge14 Ti5 2.863926 1_556
Ge14 Ti4 2.921218 1_565
Ge14 Ti1 2.921218 1_465
Ge15 Mn3 2.420122 1_555
Ge15 Mn6 2.420122 1_455
Ge15 Ti1 2.863926 1_454
Ge15 Ti4 2.863926 1_554
Ge15 Ti0 2.921218 1_445
Ge15 Ti5 2.921218 1_545
Ge16 Mn0 2.504982 1_555
Ge16 Mn5 2.504982 1_555
Ge16 Mn11 2.507397 1_555
Ge16 Mn9 2.507397 1_555
Ge16 Ti5 2.639196 1_555
Ge16 Ti0 2.639196 1_555
Ge16 Ti10 2.774802 1_554
Ge16 Ti8 2.818194 1_555
Ge16 Ti11 2.830074 1_555
Ge17 Mn1 2.504982 1_555
Ge17 Mn4 2.504982 1_555
Ge17 Mn11 2.507397 1_556
Ge17 Mn9 2.507397 1_556
Ge17 Ti4 2.639196 1_555
Ge17 Ti1 2.639196 1_555
Ge17 Ti11 2.774802 1_556
Ge17 Ti9 2.818194 1_555
Ge17 Ti10 2.830074 1_555
Ge18 Mn7 2.504982 1_555
Ge18 Mn2 2.504982 1_555
Ge18 Mn8 2.507397 1_565
Ge18 Mn10 2.507397 1_565
Ge18 Ti2 2.639196 1_555
Ge18 Ti7 2.639196 1_555
Ge18 Ti8 2.774802 1_555
Ge18 Ti10 2.818194 1_555
Ge18 Ti9 2.830074 1_565
Ge19 Mn6 2.504982 1_555
Ge19 Mn3 2.504982 1_555
Ge19 Mn8 2.507397 1_555
Ge19 Mn10 2.507397 1_555
Ge19 Ti6 2.639196 1_555
Ge19 Ti3 2.639196 1_555
Ge19 Ti9 2.774802 1_555
Ge19 Ti11 2.818194 1_555
Ge19 Ti8 2.830074 1_545
Ge20 Mn5 2.558103 1_555
Ge20 Mn0 2.558103 1_455
Ge20 Mn11 2.562025 1_455
Ge20 Mn9 2.562025 1_555
Ge20 Ti0 2.754064 1_455
Ge20 Ti5 2.754064 1_555
Ge21 Mn4 2.558103 1_555
Ge21 Mn1 2.558103 1_455
Ge21 Mn9 2.562025 1_556
Ge21 Mn11 2.562025 1_456
Ge21 Ti4 2.754064 1_555
Ge21 Ti1 2.754064 1_455
Ge22 Mn2 2.558103 1_555
Ge22 Mn7 2.558103 1_455
Ge22 Mn10 2.562025 1_565
Ge22 Mn8 2.562025 1_465
Ge22 Ti7 2.754064 1_455
Ge22 Ti2 2.754064 1_555
Ge23 Mn3 2.558103 1_555
Ge23 Mn6 2.558103 1_455
Ge23 Mn8 2.562025 1_455
Ge23 Mn10 2.562025 1_555
Ge23 Ti3 2.754064 1_555
Ge23 Ti6 2.754064 1_455
