# generated using pymatgen
data_Li9Mn2Co5O16
_symmetry_space_group_name_H-M   'P 1'
_cell_length_a   2.98840000
_cell_length_b   9.90362409
_cell_length_c   10.00897317
_cell_angle_alpha   78.17387970
_cell_angle_beta   87.80263261
_cell_angle_gamma   87.72366462
_symmetry_Int_Tables_number   1
_chemical_formula_structural   Li9Mn2Co5O16
_chemical_formula_sum   'Li9 Mn2 Co5 O16'
_cell_volume   289.57084163
_cell_formula_units_Z   1
loop_
 _symmetry_equiv_pos_site_id
 _symmetry_equiv_pos_as_xyz
  1  'x, y, z'
loop_
 _atom_site_type_symbol
 _atom_site_label
 _atom_site_symmetry_multiplicity
 _atom_site_fract_x
 _atom_site_fract_y
 _atom_site_fract_z
 _atom_site_occupancy
  Li  Li0  1  0.00636100  0.24968500  0.12834900  1
  Li  Li1  1  0.51126400  0.75259400  0.12875500  1
  Li  Li2  1  0.49994600  0.25166800  0.37575900  1
  Li  Li3  1  0.00376900  0.74835600  0.37617400  1
  Li  Li4  1  0.00748100  0.25250400  0.62221300  1
  Li  Li5  1  0.50081500  0.73834300  0.63099400  1
  Li  Li6  1  0.49046100  0.25602000  0.86726000  1
  Li  Li7  1  0.98617900  0.74526700  0.86734900  1
  Li  Li8  1  0.01532400  0.51050200  0.74979100  1
  Mn  Mn0  1  0.00971000  0.00099200  0.99859100  1
  Mn  Mn1  1  0.48962300  0.50050000  0.99442600  1
  Co  Co0  1  0.50918400  0.99885100  0.25309600  1
  Co  Co1  1  0.98686800  0.49601700  0.25208900  1
  Co  Co2  1  0.99226800  0.99990100  0.50155100  1
  Co  Co3  1  0.51028400  0.49925300  0.50930700  1
  Co  Co4  1  0.48435900  0.00092300  0.74774100  1
  O  O0  1  0.54761400  0.11732100  0.07107900  1
  O  O1  1  0.97378100  0.60386700  0.06517700  1
  O  O2  1  0.99302300  0.11506500  0.32002200  1
  O  O3  1  0.52899800  0.60674100  0.32096200  1
  O  O4  1  0.47852700  0.11256800  0.56757700  1
  O  O5  1  0.04318700  0.61446100  0.55433000  1
  O  O6  1  0.02688600  0.11850100  0.81399700  1
  O  O7  1  0.50226800  0.61853500  0.82723200  1
  O  O8  1  0.46022600  0.38699500  0.18556800  1
  O  O9  1  0.02352900  0.88232800  0.18261800  1
  O  O10  1  0.97269900  0.38881800  0.43244400  1
  O  O11  1  0.51016400  0.88439100  0.43145500  1
  O  O12  1  0.50239700  0.38454300  0.66655300  1
  O  O13  1  0.95297900  0.88633600  0.68282500  1
  O  O14  1  0.01089600  0.39157100  0.94614900  1
  O  O15  1  0.46893000  0.88658000  0.92856900  1
loop_
_geom_bond_atom_site_label_1
_geom_bond_atom_site_label_2
_geom_bond_distance
_geom_bond_site_symmetry_2
Li0 O14 2.061467 1_554
Li0 O2 2.099884 1_455
Li0 O0 2.106519 1_455
Li0 O8 2.131234 1_555
Li0 O0 2.175245 1_555
Li0 O8 2.216329 1_455
Li1 O9 2.034892 1_555
Li1 O1 2.154051 1_555
Li1 O3 2.157086 1_555
Li1 O15 2.169736 1_554
Li1 O9 2.188243 1_655
Li1 O1 2.409339 1_455
Li2 O8 2.095952 1_555
Li2 O2 2.097774 1_555
Li2 O4 2.121646 1_555
Li2 O10 2.166226 1_555
Li2 O10 2.174104 1_455
Li2 O2 2.230092 1_455
Li3 O5 1.996606 1_555
Li3 O11 2.093365 1_455
Li3 O9 2.112085 1_555
Li3 O3 2.193699 1_555
Li3 O3 2.195741 1_455
Li3 O11 2.223291 1_555
Li4 O12 2.053027 1_455
Li4 O4 2.073131 1_555
Li4 O10 2.096181 1_455
Li4 O6 2.099420 1_555
Li4 O12 2.129847 1_555
Li4 O4 2.295503 1_455
Li5 O7 2.076230 1_555
Li5 O5 2.136333 1_555
Li5 O13 2.183097 1_555
Li5 O5 2.203097 1_655
Li5 O11 2.212799 1_555
Li5 O13 2.270130 1_455
Li6 O6 2.135972 1_555
Li6 O12 2.146395 1_555
Li6 O14 2.162027 1_555
Li6 O6 2.183457 1_655
Li6 O0 2.221978 1_556
Li6 O14 2.353505 1_655
Li7 O7 2.029890 1_655
Li7 O7 2.055008 1_555
Li7 O13 2.078018 1_555
Li7 O1 2.178301 1_556
Li7 O15 2.197827 1_555
Li7 O15 2.234952 1_655
Li8 O5 2.015696 1_555
Li8 O7 2.052983 1_455
Li8 O14 2.073760 1_555
Li8 O7 2.100752 1_555
Li8 O12 2.134870 1_555
Li8 O12 2.296871 1_455
Mn0 O15 1.945921 1_545
Mn0 O6 1.971484 1_555
Mn0 O9 1.972362 1_546
Mn0 O0 1.974852 1_456
Mn0 O15 2.223641 1_445
Mn0 O0 2.239822 1_556
Mn1 O7 1.834440 1_555
Mn1 O14 1.957868 1_555
Mn1 O14 1.961218 1_655
Mn1 O1 2.003464 1_456
Mn1 O8 2.011193 1_556
Mn1 O1 2.033768 1_556
Co0 O11 1.908552 1_555
Co0 O0 1.956344 1_565
Co0 O2 2.061168 1_465
Co0 O9 2.074010 1_655
Co0 O2 2.094396 1_565
Co0 O9 2.116815 1_555
Co1 O10 1.897293 1_555
Co1 O3 1.915260 1_555
Co1 O8 1.926455 1_655
Co1 O1 1.955893 1_555
Co1 O8 2.143823 1_555
Co1 O3 2.199772 1_655
Co2 O13 1.930908 1_555
Co2 O2 1.937145 1_565
Co2 O4 2.031540 1_565
Co2 O4 2.073175 1_665
Co2 O11 2.073949 1_655
Co2 O11 2.100945 1_555
Co3 O12 1.742021 1_555
Co3 O5 1.867981 1_555
Co3 O10 1.959831 1_555
Co3 O3 1.965753 1_555
Co3 O5 2.109778 1_655
Co3 O10 2.224452 1_455
Co4 O4 1.912648 1_555
Co4 O15 1.928184 1_545
Co4 O13 1.943550 1_545
Co4 O6 1.945570 1_555
Co4 O13 2.180863 1_445
Co4 O6 2.230073 1_655
