# generated using pymatgen
data_CeFeSi2
_symmetry_space_group_name_H-M   'P 1'
_cell_length_a   8.60530178
_cell_length_b   8.60530178
_cell_length_c   3.99941400
_cell_angle_alpha   90.00000000
_cell_angle_beta   90.00000000
_cell_angle_gamma   152.93421676
_symmetry_Int_Tables_number   1
_chemical_formula_structural   CeFeSi2
_chemical_formula_sum   'Ce2 Fe2 Si4'
_cell_volume   134.75738162
_cell_formula_units_Z   2
loop_
 _symmetry_equiv_pos_site_id
 _symmetry_equiv_pos_as_xyz
  1  'x, y, z'
loop_
 _atom_site_type_symbol
 _atom_site_label
 _atom_site_symmetry_multiplicity
 _atom_site_fract_x
 _atom_site_fract_y
 _atom_site_fract_z
 _atom_site_occupancy
  Ce  Ce0  1  0.61058200  0.38941800  0.25000000  1
  Ce  Ce1  1  0.38941800  0.61058200  0.75000000  1
  Fe  Fe0  1  0.82474600  0.17525400  0.25000000  1
  Fe  Fe1  1  0.17525400  0.82474600  0.75000000  1
  Si  Si0  1  0.95990400  0.04009600  0.25000000  1
  Si  Si1  1  0.04009600  0.95990400  0.75000000  1
  Si  Si2  1  0.25021800  0.74978200  0.25000000  1
  Si  Si3  1  0.74978200  0.25021800  0.75000000  1
loop_
_geom_bond_atom_site_label_1
_geom_bond_atom_site_label_2
_geom_bond_distance
_geom_bond_site_symmetry_2
Ce0 Fe1 3.037224 1_545
Ce0 Fe1 3.037224 1_654
Ce0 Fe1 3.037224 1_544
Ce0 Fe1 3.037224 1_655
Ce0 Si3 3.069854 1_555
Ce0 Si3 3.069854 1_554
Ce0 Si1 3.073230 1_544
Ce0 Si1 3.073230 1_545
Ce0 Si1 3.073230 1_655
Ce0 Si1 3.073230 1_654
Ce0 Si2 3.084491 1_545
Ce0 Si2 3.084491 1_655
Ce0 Si0 3.226704 1_565
Ce0 Si0 3.226704 1_455
Ce1 Fe0 3.037224 1_565
Ce1 Fe0 3.037224 1_566
Ce1 Fe0 3.037224 1_456
Ce1 Fe0 3.037224 1_455
Ce1 Si2 3.069854 1_556
Ce1 Si2 3.069854 1_555
Ce1 Si0 3.073230 1_456
Ce1 Si0 3.073230 1_455
Ce1 Si0 3.073230 1_566
Ce1 Si0 3.073230 1_565
Ce1 Si3 3.084491 1_565
Ce1 Si3 3.084491 1_455
Ce1 Si1 3.226704 1_655
Ce1 Si1 3.226704 1_545
Fe0 Si0 2.261567 1_555
Fe0 Si3 2.360558 1_554
Fe0 Si3 2.360558 1_555
Fe0 Si2 2.368550 1_545
Fe0 Si2 2.368550 1_655
Fe1 Si1 2.261567 1_555
Fe1 Si2 2.360558 1_556
Fe1 Si2 2.360558 1_555
Fe1 Si3 2.368550 1_565
Fe1 Si3 2.368550 1_455
Si0 Si1 2.408183 1_645
Si0 Si1 2.408183 1_644
