# generated using pymatgen
data_ScAs2H4NO7
_symmetry_space_group_name_H-M   'P 1'
_cell_length_a   8.04392934
_cell_length_b   8.99291700
_cell_length_c   10.85691300
_cell_angle_alpha   90.00000000
_cell_angle_beta   90.00000000
_cell_angle_gamma   106.80865604
_symmetry_Int_Tables_number   1
_chemical_formula_structural   ScAs2H4NO7
_chemical_formula_sum   'Sc4 As8 H16 N4 O28'
_cell_volume   751.81723804
_cell_formula_units_Z   4
loop_
 _symmetry_equiv_pos_site_id
 _symmetry_equiv_pos_as_xyz
  1  'x, y, z'
loop_
 _atom_site_type_symbol
 _atom_site_label
 _atom_site_symmetry_multiplicity
 _atom_site_fract_x
 _atom_site_fract_y
 _atom_site_fract_z
 _atom_site_occupancy
  Sc  Sc0  1  0.23859500  0.75936100  0.60163600  1
  Sc  Sc1  1  0.76140500  0.74063900  0.10163600  1
  Sc  Sc2  1  0.76140500  0.24063900  0.39836400  1
  Sc  Sc3  1  0.23859500  0.25936100  0.89836400  1
  As  As0  1  0.13363700  0.83137600  0.90574200  1
  As  As1  1  0.86636300  0.66862400  0.40574200  1
  As  As2  1  0.86636300  0.16862400  0.09425800  1
  As  As3  1  0.13363700  0.33137600  0.59425800  1
  As  As4  1  0.43651200  0.18640100  0.63306000  1
  As  As5  1  0.56348800  0.31359900  0.13306000  1
  As  As6  1  0.56348800  0.81359900  0.36694000  1
  As  As7  1  0.43651200  0.68640100  0.86694000  1
  H  H0  1  0.89234100  0.87756700  0.63031300  1
  H  H1  1  0.10765900  0.62243300  0.13031300  1
  H  H2  1  0.10765900  0.12243300  0.36968700  1
  H  H3  1  0.89234100  0.37756700  0.86968700  1
  H  H4  1  0.89743900  0.01332500  0.73936500  1
  H  H5  1  0.10256100  0.48667500  0.23936500  1
  H  H6  1  0.10256100  0.98667500  0.26063500  1
  H  H7  1  0.89743900  0.51332500  0.76063500  1
  H  H8  1  0.77918900  0.00672500  0.61236200  1
  H  H9  1  0.22081100  0.49327500  0.11236200  1
  H  H10  1  0.22081100  0.99327500  0.38763800  1
  H  H11  1  0.77918900  0.50672500  0.88763800  1
  H  H12  1  0.71031100  0.86369900  0.71580300  1
  H  H13  1  0.28968900  0.63630100  0.21580300  1
  H  H14  1  0.28968900  0.13630100  0.28419700  1
  H  H15  1  0.71031100  0.36369900  0.78419700  1
  N  N0  1  0.81972500  0.93983700  0.67611800  1
  N  N1  1  0.18027500  0.56016300  0.17611800  1
  N  N2  1  0.18027500  0.06016300  0.32388200  1
  N  N3  1  0.81972500  0.43983700  0.82388200  1
  O  O0  1  0.15196900  0.52223000  0.59236100  1
  O  O1  1  0.84803100  0.97777000  0.09236100  1
  O  O2  1  0.84803100  0.47777000  0.40763900  1
  O  O3  1  0.15196900  0.02223000  0.90763900  1
  O  O4  1  0.31133600  0.00252400  0.60821200  1
  O  O5  1  0.68866400  0.49747600  0.10821200  1
  O  O6  1  0.68866400  0.99747600  0.39178800  1
  O  O7  1  0.31133600  0.50252400  0.89178800  1
  O  O8  1  0.00665300  0.77347300  0.51293200  1
  O  O9  1  0.99334700  0.72652700  0.01293200  1
  O  O10  1  0.99334700  0.22652700  0.48706800  1
  O  O11  1  0.00665300  0.27347300  0.98706800  1
  O  O12  1  0.08566900  0.74943500  0.76401700  1
  O  O13  1  0.91433100  0.75056500  0.26401700  1
  O  O14  1  0.91433100  0.25056500  0.23598300  1
  O  O15  1  0.08566900  0.24943500  0.73598300  1
  O  O16  1  0.36193700  0.77492500  0.42858100  1
  O  O17  1  0.63806300  0.72507500  0.92858100  1
  O  O18  1  0.63806300  0.22507500  0.57141900  1
  O  O19  1  0.36193700  0.27492500  0.07141900  1
  O  O20  1  0.45280600  0.74940800  0.71794400  1
  O  O21  1  0.54719400  0.75059200  0.21794400  1
  O  O22  1  0.54719400  0.25059200  0.28205600  1
  O  O23  1  0.45280600  0.24940800  0.78205600  1
  O  O24  1  0.33939100  0.31053200  0.54642300  1
  O  O25  1  0.66060900  0.18946800  0.04642300  1
  O  O26  1  0.66060900  0.68946800  0.45357700  1
  O  O27  1  0.33939100  0.81053200  0.95357700  1
loop_
_geom_bond_atom_site_label_1
_geom_bond_atom_site_label_2
_geom_bond_distance
_geom_bond_site_symmetry_2
As0 O3 1.679760 1_565
As0 O12 1.701478 1_555
As0 O9 1.703367 1_456
As0 O27 1.795422 1_555
As1 O2 1.679760 1_555
As1 O13 1.701478 1_555
As1 O8 1.703367 1_655
As1 O26 1.795422 1_555
As2 O1 1.679760 1_545
As2 O14 1.701478 1_555
As2 O11 1.703367 1_654
As2 O25 1.795422 1_555
As3 O0 1.679760 1_555
As3 O15 1.701478 1_555
As3 O10 1.703367 1_455
As3 O24 1.795422 1_555
As4 O4 1.690573 1_555
As4 O18 1.694464 1_555
As4 O23 1.706467 1_555
As4 O24 1.801549 1_555
As5 O5 1.690573 1_555
As5 O19 1.694464 1_555
As5 O22 1.706467 1_555
As5 O25 1.801549 1_555
As6 O6 1.690573 1_555
As6 O16 1.694464 1_555
As6 O21 1.706467 1_555
As6 O26 1.801549 1_555
As7 O7 1.690573 1_555
As7 O17 1.694464 1_555
As7 O20 1.706467 1_555
As7 O27 1.801549 1_555
H0 N0 1.044638 1_555
H1 N1 1.044638 1_555
H2 N2 1.044638 1_555
H3 N3 1.044638 1_555
H4 N0 1.029617 1_545
H5 N1 1.029617 1_555
H6 N2 1.029617 1_565
H7 N3 1.029617 1_555
H8 N0 1.029909 1_545
H9 N1 1.029909 1_555
H10 N2 1.029909 1_565
H11 N3 1.029909 1_555
H12 N0 1.039489 1_555
H13 N1 1.039489 1_555
H14 N2 1.039489 1_555
H15 N3 1.039489 1_555
O0 Sc0 2.045443 1_555
O1 Sc1 2.045443 1_555
O2 Sc2 2.045443 1_555
O3 Sc3 2.045443 1_555
O4 Sc0 2.095067 1_545
O5 Sc1 2.095067 1_555
O6 Sc2 2.095067 1_565
O7 Sc3 2.095067 1_555
O8 Sc0 2.135754 1_555
O9 Sc1 2.135754 1_555
O10 Sc2 2.135754 1_555
O11 Sc3 2.135754 1_555
O12 Sc0 2.136747 1_555
O13 Sc1 2.136747 1_555
O14 Sc2 2.136747 1_555
O15 Sc3 2.136747 1_555
O16 Sc0 2.110379 1_555
O17 Sc1 2.110379 1_556
O18 Sc2 2.110379 1_555
O19 Sc3 2.110379 1_554
O20 Sc0 2.158890 1_555
O21 Sc1 2.158890 1_555
O22 Sc2 2.158890 1_555
O23 Sc3 2.158890 1_555
