# generated using pymatgen
data_NaRh(N2O3)4
_symmetry_space_group_name_H-M   'P 1'
_cell_length_a   7.61178520
_cell_length_b   7.61178520
_cell_length_c   7.54310995
_cell_angle_alpha   60.31051737
_cell_angle_beta   60.31051737
_cell_angle_gamma   89.93261630
_symmetry_Int_Tables_number   1
_chemical_formula_structural   NaRh(N2O3)4
_chemical_formula_sum   'Na1 Rh1 N8 O12'
_cell_volume   312.09014656
_cell_formula_units_Z   1
loop_
 _symmetry_equiv_pos_site_id
 _symmetry_equiv_pos_as_xyz
  1  'x, y, z'
loop_
 _atom_site_type_symbol
 _atom_site_label
 _atom_site_symmetry_multiplicity
 _atom_site_fract_x
 _atom_site_fract_y
 _atom_site_fract_z
 _atom_site_occupancy
  Na  Na0  1  0.49994700  0.49994700  0.99925800  1
  Rh  Rh0  1  0.99993800  0.99993800  0.99774400  1
  N  N0  1  0.19432000  0.19432000  0.60448600  1
  N  N1  1  0.80797400  0.80797400  0.98810400  1
  N  N2  1  0.80086600  0.19608000  0.99678300  1
  N  N3  1  0.80302800  0.80302800  0.39390200  1
  N  N4  1  0.19734300  0.19734300  0.99934800  1
  N  N5  1  0.19608000  0.80086600  0.99678300  1
  N  N6  1  0.72875500  0.27201500  0.45552200  1
  N  N7  1  0.27201500  0.72875500  0.45552200  1
  O  O0  1  0.65511100  0.85845800  0.98459600  1
  O  O1  1  0.85119600  0.35314900  0.79449100  1
  O  O2  1  0.14631800  0.14631800  0.49642300  1
  O  O3  1  0.35199600  0.14853300  0.99899900  1
  O  O4  1  0.14232400  0.64244000  0.20021100  1
  O  O5  1  0.85320500  0.85320500  0.49911900  1
  O  O6  1  0.14853300  0.35199600  0.99899900  1
  O  O7  1  0.64244000  0.14232400  0.20021100  1
  O  O8  1  0.85845800  0.65511100  0.98459600  1
  O  O9  1  0.35314900  0.85119600  0.79449100  1
  O  O10  1  0.34721600  0.34721600  0.50094400  1
  O  O11  1  0.64978800  0.64978800  0.49946600  1
loop_
_geom_bond_atom_site_label_1
_geom_bond_atom_site_label_2
_geom_bond_distance
_geom_bond_site_symmetry_2
Na0 O11 2.880742 1_555
Na0 O10 2.882852 1_556
Na0 O9 2.897317 1_555
Na0 O1 2.897317 1_555
Na0 O7 2.901450 1_556
Na0 O4 2.901450 1_556
Na0 O8 2.904019 1_555
Na0 O0 2.904019 1_555
Na0 O6 2.904778 1_555
Na0 O3 2.904778 1_555
Na0 O2 2.927903 1_556
Na0 O5 2.934693 1_555
N0 O10 1.233393 1_555
N0 O2 1.233623 1_555
N0 Rh0 2.118356 1_445
N1 O8 1.233537 1_555
N1 O0 1.233537 1_555
N1 Rh0 2.119188 1_555
N2 O1 1.232630 1_555
N2 O7 1.233859 1_556
N2 Rh0 2.126035 1_545
N3 O11 1.232166 1_555
N3 O5 1.233918 1_555
N3 Rh0 2.134105 1_554
N4 O3 1.233158 1_555
N4 O6 1.233158 1_555
N4 Rh0 2.134740 1_445
N5 O9 1.232630 1_555
N5 O4 1.233859 1_556
N5 Rh0 2.126035 1_455
