# generated using pymatgen
data_SrMg5
_symmetry_space_group_name_H-M   'P 1'
_cell_length_a   25.27047294
_cell_length_b   6.56506400
_cell_length_c   16.73101679
_cell_angle_alpha   90.00000000
_cell_angle_beta   107.15063816
_cell_angle_gamma   90.00000000
_symmetry_Int_Tables_number   1
_chemical_formula_structural   SrMg5
_chemical_formula_sum   'Sr16 Mg80'
_cell_volume   2652.28539516
_cell_formula_units_Z   16
loop_
 _symmetry_equiv_pos_site_id
 _symmetry_equiv_pos_as_xyz
  1  'x, y, z'
loop_
 _atom_site_type_symbol
 _atom_site_label
 _atom_site_symmetry_multiplicity
 _atom_site_fract_x
 _atom_site_fract_y
 _atom_site_fract_z
 _atom_site_occupancy
  Sr  Sr0_0  1  0.19196100  0.00000000  0.13629400  1
  Sr  Sr0_1  1  0.19196100  0.00000000  0.63629400  1
  Sr  Sr0_2  1  0.19196100  0.50000000  0.13629400  1
  Sr  Sr0_3  1  0.19196100  0.50000000  0.63629400  1
  Sr  Sr0_4  1  0.69196100  0.00000000  0.13629400  1
  Sr  Sr0_5  1  0.69196100  0.00000000  0.63629400  1
  Sr  Sr0_6  1  0.69196100  0.50000000  0.13629400  1
  Sr  Sr0_7  1  0.69196100  0.50000000  0.63629400  1
  Sr  Sr1_0  1  0.44196100  0.25000000  0.13629400  1
  Sr  Sr1_1  1  0.44196100  0.25000000  0.63629400  1
  Sr  Sr1_2  1  0.44196100  0.75000000  0.13629400  1
  Sr  Sr1_3  1  0.44196100  0.75000000  0.63629400  1
  Sr  Sr1_4  1  0.94196100  0.25000000  0.13629400  1
  Sr  Sr1_5  1  0.94196100  0.25000000  0.63629400  1
  Sr  Sr1_6  1  0.94196100  0.75000000  0.13629400  1
  Sr  Sr1_7  1  0.94196100  0.75000000  0.63629400  1
  Mg  Mg0_0  1  0.00491500  0.00000000  0.49330750  1
  Mg  Mg0_1  1  0.00491500  0.00000000  0.99330750  1
  Mg  Mg0_2  1  0.00491500  0.50000000  0.49330750  1
  Mg  Mg0_3  1  0.00491500  0.50000000  0.99330750  1
  Mg  Mg0_4  1  0.50491500  0.00000000  0.49330750  1
  Mg  Mg0_5  1  0.50491500  0.00000000  0.99330750  1
  Mg  Mg0_6  1  0.50491500  0.50000000  0.49330750  1
  Mg  Mg0_7  1  0.50491500  0.50000000  0.99330750  1
  Mg  Mg1_0  1  0.07944400  0.25000000  0.17306700  1
  Mg  Mg1_1  1  0.07944400  0.25000000  0.67306700  1
  Mg  Mg1_2  1  0.07944400  0.75000000  0.17306700  1
  Mg  Mg1_3  1  0.07944400  0.75000000  0.67306700  1
  Mg  Mg1_4  1  0.57944400  0.25000000  0.17306700  1
  Mg  Mg1_5  1  0.57944400  0.25000000  0.67306700  1
  Mg  Mg1_6  1  0.57944400  0.75000000  0.17306700  1
  Mg  Mg1_7  1  0.57944400  0.75000000  0.67306700  1
  Mg  Mg2_0  1  0.03116900  0.00000000  0.31480900  1
  Mg  Mg2_1  1  0.03116900  0.00000000  0.81480900  1
  Mg  Mg2_2  1  0.03116900  0.50000000  0.31480900  1
  Mg  Mg2_3  1  0.03116900  0.50000000  0.81480900  1
  Mg  Mg2_4  1  0.53116900  0.00000000  0.31480900  1
  Mg  Mg2_5  1  0.53116900  0.00000000  0.81480900  1
  Mg  Mg2_6  1  0.53116900  0.50000000  0.31480900  1
  Mg  Mg2_7  1  0.53116900  0.50000000  0.81480900  1
  Mg  Mg3_0  1  0.16697500  0.00000000  0.33794450  1
  Mg  Mg3_1  1  0.16697500  0.00000000  0.83794450  1
  Mg  Mg3_2  1  0.16697500  0.50000000  0.33794450  1
  Mg  Mg3_3  1  0.16697500  0.50000000  0.83794450  1
  Mg  Mg3_4  1  0.66697500  0.00000000  0.33794450  1
  Mg  Mg3_5  1  0.66697500  0.00000000  0.83794450  1
  Mg  Mg3_6  1  0.66697500  0.50000000  0.33794450  1
  Mg  Mg3_7  1  0.66697500  0.50000000  0.83794450  1
  Mg  Mg4_0  1  0.10886950  0.25000000  0.46124450  1
  Mg  Mg4_1  1  0.10886950  0.25000000  0.96124450  1
  Mg  Mg4_2  1  0.10886950  0.75000000  0.46124450  1
  Mg  Mg4_3  1  0.10886950  0.75000000  0.96124450  1
  Mg  Mg4_4  1  0.60886950  0.25000000  0.46124450  1
  Mg  Mg4_5  1  0.60886950  0.25000000  0.96124450  1
  Mg  Mg4_6  1  0.60886950  0.75000000  0.46124450  1
  Mg  Mg4_7  1  0.60886950  0.75000000  0.96124450  1
  Mg  Mg5_0  1  0.25491500  0.25000000  0.49330750  1
  Mg  Mg5_1  1  0.25491500  0.25000000  0.99330750  1
  Mg  Mg5_2  1  0.25491500  0.75000000  0.49330750  1
  Mg  Mg5_3  1  0.25491500  0.75000000  0.99330750  1
  Mg  Mg5_4  1  0.75491500  0.25000000  0.49330750  1
  Mg  Mg5_5  1  0.75491500  0.25000000  0.99330750  1
  Mg  Mg5_6  1  0.75491500  0.75000000  0.49330750  1
  Mg  Mg5_7  1  0.75491500  0.75000000  0.99330750  1
  Mg  Mg6_0  1  0.32944400  0.00000000  0.17306700  1
  Mg  Mg6_1  1  0.32944400  0.00000000  0.67306700  1
  Mg  Mg6_2  1  0.32944400  0.50000000  0.17306700  1
  Mg  Mg6_3  1  0.32944400  0.50000000  0.67306700  1
  Mg  Mg6_4  1  0.82944400  0.00000000  0.17306700  1
  Mg  Mg6_5  1  0.82944400  0.00000000  0.67306700  1
  Mg  Mg6_6  1  0.82944400  0.50000000  0.17306700  1
  Mg  Mg6_7  1  0.82944400  0.50000000  0.67306700  1
  Mg  Mg7_0  1  0.28116900  0.25000000  0.31480900  1
  Mg  Mg7_1  1  0.28116900  0.25000000  0.81480900  1
  Mg  Mg7_2  1  0.28116900  0.75000000  0.31480900  1
  Mg  Mg7_3  1  0.28116900  0.75000000  0.81480900  1
  Mg  Mg7_4  1  0.78116900  0.25000000  0.31480900  1
  Mg  Mg7_5  1  0.78116900  0.25000000  0.81480900  1
  Mg  Mg7_6  1  0.78116900  0.75000000  0.31480900  1
  Mg  Mg7_7  1  0.78116900  0.75000000  0.81480900  1
  Mg  Mg8_0  1  0.41697500  0.25000000  0.33794450  1
  Mg  Mg8_1  1  0.41697500  0.25000000  0.83794450  1
  Mg  Mg8_2  1  0.41697500  0.75000000  0.33794450  1
  Mg  Mg8_3  1  0.41697500  0.75000000  0.83794450  1
  Mg  Mg8_4  1  0.91697500  0.25000000  0.33794450  1
  Mg  Mg8_5  1  0.91697500  0.25000000  0.83794450  1
  Mg  Mg8_6  1  0.91697500  0.75000000  0.33794450  1
  Mg  Mg8_7  1  0.91697500  0.75000000  0.83794450  1
  Mg  Mg9_0  1  0.35886950  0.00000000  0.46124450  1
  Mg  Mg9_1  1  0.35886950  0.00000000  0.96124450  1
  Mg  Mg9_2  1  0.35886950  0.50000000  0.46124450  1
  Mg  Mg9_3  1  0.35886950  0.50000000  0.96124450  1
  Mg  Mg9_4  1  0.85886950  0.00000000  0.46124450  1
  Mg  Mg9_5  1  0.85886950  0.00000000  0.96124450  1
  Mg  Mg9_6  1  0.85886950  0.50000000  0.46124450  1
  Mg  Mg9_7  1  0.85886950  0.50000000  0.96124450  1
loop_
_geom_bond_atom_site_label_1
_geom_bond_atom_site_label_2
_geom_bond_distance
_geom_bond_site_symmetry_2
Sr0_0 Sr0_2 3.282532 1_555
Sr0_0 Sr0_2 3.282532 1_545
Sr0_1 Sr0_3 3.282532 1_545
Sr0_1 Sr0_3 3.282532 1_555
Sr0_4 Sr0_6 3.282532 1_545
Sr0_4 Sr0_6 3.282532 1_555
Sr0_5 Sr0_7 3.282532 1_555
Sr0_5 Sr0_7 3.282532 1_545
Sr1_0 Sr1_2 3.282532 1_545
Sr1_0 Sr1_2 3.282532 1_555
Sr1_1 Sr1_3 3.282532 1_555
Sr1_1 Sr1_3 3.282532 1_545
Sr1_4 Sr1_6 3.282532 1_555
Sr1_4 Sr1_6 3.282532 1_545
Sr1_5 Sr1_7 3.282532 1_555
Sr1_5 Sr1_7 3.282532 1_545
Mg0_0 Mg2_0 3.244637 1_555
Mg0_0 Mg4_2 3.273175 1_545
Mg0_0 Mg4_0 3.273175 1_555
Mg0_0 Mg0_2 3.282532 1_555
Mg0_0 Mg0_2 3.282532 1_545
Mg0_0 Mg8_6 3.313947 1_445
Mg0_0 Mg8_4 3.313947 1_455
Mg0_0 Mg1_3 3.456243 1_545
Mg0_0 Mg1_1 3.456243 1_555
Mg0_0 Mg9_4 3.569446 1_455
Mg0_0 Sr1_7 3.632131 1_445
Mg0_0 Sr1_5 3.632131 1_455
Mg0_1 Mg2_1 3.244637 1_555
Mg0_1 Mg4_1 3.273175 1_555
Mg0_1 Mg4_3 3.273175 1_545
Mg0_1 Mg0_3 3.282532 1_555
Mg0_1 Mg0_3 3.282532 1_545
Mg0_1 Mg8_5 3.313947 1_455
Mg0_1 Mg8_7 3.313947 1_445
Mg0_1 Mg1_0 3.456243 1_556
Mg0_1 Mg1_2 3.456243 1_546
Mg0_1 Mg9_5 3.569446 1_455
Mg0_1 Sr1_4 3.632131 1_456
Mg0_1 Sr1_6 3.632131 1_446
Mg0_2 Mg2_2 3.244637 1_555
Mg0_2 Mg4_2 3.273175 1_555
Mg0_2 Mg4_0 3.273175 1_555
Mg0_2 Mg8_6 3.313947 1_455
Mg0_2 Mg8_4 3.313947 1_455
Mg0_2 Mg1_3 3.456243 1_555
Mg0_2 Mg1_1 3.456243 1_555
Mg0_2 Mg9_6 3.569446 1_455
Mg0_2 Sr1_7 3.632131 1_455
Mg0_2 Sr1_5 3.632131 1_455
Mg0_3 Mg2_3 3.244637 1_555
Mg0_3 Mg4_1 3.273175 1_555
Mg0_3 Mg4_3 3.273175 1_555
Mg0_3 Mg8_7 3.313947 1_455
Mg0_3 Mg8_5 3.313947 1_455
Mg0_3 Mg1_2 3.456243 1_556
Mg0_3 Mg1_0 3.456243 1_556
Mg0_3 Mg9_7 3.569446 1_455
Mg0_3 Sr1_4 3.632131 1_456
Mg0_3 Sr1_6 3.632131 1_456
Mg0_4 Mg2_4 3.244637 1_555
Mg0_4 Mg4_4 3.273175 1_555
Mg0_4 Mg4_6 3.273175 1_545
Mg0_4 Mg0_6 3.282532 1_555
Mg0_4 Mg0_6 3.282532 1_545
Mg0_4 Mg8_2 3.313947 1_545
Mg0_4 Mg8_0 3.313947 1_555
Mg0_4 Mg1_7 3.456243 1_545
Mg0_4 Mg1_5 3.456243 1_555
Mg0_4 Mg9_0 3.569446 1_555
Mg0_4 Sr1_3 3.632131 1_545
Mg0_4 Sr1_1 3.632131 1_555
Mg0_5 Mg2_5 3.244637 1_555
Mg0_5 Mg4_5 3.273175 1_555
Mg0_5 Mg4_7 3.273175 1_545
Mg0_5 Mg0_7 3.282532 1_545
Mg0_5 Mg0_7 3.282532 1_555
Mg0_5 Mg8_3 3.313947 1_545
Mg0_5 Mg8_1 3.313947 1_555
Mg0_5 Mg1_6 3.456243 1_546
Mg0_5 Mg1_4 3.456243 1_556
Mg0_5 Mg9_1 3.569446 1_555
Mg0_5 Sr1_0 3.632131 1_556
Mg0_5 Sr1_2 3.632131 1_546
Mg0_6 Mg2_6 3.244637 1_555
Mg0_6 Mg4_6 3.273175 1_555
Mg0_6 Mg4_4 3.273175 1_555
Mg0_6 Mg8_2 3.313947 1_555
Mg0_6 Mg8_0 3.313947 1_555
Mg0_6 Mg1_7 3.456243 1_555
Mg0_6 Mg1_5 3.456243 1_555
Mg0_6 Mg9_2 3.569446 1_555
Mg0_6 Sr1_3 3.632131 1_555
Mg0_6 Sr1_1 3.632131 1_555
Mg0_7 Mg2_7 3.244637 1_555
Mg0_7 Mg4_5 3.273175 1_555
Mg0_7 Mg4_7 3.273175 1_555
Mg0_7 Mg8_3 3.313947 1_555
Mg0_7 Mg8_1 3.313947 1_555
Mg0_7 Mg1_4 3.456243 1_556
Mg0_7 Mg1_6 3.456243 1_556
Mg0_7 Mg9_3 3.569446 1_555
Mg0_7 Sr1_2 3.632131 1_556
Mg0_7 Sr1_0 3.632131 1_556
Mg1_0 Mg1_2 3.282532 1_545
Mg1_0 Mg1_2 3.282532 1_555
Mg1_0 Sr1_4 3.344901 1_455
Mg1_0 Mg2_0 3.392960 1_555
Mg1_0 Mg2_2 3.392960 1_555
Mg1_0 Mg3_0 3.405511 1_555
Mg1_0 Mg3_2 3.405511 1_555
Mg1_0 Sr0_2 3.491232 1_555
Mg1_0 Sr0_0 3.491232 1_555
Mg1_1 Mg1_3 3.282532 1_545
Mg1_1 Mg1_3 3.282532 1_555
Mg1_1 Sr1_5 3.344901 1_455
Mg1_1 Mg2_3 3.392960 1_555
Mg1_1 Mg2_1 3.392960 1_555
Mg1_1 Mg3_3 3.405511 1_555
Mg1_1 Mg3_1 3.405511 1_555
Mg1_1 Sr0_3 3.491232 1_555
Mg1_1 Sr0_1 3.491232 1_555
Mg1_2 Sr1_6 3.344901 1_455
Mg1_2 Mg2_0 3.392960 1_565
Mg1_2 Mg2_2 3.392960 1_555
Mg1_2 Mg3_0 3.405511 1_565
Mg1_2 Mg3_2 3.405511 1_555
Mg1_2 Sr0_0 3.491232 1_565
Mg1_2 Sr0_2 3.491232 1_555
Mg1_3 Sr1_7 3.344901 1_455
Mg1_3 Mg2_3 3.392960 1_555
Mg1_3 Mg2_1 3.392960 1_565
Mg1_3 Mg3_3 3.405511 1_555
Mg1_3 Mg3_1 3.405511 1_565
Mg1_3 Sr0_3 3.491232 1_555
Mg1_3 Sr0_1 3.491232 1_565
Mg1_4 Mg1_6 3.282532 1_555
Mg1_4 Mg1_6 3.282532 1_545
Mg1_4 Sr1_0 3.344901 1_555
Mg1_4 Mg2_6 3.392960 1_555
Mg1_4 Mg2_4 3.392960 1_555
Mg1_4 Mg3_6 3.405511 1_555
Mg1_4 Mg3_4 3.405511 1_555
Mg1_4 Sr0_6 3.491232 1_555
Mg1_4 Sr0_4 3.491232 1_555
Mg1_5 Mg1_7 3.282532 1_555
Mg1_5 Mg1_7 3.282532 1_545
Mg1_5 Sr1_1 3.344901 1_555
Mg1_5 Mg2_7 3.392960 1_555
Mg1_5 Mg2_5 3.392960 1_555
Mg1_5 Mg3_5 3.405511 1_555
Mg1_5 Mg3_7 3.405511 1_555
Mg1_5 Sr0_7 3.491232 1_555
Mg1_5 Sr0_5 3.491232 1_555
Mg1_6 Sr1_2 3.344901 1_555
Mg1_6 Mg2_4 3.392960 1_565
Mg1_6 Mg2_6 3.392960 1_555
Mg1_6 Mg3_6 3.405511 1_555
Mg1_6 Mg3_4 3.405511 1_565
Mg1_6 Sr0_6 3.491232 1_555
Mg1_6 Sr0_4 3.491232 1_565
Mg1_7 Sr1_3 3.344901 1_555
Mg1_7 Mg2_7 3.392960 1_555
Mg1_7 Mg2_5 3.392960 1_565
Mg1_7 Mg3_5 3.405511 1_565
Mg1_7 Mg3_7 3.405511 1_555
Mg1_7 Sr0_7 3.491232 1_555
Mg1_7 Sr0_5 3.491232 1_565
Mg2_0 Mg4_2 3.116822 1_545
Mg2_0 Mg4_0 3.116822 1_555
Mg2_0 Mg2_2 3.282532 1_555
Mg2_0 Mg2_2 3.282532 1_545
Mg2_0 Mg3_0 3.338291 1_555
Mg2_0 Mg8_4 3.439453 1_455
Mg2_0 Mg8_6 3.439453 1_445
Mg2_0 Sr1_4 3.567265 1_455
Mg2_0 Sr1_6 3.567265 1_445
Mg2_1 Mg4_3 3.116822 1_545
Mg2_1 Mg4_1 3.116822 1_555
Mg2_1 Mg2_3 3.282532 1_545
Mg2_1 Mg2_3 3.282532 1_555
Mg2_1 Mg3_1 3.338291 1_555
Mg2_1 Mg8_5 3.439453 1_455
Mg2_1 Mg8_7 3.439453 1_445
Mg2_1 Sr1_5 3.567265 1_455
Mg2_1 Sr1_7 3.567265 1_445
Mg2_2 Mg4_2 3.116822 1_555
Mg2_2 Mg4_0 3.116822 1_555
Mg2_2 Mg3_2 3.338291 1_555
Mg2_2 Mg8_6 3.439453 1_455
Mg2_2 Mg8_4 3.439453 1_455
Mg2_2 Sr1_4 3.567265 1_455
Mg2_2 Sr1_6 3.567265 1_455
Mg2_3 Mg4_3 3.116822 1_555
Mg2_3 Mg4_1 3.116822 1_555
Mg2_3 Mg3_3 3.338291 1_555
Mg2_3 Mg8_5 3.439453 1_455
Mg2_3 Mg8_7 3.439453 1_455
Mg2_3 Sr1_7 3.567265 1_455
Mg2_3 Sr1_5 3.567265 1_455
Mg2_4 Mg4_4 3.116822 1_555
Mg2_4 Mg4_6 3.116822 1_545
Mg2_4 Mg2_6 3.282532 1_555
Mg2_4 Mg2_6 3.282532 1_545
Mg2_4 Mg3_4 3.338291 1_555
Mg2_4 Mg8_0 3.439453 1_555
Mg2_4 Mg8_2 3.439453 1_545
Mg2_4 Sr1_0 3.567265 1_555
Mg2_4 Sr1_2 3.567265 1_545
Mg2_5 Mg4_5 3.116822 1_555
Mg2_5 Mg4_7 3.116822 1_545
Mg2_5 Mg2_7 3.282532 1_555
Mg2_5 Mg2_7 3.282532 1_545
Mg2_5 Mg3_5 3.338291 1_555
Mg2_5 Mg8_3 3.439453 1_545
Mg2_5 Mg8_1 3.439453 1_555
Mg2_5 Sr1_1 3.567265 1_555
Mg2_5 Sr1_3 3.567265 1_545
Mg2_6 Mg4_4 3.116822 1_555
Mg2_6 Mg4_6 3.116822 1_555
Mg2_6 Mg3_6 3.338291 1_555
Mg2_6 Mg8_0 3.439453 1_555
Mg2_6 Mg8_2 3.439453 1_555
Mg2_6 Sr1_0 3.567265 1_555
Mg2_6 Sr1_2 3.567265 1_555
Mg2_7 Mg4_5 3.116822 1_555
Mg2_7 Mg4_7 3.116822 1_555
Mg2_7 Mg3_7 3.338291 1_555
Mg2_7 Mg8_3 3.439453 1_555
Mg2_7 Mg8_1 3.439453 1_555
Mg2_7 Sr1_3 3.567265 1_555
Mg2_7 Sr1_1 3.567265 1_555
Mg3_0 Mg3_2 3.282532 1_545
Mg3_0 Mg3_2 3.282532 1_555
Mg3_0 Mg4_2 3.300302 1_545
Mg3_0 Mg4_0 3.300302 1_555
Mg3_0 Mg5_2 3.313947 1_545
Mg3_0 Mg5_0 3.313947 1_555
Mg3_0 Mg7_2 3.439453 1_545
Mg3_0 Mg7_0 3.439453 1_555
Mg3_0 Sr0_0 3.610773 1_555
Mg3_1 Mg3_3 3.282532 1_555
Mg3_1 Mg3_3 3.282532 1_545
Mg3_1 Mg4_3 3.300302 1_545
Mg3_1 Mg4_1 3.300302 1_555
Mg3_1 Mg5_1 3.313947 1_555
Mg3_1 Mg5_3 3.313947 1_545
Mg3_1 Mg7_1 3.439453 1_555
Mg3_1 Mg7_3 3.439453 1_545
Mg3_1 Sr0_1 3.610773 1_555
Mg3_2 Mg4_2 3.300302 1_555
Mg3_2 Mg4_0 3.300302 1_555
Mg3_2 Mg5_0 3.313947 1_555
Mg3_2 Mg5_2 3.313947 1_555
Mg3_2 Mg7_0 3.439453 1_555
Mg3_2 Mg7_2 3.439453 1_555
Mg3_2 Sr0_2 3.610773 1_555
Mg3_3 Mg4_3 3.300302 1_555
Mg3_3 Mg4_1 3.300302 1_555
Mg3_3 Mg5_1 3.313947 1_555
Mg3_3 Mg5_3 3.313947 1_555
Mg3_3 Mg7_1 3.439453 1_555
Mg3_3 Mg7_3 3.439453 1_555
Mg3_3 Sr0_3 3.610773 1_555
Mg3_4 Mg3_6 3.282532 1_555
Mg3_4 Mg3_6 3.282532 1_545
Mg3_4 Mg4_6 3.300302 1_545
Mg3_4 Mg4_4 3.300302 1_555
Mg3_4 Mg5_4 3.313947 1_555
Mg3_4 Mg5_6 3.313947 1_545
Mg3_4 Mg7_4 3.439453 1_555
Mg3_4 Mg7_6 3.439453 1_545
Mg3_4 Sr0_4 3.610773 1_555
Mg3_5 Mg3_7 3.282532 1_545
Mg3_5 Mg3_7 3.282532 1_555
Mg3_5 Mg4_5 3.300302 1_555
Mg3_5 Mg4_7 3.300302 1_545
Mg3_5 Mg5_5 3.313947 1_555
Mg3_5 Mg5_7 3.313947 1_545
Mg3_5 Mg7_5 3.439453 1_555
Mg3_5 Mg7_7 3.439453 1_545
Mg3_5 Sr0_5 3.610773 1_555
Mg3_6 Mg4_6 3.300302 1_555
Mg3_6 Mg4_4 3.300302 1_555
Mg3_6 Mg5_4 3.313947 1_555
Mg3_6 Mg5_6 3.313947 1_555
Mg3_6 Mg7_4 3.439453 1_555
Mg3_6 Mg7_6 3.439453 1_555
Mg3_6 Sr0_6 3.610773 1_555
Mg3_7 Mg4_7 3.300302 1_555
Mg3_7 Mg4_5 3.300302 1_555
Mg3_7 Mg5_7 3.313947 1_555
Mg3_7 Mg5_5 3.313947 1_555
Mg3_7 Mg7_5 3.439453 1_555
Mg3_7 Mg7_7 3.439453 1_555
Mg3_7 Sr0_7 3.610773 1_555
Mg4_0 Mg4_2 3.282532 1_555
Mg4_0 Mg4_2 3.282532 1_545
Mg4_0 Sr0_3 3.471810 1_555
Mg4_0 Sr0_1 3.471810 1_555
Mg4_0 Mg5_0 3.569446 1_555
Mg4_1 Mg4_3 3.282532 1_545
Mg4_1 Mg4_3 3.282532 1_555
Mg4_1 Sr0_2 3.471810 1_556
Mg4_1 Sr0_0 3.471810 1_556
Mg4_1 Mg5_1 3.569446 1_555
Mg4_2 Sr0_1 3.471810 1_565
Mg4_2 Sr0_3 3.471810 1_555
Mg4_2 Mg5_2 3.569446 1_555
Mg4_3 Sr0_2 3.471810 1_556
Mg4_3 Sr0_0 3.471810 1_566
Mg4_3 Mg5_3 3.569446 1_555
Mg4_4 Mg4_6 3.282532 1_545
Mg4_4 Mg4_6 3.282532 1_555
Mg4_4 Sr0_7 3.471810 1_555
Mg4_4 Sr0_5 3.471810 1_555
Mg4_4 Mg5_4 3.569446 1_555
Mg4_5 Mg4_7 3.282532 1_545
Mg4_5 Mg4_7 3.282532 1_555
Mg4_5 Sr0_4 3.471810 1_556
Mg4_5 Sr0_6 3.471810 1_556
Mg4_5 Mg5_5 3.569446 1_555
Mg4_6 Sr0_7 3.471810 1_555
Mg4_6 Sr0_5 3.471810 1_565
Mg4_6 Mg5_6 3.569446 1_555
Mg4_7 Sr0_6 3.471810 1_556
Mg4_7 Sr0_4 3.471810 1_566
Mg4_7 Mg5_7 3.569446 1_555
Mg5_0 Mg7_0 3.244637 1_555
Mg5_0 Mg9_2 3.273175 1_555
Mg5_0 Mg9_0 3.273175 1_555
Mg5_0 Mg5_2 3.282532 1_545
Mg5_0 Mg5_2 3.282532 1_555
Mg5_0 Mg6_1 3.456243 1_555
Mg5_0 Mg6_3 3.456243 1_555
Mg5_0 Sr0_3 3.632131 1_555
Mg5_0 Sr0_1 3.632131 1_555
Mg5_1 Mg7_1 3.244637 1_555
Mg5_1 Mg9_1 3.273175 1_555
Mg5_1 Mg9_3 3.273175 1_555
Mg5_1 Mg5_3 3.282532 1_545
Mg5_1 Mg5_3 3.282532 1_555
Mg5_1 Mg6_2 3.456243 1_556
Mg5_1 Mg6_0 3.456243 1_556
Mg5_1 Sr0_0 3.632131 1_556
Mg5_1 Sr0_2 3.632131 1_556
Mg5_2 Mg7_2 3.244637 1_555
Mg5_2 Mg9_2 3.273175 1_555
Mg5_2 Mg9_0 3.273175 1_565
Mg5_2 Mg6_1 3.456243 1_565
Mg5_2 Mg6_3 3.456243 1_555
Mg5_2 Sr0_3 3.632131 1_555
Mg5_2 Sr0_1 3.632131 1_565
Mg5_3 Mg7_3 3.244637 1_555
Mg5_3 Mg9_1 3.273175 1_565
Mg5_3 Mg9_3 3.273175 1_555
Mg5_3 Mg6_2 3.456243 1_556
Mg5_3 Mg6_0 3.456243 1_566
Mg5_3 Sr0_0 3.632131 1_566
Mg5_3 Sr0_2 3.632131 1_556
Mg5_4 Mg7_4 3.244637 1_555
Mg5_4 Mg9_6 3.273175 1_555
Mg5_4 Mg9_4 3.273175 1_555
Mg5_4 Mg5_6 3.282532 1_545
Mg5_4 Mg5_6 3.282532 1_555
Mg5_4 Mg6_5 3.456243 1_555
Mg5_4 Mg6_7 3.456243 1_555
Mg5_4 Sr0_5 3.632131 1_555
Mg5_4 Sr0_7 3.632131 1_555
Mg5_5 Mg7_5 3.244637 1_555
Mg5_5 Mg9_5 3.273175 1_555
Mg5_5 Mg9_7 3.273175 1_555
Mg5_5 Mg5_7 3.282532 1_545
Mg5_5 Mg5_7 3.282532 1_555
Mg5_5 Mg6_6 3.456243 1_556
Mg5_5 Mg6_4 3.456243 1_556
Mg5_5 Sr0_4 3.632131 1_556
Mg5_5 Sr0_6 3.632131 1_556
Mg5_6 Mg7_6 3.244637 1_555
Mg5_6 Mg9_6 3.273175 1_555
Mg5_6 Mg9_4 3.273175 1_565
Mg5_6 Mg6_5 3.456243 1_565
Mg5_6 Mg6_7 3.456243 1_555
Mg5_6 Sr0_5 3.632131 1_565
Mg5_6 Sr0_7 3.632131 1_555
Mg5_7 Mg7_7 3.244637 1_555
Mg5_7 Mg9_5 3.273175 1_565
Mg5_7 Mg9_7 3.273175 1_555
Mg5_7 Mg6_4 3.456243 1_566
Mg5_7 Mg6_6 3.456243 1_556
Mg5_7 Sr0_4 3.632131 1_566
Mg5_7 Sr0_6 3.632131 1_556
Mg6_0 Mg6_2 3.282532 1_555
Mg6_0 Mg6_2 3.282532 1_545
Mg6_0 Sr0_0 3.344901 1_555
Mg6_0 Mg7_0 3.392960 1_555
Mg6_0 Mg7_2 3.392960 1_545
Mg6_0 Mg8_0 3.405511 1_555
Mg6_0 Mg8_2 3.405511 1_545
Mg6_0 Sr1_0 3.491232 1_555
Mg6_0 Sr1_2 3.491232 1_545
Mg6_1 Mg6_3 3.282532 1_545
Mg6_1 Mg6_3 3.282532 1_555
Mg6_1 Sr0_1 3.344901 1_555
Mg6_1 Mg7_1 3.392960 1_555
Mg6_1 Mg7_3 3.392960 1_545
Mg6_1 Mg8_3 3.405511 1_545
Mg6_1 Mg8_1 3.405511 1_555
Mg6_1 Sr1_1 3.491232 1_555
Mg6_1 Sr1_3 3.491232 1_545
Mg6_2 Sr0_2 3.344901 1_555
Mg6_2 Mg7_0 3.392960 1_555
Mg6_2 Mg7_2 3.392960 1_555
Mg6_2 Mg8_0 3.405511 1_555
Mg6_2 Mg8_2 3.405511 1_555
Mg6_2 Sr1_2 3.491232 1_555
Mg6_2 Sr1_0 3.491232 1_555
Mg6_3 Sr0_3 3.344901 1_555
Mg6_3 Mg7_1 3.392960 1_555
Mg6_3 Mg7_3 3.392960 1_555
Mg6_3 Mg8_3 3.405511 1_555
Mg6_3 Mg8_1 3.405511 1_555
Mg6_3 Sr1_1 3.491232 1_555
Mg6_3 Sr1_3 3.491232 1_555
Mg6_4 Mg6_6 3.282532 1_545
Mg6_4 Mg6_6 3.282532 1_555
Mg6_4 Sr0_4 3.344901 1_555
Mg6_4 Mg7_6 3.392960 1_545
Mg6_4 Mg7_4 3.392960 1_555
Mg6_4 Mg8_4 3.405511 1_555
Mg6_4 Mg8_6 3.405511 1_545
Mg6_4 Sr1_6 3.491232 1_545
Mg6_4 Sr1_4 3.491232 1_555
Mg6_5 Mg6_7 3.282532 1_545
Mg6_5 Mg6_7 3.282532 1_555
Mg6_5 Sr0_5 3.344901 1_555
Mg6_5 Mg7_7 3.392960 1_545
Mg6_5 Mg7_5 3.392960 1_555
Mg6_5 Mg8_5 3.405511 1_555
Mg6_5 Mg8_7 3.405511 1_545
Mg6_5 Sr1_7 3.491232 1_545
Mg6_5 Sr1_5 3.491232 1_555
Mg6_6 Sr0_6 3.344901 1_555
Mg6_6 Mg7_6 3.392960 1_555
Mg6_6 Mg7_4 3.392960 1_555
Mg6_6 Mg8_6 3.405511 1_555
Mg6_6 Mg8_4 3.405511 1_555
Mg6_6 Sr1_6 3.491232 1_555
Mg6_6 Sr1_4 3.491232 1_555
Mg6_7 Sr0_7 3.344901 1_555
Mg6_7 Mg7_7 3.392960 1_555
Mg6_7 Mg7_5 3.392960 1_555
Mg6_7 Mg8_5 3.405511 1_555
Mg6_7 Mg8_7 3.405511 1_555
Mg6_7 Sr1_7 3.491232 1_555
Mg6_7 Sr1_5 3.491232 1_555
Mg7_0 Mg9_0 3.116822 1_555
Mg7_0 Mg9_2 3.116822 1_555
Mg7_0 Mg7_2 3.282532 1_555
Mg7_0 Mg7_2 3.282532 1_545
Mg7_0 Mg8_0 3.338291 1_555
Mg7_0 Sr0_2 3.567265 1_555
Mg7_0 Sr0_0 3.567265 1_555
Mg7_1 Mg9_3 3.116822 1_555
Mg7_1 Mg9_1 3.116822 1_555
Mg7_1 Mg7_3 3.282532 1_555
Mg7_1 Mg7_3 3.282532 1_545
Mg7_1 Mg8_1 3.338291 1_555
Mg7_1 Sr0_1 3.567265 1_555
Mg7_1 Sr0_3 3.567265 1_555
Mg7_2 Mg9_2 3.116822 1_555
Mg7_2 Mg9_0 3.116822 1_565
Mg7_2 Mg8_2 3.338291 1_555
Mg7_2 Sr0_0 3.567265 1_565
Mg7_2 Sr0_2 3.567265 1_555
Mg7_3 Mg9_3 3.116822 1_555
Mg7_3 Mg9_1 3.116822 1_565
Mg7_3 Mg8_3 3.338291 1_555
Mg7_3 Sr0_1 3.567265 1_565
Mg7_3 Sr0_3 3.567265 1_555
Mg7_4 Mg9_4 3.116822 1_555
Mg7_4 Mg9_6 3.116822 1_555
Mg7_4 Mg7_6 3.282532 1_555
Mg7_4 Mg7_6 3.282532 1_545
Mg7_4 Mg8_4 3.338291 1_555
Mg7_4 Sr0_6 3.567265 1_555
Mg7_4 Sr0_4 3.567265 1_555
Mg7_5 Mg9_7 3.116822 1_555
Mg7_5 Mg9_5 3.116822 1_555
Mg7_5 Mg7_7 3.282532 1_555
Mg7_5 Mg7_7 3.282532 1_545
Mg7_5 Mg8_5 3.338291 1_555
Mg7_5 Sr0_7 3.567265 1_555
Mg7_5 Sr0_5 3.567265 1_555
Mg7_6 Mg9_4 3.116822 1_565
Mg7_6 Mg9_6 3.116822 1_555
Mg7_6 Mg8_6 3.338291 1_555
Mg7_6 Sr0_6 3.567265 1_555
Mg7_6 Sr0_4 3.567265 1_565
Mg7_7 Mg9_5 3.116822 1_565
Mg7_7 Mg9_7 3.116822 1_555
Mg7_7 Mg8_7 3.338291 1_555
Mg7_7 Sr0_7 3.567265 1_555
Mg7_7 Sr0_5 3.567265 1_565
Mg8_0 Mg8_2 3.282532 1_545
Mg8_0 Mg8_2 3.282532 1_555
Mg8_0 Mg9_2 3.300302 1_555
Mg8_0 Mg9_0 3.300302 1_555
Mg8_0 Sr1_0 3.610773 1_555
Mg8_1 Mg8_3 3.282532 1_545
Mg8_1 Mg8_3 3.282532 1_555
Mg8_1 Mg9_1 3.300302 1_555
Mg8_1 Mg9_3 3.300302 1_555
Mg8_1 Sr1_1 3.610773 1_555
Mg8_2 Mg9_2 3.300302 1_555
Mg8_2 Mg9_0 3.300302 1_565
Mg8_2 Sr1_2 3.610773 1_555
Mg8_3 Mg9_1 3.300302 1_565
Mg8_3 Mg9_3 3.300302 1_555
Mg8_3 Sr1_3 3.610773 1_555
Mg8_4 Mg8_6 3.282532 1_555
Mg8_4 Mg8_6 3.282532 1_545
Mg8_4 Mg9_6 3.300302 1_555
Mg8_4 Mg9_4 3.300302 1_555
Mg8_4 Sr1_4 3.610773 1_555
Mg8_5 Mg8_7 3.282532 1_545
Mg8_5 Mg8_7 3.282532 1_555
Mg8_5 Mg9_7 3.300302 1_555
Mg8_5 Mg9_5 3.300302 1_555
Mg8_5 Sr1_5 3.610773 1_555
Mg8_6 Mg9_6 3.300302 1_555
Mg8_6 Mg9_4 3.300302 1_565
Mg8_6 Sr1_6 3.610773 1_555
Mg8_7 Mg9_5 3.300302 1_565
Mg8_7 Mg9_7 3.300302 1_555
Mg8_7 Sr1_7 3.610773 1_555
Mg9_0 Mg9_2 3.282532 1_555
Mg9_0 Mg9_2 3.282532 1_545
Mg9_0 Sr1_1 3.471810 1_555
Mg9_0 Sr1_3 3.471810 1_545
Mg9_1 Mg9_3 3.282532 1_555
Mg9_1 Mg9_3 3.282532 1_545
Mg9_1 Sr1_0 3.471810 1_556
Mg9_1 Sr1_2 3.471810 1_546
Mg9_2 Sr1_3 3.471810 1_555
Mg9_2 Sr1_1 3.471810 1_555
Mg9_3 Sr1_0 3.471810 1_556
Mg9_3 Sr1_2 3.471810 1_556
Mg9_4 Mg9_6 3.282532 1_555
Mg9_4 Mg9_6 3.282532 1_545
Mg9_4 Sr1_5 3.471810 1_555
Mg9_4 Sr1_7 3.471810 1_545
Mg9_5 Mg9_7 3.282532 1_555
Mg9_5 Mg9_7 3.282532 1_545
Mg9_5 Sr1_6 3.471810 1_546
Mg9_5 Sr1_4 3.471810 1_556
Mg9_6 Sr1_7 3.471810 1_555
Mg9_6 Sr1_5 3.471810 1_555
Mg9_7 Sr1_6 3.471810 1_556
Mg9_7 Sr1_4 3.471810 1_556
