# generated using pymatgen
data_V3(H3O5)2
_symmetry_space_group_name_H-M   'P 1'
_cell_length_a   9.03091500
_cell_length_b   9.03091500
_cell_length_c   5.54226900
_cell_angle_alpha   90.00000000
_cell_angle_beta   90.00000000
_cell_angle_gamma   90.00000000
_symmetry_Int_Tables_number   1
_chemical_formula_structural   V3(H3O5)2
_chemical_formula_sum   'V6 H12 O20'
_cell_volume   452.01319238
_cell_formula_units_Z   2
loop_
 _symmetry_equiv_pos_site_id
 _symmetry_equiv_pos_as_xyz
  1  'x, y, z'
loop_
 _atom_site_type_symbol
 _atom_site_label
 _atom_site_symmetry_multiplicity
 _atom_site_fract_x
 _atom_site_fract_y
 _atom_site_fract_z
 _atom_site_occupancy
  V  V0  1  0.00000000  0.00000000  0.24091300  1
  V  V1  1  0.50000000  0.50000000  0.24091300  1
  V  V2  1  0.36125700  0.86125700  0.26701200  1
  V  V3  1  0.63874300  0.13874300  0.26701200  1
  V  V4  1  0.86125700  0.63874300  0.26701200  1
  V  V5  1  0.13874300  0.36125700  0.26701200  1
  H  H0  1  0.77009400  0.72990600  0.66045500  1
  H  H1  1  0.22990600  0.27009400  0.66045500  1
  H  H2  1  0.27009400  0.77009400  0.66045500  1
  H  H3  1  0.72990600  0.22990600  0.66045500  1
  H  H4  1  0.55314800  0.82304700  0.71078400  1
  H  H5  1  0.44685200  0.17695300  0.71078400  1
  H  H6  1  0.05314800  0.67695300  0.71078400  1
  H  H7  1  0.94685200  0.32304700  0.71078400  1
  H  H8  1  0.17695300  0.55314800  0.71078400  1
  H  H9  1  0.82304700  0.44685200  0.71078400  1
  H  H10  1  0.32304700  0.05314800  0.71078400  1
  H  H11  1  0.67695300  0.94685200  0.71078400  1
  O  O0  1  0.65892300  0.84107700  0.74110100  1
  O  O1  1  0.34107700  0.15892300  0.74110100  1
  O  O2  1  0.15892300  0.65892300  0.74110100  1
  O  O3  1  0.84107700  0.34107700  0.74110100  1
  O  O4  1  0.50000000  0.00000000  0.21130300  1
  O  O5  1  0.00000000  0.50000000  0.21130300  1
  O  O6  1  0.34621800  0.84621800  0.58820200  1
  O  O7  1  0.65378200  0.15378200  0.58820200  1
  O  O8  1  0.84621800  0.65378200  0.58820200  1
  O  O9  1  0.15378200  0.34621800  0.58820200  1
  O  O10  1  0.19527100  0.91315300  0.14902300  1
  O  O11  1  0.80472900  0.08684700  0.14902300  1
  O  O12  1  0.69527100  0.58684700  0.14902300  1
  O  O13  1  0.30472900  0.41315300  0.14902300  1
  O  O14  1  0.08684700  0.19527100  0.14902300  1
  O  O15  1  0.91315300  0.80472900  0.14902300  1
  O  O16  1  0.41315300  0.69527100  0.14902300  1
  O  O17  1  0.58684700  0.30472900  0.14902300  1
  O  O18  1  0.00000000  0.00000000  0.53464000  1
  O  O19  1  0.50000000  0.50000000  0.53464000  1
loop_
_geom_bond_atom_site_label_1
_geom_bond_atom_site_label_2
_geom_bond_distance
_geom_bond_site_symmetry_2
H0 O8 1.051468 1_555
H0 O0 1.488526 1_555
H1 O9 1.051468 1_555
H1 O1 1.488526 1_555
H2 O6 1.051468 1_555
H2 O2 1.488526 1_555
H3 O7 1.051468 1_555
H3 O3 1.488526 1_555
H4 O0 0.983483 1_555
H5 O1 0.983483 1_555
H6 O2 0.983483 1_555
H7 O3 0.983483 1_555
H8 O2 0.983483 1_555
H9 O3 0.983483 1_555
H10 O1 0.983483 1_555
H11 O0 0.983483 1_555
O4 V2 1.798674 1_545
O4 V3 1.798674 1_555
O5 V4 1.798674 1_455
O5 V5 1.798674 1_555
O6 V2 1.790454 1_555
O7 V3 1.790454 1_555
O8 V4 1.790454 1_555
O9 V5 1.790454 1_555
O10 V2 1.701261 1_555
O10 V0 1.996084 1_565
O11 V3 1.701261 1_555
O11 V0 1.996084 1_655
O12 V4 1.701261 1_555
O12 V1 1.996084 1_555
O13 V5 1.701261 1_555
O13 V1 1.996084 1_555
O14 V5 1.701261 1_555
O14 V0 1.996084 1_555
O15 V4 1.701261 1_555
O15 V0 1.996084 1_665
O16 V2 1.701261 1_555
O16 V1 1.996084 1_555
O17 V3 1.701261 1_555
O17 V1 1.996084 1_555
O18 V0 1.627914 1_555
O19 V1 1.627914 1_555
