# generated using pymatgen
data_Ba5Ti4MoO15
_symmetry_space_group_name_H-M   'P 1'
_cell_length_a   14.66530357
_cell_length_b   14.66530357
_cell_length_c   4.04233700
_cell_angle_alpha   90.00000000
_cell_angle_beta   90.00000000
_cell_angle_gamma   157.37498462
_symmetry_Int_Tables_number   1
_chemical_formula_structural   Ba5Ti4MoO15
_chemical_formula_sum   'Ba5 Ti4 Mo1 O15'
_cell_volume   334.45290032
_cell_formula_units_Z   1
loop_
 _symmetry_equiv_pos_site_id
 _symmetry_equiv_pos_as_xyz
  1  'x, y, z'
loop_
 _atom_site_type_symbol
 _atom_site_label
 _atom_site_symmetry_multiplicity
 _atom_site_fract_x
 _atom_site_fract_y
 _atom_site_fract_z
 _atom_site_occupancy
  Ba  Ba0  1  0.29989200  0.70010800  0.50000000  1
  Ba  Ba1  1  0.89863100  0.10136900  0.50000000  1
  Ba  Ba2  1  0.50000000  0.50000000  0.50000000  1
  Ba  Ba3  1  0.10136900  0.89863100  0.50000000  1
  Ba  Ba4  1  0.70010800  0.29989200  0.50000000  1
  Ti  Ti0  1  0.60036700  0.39963300  0.00000000  1
  Ti  Ti1  1  0.20004400  0.79995600  0.00000000  1
  Ti  Ti2  1  0.79995600  0.20004400  0.00000000  1
  Ti  Ti3  1  0.39963300  0.60036700  0.00000000  1
  Mo  Mo0  1  0.00000000  0.00000000  0.00000000  1
  O  O0  1  0.09866600  0.39922400  0.00000000  1
  O  O1  1  0.69232200  0.79504400  0.00000000  1
  O  O2  1  0.30767800  0.20495600  0.00000000  1
  O  O3  1  0.90133400  0.60077600  0.00000000  1
  O  O4  1  0.50000000  0.00000000  0.00000000  1
  O  O5  1  0.00000000  0.50000000  0.00000000  1
  O  O6  1  0.60077600  0.90133400  0.00000000  1
  O  O7  1  0.20495600  0.30767800  0.00000000  1
  O  O8  1  0.79504400  0.69232200  0.00000000  1
  O  O9  1  0.39922400  0.09866600  0.00000000  1
  O  O10  1  0.80008500  0.19991500  0.50000000  1
  O  O11  1  0.39987700  0.60012300  0.50000000  1
  O  O12  1  0.00000000  0.00000000  0.50000000  1
  O  O13  1  0.60012300  0.39987700  0.50000000  1
  O  O14  1  0.19991500  0.80008500  0.50000000  1
loop_
_geom_bond_atom_site_label_1
_geom_bond_atom_site_label_2
_geom_bond_distance
_geom_bond_site_symmetry_2
Ba0 O4 2.865846 1_566
Ba0 O4 2.865846 1_565
Ba0 O5 2.865846 1_555
Ba0 O5 2.865846 1_556
Ba0 O6 2.867992 1_555
Ba0 O6 2.867992 1_556
Ba0 O0 2.867992 1_556
Ba0 O0 2.867992 1_555
Ba0 O14 2.875415 1_555
Ba0 O11 2.875645 1_555
Ba0 O10 2.876754 1_565
Ba0 O10 2.876754 1_455
Ba1 O10 2.834259 1_555
Ba1 O0 2.848753 1_656
Ba1 O0 2.848753 1_655
Ba1 O6 2.848753 1_546
Ba1 O6 2.848753 1_545
Ba1 O11 2.876972 1_655
Ba1 O11 2.876972 1_545
Ba1 O7 2.885920 1_655
Ba1 O7 2.885920 1_656
Ba1 O1 2.885920 1_545
Ba1 O1 2.885920 1_546
Ba1 O12 2.915450 1_655
Ba2 O8 2.869299 1_556
Ba2 O8 2.869299 1_555
Ba2 O7 2.869299 1_556
Ba2 O7 2.869299 1_555
Ba2 O1 2.869299 1_555
Ba2 O1 2.869299 1_556
Ba2 O2 2.869299 1_555
Ba2 O2 2.869299 1_556
Ba2 O12 2.876749 1_555
Ba2 O12 2.876749 1_665
Ba2 O11 2.879614 1_555
Ba2 O13 2.879614 1_555
Ba3 O14 2.834259 1_555
Ba3 O9 2.848753 1_565
Ba3 O9 2.848753 1_566
Ba3 O3 2.848753 1_456
Ba3 O3 2.848753 1_455
Ba3 O13 2.876972 1_565
Ba3 O13 2.876972 1_455
Ba3 O2 2.885920 1_565
Ba3 O2 2.885920 1_566
Ba3 O8 2.885920 1_455
Ba3 O8 2.885920 1_456
Ba3 O12 2.915450 1_565
Ba4 O5 2.865846 1_655
Ba4 O5 2.865846 1_656
Ba4 O4 2.865846 1_556
Ba4 O4 2.865846 1_555
Ba4 O3 2.867992 1_556
Ba4 O3 2.867992 1_555
Ba4 O9 2.867992 1_556
Ba4 O9 2.867992 1_555
Ba4 O10 2.875415 1_555
Ba4 O13 2.875645 1_555
Ba4 O14 2.876754 1_655
Ba4 O14 2.876754 1_545
Mo0 O12 2.021168 1_555
Mo0 O12 2.021168 1_554
Mo0 O8 2.087310 1_445
Mo0 O7 2.087310 1_555
Mo0 O1 2.087310 1_445
Mo0 O2 2.087310 1_555
O0 Ti2 2.024860 1_455
O0 Ti3 2.036443 1_555
O1 Ti3 1.988023 1_555
O2 Ti0 1.988023 1_555
O3 Ti1 2.024860 1_655
O3 Ti0 2.036443 1_555
O4 Ti2 2.033037 1_555
O4 Ti1 2.033037 1_545
O5 Ti2 2.033037 1_455
O5 Ti1 2.033037 1_555
O6 Ti2 2.024860 1_565
O6 Ti3 2.036443 1_555
O7 Ti3 1.988023 1_555
O8 Ti0 1.988023 1_555
O9 Ti1 2.024860 1_545
O9 Ti0 2.036443 1_555
O10 Ti2 2.021172 1_556
O10 Ti2 2.021172 1_555
O11 Ti3 2.021181 1_556
O11 Ti3 2.021181 1_555
O13 Ti0 2.021181 1_555
O13 Ti0 2.021181 1_556
O14 Ti1 2.021172 1_556
O14 Ti1 2.021172 1_555
