# generated using pymatgen
data_Rb2Ba8Ca(Sb3O)2
_symmetry_space_group_name_H-M   'P 1'
_cell_length_a   9.47452058
_cell_length_b   9.25875419
_cell_length_c   10.48183159
_cell_angle_alpha   113.95215871
_cell_angle_beta   114.28548209
_cell_angle_gamma   95.11231285
_symmetry_Int_Tables_number   1
_chemical_formula_structural   Rb2Ba8Ca(Sb3O)2
_chemical_formula_sum   'Rb2 Ba8 Ca1 Sb6 O2'
_cell_volume   728.85695133
_cell_formula_units_Z   1
loop_
 _symmetry_equiv_pos_site_id
 _symmetry_equiv_pos_as_xyz
  1  'x, y, z'
loop_
 _atom_site_type_symbol
 _atom_site_label
 _atom_site_symmetry_multiplicity
 _atom_site_fract_x
 _atom_site_fract_y
 _atom_site_fract_z
 _atom_site_occupancy
  Rb  Rb0  1  0.00402300  0.00753100  0.00007500  1
  Rb  Rb1  1  0.41267200  0.41242500  0.81319900  1
  Ba  Ba0  1  0.50786200  0.72232500  0.69313600  1
  Ba  Ba1  1  0.19772000  0.98744600  0.70143900  1
  Ba  Ba2  1  0.82723300  0.03884400  0.32583400  1
  Ba  Ba3  1  0.99266300  0.54551700  0.74115700  1
  Ba  Ba4  1  0.51295000  0.30049400  0.32633200  1
  Ba  Ba5  1  0.75901500  0.20610200  0.73947600  1
  Ba  Ba6  1  0.02587700  0.48753200  0.29295100  1
  Ba  Ba7  1  0.27254100  0.82398900  0.29263300  1
  Ca  Ca0  1  0.58940700  0.59318900  0.17139600  1
  Sb  Sb0  1  0.82526400  0.64127700  0.02254900  1
  Sb  Sb1  1  0.61864300  0.14494500  0.01283100  1
  Sb  Sb2  1  0.20829700  0.39602900  0.02400500  1
  Sb  Sb3  1  0.40603600  0.87886100  0.01274600  1
  Sb  Sb4  1  0.21971600  0.22705500  0.42894000  1
  Sb  Sb5  1  0.77625100  0.77319600  0.53750300  1
  O  O0  1  0.77159600  0.27148400  0.53235600  1
  O  O1  1  0.25794900  0.76318800  0.50644200  1
loop_
_geom_bond_atom_site_label_1
_geom_bond_atom_site_label_2
_geom_bond_distance
_geom_bond_site_symmetry_2
Rb0 Sb4 3.577664 1_555
Rb0 Sb2 3.791382 1_555
Rb0 Sb0 3.791630 1_445
Rb0 Sb5 3.858835 1_444
Rb0 Sb1 4.007476 1_455
Rb0 Sb3 4.057770 1_545
Rb1 Sb4 3.206503 1_555
Rb1 Sb0 3.504093 1_556
Rb1 Sb2 3.520572 1_556
Rb1 Sb3 3.981406 1_556
Rb1 Sb1 4.003757 1_556
Ba0 O1 2.555089 1_555
Ba0 Sb5 3.629292 1_555
Ba0 Sb3 3.635914 1_556
Ba0 Sb1 3.656551 1_566
Ba0 Sb0 3.936184 1_556
Ba1 O1 2.557190 1_555
Ba1 Sb5 3.606926 1_455
Ba1 Sb1 3.616101 1_566
Ba1 Sb3 3.643286 1_556
Ba1 Sb2 3.875708 1_566
Ba2 O0 2.637905 1_555
Ba2 Sb4 3.470276 1_655
Ba2 Sb3 3.621627 1_545
Ba2 Sb1 3.641998 1_555
Ba2 Sb0 3.754148 1_545
Ba2 Sb5 4.038061 1_545
Ba3 O0 2.527430 1_555
Ba3 Sb2 3.705781 1_656
Ba3 Sb0 3.738502 1_556
Ba3 Sb5 3.745452 1_555
Ba3 Sb3 3.809131 1_656
Ba4 O0 2.641223 1_555
Ba4 Sb4 3.471708 1_555
Ba4 Sb1 3.605045 1_555
Ba4 Sb3 3.634238 1_545
Ba4 Sb2 3.789865 1_555
Ba4 Sb5 3.990488 1_555
Ba5 O0 2.522098 1_555
Ba5 Sb0 3.707092 1_556
Ba5 Sb2 3.751230 1_656
Ba5 Sb5 3.753032 1_545
Ba5 Sb1 3.823189 1_556
Ba6 O1 2.582904 1_555
Ba6 Sb4 3.556421 1_555
Ba6 Sb0 3.605421 1_455
Ba6 Sb2 3.739184 1_555
Ba6 Sb1 3.808857 1_455
Ba7 O1 2.573703 1_555
Ba7 Sb4 3.579194 1_565
Ba7 Sb2 3.619493 1_555
Ba7 Sb0 3.714864 1_455
Ba7 Sb3 3.822625 1_555
Ca0 Rb1 2.988094 1_554
Ca0 Sb5 3.054664 1_555
Ca0 Sb2 3.271696 1_555
Ca0 Sb0 3.298567 1_555
Ca0 Sb3 3.846215 1_555
Ca0 Sb1 3.878924 1_555
Sb1 Sb3 3.039620 1_545
