# generated using pymatgen
data_CaMn2O4
_symmetry_space_group_name_H-M   'P 1'
_cell_length_a   6.39550994
_cell_length_b   6.39550994
_cell_length_c   6.39550998
_cell_angle_alpha   58.38445849
_cell_angle_beta   58.38445849
_cell_angle_gamma   58.38445630
_symmetry_Int_Tables_number   1
_chemical_formula_structural   CaMn2O4
_chemical_formula_sum   'Ca2 Mn4 O8'
_cell_volume   178.13345693
_cell_formula_units_Z   2
loop_
 _symmetry_equiv_pos_site_id
 _symmetry_equiv_pos_as_xyz
  1  'x, y, z'
loop_
 _atom_site_type_symbol
 _atom_site_label
 _atom_site_symmetry_multiplicity
 _atom_site_fract_x
 _atom_site_fract_y
 _atom_site_fract_z
 _atom_site_occupancy
  Ca  Ca0  1  0.98956300  0.98956300  0.98956300  1
  Ca  Ca1  1  0.37560200  0.37560200  0.37560200  1
  Mn  Mn0  1  0.75904100  0.75904100  0.75904100  1
  Mn  Mn1  1  0.37258400  0.37258400  0.87840500  1
  Mn  Mn2  1  0.37258400  0.87840500  0.37258400  1
  Mn  Mn3  1  0.87840500  0.37258400  0.37258400  1
  O  O0  1  0.17179500  0.63034700  0.63034700  1
  O  O1  1  0.63034700  0.17179500  0.63034700  1
  O  O2  1  0.63034700  0.63034700  0.17179500  1
  O  O3  1  0.62452700  0.62452700  0.62452700  1
  O  O4  1  0.13260000  0.13260000  0.13260000  1
  O  O5  1  0.12558600  0.12558600  0.56143900  1
  O  O6  1  0.12558600  0.56143900  0.12558600  1
  O  O7  1  0.56143900  0.12558600  0.12558600  1
loop_
_geom_bond_atom_site_label_1
_geom_bond_atom_site_label_2
_geom_bond_distance
_geom_bond_site_symmetry_2
Ca0 O6 2.193041 1_656
Ca0 O7 2.193041 1_566
Ca0 O5 2.193041 1_665
Ca0 O4 2.267750 1_666
Ca1 O6 2.285102 1_555
Ca1 O7 2.285102 1_555
Ca1 O5 2.285102 1_555
Ca1 O1 2.310351 1_555
Ca1 O0 2.310351 1_555
Ca1 O2 2.310352 1_555
Mn0 O1 2.116044 1_565
Mn0 O0 2.116044 1_655
Mn0 O2 2.116044 1_556
Mn0 O3 2.132624 1_555
Mn1 O7 1.958725 1_556
Mn1 O6 1.958725 1_556
Mn1 O0 2.014440 1_555
Mn1 O1 2.014440 1_555
Mn1 O4 2.142895 1_556
Mn1 O3 2.250572 1_555
Mn2 O5 1.958725 1_565
Mn2 O7 1.958725 1_565
Mn2 O2 2.014440 1_555
Mn2 O0 2.014440 1_555
Mn2 O4 2.142895 1_565
Mn2 O3 2.250572 1_555
Mn3 O5 1.958725 1_655
Mn3 O6 1.958725 1_655
Mn3 O2 2.014440 1_555
Mn3 O1 2.014440 1_555
Mn3 O4 2.142895 1_655
Mn3 O3 2.250572 1_555
