# generated using pymatgen
data_BaTbEuSbO6
_symmetry_space_group_name_H-M   'P 1'
_cell_length_a   5.96750438
_cell_length_b   5.99156449
_cell_length_c   8.45272190
_cell_angle_alpha   90.20814178
_cell_angle_beta   89.80370606
_cell_angle_gamma   89.78006252
_symmetry_Int_Tables_number   1
_chemical_formula_structural   BaTbEuSbO6
_chemical_formula_sum   'Ba2 Tb2 Eu2 Sb2 O12'
_cell_volume   302.21841979
_cell_formula_units_Z   2
loop_
 _symmetry_equiv_pos_site_id
 _symmetry_equiv_pos_as_xyz
  1  'x, y, z'
loop_
 _atom_site_type_symbol
 _atom_site_label
 _atom_site_symmetry_multiplicity
 _atom_site_fract_x
 _atom_site_fract_y
 _atom_site_fract_z
 _atom_site_occupancy
  Ba  Ba0  1  0.99533227  0.01936674  0.24981588  1
  Ba  Ba1  1  0.00466773  0.98063326  0.75018412  1
  Tb  Tb0  1  0.50000000  -0.00000000  -0.00000000  1
  Tb  Tb1  1  0.00000000  0.50000000  0.50000000  1
  Eu  Eu0  1  0.50463237  0.52868207  0.25113941  1
  Eu  Eu1  1  0.49536763  0.47131793  0.74886059  1
  Sb  Sb0  1  0.00000000  0.50000000  -0.00000000  1
  Sb  Sb1  1  0.50000000  -0.00000000  0.50000000  1
  O  O0  1  0.21032093  0.23898205  0.96764262  1
  O  O1  1  0.29908943  0.73013794  0.53461929  1
  O  O2  1  0.78967907  0.76101795  0.03235738  1
  O  O3  1  0.70091057  0.26986206  0.46538071  1
  O  O4  1  0.26691344  0.70387118  0.96281760  1
  O  O5  1  0.23957016  0.21226175  0.52882864  1
  O  O6  1  0.73308656  0.29612882  0.03718240  1
  O  O7  1  0.76042984  0.78773825  0.47117136  1
  O  O8  1  0.44776685  0.97702505  0.26426690  1
  O  O9  1  0.07426101  0.49712017  0.23504020  1
  O  O10  1  0.55223315  0.02297495  0.73573310  1
  O  O11  1  0.92573899  0.50287983  0.76495980  1
loop_
_geom_bond_atom_site_label_1
_geom_bond_atom_site_label_2
_geom_bond_distance
_geom_bond_site_symmetry_2
Ba0 O2 2.700034 1_545
Ba0 O8 2.714037 1_645
Ba0 O7 2.721711 1_545
Ba0 O9 2.905829 1_655
Ba0 O6 2.906929 1_555
Ba0 O3 2.932154 1_555
Ba0 O5 3.006465 1_655
Ba0 O0 3.013475 1_654
Ba0 O9 3.164489 1_645
Ba1 O0 2.700034 1_565
Ba1 O10 2.714037 1_465
Ba1 O5 2.721711 1_565
Ba1 O11 2.905829 1_455
Ba1 O4 2.906929 1_555
Ba1 O1 2.932154 1_555
Ba1 O7 3.006465 1_455
Ba1 O2 3.013475 1_456
Ba1 O11 3.164489 1_465
Eu0 O9 2.579939 1_555
Eu0 O6 2.649715 1_555
Eu0 O3 2.660289 1_555
Eu0 O8 2.708159 1_555
Eu0 O7 2.866195 1_555
Eu0 O2 2.875158 1_555
Eu0 O1 2.941186 1_555
Eu0 O4 3.014049 1_554
Eu1 O11 2.579939 1_555
Eu1 O4 2.649715 1_555
Eu1 O1 2.660289 1_555
Eu1 O10 2.708159 1_555
Eu1 O5 2.866195 1_555
Eu1 O0 2.875158 1_555
Eu1 O3 2.941186 1_555
Eu1 O6 3.014049 1_556
O0 Sb0 2.018745 1_556
O0 Tb0 2.258413 1_556
O1 Sb1 2.037975 1_565
O1 Tb1 2.278612 1_555
O2 Sb0 2.018745 1_655
O2 Tb0 2.258413 1_565
O3 Sb1 2.037975 1_555
O3 Tb1 2.278612 1_655
O4 Sb0 2.035237 1_556
O4 Tb0 2.280230 1_566
O5 Sb1 2.017935 1_555
O5 Tb1 2.249876 1_555
O6 Sb0 2.035237 1_655
O6 Tb0 2.280230 1_555
O7 Sb1 2.017935 1_565
O7 Tb1 2.249876 1_655
O8 Sb1 2.022152 1_565
O8 Tb0 2.259126 1_565
O9 Sb0 2.037155 1_555
O9 Tb1 2.281555 1_555
O10 Sb1 2.022152 1_555
O10 Tb0 2.259126 1_556
O11 Sb0 2.037155 1_656
O11 Tb1 2.281555 1_655
