# generated using pymatgen
data_Cd5(S2Cl)2
_symmetry_space_group_name_H-M   'P 1'
_cell_length_a   7.59556792
_cell_length_b   7.59556792
_cell_length_c   9.84912440
_cell_angle_alpha   80.89821362
_cell_angle_beta   80.89821362
_cell_angle_gamma   32.65077306
_symmetry_Int_Tables_number   1
_chemical_formula_structural   Cd5(S2Cl)2
_chemical_formula_sum   'Cd5 S4 Cl2'
_cell_volume   302.37209827
_cell_formula_units_Z   1
loop_
 _symmetry_equiv_pos_site_id
 _symmetry_equiv_pos_as_xyz
  1  'x, y, z'
loop_
 _atom_site_type_symbol
 _atom_site_label
 _atom_site_symmetry_multiplicity
 _atom_site_fract_x
 _atom_site_fract_y
 _atom_site_fract_z
 _atom_site_occupancy
  Cd  Cd0  1  0.45018500  0.45018500  0.92271200  1
  Cd  Cd1  1  0.16053700  0.16053700  0.99524900  1
  Cd  Cd2  1  0.16451400  0.16451400  0.61975100  1
  Cd  Cd3  1  0.54560300  0.54560300  0.33645500  1
  Cd  Cd4  1  0.81526800  0.81526800  0.26532800  1
  S  S0  1  0.03892500  0.03892500  0.83697200  1
  S  S1  1  0.40494500  0.40494500  0.18505200  1
  S  S2  1  0.67502700  0.67502700  0.12501900  1
  S  S3  1  0.68948200  0.68948200  0.48542900  1
  Cl  Cl0  1  0.30431900  0.30431900  0.79528800  1
  Cl  Cl1  1  0.97311500  0.97311500  0.46441400  1
loop_
_geom_bond_atom_site_label_1
_geom_bond_atom_site_label_2
_geom_bond_distance
_geom_bond_site_symmetry_2
Cd0 S1 2.559163 1_556
Cd0 S0 2.566143 1_565
Cd0 S0 2.566143 1_655
Cd0 Cl0 2.641404 1_555
Cd1 S2 2.515090 1_456
Cd1 S2 2.515090 1_546
Cd1 S0 2.546486 1_555
Cd1 Cl0 2.628987 1_555
Cd2 S3 2.506472 1_455
Cd2 S3 2.506472 1_545
Cd2 S0 2.576449 1_555
Cd2 Cl0 2.881813 1_555
Cd3 S2 2.569319 1_555
Cd3 Cl1 2.612370 1_455
Cd3 Cl1 2.612370 1_545
Cd3 S1 2.727028 1_555
Cd3 S3 2.750861 1_555
Cd4 S1 2.559691 1_565
Cd4 S1 2.559691 1_655
Cd4 S3 2.598387 1_555
Cd4 S2 2.649758 1_555
