# generated using pymatgen
data_Mg14CrBiO16
_symmetry_space_group_name_H-M   'P 1'
_cell_length_a   8.81839982
_cell_length_b   8.76435439
_cell_length_c   4.39751080
_cell_angle_alpha   90.00000000
_cell_angle_beta   90.00000000
_cell_angle_gamma   90.00000000
_symmetry_Int_Tables_number   1
_chemical_formula_structural   Mg14CrBiO16
_chemical_formula_sum   'Mg14 Cr1 Bi1 O16'
_cell_volume   339.87297292
_cell_formula_units_Z   1
loop_
 _symmetry_equiv_pos_site_id
 _symmetry_equiv_pos_as_xyz
  1  'x, y, z'
loop_
 _atom_site_type_symbol
 _atom_site_label
 _atom_site_symmetry_multiplicity
 _atom_site_fract_x
 _atom_site_fract_y
 _atom_site_fract_z
 _atom_site_occupancy
  Mg  Mg0  1  0.50000000  0.00000000  0.00000000  1
  Mg  Mg1  1  0.50000000  0.50000000  0.00000000  1
  Mg  Mg2  1  0.00000000  0.23429673  0.50000000  1
  Mg  Mg3  1  0.00000000  0.76570327  0.50000000  1
  Mg  Mg4  1  0.50000000  0.24675434  0.50000000  1
  Mg  Mg5  1  0.50000000  0.75324566  0.50000000  1
  Mg  Mg6  1  0.25468561  0.00000000  0.50000000  1
  Mg  Mg7  1  0.26556488  0.50000000  0.50000000  1
  Mg  Mg8  1  0.74531439  0.00000000  0.50000000  1
  Mg  Mg9  1  0.73443512  0.50000000  0.50000000  1
  Mg  Mg10  1  0.25903699  0.24032206  0.00000000  1
  Mg  Mg11  1  0.25903699  0.75967794  0.00000000  1
  Mg  Mg12  1  0.74096301  0.24032206  0.00000000  1
  Mg  Mg13  1  0.74096301  0.75967794  0.00000000  1
  Cr  Cr0  1  0.00000000  0.00000000  0.00000000  1
  Bi  Bi0  1  0.00000000  0.50000000  0.00000000  1
  O  O0  1  0.27015379  0.00000000  0.00000000  1
  O  O1  1  0.26868484  0.50000000  0.00000000  1
  O  O2  1  0.72984621  0.00000000  0.00000000  1
  O  O3  1  0.73131516  0.50000000  0.00000000  1
  O  O4  1  0.24921210  0.25145292  0.50000000  1
  O  O5  1  0.24921210  0.74854708  0.50000000  1
  O  O6  1  0.75078790  0.25145292  0.50000000  1
  O  O7  1  0.75078790  0.74854708  0.50000000  1
  O  O8  1  0.00000000  0.00000000  0.50000000  1
  O  O9  1  0.00000000  0.50000000  0.50000000  1
  O  O10  1  0.50000000  0.00000000  0.50000000  1
  O  O11  1  0.50000000  0.50000000  0.50000000  1
  O  O12  1  0.00000000  0.23291590  0.00000000  1
  O  O13  1  0.00000000  0.76708410  0.00000000  1
  O  O14  1  0.50000000  0.25117792  0.00000000  1
  O  O15  1  0.50000000  0.74882208  0.00000000  1
loop_
_geom_bond_atom_site_label_1
_geom_bond_atom_site_label_2
_geom_bond_distance
_geom_bond_site_symmetry_2
Mg0 O0 2.026876 1_555
Mg0 O2 2.026876 1_555
Mg0 O10 2.198755 1_555
Mg0 O10 2.198755 1_554
Mg0 O15 2.201412 1_545
Mg0 O14 2.201412 1_555
Mg1 O3 2.039830 1_555
Mg1 O1 2.039830 1_555
Mg1 O14 2.180765 1_555
Mg1 O15 2.180765 1_555
Mg1 O11 2.198755 1_554
Mg1 O11 2.198755 1_555
Mg2 O8 2.053460 1_555
Mg2 O12 2.198789 1_556
Mg2 O12 2.198789 1_555
Mg2 O4 2.202790 1_555
Mg2 O6 2.202790 1_455
Mg2 O9 2.328718 1_555
Mg3 O8 2.053460 1_565
Mg3 O13 2.198789 1_555
Mg3 O13 2.198789 1_556
Mg3 O5 2.202790 1_555
Mg3 O7 2.202790 1_455
Mg3 O9 2.328718 1_555
Mg4 O10 2.162642 1_555
Mg4 O14 2.199097 1_556
Mg4 O14 2.199097 1_555
Mg4 O6 2.211931 1_555
Mg4 O4 2.211931 1_555
Mg4 O11 2.219535 1_555
Mg5 O10 2.162642 1_565
Mg5 O15 2.199097 1_556
Mg5 O15 2.199097 1_555
Mg5 O7 2.211931 1_555
Mg5 O5 2.211931 1_555
Mg5 O11 2.219535 1_555
Mg6 O10 2.163280 1_555
Mg6 O0 2.202982 1_556
Mg6 O0 2.202982 1_555
Mg6 O5 2.204351 1_545
Mg6 O4 2.204351 1_555
Mg6 O8 2.245920 1_555
Mg7 O11 2.067343 1_555
Mg7 O4 2.183123 1_555
Mg7 O5 2.183123 1_555
Mg7 O1 2.198928 1_555
Mg7 O1 2.198928 1_556
Mg7 O9 2.341857 1_555
Mg8 O10 2.163280 1_555
Mg8 O2 2.202982 1_555
Mg8 O2 2.202982 1_556
Mg8 O7 2.204351 1_545
Mg8 O6 2.204351 1_555
Mg8 O8 2.245920 1_655
Mg9 O11 2.067343 1_555
Mg9 O6 2.183123 1_555
Mg9 O7 2.183123 1_555
Mg9 O3 2.198928 1_556
Mg9 O3 2.198928 1_555
Mg9 O9 2.341857 1_655
Mg10 O0 2.108548 1_555
Mg10 O14 2.127037 1_555
Mg10 O4 2.202623 1_554
Mg10 O4 2.202623 1_555
Mg10 O1 2.277499 1_555
Mg10 O12 2.285214 1_555
Mg11 O0 2.108548 1_565
Mg11 O15 2.127037 1_555
Mg11 O5 2.202623 1_554
Mg11 O5 2.202623 1_555
Mg11 O1 2.277499 1_555
Mg11 O13 2.285214 1_555
Mg12 O2 2.108548 1_555
Mg12 O14 2.127037 1_555
Mg12 O6 2.202623 1_555
Mg12 O6 2.202623 1_554
Mg12 O3 2.277499 1_555
Mg12 O12 2.285214 1_655
Mg13 O2 2.108548 1_565
Mg13 O15 2.127037 1_555
Mg13 O7 2.202623 1_555
Mg13 O7 2.202623 1_554
Mg13 O3 2.277499 1_555
Mg13 O13 2.285214 1_655
Cr0 O12 2.041357 1_555
Cr0 O13 2.041357 1_545
Cr0 O8 2.198755 1_554
Cr0 O8 2.198755 1_555
Cr0 O2 2.382324 1_455
Cr0 O0 2.382324 1_555
Bi0 O9 2.198755 1_555
Bi0 O9 2.198755 1_554
Bi0 O13 2.340820 1_555
Bi0 O12 2.340820 1_555
Bi0 O1 2.369370 1_555
Bi0 O3 2.369370 1_455
