# generated using pymatgen
data_La2Mn3Sb3O14
_symmetry_space_group_name_H-M   'P 1'
_cell_length_a   7.43792623
_cell_length_b   12.73699789
_cell_length_c   7.44156388
_cell_angle_alpha   73.41923007
_cell_angle_beta   119.96233499
_cell_angle_gamma   89.61798593
_symmetry_Int_Tables_number   1
_chemical_formula_structural   La2Mn3Sb3O14
_chemical_formula_sum   'La4 Mn6 Sb6 O28'
_cell_volume   575.84807941
_cell_formula_units_Z   2
loop_
 _symmetry_equiv_pos_site_id
 _symmetry_equiv_pos_as_xyz
  1  'x, y, z'
loop_
 _atom_site_type_symbol
 _atom_site_label
 _atom_site_symmetry_multiplicity
 _atom_site_fract_x
 _atom_site_fract_y
 _atom_site_fract_z
 _atom_site_occupancy
  La  La0  1  0.25000400  0.24999600  0.00000600  1
  La  La1  1  0.75000300  0.74999200  0.99999500  1
  La  La2  1  0.50002800  0.99999200  0.00003200  1
  La  La3  1  0.00000200  0.49999800  0.99999700  1
  Mn  Mn0  1  0.49998400  0.49999900  0.49997900  1
  Mn  Mn1  1  0.00000600  0.49999400  0.50001100  1
  Mn  Mn2  1  0.99998700  0.99999900  0.99999200  1
  Mn  Mn3  1  0.00003100  0.00001800  0.50000400  1
  Mn  Mn4  1  0.49998300  0.99999800  0.49998600  1
  Mn  Mn5  1  0.50000000  0.49999500  0.00000100  1
  Sb  Sb0  1  0.74999700  0.25000000  0.50000000  1
  Sb  Sb1  1  0.25000000  0.74999900  0.50000300  1
  Sb  Sb2  1  0.74999500  0.25000300  0.99999500  1
  Sb  Sb3  1  0.24999700  0.75000600  0.99999400  1
  Sb  Sb4  1  0.25000400  0.25000000  0.50000500  1
  Sb  Sb5  1  0.74999700  0.75000400  0.49999500  1
  O  O0  1  0.30276800  0.05523800  0.14184800  1
  O  O1  1  0.80273500  0.55523500  0.14181400  1
  O  O2  1  0.19726200  0.44476300  0.85819000  1
  O  O3  1  0.69722800  0.94476100  0.85815200  1
  O  O4  1  0.65942200  0.41173200  0.42922400  1
  O  O5  1  0.15942600  0.91173500  0.42922600  1
  O  O6  1  0.84057700  0.08827100  0.57077000  1
  O  O7  1  0.34057500  0.58826500  0.57077000  1
  O  O8  1  0.45788000  0.21512000  0.82680200  1
  O  O9  1  0.95788400  0.71512000  0.82680200  1
  O  O10  1  0.04211800  0.28487700  0.17320400  1
  O  O11  1  0.54211600  0.78488000  0.17319600  1
  O  O12  1  0.67149200  0.41012400  0.83830000  1
  O  O13  1  0.17149100  0.91012600  0.83829700  1
  O  O14  1  0.25181400  0.41020500  0.41846400  1
  O  O15  1  0.75182500  0.91020800  0.41846900  1
  O  O16  1  0.82850800  0.08987700  0.16170400  1
  O  O17  1  0.32850200  0.58987700  0.16169800  1
  O  O18  1  0.24818500  0.08979800  0.58153600  1
  O  O19  1  0.74818200  0.58979300  0.58153600  1
  O  O20  1  0.46273800  0.21215300  0.42265200  1
  O  O21  1  0.96274200  0.71215200  0.42265400  1
  O  O22  1  0.86516400  0.21221300  0.82496300  1
  O  O23  1  0.36516300  0.71221500  0.82496200  1
  O  O24  1  0.03725900  0.28785000  0.57734700  1
  O  O25  1  0.53725600  0.78784900  0.57734600  1
  O  O26  1  0.63483400  0.28778400  0.17504000  1
  O  O27  1  0.13483500  0.78778900  0.17503800  1
loop_
_geom_bond_atom_site_label_1
_geom_bond_atom_site_label_2
_geom_bond_distance
_geom_bond_site_symmetry_2
La0 O0 2.345324 1_555
La0 O2 2.345428 1_554
La0 O8 2.560753 1_554
La0 O10 2.560799 1_555
La0 O26 2.602566 1_555
La0 O22 2.602609 1_454
La0 O20 2.604163 1_555
La0 O24 2.604223 1_554
La1 O1 2.345316 1_556
La1 O3 2.345449 1_555
La1 O9 2.560699 1_555
La1 O11 2.560852 1_556
La1 O23 2.602583 1_555
La1 O27 2.602618 1_656
La1 O25 2.604153 1_555
La1 O21 2.604252 1_556
La2 O3 2.391233 1_554
La2 O0 2.391288 1_565
La2 O16 2.571921 1_565
La2 O13 2.572141 1_554
La2 O15 2.573961 1_555
La2 O18 2.574344 1_564
La2 O11 2.614581 1_555
La2 O8 2.614773 1_564
La3 O2 2.391174 1_555
La3 O1 2.391289 1_456
La3 O17 2.572009 1_556
La3 O12 2.572022 1_455
La3 O19 2.574123 1_455
La3 O14 2.574146 1_556
La3 O9 2.614698 1_455
La3 O10 2.614700 1_556
Mn0 O4 1.972632 1_555
Mn0 O7 1.972661 1_555
Mn0 O14 2.094981 1_555
Mn0 O19 2.095136 1_555
Mn0 O17 2.098332 1_555
Mn0 O12 2.098545 1_555
Mn1 O2 2.182157 1_555
Mn1 O1 2.182266 1_455
Mn1 O24 2.579228 1_555
Mn1 O21 2.579382 1_455
Mn1 O14 2.585891 1_555
Mn1 O19 2.585937 1_455
Mn1 O7 2.646054 1_555
Mn1 O4 2.646062 1_455
Mn2 O3 2.179662 1_555
Mn2 O0 2.179805 1_666
Mn2 O27 2.580294 1_656
Mn2 O22 2.580314 1_565
Mn2 O13 2.585591 1_655
Mn2 O16 2.585599 1_566
Mn2 O6 2.649882 1_565
Mn2 O5 2.649917 1_656
Mn3 O5 1.972654 1_545
Mn3 O6 1.972664 1_455
Mn3 O18 2.094780 1_555
Mn3 O15 2.095309 1_445
Mn3 O16 2.098390 1_455
Mn3 O13 2.098432 1_545
Mn4 O0 2.181893 1_565
Mn4 O3 2.182073 1_555
Mn4 O25 2.579266 1_555
Mn4 O20 2.579369 1_565
Mn4 O18 2.585915 1_565
Mn4 O15 2.585948 1_555
Mn4 O5 2.645927 1_555
Mn4 O6 2.646198 1_565
Mn5 O2 2.179490 1_554
Mn5 O1 2.179520 1_555
Mn5 O26 2.580291 1_555
Mn5 O23 2.580397 1_554
Mn5 O12 2.585549 1_554
Mn5 O17 2.585636 1_555
Mn5 O4 2.649865 1_555
Mn5 O7 2.649920 1_554
O4 Sb0 1.995652 1_555
O5 Sb1 1.995698 1_555
O6 Sb0 1.995632 1_555
O7 Sb1 1.995690 1_555
O8 Sb4 2.029890 1_555
O8 Sb2 2.030233 1_555
O9 Sb5 2.029953 1_555
O9 Sb3 2.030236 1_655
O10 Sb4 2.029930 1_555
O10 Sb2 2.030250 1_454
O11 Sb5 2.029914 1_555
O11 Sb3 2.030220 1_554
O12 Sb2 1.957021 1_555
O13 Sb3 1.957013 1_555
O14 Sb4 1.958060 1_555
O15 Sb5 1.958069 1_555
O16 Sb2 1.957093 1_554
O17 Sb3 1.957121 1_554
O18 Sb4 1.958034 1_555
O19 Sb5 1.958139 1_555
O20 Sb0 2.018037 1_555
O20 Sb4 2.031102 1_555
O21 Sb1 2.018029 1_655
O21 Sb5 2.031131 1_555
O22 Sb0 2.018513 1_555
O22 Sb2 2.031948 1_555
O23 Sb1 2.018495 1_555
O23 Sb3 2.031937 1_555
O24 Sb0 2.018071 1_455
O24 Sb4 2.031129 1_555
O25 Sb1 2.018036 1_555
O25 Sb5 2.031131 1_555
O26 Sb0 2.018501 1_555
O26 Sb2 2.031945 1_554
O27 Sb1 2.018525 1_555
O27 Sb3 2.031955 1_554
