# generated using pymatgen
data_RbMg6Zn
_symmetry_space_group_name_H-M   'P 1'
_cell_length_a   5.21753700
_cell_length_b   7.04105800
_cell_length_c   11.73673500
_cell_angle_alpha   90.00000000
_cell_angle_beta   90.00000000
_cell_angle_gamma   90.00000000
_symmetry_Int_Tables_number   1
_chemical_formula_structural   RbMg6Zn
_chemical_formula_sum   'Rb2 Mg12 Zn2'
_cell_volume   431.17220640
_cell_formula_units_Z   2
loop_
 _symmetry_equiv_pos_site_id
 _symmetry_equiv_pos_as_xyz
  1  'x, y, z'
loop_
 _atom_site_type_symbol
 _atom_site_label
 _atom_site_symmetry_multiplicity
 _atom_site_fract_x
 _atom_site_fract_y
 _atom_site_fract_z
 _atom_site_occupancy
  Rb  Rb0  1  0.50000000  0.00000000  0.66990300  1
  Rb  Rb1  1  0.50000000  0.50000000  0.16990300  1
  Mg  Mg0  1  0.00000000  0.71869400  0.56922500  1
  Mg  Mg1  1  0.00000000  0.28130600  0.56922500  1
  Mg  Mg2  1  0.00000000  0.00000000  0.33438100  1
  Mg  Mg3  1  0.50000000  0.74101200  0.41748500  1
  Mg  Mg4  1  0.50000000  0.25898800  0.41748500  1
  Mg  Mg5  1  0.50000000  0.00000000  0.16294800  1
  Mg  Mg6  1  0.00000000  0.21869400  0.06922500  1
  Mg  Mg7  1  0.00000000  0.78130600  0.06922500  1
  Mg  Mg8  1  0.00000000  0.50000000  0.83438100  1
  Mg  Mg9  1  0.50000000  0.24101200  0.91748500  1
  Mg  Mg10  1  0.50000000  0.75898800  0.91748500  1
  Mg  Mg11  1  0.50000000  0.50000000  0.66294800  1
  Zn  Zn0  1  0.00000000  0.00000000  0.85934800  1
  Zn  Zn1  1  0.00000000  0.50000000  0.35934800  1
loop_
_geom_bond_atom_site_label_1
_geom_bond_atom_site_label_2
_geom_bond_distance
_geom_bond_site_symmetry_2
Rb0 Zn0 3.427750 1_655
Rb0 Zn0 3.427750 1_555
Rb1 Zn1 3.427750 1_555
Rb1 Zn1 3.427750 1_655
Mg0 Zn1 2.904961 1_555
Mg0 Mg1 3.079674 1_555
Mg0 Mg3 3.162607 1_555
Mg0 Mg3 3.162607 1_455
Mg0 Mg11 3.222852 1_455
Mg0 Mg11 3.222852 1_555
Mg0 Mg2 3.394163 1_565
Mg0 Mg8 3.472183 1_555
Mg0 Rb0 3.482106 1_565
Mg0 Rb0 3.482106 1_465
Mg1 Zn1 2.904961 1_555
Mg1 Mg4 3.162607 1_455
Mg1 Mg4 3.162607 1_555
Mg1 Mg11 3.222852 1_455
Mg1 Mg11 3.222852 1_555
Mg1 Mg2 3.394163 1_555
Mg1 Mg8 3.472183 1_555
Mg1 Rb0 3.482106 1_455
Mg1 Rb0 3.482106 1_555
Mg2 Mg5 3.294552 1_455
Mg2 Mg5 3.294552 1_555
Mg2 Mg4 3.329017 1_455
Mg2 Mg3 3.329017 1_445
Mg2 Mg3 3.329017 1_545
Mg2 Mg4 3.329017 1_555
Mg2 Mg6 3.472183 1_555
Mg2 Mg7 3.472183 1_545
Mg3 Zn1 3.186063 1_555
Mg3 Zn1 3.186063 1_655
Mg3 Rb1 3.365032 1_555
Mg3 Mg4 3.393959 1_555
Mg3 Rb0 3.478809 1_565
Mg3 Mg5 3.500013 1_565
Mg4 Zn1 3.186063 1_555
Mg4 Zn1 3.186063 1_655
Mg4 Rb1 3.365032 1_555
Mg4 Rb0 3.478809 1_555
Mg4 Mg5 3.500013 1_555
Mg5 Mg7 3.222852 1_545
Mg5 Mg6 3.222852 1_655
Mg5 Mg6 3.222852 1_555
Mg5 Mg7 3.222852 1_645
Mg5 Mg9 3.343579 1_554
Mg5 Rb1 3.521475 1_555
Mg5 Rb1 3.521475 1_545
Mg6 Zn0 2.904961 1_554
Mg6 Mg7 3.079674 1_545
Mg6 Mg9 3.162607 1_554
Mg6 Mg9 3.162607 1_454
Mg6 Mg8 3.394163 1_554
Mg6 Rb1 3.482106 1_555
Mg6 Rb1 3.482106 1_455
Mg7 Zn0 2.904961 1_564
Mg7 Mg8 3.394163 1_554
Mg7 Rb1 3.482106 1_455
Mg7 Rb1 3.482106 1_555
Mg8 Mg9 3.329017 1_455
Mg8 Mg9 3.329017 1_555
Mg9 Zn0 3.186063 1_555
Mg9 Zn0 3.186063 1_655
Mg9 Rb0 3.365032 1_555
Mg9 Rb1 3.478809 1_556
Mg10 Mg7 3.162607 1_556
Mg10 Mg7 3.162607 1_656
Mg10 Zn0 3.186063 1_665
Mg10 Zn0 3.186063 1_565
Mg10 Mg8 3.329017 1_555
Mg10 Mg8 3.329017 1_655
Mg10 Mg5 3.343579 1_566
Mg10 Rb0 3.365032 1_565
Mg10 Mg9 3.393959 1_565
Mg10 Rb1 3.478809 1_556
Mg10 Mg11 3.500013 1_555
Mg11 Mg8 3.294552 1_555
Mg11 Mg8 3.294552 1_655
Mg11 Mg3 3.343579 1_555
Mg11 Mg4 3.343579 1_555
Mg11 Mg9 3.500013 1_555
Mg11 Rb0 3.521475 1_555
Mg11 Rb0 3.521475 1_565
