# generated using pymatgen
data_Mg3Ti4
_symmetry_space_group_name_H-M   'P 1'
_cell_length_a   8.04319235
_cell_length_b   8.04319235
_cell_length_c   4.72445300
_cell_angle_alpha   90.00000000
_cell_angle_beta   90.00000000
_cell_angle_gamma   120.00000285
_symmetry_Int_Tables_number   1
_chemical_formula_structural   Mg3Ti4
_chemical_formula_sum   'Mg6 Ti8'
_cell_volume   264.69093093
_cell_formula_units_Z   2
loop_
 _symmetry_equiv_pos_site_id
 _symmetry_equiv_pos_as_xyz
  1  'x, y, z'
loop_
 _atom_site_type_symbol
 _atom_site_label
 _atom_site_symmetry_multiplicity
 _atom_site_fract_x
 _atom_site_fract_y
 _atom_site_fract_z
 _atom_site_occupancy
  Mg  Mg0  1  0.75273200  0.80389100  0.25000000  1
  Mg  Mg1  1  0.24726800  0.19610900  0.75000000  1
  Mg  Mg2  1  0.94884100  0.75273200  0.75000000  1
  Mg  Mg3  1  0.19610900  0.94884100  0.25000000  1
  Mg  Mg4  1  0.80389100  0.05115900  0.75000000  1
  Mg  Mg5  1  0.05115900  0.24726800  0.25000000  1
  Ti  Ti0  1  0.51429400  0.61931800  0.75000000  1
  Ti  Ti1  1  0.48570600  0.38068200  0.25000000  1
  Ti  Ti2  1  0.66666700  0.33333300  0.75000000  1
  Ti  Ti3  1  0.89497600  0.51429400  0.25000000  1
  Ti  Ti4  1  0.38068200  0.89497600  0.75000000  1
  Ti  Ti5  1  0.61931800  0.10502400  0.25000000  1
  Ti  Ti6  1  0.10502400  0.48570600  0.75000000  1
  Ti  Ti7  1  0.33333300  0.66666700  0.25000000  1
loop_
_geom_bond_atom_site_label_1
_geom_bond_atom_site_label_2
_geom_bond_distance
_geom_bond_site_symmetry_2
Mg0 Ti0 2.935115 1_554
Mg0 Ti0 2.935115 1_555
Mg0 Ti7 2.978961 1_555
Mg0 Mg4 2.981021 1_565
Mg0 Mg4 2.981021 1_564
Mg0 Mg2 2.981021 1_554
Mg0 Mg2 2.981021 1_555
Mg0 Ti1 2.981421 1_555
Mg0 Ti3 3.065852 1_555
Mg0 Ti5 3.101125 1_565
Mg0 Mg5 3.149464 1_665
Mg0 Mg3 3.149464 1_655
Mg1 Ti1 2.935115 1_555
Mg1 Ti1 2.935115 1_556
Mg1 Ti2 2.978961 1_555
Mg1 Mg3 2.981021 1_546
Mg1 Mg3 2.981021 1_545
Mg1 Mg5 2.981021 1_556
Mg1 Mg5 2.981021 1_555
Mg1 Ti0 2.981421 1_555
Mg1 Ti6 3.065852 1_555
Mg1 Ti4 3.101125 1_545
Mg1 Mg2 3.149464 1_445
Mg1 Mg4 3.149464 1_455
Mg2 Ti3 2.935115 1_555
Mg2 Ti3 2.935115 1_556
Mg2 Ti2 2.978960 1_555
Mg2 Mg3 2.981021 1_656
Mg2 Mg3 2.981021 1_655
Mg2 Ti6 2.981421 1_655
Mg2 Ti4 3.065851 1_655
Mg2 Ti0 3.101125 1_555
Mg2 Mg4 3.149464 1_565
Mg3 Ti4 2.935115 1_554
Mg3 Ti4 2.935115 1_555
Mg3 Ti7 2.978954 1_555
Mg3 Ti5 2.981421 1_565
Mg3 Ti1 3.065851 1_565
Mg3 Ti3 3.101125 1_455
Mg3 Mg5 3.149464 1_565
Mg4 Ti5 2.935115 1_556
Mg4 Ti5 2.935115 1_555
Mg4 Ti2 2.978954 1_555
Mg4 Mg5 2.981021 1_656
Mg4 Mg5 2.981021 1_655
Mg4 Ti4 2.981421 1_545
Mg4 Ti0 3.065851 1_545
Mg4 Ti6 3.101125 1_655
Mg5 Ti6 2.935115 1_555
Mg5 Ti6 2.935115 1_554
Mg5 Ti7 2.978960 1_555
Mg5 Ti3 2.981421 1_455
Mg5 Ti5 3.065851 1_455
Mg5 Ti1 3.101125 1_555
Ti0 Ti7 2.897922 1_556
Ti0 Ti7 2.897922 1_555
Ti0 Ti6 2.907486 1_555
Ti0 Ti4 2.907486 1_555
Ti0 Ti1 2.979215 1_556
Ti0 Ti1 2.979215 1_555
Ti0 Ti2 3.100349 1_555
Ti1 Ti2 2.897922 1_554
Ti1 Ti2 2.897922 1_555
Ti1 Ti3 2.907486 1_555
Ti1 Ti5 2.907486 1_555
Ti1 Ti7 3.100349 1_555
Ti2 Ti5 2.897918 1_555
Ti2 Ti5 2.897918 1_556
Ti2 Ti3 2.897919 1_555
Ti2 Ti3 2.897919 1_556
Ti2 Ti6 3.100341 1_655
Ti2 Ti4 3.100343 1_545
Ti3 Ti5 2.907486 1_555
Ti3 Ti6 2.979215 1_655
Ti3 Ti6 2.979215 1_654
Ti3 Ti7 3.100341 1_655
Ti4 Ti7 2.897918 1_555
Ti4 Ti7 2.897918 1_556
Ti4 Ti6 2.907486 1_555
Ti4 Ti5 2.979215 1_566
Ti4 Ti5 2.979215 1_565
Ti5 Ti7 3.100343 1_545
Ti6 Ti7 2.897919 1_555
Ti6 Ti7 2.897919 1_556
