# generated using pymatgen
data_Li9Mn2Co5O16
_symmetry_space_group_name_H-M   'P 1'
_cell_length_a   2.99090700
_cell_length_b   9.89361257
_cell_length_c   10.29789089
_cell_angle_alpha   106.53314223
_cell_angle_beta   97.68164045
_cell_angle_gamma   88.28194272
_symmetry_Int_Tables_number   1
_chemical_formula_structural   Li9Mn2Co5O16
_chemical_formula_sum   'Li9 Mn2 Co5 O16'
_cell_volume   289.49297852
_cell_formula_units_Z   1
loop_
 _symmetry_equiv_pos_site_id
 _symmetry_equiv_pos_as_xyz
  1  'x, y, z'
loop_
 _atom_site_type_symbol
 _atom_site_label
 _atom_site_symmetry_multiplicity
 _atom_site_fract_x
 _atom_site_fract_y
 _atom_site_fract_z
 _atom_site_occupancy
  Li  Li0  1  0.05990600  0.31186100  0.12363100  1
  Li  Li1  1  0.55392200  0.80414900  0.12502800  1
  Li  Li2  1  0.70021900  0.43845800  0.38138800  1
  Li  Li3  1  0.20139100  0.94658700  0.38131300  1
  Li  Li4  1  0.30914200  0.56069800  0.62772800  1
  Li  Li5  1  0.81284500  0.06843000  0.61945200  1
  Li  Li6  1  0.93190400  0.68690500  0.87290000  1
  Li  Li7  1  0.43364700  0.19094900  0.87283100  1
  Li  Li8  1  0.23819400  0.24165700  0.50174600  1
  Mn  Mn0  1  0.00794200  0.00098700  0.99766800  1
  Mn  Mn1  1  0.63561200  0.12958500  0.25847000  1
  Co  Co0  1  0.49548600  0.49960800  0.99700700  1
  Co  Co1  1  0.12608900  0.62245800  0.25073600  1
  Co  Co2  1  0.74959400  0.75159500  0.50081500  1
  Co  Co3  1  0.86662500  0.37005000  0.74083400  1
  Co  Co4  1  0.36932300  0.87551800  0.74789800  1
  O  O0  1  0.57835300  0.14902300  0.06677000  1
  O  O1  1  0.03064600  0.65165400  0.06892100  1
  O  O2  1  0.14459600  0.26203000  0.30657100  1
  O  O3  1  0.65142500  0.77172700  0.31803900  1
  O  O4  1  0.79319500  0.40852000  0.58455000  1
  O  O5  1  0.27184300  0.89730300  0.56813500  1
  O  O6  1  0.44123100  0.52350700  0.81853600  1
  O  O7  1  0.93804300  0.01981100  0.81225700  1
  O  O8  1  0.59524700  0.47304300  0.17869100  1
  O  O9  1  0.11721300  0.98947500  0.18905100  1
  O  O10  1  0.21843800  0.59566100  0.43126300  1
  O  O11  1  0.70828000  0.09350600  0.42475300  1
  O  O12  1  0.79806100  0.72822000  0.68251300  1
  O  O13  1  0.31764500  0.23367700  0.69474800  1
  O  O14  1  0.43482500  0.85029200  0.93028600  1
  O  O15  1  0.96911600  0.35305600  0.92547000  1
loop_
_geom_bond_atom_site_label_1
_geom_bond_atom_site_label_2
_geom_bond_distance
_geom_bond_site_symmetry_2
Li0 O2 2.061511 1_555
Li0 O8 2.087833 1_455
Li0 O0 2.095126 1_455
Li0 O15 2.173163 1_454
Li0 O8 2.196352 1_555
Li0 O0 2.213335 1_555
Li1 O1 2.058694 1_655
Li1 O3 2.083462 1_555
Li1 O1 2.112639 1_555
Li1 O14 2.162727 1_554
Li1 O9 2.213867 1_555
Li1 O9 2.415620 1_655
Li2 O10 2.089969 1_555
Li2 O10 2.135928 1_655
Li2 O4 2.175850 1_555
Li2 O2 2.185437 1_655
Li2 O8 2.190330 1_555
Li2 O2 2.338437 1_555
Li3 O11 2.041050 1_465
Li3 O11 2.047471 1_565
Li3 O5 2.098284 1_555
Li3 O9 2.121763 1_555
Li3 O3 2.163903 1_555
Li3 O3 2.316395 1_455
Li4 O4 2.054481 1_555
Li4 O6 2.085095 1_555
Li4 O4 2.102544 1_455
Li4 O10 2.128952 1_555
Li4 O12 2.143877 1_555
Li4 O12 2.224481 1_455
Li5 O11 2.071269 1_555
Li5 O5 2.139096 1_645
Li5 O7 2.155863 1_555
Li5 O13 2.160365 1_655
Li5 O13 2.215419 1_555
Li5 O5 2.278243 1_545
Li6 O12 2.099452 1_555
Li6 O6 2.118503 1_555
Li6 O1 2.125733 1_656
Li6 O14 2.142271 1_655
Li6 O14 2.172482 1_555
Li6 O6 2.193771 1_655
Li7 O13 1.981041 1_555
Li7 O15 2.090302 1_455
Li7 O0 2.139551 1_556
Li7 O7 2.180680 1_455
Li7 O15 2.204120 1_555
Li7 O7 2.242570 1_555
Li8 O13 1.993698 1_555
Li8 O2 2.058015 1_555
Li8 O11 2.065640 1_555
Li8 O11 2.104987 1_455
Li8 O4 2.143455 1_455
Li8 O4 2.278748 1_555
Mn0 O7 1.953794 1_455
Mn0 O0 1.959784 1_456
Mn0 O14 1.966816 1_545
Mn0 O9 1.989303 1_546
Mn0 O0 2.189557 1_556
Mn0 O14 2.211123 1_445
Mn1 O11 1.830457 1_555
Mn1 O2 1.956651 1_655
Mn1 O2 1.956734 1_555
Mn1 O0 2.021663 1_555
Mn1 O9 2.024588 1_645
Mn1 O9 2.026115 1_545
Co0 O6 1.904027 1_555
Co0 O8 1.945386 1_556
Co0 O15 2.049294 1_555
Co0 O1 2.063985 1_556
Co0 O15 2.083841 1_455
Co0 O1 2.136990 1_656
Co1 O10 1.934291 1_555
Co1 O1 1.957153 1_555
Co1 O3 2.057084 1_455
Co1 O8 2.057765 1_555
Co1 O3 2.096560 1_555
Co1 O8 2.111419 1_455
Co2 O3 1.931503 1_555
Co2 O12 1.935792 1_555
Co2 O5 2.042805 1_555
Co2 O5 2.067688 1_655
Co2 O10 2.090294 1_655
Co2 O10 2.151914 1_555
Co3 O4 1.741370 1_555
Co3 O13 1.887566 1_655
Co3 O15 1.939187 1_555
Co3 O6 2.007245 1_555
Co3 O13 2.074056 1_555
Co3 O6 2.235241 1_655
Co4 O5 1.907184 1_555
Co4 O7 1.928929 1_465
Co4 O12 1.944674 1_555
Co4 O14 1.947777 1_555
Co4 O7 2.162483 1_565
Co4 O12 2.186249 1_455
