# generated using pymatgen
data_Ca(MoO3)2
_symmetry_space_group_name_H-M   'P 1'
_cell_length_a   5.44982455
_cell_length_b   5.52035559
_cell_length_c   7.78738108
_cell_angle_alpha   89.99298782
_cell_angle_beta   90.00336550
_cell_angle_gamma   89.94789126
_symmetry_Int_Tables_number   1
_chemical_formula_structural   Ca(MoO3)2
_chemical_formula_sum   'Ca2 Mo4 O12'
_cell_volume   234.28302237
_cell_formula_units_Z   2
loop_
 _symmetry_equiv_pos_site_id
 _symmetry_equiv_pos_as_xyz
  1  'x, y, z'
loop_
 _atom_site_type_symbol
 _atom_site_label
 _atom_site_symmetry_multiplicity
 _atom_site_fract_x
 _atom_site_fract_y
 _atom_site_fract_z
 _atom_site_occupancy
  Ca  Ca0  1  0.50698800  0.54286000  0.24976700  1
  Ca  Ca1  1  0.00838400  0.95638000  0.75019400  1
  Mo  Mo0  1  0.50071200  0.00423300  0.00015800  1
  Mo  Mo1  1  0.00044300  0.49582700  0.99985600  1
  Mo  Mo2  1  0.00101200  0.49582300  0.50011500  1
  Mo  Mo3  1  0.50131700  0.00425400  0.49984300  1
  O  O0  1  0.71381100  0.28697000  0.46841800  1
  O  O1  1  0.21404400  0.21334000  0.53164900  1
  O  O2  1  0.77876400  0.77801300  0.02428700  1
  O  O3  1  0.27859900  0.72202500  0.97593600  1
  O  O4  1  0.27930600  0.72192300  0.52404300  1
  O  O5  1  0.77941900  0.77818700  0.47570500  1
  O  O6  1  0.21355600  0.21333700  0.96875400  1
  O  O7  1  0.71337200  0.28700700  0.03117400  1
  O  O8  1  0.06284800  0.49038400  0.25000200  1
  O  O9  1  0.56323000  0.00901400  0.74995400  1
  O  O10  1  0.45325000  0.99278000  0.25010900  1
  O  O11  1  0.95312500  0.50770300  0.74992800  1
loop_
_geom_bond_atom_site_label_1
_geom_bond_atom_site_label_2
_geom_bond_distance
_geom_bond_site_symmetry_2
Ca0 O8 2.438021 1_555
Ca0 O7 2.481045 1_555
Ca0 O0 2.482228 1_555
Ca0 O10 2.500662 1_555
Ca0 O2 2.639188 1_555
Ca0 O5 2.644135 1_555
Ca0 O3 2.659254 1_554
Ca0 O4 2.660338 1_555
Ca1 O9 2.443087 1_465
Ca1 O6 2.482434 1_565
Ca1 O1 2.483416 1_565
Ca1 O11 2.495370 1_455
Ca1 O3 2.632179 1_555
Ca1 O4 2.637064 1_555
Ca1 O2 2.663362 1_456
Ca1 O5 2.663879 1_455
Mo0 O6 1.959068 1_554
Mo0 O7 1.960010 1_555
Mo0 O10 1.964607 1_545
Mo0 O2 1.971687 1_545
Mo0 O9 1.978196 1_554
Mo0 O3 1.982757 1_544
Mo1 O6 1.958642 1_555
Mo1 O7 1.959391 1_456
Mo1 O11 1.964357 1_455
Mo1 O3 1.973654 1_555
Mo1 O8 1.977648 1_556
Mo1 O2 1.979658 1_456
Mo2 O1 1.958704 1_555
Mo2 O0 1.960446 1_455
Mo2 O11 1.963927 1_455
Mo2 O4 1.973907 1_555
Mo2 O8 1.976910 1_555
Mo2 O5 1.980079 1_455
Mo3 O0 1.959584 1_555
Mo3 O1 1.959971 1_555
Mo3 O10 1.963359 1_545
Mo3 O5 1.971415 1_545
Mo3 O9 1.976882 1_555
Mo3 O4 1.982912 1_545
