# generated using pymatgen
data_V3OF7
_symmetry_space_group_name_H-M   'P 1'
_cell_length_a   4.03311134
_cell_length_b   7.98183517
_cell_length_c   10.00961069
_cell_angle_alpha   90.16306792
_cell_angle_beta   89.95624226
_cell_angle_gamma   104.65015620
_symmetry_Int_Tables_number   1
_chemical_formula_structural   V3OF7
_chemical_formula_sum   'V6 O2 F14'
_cell_volume   311.74826426
_cell_formula_units_Z   2
loop_
 _symmetry_equiv_pos_site_id
 _symmetry_equiv_pos_as_xyz
  1  'x, y, z'
loop_
 _atom_site_type_symbol
 _atom_site_label
 _atom_site_symmetry_multiplicity
 _atom_site_fract_x
 _atom_site_fract_y
 _atom_site_fract_z
 _atom_site_occupancy
  V  V0  1  0.46128500  0.92024600  0.74858700  1
  V  V1  1  0.67879300  0.35750200  0.92791100  1
  V  V2  1  0.32054700  0.64136100  0.42756900  1
  V  V3  1  0.53913900  0.07984800  0.25071700  1
  V  V4  1  0.67894900  0.35870600  0.57335600  1
  V  V5  1  0.32119300  0.64355300  0.07188700  1
  O  O0  1  0.71124800  0.42202700  0.75109600  1
  O  O1  1  0.29199300  0.57975100  0.24985300  1
  F  F0  1  0.03696300  0.07466000  0.24950300  1
  F  F1  1  0.96319600  0.92561300  0.74812400  1
  F  F2  1  0.55603800  0.11107000  0.61138300  1
  F  F3  1  0.54995000  0.10386700  0.88157500  1
  F  F4  1  0.44753000  0.89373900  0.11701400  1
  F  F5  1  0.44310800  0.88872500  0.38726300  1
  F  F6  1  0.63350400  0.26675800  0.11384400  1
  F  F7  1  0.63149800  0.26284100  0.38220500  1
  F  F8  1  0.36821700  0.73607700  0.61748600  1
  F  F9  1  0.36760500  0.73398700  0.88592600  1
  F  F10  1  0.19869300  0.39773400  0.96852200  1
  F  F11  1  0.20148100  0.40374200  0.53538200  1
  F  F12  1  0.80176500  0.60341700  0.03411100  1
  F  F13  1  0.79730700  0.59477400  0.46668600  1
loop_
_geom_bond_atom_site_label_1
_geom_bond_atom_site_label_2
_geom_bond_distance
_geom_bond_site_symmetry_2
O0 V1 1.839970 1_555
O0 V4 1.843794 1_555
O1 V2 1.840149 1_555
O1 V5 1.849594 1_555
F0 V3 2.015302 1_555
F0 V3 2.018677 1_455
F1 V0 2.013857 1_555
F1 V0 2.020117 1_655
F2 V4 1.950869 1_555
F2 V0 2.017113 1_545
F3 V0 1.942279 1_545
F3 V1 2.011596 1_555
F4 V3 1.961146 1_565
F4 V5 1.982920 1_555
F5 V2 1.953456 1_555
F5 V3 2.014312 1_565
F6 V1 1.990469 1_554
F6 V3 1.992792 1_555
F7 V3 1.928469 1_555
F7 V4 2.049676 1_555
F8 V0 1.932493 1_555
F8 V2 2.034981 1_555
F9 V5 1.989886 1_556
F9 V0 1.992368 1_555
F10 V1 2.079653 1_455
F10 V1 2.080910 1_555
F10 V5 2.159454 1_556
F11 V4 2.081181 1_455
F11 V4 2.081825 1_555
F11 V2 2.131334 1_555
F12 V5 2.072511 1_655
F12 V5 2.077138 1_555
F12 V1 2.173772 1_554
F13 V2 2.085071 1_655
F13 V2 2.086263 1_555
F13 V4 2.115189 1_555
