# generated using pymatgen
data_LaEu2SbO6
_symmetry_space_group_name_H-M   'P 1'
_cell_length_a   8.53918577
_cell_length_b   8.53918577
_cell_length_c   8.53918577
_cell_angle_alpha   90.00000000
_cell_angle_beta   90.00000000
_cell_angle_gamma   90.00000000
_symmetry_Int_Tables_number   1
_chemical_formula_structural   LaEu2SbO6
_chemical_formula_sum   'La4 Eu8 Sb4 O24'
_cell_volume   622.65773169
_cell_formula_units_Z   4
loop_
 _symmetry_equiv_pos_site_id
 _symmetry_equiv_pos_as_xyz
  1  'x, y, z'
loop_
 _atom_site_type_symbol
 _atom_site_label
 _atom_site_symmetry_multiplicity
 _atom_site_fract_x
 _atom_site_fract_y
 _atom_site_fract_z
 _atom_site_occupancy
  La  La0  1  0.75000000  0.75000000  0.75000000  1
  La  La1  1  0.75000000  0.25000000  0.25000000  1
  La  La2  1  0.25000000  0.75000000  0.25000000  1
  La  La3  1  0.25000000  0.25000000  0.75000000  1
  Eu  Eu0  1  0.50000000  0.50000000  0.50000000  1
  Eu  Eu1  1  0.00000000  0.00000000  -0.00000000  1
  Eu  Eu2  1  0.00000000  0.00000000  0.50000000  1
  Eu  Eu3  1  0.00000000  0.50000000  -0.00000000  1
  Eu  Eu4  1  0.50000000  0.00000000  -0.00000000  1
  Eu  Eu5  1  0.50000000  0.50000000  -0.00000000  1
  Eu  Eu6  1  0.50000000  0.00000000  0.50000000  1
  Eu  Eu7  1  0.00000000  0.50000000  0.50000000  1
  Sb  Sb0  1  0.25000000  0.25000000  0.25000000  1
  Sb  Sb1  1  0.25000000  0.75000000  0.75000000  1
  Sb  Sb2  1  0.75000000  0.25000000  0.75000000  1
  Sb  Sb3  1  0.75000000  0.75000000  0.25000000  1
  O  O0  1  0.21191710  0.29750995  0.47887334  1
  O  O1  1  0.21191710  0.70249005  0.52112666  1
  O  O2  1  0.78808290  0.29750995  0.52112666  1
  O  O3  1  0.78808290  0.70249005  0.47887334  1
  O  O4  1  0.29750995  0.47887334  0.21191710  1
  O  O5  1  0.70249005  0.52112666  0.21191710  1
  O  O6  1  0.29750995  0.52112666  0.78808290  1
  O  O7  1  0.70249005  0.47887334  0.78808290  1
  O  O8  1  0.47887334  0.21191710  0.29750995  1
  O  O9  1  0.52112666  0.21191710  0.70249005  1
  O  O10  1  0.52112666  0.78808290  0.29750995  1
  O  O11  1  0.47887334  0.78808290  0.70249005  1
  O  O12  1  0.28808290  0.20249005  0.02112666  1
  O  O13  1  0.28808290  0.79750995  0.97887334  1
  O  O14  1  0.71191710  0.20249005  0.97887334  1
  O  O15  1  0.71191710  0.79750995  0.02112666  1
  O  O16  1  0.20249005  0.02112666  0.28808290  1
  O  O17  1  0.79750995  0.97887334  0.28808290  1
  O  O18  1  0.20249005  0.97887334  0.71191710  1
  O  O19  1  0.79750995  0.02112666  0.71191710  1
  O  O20  1  0.02112666  0.28808290  0.20249005  1
  O  O21  1  0.97887334  0.28808290  0.79750995  1
  O  O22  1  0.97887334  0.71191710  0.20249005  1
  O  O23  1  0.02112666  0.71191710  0.79750995  1
loop_
_geom_bond_atom_site_label_1
_geom_bond_atom_site_label_2
_geom_bond_distance
_geom_bond_site_symmetry_2
La0 O11 2.372867 1_555
La0 O7 2.372867 1_555
La0 O3 2.372867 1_555
La0 O19 2.372867 1_565
La0 O23 2.372867 1_655
La0 O15 2.372867 1_556
La1 O2 2.372867 1_555
La1 O14 2.372867 1_554
La1 O20 2.372867 1_655
La1 O8 2.372867 1_555
La1 O5 2.372867 1_555
La1 O17 2.372867 1_545
La2 O10 2.372867 1_555
La2 O13 2.372867 1_554
La2 O4 2.372867 1_555
La2 O1 2.372867 1_555
La2 O16 2.372867 1_565
La2 O22 2.372867 1_455
La3 O6 2.372867 1_555
La3 O0 2.372867 1_555
La3 O18 2.372867 1_545
La3 O21 2.372867 1_455
La3 O12 2.372867 1_556
La3 O9 2.372867 1_555
Eu0 O10 3.012292 1_555
Eu0 O2 3.012292 1_555
Eu0 O3 3.012292 1_555
Eu0 O11 3.012292 1_555
Eu0 O6 3.012292 1_555
Eu0 O7 3.012292 1_555
Eu0 O8 3.012292 1_555
Eu0 O9 3.012292 1_555
Eu0 O4 3.012292 1_555
Eu0 O5 3.012292 1_555
Eu0 O1 3.012292 1_555
Eu0 O0 3.012292 1_555
Eu1 O17 3.012292 1_445
Eu1 O23 3.012292 1_544
Eu1 O21 3.012292 1_454
Eu1 O19 3.012292 1_454
Eu1 O12 3.012292 1_555
Eu1 O16 3.012292 1_555
Eu1 O20 3.012292 1_555
Eu1 O13 3.012292 1_544
Eu1 O22 3.012292 1_445
Eu1 O14 3.012292 1_454
Eu1 O15 3.012292 1_445
Eu1 O18 3.012292 1_544
Eu2 O19 2.509379 1_455
Eu2 O17 2.509379 1_445
Eu2 O18 2.509379 1_545
Eu2 O16 2.509379 1_555
Eu3 O23 2.509379 1_554
Eu3 O21 2.509379 1_454
Eu3 O22 2.509379 1_455
Eu3 O20 2.509379 1_555
Eu4 O15 2.509379 1_545
Eu4 O13 2.509379 1_544
Eu4 O12 2.509379 1_555
Eu4 O14 2.509379 1_554
Eu5 O4 2.509379 1_555
Eu5 O5 2.509379 1_555
Eu5 O7 2.509379 1_554
Eu5 O6 2.509379 1_554
Eu6 O9 2.509379 1_555
Eu6 O8 2.509379 1_555
Eu6 O11 2.509379 1_545
Eu6 O10 2.509379 1_545
Eu7 O0 2.509379 1_555
Eu7 O1 2.509379 1_555
Eu7 O3 2.509379 1_455
Eu7 O2 2.509379 1_455
O0 Sb0 2.022372 1_555
O1 Sb1 2.022372 1_555
O2 Sb2 2.022372 1_555
O3 Sb3 2.022372 1_555
O4 Sb0 2.022372 1_555
O5 Sb3 2.022372 1_555
O6 Sb1 2.022372 1_555
O7 Sb2 2.022372 1_555
O8 Sb0 2.022372 1_555
O9 Sb2 2.022372 1_555
O10 Sb3 2.022372 1_555
O11 Sb1 2.022372 1_555
O12 Sb0 2.022372 1_555
O13 Sb1 2.022372 1_555
O14 Sb2 2.022372 1_555
O15 Sb3 2.022372 1_555
O16 Sb0 2.022372 1_555
O17 Sb3 2.022372 1_555
O18 Sb1 2.022372 1_555
O19 Sb2 2.022372 1_555
O20 Sb0 2.022372 1_555
O21 Sb2 2.022372 1_555
O22 Sb3 2.022372 1_555
O23 Sb1 2.022372 1_555
