# generated using pymatgen
data_ZrCoN2
_symmetry_space_group_name_H-M   'P 1'
_cell_length_a   5.90496600
_cell_length_b   7.17329800
_cell_length_c   4.41891200
_cell_angle_alpha   90.00000000
_cell_angle_beta   90.00000000
_cell_angle_gamma   90.00000000
_symmetry_Int_Tables_number   1
_chemical_formula_structural   ZrCoN2
_chemical_formula_sum   'Zr4 Co4 N8'
_cell_volume   187.17663153
_cell_formula_units_Z   4
loop_
 _symmetry_equiv_pos_site_id
 _symmetry_equiv_pos_as_xyz
  1  'x, y, z'
loop_
 _atom_site_type_symbol
 _atom_site_label
 _atom_site_symmetry_multiplicity
 _atom_site_fract_x
 _atom_site_fract_y
 _atom_site_fract_z
 _atom_site_occupancy
  Zr  Zr0  1  0.62694000  0.37857600  0.93750000  1
  Zr  Zr1  1  0.37306000  0.62142400  0.43750000  1
  Zr  Zr2  1  0.87306000  0.87857600  0.43750000  1
  Zr  Zr3  1  0.12694000  0.12142400  0.93750000  1
  Co  Co0  1  0.55817300  0.84575700  0.93749800  1
  Co  Co1  1  0.44182700  0.15424300  0.43749800  1
  Co  Co2  1  0.94182700  0.34575700  0.43749800  1
  Co  Co3  1  0.05817300  0.65424300  0.93749800  1
  N  N0  1  0.60825800  0.38692300  0.43750000  1
  N  N1  1  0.39174200  0.61307700  0.93750000  1
  N  N2  1  0.89174200  0.88692300  0.93750000  1
  N  N3  1  0.10825800  0.11307700  0.43750000  1
  N  N4  1  0.51656100  0.88952700  0.43750300  1
  N  N5  1  0.48343900  0.11047300  0.93750300  1
  N  N6  1  0.98343900  0.38952700  0.93750300  1
  N  N7  1  0.01656100  0.61047300  0.43750300  1
loop_
_geom_bond_atom_site_label_1
_geom_bond_atom_site_label_2
_geom_bond_distance
_geom_bond_site_symmetry_2
Co0 N1 1.936924 1_555
Co0 N5 1.949492 1_565
Co0 N2 1.991726 1_555
Co0 N4 2.245118 1_555
Co0 N4 2.245162 1_556
Co1 N0 1.936924 1_555
Co1 N4 1.949492 1_545
Co1 N3 1.991726 1_555
Co1 N5 2.245118 1_554
Co1 N5 2.245162 1_555
Co2 N3 1.936924 1_655
Co2 N7 1.949492 1_655
Co2 N0 1.991726 1_555
Co2 N6 2.245118 1_554
Co2 N6 2.245162 1_555
Co3 N2 1.936924 1_455
Co3 N6 1.949492 1_455
Co3 N1 1.991726 1_555
Co3 N7 2.245118 1_555
Co3 N7 2.245162 1_556
N0 Zr1 2.181394 1_555
N0 Zr0 2.213018 1_555
N0 Zr0 2.213018 1_554
N1 Zr0 2.181394 1_555
N1 Zr1 2.213018 1_555
N1 Zr1 2.213018 1_556
N2 Zr3 2.181394 1_665
N2 Zr2 2.213018 1_556
N2 Zr2 2.213018 1_555
N3 Zr2 2.181394 1_445
N3 Zr3 2.213018 1_555
N3 Zr3 2.213018 1_554
N4 Zr1 2.101586 1_555
N4 Zr2 2.106580 1_555
N5 Zr0 2.101586 1_555
N5 Zr3 2.106580 1_555
N6 Zr3 2.101586 1_655
N6 Zr0 2.106580 1_555
N7 Zr2 2.101586 1_455
N7 Zr1 2.106580 1_555
