# generated using pymatgen
data_Tb7Co6Sn23
_symmetry_space_group_name_H-M   'P 1'
_cell_length_a   9.68638751
_cell_length_b   9.68655900
_cell_length_c   9.86953881
_cell_angle_alpha   89.99905748
_cell_angle_beta   90.00193025
_cell_angle_gamma   120.00280424
_symmetry_Int_Tables_number   1
_chemical_formula_structural   Tb7Co6Sn23
_chemical_formula_sum   'Tb7 Co6 Sn23'
_cell_volume   801.94869547
_cell_formula_units_Z   1
loop_
 _symmetry_equiv_pos_site_id
 _symmetry_equiv_pos_as_xyz
  1  'x, y, z'
loop_
 _atom_site_type_symbol
 _atom_site_label
 _atom_site_symmetry_multiplicity
 _atom_site_fract_x
 _atom_site_fract_y
 _atom_site_fract_z
 _atom_site_occupancy
  Tb  Tb0  1  -0.00001945  -0.00001930  0.00003441  1
  Tb  Tb1  1  0.47787270  0.52217529  0.30631173  1
  Tb  Tb2  1  0.52221217  0.47779522  0.69370270  1
  Tb  Tb3  1  0.47787853  0.95569447  0.30631140  1
  Tb  Tb4  1  0.52218921  0.04441018  0.69370952  1
  Tb  Tb5  1  0.04429261  0.52213995  0.30630143  1
  Tb  Tb6  1  0.95557879  0.47780944  0.69370550  1
  Co  Co0  1  0.83292305  0.16706096  0.19654492  1
  Co  Co1  1  0.16706217  0.83296990  0.80347268  1
  Co  Co2  1  0.83287981  0.66582117  0.19656724  1
  Co  Co3  1  0.16710209  0.33413936  0.80345165  1
  Co  Co4  1  0.33421065  0.16712835  0.19658463  1
  Co  Co5  1  0.66583447  0.83290271  0.80343908  1
  Sn  Sn0  1  0.34698518  0.00016224  0.00004574  1
  Sn  Sn1  1  0.65313107  0.00002573  -0.00007349  1
  Sn  Sn2  1  -0.00007345  0.34684803  -0.00002296  1
  Sn  Sn3  1  -0.00015871  0.65303290  0.00005037  1
  Sn  Sn4  1  0.65314396  0.65306636  -0.00002503  1
  Sn  Sn5  1  0.34698745  0.34686618  0.00002384  1
  Sn  Sn6  1  0.33347092  0.66666828  0.81912932  1
  Sn  Sn7  1  0.66657789  0.33336728  0.18083580  1
  Sn  Sn8  1  -0.00000397  -0.00000267  0.50000122  1
  Sn  Sn9  1  0.78098894  0.21897892  0.45060189  1
  Sn  Sn10  1  0.21897032  0.78106197  0.54938114  1
  Sn  Sn11  1  0.78097760  0.56204532  0.45053406  1
  Sn  Sn12  1  0.21898553  0.43787824  0.54942557  1
  Sn  Sn13  1  0.43793908  0.21900004  0.45053062  1
  Sn  Sn14  1  0.56215080  0.78104638  0.54949210  1
  Sn  Sn15  1  0.33336435  0.66666407  0.11264190  1
  Sn  Sn16  1  0.66663832  0.33333803  0.88731921  1
  Sn  Sn17  1  0.11639475  0.88361765  0.27538428  1
  Sn  Sn18  1  0.88350318  0.11635251  0.72461152  1
  Sn  Sn19  1  0.11648291  0.23281097  0.27540555  1
  Sn  Sn20  1  0.88344084  0.76712080  0.72458743  1
  Sn  Sn21  1  0.76718276  0.88351914  0.27541063  1
  Sn  Sn22  1  0.23290448  0.11650293  0.72457137  1
loop_
_geom_bond_atom_site_label_1
_geom_bond_atom_site_label_2
_geom_bond_distance
_geom_bond_site_symmetry_2
Co0 Sn2 2.568291 1_655
Co0 Sn1 2.568728 1_555
Co0 Sn21 2.608776 1_545
Co0 Sn19 2.608832 1_655
Co0 Sn9 2.654486 1_555
Co0 Sn7 2.794863 1_555
Co0 Tb3 3.186105 1_545
Co0 Tb5 3.186338 1_655
Co0 Tb0 3.408642 1_655
Co1 Sn0 2.569294 1_566
Co1 Sn3 2.569505 1_556
Co1 Sn22 2.608523 1_565
Co1 Sn20 2.609187 1_455
Co1 Sn10 2.654709 1_555
Co1 Sn6 2.795327 1_555
Co1 Tb4 3.186773 1_565
Co1 Tb6 3.187085 1_455
Co1 Tb0 3.408617 1_566
Co2 Sn3 2.567724 1_655
Co2 Sn4 2.568199 1_555
Co2 Sn21 2.607569 1_555
Co2 Sn17 2.608340 1_655
Co2 Sn11 2.653403 1_555
Co2 Sn7 2.793131 1_555
Co2 Tb1 3.185778 1_555
Co2 Tb5 3.186493 1_655
Co2 Tb0 3.408794 1_665
Co3 Sn2 2.568864 1_556
Co3 Sn5 2.569075 1_556
Co3 Sn22 2.607785 1_555
Co3 Sn18 2.608909 1_455
Co3 Sn12 2.653853 1_555
Co3 Sn6 2.793730 1_555
Co3 Tb2 3.186642 1_555
Co3 Tb6 3.187373 1_455
Co3 Tb0 3.409069 1_556
Co4 Sn0 2.567868 1_555
Co4 Sn5 2.567960 1_555
Co4 Sn19 2.607661 1_555
Co4 Sn17 2.608361 1_545
Co4 Sn13 2.653048 1_555
Co4 Sn7 2.792370 1_555
Co4 Tb1 3.186063 1_555
Co4 Tb3 3.186563 1_545
Co4 Tb0 3.409290 1_555
Co5 Sn1 2.568228 1_566
Co5 Sn4 2.568641 1_556
Co5 Sn20 2.607281 1_555
Co5 Sn18 2.607658 1_565
Co5 Sn14 2.652934 1_555
Co5 Sn6 2.792307 1_555
Co5 Tb2 3.186638 1_555
Co5 Tb4 3.187020 1_565
Co5 Tb0 3.408964 1_666
Sn0 Tb0 3.360342 1_555
Sn0 Tb3 3.387574 1_545
Sn0 Tb4 3.387863 1_554
Sn1 Tb0 3.359937 1_655
Sn1 Tb4 3.387098 1_554
Sn1 Tb3 3.388397 1_545
Sn2 Tb0 3.360212 1_555
Sn2 Tb6 3.387570 1_454
Sn2 Tb5 3.387971 1_555
Sn3 Tb0 3.360056 1_565
Sn3 Tb5 3.387414 1_555
Sn3 Tb6 3.387985 1_454
Sn4 Tb0 3.359858 1_665
Sn4 Tb2 3.387409 1_554
Sn4 Tb1 3.387968 1_555
Sn5 Tb0 3.360543 1_555
Sn5 Tb1 3.387607 1_555
Sn5 Tb2 3.387734 1_554
Sn6 Tb2 3.401069 1_555
Sn6 Tb4 3.401910 1_565
Sn6 Tb6 3.403011 1_455
Sn7 Tb1 3.400456 1_555
Sn7 Tb3 3.401571 1_545
Sn7 Tb5 3.401775 1_655
Sn9 Tb3 3.108673 1_545
Sn9 Tb5 3.109100 1_655
Sn9 Tb4 3.265189 1_555
Sn9 Tb6 3.265304 1_555
Sn10 Tb4 3.109621 1_565
Sn10 Tb6 3.109978 1_455
Sn10 Sn17 3.205270 1_555
Sn10 Tb3 3.265532 1_555
Sn10 Tb5 3.265696 1_555
Sn11 Tb1 3.108221 1_555
Sn11 Tb5 3.109255 1_655
Sn11 Sn20 3.205500 1_555
Sn11 Tb2 3.265426 1_555
Sn11 Tb6 3.265861 1_555
Sn12 Tb2 3.109351 1_555
Sn12 Tb6 3.110387 1_455
Sn12 Sn19 3.205185 1_555
Sn12 Tb1 3.265726 1_555
Sn12 Tb5 3.266216 1_555
Sn13 Tb1 3.108667 1_555
Sn13 Tb3 3.109310 1_545
Sn13 Sn22 3.205238 1_555
Sn13 Tb2 3.265595 1_555
Sn13 Tb4 3.265938 1_555
Sn14 Tb2 3.109262 1_555
Sn14 Tb4 3.109914 1_565
Sn14 Sn21 3.205565 1_555
Sn14 Tb1 3.266121 1_555
Sn14 Tb3 3.266422 1_555
Sn15 Sn6 2.896834 1_554
Sn15 Tb1 3.087198 1_555
Sn15 Tb3 3.087395 1_555
Sn15 Tb5 3.087617 1_555
Sn16 Sn7 2.896874 1_556
Sn16 Tb2 3.086123 1_555
Sn16 Tb4 3.086354 1_555
Sn16 Tb6 3.086472 1_555
Sn17 Sn8 2.954310 1_565
Sn17 Tb5 3.224209 1_555
Sn17 Tb3 3.224284 1_555
Sn17 Tb0 3.346353 1_565
Sn18 Sn8 2.954647 1_655
Sn18 Sn9 3.205419 1_555
Sn18 Tb4 3.223078 1_555
Sn18 Tb6 3.224085 1_555
Sn18 Tb0 3.347291 1_656
Sn19 Sn8 2.954263 1_555
Sn19 Tb1 3.223464 1_555
Sn19 Tb5 3.224360 1_555
Sn19 Tb0 3.346791 1_555
Sn20 Sn8 2.954542 1_665
Sn20 Tb2 3.222305 1_555
Sn20 Tb6 3.223849 1_555
Sn20 Tb0 3.347543 1_666
Sn21 Sn8 2.954157 1_665
Sn21 Tb1 3.223032 1_555
Sn21 Tb3 3.223998 1_555
Sn21 Tb0 3.346699 1_665
Sn22 Sn8 2.954533 1_555
Sn22 Tb2 3.222669 1_555
Sn22 Tb4 3.223256 1_555
Sn22 Tb0 3.348013 1_556
