# generated using pymatgen
data_NaV2O4
_symmetry_space_group_name_H-M   'P 1'
_cell_length_a   5.19210069
_cell_length_b   5.94416701
_cell_length_c   6.62917315
_cell_angle_alpha   116.63727697
_cell_angle_beta   103.43049897
_cell_angle_gamma   89.99560242
_symmetry_Int_Tables_number   1
_chemical_formula_structural   NaV2O4
_chemical_formula_sum   'Na2 V4 O8'
_cell_volume   176.59925515
_cell_formula_units_Z   2
loop_
 _symmetry_equiv_pos_site_id
 _symmetry_equiv_pos_as_xyz
  1  'x, y, z'
loop_
 _atom_site_type_symbol
 _atom_site_label
 _atom_site_symmetry_multiplicity
 _atom_site_fract_x
 _atom_site_fract_y
 _atom_site_fract_z
 _atom_site_occupancy
  Na  Na0  1  0.74998300  0.69284200  0.00351200  1
  Na  Na1  1  0.25006900  0.31040600  0.00351900  1
  V  V0  1  0.75335300  0.61982400  0.49288900  1
  V  V1  1  0.74830300  0.12771800  0.50594700  1
  V  V2  1  0.24825700  0.37830200  0.50598400  1
  V  V3  1  0.25342200  0.87309500  0.49273500  1
  O  O0  1  0.03404600  0.52863900  0.31107000  1
  O  O1  1  0.47373700  0.22529100  0.68917000  1
  O  O2  1  0.97368000  0.46381600  0.68907500  1
  O  O3  1  0.53411200  0.78243200  0.31095300  1
  O  O4  1  0.46001000  0.69689000  0.67451100  1
  O  O5  1  0.03051100  0.05377000  0.32301700  1
  O  O6  1  0.53043300  0.26931300  0.32309900  1
  O  O7  1  0.96008500  0.97766100  0.67451800  1
loop_
_geom_bond_atom_site_label_1
_geom_bond_atom_site_label_2
_geom_bond_distance
_geom_bond_site_symmetry_2
Na0 O4 2.354950 1_554
Na0 O5 2.388142 1_665
Na0 O3 2.404464 1_555
Na0 O2 2.475305 1_554
Na0 O1 2.746396 1_554
Na0 O0 2.769874 1_655
Na1 O7 2.354292 1_444
Na1 O6 2.387112 1_555
Na1 O0 2.405837 1_555
Na1 O1 2.475043 1_554
Na1 O2 2.747859 1_454
Na1 O3 2.770918 1_555
O0 V2 2.018114 1_555
O0 V3 2.022891 1_555
O0 V0 2.024995 1_455
O1 V2 2.000577 1_555
O1 V1 2.004117 1_555
O1 V3 2.061776 1_545
O2 V1 2.000021 1_555
O2 V2 2.003609 1_655
O2 V0 2.061599 1_555
O3 V1 2.018366 1_565
O3 V0 2.022885 1_555
O3 V3 2.024824 1_555
O4 V2 1.890979 1_555
O4 V3 2.056884 1_555
O4 V0 2.082399 1_555
O5 V2 1.932855 1_555
O5 V1 2.039143 1_455
O5 V3 2.058428 1_545
O6 V1 1.932611 1_555
O6 V2 2.038805 1_555
O6 V0 2.059093 1_555
O7 V1 1.891110 1_565
O7 V0 2.056626 1_555
O7 V3 2.083020 1_655
