# generated using pymatgen
data_Ba2YCoO5
_symmetry_space_group_name_H-M   'P 1'
_cell_length_a   6.11339284
_cell_length_b   7.90624052
_cell_length_c   12.40446925
_cell_angle_alpha   91.70350699
_cell_angle_beta   90.00000000
_cell_angle_gamma   90.00000000
_symmetry_Int_Tables_number   1
_chemical_formula_structural   Ba2YCoO5
_chemical_formula_sum   'Ba8 Y4 Co4 O20'
_cell_volume   599.29206951
_cell_formula_units_Z   4
loop_
 _symmetry_equiv_pos_site_id
 _symmetry_equiv_pos_as_xyz
  1  'x, y, z'
loop_
 _atom_site_type_symbol
 _atom_site_label
 _atom_site_symmetry_multiplicity
 _atom_site_fract_x
 _atom_site_fract_y
 _atom_site_fract_z
 _atom_site_occupancy
  Ba  Ba0  1  0.75838616  0.49072633  0.36016752  1
  Ba  Ba1  1  0.74161384  0.99072633  0.86016752  1
  Ba  Ba2  1  0.24161384  0.50927367  0.63983248  1
  Ba  Ba3  1  0.25838616  0.00927367  0.13983248  1
  Ba  Ba4  1  0.75389106  0.99252409  0.38481513  1
  Ba  Ba5  1  0.74610894  0.49252409  0.88481513  1
  Ba  Ba6  1  0.24610894  0.00747591  0.61518487  1
  Ba  Ba7  1  0.25389106  0.50747591  0.11518487  1
  Y  Y0  1  0.74799200  0.26419569  0.62857237  1
  Y  Y1  1  0.75200800  0.76419569  0.12857237  1
  Y  Y2  1  0.25200800  0.73580431  0.37142763  1
  Y  Y3  1  0.24799200  0.23580431  0.87142763  1
  Co  Co0  1  0.74182381  0.74621457  0.59341160  1
  Co  Co1  1  0.75817619  0.24621457  0.09341160  1
  Co  Co2  1  0.25817619  0.25378543  0.40658840  1
  Co  Co3  1  0.24182381  0.75378543  0.90658840  1
  O  O0  1  0.75530580  0.97145404  0.63224766  1
  O  O1  1  0.74469420  0.47145404  0.13224766  1
  O  O2  1  0.24469420  0.02854596  0.36775234  1
  O  O3  1  0.25530580  0.52854596  0.86775234  1
  O  O4  1  0.73776564  0.05604365  0.17109255  1
  O  O5  1  0.76223436  0.55604365  0.67109255  1
  O  O6  1  0.26223436  0.94395635  0.82890745  1
  O  O7  1  0.23776564  0.44395635  0.32890745  1
  O  O8  1  0.53980342  0.74657823  0.26942209  1
  O  O9  1  0.96019658  0.24657823  0.76942209  1
  O  O10  1  0.46019658  0.25342177  0.73057791  1
  O  O11  1  0.03980342  0.75342177  0.23057791  1
  O  O12  1  0.52921671  0.22917870  0.98897118  1
  O  O13  1  0.97078329  0.72917870  0.48897118  1
  O  O14  1  0.47078329  0.77082130  0.01102882  1
  O  O15  1  0.02921671  0.27082130  0.51102882  1
  O  O16  1  0.02772355  0.23329471  0.01799838  1
  O  O17  1  0.47227645  0.73329471  0.51799838  1
  O  O18  1  0.97227645  0.76670529  0.98200162  1
  O  O19  1  0.52772355  0.26670529  0.48200162  1
loop_
_geom_bond_atom_site_label_1
_geom_bond_atom_site_label_2
_geom_bond_distance
_geom_bond_site_symmetry_2
Ba0 O8 2.698137 1_555
Ba0 O19 2.751114 1_555
Ba0 O13 2.759333 1_555
Ba0 O1 2.828040 1_555
Ba0 O7 2.977783 1_655
Ba0 O15 3.075636 1_655
Ba0 O11 3.171120 1_655
Ba0 O17 3.216691 1_555
Ba0 O7 3.226223 1_555
Ba1 O9 2.698137 1_565
Ba1 O18 2.751114 1_555
Ba1 O12 2.759333 1_565
Ba1 O0 2.828040 1_555
Ba1 O6 2.977783 1_555
Ba1 O14 3.075636 1_556
Ba1 O10 3.171120 1_565
Ba1 O16 3.216691 1_666
Ba1 O6 3.226223 1_655
Ba2 O10 2.698137 1_555
Ba2 O17 2.751114 1_555
Ba2 O15 2.759333 1_555
Ba2 O3 2.828040 1_555
Ba2 O5 2.977783 1_455
Ba2 O13 3.075636 1_455
Ba2 O9 3.171120 1_455
Ba2 O19 3.216691 1_555
Ba2 O5 3.226223 1_555
Ba3 O11 2.698137 1_545
Ba3 O16 2.751114 1_555
Ba3 O14 2.759333 1_545
Ba3 O2 2.828040 1_555
Ba3 O4 2.977783 1_555
Ba3 O12 3.075636 1_554
Ba3 O8 3.171120 1_545
Ba3 O18 3.216691 1_444
Ba3 O4 3.226223 1_455
Ba4 O4 2.714681 1_565
Ba4 O8 2.716148 1_555
Ba4 O19 2.812259 1_565
Ba4 O13 2.814669 1_555
Ba4 O2 3.021974 1_665
Ba4 O0 3.078740 1_555
Ba4 O2 3.133650 1_565
Ba4 O15 3.149709 1_665
Ba4 O11 3.173983 1_655
Ba4 O17 3.177293 1_555
Ba5 O5 2.714681 1_555
Ba5 O9 2.716148 1_555
Ba5 O18 2.812259 1_555
Ba5 O12 2.814669 1_555
Ba5 O3 3.021974 1_555
Ba5 O1 3.078740 1_556
Ba5 O3 3.133650 1_655
Ba5 O14 3.149709 1_556
Ba5 O10 3.173983 1_555
Ba5 O16 3.177293 1_656
Ba6 O6 2.714681 1_545
Ba6 O10 2.716148 1_555
Ba6 O17 2.812259 1_545
Ba6 O15 2.814669 1_555
Ba6 O0 3.021974 1_445
Ba6 O2 3.078740 1_555
Ba6 O0 3.133650 1_545
Ba6 O13 3.149709 1_445
Ba6 O9 3.173983 1_455
Ba6 O19 3.177293 1_555
Ba7 O7 2.714681 1_555
Ba7 O11 2.716148 1_555
Ba7 O16 2.812259 1_555
Ba7 O14 2.814669 1_555
Ba7 O1 3.021974 1_555
Ba7 O3 3.078740 1_554
Ba7 O1 3.133650 1_455
Ba7 O12 3.149709 1_554
Ba7 O8 3.173983 1_555
Ba7 O18 3.177293 1_454
Co0 O5 1.814067 1_555
Co0 O0 1.832785 1_555
Co0 O17 1.896113 1_555
Co0 O13 1.909286 1_555
Co1 O4 1.814067 1_555
Co1 O1 1.832785 1_555
Co1 O16 1.896113 1_655
Co1 O12 1.909286 1_554
Co2 O7 1.814067 1_555
Co2 O2 1.832785 1_555
Co2 O19 1.896113 1_555
Co2 O15 1.909286 1_555
Co3 O6 1.814067 1_555
Co3 O3 1.832785 1_555
Co3 O18 1.896113 1_455
Co3 O14 1.909286 1_556
O0 Y0 2.316721 1_565
O1 Y1 2.316721 1_555
O2 Y2 2.316721 1_545
O3 Y3 2.316721 1_555
O4 Y1 2.353211 1_545
O5 Y0 2.353211 1_555
O6 Y3 2.353211 1_565
O7 Y2 2.353211 1_555
O8 Y2 2.170304 1_555
O8 Y1 2.183900 1_555
O9 Y3 2.170304 1_655
O9 Y0 2.183900 1_555
O10 Y0 2.170304 1_555
O10 Y3 2.183900 1_555
O11 Y1 2.170304 1_455
O11 Y2 2.183900 1_555
O12 Y3 2.255885 1_555
O13 Y2 2.255885 1_655
O14 Y1 2.255885 1_555
O15 Y0 2.255885 1_455
O16 Y3 2.263060 1_554
O17 Y2 2.263060 1_555
O18 Y1 2.263060 1_556
O19 Y0 2.263060 1_555
