# generated using pymatgen
data_Li2Zr4As3(PO8)3
_symmetry_space_group_name_H-M   'P 1'
_cell_length_a   9.11712384
_cell_length_b   9.17632375
_cell_length_c   12.88263591
_cell_angle_alpha   90.00000000
_cell_angle_beta   91.20815429
_cell_angle_gamma   90.00000000
_symmetry_Int_Tables_number   1
_chemical_formula_structural   Li2Zr4As3(PO8)3
_chemical_formula_sum   'Li4 Zr8 As6 P6 O48'
_cell_volume   1077.54336397
_cell_formula_units_Z   2
loop_
 _symmetry_equiv_pos_site_id
 _symmetry_equiv_pos_as_xyz
  1  'x, y, z'
loop_
 _atom_site_type_symbol
 _atom_site_label
 _atom_site_symmetry_multiplicity
 _atom_site_fract_x
 _atom_site_fract_y
 _atom_site_fract_z
 _atom_site_occupancy
  Li  Li0  1  0.18376067  0.72014799  0.16628345  1
  Li  Li1  1  0.68376067  0.77985201  0.66628345  1
  Li  Li2  1  0.79805955  0.28933760  0.84179913  1
  Li  Li3  1  0.29805955  0.21066240  0.34179913  1
  Zr  Zr0  1  0.75861436  0.51760029  0.11510802  1
  Zr  Zr1  1  0.25861436  0.98239971  0.61510802  1
  Zr  Zr2  1  0.24493907  0.47462192  0.88308530  1
  Zr  Zr3  1  0.74493907  0.02537808  0.38308530  1
  Zr  Zr4  1  0.74142255  0.95769533  0.88354268  1
  Zr  Zr5  1  0.24142255  0.54230467  0.38354268  1
  Zr  Zr6  1  0.26195275  0.04966793  0.11618248  1
  Zr  Zr7  1  0.76195275  0.45033207  0.61618248  1
  As  As0  1  0.89806189  0.88342298  0.14615811  1
  As  As1  1  0.39806189  0.61657702  0.64615811  1
  As  As2  1  0.10143118  0.11604074  0.85296439  1
  As  As3  1  0.60143118  0.38395926  0.35296439  1
  As  As4  1  0.46715213  0.75459870  0.01109090  1
  As  As5  1  0.96715213  0.74540130  0.51109090  1
  P  P0  1  0.53358243  0.24818500  0.98952054  1
  P  P1  1  0.03358243  0.25181500  0.48952054  1
  P  P2  1  0.88515003  0.59898257  0.85684379  1
  P  P3  1  0.38515003  0.90101743  0.35684379  1
  P  P4  1  0.11810738  0.40043590  0.14349107  1
  P  P5  1  0.61810738  0.09956410  0.64349107  1
  O  O0  1  0.82213741  0.54261970  0.95934335  1
  O  O1  1  0.32213741  0.95738030  0.45934335  1
  O  O2  1  0.17828454  0.44920963  0.03856237  1
  O  O3  1  0.67828454  0.05079037  0.53856237  1
  O  O4  1  0.84579609  0.92884809  0.02213553  1
  O  O5  1  0.34579609  0.57115191  0.52213553  1
  O  O6  1  0.15401304  0.07243448  0.97696317  1
  O  O7  1  0.65401304  0.42756552  0.47696317  1
  O  O8  1  0.81732903  0.75038800  0.82839724  1
  O  O9  1  0.31732903  0.74961200  0.32839724  1
  O  O10  1  0.18510002  0.25071886  0.17649961  1
  O  O11  1  0.68510002  0.24928114  0.67649961  1
  O  O12  1  0.66648926  0.98172499  0.72491120  1
  O  O13  1  0.16648926  0.51827501  0.22491120  1
  O  O14  1  0.33786927  0.01671248  0.27300536  1
  O  O15  1  0.83786927  0.48328752  0.77300536  1
  O  O16  1  0.54666331  0.88119626  0.93412465  1
  O  O17  1  0.04666331  0.61880374  0.43412465  1
  O  O18  1  0.45152920  0.13721420  0.05823992  1
  O  O19  1  0.95152920  0.36278580  0.55823992  1
  O  O20  1  0.64855600  0.16963240  0.92061951  1
  O  O21  1  0.14855600  0.33036760  0.42061951  1
  O  O22  1  0.33558634  0.83249097  0.08670290  1
  O  O23  1  0.83558634  0.66750903  0.58670290  1
  O  O24  1  0.88984156  0.69885840  0.16075608  1
  O  O25  1  0.38984156  0.80114160  0.66075608  1
  O  O26  1  0.12333677  0.29715895  0.83186471  1
  O  O27  1  0.62333677  0.20284105  0.33186471  1
  O  O28  1  0.61996021  0.35241862  0.06238660  1
  O  O29  1  0.11996021  0.14758138  0.56238660  1
  O  O30  1  0.38038664  0.64129043  0.92652218  1
  O  O31  1  0.88038664  0.85870957  0.42652218  1
  O  O32  1  0.69328978  0.48945924  0.26848766  1
  O  O33  1  0.19328978  0.01054076  0.76848766  1
  O  O34  1  0.29859235  0.51438784  0.72865545  1
  O  O35  1  0.79859235  0.98561216  0.22865545  1
  O  O36  1  0.91475109  0.09666413  0.83855841  1
  O  O37  1  0.41475109  0.40333587  0.33855841  1
  O  O38  1  0.08170323  0.91793740  0.16489667  1
  O  O39  1  0.58170323  0.58206260  0.66489667  1
  O  O40  1  0.59073684  0.67109179  0.09083524  1
  O  O41  1  0.09073684  0.82890821  0.59083524  1
  O  O42  1  0.42278386  0.32986004  0.91927455  1
  O  O43  1  0.92278386  0.17013996  0.41927455  1
  O  O44  1  0.94968415  0.39028122  0.13885149  1
  O  O45  1  0.44968415  0.10971878  0.63885149  1
  O  O46  1  0.05334604  0.60713886  0.86333629  1
  O  O47  1  0.55334604  0.89286114  0.36333629  1
loop_
_geom_bond_atom_site_label_1
_geom_bond_atom_site_label_2
_geom_bond_distance
_geom_bond_site_symmetry_2
Li0 O13 2.007943 1_555
Li0 O22 2.022297 1_555
Li0 O38 2.039496 1_555
Li0 O9 2.410483 1_555
Li1 O12 2.007943 1_555
Li1 O23 2.022297 1_555
Li1 O39 2.039496 1_555
Li1 O8 2.410483 1_555
Li2 O15 2.024408 1_555
Li2 O20 2.038116 1_555
Li2 O36 2.064322 1_555
Li2 O11 2.374446 1_555
Li3 O14 2.024408 1_555
Li3 O21 2.038116 1_555
Li3 O37 2.064322 1_555
Li3 O10 2.374446 1_555
As0 O35 1.694667 1_555
As0 O24 1.705855 1_555
As0 O4 1.709233 1_555
As0 O38 1.716029 1_655
As1 O34 1.694667 1_555
As1 O25 1.705855 1_555
As1 O5 1.709233 1_555
As1 O39 1.716029 1_555
As2 O33 1.691567 1_555
As2 O26 1.696556 1_555
As2 O6 1.705705 1_555
As2 O36 1.717409 1_455
As3 O32 1.691567 1_555
As3 O27 1.696556 1_555
As3 O7 1.705705 1_555
As3 O37 1.717409 1_555
As4 O30 1.690399 1_554
As4 O40 1.692129 1_555
As4 O16 1.699554 1_554
As4 O22 1.716916 1_555
As5 O31 1.690399 1_555
As5 O41 1.692129 1_655
As5 O17 1.699554 1_655
As5 O23 1.716916 1_555
O0 P2 1.540506 1_555
O0 Zr0 2.112773 1_556
O1 P3 1.540506 1_555
O1 Zr1 2.112773 1_555
O2 P4 1.536179 1_555
O2 Zr2 2.118214 1_554
O3 P5 1.536179 1_555
O3 Zr3 2.118214 1_555
O4 Zr4 2.022806 1_554
O5 Zr5 2.022806 1_555
O6 Zr6 2.038223 1_556
O7 Zr7 2.038223 1_555
O8 P2 1.561204 1_555
O8 Zr4 2.150157 1_555
O9 P3 1.561204 1_555
O9 Zr5 2.150157 1_555
O10 P4 1.558973 1_555
O10 Zr6 2.126356 1_555
O11 P5 1.558973 1_555
O11 Zr7 2.126356 1_555
O12 P5 1.563502 1_565
O12 Zr4 2.152381 1_555
O13 P4 1.563502 1_555
O13 Zr5 2.152381 1_555
O14 P3 1.568383 1_545
O14 Zr6 2.143157 1_555
O15 P2 1.568383 1_555
O15 Zr7 2.143157 1_555
O16 Zr4 2.029557 1_555
O17 Zr5 2.029557 1_555
O18 P0 1.551851 1_554
O18 Zr6 2.060173 1_555
O19 P1 1.551851 1_655
O19 Zr7 2.060173 1_555
O20 P0 1.563805 1_555
O20 Zr4 2.178146 1_545
O21 P1 1.563805 1_555
O21 Zr5 2.178146 1_555
O22 Zr6 2.139452 1_565
O23 Zr7 2.139452 1_555
O24 Zr0 2.124635 1_555
O25 Zr1 2.124635 1_555
O26 Zr2 2.070162 1_555
O27 Zr3 2.070162 1_555
O28 P0 1.544356 1_554
O28 Zr0 2.078615 1_555
O29 P1 1.544356 1_555
O29 Zr1 2.078615 1_545
O30 Zr2 2.036671 1_555
O31 Zr3 2.036671 1_565
O32 Zr0 2.091729 1_555
O33 Zr1 2.091729 1_545
O34 Zr2 2.090799 1_555
O35 Zr3 2.090799 1_565
O36 Zr4 2.120817 1_545
O37 Zr5 2.120817 1_555
O38 Zr6 2.144564 1_565
O39 Zr7 2.144564 1_555
O40 Zr0 2.098583 1_555
O41 Zr1 2.098583 1_555
O42 P0 1.537055 1_555
O42 Zr2 2.139888 1_555
O43 P1 1.537055 1_655
O43 Zr3 2.139888 1_555
O44 P4 1.538263 1_655
O44 Zr0 2.114392 1_555
O45 P5 1.538263 1_555
O45 Zr1 2.114392 1_545
O46 P2 1.535806 1_455
O46 Zr2 2.139140 1_555
O47 P3 1.535806 1_555
O47 Zr3 2.139140 1_565
