# generated using pymatgen
data_Zn3Sb2H42(S4N7)2
_symmetry_space_group_name_H-M   'P 1'
_cell_length_a   8.15470100
_cell_length_b   8.69670180
_cell_length_c   13.52014336
_cell_angle_alpha   84.22325851
_cell_angle_beta   88.36965184
_cell_angle_gamma   74.34901019
_symmetry_Int_Tables_number   1
_chemical_formula_structural   Zn3Sb2H42(S4N7)2
_chemical_formula_sum   'Zn3 Sb2 H42 S8 N14'
_cell_volume   918.59462316
_cell_formula_units_Z   1
loop_
 _symmetry_equiv_pos_site_id
 _symmetry_equiv_pos_as_xyz
  1  'x, y, z'
loop_
 _atom_site_type_symbol
 _atom_site_label
 _atom_site_symmetry_multiplicity
 _atom_site_fract_x
 _atom_site_fract_y
 _atom_site_fract_z
 _atom_site_occupancy
  Zn  Zn0  1  0.85771700  0.27033900  0.03519400  1
  Zn  Zn1  1  0.14228300  0.72966100  0.96480600  1
  Zn  Zn2  1  0.50000000  0.00000000  0.50000000  1
  Sb  Sb0  1  0.77151600  0.33182900  0.76882400  1
  Sb  Sb1  1  0.22848400  0.66817100  0.23117600  1
  H  H0  1  0.94774800  0.25231400  0.21947000  1
  H  H1  1  0.05225200  0.74768600  0.78053000  1
  H  H2  1  0.07352100  0.09432200  0.16677300  1
  H  H3  1  0.92647900  0.90567800  0.83322700  1
  H  H4  1  0.10974700  0.27193900  0.14819700  1
  H  H5  1  0.89025300  0.72806100  0.85180300  1
  H  H6  1  0.64268500  0.12750200  0.98804700  1
  H  H7  1  0.35731500  0.87249800  0.01195300  1
  H  H8  1  0.74415600  0.02306700  0.08979900  1
  H  H9  1  0.25584400  0.97693300  0.91020100  1
  H  H10  1  0.58353900  0.18720900  0.10070600  1
  H  H11  1  0.41646100  0.81279100  0.89929400  1
  H  H12  1  0.67584700  0.55226100  0.97978300  1
  H  H13  1  0.32415300  0.44773900  0.02021700  1
  H  H14  1  0.61465800  0.51043500  0.09657700  1
  H  H15  1  0.38534200  0.48956500  0.90342300  1
  H  H16  1  0.79168100  0.56804600  0.07571100  1
  H  H17  1  0.20831900  0.43195400  0.92428900  1
  H  H18  1  0.83482900  0.86512100  0.54049300  1
  H  H19  1  0.16517100  0.13487900  0.45950700  1
  H  H20  1  0.72909000  0.85393900  0.64534900  1
  H  H21  1  0.27091000  0.14606100  0.35465100  1
  H  H22  1  0.77328200  0.02402700  0.60369000  1
  H  H23  1  0.22671800  0.97597300  0.39631000  1
  H  H24  1  0.77636600  0.93757600  0.36549000  1
  H  H25  1  0.22363400  0.06242400  0.63451000  1
  H  H26  1  0.65586500  0.12047200  0.33396300  1
  H  H27  1  0.34413500  0.87952800  0.66603700  1
  H  H28  1  0.59462700  0.96368600  0.30673800  1
  H  H29  1  0.40537300  0.03631400  0.69326200  1
  H  H30  1  0.43328000  0.32840200  0.44418300  1
  H  H31  1  0.56672000  0.67159800  0.55581700  1
  H  H32  1  0.37972300  0.30148800  0.56153300  1
  H  H33  1  0.62027700  0.69851200  0.43846700  1
  H  H34  1  0.58018000  0.28390400  0.53285800  1
  H  H35  1  0.41982000  0.71609600  0.46714200  1
  H  H36  1  0.81091000  0.37386900  0.39890200  1
  H  H37  1  0.18909000  0.62613100  0.60109800  1
  H  H38  1  0.69553500  0.44775700  0.29838700  1
  H  H39  1  0.30446500  0.55224300  0.70161300  1
  H  H40  1  0.87835900  0.48825100  0.31370400  1
  H  H41  1  0.12164100  0.51174900  0.68629600  1
  S  S0  1  0.00460100  0.25208900  0.88840500  1
  S  S1  1  0.99539900  0.74791100  0.11159500  1
  S  S2  1  0.59390400  0.16317100  0.80859200  1
  S  S3  1  0.40609600  0.83682900  0.19140800  1
  S  S4  1  0.62627900  0.60288300  0.78753900  1
  S  S5  1  0.37372100  0.39711700  0.21246100  1
  S  S6  1  0.90025600  0.29972400  0.61286600  1
  S  S7  1  0.09974400  0.70027600  0.38713400  1
  N  N0  1  0.01472100  0.21478600  0.15558700  1
  N  N1  1  0.98527900  0.78521400  0.84441300  1
  N  N2  1  0.68581600  0.13652200  0.05790400  1
  N  N3  1  0.31418400  0.86347800  0.94209600  1
  N  N4  1  0.71794500  0.50164500  0.05009300  1
  N  N5  1  0.28205500  0.49835500  0.94990700  1
  N  N6  1  0.73782200  0.92779000  0.58246700  1
  N  N7  1  0.26217800  0.07221000  0.41753300  1
  N  N8  1  0.65261300  0.00649300  0.36018200  1
  N  N9  1  0.34738700  0.99350700  0.63981800  1
  N  N10  1  0.47161800  0.26013800  0.51011300  1
  N  N11  1  0.52838200  0.73986200  0.48988700  1
  N  N12  1  0.81801800  0.39875200  0.32351300  1
  N  N13  1  0.18198200  0.60124800  0.67648700  1
loop_
_geom_bond_atom_site_label_1
_geom_bond_atom_site_label_2
_geom_bond_distance
_geom_bond_site_symmetry_2
H0 N0 1.041400 1_655
H1 N1 1.041400 1_455
H2 N0 1.025441 1_555
H3 N1 1.025441 1_555
H4 N0 1.025149 1_555
H5 N1 1.025149 1_555
H6 N2 1.034698 1_556
H7 N3 1.034698 1_554
H8 N2 1.028875 1_555
H9 N3 1.028875 1_555
H10 N2 1.024858 1_555
H11 N3 1.024858 1_555
H12 N4 1.033471 1_556
H13 N5 1.033471 1_554
H14 N4 1.027159 1_555
H15 N5 1.027159 1_555
H16 N4 1.026866 1_555
H17 N5 1.026866 1_555
H18 N6 1.024190 1_555
H19 N7 1.024190 1_555
H20 N6 1.025512 1_555
H21 N7 1.025512 1_555
H22 N6 1.024730 1_545
H23 N7 1.024730 1_565
H24 N8 1.025626 1_565
H25 N9 1.025626 1_545
H26 N8 1.025590 1_555
H27 N9 1.025590 1_555
H28 N8 1.026094 1_565
H29 N9 1.026094 1_545
H30 N10 1.026614 1_555
H31 N11 1.026614 1_555
H32 N10 1.024440 1_555
H33 N11 1.024440 1_555
H34 N10 1.023736 1_555
H35 N11 1.023736 1_555
H36 N12 1.023770 1_555
H37 N13 1.023770 1_555
H38 N12 1.027203 1_555
H39 N13 1.027203 1_555
H40 N12 1.023567 1_555
H41 N13 1.023567 1_555
S0 Zn0 2.285638 1_456
S0 Sb0 2.438354 1_455
S1 Zn1 2.285638 1_654
S1 Sb1 2.438354 1_655
S2 Sb0 2.341251 1_555
S3 Sb1 2.341251 1_555
S4 Sb0 2.370684 1_555
S5 Sb1 2.370684 1_555
S6 Sb0 2.336792 1_555
S7 Sb1 2.336792 1_555
N0 Zn0 2.036829 1_455
N1 Zn1 2.036829 1_655
N2 Zn0 2.048771 1_555
N3 Zn1 2.048771 1_555
N4 Zn0 2.053694 1_555
N5 Zn1 2.053694 1_555
N6 Zn2 2.173392 1_565
N7 Zn2 2.173392 1_555
N8 Zn2 2.237861 1_555
N9 Zn2 2.237861 1_565
N10 Zn2 2.228993 1_555
N11 Zn2 2.228993 1_565
