# generated using pymatgen
data_Be15(Nb3Ni4)2
_symmetry_space_group_name_H-M   'P 1'
_cell_length_a   7.55218862
_cell_length_b   7.55219457
_cell_length_c   7.55219729
_cell_angle_alpha   60.00114799
_cell_angle_beta   60.00111389
_cell_angle_gamma   60.00111324
_symmetry_Int_Tables_number   1
_chemical_formula_structural   Be15(Nb3Ni4)2
_chemical_formula_sum   'Be15 Nb6 Ni8'
_cell_volume   304.58983421
_cell_formula_units_Z   1
loop_
 _symmetry_equiv_pos_site_id
 _symmetry_equiv_pos_as_xyz
  1  'x, y, z'
loop_
 _atom_site_type_symbol
 _atom_site_label
 _atom_site_symmetry_multiplicity
 _atom_site_fract_x
 _atom_site_fract_y
 _atom_site_fract_z
 _atom_site_occupancy
  Be  Be0  1  0.32613005  0.32612743  0.32612832  1
  Be  Be1  1  0.67387188  0.67386922  0.67387622  1
  Be  Be2  1  0.32613283  0.32613128  0.02160510  1
  Be  Be3  1  0.32613275  0.02160528  0.32613107  1
  Be  Be4  1  0.67386707  0.67386383  0.97839510  1
  Be  Be5  1  0.67386442  0.97839664  0.67386824  1
  Be  Be6  1  0.02160474  0.32613156  0.32613250  1
  Be  Be7  1  0.97839632  0.67386213  0.67386933  1
  Be  Be8  1  0.49998363  0.00000348  0.00000156  1
  Be  Be9  1  -0.00000266  0.49999570  0.50001328  1
  Be  Be10  1  -0.00000069  0.49997897  -0.00000047  1
  Be  Be11  1  0.49999820  -0.00000051  0.50000564  1
  Be  Be12  1  0.00000447  0.00000400  0.49998569  1
  Be  Be13  1  0.50001172  0.49999892  0.99999492  1
  Be  Be14  1  0.00000297  0.00001266  -0.00000061  1
  Nb  Nb0  1  0.70348699  0.29652383  0.29650978  1
  Nb  Nb1  1  0.29652386  0.70347625  0.70347908  1
  Nb  Nb2  1  0.29652506  0.70348244  0.29651614  1
  Nb  Nb3  1  0.70347965  0.29652393  0.70348320  1
  Nb  Nb4  1  0.29651125  0.29651787  0.70349090  1
  Nb  Nb5  1  0.70347492  0.70347563  0.29652187  1
  Ni  Ni0  1  0.12229026  0.12229292  0.12227620  1
  Ni  Ni1  1  0.87770656  0.87771280  0.87771676  1
  Ni  Ni2  1  0.12227841  0.12228150  0.63315821  1
  Ni  Ni3  1  0.12228760  0.63314775  0.12227310  1
  Ni  Ni4  1  0.87772111  0.87772653  0.36684468  1
  Ni  Ni5  1  0.87771861  0.36684730  0.87772873  1
  Ni  Ni6  1  0.63314898  0.12228948  0.12227173  1
  Ni  Ni7  1  0.36685103  0.87772116  0.87772573  1
loop_
_geom_bond_atom_site_label_1
_geom_bond_atom_site_label_2
_geom_bond_distance
_geom_bond_site_symmetry_2
Be0 Be11 2.184242 1_555
Be0 Be9 2.184279 1_555
Be0 Be13 2.184284 1_554
Be0 Be3 2.299790 1_555
Be0 Be2 2.299794 1_555
Be0 Be6 2.299801 1_555
Be0 Ni6 2.312434 1_555
Be0 Ni3 2.312451 1_555
Be0 Ni2 2.312475 1_555
Be0 Nb0 2.645224 1_555
Be0 Nb2 2.645227 1_555
Be0 Nb4 2.645250 1_555
Be1 Be13 2.184168 1_555
Be1 Be9 2.184208 1_655
Be1 Be11 2.184248 1_565
Be1 Be4 2.299748 1_555
Be1 Be7 2.299773 1_555
Be1 Be5 2.299792 1_555
Be1 Ni5 2.312461 1_555
Be1 Ni7 2.312465 1_555
Be1 Ni4 2.312513 1_555
Be1 Nb3 2.645162 1_555
Be1 Nb1 2.645195 1_555
Be1 Nb5 2.645247 1_555
Be2 Be8 2.184192 1_555
Be2 Be3 2.299880 1_555
Be2 Be6 2.299891 1_555
Be2 Ni0 2.312325 1_555
Be2 Ni6 2.312370 1_555
Be2 Ni3 2.312378 1_555
Be2 Nb4 2.645114 1_554
Be2 Nb3 2.645177 1_554
Be2 Nb1 2.645184 1_554
Be3 Be8 2.184199 1_555
Be3 Be6 2.299886 1_555
Be3 Ni0 2.312387 1_555
Be3 Ni6 2.312436 1_555
Be3 Ni2 2.312476 1_555
Be3 Nb2 2.645123 1_545
Be3 Nb5 2.645180 1_545
Be3 Nb1 2.645207 1_545
Be4 Be8 2.184277 1_566
Be4 Be7 2.299889 1_555
Be4 Be5 2.299909 1_555
Be4 Ni1 2.312354 1_555
Be4 Ni5 2.312372 1_555
Be4 Ni7 2.312379 1_555
Be4 Nb0 2.645127 1_556
Be4 Nb5 2.645141 1_556
Be4 Nb2 2.645153 1_556
Be5 Be8 2.184237 1_566
Be5 Be7 2.299932 1_555
Be5 Ni1 2.312354 1_555
Be5 Ni7 2.312385 1_555
Be5 Ni4 2.312431 1_555
Be5 Nb3 2.645190 1_565
Be5 Nb4 2.645202 1_565
Be5 Nb0 2.645247 1_565
Be6 Be9 2.184232 1_555
Be6 Ni0 2.312377 1_555
Be6 Ni3 2.312432 1_555
Be6 Ni2 2.312459 1_555
Be6 Nb0 2.645118 1_455
Be6 Nb5 2.645190 1_455
Be6 Nb3 2.645205 1_455
Be7 Be9 2.184111 1_655
Be7 Ni1 2.312387 1_555
Be7 Ni5 2.312404 1_555
Be7 Ni4 2.312458 1_555
Be7 Nb4 2.645144 1_655
Be7 Nb1 2.645162 1_655
Be7 Nb2 2.645227 1_655
Be8 Ni7 2.329431 1_544
Be8 Ni0 2.329496 1_555
Be8 Ni6 2.329623 1_555
Be8 Ni1 2.329680 1_544
Be8 Nb2 2.715878 1_545
Be8 Nb4 2.715883 1_554
Be8 Nb5 2.716027 1_545
Be8 Nb3 2.716039 1_554
Be9 Ni2 2.329630 1_555
Be9 Ni5 2.329639 1_455
Be9 Ni4 2.329735 1_455
Be9 Ni3 2.329790 1_555
Be9 Nb4 2.715904 1_555
Be9 Nb3 2.715904 1_455
Be9 Nb2 2.716018 1_555
Be9 Nb5 2.716027 1_455
Be10 Be7 2.184208 1_454
Be10 Be4 2.184222 1_454
Be10 Be6 2.184232 1_555
Be10 Be2 2.184233 1_555
Be10 Ni5 2.329384 1_454
Be10 Ni0 2.329453 1_555
Be10 Ni3 2.329680 1_555
Be10 Ni1 2.329750 1_454
Be10 Nb0 2.715812 1_455
Be10 Nb4 2.715820 1_554
Be10 Nb5 2.716056 1_455
Be10 Nb1 2.716067 1_554
Be11 Be5 2.184144 1_545
Be11 Be3 2.184206 1_555
Be11 Ni2 2.329662 1_555
Be11 Ni7 2.329667 1_545
Be11 Ni4 2.329682 1_545
Be11 Ni6 2.329752 1_555
Be11 Nb1 2.715949 1_545
Be11 Nb4 2.715963 1_555
Be11 Nb5 2.715999 1_545
Be11 Nb0 2.716010 1_555
Be12 Be6 2.184183 1_555
Be12 Be3 2.184188 1_555
Be12 Be5 2.184280 1_445
Be12 Be7 2.184296 1_445
Be12 Ni4 2.329500 1_445
Be12 Ni0 2.329599 1_555
Be12 Ni2 2.329639 1_555
Be12 Ni1 2.329732 1_445
Be12 Nb2 2.715932 1_545
Be12 Nb0 2.715938 1_455
Be12 Nb1 2.716030 1_545
Be12 Nb3 2.716047 1_455
Be13 Be4 2.184100 1_555
Be13 Be2 2.184230 1_556
Be13 Ni5 2.329583 1_555
Be13 Ni6 2.329599 1_556
Be13 Ni7 2.329681 1_555
Be13 Ni3 2.329688 1_556
Be13 Nb3 2.715887 1_555
Be13 Nb0 2.715901 1_556
Be13 Nb1 2.715971 1_555
Be13 Nb2 2.715972 1_556
Be14 Ni5 2.262060 1_454
Be14 Ni0 2.262068 1_555
Be14 Ni2 2.262101 1_554
Be14 Ni4 2.262126 1_445
Be14 Ni7 2.262140 1_544
Be14 Ni6 2.262177 1_455
Be14 Ni3 2.262246 1_545
Be14 Ni1 2.262281 1_444
Nb0 Ni5 2.621822 1_554
Nb0 Ni4 2.621913 1_545
Nb0 Ni6 2.621941 1_555
Nb0 Ni0 2.621954 1_655
Nb0 Nb5 3.073379 1_555
Nb0 Nb2 3.073494 1_555
Nb0 Nb3 3.073516 1_555
Nb0 Nb4 3.073631 1_555
Nb1 Ni3 2.621900 1_556
Nb1 Ni2 2.621981 1_565
Nb1 Ni7 2.622007 1_555
Nb1 Ni1 2.622040 1_455
Nb1 Nb4 3.073432 1_555
Nb1 Nb2 3.073437 1_555
Nb1 Nb3 3.073447 1_555
Nb1 Nb5 3.073448 1_555
Nb2 Ni7 2.621881 1_554
Nb2 Ni4 2.621961 1_455
Nb2 Ni3 2.621975 1_555
Nb2 Ni0 2.622007 1_565
Nb2 Nb5 3.073358 1_555
Nb2 Nb4 3.073568 1_555
Nb3 Ni6 2.621863 1_556
Nb3 Ni2 2.621931 1_655
Nb3 Ni5 2.621940 1_555
Nb3 Ni1 2.621995 1_545
Nb3 Nb5 3.073469 1_555
Nb3 Nb4 3.073496 1_555
Nb4 Ni0 2.621841 1_556
Nb4 Ni5 2.621887 1_455
Nb4 Ni2 2.621891 1_555
Nb4 Ni7 2.621905 1_545
Nb5 Ni1 2.621973 1_554
Nb5 Ni3 2.622018 1_655
Nb5 Ni4 2.622019 1_555
Nb5 Ni6 2.622031 1_565
Ni0 Ni5 2.612020 1_454
Ni0 Ni7 2.612036 1_544
Ni0 Ni4 2.612107 1_445
Ni1 Ni6 2.612087 1_566
Ni1 Ni3 2.612117 1_656
Ni1 Ni2 2.612134 1_665
Ni2 Ni5 2.612111 1_455
Ni2 Ni7 2.612132 1_545
Ni3 Ni7 2.612114 1_554
Ni3 Ni4 2.612186 1_455
Ni4 Ni6 2.612159 1_565
Ni5 Ni6 2.612064 1_556
