# generated using pymatgen
data_CeSe2
_symmetry_space_group_name_H-M   'P 1'
_cell_length_a   8.52916562
_cell_length_b   14.20403571
_cell_length_c   14.20403553
_cell_angle_alpha   116.09782108
_cell_angle_beta   101.54621451
_cell_angle_gamma   101.54621436
_symmetry_Int_Tables_number   1
_chemical_formula_structural   CeSe2
_chemical_formula_sum   'Ce6 Se12'
_cell_volume   1430.55071903
_cell_formula_units_Z   6
loop_
 _symmetry_equiv_pos_site_id
 _symmetry_equiv_pos_as_xyz
  1  'x, y, z'
loop_
 _atom_site_type_symbol
 _atom_site_label
 _atom_site_symmetry_multiplicity
 _atom_site_fract_x
 _atom_site_fract_y
 _atom_site_fract_z
 _atom_site_occupancy
  Ce  Ce0  1  0.20308285  0.37858328  0.99999509  1
  Ce  Ce1  1  0.20308776  0.00000491  0.37858819  1
  Ce  Ce2  1  0.82449957  0.62141181  0.62141672  1
  Ce  Ce3  1  0.79692582  0.62144309  0.00000566  1
  Ce  Ce4  1  0.79692015  0.99999434  0.62143743  1
  Ce  Ce5  1  0.17548272  0.37856257  0.37855691  1
  Se  Se0  1  0.99999665  0.50000335  0.99999991  1
  Se  Se1  1  0.99999674  0.00000009  0.50000344  1
  Se  Se2  1  0.49999330  0.49999656  0.49999665  1
  Se  Se3  1  0.17886507  0.35781865  0.17889305  1
  Se  Se4  1  0.99997202  0.82110695  0.17892560  1
  Se  Se5  1  0.82104642  0.82107440  0.64218135  1
  Se  Se6  1  0.17886582  0.17890017  0.35781894  1
  Se  Se7  1  0.82104688  0.64218106  0.82108123  1
  Se  Se8  1  0.99996565  0.17891877  0.82109983  1
  Se  Se9  1  0.50002068  0.50000904  0.00000044  1
  Se  Se10  1  0.50002024  0.99999956  0.50000860  1
  Se  Se11  1  0.00001164  0.49999140  0.49999096  1
loop_
_geom_bond_atom_site_label_1
_geom_bond_atom_site_label_2
_geom_bond_distance
_geom_bond_site_symmetry_2
Ce0 Se0 2.677804 1_455
Ce0 Se3 2.726138 1_556
Ce0 Se8 2.726141 1_455
Ce0 Se9 2.764076 1_556
Ce1 Se1 2.677804 1_455
Ce1 Se4 2.726138 1_445
Ce1 Se6 2.726141 1_555
Ce1 Se10 2.764076 1_545
Ce2 Se2 2.677804 1_555
Ce2 Se5 2.726138 1_555
Ce2 Se7 2.726141 1_555
Ce2 Se11 2.764076 1_655
Ce3 Se0 2.677917 1_554
Ce3 Se4 2.726113 1_555
Ce3 Se7 2.726123 1_554
Ce3 Se9 2.763908 1_555
Ce4 Se1 2.677917 1_565
Ce4 Se5 2.726113 1_555
Ce4 Se8 2.726123 1_565
Ce4 Se10 2.763908 1_555
Ce5 Se2 2.677917 1_555
Ce5 Se3 2.726113 1_555
Ce5 Se6 2.726123 1_555
Ce5 Se11 2.763908 1_555
