# generated using pymatgen
data_LiNi9O13
_symmetry_space_group_name_H-M   'P 1'
_cell_length_a   2.88686734
_cell_length_b   5.10320412
_cell_length_c   16.10937896
_cell_angle_alpha   98.96004350
_cell_angle_beta   90.04187153
_cell_angle_gamma   106.39165455
_symmetry_Int_Tables_number   1
_chemical_formula_structural   LiNi9O13
_chemical_formula_sum   'Li1 Ni9 O13'
_cell_volume   224.65311032
_cell_formula_units_Z   1
loop_
 _symmetry_equiv_pos_site_id
 _symmetry_equiv_pos_as_xyz
  1  'x, y, z'
loop_
 _atom_site_type_symbol
 _atom_site_label
 _atom_site_symmetry_multiplicity
 _atom_site_fract_x
 _atom_site_fract_y
 _atom_site_fract_z
 _atom_site_occupancy
  Li  Li0  1  0.79203700  0.58624700  0.77068000  1
  Ni  Ni0  1  0.49898300  0.99741200  0.49719700  1
  Ni  Ni1  1  0.64713100  0.29550800  0.04922900  1
  Ni  Ni2  1  0.35344500  0.70755400  0.96148900  1
  Ni  Ni3  1  0.74770600  0.49467400  0.41125700  1
  Ni  Ni4  1  0.25230600  0.50422200  0.57984900  1
  Ni  Ni5  1  0.93794600  0.87559500  0.12575900  1
  Ni  Ni6  1  0.06600900  0.13325700  0.87622100  1
  Ni  Ni7  1  0.99376100  0.98670700  0.33233500  1
  Ni  Ni8  1  0.01105000  0.02270500  0.66668300  1
  O  O0  1  0.99709600  0.99459500  0.01339300  1
  O  O1  1  0.87629000  0.75125000  0.22709800  1
  O  O2  1  0.13761400  0.27483500  0.77157800  1
  O  O3  1  0.29745600  0.59814000  0.07624200  1
  O  O4  1  0.70128600  0.40361500  0.93318100  1
  O  O5  1  0.56627400  0.13156800  0.15308700  1
  O  O6  1  0.42743400  0.85589400  0.85754000  1
  O  O7  1  0.60983700  0.22022600  0.30863100  1
  O  O8  1  0.38455000  0.76898300  0.68552400  1
  O  O9  1  0.38398900  0.76682900  0.38136000  1
  O  O10  1  0.61769900  0.23553100  0.61120500  1
  O  O11  1  0.12520600  0.24988700  0.45566600  1
  O  O12  1  0.86656500  0.73226300  0.52979700  1
loop_
_geom_bond_atom_site_label_1
_geom_bond_atom_site_label_2
_geom_bond_distance
_geom_bond_site_symmetry_2
Li0 O2 2.099433 1_555
Li0 O2 2.103094 1_655
Li0 O8 2.269491 1_555
Li0 O8 2.275730 1_655
Li0 O6 2.275791 1_555
Li0 O6 2.277723 1_655
Ni0 O10 2.008988 1_565
Ni0 O9 2.017842 1_555
Ni0 O12 2.064875 1_555
Ni0 O12 2.066003 1_455
Ni0 O11 2.079455 1_565
Ni0 O11 2.081232 1_665
Ni1 O5 1.969771 1_555
Ni1 O4 2.024031 1_554
Ni1 O3 2.062077 1_655
Ni1 O3 2.065127 1_555
Ni1 O0 2.075750 1_445
Ni1 O0 2.076647 1_545
Ni2 O6 1.930529 1_555
Ni2 O3 2.006547 1_556
Ni2 O4 2.069187 1_555
Ni2 O4 2.070884 1_455
Ni2 O0 2.091267 1_456
Ni2 O0 2.092251 1_556
Ni3 O7 1.953553 1_555
Ni3 O12 2.068195 1_555
Ni3 O9 2.072221 1_555
Ni3 O9 2.074787 1_655
Ni3 O11 2.074979 1_655
Ni3 O11 2.077256 1_555
Ni4 O8 1.964887 1_555
Ni4 O12 2.065643 1_455
Ni4 O12 2.068478 1_555
Ni4 O10 2.068647 1_555
Ni4 O10 2.071451 1_455
Ni4 O11 2.177758 1_555
Ni5 O1 1.832699 1_555
Ni5 O5 1.914176 1_565
Ni5 O5 1.916450 1_665
Ni5 O0 1.989702 1_555
Ni5 O3 2.048670 1_655
Ni5 O3 2.056294 1_555
Ni6 O2 1.924066 1_555
Ni6 O6 1.970788 1_545
Ni6 O6 1.971356 1_445
Ni6 O4 2.069083 1_455
Ni6 O4 2.069787 1_555
Ni6 O0 2.414867 1_446
Ni7 O1 1.888786 1_555
Ni7 O7 1.917192 1_665
Ni7 O7 1.918582 1_565
Ni7 O9 2.034713 1_655
Ni7 O9 2.035877 1_555
Ni7 O11 2.185224 1_665
Ni8 O2 1.923782 1_555
Ni8 O8 1.959881 1_545
Ni8 O8 1.959906 1_445
Ni8 O10 2.065131 1_455
Ni8 O10 2.067976 1_555
Ni8 O12 2.421810 1_445
