# generated using pymatgen
data_La3Si3Ni
_symmetry_space_group_name_H-M   'P 1'
_cell_length_a   9.60910662
_cell_length_b   9.60910662
_cell_length_c   9.60910662
_cell_angle_alpha   155.45917731
_cell_angle_beta   153.60553474
_cell_angle_gamma   36.34913617
_symmetry_Int_Tables_number   1
_chemical_formula_structural   La3Si3Ni
_chemical_formula_sum   'La3 Si3 Ni1'
_cell_volume   163.60932811
_cell_formula_units_Z   1
loop_
 _symmetry_equiv_pos_site_id
 _symmetry_equiv_pos_as_xyz
  1  'x, y, z'
loop_
 _atom_site_type_symbol
 _atom_site_label
 _atom_site_symmetry_multiplicity
 _atom_site_fract_x
 _atom_site_fract_y
 _atom_site_fract_z
 _atom_site_occupancy
  La  La0  1  0.81619300  0.31619300  0.50000000  1
  La  La1  1  0.18122000  0.68122000  0.50000000  1
  La  La2  1  0.00081100  0.00081100  0.00000000  1
  Si  Si0  1  0.63287900  0.13287900  0.50000000  1
  Si  Si1  1  0.36301800  0.86301800  0.50000000  1
  Si  Si2  1  0.44036800  0.44036800  0.00000000  1
  Ni  Ni0  1  0.56551000  0.56551000  0.00000000  1
loop_
_geom_bond_atom_site_label_1
_geom_bond_atom_site_label_2
_geom_bond_distance
_geom_bond_site_symmetry_2
La0 Si1 3.116773 1_555
La0 Si1 3.116773 1_544
La0 Si1 3.116773 1_656
La0 Si1 3.116773 1_645
La0 Si2 3.154946 1_656
La0 Si2 3.154946 1_555
La0 Si0 3.347209 1_555
La1 Ni0 3.045761 1_556
La1 Ni0 3.045761 1_455
La1 Si0 3.124480 1_566
La1 Si0 3.124480 1_454
La1 Si0 3.124480 1_465
La1 Si0 3.124480 1_555
La1 Si1 3.319527 1_555
La2 Si2 3.193948 1_455
La2 Si2 3.193948 1_444
La2 Si2 3.193948 1_545
La2 Si2 3.193948 1_556
La2 Ni0 3.221627 1_545
La2 Ni0 3.221627 1_444
La2 Ni0 3.221627 1_556
La2 Ni0 3.221627 1_455
La2 Si0 3.260062 1_555
La2 Si0 3.260062 1_454
La2 Si1 3.338129 1_444
La2 Si1 3.338129 1_545
Si1 Si2 2.483000 1_566
Si1 Si2 2.483000 1_555
Ni0 Si2 2.285021 1_555
Ni0 Si0 2.384052 1_554
Ni0 Si0 2.384052 1_565
