# generated using pymatgen
data_Li15Pd4
_symmetry_space_group_name_H-M   'P 1'
_cell_length_a   9.14405362
_cell_length_b   9.14405950
_cell_length_c   9.14405950
_cell_angle_alpha   109.47125184
_cell_angle_beta   109.47121805
_cell_angle_gamma   109.47121805
_symmetry_Int_Tables_number   1
_chemical_formula_structural   Li15Pd4
_chemical_formula_sum   'Li30 Pd8'
_cell_volume   588.56552572
_cell_formula_units_Z   2
loop_
 _symmetry_equiv_pos_site_id
 _symmetry_equiv_pos_as_xyz
  1  'x, y, z'
loop_
 _atom_site_type_symbol
 _atom_site_label
 _atom_site_symmetry_multiplicity
 _atom_site_fract_x
 _atom_site_fract_y
 _atom_site_fract_z
 _atom_site_occupancy
  Li  Li0  1  0.37500000  0.75000000  0.62500000  1
  Li  Li1  1  0.12500000  0.25000000  0.87500000  1
  Li  Li2  1  0.75000000  0.62500000  0.37500000  1
  Li  Li3  1  0.25000000  0.87500000  0.12500000  1
  Li  Li4  1  0.62500000  0.37500000  0.75000000  1
  Li  Li5  1  0.87500000  0.12500000  0.25000000  1
  Li  Li6  1  0.27519166  0.19508992  0.65928160  1
  Li  Li7  1  0.96419367  0.30491008  0.08010174  1
  Li  Li8  1  0.53580633  0.11590906  0.84071840  1
  Li  Li9  1  0.22480834  0.38409094  0.41989826  1
  Li  Li10  1  0.15928160  0.69508992  0.77519166  1
  Li  Li11  1  0.58010174  0.80491008  0.46419367  1
  Li  Li12  1  0.34071840  0.61590906  0.03580633  1
  Li  Li13  1  0.91989826  0.88409094  0.72480834  1
  Li  Li14  1  0.19508992  0.65928160  0.27519166  1
  Li  Li15  1  0.30491008  0.08010174  0.96419367  1
  Li  Li16  1  0.11590906  0.84071840  0.53580633  1
  Li  Li17  1  0.38409094  0.41989826  0.22480834  1
  Li  Li18  1  0.69508992  0.77519166  0.15928160  1
  Li  Li19  1  0.80491008  0.46419367  0.58010174  1
  Li  Li20  1  0.61590906  0.03580633  0.34071840  1
  Li  Li21  1  0.88409094  0.72480834  0.91989826  1
  Li  Li22  1  0.65928160  0.27519166  0.19508992  1
  Li  Li23  1  0.08010174  0.96419367  0.30491008  1
  Li  Li24  1  0.84071840  0.53580633  0.11590906  1
  Li  Li25  1  0.41989826  0.22480834  0.38409094  1
  Li  Li26  1  0.77519166  0.15928160  0.69508992  1
  Li  Li27  1  0.46419367  0.58010174  0.80491008  1
  Li  Li28  1  0.03580633  0.34071840  0.61590906  1
  Li  Li29  1  0.72480834  0.91989826  0.88409094  1
  Pd  Pd0  1  0.41160602  0.00000000  0.50000000  1
  Pd  Pd1  1  -0.00000000  0.50000000  0.41160602  1
  Pd  Pd2  1  0.50000000  0.41160602  0.00000000  1
  Pd  Pd3  1  0.08839398  0.08839398  0.08839398  1
  Pd  Pd4  1  -0.00000000  0.50000000  0.91160602  1
  Pd  Pd5  1  0.91160602  0.00000000  0.50000000  1
  Pd  Pd6  1  0.50000000  0.91160602  0.00000000  1
  Pd  Pd7  1  0.58839398  0.58839398  0.58839398  1
loop_
_geom_bond_atom_site_label_1
_geom_bond_atom_site_label_2
_geom_bond_distance
_geom_bond_site_symmetry_2
Li0 Li14 2.727483 1_555
Li0 Li29 2.727484 1_555
Li0 Li27 2.727489 1_555
Li0 Li16 2.727492 1_555
Li0 Li11 2.763061 1_555
Li0 Li9 2.763068 1_555
Li0 Li8 2.763070 1_565
Li0 Li10 2.763075 1_555
Li0 Pd1 2.851535 1_555
Li0 Pd7 2.851536 1_555
Li0 Pd6 2.851536 1_556
Li0 Pd0 2.851537 1_565
Li1 Li26 2.727481 1_455
Li1 Li17 2.727485 1_556
Li1 Li15 2.727488 1_555
Li1 Li28 2.727493 1_555
Li1 Li7 2.763061 1_456
Li1 Li13 2.763068 1_445
Li1 Li12 2.763070 1_556
Li1 Li6 2.763075 1_555
Li1 Pd2 2.851535 1_556
Li1 Pd5 2.851536 1_455
Li1 Pd4 2.851536 1_555
Li1 Pd3 2.851537 1_556
Li2 Li22 2.727482 1_555
Li2 Li24 2.727492 1_555
Li2 Pd1 2.851536 1_655
Li2 Pd2 2.851536 1_555
Li2 Pd5 2.851536 1_565
Li2 Pd7 2.851536 1_555
Li3 Pd6 2.851536 1_555
Li3 Pd4 2.851536 1_554
Li3 Pd0 2.851536 1_565
Li3 Pd3 2.851536 1_565
Li4 Li6 2.727481 1_555
Li4 Li8 2.727493 1_555
Li4 Pd4 2.851535 1_655
Li4 Pd0 2.851536 1_555
Li4 Pd2 2.851536 1_556
Li4 Pd7 2.851537 1_555
Li5 Li9 2.727484 1_655
Li5 Li7 2.727489 1_555
Li5 Pd6 2.851535 1_545
Li5 Pd3 2.851536 1_655
Li5 Pd1 2.851536 1_655
Li5 Pd5 2.851537 1_555
Li6 Pd2 2.599428 1_556
Li6 Pd5 2.728129 1_455
Li6 Pd0 2.796811 1_555
Li7 Pd3 2.599416 1_655
Li7 Pd4 2.728130 1_654
Li7 Pd1 2.796819 1_655
Li8 Pd0 2.599432 1_555
Li8 Pd6 2.728123 1_546
Li8 Pd2 2.796808 1_556
Li9 Pd1 2.599422 1_555
Li9 Pd7 2.728128 1_555
Li9 Pd3 2.796815 1_555
Li10 Pd6 2.599427 1_556
Li10 Li3 2.727482 1_556
Li10 Pd1 2.728130 1_555
Li10 Pd4 2.796812 1_555
Li11 Pd7 2.599417 1_555
Li11 Li2 2.727487 1_555
Li11 Pd0 2.728129 1_565
Li11 Pd5 2.796819 1_565
Li12 Pd4 2.599430 1_554
Li12 Li3 2.727492 1_555
Li12 Pd2 2.728122 1_555
Li12 Pd6 2.796808 1_555
Li13 Pd5 2.599423 1_565
Li13 Li2 2.727485 1_555
Li13 Pd3 2.728130 1_666
Li13 Pd7 2.796814 1_555
Li14 Pd0 2.599428 1_565
Li14 Pd4 2.728131 1_554
Li14 Li3 2.763077 1_555
Li14 Pd1 2.796812 1_555
Li15 Pd3 2.599416 1_556
Li15 Pd6 2.728129 1_546
Li15 Li3 2.763062 1_546
Li15 Pd2 2.796820 1_556
Li16 Pd1 2.599432 1_555
Li16 Pd5 2.728122 1_465
Li16 Li2 2.763069 1_455
Li16 Pd0 2.796807 1_565
Li17 Pd2 2.599423 1_555
Li17 Pd7 2.728130 1_555
Li17 Li2 2.763067 1_555
Li17 Pd3 2.796815 1_555
Li18 Pd5 2.599428 1_565
Li18 Li5 2.727483 1_565
Li18 Pd2 2.728131 1_555
Li18 Li2 2.763077 1_555
Li18 Pd6 2.796812 1_555
Li19 Pd7 2.599416 1_555
Li19 Li4 2.727488 1_555
Li19 Pd1 2.728129 1_655
Li19 Li2 2.763062 1_555
Li19 Pd4 2.796820 1_655
Li20 Pd6 2.599432 1_545
Li20 Li5 2.727492 1_555
Li20 Pd0 2.728122 1_555
Li20 Li3 2.763069 1_545
Li20 Pd5 2.796807 1_555
Li21 Pd4 2.599423 1_655
Li21 Li4 2.727485 1_555
Li21 Pd3 2.728130 1_666
Li21 Li3 2.763067 1_656
Li21 Pd7 2.796815 1_555
Li22 Pd1 2.599427 1_655
Li22 Pd6 2.728130 1_545
Li22 Li5 2.763075 1_555
Li22 Pd2 2.796812 1_555
Li23 Pd3 2.599417 1_565
Li23 Li3 2.727487 1_555
Li23 Pd5 2.728129 1_465
Li23 Li5 2.763061 1_465
Li23 Pd0 2.796819 1_565
Li24 Pd2 2.599430 1_555
Li24 Pd4 2.728122 1_654
Li24 Li4 2.763070 1_554
Li24 Pd1 2.796808 1_655
Li25 Pd0 2.599423 1_555
Li25 Li3 2.727485 1_545
Li25 Pd7 2.728130 1_555
Li25 Li4 2.763068 1_555
Li25 Pd3 2.796814 1_555
Li26 Pd4 2.599428 1_655
Li26 Pd0 2.728129 1_555
Li26 Li4 2.763075 1_555
Li26 Pd5 2.796811 1_555
Li27 Pd7 2.599416 1_555
Li27 Pd2 2.728130 1_556
Li27 Li4 2.763061 1_555
Li27 Pd6 2.796819 1_556
Li28 Pd5 2.599432 1_455
Li28 Pd1 2.728123 1_555
Li28 Li5 2.763070 1_455
Li28 Pd4 2.796808 1_555
Li29 Pd6 2.599422 1_556
Li29 Pd3 2.728128 1_666
Li29 Li5 2.763068 1_566
Li29 Pd7 2.796815 1_555
