# generated using pymatgen
data_Nb2Zn2SnO8
_symmetry_space_group_name_H-M   'P 1'
_cell_length_a   10.91180241
_cell_length_b   10.91180241
_cell_length_c   5.40533560
_cell_angle_alpha   89.07484440
_cell_angle_beta   89.07484440
_cell_angle_gamma   32.26545937
_symmetry_Int_Tables_number   1
_chemical_formula_structural   Nb2Zn2SnO8
_chemical_formula_sum   'Nb4 Zn4 Sn2 O16'
_cell_volume   343.53231170
_cell_formula_units_Z   2
loop_
 _symmetry_equiv_pos_site_id
 _symmetry_equiv_pos_as_xyz
  1  'x, y, z'
loop_
 _atom_site_type_symbol
 _atom_site_label
 _atom_site_symmetry_multiplicity
 _atom_site_fract_x
 _atom_site_fract_y
 _atom_site_fract_z
 _atom_site_occupancy
  Nb  Nb0  1  0.03582000  0.71248400  0.22803500  1
  Nb  Nb1  1  0.28751600  0.96418000  0.27196500  1
  Nb  Nb2  1  0.96418000  0.28751600  0.77196500  1
  Nb  Nb3  1  0.71248400  0.03582000  0.72803500  1
  Zn  Zn0  1  0.87237100  0.57023600  0.27002100  1
  Zn  Zn1  1  0.42976400  0.12762900  0.22997900  1
  Zn  Zn2  1  0.12762900  0.42976400  0.72997900  1
  Zn  Zn3  1  0.57023600  0.87237100  0.77002100  1
  Sn  Sn0  1  0.69019700  0.30980300  0.25000000  1
  Sn  Sn1  1  0.30980300  0.69019700  0.75000000  1
  O  O0  1  0.00947800  0.82766900  0.54216800  1
  O  O1  1  0.17233100  0.99052200  0.95783200  1
  O  O2  1  0.99052200  0.17233100  0.45783200  1
  O  O3  1  0.82766900  0.00947800  0.04216800  1
  O  O4  1  0.30461000  0.56022900  0.12046400  1
  O  O5  1  0.43977100  0.69539000  0.37953600  1
  O  O6  1  0.69539000  0.43977100  0.87953600  1
  O  O7  1  0.56022900  0.30461000  0.62046400  1
  O  O8  1  0.92857100  0.70474000  0.92840700  1
  O  O9  1  0.29526000  0.07142900  0.57159300  1
  O  O10  1  0.44854400  0.15352000  0.86275200  1
  O  O11  1  0.84648000  0.55145600  0.63724800  1
  O  O12  1  0.55145600  0.84648000  0.13724800  1
  O  O13  1  0.15352000  0.44854400  0.36275200  1
  O  O14  1  0.70474000  0.92857100  0.42840700  1
  O  O15  1  0.07142900  0.29526000  0.07159300  1
loop_
_geom_bond_atom_site_label_1
_geom_bond_atom_site_label_2
_geom_bond_distance
_geom_bond_site_symmetry_2
Nb0 O4 1.853665 1_555
Nb0 O0 1.996928 1_555
Nb0 O13 2.044866 1_555
Nb0 O3 2.047181 1_465
Nb0 O8 2.057336 1_454
Nb0 O14 2.309628 1_455
Nb1 O5 1.853665 1_555
Nb1 O1 1.996928 1_554
Nb1 O12 2.044866 1_555
Nb1 O2 2.047181 1_465
Nb1 O9 2.057336 1_565
Nb1 O15 2.309628 1_565
Nb2 O6 1.853665 1_555
Nb2 O2 1.996928 1_555
Nb2 O11 2.044866 1_555
Nb2 O1 2.047181 1_645
Nb2 O15 2.057336 1_656
Nb2 O9 2.309628 1_655
Nb3 O7 1.853665 1_555
Nb3 O3 1.996928 1_556
Nb3 O10 2.044866 1_555
Nb3 O0 2.047181 1_645
Nb3 O14 2.057336 1_545
Nb3 O8 2.309628 1_545
O0 Sn1 2.449994 1_555
O1 Sn1 2.449994 1_555
O2 Sn0 2.449994 1_555
O3 Sn0 2.449994 1_555
O4 Sn1 2.462707 1_554
O4 Sn0 2.499904 1_555
O5 Sn1 2.462707 1_555
O5 Sn0 2.499904 1_555
O6 Sn0 2.462707 1_556
O6 Sn1 2.499904 1_555
O7 Sn0 2.462707 1_555
O7 Sn1 2.499904 1_555
O8 Zn2 1.969289 1_655
O9 Zn3 1.969289 1_545
O10 Zn2 2.005947 1_555
O10 Zn1 2.031906 1_556
O10 Zn3 2.136581 1_545
O11 Zn3 2.005947 1_555
O11 Zn0 2.031906 1_555
O11 Zn2 2.136581 1_655
O12 Zn0 2.005947 1_555
O12 Zn3 2.031906 1_554
O12 Zn1 2.136581 1_565
O13 Zn1 2.005947 1_555
O13 Zn2 2.031906 1_555
O13 Zn0 2.136581 1_455
O14 Zn1 1.969289 1_565
O15 Zn0 1.969289 1_455
