# generated using pymatgen
data_USiOs2C
_symmetry_space_group_name_H-M   'P 1'
_cell_length_a   5.99469680
_cell_length_b   5.99469680
_cell_length_c   6.99482700
_cell_angle_alpha   90.00000000
_cell_angle_beta   90.00000000
_cell_angle_gamma   142.55016318
_symmetry_Int_Tables_number   1
_chemical_formula_structural   USiOs2C
_chemical_formula_sum   'U2 Si2 Os4 C2'
_cell_volume   152.84899051
_cell_formula_units_Z   2
loop_
 _symmetry_equiv_pos_site_id
 _symmetry_equiv_pos_as_xyz
  1  'x, y, z'
loop_
 _atom_site_type_symbol
 _atom_site_label
 _atom_site_symmetry_multiplicity
 _atom_site_fract_x
 _atom_site_fract_y
 _atom_site_fract_z
 _atom_site_occupancy
  U  U0  1  0.55205600  0.44794400  0.25000000  1
  U  U1  1  0.44794400  0.55205600  0.75000000  1
  Si  Si0  1  0.27270000  0.72730000  0.25000000  1
  Si  Si1  1  0.72730000  0.27270000  0.75000000  1
  Os  Os0  1  0.83541100  0.16458900  0.05270100  1
  Os  Os1  1  0.16458900  0.83541100  0.94729900  1
  Os  Os2  1  0.16458900  0.83541100  0.55270100  1
  Os  Os3  1  0.83541100  0.16458900  0.44729900  1
  C  C0  1  0.00000000  0.00000000  0.00000000  1
  C  C1  1  0.00000000  0.00000000  0.50000000  1
loop_
_geom_bond_atom_site_label_1
_geom_bond_atom_site_label_2
_geom_bond_distance
_geom_bond_site_symmetry_2
Si0 U0 3.159173 1_455
Si0 U0 3.159173 1_565
Si0 U0 3.172033 1_555
Si1 U1 3.159173 1_655
Si1 U1 3.159173 1_545
Si1 U1 3.172033 1_555
Os0 Si1 2.447465 1_554
Os0 Si0 2.472881 1_655
Os0 Si0 2.472881 1_545
Os1 Si0 2.447465 1_556
Os1 Si1 2.472881 1_455
Os1 Si1 2.472881 1_565
Os2 Si0 2.447465 1_555
Os2 Si1 2.472881 1_565
Os2 Si1 2.472881 1_455
Os3 Si1 2.447465 1_555
Os3 Si0 2.472881 1_545
Os3 Si0 2.472881 1_655
C0 Os1 1.904885 1_544
C0 Os0 1.904885 1_455
C0 U0 2.666618 1_445
C0 U1 2.666618 1_444
C0 U1 2.666618 1_554
C0 U0 2.666618 1_555
C1 Os2 1.904885 1_545
C1 Os3 1.904885 1_455
C1 U0 2.666618 1_445
C1 U1 2.666618 1_445
C1 U0 2.666618 1_555
C1 U1 2.666618 1_555
