# generated using pymatgen
data_Sr2LiB10H3O19
_symmetry_space_group_name_H-M   'P 1'
_cell_length_a   6.63350738
_cell_length_b   10.98723632
_cell_length_c   11.17458652
_cell_angle_alpha   72.96426464
_cell_angle_beta   107.57853001
_cell_angle_gamma   72.60904977
_symmetry_Int_Tables_number   1
_chemical_formula_structural   Sr2LiB10H3O19
_chemical_formula_sum   'Sr4 Li2 B20 H6 O38'
_cell_volume   671.97164683
_cell_formula_units_Z   2
loop_
 _symmetry_equiv_pos_site_id
 _symmetry_equiv_pos_as_xyz
  1  'x, y, z'
loop_
 _atom_site_type_symbol
 _atom_site_label
 _atom_site_symmetry_multiplicity
 _atom_site_fract_x
 _atom_site_fract_y
 _atom_site_fract_z
 _atom_site_occupancy
  Sr  Sr0  1  0.69124458  0.98709543  0.37560252  1
  Sr  Sr1  1  0.30875029  0.01586364  0.62406596  1
  Sr  Sr2  1  0.73517034  0.45830861  0.90854322  1
  Sr  Sr3  1  0.26057637  0.53635588  0.08982965  1
  Li  Li0  1  0.49991679  0.01880885  0.98813510  1
  Li  Li1  1  0.27994542  0.86995976  0.09256203  1
  B  B0  1  0.20281549  0.50637122  0.81128386  1
  B  B1  1  0.79495101  0.49602761  0.18766627  1
  B  B2  1  0.37342994  0.26361659  0.98780528  1
  B  B3  1  0.62189867  0.73732208  0.00861100  1
  B  B4  1  0.23351577  0.31351242  0.74092259  1
  B  B5  1  0.75968174  0.69246221  0.25444162  1
  B  B6  1  0.34187569  0.69546764  0.35597055  1
  B  B7  1  0.66955389  0.29684012  0.64965925  1
  B  B8  1  0.13552061  0.14663674  0.06950644  1
  B  B9  1  0.85947569  0.85900357  0.93422135  1
  B  B10  1  0.22256268  0.95588392  0.29586884  1
  B  B11  1  0.77956980  0.04189351  0.70534003  1
  B  B12  1  0.81535004  0.69462871  0.70515620  1
  B  B13  1  0.17926609  0.30452108  0.29402045  1
  B  B14  1  0.39176784  0.77929377  0.53973143  1
  B  B15  1  0.60179127  0.22021560  0.46179532  1
  B  B16  1  0.12470540  0.73301963  0.64914670  1
  B  B17  1  0.86871174  0.26920433  0.35114500  1
  B  B18  1  0.81521585  0.12712976  0.13527100  1
  B  B19  1  0.18397457  0.86809432  0.85881196  1
  H  H0  1  0.10783599  0.34446566  0.54609020  1
  H  H1  1  0.90276583  0.66379657  0.44746850  1
  H  H2  1  0.44116067  0.49422000  0.38843564  1
  H  H3  1  0.56398742  0.49815530  0.61566694  1
  H  H4  1  0.02905828  0.10416813  0.90164647  1
  H  H5  1  0.92692950  0.88629033  0.11082009  1
  O  O0  1  0.58774212  0.72590070  0.67563202  1
  O  O1  1  0.40718228  0.27350795  0.32491786  1
  O  O2  1  0.35932251  0.59023214  0.31089585  1
  O  O3  1  0.65242555  0.40324974  0.69354619  1
  O  O4  1  0.98398535  0.57986895  0.82456853  1
  O  O5  1  0.01180082  0.42053335  0.17550686  1
  O  O6  1  0.41482832  0.66478306  0.49396293  1
  O  O7  1  0.57708599  0.33283171  0.50903163  1
  O  O8  1  0.88668505  0.76892319  0.61531114  1
  O  O9  1  0.10666110  0.22953367  0.38225392  1
  O  O10  1  0.16938223  0.06145448  0.98917032  1
  O  O11  1  0.82368198  0.94238178  0.01341178  1
  O  O12  1  0.28702536  0.61346016  0.76135549  1
  O  O13  1  0.70829082  0.39197443  0.24206706  1
  O  O14  1  0.58724753  0.15545271  0.11058187  1
  O  O15  1  0.41153958  0.84055378  0.88324325  1
  O  O16  1  0.19132089  0.26619190  0.63661025  1
  O  O17  1  0.80851818  0.74132544  0.35661056  1
  O  O18  1  0.17159709  0.82156932  0.56012762  1
  O  O19  1  0.82168305  0.17965001  0.43916493  1
  O  O20  1  0.88516292  0.20079483  0.04845243  1
  O  O21  1  0.12084309  0.80599514  0.95904203  1
  O  O22  1  0.14046262  0.45423236  0.70559829  1
  O  O23  1  0.86039297  0.55290048  0.28939497  1
  O  O24  1  0.36504438  0.21703863  0.87289634  1
  O  O25  1  0.60843641  0.78907861  0.12201164  1
  O  O26  1  0.97255493  0.02008539  0.26371327  1
  O  O27  1  0.02522093  0.96626947  0.72927071  1
  O  O28  1  0.17346850  0.27179528  0.01763770  1
  O  O29  1  0.82950642  0.73049555  0.98900398  1
  O  O30  1  0.38050081  0.40233423  0.94521175  1
  O  O31  1  0.61758132  0.59864220  0.05315961  1
  O  O32  1  0.37636016  0.90464228  0.44163405  1
  O  O33  1  0.61876448  0.09404742  0.55951473  1
  O  O34  1  0.25350093  0.82946434  0.25923517  1
  O  O35  1  0.77469304  0.16169935  0.74352620  1
  O  O36  1  0.28842972  0.05186638  0.21504628  1
  O  O37  1  0.71359531  0.94710362  0.78884333  1
loop_
_geom_bond_atom_site_label_1
_geom_bond_atom_site_label_2
_geom_bond_distance
_geom_bond_site_symmetry_2
Li0 O24 1.923093 1_555
Li0 O11 1.952959 1_546
Li0 O10 2.105125 1_555
Li0 O25 2.275551 1_546
Li0 O14 2.388856 1_556
Li1 O10 1.854982 1_564
Li1 O34 1.859059 1_555
Li1 O25 1.970838 1_555
Li1 O21 1.985095 1_554
B0 O30 1.436111 1_555
B0 O22 1.461846 1_555
B0 O12 1.484670 1_555
B0 O4 1.510297 1_455
B1 O31 1.435462 1_555
B1 O23 1.466791 1_555
B1 O13 1.484514 1_555
B1 O5 1.498846 1_655
B2 O28 1.446395 1_556
B2 O14 1.472420 1_556
B2 O30 1.477450 1_555
B2 O24 1.507554 1_555
B3 O29 1.442345 1_554
B3 O15 1.462299 1_554
B3 O31 1.469890 1_555
B3 O25 1.548350 1_555
B4 O24 1.346740 1_555
B4 O22 1.360901 1_555
B4 O16 1.397290 1_555
B5 O23 1.352502 1_555
B5 O25 1.367295 1_555
B5 O17 1.391531 1_555
B6 O34 1.359596 1_555
B6 O6 1.368488 1_555
B6 O2 1.378575 1_555
B7 O35 1.348281 1_555
B7 O3 1.382221 1_555
B7 O7 1.382299 1_555
B8 O28 1.455466 1_555
B8 O36 1.462205 1_555
B8 O10 1.490213 1_554
B8 O20 1.502912 1_455
B9 O37 1.442789 1_555
B9 O29 1.463804 1_555
B9 O11 1.466486 1_556
B9 O21 1.559934 1_655
B10 O36 1.440302 1_565
B10 O32 1.458273 1_555
B10 O26 1.472857 1_465
B10 O34 1.533798 1_555
B11 O37 1.447971 1_545
B11 O33 1.469404 1_555
B11 O27 1.488115 1_645
B11 O35 1.492606 1_555
B12 O0 1.352444 1_555
B12 O4 1.375193 1_555
B12 O8 1.391366 1_555
B13 O1 1.352373 1_555
B13 O5 1.374224 1_555
B13 O9 1.389597 1_555
B14 O32 1.439600 1_555
B14 O0 1.473097 1_555
B14 O6 1.475525 1_555
B14 O18 1.502777 1_555
B15 O33 1.439523 1_555
B15 O7 1.466360 1_555
B15 O1 1.476344 1_555
B15 O19 1.513437 1_555
B16 O12 1.353176 1_555
B16 O18 1.354099 1_555
B16 O8 1.404000 1_455
B17 O13 1.353788 1_555
B17 O19 1.354509 1_555
B17 O9 1.403856 1_655
B18 O20 1.359374 1_555
B18 O14 1.369734 1_555
B18 O26 1.380183 1_555
B19 O27 1.361342 1_555
B19 O15 1.369109 1_555
B19 O21 1.379033 1_555
H0 O16 0.967835 1_555
H1 O17 0.968915 1_555
H2 O2 0.998140 1_555
H2 O7 1.638132 1_555
H3 O3 0.991500 1_555
H3 O6 1.681008 1_555
H4 O10 0.981473 1_555
H5 O11 0.968521 1_555
O0 Sr2 2.938476 1_555
O0 Sr1 2.943234 1_565
O1 Sr3 2.918893 1_555
O1 Sr0 2.922444 1_545
O2 Sr3 2.644462 1_555
O3 Sr2 2.587046 1_555
O4 Sr2 2.628224 1_555
O4 Sr3 2.782367 1_656
O5 Sr3 2.599083 1_555
O5 Sr2 2.819886 1_454
O8 Sr0 2.623813 1_555
O9 Sr1 2.612245 1_555
O12 Sr2 2.612088 1_555
O13 Sr3 2.604150 1_555
O14 Sr0 2.731550 1_545
O15 Sr1 2.704887 1_565
O16 Sr1 2.683720 1_555
O17 Sr0 2.668668 1_555
O18 Sr1 2.749091 1_565
O18 Sr0 2.842975 1_455
O19 Sr0 2.707893 1_545
O19 Sr1 2.874024 1_655
O20 Sr2 2.495045 1_554
O21 Sr3 2.602936 1_556
O26 Sr0 2.593260 1_545
O27 Sr1 2.605615 1_565
O28 Sr2 2.640560 1_454
O29 Sr3 2.644953 1_656
O30 Sr3 2.623624 1_556
O30 Sr2 2.716786 1_555
O31 Sr2 2.664548 1_554
O31 Sr3 2.763198 1_555
O32 Sr0 2.720050 1_555
O32 Sr1 2.744937 1_565
O33 Sr1 2.660136 1_555
O33 Sr0 2.740402 1_545
O36 Sr0 2.466736 1_545
O37 Sr1 2.481646 1_565
