# generated using pymatgen
data_Ba2InBiSe5
_symmetry_space_group_name_H-M   'P 1'
_cell_length_a   9.97104506
_cell_length_b   9.97104506
_cell_length_c   13.42813400
_cell_angle_alpha   90.00000000
_cell_angle_beta   90.00000000
_cell_angle_gamma   154.63018595
_symmetry_Int_Tables_number   1
_chemical_formula_structural   Ba2InBiSe5
_chemical_formula_sum   'Ba4 In2 Bi2 Se10'
_cell_volume   572.01372928
_cell_formula_units_Z   2
loop_
 _symmetry_equiv_pos_site_id
 _symmetry_equiv_pos_as_xyz
  1  'x, y, z'
loop_
 _atom_site_type_symbol
 _atom_site_label
 _atom_site_symmetry_multiplicity
 _atom_site_fract_x
 _atom_site_fract_y
 _atom_site_fract_z
 _atom_site_occupancy
  Ba  Ba0  1  0.38681500  0.61318500  0.14588100  1
  Ba  Ba1  1  0.61318500  0.38681500  0.64588100  1
  Ba  Ba2  1  0.62815000  0.37185000  0.01975500  1
  Ba  Ba3  1  0.37185000  0.62815000  0.51975500  1
  In  In0  1  0.94079700  0.05920300  0.88827600  1
  In  In1  1  0.05920300  0.94079700  0.38827600  1
  Bi  Bi0  1  0.28267900  0.71732100  0.80898800  1
  Bi  Bi1  1  0.71732100  0.28267900  0.30898800  1
  Se  Se0  1  0.78345900  0.21654100  0.66361200  1
  Se  Se1  1  0.21654100  0.78345900  0.16361200  1
  Se  Se2  1  0.00339300  0.99660700  0.05747800  1
  Se  Se3  1  0.99660700  0.00339300  0.55747800  1
  Se  Se4  1  0.45412000  0.54588000  0.77607800  1
  Se  Se5  1  0.54588000  0.45412000  0.27607800  1
  Se  Se6  1  0.14178000  0.85822000  0.83025300  1
  Se  Se7  1  0.85822000  0.14178000  0.33025300  1
  Se  Se8  1  0.81252700  0.18747300  0.96409800  1
  Se  Se9  1  0.18747300  0.81252700  0.46409800  1
loop_
_geom_bond_atom_site_label_1
_geom_bond_atom_site_label_2
_geom_bond_distance
_geom_bond_site_symmetry_2
Ba0 Se1 3.321286 1_555
Ba0 Se7 3.351567 1_455
Ba0 Se7 3.351567 1_565
Ba0 Se2 3.368584 1_655
Ba0 Se2 3.368584 1_545
Ba0 Se5 3.554366 1_555
Ba0 Se8 3.583499 1_454
Ba0 Se8 3.583499 1_564
Ba1 Se0 3.321286 1_555
Ba1 Se6 3.351567 1_545
Ba1 Se6 3.351567 1_655
Ba1 Se3 3.368584 1_565
Ba1 Se3 3.368584 1_455
Ba1 Se4 3.554366 1_555
Ba1 Se9 3.583499 1_545
Ba1 Se9 3.583499 1_655
Ba2 Se2 3.307856 1_655
Ba2 Se2 3.307856 1_545
Ba2 Se6 3.367442 1_544
Ba2 Se6 3.367442 1_654
Ba2 Se1 3.388648 1_655
Ba2 Se1 3.388648 1_545
Ba2 Se8 3.664149 1_554
Ba2 Se5 3.795898 1_555
Ba3 Se3 3.307856 1_565
Ba3 Se3 3.307856 1_455
Ba3 Se7 3.367442 1_455
Ba3 Se7 3.367442 1_565
Ba3 Se0 3.388648 1_565
Ba3 Se0 3.388648 1_455
Ba3 Se9 3.664149 1_555
Ba3 Se4 3.795898 1_555
In0 Se2 2.577866 1_646
In0 Se4 2.670415 1_545
In0 Se4 2.670415 1_655
In0 Se8 2.695243 1_555
In1 Se3 2.577866 1_465
In1 Se5 2.670415 1_565
In1 Se5 2.670415 1_455
In1 Se9 2.695243 1_555
Bi0 Se6 2.756072 1_555
Bi0 Se0 2.933444 1_565
Bi0 Se0 2.933444 1_455
Bi0 Se8 3.077253 1_565
Bi0 Se8 3.077253 1_455
Bi0 Se4 3.364593 1_555
Bi1 Se7 2.756072 1_555
Bi1 Se1 2.933444 1_655
Bi1 Se1 2.933444 1_545
Bi1 Se9 3.077253 1_655
Bi1 Se9 3.077253 1_545
Bi1 Se5 3.364593 1_555
