# generated using pymatgen
data_LiCo2P2O9
_symmetry_space_group_name_H-M   'P 1'
_cell_length_a   6.06033200
_cell_length_b   7.37680700
_cell_length_c   13.61366100
_cell_angle_alpha   90.00000000
_cell_angle_beta   90.00000000
_cell_angle_gamma   90.00000000
_symmetry_Int_Tables_number   1
_chemical_formula_structural   LiCo2P2O9
_chemical_formula_sum   'Li4 Co8 P8 O36'
_cell_volume   608.61096076
_cell_formula_units_Z   4
loop_
 _symmetry_equiv_pos_site_id
 _symmetry_equiv_pos_as_xyz
  1  'x, y, z'
loop_
 _atom_site_type_symbol
 _atom_site_label
 _atom_site_symmetry_multiplicity
 _atom_site_fract_x
 _atom_site_fract_y
 _atom_site_fract_z
 _atom_site_occupancy
  Li  Li0  1  0.75000000  0.94198500  0.77443700  1
  Li  Li1  1  0.75000000  0.55801500  0.27443700  1
  Li  Li2  1  0.25000000  0.44198500  0.72556300  1
  Li  Li3  1  0.25000000  0.05801500  0.22556300  1
  Co  Co0  1  0.75000000  0.34747100  0.87798600  1
  Co  Co1  1  0.25000000  0.65252900  0.12201400  1
  Co  Co2  1  0.25000000  0.84747100  0.62201400  1
  Co  Co3  1  0.75000000  0.15252900  0.37798600  1
  Co  Co4  1  0.50000000  0.00000000  0.00000000  1
  Co  Co5  1  0.50000000  0.50000000  0.50000000  1
  Co  Co6  1  0.00000000  0.50000000  0.50000000  1
  Co  Co7  1  0.00000000  0.00000000  0.00000000  1
  P  P0  1  0.25000000  0.35434400  0.93674500  1
  P  P1  1  0.75000000  0.64565600  0.06325500  1
  P  P2  1  0.75000000  0.85434400  0.56325500  1
  P  P3  1  0.25000000  0.14565600  0.43674500  1
  P  P4  1  0.75000000  0.40346800  0.69485100  1
  P  P5  1  0.75000000  0.09653200  0.19485100  1
  P  P6  1  0.25000000  0.90346800  0.80514900  1
  P  P7  1  0.25000000  0.59653200  0.30514900  1
  O  O0  1  0.03635000  0.57834900  0.36674400  1
  O  O1  1  0.53635000  0.42165100  0.63325600  1
  O  O2  1  0.96365000  0.07834900  0.13325600  1
  O  O3  1  0.46365000  0.92165100  0.86674400  1
  O  O4  1  0.96365000  0.42165100  0.63325600  1
  O  O5  1  0.46365000  0.57834900  0.36674400  1
  O  O6  1  0.03635000  0.92165100  0.86674400  1
  O  O7  1  0.53635000  0.07834900  0.13325600  1
  O  O8  1  0.25000000  0.33360900  0.49376100  1
  O  O9  1  0.75000000  0.66639100  0.50623900  1
  O  O10  1  0.75000000  0.83360900  0.00623900  1
  O  O11  1  0.25000000  0.16639100  0.99376100  1
  O  O12  1  0.75000000  0.13988800  0.95871800  1
  O  O13  1  0.25000000  0.86011200  0.04128200  1
  O  O14  1  0.25000000  0.63988800  0.54128200  1
  O  O15  1  0.75000000  0.36011200  0.45871800  1
  O  O16  1  0.75000000  0.22064800  0.75404600  1
  O  O17  1  0.25000000  0.77935200  0.24595400  1
  O  O18  1  0.25000000  0.72064800  0.74595400  1
  O  O19  1  0.75000000  0.27935200  0.25404600  1
  O  O20  1  0.44427000  0.14608500  0.36439600  1
  O  O21  1  0.94427000  0.85391500  0.63560400  1
  O  O22  1  0.55573000  0.64608500  0.13560400  1
  O  O23  1  0.05573000  0.35391500  0.86439600  1
  O  O24  1  0.55573000  0.85391500  0.63560400  1
  O  O25  1  0.05573000  0.14608500  0.36439600  1
  O  O26  1  0.44427000  0.35391500  0.86439600  1
  O  O27  1  0.94427000  0.64608500  0.13560400  1
  O  O28  1  0.75000000  0.48803000  0.99323900  1
  O  O29  1  0.25000000  0.03927200  0.71720700  1
  O  O30  1  0.25000000  0.46072800  0.21720700  1
  O  O31  1  0.75000000  0.53927200  0.78279300  1
  O  O32  1  0.75000000  0.01197000  0.49323900  1
  O  O33  1  0.25000000  0.98803000  0.50676100  1
  O  O34  1  0.25000000  0.51197000  0.00676100  1
  O  O35  1  0.75000000  0.96072800  0.28279300  1
loop_
_geom_bond_atom_site_label_1
_geom_bond_atom_site_label_2
_geom_bond_distance
_geom_bond_site_symmetry_2
Li0 O16 2.074302 1_565
Li0 O3 2.147828 1_555
Li0 O6 2.147828 1_655
Li0 O21 2.319570 1_555
Li0 O24 2.319570 1_555
Li1 O19 2.074302 1_555
Li1 O5 2.147828 1_555
Li1 O0 2.147828 1_655
Li1 O27 2.319570 1_555
Li1 O22 2.319570 1_555
Li2 O18 2.074302 1_555
Li2 O4 2.147828 1_455
Li2 O1 2.147828 1_555
Li2 O26 2.319570 1_555
Li2 O23 2.319570 1_555
Li3 O17 2.074302 1_545
Li3 O2 2.147828 1_455
Li3 O7 2.147828 1_555
Li3 O20 2.319570 1_555
Li3 O25 2.319570 1_555
Co0 O26 1.862646 1_555
Co0 O23 1.862646 1_655
Co0 O28 1.880671 1_555
Co0 O12 1.884889 1_555
Co0 O31 1.918673 1_555
Co0 O16 1.929289 1_555
Co1 O22 1.862646 1_555
Co1 O27 1.862646 1_455
Co1 O34 1.880671 1_555
Co1 O13 1.884889 1_555
Co1 O30 1.918673 1_555
Co1 O17 1.929289 1_555
Co2 O24 1.862646 1_555
Co2 O21 1.862646 1_455
Co2 O33 1.880671 1_555
Co2 O14 1.884889 1_555
Co2 O29 1.918673 1_565
Co2 O18 1.929289 1_555
Co3 O20 1.862646 1_555
Co3 O25 1.862646 1_655
Co3 O32 1.880671 1_555
Co3 O15 1.884889 1_555
Co3 O35 1.918673 1_545
Co3 O19 1.929289 1_555
Co4 O7 1.916648 1_555
Co4 O3 1.916648 1_544
Co4 O13 1.917340 1_545
Co4 O12 1.917340 1_554
Co4 O10 1.951739 1_545
Co4 O11 1.951739 1_554
Co5 O5 1.916648 1_555
Co5 O1 1.916648 1_555
Co5 O15 1.917340 1_555
Co5 O14 1.917340 1_555
Co5 O9 1.951739 1_555
Co5 O8 1.951739 1_555
Co6 O0 1.916648 1_555
Co6 O4 1.916648 1_455
Co6 O15 1.917340 1_455
Co6 O14 1.917340 1_555
Co6 O9 1.951739 1_455
Co6 O8 1.951739 1_555
Co7 O2 1.916648 1_455
Co7 O6 1.916648 1_544
Co7 O13 1.917340 1_545
Co7 O12 1.917340 1_454
Co7 O10 1.951739 1_445
Co7 O11 1.951739 1_554
O0 P7 1.548422 1_555
O1 P4 1.548422 1_555
O2 P5 1.548422 1_555
O3 P6 1.548422 1_555
O4 P4 1.548422 1_555
O5 P7 1.548422 1_555
O6 P6 1.548422 1_555
O7 P5 1.548422 1_555
O8 P3 1.588976 1_555
O9 P2 1.588976 1_555
O10 P1 1.588976 1_555
O11 P0 1.588976 1_555
O16 P4 1.571053 1_555
O17 P7 1.571053 1_555
O18 P6 1.571053 1_555
O19 P5 1.571053 1_555
O20 P3 1.535004 1_555
O21 P2 1.535004 1_555
O22 P1 1.535004 1_555
O23 P0 1.535004 1_555
O24 P2 1.535004 1_555
O25 P3 1.535004 1_555
O26 P0 1.535004 1_555
O27 P1 1.535004 1_555
O28 P1 1.503526 1_556
O29 P6 1.561064 1_545
O30 P7 1.561064 1_555
O31 P4 1.561064 1_555
O32 P2 1.503526 1_545
O33 P3 1.503526 1_565
O34 P0 1.503526 1_554
O35 P5 1.561064 1_565
