# generated using pymatgen
data_Zr2N2O
_symmetry_space_group_name_H-M   'P 1'
_cell_length_a   8.85125500
_cell_length_b   8.87132033
_cell_length_c   8.89195725
_cell_angle_alpha   109.58615886
_cell_angle_beta   109.33020749
_cell_angle_gamma   109.32674474
_symmetry_Int_Tables_number   1
_chemical_formula_structural   Zr2N2O
_chemical_formula_sum   'Zr16 N16 O8'
_cell_volume   538.61339324
_cell_formula_units_Z   8
loop_
 _symmetry_equiv_pos_site_id
 _symmetry_equiv_pos_as_xyz
  1  'x, y, z'
loop_
 _atom_site_type_symbol
 _atom_site_label
 _atom_site_symmetry_multiplicity
 _atom_site_fract_x
 _atom_site_fract_y
 _atom_site_fract_z
 _atom_site_occupancy
  Zr  Zr0  1  0.51248000  0.50028500  0.49987000  1
  Zr  Zr1  1  0.21325300  0.45535700  0.25158900  1
  Zr  Zr2  1  0.96766400  0.25489200  0.78357200  1
  Zr  Zr3  1  0.47144100  0.24788500  0.28089500  1
  Zr  Zr4  1  0.28866800  0.03152300  0.75755400  1
  Zr  Zr5  1  0.00383400  0.49999400  0.98977100  1
  Zr  Zr6  1  0.24130000  0.78550200  0.46495300  1
  Zr  Zr7  1  0.49167900  0.00039500  0.00289000  1
  Zr  Zr8  1  0.99264600  0.00249600  0.49775500  1
  Zr  Zr9  1  0.75763200  0.71108700  0.02952400  1
  Zr  Zr10  1  0.74341300  0.20480800  0.53859900  1
  Zr  Zr11  1  0.25119900  0.28945800  0.97131100  1
  Zr  Zr12  1  0.71824800  0.96964600  0.24756400  1
  Zr  Zr13  1  0.02956300  0.75600100  0.21020600  1
  Zr  Zr14  1  0.53538700  0.74696700  0.71886200  1
  Zr  Zr15  1  0.78547500  0.54510000  0.74827600  1
  N  N0  1  0.76841200  0.73790900  0.27164800  1
  N  N1  1  0.54615100  0.27596500  0.48637000  1
  N  N2  1  0.24224400  0.22801300  0.22973100  1
  N  N3  1  0.50685100  0.03851500  0.23067800  1
  N  N4  1  0.00885500  0.23965400  0.53585900  1
  N  N5  1  0.03536200  0.77374000  0.95070600  1
  N  N6  1  0.96646700  0.22562700  0.04248300  1
  N  N7  1  0.72600600  0.45563500  0.03604000  1
  N  N8  1  0.04900100  0.53293400  0.72457600  1
  N  N9  1  0.99397600  0.76457500  0.46294700  1
  N  N10  1  0.76135900  0.77504400  0.77257500  1
  N  N11  1  0.77011600  0.01156500  0.45399100  1
  N  N12  1  0.26174300  0.03287400  0.01191400  1
  N  N13  1  0.49099500  0.95779300  0.77472300  1
  N  N14  1  0.27196600  0.54614600  0.96984800  1
  N  N15  1  0.53609500  0.48780400  0.73339500  1
  O  O0  1  0.27617200  0.72634800  0.23573500  1
  O  O1  1  0.22735400  0.26289500  0.72505000  1
  O  O2  1  0.46034100  0.51486400  0.26473600  1
  O  O3  1  0.22715100  0.98399300  0.54902500  1
  O  O4  1  0.72377300  0.26660300  0.77250600  1
  O  O5  1  0.95791300  0.47011200  0.27418600  1
  O  O6  1  0.73709100  0.96686700  0.98565400  1
  O  O7  1  0.45072600  0.72312400  0.51243200  1
loop_
_geom_bond_atom_site_label_1
_geom_bond_atom_site_label_2
_geom_bond_distance
_geom_bond_site_symmetry_2
Zr2 Zr5 2.160994 1_655
Zr10 Zr2 2.187961 1_555
Zr11 Zr2 2.356473 1_455
Zr13 Zr9 2.215684 1_455
Zr13 Zr6 2.275831 1_555
Zr13 Zr5 2.330106 1_554
N0 N9 2.026035 1_555
N0 Zr9 2.050964 1_555
N0 Zr8 2.145146 1_565
N0 Zr12 2.303432 1_555
N0 Zr13 2.513288 1_655
N1 Zr3 1.619724 1_555
N1 Zr10 2.012963 1_555
N1 Zr0 2.078337 1_555
N1 Zr15 2.295611 1_555
N2 Zr3 1.857982 1_555
N2 Zr1 2.069792 1_555
N2 Zr0 2.409906 1_555
N3 Zr7 1.888280 1_555
N3 Zr3 1.915578 1_555
N3 Zr12 2.128176 1_545
N3 Zr10 2.347179 1_555
N4 Zr8 1.962625 1_455
N4 O1 1.990605 1_555
N4 Zr10 2.275628 1_455
N4 Zr2 2.316792 1_455
N4 Zr12 2.522917 1_445
N5 Zr15 2.047741 1_455
N5 Zr13 2.380819 1_556
N5 Zr5 2.505446 1_555
N5 Zr9 2.709336 1_456
N6 Zr1 2.050872 1_655
N6 Zr2 2.404748 1_554
N6 Zr5 2.566725 1_654
N6 Zr11 2.724755 1_654
N7 Zr9 2.212744 1_555
N7 Zr13 2.541167 1_655
N7 Zr5 2.551319 1_654
N8 Zr15 2.444093 1_455
N8 Zr5 2.610489 1_555
N8 Zr2 2.611466 1_455
N8 Zr10 2.669099 1_455
N9 O3 1.982574 1_655
N9 Zr8 2.032670 1_565
N9 Zr6 2.128376 1_655
N9 Zr13 2.350646 1_655
N9 Zr4 2.550064 1_665
N10 Zr14 1.802430 1_555
N10 Zr15 2.068022 1_555
N10 Zr0 2.370830 1_555
N11 Zr12 1.609266 1_545
N11 Zr10 1.755556 1_555
N11 Zr8 1.912055 1_555
N11 N4 2.062394 1_655
N11 Zr2 2.484656 1_555
N12 Zr3 2.112557 1_555
N12 Zr7 2.170795 1_555
N12 Zr4 2.347989 1_554
N12 Zr11 2.447369 1_554
N13 Zr7 1.932713 1_566
N13 Zr14 1.972801 1_555
N13 Zr4 2.078353 1_565
N13 Zr6 2.391453 1_555
N14 Zr11 2.227960 1_555
N14 Zr5 2.348486 1_555
N14 Zr2 2.498996 1_455
N15 Zr15 2.041339 1_555
N15 Zr0 2.061529 1_555
N15 Zr9 2.283882 1_556
N15 Zr14 2.347526 1_555
O0 Zr6 2.081226 1_555
O0 Zr13 2.231013 1_555
O0 Zr5 2.233311 1_554
O0 Zr1 2.345735 1_555
O1 Zr11 2.051879 1_555
O1 Zr8 2.156538 1_455
O1 Zr4 2.371151 1_555
O1 Zr2 2.503583 1_455
O2 Zr1 2.025005 1_555
O2 Zr0 2.045282 1_555
O2 Zr11 2.255501 1_554
O2 Zr3 2.452086 1_555
O3 Zr4 1.602464 1_565
O3 Zr6 1.732229 1_555
O3 Zr8 2.047534 1_465
O3 Zr13 2.512218 1_555
O4 Zr10 2.048094 1_555
O4 Zr2 2.166869 1_555
O4 Zr5 2.216894 1_655
O4 Zr15 2.447527 1_555
O5 Zr1 2.375771 1_655
O5 Zr6 2.520579 1_655
O5 Zr13 2.701816 1_655
O5 Zr5 2.773091 1_654
O6 Zr14 2.099733 1_555
O6 Zr7 2.334078 1_566
O6 Zr12 2.381919 1_556
O6 Zr9 2.480653 1_556
O7 Zr14 1.643092 1_555
O7 Zr6 2.058669 1_555
O7 Zr0 2.197020 1_555
O7 Zr1 2.283449 1_555
