# generated using pymatgen
data_NaVH2I2O9
_symmetry_space_group_name_H-M   'P 1'
_cell_length_a   5.33922000
_cell_length_b   9.16189300
_cell_length_c   9.24807435
_cell_angle_alpha   69.45657694
_cell_angle_beta   90.00000000
_cell_angle_gamma   90.00000000
_symmetry_Int_Tables_number   1
_chemical_formula_structural   NaVH2I2O9
_chemical_formula_sum   'Na2 V2 H4 I4 O18'
_cell_volume   423.62225445
_cell_formula_units_Z   2
loop_
 _symmetry_equiv_pos_site_id
 _symmetry_equiv_pos_as_xyz
  1  'x, y, z'
loop_
 _atom_site_type_symbol
 _atom_site_label
 _atom_site_symmetry_multiplicity
 _atom_site_fract_x
 _atom_site_fract_y
 _atom_site_fract_z
 _atom_site_occupancy
  Na  Na0  1  0.74175300  0.04014700  0.17212100  1
  Na  Na1  1  0.24175300  0.95985300  0.82787900  1
  V  V0  1  0.71705900  0.72562200  0.11338500  1
  V  V1  1  0.21705900  0.27437800  0.88661500  1
  H  H0  1  0.04861800  0.10565700  0.41252300  1
  H  H1  1  0.54861800  0.89434300  0.58747700  1
  H  H2  1  0.21349500  0.03057000  0.31749200  1
  H  H3  1  0.71349500  0.96943000  0.68250800  1
  I  I0  1  0.39955900  0.37898600  0.18704900  1
  I  I1  1  0.89955900  0.62101400  0.81295100  1
  I  I2  1  0.32541100  0.67817100  0.43359700  1
  I  I3  1  0.82541100  0.32182900  0.56640300  1
  O  O0  1  0.45214900  0.25952100  0.06095100  1
  O  O1  1  0.95214900  0.74047900  0.93904900  1
  O  O2  1  0.64546900  0.52342100  0.07413500  1
  O  O3  1  0.14546900  0.47657900  0.92586500  1
  O  O4  1  0.59268400  0.25938000  0.34412600  1
  O  O5  1  0.09268400  0.74062000  0.65587400  1
  O  O6  1  0.55747200  0.57998700  0.57836300  1
  O  O7  1  0.05747200  0.42001300  0.42163700  1
  O  O8  1  0.44068800  0.87851100  0.37566800  1
  O  O9  1  0.94068800  0.12148900  0.62433200  1
  O  O10  1  0.47200500  0.61349400  0.27614100  1
  O  O11  1  0.97200500  0.38650600  0.72385900  1
  O  O12  1  0.54779000  0.88386700  0.02764300  1
  O  O13  1  0.04779000  0.11613300  0.97235700  1
  O  O14  1  0.92853900  0.77387100  0.22136200  1
  O  O15  1  0.42853900  0.22612900  0.77863800  1
  O  O16  1  0.08644000  0.11351200  0.30603900  1
  O  O17  1  0.58644000  0.88648800  0.69396100  1
loop_
_geom_bond_atom_site_label_1
_geom_bond_atom_site_label_2
_geom_bond_distance
_geom_bond_site_symmetry_2
Na0 O13 2.380118 1_654
Na0 O16 2.440659 1_655
Na0 O0 2.457091 1_555
Na0 O12 2.500114 1_545
Na0 O8 2.522690 1_545
Na0 O14 2.524653 1_545
Na1 O12 2.380118 1_556
Na1 O17 2.440659 1_555
Na1 O1 2.457091 1_455
Na1 O13 2.500114 1_565
Na1 O9 2.522690 1_465
Na1 O15 2.524653 1_565
H0 O16 0.982851 1_555
H1 O17 0.982851 1_555
H2 O16 0.996182 1_555
H2 O8 1.782056 1_545
H3 O17 0.996182 1_555
H3 O9 1.782056 1_565
I0 O4 1.804734 1_555
I0 O0 1.879517 1_555
I0 O2 1.896210 1_555
I1 O5 1.804734 1_655
I1 O1 1.879517 1_555
I1 O3 1.896210 1_655
I2 O6 1.814261 1_555
I2 O8 1.828862 1_555
I2 O10 1.920874 1_555
I3 O7 1.814261 1_655
I3 O9 1.828862 1_555
I3 O11 1.920874 1_555
O0 V1 2.009837 1_554
O1 V0 2.009837 1_556
O2 V0 2.044928 1_555
O3 V1 2.044928 1_555
O10 V0 1.986855 1_555
O11 V1 1.986855 1_655
O12 V0 1.655504 1_555
O13 V1 1.655504 1_555
O14 V0 1.666533 1_555
O15 V1 1.666533 1_555
