# generated using pymatgen
data_KVH4O7
_symmetry_space_group_name_H-M   'P 1'
_cell_length_a   6.57333718
_cell_length_b   8.14033816
_cell_length_c   7.51213995
_cell_angle_alpha   106.61764612
_cell_angle_beta   96.12852966
_cell_angle_gamma   115.64482994
_symmetry_Int_Tables_number   1
_chemical_formula_structural   KVH4O7
_chemical_formula_sum   'K2 V2 H8 O14'
_cell_volume   334.64457387
_cell_formula_units_Z   2
loop_
 _symmetry_equiv_pos_site_id
 _symmetry_equiv_pos_as_xyz
  1  'x, y, z'
loop_
 _atom_site_type_symbol
 _atom_site_label
 _atom_site_symmetry_multiplicity
 _atom_site_fract_x
 _atom_site_fract_y
 _atom_site_fract_z
 _atom_site_occupancy
  K  K0  1  0.00758800  0.00569200  0.97325600  1
  K  K1  1  0.62198500  0.44010500  0.56173700  1
  V  V0  1  0.40074900  0.87934100  0.75464400  1
  V  V1  1  0.25497400  0.57760200  0.96728600  1
  H  H0  1  0.29150600  0.67195200  0.34886000  1
  H  H1  1  0.01477500  0.58109000  0.22608400  1
  H  H2  1  0.69824100  0.05049500  0.49781300  1
  H  H3  1  0.62862700  0.05949400  0.29726000  1
  H  H4  1  0.68801100  0.33368300  0.11632500  1
  H  H5  1  0.67454700  0.53408000  0.15726500  1
  H  H6  1  0.02467300  0.17638900  0.40018500  1
  H  H7  1  0.15954100  0.06321200  0.41833800  1
  O  O0  1  0.25147300  0.96206600  0.65423900  1
  O  O1  1  0.13374600  0.33994600  0.90356300  1
  O  O2  1  0.18726300  0.65139800  0.22558500  1
  O  O3  1  0.73465800  0.14144300  0.42667900  1
  O  O4  1  0.74712200  0.46803400  0.21231300  1
  O  O5  1  0.16296200  0.16486800  0.37189600  1
  O  O6  1  0.40758600  0.95846800  0.02174200  1
  O  O7  1  0.62418200  0.08766100  0.98506800  1
  O  O8  1  0.44283900  0.70230100  0.54629700  1
  O  O9  1  0.64666100  0.89874200  0.63306200  1
  O  O10  1  0.13647400  0.61507400  0.73626600  1
  O  O11  1  0.01165200  0.63214100  0.88467400  1
  O  O12  1  0.54639900  0.65901600  0.90521600  1
  O  O13  1  0.57396600  0.68910500  0.10924900  1
loop_
_geom_bond_atom_site_label_1
_geom_bond_atom_site_label_2
_geom_bond_distance
_geom_bond_site_symmetry_2
K0 O1 2.705492 1_555
K0 O5 2.769836 1_556
K0 O6 2.818559 1_546
K0 O7 2.876507 1_455
K0 O9 2.926204 1_445
K0 O11 2.933755 1_545
K0 O12 2.975644 1_445
K0 O0 3.043964 1_545
K1 O5 2.749531 1_555
K1 O3 2.792293 1_555
K1 O11 2.815676 1_655
K1 O8 2.871178 1_555
K1 O4 2.873849 1_555
K1 O12 2.913821 1_555
K1 O10 3.000114 1_655
H0 O2 1.015756 1_555
H0 O8 1.585265 1_555
H1 O2 1.026435 1_555
H1 O4 1.567874 1_455
H2 O3 0.995569 1_555
H2 O9 1.761288 1_545
H3 O3 0.978725 1_555
H4 O4 0.994138 1_555
H4 O7 1.792754 1_554
H5 O4 0.997344 1_555
H5 O13 1.758235 1_555
H6 O5 0.991925 1_555
H7 O5 0.978620 1_555
O0 V0 1.640020 1_555
O1 V1 1.631345 1_555
O2 V1 2.018211 1_554
O6 O7 1.470516 1_564
O6 V0 1.912939 1_554
O6 V1 2.698305 1_554
O7 V0 1.910886 1_545
O8 O9 1.462841 1_555
O8 V0 1.936646 1_555
O9 V0 1.910196 1_555
O10 O11 1.463156 1_555
O10 V1 1.982778 1_555
O10 V0 2.051532 1_555
O11 V1 1.923731 1_555
O12 O13 1.459324 1_556
O12 V1 1.896009 1_555
O13 V1 1.918173 1_554
