# generated using pymatgen
data_Fe5SiP
_symmetry_space_group_name_H-M   'P 1'
_cell_length_a   6.67192279
_cell_length_b   6.67192279
_cell_length_c   12.21588440
_cell_angle_alpha   89.75928292
_cell_angle_beta   89.75928292
_cell_angle_gamma   119.77998631
_symmetry_Int_Tables_number   1
_chemical_formula_structural   Fe5SiP
_chemical_formula_sum   'Fe30 Si6 P6'
_cell_volume   471.95534519
_cell_formula_units_Z   6
loop_
 _symmetry_equiv_pos_site_id
 _symmetry_equiv_pos_as_xyz
  1  'x, y, z'
loop_
 _atom_site_type_symbol
 _atom_site_label
 _atom_site_symmetry_multiplicity
 _atom_site_fract_x
 _atom_site_fract_y
 _atom_site_fract_z
 _atom_site_occupancy
  Fe  Fe0  1  0.99962500  0.99962500  0.54985600  1
  Fe  Fe1  1  0.99861200  0.99861200  0.05121200  1
  Fe  Fe2  1  0.38090100  0.38090100  0.29212300  1
  Fe  Fe3  1  0.61915300  0.00012400  0.29344400  1
  Fe  Fe4  1  0.00012400  0.61915300  0.29344400  1
  Fe  Fe5  1  0.62470000  0.62470000  0.79020300  1
  Fe  Fe6  1  0.37333100  0.99793900  0.78863000  1
  Fe  Fe7  1  0.99793900  0.37333100  0.78863000  1
  Fe  Fe8  1  0.69378100  0.69378100  0.17519000  1
  Fe  Fe9  1  0.30686300  0.00332800  0.17773700  1
  Fe  Fe10  1  0.00332800  0.30686300  0.17773700  1
  Fe  Fe11  1  0.30201900  0.30201900  0.67270300  1
  Fe  Fe12  1  0.69729200  0.00043400  0.67396100  1
  Fe  Fe13  1  0.00043400  0.69729200  0.67396100  1
  Fe  Fe14  1  0.75772000  0.75772000  0.38340100  1
  Fe  Fe15  1  0.24188100  0.00061300  0.38336700  1
  Fe  Fe16  1  0.00061300  0.24188100  0.38336700  1
  Fe  Fe17  1  0.24319500  0.24319500  0.87931600  1
  Fe  Fe18  1  0.73613500  0.99878000  0.88383300  1
  Fe  Fe19  1  0.99878000  0.73613500  0.88383300  1
  Fe  Fe20  1  0.66694600  0.33334100  0.42085900  1
  Fe  Fe21  1  0.33334100  0.66694600  0.42085900  1
  Fe  Fe22  1  0.34092500  0.66315800  0.91572300  1
  Fe  Fe23  1  0.66315800  0.34092500  0.91572300  1
  Fe  Fe24  1  0.37478700  0.37478700  0.07427600  1
  Fe  Fe25  1  0.63608700  0.00723200  0.08411200  1
  Fe  Fe26  1  0.00723200  0.63608700  0.08411200  1
  Fe  Fe27  1  0.61922500  0.61922500  0.57607100  1
  Fe  Fe28  1  0.37959500  0.99945700  0.57575500  1
  Fe  Fe29  1  0.99945700  0.37959500  0.57575500  1
  Si  Si0  1  0.33437900  0.99954100  0.98492500  1
  Si  Si1  1  0.99954100  0.33437900  0.98492500  1
  Si  Si2  1  0.66837400  0.33546100  0.20550800  1
  Si  Si3  1  0.33546100  0.66837400  0.20550800  1
  Si  Si4  1  0.33282500  0.66522500  0.70481800  1
  Si  Si5  1  0.66522500  0.33282500  0.70481800  1
  P  P0  1  0.99652400  0.99652400  0.24687700  1
  P  P1  1  0.99767100  0.99767100  0.74886700  1
  P  P2  1  0.33033100  0.33033100  0.48347000  1
  P  P3  1  0.66999800  0.99943600  0.48416300  1
  P  P4  1  0.99943600  0.66999800  0.48416300  1
  P  P5  1  0.67305600  0.67305600  0.98676400  1
loop_
_geom_bond_atom_site_label_1
_geom_bond_atom_site_label_2
_geom_bond_distance
_geom_bond_site_symmetry_2
Fe0 P4 2.343666 1_555
Fe0 P3 2.343666 1_555
Fe0 P2 2.351256 1_665
Fe0 P1 2.431021 1_555
Fe1 P5 2.323344 1_554
Fe1 Si0 2.375965 1_654
Fe1 Si1 2.375965 1_564
Fe1 P0 2.390145 1_555
Fe1 Fe25 2.478979 1_565
Fe1 Fe26 2.478979 1_655
Fe2 Si2 2.335255 1_555
Fe2 Si3 2.335255 1_555
Fe2 P2 2.359051 1_555
Fe2 Fe8 2.525282 1_555
Fe2 Fe20 2.615087 1_555
Fe2 Fe21 2.615087 1_555
Fe2 P0 2.636275 1_445
Fe2 Fe24 2.661851 1_555
Fe2 Fe9 2.709586 1_555
Fe3 Si3 2.347592 1_545
Fe3 Si2 2.348293 1_555
Fe3 P3 2.356093 1_545
Fe3 Fe9 2.531473 1_555
Fe3 P0 2.590675 1_545
Fe3 Fe8 2.746253 1_545
Fe4 Si2 2.347592 1_455
Fe4 Si3 2.348293 1_555
Fe4 P4 2.356093 1_455
Fe4 P0 2.590675 1_455
Fe4 Fe9 2.736904 1_565
Fe4 Fe8 2.746253 1_455
Fe5 Si5 2.343294 1_555
Fe5 Si4 2.343294 1_555
Fe5 P5 2.425572 1_555
Fe5 P1 2.543108 1_555
Fe6 Si4 2.339760 1_555
Fe6 Si5 2.339844 1_565
Fe6 Si0 2.411514 1_555
Fe6 P1 2.554143 1_455
Fe7 Si5 2.339760 1_555
Fe7 Si4 2.339844 1_655
Fe7 Si1 2.411514 1_555
Fe7 P1 2.554143 1_545
Fe8 P0 2.214426 1_555
Fe8 P5 2.307127 1_554
Fe8 Si2 2.338963 1_555
Fe8 Si3 2.338963 1_555
Fe9 P0 2.212294 1_445
Fe9 Si2 2.355236 1_555
Fe9 Si3 2.358709 1_545
Fe9 Si0 2.362960 1_544
Fe10 P0 2.212294 1_445
Fe10 Si3 2.355236 1_555
Fe10 Si2 2.358709 1_455
Fe10 Si1 2.362960 1_454
Fe10 Fe26 2.460778 1_555
Fe10 Fe4 2.531473 1_555
Fe10 Fe25 2.546600 1_455
Fe10 Fe2 2.709586 1_555
Fe10 Fe3 2.736904 1_455
Fe11 P1 2.232633 1_445
Fe11 P2 2.317822 1_555
Fe11 Si4 2.362703 1_555
Fe11 Si5 2.362703 1_555
Fe11 Fe5 2.603471 1_555
Fe11 Fe6 2.699676 1_545
Fe11 Fe7 2.699676 1_455
Fe12 P1 2.214960 1_545
Fe12 P3 2.326232 1_545
Fe12 Si5 2.362976 1_555
Fe12 Si4 2.374885 1_545
Fe12 Fe6 2.563772 1_545
Fe12 Fe7 2.696521 1_555
Fe12 Fe5 2.700668 1_545
Fe13 P1 2.214960 1_455
Fe13 P4 2.326232 1_455
Fe13 Si4 2.362976 1_555
Fe13 Si5 2.374885 1_455
Fe13 Fe7 2.563772 1_455
Fe13 Fe6 2.696521 1_555
Fe13 Fe5 2.700668 1_455
Fe14 P0 2.300483 1_555
Fe14 P4 2.325233 1_555
Fe14 P3 2.325233 1_555
Fe14 Fe3 2.481295 1_565
Fe14 Fe4 2.481295 1_655
Fe14 Fe2 2.766451 1_555
Fe15 P4 2.326906 1_445
Fe15 P2 2.328534 1_555
Fe15 P0 2.332278 1_445
Fe15 Fe2 2.483987 1_555
Fe15 Fe4 2.499268 1_545
Fe15 Fe3 2.743644 1_555
Fe16 P3 2.326906 1_445
Fe16 P2 2.328534 1_555
Fe16 P0 2.332278 1_445
Fe16 Fe2 2.483987 1_555
Fe16 Fe3 2.499268 1_455
Fe16 Fe4 2.743644 1_555
Fe17 P1 2.298818 1_445
Fe17 Si1 2.376675 1_455
Fe17 Si0 2.376675 1_545
Fe17 Fe6 2.465184 1_545
Fe17 Fe7 2.465184 1_455
Fe17 Fe5 2.767766 1_555
Fe18 P5 2.354793 1_555
Fe18 P1 2.398324 1_555
Fe18 Si1 2.399949 1_565
Fe18 Fe7 2.504203 1_565
Fe18 Fe5 2.505602 1_555
Fe18 Fe25 2.541527 1_566
Fe18 Fe6 2.687396 1_555
Fe19 P5 2.354793 1_555
Fe19 P1 2.398324 1_555
Fe19 Si0 2.399949 1_655
Fe19 Fe6 2.504203 1_655
Fe19 Fe5 2.505602 1_555
Fe19 Fe26 2.541527 1_656
Fe19 Fe7 2.687396 1_555
Fe20 P2 2.360076 1_555
Fe20 P3 2.364781 1_545
Fe20 P4 2.375650 1_555
Fe20 Fe4 2.595321 1_655
Fe20 Fe3 2.606913 1_555
Fe20 Si2 2.630633 1_555
Fe21 P2 2.360076 1_555
Fe21 P4 2.364781 1_455
Fe21 P3 2.375650 1_555
Fe21 Fe3 2.595321 1_565
Fe21 Fe4 2.606913 1_555
Fe21 Si3 2.630633 1_555
Fe22 P5 2.353552 1_555
Fe22 Si1 2.391553 1_455
Fe22 Si0 2.422091 1_555
Fe22 Fe5 2.542268 1_555
Fe22 Si4 2.577307 1_555
Fe22 Fe6 2.633364 1_555
Fe22 Fe7 2.654392 1_455
Fe23 P5 2.353552 1_555
Fe23 Si0 2.391553 1_545
Fe23 Si1 2.422091 1_555
Fe23 Fe5 2.542268 1_555
Fe23 Si5 2.577307 1_555
Fe23 Fe7 2.633364 1_555
Fe23 Fe6 2.654392 1_545
Fe24 P5 2.256915 1_554
Fe24 Si0 2.624327 1_544
Fe24 Si1 2.624327 1_454
Fe24 Si2 2.647462 1_555
Fe24 Si3 2.647462 1_555
Fe25 Si0 2.332641 1_544
Fe25 Fe9 2.460778 1_555
Fe25 Fe8 2.558001 1_545
Fe25 Fe3 2.558396 1_555
Fe25 Si2 2.569569 1_555
Fe25 Si3 2.603064 1_545
Fe25 Si1 2.609221 1_554
Fe25 P5 2.648057 1_544
Fe26 Si1 2.332641 1_454
Fe26 Fe9 2.546600 1_565
Fe26 Fe8 2.558001 1_455
Fe26 Fe4 2.558396 1_555
Fe26 Si3 2.569569 1_555
Fe26 Si2 2.603064 1_455
Fe26 Si0 2.609221 1_554
Fe26 P5 2.648057 1_454
Fe27 P2 2.248593 1_555
Fe27 Si4 2.603924 1_555
Fe27 Si5 2.603924 1_555
Fe27 Fe5 2.616375 1_555
Fe27 P4 2.632414 1_555
Fe27 P3 2.632414 1_555
Fe28 P3 2.233389 1_555
Fe28 Fe6 2.600513 1_555
Fe28 Si4 2.613613 1_555
Fe28 Si5 2.628455 1_565
Fe28 P2 2.637281 1_565
Fe28 P4 2.650142 1_455
Fe29 P4 2.233389 1_555
Fe29 Fe7 2.600513 1_555
Fe29 Si5 2.613613 1_555
Fe29 Si4 2.628455 1_655
Fe29 P2 2.637281 1_655
Fe29 P3 2.650142 1_545
