# generated using pymatgen
data_Ba10GdY4(Cu3O7)5
_symmetry_space_group_name_H-M   'P 1'
_cell_length_a   3.85520089
_cell_length_b   3.93245714
_cell_length_c   59.11043466
_cell_angle_alpha   90.00000000
_cell_angle_beta   90.00000000
_cell_angle_gamma   90.00000000
_symmetry_Int_Tables_number   1
_chemical_formula_structural   Ba10GdY4(Cu3O7)5
_chemical_formula_sum   'Ba10 Gd1 Y4 Cu15 O35'
_cell_volume   896.13855867
_cell_formula_units_Z   1
loop_
 _symmetry_equiv_pos_site_id
 _symmetry_equiv_pos_as_xyz
  1  'x, y, z'
loop_
 _atom_site_type_symbol
 _atom_site_label
 _atom_site_symmetry_multiplicity
 _atom_site_fract_x
 _atom_site_fract_y
 _atom_site_fract_z
 _atom_site_occupancy
  Ba  Ba0  1  0.50000000  0.50000000  0.03612676  1
  Ba  Ba1  1  0.50000000  0.50000000  0.23624304  1
  Ba  Ba2  1  0.50000000  0.50000000  0.43618450  1
  Ba  Ba3  1  0.50000000  0.50000000  0.63621228  1
  Ba  Ba4  1  0.50000000  0.50000000  0.83632592  1
  Ba  Ba5  1  0.50000000  0.50000000  0.16387324  1
  Ba  Ba6  1  0.50000000  0.50000000  0.36367408  1
  Ba  Ba7  1  0.50000000  0.50000000  0.56378772  1
  Ba  Ba8  1  0.50000000  0.50000000  0.76381550  1
  Ba  Ba9  1  0.50000000  0.50000000  0.96375696  1
  Gd  Gd0  1  0.50000000  0.50000000  0.10000000  1
  Y  Y0  1  0.50000000  0.50000000  0.30003603  1
  Y  Y1  1  0.50000000  0.50000000  0.50000722  1
  Y  Y2  1  0.50000000  0.50000000  0.69999278  1
  Y  Y3  1  0.50000000  0.50000000  0.89996397  1
  Cu  Cu0  1  -0.00000000  0.00000000  0.07028029  1
  Cu  Cu1  1  -0.00000000  -0.00000000  0.27047707  1
  Cu  Cu2  1  0.00000000  -0.00000000  0.47047681  1
  Cu  Cu3  1  -0.00000000  -0.00000000  0.67046529  1
  Cu  Cu4  1  0.00000000  0.00000000  0.87054039  1
  Cu  Cu5  1  0.00000000  -0.00000000  0.12971971  1
  Cu  Cu6  1  0.00000000  0.00000000  0.32945961  1
  Cu  Cu7  1  -0.00000000  0.00000000  0.52953471  1
  Cu  Cu8  1  0.00000000  0.00000000  0.72952319  1
  Cu  Cu9  1  -0.00000000  -0.00000000  0.92952293  1
  Cu  Cu10  1  -0.00000000  0.00000000  0.00000785  1
  Cu  Cu11  1  0.00000000  -0.00000000  0.19999215  1
  Cu  Cu12  1  0.00000000  -0.00000000  0.40001599  1
  Cu  Cu13  1  0.00000000  -0.00000000  0.60000000  1
  Cu  Cu14  1  -0.00000000  -0.00000000  0.79998401  1
  O  O0  1  -0.00000000  0.50000000  0.07512642  1
  O  O1  1  0.00000000  0.50000000  0.27576353  1
  O  O2  1  -0.00000000  0.50000000  0.47574074  1
  O  O3  1  -0.00000000  0.50000000  0.67573564  1
  O  O4  1  -0.00000000  0.50000000  0.87575860  1
  O  O5  1  0.00000000  0.50000000  0.12487358  1
  O  O6  1  -0.00000000  0.50000000  0.32424140  1
  O  O7  1  -0.00000000  0.50000000  0.52426436  1
  O  O8  1  -0.00000000  0.50000000  0.72425926  1
  O  O9  1  0.00000000  0.50000000  0.92423647  1
  O  O10  1  -0.00000000  0.00000000  0.03178841  1
  O  O11  1  -0.00000000  0.00000000  0.23182237  1
  O  O12  1  -0.00000000  -0.00000000  0.43184055  1
  O  O13  1  -0.00000000  -0.00000000  0.63183334  1
  O  O14  1  -0.00000000  0.00000000  0.83179419  1
  O  O15  1  -0.00000000  0.00000000  0.16821159  1
  O  O16  1  -0.00000000  -0.00000000  0.36820581  1
  O  O17  1  0.00000000  -0.00000000  0.56816666  1
  O  O18  1  -0.00000000  0.00000000  0.76815945  1
  O  O19  1  0.00000000  0.00000000  0.96817763  1
  O  O20  1  -0.00000000  0.50000000  0.99996426  1
  O  O21  1  0.00000000  0.50000000  0.20003574  1
  O  O22  1  -0.00000000  0.50000000  0.39998227  1
  O  O23  1  -0.00000000  0.50000000  0.60000000  1
  O  O24  1  -0.00000000  0.50000000  0.80001773  1
  O  O25  1  0.50000000  0.00000000  0.07531792  1
  O  O26  1  0.50000000  -0.00000000  0.27592634  1
  O  O27  1  0.50000000  0.00000000  0.47592869  1
  O  O28  1  0.50000000  0.00000000  0.67592535  1
  O  O29  1  0.50000000  -0.00000000  0.87592628  1
  O  O30  1  0.50000000  0.00000000  0.12468208  1
  O  O31  1  0.50000000  0.00000000  0.32407372  1
  O  O32  1  0.50000000  -0.00000000  0.52407465  1
  O  O33  1  0.50000000  0.00000000  0.72407131  1
  O  O34  1  0.50000000  0.00000000  0.92407366  1
loop_
_geom_bond_atom_site_label_1
_geom_bond_atom_site_label_2
_geom_bond_distance
_geom_bond_site_symmetry_2
Ba0 O10 2.765404 1_565
Ba0 O10 2.765404 1_665
Ba0 O10 2.765404 1_655
Ba0 O10 2.765404 1_555
Ba0 O20 2.878350 1_554
Ba0 O20 2.878350 1_654
Ba0 O0 3.004994 1_555
Ba0 O0 3.004994 1_655
Ba0 O25 3.038539 1_565
Ba0 O25 3.038539 1_555
Ba1 O11 2.765860 1_655
Ba1 O11 2.765860 1_665
Ba1 O11 2.765860 1_565
Ba1 O11 2.765860 1_555
Ba1 O21 2.880317 1_555
Ba1 O21 2.880317 1_655
Ba1 O1 3.028677 1_655
Ba1 O1 3.028677 1_555
Ba1 O26 3.060776 1_555
Ba1 O26 3.060776 1_565
Ba2 O12 2.765435 1_555
Ba2 O12 2.765435 1_655
Ba2 O12 2.765435 1_565
Ba2 O12 2.765435 1_665
Ba2 O22 2.880094 1_555
Ba2 O22 2.880094 1_655
Ba2 O2 3.030307 1_555
Ba2 O2 3.030307 1_655
Ba2 O27 3.063535 1_565
Ba2 O27 3.063535 1_555
Ba3 O13 2.765628 1_565
Ba3 O13 2.765628 1_665
Ba3 O13 2.765628 1_655
Ba3 O13 2.765628 1_555
Ba3 O23 2.880536 1_655
Ba3 O23 2.880536 1_555
Ba3 O3 3.028807 1_555
Ba3 O3 3.028807 1_655
Ba3 O28 3.062125 1_555
Ba3 O28 3.062125 1_565
Ba4 O14 2.766488 1_565
Ba4 O14 2.766488 1_665
Ba4 O14 2.766488 1_555
Ba4 O14 2.766488 1_655
Ba4 O24 2.884751 1_555
Ba4 O24 2.884751 1_655
Ba4 O4 3.024675 1_555
Ba4 O4 3.024675 1_655
Ba4 O29 3.057020 1_555
Ba4 O29 3.057020 1_565
Ba5 O15 2.765404 1_665
Ba5 O15 2.765404 1_555
Ba5 O15 2.765404 1_655
Ba5 O15 2.765404 1_565
Ba5 O21 2.878350 1_555
Ba5 O21 2.878350 1_655
Ba5 O5 3.004994 1_555
Ba5 O5 3.004994 1_655
Ba5 O30 3.038539 1_555
Ba5 O30 3.038539 1_565
Ba6 O16 2.766488 1_555
Ba6 O16 2.766488 1_655
Ba6 O16 2.766488 1_565
Ba6 O16 2.766488 1_665
Ba6 O22 2.884751 1_555
Ba6 O22 2.884751 1_655
Ba6 O6 3.024675 1_555
Ba6 O6 3.024675 1_655
Ba6 O31 3.057020 1_555
Ba6 O31 3.057020 1_565
Ba7 O17 2.765628 1_655
Ba7 O17 2.765628 1_555
Ba7 O17 2.765628 1_565
Ba7 O17 2.765628 1_665
Ba7 O23 2.880536 1_555
Ba7 O23 2.880536 1_655
Ba7 O7 3.028807 1_555
Ba7 O7 3.028807 1_655
Ba7 O32 3.062125 1_565
Ba7 O32 3.062125 1_555
Ba8 O18 2.765435 1_555
Ba8 O18 2.765435 1_565
Ba8 O18 2.765435 1_655
Ba8 O18 2.765435 1_665
Ba8 O24 2.880094 1_555
Ba8 O24 2.880094 1_655
Ba8 O8 3.030307 1_655
Ba8 O8 3.030307 1_555
Ba8 O33 3.063535 1_565
Ba8 O33 3.063535 1_555
Ba9 O19 2.765860 1_555
Ba9 O19 2.765860 1_565
Ba9 O19 2.765860 1_655
Ba9 O19 2.765860 1_665
Ba9 O20 2.880317 1_555
Ba9 O20 2.880317 1_655
Ba9 O9 3.028677 1_555
Ba9 O9 3.028677 1_655
Ba9 O34 3.060776 1_555
Ba9 O34 3.060776 1_565
Gd0 O5 2.424333 1_555
Gd0 O5 2.424333 1_655
Gd0 O0 2.424333 1_555
Gd0 O0 2.424333 1_655
Gd0 O30 2.448396 1_565
Gd0 O30 2.448396 1_555
Gd0 O25 2.448396 1_565
Gd0 O25 2.448396 1_555
Cu0 O25 1.950465 1_455
Cu0 O25 1.950465 1_555
Cu0 O0 1.986986 1_555
Cu0 O0 1.986986 1_545
Cu0 O10 2.275272 1_555
Cu1 O26 1.954328 1_555
Cu1 O26 1.954328 1_455
Cu1 O1 1.990905 1_545
Cu1 O1 1.990905 1_555
Cu1 O11 2.284896 1_555
Cu2 O27 1.954353 1_555
Cu2 O27 1.954353 1_455
Cu2 O2 1.990696 1_555
Cu2 O2 1.990696 1_545
Cu2 O12 2.283806 1_555
Cu3 O28 1.954433 1_555
Cu3 O28 1.954433 1_455
Cu3 O3 1.990755 1_545
Cu3 O3 1.990755 1_555
Cu3 O13 2.283551 1_555
Cu4 O29 1.953714 1_555
Cu4 O29 1.953714 1_455
Cu4 O4 1.990276 1_545
Cu4 O4 1.990276 1_555
Cu4 O14 2.290305 1_555
Cu5 O30 1.950465 1_555
Cu5 O30 1.950465 1_455
Cu5 O5 1.986986 1_545
Cu5 O5 1.986986 1_555
Cu5 O15 2.275272 1_555
Cu6 O31 1.953714 1_455
Cu6 O31 1.953714 1_555
Cu6 O6 1.990276 1_545
Cu6 O6 1.990276 1_555
Cu6 O16 2.290305 1_555
Cu7 O32 1.954433 1_455
Cu7 O32 1.954433 1_555
Cu7 O7 1.990755 1_545
Cu7 O7 1.990755 1_555
Cu7 O17 2.283551 1_555
Cu8 O33 1.954353 1_455
Cu8 O33 1.954353 1_555
Cu8 O8 1.990696 1_555
Cu8 O8 1.990696 1_545
Cu8 O18 2.283806 1_555
Cu9 O34 1.954328 1_455
Cu9 O34 1.954328 1_555
Cu9 O9 1.990905 1_555
Cu9 O9 1.990905 1_545
Cu9 O19 2.284896 1_555
Cu10 O10 1.878563 1_555
Cu10 O19 1.881498 1_554
Cu10 O20 1.966230 1_554
Cu10 O20 1.966230 1_544
Cu11 O15 1.878563 1_555
Cu11 O11 1.881498 1_555
Cu11 O21 1.966230 1_555
Cu11 O21 1.966230 1_545
Cu12 O16 1.880314 1_555
Cu12 O12 1.881164 1_555
Cu12 O22 1.966230 1_545
Cu12 O22 1.966230 1_555
Cu13 O13 1.881683 1_555
Cu13 O17 1.881683 1_555
Cu13 O23 1.966229 1_555
Cu13 O23 1.966229 1_545
Cu14 O14 1.880314 1_555
Cu14 O18 1.881164 1_555
Cu14 O24 1.966230 1_555
Cu14 O24 1.966230 1_545
O1 Y0 2.402951 1_555
O1 Y0 2.402951 1_455
O2 Y1 2.402739 1_455
O2 Y1 2.402739 1_555
O3 Y2 2.402409 1_555
O3 Y2 2.402409 1_455
O4 Y3 2.400584 1_555
O4 Y3 2.400584 1_455
O6 Y0 2.400584 1_555
O6 Y0 2.400584 1_455
O7 Y1 2.402409 1_455
O7 Y1 2.402409 1_555
O8 Y2 2.402739 1_455
O8 Y2 2.402739 1_555
O9 Y3 2.402951 1_555
O9 Y3 2.402951 1_455
O26 Y0 2.428387 1_545
O26 Y0 2.428387 1_555
O27 Y1 2.427306 1_555
O27 Y1 2.427306 1_545
O28 Y2 2.426922 1_545
O28 Y2 2.426922 1_555
O29 Y3 2.425892 1_545
O29 Y3 2.425892 1_555
O31 Y0 2.425892 1_555
O31 Y0 2.425892 1_545
O32 Y1 2.426922 1_555
O32 Y1 2.426922 1_545
O33 Y2 2.427306 1_545
O33 Y2 2.427306 1_555
O34 Y3 2.428387 1_555
O34 Y3 2.428387 1_545
