# generated using pymatgen
data_Li(Mg4Al3)4
_symmetry_space_group_name_H-M   'P 1'
_cell_length_a   9.11544299
_cell_length_b   9.11544299
_cell_length_c   9.11544282
_cell_angle_alpha   109.54622485
_cell_angle_beta   109.54622485
_cell_angle_gamma   109.54622194
_symmetry_Int_Tables_number   1
_chemical_formula_structural   Li(Mg4Al3)4
_chemical_formula_sum   'Li1 Mg16 Al12'
_cell_volume   581.43283054
_cell_formula_units_Z   1
loop_
 _symmetry_equiv_pos_site_id
 _symmetry_equiv_pos_as_xyz
  1  'x, y, z'
loop_
 _atom_site_type_symbol
 _atom_site_label
 _atom_site_symmetry_multiplicity
 _atom_site_fract_x
 _atom_site_fract_y
 _atom_site_fract_z
 _atom_site_occupancy
  Li  Li0  1  0.33303800  0.33303800  0.33303800  1
  Mg  Mg0  1  0.59728500  0.59728500  0.28737900  1
  Mg  Mg1  1  0.99959500  0.99959500  0.65611400  1
  Mg  Mg2  1  0.00416000  0.00416000  0.00416000  1
  Mg  Mg3  1  0.31543200  0.31543200  0.71562700  1
  Mg  Mg4  1  0.68559300  0.39981300  0.00036300  1
  Mg  Mg5  1  0.59728500  0.28737900  0.59728500  1
  Mg  Mg6  1  0.00036300  0.68559300  0.39981300  1
  Mg  Mg7  1  0.99959500  0.65611400  0.99959500  1
  Mg  Mg8  1  0.39981300  0.00036300  0.68559300  1
  Mg  Mg9  1  0.71562700  0.31543200  0.31543200  1
  Mg  Mg10  1  0.31543200  0.71562700  0.31543200  1
  Mg  Mg11  1  0.00036300  0.39981300  0.68559300  1
  Mg  Mg12  1  0.65611400  0.99959500  0.99959500  1
  Mg  Mg13  1  0.68559300  0.00036300  0.39981300  1
  Mg  Mg14  1  0.28737900  0.59728500  0.59728500  1
  Mg  Mg15  1  0.39981300  0.68559300  0.00036300  1
  Al  Al0  1  0.63627400  0.63627400  0.82128700  1
  Al  Al1  1  0.81405000  0.81405000  0.18323300  1
  Al  Al2  1  0.36618100  0.18460400  0.00040000  1
  Al  Al3  1  0.18460400  0.00040000  0.36618100  1
  Al  Al4  1  0.82128700  0.63627400  0.63627400  1
  Al  Al5  1  0.36618100  0.00040000  0.18460400  1
  Al  Al6  1  0.18323300  0.81405000  0.81405000  1
  Al  Al7  1  0.81405000  0.18323300  0.81405000  1
  Al  Al8  1  0.00040000  0.36618100  0.18460400  1
  Al  Al9  1  0.63627400  0.82128700  0.63627400  1
  Al  Al10  1  0.00040000  0.18460400  0.36618100  1
  Al  Al11  1  0.18460400  0.36618100  0.00040000  1
loop_
_geom_bond_atom_site_label_1
_geom_bond_atom_site_label_2
_geom_bond_distance
_geom_bond_site_symmetry_2
Li0 Mg2 2.986751 1_555
Li0 Mg14 3.039162 1_555
Li0 Mg5 3.039162 1_555
Li0 Mg0 3.039162 1_555
Mg0 Mg9 3.152695 1_555
Mg0 Mg10 3.152695 1_555
Mg0 Mg4 3.156038 1_555
Mg0 Mg15 3.156038 1_555
Mg0 Mg6 3.185519 1_655
Mg0 Mg13 3.185519 1_565
Mg1 Mg13 3.033263 1_565
Mg1 Mg6 3.033263 1_655
Mg1 Mg3 3.038944 1_665
Mg1 Mg2 3.144993 1_666
Mg2 Mg7 3.144993 1_444
Mg3 Mg4 3.127426 1_556
Mg3 Mg5 3.152695 1_555
Mg3 Mg8 3.163519 1_555
Mg4 Mg7 3.033263 1_554
Mg4 Mg6 3.152418 1_655
Mg4 Mg8 3.152418 1_554
Mg4 Mg9 3.163519 1_555
Mg4 Mg5 3.185519 1_554
Mg5 Mg9 3.152695 1_555
Mg5 Mg8 3.156038 1_555
Mg6 Mg9 3.127426 1_455
Mg6 Mg8 3.152418 1_565
Mg10 Mg7 3.038944 1_454
Mg10 Mg8 3.127426 1_565
Mg10 Mg13 3.127426 1_565
Mg10 Mg14 3.152695 1_555
Mg10 Mg15 3.163519 1_555
Mg10 Mg6 3.163519 1_555
Mg11 Mg7 3.033263 1_455
Mg11 Mg9 3.127426 1_455
Mg11 Mg15 3.152418 1_556
Mg11 Mg13 3.152418 1_455
Mg11 Mg14 3.156038 1_555
Mg11 Mg3 3.163519 1_555
Mg11 Mg5 3.185519 1_455
Mg12 Mg8 3.033263 1_565
Mg12 Mg15 3.033263 1_556
Mg12 Mg9 3.038944 1_566
Mg12 Mg2 3.144993 1_666
Mg13 Mg15 3.152418 1_545
Mg13 Mg5 3.156038 1_555
Mg13 Mg9 3.163519 1_555
Mg14 Mg3 3.152695 1_555
Mg14 Mg6 3.156038 1_555
Mg14 Mg15 3.185519 1_556
Mg14 Mg8 3.185519 1_565
Mg15 Mg3 3.127426 1_554
Al0 Al1 2.687969 1_556
Al0 Al4 2.755277 1_555
Al0 Al9 2.755277 1_555
Al0 Mg3 2.922566 1_555
Al0 Mg14 2.970341 1_555
Al0 Mg5 2.970341 1_555
Al0 Mg12 3.073006 1_555
Al0 Mg7 3.073006 1_555
Al0 Mg4 3.166122 1_556
Al0 Mg15 3.166122 1_556
Al0 Mg2 3.203765 1_666
Al1 Al3 2.751695 1_665
Al1 Al10 2.751695 1_665
Al1 Mg0 2.933864 1_555
Al1 Mg6 2.964280 1_655
Al1 Mg13 2.964280 1_565
Al1 Mg7 3.105875 1_554
Al1 Mg12 3.105875 1_554
Al1 Mg4 3.151395 1_555
Al1 Mg15 3.151395 1_555
Al1 Mg2 3.232147 1_665
Al2 Al5 2.743229 1_555
Al2 Al6 2.751695 1_544
Al2 Mg4 2.916310 1_555
Al2 Mg8 2.976161 1_554
Al2 Mg9 2.976739 1_555
Al2 Li0 3.042559 1_555
Al2 Mg1 3.087051 1_444
Al2 Mg0 3.139609 1_555
Al2 Mg3 3.164108 1_554
Al2 Mg2 3.174574 1_555
Al3 Al5 2.704107 1_555
Al3 Mg8 2.916310 1_555
Al3 Mg6 2.976161 1_545
Al3 Mg3 2.976739 1_555
Al3 Li0 3.042559 1_555
Al3 Mg7 3.087051 1_444
Al3 Mg5 3.139609 1_555
Al3 Mg10 3.164108 1_545
Al3 Mg2 3.174574 1_555
Al4 Al6 2.687969 1_655
Al4 Al9 2.755277 1_555
Al4 Mg9 2.922566 1_555
Al4 Mg0 2.970341 1_555
Al4 Mg5 2.970341 1_555
Al4 Mg7 3.073006 1_555
Al4 Mg1 3.073006 1_555
Al4 Mg11 3.166122 1_655
Al4 Mg6 3.166122 1_655
Al4 Mg2 3.203765 1_666
Al5 Al6 2.751695 1_544
Al5 Mg13 2.916310 1_555
Al5 Mg15 2.976161 1_545
Al5 Mg9 2.976739 1_555
Al5 Li0 3.042559 1_555
Al5 Mg7 3.087051 1_444
Al5 Mg5 3.139609 1_555
Al5 Mg10 3.164108 1_545
Al5 Mg2 3.174574 1_555
Al6 Mg14 2.933864 1_555
Al6 Mg15 2.964280 1_556
Al6 Mg8 2.964280 1_565
Al6 Mg1 3.105875 1_455
Al6 Mg7 3.105875 1_455
Al6 Mg6 3.151395 1_555
Al6 Mg11 3.151395 1_555
Al6 Mg2 3.232147 1_566
Al7 Al9 2.687969 1_545
Al7 Al8 2.751695 1_656
Al7 Mg5 2.933864 1_555
Al7 Mg4 2.964280 1_556
Al7 Mg11 2.964280 1_655
Al7 Mg1 3.105875 1_545
Al7 Mg12 3.105875 1_545
Al7 Mg13 3.151395 1_555
Al7 Mg8 3.151395 1_555
Al7 Mg2 3.232147 1_656
Al8 Mg6 2.916310 1_555
Al8 Mg4 2.976161 1_455
Al8 Mg10 2.976739 1_555
Al8 Li0 3.042559 1_555
Al8 Mg12 3.087051 1_444
Al8 Mg14 3.139609 1_555
Al8 Mg9 3.164108 1_455
Al8 Mg2 3.174574 1_555
Al9 Mg10 2.922566 1_555
Al9 Mg0 2.970341 1_555
Al9 Mg14 2.970341 1_555
Al9 Mg12 3.073006 1_555
Al9 Mg1 3.073006 1_555
Al9 Mg8 3.166122 1_565
Al9 Mg13 3.166122 1_565
Al9 Mg2 3.203765 1_666
Al10 Al8 2.704107 1_555
Al10 Al3 2.743229 1_555
Al10 Mg11 2.916310 1_555
Al10 Mg13 2.976161 1_455
Al10 Mg3 2.976739 1_555
Al10 Li0 3.042559 1_555
Al10 Mg12 3.087051 1_444
Al10 Mg14 3.139609 1_555
Al10 Mg9 3.164108 1_455
Al10 Mg2 3.174574 1_555
Al11 Al2 2.704107 1_555
Al11 Al8 2.743229 1_555
Al11 Al7 2.751695 1_454
Al11 Mg15 2.916310 1_555
Al11 Mg11 2.976161 1_554
Al11 Mg10 2.976739 1_555
Al11 Li0 3.042559 1_555
Al11 Mg1 3.087051 1_444
Al11 Mg0 3.139609 1_555
Al11 Mg3 3.164108 1_554
Al11 Mg2 3.174574 1_555
