# generated using pymatgen
data_Sr5Ca3Fe4(CoO5)4
_symmetry_space_group_name_H-M   'P 1'
_cell_length_a   10.79782755
_cell_length_b   11.24718116
_cell_length_c   17.64203847
_cell_angle_alpha   108.49630448
_cell_angle_beta   107.86563437
_cell_angle_gamma   90.09006086
_symmetry_Int_Tables_number   1
_chemical_formula_structural   Sr5Ca3Fe4(CoO5)4
_chemical_formula_sum   'Sr20 Ca12 Fe16 Co16 O80'
_cell_volume   1922.24200172
_cell_formula_units_Z   4
loop_
 _symmetry_equiv_pos_site_id
 _symmetry_equiv_pos_as_xyz
  1  'x, y, z'
loop_
 _atom_site_type_symbol
 _atom_site_label
 _atom_site_symmetry_multiplicity
 _atom_site_fract_x
 _atom_site_fract_y
 _atom_site_fract_z
 _atom_site_occupancy
  Sr  Sr0  1  0.30592600  0.06114800  0.60903600  1
  Sr  Sr1  1  0.31000100  0.56202500  0.60927200  1
  Sr  Sr2  1  0.80801100  0.06842800  0.61001800  1
  Sr  Sr3  1  0.80885600  0.56253700  0.61014400  1
  Sr  Sr4  1  0.19911700  0.43442300  0.38632800  1
  Sr  Sr5  1  0.19814900  0.44002800  0.89411800  1
  Sr  Sr6  1  0.69742600  0.43594100  0.38829700  1
  Sr  Sr7  1  0.69478400  0.93781700  0.38648500  1
  Sr  Sr8  1  0.70074700  0.93579600  0.89408200  1
  Sr  Sr9  1  0.05584300  0.29599200  0.61068600  1
  Sr  Sr10  1  0.05834400  0.79732100  0.61035300  1
  Sr  Sr11  1  0.55961200  0.29899800  0.61063100  1
  Sr  Sr12  1  0.55819300  0.79283900  0.61025500  1
  Sr  Sr13  1  0.44875400  0.20363600  0.38710100  1
  Sr  Sr14  1  0.45124700  0.20802100  0.89315400  1
  Sr  Sr15  1  0.44578800  0.69979000  0.38606100  1
  Sr  Sr16  1  0.44677200  0.70668600  0.89407800  1
  Sr  Sr17  1  0.94226900  0.20259700  0.38676600  1
  Sr  Sr18  1  0.95114700  0.20545900  0.89364800  1
  Sr  Sr19  1  0.94607600  0.70295900  0.38596200  1
  Ca  Ca0  1  0.30365000  0.06672100  0.10571200  1
  Ca  Ca1  1  0.29912800  0.57078700  0.10575400  1
  Ca  Ca2  1  0.80523900  0.06532800  0.10605800  1
  Ca  Ca3  1  0.80246000  0.56902600  0.10530900  1
  Ca  Ca4  1  0.19433000  0.92789300  0.38952600  1
  Ca  Ca5  1  0.19869600  0.93319000  0.89619800  1
  Ca  Ca6  1  0.69924100  0.43355700  0.89580000  1
  Ca  Ca7  1  0.05738000  0.28624200  0.10733000  1
  Ca  Ca8  1  0.05179400  0.78821700  0.10624300  1
  Ca  Ca9  1  0.55334100  0.28836000  0.10619500  1
  Ca  Ca10  1  0.54861100  0.79039900  0.10653000  1
  Ca  Ca11  1  0.94968600  0.71073200  0.89665800  1
  Fe  Fe0  1  0.10430100  0.08556400  0.24731800  1
  Fe  Fe1  1  0.11137200  0.09081900  0.75463300  1
  Fe  Fe2  1  0.10207200  0.58867900  0.24219900  1
  Fe  Fe3  1  0.10664000  0.59613700  0.75309800  1
  Fe  Fe4  1  0.60126700  0.08598300  0.24153700  1
  Fe  Fe5  1  0.60869200  0.09370500  0.75064500  1
  Fe  Fe6  1  0.60345700  0.58793400  0.24380300  1
  Fe  Fe7  1  0.61260400  0.59140400  0.75576700  1
  Fe  Fe8  1  0.35331800  0.40586200  0.24205200  1
  Fe  Fe9  1  0.36025000  0.40952200  0.75132900  1
  Fe  Fe10  1  0.35069100  0.90765200  0.24741100  1
  Fe  Fe11  1  0.35810600  0.90989200  0.75508000  1
  Fe  Fe12  1  0.85394400  0.40757200  0.24431600  1
  Fe  Fe13  1  0.85800200  0.41543700  0.75807300  1
  Fe  Fe14  1  0.85375700  0.90564600  0.24264800  1
  Fe  Fe15  1  0.86183800  0.90721500  0.75177500  1
  Co  Co0  1  0.01146400  0.00086400  0.00607600  1
  Co  Co1  1  0.00236500  0.99847700  0.49630000  1
  Co  Co2  1  0.00687400  0.50214100  0.00404500  1
  Co  Co3  1  0.00502100  0.49948900  0.49870200  1
  Co  Co4  1  0.50832000  0.00175700  0.00575700  1
  Co  Co5  1  0.50520200  0.99944700  0.49861400  1
  Co  Co6  1  0.50949200  0.50500500  0.00756000  1
  Co  Co7  1  0.50533800  0.49891500  0.49837200  1
  Co  Co8  1  0.26095100  0.25139700  0.00565000  1
  Co  Co9  1  0.25339300  0.24857800  0.49647500  1
  Co  Co10  1  0.25695400  0.75437500  0.00634100  1
  Co  Co11  1  0.25451600  0.74805200  0.49903100  1
  Co  Co12  1  0.76069200  0.25708900  0.00956200  1
  Co  Co13  1  0.75340100  0.25173300  0.49891600  1
  Co  Co14  1  0.75677500  0.75095100  0.00294900  1
  Co  Co15  1  0.75389300  0.74964500  0.49947100  1
  O  O0  1  0.11817100  0.11006900  0.48855400  1
  O  O1  1  0.13016000  0.11558400  0.99171400  1
  O  O2  1  0.13104100  0.62732200  0.49186100  1
  O  O3  1  0.12247000  0.63062300  0.99121100  1
  O  O4  1  0.62309100  0.12545700  0.49052200  1
  O  O5  1  0.63704800  0.13420700  0.99661300  1
  O  O6  1  0.62267400  0.62016300  0.49103600  1
  O  O7  1  0.62345200  0.61632400  0.99333700  1
  O  O8  1  0.13742200  0.38351500  0.01859400  1
  O  O9  1  0.13489800  0.36954400  0.50447200  1
  O  O10  1  0.13218600  0.88349000  0.01365500  1
  O  O11  1  0.13086900  0.87609100  0.50418900  1
  O  O12  1  0.64123800  0.38482000  0.01917800  1
  O  O13  1  0.63345000  0.37721700  0.50698000  1
  O  O14  1  0.63729300  0.88380600  0.01641500  1
  O  O15  1  0.62723500  0.88104400  0.50551600  1
  O  O16  1  0.36790700  0.11364300  0.48881500  1
  O  O17  1  0.37925100  0.11760100  0.99338100  1
  O  O18  1  0.37491700  0.61748400  0.48978000  1
  O  O19  1  0.37400900  0.62374700  0.99558200  1
  O  O20  1  0.87159900  0.12252600  0.49081200  1
  O  O21  1  0.88600400  0.11523200  0.99585800  1
  O  O22  1  0.87652500  0.62248800  0.49082000  1
  O  O23  1  0.87323800  0.61326800  0.98941000  1
  O  O24  1  0.39293400  0.39073700  0.01558300  1
  O  O25  1  0.38573700  0.37936200  0.50657100  1
  O  O26  1  0.38410300  0.88390000  0.01904000  1
  O  O27  1  0.37337700  0.87071500  0.50371000  1
  O  O28  1  0.88159600  0.37622400  0.01455500  1
  O  O29  1  0.88213200  0.37739900  0.50709700  1
  O  O30  1  0.89000800  0.88348300  0.01658300  1
  O  O31  1  0.88501300  0.88679300  0.50448300  1
  O  O32  1  0.09518500  0.10372000  0.14258000  1
  O  O33  1  0.08592900  0.09368300  0.64480100  1
  O  O34  1  0.08668400  0.60468600  0.13719700  1
  O  O35  1  0.08139700  0.59444800  0.64257000  1
  O  O36  1  0.59150800  0.10427900  0.13799200  1
  O  O37  1  0.57872100  0.09286500  0.63901000  1
  O  O38  1  0.59223200  0.60815800  0.14064200  1
  O  O39  1  0.58848100  0.59494500  0.64685100  1
  O  O40  1  0.43593700  0.40464100  0.35155900  1
  O  O41  1  0.44938800  0.40616600  0.86005100  1
  O  O42  1  0.43757200  0.90915500  0.35826900  1
  O  O43  1  0.44749300  0.90776800  0.86401700  1
  O  O44  1  0.93910500  0.40834000  0.35446300  1
  O  O45  1  0.94442700  0.40537800  0.86563300  1
  O  O46  1  0.94167500  0.90650000  0.35326700  1
  O  O47  1  0.94829700  0.89575200  0.86009600  1
  O  O48  1  0.34251300  0.28278400  0.13944900  1
  O  O49  1  0.33062000  0.29642400  0.64024100  1
  O  O50  1  0.33803700  0.78610200  0.14439000  1
  O  O51  1  0.33193100  0.79848300  0.64459200  1
  O  O52  1  0.84512600  0.28339800  0.14109600  1
  O  O53  1  0.83562500  0.30408100  0.64935000  1
  O  O54  1  0.84081900  0.78403100  0.13889400  1
  O  O55  1  0.83281900  0.79829400  0.64103000  1
  O  O56  1  0.18827600  0.19956200  0.35740300  1
  O  O57  1  0.19490800  0.20950200  0.86161100  1
  O  O58  1  0.18523400  0.70415100  0.35144000  1
  O  O59  1  0.19396600  0.71538900  0.85883900  1
  O  O60  1  0.68504900  0.19722100  0.35001000  1
  O  O61  1  0.69179200  0.21386400  0.85748100  1
  O  O62  1  0.68666800  0.69851800  0.35401700  1
  O  O63  1  0.70011200  0.70774900  0.86345800  1
  O  O64  1  0.42051300  0.05991300  0.23926200  1
  O  O65  1  0.43169300  0.06368300  0.75216300  1
  O  O66  1  0.42112000  0.56144600  0.23778400  1
  O  O67  1  0.43259500  0.56639200  0.75202500  1
  O  O68  1  0.92142000  0.06231200  0.23933500  1
  O  O69  1  0.93225600  0.06451700  0.75239200  1
  O  O70  1  0.92159600  0.56223100  0.23859700  1
  O  O71  1  0.93068800  0.57386600  0.76061700  1
  O  O72  1  0.17183300  0.42991000  0.23881400  1
  O  O73  1  0.18298000  0.44080300  0.75304900  1
  O  O74  1  0.16955500  0.92617800  0.24688500  1
  O  O75  1  0.18182000  0.93506700  0.76013300  1
  O  O76  1  0.67244500  0.42833700  0.23955100  1
  O  O77  1  0.67986100  0.43418800  0.76011900  1
  O  O78  1  0.67239300  0.92786800  0.23893600  1
  O  O79  1  0.68507500  0.93953900  0.75282400  1
loop_
_geom_bond_atom_site_label_1
_geom_bond_atom_site_label_2
_geom_bond_distance
_geom_bond_site_symmetry_2
Ca0 O48 2.315507 1_555
Ca0 O64 2.332365 1_555
Ca0 O26 2.479217 1_545
Ca0 O1 2.499792 1_554
Ca0 O10 2.516337 1_545
Ca0 O32 2.528363 1_555
Ca0 O17 2.575244 1_554
Ca0 O36 2.986817 1_555
Ca1 O50 2.297705 1_555
Ca1 O66 2.333418 1_555
Ca1 O8 2.477044 1_555
Ca1 O34 2.522802 1_555
Ca1 O19 2.546307 1_554
Ca1 O24 2.570720 1_555
Ca1 O3 2.583963 1_554
Ca2 O68 2.311781 1_555
Ca2 O52 2.335505 1_555
Ca2 O14 2.477485 1_545
Ca2 O30 2.521221 1_545
Ca2 O5 2.535435 1_554
Ca2 O36 2.545533 1_555
Ca2 O21 2.566401 1_554
Ca2 O32 2.997488 1_655
Ca3 O54 2.303800 1_555
Ca3 O70 2.334184 1_555
Ca3 O12 2.449490 1_555
Ca3 O7 2.499710 1_554
Ca3 O38 2.536231 1_555
Ca3 O23 2.572083 1_554
Ca3 O28 2.576494 1_555
Ca3 O34 2.947836 1_655
Ca4 O58 2.383197 1_555
Ca4 O74 2.441460 1_555
Ca4 O11 2.549146 1_555
Ca4 O0 2.557791 1_565
Ca4 O16 2.568490 1_565
Ca4 O27 2.577893 1_555
Ca4 O46 2.596010 1_455
Ca4 O42 2.839646 1_555
Ca5 O59 2.322139 1_555
Ca5 O75 2.357892 1_555
Ca5 O1 2.484377 1_565
Ca5 O47 2.581271 1_455
Ca5 O17 2.592773 1_565
Ca5 O10 2.601716 1_556
Ca5 O26 2.667522 1_556
Ca5 O43 2.907994 1_555
Ca6 O61 2.339897 1_555
Ca6 O77 2.340306 1_555
Ca6 O23 2.511770 1_555
Ca6 O7 2.545829 1_555
Ca6 O41 2.569297 1_555
Ca6 O28 2.648073 1_556
Ca6 O12 2.650073 1_556
Ca6 O45 2.855340 1_555
Ca7 O72 2.318546 1_555
Ca7 O32 2.329052 1_555
Ca7 O8 2.511683 1_555
Ca7 O21 2.519358 1_454
Ca7 O28 2.541013 1_455
Ca7 O52 2.541291 1_455
Ca7 O1 2.639386 1_554
Ca7 O48 2.957303 1_555
Ca8 O34 2.300550 1_555
Ca8 O74 2.407519 1_555
Ca8 O30 2.467318 1_455
Ca8 O54 2.519059 1_455
Ca8 O3 2.552405 1_554
Ca8 O10 2.558810 1_555
Ca8 O23 2.610345 1_454
Ca8 O50 2.956459 1_555
Ca9 O36 2.317064 1_555
Ca9 O76 2.335522 1_555
Ca9 O24 2.521227 1_555
Ca9 O48 2.524448 1_555
Ca9 O12 2.526260 1_555
Ca9 O17 2.539912 1_554
Ca9 O5 2.551625 1_554
Ca10 O38 2.323155 1_555
Ca10 O78 2.328042 1_555
Ca10 O26 2.448906 1_555
Ca10 O19 2.509137 1_554
Ca10 O14 2.557103 1_555
Ca10 O50 2.563265 1_555
Ca10 O7 2.643584 1_554
Ca11 O71 2.350467 1_555
Ca11 O47 2.364841 1_555
Ca11 O3 2.474782 1_655
Ca11 O23 2.554346 1_555
Ca11 O63 2.573950 1_555
Ca11 O10 2.620437 1_656
Ca11 O30 2.626565 1_556
Ca11 O59 2.916656 1_655
Fe0 O56 1.890465 1_555
Fe0 O32 1.895678 1_555
Fe0 O74 1.925792 1_545
Fe0 O68 1.947332 1_455
Fe1 O57 1.873666 1_555
Fe1 O33 1.882564 1_555
Fe1 O75 1.929639 1_545
Fe1 O69 1.942560 1_455
Fe2 O34 1.874681 1_555
Fe2 O58 1.885121 1_555
Fe2 O72 1.929737 1_555
Fe2 O70 1.949448 1_455
Fe3 O59 1.870109 1_555
Fe3 O35 1.878108 1_555
Fe3 O73 1.932806 1_555
Fe3 O71 1.965751 1_455
Fe4 O60 1.860371 1_555
Fe4 O36 1.873743 1_555
Fe4 O78 1.930959 1_545
Fe4 O64 1.959486 1_555
Fe5 O61 1.877863 1_555
Fe5 O37 1.892286 1_555
Fe5 O79 1.927584 1_545
Fe5 O65 1.950013 1_555
Fe6 O38 1.872464 1_555
Fe6 O62 1.877513 1_555
Fe6 O76 1.932789 1_555
Fe6 O66 1.956063 1_555
Fe7 O39 1.871654 1_555
Fe7 O63 1.879347 1_555
Fe7 O77 1.927675 1_555
Fe7 O67 1.941457 1_555
Fe8 O48 1.867208 1_555
Fe8 O40 1.867558 1_555
Fe8 O66 1.927989 1_555
Fe8 O72 1.964537 1_555
Fe9 O41 1.876208 1_555
Fe9 O49 1.895671 1_555
Fe9 O67 1.923363 1_555
Fe9 O73 1.954374 1_555
Fe10 O50 1.860500 1_555
Fe10 O42 1.886423 1_555
Fe10 O64 1.934013 1_565
Fe10 O74 1.964770 1_555
Fe11 O43 1.875311 1_555
Fe11 O51 1.886967 1_555
Fe11 O65 1.924361 1_565
Fe11 O75 1.949679 1_555
Fe12 O44 1.874750 1_555
Fe12 O52 1.885525 1_555
Fe12 O70 1.929292 1_555
Fe12 O76 1.953258 1_555
Fe13 O53 1.869903 1_555
Fe13 O45 1.880023 1_555
Fe13 O71 1.927783 1_555
Fe13 O77 1.945460 1_555
Fe14 O54 1.869458 1_555
Fe14 O46 1.887109 1_555
Fe14 O68 1.931200 1_565
Fe14 O78 1.958335 1_555
Fe15 O55 1.876350 1_555
Fe15 O47 1.897937 1_555
Fe15 O69 1.920111 1_565
Fe15 O79 1.948094 1_555
Co0 O10 1.862869 1_545
Co0 O21 1.877518 1_454
Co0 O1 1.942458 1_554
Co0 O30 1.948389 1_445
Co0 O32 2.201884 1_555
Co0 O47 2.341652 1_444
Co1 O0 1.834751 1_565
Co1 O31 1.851124 1_455
Co1 O11 1.961764 1_555
Co1 O20 1.989396 1_465
Co1 O46 2.279055 1_455
Co1 O33 2.364532 1_565
Co2 O23 1.921676 1_454
Co2 O8 1.958127 1_555
Co2 O3 2.018108 1_554
Co2 O28 2.045580 1_455
Co2 O34 2.150993 1_555
Co2 O45 2.214292 1_454
Co3 O22 1.966701 1_455
Co3 O29 1.977921 1_455
Co3 O9 2.031338 1_555
Co3 O2 2.034221 1_555
Co3 O35 2.292561 1_555
Co3 O44 2.294370 1_455
Co4 O17 1.920175 1_554
Co4 O14 1.933414 1_545
Co4 O26 1.998848 1_545
Co4 O5 2.112060 1_554
Co4 O36 2.140808 1_555
Co4 O43 2.261566 1_544
Co5 O15 1.880031 1_555
Co5 O16 1.966447 1_565
Co5 O4 1.970683 1_565
Co5 O27 2.070068 1_555
Co5 O42 2.233364 1_555
Co5 O37 2.238028 1_565
Co6 O24 1.864242 1_555
Co6 O7 1.878469 1_554
Co6 O12 1.973793 1_555
Co6 O19 1.990958 1_554
Co6 O38 2.153597 1_555
Co6 O41 2.356944 1_554
Co7 O6 1.920627 1_555
Co7 O25 1.931145 1_555
Co7 O18 1.946219 1_555
Co7 O13 1.954255 1_555
Co7 O40 2.336333 1_555
Co7 O39 2.364974 1_555
Co8 O17 1.977900 1_554
Co8 O1 1.982451 1_554
Co8 O8 2.004289 1_555
Co8 O24 2.045302 1_555
Co8 O48 2.160305 1_555
Co8 O57 2.305496 1_554
Co9 O9 1.871489 1_555
Co9 O16 1.956713 1_555
Co9 O25 1.977000 1_555
Co9 O0 2.075528 1_555
Co9 O56 2.213622 1_555
Co9 O49 2.291895 1_555
Co10 O3 1.907175 1_554
Co10 O26 1.911880 1_555
Co10 O19 1.941188 1_554
Co10 O10 1.983534 1_555
Co10 O50 2.228149 1_555
Co10 O59 2.369732 1_554
Co11 O27 1.847847 1_555
Co11 O2 1.849123 1_555
Co11 O18 1.964050 1_555
Co11 O11 1.965220 1_555
Co11 O51 2.317819 1_555
Co11 O58 2.360336 1_555
Co12 O5 1.830714 1_554
Co12 O28 1.832093 1_555
Co12 O12 1.934370 1_555
Co12 O21 2.097064 1_554
Co12 O52 2.137522 1_555
Co12 O61 2.436174 1_554
Co13 O13 1.918620 1_555
Co13 O29 1.921441 1_555
Co13 O20 1.935751 1_555
Co13 O4 1.936825 1_555
Co13 O60 2.368289 1_555
Co13 O53 2.395746 1_555
Co14 O30 1.975570 1_555
Co14 O14 1.980547 1_555
Co14 O23 1.998051 1_554
Co14 O7 2.018507 1_554
Co14 O54 2.193486 1_555
Co14 O63 2.232271 1_554
Co15 O22 1.952820 1_555
Co15 O6 1.969052 1_555
Co15 O15 2.015373 1_555
Co15 O31 2.054633 1_555
Co15 O55 2.255718 1_555
Co15 O62 2.315602 1_555
O0 Sr17 2.648486 1_455
O0 Sr0 2.651862 1_555
O0 Sr9 2.739276 1_555
O1 Sr18 2.610587 1_455
O2 Sr19 2.631984 1_455
O2 Sr4 2.644910 1_555
O2 Sr1 2.660404 1_555
O2 Sr10 2.667853 1_555
O3 Sr5 2.594550 1_555
O4 Sr13 2.561551 1_555
O4 Sr7 2.615563 1_545
O4 Sr11 2.653440 1_555
O4 Sr2 2.668683 1_555
O5 Sr14 2.601073 1_555
O5 Sr8 2.632863 1_545
O6 Sr6 2.598064 1_555
O6 Sr15 2.601401 1_555
O6 Sr12 2.644115 1_555
O6 Sr3 2.674579 1_555
O7 Sr16 2.612360 1_555
O8 Sr18 2.716827 1_454
O8 Sr5 2.724751 1_554
O9 Sr9 2.624312 1_555
O9 Sr1 2.642451 1_555
O9 Sr17 2.650992 1_455
O9 Sr4 2.684742 1_555
O11 Sr0 2.593480 1_565
O11 Sr10 2.618525 1_555
O11 Sr19 2.642135 1_455
O12 Sr14 2.736670 1_554
O13 Sr11 2.581957 1_555
O13 Sr3 2.590317 1_555
O13 Sr13 2.653618 1_555
O13 Sr6 2.657248 1_555
O14 Sr8 2.678801 1_554
O14 Sr16 2.719118 1_554
O15 Sr12 2.638248 1_555
O15 Sr2 2.639057 1_565
O15 Sr7 2.671819 1_555
O15 Sr15 2.676544 1_555
O16 Sr0 2.638019 1_555
O16 Sr13 2.667840 1_555
O16 Sr11 2.768349 1_555
O17 Sr14 2.597503 1_555
O18 Sr4 2.579008 1_555
O18 Sr15 2.592770 1_555
O18 Sr1 2.657819 1_555
O18 Sr12 2.659102 1_555
O19 Sr16 2.571974 1_555
O19 Sr5 2.575846 1_555
O20 Sr17 2.582406 1_555
O20 Sr7 2.598830 1_545
O20 Sr2 2.638364 1_555
O20 Sr9 2.650499 1_655
O21 Sr18 2.590970 1_555
O21 Sr8 2.604366 1_545
O22 Sr19 2.591896 1_555
O22 Sr6 2.616625 1_555
O22 Sr10 2.642845 1_655
O22 Sr3 2.694978 1_555
O24 Sr14 2.703155 1_554
O24 Sr5 2.704632 1_554
O25 Sr11 2.579828 1_555
O25 Sr1 2.593253 1_555
O25 Sr13 2.655701 1_555
O25 Sr4 2.675589 1_555
O26 Sr16 2.724402 1_554
O27 Sr0 2.623125 1_565
O27 Sr12 2.651667 1_555
O27 Sr15 2.661544 1_555
O28 Sr18 2.681559 1_554
O29 Sr9 2.580742 1_655
O29 Sr3 2.598614 1_555
O29 Sr17 2.644854 1_555
O29 Sr6 2.668126 1_555
O30 Sr8 2.700713 1_554
O31 Sr2 2.621651 1_565
O31 Sr7 2.649556 1_555
O31 Sr10 2.656629 1_655
O31 Sr19 2.681227 1_555
O33 Sr9 2.529132 1_555
O33 Sr0 2.636450 1_555
O33 Sr2 2.866975 1_455
O33 Sr10 3.188894 1_545
O35 Sr10 2.515795 1_555
O35 Sr1 2.706996 1_555
O35 Sr3 2.819558 1_455
O37 Sr11 2.518508 1_555
O37 Sr2 2.675226 1_555
O37 Sr0 2.829257 1_555
O39 Sr12 2.502449 1_555
O39 Sr3 2.648216 1_555
O39 Sr1 2.869864 1_555
O39 Sr11 3.179602 1_555
O40 Sr13 2.523971 1_555
O40 Sr6 2.691746 1_555
O40 Sr4 2.803956 1_555
O40 Sr15 3.174688 1_555
O41 Sr14 2.475223 1_555
O41 Sr5 2.953667 1_555
O42 Sr15 2.549454 1_555
O42 Sr7 2.666903 1_555
O42 Sr13 3.183603 1_565
O43 Sr16 2.481868 1_555
O43 Sr8 2.619151 1_555
O44 Sr17 2.550627 1_555
O44 Sr4 2.684935 1_655
O44 Sr6 2.846654 1_555
O44 Sr19 3.178025 1_555
O45 Sr18 2.447249 1_555
O45 Sr5 2.633955 1_655
O46 Sr19 2.529234 1_555
O46 Sr7 2.899140 1_555
O46 Sr17 3.191984 1_565
O47 Sr8 2.919434 1_555
O49 Sr0 2.521886 1_555
O49 Sr11 2.681313 1_555
O49 Sr9 2.850279 1_555
O51 Sr1 2.524529 1_555
O51 Sr12 2.687766 1_555
O51 Sr10 2.827013 1_555
O53 Sr2 2.509752 1_555
O53 Sr9 2.661645 1_655
O53 Sr11 2.842159 1_555
O53 Sr3 3.188687 1_555
O55 Sr3 2.527737 1_555
O55 Sr10 2.651056 1_655
O55 Sr12 2.842951 1_555
O56 Sr4 2.521680 1_555
O56 Sr13 2.695830 1_555
O56 Sr17 2.856402 1_455
O57 Sr5 2.469114 1_555
O57 Sr14 2.651828 1_555
O57 Sr18 2.859742 1_455
O58 Sr15 2.693671 1_555
O58 Sr19 2.830178 1_455
O59 Sr16 2.616453 1_555
O60 Sr6 2.544748 1_555
O60 Sr17 2.647212 1_555
O60 Sr13 2.817524 1_555
O60 Sr7 3.176158 1_545
O61 Sr18 2.683547 1_555
O61 Sr14 2.859259 1_555
O62 Sr7 2.563186 1_555
O62 Sr19 2.679379 1_555
O62 Sr15 2.825256 1_555
O63 Sr8 2.447248 1_555
O63 Sr16 2.947155 1_555
O64 Sr13 2.518732 1_555
O65 Sr14 2.445738 1_555
O65 Sr0 2.463966 1_555
O66 Sr15 2.514681 1_555
O67 Sr1 2.443997 1_555
O67 Sr16 2.459396 1_555
O68 Sr17 2.518144 1_555
O69 Sr18 2.438312 1_555
O69 Sr2 2.472541 1_555
O70 Sr19 2.510039 1_555
O71 Sr3 2.536949 1_555
O72 Sr4 2.511537 1_555
O73 Sr5 2.446305 1_555
O73 Sr9 2.475336 1_555
O75 Sr10 2.528756 1_555
O76 Sr6 2.527770 1_555
O77 Sr11 2.510281 1_555
O78 Sr7 2.505169 1_555
O79 Sr8 2.459411 1_555
O79 Sr12 2.484172 1_555
