# generated using pymatgen
data_Te2MoWSe2
_symmetry_space_group_name_H-M   'P 1'
_cell_length_a   3.44350318
_cell_length_b   3.44350318
_cell_length_c   39.14183500
_cell_angle_alpha   90.00000000
_cell_angle_beta   90.00000000
_cell_angle_gamma   119.99998433
_symmetry_Int_Tables_number   1
_chemical_formula_structural   Te2MoWSe2
_chemical_formula_sum   'Te4 Mo2 W2 Se4'
_cell_volume   401.95076539
_cell_formula_units_Z   2
loop_
 _symmetry_equiv_pos_site_id
 _symmetry_equiv_pos_as_xyz
  1  'x, y, z'
loop_
 _atom_site_type_symbol
 _atom_site_label
 _atom_site_symmetry_multiplicity
 _atom_site_fract_x
 _atom_site_fract_y
 _atom_site_fract_z
 _atom_site_occupancy
  Te  Te0  1  0.33333300  0.66666700  0.95366600  1
  Te  Te1  1  0.66666700  0.33333300  0.04633400  1
  Te  Te2  1  0.66666700  0.33333300  0.14157600  1
  Te  Te3  1  0.33333300  0.66666700  0.85842400  1
  Mo  Mo0  1  0.33333300  0.66666700  0.71818400  1
  Mo  Mo1  1  0.66666700  0.33333300  0.28181600  1
  W  W0  1  0.33333300  0.66666700  0.09396100  1
  W  W1  1  0.66666700  0.33333300  0.90603900  1
  Se  Se0  1  0.33333300  0.66666700  0.32359500  1
  Se  Se1  1  0.66666700  0.33333300  0.67640500  1
  Se  Se2  1  0.66666700  0.33333300  0.75999900  1
  Se  Se3  1  0.33333300  0.66666700  0.24000100  1
loop_
_geom_bond_atom_site_label_1
_geom_bond_atom_site_label_2
_geom_bond_distance
_geom_bond_site_symmetry_2
Te0 W1 2.725406 1_455
Te0 W1 2.725406 1_565
Te0 W1 2.725410 1_555
Te1 W0 2.725406 1_545
Te1 W0 2.725406 1_655
Te1 W0 2.725410 1_555
Te2 W0 2.725085 1_655
Te2 W0 2.725085 1_545
Te2 W0 2.725089 1_555
Te3 W1 2.725085 1_455
Te3 W1 2.725085 1_565
Te3 W1 2.725089 1_555
Mo0 Se1 2.574256 1_455
Mo0 Se1 2.574256 1_565
Mo0 Se1 2.574260 1_555
Mo0 Se2 2.575151 1_455
Mo0 Se2 2.575151 1_565
Mo0 Se2 2.575155 1_555
Mo1 Se0 2.574256 1_655
Mo1 Se0 2.574256 1_545
Mo1 Se0 2.574260 1_555
Mo1 Se3 2.575151 1_545
Mo1 Se3 2.575151 1_655
Mo1 Se3 2.575155 1_555
