# generated using pymatgen
data_MgAl4(HO)12
_symmetry_space_group_name_H-M   'P 1'
_cell_length_a   7.23616202
_cell_length_b   7.00808507
_cell_length_c   7.21042132
_cell_angle_alpha   100.63111383
_cell_angle_beta   137.87646106
_cell_angle_gamma   95.11035981
_symmetry_Int_Tables_number   1
_chemical_formula_structural   MgAl4(HO)12
_chemical_formula_sum   'Mg1 Al4 H12 O12'
_cell_volume   226.44920832
_cell_formula_units_Z   1
loop_
 _symmetry_equiv_pos_site_id
 _symmetry_equiv_pos_as_xyz
  1  'x, y, z'
loop_
 _atom_site_type_symbol
 _atom_site_label
 _atom_site_symmetry_multiplicity
 _atom_site_fract_x
 _atom_site_fract_y
 _atom_site_fract_z
 _atom_site_occupancy
  Mg  Mg0  1  0.44263000  0.40660600  0.95955900  1
  Al  Al0  1  0.50260100  0.83764000  0.30826700  1
  Al  Al1  1  0.51010500  0.14504300  0.65877200  1
  Al  Al2  1  0.00173000  0.66886400  0.64493700  1
  Al  Al3  1  0.98156500  0.30595300  0.29106700  1
  H  H0  1  0.05141400  0.04145000  0.75343600  1
  H  H1  1  0.01090500  0.98963200  0.40094500  1
  H  H2  1  0.51886700  0.55150900  0.69382500  1
  H  H3  1  0.46714500  0.47373100  0.32665300  1
  H  H4  1  0.04087300  0.68233900  0.32365000  1
  H  H5  1  0.86255900  0.28463000  0.55270000  1
  H  H6  1  0.37900300  0.15400200  0.20967400  1
  H  H7  1  0.71657500  0.86603000  0.79317900  1
  H  H8  1  0.48499300  0.92604600  0.97014400  1
  H  H9  1  0.22480600  0.21491300  0.98644200  1
  H  H10  1  0.04862200  0.26121100  0.98312400  1
  H  H11  1  0.01071500  0.56685000  0.97110600  1
  O  O0  1  0.91021100  0.90744600  0.57080300  1
  O  O1  1  0.09006600  0.06355500  0.35705000  1
  O  O2  1  0.40796400  0.41436900  0.63341700  1
  O  O3  1  0.57342100  0.57139400  0.32834300  1
  O  O4  1  0.94197800  0.58252400  0.32757200  1
  O  O5  1  0.00956600  0.38234500  0.59772000  1
  O  O6  1  0.51379500  0.11280500  0.39134700  1
  O  O7  1  0.53438700  0.87082900  0.60398500  1
  O  O8  1  0.40987400  0.79871700  0.97107500  1
  O  O9  1  0.58318000  0.17298200  0.97179300  1
  O  O10  1  0.92621400  0.31101000  0.99115700  1
  O  O11  1  0.07792000  0.69476200  0.96900700  1
loop_
_geom_bond_atom_site_label_1
_geom_bond_atom_site_label_2
_geom_bond_distance
_geom_bond_site_symmetry_2
Mg0 O9 1.984847 1_555
Mg0 O3 2.058935 1_556
Mg0 O5 2.066231 1_555
Mg0 O2 2.184167 1_555
Mg0 O4 2.322452 1_556
Al0 O6 1.886273 1_565
Al0 O0 1.908207 1_555
Al0 O7 1.932218 1_555
Al0 O8 1.933533 1_554
Al0 O11 1.956292 1_554
Al0 O3 1.981167 1_555
Al1 O9 1.860152 1_555
Al1 O6 1.920053 1_555
Al1 O1 1.928957 1_555
Al1 O7 1.939828 1_545
Al1 O10 1.950856 1_555
Al1 O2 2.077886 1_555
Al2 O8 1.873442 1_555
Al2 O0 1.876647 1_455
Al2 O11 1.926566 1_555
Al2 O4 1.940193 1_455
Al2 O3 1.958518 1_455
Al2 O5 1.986875 1_555
Al3 O9 1.834078 1_554
Al3 O10 1.893137 1_554
Al3 O1 1.926193 1_655
Al3 O2 1.944993 1_655
Al3 O4 1.982577 1_555
Al3 O5 2.023845 1_655
H0 O0 1.018267 1_445
H0 H9 1.312409 1_555
H1 O1 0.986536 1_565
H2 O2 0.973168 1_555
H3 O3 0.974297 1_555
H4 O4 0.974869 1_455
H5 O5 0.990902 1_655
H6 O6 1.022275 1_555
H6 H9 1.300856 1_554
H7 O7 0.978331 1_555
H8 O8 1.006472 1_555
H9 Mg0 2.121040 1_555
H10 O10 1.016587 1_455
H10 H9 1.327598 1_555
H11 O11 0.989217 1_555
