# generated using pymatgen
data_YMg14Si
_symmetry_space_group_name_H-M   'P 1'
_cell_length_a   6.43742025
_cell_length_b   6.22101962
_cell_length_c   10.31441128
_cell_angle_alpha   90.00000000
_cell_angle_beta   90.00000000
_cell_angle_gamma   118.89408870
_symmetry_Int_Tables_number   1
_chemical_formula_structural   YMg14Si
_chemical_formula_sum   'Y1 Mg14 Si1'
_cell_volume   361.64391557
_cell_formula_units_Z   1
loop_
 _symmetry_equiv_pos_site_id
 _symmetry_equiv_pos_as_xyz
  1  'x, y, z'
loop_
 _atom_site_type_symbol
 _atom_site_label
 _atom_site_symmetry_multiplicity
 _atom_site_fract_x
 _atom_site_fract_y
 _atom_site_fract_z
 _atom_site_occupancy
  Y  Y0  1  0.15753600  0.32876750  0.12500000  1
  Mg  Mg0  1  0.16612291  0.33306096  0.62500000  1
  Mg  Mg1  1  0.16217944  0.83108922  0.62500000  1
  Mg  Mg2  1  0.65863626  0.32431733  0.12500000  1
  Mg  Mg3  1  0.66499725  0.33527268  0.62500000  1
  Mg  Mg4  1  0.65863626  0.83431793  0.12500000  1
  Mg  Mg5  1  0.66499725  0.82972357  0.62500000  1
  Mg  Mg6  1  0.33505651  0.16364774  0.37705625  1
  Mg  Mg7  1  0.33505651  0.16364774  0.87294375  1
  Mg  Mg8  1  0.33505651  0.67140977  0.37705625  1
  Mg  Mg9  1  0.33505651  0.67140977  0.87294375  1
  Mg  Mg10  1  0.83292311  0.16646206  0.38204640  1
  Mg  Mg11  1  0.83292311  0.16646206  0.86795360  1
  Mg  Mg12  1  0.84098178  0.67049139  0.36697655  1
  Mg  Mg13  1  0.84098178  0.67049139  0.88302345  1
  Si  Si0  1  0.17885882  0.83942891  0.12500000  1
loop_
_geom_bond_atom_site_label_1
_geom_bond_atom_site_label_2
_geom_bond_distance
_geom_bond_site_symmetry_2
Mg0 Mg1 3.110589 1_555
Mg0 Mg1 3.110589 1_545
Mg0 Mg11 3.131498 1_455
Mg0 Mg10 3.131498 1_455
Mg0 Mg6 3.152979 1_555
Mg0 Mg7 3.152979 1_555
Mg0 Mg9 3.152985 1_555
Mg0 Mg8 3.152985 1_555
Mg0 Mg5 3.204838 1_555
Mg0 Mg3 3.204838 1_555
Mg0 Mg5 3.232627 1_445
Mg0 Mg3 3.232627 1_455
Mg1 Mg8 3.135904 1_555
Mg1 Mg9 3.135904 1_555
Mg1 Mg6 3.135910 1_565
Mg1 Mg7 3.135910 1_565
Mg1 Mg3 3.196474 1_455
Mg1 Mg5 3.196474 1_455
Mg1 Mg12 3.218692 1_455
Mg1 Mg13 3.218692 1_455
Mg1 Mg3 3.240963 1_565
Mg1 Mg5 3.240963 1_555
Mg2 Mg4 3.048296 1_545
Mg2 Si0 3.104017 1_545
Mg2 Mg4 3.172724 1_555
Mg2 Mg7 3.175689 1_554
Mg2 Mg6 3.175689 1_555
Mg2 Y0 3.198342 1_655
Mg2 Y0 3.239261 1_555
Mg2 Si0 3.333644 1_655
Mg3 Mg5 3.075989 1_555
Mg3 Mg5 3.145031 1_545
Mg3 Mg6 3.162270 1_555
Mg3 Mg7 3.162270 1_555
Mg4 Si0 3.104017 1_555
Mg4 Mg8 3.175689 1_555
Mg4 Mg9 3.175689 1_554
Mg4 Y0 3.198342 1_665
Mg4 Y0 3.239260 1_555
Mg4 Si0 3.333644 1_655
Mg5 Mg8 3.162271 1_555
Mg5 Mg9 3.162271 1_555
Mg6 Mg8 3.062222 1_545
Mg6 Si0 3.142982 1_545
Mg6 Mg8 3.158798 1_555
Mg6 Y0 3.202270 1_555
Mg7 Mg9 3.062222 1_545
Mg7 Si0 3.142982 1_546
Mg7 Mg9 3.158798 1_555
Mg7 Y0 3.202270 1_556
Mg8 Si0 3.142976 1_555
Mg8 Y0 3.202276 1_555
Mg9 Si0 3.142976 1_556
Mg9 Y0 3.202276 1_556
Mg10 Mg3 3.106153 1_555
Mg10 Mg5 3.106159 1_545
Mg10 Mg12 3.114722 1_555
Mg10 Mg12 3.114722 1_545
Mg10 Mg8 3.196968 1_545
Mg10 Mg6 3.196968 1_555
Mg10 Mg2 3.212040 1_555
Mg10 Mg4 3.212046 1_545
Mg10 Y0 3.221257 1_655
Mg10 Mg8 3.241348 1_655
Mg10 Mg6 3.241348 1_655
Mg11 Mg3 3.106153 1_555
Mg11 Mg5 3.106159 1_545
Mg11 Mg13 3.114722 1_555
Mg11 Mg13 3.114722 1_545
Mg11 Mg9 3.196968 1_545
Mg11 Mg7 3.196968 1_555
Mg11 Mg2 3.212040 1_556
Mg11 Mg4 3.212046 1_546
Mg11 Y0 3.221257 1_656
Mg11 Mg9 3.241348 1_655
Mg11 Mg7 3.241348 1_655
Mg12 Mg4 3.130808 1_555
Mg12 Mg2 3.130814 1_555
Mg12 Si0 3.139360 1_655
Mg12 Mg6 3.179510 1_665
Mg12 Mg8 3.179510 1_655
Mg12 Mg5 3.229865 1_555
Mg12 Mg3 3.229871 1_555
Mg12 Mg6 3.261275 1_555
Mg12 Mg8 3.261276 1_555
Mg13 Mg4 3.130808 1_556
Mg13 Mg2 3.130814 1_556
Mg13 Si0 3.139360 1_656
Mg13 Mg7 3.179510 1_665
Mg13 Mg9 3.179510 1_655
Mg13 Mg5 3.229865 1_555
Mg13 Mg3 3.229871 1_555
Mg13 Mg7 3.261275 1_555
Mg13 Mg9 3.261276 1_555
Si0 Y0 3.112830 1_555
Si0 Y0 3.112831 1_565
