# generated using pymatgen
data_NaNdNb4O12
_symmetry_space_group_name_H-M   'P 1'
_cell_length_a   8.95208483
_cell_length_b   8.95208483
_cell_length_c   8.95208483
_cell_angle_alpha   143.40772671
_cell_angle_beta   143.40772671
_cell_angle_gamma   52.71387512
_symmetry_Int_Tables_number   1
_chemical_formula_structural   NaNdNb4O12
_chemical_formula_sum   'Na1 Nd1 Nb4 O12'
_cell_volume   253.41016268
_cell_formula_units_Z   1
loop_
 _symmetry_equiv_pos_site_id
 _symmetry_equiv_pos_as_xyz
  1  'x, y, z'
loop_
 _atom_site_type_symbol
 _atom_site_label
 _atom_site_symmetry_multiplicity
 _atom_site_fract_x
 _atom_site_fract_y
 _atom_site_fract_z
 _atom_site_occupancy
  Na  Na0  1  0.00000000  0.00000000  0.00000000  1
  Nd  Nd0  1  0.50000000  0.50000000  0.00000000  1
  Nb  Nb0  1  0.62897200  0.12897200  0.50000000  1
  Nb  Nb1  1  0.12897200  0.62897200  0.50000000  1
  Nb  Nb2  1  0.87102800  0.37102800  0.50000000  1
  Nb  Nb3  1  0.37102800  0.87102800  0.50000000  1
  O  O0  1  0.85575700  0.85575700  0.48353400  1
  O  O1  1  0.37222300  0.37222300  0.51646600  1
  O  O2  1  0.14424300  0.14424300  0.51646600  1
  O  O3  1  0.62777700  0.62777700  0.48353400  1
  O  O4  1  0.37222300  0.85575700  0.00000000  1
  O  O5  1  0.85575700  0.37222300  0.00000000  1
  O  O6  1  0.62777700  0.14424300  0.00000000  1
  O  O7  1  0.14424300  0.62777700  0.00000000  1
  O  O8  1  0.75000000  0.25000000  0.50000000  1
  O  O9  1  0.25000000  0.75000000  0.50000000  1
  O  O10  1  0.50000000  0.00000000  0.50000000  1
  O  O11  1  0.00000000  0.50000000  0.50000000  1
loop_
_geom_bond_atom_site_label_1
_geom_bond_atom_site_label_2
_geom_bond_distance
_geom_bond_site_symmetry_2
Na0 O2 2.749106 1_555
Na0 O6 2.749106 1_455
Na0 O7 2.749106 1_545
Na0 O0 2.749106 1_444
Na0 O3 2.749106 1_444
Na0 O1 2.749106 1_555
Na0 O5 2.749106 1_455
Na0 O4 2.749106 1_545
Na0 O10 2.810314 1_555
Na0 O10 2.810314 1_454
Na0 O11 2.810314 1_555
Na0 O11 2.810314 1_544
Nd0 O0 2.652810 1_555
Nd0 O6 2.652810 1_555
Nd0 O3 2.652810 1_555
Nd0 O7 2.652810 1_555
Nd0 O4 2.652810 1_555
Nd0 O2 2.652810 1_554
Nd0 O1 2.652810 1_554
Nd0 O5 2.652810 1_555
Nd0 O11 2.810314 1_554
Nd0 O10 2.810314 1_554
Nd0 O10 2.810314 1_565
Nd0 O11 2.810314 1_655
Nb0 O8 1.941647 1_555
Nb0 O0 2.002745 1_545
Nb0 O1 2.002745 1_555
Nb0 O5 2.002745 1_556
Nb0 O4 2.002745 1_545
Nb0 O10 2.069092 1_555
Nb1 O9 1.941647 1_555
Nb1 O5 2.002745 1_455
Nb1 O1 2.002745 1_555
Nb1 O4 2.002745 1_556
Nb1 O0 2.002745 1_455
Nb1 O11 2.069092 1_555
Nb2 O8 1.941647 1_555
Nb2 O2 2.002745 1_655
Nb2 O6 2.002745 1_555
Nb2 O7 2.002745 1_656
Nb2 O3 2.002745 1_555
Nb2 O11 2.069092 1_655
Nb3 O9 1.941647 1_555
Nb3 O2 2.002745 1_565
Nb3 O7 2.002745 1_555
Nb3 O6 2.002745 1_566
Nb3 O3 2.002745 1_555
Nb3 O10 2.069092 1_565
