# generated using pymatgen
data_MgZn3
_symmetry_space_group_name_H-M   'P 1'
_cell_length_a   5.80319200
_cell_length_b   9.35155000
_cell_length_c   9.76472400
_cell_angle_alpha   90.00000000
_cell_angle_beta   90.00000000
_cell_angle_gamma   90.00000000
_symmetry_Int_Tables_number   1
_chemical_formula_structural   MgZn3
_chemical_formula_sum   'Mg8 Zn24'
_cell_volume   529.92024584
_cell_formula_units_Z   8
loop_
 _symmetry_equiv_pos_site_id
 _symmetry_equiv_pos_as_xyz
  1  'x, y, z'
loop_
 _atom_site_type_symbol
 _atom_site_label
 _atom_site_symmetry_multiplicity
 _atom_site_fract_x
 _atom_site_fract_y
 _atom_site_fract_z
 _atom_site_occupancy
  Mg  Mg0_0  1  0.00000000  0.25000000  0.16766250  1
  Mg  Mg0_1  1  0.00000000  0.25000000  0.66766250  1
  Mg  Mg0_2  1  0.00000000  0.75000000  0.16766250  1
  Mg  Mg0_3  1  0.00000000  0.75000000  0.66766250  1
  Mg  Mg0_4  1  0.50000000  0.25000000  0.16766250  1
  Mg  Mg0_5  1  0.50000000  0.25000000  0.66766250  1
  Mg  Mg0_6  1  0.50000000  0.75000000  0.16766250  1
  Mg  Mg0_7  1  0.50000000  0.75000000  0.66766250  1
  Zn  Zn0_0  1  0.00000000  0.00000000  0.49837300  1
  Zn  Zn0_1  1  0.00000000  0.00000000  0.99837300  1
  Zn  Zn0_2  1  0.00000000  0.50000000  0.49837300  1
  Zn  Zn0_3  1  0.00000000  0.50000000  0.99837300  1
  Zn  Zn0_4  1  0.50000000  0.00000000  0.49837300  1
  Zn  Zn0_5  1  0.50000000  0.00000000  0.99837300  1
  Zn  Zn0_6  1  0.50000000  0.50000000  0.49837300  1
  Zn  Zn0_7  1  0.50000000  0.50000000  0.99837300  1
  Zn  Zn1_0  1  0.25000000  0.00000000  0.25180350  1
  Zn  Zn1_1  1  0.25000000  0.00000000  0.75180350  1
  Zn  Zn1_2  1  0.25000000  0.50000000  0.25180350  1
  Zn  Zn1_3  1  0.25000000  0.50000000  0.75180350  1
  Zn  Zn1_4  1  0.75000000  0.00000000  0.25180350  1
  Zn  Zn1_5  1  0.75000000  0.00000000  0.75180350  1
  Zn  Zn1_6  1  0.75000000  0.50000000  0.25180350  1
  Zn  Zn1_7  1  0.75000000  0.50000000  0.75180350  1
  Zn  Zn2_0  1  0.25000000  0.25000000  0.41549400  1
  Zn  Zn2_1  1  0.25000000  0.25000000  0.91549400  1
  Zn  Zn2_2  1  0.25000000  0.75000000  0.41549400  1
  Zn  Zn2_3  1  0.25000000  0.75000000  0.91549400  1
  Zn  Zn2_4  1  0.75000000  0.25000000  0.41549400  1
  Zn  Zn2_5  1  0.75000000  0.25000000  0.91549400  1
  Zn  Zn2_6  1  0.75000000  0.75000000  0.41549400  1
  Zn  Zn2_7  1  0.75000000  0.75000000  0.91549400  1
loop_
_geom_bond_atom_site_label_1
_geom_bond_atom_site_label_2
_geom_bond_distance
_geom_bond_site_symmetry_2
Mg0_0 Zn2_0 2.821568 1_555
Mg0_0 Zn2_4 2.821568 1_455
Mg0_0 Zn2_1 2.857973 1_554
Mg0_0 Zn2_5 2.857973 1_454
Mg0_0 Zn0_3 2.863275 1_554
Mg0_0 Zn0_1 2.863275 1_554
Mg0_0 Zn1_2 2.871512 1_555
Mg0_0 Zn1_6 2.871512 1_455
Mg0_0 Zn1_0 2.871512 1_555
Mg0_0 Zn1_4 2.871512 1_455
Mg0_0 Mg0_4 2.901596 1_455
Mg0_0 Mg0_4 2.901596 1_555
Mg0_1 Zn2_1 2.821568 1_555
Mg0_1 Zn2_5 2.821568 1_455
Mg0_1 Zn2_0 2.857973 1_555
Mg0_1 Zn2_4 2.857973 1_455
Mg0_1 Zn0_0 2.863275 1_555
Mg0_1 Zn0_2 2.863275 1_555
Mg0_1 Zn1_5 2.871512 1_455
Mg0_1 Zn1_1 2.871512 1_555
Mg0_1 Zn1_3 2.871512 1_555
Mg0_1 Zn1_7 2.871512 1_455
Mg0_1 Mg0_5 2.901596 1_455
Mg0_1 Mg0_5 2.901596 1_555
Mg0_2 Zn2_6 2.821568 1_455
Mg0_2 Zn2_2 2.821568 1_555
Mg0_2 Zn2_7 2.857973 1_454
Mg0_2 Zn2_3 2.857973 1_554
Mg0_2 Zn0_3 2.863275 1_554
Mg0_2 Zn0_1 2.863275 1_564
Mg0_2 Zn1_0 2.871512 1_565
Mg0_2 Zn1_2 2.871512 1_555
Mg0_2 Zn1_4 2.871512 1_465
Mg0_2 Zn1_6 2.871512 1_455
Mg0_2 Mg0_6 2.901596 1_455
Mg0_2 Mg0_6 2.901596 1_555
Mg0_3 Zn2_3 2.821568 1_555
Mg0_3 Zn2_7 2.821568 1_455
Mg0_3 Zn2_6 2.857973 1_455
Mg0_3 Zn2_2 2.857973 1_555
Mg0_3 Zn0_0 2.863275 1_565
Mg0_3 Zn0_2 2.863275 1_555
Mg0_3 Zn1_1 2.871512 1_565
Mg0_3 Zn1_5 2.871512 1_465
Mg0_3 Zn1_3 2.871512 1_555
Mg0_3 Zn1_7 2.871512 1_455
Mg0_3 Mg0_7 2.901596 1_455
Mg0_3 Mg0_7 2.901596 1_555
Mg0_4 Zn2_0 2.821568 1_555
Mg0_4 Zn2_4 2.821568 1_555
Mg0_4 Zn2_1 2.857973 1_554
Mg0_4 Zn2_5 2.857973 1_554
Mg0_4 Zn0_5 2.863275 1_554
Mg0_4 Zn0_7 2.863275 1_554
Mg0_4 Zn1_4 2.871512 1_555
Mg0_4 Zn1_2 2.871512 1_555
Mg0_4 Zn1_0 2.871512 1_555
Mg0_4 Zn1_6 2.871512 1_555
Mg0_5 Zn2_1 2.821568 1_555
Mg0_5 Zn2_5 2.821568 1_555
Mg0_5 Zn2_0 2.857973 1_555
Mg0_5 Zn2_4 2.857973 1_555
Mg0_5 Zn0_4 2.863275 1_555
Mg0_5 Zn0_6 2.863275 1_555
Mg0_5 Zn1_7 2.871512 1_555
Mg0_5 Zn1_1 2.871512 1_555
Mg0_5 Zn1_5 2.871512 1_555
Mg0_5 Zn1_3 2.871512 1_555
Mg0_6 Zn2_6 2.821568 1_555
Mg0_6 Zn2_2 2.821568 1_555
Mg0_6 Zn2_3 2.857973 1_554
Mg0_6 Zn2_7 2.857973 1_554
Mg0_6 Zn0_7 2.863275 1_554
Mg0_6 Zn0_5 2.863275 1_564
Mg0_6 Zn1_0 2.871512 1_565
Mg0_6 Zn1_2 2.871512 1_555
Mg0_6 Zn1_4 2.871512 1_565
Mg0_6 Zn1_6 2.871512 1_555
Mg0_7 Zn2_3 2.821568 1_555
Mg0_7 Zn2_7 2.821568 1_555
Mg0_7 Zn2_6 2.857973 1_555
Mg0_7 Zn2_2 2.857973 1_555
Mg0_7 Zn0_4 2.863275 1_565
Mg0_7 Zn0_6 2.863275 1_555
Mg0_7 Zn1_1 2.871512 1_565
Mg0_7 Zn1_7 2.871512 1_555
Mg0_7 Zn1_3 2.871512 1_555
Mg0_7 Zn1_5 2.871512 1_565
Zn0_0 Zn1_0 2.811006 1_555
Zn0_0 Zn1_4 2.811006 1_455
Zn0_0 Zn2_2 2.868010 1_545
Zn0_0 Zn2_6 2.868010 1_445
Zn0_0 Zn2_0 2.868010 1_555
Zn0_0 Zn2_4 2.868010 1_455
Zn0_0 Zn1_1 2.868597 1_555
Zn0_0 Zn1_5 2.868597 1_455
Zn0_0 Zn0_4 2.901596 1_455
Zn0_0 Zn0_4 2.901596 1_555
Zn0_1 Zn1_1 2.811006 1_555
Zn0_1 Zn1_5 2.811006 1_455
Zn0_1 Zn2_3 2.868010 1_545
Zn0_1 Zn2_7 2.868010 1_445
Zn0_1 Zn2_1 2.868010 1_555
Zn0_1 Zn2_5 2.868010 1_455
Zn0_1 Zn1_4 2.868597 1_456
Zn0_1 Zn1_0 2.868597 1_556
Zn0_1 Zn0_5 2.901596 1_455
Zn0_1 Zn0_5 2.901596 1_555
Zn0_2 Zn1_6 2.811006 1_455
Zn0_2 Zn1_2 2.811006 1_555
Zn0_2 Zn2_6 2.868010 1_455
Zn0_2 Zn2_2 2.868010 1_555
Zn0_2 Zn2_0 2.868010 1_555
Zn0_2 Zn2_4 2.868010 1_455
Zn0_2 Zn1_3 2.868597 1_555
Zn0_2 Zn1_7 2.868597 1_455
Zn0_2 Zn0_6 2.901596 1_555
Zn0_2 Zn0_6 2.901596 1_455
Zn0_3 Zn1_3 2.811006 1_555
Zn0_3 Zn1_7 2.811006 1_455
Zn0_3 Zn2_3 2.868010 1_555
Zn0_3 Zn2_7 2.868010 1_455
Zn0_3 Zn2_1 2.868010 1_555
Zn0_3 Zn2_5 2.868010 1_455
Zn0_3 Zn1_6 2.868597 1_456
Zn0_3 Zn1_2 2.868597 1_556
Zn0_3 Zn0_7 2.901596 1_455
Zn0_3 Zn0_7 2.901596 1_555
Zn0_4 Zn1_0 2.811006 1_555
Zn0_4 Zn1_4 2.811006 1_555
Zn0_4 Zn2_4 2.868010 1_555
Zn0_4 Zn2_2 2.868010 1_545
Zn0_4 Zn2_0 2.868010 1_555
Zn0_4 Zn2_6 2.868010 1_545
Zn0_4 Zn1_1 2.868597 1_555
Zn0_4 Zn1_5 2.868597 1_555
Zn0_5 Zn1_1 2.811006 1_555
Zn0_5 Zn1_5 2.811006 1_555
Zn0_5 Zn2_3 2.868010 1_545
Zn0_5 Zn2_1 2.868010 1_555
Zn0_5 Zn2_7 2.868010 1_545
Zn0_5 Zn2_5 2.868010 1_555
Zn0_5 Zn1_4 2.868597 1_556
Zn0_5 Zn1_0 2.868597 1_556
Zn0_6 Zn1_2 2.811006 1_555
Zn0_6 Zn1_6 2.811006 1_555
Zn0_6 Zn2_4 2.868010 1_555
Zn0_6 Zn2_2 2.868010 1_555
Zn0_6 Zn2_0 2.868010 1_555
Zn0_6 Zn2_6 2.868010 1_555
Zn0_6 Zn1_3 2.868597 1_555
Zn0_6 Zn1_7 2.868597 1_555
Zn0_7 Zn1_3 2.811006 1_555
Zn0_7 Zn1_7 2.811006 1_555
Zn0_7 Zn2_3 2.868010 1_555
Zn0_7 Zn2_5 2.868010 1_555
Zn0_7 Zn2_1 2.868010 1_555
Zn0_7 Zn2_7 2.868010 1_555
Zn0_7 Zn1_6 2.868597 1_556
Zn0_7 Zn1_2 2.868597 1_556
Zn1_0 Zn2_2 2.832062 1_545
Zn1_0 Zn2_0 2.832062 1_555
Zn1_0 Zn1_4 2.901596 1_555
Zn1_0 Zn1_4 2.901596 1_455
Zn1_1 Zn2_3 2.832062 1_545
Zn1_1 Zn2_1 2.832062 1_555
Zn1_1 Zn1_5 2.901596 1_555
Zn1_1 Zn1_5 2.901596 1_455
Zn1_2 Zn2_2 2.832062 1_555
Zn1_2 Zn2_0 2.832062 1_555
Zn1_2 Zn1_6 2.901596 1_455
Zn1_2 Zn1_6 2.901596 1_555
Zn1_3 Zn2_3 2.832062 1_555
Zn1_3 Zn2_1 2.832062 1_555
Zn1_3 Zn1_7 2.901596 1_455
Zn1_3 Zn1_7 2.901596 1_555
Zn1_4 Zn2_6 2.832062 1_545
Zn1_4 Zn2_4 2.832062 1_555
Zn1_5 Zn2_5 2.832062 1_555
Zn1_5 Zn2_7 2.832062 1_545
Zn1_6 Zn2_6 2.832062 1_555
Zn1_6 Zn2_4 2.832062 1_555
Zn1_7 Zn2_5 2.832062 1_555
Zn1_7 Zn2_7 2.832062 1_555
Zn2_0 Zn2_4 2.901596 1_455
Zn2_0 Zn2_4 2.901596 1_555
Zn2_1 Zn2_5 2.901596 1_455
Zn2_1 Zn2_5 2.901596 1_555
Zn2_2 Zn2_6 2.901596 1_555
Zn2_2 Zn2_6 2.901596 1_455
Zn2_3 Zn2_7 2.901596 1_555
Zn2_3 Zn2_7 2.901596 1_455
