# generated using pymatgen
data_Sr7CaMn2(Fe3O10)2
_symmetry_space_group_name_H-M   'P 1'
_cell_length_a   11.17406360
_cell_length_b   11.39844789
_cell_length_c   17.68784555
_cell_angle_alpha   108.81592443
_cell_angle_beta   108.60787218
_cell_angle_gamma   89.78456947
_symmetry_Int_Tables_number   1
_chemical_formula_structural   Sr7CaMn2(Fe3O10)2
_chemical_formula_sum   'Sr28 Ca4 Mn8 Fe24 O80'
_cell_volume   2008.59622424
_cell_formula_units_Z   4
loop_
 _symmetry_equiv_pos_site_id
 _symmetry_equiv_pos_as_xyz
  1  'x, y, z'
loop_
 _atom_site_type_symbol
 _atom_site_label
 _atom_site_symmetry_multiplicity
 _atom_site_fract_x
 _atom_site_fract_y
 _atom_site_fract_z
 _atom_site_occupancy
  Sr  Sr0  1  0.30721000  0.05981200  0.60862700  1
  Sr  Sr1  1  0.30704400  0.55928700  0.60793100  1
  Sr  Sr2  1  0.80621700  0.06107900  0.60868700  1
  Sr  Sr3  1  0.80596600  0.56462800  0.10941300  1
  Sr  Sr4  1  0.80722800  0.55948300  0.60817700  1
  Sr  Sr5  1  0.19600900  0.43510100  0.38972100  1
  Sr  Sr6  1  0.19899900  0.44109100  0.89280100  1
  Sr  Sr7  1  0.19633300  0.93704300  0.38930000  1
  Sr  Sr8  1  0.19908600  0.94081800  0.89311700  1
  Sr  Sr9  1  0.69657600  0.43636100  0.39052200  1
  Sr  Sr10  1  0.69983900  0.44062800  0.89205900  1
  Sr  Sr11  1  0.69827400  0.93802000  0.39090100  1
  Sr  Sr12  1  0.70038100  0.93876300  0.89390000  1
  Sr  Sr13  1  0.05720000  0.29479200  0.11032100  1
  Sr  Sr14  1  0.05703600  0.29824200  0.60788600  1
  Sr  Sr15  1  0.05697600  0.79855100  0.60820700  1
  Sr  Sr16  1  0.55615300  0.29492000  0.10986400  1
  Sr  Sr17  1  0.55784100  0.29846500  0.60855100  1
  Sr  Sr18  1  0.55626300  0.79711000  0.10947200  1
  Sr  Sr19  1  0.55641100  0.79611400  0.60716500  1
  Sr  Sr20  1  0.44535300  0.20040600  0.38729900  1
  Sr  Sr21  1  0.44835200  0.20106700  0.89201800  1
  Sr  Sr22  1  0.44538100  0.70306100  0.38932400  1
  Sr  Sr23  1  0.44898600  0.70222700  0.89287900  1
  Sr  Sr24  1  0.94600000  0.20235500  0.38857800  1
  Sr  Sr25  1  0.94837500  0.20227600  0.89252300  1
  Sr  Sr26  1  0.94630700  0.70400200  0.38980100  1
  Sr  Sr27  1  0.95010900  0.70266200  0.89325000  1
  Ca  Ca0  1  0.30302600  0.06439600  0.10624800  1
  Ca  Ca1  1  0.30223400  0.56566100  0.10414800  1
  Ca  Ca2  1  0.80334700  0.06575500  0.10570700  1
  Ca  Ca3  1  0.05565800  0.78932000  0.10608100  1
  Mn  Mn0  1  0.11242400  0.09591300  0.75069400  1
  Mn  Mn1  1  0.11148600  0.59730300  0.75069200  1
  Mn  Mn2  1  0.61187700  0.59765100  0.75073100  1
  Mn  Mn3  1  0.36122400  0.40399800  0.75055400  1
  Mn  Mn4  1  0.35450600  0.90128600  0.24644100  1
  Mn  Mn5  1  0.36142400  0.90064000  0.75063800  1
  Mn  Mn6  1  0.86218700  0.40397200  0.75068600  1
  Mn  Mn7  1  0.86130200  0.90458900  0.75075200  1
  Fe  Fe0  1  0.00719400  0.00177500  0.00536600  1
  Fe  Fe1  1  0.00437600  0.00064300  0.50022800  1
  Fe  Fe2  1  0.00656800  0.50205300  0.00301600  1
  Fe  Fe3  1  0.00393000  0.49999500  0.49983700  1
  Fe  Fe4  1  0.50617500  0.00174200  0.00320800  1
  Fe  Fe5  1  0.50331500  0.00118400  0.49899300  1
  Fe  Fe6  1  0.50455400  0.50107900  0.00201400  1
  Fe  Fe7  1  0.50372800  0.49935400  0.49957600  1
  Fe  Fe8  1  0.25540400  0.25126400  0.00256200  1
  Fe  Fe9  1  0.25410000  0.24958900  0.50023100  1
  Fe  Fe10  1  0.25511100  0.75300600  0.00376900  1
  Fe  Fe11  1  0.25398900  0.75012700  0.49998900  1
  Fe  Fe12  1  0.75558300  0.25082600  0.00181400  1
  Fe  Fe13  1  0.75382700  0.25001900  0.49987600  1
  Fe  Fe14  1  0.75749200  0.75285900  0.00417800  1
  Fe  Fe15  1  0.75356900  0.75022500  0.50005400  1
  Fe  Fe16  1  0.10428600  0.08292300  0.24584300  1
  Fe  Fe17  1  0.10892900  0.59267700  0.24912300  1
  Fe  Fe18  1  0.60654000  0.08922900  0.24762400  1
  Fe  Fe19  1  0.61043100  0.08844500  0.75040500  1
  Fe  Fe20  1  0.60352900  0.59016400  0.24801800  1
  Fe  Fe21  1  0.35635700  0.40939500  0.24748900  1
  Fe  Fe22  1  0.85734700  0.40739000  0.24929600  1
  Fe  Fe23  1  0.85777900  0.91133100  0.24772000  1
  O  O0  1  0.12368500  0.12190700  0.49147600  1
  O  O1  1  0.12709200  0.12263800  0.99499300  1
  O  O2  1  0.12349800  0.62151800  0.49122500  1
  O  O3  1  0.12656500  0.62393000  0.99572400  1
  O  O4  1  0.62396400  0.12253600  0.49133600  1
  O  O5  1  0.62704400  0.12259800  0.99336300  1
  O  O6  1  0.62328000  0.62201500  0.49140000  1
  O  O7  1  0.62508700  0.62396300  0.99366600  1
  O  O8  1  0.13740300  0.38322300  0.01356400  1
  O  O9  1  0.13155700  0.37674700  0.50610700  1
  O  O10  1  0.13454700  0.88060200  0.01356400  1
  O  O11  1  0.13141900  0.87711900  0.50621400  1
  O  O12  1  0.63219500  0.37730300  0.00849700  1
  O  O13  1  0.63136500  0.37734200  0.50627600  1
  O  O14  1  0.63670700  0.88209200  0.01166700  1
  O  O15  1  0.63019600  0.87775600  0.50577600  1
  O  O16  1  0.37435200  0.12134600  0.49318300  1
  O  O17  1  0.37597600  0.12125800  0.99521000  1
  O  O18  1  0.37360400  0.61964000  0.49096100  1
  O  O19  1  0.37475600  0.62118300  0.99581800  1
  O  O20  1  0.87381000  0.12010800  0.49129200  1
  O  O21  1  0.87486600  0.11999300  0.99476900  1
  O  O22  1  0.87334800  0.62011000  0.49131100  1
  O  O23  1  0.87836800  0.62335900  0.99530900  1
  O  O24  1  0.38215100  0.38450200  0.01270300  1
  O  O25  1  0.38062300  0.37845100  0.50503600  1
  O  O26  1  0.38225600  0.88459400  0.01178100  1
  O  O27  1  0.38286600  0.88044400  0.50765800  1
  O  O28  1  0.88427800  0.38149700  0.01092700  1
  O  O29  1  0.88138000  0.37913900  0.50608600  1
  O  O30  1  0.88655300  0.88349600  0.01479900  1
  O  O31  1  0.88097000  0.87912700  0.50583800  1
  O  O32  1  0.08861000  0.09659400  0.13991800  1
  O  O33  1  0.07569600  0.08588500  0.63540800  1
  O  O34  1  0.08633200  0.60370100  0.14118600  1
  O  O35  1  0.07540900  0.58581700  0.63572100  1
  O  O36  1  0.58917400  0.09498100  0.13933200  1
  O  O37  1  0.58398000  0.09534400  0.64067100  1
  O  O38  1  0.58371000  0.59663400  0.13980500  1
  O  O39  1  0.57516600  0.58559300  0.63557800  1
  O  O40  1  0.44144600  0.40632000  0.35763000  1
  O  O41  1  0.43917600  0.41439500  0.86572700  1
  O  O42  1  0.43508700  0.91728700  0.36176200  1
  O  O43  1  0.44034100  0.91363600  0.86602900  1
  O  O44  1  0.94085300  0.40457300  0.35931700  1
  O  O45  1  0.94201300  0.41492900  0.86594800  1
  O  O46  1  0.94125000  0.90700800  0.35786900  1
  O  O47  1  0.93963200  0.91408700  0.86565200  1
  O  O48  1  0.33276400  0.28401400  0.14200600  1
  O  O49  1  0.32533100  0.30027000  0.63585600  1
  O  O50  1  0.32564900  0.79004000  0.13607400  1
  O  O51  1  0.32482400  0.79866900  0.63525700  1
  O  O52  1  0.83160300  0.28706700  0.14107900  1
  O  O53  1  0.82661900  0.30052800  0.63584400  1
  O  O54  1  0.83494000  0.79269200  0.14016100  1
  O  O55  1  0.82444100  0.80048000  0.63574900  1
  O  O56  1  0.18870400  0.19773500  0.35604000  1
  O  O57  1  0.19093200  0.20207200  0.86640200  1
  O  O58  1  0.19194600  0.70507200  0.35949600  1
  O  O59  1  0.19000800  0.70111900  0.86590300  1
  O  O60  1  0.68791000  0.20313500  0.35794300  1
  O  O61  1  0.69438300  0.20543200  0.86046300  1
  O  O62  1  0.68594500  0.70399600  0.35791500  1
  O  O63  1  0.69161600  0.70166900  0.86572600  1
  O  O64  1  0.43290300  0.05208300  0.24047300  1
  O  O65  1  0.44169500  0.05956800  0.75062400  1
  O  O66  1  0.42642700  0.56056600  0.24083900  1
  O  O67  1  0.44199400  0.56222900  0.75087200  1
  O  O68  1  0.92762900  0.06221800  0.24154100  1
  O  O69  1  0.94004600  0.05974200  0.75073900  1
  O  O70  1  0.93750100  0.55732000  0.24854400  1
  O  O71  1  0.94215900  0.56238700  0.75079400  1
  O  O72  1  0.18589900  0.44056900  0.24923700  1
  O  O73  1  0.19166300  0.43878900  0.75046300  1
  O  O74  1  0.17306700  0.92553200  0.24183200  1
  O  O75  1  0.19034800  0.93651500  0.75073500  1
  O  O76  1  0.68575300  0.44062300  0.24959600  1
  O  O77  1  0.69301300  0.44075800  0.75052600  1
  O  O78  1  0.68622800  0.93871900  0.24973400  1
  O  O79  1  0.68371400  0.93392800  0.75055900  1
loop_
_geom_bond_atom_site_label_1
_geom_bond_atom_site_label_2
_geom_bond_distance
_geom_bond_site_symmetry_2
Ca0 O48 2.372298 1_555
Ca0 O64 2.403538 1_555
Ca0 O10 2.542686 1_545
Ca0 O26 2.549016 1_545
Ca0 O1 2.557728 1_554
Ca0 O17 2.605522 1_554
Ca0 O32 2.644371 1_555
Ca1 O66 2.392390 1_555
Ca1 O50 2.430561 1_555
Ca1 O8 2.506018 1_555
Ca1 O3 2.526177 1_554
Ca1 O24 2.535948 1_555
Ca1 O19 2.550640 1_554
Ca1 O34 2.693491 1_555
Ca1 O38 3.002277 1_555
Ca2 O68 2.373914 1_555
Ca2 O52 2.390930 1_555
Ca2 O14 2.534385 1_545
Ca2 O30 2.559416 1_545
Ca2 O5 2.563610 1_554
Ca2 O21 2.580371 1_554
Ca2 O36 2.639429 1_555
Ca3 O74 2.344656 1_555
Ca3 O34 2.384467 1_555
Ca3 O30 2.546660 1_455
Ca3 O23 2.549946 1_454
Ca3 O10 2.561901 1_555
Ca3 O3 2.567875 1_554
Ca3 O54 2.716742 1_455
Ca3 O50 2.891219 1_555
Mn0 O33 1.911962 1_555
Mn0 O57 1.920198 1_555
Mn0 O69 1.971611 1_455
Mn0 O75 2.011916 1_545
Mn1 O35 1.902792 1_555
Mn1 O59 1.906337 1_555
Mn1 O71 1.935622 1_455
Mn1 O73 2.013121 1_555
Mn2 O39 1.903256 1_555
Mn2 O63 1.905934 1_555
Mn2 O67 1.943178 1_555
Mn2 O77 2.001460 1_555
Mn3 O49 1.900436 1_555
Mn3 O41 1.906676 1_555
Mn3 O73 1.933886 1_555
Mn3 O67 2.017418 1_555
Mn4 O50 1.878130 1_555
Mn4 O42 1.895748 1_555
Mn4 O64 1.979993 1_565
Mn4 O74 2.024416 1_555
Mn5 O43 1.903328 1_555
Mn5 O51 1.903692 1_555
Mn5 O75 1.953778 1_555
Mn5 O65 2.024556 1_565
Mn6 O53 1.902043 1_555
Mn6 O45 1.908855 1_555
Mn6 O77 1.934083 1_555
Mn6 O71 2.016895 1_555
Mn7 O55 1.904608 1_555
Mn7 O47 1.905718 1_555
Mn7 O69 1.978359 1_565
Mn7 O79 2.010232 1_555
Fe0 O10 1.984059 1_545
Fe0 O30 1.991237 1_445
Fe0 O21 2.002084 1_454
Fe0 O1 2.015021 1_554
Fe0 O32 2.150875 1_555
Fe0 O47 2.213082 1_444
Fe1 O20 1.996128 1_455
Fe1 O11 1.998515 1_545
Fe1 O0 1.998855 1_555
Fe1 O31 2.005036 1_445
Fe1 O33 2.141826 1_555
Fe1 O46 2.261791 1_445
Fe2 O23 1.991133 1_454
Fe2 O8 1.995192 1_555
Fe2 O3 1.996092 1_554
Fe2 O28 2.008808 1_455
Fe2 O45 2.172710 1_454
Fe2 O34 2.213755 1_555
Fe3 O29 1.998530 1_455
Fe3 O22 2.001011 1_455
Fe3 O9 2.001040 1_555
Fe3 O2 2.001718 1_555
Fe3 O35 2.153088 1_555
Fe3 O44 2.236385 1_455
Fe4 O17 1.992618 1_554
Fe4 O14 1.996806 1_545
Fe4 O26 2.000471 1_545
Fe4 O5 2.017663 1_554
Fe4 O36 2.172224 1_555
Fe4 O43 2.175254 1_544
Fe5 O16 1.986095 1_555
Fe5 O15 1.997284 1_545
Fe5 O4 2.000131 1_555
Fe5 O27 2.002660 1_545
Fe5 O42 2.171356 1_545
Fe5 O37 2.252801 1_555
Fe6 O19 1.992525 1_554
Fe6 O24 2.003225 1_555
Fe6 O12 2.005680 1_555
Fe6 O7 2.017976 1_554
Fe6 O41 2.160137 1_554
Fe6 O38 2.197242 1_555
Fe7 O13 1.991450 1_555
Fe7 O25 1.996402 1_555
Fe7 O18 1.998900 1_555
Fe7 O6 2.007004 1_555
Fe7 O39 2.155316 1_555
Fe7 O40 2.255124 1_555
Fe8 O1 1.997463 1_554
Fe8 O8 1.999718 1_555
Fe8 O17 2.000123 1_554
Fe8 O24 2.005696 1_555
Fe8 O57 2.158324 1_554
Fe8 O48 2.240064 1_555
Fe9 O16 1.983038 1_555
Fe9 O9 1.991304 1_555
Fe9 O0 1.998068 1_555
Fe9 O25 2.005454 1_555
Fe9 O49 2.147795 1_555
Fe9 O56 2.286809 1_555
Fe10 O10 1.982898 1_555
Fe10 O3 1.999616 1_554
Fe10 O19 2.008344 1_554
Fe10 O26 2.009643 1_555
Fe10 O50 2.112835 1_555
Fe10 O59 2.183195 1_554
Fe11 O11 1.990415 1_555
Fe11 O18 1.998054 1_555
Fe11 O2 2.006080 1_555
Fe11 O27 2.014975 1_555
Fe11 O51 2.144283 1_555
Fe11 O58 2.235998 1_555
Fe12 O5 1.989830 1_554
Fe12 O12 1.993083 1_555
Fe12 O21 1.996802 1_554
Fe12 O28 2.006420 1_555
Fe12 O52 2.229560 1_555
Fe12 O61 2.250199 1_554
Fe13 O13 1.992361 1_555
Fe13 O4 1.993592 1_555
Fe13 O20 1.995794 1_555
Fe13 O29 2.005290 1_555
Fe13 O53 2.153826 1_555
Fe13 O60 2.255688 1_555
Fe14 O14 1.995569 1_555
Fe14 O30 1.998787 1_555
Fe14 O23 1.999665 1_554
Fe14 O7 2.011632 1_554
Fe14 O54 2.170349 1_555
Fe14 O63 2.193305 1_554
Fe15 O22 1.996023 1_555
Fe15 O15 2.000726 1_555
Fe15 O6 2.002027 1_555
Fe15 O31 2.005412 1_555
Fe15 O55 2.149310 1_555
Fe15 O62 2.259546 1_555
Fe16 O32 1.882543 1_555
Fe16 O56 1.895288 1_555
Fe16 O74 1.938178 1_545
Fe16 O68 1.963195 1_455
Fe17 O58 1.884933 1_555
Fe17 O34 1.889802 1_555
Fe17 O72 1.932796 1_555
Fe17 O70 1.955114 1_455
Fe18 O36 1.885370 1_555
Fe18 O60 1.887432 1_555
Fe18 O78 1.935483 1_545
Fe18 O64 1.942880 1_555
Fe19 O37 1.895530 1_555
Fe19 O61 1.901910 1_555
Fe19 O65 1.916636 1_555
Fe19 O79 1.939947 1_545
Fe20 O38 1.881092 1_555
Fe20 O62 1.884085 1_555
Fe20 O76 1.937244 1_555
Fe20 O66 1.965503 1_555
Fe21 O48 1.887317 1_555
Fe21 O40 1.887392 1_555
Fe21 O72 1.944361 1_555
Fe21 O66 1.948244 1_555
Fe22 O44 1.881490 1_555
Fe22 O52 1.893616 1_555
Fe22 O70 1.938224 1_555
Fe22 O76 1.954402 1_555
Fe23 O54 1.883211 1_555
Fe23 O46 1.889478 1_555
Fe23 O68 1.940336 1_565
Fe23 O78 1.950697 1_555
O0 Sr7 2.613854 1_545
O0 Sr24 2.617674 1_455
O0 Sr14 2.670566 1_555
O0 Sr0 2.687655 1_555
O1 Sr8 2.587077 1_545
O1 Sr25 2.614351 1_455
O1 Sr13 2.654203 1_556
O2 Sr26 2.613366 1_455
O2 Sr5 2.617156 1_555
O2 Sr15 2.680074 1_555
O2 Sr1 2.683753 1_555
O3 Sr27 2.594919 1_455
O3 Sr6 2.606327 1_555
O4 Sr11 2.605169 1_545
O4 Sr20 2.617986 1_555
O4 Sr17 2.674003 1_555
O4 Sr2 2.678823 1_555
O5 Sr12 2.585850 1_545
O5 Sr21 2.595533 1_555
O5 Sr16 2.674133 1_556
O6 Sr9 2.610869 1_555
O6 Sr22 2.614658 1_555
O6 Sr19 2.652034 1_555
O6 Sr4 2.688595 1_555
O7 Sr23 2.572919 1_555
O7 Sr10 2.610921 1_555
O7 Sr3 2.641237 1_556
O7 Sr18 2.658661 1_556
O8 Sr13 2.616587 1_555
O8 Sr6 2.705913 1_554
O8 Sr25 2.756356 1_454
O9 Sr14 2.595467 1_555
O9 Sr1 2.603395 1_555
O9 Sr5 2.651797 1_555
O9 Sr24 2.680795 1_455
O10 Sr27 2.708907 1_454
O10 Sr8 2.730835 1_554
O11 Sr15 2.598837 1_555
O11 Sr0 2.608254 1_565
O11 Sr26 2.665293 1_455
O11 Sr7 2.672314 1_555
O12 Sr3 2.622284 1_555
O12 Sr16 2.623511 1_555
O12 Sr21 2.675895 1_554
O12 Sr10 2.700097 1_554
O13 Sr17 2.599818 1_555
O13 Sr4 2.603283 1_555
O13 Sr9 2.649490 1_555
O13 Sr20 2.705299 1_555
O14 Sr18 2.611314 1_555
O14 Sr12 2.660794 1_554
O14 Sr23 2.731091 1_554
O15 Sr19 2.605336 1_555
O15 Sr2 2.615511 1_565
O15 Sr11 2.658908 1_555
O15 Sr22 2.672662 1_555
O16 Sr7 2.637282 1_545
O16 Sr20 2.644136 1_555
O16 Sr0 2.670187 1_555
O16 Sr17 2.673453 1_555
O17 Sr8 2.599016 1_545
O17 Sr21 2.613763 1_555
O17 Sr16 2.630453 1_556
O18 Sr22 2.609188 1_555
O18 Sr5 2.627374 1_555
O18 Sr19 2.669833 1_555
O18 Sr1 2.685314 1_555
O19 Sr6 2.593226 1_555
O19 Sr23 2.628895 1_555
O19 Sr18 2.646541 1_556
O20 Sr11 2.595899 1_545
O20 Sr24 2.621055 1_555
O20 Sr14 2.683864 1_655
O20 Sr2 2.690874 1_555
O21 Sr12 2.585489 1_545
O21 Sr25 2.621643 1_555
O21 Sr13 2.654131 1_656
O22 Sr9 2.615691 1_555
O22 Sr26 2.617316 1_555
O22 Sr4 2.682593 1_555
O22 Sr15 2.689494 1_655
O23 Sr27 2.588444 1_555
O23 Sr10 2.627861 1_555
O23 Sr3 2.663394 1_556
O24 Sr16 2.600203 1_555
O24 Sr6 2.684184 1_554
O24 Sr21 2.755493 1_554
O25 Sr1 2.599881 1_555
O25 Sr17 2.618082 1_555
O25 Sr5 2.643310 1_555
O25 Sr20 2.683774 1_555
O26 Sr18 2.591041 1_555
O26 Sr8 2.668626 1_554
O26 Sr23 2.732982 1_554
O27 Sr0 2.584461 1_565
O27 Sr19 2.584846 1_555
O27 Sr22 2.673868 1_555
O27 Sr7 2.686961 1_555
O28 Sr13 2.596078 1_655
O28 Sr3 2.602128 1_555
O28 Sr25 2.694216 1_554
O28 Sr10 2.694559 1_554
O29 Sr4 2.592411 1_555
O29 Sr14 2.597497 1_655
O29 Sr9 2.650292 1_555
O29 Sr24 2.673397 1_555
O30 Sr12 2.705096 1_554
O30 Sr27 2.734970 1_554
O31 Sr15 2.603188 1_655
O31 Sr2 2.613703 1_565
O31 Sr11 2.640573 1_555
O31 Sr26 2.651923 1_555
O32 Sr13 2.478039 1_555
O33 Sr14 2.613616 1_555
O33 Sr0 2.773173 1_555
O33 Sr2 2.895247 1_455
O33 Sr15 3.150617 1_545
O34 Sr3 3.009026 1_455
O35 Sr15 2.617746 1_555
O35 Sr1 2.782543 1_555
O35 Sr4 2.878926 1_455
O35 Sr14 3.150994 1_555
O36 Sr16 2.497763 1_555
O37 Sr17 2.550695 1_555
O37 Sr2 2.717730 1_555
O37 Sr0 2.965204 1_555
O38 Sr18 2.506840 1_555
O38 Sr3 2.703432 1_555
O39 Sr19 2.600298 1_555
O39 Sr4 2.784010 1_555
O39 Sr1 2.877900 1_555
O39 Sr17 3.148616 1_555
O40 Sr20 2.562287 1_555
O40 Sr9 2.720914 1_555
O40 Sr5 2.969488 1_555
O41 Sr21 2.614688 1_555
O41 Sr10 2.800164 1_555
O41 Sr6 2.871324 1_555
O41 Sr23 3.155833 1_555
O42 Sr22 2.635052 1_555
O42 Sr11 2.815944 1_555
O42 Sr7 2.856471 1_555
O42 Sr20 3.108200 1_565
O43 Sr23 2.597863 1_555
O43 Sr12 2.787327 1_555
O43 Sr8 2.883599 1_555
O43 Sr21 3.155582 1_565
O44 Sr24 2.516667 1_555
O44 Sr5 2.729006 1_655
O44 Sr9 2.951524 1_555
O45 Sr25 2.610307 1_555
O45 Sr6 2.757741 1_655
O45 Sr10 2.885528 1_555
O45 Sr27 3.154454 1_555
O46 Sr26 2.549173 1_555
O46 Sr7 2.724676 1_655
O46 Sr11 2.951204 1_555
O46 Sr24 3.230256 1_565
O47 Sr27 2.603833 1_555
O47 Sr8 2.783216 1_655
O47 Sr12 2.869147 1_555
O47 Sr25 3.160969 1_565
O48 Sr16 2.742823 1_555
O48 Sr13 2.958165 1_555
O49 Sr0 2.622143 1_555
O49 Sr17 2.788848 1_555
O49 Sr14 2.877427 1_555
O49 Sr1 3.142303 1_555
O50 Sr18 2.769135 1_555
O51 Sr1 2.609660 1_555
O51 Sr19 2.784776 1_555
O51 Sr15 2.876182 1_555
O51 Sr0 3.156224 1_565
O52 Sr13 2.750662 1_655
O52 Sr16 2.954927 1_555
O53 Sr2 2.611731 1_555
O53 Sr14 2.770922 1_655
O53 Sr17 2.884718 1_555
O53 Sr4 3.139771 1_555
O54 Sr3 2.477976 1_555
O54 Sr18 2.988583 1_555
O55 Sr4 2.626926 1_555
O55 Sr15 2.791015 1_655
O55 Sr19 2.871684 1_555
O55 Sr2 3.153479 1_565
O56 Sr5 2.571529 1_555
O56 Sr20 2.740230 1_555
O56 Sr24 2.943528 1_455
O56 Sr7 3.205746 1_545
O57 Sr6 2.608282 1_555
O57 Sr21 2.765977 1_555
O57 Sr25 2.890998 1_455
O57 Sr8 3.158732 1_545
O58 Sr7 2.521303 1_555
O58 Sr22 2.711521 1_555
O58 Sr26 2.960530 1_455
O59 Sr8 2.613324 1_555
O59 Sr23 2.778006 1_555
O59 Sr27 2.870855 1_455
O59 Sr6 3.146128 1_555
O60 Sr9 2.527204 1_555
O60 Sr24 2.759763 1_555
O60 Sr20 2.919888 1_555
O61 Sr10 2.552673 1_555
O61 Sr25 2.713503 1_555
O61 Sr21 2.978269 1_555
O62 Sr11 2.534271 1_555
O62 Sr26 2.781179 1_555
O62 Sr22 2.914035 1_555
O63 Sr12 2.581388 1_555
O63 Sr27 2.771170 1_555
O63 Sr23 2.899999 1_555
O63 Sr10 3.153312 1_555
O64 Sr20 2.561485 1_555
O65 Sr21 2.478277 1_555
O65 Sr0 2.482392 1_555
O66 Sr22 2.544940 1_555
O67 Sr23 2.480291 1_555
O67 Sr1 2.485960 1_555
O68 Sr24 2.517860 1_555
O69 Sr25 2.482232 1_555
O69 Sr2 2.485212 1_555
O70 Sr3 2.458935 1_555
O70 Sr26 2.489462 1_555
O71 Sr4 2.481343 1_555
O71 Sr27 2.484531 1_555
O72 Sr13 2.448641 1_555
O72 Sr5 2.472221 1_555
O73 Sr6 2.484286 1_555
O73 Sr14 2.486019 1_555
O74 Sr7 2.497046 1_555
O75 Sr15 2.472272 1_555
O75 Sr8 2.473431 1_555
O76 Sr16 2.459695 1_555
O76 Sr9 2.473077 1_555
O77 Sr10 2.480612 1_555
O77 Sr17 2.487719 1_555
O78 Sr18 2.450426 1_555
O78 Sr11 2.459924 1_555
O79 Sr19 2.463397 1_555
O79 Sr12 2.464659 1_555
