# generated using pymatgen
data_Li7Co5O12
_symmetry_space_group_name_H-M   'P 1'
_cell_length_a   2.86939800
_cell_length_b   8.24680525
_cell_length_c   9.69619468
_cell_angle_alpha   114.67982754
_cell_angle_beta   90.87487027
_cell_angle_gamma   89.71748724
_symmetry_Int_Tables_number   1
_chemical_formula_structural   Li7Co5O12
_chemical_formula_sum   'Li7 Co5 O12'
_cell_volume   208.46147841
_cell_formula_units_Z   1
loop_
 _symmetry_equiv_pos_site_id
 _symmetry_equiv_pos_as_xyz
  1  'x, y, z'
loop_
 _atom_site_type_symbol
 _atom_site_label
 _atom_site_symmetry_multiplicity
 _atom_site_fract_x
 _atom_site_fract_y
 _atom_site_fract_z
 _atom_site_occupancy
  Li  Li0  1  0.00163800  0.18681000  0.33920600  1
  Li  Li1  1  0.51010000  0.66047500  0.82632500  1
  Li  Li2  1  0.48990000  0.33952500  0.17367500  1
  Li  Li3  1  0.99836200  0.81319000  0.66079400  1
  Li  Li4  1  0.00000000  0.50000000  0.00000000  1
  Li  Li5  1  0.50000000  0.00000000  0.50000000  1
  Li  Li6  1  0.50000000  0.50000000  0.50000000  1
  Co  Co0  1  0.99866000  0.34120600  0.66315300  1
  Co  Co1  1  0.00134000  0.65879400  0.33684700  1
  Co  Co2  1  0.50417700  0.83632700  0.17062800  1
  Co  Co3  1  0.00000000  0.00000000  0.00000000  1
  Co  Co4  1  0.49582300  0.16367300  0.82937200  1
  O  O0  1  0.50578000  0.26035700  0.52099500  1
  O  O1  1  0.02589300  0.75829000  0.01304300  1
  O  O2  1  0.99498500  0.43900500  0.33226500  1
  O  O3  1  0.47846700  0.92039100  0.83954200  1
  O  O4  1  0.49582300  0.59697900  0.18787200  1
  O  O5  1  0.01322300  0.10301100  0.67428100  1
  O  O6  1  0.52153300  0.07960900  0.16045800  1
  O  O7  1  0.00501500  0.56099500  0.66773500  1
  O  O8  1  0.97410700  0.24171000  0.98695700  1
  O  O9  1  0.49422000  0.73964300  0.47900500  1
  O  O10  1  0.50417700  0.40302100  0.81212800  1
  O  O11  1  0.98677700  0.89698900  0.32571900  1
loop_
_geom_bond_atom_site_label_1
_geom_bond_atom_site_label_2
_geom_bond_distance
_geom_bond_site_symmetry_2
Li0 O6 2.083943 1_455
Li0 O2 2.108776 1_455
Li0 O0 2.146029 1_555
Li0 O0 2.162065 1_455
Li0 O6 2.190269 1_555
Li0 O11 2.339082 1_445
Li1 O7 2.007047 1_555
Li1 O7 2.013959 1_655
Li1 O10 2.069617 1_555
Li1 O3 2.094802 1_555
Li1 O1 2.169102 1_556
Li1 O1 2.197555 1_656
Li2 O2 2.007047 1_555
Li2 O2 2.013959 1_455
Li2 O4 2.069617 1_555
Li2 O6 2.094802 1_555
Li2 O8 2.169102 1_554
Li2 O8 2.197555 1_454
Li3 O3 2.083943 1_655
Li3 O7 2.108776 1_655
Li3 O9 2.146029 1_555
Li3 O9 2.162065 1_655
Li3 O3 2.190269 1_555
Li3 O5 2.339082 1_665
Li4 O8 2.082070 1_454
Li4 O1 2.082070 1_555
Li4 O4 2.167386 1_555
Li4 O10 2.167386 1_454
Li4 O4 2.214347 1_455
Li4 O10 2.214347 1_554
Li5 O0 2.070519 1_555
Li5 O9 2.070519 1_545
Li5 O11 2.095182 1_545
Li5 O5 2.095182 1_555
Li5 O5 2.117426 1_655
Li5 O11 2.117426 1_445
Li6 O7 2.061567 1_655
Li6 O2 2.061567 1_455
Li6 O9 2.069536 1_555
Li6 O0 2.069536 1_555
Li6 O2 2.072621 1_555
Li6 O7 2.072621 1_555
Co0 O7 1.794637 1_655
Co0 O0 1.878019 1_555
Co0 O0 1.935488 1_655
Co0 O10 1.943922 1_655
Co0 O10 1.949393 1_555
Co0 O5 2.011990 1_655
Co1 O2 1.794637 1_455
Co1 O9 1.878019 1_555
Co1 O9 1.935488 1_455
Co1 O4 1.943922 1_455
Co1 O4 1.949393 1_555
Co1 O11 2.011990 1_455
Co2 O11 1.935007 1_555
Co2 O1 1.937992 1_555
Co2 O11 2.036759 1_455
Co2 O4 2.049594 1_555
Co2 O6 2.050315 1_565
Co2 O1 2.056474 1_655
Co3 O3 1.984909 1_544
Co3 O6 1.984909 1_455
Co3 O3 2.043697 1_444
Co3 O6 2.043697 1_555
Co3 O1 2.050286 1_545
Co3 O8 2.050286 1_454
Co4 O5 1.935007 1_555
Co4 O8 1.937992 1_555
Co4 O5 2.036759 1_655
Co4 O10 2.049594 1_555
Co4 O3 2.050315 1_545
Co4 O8 2.056474 1_455
