# generated using pymatgen
data_Li6V5SbO12
_symmetry_space_group_name_H-M   'P 1'
_cell_length_a   5.43990413
_cell_length_b   9.07269831
_cell_length_c   11.36590269
_cell_angle_alpha   113.53402492
_cell_angle_beta   94.40242063
_cell_angle_gamma   89.99853507
_symmetry_Int_Tables_number   1
_chemical_formula_structural   Li6V5SbO12
_chemical_formula_sum   'Li12 V10 Sb2 O24'
_cell_volume   512.49551764
_cell_formula_units_Z   2
loop_
 _symmetry_equiv_pos_site_id
 _symmetry_equiv_pos_as_xyz
  1  'x, y, z'
loop_
 _atom_site_type_symbol
 _atom_site_label
 _atom_site_symmetry_multiplicity
 _atom_site_fract_x
 _atom_site_fract_y
 _atom_site_fract_z
 _atom_site_occupancy
  Li  Li0  1  0.11556900  0.35724000  0.71244300  1
  Li  Li1  1  0.61538000  0.85750800  0.71273800  1
  Li  Li2  1  0.38466700  0.14467900  0.28754400  1
  Li  Li3  1  0.88476600  0.64464400  0.28720400  1
  Li  Li4  1  0.88913000  0.31086000  0.28589400  1
  Li  Li5  1  0.38947300  0.80984100  0.28616900  1
  Li  Li6  1  0.61108000  0.52511300  0.71411100  1
  Li  Li7  1  0.11068500  0.02373300  0.71380600  1
  Li  Li8  1  0.88588500  0.97387000  0.28474400  1
  Li  Li9  1  0.38635700  0.47389400  0.28422200  1
  Li  Li10  1  0.61431300  0.18914300  0.71521200  1
  Li  Li11  1  0.11378200  0.68974400  0.71577000  1
  V  V0  1  0.75017500  0.24808200  0.50004700  1
  V  V1  1  0.49976200  0.15895400  0.00002100  1
  V  V2  1  0.99988700  0.65898400  0.00011300  1
  V  V3  1  0.49988500  0.84070700  0.00032100  1
  V  V4  1  0.99975100  0.34045000  0.99974100  1
  V  V5  1  0.25007700  0.74681100  0.49996900  1
  V  V6  1  0.75014600  0.58862600  0.49998600  1
  V  V7  1  0.25008600  0.08876800  0.49997400  1
  V  V8  1  0.75008100  0.91414700  0.49997200  1
  V  V9  1  0.25019300  0.41404200  0.49997900  1
  Sb  Sb0  1  0.49969300  0.49985700  0.99962500  1
  Sb  Sb1  1  0.99991900  0.00021200  0.00030600  1
  O  O0  1  0.06444400  0.18654800  0.38573400  1
  O  O1  1  0.56309000  0.68647100  0.38642700  1
  O  O2  1  0.43577200  0.30087500  0.61425200  1
  O  O3  1  0.93710000  0.80010100  0.61352900  1
  O  O4  1  0.16792700  0.44800900  0.89335100  1
  O  O5  1  0.66829700  0.94794400  0.89385800  1
  O  O6  1  0.33169600  0.05465400  0.10669500  1
  O  O7  1  0.83128600  0.55421100  0.10618400  1
  O  O8  1  0.85604500  0.21316200  0.10224900  1
  O  O9  1  0.35606000  0.71275800  0.10224800  1
  O  O10  1  0.64366500  0.61090600  0.89779400  1
  O  O11  1  0.14361800  0.11046900  0.89777800  1
  O  O12  1  0.85733700  0.88781300  0.10169300  1
  O  O13  1  0.35700700  0.38770000  0.10112300  1
  O  O14  1  0.64230800  0.28607100  0.89832100  1
  O  O15  1  0.14264600  0.78647400  0.89892700  1
  O  O16  1  0.92099800  0.47097800  0.60874600  1
  O  O17  1  0.42187100  0.97039600  0.60773800  1
  O  O18  1  0.57935500  0.36218500  0.39125700  1
  O  O19  1  0.07833600  0.86259000  0.39219700  1
  O  O20  1  0.93200800  0.14617900  0.61211200  1
  O  O21  1  0.43365700  0.64581000  0.61203800  1
  O  O22  1  0.56819800  0.03407900  0.38791900  1
  O  O23  1  0.06658200  0.53370500  0.38792100  1
loop_
_geom_bond_atom_site_label_1
_geom_bond_atom_site_label_2
_geom_bond_distance
_geom_bond_site_symmetry_2
Li0 O4 1.882829 1_555
Li0 O20 2.011411 1_455
Li0 O16 2.086613 1_455
Li0 O2 2.093750 1_555
Li1 O5 1.885219 1_555
Li1 O21 2.011734 1_555
Li1 O17 2.089148 1_555
Li1 O3 2.107038 1_555
Li2 O6 1.882452 1_555
Li2 O22 2.011097 1_555
Li2 O18 2.087142 1_555
Li2 O0 2.093842 1_555
Li3 O7 1.884402 1_555
Li3 O23 2.011966 1_655
Li3 O19 2.089406 1_655
Li3 O1 2.106921 1_555
Li4 O8 1.907797 1_555
Li4 O23 2.078510 1_655
Li4 O0 2.079697 1_655
Li4 O18 2.086891 1_555
Li5 O9 1.910501 1_555
Li5 O1 2.072833 1_555
Li5 O22 2.090513 1_565
Li5 O19 2.097279 1_555
Li6 O10 1.908230 1_555
Li6 O21 2.078270 1_555
Li6 O2 2.080038 1_555
Li6 O16 2.087568 1_555
Li7 O11 1.911049 1_555
Li7 O3 2.072550 1_445
Li7 O20 2.089918 1_455
Li7 O17 2.097754 1_545
Li8 O12 1.901453 1_555
Li8 O0 2.011083 1_665
Li8 O19 2.096487 1_655
Li8 O22 2.111804 1_565
Li9 O13 1.901920 1_555
Li9 O1 2.008207 1_555
Li9 O18 2.097128 1_555
Li9 O23 2.124527 1_555
Li10 O14 1.902024 1_555
Li10 O2 2.011338 1_555
Li10 O17 2.096329 1_545
Li10 O20 2.111397 1_555
Li11 O15 1.902460 1_555
Li11 O3 2.008550 1_455
Li11 O16 2.096455 1_455
Li11 O21 2.125202 1_555
O0 V7 2.052150 1_555
O0 V9 2.150709 1_555
O0 V0 2.164298 1_455
O1 V6 2.050053 1_555
O1 V8 2.153317 1_555
O1 V5 2.153513 1_555
O2 V7 2.052617 1_555
O2 V9 2.150312 1_555
O2 V0 2.164213 1_555
O3 V6 2.049934 1_555
O3 V8 2.153217 1_555
O3 V5 2.153462 1_655
O4 Sb0 2.036940 1_555
O4 V2 2.070566 1_456
O4 V4 2.088945 1_455
O5 Sb1 2.037119 1_566
O5 V1 2.070400 1_566
O5 V3 2.088190 1_556
O6 Sb1 2.037549 1_455
O6 V1 2.070702 1_555
O6 V3 2.088596 1_545
O7 Sb0 2.037534 1_554
O7 V2 2.069598 1_555
O7 V4 2.088333 1_554
O8 Sb1 2.009791 1_555
O8 V4 2.125235 1_554
O8 V1 2.132207 1_555
O9 Sb0 2.010633 1_554
O9 V3 2.124844 1_555
O9 V2 2.131234 1_455
O10 Sb0 2.009599 1_555
O10 V3 2.125134 1_556
O10 V2 2.132323 1_556
O11 Sb1 2.010103 1_456
O11 V4 2.125400 1_455
O11 V1 2.131570 1_556
O12 Sb1 2.011254 1_565
O12 V2 2.113690 1_555
O12 V3 2.134040 1_555
O13 Sb0 2.010898 1_554
O13 V1 2.112587 1_555
O13 V4 2.133137 1_454
O14 Sb0 2.010801 1_555
O14 V1 2.114185 1_556
O14 V4 2.134215 1_555
O15 Sb1 2.010928 1_466
O15 V2 2.112619 1_456
O15 V3 2.133118 1_556
O16 V0 2.075593 1_555
O16 V6 2.099637 1_555
O16 V9 2.198157 1_655
O17 V5 2.080557 1_555
O17 V7 2.097994 1_565
O17 V8 2.187461 1_555
O18 V0 2.076027 1_555
O18 V6 2.099384 1_555
O18 V9 2.197730 1_555
O19 V5 2.080498 1_555
O19 V7 2.097942 1_565
O19 V8 2.187728 1_455
O20 V0 2.050000 1_555
O20 V7 2.167518 1_655
O20 V8 2.167801 1_545
O21 V5 2.048483 1_555
O21 V6 2.159679 1_555
O21 V9 2.169342 1_555
O22 V0 2.050435 1_555
O22 V7 2.167153 1_555
O22 V8 2.167515 1_545
O23 V5 2.048184 1_555
O23 V6 2.159519 1_455
O23 V9 2.169648 1_555
