# generated using pymatgen
data_NaNd(Si2O5)3
_symmetry_space_group_name_H-M   'P 1'
_cell_length_a   16.12807626
_cell_length_b   16.12807626
_cell_length_c   7.16269600
_cell_angle_alpha   90.00000000
_cell_angle_beta   90.00000000
_cell_angle_gamma   153.00157562
_symmetry_Int_Tables_number   1
_chemical_formula_structural   NaNd(Si2O5)3
_chemical_formula_sum   'Na2 Nd2 Si12 O30'
_cell_volume   845.79474134
_cell_formula_units_Z   2
loop_
 _symmetry_equiv_pos_site_id
 _symmetry_equiv_pos_as_xyz
  1  'x, y, z'
loop_
 _atom_site_type_symbol
 _atom_site_label
 _atom_site_symmetry_multiplicity
 _atom_site_fract_x
 _atom_site_fract_y
 _atom_site_fract_z
 _atom_site_occupancy
  Na  Na0  1  0.62334800  0.37665200  0.02821600  1
  Na  Na1  1  0.37665200  0.62334800  0.02821600  1
  Nd  Nd0  1  0.13017700  0.86982300  0.99756400  1
  Nd  Nd1  1  0.86982300  0.13017700  0.99756400  1
  Si  Si0  1  0.08332700  0.91667300  0.49752000  1
  Si  Si1  1  0.91667300  0.08332700  0.49752000  1
  Si  Si2  1  0.34054700  0.24140000  0.75527400  1
  Si  Si3  1  0.65945300  0.75860000  0.75527400  1
  Si  Si4  1  0.24140000  0.34054700  0.75527400  1
  Si  Si5  1  0.75860000  0.65945300  0.75527400  1
  Si  Si6  1  0.18165500  0.81834500  0.59343800  1
  Si  Si7  1  0.81834500  0.18165500  0.59343800  1
  Si  Si8  1  0.49589400  0.09057800  0.28922100  1
  Si  Si9  1  0.50410600  0.90942200  0.28922100  1
  Si  Si10  1  0.09057800  0.49589400  0.28922100  1
  Si  Si11  1  0.90942200  0.50410600  0.28922100  1
  O  O0  1  0.12899200  0.87100800  0.61592100  1
  O  O1  1  0.87100800  0.12899200  0.61592100  1
  O  O2  1  0.23437500  0.11944600  0.56262100  1
  O  O3  1  0.76562500  0.88055400  0.56262100  1
  O  O4  1  0.11944600  0.23437500  0.56262100  1
  O  O5  1  0.88055400  0.76562500  0.56262100  1
  O  O6  1  0.25914400  0.25914400  0.82114000  1
  O  O7  1  0.74085600  0.74085600  0.82114000  1
  O  O8  1  0.32380500  0.15574700  0.91385000  1
  O  O9  1  0.67619500  0.84425300  0.91385000  1
  O  O10  1  0.15574700  0.32380500  0.91385000  1
  O  O11  1  0.84425300  0.67619500  0.91385000  1
  O  O12  1  0.55541300  0.44458700  0.69586500  1
  O  O13  1  0.44458700  0.55541300  0.69586500  1
  O  O14  1  0.41406000  0.08243600  0.13819400  1
  O  O15  1  0.58594000  0.91756400  0.13819400  1
  O  O16  1  0.08243600  0.41406000  0.13819400  1
  O  O17  1  0.91756400  0.58594000  0.13819400  1
  O  O18  1  0.37335800  0.98109500  0.48145300  1
  O  O19  1  0.62664200  0.01890500  0.48145300  1
  O  O20  1  0.98109500  0.37335800  0.48145300  1
  O  O21  1  0.01890500  0.62664200  0.48145300  1
  O  O22  1  0.50000000  0.00000000  0.20601500  1
  O  O23  1  0.00000000  0.50000000  0.20601500  1
  O  O24  1  0.70058900  0.29941100  0.35631900  1
  O  O25  1  0.29941100  0.70058900  0.35631900  1
  O  O26  1  0.09287500  0.90712500  0.27652500  1
  O  O27  1  0.90712500  0.09287500  0.27652500  1
  O  O28  1  0.19648400  0.80351600  0.80975300  1
  O  O29  1  0.80351600  0.19648400  0.80975300  1
loop_
_geom_bond_atom_site_label_1
_geom_bond_atom_site_label_2
_geom_bond_distance
_geom_bond_site_symmetry_2
Na0 O14 2.446985 1_555
Na0 O17 2.446985 1_555
Na0 O11 2.455834 1_554
Na0 O8 2.455834 1_554
Na1 O16 2.446985 1_555
Na1 O15 2.446985 1_555
Na1 O9 2.455834 1_554
Na1 O10 2.455834 1_554
Nd0 O26 2.315449 1_556
Nd0 O11 2.390429 1_455
Nd0 O8 2.390429 1_565
Nd0 O17 2.399547 1_456
Nd0 O14 2.399547 1_566
Nd0 O28 2.476871 1_555
Nd0 O0 2.733845 1_555
Nd1 O27 2.315449 1_556
Nd1 O9 2.390429 1_545
Nd1 O10 2.390429 1_655
Nd1 O16 2.399547 1_656
Nd1 O15 2.399547 1_546
Nd1 O29 2.476871 1_555
Nd1 O1 2.733845 1_555
O0 Si6 1.659607 1_555
O0 Si0 1.664530 1_555
O1 Si7 1.659607 1_555
O1 Si1 1.664530 1_555
O2 Si0 1.627836 1_545
O2 Si2 1.644094 1_555
O3 Si1 1.627836 1_565
O3 Si3 1.644094 1_555
O4 Si1 1.627836 1_455
O4 Si4 1.644094 1_555
O5 Si0 1.627836 1_655
O5 Si5 1.644094 1_555
O6 Si4 1.642451 1_555
O6 Si2 1.642451 1_555
O7 Si3 1.642451 1_555
O7 Si5 1.642451 1_555
O8 Si2 1.614506 1_555
O9 Si3 1.614506 1_555
O10 Si4 1.614506 1_555
O11 Si5 1.614506 1_555
O12 Si5 1.640655 1_555
O12 Si2 1.640655 1_555
O13 Si3 1.640655 1_555
O13 Si4 1.640655 1_555
O14 Si8 1.618808 1_555
O15 Si9 1.618808 1_555
O16 Si10 1.618808 1_555
O17 Si11 1.618808 1_555
O18 Si6 1.621822 1_555
O18 Si8 1.643402 1_565
O19 Si7 1.621822 1_555
O19 Si9 1.643402 1_545
O20 Si7 1.621822 1_555
O20 Si10 1.643402 1_655
O21 Si6 1.621822 1_555
O21 Si11 1.643402 1_455
O22 Si8 1.632805 1_555
O22 Si9 1.632805 1_545
O23 Si10 1.632805 1_555
O23 Si11 1.632805 1_455
O24 Si11 1.630639 1_555
O24 Si8 1.630639 1_555
O25 Si10 1.630639 1_555
O25 Si9 1.630639 1_555
O26 Si0 1.611000 1_555
O27 Si1 1.611000 1_555
O28 Si6 1.617704 1_555
O29 Si7 1.617704 1_555
