# generated using pymatgen
data_UGaCu
_symmetry_space_group_name_H-M   'P 1'
_cell_length_a   4.64177469
_cell_length_b   4.64177469
_cell_length_c   5.67322100
_cell_angle_alpha   90.00000000
_cell_angle_beta   90.00000000
_cell_angle_gamma   120.00000984
_symmetry_Int_Tables_number   1
_chemical_formula_structural   UGaCu
_chemical_formula_sum   'U2 Ga2 Cu2'
_cell_volume   105.85915008
_cell_formula_units_Z   2
loop_
 _symmetry_equiv_pos_site_id
 _symmetry_equiv_pos_as_xyz
  1  'x, y, z'
loop_
 _atom_site_type_symbol
 _atom_site_label
 _atom_site_symmetry_multiplicity
 _atom_site_fract_x
 _atom_site_fract_y
 _atom_site_fract_z
 _atom_site_occupancy
  U  U0  1  0.00000000  0.00000000  0.00436100  1
  U  U1  1  0.00000000  0.00000000  0.50436100  1
  Ga  Ga0  1  0.66666700  0.33333300  0.25966300  1
  Ga  Ga1  1  0.33333300  0.66666700  0.75966300  1
  Cu  Cu0  1  0.66666700  0.33333300  0.74497600  1
  Cu  Cu1  1  0.33333300  0.66666700  0.24497600  1
loop_
_geom_bond_atom_site_label_1
_geom_bond_atom_site_label_2
_geom_bond_distance
_geom_bond_site_symmetry_2
U0 U1 2.836610 1_555
U0 U1 2.836610 1_554
Ga0 U1 3.018142 1_655
Ga0 U1 3.018145 1_555
Ga0 U1 3.018145 1_665
Ga0 U0 3.046281 1_655
Ga0 U0 3.046284 1_555
Ga0 U0 3.046284 1_665
Ga1 U0 3.018142 1_566
Ga1 U0 3.018145 1_666
Ga1 U0 3.018145 1_556
Ga1 U1 3.046281 1_565
Ga1 U1 3.046284 1_665
Ga1 U1 3.046284 1_555
Cu0 Ga1 2.681222 1_655
Cu0 Ga1 2.681222 1_545
Cu0 Ga1 2.681230 1_555
Cu0 Ga0 2.753288 1_555
Cu0 Ga0 2.919933 1_556
Cu0 U1 3.007558 1_655
Cu0 U1 3.007561 1_555
Cu0 U1 3.007561 1_665
Cu0 U0 3.057362 1_656
Cu0 U0 3.057366 1_556
Cu0 U0 3.057366 1_666
Cu1 Ga0 2.681222 1_455
Cu1 Ga0 2.681222 1_565
Cu1 Ga0 2.681230 1_555
Cu1 Ga1 2.753288 1_554
Cu1 Ga1 2.919933 1_555
Cu1 U0 3.007558 1_565
Cu1 U0 3.007561 1_555
Cu1 U0 3.007561 1_665
Cu1 U1 3.057362 1_565
Cu1 U1 3.057366 1_555
Cu1 U1 3.057366 1_665
