# generated using pymatgen
data_YbMn28
_symmetry_space_group_name_H-M   'P 1'
_cell_length_a   7.54341728
_cell_length_b   7.54341728
_cell_length_c   7.54341728
_cell_angle_alpha   109.47122063
_cell_angle_beta   109.47122063
_cell_angle_gamma   109.47122063
_symmetry_Int_Tables_number   1
_chemical_formula_structural   YbMn28
_chemical_formula_sum   'Yb1 Mn28'
_cell_volume   330.43231037
_cell_formula_units_Z   1
loop_
 _symmetry_equiv_pos_site_id
 _symmetry_equiv_pos_as_xyz
  1  'x, y, z'
loop_
 _atom_site_type_symbol
 _atom_site_label
 _atom_site_symmetry_multiplicity
 _atom_site_fract_x
 _atom_site_fract_y
 _atom_site_fract_z
 _atom_site_occupancy
  Yb  Yb0  1  0.00000000  0.00000000  0.00000000  1
  Mn  Mn0  1  0.62601600  0.00000000  0.00000000  1
  Mn  Mn1  1  0.00000000  0.62601600  0.00000000  1
  Mn  Mn2  1  0.00000000  0.00000000  0.62601600  1
  Mn  Mn3  1  0.37398400  0.37398400  0.37398400  1
  Mn  Mn4  1  0.39270400  0.67825300  0.00000000  1
  Mn  Mn5  1  0.71445100  0.32174700  0.32174700  1
  Mn  Mn6  1  0.39270400  0.00000000  0.67825300  1
  Mn  Mn7  1  0.67825300  0.39270400  0.00000000  1
  Mn  Mn8  1  0.00000000  0.39270400  0.67825300  1
  Mn  Mn9  1  0.32174700  0.71445100  0.32174700  1
  Mn  Mn10  1  0.32174700  0.32174700  0.71445100  1
  Mn  Mn11  1  0.00000000  0.67825300  0.39270400  1
  Mn  Mn12  1  0.67825300  0.00000000  0.39270400  1
  Mn  Mn13  1  0.60729600  0.60729600  0.28554900  1
  Mn  Mn14  1  0.28554900  0.60729600  0.60729600  1
  Mn  Mn15  1  0.60729600  0.28554900  0.60729600  1
  Mn  Mn16  1  0.37741500  0.19863200  0.00000000  1
  Mn  Mn17  1  0.17878300  0.80136800  0.80136800  1
  Mn  Mn18  1  0.37741500  0.00000000  0.19863200  1
  Mn  Mn19  1  0.19863200  0.37741500  0.00000000  1
  Mn  Mn20  1  0.00000000  0.37741500  0.19863200  1
  Mn  Mn21  1  0.80136800  0.17878300  0.80136800  1
  Mn  Mn22  1  0.80136800  0.80136800  0.17878300  1
  Mn  Mn23  1  0.00000000  0.19863200  0.37741500  1
  Mn  Mn24  1  0.19863200  0.00000000  0.37741500  1
  Mn  Mn25  1  0.62258500  0.62258500  0.82121700  1
  Mn  Mn26  1  0.82121700  0.62258500  0.62258500  1
  Mn  Mn27  1  0.62258500  0.82121700  0.62258500  1
loop_
_geom_bond_atom_site_label_1
_geom_bond_atom_site_label_2
_geom_bond_distance
_geom_bond_site_symmetry_2
Mn0 Mn5 2.477994 1_555
Mn0 Mn6 2.477994 1_554
Mn0 Mn4 2.477994 1_545
Mn0 Mn25 2.700516 1_544
Mn0 Mn23 2.700516 1_655
Mn0 Mn27 2.700516 1_544
Mn0 Mn20 2.700516 1_655
Mn0 Mn21 2.700516 1_554
Mn0 Mn22 2.700516 1_545
Mn0 Mn16 2.763169 1_555
Mn0 Mn17 2.763169 1_544
Mn0 Mn18 2.763169 1_555
Mn0 Yb0 2.821117 1_655
Mn0 Mn7 2.855254 1_555
Mn0 Mn12 2.855254 1_555
Mn0 Mn14 2.855254 1_544
Mn1 Mn9 2.477994 1_555
Mn1 Mn7 2.477994 1_455
Mn1 Mn8 2.477994 1_554
Mn1 Mn25 2.700516 1_454
Mn1 Mn18 2.700516 1_565
Mn1 Mn26 2.700516 1_454
Mn1 Mn22 2.700516 1_455
Mn1 Mn24 2.700516 1_565
Mn1 Mn17 2.700516 1_554
Mn1 Mn19 2.763169 1_555
Mn1 Mn21 2.763169 1_454
Mn1 Mn20 2.763169 1_555
Mn1 Yb0 2.821117 1_565
Mn1 Mn4 2.855254 1_555
Mn1 Mn11 2.855254 1_555
Mn1 Mn15 2.855254 1_454
Mn2 Mn26 2.700516 1_445
Mn2 Mn27 2.700516 1_445
Mn2 Mn21 2.700516 1_455
Mn2 Mn22 2.763169 1_445
Mn2 Mn24 2.763169 1_555
Mn2 Mn23 2.763169 1_555
Mn2 Yb0 2.821117 1_556
Mn2 Mn6 2.855254 1_555
Mn2 Mn8 2.855254 1_555
Mn3 Yb0 2.821117 1_555
Mn3 Mn5 2.855254 1_555
Mn3 Mn9 2.855254 1_555
Mn4 Mn8 2.602582 1_554
Mn4 Mn9 2.602582 1_555
Mn5 Mn8 2.562885 1_655
Mn5 Mn7 2.602582 1_555
Mn6 Mn9 2.562885 1_545
Mn6 Mn7 2.602582 1_556
Mn10 Mn25 2.253508 1_555
Mn10 Mn24 2.454886 1_555
Mn10 Mn23 2.454886 1_555
Mn10 Mn2 2.477994 1_555
Mn10 Mn7 2.562885 1_556
Mn10 Mn4 2.562885 1_556
Mn10 Mn16 2.582484 1_556
Mn10 Mn19 2.582484 1_556
Mn10 Mn14 2.602582 1_555
Mn10 Mn15 2.602582 1_555
Mn10 Mn8 2.602582 1_555
Mn10 Mn6 2.602582 1_555
Mn10 Mn3 2.855254 1_555
Mn11 Mn20 2.253508 1_555
Mn11 Mn24 2.454886 1_565
Mn11 Mn22 2.454886 1_455
Mn11 Mn2 2.477994 1_565
Mn11 Mn5 2.562885 1_455
Mn11 Mn14 2.562885 1_555
Mn11 Mn17 2.582484 1_555
Mn11 Mn26 2.582484 1_455
Mn11 Mn7 2.602582 1_455
Mn11 Mn6 2.602582 1_565
Mn11 Mn9 2.602582 1_555
Mn11 Mn13 2.602582 1_455
Mn12 Mn18 2.253508 1_555
Mn12 Mn23 2.454886 1_655
Mn12 Mn22 2.454886 1_545
Mn12 Mn2 2.477994 1_655
Mn12 Mn9 2.562885 1_545
Mn12 Mn15 2.562885 1_555
Mn12 Mn21 2.582484 1_555
Mn12 Mn27 2.582484 1_545
Mn12 Mn8 2.602582 1_655
Mn12 Mn4 2.602582 1_545
Mn12 Mn5 2.602582 1_555
Mn12 Mn13 2.602582 1_545
Mn13 Mn22 2.253508 1_555
Mn13 Mn26 2.454886 1_555
Mn13 Mn27 2.454886 1_555
Mn13 Mn3 2.477994 1_555
Mn13 Mn4 2.562885 1_555
Mn13 Mn7 2.562885 1_555
Mn13 Mn19 2.582484 1_555
Mn13 Mn16 2.582484 1_555
Mn13 Mn9 2.602582 1_555
Mn13 Mn5 2.602582 1_555
Mn13 Mn2 2.855254 1_665
Mn14 Mn17 2.253508 1_555
Mn14 Mn25 2.454886 1_555
Mn14 Mn27 2.454886 1_555
Mn14 Mn3 2.477994 1_555
Mn14 Mn8 2.562885 1_555
Mn14 Mn23 2.582484 1_555
Mn14 Mn20 2.582484 1_555
Mn14 Mn9 2.602582 1_555
Mn14 Mn6 2.602582 1_565
Mn14 Mn4 2.602582 1_556
Mn15 Mn21 2.253508 1_555
Mn15 Mn26 2.454886 1_555
Mn15 Mn25 2.454886 1_555
Mn15 Mn3 2.477994 1_555
Mn15 Mn6 2.562885 1_555
Mn15 Mn24 2.582484 1_555
Mn15 Mn18 2.582484 1_555
Mn15 Mn5 2.602582 1_555
Mn15 Mn8 2.602582 1_655
Mn15 Mn7 2.602582 1_556
Mn16 Mn19 2.202311 1_555
Mn16 Mn7 2.253508 1_555
Mn16 Mn18 2.446818 1_555
Mn16 Mn17 2.446818 1_544
Mn16 Mn5 2.454886 1_555
Mn16 Mn6 2.454886 1_554
Mn16 Mn3 2.700516 1_555
Mn16 Mn2 2.700516 1_554
Mn16 Yb0 2.739818 1_555
Mn17 Mn26 2.202311 1_455
Mn17 Mn18 2.446818 1_566
Mn17 Mn4 2.454886 1_556
Mn17 Mn6 2.454886 1_565
Mn17 Mn8 2.582484 1_555
Mn17 Mn2 2.700516 1_565
Mn17 Yb0 2.739818 1_566
Mn18 Mn24 2.202311 1_555
Mn18 Mn5 2.454886 1_555
Mn18 Mn4 2.454886 1_545
Mn18 Mn9 2.582484 1_545
Mn18 Mn3 2.700516 1_555
Mn18 Yb0 2.739818 1_555
Mn19 Mn4 2.253508 1_555
Mn19 Mn20 2.446818 1_555
Mn19 Mn21 2.446818 1_454
Mn19 Mn9 2.454886 1_555
Mn19 Mn8 2.454886 1_554
Mn19 Mn3 2.700516 1_555
Mn19 Mn2 2.700516 1_554
Mn19 Yb0 2.739818 1_555
Mn20 Mn23 2.202311 1_555
Mn20 Mn21 2.446818 1_454
Mn20 Mn9 2.454886 1_555
Mn20 Mn7 2.454886 1_455
Mn20 Mn5 2.582484 1_455
Mn20 Mn3 2.700516 1_555
Mn20 Yb0 2.739818 1_555
Mn21 Mn27 2.202311 1_545
Mn21 Mn8 2.454886 1_655
Mn21 Mn7 2.454886 1_556
Mn21 Mn6 2.582484 1_555
Mn21 Yb0 2.739818 1_656
Mn22 Mn25 2.202311 1_554
Mn22 Mn24 2.446818 1_665
Mn22 Mn23 2.446818 1_665
Mn22 Mn7 2.582484 1_555
Mn22 Mn4 2.582484 1_555
Mn22 Yb0 2.739818 1_665
Mn23 Mn8 2.253508 1_555
Mn23 Mn24 2.446818 1_555
Mn23 Mn5 2.582484 1_455
Mn23 Mn3 2.700516 1_555
Mn23 Yb0 2.739818 1_555
Mn24 Mn6 2.253508 1_555
Mn24 Mn9 2.582484 1_545
Mn24 Mn3 2.700516 1_555
Mn24 Yb0 2.739818 1_555
Mn25 Mn26 2.446818 1_555
Mn25 Mn27 2.446818 1_555
Mn25 Mn4 2.582484 1_556
Mn25 Mn7 2.582484 1_556
Mn25 Yb0 2.739818 1_666
Mn25 Mn3 2.763169 1_555
Mn26 Mn5 2.253508 1_555
Mn26 Mn27 2.446818 1_555
Mn26 Mn8 2.582484 1_655
Mn26 Yb0 2.739818 1_666
Mn26 Mn3 2.763169 1_555
Mn27 Mn9 2.253508 1_555
Mn27 Mn6 2.582484 1_565
Mn27 Yb0 2.739818 1_666
Mn27 Mn3 2.763169 1_555
