# generated using pymatgen
data_IrS2
_symmetry_space_group_name_H-M   'P 1'
_cell_length_a   5.74574700
_cell_length_b   5.74574700
_cell_length_c   5.74574700
_cell_angle_alpha   90.00000000
_cell_angle_beta   90.00000000
_cell_angle_gamma   90.00000000
_symmetry_Int_Tables_number   1
_chemical_formula_structural   IrS2
_chemical_formula_sum   'Ir4 S8'
_cell_volume   189.68784250
_cell_formula_units_Z   4
loop_
 _symmetry_equiv_pos_site_id
 _symmetry_equiv_pos_as_xyz
  1  'x, y, z'
loop_
 _atom_site_type_symbol
 _atom_site_label
 _atom_site_symmetry_multiplicity
 _atom_site_fract_x
 _atom_site_fract_y
 _atom_site_fract_z
 _atom_site_occupancy
  Ir  Ir0  1  0.50000000  0.50000000  0.00000000  1
  Ir  Ir1  1  0.50000000  0.00000000  0.50000000  1
  Ir  Ir2  1  0.00000000  0.50000000  0.50000000  1
  Ir  Ir3  1  0.00000000  0.00000000  0.00000000  1
  S  S0  1  0.13258800  0.86741200  0.36741200  1
  S  S1  1  0.86741200  0.36741200  0.13258800  1
  S  S2  1  0.36741200  0.13258800  0.86741200  1
  S  S3  1  0.63258800  0.63258800  0.63258800  1
  S  S4  1  0.86741200  0.13258800  0.63258800  1
  S  S5  1  0.13258800  0.63258800  0.86741200  1
  S  S6  1  0.63258800  0.86741200  0.13258800  1
  S  S7  1  0.36741200  0.36741200  0.36741200  1
loop_
_geom_bond_atom_site_label_1
_geom_bond_atom_site_label_2
_geom_bond_distance
_geom_bond_site_symmetry_2
Ir0 S2 2.370082 1_554
Ir0 S7 2.370082 1_555
Ir0 S1 2.370082 1_555
Ir0 S5 2.370082 1_554
Ir0 S6 2.370082 1_555
Ir0 S3 2.370082 1_554
Ir1 S2 2.370082 1_555
Ir1 S7 2.370082 1_555
Ir1 S4 2.370082 1_555
Ir1 S6 2.370082 1_545
Ir1 S3 2.370082 1_545
Ir1 S0 2.370082 1_545
Ir2 S1 2.370082 1_455
Ir2 S0 2.370082 1_555
Ir2 S7 2.370082 1_555
Ir2 S4 2.370082 1_455
Ir2 S3 2.370082 1_455
Ir2 S5 2.370082 1_555
Ir3 S5 2.370082 1_544
Ir3 S4 2.370082 1_454
Ir3 S1 2.370082 1_455
Ir3 S0 2.370082 1_545
Ir3 S2 2.370082 1_554
Ir3 S6 2.370082 1_445
