# generated using pymatgen
data_Ca5Zr2N6
_symmetry_space_group_name_H-M   'P 1'
_cell_length_a   6.44897755
_cell_length_b   6.94538065
_cell_length_c   13.46294211
_cell_angle_alpha   89.99999889
_cell_angle_beta   105.99015485
_cell_angle_gamma   122.58069701
_symmetry_Int_Tables_number   1
_chemical_formula_structural   Ca5Zr2N6
_chemical_formula_sum   'Ca10 Zr4 N12'
_cell_volume   480.19964690
_cell_formula_units_Z   2
loop_
 _symmetry_equiv_pos_site_id
 _symmetry_equiv_pos_as_xyz
  1  'x, y, z'
loop_
 _atom_site_type_symbol
 _atom_site_label
 _atom_site_symmetry_multiplicity
 _atom_site_fract_x
 _atom_site_fract_y
 _atom_site_fract_z
 _atom_site_occupancy
  Ca  Ca0  1  0.04235500  0.77591500  0.02888500  1
  Ca  Ca1  1  0.95764500  0.73355900  0.47111500  1
  Ca  Ca2  1  0.95764500  0.22408500  0.97111500  1
  Ca  Ca3  1  0.04235500  0.26644100  0.52888500  1
  Ca  Ca4  1  0.33296000  0.00403800  0.71318700  1
  Ca  Ca5  1  0.66704000  0.67107900  0.78681300  1
  Ca  Ca6  1  0.66704000  0.99596200  0.28681300  1
  Ca  Ca7  1  0.33296000  0.32892100  0.21318700  1
  Ca  Ca8  1  0.00000000  0.41539100  0.75000000  1
  Ca  Ca9  1  0.00000000  0.58460900  0.25000000  1
  Zr  Zr0  1  0.55272800  0.83793900  0.56312000  1
  Zr  Zr1  1  0.44727200  0.28521100  0.93688000  1
  Zr  Zr2  1  0.44727200  0.16206100  0.43688000  1
  Zr  Zr3  1  0.55272800  0.71478900  0.06312000  1
  N  N0  1  0.91976200  0.90551100  0.60720800  1
  N  N1  1  0.08023800  0.98574900  0.89279200  1
  N  N2  1  0.08023800  0.09448900  0.39279200  1
  N  N3  1  0.91976200  0.01425100  0.10720800  1
  N  N4  1  0.29958500  0.63958000  0.64673000  1
  N  N5  1  0.70041500  0.33999400  0.85327000  1
  N  N6  1  0.70041500  0.36042000  0.35327000  1
  N  N7  1  0.29958500  0.66000600  0.14673000  1
  N  N8  1  0.61981200  0.16368700  0.59736100  1
  N  N9  1  0.38018800  0.54387400  0.90263900  1
  N  N10  1  0.38018800  0.83631300  0.40263900  1
  N  N11  1  0.61981200  0.45612600  0.09736100  1
loop_
_geom_bond_atom_site_label_1
_geom_bond_atom_site_label_2
_geom_bond_distance
_geom_bond_site_symmetry_2
Ca0 N1 2.324607 1_554
Ca0 N7 2.430075 1_555
Ca0 N3 2.519087 1_465
Ca0 N11 2.841529 1_455
Ca0 N5 3.091350 1_454
Ca1 N0 2.324611 1_555
Ca1 N6 2.430075 1_555
Ca1 N2 2.519093 1_665
Ca1 N10 2.841529 1_655
Ca1 N4 3.091341 1_655
Ca2 N3 2.324607 1_556
Ca2 N5 2.430075 1_555
Ca2 N1 2.519087 1_645
Ca2 N9 2.841529 1_655
Ca2 N7 3.091350 1_656
Ca3 N2 2.324611 1_555
Ca3 N4 2.430075 1_555
Ca3 N0 2.519093 1_445
Ca3 N8 2.841529 1_455
Ca3 N6 3.091341 1_455
Ca4 N0 2.355025 1_445
Ca4 N5 2.489890 1_555
Ca4 N8 2.542324 1_555
Ca4 N4 2.561532 1_545
Ca5 N1 2.355023 1_655
Ca5 N4 2.489890 1_555
Ca5 N9 2.542323 1_555
Ca5 N5 2.561545 1_555
Ca6 N2 2.355025 1_665
Ca6 N7 2.489890 1_555
Ca6 N10 2.542324 1_555
Ca6 N6 2.561532 1_565
Ca7 N3 2.355023 1_455
Ca7 N6 2.489890 1_555
Ca7 N11 2.542323 1_555
Ca7 N7 2.561545 1_555
Ca8 N8 2.428668 1_455
Ca8 N9 2.428669 1_555
Ca8 N5 2.515988 1_455
Ca8 N4 2.515990 1_555
Ca9 N10 2.428668 1_555
Ca9 N11 2.428669 1_455
Ca9 N7 2.515988 1_555
Ca9 N6 2.515990 1_455
N0 Zr0 2.050563 1_555
N1 Zr1 2.050563 1_565
N2 Zr2 2.050563 1_555
N3 Zr3 2.050563 1_545
N4 Zr0 2.102470 1_555
N5 Zr1 2.102472 1_555
N6 Zr2 2.102470 1_555
N7 Zr3 2.102472 1_555
N8 Zr0 2.086700 1_545
N8 Zr2 2.137328 1_555
N9 Zr1 2.086694 1_555
N9 Zr3 2.137330 1_556
N10 Zr2 2.086700 1_565
N10 Zr0 2.137328 1_555
N11 Zr3 2.086694 1_555
N11 Zr1 2.137330 1_554
