# generated using pymatgen
data_Na2Cu(SeO5)2
_symmetry_space_group_name_H-M   'P 1'
_cell_length_a   5.60407500
_cell_length_b   6.55063555
_cell_length_c   7.17977116
_cell_angle_alpha   102.30674413
_cell_angle_beta   103.64314486
_cell_angle_gamma   113.20032473
_symmetry_Int_Tables_number   1
_chemical_formula_structural   Na2Cu(SeO5)2
_chemical_formula_sum   'Na2 Cu1 Se2 O10'
_cell_volume   221.16851880
_cell_formula_units_Z   1
loop_
 _symmetry_equiv_pos_site_id
 _symmetry_equiv_pos_as_xyz
  1  'x, y, z'
loop_
 _atom_site_type_symbol
 _atom_site_label
 _atom_site_symmetry_multiplicity
 _atom_site_fract_x
 _atom_site_fract_y
 _atom_site_fract_z
 _atom_site_occupancy
  Na  Na0  1  0.83681200  0.21289500  0.76275000  1
  Na  Na1  1  0.16318800  0.78710500  0.23725000  1
  Cu  Cu0  1  0.50000000  0.50000000  0.50000000  1
  Se  Se0  1  0.86079800  0.14885700  0.26289700  1
  Se  Se1  1  0.13920200  0.85114300  0.73710300  1
  O  O0  1  0.83541300  0.75289000  0.52943800  1
  O  O1  1  0.16458700  0.24711000  0.47056200  1
  O  O2  1  0.92188700  0.35176300  0.14420100  1
  O  O3  1  0.07811300  0.64823700  0.85579900  1
  O  O4  1  0.79007200  0.88858800  0.11406200  1
  O  O5  1  0.20992800  0.11141200  0.88593800  1
  O  O6  1  0.62639800  0.14309500  0.36906900  1
  O  O7  1  0.37360200  0.85690500  0.63093100  1
  O  O8  1  0.62583200  0.48506200  0.74318300  1
  O  O9  1  0.37416800  0.51493800  0.25681700  1
loop_
_geom_bond_atom_site_label_1
_geom_bond_atom_site_label_2
_geom_bond_distance
_geom_bond_site_symmetry_2
Na0 O5 2.463688 1_655
Na0 O3 2.476041 1_655
Na0 O7 2.490576 1_545
Na0 O8 2.507103 1_555
Na0 O2 2.556507 1_556
Na0 O6 2.653447 1_555
Na1 O4 2.463688 1_455
Na1 O2 2.476041 1_455
Na1 O6 2.490576 1_565
Na1 O9 2.507103 1_555
Na1 O3 2.556507 1_554
Na1 O7 2.653447 1_555
Cu0 O9 1.761171 1_555
Cu0 O8 1.761171 1_555
Cu0 O0 1.879386 1_555
Cu0 O1 1.879386 1_555
O0 Se1 1.750939 1_655
O1 Se0 1.750939 1_455
O2 Se0 1.694734 1_555
O3 Se1 1.694734 1_555
O4 Se0 1.642224 1_565
O5 Se1 1.642224 1_545
O6 Se0 1.659405 1_555
O7 Se1 1.659405 1_555
