# generated using pymatgen
data_NbCr3(AgS4)2
_symmetry_space_group_name_H-M   'P 1'
_cell_length_a   11.18962500
_cell_length_b   3.46211900
_cell_length_c   13.03102800
_cell_angle_alpha   90.00000000
_cell_angle_beta   90.00000000
_cell_angle_gamma   90.00000000
_symmetry_Int_Tables_number   1
_chemical_formula_structural   NbCr3(AgS4)2
_chemical_formula_sum   'Nb2 Cr6 Ag4 S16'
_cell_volume   504.81959203
_cell_formula_units_Z   2
loop_
 _symmetry_equiv_pos_site_id
 _symmetry_equiv_pos_as_xyz
  1  'x, y, z'
loop_
 _atom_site_type_symbol
 _atom_site_label
 _atom_site_symmetry_multiplicity
 _atom_site_fract_x
 _atom_site_fract_y
 _atom_site_fract_z
 _atom_site_occupancy
  Nb  Nb0  1  0.08767800  0.25000000  0.59601200  1
  Nb  Nb1  1  0.58767800  0.25000000  0.90398800  1
  Cr  Cr0  1  0.05819100  0.25000000  0.11692400  1
  Cr  Cr1  1  0.94656300  0.75000000  0.89440300  1
  Cr  Cr2  1  0.44656300  0.75000000  0.60559700  1
  Cr  Cr3  1  0.55819100  0.25000000  0.38307600  1
  Cr  Cr4  1  0.91414800  0.75000000  0.40035200  1
  Cr  Cr5  1  0.41414800  0.75000000  0.09964800  1
  Ag  Ag0  1  0.25518800  0.25000000  0.31798900  1
  Ag  Ag1  1  0.75128800  0.75000000  0.66019900  1
  Ag  Ag2  1  0.25128800  0.75000000  0.83980100  1
  Ag  Ag3  1  0.75518800  0.25000000  0.18201100  1
  S  S0  1  0.02076700  0.75000000  0.71781400  1
  S  S1  1  0.96705600  0.25000000  0.28625900  1
  S  S2  1  0.46705600  0.25000000  0.21374100  1
  S  S3  1  0.52076700  0.75000000  0.78218600  1
  S  S4  1  0.08454500  0.25000000  0.93425800  1
  S  S5  1  0.91668600  0.75000000  0.07235300  1
  S  S6  1  0.41668600  0.75000000  0.42764700  1
  S  S7  1  0.58454500  0.25000000  0.56574200  1
  S  S8  1  0.11977600  0.75000000  0.45997800  1
  S  S9  1  0.87815400  0.25000000  0.52504600  1
  S  S10  1  0.37815400  0.25000000  0.97495400  1
  S  S11  1  0.61977600  0.75000000  0.04002200  1
  S  S12  1  0.20142700  0.75000000  0.15263800  1
  S  S13  1  0.79853400  0.25000000  0.85377800  1
  S  S14  1  0.29853400  0.25000000  0.64622200  1
  S  S15  1  0.70142700  0.75000000  0.34736200  1
loop_
_geom_bond_atom_site_label_1
_geom_bond_atom_site_label_2
_geom_bond_distance
_geom_bond_site_symmetry_2
Nb0 S14 2.448440 1_555
Nb0 S0 2.465026 1_545
Nb0 S0 2.465026 1_555
Nb0 S8 2.503577 1_555
Nb0 S8 2.503577 1_545
Nb0 S9 2.520285 1_455
Nb1 S13 2.448440 1_555
Nb1 S3 2.465026 1_555
Nb1 S3 2.465026 1_545
Nb1 S11 2.503577 1_546
Nb1 S11 2.503577 1_556
Nb1 S10 2.520285 1_555
Cr0 S4 2.398523 1_554
Cr0 S12 2.404576 1_545
Cr0 S12 2.404576 1_555
Cr0 S5 2.416820 1_455
Cr0 S5 2.416820 1_445
Cr0 S1 2.430853 1_455
Cr1 S5 2.342846 1_556
Cr1 S4 2.377000 1_655
Cr1 S4 2.377000 1_665
Cr1 S0 2.446355 1_655
Cr1 S13 2.453659 1_555
Cr1 S13 2.453659 1_565
Cr2 S6 2.342846 1_555
Cr2 S7 2.377000 1_555
Cr2 S7 2.377000 1_565
Cr2 S3 2.446355 1_555
Cr2 S14 2.453659 1_555
Cr2 S14 2.453659 1_565
Cr3 S7 2.398523 1_555
Cr3 S15 2.404576 1_555
Cr3 S15 2.404576 1_545
Cr3 S6 2.416820 1_555
Cr3 S6 2.416820 1_545
Cr3 S2 2.430853 1_555
Cr4 S1 2.357430 1_555
Cr4 S1 2.357430 1_565
Cr4 S9 2.408122 1_555
Cr4 S9 2.408122 1_565
Cr4 S8 2.428549 1_655
Cr4 S15 2.478404 1_555
Cr5 S2 2.357430 1_565
Cr5 S2 2.357430 1_555
Cr5 S10 2.408122 1_554
Cr5 S10 2.408122 1_564
Cr5 S11 2.428549 1_555
Cr5 S12 2.478404 1_555
Ag0 S2 2.732351 1_555
Ag0 S12 2.828631 1_545
Ag0 S12 2.828631 1_555
Ag0 S6 2.881684 1_545
Ag0 S6 2.881684 1_555
Ag0 S8 2.952270 1_555
Ag0 S8 2.952270 1_545
Ag1 S7 2.827152 1_555
Ag1 S7 2.827152 1_565
Ag1 S9 2.848429 1_555
Ag1 S9 2.848429 1_565
Ag1 S3 3.029919 1_555
Ag1 S13 3.104711 1_565
Ag1 S13 3.104711 1_555
Ag1 S0 3.107431 1_655
Ag2 S4 2.827152 1_555
Ag2 S4 2.827152 1_565
Ag2 S10 2.848429 1_565
Ag2 S10 2.848429 1_555
Ag2 S0 3.029919 1_555
Ag2 S14 3.104711 1_555
Ag2 S14 3.104711 1_565
Ag2 S3 3.107431 1_555
Ag3 S1 2.732351 1_555
Ag3 S15 2.828631 1_555
Ag3 S15 2.828631 1_545
Ag3 S5 2.881684 1_545
Ag3 S5 2.881684 1_555
Ag3 S11 2.952270 1_545
Ag3 S11 2.952270 1_555
