# generated using pymatgen
data_LuMgMoS4
_symmetry_space_group_name_H-M   'P 1'
_cell_length_a   7.61076042
_cell_length_b   7.58467893
_cell_length_c   7.58482713
_cell_angle_alpha   60.08447237
_cell_angle_beta   59.88727701
_cell_angle_gamma   59.88876311
_symmetry_Int_Tables_number   1
_chemical_formula_structural   LuMgMoS4
_chemical_formula_sum   'Lu2 Mg2 Mo2 S8'
_cell_volume   309.26753275
_cell_formula_units_Z   2
loop_
 _symmetry_equiv_pos_site_id
 _symmetry_equiv_pos_as_xyz
  1  'x, y, z'
loop_
 _atom_site_type_symbol
 _atom_site_label
 _atom_site_symmetry_multiplicity
 _atom_site_fract_x
 _atom_site_fract_y
 _atom_site_fract_z
 _atom_site_occupancy
  Lu  Lu0  1  0.49999900  0.50002000  0.49997500  1
  Lu  Lu1  1  0.00000000  0.49998900  0.50001100  1
  Mg  Mg0  1  0.87360700  0.87639400  0.87640400  1
  Mg  Mg1  1  0.12638700  0.12362800  0.12361000  1
  Mo  Mo0  1  0.49999900  0.49999500  0.99999400  1
  Mo  Mo1  1  0.49999800  0.99999500  0.50000600  1
  S  S0  1  0.72427200  0.74970900  0.74971700  1
  S  S1  1  0.26369400  0.24299300  0.72963100  1
  S  S2  1  0.26369300  0.72962400  0.24299400  1
  S  S3  1  0.72371100  0.25028600  0.25028100  1
  S  S4  1  0.73629600  0.27037200  0.75699400  1
  S  S5  1  0.27628500  0.74970700  0.74972100  1
  S  S6  1  0.27573700  0.25028100  0.25028800  1
  S  S7  1  0.73632600  0.75700200  0.27037400  1
loop_
_geom_bond_atom_site_label_1
_geom_bond_atom_site_label_2
_geom_bond_distance
_geom_bond_site_symmetry_2
Lu0 S2 2.656242 1_555
Lu0 S7 2.656277 1_555
Lu0 S1 2.656391 1_555
Lu0 S4 2.656391 1_555
Lu0 S3 2.679602 1_555
Lu0 S5 2.679629 1_555
Lu1 S4 2.656344 1_455
Lu1 S7 2.656373 1_455
Lu1 S2 2.656383 1_555
Lu1 S1 2.656392 1_555
Lu1 S0 2.679611 1_455
Lu1 S6 2.679641 1_555
Mg0 S7 2.441001 1_556
Mg0 S4 2.441037 1_565
Mg0 S5 2.500059 1_655
Mg0 S0 2.500171 1_555
Mg1 S1 2.441063 1_554
Mg1 S2 2.441204 1_545
Mg1 S6 2.500016 1_555
Mg1 S3 2.500059 1_455
Mo0 S4 2.529375 1_555
Mo0 S2 2.529407 1_556
Mo0 S6 2.551526 1_556
Mo0 S0 2.551577 1_555
Mo0 S5 2.551657 1_555
Mo0 S3 2.551721 1_556
Mo1 S1 2.529375 1_565
Mo1 S7 2.529384 1_555
Mo1 S6 2.551622 1_565
Mo1 S0 2.551650 1_555
Mo1 S5 2.551651 1_555
Mo1 S3 2.551670 1_565
