# generated using pymatgen
data_NpCd
_symmetry_space_group_name_H-M   'P 1'
_cell_length_a   5.69280308
_cell_length_b   5.70004258
_cell_length_c   11.66431068
_cell_angle_alpha   89.96402109
_cell_angle_beta   90.03746736
_cell_angle_gamma   119.78210365
_symmetry_Int_Tables_number   1
_chemical_formula_structural   NpCd
_chemical_formula_sum   'Np8 Cd8'
_cell_volume   328.50594790
_cell_formula_units_Z   8
loop_
 _symmetry_equiv_pos_site_id
 _symmetry_equiv_pos_as_xyz
  1  'x, y, z'
loop_
 _atom_site_type_symbol
 _atom_site_label
 _atom_site_symmetry_multiplicity
 _atom_site_fract_x
 _atom_site_fract_y
 _atom_site_fract_z
 _atom_site_occupancy
  Np  Np0_0  1  0.16666700  0.33334750  0.12500000  1
  Np  Np0_1  1  0.16666700  0.33334750  0.62500000  1
  Np  Np0_2  1  0.16666700  0.83334750  0.12500000  1
  Np  Np0_3  1  0.16666700  0.83334750  0.62500000  1
  Np  Np0_4  1  0.66666700  0.33334750  0.12500000  1
  Np  Np0_5  1  0.66666700  0.33334750  0.62500000  1
  Np  Np0_6  1  0.66666700  0.83334750  0.12500000  1
  Np  Np0_7  1  0.66666700  0.83334750  0.62500000  1
  Cd  Cd0_0  1  0.33333250  0.16665150  0.37500050  1
  Cd  Cd0_1  1  0.33333250  0.16665150  0.87500050  1
  Cd  Cd0_2  1  0.33333250  0.66665150  0.37500050  1
  Cd  Cd0_3  1  0.33333250  0.66665150  0.87500050  1
  Cd  Cd0_4  1  0.83333250  0.16665150  0.37500050  1
  Cd  Cd0_5  1  0.83333250  0.16665150  0.87500050  1
  Cd  Cd0_6  1  0.83333250  0.66665150  0.37500050  1
  Cd  Cd0_7  1  0.83333250  0.66665150  0.87500050  1
loop_
_geom_bond_atom_site_label_1
_geom_bond_atom_site_label_2
_geom_bond_distance
_geom_bond_site_symmetry_2
Np0_0 Np0_4 2.846402 1_455
Np0_0 Np0_4 2.846402 1_555
Np0_0 Np0_2 2.850021 1_545
Np0_0 Np0_2 2.850021 1_555
Np0_0 Np0_6 2.857589 1_555
Np0_0 Np0_6 2.857589 1_445
Np0_1 Np0_5 2.846402 1_455
Np0_1 Np0_5 2.846402 1_555
Np0_1 Np0_3 2.850021 1_555
Np0_1 Np0_3 2.850021 1_545
Np0_1 Np0_7 2.857589 1_555
Np0_1 Np0_7 2.857589 1_445
Np0_2 Np0_6 2.846402 1_555
Np0_2 Np0_6 2.846402 1_455
Np0_2 Np0_4 2.857589 1_565
Np0_2 Np0_4 2.857589 1_455
Np0_3 Np0_7 2.846402 1_555
Np0_3 Np0_7 2.846402 1_455
Np0_3 Np0_5 2.857589 1_565
Np0_3 Np0_5 2.857589 1_455
Np0_4 Np0_6 2.850021 1_555
Np0_4 Np0_6 2.850021 1_545
Np0_5 Np0_7 2.850021 1_555
Np0_5 Np0_7 2.850021 1_545
Cd0_0 Cd0_4 2.846402 1_455
Cd0_0 Cd0_4 2.846402 1_555
Cd0_0 Cd0_2 2.850021 1_555
Cd0_0 Cd0_2 2.850021 1_545
Cd0_0 Cd0_6 2.857589 1_445
Cd0_0 Cd0_6 2.857589 1_555
Cd0_0 Np0_0 3.345902 1_555
Cd0_0 Np0_1 3.348013 1_555
Cd0_0 Np0_5 3.348477 1_555
Cd0_0 Np0_3 3.349491 1_545
Cd0_0 Np0_4 3.349609 1_555
Cd0_0 Np0_2 3.350498 1_545
Cd0_1 Cd0_5 2.846402 1_455
Cd0_1 Cd0_5 2.846402 1_555
Cd0_1 Cd0_3 2.850021 1_555
Cd0_1 Cd0_3 2.850021 1_545
Cd0_1 Cd0_7 2.857589 1_445
Cd0_1 Cd0_7 2.857589 1_555
Cd0_1 Np0_1 3.345902 1_555
Cd0_1 Np0_0 3.348013 1_556
Cd0_1 Np0_4 3.348477 1_556
Cd0_1 Np0_2 3.349491 1_546
Cd0_1 Np0_5 3.349609 1_555
Cd0_1 Np0_3 3.350498 1_545
Cd0_2 Cd0_6 2.846402 1_555
Cd0_2 Cd0_6 2.846402 1_455
Cd0_2 Cd0_4 2.857589 1_565
Cd0_2 Cd0_4 2.857589 1_455
Cd0_2 Np0_2 3.345902 1_555
Cd0_2 Np0_3 3.348013 1_555
Cd0_2 Np0_7 3.348477 1_555
Cd0_2 Np0_1 3.349491 1_555
Cd0_2 Np0_6 3.349609 1_555
Cd0_2 Np0_0 3.350498 1_555
Cd0_3 Cd0_7 2.846402 1_555
Cd0_3 Cd0_7 2.846402 1_455
Cd0_3 Cd0_5 2.857589 1_565
Cd0_3 Cd0_5 2.857589 1_455
Cd0_3 Np0_3 3.345902 1_555
Cd0_3 Np0_2 3.348013 1_556
Cd0_3 Np0_6 3.348477 1_556
Cd0_3 Np0_0 3.349491 1_556
Cd0_3 Np0_7 3.349609 1_555
Cd0_3 Np0_1 3.350498 1_555
Cd0_4 Cd0_6 2.850021 1_555
Cd0_4 Cd0_6 2.850021 1_545
Cd0_4 Np0_4 3.345902 1_555
Cd0_4 Np0_5 3.348013 1_555
Cd0_4 Np0_1 3.348477 1_655
Cd0_4 Np0_7 3.349491 1_545
Cd0_4 Np0_0 3.349609 1_655
Cd0_4 Np0_6 3.350498 1_545
Cd0_5 Cd0_7 2.850021 1_545
Cd0_5 Cd0_7 2.850021 1_555
Cd0_5 Np0_5 3.345902 1_555
Cd0_5 Np0_4 3.348013 1_556
Cd0_5 Np0_0 3.348477 1_656
Cd0_5 Np0_6 3.349491 1_546
Cd0_5 Np0_1 3.349609 1_655
Cd0_5 Np0_7 3.350498 1_545
Cd0_6 Np0_6 3.345902 1_555
Cd0_6 Np0_7 3.348013 1_555
Cd0_6 Np0_3 3.348477 1_655
Cd0_6 Np0_5 3.349491 1_555
Cd0_6 Np0_2 3.349609 1_655
Cd0_6 Np0_4 3.350498 1_555
Cd0_7 Np0_7 3.345902 1_555
Cd0_7 Np0_6 3.348013 1_556
Cd0_7 Np0_2 3.348477 1_656
Cd0_7 Np0_4 3.349491 1_556
Cd0_7 Np0_3 3.349609 1_655
Cd0_7 Np0_5 3.350498 1_555
