# generated using pymatgen
data_KB3SeO7
_symmetry_space_group_name_H-M   'P 1'
_cell_length_a   17.86362300
_cell_length_b   4.67740000
_cell_length_c   8.78424627
_cell_angle_alpha   83.95126013
_cell_angle_beta   90.00000000
_cell_angle_gamma   90.00000000
_symmetry_Int_Tables_number   1
_chemical_formula_structural   KB3SeO7
_chemical_formula_sum   'K4 B12 Se4 O28'
_cell_volume   729.88412713
_cell_formula_units_Z   4
loop_
 _symmetry_equiv_pos_site_id
 _symmetry_equiv_pos_as_xyz
  1  'x, y, z'
loop_
 _atom_site_type_symbol
 _atom_site_label
 _atom_site_symmetry_multiplicity
 _atom_site_fract_x
 _atom_site_fract_y
 _atom_site_fract_z
 _atom_site_occupancy
  K  K0  1  0.60417100  0.32082700  0.93738800  1
  K  K1  1  0.10417100  0.67917300  0.56261200  1
  K  K2  1  0.39582900  0.67917300  0.06261200  1
  K  K3  1  0.89582900  0.32082700  0.43738800  1
  B  B0  1  0.39189600  0.29327100  0.72358400  1
  B  B1  1  0.89189600  0.70672900  0.77641600  1
  B  B2  1  0.60810400  0.70672900  0.27641600  1
  B  B3  1  0.10810400  0.29327100  0.22358400  1
  B  B4  1  0.26311200  0.47007100  0.76079500  1
  B  B5  1  0.76311200  0.52992900  0.73920500  1
  B  B6  1  0.73688800  0.52992900  0.23920500  1
  B  B7  1  0.23688800  0.47007100  0.26079500  1
  B  B8  1  0.18924100  0.47197100  0.00432900  1
  B  B9  1  0.68924100  0.52802900  0.49567100  1
  B  B10  1  0.81075900  0.52802900  0.99567100  1
  B  B11  1  0.31075900  0.47197100  0.50432900  1
  Se  Se0  1  0.48490300  0.79956200  0.68668600  1
  Se  Se1  1  0.98490300  0.20043800  0.81331400  1
  Se  Se2  1  0.51509700  0.20043800  0.31331400  1
  Se  Se3  1  0.01509700  0.79956200  0.18668600  1
  O  O0  1  0.40623900  0.97992000  0.76204000  1
  O  O1  1  0.90623900  0.02008000  0.73796000  1
  O  O2  1  0.59376100  0.02008000  0.23796000  1
  O  O3  1  0.09376100  0.97992000  0.26204000  1
  O  O4  1  0.55504700  0.86023200  0.80142900  1
  O  O5  1  0.05504700  0.13976800  0.69857100  1
  O  O6  1  0.44495300  0.13976800  0.19857100  1
  O  O7  1  0.94495300  0.86023200  0.30142900  1
  O  O8  1  0.45998500  0.44940000  0.77274500  1
  O  O9  1  0.95998500  0.55060000  0.72725500  1
  O  O10  1  0.54001500  0.55060000  0.22725500  1
  O  O11  1  0.04001500  0.44940000  0.27274500  1
  O  O12  1  0.32777000  0.35561900  0.82001800  1
  O  O13  1  0.82777000  0.64438100  0.67998200  1
  O  O14  1  0.67223000  0.64438100  0.17998200  1
  O  O15  1  0.17223000  0.35561900  0.32001800  1
  O  O16  1  0.25370000  0.53872100  0.60304700  1
  O  O17  1  0.75370000  0.46127900  0.89695300  1
  O  O18  1  0.74630000  0.46127900  0.39695300  1
  O  O19  1  0.24630000  0.53872100  0.10304700  1
  O  O20  1  0.20109900  0.51752500  0.84804000  1
  O  O21  1  0.70109900  0.48247500  0.65196000  1
  O  O22  1  0.79890100  0.48247500  0.15196000  1
  O  O23  1  0.29890100  0.51752500  0.34804000  1
  O  O24  1  0.12208700  0.36952900  0.05856900  1
  O  O25  1  0.62208700  0.63047100  0.44143100  1
  O  O26  1  0.87791300  0.63047100  0.94143100  1
  O  O27  1  0.37791300  0.36952900  0.55856900  1
loop_
_geom_bond_atom_site_label_1
_geom_bond_atom_site_label_2
_geom_bond_distance
_geom_bond_site_symmetry_2
K0 O4 2.716624 1_545
K0 O17 2.764688 1_555
K0 O4 2.815487 1_555
K0 O2 2.863887 1_556
K0 O8 2.983990 1_555
K0 O14 2.998222 1_556
K0 O21 3.075158 1_555
K0 O10 3.086860 1_556
K1 O5 2.716624 1_565
K1 O16 2.764688 1_555
K1 O5 2.815487 1_555
K1 O3 2.863887 1_555
K1 O9 2.983990 1_455
K1 O15 2.998222 1_555
K1 O20 3.075158 1_555
K1 O11 3.086860 1_555
K2 O6 2.716624 1_565
K2 O19 2.764688 1_555
K2 O6 2.815487 1_555
K2 O0 2.863887 1_554
K2 O10 2.983990 1_555
K2 O12 2.998222 1_554
K2 O23 3.075158 1_555
K2 O8 3.086860 1_554
K3 O7 2.716624 1_545
K3 O18 2.764688 1_555
K3 O7 2.815487 1_555
K3 O1 2.863887 1_555
K3 O11 2.983990 1_655
K3 O13 2.998222 1_555
K3 O22 3.075158 1_555
K3 O9 3.086860 1_555
B0 O12 1.472043 1_555
B0 O27 1.477092 1_555
B0 O0 1.491174 1_545
B0 O8 1.505218 1_555
B1 O13 1.472043 1_555
B1 O26 1.477092 1_555
B1 O1 1.491174 1_565
B1 O9 1.505218 1_555
B2 O14 1.472043 1_555
B2 O25 1.477092 1_555
B2 O2 1.491174 1_565
B2 O10 1.505218 1_555
B3 O15 1.472043 1_555
B3 O24 1.477092 1_555
B3 O3 1.491174 1_545
B3 O11 1.505218 1_555
B4 O12 1.353742 1_555
B4 O20 1.378270 1_555
B4 O16 1.399200 1_555
B5 O13 1.353742 1_555
B5 O21 1.378270 1_555
B5 O17 1.399200 1_555
B6 O14 1.353742 1_555
B6 O22 1.378270 1_555
B6 O18 1.399200 1_555
B7 O15 1.353742 1_555
B7 O23 1.378270 1_555
B7 O19 1.399200 1_555
B8 O24 1.359252 1_555
B8 O20 1.383266 1_554
B8 O19 1.394791 1_555
B9 O25 1.359252 1_555
B9 O21 1.383266 1_555
B9 O18 1.394791 1_555
B10 O26 1.359252 1_555
B10 O22 1.383266 1_556
B10 O17 1.394791 1_555
B11 O27 1.359252 1_555
B11 O23 1.383266 1_555
B11 O16 1.394791 1_555
O0 Se0 1.800600 1_555
O1 Se1 1.800600 1_555
O2 Se2 1.800600 1_555
O3 Se3 1.800600 1_555
O4 Se0 1.651305 1_555
O5 Se1 1.651305 1_455
O6 Se2 1.651305 1_555
O7 Se3 1.651305 1_655
O8 Se0 1.786400 1_555
O9 Se1 1.786400 1_555
O10 Se2 1.786400 1_555
O11 Se3 1.786400 1_555
