# generated using pymatgen
data_NbNi3(HC)2
_symmetry_space_group_name_H-M   'P 1'
_cell_length_a   4.85746833
_cell_length_b   4.85746833
_cell_length_c   4.85746833
_cell_angle_alpha   127.74444866
_cell_angle_beta   127.74444866
_cell_angle_gamma   77.03937827
_symmetry_Int_Tables_number   1
_chemical_formula_structural   NbNi3(HC)2
_chemical_formula_sum   'Nb1 Ni3 H2 C2'
_cell_volume   69.56003496
_cell_formula_units_Z   1
loop_
 _symmetry_equiv_pos_site_id
 _symmetry_equiv_pos_as_xyz
  1  'x, y, z'
loop_
 _atom_site_type_symbol
 _atom_site_label
 _atom_site_symmetry_multiplicity
 _atom_site_fract_x
 _atom_site_fract_y
 _atom_site_fract_z
 _atom_site_occupancy
  Nb  Nb0  1  0.00000000  0.00000000  0.00000000  1
  Ni  Ni0  1  0.75000000  0.25000000  0.50000000  1
  Ni  Ni1  1  0.25000000  0.75000000  0.50000000  1
  Ni  Ni2  1  0.50000000  0.50000000  0.00000000  1
  H  H0  1  0.74341600  0.74341600  0.00000000  1
  H  H1  1  0.25658400  0.25658400  0.00000000  1
  C  C0  1  0.50000000  0.00000000  0.50000000  1
  C  C1  1  0.00000000  0.50000000  0.50000000  1
loop_
_geom_bond_atom_site_label_1
_geom_bond_atom_site_label_2
_geom_bond_distance
_geom_bond_site_symmetry_2
H0 Ni2 1.850183 1_555
H0 Nb0 1.950272 1_665
H0 Ni0 2.139690 1_554
H0 Ni0 2.139690 1_565
H0 Ni1 2.139690 1_655
H0 Ni1 2.139690 1_554
H1 Ni2 1.850183 1_555
H1 Nb0 1.950272 1_555
H1 Ni1 2.139690 1_555
H1 Ni1 2.139690 1_544
H1 Ni0 2.139690 1_555
H1 Ni0 2.139690 1_454
C0 Ni0 1.900227 1_555
C0 Ni1 1.900227 1_545
C0 Nb0 2.139105 1_555
C0 Nb0 2.139105 1_656
C0 Ni2 2.139105 1_545
C0 Ni2 2.139105 1_556
C1 Ni0 1.900227 1_455
C1 Ni1 1.900227 1_555
C1 Nb0 2.139105 1_555
C1 Nb0 2.139105 1_566
C1 Ni2 2.139105 1_455
C1 Ni2 2.139105 1_556
