# generated using pymatgen
data_Dy2ReB6
_symmetry_space_group_name_H-M   'P 1'
_cell_length_a   3.68148458
_cell_length_b   9.16473004
_cell_length_c   11.54263026
_cell_angle_alpha   90.00000000
_cell_angle_beta   90.00000000
_cell_angle_gamma   90.00000000
_symmetry_Int_Tables_number   1
_chemical_formula_structural   Dy2ReB6
_chemical_formula_sum   'Dy8 Re4 B24'
_cell_volume   389.44617868
_cell_formula_units_Z   4
loop_
 _symmetry_equiv_pos_site_id
 _symmetry_equiv_pos_as_xyz
  1  'x, y, z'
loop_
 _atom_site_type_symbol
 _atom_site_label
 _atom_site_symmetry_multiplicity
 _atom_site_fract_x
 _atom_site_fract_y
 _atom_site_fract_z
 _atom_site_occupancy
  Dy  Dy0  1  -0.00000000  0.32388780  0.41409467  1
  Dy  Dy1  1  -0.00000000  0.67611220  0.58590533  1
  Dy  Dy2  1  0.00000000  0.82388780  0.08590533  1
  Dy  Dy3  1  0.00000000  0.17611220  0.91409467  1
  Dy  Dy4  1  0.00000000  0.94248911  0.36950539  1
  Dy  Dy5  1  -0.00000000  0.05751089  0.63049461  1
  Dy  Dy6  1  0.00000000  0.44248911  0.13049461  1
  Dy  Dy7  1  -0.00000000  0.55751089  0.86950539  1
  Re  Re0  1  0.00000000  0.63833502  0.32077492  1
  Re  Re1  1  -0.00000000  0.36166498  0.67922508  1
  Re  Re2  1  0.00000000  0.13833502  0.17922508  1
  Re  Re3  1  -0.00000000  0.86166498  0.82077492  1
  B  B0  1  0.50000000  0.55329280  0.43275358  1
  B  B1  1  0.50000000  0.44670720  0.56724642  1
  B  B2  1  0.50000000  0.05329280  0.06724642  1
  B  B3  1  0.50000000  0.94670720  0.93275358  1
  B  B4  1  0.50000000  0.74867322  0.41824110  1
  B  B5  1  0.50000000  0.25132678  0.58175890  1
  B  B6  1  0.50000000  0.24867322  0.08175890  1
  B  B7  1  0.50000000  0.75132678  0.91824110  1
  B  B8  1  0.50000000  0.79131849  0.26512311  1
  B  B9  1  0.50000000  0.20868151  0.73487689  1
  B  B10  1  0.50000000  0.29131849  0.23487689  1
  B  B11  1  0.50000000  0.70868151  0.76512311  1
  B  B12  1  0.50000000  0.63070168  0.18584184  1
  B  B13  1  0.50000000  0.36929832  0.81415816  1
  B  B14  1  0.50000000  0.13070168  0.31415816  1
  B  B15  1  0.50000000  0.86929832  0.68584184  1
  B  B16  1  0.50000000  0.98252844  0.21168590  1
  B  B17  1  0.50000000  0.01747156  0.78831410  1
  B  B18  1  0.50000000  0.48252844  0.28831410  1
  B  B19  1  0.50000000  0.51747156  0.71168590  1
  B  B20  1  0.50000000  0.59976855  0.02790706  1
  B  B21  1  0.50000000  0.40023145  0.97209294  1
  B  B22  1  0.50000000  0.09976855  0.47209294  1
  B  B23  1  0.50000000  0.90023145  0.52790706  1
loop_
_geom_bond_atom_site_label_1
_geom_bond_atom_site_label_2
_geom_bond_distance
_geom_bond_site_symmetry_2
Dy0 Re0 3.076552 1_555
Dy0 Re1 3.079824 1_555
Dy0 Re2 3.200224 1_555
Dy1 Re1 3.076552 1_555
Dy1 Re0 3.079824 1_555
Dy1 Re3 3.200224 1_555
Dy2 Re2 3.076552 1_565
Dy2 Re3 3.079824 1_554
Dy2 Re0 3.200224 1_555
Dy3 Re3 3.076552 1_545
Dy3 Re2 3.079824 1_556
Dy3 Re1 3.200224 1_555
Dy4 Re2 2.836453 1_565
Dy4 Re0 2.843674 1_555
Dy5 Re3 2.836453 1_545
Dy5 Re1 2.843674 1_555
Dy6 Re0 2.836453 1_555
Dy6 Re2 2.843674 1_555
Dy7 Re1 2.836453 1_555
Dy7 Re3 2.843674 1_555
B0 B18 1.788908 1_555
B0 B4 1.798427 1_555
B0 B1 1.834160 1_555
B0 Re0 2.380422 1_655
B0 Re0 2.380422 1_555
B0 Dy1 2.789327 1_555
B0 Dy1 2.789327 1_655
B0 Dy0 2.802668 1_655
B0 Dy0 2.802668 1_555
B1 B19 1.788908 1_555
B1 B5 1.798427 1_555
B1 Re1 2.380422 1_555
B1 Re1 2.380422 1_655
B1 Dy0 2.789327 1_655
B1 Dy0 2.789327 1_555
B1 Dy1 2.802668 1_655
B1 Dy1 2.802668 1_555
B2 B6 1.798427 1_555
B2 B3 1.834160 1_544
B2 Re2 2.380422 1_555
B2 Re2 2.380422 1_655
B2 Dy3 2.789327 1_554
B2 Dy3 2.789327 1_654
B2 Dy2 2.802668 1_645
B2 Dy2 2.802668 1_545
B3 B7 1.798427 1_555
B3 Re3 2.380422 1_555
B3 Re3 2.380422 1_655
B3 Dy2 2.789327 1_556
B3 Dy2 2.789327 1_656
B3 Dy3 2.802668 1_665
B3 Dy3 2.802668 1_565
B4 B8 1.810082 1_555
B4 Re0 2.382553 1_655
B4 Re0 2.382553 1_555
B4 Dy4 2.619144 1_655
B4 Dy4 2.619144 1_555
B4 Dy1 2.752434 1_555
B4 Dy1 2.752434 1_655
B5 B9 1.810082 1_555
B5 Re1 2.382553 1_655
B5 Re1 2.382553 1_555
B5 Dy5 2.619144 1_655
B5 Dy5 2.619144 1_555
B5 Dy0 2.752434 1_555
B5 Dy0 2.752434 1_655
B6 Re2 2.382553 1_555
B6 Re2 2.382553 1_655
B6 Dy6 2.619144 1_555
B6 Dy6 2.619144 1_655
B6 Dy3 2.752434 1_554
B6 Dy3 2.752434 1_654
B7 Re3 2.382553 1_555
B7 Re3 2.382553 1_655
B7 Dy7 2.619144 1_555
B7 Dy7 2.619144 1_655
B7 Dy2 2.752434 1_656
B7 Dy2 2.752434 1_556
B8 Re0 2.401399 1_555
B8 Re0 2.401399 1_655
B8 Dy4 2.599889 1_655
B8 Dy4 2.599889 1_555
B8 Dy2 2.785089 1_555
B8 Dy2 2.785089 1_655
B9 Re1 2.401399 1_555
B9 Re1 2.401399 1_655
B9 Dy5 2.599889 1_655
B9 Dy5 2.599889 1_555
B9 Dy3 2.785089 1_655
B9 Dy3 2.785089 1_555
B10 B14 1.733276 1_555
B10 B6 1.810082 1_555
B10 B18 1.857771 1_555
B10 Re2 2.401399 1_655
B10 Re2 2.401399 1_555
B10 Dy6 2.599889 1_655
B10 Dy6 2.599889 1_555
B10 Dy0 2.785089 1_655
B10 Dy0 2.785089 1_555
B11 B15 1.733276 1_555
B11 B7 1.810082 1_555
B11 B19 1.857771 1_555
B11 Re3 2.401399 1_655
B11 Re3 2.401399 1_555
B11 Dy7 2.599889 1_655
B11 Dy7 2.599889 1_555
B11 Dy1 2.785089 1_655
B11 Dy1 2.785089 1_555
B12 B8 1.733276 1_555
B12 B18 1.800858 1_555
B12 B20 1.844894 1_555
B12 Re0 2.412256 1_555
B12 Re0 2.412256 1_655
B12 Dy6 2.602269 1_555
B12 Dy6 2.602269 1_655
B12 Dy2 2.802433 1_555
B12 Dy2 2.802433 1_655
B13 B9 1.733276 1_555
B13 B19 1.800858 1_555
B13 B21 1.844894 1_555
B13 Re1 2.412256 1_555
B13 Re1 2.412256 1_655
B13 Dy7 2.602269 1_655
B13 Dy7 2.602269 1_555
B13 Dy3 2.802433 1_555
B13 Dy3 2.802433 1_655
B14 B16 1.800858 1_545
B14 B22 1.844894 1_555
B14 Re2 2.412256 1_655
B14 Re2 2.412256 1_555
B14 Dy4 2.602269 1_645
B14 Dy4 2.602269 1_545
B14 Dy0 2.802433 1_555
B14 Dy0 2.802433 1_655
B15 B17 1.800858 1_565
B15 B23 1.844894 1_555
B15 Re3 2.412256 1_655
B15 Re3 2.412256 1_555
B15 Dy5 2.602269 1_565
B15 Dy5 2.602269 1_665
B15 Dy1 2.802433 1_555
B15 Dy1 2.802433 1_655
B16 B2 1.788908 1_565
B16 B8 1.857771 1_555
B16 Re2 2.359595 1_665
B16 Re2 2.359595 1_565
B16 Dy4 2.615607 1_555
B16 Dy4 2.615607 1_655
B16 Dy2 2.758621 1_655
B16 Dy2 2.758621 1_555
B17 B3 1.788908 1_545
B17 B9 1.857771 1_555
B17 Re3 2.359595 1_545
B17 Re3 2.359595 1_645
B17 Dy5 2.615607 1_655
B17 Dy5 2.615607 1_555
B17 Dy3 2.758621 1_655
B17 Dy3 2.758621 1_555
B18 Re0 2.359595 1_655
B18 Re0 2.359595 1_555
B18 Dy6 2.615607 1_555
B18 Dy6 2.615607 1_655
B18 Dy0 2.758621 1_655
B18 Dy0 2.758621 1_555
B19 Re1 2.359595 1_555
B19 Re1 2.359595 1_655
B19 Dy7 2.615607 1_555
B19 Dy7 2.615607 1_655
B19 Dy1 2.758621 1_555
B19 Dy1 2.758621 1_655
B20 B7 1.879263 1_554
B20 B21 1.938867 1_554
B20 Dy6 2.620725 1_555
B20 Dy6 2.620725 1_655
B20 Dy7 2.623216 1_654
B20 Dy7 2.623216 1_554
B20 Dy2 2.838201 1_655
B20 Dy2 2.838201 1_555
B21 B6 1.879263 1_556
B21 Dy7 2.620725 1_555
B21 Dy7 2.620725 1_655
B21 Dy6 2.623216 1_556
B21 Dy6 2.623216 1_656
B21 Dy3 2.838201 1_555
B21 Dy3 2.838201 1_655
B22 B5 1.879263 1_555
B22 B23 1.938867 1_545
B22 Dy4 2.620725 1_645
B22 Dy4 2.620725 1_545
B22 Dy5 2.623216 1_655
B22 Dy5 2.623216 1_555
B22 Dy0 2.838201 1_555
B22 Dy0 2.838201 1_655
B23 B4 1.879263 1_555
B23 Dy5 2.620725 1_565
B23 Dy5 2.620725 1_665
B23 Dy4 2.623216 1_655
B23 Dy4 2.623216 1_555
B23 Dy1 2.838201 1_655
B23 Dy1 2.838201 1_555
