# generated using pymatgen
data_NaYTl2
_symmetry_space_group_name_H-M   'P 1'
_cell_length_a   12.50047516
_cell_length_b   13.04482929
_cell_length_c   13.04482858
_cell_angle_alpha   60.89949279
_cell_angle_beta   61.37106170
_cell_angle_gamma   61.37106047
_symmetry_Int_Tables_number   1
_chemical_formula_structural   NaYTl2
_chemical_formula_sum   'Na1 Y1 Tl2'
_cell_volume   1545.13977063
_cell_formula_units_Z   1
loop_
 _symmetry_equiv_pos_site_id
 _symmetry_equiv_pos_as_xyz
  1  'x, y, z'
loop_
 _atom_site_type_symbol
 _atom_site_label
 _atom_site_symmetry_multiplicity
 _atom_site_fract_x
 _atom_site_fract_y
 _atom_site_fract_z
 _atom_site_occupancy
  Na  Na0  1  0.00000000  0.00000000  0.00000000  1
  Y  Y0  1  0.50000000  0.00000000  0.00000000  1
  Tl  Tl0  1  0.74880158  1.00000000  0.00000000  1
  Tl  Tl1  1  0.25119842  0.00000000  1.00000000  1
loop_
_geom_bond_atom_site_label_1
_geom_bond_atom_site_label_2
_geom_bond_distance
_geom_bond_site_symmetry_2
Na0 Tl1 3.140100 1_554
Na0 Tl0 3.140100 1_445
Tl0 Y0 3.110138 1_565
Tl1 Y0 3.110138 1_556
