# generated using pymatgen
data_MgCo(SiO3)2
_symmetry_space_group_name_H-M   'P 1'
_cell_length_a   5.29886577
_cell_length_b   6.69626159
_cell_length_c   13.19731079
_cell_angle_alpha   91.12979597
_cell_angle_beta   99.42106350
_cell_angle_gamma   76.44723457
_symmetry_Int_Tables_number   1
_chemical_formula_structural   MgCo(SiO3)2
_chemical_formula_sum   'Mg4 Co4 Si8 O24'
_cell_volume   449.01041058
_cell_formula_units_Z   4
loop_
 _symmetry_equiv_pos_site_id
 _symmetry_equiv_pos_as_xyz
  1  'x, y, z'
loop_
 _atom_site_type_symbol
 _atom_site_label
 _atom_site_symmetry_multiplicity
 _atom_site_fract_x
 _atom_site_fract_y
 _atom_site_fract_z
 _atom_site_occupancy
  Mg  Mg0  1  0.12769300  0.24470900  0.37760800  1
  Mg  Mg1  1  0.62756400  0.24472900  0.87766300  1
  Mg  Mg2  1  0.37241100  0.75527100  0.12233600  1
  Mg  Mg3  1  0.87218900  0.75528600  0.62238700  1
  Co  Co0  1  0.19947200  0.10077600  0.94952800  1
  Co  Co1  1  0.80051900  0.89920900  0.05046300  1
  Co  Co2  1  0.69960400  0.10098500  0.44959500  1
  Co  Co3  1  0.30034000  0.89894600  0.55038000  1
  Si  Si0  1  0.43960000  0.21024300  0.19316800  1
  Si  Si1  1  0.93965300  0.21023300  0.69320900  1
  Si  Si2  1  0.64841200  0.61359500  0.39484500  1
  Si  Si3  1  0.14846200  0.61358800  0.89488100  1
  Si  Si4  1  0.85154900  0.38641600  0.10511700  1
  Si  Si5  1  0.35160700  0.38640000  0.60515600  1
  Si  Si6  1  0.06036300  0.78976000  0.30678900  1
  Si  Si7  1  0.56041500  0.78976400  0.80683200  1
  O  O0  1  0.68997000  0.31887200  0.19210800  1
  O  O1  1  0.18996100  0.31894600  0.69209400  1
  O  O2  1  0.34265600  0.61576000  0.34053500  1
  O  O3  1  0.84264700  0.61573200  0.84055700  1
  O  O4  1  0.81003500  0.68107500  0.30790500  1
  O  O5  1  0.31004100  0.68113700  0.80789100  1
  O  O6  1  0.15736000  0.38426400  0.15945100  1
  O  O7  1  0.65735700  0.38424100  0.65947000  1
  O  O8  1  0.43878600  0.13787900  0.30935000  1
  O  O9  1  0.93891100  0.13796500  0.80934500  1
  O  O10  1  0.80151400  0.38128200  0.43101400  1
  O  O11  1  0.30162500  0.38133700  0.93103600  1
  O  O12  1  0.06110900  0.86204000  0.19065700  1
  O  O13  1  0.56125900  0.86214800  0.69066400  1
  O  O14  1  0.69839400  0.61867100  0.06896800  1
  O  O15  1  0.19853100  0.61874600  0.56899900  1
  O  O16  1  0.86481000  0.21219800  0.01527800  1
  O  O17  1  0.36468800  0.21229100  0.51524700  1
  O  O18  1  0.04430900  0.96951400  0.39390000  1
  O  O19  1  0.54437000  0.96955300  0.89386400  1
  O  O20  1  0.45563100  0.03045400  0.10613800  1
  O  O21  1  0.95566300  0.03051400  0.60607800  1
  O  O22  1  0.63531300  0.78768100  0.48476600  1
  O  O23  1  0.13519800  0.78779300  0.98472500  1
loop_
_geom_bond_atom_site_label_1
_geom_bond_atom_site_label_2
_geom_bond_distance
_geom_bond_site_symmetry_2
Mg0 O8 1.987114 1_555
Mg0 O10 1.988212 1_455
Mg0 O17 2.016112 1_555
Mg0 O18 2.016337 1_545
Mg1 O11 1.987016 1_555
Mg1 O9 1.988608 1_555
Mg1 O19 2.015568 1_545
Mg1 O16 2.016442 1_556
Mg2 O14 1.987161 1_555
Mg2 O12 1.988441 1_555
Mg2 O20 2.015669 1_565
Mg2 O23 2.016322 1_554
Mg3 O13 1.986586 1_555
Mg3 O15 1.988749 1_655
Mg3 O22 2.015641 1_555
Mg3 O21 2.016802 1_565
Co0 O16 2.076640 1_456
Co0 O19 2.076825 1_545
Co0 O9 2.100412 1_455
Co0 O11 2.102393 1_555
Co0 O23 2.269125 1_545
Co0 O20 2.270753 1_556
Co1 O23 2.076622 1_654
Co1 O20 2.076882 1_565
Co1 O12 2.100601 1_655
Co1 O14 2.102204 1_555
Co1 O16 2.269160 1_565
Co1 O19 2.270626 1_554
Co2 O18 2.076517 1_645
Co2 O17 2.076939 1_555
Co2 O10 2.100284 1_555
Co2 O8 2.101744 1_555
Co2 O21 2.269258 1_555
Co2 O22 2.271146 1_545
Co3 O21 2.076549 1_465
Co3 O22 2.076876 1_555
Co3 O15 2.099491 1_555
Co3 O13 2.102416 1_555
Co3 O18 2.269222 1_555
Co3 O17 2.271407 1_565
O0 Si0 1.657758 1_555
O0 Si4 1.667153 1_555
O1 Si1 1.657921 1_455
O1 Si5 1.666610 1_555
O2 Si2 1.657736 1_555
O2 Si6 1.667019 1_555
O3 Si3 1.658099 1_655
O3 Si7 1.666865 1_555
O4 Si6 1.657901 1_655
O4 Si2 1.666616 1_555
O5 Si7 1.657767 1_555
O5 Si3 1.667156 1_555
O6 Si4 1.658105 1_455
O6 Si0 1.666843 1_555
O7 Si5 1.657731 1_555
O7 Si1 1.667044 1_555
O8 Si0 1.618100 1_555
O9 Si1 1.617229 1_555
O10 Si2 1.617714 1_555
O11 Si3 1.617392 1_555
O12 Si6 1.617209 1_555
O13 Si7 1.618003 1_555
O14 Si4 1.617387 1_555
O15 Si5 1.617834 1_555
O16 Si4 1.644977 1_555
O17 Si5 1.645142 1_555
O18 Si6 1.645354 1_555
O19 Si7 1.644798 1_555
O20 Si0 1.644780 1_555
O21 Si1 1.645373 1_555
O22 Si2 1.645150 1_555
O23 Si3 1.644965 1_555
