# generated using pymatgen
data_Tl2B4O7
_symmetry_space_group_name_H-M   'P 1'
_cell_length_a   6.74370891
_cell_length_b   13.41387418
_cell_length_c   13.22933396
_cell_angle_alpha   118.97735396
_cell_angle_beta   91.32666216
_cell_angle_gamma   92.02562057
_symmetry_Int_Tables_number   1
_chemical_formula_structural   Tl2B4O7
_chemical_formula_sum   'Tl12 B24 O42'
_cell_volume   1045.13542009
_cell_formula_units_Z   6
loop_
 _symmetry_equiv_pos_site_id
 _symmetry_equiv_pos_as_xyz
  1  'x, y, z'
loop_
 _atom_site_type_symbol
 _atom_site_label
 _atom_site_symmetry_multiplicity
 _atom_site_fract_x
 _atom_site_fract_y
 _atom_site_fract_z
 _atom_site_occupancy
  Tl  Tl0  1  0.11430249  0.40938933  0.53921476  1
  Tl  Tl1  1  0.88569751  0.59061067  0.46078524  1
  Tl  Tl2  1  0.22103791  0.55775211  0.97765994  1
  Tl  Tl3  1  0.77896209  0.44224789  0.02234006  1
  Tl  Tl4  1  0.60140628  0.11310510  0.66931693  1
  Tl  Tl5  1  0.39859372  0.88689490  0.33068307  1
  Tl  Tl6  1  0.69103270  0.06799827  0.94207530  1
  Tl  Tl7  1  0.30896730  0.93200173  0.05792470  1
  Tl  Tl8  1  0.44666379  0.63239318  0.72813970  1
  Tl  Tl9  1  0.55333621  0.36760682  0.27186030  1
  Tl  Tl10  1  0.02484616  0.94924454  0.60353757  1
  Tl  Tl11  1  0.97515384  0.05075546  0.39646243  1
  B  B0  1  0.95836640  0.71480212  0.79042329  1
  B  B1  1  0.04163360  0.28519788  0.20957671  1
  B  B2  1  0.82850448  0.53520569  0.79211035  1
  B  B3  1  0.17149552  0.46479431  0.20788965  1
  B  B4  1  0.75280594  0.81545632  0.70881693  1
  B  B5  1  0.24719406  0.18454368  0.29118307  1
  B  B6  1  0.73557933  0.68873686  0.97516743  1
  B  B7  1  0.26442067  0.31126314  0.02483257  1
  B  B8  1  0.40272585  0.21702419  0.48770427  1
  B  B9  1  0.59727415  0.78297581  0.51229573  1
  B  B10  1  0.64105750  0.37037638  0.63295095  1
  B  B11  1  0.35894250  0.62962362  0.36704905  1
  B  B12  1  0.08504719  0.23364034  0.83401862  1
  B  B13  1  0.91495281  0.76635966  0.16598138  1
  B  B14  1  0.16687357  0.11114484  0.92045257  1
  B  B15  1  0.83312643  0.88885516  0.07954743  1
  B  B16  1  0.90224950  0.33302374  0.74257377  1
  B  B17  1  0.09775050  0.66697626  0.25742623  1
  B  B18  1  0.21183603  0.23022438  0.65803677  1
  B  B19  1  0.78816397  0.76977562  0.34196323  1
  B  B20  1  0.08607683  0.89955382  0.81453200  1
  B  B21  1  0.91392317  0.10044618  0.18546800  1
  B  B22  1  0.39984315  0.85648059  0.68162995  1
  B  B23  1  0.60015685  0.14351941  0.31837005  1
  O  O0  1  0.04820421  0.13184461  0.84838686  1
  O  O1  1  0.95179579  0.86815539  0.15161314  1
  O  O2  1  0.71450867  0.29961385  0.67051312  1
  O  O3  1  0.28549133  0.70038615  0.32948688  1
  O  O4  1  0.16959840  0.33035246  0.94463711  1
  O  O5  1  0.83040160  0.66964754  0.05536289  1
  O  O6  1  0.48329563  0.33835063  0.55474035  1
  O  O7  1  0.51670437  0.66164937  0.44525965  1
  O  O8  1  0.80461075  0.71415751  0.71953260  1
  O  O9  1  0.19538925  0.28584249  0.28046740  1
  O  O10  1  0.16905010  0.00700517  0.91489583  1
  O  O11  1  0.83094990  0.99299483  0.08510417  1
  O  O12  1  0.91435723  0.45551035  0.82308150  1
  O  O13  1  0.08564277  0.54448965  0.17691850  1
  O  O14  1  0.90385629  0.26581673  0.80142811  1
  O  O15  1  0.09614371  0.73418327  0.19857189  1
  O  O16  1  0.23465672  0.21162481  0.41284556  1
  O  O17  1  0.76534328  0.78837519  0.58715444  1
  O  O18  1  0.88458048  0.91291417  0.78369119  1
  O  O19  1  0.11541952  0.08708583  0.21630881  1
  O  O20  1  0.72987730  0.47810588  0.67561551  1
  O  O21  1  0.27012270  0.52189412  0.32438449  1
  O  O22  1  0.54464868  0.84063318  0.74627948  1
  O  O23  1  0.45535132  0.15936682  0.25372052  1
  O  O24  1  0.06981673  0.30110386  0.65958477  1
  O  O25  1  0.93018327  0.69889614  0.34041523  1
  O  O26  1  0.23415620  0.20327141  0.74485176  1
  O  O27  1  0.76584380  0.79672859  0.25514824  1
  O  O28  1  0.33686084  0.17839791  0.56855036  1
  O  O29  1  0.66313916  0.82160209  0.43144964  1
  O  O30  1  0.09433868  0.80657033  0.84300232  1
  O  O31  1  0.90566132  0.19342967  0.15699768  1
  O  O32  1  0.20816977  0.87445682  0.71368087  1
  O  O33  1  0.79183023  0.12554318  0.28631913  1
  O  O34  1  0.71264677  0.79940490  0.99446906  1
  O  O35  1  0.28735323  0.20059510  0.00553094  1
  O  O36  1  0.43945259  0.85407515  0.57934614  1
  O  O37  1  0.56054741  0.14592485  0.42065386  1
  O  O38  1  0.66473613  0.59915018  0.87229848  1
  O  O39  1  0.33526387  0.40084982  0.12770152  1
  O  O40  1  0.98323806  0.62244609  0.80652869  1
  O  O41  1  0.01676194  0.37755391  0.19347131  1
loop_
_geom_bond_atom_site_label_1
_geom_bond_atom_site_label_2
_geom_bond_distance
_geom_bond_site_symmetry_2
B0 O40 1.370062 1_555
B0 O30 1.378755 1_655
B0 O8 1.378847 1_555
B1 O41 1.370062 1_555
B1 O31 1.378755 1_455
B1 O9 1.378847 1_555
B2 O12 1.450192 1_555
B2 O20 1.475450 1_555
B2 O40 1.477448 1_555
B2 O38 1.523278 1_555
B3 O13 1.450192 1_555
B3 O21 1.475450 1_555
B3 O41 1.477448 1_555
B3 O39 1.523278 1_555
B4 O18 1.449929 1_555
B4 O17 1.473637 1_555
B4 O8 1.485401 1_555
B4 O22 1.494574 1_555
B5 O19 1.449929 1_555
B5 O16 1.473637 1_555
B5 O9 1.485401 1_555
B5 O23 1.494574 1_555
B6 O5 1.357730 1_556
B6 O38 1.367146 1_555
B6 O34 1.394130 1_555
B7 O4 1.357730 1_554
B7 O39 1.367146 1_555
B7 O35 1.394130 1_555
B8 O37 1.457712 1_555
B8 O16 1.464016 1_555
B8 O28 1.467083 1_555
B8 O6 1.499016 1_555
B9 O36 1.457712 1_555
B9 O17 1.464016 1_555
B9 O29 1.467083 1_555
B9 O7 1.499016 1_555
B10 O2 1.368258 1_555
B10 O6 1.368585 1_555
B10 O20 1.377839 1_555
B11 O3 1.368258 1_555
B11 O7 1.368585 1_555
B11 O21 1.377839 1_555
B12 O14 1.434716 1_455
B12 O26 1.478800 1_555
B12 O0 1.480566 1_555
B12 O4 1.489708 1_555
B13 O15 1.434716 1_655
B13 O27 1.478800 1_555
B13 O1 1.480566 1_555
B13 O5 1.489708 1_555
B14 O10 1.363450 1_555
B14 O0 1.365043 1_555
B14 O35 1.395295 1_556
B15 O11 1.363450 1_555
B15 O1 1.365043 1_555
B15 O34 1.395295 1_554
B16 O14 1.448952 1_555
B16 O12 1.459960 1_555
B16 O2 1.484125 1_555
B16 O24 1.517176 1_655
B17 O15 1.448952 1_555
B17 O13 1.459960 1_555
B17 O3 1.484125 1_555
B17 O25 1.517176 1_455
B18 O24 1.366768 1_555
B18 O26 1.367702 1_555
B18 O28 1.373273 1_555
B19 O25 1.366768 1_555
B19 O27 1.367702 1_555
B19 O29 1.373273 1_555
B20 O18 1.451689 1_455
B20 O30 1.469613 1_555
B20 O32 1.485459 1_555
B20 O10 1.485859 1_565
B21 O19 1.451689 1_655
B21 O31 1.469613 1_555
B21 O33 1.485459 1_555
B21 O11 1.485859 1_545
B22 O32 1.362742 1_555
B22 O36 1.370562 1_555
B22 O22 1.372020 1_555
B23 O33 1.362742 1_555
B23 O37 1.370562 1_555
B23 O23 1.372020 1_555
O2 Tl4 2.582096 1_555
O3 Tl5 2.582096 1_555
O6 Tl0 2.734201 1_555
O7 Tl1 2.734201 1_555
O8 Tl8 2.643733 1_555
O9 Tl9 2.643733 1_555
O10 Tl7 2.704039 1_546
O11 Tl6 2.704039 1_564
O12 Tl2 2.688179 1_655
O13 Tl3 2.688179 1_455
O14 Tl4 2.735238 1_555
O15 Tl5 2.735238 1_555
O16 Tl0 2.531570 1_555
O16 Tl11 2.651091 1_455
O17 Tl1 2.531570 1_555
O17 Tl10 2.651091 1_655
O18 Tl6 2.552786 1_565
O19 Tl7 2.552786 1_545
O20 Tl8 2.713168 1_555
O21 Tl9 2.713168 1_555
O22 Tl8 2.740337 1_555
O23 Tl9 2.740337 1_555
O24 Tl0 2.639715 1_555
O25 Tl1 2.639715 1_555
O26 Tl4 2.783950 1_555
O27 Tl5 2.783950 1_555
O28 Tl4 2.618871 1_555
O29 Tl5 2.618871 1_555
O30 Tl7 2.830568 1_556
O31 Tl6 2.830568 1_554
O32 Tl10 2.465483 1_555
O33 Tl11 2.465483 1_555
O38 Tl8 2.595990 1_555
O39 Tl9 2.595990 1_555
