# generated using pymatgen
data_ZrAl2Zn
_symmetry_space_group_name_H-M   'P 1'
_cell_length_a   4.07392848
_cell_length_b   4.07392848
_cell_length_c   4.02280873
_cell_angle_alpha   90.00000000
_cell_angle_beta   90.00000000
_cell_angle_gamma   90.00000000
_symmetry_Int_Tables_number   1
_chemical_formula_structural   ZrAl2Zn
_chemical_formula_sum   'Zr1 Al2 Zn1'
_cell_volume   66.76612710
_cell_formula_units_Z   1
loop_
 _symmetry_equiv_pos_site_id
 _symmetry_equiv_pos_as_xyz
  1  'x, y, z'
loop_
 _atom_site_type_symbol
 _atom_site_label
 _atom_site_symmetry_multiplicity
 _atom_site_fract_x
 _atom_site_fract_y
 _atom_site_fract_z
 _atom_site_occupancy
  Zr  Zr0  1  -0.00000000  0.00000000  0.00000000  1
  Al  Al0  1  -0.00000000  0.50000000  0.50000000  1
  Al  Al1  1  0.50000000  0.00000000  0.50000000  1
  Zn  Zn0  1  0.50000000  0.50000000  0.00000000  1
loop_
_geom_bond_atom_site_label_1
_geom_bond_atom_site_label_2
_geom_bond_distance
_geom_bond_site_symmetry_2
Al0 Zn0 2.862686 1_556
Al0 Zn0 2.862686 1_456
Al0 Zr0 2.862686 1_555
Al0 Zr0 2.862686 1_566
Al0 Zr0 2.862686 1_556
Al0 Zn0 2.862686 1_455
Al0 Zr0 2.862686 1_565
Al0 Zn0 2.862686 1_555
Al0 Al1 2.880702 1_555
Al0 Al1 2.880702 1_465
Al0 Al1 2.880702 1_455
Al0 Al1 2.880702 1_565
Al1 Zn0 2.862686 1_545
Al1 Zn0 2.862686 1_556
Al1 Zn0 2.862686 1_546
Al1 Zr0 2.862686 1_555
Al1 Zr0 2.862686 1_556
Al1 Zr0 2.862686 1_655
Al1 Zn0 2.862686 1_555
Al1 Zr0 2.862686 1_656
Zn0 Zr0 2.880702 1_655
Zn0 Zr0 2.880702 1_565
Zn0 Zr0 2.880702 1_665
Zn0 Zr0 2.880702 1_555
