# generated using pymatgen
data_NaN3
_symmetry_space_group_name_H-M   'P 1'
_cell_length_a   3.72475105
_cell_length_b   3.72475105
_cell_length_c   6.49543854
_cell_angle_alpha   54.30021558
_cell_angle_beta   54.30021558
_cell_angle_gamma   35.38290211
_symmetry_Int_Tables_number   1
_chemical_formula_structural   NaN3
_chemical_formula_sum   'Na1 N3'
_cell_volume   41.24709383
_cell_formula_units_Z   1
loop_
 _symmetry_equiv_pos_site_id
 _symmetry_equiv_pos_as_xyz
  1  'x, y, z'
loop_
 _atom_site_type_symbol
 _atom_site_label
 _atom_site_symmetry_multiplicity
 _atom_site_fract_x
 _atom_site_fract_y
 _atom_site_fract_z
 _atom_site_occupancy
  Na  Na0  1  0.00000000  0.00000000  0.00000000  1
  N  N0  1  0.50000000  0.50000000  0.50000000  1
  N  N1  1  0.89330500  0.89330500  0.70410900  1
  N  N2  1  0.10669500  0.10669500  0.29589100  1
loop_
_geom_bond_atom_site_label_1
_geom_bond_atom_site_label_2
_geom_bond_distance
_geom_bond_site_symmetry_2
N0 N1 1.543538 1_455
N0 N2 1.543538 1_655
N0 N1 1.543538 1_545
N0 N2 1.543538 1_565
N1 Na0 2.459695 1_666
N1 Na0 2.488939 1_656
N1 Na0 2.488939 1_566
N2 Na0 2.459695 1_555
N2 Na0 2.488939 1_565
N2 Na0 2.488939 1_655
