# generated using pymatgen
data_Na2SO4
_symmetry_space_group_name_H-M   'P 1'
_cell_length_a   5.11347658
_cell_length_b   8.92441018
_cell_length_c   6.40140535
_cell_angle_alpha   63.05941641
_cell_angle_beta   84.00658337
_cell_angle_gamma   106.89235214
_symmetry_Int_Tables_number   1
_chemical_formula_structural   Na2SO4
_chemical_formula_sum   'Na4 S2 O8'
_cell_volume   239.45526875
_cell_formula_units_Z   2
loop_
 _symmetry_equiv_pos_site_id
 _symmetry_equiv_pos_as_xyz
  1  'x, y, z'
loop_
 _atom_site_type_symbol
 _atom_site_label
 _atom_site_symmetry_multiplicity
 _atom_site_fract_x
 _atom_site_fract_y
 _atom_site_fract_z
 _atom_site_occupancy
  Na  Na0  1  0.07120800  0.92718200  0.51656000  1
  Na  Na1  1  0.43056700  0.67447700  0.78562300  1
  Na  Na2  1  0.74826000  0.97788000  0.94808900  1
  Na  Na3  1  0.72562800  0.25347600  0.36127400  1
  S  S0  1  0.23165800  0.63265300  0.33420300  1
  S  S1  1  0.76545000  0.38190200  0.79252000  1
  O  O0  1  0.12082900  0.77292400  0.30125700  1
  O  O1  1  0.12901100  0.53308600  0.21065000  1
  O  O2  1  0.53568000  0.68908000  0.30649700  1
  O  O3  1  0.60090900  0.34252400  0.64051700  1
  O  O4  1  0.72420900  0.51434500  0.85299200  1
  O  O5  1  0.76574700  0.22150200  0.00647800  1
  O  O6  1  0.67510300  0.96821400  0.61958100  1
  O  O7  1  0.10974000  0.47675500  0.63555800  1
loop_
_geom_bond_atom_site_label_1
_geom_bond_atom_site_label_2
_geom_bond_distance
_geom_bond_site_symmetry_2
Na0 O6 2.245544 1_455
Na0 O0 2.389220 1_555
Na1 O6 2.204074 1_555
Na1 O4 2.303621 1_555
Na1 O1 2.500958 1_556
Na1 O7 2.628796 1_555
Na2 O6 2.208965 1_555
Na2 O5 2.346302 1_566
Na2 O2 2.362437 1_556
Na3 O6 2.235201 1_545
Na3 O3 2.361629 1_555
Na3 O5 2.409522 1_555
Na3 O1 2.413380 1_655
O0 S0 1.459714 1_555
O1 S0 1.463925 1_555
O2 S0 1.452028 1_555
O3 S1 1.444710 1_555
O4 S1 1.460753 1_555
O5 S1 1.466341 1_554
O7 S1 1.679102 1_455
O7 S0 1.690724 1_555
