# generated using pymatgen
data_Ba2TlCu3O7
_symmetry_space_group_name_H-M   'P 1'
_cell_length_a   3.85891300
_cell_length_b   3.94414400
_cell_length_c   11.88537000
_cell_angle_alpha   90.00000000
_cell_angle_beta   90.00000000
_cell_angle_gamma   90.00000000
_symmetry_Int_Tables_number   1
_chemical_formula_structural   Ba2TlCu3O7
_chemical_formula_sum   'Ba2 Tl1 Cu3 O7'
_cell_volume   180.89662162
_cell_formula_units_Z   1
loop_
 _symmetry_equiv_pos_site_id
 _symmetry_equiv_pos_as_xyz
  1  'x, y, z'
loop_
 _atom_site_type_symbol
 _atom_site_label
 _atom_site_symmetry_multiplicity
 _atom_site_fract_x
 _atom_site_fract_y
 _atom_site_fract_z
 _atom_site_occupancy
  Ba  Ba0  1  0.50000000  0.50000000  0.18181700  1
  Ba  Ba1  1  0.50000000  0.50000000  0.81818300  1
  Tl  Tl0  1  0.50000000  0.50000000  0.50000000  1
  Cu  Cu0  1  0.00000000  0.00000000  0.35393400  1
  Cu  Cu1  1  0.00000000  0.00000000  0.64606600  1
  Cu  Cu2  1  0.00000000  0.00000000  0.00000000  1
  O  O0  1  0.00000000  0.50000000  0.00000000  1
  O  O1  1  0.00000000  0.50000000  0.37538600  1
  O  O2  1  0.00000000  0.50000000  0.62461400  1
  O  O3  1  0.50000000  0.00000000  0.37619400  1
  O  O4  1  0.50000000  0.00000000  0.62380600  1
  O  O5  1  0.00000000  0.00000000  0.15734300  1
  O  O6  1  0.00000000  0.00000000  0.84265700  1
loop_
_geom_bond_atom_site_label_1
_geom_bond_atom_site_label_2
_geom_bond_distance
_geom_bond_site_symmetry_2
Ba0 O5 2.774254 1_555
Ba0 O5 2.774254 1_655
Ba0 O5 2.774254 1_565
Ba0 O5 2.774254 1_665
Ba0 O0 2.896992 1_655
Ba0 O0 2.896992 1_555
Ba0 O1 3.002623 1_655
Ba0 O1 3.002623 1_555
Ba0 O3 3.037481 1_565
Ba0 O3 3.037481 1_555
Ba1 O6 2.774254 1_665
Ba1 O6 2.774254 1_555
Ba1 O6 2.774254 1_565
Ba1 O6 2.774254 1_655
Ba1 O0 2.896992 1_556
Ba1 O0 2.896992 1_656
Ba1 O2 3.002623 1_655
Ba1 O2 3.002623 1_555
Ba1 O4 3.037481 1_555
Ba1 O4 3.037481 1_565
Cu0 O3 1.947511 1_455
Cu0 O3 1.947511 1_555
Cu0 O1 1.988486 1_555
Cu0 O1 1.988486 1_545
Cu0 O5 2.336557 1_555
Cu1 O4 1.947511 1_455
Cu1 O4 1.947511 1_555
Cu1 O2 1.988486 1_545
Cu1 O2 1.988486 1_555
Cu1 O6 2.336557 1_555
Cu2 O5 1.870080 1_555
Cu2 O6 1.870080 1_554
Cu2 O0 1.972072 1_545
Cu2 O0 1.972072 1_555
O1 Tl0 2.432367 1_555
O1 Tl0 2.432367 1_455
O2 Tl0 2.432367 1_555
O2 Tl0 2.432367 1_455
O3 Tl0 2.460553 1_545
O3 Tl0 2.460553 1_555
O4 Tl0 2.460553 1_545
O4 Tl0 2.460553 1_555
