# generated using pymatgen
data_Sm2Fe2O5
_symmetry_space_group_name_H-M   'P 1'
_cell_length_a   8.68197216
_cell_length_b   8.68197216
_cell_length_c   8.68197216
_cell_angle_alpha   143.09214156
_cell_angle_beta   140.80580300
_cell_angle_gamma   54.92761934
_symmetry_Int_Tables_number   1
_chemical_formula_structural   Sm2Fe2O5
_chemical_formula_sum   'Sm4 Fe4 O10'
_cell_volume   246.59609873
_cell_formula_units_Z   2
loop_
 _symmetry_equiv_pos_site_id
 _symmetry_equiv_pos_as_xyz
  1  'x, y, z'
loop_
 _atom_site_type_symbol
 _atom_site_label
 _atom_site_symmetry_multiplicity
 _atom_site_fract_x
 _atom_site_fract_y
 _atom_site_fract_z
 _atom_site_occupancy
  Sm  Sm0  1  0.90037000  0.37393900  0.50019900  1
  Sm  Sm1  1  0.09963000  0.59982900  0.47356900  1
  Sm  Sm2  1  0.37374000  0.87393900  0.47356900  1
  Sm  Sm3  1  0.62626000  0.09982900  0.50019900  1
  Fe  Fe0  1  0.00000000  0.00655800  0.00655800  1
  Fe  Fe1  1  0.50000000  0.50655800  0.00655800  1
  Fe  Fe2  1  0.71465000  0.72464400  0.93929400  1
  Fe  Fe3  1  0.28535000  0.22464400  0.00999400  1
  O  O0  1  0.29151600  0.27461900  0.50493600  1
  O  O1  1  0.70848400  0.21342000  0.98310300  1
  O  O2  1  0.26968300  0.77461900  0.98310300  1
  O  O3  1  0.73031700  0.71342000  0.50493600  1
  O  O4  1  0.96547000  0.92748500  0.17364800  1
  O  O5  1  0.03453000  0.20817700  0.96201500  1
  O  O6  1  0.25383700  0.42748500  0.96201500  1
  O  O7  1  0.74616300  0.70817700  0.17364800  1
  O  O8  1  0.63783800  0.33532800  0.47316600  1
  O  O9  1  0.36216200  0.83532800  0.69749100  1
loop_
_geom_bond_atom_site_label_1
_geom_bond_atom_site_label_2
_geom_bond_distance
_geom_bond_site_symmetry_2
Fe0 O1 2.057873 1_454
Fe0 O0 2.057873 1_555
Fe0 O3 2.059944 1_444
Fe0 O2 2.059944 1_544
Fe0 O5 2.273507 1_554
Fe0 O4 2.273516 1_445
Fe1 O2 2.057873 1_554
Fe1 O3 2.057873 1_555
Fe1 O0 2.059944 1_554
Fe1 O1 2.059944 1_554
Fe1 O7 2.273509 1_555
Fe1 O6 2.273516 1_554
Fe2 O4 1.947427 1_556
Fe2 O7 1.947434 1_556
Fe2 O9 2.141112 1_555
Fe2 O8 2.186104 1_555
Fe3 O6 1.947427 1_554
Fe3 O5 1.947432 1_554
Fe3 O8 2.141114 1_555
Fe3 O9 2.186102 1_544
O0 Sm3 2.401635 1_555
O0 Sm1 2.437678 1_555
O1 Sm2 2.401635 1_545
O1 Sm0 2.437678 1_556
O2 Sm1 2.401635 1_555
O2 Sm3 2.437678 1_566
O3 Sm0 2.401635 1_555
O3 Sm2 2.437678 1_555
O4 Sm2 2.301389 1_655
O4 Sm0 2.402829 1_565
O5 Sm3 2.301390 1_455
O5 Sm1 2.402830 1_556
O6 Sm0 2.301389 1_455
O6 Sm2 2.402829 1_556
O7 Sm1 2.301384 1_655
O7 Sm3 2.402831 1_565
O8 Sm3 2.299070 1_555
O8 Sm0 2.299070 1_555
O9 Sm1 2.299065 1_555
O9 Sm2 2.299079 1_555
