# generated using pymatgen
data_Nd2(CuAg)5
_symmetry_space_group_name_H-M   'P 1'
_cell_length_a   4.48510000
_cell_length_b   5.26650800
_cell_length_c   9.38027500
_cell_angle_alpha   90.00000000
_cell_angle_beta   90.00000000
_cell_angle_gamma   90.00000000
_symmetry_Int_Tables_number   1
_chemical_formula_structural   Nd2(CuAg)5
_chemical_formula_sum   'Nd2 Cu5 Ag5'
_cell_volume   221.56974071
_cell_formula_units_Z   1
loop_
 _symmetry_equiv_pos_site_id
 _symmetry_equiv_pos_as_xyz
  1  'x, y, z'
loop_
 _atom_site_type_symbol
 _atom_site_label
 _atom_site_symmetry_multiplicity
 _atom_site_fract_x
 _atom_site_fract_y
 _atom_site_fract_z
 _atom_site_occupancy
  Nd  Nd0  1  0.00000000  0.50000000  0.00000000  1
  Nd  Nd1  1  0.00000000  0.00000000  0.50000000  1
  Cu  Cu0  1  0.50000000  0.50000000  0.50000000  1
  Cu  Cu1  1  0.50000000  0.74764100  0.25854200  1
  Cu  Cu2  1  0.50000000  0.25235900  0.74145800  1
  Cu  Cu3  1  0.50000000  0.25235900  0.25854200  1
  Cu  Cu4  1  0.50000000  0.74764100  0.74145800  1
  Ag  Ag0  1  0.00000000  0.50000000  0.33380000  1
  Ag  Ag1  1  0.00000000  0.00000000  0.82160000  1
  Ag  Ag2  1  0.00000000  0.00000000  0.17840000  1
  Ag  Ag3  1  0.00000000  0.50000000  0.66620000  1
  Ag  Ag4  1  0.50000000  0.00000000  0.00000000  1
loop_
_geom_bond_atom_site_label_1
_geom_bond_atom_site_label_2
_geom_bond_distance
_geom_bond_site_symmetry_2
Cu0 Cu2 2.613601 1_555
Cu0 Cu4 2.613601 1_555
Cu0 Cu3 2.613601 1_555
Cu0 Cu1 2.613601 1_555
Cu0 Nd1 3.458765 1_655
Cu0 Nd1 3.458765 1_555
Cu0 Nd1 3.458765 1_565
Cu0 Nd1 3.458765 1_665
Cu1 Cu3 2.608407 1_555
Cu1 Cu3 2.658101 1_565
Cu1 Nd1 3.453313 1_665
Cu1 Nd1 3.453313 1_565
Cu1 Nd0 3.551274 1_555
Cu1 Nd0 3.551274 1_655
Cu2 Cu4 2.608407 1_555
Cu2 Cu4 2.658101 1_545
Cu2 Nd1 3.453313 1_655
Cu2 Nd1 3.453313 1_555
Cu2 Nd0 3.551274 1_556
Cu2 Nd0 3.551274 1_656
Cu3 Nd1 3.453313 1_655
Cu3 Nd1 3.453313 1_555
Cu3 Nd0 3.551274 1_555
Cu3 Nd0 3.551274 1_655
Cu4 Nd1 3.453313 1_665
Cu4 Nd1 3.453313 1_565
Cu4 Nd0 3.551274 1_556
Cu4 Nd0 3.551274 1_656
Ag0 Cu3 2.688555 1_555
Ag0 Cu3 2.688555 1_455
Ag0 Cu1 2.688555 1_455
Ag0 Cu1 2.688555 1_555
Ag0 Cu0 2.731212 1_555
Ag0 Cu0 2.731212 1_455
Ag0 Ag2 3.009801 1_555
Ag0 Ag2 3.009801 1_565
Ag0 Nd1 3.060149 1_565
Ag0 Nd1 3.060149 1_555
Ag0 Nd0 3.131136 1_555
Ag1 Cu4 2.713032 1_545
Ag1 Cu2 2.713032 1_555
Ag1 Cu2 2.713032 1_455
Ag1 Cu4 2.713032 1_445
Ag1 Ag4 2.798113 1_456
Ag1 Ag4 2.798113 1_556
Ag1 Ag3 3.009801 1_545
Ag1 Ag3 3.009801 1_555
Ag1 Nd1 3.016696 1_555
Ag1 Nd0 3.120005 1_556
Ag1 Nd0 3.120005 1_546
Ag1 Ag2 3.346882 1_556
Ag2 Cu1 2.713032 1_545
Ag2 Cu3 2.713032 1_555
Ag2 Cu3 2.713032 1_455
Ag2 Cu1 2.713032 1_445
Ag2 Ag4 2.798113 1_455
Ag2 Ag4 2.798113 1_555
Ag2 Nd1 3.016696 1_555
Ag2 Nd0 3.120005 1_555
Ag2 Nd0 3.120005 1_545
Ag3 Cu4 2.688555 1_455
Ag3 Cu2 2.688555 1_555
Ag3 Cu2 2.688555 1_455
Ag3 Cu4 2.688555 1_555
Ag3 Cu0 2.731212 1_555
Ag3 Cu0 2.731212 1_455
Ag3 Nd1 3.060149 1_565
Ag3 Nd1 3.060149 1_555
Ag3 Nd0 3.131136 1_556
Ag4 Cu3 2.765492 1_555
Ag4 Cu1 2.765492 1_545
Ag4 Cu2 2.765492 1_554
Ag4 Cu4 2.765492 1_544
Ag4 Nd0 3.458765 1_555
Ag4 Nd0 3.458765 1_545
Ag4 Nd0 3.458765 1_655
Ag4 Nd0 3.458765 1_645
