# generated using pymatgen
data_ErZnGe
_symmetry_space_group_name_H-M   'P 1'
_cell_length_a   4.16367185
_cell_length_b   4.16367185
_cell_length_c   15.56094967
_cell_angle_alpha   90.00000000
_cell_angle_beta   90.00000000
_cell_angle_gamma   119.99999896
_symmetry_Int_Tables_number   1
_chemical_formula_structural   ErZnGe
_chemical_formula_sum   'Er4 Zn4 Ge4'
_cell_volume   233.62522024
_cell_formula_units_Z   4
loop_
 _symmetry_equiv_pos_site_id
 _symmetry_equiv_pos_as_xyz
  1  'x, y, z'
loop_
 _atom_site_type_symbol
 _atom_site_label
 _atom_site_symmetry_multiplicity
 _atom_site_fract_x
 _atom_site_fract_y
 _atom_site_fract_z
 _atom_site_occupancy
  Er  Er0  1  0.00000000  -0.00000000  0.25000000  1
  Er  Er1  1  0.00000000  0.00000000  0.75000000  1
  Er  Er2  1  0.00000000  0.00000000  -0.00000000  1
  Er  Er3  1  0.00000000  0.00000000  0.50000000  1
  Zn  Zn0  1  0.33333300  0.66666700  0.14838754  1
  Zn  Zn1  1  0.66666700  0.33333300  0.85161246  1
  Zn  Zn2  1  0.66666700  0.33333300  0.64838754  1
  Zn  Zn3  1  0.33333300  0.66666700  0.35161246  1
  Ge  Ge0  1  0.33333300  0.66666700  0.61368488  1
  Ge  Ge1  1  0.66666700  0.33333300  0.38631512  1
  Ge  Ge2  1  0.66666700  0.33333300  0.11368488  1
  Ge  Ge3  1  0.33333300  0.66666700  0.88631512  1
loop_
_geom_bond_atom_site_label_1
_geom_bond_atom_site_label_2
_geom_bond_distance
_geom_bond_site_symmetry_2
Er0 Zn0 2.877301 1_545
Er0 Zn3 2.877301 1_545
Er0 Zn0 2.877304 1_445
Er0 Zn0 2.877304 1_555
Er0 Zn3 2.877304 1_445
Er0 Zn3 2.877304 1_555
Er0 Ge1 3.205958 1_455
Er0 Ge2 3.205958 1_455
Er0 Ge1 3.205961 1_445
Er0 Ge2 3.205961 1_555
Er0 Ge2 3.205961 1_445
Er0 Ge1 3.205961 1_555
Er1 Zn1 2.877301 1_455
Er1 Zn2 2.877301 1_455
Er1 Zn2 2.877304 1_445
Er1 Zn2 2.877304 1_555
Er1 Zn1 2.877304 1_445
Er1 Zn1 2.877304 1_555
Er1 Ge0 3.205958 1_545
Er1 Ge3 3.205958 1_545
Er1 Ge3 3.205961 1_555
Er1 Ge0 3.205961 1_445
Er1 Ge3 3.205961 1_445
Er1 Ge0 3.205961 1_555
Er2 Ge3 2.984666 1_544
Er2 Ge2 2.984666 1_455
Er2 Ge3 2.984669 1_444
Er2 Ge3 2.984669 1_554
Er2 Ge2 2.984669 1_445
Er2 Ge2 2.984669 1_555
Er3 Ge1 2.984666 1_455
Er3 Ge0 2.984666 1_545
Er3 Ge0 2.984669 1_445
Er3 Ge0 2.984669 1_555
Er3 Ge1 2.984669 1_445
Er3 Ge1 2.984669 1_555
Ge0 Zn2 2.463801 1_565
Ge0 Zn2 2.463801 1_455
Ge0 Zn2 2.463808 1_555
Ge1 Zn3 2.463801 1_545
Ge1 Zn3 2.463801 1_655
Ge1 Zn3 2.463808 1_555
Ge2 Zn0 2.463801 1_655
Ge2 Zn0 2.463801 1_545
Ge2 Zn0 2.463808 1_555
Ge3 Zn1 2.463801 1_455
Ge3 Zn1 2.463801 1_565
Ge3 Zn1 2.463808 1_555
