# generated using pymatgen
data_EuCu(WO4)2
_symmetry_space_group_name_H-M   'P 1'
_cell_length_a   7.31628900
_cell_length_b   7.44596013
_cell_length_c   7.76365719
_cell_angle_alpha   114.98867032
_cell_angle_beta   115.61267968
_cell_angle_gamma   91.04403771
_symmetry_Int_Tables_number   1
_chemical_formula_structural   EuCu(WO4)2
_chemical_formula_sum   'Eu2 Cu2 W4 O16'
_cell_volume   335.08098245
_cell_formula_units_Z   2
loop_
 _symmetry_equiv_pos_site_id
 _symmetry_equiv_pos_as_xyz
  1  'x, y, z'
loop_
 _atom_site_type_symbol
 _atom_site_label
 _atom_site_symmetry_multiplicity
 _atom_site_fract_x
 _atom_site_fract_y
 _atom_site_fract_z
 _atom_site_occupancy
  Eu  Eu0  1  0.18902100  0.27906300  0.46407200  1
  Eu  Eu1  1  0.81097900  0.72093700  0.53592800  1
  Cu  Cu0  1  0.22739000  0.67077100  0.95466500  1
  Cu  Cu1  1  0.77261000  0.32922900  0.04533500  1
  W  W0  1  0.26872900  0.29774700  0.03944800  1
  W  W1  1  0.73127100  0.70225300  0.96055200  1
  W  W2  1  0.64917400  0.10704700  0.29249300  1
  W  W3  1  0.35082600  0.89295300  0.70750700  1
  O  O0  1  0.20188700  0.37037300  0.82029300  1
  O  O1  1  0.79811300  0.62962700  0.17970700  1
  O  O2  1  0.45374300  0.53801700  0.26212900  1
  O  O3  1  0.54625700  0.46198300  0.73787100  1
  O  O4  1  0.85479500  0.00653800  0.19778600  1
  O  O5  1  0.14520500  0.99346200  0.80221400  1
  O  O6  1  0.70503200  0.01289200  0.48166600  1
  O  O7  1  0.29496800  0.98710800  0.51833400  1
  O  O8  1  0.17892300  0.63607100  0.54970000  1
  O  O9  1  0.82107700  0.36392900  0.45030000  1
  O  O10  1  0.47718000  0.82278500  0.00284400  1
  O  O11  1  0.52282000  0.17721500  0.99715600  1
  O  O12  1  0.04335000  0.30983800  0.08832600  1
  O  O13  1  0.95665000  0.69016200  0.91167400  1
  O  O14  1  0.38364100  0.16947000  0.25149400  1
  O  O15  1  0.61635900  0.83053000  0.74850600  1
loop_
_geom_bond_atom_site_label_1
_geom_bond_atom_site_label_2
_geom_bond_distance
_geom_bond_site_symmetry_2
Eu0 O3 2.413617 1_555
Eu0 O7 2.461079 1_545
Eu0 O8 2.463809 1_555
Eu0 O4 2.505052 1_455
Eu0 O0 2.510680 1_555
Eu0 O14 2.520587 1_555
Eu0 O9 2.743674 1_455
Eu0 O12 2.753891 1_555
Eu1 O2 2.413617 1_555
Eu1 O6 2.461079 1_565
Eu1 O9 2.463809 1_555
Eu1 O5 2.505052 1_655
Eu1 O1 2.510680 1_555
Eu1 O15 2.520587 1_555
Eu1 O8 2.743674 1_655
Eu1 O13 2.753891 1_555
Cu0 O13 1.880268 1_455
Cu0 O10 1.933102 1_556
Cu0 O0 1.992793 1_555
Cu1 O12 1.880268 1_655
Cu1 O11 1.933102 1_554
Cu1 O1 1.992793 1_555
O0 W0 1.869257 1_556
O1 W1 1.869257 1_554
O2 W0 1.815800 1_555
O3 W1 1.815800 1_555
O4 W2 1.973910 1_555
O4 W1 2.074368 1_544
O5 W3 1.973910 1_555
O5 W0 2.074368 1_566
O6 W2 1.782406 1_555
O7 W3 1.782406 1_555
O8 W3 1.828005 1_555
O9 W2 1.828005 1_555
O10 W2 2.134335 1_565
O10 W1 2.169958 1_554
O10 W3 2.362643 1_554
O11 W3 2.134335 1_545
O11 W0 2.169958 1_556
O11 W2 2.362643 1_556
O12 W0 1.840823 1_555
O13 W1 1.840823 1_555
O14 W2 1.927376 1_555
O14 W0 2.119062 1_555
O15 W3 1.927376 1_555
O15 W1 2.119062 1_555
