# generated using pymatgen
data_CrAgS2
_symmetry_space_group_name_H-M   'P 1'
_cell_length_a   3.54033789
_cell_length_b   10.61220133
_cell_length_c   7.94764690
_cell_angle_alpha   79.72553599
_cell_angle_beta   90.08759523
_cell_angle_gamma   90.06800250
_symmetry_Int_Tables_number   1
_chemical_formula_structural   CrAgS2
_chemical_formula_sum   'Cr4 Ag4 S8'
_cell_volume   293.81066074
_cell_formula_units_Z   4
loop_
 _symmetry_equiv_pos_site_id
 _symmetry_equiv_pos_as_xyz
  1  'x, y, z'
loop_
 _atom_site_type_symbol
 _atom_site_label
 _atom_site_symmetry_multiplicity
 _atom_site_fract_x
 _atom_site_fract_y
 _atom_site_fract_z
 _atom_site_occupancy
  Cr  Cr0  1  0.99978400  0.49728800  0.50310800  1
  Cr  Cr1  1  0.49915900  0.75298300  0.24648100  1
  Cr  Cr2  1  0.99975700  0.99726700  0.00308700  1
  Cr  Cr3  1  0.49915000  0.25298300  0.74642900  1
  Ag  Ag0  1  0.99951300  0.15409600  0.30461900  1
  Ag  Ag1  1  0.49908200  0.40369000  0.05960100  1
  Ag  Ag2  1  0.99952300  0.65409500  0.80465900  1
  Ag  Ag3  1  0.49909900  0.90370300  0.55955000  1
  S  S0  1  0.99844900  0.26985200  0.54206900  1
  S  S1  1  0.49894600  0.52311300  0.29691900  1
  S  S2  1  0.99846400  0.76983400  0.04211900  1
  S  S3  1  0.49892800  0.02310500  0.79688200  1
  S  S4  1  0.00036300  0.23097400  0.96025200  1
  S  S5  1  0.50051100  0.48391400  0.71668400  1
  S  S6  1  0.00037300  0.73098800  0.46029200  1
  S  S7  1  0.50049800  0.98391500  0.21664900  1
loop_
_geom_bond_atom_site_label_1
_geom_bond_atom_site_label_2
_geom_bond_distance
_geom_bond_site_symmetry_2
Cr0 S0 2.377966 1_555
Cr0 S1 2.393951 1_655
Cr0 S1 2.395115 1_555
Cr0 S5 2.438941 1_555
Cr0 S5 2.439154 1_655
Cr0 S6 2.442435 1_655
Cr1 S2 2.387301 1_555
Cr1 S2 2.387582 1_455
Cr1 S1 2.400553 1_555
Cr1 S7 2.419680 1_555
Cr1 S6 2.434561 1_555
Cr1 S6 2.437435 1_655
Cr2 S2 2.377906 1_555
Cr2 S3 2.394058 1_664
Cr2 S3 2.395174 1_564
Cr2 S7 2.438844 1_555
Cr2 S7 2.439129 1_655
Cr2 S4 2.442502 1_664
Cr3 S0 2.387265 1_555
Cr3 S0 2.387579 1_455
Cr3 S3 2.400635 1_555
Cr3 S5 2.419727 1_555
Cr3 S4 2.434624 1_555
Cr3 S4 2.437493 1_655
Ag0 S0 2.428470 1_555
Ag0 S7 2.703826 1_545
Ag0 S7 2.712585 1_645
Ag0 S4 2.712888 1_654
Ag1 S1 2.452817 1_555
Ag1 S5 2.706450 1_554
Ag1 S4 2.757672 1_554
Ag1 S4 2.767818 1_654
Ag2 S2 2.428422 1_556
Ag2 S5 2.703835 1_555
Ag2 S5 2.712607 1_655
Ag2 S6 2.712907 1_655
Ag3 S3 2.452767 1_565
Ag3 S7 2.706312 1_555
Ag3 S6 2.757388 1_555
Ag3 S6 2.767502 1_655
