# generated using pymatgen
data_SrIn5Au3
_symmetry_space_group_name_H-M   'P 1'
_cell_length_a   4.52642300
_cell_length_b   12.82314600
_cell_length_c   15.35934600
_cell_angle_alpha   90.00000000
_cell_angle_beta   90.00000000
_cell_angle_gamma   90.00000000
_symmetry_Int_Tables_number   1
_chemical_formula_structural   SrIn5Au3
_chemical_formula_sum   'Sr4 In20 Au12'
_cell_volume   891.50225857
_cell_formula_units_Z   4
loop_
 _symmetry_equiv_pos_site_id
 _symmetry_equiv_pos_as_xyz
  1  'x, y, z'
loop_
 _atom_site_type_symbol
 _atom_site_label
 _atom_site_symmetry_multiplicity
 _atom_site_fract_x
 _atom_site_fract_y
 _atom_site_fract_z
 _atom_site_occupancy
  Sr  Sr0  1  0.25000000  0.89593600  0.29589300  1
  Sr  Sr1  1  0.75000000  0.10406400  0.70410700  1
  Sr  Sr2  1  0.75000000  0.39593600  0.20410700  1
  Sr  Sr3  1  0.25000000  0.60406400  0.79589300  1
  In  In0  1  0.25000000  0.41168000  0.00606400  1
  In  In1  1  0.75000000  0.58832000  0.99393600  1
  In  In2  1  0.75000000  0.91168000  0.49393600  1
  In  In3  1  0.25000000  0.08832000  0.50606400  1
  In  In4  1  0.25000000  0.60472900  0.31074700  1
  In  In5  1  0.75000000  0.39527100  0.68925300  1
  In  In6  1  0.75000000  0.10472900  0.18925300  1
  In  In7  1  0.25000000  0.89527100  0.81074700  1
  In  In8  1  0.25000000  0.01467900  0.06926100  1
  In  In9  1  0.75000000  0.98532100  0.93073900  1
  In  In10  1  0.75000000  0.51467900  0.43073900  1
  In  In11  1  0.25000000  0.48532100  0.56926100  1
  In  In12  1  0.25000000  0.77396800  0.02596100  1
  In  In13  1  0.75000000  0.22603200  0.97403900  1
  In  In14  1  0.75000000  0.27396800  0.47403900  1
  In  In15  1  0.25000000  0.72603200  0.52596100  1
  In  In16  1  0.25000000  0.19861100  0.30468600  1
  In  In17  1  0.75000000  0.80138900  0.69531400  1
  In  In18  1  0.75000000  0.69861100  0.19531400  1
  In  In19  1  0.25000000  0.30138900  0.80468600  1
  Au  Au0  1  0.25000000  0.57870400  0.12466100  1
  Au  Au1  1  0.75000000  0.42129600  0.87533900  1
  Au  Au2  1  0.75000000  0.07870400  0.37533900  1
  Au  Au3  1  0.25000000  0.92129600  0.62466100  1
  Au  Au4  1  0.25000000  0.23155200  0.11077200  1
  Au  Au5  1  0.75000000  0.76844800  0.88922800  1
  Au  Au6  1  0.75000000  0.73155200  0.38922800  1
  Au  Au7  1  0.25000000  0.26844800  0.61077200  1
  Au  Au8  1  0.25000000  0.39206400  0.38174300  1
  Au  Au9  1  0.75000000  0.60793600  0.61825700  1
  Au  Au10  1  0.75000000  0.89206400  0.11825700  1
  Au  Au11  1  0.25000000  0.10793600  0.88174300  1
loop_
_geom_bond_atom_site_label_1
_geom_bond_atom_site_label_2
_geom_bond_distance
_geom_bond_site_symmetry_2
Au0 In0 2.811640 1_555
Au0 In4 2.877576 1_555
Au0 In12 2.927058 1_555
Au0 In18 2.943453 1_555
Au0 In18 2.943453 1_455
Au0 In1 3.028002 1_454
Au0 In1 3.028002 1_554
Au0 Sr2 3.479059 1_555
Au0 Sr2 3.479059 1_455
Au1 In1 2.811640 1_555
Au1 In5 2.877576 1_555
Au1 In13 2.927058 1_555
Au1 In19 2.943453 1_655
Au1 In19 2.943453 1_555
Au1 In0 3.028002 1_556
Au1 In0 3.028002 1_656
Au1 Sr3 3.479059 1_555
Au1 Sr3 3.479059 1_655
Au2 In2 2.811640 1_545
Au2 In6 2.877576 1_555
Au2 In14 2.927058 1_555
Au2 In16 2.943453 1_555
Au2 In16 2.943453 1_655
Au2 In3 3.028002 1_555
Au2 In3 3.028002 1_655
Au2 Sr0 3.479059 1_645
Au2 Sr0 3.479059 1_545
Au3 In3 2.811640 1_565
Au3 In7 2.877576 1_555
Au3 In15 2.927058 1_555
Au3 In17 2.943453 1_555
Au3 In17 2.943453 1_455
Au3 In2 3.028002 1_455
Au3 In2 3.028002 1_555
Au3 Sr1 3.479059 1_565
Au3 Sr1 3.479059 1_465
Au4 In0 2.814546 1_555
Au4 In8 2.853145 1_555
Au4 In16 3.008197 1_555
Au4 In6 3.036430 1_555
Au4 In6 3.036430 1_455
Au4 In13 3.088314 1_554
Au4 In13 3.088314 1_454
Au4 Sr2 3.408894 1_455
Au4 Sr2 3.408894 1_555
Au5 In1 2.814546 1_555
Au5 In9 2.853145 1_555
Au5 In17 3.008197 1_555
Au5 In7 3.036430 1_655
Au5 In7 3.036430 1_555
Au5 In12 3.088314 1_656
Au5 In12 3.088314 1_556
Au5 Sr3 3.408894 1_655
Au5 Sr3 3.408894 1_555
Au6 In2 2.814546 1_555
Au6 In10 2.853145 1_555
Au6 In18 3.008197 1_555
Au6 In4 3.036430 1_655
Au6 In4 3.036430 1_555
Au6 In15 3.088314 1_555
Au6 In15 3.088314 1_655
Au6 Sr0 3.408894 1_655
Au6 Sr0 3.408894 1_555
Au7 In3 2.814546 1_555
Au7 In11 2.853145 1_555
Au7 In19 3.008197 1_555
Au7 In5 3.036430 1_555
Au7 In5 3.036430 1_455
Au7 In14 3.088314 1_455
Au7 In14 3.088314 1_555
Au7 Sr1 3.408894 1_455
Au7 Sr1 3.408894 1_555
Au8 In16 2.748551 1_555
Au8 In10 2.856678 1_455
Au8 In10 2.856678 1_555
Au8 In4 2.936972 1_555
Au8 In14 3.070021 1_555
Au8 In14 3.070021 1_455
Au8 In11 3.118548 1_555
Au8 Sr2 3.545223 1_455
Au8 Sr2 3.545223 1_555
Au9 In17 2.748551 1_555
Au9 In11 2.856678 1_655
Au9 In11 2.856678 1_555
Au9 In5 2.936972 1_555
Au9 In15 3.070021 1_655
Au9 In15 3.070021 1_555
Au9 In10 3.118548 1_555
Au9 Sr3 3.545223 1_555
Au9 Sr3 3.545223 1_655
Au10 In18 2.748551 1_555
Au10 In8 2.856678 1_565
Au10 In8 2.856678 1_665
Au10 In6 2.936972 1_565
Au10 In12 3.070021 1_655
Au10 In12 3.070021 1_555
Au10 In9 3.118548 1_554
Au10 Sr0 3.545223 1_555
Au10 Sr0 3.545223 1_655
Au11 In19 2.748551 1_555
Au11 In9 2.856678 1_445
Au11 In9 2.856678 1_545
Au11 In7 2.936972 1_545
Au11 In13 3.070021 1_455
Au11 In13 3.070021 1_555
Au11 In8 3.118548 1_556
Au11 Sr1 3.545223 1_455
Au11 Sr1 3.545223 1_555
