# generated using pymatgen
data_CeAsO4
_symmetry_space_group_name_H-M   'P 1'
_cell_length_a   7.26654200
_cell_length_b   6.83103400
_cell_length_c   8.41905426
_cell_angle_alpha   53.57661636
_cell_angle_beta   90.00000000
_cell_angle_gamma   90.00000000
_symmetry_Int_Tables_number   1
_chemical_formula_structural   CeAsO4
_chemical_formula_sum   'Ce4 As4 O16'
_cell_volume   336.26788466
_cell_formula_units_Z   4
loop_
 _symmetry_equiv_pos_site_id
 _symmetry_equiv_pos_as_xyz
  1  'x, y, z'
loop_
 _atom_site_type_symbol
 _atom_site_label
 _atom_site_symmetry_multiplicity
 _atom_site_fract_x
 _atom_site_fract_y
 _atom_site_fract_z
 _atom_site_occupancy
  Ce  Ce0  1  0.15189400  0.18618600  0.21607200  1
  Ce  Ce1  1  0.34810600  0.18618600  0.71607200  1
  Ce  Ce2  1  0.65189400  0.81381400  0.28392800  1
  Ce  Ce3  1  0.84810600  0.81381400  0.78392800  1
  As  As0  1  0.16258300  0.69074800  0.19624000  1
  As  As1  1  0.66258300  0.30925200  0.30376000  1
  As  As2  1  0.83741700  0.30925200  0.80376000  1
  As  As3  1  0.33741700  0.69074800  0.69624000  1
  O  O0  1  0.60658400  0.34560800  0.48399500  1
  O  O1  1  0.89341600  0.34560800  0.98399500  1
  O  O2  1  0.65722200  0.10488200  0.89307000  1
  O  O3  1  0.84277800  0.10488200  0.39307000  1
  O  O4  1  0.21513100  0.39320300  0.38256900  1
  O  O5  1  0.50359600  0.82613400  0.74687100  1
  O  O6  1  0.15722200  0.89511800  0.60693000  1
  O  O7  1  0.71513100  0.60679700  0.11743100  1
  O  O8  1  0.99640400  0.82613400  0.24687100  1
  O  O9  1  0.39341600  0.65439200  0.51600500  1
  O  O10  1  0.00359600  0.17386600  0.75312900  1
  O  O11  1  0.28486900  0.39320300  0.88256900  1
  O  O12  1  0.78486900  0.60679700  0.61743100  1
  O  O13  1  0.10658400  0.65439200  0.01600500  1
  O  O14  1  0.34277800  0.89511800  0.10693000  1
  O  O15  1  0.49640400  0.17386600  0.25312900  1
loop_
_geom_bond_atom_site_label_1
_geom_bond_atom_site_label_2
_geom_bond_distance
_geom_bond_site_symmetry_2
Ce0 O1 2.450430 1_454
Ce0 O11 2.470230 1_554
Ce0 O15 2.517982 1_555
Ce0 O4 2.555342 1_555
Ce0 O3 2.567424 1_455
Ce0 O8 2.576005 1_445
Ce0 O13 2.603380 1_555
Ce0 O6 2.648338 1_545
Ce0 O14 2.981801 1_545
Ce1 O0 2.450430 1_555
Ce1 O4 2.470230 1_555
Ce1 O10 2.517982 1_555
Ce1 O11 2.555342 1_555
Ce1 O2 2.567424 1_555
Ce1 O5 2.576005 1_545
Ce1 O9 2.603380 1_555
Ce1 O14 2.648338 1_546
Ce1 O6 2.981801 1_545
Ce2 O9 2.450430 1_555
Ce2 O12 2.470230 1_555
Ce2 O8 2.517982 1_555
Ce2 O7 2.555342 1_555
Ce2 O14 2.567424 1_555
Ce2 O15 2.576005 1_565
Ce2 O0 2.603380 1_555
Ce2 O2 2.648338 1_564
Ce2 O3 2.981801 1_565
Ce3 O13 2.450430 1_656
Ce3 O7 2.470230 1_556
Ce3 O5 2.517982 1_555
Ce3 O12 2.555342 1_555
Ce3 O6 2.567424 1_655
Ce3 O10 2.576005 1_665
Ce3 O1 2.603380 1_555
Ce3 O3 2.648338 1_565
Ce3 O2 2.981801 1_565
As0 O4 1.718019 1_555
As0 O8 1.721427 1_455
As0 O13 1.725483 1_555
As0 O14 1.726944 1_555
As1 O7 1.718019 1_555
As1 O15 1.721427 1_555
As1 O0 1.725483 1_555
As1 O3 1.726944 1_555
As2 O12 1.718019 1_555
As2 O10 1.721427 1_655
As2 O1 1.725483 1_555
As2 O2 1.726944 1_555
As3 O11 1.718019 1_555
As3 O5 1.721427 1_555
As3 O9 1.725483 1_555
As3 O6 1.726944 1_555
