# generated using pymatgen
data_YMg2
_symmetry_space_group_name_H-M   'P 1'
_cell_length_a   13.50325893
_cell_length_b   13.50325893
_cell_length_c   14.69689141
_cell_angle_alpha   75.25864011
_cell_angle_beta   75.25864011
_cell_angle_gamma   29.04931675
_symmetry_Int_Tables_number   1
_chemical_formula_structural   YMg2
_chemical_formula_sum   'Y16 Mg32'
_cell_volume   1255.45326738
_cell_formula_units_Z   16
loop_
 _symmetry_equiv_pos_site_id
 _symmetry_equiv_pos_as_xyz
  1  'x, y, z'
loop_
 _atom_site_type_symbol
 _atom_site_label
 _atom_site_symmetry_multiplicity
 _atom_site_fract_x
 _atom_site_fract_y
 _atom_site_fract_z
 _atom_site_occupancy
  Y  Y0_0  1  0.25959150  0.25959150  0.11290450  1
  Y  Y0_1  1  0.25959150  0.25959150  0.61290450  1
  Y  Y0_2  1  0.25959150  0.75959150  0.11290450  1
  Y  Y0_3  1  0.25959150  0.75959150  0.61290450  1
  Y  Y0_4  1  0.75959150  0.25959150  0.11290450  1
  Y  Y0_5  1  0.75959150  0.25959150  0.61290450  1
  Y  Y0_6  1  0.75959150  0.75959150  0.11290450  1
  Y  Y0_7  1  0.75959150  0.75959150  0.61290450  1
  Y  Y1_0  1  0.24040850  0.24040850  0.38709550  1
  Y  Y1_1  1  0.24040850  0.24040850  0.88709550  1
  Y  Y1_2  1  0.24040850  0.74040850  0.38709550  1
  Y  Y1_3  1  0.24040850  0.74040850  0.88709550  1
  Y  Y1_4  1  0.74040850  0.24040850  0.38709550  1
  Y  Y1_5  1  0.74040850  0.24040850  0.88709550  1
  Y  Y1_6  1  0.74040850  0.74040850  0.38709550  1
  Y  Y1_7  1  0.74040850  0.74040850  0.88709550  1
  Mg  Mg0_0  1  0.40326500  0.40326500  0.06429250  1
  Mg  Mg0_1  1  0.40326500  0.40326500  0.56429250  1
  Mg  Mg0_2  1  0.40326500  0.90326500  0.06429250  1
  Mg  Mg0_3  1  0.40326500  0.90326500  0.56429250  1
  Mg  Mg0_4  1  0.90326500  0.40326500  0.06429250  1
  Mg  Mg0_5  1  0.90326500  0.40326500  0.56429250  1
  Mg  Mg0_6  1  0.90326500  0.90326500  0.06429250  1
  Mg  Mg0_7  1  0.90326500  0.90326500  0.56429250  1
  Mg  Mg1_0  1  0.08033650  0.08033650  0.22968550  1
  Mg  Mg1_1  1  0.08033650  0.08033650  0.72968550  1
  Mg  Mg1_2  1  0.08033650  0.58033650  0.22968550  1
  Mg  Mg1_3  1  0.08033650  0.58033650  0.72968550  1
  Mg  Mg1_4  1  0.58033650  0.08033650  0.22968550  1
  Mg  Mg1_5  1  0.58033650  0.08033650  0.72968550  1
  Mg  Mg1_6  1  0.58033650  0.58033650  0.22968550  1
  Mg  Mg1_7  1  0.58033650  0.58033650  0.72968550  1
  Mg  Mg2_0  1  0.41966350  0.41966350  0.27031450  1
  Mg  Mg2_1  1  0.41966350  0.41966350  0.77031450  1
  Mg  Mg2_2  1  0.41966350  0.91966350  0.27031450  1
  Mg  Mg2_3  1  0.41966350  0.91966350  0.77031450  1
  Mg  Mg2_4  1  0.91966350  0.41966350  0.27031450  1
  Mg  Mg2_5  1  0.91966350  0.41966350  0.77031450  1
  Mg  Mg2_6  1  0.91966350  0.91966350  0.27031450  1
  Mg  Mg2_7  1  0.91966350  0.91966350  0.77031450  1
  Mg  Mg3_0  1  0.09673500  0.09673500  0.43570750  1
  Mg  Mg3_1  1  0.09673500  0.09673500  0.93570750  1
  Mg  Mg3_2  1  0.09673500  0.59673500  0.43570750  1
  Mg  Mg3_3  1  0.09673500  0.59673500  0.93570750  1
  Mg  Mg3_4  1  0.59673500  0.09673500  0.43570750  1
  Mg  Mg3_5  1  0.59673500  0.09673500  0.93570750  1
  Mg  Mg3_6  1  0.59673500  0.59673500  0.43570750  1
  Mg  Mg3_7  1  0.59673500  0.59673500  0.93570750  1
loop_
_geom_bond_atom_site_label_1
_geom_bond_atom_site_label_2
_geom_bond_distance
_geom_bond_site_symmetry_2
Y0_0 Y0_6 3.386572 1_455
Y0_0 Y0_6 3.386572 1_545
Y0_0 Y1_1 3.484277 1_554
Y0_1 Y0_7 3.386572 1_455
Y0_1 Y0_7 3.386572 1_545
Y0_1 Y1_0 3.484277 1_555
Y0_2 Y0_4 3.386572 1_555
Y0_2 Y0_4 3.386572 1_465
Y0_2 Y1_3 3.484277 1_554
Y0_3 Y0_5 3.386572 1_555
Y0_3 Y0_5 3.386572 1_465
Y0_3 Y1_2 3.484277 1_555
Y0_4 Y1_5 3.484277 1_554
Y0_5 Y1_4 3.484277 1_555
Y0_6 Y1_7 3.484277 1_554
Y0_7 Y1_6 3.484277 1_555
Y1_0 Y1_6 3.386572 1_545
Y1_0 Y1_6 3.386572 1_455
Y1_1 Y1_7 3.386572 1_545
Y1_1 Y1_7 3.386572 1_455
Y1_2 Y1_4 3.386572 1_555
Y1_2 Y1_4 3.386572 1_465
Y1_3 Y1_5 3.386572 1_465
Y1_3 Y1_5 3.386572 1_555
Mg0_0 Mg1_2 3.158247 1_555
Mg0_0 Mg1_4 3.158247 1_555
Mg0_0 Mg2_0 3.167695 1_555
Mg0_0 Mg3_5 3.176630 1_554
Mg0_0 Mg3_3 3.176630 1_554
Mg0_0 Mg0_6 3.386572 1_455
Mg0_0 Mg0_6 3.386572 1_545
Mg0_0 Y1_5 3.423526 1_554
Mg0_0 Y1_3 3.423526 1_554
Mg0_0 Y0_2 3.485488 1_555
Mg0_0 Y0_4 3.485488 1_555
Mg0_0 Y0_0 3.634286 1_555
Mg0_1 Mg1_3 3.158247 1_555
Mg0_1 Mg1_5 3.158247 1_555
Mg0_1 Mg2_1 3.167695 1_555
Mg0_1 Mg3_4 3.176630 1_555
Mg0_1 Mg3_2 3.176630 1_555
Mg0_1 Mg0_7 3.386572 1_455
Mg0_1 Mg0_7 3.386572 1_545
Mg0_1 Y1_2 3.423526 1_555
Mg0_1 Y1_4 3.423526 1_555
Mg0_1 Y0_3 3.485488 1_555
Mg0_1 Y0_5 3.485488 1_555
Mg0_1 Y0_1 3.634286 1_555
Mg0_2 Mg1_6 3.158247 1_555
Mg0_2 Mg1_0 3.158247 1_565
Mg0_2 Mg2_2 3.167695 1_555
Mg0_2 Mg3_1 3.176630 1_564
Mg0_2 Mg3_7 3.176630 1_554
Mg0_2 Mg0_4 3.386572 1_555
Mg0_2 Mg0_4 3.386572 1_465
Mg0_2 Y1_1 3.423526 1_564
Mg0_2 Y1_7 3.423526 1_554
Mg0_2 Y0_0 3.485488 1_565
Mg0_2 Y0_6 3.485488 1_555
Mg0_2 Y0_2 3.634286 1_555
Mg0_3 Mg1_7 3.158247 1_555
Mg0_3 Mg1_1 3.158247 1_565
Mg0_3 Mg2_3 3.167695 1_555
Mg0_3 Mg3_6 3.176630 1_555
Mg0_3 Mg3_0 3.176630 1_565
Mg0_3 Mg0_5 3.386572 1_555
Mg0_3 Mg0_5 3.386572 1_465
Mg0_3 Y1_6 3.423526 1_555
Mg0_3 Y1_0 3.423526 1_565
Mg0_3 Y0_1 3.485488 1_565
Mg0_3 Y0_7 3.485488 1_555
Mg0_3 Y0_3 3.634286 1_555
Mg0_4 Mg1_0 3.158247 1_655
Mg0_4 Mg1_6 3.158247 1_555
Mg0_4 Mg2_4 3.167695 1_555
Mg0_4 Mg3_1 3.176630 1_654
Mg0_4 Mg3_7 3.176630 1_554
Mg0_4 Y1_1 3.423526 1_654
Mg0_4 Y1_7 3.423526 1_554
Mg0_4 Y0_6 3.485488 1_555
Mg0_4 Y0_0 3.485488 1_655
Mg0_4 Y0_4 3.634286 1_555
Mg0_5 Mg1_7 3.158247 1_555
Mg0_5 Mg1_1 3.158247 1_655
Mg0_5 Mg2_5 3.167695 1_555
Mg0_5 Mg3_6 3.176630 1_555
Mg0_5 Mg3_0 3.176630 1_655
Mg0_5 Y1_6 3.423526 1_555
Mg0_5 Y1_0 3.423526 1_655
Mg0_5 Y0_7 3.485488 1_555
Mg0_5 Y0_1 3.485488 1_655
Mg0_5 Y0_5 3.634286 1_555
Mg0_6 Mg1_4 3.158247 1_565
Mg0_6 Mg1_2 3.158247 1_655
Mg0_6 Mg2_6 3.167695 1_555
Mg0_6 Mg3_3 3.176630 1_654
Mg0_6 Mg3_5 3.176630 1_564
Mg0_6 Y1_5 3.423526 1_564
Mg0_6 Y1_3 3.423526 1_654
Mg0_6 Y0_4 3.485488 1_565
Mg0_6 Y0_2 3.485488 1_655
Mg0_6 Y0_6 3.634286 1_555
Mg0_7 Mg1_3 3.158247 1_655
Mg0_7 Mg1_5 3.158247 1_565
Mg0_7 Mg2_7 3.167695 1_555
Mg0_7 Mg3_4 3.176630 1_565
Mg0_7 Mg3_2 3.176630 1_655
Mg0_7 Y1_2 3.423526 1_655
Mg0_7 Y1_4 3.423526 1_565
Mg0_7 Y0_5 3.485488 1_565
Mg0_7 Y0_3 3.485488 1_655
Mg0_7 Y0_7 3.634286 1_555
Mg1_0 Mg2_4 3.067659 1_455
Mg1_0 Mg2_2 3.067659 1_545
Mg1_0 Mg3_0 3.167695 1_555
Mg1_0 Y1_2 3.299574 1_545
Mg1_0 Y1_4 3.299574 1_455
Mg1_0 Y0_2 3.301888 1_545
Mg1_0 Y0_4 3.301888 1_455
Mg1_0 Mg1_6 3.386572 1_545
Mg1_0 Mg1_6 3.386572 1_455
Mg1_1 Mg2_3 3.067659 1_545
Mg1_1 Mg2_5 3.067659 1_455
Mg1_1 Mg3_1 3.167695 1_555
Mg1_1 Y1_5 3.299574 1_455
Mg1_1 Y1_3 3.299574 1_545
Mg1_1 Y0_3 3.301888 1_545
Mg1_1 Y0_5 3.301888 1_455
Mg1_1 Mg1_7 3.386572 1_545
Mg1_1 Mg1_7 3.386572 1_455
Mg1_2 Mg2_0 3.067659 1_555
Mg1_2 Mg2_6 3.067659 1_455
Mg1_2 Mg3_2 3.167695 1_555
Mg1_2 Y1_0 3.299574 1_555
Mg1_2 Y1_6 3.299574 1_455
Mg1_2 Y0_0 3.301888 1_555
Mg1_2 Y0_6 3.301888 1_455
Mg1_2 Mg1_4 3.386572 1_555
Mg1_2 Mg1_4 3.386572 1_465
Mg1_3 Mg2_1 3.067659 1_555
Mg1_3 Mg2_7 3.067659 1_455
Mg1_3 Mg3_3 3.167695 1_555
Mg1_3 Y1_7 3.299574 1_455
Mg1_3 Y1_1 3.299574 1_555
Mg1_3 Y0_1 3.301888 1_555
Mg1_3 Y0_7 3.301888 1_455
Mg1_3 Mg1_5 3.386572 1_555
Mg1_3 Mg1_5 3.386572 1_465
Mg1_4 Mg2_0 3.067659 1_555
Mg1_4 Mg2_6 3.067659 1_545
Mg1_4 Mg3_4 3.167695 1_555
Mg1_4 Y1_0 3.299574 1_555
Mg1_4 Y1_6 3.299574 1_545
Mg1_4 Y0_0 3.301888 1_555
Mg1_4 Y0_6 3.301888 1_545
Mg1_5 Mg2_1 3.067659 1_555
Mg1_5 Mg2_7 3.067659 1_545
Mg1_5 Mg3_5 3.167695 1_555
Mg1_5 Y1_7 3.299574 1_545
Mg1_5 Y1_1 3.299574 1_555
Mg1_5 Y0_7 3.301888 1_545
Mg1_5 Y0_1 3.301888 1_555
Mg1_6 Mg2_4 3.067659 1_555
Mg1_6 Mg2_2 3.067659 1_555
Mg1_6 Mg3_6 3.167695 1_555
Mg1_6 Y1_2 3.299574 1_555
Mg1_6 Y1_4 3.299574 1_555
Mg1_6 Y0_4 3.301888 1_555
Mg1_6 Y0_2 3.301888 1_555
Mg1_7 Mg2_3 3.067659 1_555
Mg1_7 Mg2_5 3.067659 1_555
Mg1_7 Mg3_7 3.167695 1_555
Mg1_7 Y1_5 3.299574 1_555
Mg1_7 Y1_3 3.299574 1_555
Mg1_7 Y0_3 3.301888 1_555
Mg1_7 Y0_5 3.301888 1_555
Mg2_0 Mg3_4 3.158247 1_555
Mg2_0 Mg3_2 3.158247 1_555
Mg2_0 Y0_4 3.299574 1_555
Mg2_0 Y0_2 3.299574 1_555
Mg2_0 Y1_4 3.301888 1_555
Mg2_0 Y1_2 3.301888 1_555
Mg2_0 Mg2_6 3.386572 1_545
Mg2_0 Mg2_6 3.386572 1_455
Mg2_1 Mg3_5 3.158247 1_555
Mg2_1 Mg3_3 3.158247 1_555
Mg2_1 Y0_5 3.299574 1_555
Mg2_1 Y0_3 3.299574 1_555
Mg2_1 Y1_5 3.301888 1_555
Mg2_1 Y1_3 3.301888 1_555
Mg2_1 Mg2_7 3.386572 1_545
Mg2_1 Mg2_7 3.386572 1_455
Mg2_2 Mg3_6 3.158247 1_555
Mg2_2 Mg3_0 3.158247 1_565
Mg2_2 Y0_6 3.299574 1_555
Mg2_2 Y0_0 3.299574 1_565
Mg2_2 Y1_6 3.301888 1_555
Mg2_2 Y1_0 3.301888 1_565
Mg2_2 Mg2_4 3.386572 1_555
Mg2_2 Mg2_4 3.386572 1_465
Mg2_3 Mg3_1 3.158247 1_565
Mg2_3 Mg3_7 3.158247 1_555
Mg2_3 Y0_1 3.299574 1_565
Mg2_3 Y0_7 3.299574 1_555
Mg2_3 Y1_1 3.301888 1_565
Mg2_3 Y1_7 3.301888 1_555
Mg2_3 Mg2_5 3.386572 1_465
Mg2_3 Mg2_5 3.386572 1_555
Mg2_4 Mg3_6 3.158247 1_555
Mg2_4 Mg3_0 3.158247 1_655
Mg2_4 Y0_6 3.299574 1_555
Mg2_4 Y0_0 3.299574 1_655
Mg2_4 Y1_6 3.301888 1_555
Mg2_4 Y1_0 3.301888 1_655
Mg2_5 Mg3_1 3.158247 1_655
Mg2_5 Mg3_7 3.158247 1_555
Mg2_5 Y0_1 3.299574 1_655
Mg2_5 Y0_7 3.299574 1_555
Mg2_5 Y1_1 3.301888 1_655
Mg2_5 Y1_7 3.301888 1_555
Mg2_6 Mg3_2 3.158247 1_655
Mg2_6 Mg3_4 3.158247 1_565
Mg2_6 Y0_4 3.299574 1_565
Mg2_6 Y0_2 3.299574 1_655
Mg2_6 Y1_2 3.301888 1_655
Mg2_6 Y1_4 3.301888 1_565
Mg2_7 Mg3_3 3.158247 1_655
Mg2_7 Mg3_5 3.158247 1_565
Mg2_7 Y0_5 3.299574 1_565
Mg2_7 Y0_3 3.299574 1_655
Mg2_7 Y1_5 3.301888 1_565
Mg2_7 Y1_3 3.301888 1_655
Mg3_0 Mg3_6 3.386572 1_545
Mg3_0 Mg3_6 3.386572 1_455
Mg3_0 Y0_3 3.423526 1_545
Mg3_0 Y0_5 3.423526 1_455
Mg3_0 Y1_2 3.485488 1_545
Mg3_0 Y1_4 3.485488 1_455
Mg3_0 Y1_0 3.634286 1_555
Mg3_1 Mg3_7 3.386572 1_545
Mg3_1 Mg3_7 3.386572 1_455
Mg3_1 Y0_2 3.423526 1_546
Mg3_1 Y0_4 3.423526 1_456
Mg3_1 Y1_3 3.485488 1_545
Mg3_1 Y1_5 3.485488 1_455
Mg3_1 Y1_1 3.634286 1_555
Mg3_2 Mg3_4 3.386572 1_555
Mg3_2 Mg3_4 3.386572 1_465
Mg3_2 Y0_1 3.423526 1_555
Mg3_2 Y0_7 3.423526 1_455
Mg3_2 Y1_0 3.485488 1_555
Mg3_2 Y1_6 3.485488 1_455
Mg3_2 Y1_2 3.634286 1_555
Mg3_3 Mg3_5 3.386572 1_555
Mg3_3 Mg3_5 3.386572 1_465
Mg3_3 Y0_0 3.423526 1_556
Mg3_3 Y0_6 3.423526 1_456
Mg3_3 Y1_7 3.485488 1_455
Mg3_3 Y1_1 3.485488 1_555
Mg3_3 Y1_3 3.634286 1_555
Mg3_4 Y0_1 3.423526 1_555
Mg3_4 Y0_7 3.423526 1_545
Mg3_4 Y1_0 3.485488 1_555
Mg3_4 Y1_6 3.485488 1_545
Mg3_4 Y1_4 3.634286 1_555
Mg3_5 Y0_6 3.423526 1_546
Mg3_5 Y0_0 3.423526 1_556
Mg3_5 Y1_7 3.485488 1_545
Mg3_5 Y1_1 3.485488 1_555
Mg3_5 Y1_5 3.634286 1_555
Mg3_6 Y0_3 3.423526 1_555
Mg3_6 Y0_5 3.423526 1_555
Mg3_6 Y1_2 3.485488 1_555
Mg3_6 Y1_4 3.485488 1_555
Mg3_6 Y1_6 3.634286 1_555
Mg3_7 Y0_2 3.423526 1_556
Mg3_7 Y0_4 3.423526 1_556
Mg3_7 Y1_5 3.485488 1_555
Mg3_7 Y1_3 3.485488 1_555
Mg3_7 Y1_7 3.634286 1_555
