# generated using pymatgen
data_MnGa(CuSe2)2
_symmetry_space_group_name_H-M   'P 1'
_cell_length_a   6.93526952
_cell_length_b   6.93526952
_cell_length_c   6.93526952
_cell_angle_alpha   132.24124030
_cell_angle_beta   132.24124030
_cell_angle_gamma   69.84827990
_symmetry_Int_Tables_number   1
_chemical_formula_structural   MnGa(CuSe2)2
_chemical_formula_sum   'Mn1 Ga1 Cu2 Se4'
_cell_volume   179.27696545
_cell_formula_units_Z   1
loop_
 _symmetry_equiv_pos_site_id
 _symmetry_equiv_pos_as_xyz
  1  'x, y, z'
loop_
 _atom_site_type_symbol
 _atom_site_label
 _atom_site_symmetry_multiplicity
 _atom_site_fract_x
 _atom_site_fract_y
 _atom_site_fract_z
 _atom_site_occupancy
  Mn  Mn0  1  0.75000000  0.25000000  0.50000000  1
  Ga  Ga0  1  0.50000000  0.50000000  0.00000000  1
  Cu  Cu0  1  0.25000000  0.75000000  0.50000000  1
  Cu  Cu1  1  0.00000000  0.00000000  0.00000000  1
  Se  Se0  1  0.12720300  0.11844500  0.49457600  1
  Se  Se1  1  0.62386900  0.63262700  0.50542400  1
  Se  Se2  1  0.36737300  0.87279700  0.99124200  1
  Se  Se3  1  0.88155500  0.37613100  0.00875800  1
loop_
_geom_bond_atom_site_label_1
_geom_bond_atom_site_label_2
_geom_bond_distance
_geom_bond_site_symmetry_2
Mn0 Se1 2.473654 1_555
Mn0 Se0 2.473654 1_655
Mn0 Se3 2.473654 1_556
Mn0 Se2 2.473654 1_544
Ga0 Se2 2.455961 1_554
Ga0 Se3 2.455961 1_555
Ga0 Se1 2.455961 1_555
Ga0 Se0 2.455961 1_554
Cu0 Se1 2.417197 1_555
Cu0 Se3 2.417197 1_455
Cu0 Se0 2.417197 1_565
Cu0 Se2 2.417197 1_555
Cu1 Se0 2.420896 1_555
Cu1 Se3 2.420896 1_455
Cu1 Se2 2.420896 1_544
Cu1 Se1 2.420896 1_444
