# generated using pymatgen
data_LiAu4Se4(ClO3)4
_symmetry_space_group_name_H-M   'P 1'
_cell_length_a   4.63285563
_cell_length_b   10.18424729
_cell_length_c   11.09230897
_cell_angle_alpha   82.79008720
_cell_angle_beta   86.05770956
_cell_angle_gamma   85.05237205
_symmetry_Int_Tables_number   1
_chemical_formula_structural   LiAu4Se4(ClO3)4
_chemical_formula_sum   'Li1 Au4 Se4 Cl4 O12'
_cell_volume   516.39695159
_cell_formula_units_Z   1
loop_
 _symmetry_equiv_pos_site_id
 _symmetry_equiv_pos_as_xyz
  1  'x, y, z'
loop_
 _atom_site_type_symbol
 _atom_site_label
 _atom_site_symmetry_multiplicity
 _atom_site_fract_x
 _atom_site_fract_y
 _atom_site_fract_z
 _atom_site_occupancy
  Li  Li0  1  0.25847500  0.07634700  0.21892500  1
  Au  Au0  1  0.01805700  0.58890500  0.17171700  1
  Au  Au1  1  0.95776200  0.00117900  0.00371700  1
  Au  Au2  1  0.01163100  0.42111000  0.81113200  1
  Au  Au3  1  0.03388000  0.99384700  0.50753000  1
  Se  Se0  1  0.74205000  0.86080900  0.28650000  1
  Se  Se1  1  0.17969200  0.71413400  0.89513300  1
  Se  Se2  1  0.79532100  0.31089500  0.09428300  1
  Se  Se3  1  0.29488400  0.12774700  0.73469100  1
  Cl  Cl0  1  0.35152300  0.49035900  0.66310700  1
  Cl  Cl1  1  0.68364100  0.52632600  0.32688400  1
  Cl  Cl2  1  0.31526400  0.16643900  0.42591500  1
  Cl  Cl3  1  0.75706800  0.81910800  0.57549400  1
  O  O0  1  0.61350100  0.96133500  0.16144000  1
  O  O1  1  0.70507200  0.35848800  0.94640800  1
  O  O2  1  0.04094800  0.77225400  0.22290700  1
  O  O3  1  0.04211800  0.17151200  0.08676900  1
  O  O4  1  0.08094500  0.40471800  0.11980400  1
  O  O5  1  0.89296400  0.82439400  0.93448600  1
  O  O6  1  0.31713400  0.64547100  0.03423400  1
  O  O7  1  0.99179100  0.24171700  0.74965800  1
  O  O8  1  0.96707700  0.97868400  0.33041500  1
  O  O9  1  0.92785900  0.60228100  0.86882600  1
  O  O10  1  0.33059600  0.04755200  0.87854100  1
  O  O11  1  0.09352600  0.00689200  0.68362700  1
loop_
_geom_bond_atom_site_label_1
_geom_bond_atom_site_label_2
_geom_bond_distance
_geom_bond_site_symmetry_2
Li0 O3 1.941851 1_555
Li0 O8 2.008598 1_445
Li0 O0 2.048126 1_545
Au0 O4 2.022106 1_555
Au0 O2 2.031979 1_555
Au0 O6 2.050356 1_555
Au0 Cl1 2.301568 1_455
Au1 O5 2.096028 1_544
Au1 O3 2.139678 1_655
Au1 O10 2.186504 1_654
Au1 O0 2.306285 1_545
Au2 O9 2.025648 1_455
Au2 O7 2.039995 1_455
Au2 O1 2.073256 1_455
Au2 Cl0 2.284361 1_555
Au3 O11 2.013745 1_565
Au3 O8 2.036502 1_455
Au3 Cl3 2.303009 1_455
Au3 Cl2 2.332829 1_565
Cl2 Li0 2.614602 1_555
O0 Se0 1.726004 1_555
O1 Se2 1.720475 1_556
O2 Se0 1.743111 1_455
O3 Se2 1.750971 1_455
O4 Se2 1.755464 1_455
O5 Se1 1.732646 1_655
O6 Se1 1.750029 1_554
O7 Se3 1.755479 1_655
O8 Se0 1.788221 1_555
O9 Se1 1.761672 1_655
O10 Se3 1.710650 1_555
O11 Se3 1.775295 1_555
