# generated using pymatgen
data_NaAl(SO10)2
_symmetry_space_group_name_H-M   'P 1'
_cell_length_a   11.36535520
_cell_length_b   11.36535520
_cell_length_c   11.36535520
_cell_angle_alpha   90.00000000
_cell_angle_beta   90.00000000
_cell_angle_gamma   90.00000000
_symmetry_Int_Tables_number   1
_chemical_formula_structural   NaAl(SO10)2
_chemical_formula_sum   'Na4 Al4 S8 O80'
_cell_volume   1468.07769276
_cell_formula_units_Z   4
loop_
 _symmetry_equiv_pos_site_id
 _symmetry_equiv_pos_as_xyz
  1  'x, y, z'
loop_
 _atom_site_type_symbol
 _atom_site_label
 _atom_site_symmetry_multiplicity
 _atom_site_fract_x
 _atom_site_fract_y
 _atom_site_fract_z
 _atom_site_occupancy
  Na  Na0  1  0.00000000  0.00000000  0.50000000  1
  Na  Na1  1  0.00000000  0.50000000  -0.00000000  1
  Na  Na2  1  0.50000000  0.00000000  -0.00000000  1
  Na  Na3  1  0.50000000  0.50000000  0.50000000  1
  Al  Al0  1  0.50000000  0.50000000  -0.00000000  1
  Al  Al1  1  0.50000000  0.00000000  0.50000000  1
  Al  Al2  1  0.00000000  0.50000000  0.50000000  1
  Al  Al3  1  0.00000000  0.00000000  -0.00000000  1
  S  S0  1  0.23893863  0.76106137  0.26106137  1
  S  S1  1  0.76106137  0.26106137  0.23893863  1
  S  S2  1  0.26106137  0.23893863  0.76106137  1
  S  S3  1  0.73893863  0.73893863  0.73893863  1
  S  S4  1  0.76106137  0.23893863  0.73893863  1
  S  S5  1  0.23893863  0.73893863  0.76106137  1
  S  S6  1  0.73893863  0.76106137  0.23893863  1
  S  S7  1  0.26106137  0.26106137  0.26106137  1
  O  O0  1  0.16333487  0.83666513  0.33666513  1
  O  O1  1  0.83666513  0.33666513  0.16333487  1
  O  O2  1  0.33666513  0.16333487  0.83666513  1
  O  O3  1  0.66333487  0.66333487  0.66333487  1
  O  O4  1  0.83666513  0.16333487  0.66333487  1
  O  O5  1  0.16333487  0.66333487  0.83666513  1
  O  O6  1  0.66333487  0.83666513  0.16333487  1
  O  O7  1  0.33666513  0.33666513  0.33666513  1
  O  O8  1  0.35925515  0.81381480  0.25637643  1
  O  O9  1  0.64074485  0.31381480  0.24362357  1
  O  O10  1  0.14074485  0.18618520  0.75637643  1
  O  O11  1  0.85925515  0.68618520  0.74362357  1
  O  O12  1  0.25637643  0.35925515  0.81381480  1
  O  O13  1  0.24362357  0.64074485  0.31381480  1
  O  O14  1  0.75637643  0.14074485  0.18618520  1
  O  O15  1  0.74362357  0.85925515  0.68618520  1
  O  O16  1  0.81381480  0.25637643  0.35925515  1
  O  O17  1  0.31381480  0.24362357  0.64074485  1
  O  O18  1  0.18618520  0.75637643  0.14074485  1
  O  O19  1  0.68618520  0.74362357  0.85925515  1
  O  O20  1  0.64074485  0.18618520  0.74362357  1
  O  O21  1  0.35925515  0.68618520  0.75637643  1
  O  O22  1  0.85925515  0.81381480  0.24362357  1
  O  O23  1  0.14074485  0.31381480  0.25637643  1
  O  O24  1  0.74362357  0.64074485  0.18618520  1
  O  O25  1  0.75637643  0.35925515  0.68618520  1
  O  O26  1  0.24362357  0.85925515  0.81381480  1
  O  O27  1  0.25637643  0.14074485  0.31381480  1
  O  O28  1  0.18618520  0.74362357  0.64074485  1
  O  O29  1  0.68618520  0.75637643  0.35925515  1
  O  O30  1  0.81381480  0.24362357  0.85925515  1
  O  O31  1  0.31381480  0.25637643  0.14074485  1
  O  O32  1  0.20526157  0.59154906  0.04462105  1
  O  O33  1  0.79473843  0.09154906  0.45537895  1
  O  O34  1  0.29473843  0.40845094  0.54462105  1
  O  O35  1  0.70526157  0.90845094  0.95537895  1
  O  O36  1  0.04462105  0.20526157  0.59154906  1
  O  O37  1  0.45537895  0.79473843  0.09154906  1
  O  O38  1  0.54462105  0.29473843  0.40845094  1
  O  O39  1  0.95537895  0.70526157  0.90845094  1
  O  O40  1  0.59154906  0.04462105  0.20526157  1
  O  O41  1  0.09154906  0.45537895  0.79473843  1
  O  O42  1  0.40845094  0.54462105  0.29473843  1
  O  O43  1  0.90845094  0.95537895  0.70526157  1
  O  O44  1  0.79473843  0.40845094  0.95537895  1
  O  O45  1  0.20526157  0.90845094  0.54462105  1
  O  O46  1  0.70526157  0.59154906  0.45537895  1
  O  O47  1  0.29473843  0.09154906  0.04462105  1
  O  O48  1  0.95537895  0.79473843  0.40845094  1
  O  O49  1  0.54462105  0.20526157  0.90845094  1
  O  O50  1  0.45537895  0.70526157  0.59154906  1
  O  O51  1  0.04462105  0.29473843  0.09154906  1
  O  O52  1  0.40845094  0.95537895  0.79473843  1
  O  O53  1  0.90845094  0.54462105  0.20526157  1
  O  O54  1  0.59154906  0.45537895  0.70526157  1
  O  O55  1  0.09154906  0.04462105  0.29473843  1
  O  O56  1  0.43546399  0.65120700  0.98196511  1
  O  O57  1  0.56453601  0.15120700  0.51803489  1
  O  O58  1  0.06453601  0.34879300  0.48196511  1
  O  O59  1  0.93546399  0.84879300  0.01803489  1
  O  O60  1  0.98196511  0.43546399  0.65120700  1
  O  O61  1  0.51803489  0.56453601  0.15120700  1
  O  O62  1  0.48196511  0.06453601  0.34879300  1
  O  O63  1  0.01803489  0.93546399  0.84879300  1
  O  O64  1  0.65120700  0.98196511  0.43546399  1
  O  O65  1  0.15120700  0.51803489  0.56453601  1
  O  O66  1  0.34879300  0.48196511  0.06453601  1
  O  O67  1  0.84879300  0.01803489  0.93546399  1
  O  O68  1  0.56453601  0.34879300  0.01803489  1
  O  O69  1  0.43546399  0.84879300  0.48196511  1
  O  O70  1  0.93546399  0.65120700  0.51803489  1
  O  O71  1  0.06453601  0.15120700  0.98196511  1
  O  O72  1  0.01803489  0.56453601  0.34879300  1
  O  O73  1  0.48196511  0.43546399  0.84879300  1
  O  O74  1  0.51803489  0.93546399  0.65120700  1
  O  O75  1  0.98196511  0.06453601  0.15120700  1
  O  O76  1  0.34879300  0.01803489  0.56453601  1
  O  O77  1  0.84879300  0.48196511  0.43546399  1
  O  O78  1  0.65120700  0.51803489  0.93546399  1
  O  O79  1  0.15120700  0.98196511  0.06453601  1
loop_
_geom_bond_atom_site_label_1
_geom_bond_atom_site_label_2
_geom_bond_distance
_geom_bond_site_symmetry_2
Na0 O43 2.604244 1_445
Na0 O45 2.604244 1_545
Na0 O55 2.604244 1_555
Na0 O48 2.604244 1_445
Na0 O33 2.604244 1_455
Na0 O36 2.604244 1_555
Na1 O39 2.604244 1_454
Na1 O51 2.604244 1_555
Na1 O53 2.604244 1_455
Na1 O44 2.604244 1_454
Na1 O32 2.604244 1_555
Na1 O41 2.604244 1_554
Na2 O35 2.604244 1_544
Na2 O37 2.604244 1_545
Na2 O49 2.604244 1_554
Na2 O47 2.604244 1_555
Na2 O52 2.604244 1_544
Na2 O40 2.604244 1_555
Na3 O50 2.604244 1_555
Na3 O38 2.604244 1_555
Na3 O42 2.604244 1_555
Na3 O46 2.604244 1_555
Na3 O34 2.604244 1_555
Na3 O54 2.604244 1_555
Al0 O61 1.879711 1_555
Al0 O56 1.879711 1_554
Al0 O78 1.879711 1_554
Al0 O66 1.879711 1_555
Al0 O73 1.879711 1_554
Al0 O68 1.879711 1_555
Al1 O57 1.879711 1_555
Al1 O74 1.879711 1_545
Al1 O64 1.879711 1_545
Al1 O62 1.879711 1_555
Al1 O69 1.879711 1_545
Al1 O76 1.879711 1_555
Al2 O65 1.879711 1_555
Al2 O70 1.879711 1_455
Al2 O60 1.879711 1_455
Al2 O77 1.879711 1_455
Al2 O58 1.879711 1_555
Al2 O72 1.879711 1_555
Al3 O75 1.879711 1_455
Al3 O71 1.879711 1_554
Al3 O79 1.879711 1_545
Al3 O63 1.879711 1_544
Al3 O59 1.879711 1_445
Al3 O67 1.879711 1_454
O0 S0 1.488288 1_555
O1 S1 1.488288 1_555
O2 S2 1.488288 1_555
O3 S3 1.488288 1_555
O4 S4 1.488288 1_555
O5 S5 1.488288 1_555
O6 S6 1.488288 1_555
O7 S7 1.488288 1_555
O8 S0 1.494055 1_555
O9 S1 1.494055 1_555
O10 S2 1.494055 1_555
O11 S3 1.494055 1_555
O12 S2 1.494055 1_555
O13 S0 1.494055 1_555
O14 S1 1.494055 1_555
O15 S3 1.494055 1_555
O16 S1 1.494055 1_555
O17 S2 1.494055 1_555
O18 S0 1.494055 1_555
O19 S3 1.494055 1_555
O20 S4 1.494055 1_555
O21 S5 1.494055 1_555
O22 S6 1.494055 1_555
O23 S7 1.494055 1_555
O24 S6 1.494055 1_555
O25 S4 1.494055 1_555
O26 S5 1.494055 1_555
O27 S7 1.494055 1_555
O28 S5 1.494055 1_555
O29 S6 1.494055 1_555
O30 S4 1.494055 1_555
O31 S7 1.494055 1_555
