# generated using pymatgen
data_CrSi2Tc
_symmetry_space_group_name_H-M   'P 1'
_cell_length_a   9.87286949
_cell_length_b   9.87286949
_cell_length_c   9.87286949
_cell_angle_alpha   122.80990451
_cell_angle_beta   119.21831808
_cell_angle_gamma   88.28131437
_symmetry_Int_Tables_number   1
_chemical_formula_structural   CrSi2Tc
_chemical_formula_sum   'Cr1 Si2 Tc1'
_cell_volume   668.86809783
_cell_formula_units_Z   1
loop_
 _symmetry_equiv_pos_site_id
 _symmetry_equiv_pos_as_xyz
  1  'x, y, z'
loop_
 _atom_site_type_symbol
 _atom_site_label
 _atom_site_symmetry_multiplicity
 _atom_site_fract_x
 _atom_site_fract_y
 _atom_site_fract_z
 _atom_site_occupancy
  Cr  Cr0  1  0.00000000  0.00000000  0.00000000  1
  Si  Si0  1  0.00000000  0.25576000  0.25576000  1
  Si  Si1  1  0.00000000  0.74424000  0.74424000  1
  Tc  Tc0  1  0.00000000  0.50000000  0.50000000  1
loop_
_geom_bond_atom_site_label_1
_geom_bond_atom_site_label_2
_geom_bond_distance
_geom_bond_site_symmetry_2
Cr0 Si0 2.417092 1_555
Cr0 Si1 2.417092 1_544
Si0 Tc0 2.308221 1_555
Si1 Tc0 2.308221 1_555
