# generated using pymatgen
data_V2FeO4
_symmetry_space_group_name_H-M   'P 1'
_cell_length_a   5.99479398
_cell_length_b   6.09374271
_cell_length_c   5.99319876
_cell_angle_alpha   119.32986955
_cell_angle_beta   90.04817492
_cell_angle_gamma   119.52232328
_symmetry_Int_Tables_number   1
_chemical_formula_structural   V2FeO4
_chemical_formula_sum   'V4 Fe2 O8'
_cell_volume   157.39622506
_cell_formula_units_Z   2
loop_
 _symmetry_equiv_pos_site_id
 _symmetry_equiv_pos_as_xyz
  1  'x, y, z'
loop_
 _atom_site_type_symbol
 _atom_site_label
 _atom_site_symmetry_multiplicity
 _atom_site_fract_x
 _atom_site_fract_y
 _atom_site_fract_z
 _atom_site_occupancy
  V  V0  1  0.00003600  0.50002900  0.00002800  1
  V  V1  1  0.99984900  0.49990200  0.49994100  1
  V  V2  1  0.00002100  0.00001700  0.50005200  1
  V  V3  1  0.50000200  0.00002900  0.49989900  1
  Fe  Fe0  1  0.37290900  0.25012100  0.12296900  1
  Fe  Fe1  1  0.62712500  0.74996500  0.87697000  1
  O  O0  1  0.23183600  0.48268000  0.74755700  1
  O  O1  1  0.24586100  0.51424000  0.25045500  1
  O  O2  1  0.23605200  0.98579200  0.73172100  1
  O  O3  1  0.23498000  0.98267300  0.25090600  1
  O  O4  1  0.76396800  0.01412000  0.26825600  1
  O  O5  1  0.76506200  0.01735900  0.74908700  1
  O  O6  1  0.76816100  0.51730600  0.25249800  1
  O  O7  1  0.75414100  0.48576800  0.74966100  1
loop_
_geom_bond_atom_site_label_1
_geom_bond_atom_site_label_2
_geom_bond_distance
_geom_bond_site_symmetry_2
Fe0 O1 1.938706 1_555
Fe0 O2 1.939088 1_544
Fe0 O6 1.955635 1_555
Fe0 O3 1.955743 1_545
Fe1 O7 1.938961 1_555
Fe1 O4 1.939238 1_566
Fe1 O5 1.955216 1_565
Fe1 O0 1.955846 1_555
O0 V0 2.055054 1_556
O0 V1 2.107210 1_455
O0 V2 2.115771 1_555
O1 V0 2.043272 1_555
O1 V1 2.103099 1_455
O1 V3 2.129581 1_565
O2 V2 2.042758 1_565
O2 V3 2.104301 1_565
O2 V1 2.130002 1_455
O3 V2 2.054352 1_565
O3 V3 2.106649 1_565
O3 V0 2.115724 1_555
O4 V2 2.042852 1_655
O4 V3 2.103646 1_555
O4 V1 2.129570 1_555
O5 V2 2.053885 1_655
O5 V3 2.107719 1_555
O5 V0 2.115845 1_656
O6 V0 2.055355 1_655
O6 V1 2.106028 1_555
O6 V2 2.115981 1_665
O7 V0 2.043104 1_656
O7 V1 2.102830 1_555
O7 V3 2.129409 1_555
