# generated using pymatgen
data_YbGa7Au3
_symmetry_space_group_name_H-M   'P 1'
_cell_length_a   8.56858373
_cell_length_b   8.56858373
_cell_length_c   8.56858357
_cell_angle_alpha   57.62889472
_cell_angle_beta   57.62889472
_cell_angle_gamma   57.62889602
_symmetry_Int_Tables_number   1
_chemical_formula_structural   YbGa7Au3
_chemical_formula_sum   'Yb2 Ga14 Au6'
_cell_volume   420.60530299
_cell_formula_units_Z   2
loop_
 _symmetry_equiv_pos_site_id
 _symmetry_equiv_pos_as_xyz
  1  'x, y, z'
loop_
 _atom_site_type_symbol
 _atom_site_label
 _atom_site_symmetry_multiplicity
 _atom_site_fract_x
 _atom_site_fract_y
 _atom_site_fract_z
 _atom_site_occupancy
  Yb  Yb0  1  0.50000000  0.50000000  0.50000000  1
  Yb  Yb1  1  0.00000000  0.00000000  0.00000000  1
  Ga  Ga0  1  0.14686900  0.92706100  0.33054200  1
  Ga  Ga1  1  0.33054200  0.14686900  0.92706100  1
  Ga  Ga2  1  0.92706100  0.33054200  0.14686900  1
  Ga  Ga3  1  0.35313100  0.16945800  0.57293900  1
  Ga  Ga4  1  0.57293900  0.35313100  0.16945800  1
  Ga  Ga5  1  0.16945800  0.57293900  0.35313100  1
  Ga  Ga6  1  0.85313100  0.07293900  0.66945800  1
  Ga  Ga7  1  0.66945800  0.85313100  0.07293900  1
  Ga  Ga8  1  0.75000000  0.75000000  0.75000000  1
  Ga  Ga9  1  0.25000000  0.25000000  0.25000000  1
  Ga  Ga10  1  0.83054200  0.42706100  0.64686900  1
  Ga  Ga11  1  0.42706100  0.64686900  0.83054200  1
  Ga  Ga12  1  0.64686900  0.83054200  0.42706100  1
  Ga  Ga13  1  0.07293900  0.66945800  0.85313100  1
  Au  Au0  1  0.93179100  0.56820900  0.25000000  1
  Au  Au1  1  0.75000000  0.06820900  0.43179100  1
  Au  Au2  1  0.43179100  0.75000000  0.06820900  1
  Au  Au3  1  0.06820900  0.43179100  0.75000000  1
  Au  Au4  1  0.56820900  0.25000000  0.93179100  1
  Au  Au5  1  0.25000000  0.93179100  0.56820900  1
loop_
_geom_bond_atom_site_label_1
_geom_bond_atom_site_label_2
_geom_bond_distance
_geom_bond_site_symmetry_2
Ga0 Yb1 3.327931 1_565
Ga0 Yb0 3.437034 1_555
Ga1 Yb1 3.327931 1_556
Ga1 Yb0 3.437034 1_555
Ga2 Yb1 3.327931 1_655
Ga2 Yb0 3.437034 1_555
Ga3 Yb0 3.327931 1_555
Ga3 Yb1 3.437034 1_556
Ga4 Yb0 3.327931 1_555
Ga4 Yb1 3.437034 1_655
Ga5 Yb0 3.327931 1_555
Ga5 Yb1 3.437034 1_565
Ga6 Yb1 3.327931 1_656
Ga6 Yb0 3.437034 1_555
Ga7 Yb1 3.327931 1_665
Ga7 Yb0 3.437034 1_555
Ga10 Yb0 3.327931 1_555
Ga10 Yb1 3.437034 1_656
Ga11 Yb0 3.327931 1_555
Ga11 Yb1 3.437034 1_566
Ga12 Yb0 3.327931 1_555
Ga12 Yb1 3.437034 1_665
Ga13 Yb1 3.327931 1_566
Ga13 Yb0 3.437034 1_555
Au0 Ga9 2.628305 1_655
Au0 Ga2 2.642631 1_555
Au0 Ga5 2.642631 1_655
Au0 Ga7 2.669089 1_555
Au0 Ga12 2.669089 1_555
Au0 Ga10 2.709232 1_555
Au0 Ga13 2.709232 1_654
Au0 Yb1 3.332760 1_665
Au0 Yb0 3.332760 1_555
Au1 Ga8 2.628304 1_545
Au1 Ga6 2.642631 1_555
Au1 Ga12 2.642631 1_545
Au1 Ga2 2.669089 1_555
Au1 Ga4 2.669089 1_555
Au1 Ga3 2.709232 1_555
Au1 Ga0 2.709232 1_645
Au1 Yb1 3.332760 1_655
Au1 Yb0 3.332761 1_555
Au2 Ga8 2.628304 1_554
Au2 Ga11 2.642631 1_554
Au2 Ga7 2.642631 1_555
Au2 Ga5 2.669089 1_555
Au2 Ga0 2.669089 1_555
Au2 Ga1 2.709232 1_564
Au2 Ga4 2.709232 1_555
Au2 Yb0 3.332760 1_555
Au2 Yb1 3.332761 1_565
Au3 Ga8 2.628305 1_455
Au3 Ga10 2.642631 1_455
Au3 Ga13 2.642631 1_555
Au3 Ga3 2.669089 1_555
Au3 Ga1 2.669089 1_555
Au3 Ga2 2.709232 1_456
Au3 Ga5 2.709232 1_555
Au3 Yb0 3.332760 1_555
Au3 Yb1 3.332760 1_556
Au4 Ga9 2.628304 1_556
Au4 Ga4 2.642631 1_556
Au4 Ga1 2.642631 1_555
Au4 Ga10 2.669089 1_555
Au4 Ga6 2.669089 1_555
Au4 Ga7 2.709232 1_546
Au4 Ga11 2.709232 1_555
Au4 Yb0 3.332760 1_555
Au4 Yb1 3.332761 1_656
Au5 Ga9 2.628304 1_565
Au5 Ga0 2.642631 1_555
Au5 Ga3 2.642631 1_565
Au5 Ga13 2.669089 1_555
Au5 Ga11 2.669089 1_555
Au5 Ga12 2.709232 1_555
Au5 Ga6 2.709232 1_465
Au5 Yb1 3.332760 1_566
Au5 Yb0 3.332761 1_555
