# generated using pymatgen
data_Ta4CoP
_symmetry_space_group_name_H-M   'P 1'
_cell_length_a   6.13331400
_cell_length_b   6.13331400
_cell_length_c   5.01108500
_cell_angle_alpha   90.00000000
_cell_angle_beta   90.00000000
_cell_angle_gamma   90.00000000
_symmetry_Int_Tables_number   1
_chemical_formula_structural   Ta4CoP
_chemical_formula_sum   'Ta8 Co2 P2'
_cell_volume   188.50469355
_cell_formula_units_Z   2
loop_
 _symmetry_equiv_pos_site_id
 _symmetry_equiv_pos_as_xyz
  1  'x, y, z'
loop_
 _atom_site_type_symbol
 _atom_site_label
 _atom_site_symmetry_multiplicity
 _atom_site_fract_x
 _atom_site_fract_y
 _atom_site_fract_z
 _atom_site_occupancy
  Ta  Ta0  1  0.66728600  0.15912600  0.50000000  1
  Ta  Ta1  1  0.33271400  0.84087400  0.50000000  1
  Ta  Ta2  1  0.84087400  0.66728600  0.50000000  1
  Ta  Ta3  1  0.15912600  0.33271400  0.50000000  1
  Ta  Ta4  1  0.33271400  0.15912600  0.00000000  1
  Ta  Ta5  1  0.66728600  0.84087400  0.00000000  1
  Ta  Ta6  1  0.15912600  0.66728600  0.00000000  1
  Ta  Ta7  1  0.84087400  0.33271400  0.00000000  1
  Co  Co0  1  0.00000000  0.00000000  0.25000000  1
  Co  Co1  1  0.00000000  0.00000000  0.75000000  1
  P  P0  1  0.50000000  0.50000000  0.25000000  1
  P  P1  1  0.50000000  0.50000000  0.75000000  1
loop_
_geom_bond_atom_site_label_1
_geom_bond_atom_site_label_2
_geom_bond_distance
_geom_bond_site_symmetry_2
Co0 Co1 2.505542 1_555
Co0 Co1 2.505542 1_554
Co0 Ta4 2.585761 1_555
Co0 Ta3 2.585761 1_555
Co0 Ta7 2.585761 1_455
Co0 Ta1 2.585761 1_545
Co0 Ta6 2.585761 1_545
Co0 Ta5 2.585761 1_445
Co0 Ta0 2.585761 1_455
Co0 Ta2 2.585761 1_445
Co1 Ta4 2.585761 1_556
Co1 Ta7 2.585761 1_456
Co1 Ta3 2.585761 1_555
Co1 Ta1 2.585761 1_545
Co1 Ta6 2.585761 1_546
Co1 Ta5 2.585761 1_446
Co1 Ta0 2.585761 1_455
Co1 Ta2 2.585761 1_445
P0 P1 2.505542 1_554
P0 P1 2.505542 1_555
P0 Ta0 2.644451 1_555
P0 Ta6 2.644451 1_555
P0 Ta5 2.644451 1_555
P0 Ta2 2.644451 1_555
P0 Ta3 2.644451 1_555
P0 Ta4 2.644451 1_555
P0 Ta1 2.644451 1_555
P0 Ta7 2.644451 1_555
P1 Ta0 2.644451 1_555
P1 Ta6 2.644451 1_556
P1 Ta2 2.644451 1_555
P1 Ta5 2.644451 1_556
P1 Ta3 2.644451 1_555
P1 Ta1 2.644451 1_555
P1 Ta4 2.644451 1_556
P1 Ta7 2.644451 1_556
