# generated using pymatgen
data_CaSb3P3O13
_symmetry_space_group_name_H-M   'P 1'
_cell_length_a   6.97776500
_cell_length_b   8.20479600
_cell_length_c   11.16964265
_cell_angle_alpha   77.87818268
_cell_angle_beta   90.00000000
_cell_angle_gamma   90.00000000
_symmetry_Int_Tables_number   1
_chemical_formula_structural   CaSb3P3O13
_chemical_formula_sum   'Ca2 Sb6 P6 O26'
_cell_volume   625.21660983
_cell_formula_units_Z   2
loop_
 _symmetry_equiv_pos_site_id
 _symmetry_equiv_pos_as_xyz
  1  'x, y, z'
loop_
 _atom_site_type_symbol
 _atom_site_label
 _atom_site_symmetry_multiplicity
 _atom_site_fract_x
 _atom_site_fract_y
 _atom_site_fract_z
 _atom_site_occupancy
  Ca  Ca0  1  0.75000000  0.37427400  0.17771000  1
  Ca  Ca1  1  0.25000000  0.62572600  0.82229000  1
  Sb  Sb0  1  0.25000000  0.64873300  0.23064200  1
  Sb  Sb1  1  0.75000000  0.35126700  0.76935800  1
  Sb  Sb2  1  0.25000000  0.23926600  0.43920600  1
  Sb  Sb3  1  0.50000000  0.00000000  0.00000000  1
  Sb  Sb4  1  0.75000000  0.76073400  0.56079400  1
  Sb  Sb5  1  0.00000000  0.00000000  0.00000000  1
  P  P0  1  0.25000000  0.80816200  0.51347600  1
  P  P1  1  0.75000000  0.19183800  0.48652400  1
  P  P2  1  0.25000000  0.26131300  0.76313200  1
  P  P3  1  0.75000000  0.73868700  0.23686800  1
  P  P4  1  0.75000000  0.68510800  0.89375400  1
  P  P5  1  0.25000000  0.31489200  0.10624600  1
  O  O0  1  0.75000000  0.67704100  0.75535700  1
  O  O1  1  0.57429600  0.22889200  0.39927100  1
  O  O2  1  0.25000000  0.19418600  0.64659600  1
  O  O3  1  0.55879300  0.77483000  0.91432900  1
  O  O4  1  0.75000000  0.30218000  0.58369700  1
  O  O5  1  0.75000000  0.12975600  0.88766100  1
  O  O6  1  0.25000000  0.69782000  0.41630300  1
  O  O7  1  0.05879300  0.22517000  0.08567100  1
  O  O8  1  0.25000000  0.99331200  0.43870100  1
  O  O9  1  0.75000000  0.00668800  0.56129900  1
  O  O10  1  0.07695100  0.37474600  0.77988600  1
  O  O11  1  0.25000000  0.87024400  0.11233900  1
  O  O12  1  0.57695100  0.62525400  0.22011400  1
  O  O13  1  0.75000000  0.50460300  0.96902200  1
  O  O14  1  0.75000000  0.80581400  0.35340400  1
  O  O15  1  0.44120700  0.22517000  0.08567100  1
  O  O16  1  0.92570400  0.22889200  0.39927100  1
  O  O17  1  0.42570400  0.77110800  0.60072900  1
  O  O18  1  0.42304900  0.37474600  0.77988600  1
  O  O19  1  0.25000000  0.32295900  0.24464300  1
  O  O20  1  0.75000000  0.89957300  0.12978400  1
  O  O21  1  0.25000000  0.10042700  0.87021600  1
  O  O22  1  0.92304900  0.62525400  0.22011400  1
  O  O23  1  0.94120700  0.77483000  0.91432900  1
  O  O24  1  0.07429600  0.77110800  0.60072900  1
  O  O25  1  0.25000000  0.49539700  0.03097800  1
loop_
_geom_bond_atom_site_label_1
_geom_bond_atom_site_label_2
_geom_bond_distance
_geom_bond_site_symmetry_2
Ca0 O13 2.351605 1_554
Ca0 O12 2.516439 1_555
Ca0 O22 2.516439 1_555
Ca0 O7 2.779275 1_655
Ca0 O15 2.779275 1_555
Ca0 O16 2.794749 1_555
Ca0 O1 2.794749 1_555
Ca1 O25 2.351605 1_556
Ca1 O18 2.516439 1_555
Ca1 O10 2.516439 1_555
Ca1 O3 2.779275 1_555
Ca1 O23 2.779275 1_455
Ca1 O17 2.794749 1_555
Ca1 O24 2.794749 1_555
O0 P4 1.561086 1_555
O0 Sb4 2.137192 1_555
O0 Sb1 2.644493 1_555
O1 P1 1.555935 1_555
O1 Sb2 2.311428 1_555
O2 P2 1.516167 1_555
O2 Sb2 2.267820 1_555
O3 P4 1.563927 1_555
O3 Sb3 2.289022 1_566
O4 P1 1.552542 1_555
O4 Sb1 2.193966 1_555
O5 Sb1 2.010128 1_555
O5 Sb5 2.278144 1_656
O5 Sb3 2.278144 1_556
O6 P0 1.552542 1_555
O6 Sb0 2.193966 1_555
O7 P5 1.563927 1_555
O7 Sb5 2.289022 1_555
O8 P0 1.572396 1_555
O8 Sb2 2.019194 1_565
O9 P1 1.572396 1_555
O9 Sb4 2.019194 1_545
O10 P2 1.559617 1_555
O10 Sb1 2.294598 1_455
O11 Sb0 2.010128 1_555
O11 Sb5 2.278144 1_565
O11 Sb3 2.278144 1_565
O12 P3 1.559617 1_555
O12 Sb0 2.294598 1_555
O13 P4 1.541838 1_555
O14 P3 1.516167 1_555
O14 Sb4 2.267820 1_555
O15 P5 1.563927 1_555
O15 Sb3 2.289022 1_555
O16 P1 1.555935 1_555
O16 Sb2 2.311428 1_655
O17 P0 1.555935 1_555
O17 Sb4 2.311428 1_555
O18 P2 1.559617 1_555
O18 Sb1 2.294598 1_555
O19 P5 1.561086 1_555
O19 Sb2 2.137192 1_555
O19 Sb0 2.644493 1_555
O20 P3 1.584306 1_555
O20 Sb3 2.306908 1_565
O20 Sb5 2.306908 1_665
O21 P2 1.584306 1_555
O21 Sb3 2.306908 1_556
O21 Sb5 2.306908 1_556
O22 P3 1.559617 1_555
O22 Sb0 2.294598 1_655
O23 P4 1.563927 1_555
O23 Sb5 2.289022 1_666
O24 P0 1.555935 1_555
O24 Sb4 2.311428 1_455
O25 P5 1.541838 1_555
