# generated using pymatgen
data_Zn(CuO2)2
_symmetry_space_group_name_H-M   'P 1'
_cell_length_a   2.92628286
_cell_length_b   8.90410873
_cell_length_c   10.34526025
_cell_angle_alpha   90.07609744
_cell_angle_beta   89.99666674
_cell_angle_gamma   89.71858141
_symmetry_Int_Tables_number   1
_chemical_formula_structural   Zn(CuO2)2
_chemical_formula_sum   'Zn4 Cu8 O16'
_cell_volume   269.55199883
_cell_formula_units_Z   4
loop_
 _symmetry_equiv_pos_site_id
 _symmetry_equiv_pos_as_xyz
  1  'x, y, z'
loop_
 _atom_site_type_symbol
 _atom_site_label
 _atom_site_symmetry_multiplicity
 _atom_site_fract_x
 _atom_site_fract_y
 _atom_site_fract_z
 _atom_site_occupancy
  Zn  Zn0  1  0.73977400  0.24223100  0.34455700  1
  Zn  Zn1  1  0.25673700  0.75637300  0.65956800  1
  Zn  Zn2  1  0.75259800  0.74539900  0.15911800  1
  Zn  Zn3  1  0.24236100  0.25858100  0.84043900  1
  Cu  Cu0  1  0.24905300  0.41320100  0.10253100  1
  Cu  Cu1  1  0.75325200  0.08740000  0.60302100  1
  Cu  Cu2  1  0.25258600  0.91415600  0.39772600  1
  Cu  Cu3  1  0.74868600  0.58834600  0.89782900  1
  Cu  Cu4  1  0.74899800  0.55906600  0.38232500  1
  Cu  Cu5  1  0.25303400  0.44195200  0.61721800  1
  Cu  Cu6  1  0.75529900  0.06241000  0.11722400  1
  Cu  Cu7  1  0.25340600  0.94311700  0.88372500  1
  O  O0  1  0.25202200  0.90596000  0.07098600  1
  O  O1  1  0.75279500  0.10059700  0.92922700  1
  O  O2  1  0.24624800  0.40278500  0.43033700  1
  O  O3  1  0.74960800  0.59961000  0.57036100  1
  O  O4  1  0.25849000  0.02876100  0.71600700  1
  O  O5  1  0.75016300  0.97360200  0.28537800  1
  O  O6  1  0.24925800  0.52912200  0.78462100  1
  O  O7  1  0.74839000  0.46815100  0.21601400  1
  O  O8  1  0.24436100  0.62092000  0.03539900  1
  O  O9  1  0.74957500  0.38189300  0.96508500  1
  O  O10  1  0.23967800  0.12090900  0.46543200  1
  O  O11  1  0.76235700  0.88183400  0.53336500  1
  O  O12  1  0.74624800  0.78956300  0.82378300  1
  O  O13  1  0.25888800  0.21189500  0.17573100  1
  O  O14  1  0.25853700  0.71292800  0.32169000  1
  O  O15  1  0.75142300  0.28821700  0.67742200  1
loop_
_geom_bond_atom_site_label_1
_geom_bond_atom_site_label_2
_geom_bond_distance
_geom_bond_site_symmetry_2
Cu0 O7 1.937884 1_455
Cu0 O7 1.938686 1_555
Cu0 O13 1.946862 1_555
Cu0 O8 1.976493 1_555
Cu0 O9 2.058898 1_454
Cu0 O9 2.059005 1_554
Cu1 O4 1.934913 1_555
Cu1 O15 1.945765 1_555
Cu1 O4 1.954222 1_655
Cu1 O11 1.966291 1_545
Cu1 O10 2.036237 1_655
Cu1 O10 2.090608 1_555
Cu2 O5 1.939107 1_555
Cu2 O5 1.945973 1_455
Cu2 O14 1.955863 1_555
Cu2 O10 1.969017 1_565
Cu2 O11 2.028468 1_455
Cu2 O11 2.067420 1_555
Cu3 O6 1.945757 1_655
Cu3 O6 1.947237 1_555
Cu3 O12 1.949463 1_555
Cu3 O9 1.966403 1_555
Cu3 O8 2.053485 1_656
Cu3 O8 2.069311 1_556
Cu4 O7 1.900490 1_555
Cu4 O3 1.978027 1_555
Cu4 O2 2.069403 1_655
Cu4 O14 2.076860 1_555
Cu4 O2 2.090301 1_555
Cu4 O14 2.125061 1_655
Cu5 O6 1.896875 1_555
Cu5 O2 1.964198 1_555
Cu5 O3 2.083016 1_555
Cu5 O3 2.087449 1_455
Cu5 O15 2.090812 1_555
Cu5 O15 2.106709 1_455
Cu6 O5 1.911933 1_545
Cu6 O1 1.974830 1_554
Cu6 O13 2.055947 1_555
Cu6 O0 2.064090 1_645
Cu6 O13 2.080109 1_655
Cu6 O0 2.087294 1_545
Cu7 O4 1.896287 1_565
Cu7 O0 1.965753 1_556
Cu7 O1 2.076490 1_465
Cu7 O12 2.076571 1_555
Cu7 O1 2.083702 1_565
Cu7 O12 2.115243 1_455
O0 Zn2 2.236952 1_555
O0 Zn2 2.243853 1_455
O1 Zn3 2.213137 1_655
O1 Zn3 2.244225 1_555
O2 Zn0 2.212044 1_555
O2 Zn0 2.246200 1_455
O3 Zn1 2.203829 1_555
O3 Zn1 2.240400 1_655
O4 Zn3 2.416378 1_555
O4 Zn1 2.493939 1_545
O5 Zn2 2.414082 1_555
O5 Zn0 2.468264 1_565
O6 Zn1 2.403323 1_555
O6 Zn3 2.478095 1_555
O7 Zn0 2.413137 1_555
O7 Zn2 2.538696 1_555
O8 Zn2 2.217618 1_455
O8 Zn2 2.256368 1_555
O9 Zn3 2.219975 1_655
O9 Zn3 2.254737 1_555
O10 Zn0 2.204295 1_455
O10 Zn0 2.211603 1_555
O11 Zn1 2.243591 1_655
O11 Zn1 2.271919 1_555
O12 Zn1 2.242416 1_555
O12 Zn1 2.280131 1_655
O13 Zn0 2.259734 1_555
O13 Zn0 2.329247 1_455
O14 Zn2 2.237757 1_555
O14 Zn2 2.258657 1_455
O15 Zn3 2.230557 1_655
O15 Zn3 2.266626 1_555
