# generated using pymatgen
data_Pr(Mg4Al3)4
_symmetry_space_group_name_H-M   'P 1'
_cell_length_a   9.17454842
_cell_length_b   9.17454842
_cell_length_c   9.17454842
_cell_angle_alpha   109.47122063
_cell_angle_beta   109.47122063
_cell_angle_gamma   109.47122063
_symmetry_Int_Tables_number   1
_chemical_formula_structural   Pr(Mg4Al3)4
_chemical_formula_sum   'Pr1 Mg16 Al12'
_cell_volume   594.47309033
_cell_formula_units_Z   1
loop_
 _symmetry_equiv_pos_site_id
 _symmetry_equiv_pos_as_xyz
  1  'x, y, z'
loop_
 _atom_site_type_symbol
 _atom_site_label
 _atom_site_symmetry_multiplicity
 _atom_site_fract_x
 _atom_site_fract_y
 _atom_site_fract_z
 _atom_site_occupancy
  Pr  Pr0  1  0.00000000  0.00000000  0.00000000  1
  Mg  Mg0  1  0.36245600  0.36245600  0.36245600  1
  Mg  Mg1  1  0.63754400  0.00000000  0.00000000  1
  Mg  Mg2  1  0.28302600  0.60232000  0.60232000  1
  Mg  Mg3  1  0.71697400  0.31929400  0.31929400  1
  Mg  Mg4  1  0.00000000  0.68070600  0.39768000  1
  Mg  Mg5  1  0.39768000  0.00000000  0.68070600  1
  Mg  Mg6  1  0.60232000  0.60232000  0.28302600  1
  Mg  Mg7  1  0.00000000  0.00000000  0.63754400  1
  Mg  Mg8  1  0.68070600  0.39768000  0.00000000  1
  Mg  Mg9  1  0.31929400  0.71697400  0.31929400  1
  Mg  Mg10  1  0.31929400  0.31929400  0.71697400  1
  Mg  Mg11  1  0.68070600  0.00000000  0.39768000  1
  Mg  Mg12  1  0.00000000  0.63754400  0.00000000  1
  Mg  Mg13  1  0.39768000  0.68070600  0.00000000  1
  Mg  Mg14  1  0.60232000  0.28302600  0.60232000  1
  Mg  Mg15  1  0.00000000  0.39768000  0.68070600  1
  Al  Al0  1  0.18438500  0.81287200  0.81287200  1
  Al  Al1  1  0.81561500  0.62848700  0.62848700  1
  Al  Al2  1  0.00000000  0.37151300  0.18712800  1
  Al  Al3  1  0.37151300  0.18712800  0.00000000  1
  Al  Al4  1  0.62848700  0.81561500  0.62848700  1
  Al  Al5  1  0.18712800  0.37151300  0.00000000  1
  Al  Al6  1  0.81287200  0.18438500  0.81287200  1
  Al  Al7  1  0.18712800  0.00000000  0.37151300  1
  Al  Al8  1  0.81287200  0.81287200  0.18438500  1
  Al  Al9  1  0.62848700  0.62848700  0.81561500  1
  Al  Al10  1  0.37151300  0.00000000  0.18712800  1
  Al  Al11  1  0.00000000  0.18712800  0.37151300  1
loop_
_geom_bond_atom_site_label_1
_geom_bond_atom_site_label_2
_geom_bond_distance
_geom_bond_site_symmetry_2
Mg0 Mg2 3.020995 1_555
Mg0 Mg14 3.020995 1_555
Mg0 Mg6 3.020995 1_555
Mg0 Pr0 3.325370 1_555
Mg1 Mg3 3.020995 1_555
Mg1 Mg5 3.020995 1_554
Mg1 Mg13 3.020995 1_545
Mg1 Pr0 3.325370 1_655
Mg2 Mg4 3.111206 1_555
Mg2 Mg9 3.181717 1_555
Mg2 Mg5 3.181717 1_565
Mg3 Mg4 3.111206 1_655
Mg3 Mg8 3.181717 1_555
Mg3 Mg6 3.181717 1_555
Mg4 Mg7 3.020995 1_565
Mg4 Mg8 3.181717 1_455
Mg4 Mg6 3.181717 1_455
Mg4 Mg5 3.181717 1_565
Mg4 Mg9 3.181717 1_555
Mg5 Mg9 3.111206 1_545
Mg5 Mg8 3.181717 1_556
Mg6 Mg8 3.111206 1_555
Mg6 Mg9 3.181717 1_555
Mg7 Pr0 3.325370 1_556
Mg10 Mg7 3.020995 1_555
Mg10 Mg8 3.111206 1_556
Mg10 Mg13 3.111206 1_556
Mg10 Mg14 3.181717 1_555
Mg10 Mg2 3.181717 1_555
Mg10 Mg5 3.181717 1_555
Mg10 Mg15 3.181717 1_555
Mg11 Mg7 3.020995 1_655
Mg11 Mg9 3.111206 1_545
Mg11 Mg14 3.111206 1_555
Mg11 Mg15 3.181717 1_655
Mg11 Mg6 3.181717 1_545
Mg11 Mg3 3.181717 1_555
Mg11 Mg13 3.181717 1_545
Mg12 Mg8 3.020995 1_455
Mg12 Mg9 3.020995 1_555
Mg12 Mg15 3.020995 1_554
Mg12 Pr0 3.325370 1_565
Mg13 Mg6 3.111206 1_555
Mg13 Mg9 3.181717 1_555
Mg13 Mg15 3.181717 1_554
Mg13 Mg2 3.181717 1_554
Mg14 Mg5 3.111206 1_555
Mg14 Mg15 3.181717 1_655
Mg14 Mg3 3.181717 1_555
Mg14 Mg8 3.181717 1_556
Mg15 Mg3 3.111206 1_455
Mg15 Mg2 3.111206 1_555
Al0 Al1 2.762451 1_455
Al0 Al3 2.803547 1_566
Al0 Al10 2.803547 1_566
Al0 Mg2 2.850490 1_555
Al0 Mg5 2.996190 1_565
Al0 Mg13 2.996190 1_556
Al0 Mg4 3.177947 1_555
Al0 Mg15 3.177947 1_555
Al0 Mg12 3.218654 1_556
Al0 Mg7 3.218654 1_565
Al0 Pr0 3.265570 1_566
Al1 Al9 2.803547 1_555
Al1 Al4 2.803547 1_555
Al1 Mg3 2.850490 1_555
Al1 Mg6 2.996190 1_555
Al1 Mg14 2.996190 1_555
Al1 Mg15 3.177947 1_655
Al1 Mg4 3.177947 1_655
Al1 Mg7 3.218654 1_665
Al1 Mg12 3.218654 1_656
Al1 Pr0 3.265570 1_666
Al2 Al6 2.803547 1_454
Al2 Al5 2.803547 1_555
Al2 Mg4 2.850490 1_555
Al2 Mg9 2.996190 1_555
Al2 Mg8 2.996190 1_455
Al2 Mg2 3.177947 1_555
Al2 Mg3 3.177947 1_455
Al2 Mg1 3.218654 1_455
Al2 Mg0 3.218654 1_555
Al2 Pr0 3.265570 1_555
Al3 Al5 2.762451 1_555
Al3 Mg8 2.850490 1_555
Al3 Mg3 2.996190 1_555
Al3 Mg5 2.996190 1_554
Al3 Mg6 3.177947 1_555
Al3 Mg10 3.177947 1_554
Al3 Mg7 3.218654 1_554
Al3 Mg0 3.218654 1_555
Al3 Pr0 3.265570 1_555
Al4 Al6 2.762451 1_565
Al4 Al9 2.803547 1_555
Al4 Mg9 2.850490 1_555
Al4 Mg2 2.996190 1_555
Al4 Mg6 2.996190 1_555
Al4 Mg11 3.177947 1_565
Al4 Mg5 3.177947 1_565
Al4 Mg1 3.218654 1_566
Al4 Mg7 3.218654 1_665
Al4 Pr0 3.265570 1_666
Al5 Al6 2.803547 1_454
Al5 Mg13 2.850490 1_555
Al5 Mg9 2.996190 1_555
Al5 Mg15 2.996190 1_554
Al5 Mg6 3.177947 1_555
Al5 Mg10 3.177947 1_554
Al5 Mg7 3.218654 1_554
Al5 Mg0 3.218654 1_555
Al5 Pr0 3.265570 1_555
Al6 Mg14 2.850490 1_555
Al6 Mg8 2.996190 1_556
Al6 Mg15 2.996190 1_655
Al6 Mg5 3.177947 1_555
Al6 Mg11 3.177947 1_555
Al6 Mg7 3.218654 1_655
Al6 Mg1 3.218654 1_556
Al6 Pr0 3.265570 1_656
Al7 Al8 2.803547 1_445
Al7 Mg5 2.850490 1_555
Al7 Mg10 2.996190 1_555
Al7 Mg4 2.996190 1_545
Al7 Mg9 3.177947 1_545
Al7 Mg14 3.177947 1_555
Al7 Mg12 3.218654 1_545
Al7 Mg0 3.218654 1_555
Al7 Pr0 3.265570 1_555
Al8 Al9 2.762451 1_554
Al8 Mg6 2.850490 1_555
Al8 Mg11 2.996190 1_565
Al8 Mg4 2.996190 1_655
Al8 Mg8 3.177947 1_555
Al8 Mg13 3.177947 1_555
Al8 Mg1 3.218654 1_565
Al8 Mg12 3.218654 1_655
Al8 Pr0 3.265570 1_665
Al9 Mg10 2.850490 1_555
Al9 Mg14 2.996190 1_555
Al9 Mg2 2.996190 1_555
Al9 Mg13 3.177947 1_556
Al9 Mg8 3.177947 1_556
Al9 Mg1 3.218654 1_566
Al9 Mg12 3.218654 1_656
Al9 Pr0 3.265570 1_666
Al10 Al7 2.762451 1_555
Al10 Al3 2.803547 1_555
Al10 Mg11 2.850490 1_555
Al10 Mg3 2.996190 1_555
Al10 Mg13 2.996190 1_545
Al10 Mg14 3.177947 1_555
Al10 Mg9 3.177947 1_545
Al10 Mg12 3.218654 1_545
Al10 Mg0 3.218654 1_555
Al10 Pr0 3.265570 1_555
Al11 Al2 2.762451 1_555
Al11 Al8 2.803547 1_445
Al11 Al7 2.803547 1_555
Al11 Mg15 2.850490 1_555
Al11 Mg11 2.996190 1_455
Al11 Mg10 2.996190 1_555
Al11 Mg2 3.177947 1_555
Al11 Mg3 3.177947 1_455
Al11 Mg1 3.218654 1_455
Al11 Mg0 3.218654 1_555
Al11 Pr0 3.265570 1_555
