# generated using pymatgen
data_Sr2CuPtO2
_symmetry_space_group_name_H-M   'P 1'
_cell_length_a   3.92464300
_cell_length_b   3.92464300
_cell_length_c   7.00290000
_cell_angle_alpha   90.00000000
_cell_angle_beta   90.00000000
_cell_angle_gamma   90.00000000
_symmetry_Int_Tables_number   1
_chemical_formula_structural   Sr2CuPtO2
_chemical_formula_sum   'Sr2 Cu1 Pt1 O2'
_cell_volume   107.86442693
_cell_formula_units_Z   1
loop_
 _symmetry_equiv_pos_site_id
 _symmetry_equiv_pos_as_xyz
  1  'x, y, z'
loop_
 _atom_site_type_symbol
 _atom_site_label
 _atom_site_symmetry_multiplicity
 _atom_site_fract_x
 _atom_site_fract_y
 _atom_site_fract_z
 _atom_site_occupancy
  Sr  Sr0  1  0.50000000  0.50000000  0.74112200  1
  Sr  Sr1  1  0.50000000  0.50000000  0.25887800  1
  Cu  Cu0  1  0.00000000  0.00000000  0.50000000  1
  Pt  Pt0  1  0.00000000  0.00000000  0.00000000  1
  O  O0  1  0.00000000  0.50000000  0.50000000  1
  O  O1  1  0.50000000  0.00000000  0.50000000  1
loop_
_geom_bond_atom_site_label_1
_geom_bond_atom_site_label_2
_geom_bond_distance
_geom_bond_site_symmetry_2
Cu0 O1 1.962322 1_455
Cu0 O0 1.962322 1_555
Cu0 O0 1.962322 1_545
Cu0 O1 1.962322 1_555
Pt0 Sr1 3.314816 1_445
Pt0 Sr1 3.314816 1_455
Pt0 Sr1 3.314816 1_545
Pt0 Sr0 3.314816 1_554
Pt0 Sr0 3.314816 1_454
Pt0 Sr0 3.314816 1_444
Pt0 Sr1 3.314816 1_555
Pt0 Sr0 3.314816 1_544
O0 Sr0 2.588806 1_555
O0 Sr0 2.588806 1_455
O0 Sr1 2.588806 1_455
O0 Sr1 2.588806 1_555
O1 Sr0 2.588806 1_555
O1 Sr0 2.588806 1_545
O1 Sr1 2.588806 1_545
O1 Sr1 2.588806 1_555
