# generated using pymatgen
data_HfMg6Ti
_symmetry_space_group_name_H-M   'P 1'
_cell_length_a   5.07171000
_cell_length_b   6.22609200
_cell_length_c   11.06277600
_cell_angle_alpha   90.00000000
_cell_angle_beta   90.00000000
_cell_angle_gamma   90.00000000
_symmetry_Int_Tables_number   1
_chemical_formula_structural   HfMg6Ti
_chemical_formula_sum   'Hf2 Mg12 Ti2'
_cell_volume   349.32853718
_cell_formula_units_Z   2
loop_
 _symmetry_equiv_pos_site_id
 _symmetry_equiv_pos_as_xyz
  1  'x, y, z'
loop_
 _atom_site_type_symbol
 _atom_site_label
 _atom_site_symmetry_multiplicity
 _atom_site_fract_x
 _atom_site_fract_y
 _atom_site_fract_z
 _atom_site_occupancy
  Hf  Hf0  1  0.50000000  0.50000000  0.16620800  1
  Hf  Hf1  1  0.50000000  0.00000000  0.66620800  1
  Mg  Mg0  1  0.50000000  0.25137200  0.41781300  1
  Mg  Mg1  1  0.50000000  0.74862800  0.41781300  1
  Mg  Mg2  1  0.00000000  0.75308800  0.08768500  1
  Mg  Mg3  1  0.00000000  0.24691200  0.08768500  1
  Mg  Mg4  1  0.00000000  0.00000000  0.32714700  1
  Mg  Mg5  1  0.00000000  0.50000000  0.32935600  1
  Mg  Mg6  1  0.50000000  0.75137200  0.91781300  1
  Mg  Mg7  1  0.50000000  0.24862800  0.91781300  1
  Mg  Mg8  1  0.00000000  0.25308800  0.58768500  1
  Mg  Mg9  1  0.00000000  0.74691200  0.58768500  1
  Mg  Mg10  1  0.00000000  0.50000000  0.82714700  1
  Mg  Mg11  1  0.00000000  0.00000000  0.82935600  1
  Ti  Ti0  1  0.50000000  0.00000000  0.16629000  1
  Ti  Ti1  1  0.50000000  0.50000000  0.66629000  1
loop_
_geom_bond_atom_site_label_1
_geom_bond_atom_site_label_2
_geom_bond_distance
_geom_bond_site_symmetry_2
Hf0 Mg3 3.109366 1_655
Hf0 Mg2 3.109366 1_655
Hf0 Mg3 3.109366 1_555
Hf0 Mg2 3.109366 1_555
Hf0 Mg5 3.112574 1_555
Hf0 Mg5 3.112574 1_655
Hf0 Ti0 3.113046 1_555
Hf0 Ti0 3.113046 1_565
Hf0 Mg6 3.162372 1_554
Hf0 Mg7 3.162372 1_554
Hf0 Mg0 3.184939 1_555
Hf0 Mg1 3.184939 1_555
Hf1 Mg9 3.109366 1_545
Hf1 Mg8 3.109366 1_555
Hf1 Mg8 3.109366 1_655
Hf1 Mg9 3.109366 1_645
Hf1 Mg11 3.112574 1_555
Hf1 Mg11 3.112574 1_655
Hf1 Ti1 3.113046 1_555
Hf1 Ti1 3.113046 1_545
Hf1 Mg1 3.162372 1_545
Hf1 Mg0 3.162372 1_555
Hf1 Mg6 3.184939 1_545
Hf1 Mg7 3.184939 1_555
Mg0 Mg1 3.095962 1_555
Mg0 Mg5 3.128006 1_655
Mg0 Mg5 3.128006 1_555
Mg0 Mg1 3.130130 1_545
Mg0 Mg4 3.144206 1_655
Mg0 Mg4 3.144206 1_555
Mg0 Ti1 3.154742 1_555
Mg0 Mg8 3.156308 1_555
Mg0 Mg8 3.156308 1_655
Mg0 Ti0 3.192487 1_555
Mg1 Mg5 3.128006 1_655
Mg1 Mg5 3.128006 1_555
Mg1 Mg4 3.144206 1_665
Mg1 Mg4 3.144206 1_565
Mg1 Ti1 3.154742 1_555
Mg1 Mg9 3.156308 1_655
Mg1 Mg9 3.156308 1_555
Mg1 Ti0 3.192487 1_565
Mg2 Mg4 3.062856 1_565
Mg2 Mg3 3.074594 1_565
Mg2 Ti0 3.090312 1_465
Mg2 Ti0 3.090312 1_565
Mg2 Mg5 3.103364 1_555
Mg2 Mg3 3.151498 1_555
Mg2 Mg6 3.156308 1_454
Mg2 Mg6 3.156308 1_554
Mg3 Mg4 3.062856 1_555
Mg3 Ti0 3.090312 1_555
Mg3 Ti0 3.090312 1_455
Mg3 Mg5 3.103364 1_555
Mg3 Mg7 3.156308 1_554
Mg3 Mg7 3.156308 1_454
Mg4 Ti0 3.097946 1_455
Mg4 Ti0 3.097946 1_555
Mg4 Mg5 3.113142 1_545
Mg4 Mg5 3.113142 1_555
Mg4 Mg8 3.284888 1_555
Mg4 Mg9 3.284888 1_545
Mg5 Mg9 3.245074 1_555
Mg5 Mg8 3.245074 1_555
Mg6 Mg7 3.095962 1_565
Mg6 Mg7 3.130130 1_555
Mg6 Ti0 3.154742 1_566
Mg6 Ti1 3.192487 1_555
Mg7 Ti0 3.154742 1_556
Mg7 Ti1 3.192487 1_555
Mg8 Mg9 3.074594 1_555
Mg8 Ti1 3.090312 1_555
Mg8 Ti1 3.090312 1_455
Mg8 Mg9 3.151498 1_545
Mg9 Ti1 3.090312 1_555
Mg9 Ti1 3.090312 1_455
Mg10 Mg9 3.062856 1_555
Mg10 Mg8 3.062856 1_555
Mg10 Ti1 3.097946 1_455
Mg10 Ti1 3.097946 1_555
Mg10 Mg11 3.113142 1_555
Mg10 Mg11 3.113142 1_565
Mg10 Mg7 3.144206 1_455
Mg10 Mg7 3.144206 1_555
Mg10 Mg6 3.144206 1_555
Mg10 Mg6 3.144206 1_455
Mg10 Mg2 3.284888 1_556
Mg10 Mg3 3.284888 1_556
Mg11 Mg8 3.103364 1_555
Mg11 Mg9 3.103364 1_545
Mg11 Mg6 3.128006 1_445
Mg11 Mg6 3.128006 1_545
Mg11 Mg7 3.128006 1_455
Mg11 Mg7 3.128006 1_555
Mg11 Mg3 3.245074 1_556
Mg11 Mg2 3.245074 1_546
