# generated using pymatgen
data_Mg2Sb2O5
_symmetry_space_group_name_H-M   'P 1'
_cell_length_a   3.16870500
_cell_length_b   7.90275000
_cell_length_c   12.73530600
_cell_angle_alpha   90.00000000
_cell_angle_beta   90.00000000
_cell_angle_gamma   90.00000000
_symmetry_Int_Tables_number   1
_chemical_formula_structural   Mg2Sb2O5
_chemical_formula_sum   'Mg4 Sb4 O10'
_cell_volume   318.91095429
_cell_formula_units_Z   2
loop_
 _symmetry_equiv_pos_site_id
 _symmetry_equiv_pos_as_xyz
  1  'x, y, z'
loop_
 _atom_site_type_symbol
 _atom_site_label
 _atom_site_symmetry_multiplicity
 _atom_site_fract_x
 _atom_site_fract_y
 _atom_site_fract_z
 _atom_site_occupancy
  Mg  Mg0  1  0.00000000  0.58409200  0.40168300  1
  Mg  Mg1  1  0.00000000  0.41590800  0.59831700  1
  Mg  Mg2  1  0.00000000  0.08409200  0.09831700  1
  Mg  Mg3  1  0.00000000  0.91590800  0.90168300  1
  Sb  Sb0  1  0.50000000  0.71519800  0.17018900  1
  Sb  Sb1  1  0.50000000  0.28480200  0.82981100  1
  Sb  Sb2  1  0.50000000  0.78480200  0.67018900  1
  Sb  Sb3  1  0.50000000  0.21519800  0.32981100  1
  O  O0  1  0.50000000  0.00000000  0.00000000  1
  O  O1  1  0.50000000  0.81759600  0.82032500  1
  O  O2  1  0.50000000  0.31759600  0.67967500  1
  O  O3  1  0.50000000  0.68240400  0.32032500  1
  O  O4  1  0.00000000  0.62929200  0.68441800  1
  O  O5  1  0.00000000  0.37070800  0.31558200  1
  O  O6  1  0.50000000  0.18240400  0.17967500  1
  O  O7  1  0.00000000  0.87070800  0.18441800  1
  O  O8  1  0.50000000  0.50000000  0.50000000  1
  O  O9  1  0.00000000  0.12929200  0.81558200  1
loop_
_geom_bond_atom_site_label_1
_geom_bond_atom_site_label_2
_geom_bond_distance
_geom_bond_site_symmetry_2
Mg0 O5 2.011477 1_555
Mg0 O3 2.046300 1_555
Mg0 O3 2.046300 1_455
Mg0 O8 2.125925 1_555
Mg0 O8 2.125925 1_455
Mg1 O4 2.011477 1_555
Mg1 O2 2.046300 1_455
Mg1 O2 2.046300 1_555
Mg1 O8 2.125925 1_555
Mg1 O8 2.125925 1_455
Mg2 O7 2.011477 1_545
Mg2 O6 2.046300 1_555
Mg2 O6 2.046300 1_455
Mg2 O0 2.125925 1_455
Mg2 O0 2.125925 1_555
Mg3 O9 2.011477 1_565
Mg3 O1 2.046300 1_555
Mg3 O1 2.046300 1_455
Mg3 O0 2.125925 1_466
Mg3 O0 2.125925 1_566
O1 Sb2 1.929512 1_555
O2 Sb1 1.929512 1_555
O3 Sb0 1.929512 1_555
O4 Sb2 2.013292 1_455
O4 Sb2 2.013292 1_555
O5 Sb3 2.013292 1_455
O5 Sb3 2.013292 1_555
O6 Sb3 1.929512 1_555
O7 Sb0 2.013292 1_455
O7 Sb0 2.013292 1_555
O9 Sb1 2.013292 1_555
O9 Sb1 2.013292 1_455
