# generated using pymatgen
data_Na2Ca4YZrSi4(O5F)3
_symmetry_space_group_name_H-M   'P 1'
_cell_length_a   7.45743400
_cell_length_b   10.38388845
_cell_length_c   11.18245382
_cell_angle_alpha   89.88432226
_cell_angle_beta   70.89567868
_cell_angle_gamma   89.70094170
_symmetry_Int_Tables_number   1
_chemical_formula_structural   Na2Ca4YZrSi4(O5F)3
_chemical_formula_sum   'Na4 Ca8 Y2 Zr2 Si8 O30 F6'
_cell_volume   818.23413236
_cell_formula_units_Z   2
loop_
 _symmetry_equiv_pos_site_id
 _symmetry_equiv_pos_as_xyz
  1  'x, y, z'
loop_
 _atom_site_type_symbol
 _atom_site_label
 _atom_site_symmetry_multiplicity
 _atom_site_fract_x
 _atom_site_fract_y
 _atom_site_fract_z
 _atom_site_occupancy
  Na  Na0  1  0.65782000  0.62546800  0.42504000  1
  Na  Na1  1  0.34218000  0.37453200  0.57496000  1
  Na  Na2  1  0.66503300  0.88109600  0.92468100  1
  Na  Na3  1  0.33496700  0.11890400  0.07531900  1
  Ca  Ca0  1  0.84032000  0.36656200  0.57502500  1
  Ca  Ca1  1  0.15968000  0.63343800  0.42497500  1
  Ca  Ca2  1  0.47442400  0.90311200  0.30323500  1
  Ca  Ca3  1  0.52557600  0.09688800  0.69676500  1
  Ca  Ca4  1  0.84577200  0.12408300  0.06864200  1
  Ca  Ca5  1  0.15422800  0.87591700  0.93135800  1
  Ca  Ca6  1  0.52436800  0.39475500  0.20098100  1
  Ca  Ca7  1  0.47563200  0.60524500  0.79901900  1
  Y  Y0  1  0.97088900  0.60128700  0.80949700  1
  Y  Y1  1  0.02911100  0.39871300  0.19050300  1
  Zr  Zr0  1  0.98074000  0.90681600  0.28911200  1
  Zr  Zr1  1  0.01926000  0.09318400  0.71088800  1
  Si  Si0  1  0.34346900  0.67978200  0.12105400  1
  Si  Si1  1  0.65653100  0.32021800  0.87894600  1
  Si  Si2  1  0.77705900  0.67984700  0.12959300  1
  Si  Si3  1  0.22294100  0.32015300  0.87040700  1
  Si  Si4  1  0.78531800  0.82907100  0.62076400  1
  Si  Si5  1  0.21468200  0.17092900  0.37923600  1
  Si  Si6  1  0.34255700  0.82700800  0.61855500  1
  Si  Si7  1  0.65744300  0.17299200  0.38144500  1
  O  O0  1  0.20816200  0.76667300  0.24083800  1
  O  O1  1  0.79183800  0.23332700  0.75916200  1
  O  O2  1  0.05497000  0.98274800  0.12039500  1
  O  O3  1  0.94503000  0.01725200  0.87960500  1
  O  O4  1  0.64170200  0.27260000  0.01907400  1
  O  O5  1  0.35829800  0.72740000  0.98092600  1
  O  O6  1  0.55787100  0.83704700  0.63077000  1
  O  O7  1  0.44212900  0.16295300  0.36923000  1
  O  O8  1  0.26694700  0.97713700  0.64159300  1
  O  O9  1  0.73305300  0.02286300  0.35840700  1
  O  O10  1  0.82854100  0.97716000  0.65450200  1
  O  O11  1  0.17145900  0.02284000  0.34549800  1
  O  O12  1  0.78569000  0.72836500  0.73325600  1
  O  O13  1  0.21431000  0.27163500  0.26674400  1
  O  O14  1  0.28736700  0.52768800  0.15125200  1
  O  O15  1  0.71263300  0.47231200  0.84874800  1
  O  O16  1  0.79280100  0.77274300  0.24441200  1
  O  O17  1  0.20719900  0.22725700  0.75558800  1
  O  O18  1  0.90458700  0.72194300  0.98638600  1
  O  O19  1  0.09541300  0.27805700  0.01361400  1
  O  O20  1  0.77325200  0.26478400  0.26155100  1
  O  O21  1  0.22674800  0.73521600  0.73844900  1
  O  O22  1  0.90983300  0.78425800  0.47774900  1
  O  O23  1  0.09016700  0.21574200  0.52225100  1
  O  O24  1  0.55132800  0.70369200  0.14253600  1
  O  O25  1  0.44867200  0.29630800  0.85746400  1
  O  O26  1  0.36091200  0.77091700  0.47990700  1
  O  O27  1  0.63908800  0.22908300  0.52009300  1
  O  O28  1  0.80500200  0.52864200  0.15901500  1
  O  O29  1  0.19499800  0.47135800  0.84098500  1
  F  F0  1  0.93807200  0.49000700  0.39002100  1
  F  F1  1  0.06192800  0.50999300  0.60997900  1
  F  F2  1  0.41589500  0.49420600  0.39051300  1
  F  F3  1  0.58410500  0.50579400  0.60948700  1
  F  F4  1  0.57793700  0.99782800  0.11474300  1
  F  F5  1  0.42206300  0.00217200  0.88525700  1
loop_
_geom_bond_atom_site_label_1
_geom_bond_atom_site_label_2
_geom_bond_distance
_geom_bond_site_symmetry_2
Na0 O16 2.470736 1_555
Na0 O26 2.576756 1_555
Na0 O22 2.712848 1_555
Na1 O17 2.470736 1_555
Na1 O27 2.576756 1_555
Na1 O23 2.712848 1_555
Na2 O3 2.439666 1_565
Na2 O12 2.577798 1_555
Na2 O18 2.677721 1_555
Na2 O5 2.695820 1_555
Na3 O2 2.439666 1_545
Na3 O13 2.577798 1_555
Na3 O19 2.677721 1_555
Na3 O4 2.695820 1_555
Ca0 O27 2.301438 1_555
Ca0 F3 2.319695 1_555
Ca0 F0 2.338016 1_555
Ca0 O23 2.350751 1_655
Ca0 F1 2.356494 1_655
Ca0 O1 2.406469 1_555
Ca1 O26 2.301438 1_555
Ca1 F2 2.319695 1_555
Ca1 F1 2.338016 1_555
Ca1 O22 2.350751 1_455
Ca1 F0 2.356494 1_455
Ca1 O0 2.406469 1_555
Ca2 F4 2.222730 1_555
Ca2 O26 2.326037 1_555
Ca2 O11 2.479463 1_565
Ca2 O9 2.540441 1_565
Ca2 O16 2.617292 1_555
Ca2 O24 2.678470 1_555
Ca2 O0 2.716078 1_555
Ca2 O7 2.787043 1_565
Ca3 F5 2.222730 1_555
Ca3 O27 2.326037 1_555
Ca3 O10 2.479463 1_545
Ca3 O8 2.540441 1_545
Ca3 O17 2.617292 1_555
Ca3 O25 2.678470 1_555
Ca3 O1 2.716078 1_555
Ca3 O6 2.787043 1_545
Ca4 O3 2.285547 1_554
Ca4 F4 2.307506 1_545
Ca4 O2 2.342286 1_645
Ca4 O4 2.350697 1_555
Ca4 O19 2.382867 1_655
Ca4 O20 2.514236 1_555
Ca5 O2 2.285547 1_556
Ca5 F5 2.307506 1_565
Ca5 O3 2.342286 1_465
Ca5 O5 2.350697 1_555
Ca5 O18 2.382867 1_455
Ca5 O21 2.514236 1_555
Ca6 F2 2.256251 1_555
Ca6 O4 2.312177 1_555
Ca6 O28 2.432650 1_555
Ca6 O14 2.439916 1_555
Ca6 O13 2.536874 1_555
Ca6 O20 2.553060 1_555
Ca7 F3 2.256251 1_555
Ca7 O5 2.312177 1_555
Ca7 O29 2.432650 1_555
Ca7 O15 2.439916 1_555
Ca7 O12 2.536874 1_555
Ca7 O21 2.553060 1_555
O0 Si0 1.654421 1_555
O0 Zr0 2.159534 1_455
O1 Si1 1.654421 1_555
O1 Zr1 2.159534 1_655
O2 Zr0 1.950014 1_455
O3 Zr1 1.950014 1_655
O4 Si1 1.611255 1_554
O5 Si0 1.611255 1_556
O6 Si6 1.659258 1_555
O6 Si4 1.664547 1_555
O7 Si7 1.659258 1_555
O7 Si5 1.664547 1_555
O8 Si6 1.646786 1_555
O8 Zr1 2.123198 1_565
O9 Si7 1.646786 1_555
O9 Zr0 2.123198 1_545
O10 Si4 1.642558 1_555
O10 Zr1 2.116579 1_665
O11 Si5 1.642558 1_555
O11 Zr0 2.116579 1_445
O12 Si4 1.634896 1_555
O12 Y0 2.263351 1_555
O13 Si5 1.634896 1_555
O13 Y1 2.263351 1_555
O14 Si0 1.641832 1_555
O14 Y1 2.273035 1_555
O15 Si1 1.641832 1_555
O15 Y0 2.273035 1_555
O16 Si2 1.642459 1_555
O16 Zr0 2.152708 1_555
O17 Si3 1.642459 1_555
O17 Zr1 2.152708 1_555
O18 Si2 1.632371 1_556
O18 Y0 2.256150 1_555
O19 Si3 1.632371 1_554
O19 Y1 2.256150 1_555
O20 Si7 1.642372 1_555
O20 Y1 2.288423 1_655
O21 Si6 1.642372 1_555
O21 Y0 2.288423 1_455
O22 Si4 1.631818 1_555
O22 Zr0 2.369582 1_555
O23 Si5 1.631818 1_555
O23 Zr1 2.369582 1_555
O24 Si2 1.659010 1_555
O24 Si0 1.664375 1_555
O25 Si3 1.659010 1_555
O25 Si1 1.664375 1_555
O26 Si6 1.620398 1_555
O27 Si7 1.620398 1_555
O28 Si2 1.629800 1_555
O28 Y1 2.257689 1_655
O29 Si3 1.629800 1_555
O29 Y0 2.257689 1_455
F0 Y1 2.312516 1_655
F0 Na0 2.436320 1_555
F1 Y0 2.312516 1_455
F1 Na1 2.436320 1_555
F2 Na1 2.314139 1_555
F2 Na0 2.396986 1_555
F3 Na0 2.314139 1_555
F3 Na1 2.396986 1_555
F4 Na2 2.346669 1_554
F4 Na3 2.356898 1_565
F5 Na3 2.346669 1_556
F5 Na2 2.356898 1_545
