# generated using pymatgen
data_Sr2Mn3(SbO)2
_symmetry_space_group_name_H-M   'P 1'
_cell_length_a   4.34505277
_cell_length_b   4.34505234
_cell_length_c   10.73211514
_cell_angle_alpha   101.67922382
_cell_angle_beta   101.67922592
_cell_angle_gamma   89.99999534
_symmetry_Int_Tables_number   1
_chemical_formula_structural   Sr2Mn3(SbO)2
_chemical_formula_sum   'Sr2 Mn3 Sb2 O2'
_cell_volume   194.13630555
_cell_formula_units_Z   1
loop_
 _symmetry_equiv_pos_site_id
 _symmetry_equiv_pos_as_xyz
  1  'x, y, z'
loop_
 _atom_site_type_symbol
 _atom_site_label
 _atom_site_symmetry_multiplicity
 _atom_site_fract_x
 _atom_site_fract_y
 _atom_site_fract_z
 _atom_site_occupancy
  Sr  Sr0  1  0.42160900  0.42160900  0.84321800  1
  Sr  Sr1  1  0.57839200  0.57839200  0.15678300  1
  Mn  Mn0  1  0.00000000  0.00000000  0.00000000  1
  Mn  Mn1  1  0.75000000  0.25000100  0.50000000  1
  Mn  Mn2  1  0.25000100  0.75000000  0.50000000  1
  Sb  Sb0  1  0.83911600  0.83911600  0.67823200  1
  Sb  Sb1  1  0.16088300  0.16088300  0.32176700  1
  O  O0  1  0.99999900  0.49999900  0.00000000  1
  O  O1  1  0.50000100  0.00000000  0.00000000  1
loop_
_geom_bond_atom_site_label_1
_geom_bond_atom_site_label_2
_geom_bond_distance
_geom_bond_site_symmetry_2
Mn0 O0 2.172522 1_455
Mn0 O1 2.172522 1_455
Mn0 O0 2.172531 1_445
Mn0 O1 2.172531 1_555
Mn0 Sb1 3.308706 1_555
Mn0 Sb0 3.308716 1_444
Mn1 Sb0 2.842325 1_555
Mn1 Sb0 2.842331 1_545
Mn1 Sb1 2.842333 1_655
Mn1 Sb1 2.842337 1_555
Mn2 Sb0 2.842325 1_555
Mn2 Sb0 2.842332 1_455
Mn2 Sb1 2.842333 1_565
Mn2 Sb1 2.842337 1_555
Sb0 Sr0 3.509699 1_655
Sb0 Sr0 3.509699 1_565
Sb0 Sr0 3.509699 1_555
Sb0 Sr0 3.509699 1_665
Sb1 Sr1 3.509684 1_445
Sb1 Sr1 3.509689 1_455
Sb1 Sr1 3.509689 1_545
Sb1 Sr1 3.509694 1_555
O0 Sr0 2.705359 1_554
O0 Sr1 2.705364 1_555
O0 Sr0 2.705366 1_654
O0 Sr1 2.705374 1_655
O1 Sr0 2.705363 1_554
O1 Sr0 2.705363 1_544
O1 Sr1 2.705367 1_545
O1 Sr1 2.705371 1_555
