# generated using pymatgen
data_ZrTi2
_symmetry_space_group_name_H-M   'P 1'
_cell_length_a   5.53486136
_cell_length_b   5.53486136
_cell_length_c   5.53486136
_cell_angle_alpha   60.00000000
_cell_angle_beta   60.00000000
_cell_angle_gamma   60.00000000
_symmetry_Int_Tables_number   1
_chemical_formula_structural   ZrTi2
_chemical_formula_sum   'Zr2 Ti4'
_cell_volume   119.89615141
_cell_formula_units_Z   2
loop_
 _symmetry_equiv_pos_site_id
 _symmetry_equiv_pos_as_xyz
  1  'x, y, z'
loop_
 _atom_site_type_symbol
 _atom_site_label
 _atom_site_symmetry_multiplicity
 _atom_site_fract_x
 _atom_site_fract_y
 _atom_site_fract_z
 _atom_site_occupancy
  Zr  Zr0  1  0.25000000  0.25000000  0.25000000  1
  Zr  Zr1  1  0.00000000  0.00000000  0.00000000  1
  Ti  Ti0  1  0.62500000  0.62500000  0.12500000  1
  Ti  Ti1  1  0.62500000  0.12500000  0.62500000  1
  Ti  Ti2  1  0.12500000  0.62500000  0.62500000  1
  Ti  Ti3  1  0.62500000  0.62500000  0.62500000  1
loop_
_geom_bond_atom_site_label_1
_geom_bond_atom_site_label_2
_geom_bond_distance
_geom_bond_site_symmetry_2
Zr0 Zr1 3.389397 1_655
Zr0 Zr1 3.389397 1_565
Zr0 Zr1 3.389397 1_556
Zr0 Zr1 3.389397 1_555
Ti0 Ti3 2.767431 1_555
Ti0 Ti1 2.767431 1_555
Ti0 Ti2 2.767431 1_555
Ti0 Ti3 2.767431 1_554
Ti0 Ti1 2.767431 1_564
Ti0 Ti2 2.767431 1_654
Ti0 Zr1 3.245100 1_565
Ti0 Zr1 3.245100 1_665
Ti0 Zr1 3.245100 1_655
Ti0 Zr0 3.245100 1_555
Ti0 Zr0 3.245100 1_655
Ti0 Zr0 3.245100 1_565
Ti1 Ti3 2.767431 1_555
Ti1 Ti3 2.767431 1_545
Ti1 Ti2 2.767431 1_645
Ti1 Ti2 2.767431 1_555
Ti1 Zr1 3.245100 1_655
Ti1 Zr0 3.245100 1_555
Ti1 Zr0 3.245100 1_556
Ti1 Zr1 3.245100 1_556
Ti1 Zr0 3.245100 1_655
Ti1 Zr1 3.245100 1_656
Ti2 Ti3 2.767431 1_555
Ti2 Ti3 2.767431 1_455
Ti2 Zr1 3.245100 1_566
Ti2 Zr1 3.245100 1_565
Ti2 Zr0 3.245100 1_555
Ti2 Zr0 3.245100 1_556
Ti2 Zr1 3.245100 1_556
Ti2 Zr0 3.245100 1_565
Ti3 Zr1 3.245100 1_566
Ti3 Zr1 3.245100 1_665
Ti3 Zr0 3.245100 1_556
Ti3 Zr0 3.245100 1_655
Ti3 Zr0 3.245100 1_565
Ti3 Zr1 3.245100 1_656
