# generated using pymatgen
data_CaCeMg6
_symmetry_space_group_name_H-M   'P 1'
_cell_length_a   6.57180275
_cell_length_b   6.57180275
_cell_length_c   5.33308500
_cell_angle_alpha   90.00000000
_cell_angle_beta   90.00000000
_cell_angle_gamma   117.73044797
_symmetry_Int_Tables_number   1
_chemical_formula_structural   CaCeMg6
_chemical_formula_sum   'Ca1 Ce1 Mg6'
_cell_volume   203.87439712
_cell_formula_units_Z   1
loop_
 _symmetry_equiv_pos_site_id
 _symmetry_equiv_pos_as_xyz
  1  'x, y, z'
loop_
 _atom_site_type_symbol
 _atom_site_label
 _atom_site_symmetry_multiplicity
 _atom_site_fract_x
 _atom_site_fract_y
 _atom_site_fract_z
 _atom_site_occupancy
  Ca  Ca0  1  0.84320300  0.15679700  0.00000000  1
  Ce  Ce0  1  0.65496600  0.34503400  0.50000000  1
  Mg  Mg0  1  0.83556300  0.66593800  0.00000000  1
  Mg  Mg1  1  0.33406200  0.16443700  0.00000000  1
  Mg  Mg2  1  0.33668900  0.66331100  0.00000000  1
  Mg  Mg3  1  0.66810300  0.83292300  0.50000000  1
  Mg  Mg4  1  0.16707700  0.33189700  0.50000000  1
  Mg  Mg5  1  0.16033900  0.83966100  0.50000000  1
loop_
_geom_bond_atom_site_label_1
_geom_bond_atom_site_label_2
_geom_bond_distance
_geom_bond_site_symmetry_2
Ca0 Mg1 3.202774 1_655
Ca0 Mg0 3.202774 1_545
Ca0 Mg3 3.268873 1_545
Ca0 Mg3 3.268873 1_544
Ca0 Mg4 3.268873 1_654
Ca0 Mg4 3.268873 1_655
Ca0 Mg0 3.369630 1_555
Ca0 Mg1 3.369630 1_555
Ca0 Mg2 3.398760 1_655
Ca0 Mg2 3.398760 1_545
Ca0 Ce0 3.405174 1_554
Ca0 Ce0 3.405174 1_555
Ce0 Mg4 3.167060 1_555
Ce0 Mg3 3.167060 1_555
Ce0 Mg0 3.261483 1_555
Ce0 Mg0 3.261483 1_556
Ce0 Mg1 3.261483 1_556
Ce0 Mg1 3.261483 1_555
Ce0 Mg5 3.398508 1_545
Ce0 Mg5 3.398508 1_655
Ce0 Mg3 3.406522 1_545
Ce0 Mg4 3.406522 1_655
Mg0 Mg3 3.263397 1_555
Mg0 Mg3 3.263397 1_554
Mg0 Mg2 3.270504 1_555
Mg0 Mg5 3.271342 1_654
Mg0 Mg5 3.271342 1_655
Mg0 Mg2 3.301370 1_655
Mg0 Mg1 3.387769 1_665
Mg0 Mg1 3.408171 1_555
Mg1 Mg4 3.263397 1_555
Mg1 Mg4 3.263397 1_554
Mg1 Mg2 3.270504 1_555
Mg1 Mg5 3.271342 1_544
Mg1 Mg5 3.271342 1_545
Mg1 Mg2 3.301370 1_545
Mg2 Mg4 3.291998 1_554
Mg2 Mg4 3.291998 1_555
Mg2 Mg3 3.291998 1_555
Mg2 Mg3 3.291998 1_554
Mg2 Mg5 3.323654 1_554
Mg2 Mg5 3.323654 1_555
Mg3 Mg5 3.214512 1_655
Mg3 Mg5 3.357758 1_555
Mg3 Mg4 3.390997 1_665
Mg3 Mg4 3.404943 1_555
Mg4 Mg5 3.214512 1_545
Mg4 Mg5 3.357758 1_555
