# generated using pymatgen
data_Gd3(CoGe2)2
_symmetry_space_group_name_H-M   'P 1'
_cell_length_a   4.19907900
_cell_length_b   5.77636287
_cell_length_c   8.08163596
_cell_angle_alpha   106.35692935
_cell_angle_beta   90.00000000
_cell_angle_gamma   111.31350091
_symmetry_Int_Tables_number   1
_chemical_formula_structural   Gd3(CoGe2)2
_chemical_formula_sum   'Gd3 Co2 Ge4'
_cell_volume   174.07259906
_cell_formula_units_Z   1
loop_
 _symmetry_equiv_pos_site_id
 _symmetry_equiv_pos_as_xyz
  1  'x, y, z'
loop_
 _atom_site_type_symbol
 _atom_site_label
 _atom_site_symmetry_multiplicity
 _atom_site_fract_x
 _atom_site_fract_y
 _atom_site_fract_z
 _atom_site_occupancy
  Gd  Gd0  1  0.37743900  0.75487800  0.30804900  1
  Gd  Gd1  1  0.62256100  0.24512200  0.69195100  1
  Gd  Gd2  1  0.00000000  0.00000000  0.00000000  1
  Co  Co0  1  0.30725600  0.61451100  0.62669400  1
  Co  Co1  1  0.69274400  0.38548900  0.37330600  1
  Ge  Ge0  1  0.10095300  0.20190600  0.40041700  1
  Ge  Ge1  1  0.89904700  0.79809400  0.59958300  1
  Ge  Ge2  1  0.71096500  0.42192900  0.08038100  1
  Ge  Ge3  1  0.28903500  0.57807100  0.91961900  1
loop_
_geom_bond_atom_site_label_1
_geom_bond_atom_site_label_2
_geom_bond_distance
_geom_bond_site_symmetry_2
Gd0 Ge3 2.992283 1_554
Gd0 Ge2 3.001746 1_455
Gd0 Ge2 3.001749 1_555
Gd0 Ge0 3.109095 1_565
Gd0 Ge0 3.109096 1_665
Gd0 Ge1 3.111584 1_455
Gd0 Ge1 3.111584 1_555
Gd0 Ge0 3.279488 1_555
Gd1 Ge2 2.992283 1_556
Gd1 Ge3 3.001746 1_655
Gd1 Ge3 3.001749 1_555
Gd1 Ge1 3.109095 1_545
Gd1 Ge1 3.109096 1_445
Gd1 Ge0 3.111584 1_655
Gd1 Ge0 3.111584 1_555
Gd1 Ge1 3.279488 1_555
Gd2 Ge2 3.015556 1_455
Gd2 Ge3 3.015556 1_544
Gd2 Ge2 3.015560 1_555
Gd2 Ge3 3.015560 1_444
Gd2 Ge1 3.086524 1_444
Gd2 Ge0 3.086524 1_555
Gd2 Ge3 3.364614 1_554
Gd2 Ge2 3.364614 1_445
Co0 Ge1 2.358581 1_555
Co0 Ge1 2.358584 1_455
Co0 Ge0 2.412304 1_555
Co0 Ge3 2.433780 1_555
Co0 Gd0 2.894497 1_555
Co0 Gd1 3.044882 1_555
Co0 Gd1 3.044885 1_455
Co0 Gd1 3.272914 1_565
Co1 Ge0 2.358581 1_555
Co1 Ge0 2.358584 1_655
Co1 Ge1 2.412304 1_555
Co1 Ge2 2.433780 1_555
Co1 Gd1 2.894497 1_555
Co1 Gd0 3.044882 1_555
Co1 Gd0 3.044885 1_655
Co1 Gd0 3.272914 1_545
Ge0 Ge1 3.070423 1_445
Ge2 Ge3 2.731674 1_654
Ge2 Ge3 2.731681 1_554
