# generated using pymatgen
data_Pr2MgSe4
_symmetry_space_group_name_H-M   'P 1'
_cell_length_a   7.78403400
_cell_length_b   9.07612009
_cell_length_c   13.71492395
_cell_angle_alpha   99.60161152
_cell_angle_beta   96.00031957
_cell_angle_gamma   90.16157015
_symmetry_Int_Tables_number   1
_chemical_formula_structural   Pr2MgSe4
_chemical_formula_sum   'Pr8 Mg4 Se16'
_cell_volume   949.93279608
_cell_formula_units_Z   4
loop_
 _symmetry_equiv_pos_site_id
 _symmetry_equiv_pos_as_xyz
  1  'x, y, z'
loop_
 _atom_site_type_symbol
 _atom_site_label
 _atom_site_symmetry_multiplicity
 _atom_site_fract_x
 _atom_site_fract_y
 _atom_site_fract_z
 _atom_site_occupancy
  Pr  Pr0  1  0.86672400  0.30032500  0.68947300  1
  Pr  Pr1  1  0.13327600  0.69967500  0.31052700  1
  Pr  Pr2  1  0.75578600  0.13215700  0.00066400  1
  Pr  Pr3  1  0.24421400  0.86784300  0.99933600  1
  Pr  Pr4  1  0.63151700  0.44328900  0.30778800  1
  Pr  Pr5  1  0.36848300  0.55671100  0.69221200  1
  Pr  Pr6  1  0.63536900  0.96004600  0.31172500  1
  Pr  Pr7  1  0.36463100  0.03995400  0.68827500  1
  Mg  Mg0  1  0.86454500  0.79957800  0.70328300  1
  Mg  Mg1  1  0.13545500  0.20042200  0.29671700  1
  Mg  Mg2  1  0.75138000  0.62041700  0.99415500  1
  Mg  Mg3  1  0.24862000  0.37958300  0.00584500  1
  Se  Se0  1  0.91434300  0.35971100  0.89811200  1
  Se  Se1  1  0.08565700  0.64028900  0.10188800  1
  Se  Se2  1  0.88399200  0.83875300  0.89285400  1
  Se  Se3  1  0.11600800  0.16124700  0.10714600  1
  Se  Se4  1  0.84449700  0.22051600  0.37621800  1
  Se  Se5  1  0.15550300  0.77948400  0.62378200  1
  Se  Se6  1  0.80540700  0.71947000  0.38390100  1
  Se  Se7  1  0.19459300  0.28053000  0.61609900  1
  Se  Se8  1  0.70235900  0.01388300  0.62758900  1
  Se  Se9  1  0.29764100  0.98611700  0.37241100  1
  Se  Se10  1  0.69917300  0.55003600  0.62333300  1
  Se  Se11  1  0.30082700  0.44996400  0.37666700  1
  Se  Se12  1  0.61457900  0.89017200  0.10335400  1
  Se  Se13  1  0.38542100  0.10982800  0.89664600  1
  Se  Se14  1  0.58995000  0.41289200  0.09966900  1
  Se  Se15  1  0.41005000  0.58710800  0.90033100  1
loop_
_geom_bond_atom_site_label_1
_geom_bond_atom_site_label_2
_geom_bond_distance
_geom_bond_site_symmetry_2
Pr0 Se0 2.806872 1_555
Pr0 Se7 2.835068 1_655
Pr0 Se10 2.848787 1_555
Pr0 Se8 2.852065 1_555
Pr1 Se1 2.806872 1_555
Pr1 Se6 2.835068 1_455
Pr1 Se11 2.848787 1_555
Pr1 Se9 2.852065 1_555
Pr2 Se3 3.012614 1_655
Pr2 Se0 3.014064 1_554
Pr2 Se14 3.038614 1_555
Pr2 Se2 3.046897 1_544
Pr2 Se12 3.058967 1_545
Pr2 Se13 3.070500 1_554
Pr3 Se2 3.012614 1_455
Pr3 Se1 3.014064 1_556
Pr3 Se15 3.038614 1_555
Pr3 Se3 3.046897 1_566
Pr3 Se13 3.058967 1_565
Pr3 Se12 3.070500 1_556
Pr4 Se14 2.805665 1_555
Pr4 Se11 2.830591 1_555
Pr4 Se6 2.831554 1_555
Pr4 Se4 2.836199 1_555
Pr5 Se15 2.805665 1_555
Pr5 Se10 2.830591 1_555
Pr5 Se7 2.831554 1_555
Pr5 Se5 2.836199 1_555
Pr6 Se12 2.809537 1_555
Pr6 Se6 2.821846 1_555
Pr6 Se4 2.828563 1_565
Pr6 Se9 2.838137 1_555
Pr7 Se13 2.809537 1_555
Pr7 Se7 2.821846 1_555
Pr7 Se5 2.828563 1_545
Pr7 Se8 2.838137 1_555
Mg0 Se2 2.553060 1_555
Mg0 Se5 2.608418 1_655
Mg0 Se10 2.617063 1_555
Mg0 Se8 2.620732 1_565
Mg1 Se3 2.553060 1_555
Mg1 Se4 2.608418 1_455
Mg1 Se11 2.617063 1_555
Mg1 Se9 2.620732 1_545
Mg2 Se15 2.820883 1_555
Mg2 Se1 2.844447 1_656
Mg2 Se2 2.851220 1_555
Mg2 Se0 2.875692 1_555
Mg2 Se12 2.914815 1_556
Mg2 Se14 2.914940 1_556
Mg3 Se14 2.820883 1_555
Mg3 Se0 2.844447 1_454
Mg3 Se3 2.851220 1_555
Mg3 Se1 2.875692 1_555
Mg3 Se13 2.914815 1_554
Mg3 Se15 2.914940 1_554
