# generated using pymatgen
data_LuInNi
_symmetry_space_group_name_H-M   'P 1'
_cell_length_a   7.34395362
_cell_length_b   7.34395362
_cell_length_c   3.65197856
_cell_angle_alpha   90.00000000
_cell_angle_beta   90.00000000
_cell_angle_gamma   119.99999784
_symmetry_Int_Tables_number   1
_chemical_formula_structural   LuInNi
_chemical_formula_sum   'Lu3 In3 Ni3'
_cell_volume   170.57630844
_cell_formula_units_Z   3
loop_
 _symmetry_equiv_pos_site_id
 _symmetry_equiv_pos_as_xyz
  1  'x, y, z'
loop_
 _atom_site_type_symbol
 _atom_site_label
 _atom_site_symmetry_multiplicity
 _atom_site_fract_x
 _atom_site_fract_y
 _atom_site_fract_z
 _atom_site_occupancy
  Lu  Lu0  1  0.59011261  0.00000000  0.00000000  1
  Lu  Lu1  1  0.00000000  0.59011261  -0.00000000  1
  Lu  Lu2  1  0.40988739  0.40988739  0.00000000  1
  In  In0  1  0.25742060  0.00000000  0.50000000  1
  In  In1  1  0.00000000  0.25742060  0.50000000  1
  In  In2  1  0.74257940  0.74257940  0.50000000  1
  Ni  Ni0  1  0.33333300  0.66666700  0.50000000  1
  Ni  Ni1  1  0.66666700  0.33333300  0.50000000  1
  Ni  Ni2  1  -0.00000000  -0.00000000  -0.00000000  1
loop_
_geom_bond_atom_site_label_1
_geom_bond_atom_site_label_2
_geom_bond_distance
_geom_bond_site_symmetry_2
Lu0 Ni1 2.875178 1_555
Lu0 Ni1 2.875178 1_554
Lu0 Ni0 2.875180 1_544
Lu0 Ni0 2.875180 1_545
Lu0 Ni2 3.010194 1_655
Lu1 Ni0 2.875178 1_554
Lu1 Ni0 2.875178 1_555
Lu1 Ni1 2.875180 1_455
Lu1 Ni1 2.875180 1_454
Lu1 Ni2 3.010194 1_565
Lu2 Ni1 2.875184 1_554
Lu2 Ni1 2.875184 1_555
Lu2 Ni0 2.875184 1_554
Lu2 Ni0 2.875184 1_555
Lu2 Ni2 3.010194 1_555
In0 Ni2 2.628340 1_556
In0 Ni2 2.628340 1_555
In0 Ni0 2.769145 1_545
In0 Ni1 2.769150 1_555
In0 Lu0 3.050218 1_556
In0 Lu0 3.050218 1_555
In0 Lu2 3.206043 1_556
In0 Lu2 3.206043 1_555
In0 Lu1 3.206043 1_546
In0 Lu1 3.206043 1_545
In0 In1 3.274416 1_555
In0 In2 3.274416 1_445
In1 Ni2 2.628340 1_556
In1 Ni2 2.628340 1_555
In1 Ni1 2.769145 1_455
In1 Ni0 2.769150 1_555
In1 Lu1 3.050218 1_556
In1 Lu1 3.050218 1_555
In1 Lu2 3.206043 1_556
In1 Lu2 3.206043 1_555
In1 Lu0 3.206043 1_455
In1 Lu0 3.206043 1_456
In1 In2 3.274416 1_445
In2 Ni2 2.628340 1_665
In2 Ni2 2.628340 1_666
In2 Ni0 2.769152 1_555
In2 Ni1 2.769152 1_555
In2 Lu2 3.050218 1_556
In2 Lu2 3.050218 1_555
In2 Lu1 3.206043 1_655
In2 Lu1 3.206043 1_656
In2 Lu0 3.206043 1_566
In2 Lu0 3.206043 1_565
