# generated using pymatgen
data_CsHfMg6O7
_symmetry_space_group_name_H-M   'P 1'
_cell_length_a   4.10475700
_cell_length_b   4.10475700
_cell_length_c   14.06282500
_cell_angle_alpha   90.00000000
_cell_angle_beta   90.00000000
_cell_angle_gamma   90.00000000
_symmetry_Int_Tables_number   1
_chemical_formula_structural   CsHfMg6O7
_chemical_formula_sum   'Cs1 Hf1 Mg6 O7'
_cell_volume   236.94496072
_cell_formula_units_Z   1
loop_
 _symmetry_equiv_pos_site_id
 _symmetry_equiv_pos_as_xyz
  1  'x, y, z'
loop_
 _atom_site_type_symbol
 _atom_site_label
 _atom_site_symmetry_multiplicity
 _atom_site_fract_x
 _atom_site_fract_y
 _atom_site_fract_z
 _atom_site_occupancy
  Cs  Cs0  1  0.00000000  0.00000000  0.11299100  1
  Hf  Hf0  1  0.50000000  0.50000000  0.92619300  1
  Mg  Mg0  1  0.00000000  0.00000000  0.56369900  1
  Mg  Mg1  1  0.50000000  0.50000000  0.56858200  1
  Mg  Mg2  1  0.00000000  0.50000000  0.38522900  1
  Mg  Mg3  1  0.00000000  0.50000000  0.74653800  1
  Mg  Mg4  1  0.50000000  0.00000000  0.38522900  1
  Mg  Mg5  1  0.50000000  0.00000000  0.74653800  1
  O  O0  1  0.00000000  0.00000000  0.70449200  1
  O  O1  1  0.50000000  0.50000000  0.06033900  1
  O  O2  1  0.50000000  0.50000000  0.71387700  1
  O  O3  1  0.00000000  0.50000000  0.88839700  1
  O  O4  1  0.00000000  0.50000000  0.52974900  1
  O  O5  1  0.50000000  0.00000000  0.88839700  1
  O  O6  1  0.50000000  0.00000000  0.52974900  1
loop_
_geom_bond_atom_site_label_1
_geom_bond_atom_site_label_2
_geom_bond_distance
_geom_bond_site_symmetry_2
Cs0 O1 2.995457 1_445
Cs0 O1 2.995457 1_455
Cs0 O1 2.995457 1_555
Cs0 O1 2.995457 1_545
Hf0 O1 1.886472 1_556
Hf0 O5 2.120087 1_555
Hf0 O5 2.120087 1_565
Hf0 O3 2.120087 1_555
Hf0 O3 2.120087 1_655
Mg0 O0 1.979947 1_555
Mg0 O6 2.107178 1_455
Mg0 O4 2.107178 1_545
Mg0 O6 2.107178 1_555
Mg0 O4 2.107178 1_555
Mg1 O2 2.043258 1_555
Mg1 O6 2.123790 1_555
Mg1 O6 2.123790 1_565
Mg1 O4 2.123790 1_555
Mg1 O4 2.123790 1_655
Mg2 O4 2.032359 1_555
Mg3 O3 1.994938 1_555
Mg3 O2 2.103145 1_555
Mg3 O2 2.103145 1_455
Mg3 O0 2.135855 1_565
Mg3 O0 2.135855 1_555
Mg4 O6 2.032359 1_555
Mg5 O5 1.994938 1_555
Mg5 O2 2.103145 1_555
Mg5 O2 2.103145 1_545
Mg5 O0 2.135855 1_655
Mg5 O0 2.135855 1_555
