# generated using pymatgen
data_Sr5Ti4FeO15
_symmetry_space_group_name_H-M   'P 1'
_cell_length_a   8.80302042
_cell_length_b   16.85106599
_cell_length_c   8.80309488
_cell_angle_alpha   102.66383819
_cell_angle_beta   101.85576609
_cell_angle_gamma   77.33574826
_symmetry_Int_Tables_number   1
_chemical_formula_structural   Sr5Ti4FeO15
_chemical_formula_sum   'Sr20 Ti16 Fe4 O60'
_cell_volume   1225.98225180
_cell_formula_units_Z   4
loop_
 _symmetry_equiv_pos_site_id
 _symmetry_equiv_pos_as_xyz
  1  'x, y, z'
loop_
 _atom_site_type_symbol
 _atom_site_label
 _atom_site_symmetry_multiplicity
 _atom_site_fract_x
 _atom_site_fract_y
 _atom_site_fract_z
 _atom_site_occupancy
  Sr  Sr0  1  0.19997500  0.39999400  0.80005600  1
  Sr  Sr1  1  0.44995700  0.89997200  0.04999500  1
  Sr  Sr2  1  0.70000900  0.39999200  0.30002400  1
  Sr  Sr3  1  0.95000600  0.89997400  0.54996600  1
  Sr  Sr4  1  0.10009900  0.20167400  0.89989200  1
  Sr  Sr5  1  0.35006700  0.70167000  0.14992800  1
  Sr  Sr6  1  0.60004800  0.20170800  0.39995000  1
  Sr  Sr7  1  0.85002500  0.70167300  0.64994200  1
  Sr  Sr8  1  0.04999700  0.09824400  0.45003200  1
  Sr  Sr9  1  0.29993700  0.59828900  0.70005700  1
  Sr  Sr10  1  0.54995100  0.09826700  0.94999000  1
  Sr  Sr11  1  0.79995200  0.59825700  0.20003900  1
  Sr  Sr12  1  0.15155500  0.30280800  0.34849500  1
  Sr  Sr13  1  0.40152000  0.80278000  0.59851900  1
  Sr  Sr14  1  0.65149300  0.30276000  0.84845500  1
  Sr  Sr15  1  0.90150500  0.80278400  0.09853900  1
  Sr  Sr16  1  0.24843800  0.49715800  0.25150900  1
  Sr  Sr17  1  0.49855100  0.99717400  0.50151600  1
  Sr  Sr18  1  0.74849300  0.49721000  0.75155200  1
  Sr  Sr19  1  0.99855700  0.99714400  0.00146500  1
  Ti  Ti0  1  0.24769700  0.00236700  0.75224100  1
  Ti  Ti1  1  0.49772500  0.50236300  0.00237400  1
  Ti  Ti2  1  0.74778900  0.00238100  0.25228200  1
  Ti  Ti3  1  0.99776400  0.50234500  0.50220700  1
  Ti  Ti4  1  0.90231900  0.29757000  0.59771100  1
  Ti  Ti5  1  0.15222500  0.79756300  0.84773500  1
  Ti  Ti6  1  0.40221400  0.29759200  0.09780100  1
  Ti  Ti7  1  0.65228900  0.79757800  0.34772700  1
  Ti  Ti8  1  0.79709600  0.09896500  0.70287900  1
  Ti  Ti9  1  0.04709300  0.59895700  0.95286800  1
  Ti  Ti10  1  0.29712300  0.09897700  0.20289000  1
  Ti  Ti11  1  0.54715600  0.59901000  0.45291800  1
  Ti  Ti12  1  0.35294000  0.20097700  0.64710400  1
  Ti  Ti13  1  0.60287900  0.70094000  0.89710100  1
  Ti  Ti14  1  0.85288600  0.20095900  0.14709200  1
  Ti  Ti15  1  0.10291900  0.70094400  0.39706800  1
  Fe  Fe0  1  0.45002700  0.40002500  0.55007900  1
  Fe  Fe1  1  0.69996200  0.89994100  0.80009200  1
  Fe  Fe2  1  0.94991800  0.39991200  0.04995400  1
  Fe  Fe3  1  0.20002600  0.89996100  0.30002700  1
  O  O0  1  0.94995600  0.40002300  0.54999000  1
  O  O1  1  0.20000100  0.90005100  0.80002800  1
  O  O2  1  0.44996300  0.40006700  0.04996100  1
  O  O3  1  0.69999100  0.90002500  0.30007300  1
  O  O4  1  0.07497100  0.15001000  0.17498100  1
  O  O5  1  0.32498500  0.64998500  0.42496900  1
  O  O6  1  0.57497300  0.15001100  0.67497600  1
  O  O7  1  0.82506900  0.65002900  0.92498400  1
  O  O8  1  0.32497900  0.15003600  0.42495300  1
  O  O9  1  0.57500400  0.65002100  0.67496700  1
  O  O10  1  0.82500900  0.15000100  0.92506300  1
  O  O11  1  0.07499100  0.65000700  0.17493700  1
  O  O12  1  0.84799200  0.20234900  0.65199500  1
  O  O13  1  0.09808600  0.70230500  0.90196500  1
  O  O14  1  0.34798100  0.20235500  0.15196800  1
  O  O15  1  0.59802700  0.70227800  0.40195500  1
  O  O16  1  0.30195200  0.09774700  0.69800700  1
  O  O17  1  0.55202200  0.59772200  0.94799000  1
  O  O18  1  0.80199100  0.09773100  0.19806400  1
  O  O19  1  0.05195600  0.59770600  0.44794000  1
  O  O20  1  0.39672000  0.29694800  0.60326200  1
  O  O21  1  0.64666900  0.79693900  0.85341500  1
  O  O22  1  0.89665000  0.29699700  0.10322900  1
  O  O23  1  0.14667500  0.79698400  0.35339400  1
  O  O24  1  0.25339300  0.00301400  0.24667600  1
  O  O25  1  0.50322300  0.50310800  0.49675200  1
  O  O26  1  0.75336000  0.00308800  0.74671600  1
  O  O27  1  0.00320900  0.50301600  0.99666600  1
  O  O28  1  0.12199700  0.24926100  0.62726600  1
  O  O29  1  0.37203300  0.74923600  0.87722800  1
  O  O30  1  0.62202200  0.24922700  0.12726200  1
  O  O31  1  0.87200000  0.74920200  0.37725100  1
  O  O32  1  0.02798900  0.05082700  0.72268200  1
  O  O33  1  0.27799900  0.55082600  0.97270200  1
  O  O34  1  0.52799200  0.05085200  0.22271700  1
  O  O35  1  0.77795000  0.55078400  0.47270900  1
  O  O36  1  0.87269700  0.24923800  0.37797300  1
  O  O37  1  0.12274100  0.74919900  0.62800500  1
  O  O38  1  0.37272900  0.24927300  0.87793600  1
  O  O39  1  0.62273700  0.74920900  0.12799600  1
  O  O40  1  0.77728300  0.05080200  0.47202700  1
  O  O41  1  0.02725300  0.55083900  0.72199000  1
  O  O42  1  0.27726500  0.05085500  0.97201300  1
  O  O43  1  0.52727600  0.55080100  0.22197700  1
  O  O44  1  0.17019500  0.35145000  0.07546500  1
  O  O45  1  0.42025000  0.85143300  0.32558000  1
  O  O46  1  0.67017000  0.35150900  0.57553300  1
  O  O47  1  0.92016400  0.85149700  0.82560100  1
  O  O48  1  0.22981700  0.44853100  0.52452100  1
  O  O49  1  0.47988600  0.94855800  0.77453200  1
  O  O50  1  0.72967200  0.44855400  0.02442200  1
  O  O51  1  0.97979600  0.94857000  0.27449300  1
  O  O52  1  0.92443200  0.35144800  0.82968200  1
  O  O53  1  0.17453600  0.85142200  0.07981400  1
  O  O54  1  0.42450300  0.35154200  0.32985900  1
  O  O55  1  0.67449100  0.85145300  0.57996100  1
  O  O56  1  0.47550700  0.44856500  0.77019700  1
  O  O57  1  0.72556200  0.94852000  0.02022000  1
  O  O58  1  0.97546300  0.44855000  0.27019500  1
  O  O59  1  0.22560900  0.94855800  0.52025300  1
loop_
_geom_bond_atom_site_label_1
_geom_bond_atom_site_label_2
_geom_bond_distance
_geom_bond_site_symmetry_2
Fe0 O56 1.918600 1_555
Fe0 O46 1.918681 1_555
Fe0 O48 1.919172 1_555
Fe0 O54 1.919181 1_555
Fe0 O20 2.064132 1_555
Fe0 O25 2.064360 1_555
Fe1 O55 1.918500 1_555
Fe1 O49 1.918551 1_555
Fe1 O57 1.918833 1_556
Fe1 O47 1.918867 1_555
Fe1 O21 2.063451 1_555
Fe1 O26 2.066388 1_565
Fe2 O52 1.919516 1_554
Fe2 O44 1.919527 1_655
Fe2 O58 1.919949 1_555
Fe2 O50 1.919982 1_555
Fe2 O22 2.061777 1_555
Fe2 O27 2.064919 1_654
Fe3 O53 1.919343 1_555
Fe3 O45 1.919367 1_555
Fe3 O59 1.919673 1_555
Fe3 O51 1.919728 1_455
Fe3 O23 2.063467 1_555
Fe3 O24 2.064672 1_565
O0 Ti3 2.008972 1_555
O0 Ti4 2.010167 1_555
O0 Sr2 2.773792 1_555
O0 Sr0 2.774747 1_655
O0 Sr18 2.778683 1_555
O0 Sr12 2.779218 1_655
O1 Ti0 2.008457 1_565
O1 Ti5 2.011211 1_555
O1 Sr1 2.773848 1_556
O1 Sr3 2.774592 1_455
O1 Sr19 2.777381 1_456
O1 Sr13 2.779138 1_555
O2 Ti1 2.007618 1_555
O2 Ti6 2.011414 1_555
O2 Sr0 2.773682 1_554
O2 Sr2 2.774880 1_555
O2 Sr16 2.778453 1_555
O2 Sr14 2.779371 1_554
O3 Ti2 2.009508 1_565
O3 Ti7 2.010063 1_555
O3 Sr3 2.773765 1_555
O3 Sr1 2.774897 1_555
O3 Sr17 2.777684 1_555
O3 Sr15 2.779094 1_555
O4 Ti14 1.943889 1_455
O4 Ti10 1.944765 1_555
O4 Sr4 2.810714 1_554
O4 Sr8 2.810846 1_555
O4 Sr12 2.833876 1_555
O4 Sr19 2.834359 1_445
O5 Ti15 1.943785 1_555
O5 Ti11 1.944675 1_555
O5 Sr5 2.810366 1_555
O5 Sr9 2.810756 1_555
O5 Sr13 2.833785 1_555
O5 Sr16 2.834043 1_555
O6 Ti12 1.943553 1_555
O6 Ti8 1.944593 1_555
O6 Sr6 2.810325 1_555
O6 Sr10 2.810484 1_555
O6 Sr14 2.832907 1_555
O6 Sr17 2.833827 1_545
O7 Ti9 1.943931 1_655
O7 Ti13 1.944545 1_555
O7 Sr7 2.809659 1_555
O7 Sr11 2.811339 1_556
O7 Sr15 2.832946 1_556
O7 Sr18 2.833941 1_555
O8 Ti10 1.944197 1_555
O8 Ti12 1.944400 1_555
O8 Sr6 2.810247 1_555
O8 Sr8 2.810783 1_555
O8 Sr12 2.832899 1_555
O8 Sr17 2.834857 1_545
O9 Ti11 1.943885 1_555
O9 Ti13 1.944163 1_555
O9 Sr7 2.809736 1_555
O9 Sr9 2.811000 1_555
O9 Sr13 2.832839 1_555
O9 Sr18 2.833984 1_555
O10 Ti14 1.943511 1_556
O10 Ti8 1.945048 1_555
O10 Sr10 2.810478 1_555
O10 Sr4 2.810909 1_655
O10 Sr14 2.833381 1_555
O10 Sr19 2.834263 1_546
O11 Ti9 1.944211 1_554
O11 Ti15 1.944223 1_555
O11 Sr5 2.810244 1_555
O11 Sr11 2.810958 1_455
O11 Sr15 2.832956 1_455
O11 Sr16 2.834378 1_555
O12 Ti4 1.948926 1_555
O12 Ti8 2.050189 1_555
O12 Sr14 2.740249 1_555
O12 Sr6 2.774346 1_555
O12 Sr4 2.774436 1_655
O12 Sr8 2.822111 1_655
O13 Ti5 1.948493 1_555
O13 Ti9 2.050075 1_555
O13 Sr15 2.741719 1_456
O13 Sr5 2.774091 1_556
O13 Sr7 2.774865 1_455
O13 Sr9 2.820447 1_555
O14 Ti6 1.948293 1_555
O14 Ti10 2.050094 1_555
O14 Sr12 2.740457 1_555
O14 Sr4 2.774181 1_554
O14 Sr6 2.774678 1_555
O14 Sr10 2.821902 1_554
O15 Ti7 1.949659 1_555
O15 Ti11 2.048555 1_555
O15 Sr13 2.741388 1_555
O15 Sr7 2.774317 1_555
O15 Sr5 2.774332 1_555
O15 Sr11 2.820926 1_555
O16 Ti0 1.950910 1_555
O16 Ti12 2.048176 1_555
O16 Sr17 2.741901 1_545
O16 Sr8 2.774009 1_555
O16 Sr10 2.774299 1_555
O16 Sr4 2.819814 1_555
O17 Ti1 1.951385 1_556
O17 Ti13 2.047410 1_555
O17 Sr18 2.740554 1_555
O17 Sr11 2.774291 1_556
O17 Sr9 2.774509 1_555
O17 Sr5 2.820787 1_556
O18 Ti2 1.950150 1_555
O18 Ti14 2.048049 1_555
O18 Sr19 2.742394 1_545
O18 Sr8 2.774253 1_655
O18 Sr10 2.775030 1_554
O18 Sr6 2.820604 1_555
O19 Ti3 1.950486 1_455
O19 Ti15 2.048081 1_555
O19 Sr16 2.740783 1_555
O19 Sr11 2.773878 1_455
O19 Sr9 2.774952 1_555
O19 Sr7 2.821117 1_455
O20 Ti12 1.876416 1_555
O20 Sr0 2.758853 1_555
O20 Sr12 2.777090 1_555
O20 Sr14 2.777239 1_555
O20 Sr6 2.789273 1_555
O21 Ti13 1.876304 1_555
O21 Sr1 2.757430 1_556
O21 Sr15 2.777259 1_556
O21 Sr13 2.777736 1_555
O21 Sr7 2.790479 1_555
O22 Ti14 1.877510 1_555
O22 Sr2 2.757987 1_555
O22 Sr14 2.777019 1_554
O22 Sr12 2.778388 1_655
O22 Sr4 2.790517 1_654
O23 Ti15 1.876785 1_555
O23 Sr3 2.756895 1_455
O23 Sr13 2.777282 1_555
O23 Sr15 2.777582 1_455
O23 Sr5 2.790882 1_555
O24 Ti10 1.875880 1_555
O24 Sr1 2.757227 1_545
O24 Sr17 2.777460 1_545
O24 Sr19 2.777739 1_445
O24 Sr8 2.789862 1_555
O25 Ti11 1.875867 1_555
O25 Sr2 2.759134 1_555
O25 Sr16 2.777672 1_555
O25 Sr18 2.777865 1_555
O25 Sr9 2.788702 1_555
O26 Ti8 1.874720 1_555
O26 Sr3 2.758480 1_545
O26 Sr19 2.777216 1_546
O26 Sr17 2.777556 1_545
O26 Sr10 2.789216 1_555
O27 Ti9 1.876166 1_555
O27 Sr0 2.757822 1_555
O27 Sr18 2.776486 1_455
O27 Sr16 2.777867 1_556
O27 Sr11 2.789221 1_456
O28 Ti4 1.914664 1_455
O28 Ti12 2.004171 1_555
O28 Sr4 2.746208 1_555
O28 Sr8 2.805708 1_555
O28 Sr0 2.806781 1_555
O28 Sr12 2.870622 1_555
O29 Ti5 1.915741 1_555
O29 Ti13 2.003428 1_555
O29 Sr5 2.746839 1_556
O29 Sr9 2.804814 1_555
O29 Sr1 2.806606 1_556
O29 Sr13 2.869871 1_555
O30 Ti6 1.915884 1_555
O30 Ti14 2.003488 1_555
O30 Sr6 2.746366 1_555
O30 Sr10 2.805205 1_554
O30 Sr2 2.807188 1_555
O30 Sr14 2.870541 1_554
O31 Ti7 1.915180 1_555
O31 Ti15 2.003897 1_655
O31 Sr7 2.746478 1_555
O31 Sr11 2.804766 1_555
O31 Sr3 2.807221 1_555
O31 Sr15 2.870284 1_555
O32 Ti0 1.915495 1_555
O32 Ti8 2.003285 1_455
O32 Sr8 2.745284 1_555
O32 Sr4 2.803553 1_555
O32 Sr3 2.808303 1_445
O32 Sr19 2.871546 1_446
O33 Ti1 1.915670 1_556
O33 Ti9 2.003356 1_555
O33 Sr9 2.745435 1_555
O33 Sr5 2.803439 1_556
O33 Sr0 2.807945 1_555
O33 Sr16 2.871993 1_556
O34 Ti2 1.916236 1_555
O34 Ti10 2.003042 1_555
O34 Sr10 2.745778 1_554
O34 Sr6 2.803594 1_555
O34 Sr1 2.808852 1_545
O34 Sr17 2.871661 1_545
O35 Ti3 1.916230 1_555
O35 Ti11 2.002796 1_555
O35 Sr11 2.745906 1_555
O35 Sr7 2.804110 1_555
O35 Sr2 2.807237 1_555
O35 Sr18 2.871158 1_555
O36 Ti4 1.915258 1_555
O36 Ti14 2.003689 1_555
O36 Sr6 2.746125 1_555
O36 Sr8 2.805710 1_655
O36 Sr2 2.806714 1_555
O36 Sr12 2.871296 1_655
O37 Ti5 1.915295 1_555
O37 Ti15 2.004051 1_555
O37 Sr7 2.746543 1_455
O37 Sr9 2.804225 1_555
O37 Sr3 2.807395 1_455
O37 Sr13 2.870761 1_555
O38 Ti6 1.916175 1_556
O38 Ti12 2.003362 1_555
O38 Sr4 2.746488 1_555
O38 Sr10 2.805652 1_555
O38 Sr0 2.806216 1_555
O38 Sr14 2.869795 1_555
O39 Ti7 1.915336 1_555
O39 Ti13 2.003753 1_554
O39 Sr5 2.746253 1_555
O39 Sr11 2.804843 1_555
O39 Sr1 2.807231 1_555
O39 Sr15 2.870531 1_555
O40 Ti2 1.915639 1_555
O40 Ti8 2.003061 1_555
O40 Sr8 2.745981 1_655
O40 Sr6 2.804344 1_555
O40 Sr3 2.807823 1_545
O40 Sr17 2.870793 1_545
O41 Ti3 1.916224 1_455
O41 Ti9 2.003108 1_555
O41 Sr9 2.745625 1_555
O41 Sr7 2.803233 1_455
O41 Sr0 2.808432 1_555
O41 Sr18 2.871249 1_455
O42 Ti0 1.916129 1_555
O42 Ti10 2.003109 1_556
O42 Sr10 2.745572 1_555
O42 Sr4 2.803052 1_555
O42 Sr1 2.808647 1_546
O42 Sr19 2.871215 1_446
O43 Ti1 1.914607 1_555
O43 Ti11 2.003910 1_555
O43 Sr11 2.745622 1_555
O43 Sr5 2.803676 1_555
O43 Sr2 2.807895 1_555
O43 Sr16 2.871931 1_555
O44 Ti6 2.033334 1_555
O44 Sr16 2.745778 1_555
O44 Sr12 2.749631 1_555
O44 Sr4 2.778525 1_554
O44 Sr0 2.800108 1_554
O45 Ti7 2.033498 1_555
O45 Sr17 2.746105 1_555
O45 Sr13 2.749203 1_555
O45 Sr5 2.778794 1_555
O45 Sr1 2.801321 1_555
O46 Ti4 2.034704 1_555
O46 Sr18 2.745844 1_555
O46 Sr14 2.749733 1_555
O46 Sr6 2.778974 1_555
O46 Sr2 2.800602 1_555
O47 Ti5 2.034001 1_655
O47 Sr19 2.744865 1_556
O47 Sr15 2.749513 1_556
O47 Sr7 2.779552 1_555
O47 Sr3 2.801613 1_555
O48 Ti3 2.033419 1_455
O48 Sr12 2.745992 1_555
O48 Sr16 2.749302 1_555
O48 Sr9 2.778235 1_555
O48 Sr0 2.801285 1_555
O49 Ti0 2.034463 1_565
O49 Sr13 2.747024 1_555
O49 Sr17 2.749360 1_555
O49 Sr10 2.777183 1_565
O49 Sr1 2.801356 1_556
O50 Ti1 2.032600 1_555
O50 Sr14 2.746573 1_554
O50 Sr18 2.748895 1_554
O50 Sr11 2.778116 1_555
O50 Sr2 2.801528 1_555
O51 Ti2 2.033058 1_565
O51 Sr15 2.746752 1_555
O51 Sr19 2.749363 1_555
O51 Sr8 2.777280 1_665
O51 Sr3 2.801113 1_555
O52 Ti4 2.033089 1_555
O52 Sr18 2.745891 1_555
O52 Sr14 2.749601 1_555
O52 Sr4 2.779046 1_655
O52 Sr0 2.800776 1_655
O53 Ti5 2.033832 1_554
O53 Sr19 2.746084 1_455
O53 Sr15 2.749819 1_455
O53 Sr5 2.778104 1_555
O53 Sr1 2.800360 1_555
O54 Ti6 2.034050 1_555
O54 Sr16 2.744852 1_555
O54 Sr12 2.749699 1_555
O54 Sr6 2.779235 1_555
O54 Sr2 2.800272 1_555
O55 Ti7 2.035120 1_555
O55 Sr17 2.746242 1_555
O55 Sr13 2.749165 1_555
O55 Sr7 2.778147 1_555
O55 Sr3 2.801421 1_555
O56 Ti1 2.034354 1_556
O56 Sr14 2.746993 1_555
O56 Sr18 2.749287 1_555
O56 Sr9 2.777888 1_555
O56 Sr0 2.801584 1_555
O57 Ti2 2.033717 1_565
O57 Sr15 2.746091 1_555
O57 Sr19 2.749479 1_555
O57 Sr10 2.778567 1_564
O57 Sr1 2.801751 1_555
O58 Ti3 2.033043 1_555
O58 Sr12 2.746534 1_655
O58 Sr16 2.748991 1_655
O58 Sr11 2.777530 1_555
O58 Sr2 2.800733 1_555
O59 Ti0 2.032938 1_565
O59 Sr13 2.746432 1_555
O59 Sr17 2.748919 1_555
O59 Sr8 2.777687 1_565
O59 Sr3 2.801856 1_455
