# generated using pymatgen
data_KCoO2
_symmetry_space_group_name_H-M   'P 1'
_cell_length_a   6.51227272
_cell_length_b   6.49269733
_cell_length_c   6.92327503
_cell_angle_alpha   73.38821918
_cell_angle_beta   76.37590778
_cell_angle_gamma   104.05179943
_symmetry_Int_Tables_number   1
_chemical_formula_structural   KCoO2
_chemical_formula_sum   'K4 Co4 O8'
_cell_volume   257.05977685
_cell_formula_units_Z   4
loop_
 _symmetry_equiv_pos_site_id
 _symmetry_equiv_pos_as_xyz
  1  'x, y, z'
loop_
 _atom_site_type_symbol
 _atom_site_label
 _atom_site_symmetry_multiplicity
 _atom_site_fract_x
 _atom_site_fract_y
 _atom_site_fract_z
 _atom_site_occupancy
  K  K0  1  0.73219100  0.65236900  0.73128900  1
  K  K1  1  0.23224300  0.65246900  0.73124500  1
  K  K2  1  0.26776100  0.34754400  0.26875400  1
  K  K3  1  0.76781200  0.34763500  0.26871300  1
  Co  Co0  1  0.92236100  0.89234000  0.20691100  1
  Co  Co1  1  0.57763800  0.10765900  0.79309000  1
  Co  Co2  1  0.42240700  0.89247600  0.20688300  1
  Co  Co3  1  0.07759300  0.10752300  0.79311600  1
  O  O0  1  0.04365700  0.20617100  0.02813000  1
  O  O1  1  0.54364300  0.20609300  0.02811700  1
  O  O2  1  0.95635600  0.79390700  0.97188400  1
  O  O3  1  0.45634300  0.79382900  0.97187000  1
  O  O4  1  0.88130400  0.18136300  0.65007100  1
  O  O5  1  0.38141100  0.18138100  0.65007700  1
  O  O6  1  0.11858500  0.81860700  0.34992200  1
  O  O7  1  0.61869500  0.81863500  0.34992900  1
loop_
_geom_bond_atom_site_label_1
_geom_bond_atom_site_label_2
_geom_bond_distance
_geom_bond_site_symmetry_2
K0 O3 2.666676 1_555
K0 O2 2.668236 1_555
K0 O1 2.793831 1_556
K0 O7 2.891323 1_555
K0 O6 2.896514 1_655
K0 O4 3.174045 1_565
K1 O2 2.666960 1_455
K1 O3 2.667703 1_555
K1 O0 2.794070 1_556
K1 O6 2.891548 1_555
K1 O7 2.896561 1_555
K1 O5 3.173607 1_565
K2 O1 2.666990 1_555
K2 O0 2.667746 1_555
K2 O3 2.794006 1_554
K2 O5 2.891547 1_555
K2 O4 2.896574 1_455
K2 O6 3.173762 1_545
K3 O0 2.666690 1_655
K3 O1 2.668268 1_555
K3 O2 2.793814 1_554
K3 O4 2.891303 1_555
K3 O5 2.896517 1_555
K3 O7 3.174085 1_545
Co0 O6 1.861322 1_655
Co0 O7 1.862045 1_555
Co0 O2 1.897020 1_554
Co0 O0 1.903580 1_665
Co1 O5 1.861328 1_555
Co1 O4 1.862047 1_555
Co1 O1 1.897024 1_556
Co1 O3 1.903573 1_545
Co2 O7 1.862027 1_555
Co2 O6 1.862801 1_555
Co2 O3 1.897780 1_554
Co2 O1 1.902465 1_565
Co3 O4 1.862027 1_455
Co3 O5 1.862789 1_555
Co3 O0 1.897790 1_556
Co3 O2 1.902463 1_445
