# generated using pymatgen
data_La2Mn(SeO)2
_symmetry_space_group_name_H-M   'P 1'
_cell_length_a   4.03370600
_cell_length_b   16.63552200
_cell_length_c   17.84606600
_cell_angle_alpha   90.00000000
_cell_angle_beta   90.00000000
_cell_angle_gamma   90.00000000
_symmetry_Int_Tables_number   1
_chemical_formula_structural   La2Mn(SeO)2
_chemical_formula_sum   'La16 Mn8 Se16 O16'
_cell_volume   1197.52108511
_cell_formula_units_Z   8
loop_
 _symmetry_equiv_pos_site_id
 _symmetry_equiv_pos_as_xyz
  1  'x, y, z'
loop_
 _atom_site_type_symbol
 _atom_site_label
 _atom_site_symmetry_multiplicity
 _atom_site_fract_x
 _atom_site_fract_y
 _atom_site_fract_z
 _atom_site_occupancy
  La  La0  1  0.00052700  0.97763500  0.08873900  1
  La  La1  1  0.50052700  0.02236500  0.91126100  1
  La  La2  1  0.50052700  0.47763500  0.41126100  1
  La  La3  1  0.00052700  0.52236500  0.58873900  1
  La  La4  1  0.50521200  0.48385500  0.08878100  1
  La  La5  1  0.00521200  0.51614500  0.91121900  1
  La  La6  1  0.00521200  0.98385500  0.41121900  1
  La  La7  1  0.50521200  0.01614500  0.58878100  1
  La  La8  1  0.00583900  0.67689300  0.08416400  1
  La  La9  1  0.50583900  0.32310700  0.91583600  1
  La  La10  1  0.50583900  0.17689300  0.41583600  1
  La  La11  1  0.00583900  0.82310700  0.58416400  1
  La  La12  1  0.50163800  0.17035600  0.08641400  1
  La  La13  1  0.00163800  0.82964400  0.91358600  1
  La  La14  1  0.00163800  0.67035600  0.41358600  1
  La  La15  1  0.50163800  0.32964400  0.58641400  1
  Mn  Mn0  1  0.01723100  0.38835100  0.75101200  1
  Mn  Mn1  1  0.51723100  0.61164900  0.24898800  1
  Mn  Mn2  1  0.51723100  0.88835100  0.74898800  1
  Mn  Mn3  1  0.01723100  0.11164900  0.25101200  1
  Mn  Mn4  1  0.50915300  0.83480200  0.27742000  1
  Mn  Mn5  1  0.00915300  0.16519800  0.72258000  1
  Mn  Mn6  1  0.00915300  0.33480200  0.22258000  1
  Mn  Mn7  1  0.50915300  0.66519800  0.77742000  1
  Se  Se0  1  0.00130600  0.01188300  0.74897900  1
  Se  Se1  1  0.50130600  0.98811700  0.25102100  1
  Se  Se2  1  0.50130600  0.51188300  0.75102100  1
  Se  Se3  1  0.00130600  0.48811700  0.24897900  1
  Se  Se4  1  0.00221100  0.33026700  0.07467000  1
  Se  Se5  1  0.50221100  0.66973300  0.92533000  1
  Se  Se6  1  0.50221100  0.83026700  0.42533000  1
  Se  Se7  1  0.00221100  0.16973300  0.57467000  1
  Se  Se8  1  0.50598300  0.82763900  0.06274400  1
  Se  Se9  1  0.00598300  0.17236100  0.93725600  1
  Se  Se10  1  0.00598300  0.32763900  0.43725600  1
  Se  Se11  1  0.50598300  0.67236100  0.56274400  1
  Se  Se12  1  0.00904100  0.75903400  0.74798700  1
  Se  Se13  1  0.50904100  0.24096600  0.25201300  1
  Se  Se14  1  0.50904100  0.25903400  0.75201300  1
  Se  Se15  1  0.00904100  0.74096600  0.24798700  1
  O  O0  1  0.00231900  0.11662700  0.13666400  1
  O  O1  1  0.50231900  0.88337300  0.86333600  1
  O  O2  1  0.50231900  0.61662700  0.36333600  1
  O  O3  1  0.00231900  0.38337300  0.63666400  1
  O  O4  1  0.50660100  0.62164500  0.13372800  1
  O  O5  1  0.00660100  0.37835500  0.86627200  1
  O  O6  1  0.00660100  0.12164500  0.36627200  1
  O  O7  1  0.50660100  0.87835500  0.63372800  1
  O  O8  1  0.00087800  0.53748100  0.45430800  1
  O  O9  1  0.50087800  0.46251900  0.54569200  1
  O  O10  1  0.50087800  0.03748100  0.04569200  1
  O  O11  1  0.00087800  0.96251900  0.95430800  1
  O  O12  1  0.50545900  0.04216200  0.45680300  1
  O  O13  1  0.00545900  0.95783800  0.54319700  1
  O  O14  1  0.00545900  0.54216200  0.04319700  1
  O  O15  1  0.50545900  0.45783800  0.95680300  1
loop_
_geom_bond_atom_site_label_1
_geom_bond_atom_site_label_2
_geom_bond_distance
_geom_bond_site_symmetry_2
La0 O10 2.375565 1_465
La0 O10 2.377967 1_565
La0 O11 2.412208 1_554
La0 O0 2.465326 1_565
La0 Se8 3.228150 1_455
La0 Se8 3.255533 1_555
La0 Se1 3.531686 1_455
La0 Se1 3.535273 1_555
La1 O11 2.375565 1_545
La1 O11 2.377967 1_645
La1 O10 2.412208 1_556
La1 O1 2.465326 1_545
La1 Se9 3.228150 1_555
La1 Se9 3.255533 1_655
La1 Se0 3.531686 1_555
La1 Se0 3.535273 1_655
La2 O8 2.375565 1_555
La2 O8 2.377967 1_655
La2 O9 2.412208 1_555
La2 O2 2.465326 1_555
La2 Se10 3.228150 1_555
La2 Se10 3.255533 1_655
La2 Se3 3.531686 1_555
La2 Se3 3.535273 1_655
La3 O9 2.375565 1_455
La3 O9 2.377967 1_555
La3 O8 2.412208 1_555
La3 O3 2.465326 1_555
La3 Se11 3.228150 1_455
La3 Se11 3.255533 1_555
La3 Se2 3.531686 1_455
La3 Se2 3.535273 1_555
La4 O14 2.380397 1_555
La4 O14 2.382085 1_655
La4 O15 2.394724 1_554
La4 O4 2.428510 1_555
La4 Se4 3.257382 1_655
La4 Se4 3.272338 1_555
La4 Se3 3.490380 1_655
La4 Se3 3.508541 1_555
La5 O15 2.380397 1_455
La5 O15 2.382085 1_555
La5 O14 2.394724 1_556
La5 O5 2.428510 1_555
La5 Se5 3.257382 1_555
La5 Se5 3.272338 1_455
La5 Se2 3.490380 1_555
La5 Se2 3.508541 1_455
La6 O12 2.380397 1_465
La6 O12 2.382085 1_565
La6 O13 2.394724 1_555
La6 O6 2.428510 1_565
La6 Se6 3.257382 1_555
La6 Se6 3.272338 1_455
La6 Se1 3.490380 1_555
La6 Se1 3.508541 1_455
La7 O13 2.380397 1_545
La7 O13 2.382085 1_645
La7 O12 2.394724 1_555
La7 O7 2.428510 1_545
La7 Se7 3.257382 1_655
La7 Se7 3.272338 1_555
La7 Se0 3.490380 1_655
La7 Se0 3.508541 1_555
La8 O14 2.357547 1_555
La8 O4 2.383777 1_455
La8 O4 2.388973 1_555
La8 Se15 3.111864 1_555
La8 Se8 3.240406 1_455
La8 Se8 3.241129 1_555
La8 Se5 3.472436 1_554
La8 Se5 3.489394 1_454
La9 O15 2.357547 1_555
La9 O5 2.383777 1_555
La9 O5 2.388973 1_655
La9 Se14 3.111864 1_555
La9 Se9 3.240406 1_555
La9 Se9 3.241129 1_655
La9 Se4 3.472436 1_656
La9 Se4 3.489394 1_556
La10 O12 2.357547 1_555
La10 O6 2.383777 1_555
La10 O6 2.388973 1_655
La10 Se13 3.111864 1_555
La10 Se10 3.240406 1_555
La10 Se10 3.241129 1_655
La10 Se7 3.472436 1_655
La10 Se7 3.489394 1_555
La11 O13 2.357547 1_555
La11 O7 2.383777 1_455
La11 O7 2.388973 1_555
La11 Se12 3.111864 1_555
La11 Se11 3.240406 1_455
La11 Se11 3.241129 1_555
La11 Se6 3.472436 1_555
La11 Se6 3.489394 1_455
La12 O10 2.326845 1_555
La12 O0 2.379014 1_555
La12 O0 2.383667 1_655
La12 Se13 3.180314 1_555
La12 Se9 3.329271 1_554
La12 Se4 3.343499 1_555
La12 Se4 3.346286 1_655
La12 Se9 3.350438 1_654
La13 O11 2.326845 1_555
La13 O1 2.379014 1_455
La13 O1 2.383667 1_555
La13 Se12 3.180314 1_555
La13 Se8 3.329271 1_456
La13 Se5 3.343499 1_455
La13 Se5 3.346286 1_555
La13 Se8 3.350438 1_556
La14 O8 2.326845 1_555
La14 O2 2.379014 1_455
La14 O2 2.383667 1_555
La14 Se15 3.180314 1_555
La14 Se11 3.329271 1_455
La14 Se6 3.343499 1_455
La14 Se6 3.346286 1_555
La14 Se11 3.350438 1_555
La15 O9 2.326845 1_555
La15 O3 2.379014 1_555
La15 O3 2.383667 1_655
La15 Se14 3.180314 1_555
La15 Se10 3.329271 1_555
La15 Se7 3.343499 1_555
La15 Se7 3.346286 1_655
La15 Se10 3.350438 1_655
Mn0 O3 2.043227 1_555
Mn0 O5 2.064094 1_555
Mn0 Se2 2.834751 1_555
Mn0 Se2 2.924729 1_455
Mn0 Se14 2.926389 1_555
Mn0 Se14 2.971576 1_455
Mn1 O2 2.043227 1_555
Mn1 O4 2.064094 1_555
Mn1 Se3 2.834751 1_655
Mn1 Se3 2.924729 1_555
Mn1 Se15 2.926389 1_655
Mn1 Se15 2.971576 1_555
Mn2 O1 2.043227 1_555
Mn2 O7 2.064094 1_555
Mn2 Se0 2.834751 1_665
Mn2 Se0 2.924729 1_565
Mn2 Se12 2.926389 1_655
Mn2 Se12 2.971576 1_555
Mn3 O0 2.043227 1_555
Mn3 O6 2.064094 1_555
Mn3 Se1 2.834751 1_545
Mn3 Se1 2.924729 1_445
Mn3 Se13 2.926389 1_555
Mn3 Se13 2.971576 1_455
Mn4 Se1 2.593815 1_555
Mn4 Se15 2.603561 1_655
Mn4 Se15 2.604261 1_555
Mn4 Se6 2.640838 1_555
Mn5 Se0 2.593815 1_555
Mn5 Se14 2.603561 1_555
Mn5 Se14 2.604261 1_455
Mn5 Se7 2.640838 1_555
Mn6 Se3 2.593815 1_555
Mn6 Se13 2.603561 1_555
Mn6 Se13 2.604261 1_455
Mn6 Se4 2.640838 1_555
Mn7 Se2 2.593815 1_555
Mn7 Se12 2.603561 1_655
Mn7 Se12 2.604261 1_555
Mn7 Se5 2.640838 1_555
