# generated using pymatgen
data_Dy8Ga3Co
_symmetry_space_group_name_H-M   'P 1'
_cell_length_a   10.02619339
_cell_length_b   10.02619339
_cell_length_c   6.91805100
_cell_angle_alpha   90.00000000
_cell_angle_beta   90.00000000
_cell_angle_gamma   119.99999596
_symmetry_Int_Tables_number   1
_chemical_formula_structural   Dy8Ga3Co
_chemical_formula_sum   'Dy16 Ga6 Co2'
_cell_volume   602.26352673
_cell_formula_units_Z   2
loop_
 _symmetry_equiv_pos_site_id
 _symmetry_equiv_pos_as_xyz
  1  'x, y, z'
loop_
 _atom_site_type_symbol
 _atom_site_label
 _atom_site_symmetry_multiplicity
 _atom_site_fract_x
 _atom_site_fract_y
 _atom_site_fract_z
 _atom_site_occupancy
  Dy  Dy0  1  0.17265900  0.82734100  0.51037500  1
  Dy  Dy1  1  0.65468200  0.82734100  0.51037500  1
  Dy  Dy2  1  0.17265900  0.34531800  0.51037500  1
  Dy  Dy3  1  0.82734100  0.17265900  0.01037500  1
  Dy  Dy4  1  0.34531800  0.17265900  0.01037500  1
  Dy  Dy5  1  0.82734100  0.65468200  0.01037500  1
  Dy  Dy6  1  0.33333300  0.66666700  0.82761400  1
  Dy  Dy7  1  0.66666700  0.33333300  0.32761400  1
  Dy  Dy8  1  0.46339400  0.53660600  0.20737800  1
  Dy  Dy9  1  0.07321100  0.53660600  0.20737800  1
  Dy  Dy10  1  0.46339400  0.92678900  0.20737800  1
  Dy  Dy11  1  0.53660600  0.46339400  0.70737800  1
  Dy  Dy12  1  0.92678900  0.46339400  0.70737800  1
  Dy  Dy13  1  0.53660600  0.07321100  0.70737800  1
  Dy  Dy14  1  0.00000000  0.00000000  0.23142900  1
  Dy  Dy15  1  0.00000000  0.00000000  0.73142900  1
  Ga  Ga0  1  0.16338800  0.83661200  0.96021100  1
  Ga  Ga1  1  0.67322400  0.83661200  0.96021100  1
  Ga  Ga2  1  0.16338800  0.32677600  0.96021100  1
  Ga  Ga3  1  0.83661200  0.16338800  0.46021100  1
  Ga  Ga4  1  0.32677600  0.16338800  0.46021100  1
  Ga  Ga5  1  0.83661200  0.67322400  0.46021100  1
  Co  Co0  1  0.33333300  0.66666700  0.44448300  1
  Co  Co1  1  0.66666700  0.33333300  0.94448300  1
loop_
_geom_bond_atom_site_label_1
_geom_bond_atom_site_label_2
_geom_bond_distance
_geom_bond_site_symmetry_2
Dy0 Ga5 2.941746 1_455
Dy0 Ga4 2.941746 1_565
Dy0 Ga0 3.116150 1_555
Dy0 Dy9 3.313393 1_555
Dy0 Dy10 3.313393 1_555
Dy0 Dy15 3.365843 1_565
Dy0 Dy12 3.500610 1_455
Dy0 Dy13 3.500610 1_565
Dy0 Dy14 3.565703 1_565
Dy1 Ga5 2.941746 1_555
Dy1 Ga3 2.941746 1_565
Dy1 Ga1 3.116150 1_555
Dy1 Dy8 3.313394 1_555
Dy1 Dy10 3.313400 1_555
Dy1 Dy15 3.365843 1_665
Dy1 Dy13 3.500603 1_565
Dy1 Dy11 3.500612 1_555
Dy1 Dy14 3.565703 1_665
Dy2 Ga4 2.941746 1_555
Dy2 Ga3 2.941746 1_455
Dy2 Ga2 3.116150 1_555
Dy2 Dy8 3.313394 1_555
Dy2 Dy9 3.313400 1_555
Dy3 Ga1 2.941746 1_544
Dy3 Ga2 2.941746 1_654
Dy3 Ga3 3.116150 1_555
Dy3 Dy9 3.500610 1_655
Dy4 Ga2 2.941746 1_554
Dy4 Ga0 2.941746 1_544
Dy4 Ga4 3.116150 1_555
Dy4 Dy8 3.500612 1_555
Dy5 Ga1 2.941746 1_554
Dy5 Ga0 2.941746 1_654
Dy5 Ga5 3.116150 1_555
Dy5 Dy9 3.500603 1_655
Dy5 Dy8 3.500612 1_555
Dy6 Ga0 3.090518 1_555
Dy6 Ga1 3.090527 1_555
Dy6 Ga2 3.090527 1_555
Dy6 Dy8 3.464635 1_556
Dy6 Dy9 3.464636 1_556
Dy7 Ga3 3.090518 1_555
Dy7 Ga5 3.090527 1_555
Dy7 Ga4 3.090527 1_555
Dy7 Dy9 3.626674 1_655
Dy7 Dy8 3.626691 1_555
Dy8 Ga1 3.173214 1_554
Dy8 Ga2 3.173214 1_554
Dy8 Ga5 3.716489 1_555
Dy8 Ga4 3.716489 1_555
Dy9 Ga0 3.173212 1_554
Dy9 Ga2 3.173220 1_554
Dy9 Ga5 3.716480 1_455
Dy9 Ga3 3.716487 1_455
Dy10 Ga0 3.173212 1_554
Dy10 Ga1 3.173220 1_554
Dy10 Dy6 3.464636 1_554
Dy10 Dy4 3.500603 1_565
Dy10 Dy3 3.500610 1_565
Dy10 Dy7 3.626674 1_565
Dy10 Dy13 3.685274 1_564
Dy10 Dy13 3.685274 1_565
Dy10 Ga4 3.716480 1_565
Dy10 Ga3 3.716487 1_565
Dy11 Ga5 3.173214 1_555
Dy11 Ga4 3.173214 1_555
Dy11 Dy5 3.313394 1_556
Dy11 Dy4 3.313394 1_556
Dy11 Dy7 3.464635 1_555
Dy11 Dy2 3.500612 1_555
Dy11 Dy6 3.626691 1_555
Dy11 Dy8 3.685280 1_556
Dy11 Dy8 3.685280 1_555
Dy11 Ga1 3.716489 1_555
Dy11 Ga2 3.716489 1_555
Dy12 Ga3 3.173212 1_555
Dy12 Ga5 3.173220 1_555
Dy12 Dy3 3.313393 1_556
Dy12 Dy5 3.313400 1_556
Dy12 Dy7 3.464636 1_555
Dy12 Dy2 3.500603 1_655
Dy12 Dy6 3.626674 1_655
Dy12 Dy9 3.685274 1_656
Dy12 Dy9 3.685274 1_655
Dy12 Ga2 3.716480 1_655
Dy12 Ga0 3.716487 1_655
Dy13 Ga3 3.173212 1_555
Dy13 Ga4 3.173220 1_555
Dy13 Dy3 3.313393 1_556
Dy13 Dy4 3.313400 1_556
Dy13 Dy7 3.464636 1_555
Dy13 Dy6 3.626674 1_545
Dy13 Ga1 3.716480 1_545
Dy13 Ga0 3.716487 1_545
Dy14 Ga3 3.248957 1_455
Dy14 Ga4 3.248957 1_555
Dy14 Ga5 3.248957 1_445
Dy14 Dy3 3.365843 1_455
Dy14 Dy4 3.365843 1_555
Dy14 Dy5 3.365843 1_445
Dy14 Ga0 3.401647 1_544
Dy14 Ga2 3.401647 1_554
Dy14 Ga1 3.401647 1_444
Dy14 Dy15 3.459026 1_555
Dy14 Dy15 3.459026 1_554
Dy14 Dy2 3.565703 1_555
Dy15 Ga0 3.248957 1_545
Dy15 Ga2 3.248957 1_555
Dy15 Ga1 3.248957 1_445
Dy15 Dy2 3.365843 1_555
Dy15 Ga3 3.401647 1_455
Dy15 Ga4 3.401647 1_555
Dy15 Ga5 3.401647 1_445
Dy15 Dy3 3.565703 1_456
Dy15 Dy4 3.565703 1_556
Dy15 Dy5 3.565703 1_446
Co0 Dy6 2.650520 1_555
Co0 Dy8 2.791411 1_555
Co0 Dy10 2.791412 1_555
Co0 Dy9 2.791412 1_555
Co0 Dy0 2.827235 1_555
Co0 Dy1 2.827244 1_555
Co0 Dy2 2.827244 1_555
Co1 Dy7 2.650520 1_556
Co1 Dy11 2.791411 1_555
Co1 Dy13 2.791412 1_555
Co1 Dy12 2.791412 1_555
Co1 Dy3 2.827235 1_556
Co1 Dy5 2.827244 1_556
Co1 Dy4 2.827244 1_556
