# generated using pymatgen
data_NbFeSi
_symmetry_space_group_name_H-M   'P 1'
_cell_length_a   3.68283800
_cell_length_b   6.23130900
_cell_length_c   7.13281600
_cell_angle_alpha   90.00000000
_cell_angle_beta   90.00000000
_cell_angle_gamma   90.00000000
_symmetry_Int_Tables_number   1
_chemical_formula_structural   NbFeSi
_chemical_formula_sum   'Nb4 Fe4 Si4'
_cell_volume   163.69029234
_cell_formula_units_Z   4
loop_
 _symmetry_equiv_pos_site_id
 _symmetry_equiv_pos_as_xyz
  1  'x, y, z'
loop_
 _atom_site_type_symbol
 _atom_site_label
 _atom_site_symmetry_multiplicity
 _atom_site_fract_x
 _atom_site_fract_y
 _atom_site_fract_z
 _atom_site_occupancy
  Nb  Nb0  1  0.25000000  0.52429800  0.18205100  1
  Nb  Nb1  1  0.75000000  0.47570200  0.81794900  1
  Nb  Nb2  1  0.75000000  0.97570200  0.68205100  1
  Nb  Nb3  1  0.25000000  0.02429800  0.31794900  1
  Fe  Fe0  1  0.25000000  0.64096000  0.56025600  1
  Fe  Fe1  1  0.75000000  0.35904000  0.43974400  1
  Fe  Fe2  1  0.75000000  0.85904000  0.06025600  1
  Fe  Fe3  1  0.25000000  0.14096000  0.93974400  1
  Si  Si0  1  0.25000000  0.77171000  0.87781000  1
  Si  Si1  1  0.75000000  0.22829000  0.12219000  1
  Si  Si2  1  0.75000000  0.72829000  0.37781000  1
  Si  Si3  1  0.25000000  0.27171000  0.62219000  1
loop_
_geom_bond_atom_site_label_1
_geom_bond_atom_site_label_2
_geom_bond_distance
_geom_bond_site_symmetry_2
Nb0 Si2 2.637481 1_455
Nb0 Si2 2.637481 1_555
Nb0 Si1 2.641094 1_555
Nb0 Si1 2.641094 1_455
Nb0 Si0 2.661983 1_554
Nb1 Si3 2.637481 1_555
Nb1 Si3 2.637481 1_655
Nb1 Si0 2.641094 1_555
Nb1 Si0 2.641094 1_655
Nb1 Si1 2.661983 1_556
Nb2 Si0 2.637481 1_655
Nb2 Si0 2.637481 1_555
Nb2 Si3 2.641094 1_665
Nb2 Si3 2.641094 1_565
Nb2 Si2 2.661983 1_555
Nb3 Si1 2.637481 1_555
Nb3 Si1 2.637481 1_455
Nb3 Si2 2.641094 1_445
Nb3 Si2 2.641094 1_545
Nb3 Si3 2.661983 1_555
Fe0 Si2 2.319586 1_555
Fe0 Si2 2.319586 1_455
Fe0 Si3 2.342935 1_555
Fe0 Si0 2.407131 1_555
Fe0 Fe1 2.686228 1_455
Fe0 Fe1 2.686228 1_555
Fe0 Nb0 2.793899 1_555
Fe0 Nb1 2.798175 1_455
Fe0 Nb1 2.798175 1_555
Fe0 Nb2 2.914864 1_455
Fe0 Nb2 2.914864 1_555
Fe0 Nb3 2.948390 1_565
Fe1 Si3 2.319586 1_555
Fe1 Si3 2.319586 1_655
Fe1 Si2 2.342935 1_555
Fe1 Si1 2.407131 1_555
Fe1 Nb1 2.793899 1_555
Fe1 Nb0 2.798175 1_655
Fe1 Nb0 2.798175 1_555
Fe1 Nb3 2.914864 1_655
Fe1 Nb3 2.914864 1_555
Fe1 Nb2 2.948390 1_545
Fe2 Si0 2.319586 1_654
Fe2 Si0 2.319586 1_554
Fe2 Si1 2.342935 1_565
Fe2 Si2 2.407131 1_555
Fe2 Fe3 2.686228 1_664
Fe2 Fe3 2.686228 1_564
Fe2 Nb2 2.793899 1_554
Fe2 Nb3 2.798175 1_565
Fe2 Nb3 2.798175 1_665
Fe2 Nb0 2.914864 1_555
Fe2 Nb0 2.914864 1_655
Fe2 Nb1 2.948390 1_554
Fe3 Si1 2.319586 1_456
Fe3 Si1 2.319586 1_556
Fe3 Si0 2.342935 1_545
Fe3 Si3 2.407131 1_555
Fe3 Nb3 2.793899 1_556
Fe3 Nb2 2.798175 1_545
Fe3 Nb2 2.798175 1_445
Fe3 Nb1 2.914864 1_555
Fe3 Nb1 2.914864 1_455
Fe3 Nb0 2.948390 1_556
