# generated using pymatgen
data_LiMn4O8
_symmetry_space_group_name_H-M   'P 1'
_cell_length_a   8.34668400
_cell_length_b   8.34668400
_cell_length_c   8.34668400
_cell_angle_alpha   90.00000000
_cell_angle_beta   90.00000000
_cell_angle_gamma   90.00000000
_symmetry_Int_Tables_number   1
_chemical_formula_structural   LiMn4O8
_chemical_formula_sum   'Li4 Mn16 O32'
_cell_volume   581.48955098
_cell_formula_units_Z   4
loop_
 _symmetry_equiv_pos_site_id
 _symmetry_equiv_pos_as_xyz
  1  'x, y, z'
loop_
 _atom_site_type_symbol
 _atom_site_label
 _atom_site_symmetry_multiplicity
 _atom_site_fract_x
 _atom_site_fract_y
 _atom_site_fract_z
 _atom_site_occupancy
  Li  Li0  1  0.49514900  0.99514900  0.50485100  1
  Li  Li1  1  0.99514900  0.50485100  0.49514900  1
  Li  Li2  1  0.50485100  0.49514900  0.99514900  1
  Li  Li3  1  0.00485100  0.00485100  0.00485100  1
  Mn  Mn0  1  0.87666700  0.37666700  0.12333300  1
  Mn  Mn1  1  0.37666700  0.12333300  0.87666700  1
  Mn  Mn2  1  0.12333300  0.87666700  0.37666700  1
  Mn  Mn3  1  0.62333300  0.62333300  0.62333300  1
  Mn  Mn4  1  0.62825400  0.87365800  0.88109200  1
  Mn  Mn5  1  0.11890800  0.12825400  0.62634200  1
  Mn  Mn6  1  0.37365800  0.61890800  0.37174600  1
  Mn  Mn7  1  0.12825400  0.62634200  0.11890800  1
  Mn  Mn8  1  0.61890800  0.37174600  0.37365800  1
  Mn  Mn9  1  0.87365800  0.88109200  0.62825400  1
  Mn  Mn10  1  0.37174600  0.37365800  0.61890800  1
  Mn  Mn11  1  0.88109200  0.62825400  0.87365800  1
  Mn  Mn12  1  0.62634200  0.11890800  0.12825400  1
  Mn  Mn13  1  0.87174600  0.12634200  0.38109200  1
  Mn  Mn14  1  0.38109200  0.87174600  0.12634200  1
  Mn  Mn15  1  0.12634200  0.38109200  0.87174600  1
  O  O0  1  0.11421200  0.61421200  0.88578800  1
  O  O1  1  0.61421200  0.88578800  0.11421200  1
  O  O2  1  0.88578800  0.11421200  0.61421200  1
  O  O3  1  0.38578800  0.38578800  0.38578800  1
  O  O4  1  0.36667700  0.85389800  0.36035900  1
  O  O5  1  0.63964100  0.86667700  0.64610200  1
  O  O6  1  0.35389800  0.13964100  0.63332300  1
  O  O7  1  0.86667700  0.64610200  0.63964100  1
  O  O8  1  0.13964100  0.63332300  0.35389800  1
  O  O9  1  0.85389800  0.36035900  0.36667700  1
  O  O10  1  0.63332300  0.35389800  0.13964100  1
  O  O11  1  0.36035900  0.36667700  0.85389800  1
  O  O12  1  0.64610200  0.63964100  0.86667700  1
  O  O13  1  0.13332300  0.14610200  0.86035900  1
  O  O14  1  0.86035900  0.13332300  0.14610200  1
  O  O15  1  0.14610200  0.86035900  0.13332300  1
  O  O16  1  0.63605700  0.13605700  0.36394300  1
  O  O17  1  0.13605700  0.36394300  0.63605700  1
  O  O18  1  0.36394300  0.63605700  0.13605700  1
  O  O19  1  0.86394300  0.86394300  0.86394300  1
  O  O20  1  0.10374000  0.89757900  0.61801200  1
  O  O21  1  0.38198800  0.60374000  0.60242100  1
  O  O22  1  0.39757900  0.88198800  0.89626000  1
  O  O23  1  0.60374000  0.60242100  0.38198800  1
  O  O24  1  0.88198800  0.89626000  0.39757900  1
  O  O25  1  0.89757900  0.61801200  0.10374000  1
  O  O26  1  0.89626000  0.39757900  0.88198800  1
  O  O27  1  0.61801200  0.10374000  0.89757900  1
  O  O28  1  0.60242100  0.38198800  0.60374000  1
  O  O29  1  0.39626000  0.10242100  0.11801200  1
  O  O30  1  0.11801200  0.39626000  0.10242100  1
  O  O31  1  0.10242100  0.11801200  0.39626000  1
loop_
_geom_bond_atom_site_label_1
_geom_bond_atom_site_label_2
_geom_bond_distance
_geom_bond_site_symmetry_2
Li0 O5 1.998588 1_555
Li0 O6 1.998588 1_565
Li0 O4 1.998588 1_555
Li0 O16 2.037090 1_565
Li1 O7 1.998588 1_555
Li1 O8 1.998588 1_655
Li1 O9 1.998588 1_555
Li1 O17 2.037090 1_655
Li2 O12 1.998588 1_555
Li2 O10 1.998588 1_556
Li2 O11 1.998588 1_555
Li2 O18 2.037090 1_556
Li3 O13 1.998588 1_554
Li3 O14 1.998588 1_455
Li3 O15 1.998588 1_545
Li3 O19 2.037090 1_444
Mn0 O26 2.028581 1_554
Mn0 O25 2.028581 1_555
Mn0 O30 2.028581 1_655
Mn0 O9 2.044523 1_555
Mn0 O10 2.044523 1_555
Mn0 O14 2.044523 1_555
Mn1 O22 2.028581 1_545
Mn1 O29 2.028581 1_556
Mn1 O27 2.028581 1_555
Mn1 O11 2.044523 1_555
Mn1 O6 2.044523 1_555
Mn1 O13 2.044523 1_555
Mn2 O24 2.028581 1_455
Mn2 O31 2.028581 1_565
Mn2 O20 2.028581 1_555
Mn2 O4 2.044523 1_555
Mn2 O15 2.044523 1_555
Mn2 O8 2.044523 1_555
Mn3 O21 2.028581 1_555
Mn3 O23 2.028581 1_555
Mn3 O28 2.028581 1_555
Mn3 O12 2.044523 1_555
Mn3 O5 2.044523 1_555
Mn3 O7 2.044523 1_555
Mn4 O27 1.927243 1_565
Mn4 O22 1.930781 1_555
Mn4 O1 1.951933 1_556
Mn4 O12 1.962630 1_555
Mn4 O5 1.964553 1_555
Mn4 O19 1.974088 1_555
Mn5 O31 1.927243 1_555
Mn5 O20 1.930781 1_545
Mn5 O2 1.951933 1_455
Mn5 O13 1.962630 1_555
Mn5 O6 1.964553 1_555
Mn5 O17 1.974088 1_555
Mn6 O23 1.927243 1_555
Mn6 O21 1.930781 1_555
Mn6 O3 1.951933 1_555
Mn6 O8 1.962630 1_555
Mn6 O4 1.964553 1_555
Mn6 O18 1.974088 1_555
Mn7 O30 1.927243 1_555
Mn7 O25 1.930781 1_455
Mn7 O0 1.951933 1_554
Mn7 O15 1.962630 1_555
Mn7 O8 1.964553 1_555
Mn7 O18 1.974088 1_555
Mn8 O28 1.927243 1_555
Mn8 O23 1.930781 1_555
Mn8 O3 1.951933 1_555
Mn8 O10 1.962630 1_555
Mn8 O9 1.964553 1_555
Mn8 O16 1.974088 1_555
Mn9 O20 1.927243 1_655
Mn9 O24 1.930781 1_555
Mn9 O2 1.951933 1_565
Mn9 O5 1.962630 1_555
Mn9 O7 1.964553 1_555
Mn9 O19 1.974088 1_555
Mn10 O21 1.927243 1_555
Mn10 O28 1.930781 1_555
Mn10 O3 1.951933 1_555
Mn10 O6 1.962630 1_555
Mn10 O11 1.964553 1_555
Mn10 O17 1.974088 1_555
Mn11 O25 1.927243 1_556
Mn11 O26 1.930781 1_555
Mn11 O0 1.951933 1_655
Mn11 O7 1.962630 1_555
Mn11 O12 1.964553 1_555
Mn11 O19 1.974088 1_555
Mn12 O29 1.927243 1_555
Mn12 O27 1.930781 1_554
Mn12 O1 1.951933 1_545
Mn12 O14 1.962630 1_555
Mn12 O10 1.964553 1_555
Mn12 O16 1.974088 1_555
Mn13 O24 1.927243 1_545
Mn13 O31 1.930781 1_655
Mn13 O2 1.951933 1_555
Mn13 O9 1.962630 1_555
Mn13 O14 1.964553 1_555
Mn13 O16 1.974088 1_555
Mn14 O22 1.927243 1_554
Mn14 O29 1.930781 1_565
Mn14 O1 1.951933 1_555
Mn14 O4 1.962630 1_555
Mn14 O15 1.964553 1_555
Mn14 O18 1.974088 1_555
Mn15 O26 1.927243 1_455
Mn15 O30 1.930781 1_556
Mn15 O0 1.951933 1_555
Mn15 O11 1.962630 1_555
Mn15 O13 1.964553 1_555
Mn15 O17 1.974088 1_555
