# generated using pymatgen
data_La8Ni4O17
_symmetry_space_group_name_H-M   'P 1'
_cell_length_a   6.90271700
_cell_length_b   7.79377320
_cell_length_c   8.68805581
_cell_angle_alpha   116.21446261
_cell_angle_beta   97.33405304
_cell_angle_gamma   106.56720581
_symmetry_Int_Tables_number   1
_chemical_formula_structural   La8Ni4O17
_chemical_formula_sum   'La8 Ni4 O17'
_cell_volume   384.04246631
_cell_formula_units_Z   1
loop_
 _symmetry_equiv_pos_site_id
 _symmetry_equiv_pos_as_xyz
  1  'x, y, z'
loop_
 _atom_site_type_symbol
 _atom_site_label
 _atom_site_symmetry_multiplicity
 _atom_site_fract_x
 _atom_site_fract_y
 _atom_site_fract_z
 _atom_site_occupancy
  La  La0  1  0.71700500  0.09049900  0.17214200  1
  La  La1  1  0.70730100  0.58971200  0.17545300  1
  La  La2  1  0.27981700  0.16225900  0.32672100  1
  La  La3  1  0.27453200  0.66355900  0.31844300  1
  La  La4  1  0.72376200  0.33931200  0.68668700  1
  La  La5  1  0.71307800  0.83729000  0.67831900  1
  La  La6  1  0.28584800  0.90927500  0.82306300  1
  La  La7  1  0.28859800  0.41667100  0.81366900  1
  Ni  Ni0  1  0.99505100  0.75202400  0.49499700  1
  Ni  Ni1  1  0.99270800  0.24885500  0.49904400  1
  Ni  Ni2  1  0.00052100  0.00298600  0.99829700  1
  Ni  Ni3  1  0.00547800  0.49547700  0.00637600  1
  O  O0  1  0.34142800  0.01941100  0.08206300  1
  O  O1  1  0.34290200  0.52383600  0.15457200  1
  O  O2  1  0.96931300  0.87030300  0.23933200  1
  O  O3  1  0.97119900  0.37205200  0.24627200  1
  O  O4  1  0.65773700  0.70397400  0.42504800  1
  O  O5  1  0.65375600  0.20835000  0.41304200  1
  O  O6  1  0.01029600  0.00201000  0.50074400  1
  O  O7  1  0.34368100  0.82774800  0.51862500  1
  O  O8  1  0.34147400  0.29011900  0.58707000  1
  O  O9  1  0.01101700  0.49954300  0.50871300  1
  O  O10  1  0.00966700  0.62978500  0.75285200  1
  O  O11  1  0.66301000  0.01984900  0.91250900  1
  O  O12  1  0.49173800  0.68556400  0.87308800  1
  O  O13  1  0.66453300  0.39913900  0.91223300  1
  O  O14  1  0.98337200  0.11958100  0.74484400  1
  O  O15  1  0.05403700  0.25841200  0.00996600  1
  O  O16  1  0.97499000  0.74588700  0.99278000  1
loop_
_geom_bond_atom_site_label_1
_geom_bond_atom_site_label_2
_geom_bond_distance
_geom_bond_site_symmetry_2
La0 O11 2.025172 1_554
La0 O5 2.044096 1_555
La0 O3 2.139137 1_555
La0 O0 2.433169 1_555
La1 O13 2.024785 1_554
La1 O4 2.066292 1_555
La1 O2 2.185715 1_555
La1 O1 2.384994 1_555
La2 O8 1.952301 1_555
La2 O0 2.085341 1_555
La2 O2 2.371688 1_445
La2 O5 2.468409 1_555
La3 O7 1.537419 1_555
La3 O1 1.590746 1_555
La3 O3 2.373263 1_455
La3 O4 2.568175 1_555
La4 O13 1.931440 1_555
La4 O5 2.051614 1_555
La4 O10 2.315841 1_655
La4 O8 2.531056 1_555
La5 O4 1.899099 1_555
La5 O11 2.045986 1_565
La5 O14 2.217194 1_565
La6 O0 1.957750 1_566
La6 O10 2.216390 1_555
La6 O11 2.395165 1_565
La6 O7 2.547244 1_555
La6 O12 2.678353 1_555
La7 O8 1.911833 1_555
La7 O12 1.951460 1_555
La7 O14 2.414739 1_455
La7 O13 2.687769 1_555
Ni0 O6 1.898780 1_665
Ni0 O9 2.055721 1_655
Ni0 O4 2.207113 1_555
Ni0 O7 2.266840 1_655
Ni1 O9 1.884637 1_655
Ni1 O6 1.968252 1_655
Ni1 O5 2.248592 1_555
Ni1 O8 2.314122 1_655
Ni2 O15 1.871500 1_556
Ni2 O16 1.939088 1_445
Ni2 O0 2.322106 1_556
Ni2 O11 2.412120 1_455
Ni3 O15 1.982041 1_555
Ni3 O16 2.073327 1_454
Ni3 O13 2.174796 1_454
