# generated using pymatgen
data_TiVO4
_symmetry_space_group_name_H-M   'P 1'
_cell_length_a   5.37859979
_cell_length_b   10.42465565
_cell_length_c   5.37868160
_cell_angle_alpha   74.92658068
_cell_angle_beta   90.47180326
_cell_angle_gamma   105.07948822
_symmetry_Int_Tables_number   1
_chemical_formula_structural   TiVO4
_chemical_formula_sum   'Ti4 V4 O16'
_cell_volume   280.60739489
_cell_formula_units_Z   4
loop_
 _symmetry_equiv_pos_site_id
 _symmetry_equiv_pos_as_xyz
  1  'x, y, z'
loop_
 _atom_site_type_symbol
 _atom_site_label
 _atom_site_symmetry_multiplicity
 _atom_site_fract_x
 _atom_site_fract_y
 _atom_site_fract_z
 _atom_site_occupancy
  Ti  Ti0  1  0.87034400  0.25158700  0.62360800  1
  Ti  Ti1  1  0.37864500  0.25079300  0.12774000  1
  Ti  Ti2  1  0.62637800  0.75144500  0.37986200  1
  Ti  Ti3  1  0.12238100  0.75092800  0.87130600  1
  V  V0  1  0.75049400  0.49835100  0.74791500  1
  V  V1  1  0.50206000  0.99837600  0.49955000  1
  V  V2  1  0.25221800  0.50073700  0.24680600  1
  V  V3  1  0.00278900  0.00067100  0.99783800  1
  O  O0  1  0.99131100  0.45537300  0.51556300  1
  O  O1  1  0.46689300  0.45751300  0.03116500  1
  O  O2  1  0.73442200  0.95538300  0.25871100  1
  O  O3  1  0.21870700  0.95739700  0.78305100  1
  O  O4  1  0.77803200  0.04255300  0.73752400  1
  O  O5  1  0.25801800  0.04213600  0.22591300  1
  O  O6  1  0.51253600  0.54259000  0.47202600  1
  O  O7  1  0.02388600  0.54205000  0.99207300  1
  O  O8  1  0.89859000  0.79716500  0.10001900  1
  O  O9  1  0.39830400  0.79266000  0.60549500  1
  O  O10  1  0.64457200  0.29273500  0.85176800  1
  O  O11  1  0.15005500  0.29716400  0.35134000  1
  O  O12  1  0.35128000  0.70198600  0.14844400  1
  O  O13  1  0.85852100  0.70921300  0.64200900  1
  O  O14  1  0.10156500  0.20201800  0.89866400  1
  O  O15  1  0.60799600  0.20917600  0.39160900  1
loop_
_geom_bond_atom_site_label_1
_geom_bond_atom_site_label_2
_geom_bond_distance
_geom_bond_site_symmetry_2
O0 V2 1.901347 1_655
O0 Ti0 1.979657 1_555
O0 V0 2.014975 1_555
O1 V2 1.856376 1_555
O1 Ti1 2.007164 1_555
O1 V0 2.047472 1_554
O2 V3 1.899861 1_664
O2 Ti2 1.981160 1_555
O2 V1 2.015182 1_555
O3 V3 1.858120 1_565
O3 Ti3 2.004711 1_555
O3 V1 2.047220 1_555
O4 V3 1.881812 1_655
O4 V1 1.993326 1_545
O4 Ti0 2.029301 1_555
O5 V3 1.874985 1_554
O5 V1 2.006933 1_545
O5 Ti1 2.026108 1_555
O6 V2 1.883437 1_555
O6 V0 1.993162 1_555
O6 Ti2 2.027566 1_555
O7 V2 1.873916 1_556
O7 V0 2.006296 1_455
O7 Ti3 2.028252 1_555
O8 Ti3 1.956828 1_654
O8 V3 1.974039 1_664
O8 Ti2 1.984054 1_555
O9 Ti2 1.931902 1_555
O9 Ti3 1.952264 1_555
O9 V1 1.995507 1_555
O10 Ti0 1.932357 1_555
O10 Ti1 1.952517 1_556
O10 V0 1.994539 1_555
O11 Ti1 1.956460 1_555
O11 V2 1.974702 1_555
O11 Ti0 1.983982 1_455
O12 V2 1.952158 1_555
O12 Ti3 1.974614 1_554
O12 Ti2 1.977632 1_555
O13 Ti3 1.911361 1_655
O13 Ti2 1.917058 1_555
O13 V0 2.045396 1_555
O14 V3 1.953096 1_555
O14 Ti1 1.974588 1_556
O14 Ti0 1.977086 1_455
O15 Ti1 1.911454 1_555
O15 Ti0 1.917562 1_555
O15 V1 2.044794 1_545
