# generated using pymatgen
data_ErB4Mo
_symmetry_space_group_name_H-M   'P 1'
_cell_length_a   3.60612500
_cell_length_b   6.00747200
_cell_length_c   11.61753800
_cell_angle_alpha   90.00000000
_cell_angle_beta   90.00000000
_cell_angle_gamma   90.00000000
_symmetry_Int_Tables_number   1
_chemical_formula_structural   ErB4Mo
_chemical_formula_sum   'Er4 B16 Mo4'
_cell_volume   251.67879949
_cell_formula_units_Z   4
loop_
 _symmetry_equiv_pos_site_id
 _symmetry_equiv_pos_as_xyz
  1  'x, y, z'
loop_
 _atom_site_type_symbol
 _atom_site_label
 _atom_site_symmetry_multiplicity
 _atom_site_fract_x
 _atom_site_fract_y
 _atom_site_fract_z
 _atom_site_occupancy
  Er  Er0  1  0.00000000  0.62688700  0.35013200  1
  Er  Er1  1  0.00000000  0.37311300  0.64986800  1
  Er  Er2  1  0.00000000  0.12688700  0.14986800  1
  Er  Er3  1  0.00000000  0.87311300  0.85013200  1
  B  B0  1  0.50000000  0.78666800  0.18670600  1
  B  B1  1  0.50000000  0.21333200  0.81329400  1
  B  B2  1  0.50000000  0.28666800  0.31329400  1
  B  B3  1  0.50000000  0.71333200  0.68670600  1
  B  B4  1  0.50000000  0.86755500  0.03221300  1
  B  B5  1  0.50000000  0.13244500  0.96778700  1
  B  B6  1  0.50000000  0.36755500  0.46778700  1
  B  B7  1  0.50000000  0.63244500  0.53221300  1
  B  B8  1  0.50000000  0.88500900  0.45262300  1
  B  B9  1  0.50000000  0.11499100  0.54737700  1
  B  B10  1  0.50000000  0.38500900  0.04737700  1
  B  B11  1  0.50000000  0.61499100  0.95262300  1
  B  B12  1  0.50000000  0.97568100  0.30637900  1
  B  B13  1  0.50000000  0.02431900  0.69362100  1
  B  B14  1  0.50000000  0.47568100  0.19362100  1
  B  B15  1  0.50000000  0.52431900  0.80637900  1
  Mo  Mo0  1  0.00000000  0.62990400  0.08375200  1
  Mo  Mo1  1  0.00000000  0.37009600  0.91624800  1
  Mo  Mo2  1  0.00000000  0.12990400  0.41624800  1
  Mo  Mo3  1  0.00000000  0.87009600  0.58375200  1
loop_
_geom_bond_atom_site_label_1
_geom_bond_atom_site_label_2
_geom_bond_distance
_geom_bond_site_symmetry_2
Er0 Mo3 3.082371 1_555
Er0 Mo2 3.082833 1_555
Er0 Mo0 3.094733 1_555
Er0 Mo2 3.117952 1_565
Er1 Mo2 3.082371 1_555
Er1 Mo3 3.082833 1_555
Er1 Mo1 3.094733 1_555
Er1 Mo3 3.117952 1_545
Er2 Mo1 3.082371 1_554
Er2 Mo0 3.082833 1_545
Er2 Mo2 3.094733 1_555
Er2 Mo0 3.117952 1_555
Er3 Mo0 3.082371 1_556
Er3 Mo1 3.082833 1_565
Er3 Mo3 3.094733 1_555
Er3 Mo1 3.117952 1_555
B0 B12 1.795073 1_555
B0 B4 1.859444 1_555
B0 B14 1.869972 1_555
B0 Mo0 2.359772 1_655
B0 Mo0 2.359772 1_555
B0 Er2 2.758902 1_665
B0 Er2 2.758902 1_565
B0 Er0 2.788748 1_655
B0 Er0 2.788748 1_555
B1 B13 1.795073 1_555
B1 B5 1.859444 1_555
B1 B15 1.869972 1_555
B1 Mo1 2.359772 1_655
B1 Mo1 2.359772 1_555
B1 Er3 2.758902 1_545
B1 Er3 2.758902 1_645
B1 Er1 2.788748 1_655
B1 Er1 2.788748 1_555
B2 B6 1.859444 1_555
B2 Mo2 2.359772 1_655
B2 Mo2 2.359772 1_555
B2 Er0 2.758902 1_655
B2 Er0 2.758902 1_555
B2 Er2 2.788748 1_555
B2 Er2 2.788748 1_655
B3 B7 1.859444 1_555
B3 Mo3 2.359772 1_655
B3 Mo3 2.359772 1_555
B3 Er1 2.758902 1_655
B3 Er1 2.758902 1_555
B3 Er3 2.788748 1_655
B3 Er3 2.788748 1_555
B4 B5 1.758552 1_564
B4 Mo0 2.376514 1_655
B4 Mo0 2.376514 1_555
B4 Er2 2.747087 1_565
B4 Er2 2.747087 1_665
B4 Er3 2.779709 1_554
B4 Er3 2.779709 1_654
B5 Mo1 2.376514 1_655
B5 Mo1 2.376514 1_555
B5 Er3 2.747087 1_645
B5 Er3 2.747087 1_545
B5 Er2 2.779709 1_656
B5 Er2 2.779709 1_556
B6 B7 1.758552 1_555
B6 B9 1.776815 1_555
B6 Mo2 2.376514 1_655
B6 Mo2 2.376514 1_555
B6 Er0 2.747087 1_555
B6 Er0 2.747087 1_655
B6 Er1 2.779709 1_655
B6 Er1 2.779709 1_555
B7 B8 1.776815 1_555
B7 Mo3 2.376514 1_555
B7 Mo3 2.376514 1_655
B7 Er1 2.747087 1_555
B7 Er1 2.747087 1_655
B7 Er0 2.779709 1_555
B7 Er0 2.779709 1_655
B8 B9 1.766529 1_565
B8 Mo3 2.362159 1_555
B8 Mo3 2.362159 1_655
B8 Mo2 2.365173 1_665
B8 Mo2 2.365173 1_565
B8 Er0 2.659574 1_655
B8 Er0 2.659574 1_555
B9 Mo2 2.362159 1_655
B9 Mo2 2.362159 1_555
B9 Mo3 2.365173 1_545
B9 Mo3 2.365173 1_645
B9 Er1 2.659574 1_555
B9 Er1 2.659574 1_655
B10 B11 1.766529 1_554
B10 B5 1.776815 1_554
B10 B14 1.784179 1_555
B10 Mo1 2.362159 1_654
B10 Mo1 2.362159 1_554
B10 Mo0 2.365173 1_555
B10 Mo0 2.365173 1_655
B10 Er2 2.659574 1_655
B10 Er2 2.659574 1_555
B11 B4 1.776815 1_556
B11 B15 1.784179 1_555
B11 Mo0 2.362159 1_656
B11 Mo0 2.362159 1_556
B11 Mo1 2.365173 1_655
B11 Mo1 2.365173 1_555
B11 Er3 2.659574 1_555
B11 Er3 2.659574 1_655
B12 B8 1.784179 1_555
B12 B2 1.869972 1_565
B12 Mo2 2.395545 1_565
B12 Mo2 2.395545 1_665
B12 Er2 2.717035 1_665
B12 Er2 2.717035 1_565
B12 Er0 2.810691 1_655
B12 Er0 2.810691 1_555
B13 B9 1.784179 1_555
B13 B3 1.869972 1_545
B13 Mo3 2.395545 1_545
B13 Mo3 2.395545 1_645
B13 Er3 2.717035 1_645
B13 Er3 2.717035 1_545
B13 Er1 2.810691 1_655
B13 Er1 2.810691 1_555
B14 B2 1.795073 1_555
B14 Mo0 2.395545 1_555
B14 Mo0 2.395545 1_655
B14 Er0 2.717035 1_555
B14 Er0 2.717035 1_655
B14 Er2 2.810691 1_555
B14 Er2 2.810691 1_655
B15 B3 1.795073 1_555
B15 Mo1 2.395545 1_555
B15 Mo1 2.395545 1_655
B15 Er1 2.717035 1_655
B15 Er1 2.717035 1_555
B15 Er3 2.810691 1_555
B15 Er3 2.810691 1_655
Mo0 Mo1 2.494578 1_554
Mo2 Mo3 2.494578 1_545
