# generated using pymatgen
data_Li2TiCrO4
_symmetry_space_group_name_H-M   'P 1'
_cell_length_a   5.88850930
_cell_length_b   9.56547113
_cell_length_c   5.88867317
_cell_angle_alpha   72.03240371
_cell_angle_beta   90.11885403
_cell_angle_gamma   107.96633906
_symmetry_Int_Tables_number   1
_chemical_formula_structural   Li2TiCrO4
_chemical_formula_sum   'Li8 Ti4 Cr4 O16'
_cell_volume   298.53440340
_cell_formula_units_Z   4
loop_
 _symmetry_equiv_pos_site_id
 _symmetry_equiv_pos_as_xyz
  1  'x, y, z'
loop_
 _atom_site_type_symbol
 _atom_site_label
 _atom_site_symmetry_multiplicity
 _atom_site_fract_x
 _atom_site_fract_y
 _atom_site_fract_z
 _atom_site_occupancy
  Li  Li0  1  0.37594300  0.25019600  0.62412300  1
  Li  Li1  1  0.87429100  0.25025600  0.12564200  1
  Li  Li2  1  0.12506600  0.74961400  0.37509500  1
  Li  Li3  1  0.62455400  0.74963600  0.87527600  1
  Li  Li4  1  0.49935000  0.99866200  0.00067900  1
  Li  Li5  1  0.00035600  0.00077500  0.49959200  1
  Li  Li6  1  0.24985700  0.49970300  0.75012200  1
  Li  Li7  1  0.75030100  0.50061300  0.24971900  1
  Ti  Ti0  1  0.87687900  0.24979300  0.62628200  1
  Ti  Ti1  1  0.37294500  0.24979700  0.12390200  1
  Ti  Ti2  1  0.62518900  0.75001000  0.37448400  1
  Ti  Ti3  1  0.12483000  0.75001600  0.87549700  1
  Cr  Cr0  1  0.75008700  0.50008900  0.74998100  1
  Cr  Cr1  1  0.49982200  0.99963500  0.50016700  1
  Cr  Cr2  1  0.24998300  0.49985700  0.25007100  1
  Cr  Cr3  1  0.00028000  0.00056400  0.99973600  1
  O  O0  1  0.97868100  0.47944100  0.51944400  1
  O  O1  1  0.50075500  0.47943100  0.00109900  1
  O  O2  1  0.73007500  0.97786200  0.27185000  1
  O  O3  1  0.24779100  0.97788100  0.75026900  1
  O  O4  1  0.74958500  0.02089100  0.73054500  1
  O  O5  1  0.27129100  0.02090900  0.24854100  1
  O  O6  1  0.51979800  0.52191300  0.49968500  1
  O  O7  1  0.00210100  0.52189400  0.97841300  1
  O  O8  1  0.88012800  0.76016900  0.11988200  1
  O  O9  1  0.38047600  0.76102000  0.61951400  1
  O  O10  1  0.63070500  0.26145500  0.86928500  1
  O  O11  1  0.12977900  0.25950500  0.37021700  1
  O  O12  1  0.37002900  0.74013800  0.12992200  1
  O  O13  1  0.86944100  0.73886600  0.63062800  1
  O  O14  1  0.12061000  0.24125600  0.87940400  1
  O  O15  1  0.61902300  0.23815300  0.38093100  1
loop_
_geom_bond_atom_site_label_1
_geom_bond_atom_site_label_2
_geom_bond_distance
_geom_bond_site_symmetry_2
Li0 O15 2.079657 1_555
Li0 O11 2.081615 1_555
Li0 O10 2.081725 1_555
Li0 O14 2.092480 1_555
Li0 O6 2.340757 1_555
Li0 O3 2.345687 1_545
Li1 O15 2.080253 1_555
Li1 O11 2.081569 1_655
Li1 O10 2.081777 1_554
Li1 O14 2.092018 1_654
Li1 O7 2.340074 1_654
Li1 O2 2.346362 1_545
Li2 O9 2.081379 1_555
Li2 O8 2.082382 1_455
Li2 O12 2.084073 1_555
Li2 O13 2.087846 1_455
Li2 O0 2.327616 1_455
Li2 O5 2.337127 1_565
Li3 O9 2.081414 1_555
Li3 O8 2.082497 1_556
Li3 O12 2.084328 1_556
Li3 O13 2.087425 1_555
Li3 O1 2.327901 1_556
Li3 O4 2.336786 1_565
Li4 O4 2.086775 1_564
Li4 O5 2.086905 1_565
Li4 O2 2.096923 1_555
Li4 O3 2.097214 1_554
Li4 O12 2.225735 1_555
Li4 O10 2.262488 1_564
Li5 O2 2.082526 1_445
Li5 O3 2.082879 1_545
Li5 O4 2.100539 1_455
Li5 O5 2.100599 1_555
Li5 O11 2.227508 1_555
Li5 O13 2.254877 1_445
Li6 O6 2.086807 1_555
Li6 O7 2.087091 1_555
Li6 O0 2.096455 1_455
Li6 O1 2.096539 1_556
Li6 O14 2.225072 1_555
Li6 O9 2.249781 1_555
Li7 O0 2.081590 1_555
Li7 O1 2.081869 1_555
Li7 O6 2.101057 1_555
Li7 O7 2.101267 1_654
Li7 O8 2.234619 1_555
Li7 O15 2.259621 1_555
Cr0 O7 2.007248 1_655
Cr0 O0 2.007714 1_555
Cr0 O1 2.007759 1_556
Cr0 O6 2.007836 1_555
Cr0 O10 2.054494 1_555
Cr0 O13 2.055725 1_555
Cr1 O4 2.005550 1_565
Cr1 O5 2.005626 1_565
Cr1 O2 2.010935 1_555
Cr1 O3 2.011054 1_555
Cr1 O15 2.053495 1_565
Cr1 O9 2.054330 1_555
Cr2 O12 2.068674 1_555
Cr2 O11 2.069285 1_555
Cr2 O6 2.168931 1_555
Cr2 O7 2.169371 1_554
Cr2 O1 2.175301 1_555
Cr2 O0 2.175652 1_455
Cr3 O8 2.069655 1_446
Cr3 O14 2.072212 1_555
Cr3 O5 2.169295 1_556
Cr3 O4 2.169569 1_455
Cr3 O2 2.174665 1_446
Cr3 O3 2.174849 1_545
O0 Ti0 1.979182 1_555
O1 Ti1 1.979048 1_555
O2 Ti2 1.963523 1_555
O3 Ti3 1.963627 1_555
O4 Ti0 1.973066 1_555
O5 Ti1 1.972934 1_555
O6 Ti2 1.965531 1_555
O7 Ti3 1.965749 1_555
O8 Ti3 2.082761 1_654
O8 Ti2 2.083347 1_555
O9 Ti3 2.088841 1_555
O9 Ti2 2.089384 1_555
O10 Ti1 2.089535 1_556
O10 Ti0 2.090045 1_555
O11 Ti1 2.082432 1_555
O11 Ti0 2.082694 1_455
O12 Ti3 2.079947 1_554
O12 Ti2 2.080354 1_555
O13 Ti3 2.083060 1_655
O13 Ti2 2.083630 1_555
O14 Ti1 2.067908 1_556
O14 Ti0 2.067990 1_455
O15 Ti1 2.095095 1_555
O15 Ti0 2.095512 1_555
