# generated using pymatgen
data_LaSi3Rh
_symmetry_space_group_name_H-M   'P 1'
_cell_length_a   5.78497299
_cell_length_b   5.78497299
_cell_length_c   5.78497299
_cell_angle_alpha   136.68754765
_cell_angle_beta   136.68754765
_cell_angle_gamma   62.91914798
_symmetry_Int_Tables_number   1
_chemical_formula_structural   LaSi3Rh
_chemical_formula_sum   'La1 Si3 Rh1'
_cell_volume   89.96151325
_cell_formula_units_Z   1
loop_
 _symmetry_equiv_pos_site_id
 _symmetry_equiv_pos_as_xyz
  1  'x, y, z'
loop_
 _atom_site_type_symbol
 _atom_site_label
 _atom_site_symmetry_multiplicity
 _atom_site_fract_x
 _atom_site_fract_y
 _atom_site_fract_z
 _atom_site_occupancy
  La  La0  1  0.99949889  0.99949889  0.00000000  1
  Si  Si0  1  0.41193168  0.41193168  0.00000000  1
  Si  Si1  1  0.26201892  0.76201892  0.50000000  1
  Si  Si2  1  0.76201892  0.26201892  0.50000000  1
  Rh  Rh0  1  0.65453058  0.65453058  -0.00000000  1
loop_
_geom_bond_atom_site_label_1
_geom_bond_atom_site_label_2
_geom_bond_distance
_geom_bond_site_symmetry_2
La0 Si0 3.140415 1_554
La0 Si0 3.140415 1_565
La0 Si0 3.140415 1_655
La0 Si0 3.140415 1_666
La0 Si1 3.170305 1_655
La0 Si2 3.170305 1_565
La0 Si2 3.170305 1_554
La0 Si1 3.170305 1_554
La0 Si2 3.357129 1_665
La0 Si1 3.357129 1_665
La0 Si2 3.357129 1_564
La0 Si1 3.357129 1_654
La0 Rh0 3.384726 1_565
La0 Rh0 3.384726 1_655
La0 Rh0 3.384726 1_666
La0 Rh0 3.384726 1_554
La0 Rh0 3.404583 1_555
Si0 Si2 2.597434 1_555
Si0 Si2 2.597434 1_454
Si0 Si1 2.597434 1_544
Si0 Si1 2.597434 1_555
Rh0 Si2 2.383909 1_554
Rh0 Si1 2.383909 1_554
Rh0 Si1 2.383909 1_655
Rh0 Si2 2.383909 1_565
Rh0 Si0 2.394272 1_555
