# generated using pymatgen
data_CeCo3Cu2
_symmetry_space_group_name_H-M   'P 1'
_cell_length_a   4.94499810
_cell_length_b   4.94499810
_cell_length_c   4.02063100
_cell_angle_alpha   90.00000000
_cell_angle_beta   90.00000000
_cell_angle_gamma   120.00000128
_symmetry_Int_Tables_number   1
_chemical_formula_structural   CeCo3Cu2
_chemical_formula_sum   'Ce1 Co3 Cu2'
_cell_volume   85.14459818
_cell_formula_units_Z   1
loop_
 _symmetry_equiv_pos_site_id
 _symmetry_equiv_pos_as_xyz
  1  'x, y, z'
loop_
 _atom_site_type_symbol
 _atom_site_label
 _atom_site_symmetry_multiplicity
 _atom_site_fract_x
 _atom_site_fract_y
 _atom_site_fract_z
 _atom_site_occupancy
  Ce  Ce0  1  0.00000000  0.00000000  0.00000000  1
  Co  Co0  1  0.50000000  0.50000000  0.50000000  1
  Co  Co1  1  0.50000000  0.00000000  0.50000000  1
  Co  Co2  1  0.00000000  0.50000000  0.50000000  1
  Cu  Cu0  1  0.66666700  0.33333300  0.00000000  1
  Cu  Cu1  1  0.33333300  0.66666700  0.00000000  1
loop_
_geom_bond_atom_site_label_1
_geom_bond_atom_site_label_2
_geom_bond_distance
_geom_bond_site_symmetry_2
Ce0 Cu1 2.854993 1_545
Ce0 Cu0 2.854993 1_455
Ce0 Cu1 2.854997 1_555
Ce0 Cu1 2.854997 1_445
Ce0 Cu0 2.854997 1_555
Ce0 Cu0 2.854997 1_445
Ce0 Co0 3.186631 1_554
Ce0 Co0 3.186631 1_555
Ce0 Co0 3.186631 1_444
Ce0 Co0 3.186631 1_445
Ce0 Co1 3.186631 1_455
Ce0 Co2 3.186631 1_544
Ce0 Co1 3.186631 1_554
Ce0 Co1 3.186631 1_454
Ce0 Co2 3.186631 1_554
Ce0 Co1 3.186631 1_555
Ce0 Co2 3.186631 1_545
Ce0 Co2 3.186631 1_555
Co0 Cu0 2.465589 1_556
Co0 Cu1 2.465589 1_556
Co0 Cu0 2.465589 1_555
Co0 Cu1 2.465589 1_555
Co0 Co2 2.472499 1_555
Co0 Co2 2.472499 1_655
Co0 Co1 2.472499 1_565
Co0 Co1 2.472499 1_555
Co1 Cu0 2.465586 1_555
Co1 Cu1 2.465586 1_546
Co1 Cu1 2.465586 1_545
Co1 Cu0 2.465586 1_556
Co1 Co2 2.472499 1_655
Co1 Co2 2.472499 1_545
Co2 Cu1 2.465586 1_555
Co2 Cu0 2.465586 1_455
Co2 Cu0 2.465586 1_456
Co2 Cu1 2.465586 1_556
