# generated using pymatgen
data_NdCu
_symmetry_space_group_name_H-M   'P 1'
_cell_length_a   4.56707463
_cell_length_b   5.48929127
_cell_length_c   7.42695737
_cell_angle_alpha   90.00000000
_cell_angle_beta   90.00000000
_cell_angle_gamma   90.00000000
_symmetry_Int_Tables_number   1
_chemical_formula_structural   NdCu
_chemical_formula_sum   'Nd4 Cu4'
_cell_volume   186.19384277
_cell_formula_units_Z   4
loop_
 _symmetry_equiv_pos_site_id
 _symmetry_equiv_pos_as_xyz
  1  'x, y, z'
loop_
 _atom_site_type_symbol
 _atom_site_label
 _atom_site_symmetry_multiplicity
 _atom_site_fract_x
 _atom_site_fract_y
 _atom_site_fract_z
 _atom_site_occupancy
  Nd  Nd0  1  0.25000000  0.38485517  0.67901408  1
  Nd  Nd1  1  0.75000000  0.61514483  0.32098592  1
  Nd  Nd2  1  0.75000000  0.88485517  0.82098592  1
  Nd  Nd3  1  0.25000000  0.11514483  0.17901408  1
  Cu  Cu0  1  0.25000000  0.88967202  0.53332229  1
  Cu  Cu1  1  0.75000000  0.11032798  0.46667771  1
  Cu  Cu2  1  0.75000000  0.38967202  0.96667771  1
  Cu  Cu3  1  0.25000000  0.61032798  0.03332229  1
loop_
_geom_bond_atom_site_label_1
_geom_bond_atom_site_label_2
_geom_bond_distance
_geom_bond_site_symmetry_2
Cu0 Cu1 2.631853 1_565
Cu0 Cu1 2.631853 1_465
Cu0 Nd3 2.907972 1_565
Cu0 Nd0 2.925656 1_565
Cu0 Nd0 2.974852 1_555
Cu0 Nd2 3.127255 1_555
Cu0 Nd2 3.127255 1_455
Cu0 Nd1 3.157917 1_555
Cu0 Nd1 3.157917 1_455
Cu1 Nd2 2.907972 1_545
Cu1 Nd1 2.925656 1_545
Cu1 Nd1 2.974852 1_555
Cu1 Nd3 3.127255 1_655
Cu1 Nd3 3.127255 1_555
Cu1 Nd0 3.157917 1_555
Cu1 Nd0 3.157917 1_655
Cu2 Cu3 2.631853 1_556
Cu2 Cu3 2.631853 1_656
Cu2 Nd1 2.907972 1_556
Cu2 Nd2 2.925656 1_555
Cu2 Nd2 2.974852 1_545
Cu2 Nd0 3.127255 1_655
Cu2 Nd0 3.127255 1_555
Cu2 Nd3 3.157917 1_556
Cu2 Nd3 3.157917 1_656
Cu3 Nd0 2.907972 1_554
Cu3 Nd3 2.925656 1_555
Cu3 Nd3 2.974852 1_565
Cu3 Nd1 3.127255 1_455
Cu3 Nd1 3.127255 1_555
Cu3 Nd2 3.157917 1_554
Cu3 Nd2 3.157917 1_454
