# generated using pymatgen
data_Nb7Te6
_symmetry_space_group_name_H-M   'P 1'
_cell_length_a   11.50446564
_cell_length_b   15.13359473
_cell_length_c   15.40404206
_cell_angle_alpha   49.66236164
_cell_angle_beta   41.84672347
_cell_angle_gamma   75.50977394
_symmetry_Int_Tables_number   1
_chemical_formula_structural   Nb7Te6
_chemical_formula_sum   'Nb28 Te24'
_cell_volume   1213.64494561
_cell_formula_units_Z   4
loop_
 _symmetry_equiv_pos_site_id
 _symmetry_equiv_pos_as_xyz
  1  'x, y, z'
loop_
 _atom_site_type_symbol
 _atom_site_label
 _atom_site_symmetry_multiplicity
 _atom_site_fract_x
 _atom_site_fract_y
 _atom_site_fract_z
 _atom_site_occupancy
  Nb  Nb0  1  0.07185200  0.67676300  0.21187700  1
  Nb  Nb1  1  0.99008700  0.00369200  0.49896600  1
  Nb  Nb2  1  0.00991300  0.49630800  0.50103400  1
  Nb  Nb3  1  0.06480600  0.12796100  0.55465000  1
  Nb  Nb4  1  0.38531900  0.17520700  0.22035100  1
  Nb  Nb5  1  0.05588400  0.62091500  0.56565800  1
  Nb  Nb6  1  0.40330800  0.68325200  0.19969900  1
  Nb  Nb7  1  0.27718800  0.38261200  0.42707100  1
  Nb  Nb8  1  0.32720700  0.99676800  0.50410300  1
  Nb  Nb9  1  0.25983300  0.88185000  0.43714800  1
  Nb  Nb10  1  0.32481200  0.49916500  0.49816500  1
  Nb  Nb11  1  0.40724000  0.12168200  0.55686600  1
  Nb  Nb12  1  0.71579600  0.17050100  0.22812300  1
  Nb  Nb13  1  0.39345000  0.61303300  0.56592200  1
  Nb  Nb14  1  0.28420400  0.32949900  0.77187700  1
  Nb  Nb15  1  0.72016400  0.67625900  0.21374300  1
  Nb  Nb16  1  0.59276000  0.37831800  0.44313400  1
  Nb  Nb17  1  0.27983600  0.82374100  0.78625700  1
  Nb  Nb18  1  0.67518800  0.00083500  0.50183500  1
  Nb  Nb19  1  0.60655000  0.88696700  0.43407800  1
  Nb  Nb20  1  0.67279300  0.50323200  0.49589700  1
  Nb  Nb21  1  0.72281200  0.11738800  0.57292900  1
  Nb  Nb22  1  0.74016700  0.61815000  0.56285200  1
  Nb  Nb23  1  0.61468100  0.32479300  0.77964900  1
  Nb  Nb24  1  0.93519400  0.37203900  0.44535000  1
  Nb  Nb25  1  0.59669200  0.81674800  0.80030100  1
  Nb  Nb26  1  0.94411600  0.87908500  0.43434200  1
  Nb  Nb27  1  0.92814800  0.82323700  0.78812300  1
  Te  Te0  1  0.12848400  0.28718400  0.26572400  1
  Te  Te1  1  0.31742900  0.06739500  0.15671800  1
  Te  Te2  1  0.13981400  0.79439300  0.26376000  1
  Te  Te3  1  0.32297500  0.55797200  0.15495900  1
  Te  Te4  1  0.46703700  0.28951700  0.27012100  1
  Te  Te5  1  0.01122200  0.43340200  0.84068600  1
  Te  Te6  1  0.65694000  0.06806300  0.15104200  1
  Te  Te7  1  0.46398700  0.79034500  0.27042400  1
  Te  Te8  1  0.18988200  0.21515000  0.72960100  1
  Te  Te9  1  0.01340800  0.93983700  0.83976800  1
  Te  Te10  1  0.66157100  0.56105200  0.15148600  1
  Te  Te11  1  0.20214700  0.71367300  0.72590400  1
  Te  Te12  1  0.81011800  0.28485000  0.27039900  1
  Te  Te13  1  0.34306000  0.43193700  0.84895800  1
  Te  Te14  1  0.98877800  0.06659800  0.15931400  1
  Te  Te15  1  0.79785300  0.78632700  0.27409600  1
  Te  Te16  1  0.53296300  0.21048300  0.72987900  1
  Te  Te17  1  0.33842900  0.93894800  0.84851400  1
  Te  Te18  1  0.98659200  0.56016300  0.16023200  1
  Te  Te19  1  0.53601300  0.70965500  0.72957600  1
  Te  Te20  1  0.68257100  0.43260500  0.84328200  1
  Te  Te21  1  0.87151600  0.21281600  0.73427600  1
  Te  Te22  1  0.67702500  0.94202800  0.84504100  1
  Te  Te23  1  0.86018600  0.70560700  0.73624000  1
loop_
_geom_bond_atom_site_label_1
_geom_bond_atom_site_label_2
_geom_bond_distance
_geom_bond_site_symmetry_2
Nb0 Te2 2.808623 1_555
Nb0 Te3 2.831020 1_555
Nb0 Te17 2.870859 1_554
Nb0 Nb2 2.881532 1_555
Nb0 Nb20 2.889464 1_455
Nb0 Te15 2.923167 1_455
Nb0 Te18 2.924856 1_455
Nb1 Nb25 2.853259 1_545
Nb1 Nb4 2.870901 1_655
Nb1 Nb27 2.881532 1_545
Nb1 Nb21 2.895549 1_555
Nb1 Nb26 2.922396 1_545
Nb1 Te1 2.926262 1_655
Nb1 Te0 2.964883 1_655
Nb1 Te22 2.982905 1_545
Nb1 Nb9 2.990653 1_645
Nb1 Nb3 3.001218 1_655
Nb1 Te23 3.135766 1_545
Nb2 Nb6 2.853259 1_555
Nb2 Nb23 2.870901 1_455
Nb2 Nb7 2.895549 1_555
Nb2 Nb5 2.922396 1_555
Nb2 Te20 2.926262 1_455
Nb2 Te21 2.964883 1_455
Nb2 Te3 2.982905 1_555
Nb2 Nb22 2.990653 1_455
Nb2 Nb24 3.001218 1_455
Nb2 Te2 3.135766 1_555
Nb3 Te22 2.843464 1_445
Nb3 Te4 2.858856 1_555
Nb3 Te21 2.872969 1_455
Nb3 Te0 2.879807 1_555
Nb3 Te9 2.920677 1_545
Nb3 Nb8 3.026751 1_545
Nb4 Te0 2.835762 1_555
Nb4 Te4 2.840575 1_555
Nb4 Te1 2.842818 1_555
Nb4 Nb8 2.848449 1_545
Nb4 Te6 2.875541 1_555
Nb4 Te20 2.896164 1_554
Nb5 Te23 2.778151 1_455
Nb5 Te20 2.799766 1_455
Nb5 Te5 2.861448 1_555
Nb5 Te2 2.867827 1_555
Nb5 Te7 2.901194 1_555
Nb6 Te22 2.818176 1_554
Nb6 Te2 2.851736 1_555
Nb6 Te7 2.878534 1_555
Nb6 Te3 2.905340 1_555
Nb6 Te10 2.922370 1_555
Nb7 Te4 2.757327 1_555
Nb7 Te3 2.810562 1_555
Nb7 Te10 2.834691 1_555
Nb7 Te21 2.851857 1_455
Nb7 Te8 2.856503 1_555
Nb8 Te9 2.913625 1_555
Nb8 Te6 2.974360 1_565
Nb8 Nb9 2.979389 1_555
Nb8 Te11 2.984859 1_555
Nb8 Te4 3.076142 1_565
Nb9 Te1 2.819171 1_565
Nb9 Te7 2.831872 1_555
Nb9 Te23 2.854572 1_455
Nb9 Te11 2.914546 1_555
Nb9 Te6 2.933098 1_565
Nb10 Nb6 2.864657 1_555
Nb10 Nb14 2.870306 1_555
Nb10 Nb15 2.876699 1_555
Nb10 Te5 2.912681 1_555
Nb10 Nb7 2.913586 1_555
Nb10 Te8 2.974945 1_555
Nb10 Nb16 2.976288 1_555
Nb10 Nb5 2.980390 1_555
Nb10 Nb13 2.986592 1_555
Nb10 Te10 2.986923 1_555
Nb10 Te7 3.072158 1_555
Nb11 Te17 2.858422 1_545
Nb11 Te12 2.863835 1_555
Nb11 Te4 2.873689 1_555
Nb11 Te9 2.896542 1_545
Nb11 Te8 2.919443 1_555
Nb11 Nb18 2.976288 1_555
Nb11 Nb8 3.009477 1_545
Nb12 Te4 2.832552 1_555
Nb12 Te12 2.836849 1_555
Nb12 Nb8 2.840430 1_545
Nb12 Te14 2.861090 1_555
Nb12 Nb18 2.870306 1_555
Nb12 Te6 2.894414 1_555
Nb12 Te5 2.967497 1_654
Nb13 Te5 2.828170 1_555
Nb13 Te11 2.887474 1_555
Nb13 Te7 2.890061 1_555
Nb13 Te15 2.900927 1_555
Nb13 Te13 2.901124 1_555
Nb13 Nb20 2.955665 1_555
Nb14 Te16 2.832552 1_555
Nb14 Te8 2.836849 1_555
Nb14 Nb20 2.840430 1_555
Nb14 Te5 2.861090 1_555
Nb14 Te13 2.894414 1_555
Nb14 Te14 2.967497 1_456
Nb15 Te7 2.828514 1_555
Nb15 Te10 2.851262 1_555
Nb15 Te15 2.902677 1_555
Nb15 Nb20 2.914746 1_555
Nb15 Te9 2.917183 1_654
Nb15 Te18 2.928644 1_555
Nb16 Te10 2.858422 1_555
Nb16 Te8 2.863835 1_555
Nb16 Te16 2.873689 1_555
Nb16 Te18 2.896542 1_555
Nb16 Te12 2.919443 1_555
Nb16 Nb20 3.009477 1_555
Nb17 Te19 2.828514 1_555
Nb17 Te17 2.851262 1_555
Nb17 Nb18 2.876699 1_565
Nb17 Te11 2.902677 1_555
Nb17 Nb8 2.914746 1_555
Nb17 Te18 2.917183 1_456
Nb17 Te9 2.928644 1_555
Nb18 Nb25 2.864657 1_545
Nb18 Te14 2.912681 1_555
Nb18 Nb21 2.913586 1_555
Nb18 Te12 2.974945 1_555
Nb18 Nb26 2.980390 1_545
Nb18 Nb19 2.986592 1_545
Nb18 Te17 2.986923 1_545
Nb18 Te19 3.072158 1_545
Nb19 Te14 2.828170 1_565
Nb19 Te15 2.887474 1_555
Nb19 Te19 2.890061 1_555
Nb19 Te11 2.900927 1_555
Nb19 Te6 2.901124 1_565
Nb19 Nb8 2.955665 1_555
Nb20 Nb23 2.848449 1_555
Nb20 Te18 2.913625 1_555
Nb20 Te13 2.974360 1_555
Nb20 Nb22 2.979389 1_555
Nb20 Te15 2.984859 1_555
Nb20 Nb24 3.026751 1_555
Nb20 Te16 3.076142 1_555
Nb21 Te16 2.757327 1_555
Nb21 Te22 2.810562 1_545
Nb21 Te17 2.834691 1_545
Nb21 Te0 2.851857 1_655
Nb21 Te12 2.856503 1_555
Nb22 Te20 2.819171 1_555
Nb22 Te19 2.831872 1_555
Nb22 Te2 2.854572 1_655
Nb22 Te15 2.914546 1_555
Nb22 Te13 2.933098 1_555
Nb23 Te21 2.835762 1_555
Nb23 Te16 2.840575 1_555
Nb23 Te20 2.842818 1_555
Nb23 Te13 2.875541 1_555
Nb23 Te1 2.896164 1_556
Nb24 Te3 2.843464 1_655
Nb24 Te16 2.858856 1_555
Nb24 Te0 2.872969 1_655
Nb24 Te21 2.879807 1_555
Nb24 Te18 2.920677 1_555
Nb25 Te3 2.818176 1_556
Nb25 Te23 2.851736 1_555
Nb25 Te19 2.878534 1_555
Nb25 Te22 2.905340 1_555
Nb25 Te17 2.922370 1_555
Nb26 Te2 2.778151 1_655
Nb26 Te1 2.799766 1_665
Nb26 Te14 2.861448 1_565
Nb26 Te23 2.867827 1_555
Nb26 Te19 2.901194 1_555
Nb27 Te23 2.808623 1_555
Nb27 Te22 2.831020 1_555
Nb27 Te10 2.870859 1_556
Nb27 Nb8 2.889464 1_655
Nb27 Te11 2.923167 1_655
Nb27 Te9 2.924856 1_655
