# generated using pymatgen
data_SrLa2Fe2O7
_symmetry_space_group_name_H-M   'P 1'
_cell_length_a   10.60990812
_cell_length_b   10.60990812
_cell_length_c   10.60990812
_cell_angle_alpha   158.52523895
_cell_angle_beta   158.52523895
_cell_angle_gamma   30.55316471
_symmetry_Int_Tables_number   1
_chemical_formula_structural   SrLa2Fe2O7
_chemical_formula_sum   'Sr1 La2 Fe2 O7'
_cell_volume   159.96789155
_cell_formula_units_Z   1
loop_
 _symmetry_equiv_pos_site_id
 _symmetry_equiv_pos_as_xyz
  1  'x, y, z'
loop_
 _atom_site_type_symbol
 _atom_site_label
 _atom_site_symmetry_multiplicity
 _atom_site_fract_x
 _atom_site_fract_y
 _atom_site_fract_z
 _atom_site_occupancy
  Sr  Sr0  1  0.68272600  0.68272600  0.00000000  1
  La  La0  1  0.31753600  0.31753600  0.00000000  1
  La  La1  1  0.50533400  0.50533400  0.00000000  1
  Fe  Fe0  1  0.90281500  0.90281500  0.00000000  1
  Fe  Fe1  1  0.10065700  0.10065700  0.00000000  1
  O  O0  1  0.90102200  0.40102200  0.50000000  1
  O  O1  1  0.40102200  0.90102200  0.50000000  1
  O  O2  1  0.09273300  0.59273300  0.50000000  1
  O  O3  1  0.59273300  0.09273300  0.50000000  1
  O  O4  1  0.80071700  0.80071700  0.00000000  1
  O  O5  1  0.20315400  0.20315400  0.00000000  1
  O  O6  1  0.99955100  0.99955100  0.00000000  1
loop_
_geom_bond_atom_site_label_1
_geom_bond_atom_site_label_2
_geom_bond_distance
_geom_bond_site_symmetry_2
La0 O5 2.341402 1_555
La0 O1 2.613028 1_555
La0 O0 2.613028 1_555
La0 O1 2.613028 1_544
La0 O0 2.613028 1_454
La0 O4 2.816607 1_545
La0 O4 2.816607 1_455
La0 O4 2.816607 1_556
La0 O4 2.816607 1_444
La1 O2 2.666103 1_655
La1 O3 2.666103 1_565
La1 O2 2.666103 1_554
La1 O3 2.666103 1_554
La1 O6 2.797991 1_444
La1 O6 2.797991 1_556
La1 O6 2.797991 1_545
La1 O6 2.797991 1_455
La1 O1 2.909767 1_544
La1 O0 2.909767 1_555
La1 O1 2.909767 1_555
La1 O0 2.909767 1_454
Fe0 O1 1.977048 1_655
Fe0 O0 1.977048 1_565
Fe0 O0 1.977048 1_554
Fe0 O1 1.977048 1_554
Fe0 O6 1.980188 1_555
Fe0 O4 2.089948 1_555
Fe1 O2 1.983351 1_555
Fe1 O3 1.983351 1_555
Fe1 O2 1.983351 1_544
Fe1 O3 1.983351 1_454
Fe1 O6 2.069642 1_445
Fe1 O5 2.098115 1_555
O2 Sr0 2.702021 1_556
O2 Sr0 2.702021 1_455
O3 Sr0 2.702021 1_556
O3 Sr0 2.702021 1_545
O4 Sr0 2.415278 1_555
O5 Sr0 2.826588 1_455
O5 Sr0 2.826588 1_444
O5 Sr0 2.826588 1_545
O5 Sr0 2.826588 1_556
