# generated using pymatgen
data_KTeO4
_symmetry_space_group_name_H-M   'P 1'
_cell_length_a   11.48554400
_cell_length_b   5.16916400
_cell_length_c   6.51049530
_cell_angle_alpha   88.16730369
_cell_angle_beta   90.00000000
_cell_angle_gamma   90.00000000
_symmetry_Int_Tables_number   1
_chemical_formula_structural   KTeO4
_chemical_formula_sum   'K4 Te4 O16'
_cell_volume   386.33468446
_cell_formula_units_Z   4
loop_
 _symmetry_equiv_pos_site_id
 _symmetry_equiv_pos_as_xyz
  1  'x, y, z'
loop_
 _atom_site_type_symbol
 _atom_site_label
 _atom_site_symmetry_multiplicity
 _atom_site_fract_x
 _atom_site_fract_y
 _atom_site_fract_z
 _atom_site_occupancy
  K  K0  1  0.83923100  0.76074700  0.98921000  1
  K  K1  1  0.33923100  0.23925300  0.51079000  1
  K  K2  1  0.16076900  0.23925300  0.01079000  1
  K  K3  1  0.66076900  0.76074700  0.48921000  1
  Te  Te0  1  0.07700400  0.74937900  0.50664500  1
  Te  Te1  1  0.57700400  0.25062100  0.99335500  1
  Te  Te2  1  0.92299600  0.25062100  0.49335500  1
  Te  Te3  1  0.42299600  0.74937900  0.00664500  1
  O  O0  1  0.04626700  0.06028100  0.66879300  1
  O  O1  1  0.54626700  0.93971900  0.83120700  1
  O  O2  1  0.95373300  0.93971900  0.33120700  1
  O  O3  1  0.45373300  0.06028100  0.16879300  1
  O  O4  1  0.94578500  0.56188800  0.66016800  1
  O  O5  1  0.44578500  0.43811200  0.83983200  1
  O  O6  1  0.05421500  0.43811200  0.33983200  1
  O  O7  1  0.55421500  0.56188800  0.16016800  1
  O  O8  1  0.18096300  0.59312000  0.70350700  1
  O  O9  1  0.68096300  0.40688000  0.79649300  1
  O  O10  1  0.81903700  0.40688000  0.29649300  1
  O  O11  1  0.31903700  0.59312000  0.20350700  1
  O  O12  1  0.80767500  0.10155800  0.66972200  1
  O  O13  1  0.30767500  0.89844200  0.83027800  1
  O  O14  1  0.19232500  0.89844200  0.33027800  1
  O  O15  1  0.69232500  0.10155800  0.16972200  1
loop_
_geom_bond_atom_site_label_1
_geom_bond_atom_site_label_2
_geom_bond_distance
_geom_bond_site_symmetry_2
K0 O10 2.677303 1_556
K0 O4 2.698962 1_555
K0 O12 2.706861 1_565
K0 O15 2.732061 1_566
K0 O2 2.770339 1_556
K0 O9 2.893331 1_555
K1 O11 2.677303 1_555
K1 O5 2.698962 1_555
K1 O13 2.706861 1_545
K1 O14 2.732061 1_545
K1 O3 2.770339 1_555
K1 O8 2.893331 1_555
K2 O8 2.677303 1_554
K2 O6 2.698962 1_555
K2 O14 2.706861 1_545
K2 O13 2.732061 1_544
K2 O0 2.770339 1_554
K2 O11 2.893331 1_555
K3 O9 2.677303 1_555
K3 O7 2.698962 1_555
K3 O15 2.706861 1_565
K3 O12 2.732061 1_565
K3 O1 2.770339 1_555
K3 O10 2.893331 1_555
O0 Te0 1.982512 1_545
O0 Te2 2.050697 1_455
O1 Te1 1.982512 1_565
O1 Te3 2.050697 1_556
O2 Te2 1.982512 1_565
O2 Te0 2.050697 1_655
O3 Te3 1.982512 1_545
O3 Te1 2.050697 1_554
O4 Te2 1.987109 1_555
O4 Te0 2.036608 1_655
O5 Te3 1.987109 1_556
O5 Te1 2.036608 1_555
O6 Te0 1.987109 1_555
O6 Te2 2.036608 1_455
O7 Te1 1.987109 1_554
O7 Te3 2.036608 1_555
O8 Te0 1.911696 1_555
O9 Te1 1.911696 1_555
O10 Te2 1.911696 1_555
O11 Te3 1.911696 1_555
O12 Te2 1.899984 1_555
O13 Te3 1.899984 1_556
O14 Te0 1.899984 1_555
O15 Te1 1.899984 1_554
