# generated using pymatgen
data_KSbN2
_symmetry_space_group_name_H-M   'P 1'
_cell_length_a   5.96312900
_cell_length_b   11.95437300
_cell_length_c   16.65904500
_cell_angle_alpha   90.00000000
_cell_angle_beta   90.00000000
_cell_angle_gamma   90.00000000
_symmetry_Int_Tables_number   1
_chemical_formula_structural   KSbN2
_chemical_formula_sum   'K16 Sb16 N32'
_cell_volume   1187.54782447
_cell_formula_units_Z   16
loop_
 _symmetry_equiv_pos_site_id
 _symmetry_equiv_pos_as_xyz
  1  'x, y, z'
loop_
 _atom_site_type_symbol
 _atom_site_label
 _atom_site_symmetry_multiplicity
 _atom_site_fract_x
 _atom_site_fract_y
 _atom_site_fract_z
 _atom_site_occupancy
  K  K0  1  0.25684600  0.00867400  0.44031600  1
  K  K1  1  0.75684600  0.49132600  0.55968400  1
  K  K2  1  0.74315400  0.50867400  0.05968400  1
  K  K3  1  0.24315400  0.99132600  0.94031600  1
  K  K4  1  0.74315400  0.99132600  0.55968400  1
  K  K5  1  0.24315400  0.50867400  0.44031600  1
  K  K6  1  0.25684600  0.49132600  0.94031600  1
  K  K7  1  0.75684600  0.00867400  0.05968400  1
  K  K8  1  0.29805500  0.26485700  0.31580100  1
  K  K9  1  0.79805500  0.23514300  0.68419900  1
  K  K10  1  0.70194500  0.76485700  0.18419900  1
  K  K11  1  0.20194500  0.73514300  0.81580100  1
  K  K12  1  0.70194500  0.73514300  0.68419900  1
  K  K13  1  0.20194500  0.76485700  0.31580100  1
  K  K14  1  0.29805500  0.23514300  0.81580100  1
  K  K15  1  0.79805500  0.26485700  0.18419900  1
  Sb  Sb0  1  0.77149900  0.00877400  0.31168600  1
  Sb  Sb1  1  0.27149900  0.49122600  0.68831400  1
  Sb  Sb2  1  0.22850100  0.50877400  0.18831400  1
  Sb  Sb3  1  0.72850100  0.99122600  0.81168600  1
  Sb  Sb4  1  0.22850100  0.99122600  0.68831400  1
  Sb  Sb5  1  0.72850100  0.50877400  0.31168600  1
  Sb  Sb6  1  0.77149900  0.49122600  0.81168600  1
  Sb  Sb7  1  0.27149900  0.00877400  0.18831400  1
  Sb  Sb8  1  0.77799400  0.26089700  0.43596400  1
  Sb  Sb9  1  0.27799400  0.23910300  0.56403600  1
  Sb  Sb10  1  0.22200600  0.76089700  0.06403600  1
  Sb  Sb11  1  0.72200600  0.73910300  0.93596400  1
  Sb  Sb12  1  0.22200600  0.73910300  0.56403600  1
  Sb  Sb13  1  0.72200600  0.76089700  0.43596400  1
  Sb  Sb14  1  0.77799400  0.23910300  0.93596400  1
  Sb  Sb15  1  0.27799400  0.26089700  0.06403600  1
  N  N0  1  0.03979100  0.31927800  0.50073300  1
  N  N1  1  0.53979100  0.18072200  0.49926700  1
  N  N2  1  0.96020900  0.81927800  0.99926700  1
  N  N3  1  0.46020900  0.68072200  0.00073300  1
  N  N4  1  0.96020900  0.68072200  0.49926700  1
  N  N5  1  0.46020900  0.81927800  0.50073300  1
  N  N6  1  0.03979100  0.18072200  0.00073300  1
  N  N7  1  0.53979100  0.31927800  0.99926700  1
  N  N8  1  0.63242400  0.40419000  0.40000700  1
  N  N9  1  0.13242400  0.09581000  0.59999300  1
  N  N10  1  0.36757600  0.90419000  0.09999300  1
  N  N11  1  0.86757600  0.59581000  0.90000700  1
  N  N12  1  0.36757600  0.59581000  0.59999300  1
  N  N13  1  0.86757600  0.90419000  0.40000700  1
  N  N14  1  0.63242400  0.09581000  0.90000700  1
  N  N15  1  0.13242400  0.40419000  0.09999300  1
  N  N16  1  0.87520000  0.16472000  0.34217200  1
  N  N17  1  0.37520000  0.33528000  0.65782800  1
  N  N18  1  0.12480000  0.66472000  0.15782800  1
  N  N19  1  0.62480000  0.83528000  0.84217200  1
  N  N20  1  0.12480000  0.83528000  0.65782800  1
  N  N21  1  0.62480000  0.66472000  0.34217200  1
  N  N22  1  0.87520000  0.33528000  0.84217200  1
  N  N23  1  0.37520000  0.16472000  0.15782800  1
  N  N24  1  0.55557900  0.47589500  0.20988100  1
  N  N25  1  0.05557900  0.02410500  0.79011900  1
  N  N26  1  0.44442100  0.97589500  0.29011900  1
  N  N27  1  0.94442100  0.52410500  0.70988100  1
  N  N28  1  0.44442100  0.52410500  0.79011900  1
  N  N29  1  0.94442100  0.97589500  0.20988100  1
  N  N30  1  0.55557900  0.02410500  0.70988100  1
  N  N31  1  0.05557900  0.47589500  0.29011900  1
loop_
_geom_bond_atom_site_label_1
_geom_bond_atom_site_label_2
_geom_bond_distance
_geom_bond_site_symmetry_2
K0 N13 2.720167 1_445
K0 N5 2.758588 1_545
K0 N26 2.768639 1_545
K0 N1 2.835727 1_555
K0 N9 2.951522 1_555
K0 N16 3.366348 1_455
K1 N12 2.720167 1_555
K1 N4 2.758588 1_555
K1 N27 2.768639 1_555
K1 N0 2.835727 1_655
K1 N8 2.951522 1_555
K1 N17 3.366348 1_555
K2 N15 2.720167 1_655
K2 N7 2.758588 1_554
K2 N24 2.768639 1_555
K2 N3 2.835727 1_555
K2 N11 2.951522 1_554
K2 N18 3.366348 1_655
K3 N14 2.720167 1_565
K3 N6 2.758588 1_566
K3 N25 2.768639 1_565
K3 N2 2.835727 1_455
K3 N10 2.951522 1_556
K3 N19 3.366348 1_555
K4 N9 2.720167 1_665
K4 N1 2.758588 1_565
K4 N30 2.768639 1_565
K4 N5 2.835727 1_555
K4 N13 2.951522 1_555
K4 N20 3.366348 1_655
K5 N8 2.720167 1_555
K5 N0 2.758588 1_555
K5 N31 2.768639 1_555
K5 N4 2.835727 1_455
K5 N12 2.951522 1_555
K5 N21 3.366348 1_555
K6 N11 2.720167 1_455
K6 N3 2.758588 1_556
K6 N28 2.768639 1_555
K6 N7 2.835727 1_555
K6 N15 2.951522 1_556
K6 N22 3.366348 1_455
K7 N10 2.720167 1_545
K7 N2 2.758588 1_544
K7 N29 2.768639 1_545
K7 N6 2.835727 1_655
K7 N14 2.951522 1_554
K7 N23 3.366348 1_555
K8 N16 2.825623 1_455
K8 N23 2.927516 1_555
K8 N31 2.939111 1_555
K8 N8 2.952585 1_555
K9 N17 2.825623 1_555
K9 N22 2.927516 1_555
K9 N30 2.939111 1_555
K9 N9 2.952585 1_655
K10 N18 2.825623 1_655
K10 N21 2.927516 1_555
K10 N29 2.939111 1_555
K10 N10 2.952585 1_555
K11 N19 2.825623 1_555
K11 N20 2.927516 1_555
K11 N28 2.939111 1_555
K11 N11 2.952585 1_455
K12 N20 2.825623 1_655
K12 N19 2.927516 1_555
K12 N27 2.939111 1_555
K12 N12 2.952585 1_555
K13 N21 2.825623 1_555
K13 N18 2.927516 1_555
K13 N26 2.939111 1_555
K13 N13 2.952585 1_455
K14 N22 2.825623 1_455
K14 N17 2.927516 1_555
K14 N25 2.939111 1_555
K14 N14 2.952585 1_555
K15 N23 2.825623 1_555
K15 N16 2.927516 1_555
K15 N24 2.939111 1_555
K15 N15 2.952585 1_655
N0 Sb9 2.012054 1_555
N0 Sb8 2.021984 1_455
N1 Sb8 2.012054 1_555
N1 Sb9 2.021984 1_555
N2 Sb11 2.012054 1_555
N2 Sb10 2.021984 1_656
N3 Sb10 2.012054 1_555
N3 Sb11 2.021984 1_554
N4 Sb13 2.012054 1_555
N4 Sb12 2.021984 1_655
N5 Sb12 2.012054 1_555
N5 Sb13 2.021984 1_555
N6 Sb15 2.012054 1_555
N6 Sb14 2.021984 1_454
N7 Sb14 2.012054 1_555
N7 Sb15 2.021984 1_556
N8 Sb8 2.011622 1_555
N8 Sb5 2.013996 1_555
N9 Sb9 2.011622 1_555
N9 Sb4 2.013996 1_545
N10 Sb10 2.011622 1_555
N10 Sb7 2.013996 1_565
N11 Sb11 2.011622 1_555
N11 Sb6 2.013996 1_555
N12 Sb12 2.011622 1_555
N12 Sb1 2.013996 1_555
N13 Sb13 2.011622 1_555
N13 Sb0 2.013996 1_565
N14 Sb14 2.011622 1_555
N14 Sb3 2.013996 1_545
N15 Sb15 2.011622 1_555
N15 Sb2 2.013996 1_555
N16 Sb8 2.024660 1_555
N16 Sb0 2.028720 1_555
N17 Sb9 2.024660 1_555
N17 Sb1 2.028720 1_555
N18 Sb10 2.024660 1_555
N18 Sb2 2.028720 1_555
N19 Sb11 2.024660 1_555
N19 Sb3 2.028720 1_555
N20 Sb12 2.024660 1_555
N20 Sb4 2.028720 1_555
N21 Sb13 2.024660 1_555
N21 Sb5 2.028720 1_555
N22 Sb14 2.024660 1_555
N22 Sb6 2.028720 1_555
N23 Sb15 2.024660 1_555
N23 Sb7 2.028720 1_555
N24 Sb2 2.021798 1_555
N24 Sb5 2.023388 1_555
N25 Sb3 2.021798 1_445
N25 Sb4 2.023388 1_545
N26 Sb0 2.021798 1_565
N26 Sb7 2.023388 1_565
N27 Sb1 2.021798 1_655
N27 Sb6 2.023388 1_555
N28 Sb6 2.021798 1_555
N28 Sb1 2.023388 1_555
N29 Sb7 2.021798 1_665
N29 Sb0 2.023388 1_565
N30 Sb4 2.021798 1_545
N30 Sb3 2.023388 1_545
N31 Sb5 2.021798 1_455
N31 Sb2 2.023388 1_555
