# generated using pymatgen
data_Ba8CaY2U4O24
_symmetry_space_group_name_H-M   'P 1'
_cell_length_a   12.39972792
_cell_length_b   12.41270385
_cell_length_c   17.63268902
_cell_angle_alpha   90.00000000
_cell_angle_beta   90.00000000
_cell_angle_gamma   90.00000000
_symmetry_Int_Tables_number   1
_chemical_formula_structural   Ba8CaY2U4O24
_chemical_formula_sum   'Ba32 Ca4 Y8 U16 O96'
_cell_volume   2713.92035139
_cell_formula_units_Z   4
loop_
 _symmetry_equiv_pos_site_id
 _symmetry_equiv_pos_as_xyz
  1  'x, y, z'
loop_
 _atom_site_type_symbol
 _atom_site_label
 _atom_site_symmetry_multiplicity
 _atom_site_fract_x
 _atom_site_fract_y
 _atom_site_fract_z
 _atom_site_occupancy
  Ba  Ba0  1  0.50000000  0.27599105  0.11597013  1
  Ba  Ba1  1  0.50000000  0.27599105  0.88402987  1
  Ba  Ba2  1  0.77159067  0.50000000  0.61645535  1
  Ba  Ba3  1  0.22840933  0.50000000  0.38354465  1
  Ba  Ba4  1  0.50000000  0.72400895  0.88402987  1
  Ba  Ba5  1  0.50000000  0.72400895  0.11597013  1
  Ba  Ba6  1  -0.00000000  0.25843139  0.61835292  1
  Ba  Ba7  1  0.72350698  -0.00000000  0.61759329  1
  Ba  Ba8  1  -0.00000000  0.77037870  0.88146209  1
  Ba  Ba9  1  0.77159067  0.50000000  0.38354465  1
  Ba  Ba10  1  0.75351978  -0.00000000  0.12063588  1
  Ba  Ba11  1  0.75351978  -0.00000000  0.87936412  1
  Ba  Ba12  1  0.25389059  0.50000000  0.11746644  1
  Ba  Ba13  1  -0.00000000  0.74156861  0.61835292  1
  Ba  Ba14  1  0.27649302  -0.00000000  0.61759329  1
  Ba  Ba15  1  -0.00000000  0.74156861  0.38164708  1
  Ba  Ba16  1  -0.00000000  0.25843139  0.38164708  1
  Ba  Ba17  1  0.50000000  0.74686101  0.61820444  1
  Ba  Ba18  1  0.50000000  0.74686101  0.38179556  1
  Ba  Ba19  1  -0.00000000  0.22962130  0.11853791  1
  Ba  Ba20  1  0.25389059  0.50000000  0.88253356  1
  Ba  Ba21  1  0.50000000  0.25313899  0.38179556  1
  Ba  Ba22  1  0.22840933  0.50000000  0.61645535  1
  Ba  Ba23  1  0.50000000  0.25313899  0.61820444  1
  Ba  Ba24  1  0.72350698  -0.00000000  0.38240671  1
  Ba  Ba25  1  0.74610941  0.50000000  0.11746644  1
  Ba  Ba26  1  0.24648022  -0.00000000  0.12063588  1
  Ba  Ba27  1  0.74610941  0.50000000  0.88253356  1
  Ba  Ba28  1  0.27649302  -0.00000000  0.38240671  1
  Ba  Ba29  1  -0.00000000  0.22962130  0.88146209  1
  Ba  Ba30  1  -0.00000000  0.77037870  0.11853791  1
  Ba  Ba31  1  0.24648022  -0.00000000  0.87936412  1
  Ca  Ca0  1  0.50000000  0.50000000  0.50000000  1
  Ca  Ca1  1  -0.00000000  -0.00000000  0.50000000  1
  Ca  Ca2  1  0.50000000  -0.00000000  -0.00000000  1
  Ca  Ca3  1  -0.00000000  0.50000000  -0.00000000  1
  Y  Y0  1  0.74942221  0.24993443  0.24998427  1
  Y  Y1  1  0.25057779  0.75006557  0.24998427  1
  Y  Y2  1  0.74942221  0.75006557  0.24998427  1
  Y  Y3  1  0.25057779  0.75006557  0.75001573  1
  Y  Y4  1  0.25057779  0.24993443  0.75001573  1
  Y  Y5  1  0.74942221  0.75006557  0.75001573  1
  Y  Y6  1  0.25057779  0.24993443  0.24998427  1
  Y  Y7  1  0.74942221  0.24993443  0.75001573  1
  U  U0  1  0.50000000  0.50000000  0.74691098  1
  U  U1  1  -0.00000000  -0.00000000  0.74539149  1
  U  U2  1  0.74793783  0.75087856  0.50000000  1
  U  U3  1  0.25206217  0.24912144  0.50000000  1
  U  U4  1  0.50000000  0.50000000  0.25308902  1
  U  U5  1  0.25206217  0.75087856  0.50000000  1
  U  U6  1  -0.00000000  0.50000000  0.75090263  1
  U  U7  1  -0.00000000  -0.00000000  0.25460851  1
  U  U8  1  0.75094280  0.25203593  -0.00000000  1
  U  U9  1  0.50000000  -0.00000000  0.75630841  1
  U  U10  1  0.75094280  0.74796407  -0.00000000  1
  U  U11  1  0.24905720  0.74796407  -0.00000000  1
  U  U12  1  0.74793783  0.24912144  0.50000000  1
  U  U13  1  0.50000000  -0.00000000  0.24369159  1
  U  U14  1  -0.00000000  0.50000000  0.24909737  1
  U  U15  1  0.24905720  0.25203593  -0.00000000  1
  O  O0  1  0.38210580  0.62371435  0.75123712  1
  O  O1  1  0.62678862  0.63351347  0.50000000  1
  O  O2  1  0.74348819  0.74866182  0.37734957  1
  O  O3  1  0.62502037  0.11786495  0.75443178  1
  O  O4  1  0.13555627  0.37583133  -0.00000000  1
  O  O5  1  0.37321138  0.36648653  0.50000000  1
  O  O6  1  0.37497963  0.11786495  0.24556822  1
  O  O7  1  0.87777144  0.37995768  0.25545494  1
  O  O8  1  -0.00000000  0.50000000  0.63636941  1
  O  O9  1  0.13032223  0.85788542  -0.00000000  1
  O  O10  1  0.36487289  0.86639777  0.50000000  1
  O  O11  1  0.13011469  0.13341198  0.50000000  1
  O  O12  1  0.12050320  0.12298222  0.24993335  1
  O  O13  1  0.13555627  0.62416867  -0.00000000  1
  O  O14  1  0.13775890  0.36537306  0.50000000  1
  O  O15  1  0.50000000  -0.00000000  0.35764218  1
  O  O16  1  0.37497963  0.11786495  0.75443178  1
  O  O17  1  0.62502037  0.11786495  0.24556822  1
  O  O18  1  0.86444373  0.37583133  -0.00000000  1
  O  O19  1  -0.00000000  0.50000000  0.13357777  1
  O  O20  1  0.87777144  0.37995768  0.74454506  1
  O  O21  1  0.50000000  -0.00000000  0.87079852  1
  O  O22  1  0.12050320  0.12298222  0.75006665  1
  O  O23  1  0.86967777  0.14211458  -0.00000000  1
  O  O24  1  0.12222856  0.62004232  0.74454506  1
  O  O25  1  0.63512711  0.13360223  0.50000000  1
  O  O26  1  0.63512711  0.86639777  0.50000000  1
  O  O27  1  -0.00000000  0.50000000  0.36363059  1
  O  O28  1  0.86224110  0.36537306  0.50000000  1
  O  O29  1  0.24741879  0.25716236  0.12272670  1
  O  O30  1  0.62502037  0.88213505  0.75443178  1
  O  O31  1  0.86224110  0.63462694  0.50000000  1
  O  O32  1  0.37321138  0.63351347  0.50000000  1
  O  O33  1  0.61789420  0.62371435  0.75123712  1
  O  O34  1  0.86444373  0.62416867  -0.00000000  1
  O  O35  1  0.63245480  0.36350996  -0.00000000  1
  O  O36  1  0.75258121  0.25716236  0.12272670  1
  O  O37  1  0.50000000  0.50000000  0.63135523  1
  O  O38  1  0.50000000  0.50000000  0.86171193  1
  O  O39  1  0.50000000  0.50000000  0.13828807  1
  O  O40  1  0.87949680  0.87701778  0.75006665  1
  O  O41  1  0.12222856  0.62004232  0.25545494  1
  O  O42  1  0.37497963  0.88213505  0.75443178  1
  O  O43  1  0.50000000  -0.00000000  0.12920148  1
  O  O44  1  0.86988531  0.13341198  0.50000000  1
  O  O45  1  0.13775890  0.63462694  0.50000000  1
  O  O46  1  0.37497963  0.88213505  0.24556822  1
  O  O47  1  0.75258121  0.74283764  0.87727330  1
  O  O48  1  0.63628916  0.12826517  -0.00000000  1
  O  O49  1  0.38210580  0.37628565  0.75123712  1
  O  O50  1  -0.00000000  -0.00000000  0.63120091  1
  O  O51  1  0.61789420  0.62371435  0.24876288  1
  O  O52  1  0.12050320  0.87701778  0.75006665  1
  O  O53  1  0.36371084  0.87173483  -0.00000000  1
  O  O54  1  0.24741879  0.74283764  0.87727330  1
  O  O55  1  0.13032223  0.14211458  -0.00000000  1
  O  O56  1  0.12050320  0.87701778  0.24993335  1
  O  O57  1  0.12222856  0.37995768  0.25545494  1
  O  O58  1  0.50000000  0.50000000  0.36864477  1
  O  O59  1  -0.00000000  0.50000000  0.86642223  1
  O  O60  1  0.36754520  0.36350996  -0.00000000  1
  O  O61  1  0.74348819  0.25133818  0.62265043  1
  O  O62  1  0.86967777  0.85788542  -0.00000000  1
  O  O63  1  0.63245480  0.63649004  -0.00000000  1
  O  O64  1  -0.00000000  -0.00000000  0.36879909  1
  O  O65  1  0.61789420  0.37628565  0.75123712  1
  O  O66  1  -0.00000000  -0.00000000  0.85940771  1
  O  O67  1  0.87777144  0.62004232  0.74454506  1
  O  O68  1  0.87949680  0.12298222  0.75006665  1
  O  O69  1  0.13011469  0.86658802  0.50000000  1
  O  O70  1  0.36487289  0.13360223  0.50000000  1
  O  O71  1  0.24741879  0.74283764  0.12272670  1
  O  O72  1  0.74348819  0.74866182  0.62265043  1
  O  O73  1  0.25651181  0.25133818  0.62265043  1
  O  O74  1  0.62502037  0.88213505  0.24556822  1
  O  O75  1  0.86988531  0.86658802  0.50000000  1
  O  O76  1  0.36754520  0.63649004  -0.00000000  1
  O  O77  1  0.25651181  0.25133818  0.37734957  1
  O  O78  1  0.74348819  0.25133818  0.37734957  1
  O  O79  1  0.38210580  0.62371435  0.24876288  1
  O  O80  1  0.38210580  0.37628565  0.24876288  1
  O  O81  1  0.24741879  0.25716236  0.87727330  1
  O  O82  1  0.25651181  0.74866182  0.37734957  1
  O  O83  1  0.63628916  0.87173483  -0.00000000  1
  O  O84  1  0.87949680  0.12298222  0.24993335  1
  O  O85  1  0.75258121  0.25716236  0.87727330  1
  O  O86  1  -0.00000000  -0.00000000  0.14059229  1
  O  O87  1  0.36371084  0.12826517  -0.00000000  1
  O  O88  1  0.12222856  0.37995768  0.74454506  1
  O  O89  1  0.75258121  0.74283764  0.12272670  1
  O  O90  1  0.87949680  0.87701778  0.24993335  1
  O  O91  1  0.87777144  0.62004232  0.25545494  1
  O  O92  1  0.62678862  0.36648653  0.50000000  1
  O  O93  1  0.61789420  0.37628565  0.24876288  1
  O  O94  1  0.50000000  -0.00000000  0.64235782  1
  O  O95  1  0.25651181  0.74866182  0.62265043  1
loop_
_geom_bond_atom_site_label_1
_geom_bond_atom_site_label_2
_geom_bond_distance
_geom_bond_site_symmetry_2
Ba0 O39 2.808266 1_555
Ba0 O60 2.838857 1_555
Ba0 O35 2.838857 1_555
Ba0 O93 3.028111 1_555
Ba0 O80 3.028111 1_555
Ba0 O36 3.142905 1_555
Ba0 O29 3.142905 1_555
Ba0 O48 3.224868 1_555
Ba0 O87 3.224868 1_555
Ba0 O6 3.387864 1_555
Ba0 O17 3.387864 1_555
Ba0 O43 3.433730 1_555
Ba1 O38 2.808266 1_555
Ba1 O60 2.838857 1_556
Ba1 O35 2.838857 1_556
Ba1 O65 3.028111 1_555
Ba1 O49 3.028111 1_555
Ba1 O85 3.142905 1_555
Ba1 O81 3.142905 1_555
Ba1 O87 3.224868 1_556
Ba1 O48 3.224868 1_556
Ba1 O3 3.387864 1_555
Ba1 O16 3.387864 1_555
Ba1 O21 3.433730 1_555
Ba2 O8 2.853898 1_655
Ba2 O31 2.876200 1_555
Ba2 O28 2.876200 1_555
Ba2 O20 3.009126 1_555
Ba2 O67 3.009126 1_555
Ba2 O61 3.108094 1_555
Ba2 O72 3.108094 1_555
Ba2 O1 3.191692 1_555
Ba2 O92 3.191692 1_555
Ba2 O37 3.377883 1_555
Ba2 O33 3.411491 1_555
Ba2 O65 3.411491 1_555
Ba3 O27 2.853898 1_555
Ba3 O14 2.876200 1_555
Ba3 O45 2.876200 1_555
Ba3 O57 3.009126 1_555
Ba3 O41 3.009126 1_555
Ba3 O77 3.108094 1_555
Ba3 O82 3.108094 1_555
Ba3 O32 3.191692 1_555
Ba3 O5 3.191692 1_555
Ba3 O58 3.377883 1_555
Ba3 O79 3.411491 1_555
Ba3 O80 3.411491 1_555
Ba4 O38 2.808266 1_555
Ba4 O76 2.838857 1_556
Ba4 O63 2.838857 1_556
Ba4 O33 3.028111 1_555
Ba4 O0 3.028111 1_555
Ba4 O47 3.142905 1_555
Ba4 O54 3.142905 1_555
Ba4 O83 3.224868 1_556
Ba4 O53 3.224868 1_556
Ba4 O30 3.387864 1_555
Ba4 O42 3.387864 1_555
Ba4 O21 3.433730 1_565
Ba5 O39 2.808266 1_555
Ba5 O76 2.838857 1_555
Ba5 O63 2.838857 1_555
Ba5 O51 3.028111 1_555
Ba5 O79 3.028111 1_555
Ba5 O89 3.142905 1_555
Ba5 O71 3.142905 1_555
Ba5 O53 3.224868 1_555
Ba5 O83 3.224868 1_555
Ba5 O74 3.387864 1_555
Ba5 O46 3.387864 1_555
Ba5 O43 3.433730 1_565
Ba6 O14 3.005829 1_555
Ba6 O28 3.005829 1_455
Ba6 O8 3.015301 1_555
Ba6 O44 3.060434 1_455
Ba6 O11 3.060434 1_555
Ba6 O88 3.086037 1_555
Ba6 O20 3.086037 1_455
Ba6 O61 3.182797 1_455
Ba6 O73 3.182797 1_555
Ba6 O50 3.215822 1_555
Ba6 O22 3.233148 1_555
Ba6 O68 3.233148 1_455
Ba7 O94 2.805615 1_555
Ba7 O25 2.872366 1_555
Ba7 O26 2.872366 1_545
Ba7 O3 3.074660 1_555
Ba7 O30 3.074660 1_545
Ba7 O72 3.130879 1_545
Ba7 O61 3.130879 1_555
Ba7 O75 3.214981 1_545
Ba7 O44 3.214981 1_555
Ba7 O68 3.395266 1_555
Ba7 O40 3.395266 1_545
Ba7 O50 3.436824 1_655
Ba8 O62 2.856544 1_456
Ba8 O9 2.856544 1_556
Ba8 O66 2.876628 1_565
Ba8 O52 3.058202 1_555
Ba8 O40 3.058202 1_455
Ba8 O47 3.087797 1_455
Ba8 O54 3.087797 1_555
Ba8 O13 3.238474 1_556
Ba8 O34 3.238474 1_456
Ba8 O59 3.366592 1_555
Ba8 O24 3.407013 1_555
Ba8 O67 3.407013 1_455
Ba9 O27 2.853898 1_655
Ba9 O31 2.876200 1_555
Ba9 O28 2.876200 1_555
Ba9 O7 3.009126 1_555
Ba9 O91 3.009126 1_555
Ba9 O78 3.108094 1_555
Ba9 O2 3.108094 1_555
Ba9 O92 3.191692 1_555
Ba9 O1 3.191692 1_555
Ba9 O58 3.377883 1_555
Ba9 O93 3.411491 1_555
Ba9 O51 3.411491 1_555
Ba10 O83 3.028626 1_545
Ba10 O48 3.028626 1_555
Ba10 O86 3.076478 1_655
Ba10 O74 3.087388 1_545
Ba10 O17 3.087388 1_555
Ba10 O23 3.116253 1_555
Ba10 O62 3.116253 1_545
Ba10 O43 3.147202 1_555
Ba10 O84 3.157245 1_555
Ba10 O90 3.157245 1_545
Ba10 O36 3.192314 1_555
Ba10 O89 3.192314 1_545
Ba11 O48 3.028626 1_556
Ba11 O83 3.028626 1_546
Ba11 O66 3.076478 1_655
Ba11 O3 3.087388 1_555
Ba11 O30 3.087388 1_545
Ba11 O62 3.116253 1_546
Ba11 O23 3.116253 1_556
Ba11 O21 3.147202 1_555
Ba11 O68 3.157245 1_555
Ba11 O40 3.157245 1_545
Ba11 O85 3.192314 1_555
Ba11 O47 3.192314 1_545
Ba12 O13 2.969611 1_555
Ba12 O4 2.969611 1_555
Ba12 O71 3.016766 1_555
Ba12 O29 3.016766 1_555
Ba12 O76 3.024320 1_555
Ba12 O60 3.024320 1_555
Ba12 O39 3.073695 1_555
Ba12 O19 3.160966 1_555
Ba12 O80 3.200853 1_555
Ba12 O79 3.200853 1_555
Ba12 O57 3.287181 1_555
Ba12 O41 3.287181 1_555
Ba13 O45 3.005829 1_555
Ba13 O31 3.005829 1_455
Ba13 O8 3.015301 1_555
Ba13 O75 3.060434 1_455
Ba13 O69 3.060434 1_555
Ba13 O24 3.086037 1_555
Ba13 O67 3.086037 1_455
Ba13 O95 3.182797 1_555
Ba13 O72 3.182797 1_455
Ba13 O50 3.215822 1_565
Ba13 O52 3.233148 1_555
Ba13 O40 3.233148 1_455
Ba14 O94 2.805615 1_555
Ba14 O70 2.872366 1_555
Ba14 O10 2.872366 1_545
Ba14 O42 3.074660 1_545
Ba14 O16 3.074660 1_555
Ba14 O95 3.130879 1_545
Ba14 O73 3.130879 1_555
Ba14 O69 3.214981 1_545
Ba14 O11 3.214981 1_555
Ba14 O52 3.395266 1_545
Ba14 O22 3.395266 1_555
Ba14 O50 3.436824 1_555
Ba15 O45 3.005829 1_555
Ba15 O31 3.005829 1_455
Ba15 O27 3.015301 1_555
Ba15 O75 3.060434 1_455
Ba15 O69 3.060434 1_555
Ba15 O41 3.086037 1_555
Ba15 O91 3.086037 1_455
Ba15 O82 3.182797 1_555
Ba15 O2 3.182797 1_455
Ba15 O64 3.215822 1_565
Ba15 O90 3.233148 1_455
Ba15 O56 3.233148 1_555
Ba16 O14 3.005829 1_555
Ba16 O28 3.005829 1_455
Ba16 O27 3.015301 1_555
Ba16 O44 3.060434 1_455
Ba16 O11 3.060434 1_555
Ba16 O57 3.086037 1_555
Ba16 O7 3.086037 1_455
Ba16 O78 3.182797 1_455
Ba16 O77 3.182797 1_555
Ba16 O64 3.215822 1_555
Ba16 O12 3.233148 1_555
Ba16 O84 3.233148 1_455
Ba17 O32 2.965686 1_555
Ba17 O1 2.965686 1_555
Ba17 O72 3.020288 1_555
Ba17 O95 3.020288 1_555
Ba17 O26 3.058295 1_555
Ba17 O10 3.058295 1_555
Ba17 O37 3.072974 1_555
Ba17 O33 3.158482 1_555
Ba17 O0 3.158482 1_555
Ba17 O94 3.170871 1_565
Ba17 O42 3.315490 1_555
Ba17 O30 3.315490 1_555
Ba18 O1 2.965686 1_555
Ba18 O32 2.965686 1_555
Ba18 O2 3.020288 1_555
Ba18 O82 3.020288 1_555
Ba18 O26 3.058295 1_555
Ba18 O10 3.058295 1_555
Ba18 O58 3.072974 1_555
Ba18 O51 3.158482 1_555
Ba18 O79 3.158482 1_555
Ba18 O15 3.170871 1_565
Ba18 O74 3.315490 1_555
Ba18 O46 3.315490 1_555
Ba19 O23 2.856544 1_455
Ba19 O55 2.856544 1_555
Ba19 O86 2.876628 1_555
Ba19 O84 3.058202 1_455
Ba19 O12 3.058202 1_555
Ba19 O36 3.087797 1_455
Ba19 O29 3.087797 1_555
Ba19 O4 3.238474 1_555
Ba19 O18 3.238474 1_455
Ba19 O19 3.366592 1_555
Ba19 O57 3.407013 1_555
Ba19 O7 3.407013 1_455
Ba20 O13 2.969611 1_556
Ba20 O4 2.969611 1_556
Ba20 O81 3.016766 1_555
Ba20 O54 3.016766 1_555
Ba20 O76 3.024320 1_556
Ba20 O60 3.024320 1_556
Ba20 O38 3.073695 1_555
Ba20 O59 3.160966 1_555
Ba20 O49 3.200853 1_555
Ba20 O0 3.200853 1_555
Ba20 O24 3.287181 1_555
Ba20 O88 3.287181 1_555
Ba21 O5 2.965686 1_555
Ba21 O92 2.965686 1_555
Ba21 O77 3.020288 1_555
Ba21 O78 3.020288 1_555
Ba21 O70 3.058295 1_555
Ba21 O25 3.058295 1_555
Ba21 O58 3.072974 1_555
Ba21 O93 3.158482 1_555
Ba21 O80 3.158482 1_555
Ba21 O15 3.170871 1_555
Ba21 O17 3.315490 1_555
Ba21 O6 3.315490 1_555
Ba22 O8 2.853898 1_555
Ba22 O45 2.876200 1_555
Ba22 O14 2.876200 1_555
Ba22 O88 3.009126 1_555
Ba22 O24 3.009126 1_555
Ba22 O73 3.108094 1_555
Ba22 O95 3.108094 1_555
Ba22 O5 3.191692 1_555
Ba22 O32 3.191692 1_555
Ba22 O37 3.377883 1_555
Ba22 O49 3.411491 1_555
Ba22 O0 3.411491 1_555
Ba23 O5 2.965686 1_555
Ba23 O92 2.965686 1_555
Ba23 O73 3.020288 1_555
Ba23 O61 3.020288 1_555
Ba23 O70 3.058295 1_555
Ba23 O25 3.058295 1_555
Ba23 O37 3.072974 1_555
Ba23 O65 3.158482 1_555
Ba23 O49 3.158482 1_555
Ba23 O94 3.170871 1_555
Ba23 O16 3.315490 1_555
Ba23 O3 3.315490 1_555
Ba24 O15 2.805615 1_555
Ba24 O26 2.872366 1_545
Ba24 O25 2.872366 1_555
Ba24 O74 3.074660 1_545
Ba24 O17 3.074660 1_555
Ba24 O2 3.130879 1_545
Ba24 O78 3.130879 1_555
Ba24 O75 3.214981 1_545
Ba24 O44 3.214981 1_555
Ba24 O84 3.395266 1_555
Ba24 O90 3.395266 1_545
Ba24 O64 3.436824 1_655
Ba25 O18 2.969611 1_555
Ba25 O34 2.969611 1_555
Ba25 O89 3.016766 1_555
Ba25 O36 3.016766 1_555
Ba25 O63 3.024320 1_555
Ba25 O35 3.024320 1_555
Ba25 O39 3.073695 1_555
Ba25 O19 3.160966 1_655
Ba25 O51 3.200853 1_555
Ba25 O93 3.200853 1_555
Ba25 O91 3.287181 1_555
Ba25 O7 3.287181 1_555
Ba26 O53 3.028626 1_545
Ba26 O87 3.028626 1_555
Ba26 O86 3.076478 1_555
Ba26 O46 3.087388 1_545
Ba26 O6 3.087388 1_555
Ba26 O9 3.116253 1_545
Ba26 O55 3.116253 1_555
Ba26 O43 3.147202 1_555
Ba26 O12 3.157245 1_555
Ba26 O56 3.157245 1_545
Ba26 O29 3.192314 1_555
Ba26 O71 3.192314 1_545
Ba27 O34 2.969611 1_556
Ba27 O18 2.969611 1_556
Ba27 O85 3.016766 1_555
Ba27 O47 3.016766 1_555
Ba27 O63 3.024320 1_556
Ba27 O35 3.024320 1_556
Ba27 O38 3.073695 1_555
Ba27 O59 3.160966 1_655
Ba27 O33 3.200853 1_555
Ba27 O65 3.200853 1_555
Ba27 O20 3.287181 1_555
Ba27 O67 3.287181 1_555
Ba28 O15 2.805615 1_555
Ba28 O10 2.872366 1_545
Ba28 O70 2.872366 1_555
Ba28 O46 3.074660 1_545
Ba28 O6 3.074660 1_555
Ba28 O82 3.130879 1_545
Ba28 O77 3.130879 1_555
Ba28 O11 3.214981 1_555
Ba28 O69 3.214981 1_545
Ba28 O56 3.395266 1_545
Ba28 O12 3.395266 1_555
Ba28 O64 3.436824 1_555
Ba29 O23 2.856544 1_456
Ba29 O55 2.856544 1_556
Ba29 O66 2.876628 1_555
Ba29 O22 3.058202 1_555
Ba29 O68 3.058202 1_455
Ba29 O85 3.087797 1_455
Ba29 O81 3.087797 1_555
Ba29 O4 3.238474 1_556
Ba29 O18 3.238474 1_456
Ba29 O59 3.366592 1_555
Ba29 O88 3.407013 1_555
Ba29 O20 3.407013 1_455
Ba30 O62 2.856544 1_455
Ba30 O9 2.856544 1_555
Ba30 O86 2.876628 1_565
Ba30 O90 3.058202 1_455
Ba30 O56 3.058202 1_555
Ba30 O89 3.087797 1_455
Ba30 O71 3.087797 1_555
Ba30 O34 3.238474 1_455
Ba30 O13 3.238474 1_555
Ba30 O19 3.366592 1_555
Ba30 O91 3.407013 1_455
Ba30 O41 3.407013 1_555
Ba31 O87 3.028626 1_556
Ba31 O53 3.028626 1_546
Ba31 O66 3.076478 1_555
Ba31 O16 3.087388 1_555
Ba31 O42 3.087388 1_545
Ba31 O9 3.116253 1_546
Ba31 O55 3.116253 1_556
Ba31 O21 3.147202 1_555
Ba31 O52 3.157245 1_545
Ba31 O22 3.157245 1_555
Ba31 O81 3.192314 1_555
Ba31 O54 3.192314 1_545
Ca0 O1 2.284329 1_555
Ca0 O5 2.284329 1_555
Ca0 O32 2.284329 1_555
Ca0 O92 2.284329 1_555
Ca0 O58 2.316146 1_555
Ca0 O37 2.316146 1_555
Ca1 O75 2.312004 1_445
Ca1 O69 2.312004 1_545
Ca1 O44 2.312004 1_455
Ca1 O11 2.312004 1_555
Ca1 O50 2.313425 1_555
Ca1 O64 2.313425 1_555
Ca2 O21 2.278170 1_554
Ca2 O43 2.278170 1_555
Ca2 O53 2.321802 1_545
Ca2 O83 2.321802 1_545
Ca2 O48 2.321802 1_555
Ca2 O87 2.321802 1_555
Ca3 O34 2.280527 1_455
Ca3 O18 2.280527 1_455
Ca3 O13 2.280527 1_555
Ca3 O4 2.280527 1_555
Ca3 O19 2.355335 1_555
Ca3 O59 2.355335 1_554
O0 U0 2.121556 1_555
O0 Y3 2.262762 1_555
O1 U2 2.092600 1_555
O2 U2 2.163536 1_555
O2 Y2 2.247065 1_555
O3 U9 2.131832 1_555
O3 Y7 2.252322 1_555
O4 U15 2.083739 1_555
O5 U3 2.092600 1_555
O6 U13 2.131832 1_555
O6 Y6 2.252322 1_555
O7 U14 2.128347 1_655
O7 Y0 2.268693 1_555
O8 U6 2.019529 1_555
O9 U11 2.007301 1_555
O10 U5 2.003195 1_555
O11 U3 2.085511 1_555
O12 U7 2.137704 1_555
O12 Y6 2.254911 1_555
O13 U11 2.083739 1_555
O14 U3 2.022638 1_555
O15 U13 2.009255 1_555
O16 U9 2.131832 1_555
O16 Y4 2.252322 1_555
O17 U13 2.131832 1_555
O17 Y0 2.252322 1_555
O18 U8 2.083739 1_555
O19 U14 2.036921 1_555
O20 U6 2.128347 1_655
O20 Y7 2.268693 1_555
O21 U9 2.018769 1_555
O22 U1 2.137704 1_555
O22 Y4 2.254911 1_555
O23 U8 2.007301 1_555
O24 U6 2.128347 1_555
O24 Y3 2.268693 1_555
O25 U12 2.003195 1_555
O26 U2 2.003195 1_555
O27 U14 2.019529 1_555
O28 U12 2.022638 1_555
O29 U15 2.165032 1_555
O29 Y6 2.246028 1_555
O30 U9 2.131832 1_565
O30 Y5 2.252322 1_555
O31 U2 2.022638 1_555
O32 U5 2.092600 1_555
O33 U0 2.121556 1_555
O33 Y5 2.262762 1_555
O34 U10 2.083739 1_555
O35 U8 2.018220 1_555
O36 U8 2.165032 1_555
O36 Y0 2.246028 1_555
O37 U0 2.037559 1_555
O38 U0 2.024249 1_555
O39 U4 2.024249 1_555
O40 U1 2.137704 1_665
O40 Y5 2.254911 1_555
O41 U14 2.128347 1_555
O41 Y1 2.268693 1_555
O42 U9 2.131832 1_565
O42 Y3 2.252322 1_555
O43 U13 2.018769 1_555
O44 U12 2.085511 1_555
O45 U5 2.022638 1_555
O46 U13 2.131832 1_565
O46 Y1 2.252322 1_555
O47 U10 2.165032 1_556
O47 Y5 2.246028 1_555
O48 U8 2.093195 1_555
O49 U0 2.121556 1_555
O49 Y4 2.262762 1_555
O50 U1 2.013487 1_555
O51 U4 2.121556 1_555
O51 Y2 2.262762 1_555
O52 U1 2.137704 1_565
O52 Y3 2.254911 1_555
O53 U11 2.093195 1_555
O54 U11 2.165032 1_556
O54 Y3 2.246028 1_555
O55 U15 2.007301 1_555
O56 U7 2.137704 1_565
O56 Y1 2.254911 1_555
O57 U14 2.128347 1_555
O57 Y6 2.268693 1_555
O58 U4 2.037559 1_555
O59 U6 2.036921 1_555
O60 U15 2.018220 1_555
O61 U12 2.163536 1_555
O61 Y7 2.247065 1_555
O62 U10 2.007301 1_555
O63 U10 2.018220 1_555
O64 U7 2.013487 1_555
O65 U0 2.121556 1_555
O65 Y7 2.262762 1_555
O66 U1 2.010413 1_555
O67 U6 2.128347 1_655
O67 Y5 2.268693 1_555
O68 U1 2.137704 1_655
O68 Y7 2.254911 1_555
O69 U5 2.085511 1_555
O70 U3 2.003195 1_555
O71 U11 2.165032 1_555
O71 Y1 2.246028 1_555
O72 U2 2.163536 1_555
O72 Y5 2.247065 1_555
O73 U3 2.163536 1_555
O73 Y4 2.247065 1_555
O74 U13 2.131832 1_565
O74 Y2 2.252322 1_555
O75 U2 2.085511 1_555
O76 U11 2.018220 1_555
O77 U3 2.163536 1_555
O77 Y6 2.247065 1_555
O78 U12 2.163536 1_555
O78 Y0 2.247065 1_555
O79 U4 2.121556 1_555
O79 Y1 2.262762 1_555
O80 U4 2.121556 1_555
O80 Y6 2.262762 1_555
O81 U15 2.165032 1_556
O81 Y4 2.246028 1_555
O82 U5 2.163536 1_555
O82 Y1 2.247065 1_555
O83 U10 2.093195 1_555
O84 U7 2.137704 1_655
O84 Y0 2.254911 1_555
O85 U8 2.165032 1_556
O85 Y7 2.246028 1_555
O86 U7 2.010413 1_555
O87 U15 2.093195 1_555
O88 U6 2.128347 1_555
O88 Y4 2.268693 1_555
O89 U10 2.165032 1_555
O89 Y2 2.246028 1_555
O90 U7 2.137704 1_665
O90 Y2 2.254911 1_555
O91 U14 2.128347 1_655
O91 Y2 2.268693 1_555
O92 U12 2.092600 1_555
O93 U4 2.121556 1_555
O93 Y0 2.262762 1_555
O94 U9 2.009255 1_555
O95 U5 2.163536 1_555
O95 Y3 2.247065 1_555
