# generated using pymatgen
data_MnSeO4
_symmetry_space_group_name_H-M   'P 1'
_cell_length_a   4.90061100
_cell_length_b   5.82547600
_cell_length_c   7.02889194
_cell_angle_alpha   90.00000000
_cell_angle_beta   110.40200680
_cell_angle_gamma   90.00000000
_symmetry_Int_Tables_number   1
_chemical_formula_structural   MnSeO4
_chemical_formula_sum   'Mn2 Se2 O8'
_cell_volume   188.07589140
_cell_formula_units_Z   2
loop_
 _symmetry_equiv_pos_site_id
 _symmetry_equiv_pos_as_xyz
  1  'x, y, z'
loop_
 _atom_site_type_symbol
 _atom_site_label
 _atom_site_symmetry_multiplicity
 _atom_site_fract_x
 _atom_site_fract_y
 _atom_site_fract_z
 _atom_site_occupancy
  Mn  Mn0  1  0.29772200  0.25000000  0.45814100  1
  Mn  Mn1  1  0.83958100  0.75000000  0.54185900  1
  Se  Se0  1  0.90957100  0.25000000  0.78690600  1
  Se  Se1  1  0.12266500  0.75000000  0.21309400  1
  O  O0  1  0.20546600  0.25000000  0.71494500  1
  O  O1  1  0.49052100  0.75000000  0.28505500  1
  O  O2  1  0.41357500  0.25000000  0.24967400  1
  O  O3  1  0.16390100  0.75000000  0.75032600  1
  O  O4  1  0.67842300  0.03284800  0.64174800  1
  O  O5  1  0.03667600  0.96715200  0.35825200  1
  O  O6  1  0.67842300  0.46715200  0.64174800  1
  O  O7  1  0.03667600  0.53284800  0.35825200  1
loop_
_geom_bond_atom_site_label_1
_geom_bond_atom_site_label_2
_geom_bond_distance
_geom_bond_site_symmetry_2
Mn0 O2 1.746266 1_555
Mn0 O0 2.007880 1_555
Mn0 O7 2.053848 1_555
Mn0 O5 2.053848 1_545
Mn0 O6 2.251178 1_555
Mn0 O4 2.251178 1_555
Mn1 O3 1.746266 1_655
Mn1 O1 2.007880 1_555
Mn1 O4 2.053850 1_565
Mn1 O6 2.053850 1_555
Mn1 O7 2.251181 1_655
Mn1 O5 2.251181 1_655
O0 Se0 1.694079 1_455
O1 Se1 1.694078 1_555
O4 Se0 1.765962 1_555
O5 Se1 1.765960 1_555
O6 Se0 1.765962 1_555
O7 Se1 1.765960 1_555
