# generated using pymatgen
data_Rb2ZrF6
_symmetry_space_group_name_H-M   'P 1'
_cell_length_a   6.11047195
_cell_length_b   6.11047206
_cell_length_c   4.76285719
_cell_angle_alpha   90.00000000
_cell_angle_beta   90.00000000
_cell_angle_gamma   120.00000489
_symmetry_Int_Tables_number   1
_chemical_formula_structural   Rb2ZrF6
_chemical_formula_sum   'Rb2 Zr1 F6'
_cell_volume   154.00956257
_cell_formula_units_Z   1
loop_
 _symmetry_equiv_pos_site_id
 _symmetry_equiv_pos_as_xyz
  1  'x, y, z'
loop_
 _atom_site_type_symbol
 _atom_site_label
 _atom_site_symmetry_multiplicity
 _atom_site_fract_x
 _atom_site_fract_y
 _atom_site_fract_z
 _atom_site_occupancy
  Rb  Rb0  1  0.33333300  0.66666700  0.69643997  1
  Rb  Rb1  1  0.66666700  0.33333300  0.30356003  1
  Zr  Zr0  1  0.00000000  0.00000000  -0.00000000  1
  F  F0  1  0.84032052  0.15967948  0.76854110  1
  F  F1  1  0.84032052  0.68064405  0.76854110  1
  F  F2  1  0.31935595  0.15967948  0.76854110  1
  F  F3  1  0.15967948  0.84032052  0.23145890  1
  F  F4  1  0.15967948  0.31935595  0.23145890  1
  F  F5  1  0.68064405  0.84032052  0.23145890  1
loop_
_geom_bond_atom_site_label_1
_geom_bond_atom_site_label_2
_geom_bond_distance
_geom_bond_site_symmetry_2
F0 Zr0 2.017763 1_656
F0 Rb1 2.877925 1_555
F0 Rb0 3.075364 1_545
F0 Rb0 3.075364 1_655
F0 Rb1 3.141855 1_556
F1 Zr0 2.017750 1_666
F1 Rb1 2.877939 1_555
F1 Rb0 3.075358 1_555
F1 Rb0 3.075371 1_655
F1 Rb1 3.141867 1_556
F2 Zr0 2.017750 1_556
F2 Rb1 2.877939 1_555
F2 Rb0 3.075358 1_555
F2 Rb0 3.075371 1_545
F2 Rb1 3.141867 1_556
F3 Zr0 2.017763 1_565
F3 Rb0 2.877925 1_555
F3 Rb1 3.075364 1_565
F3 Rb1 3.075364 1_455
F3 Rb0 3.141855 1_554
F4 Zr0 2.017750 1_555
F4 Rb0 2.877939 1_555
F4 Rb1 3.075358 1_555
F4 Rb1 3.075371 1_455
F4 Rb0 3.141867 1_554
F5 Zr0 2.017750 1_665
F5 Rb0 2.877939 1_555
F5 Rb1 3.075358 1_555
F5 Rb1 3.075371 1_565
F5 Rb0 3.141867 1_554
