# generated using pymatgen
data_La4Fe(NiO4)3
_symmetry_space_group_name_H-M   'P 1'
_cell_length_a   5.46824012
_cell_length_b   18.37386347
_cell_length_c   5.46925071
_cell_angle_alpha   82.44377545
_cell_angle_beta   61.34291854
_cell_angle_gamma   82.46655706
_symmetry_Int_Tables_number   1
_chemical_formula_structural   La4Fe(NiO4)3
_chemical_formula_sum   'La8 Fe2 Ni6 O24'
_cell_volume   476.54661767
_cell_formula_units_Z   2
loop_
 _symmetry_equiv_pos_site_id
 _symmetry_equiv_pos_as_xyz
  1  'x, y, z'
loop_
 _atom_site_type_symbol
 _atom_site_label
 _atom_site_symmetry_multiplicity
 _atom_site_fract_x
 _atom_site_fract_y
 _atom_site_fract_z
 _atom_site_occupancy
  La  La0  1  0.31447400  0.05981000  0.31125800  1
  La  La1  1  0.81201700  0.56195300  0.81384000  1
  La  La2  1  0.18549900  0.44017800  0.18874100  1
  La  La3  1  0.68798900  0.93805500  0.68618500  1
  La  La4  1  0.56225900  0.31531700  0.56368900  1
  La  La5  1  0.06342700  0.81343800  0.06330400  1
  La  La6  1  0.93772700  0.18467200  0.93630500  1
  La  La7  1  0.43657600  0.68660000  0.43667600  1
  Fe  Fe0  1  0.74999300  0.75000700  0.74999900  1
  Fe  Fe1  1  0.25000000  0.24998500  0.25000700  1
  Ni  Ni0  1  0.00006500  0.00010700  0.99979500  1
  Ni  Ni1  1  0.49989400  0.49988700  0.50027300  1
  Ni  Ni2  1  0.62599800  0.12495600  0.62291900  1
  Ni  Ni3  1  0.12754200  0.62502900  0.12161800  1
  Ni  Ni4  1  0.87414400  0.37501900  0.87707600  1
  Ni  Ni5  1  0.37244100  0.87498400  0.37830800  1
  O  O0  1  0.74929000  0.06280800  0.87656400  1
  O  O1  1  0.24963600  0.56168700  0.37555200  1
  O  O2  1  0.75068700  0.43717400  0.62350600  1
  O  O3  1  0.25036000  0.93834100  0.12440300  1
  O  O4  1  0.99982300  0.31123200  0.12892000  1
  O  O5  1  0.49357900  0.81325600  0.63029700  1
  O  O6  1  0.50020500  0.18875400  0.37109000  1
  O  O7  1  0.00637100  0.68673800  0.86971700  1
  O  O8  1  0.45156300  0.20481200  0.89018800  1
  O  O9  1  0.95631700  0.70356500  0.38430500  1
  O  O10  1  0.04843000  0.29517100  0.60979000  1
  O  O11  1  0.54370500  0.79646100  0.11567100  1
  O  O12  1  0.70221800  0.45351600  0.14303600  1
  O  O13  1  0.20284000  0.95419700  0.64315900  1
  O  O14  1  0.79787900  0.04646700  0.35693300  1
  O  O15  1  0.29709500  0.54581400  0.85690000  1
  O  O16  1  0.99048900  0.17176600  0.41685200  1
  O  O17  1  0.48866000  0.66988900  0.92138700  1
  O  O18  1  0.50951800  0.32821100  0.08317300  1
  O  O19  1  0.01128300  0.83012500  0.57862200  1
  O  O20  1  0.23555800  0.42180900  0.67182400  1
  O  O21  1  0.73382900  0.92262600  0.17229600  1
  O  O22  1  0.26442700  0.07817700  0.82818700  1
  O  O23  1  0.76619300  0.57740900  0.32763600  1
loop_
_geom_bond_atom_site_label_1
_geom_bond_atom_site_label_2
_geom_bond_distance
_geom_bond_site_symmetry_2
La0 O13 2.398907 1_545
La0 O0 2.426265 1_554
La0 O16 2.465609 1_455
La0 O3 2.701326 1_545
La0 O14 2.749046 1_555
La0 O14 2.755182 1_455
La0 O22 2.757521 1_554
La0 O22 2.768851 1_555
La0 O6 2.811632 1_555
La1 O17 2.407350 1_555
La1 O12 2.430065 1_556
La1 O1 2.443517 1_655
La1 O15 2.748421 1_655
La1 O23 2.748788 1_556
La1 O7 2.759431 1_655
La1 O2 2.759819 1_555
La1 O15 2.763369 1_555
La1 O23 2.763414 1_555
La2 O15 2.399048 1_554
La2 O2 2.426453 1_455
La2 O18 2.465857 1_555
La2 O1 2.701903 1_555
La2 O12 2.748466 1_455
La2 O12 2.755768 1_555
La2 O20 2.757621 1_555
La2 O20 2.768768 1_554
La2 O4 2.811482 1_455
La3 O19 2.407091 1_655
La3 O14 2.429876 1_565
La3 O3 2.443349 1_556
La3 O13 2.748705 1_555
La3 O21 2.749145 1_555
La3 O0 2.759460 1_565
La3 O5 2.759854 1_555
La3 O21 2.762975 1_556
La3 O13 2.763074 1_655
La4 O20 2.396714 1_555
La4 O4 2.434694 1_555
La4 O8 2.451461 1_555
La4 O2 2.702334 1_555
La4 O18 2.754061 1_556
La4 O18 2.755233 1_555
La4 O10 2.761983 1_655
La4 O10 2.768377 1_555
La4 O6 2.797575 1_555
La5 O5 2.407990 1_554
La5 O9 2.427441 1_455
La5 O21 2.442235 1_455
La5 O19 2.748138 1_555
La5 O11 2.749509 1_555
La5 O3 2.750959 1_555
La5 O11 2.772066 1_455
La5 O19 2.773190 1_554
La5 O7 2.791649 1_554
La6 O22 2.396753 1_655
La6 O6 2.434620 1_556
La6 O10 2.451421 1_655
La6 O0 2.702305 1_555
La6 O16 2.753892 1_555
La6 O16 2.755453 1_556
La6 O8 2.761992 1_555
La6 O8 2.768350 1_655
La6 O4 2.797667 1_556
La7 O7 2.408230 1_555
La7 O11 2.427283 1_555
La7 O23 2.442330 1_555
La7 O17 2.748216 1_554
La7 O9 2.749423 1_455
La7 O1 2.751201 1_555
La7 O9 2.772109 1_555
La7 O17 2.773155 1_555
La7 O5 2.790907 1_555
Fe0 O19 1.997786 1_655
Fe0 O17 1.997925 1_555
Fe0 O5 1.999552 1_555
Fe0 O7 1.999613 1_655
Fe0 O9 2.008343 1_555
Fe0 O11 2.008349 1_556
Fe1 O6 1.961040 1_555
Fe1 O4 1.961062 1_455
Fe1 O16 1.964637 1_455
Fe1 O18 1.964756 1_555
Fe1 O10 1.971209 1_555
Fe1 O8 1.971248 1_554
Ni0 O13 1.964356 1_545
Ni0 O14 1.970427 1_456
Ni0 O21 1.977148 1_446
Ni0 O3 1.977278 1_546
Ni0 O22 1.979040 1_555
Ni0 O0 1.982412 1_455
Ni1 O15 1.964473 1_555
Ni1 O12 1.970970 1_555
Ni1 O1 1.977765 1_555
Ni1 O23 1.977945 1_555
Ni1 O20 1.979057 1_555
Ni1 O2 1.982593 1_555
Ni2 O0 1.990350 1_555
Ni2 O14 1.991075 1_555
Ni2 O22 1.992770 1_555
Ni2 O6 2.004220 1_555
Ni2 O16 2.005624 1_555
Ni2 O8 2.014750 1_555
Ni3 O7 1.972416 1_554
Ni3 O17 1.973142 1_554
Ni3 O9 1.980860 1_455
Ni3 O15 1.996769 1_554
Ni3 O1 1.997399 1_555
Ni3 O23 1.999530 1_455
Ni4 O2 1.990624 1_555
Ni4 O12 1.991108 1_556
Ni4 O20 1.992197 1_655
Ni4 O4 2.003822 1_556
Ni4 O18 2.006187 1_556
Ni4 O10 2.014669 1_655
Ni5 O5 1.972839 1_555
Ni5 O19 1.973315 1_555
Ni5 O11 1.980522 1_555
Ni5 O13 1.997181 1_555
Ni5 O3 1.997357 1_555
Ni5 O21 1.999894 1_555
