# generated using pymatgen
data_ZrCrAgS4
_symmetry_space_group_name_H-M   'P 1'
_cell_length_a   6.66650630
_cell_length_b   7.81112151
_cell_length_c   12.71052973
_cell_angle_alpha   82.05789549
_cell_angle_beta   84.70377732
_cell_angle_gamma   89.94118957
_symmetry_Int_Tables_number   1
_chemical_formula_structural   ZrCrAgS4
_chemical_formula_sum   'Zr4 Cr4 Ag4 S16'
_cell_volume   652.68072405
_cell_formula_units_Z   4
loop_
 _symmetry_equiv_pos_site_id
 _symmetry_equiv_pos_as_xyz
  1  'x, y, z'
loop_
 _atom_site_type_symbol
 _atom_site_label
 _atom_site_symmetry_multiplicity
 _atom_site_fract_x
 _atom_site_fract_y
 _atom_site_fract_z
 _atom_site_occupancy
  Zr  Zr0  1  0.14664900  0.70603500  0.69816900  1
  Zr  Zr1  1  0.85429200  0.28296300  0.30563800  1
  Zr  Zr2  1  0.76421400  0.10892800  0.99759400  1
  Zr  Zr3  1  0.36574000  0.56586600  0.29577900  1
  Cr  Cr0  1  0.24330200  0.88606200  0.99786000  1
  Cr  Cr1  1  0.63933400  0.44470800  0.70444700  1
  Cr  Cr2  1  0.37704500  0.04549900  0.29015600  1
  Cr  Cr3  1  0.63391700  0.95338000  0.70464100  1
  Ag  Ag0  1  0.11621200  0.20077700  0.69663300  1
  Ag  Ag1  1  0.87426000  0.80483900  0.29685500  1
  Ag  Ag2  1  0.26467600  0.37315000  0.99249700  1
  Ag  Ag3  1  0.74535200  0.63469900  0.99470600  1
  S  S0  1  0.12328500  0.67511400  0.88837200  1
  S  S1  1  0.85966100  0.33751300  0.11578300  1
  S  S2  1  0.10491900  0.13134300  0.89861600  1
  S  S3  1  0.92238300  0.85602900  0.09808500  1
  S  S4  1  0.20690500  0.79769900  0.37681500  1
  S  S5  1  0.76664400  0.21411700  0.63981000  1
  S  S6  1  0.20508300  0.27665800  0.36085900  1
  S  S7  1  0.79089100  0.71192400  0.64738200  1
  S  S8  1  0.33867100  0.96802500  0.62942500  1
  S  S9  1  0.66080500  0.02878100  0.38154000  1
  S  S10  1  0.33632400  0.46472200  0.63558600  1
  S  S11  1  0.68869700  0.52756200  0.37604600  1
  S  S12  1  0.39639100  0.06544500  0.10932100  1
  S  S13  1  0.56899700  0.92099800  0.88439600  1
  S  S14  1  0.37683900  0.62382100  0.10428700  1
  S  S15  1  0.62851300  0.39334200  0.87870100  1
loop_
_geom_bond_atom_site_label_1
_geom_bond_atom_site_label_2
_geom_bond_distance
_geom_bond_site_symmetry_2
Cr0 S2 2.378315 1_565
Cr0 S3 2.381231 1_456
Cr0 S12 2.414626 1_566
Cr0 S0 2.476657 1_555
Cr0 S13 2.486578 1_555
Cr0 S14 2.504232 1_556
Cr1 S15 2.190155 1_555
Cr1 S5 2.217339 1_555
Cr1 S10 2.271328 1_555
Cr1 S7 2.313920 1_555
Cr2 S12 2.273852 1_555
Cr2 S9 2.303893 1_555
Cr2 S4 2.330447 1_545
Cr2 S6 2.374030 1_555
Cr3 S5 2.239465 1_565
Cr3 S8 2.262263 1_555
Cr3 S13 2.264837 1_555
Cr3 S7 2.327360 1_555
Ag0 S5 2.500536 1_455
Ag0 S10 2.521873 1_555
Ag0 S8 2.534600 1_545
Ag0 S2 2.543723 1_555
Ag1 S3 2.493457 1_555
Ag1 S4 2.520687 1_655
Ag1 S11 2.531311 1_555
Ag1 S9 2.544763 1_565
Ag2 S2 2.643344 1_555
Ag2 S15 2.700038 1_555
Ag2 S14 2.716602 1_556
Ag2 S0 2.750729 1_555
Ag2 S12 2.828949 1_556
Ag2 S1 2.987167 1_456
Ag3 S3 2.650762 1_556
Ag3 S15 2.705229 1_555
Ag3 S14 2.705288 1_556
Ag3 S0 2.743957 1_655
Ag3 S1 2.750167 1_556
Ag3 S13 2.789556 1_555
S0 Zr0 2.386733 1_555
S1 Zr1 2.388746 1_555
S1 Zr2 2.601859 1_554
S2 Zr2 2.486899 1_455
S3 Zr2 2.488514 1_564
S4 Zr3 2.402409 1_555
S6 Zr1 2.501424 1_455
S6 Zr3 2.501922 1_555
S7 Zr0 2.513526 1_655
S8 Zr0 2.427926 1_555
S9 Zr1 2.404733 1_555
S10 Zr0 2.451195 1_555
S11 Zr1 2.440435 1_555
S11 Zr3 2.466904 1_555
S12 Zr2 2.714848 1_554
S13 Zr2 2.617627 1_565
S14 Zr3 2.407680 1_555
S15 Zr2 2.712576 1_555
