# generated using pymatgen
data_Lu4Ge8Pd
_symmetry_space_group_name_H-M   'P 1'
_cell_length_a   3.92975000
_cell_length_b   4.05003500
_cell_length_c   16.42156500
_cell_angle_alpha   90.00000000
_cell_angle_beta   90.00000000
_cell_angle_gamma   90.00000000
_symmetry_Int_Tables_number   1
_chemical_formula_structural   Lu4Ge8Pd
_chemical_formula_sum   'Lu4 Ge8 Pd1'
_cell_volume   261.35947113
_cell_formula_units_Z   1
loop_
 _symmetry_equiv_pos_site_id
 _symmetry_equiv_pos_as_xyz
  1  'x, y, z'
loop_
 _atom_site_type_symbol
 _atom_site_label
 _atom_site_symmetry_multiplicity
 _atom_site_fract_x
 _atom_site_fract_y
 _atom_site_fract_z
 _atom_site_occupancy
  Lu  Lu0  1  0.25000000  0.00000000  0.09244700  1
  Lu  Lu1  1  0.25000000  0.50000000  0.61034600  1
  Lu  Lu2  1  0.75000000  0.50000000  0.39892100  1
  Lu  Lu3  1  0.75000000  0.00000000  0.89328800  1
  Ge  Ge0  1  0.25000000  0.00000000  0.47004500  1
  Ge  Ge1  1  0.25000000  0.50000000  0.94107800  1
  Ge  Ge2  1  0.75000000  0.50000000  0.04526200  1
  Ge  Ge3  1  0.75000000  0.00000000  0.57015000  1
  Ge  Ge4  1  0.25000000  0.50000000  0.22619100  1
  Ge  Ge5  1  0.25000000  0.00000000  0.74866900  1
  Ge  Ge6  1  0.75000000  0.00000000  0.22550500  1
  Ge  Ge7  1  0.75000000  0.50000000  0.75560200  1
  Pd  Pd0  1  0.25000000  0.00000000  0.32249600  1
loop_
_geom_bond_atom_site_label_1
_geom_bond_atom_site_label_2
_geom_bond_distance
_geom_bond_site_symmetry_2
Lu2 Pd0 3.088122 1_555
Lu2 Pd0 3.088122 1_655
Lu2 Pd0 3.088122 1_565
Lu2 Pd0 3.088122 1_665
Ge0 Pd0 2.422985 1_555
Ge0 Ge3 2.561850 1_455
Ge0 Ge3 2.561850 1_555
Ge0 Lu2 3.053781 1_545
Ge0 Lu2 3.053781 1_555
Ge0 Lu2 3.053781 1_445
Ge0 Lu2 3.053781 1_455
Ge0 Lu1 3.067399 1_545
Ge0 Lu1 3.067399 1_555
Ge1 Ge2 2.605339 1_456
Ge1 Ge2 2.605339 1_556
Ge1 Lu3 2.928706 1_555
Ge1 Lu3 2.928706 1_455
Ge1 Lu3 2.928706 1_465
Ge1 Lu3 2.928706 1_565
Ge1 Lu0 3.206163 1_556
Ge1 Lu0 3.206163 1_566
Ge2 Lu0 2.926060 1_665
Ge2 Lu0 2.926060 1_555
Ge2 Lu0 2.926060 1_565
Ge2 Lu0 2.926060 1_655
Ge2 Lu3 3.213871 1_564
Ge2 Lu3 3.213871 1_554
Ge3 Lu1 2.897781 1_645
Ge3 Lu1 2.897781 1_555
Ge3 Lu1 2.897781 1_545
Ge3 Lu1 2.897781 1_655
Ge3 Lu2 3.465139 1_555
Ge3 Lu2 3.465139 1_545
Ge4 Pd0 2.569391 1_555
Ge4 Pd0 2.569391 1_565
Ge4 Ge6 2.821623 1_555
Ge4 Ge6 2.821623 1_455
Ge4 Ge6 2.821623 1_565
Ge4 Ge6 2.821623 1_465
Ge4 Lu0 2.987368 1_555
Ge4 Lu0 2.987368 1_565
Ge4 Lu2 3.450572 1_455
Ge4 Lu2 3.450572 1_555
Ge5 Ge7 2.823897 1_445
Ge5 Ge7 2.823897 1_545
Ge5 Ge7 2.823897 1_455
Ge5 Ge7 2.823897 1_555
Ge5 Lu1 3.043077 1_555
Ge5 Lu1 3.043077 1_545
Ge5 Lu3 3.082327 1_555
Ge5 Lu3 3.082327 1_455
Ge6 Pd0 2.529341 1_655
Ge6 Pd0 2.529341 1_555
Ge6 Lu0 2.938545 1_555
Ge6 Lu0 2.938545 1_655
Ge7 Lu3 3.035277 1_555
Ge7 Lu3 3.035277 1_565
Ge7 Lu1 3.090394 1_655
Ge7 Lu1 3.090394 1_555
