# generated using pymatgen
data_Sr2MgTeO6
_symmetry_space_group_name_H-M   'P 1'
_cell_length_a   5.60206235
_cell_length_b   5.60206235
_cell_length_c   5.63084696
_cell_angle_alpha   59.76355743
_cell_angle_beta   59.76355743
_cell_angle_gamma   59.92685350
_symmetry_Int_Tables_number   1
_chemical_formula_structural   Sr2MgTeO6
_chemical_formula_sum   'Sr2 Mg1 Te1 O6'
_cell_volume   124.43836691
_cell_formula_units_Z   1
loop_
 _symmetry_equiv_pos_site_id
 _symmetry_equiv_pos_as_xyz
  1  'x, y, z'
loop_
 _atom_site_type_symbol
 _atom_site_label
 _atom_site_symmetry_multiplicity
 _atom_site_fract_x
 _atom_site_fract_y
 _atom_site_fract_z
 _atom_site_occupancy
  Sr  Sr0  1  0.24984155  0.24984155  0.74845530  1
  Sr  Sr1  1  0.75015845  0.75015845  0.25154470  1
  Mg  Mg0  1  -0.00000000  0.00000000  0.50000000  1
  Te  Te0  1  0.50000000  0.50000000  -0.00000000  1
  O  O0  1  0.74052609  0.74052609  0.80471608  1
  O  O1  1  0.25947391  0.25947391  0.19528392  1
  O  O2  1  0.71784138  0.23530138  0.26295707  1
  O  O3  1  0.76469862  0.28215862  0.73704293  1
  O  O4  1  0.28215862  0.76469862  0.73704293  1
  O  O5  1  0.23530138  0.71784138  0.26295707  1
loop_
_geom_bond_atom_site_label_1
_geom_bond_atom_site_label_2
_geom_bond_distance
_geom_bond_site_symmetry_2
Mg0 O0 2.064863 1_445
Mg0 O1 2.064863 1_555
Mg0 O2 2.069379 1_455
Mg0 O4 2.069379 1_545
Mg0 O3 2.069379 1_455
Mg0 O5 2.069379 1_545
O0 Te0 1.917153 1_556
O0 Sr1 2.571496 1_556
O0 Sr0 2.811346 1_655
O0 Sr0 2.811346 1_565
O0 Sr1 3.061423 1_555
O1 Te0 1.917153 1_555
O1 Sr0 2.571496 1_554
O1 Sr1 2.811346 1_545
O1 Sr1 2.811346 1_455
O1 Sr0 3.061423 1_555
O2 Te0 1.917151 1_555
O2 Sr1 2.663532 1_545
O2 Sr0 2.673115 1_555
O2 Sr0 2.931163 1_654
O2 Sr1 2.946321 1_555
O3 Te0 1.917151 1_556
O3 Sr0 2.663532 1_655
O3 Sr1 2.673115 1_555
O3 Sr1 2.931163 1_546
O3 Sr0 2.946321 1_555
O4 Te0 1.917151 1_556
O4 Sr0 2.663532 1_565
O4 Sr1 2.673115 1_555
O4 Sr1 2.931163 1_456
O4 Sr0 2.946321 1_555
O5 Te0 1.917151 1_555
O5 Sr1 2.663532 1_455
O5 Sr0 2.673115 1_555
O5 Sr0 2.931163 1_564
O5 Sr1 2.946321 1_555
