# generated using pymatgen
data_La3TaGa5O14
_symmetry_space_group_name_H-M   'P 1'
_cell_length_a   8.38329437
_cell_length_b   8.38329437
_cell_length_c   5.26949300
_cell_angle_alpha   90.00000000
_cell_angle_beta   90.00000000
_cell_angle_gamma   120.00000293
_symmetry_Int_Tables_number   1
_chemical_formula_structural   La3TaGa5O14
_chemical_formula_sum   'La3 Ta1 Ga5 O14'
_cell_volume   320.72209736
_cell_formula_units_Z   1
loop_
 _symmetry_equiv_pos_site_id
 _symmetry_equiv_pos_as_xyz
  1  'x, y, z'
loop_
 _atom_site_type_symbol
 _atom_site_label
 _atom_site_symmetry_multiplicity
 _atom_site_fract_x
 _atom_site_fract_y
 _atom_site_fract_z
 _atom_site_occupancy
  La  La0  1  0.57262500  0.00000000  0.00000000  1
  La  La1  1  0.00000000  0.57262500  0.00000000  1
  La  La2  1  0.42737500  0.42737500  0.00000000  1
  Ta  Ta0  1  0.00000000  0.00000000  0.00000000  1
  Ga  Ga0  1  0.33333300  0.66666700  0.53016100  1
  Ga  Ga1  1  0.66666700  0.33333300  0.46983900  1
  Ga  Ga2  1  0.24353600  0.00000000  0.50000000  1
  Ga  Ga3  1  0.00000000  0.24353600  0.50000000  1
  Ga  Ga4  1  0.75646400  0.75646400  0.50000000  1
  O  O0  1  0.14226500  0.22011900  0.23390000  1
  O  O1  1  0.77988100  0.92214600  0.23390000  1
  O  O2  1  0.22011900  0.14226500  0.76610000  1
  O  O3  1  0.07785400  0.85773500  0.23390000  1
  O  O4  1  0.92214600  0.77988100  0.76610000  1
  O  O5  1  0.85773500  0.07785400  0.76610000  1
  O  O6  1  0.33333300  0.66666700  0.18131800  1
  O  O7  1  0.66666700  0.33333300  0.81868200  1
  O  O8  1  0.45750700  0.14680400  0.30311200  1
  O  O9  1  0.85319600  0.31070400  0.30311200  1
  O  O10  1  0.14680400  0.45750700  0.69688800  1
  O  O11  1  0.68929600  0.54249300  0.30311200  1
  O  O12  1  0.31070400  0.85319600  0.69688800  1
  O  O13  1  0.54249300  0.68929600  0.69688800  1
loop_
_geom_bond_atom_site_label_1
_geom_bond_atom_site_label_2
_geom_bond_distance
_geom_bond_site_symmetry_2
La0 O5 2.469413 1_554
La0 O1 2.469413 1_545
La0 O12 2.486938 1_544
La0 O8 2.486944 1_555
La0 O7 2.672114 1_554
La0 O6 2.672116 1_545
La0 O9 2.956620 1_555
La0 O13 2.956623 1_544
La1 O3 2.469413 1_555
La1 O4 2.469413 1_454
La1 O9 2.486938 1_455
La1 O10 2.486944 1_554
La1 O6 2.672114 1_555
La1 O7 2.672116 1_454
La1 O12 2.956620 1_554
La1 O11 2.956623 1_455
La2 O0 2.469413 1_555
La2 O2 2.469413 1_554
La2 O13 2.486938 1_554
La2 O11 2.486938 1_555
La2 O6 2.672122 1_555
La2 O7 2.672122 1_554
La2 O8 2.956616 1_555
La2 O10 2.956616 1_554
Ga0 O6 1.838226 1_555
Ga0 O12 1.884081 1_555
Ga0 O10 1.884089 1_555
Ga0 O13 1.884095 1_555
Ga1 O7 1.838226 1_555
Ga1 O9 1.884081 1_555
Ga1 O8 1.884089 1_555
Ga1 O11 1.884095 1_555
Ga2 O8 1.897650 1_555
Ga2 O12 1.897655 1_545
Ga2 O3 1.913447 1_545
Ga2 O2 1.913447 1_555
Ga3 O10 1.897650 1_555
Ga3 O9 1.897655 1_455
Ga3 O5 1.913447 1_455
Ga3 O0 1.913447 1_555
Ga4 O13 1.897648 1_555
Ga4 O11 1.897648 1_555
Ga4 O1 1.913447 1_555
Ga4 O4 1.913447 1_555
O0 Ta0 2.036159 1_555
O1 Ta0 2.036160 1_665
O2 Ta0 2.036159 1_556
O3 Ta0 2.036160 1_565
O4 Ta0 2.036160 1_666
O5 Ta0 2.036160 1_656
