# generated using pymatgen
data_AlMo(WO4)2
_symmetry_space_group_name_H-M   'P 1'
_cell_length_a   5.17915700
_cell_length_b   5.55738734
_cell_length_c   5.65901229
_cell_angle_alpha   74.37231748
_cell_angle_beta   84.27683801
_cell_angle_gamma   73.67020715
_symmetry_Int_Tables_number   1
_chemical_formula_structural   AlMo(WO4)2
_chemical_formula_sum   'Al1 Mo1 W2 O8'
_cell_volume   150.48115955
_cell_formula_units_Z   1
loop_
 _symmetry_equiv_pos_site_id
 _symmetry_equiv_pos_as_xyz
  1  'x, y, z'
loop_
 _atom_site_type_symbol
 _atom_site_label
 _atom_site_symmetry_multiplicity
 _atom_site_fract_x
 _atom_site_fract_y
 _atom_site_fract_z
 _atom_site_occupancy
  Al  Al0  1  0.44369800  0.15096900  0.21449400  1
  Mo  Mo0  1  0.03528400  0.09222000  0.78999500  1
  W  W0  1  0.32292900  0.57759700  0.60178800  1
  W  W1  1  0.74843900  0.61992300  0.95731600  1
  O  O0  1  0.34007600  0.84846300  0.33204000  1
  O  O1  1  0.26657600  0.28567400  0.48383200  1
  O  O2  1  0.38828600  0.78980700  0.83548000  1
  O  O3  1  0.19017900  0.34433600  0.95903700  1
  O  O4  1  0.75537600  0.93068500  0.06632800  1
  O  O5  1  0.67346100  0.35615000  0.20924800  1
  O  O6  1  0.69485200  0.40767900  0.71311700  1
  O  O7  1  0.94074700  0.79259300  0.65882900  1
loop_
_geom_bond_atom_site_label_1
_geom_bond_atom_site_label_2
_geom_bond_distance
_geom_bond_site_symmetry_2
Al0 O0 1.841303 1_545
Al0 O5 1.858733 1_555
Al0 O1 1.916975 1_555
Al0 O3 1.927904 1_554
Al0 O4 1.994814 1_545
Mo0 O2 2.089553 1_545
Mo0 O6 2.091724 1_455
Mo0 O7 2.181801 1_445
Mo0 O4 2.208215 1_446
Mo0 O1 2.213443 1_555
Mo0 O3 2.242545 1_555
O0 W0 1.847749 1_555
O1 W0 2.012778 1_555
O2 W1 1.939465 1_555
O2 W0 2.099610 1_555
O3 W0 2.247735 1_555
O3 W1 2.367694 1_455
O4 W1 1.994440 1_554
O5 W1 1.848219 1_554
O6 W0 1.974260 1_555
O6 W1 2.125275 1_555
O7 W1 2.023523 1_555
O7 W0 2.049434 1_655
