# generated using pymatgen
data_BaMn3Fe3O11
_symmetry_space_group_name_H-M   'P 1'
_cell_length_a   5.96190460
_cell_length_b   5.96190460
_cell_length_c   13.48834400
_cell_angle_alpha   90.00000000
_cell_angle_beta   90.00000000
_cell_angle_gamma   121.15782090
_symmetry_Int_Tables_number   1
_chemical_formula_structural   BaMn3Fe3O11
_chemical_formula_sum   'Ba2 Mn6 Fe6 O22'
_cell_volume   410.27328763
_cell_formula_units_Z   2
loop_
 _symmetry_equiv_pos_site_id
 _symmetry_equiv_pos_as_xyz
  1  'x, y, z'
loop_
 _atom_site_type_symbol
 _atom_site_label
 _atom_site_symmetry_multiplicity
 _atom_site_fract_x
 _atom_site_fract_y
 _atom_site_fract_z
 _atom_site_occupancy
  Ba  Ba0  1  0.66615900  0.33384100  0.25079800  1
  Ba  Ba1  1  0.33384100  0.66615900  0.75079800  1
  Mn  Mn0  1  0.00116100  0.50123900  0.49939500  1
  Mn  Mn1  1  0.49911500  0.50088500  0.49894800  1
  Mn  Mn2  1  0.49876100  0.99883900  0.49939500  1
  Mn  Mn3  1  0.99883900  0.49876100  0.99939500  1
  Mn  Mn4  1  0.50088500  0.49911500  0.99894800  1
  Mn  Mn5  1  0.50123900  0.00116100  0.99939500  1
  Fe  Fe0  1  0.00229000  0.99771000  0.35554900  1
  Fe  Fe1  1  0.99703100  0.00296900  0.64295400  1
  Fe  Fe2  1  0.99771000  0.00229000  0.85554900  1
  Fe  Fe3  1  0.00296900  0.99703100  0.14295400  1
  Fe  Fe4  1  0.67059400  0.32940600  0.74035200  1
  Fe  Fe5  1  0.32940600  0.67059400  0.24035200  1
  O  O0  1  0.30108100  0.15299600  0.74850700  1
  O  O1  1  0.85362700  0.14637300  0.74938000  1
  O  O2  1  0.84700400  0.69891900  0.74850700  1
  O  O3  1  0.69891900  0.84700400  0.24850700  1
  O  O4  1  0.14637300  0.85362700  0.24938000  1
  O  O5  1  0.15299600  0.30108100  0.24850700  1
  O  O6  1  0.35226300  0.17163600  0.42392600  1
  O  O7  1  0.82373900  0.17626100  0.42200700  1
  O  O8  1  0.82836400  0.64773700  0.42392600  1
  O  O9  1  0.64655500  0.82860800  0.57495400  1
  O  O10  1  0.17658800  0.82341200  0.57740700  1
  O  O11  1  0.17139300  0.35344500  0.57495400  1
  O  O12  1  0.64773700  0.82836400  0.92392600  1
  O  O13  1  0.17626100  0.82373900  0.92200700  1
  O  O14  1  0.17163600  0.35226300  0.92392600  1
  O  O15  1  0.35344500  0.17139300  0.07495400  1
  O  O16  1  0.82341200  0.17658800  0.07740700  1
  O  O17  1  0.82860700  0.64655500  0.07495400  1
  O  O18  1  0.68315900  0.31684100  0.91816300  1
  O  O19  1  0.31887600  0.68112400  0.08238000  1
  O  O20  1  0.31684100  0.68315900  0.41816300  1
  O  O21  1  0.68112400  0.31887600  0.58238000  1
loop_
_geom_bond_atom_site_label_1
_geom_bond_atom_site_label_2
_geom_bond_distance
_geom_bond_site_symmetry_2
Ba0 O7 2.830468 1_555
Ba0 O6 2.831585 1_555
Ba0 O8 2.831585 1_555
Ba0 O16 2.852585 1_555
Ba0 O17 2.858504 1_555
Ba0 O15 2.858504 1_555
Ba0 O4 2.935896 1_655
Ba0 O4 2.935896 1_545
Ba0 O5 2.963254 1_555
Ba0 O3 2.963254 1_555
Ba0 O3 3.008335 1_545
Ba0 O5 3.008335 1_655
Ba1 O13 2.830468 1_555
Ba1 O14 2.831585 1_555
Ba1 O12 2.831585 1_555
Ba1 O10 2.852585 1_555
Ba1 O11 2.858504 1_555
Ba1 O9 2.858504 1_555
Ba1 O1 2.935896 1_565
Ba1 O1 2.935896 1_455
Ba1 O0 2.963254 1_555
Ba1 O2 2.963254 1_555
Ba1 O0 3.008335 1_565
Ba1 O2 3.008335 1_455
Mn0 O11 1.941782 1_555
Mn0 O8 1.947169 1_455
Mn0 O20 1.951079 1_555
Mn0 O10 1.952345 1_555
Mn0 O7 1.960001 1_455
Mn0 O21 1.982146 1_455
Mn1 O11 1.965704 1_555
Mn1 O9 1.965708 1_555
Mn1 O8 1.966037 1_555
Mn1 O6 1.966037 1_555
Mn1 O20 2.184306 1_555
Mn1 O21 2.199969 1_555
Mn2 O9 1.941777 1_555
Mn2 O6 1.947169 1_565
Mn2 O20 1.951079 1_555
Mn2 O10 1.952345 1_555
Mn2 O7 1.960001 1_565
Mn2 O21 1.982146 1_565
Mn3 O17 1.941782 1_556
Mn3 O14 1.947169 1_655
Mn3 O18 1.951079 1_555
Mn3 O16 1.952345 1_556
Mn3 O13 1.960001 1_655
Mn3 O19 1.982146 1_656
Mn4 O15 1.965704 1_556
Mn4 O17 1.965704 1_556
Mn4 O12 1.966037 1_555
Mn4 O14 1.966037 1_555
Mn4 O18 2.184306 1_555
Mn4 O19 2.199969 1_556
Mn5 O15 1.941782 1_556
Mn5 O12 1.947169 1_545
Mn5 O18 1.951079 1_555
Mn5 O16 1.952345 1_556
Mn5 O13 1.960001 1_545
Mn5 O19 1.982146 1_546
Fe0 O6 2.010103 1_565
Fe0 O8 2.010103 1_455
Fe0 O7 2.059729 1_465
Fe0 O4 2.071259 1_555
Fe0 O5 2.116971 1_565
Fe0 O3 2.116971 1_455
Fe1 O11 2.010035 1_655
Fe1 O9 2.010035 1_545
Fe1 O10 2.063847 1_645
Fe1 O1 2.068574 1_555
Fe1 O0 2.105993 1_655
Fe1 O2 2.105993 1_545
Fe2 O12 2.010103 1_545
Fe2 O14 2.010103 1_655
Fe2 O13 2.059729 1_645
Fe2 O1 2.071259 1_555
Fe2 O0 2.116971 1_655
Fe2 O2 2.116971 1_545
Fe3 O15 2.010035 1_565
Fe3 O17 2.010035 1_455
Fe3 O16 2.063847 1_465
Fe3 O4 2.068574 1_555
Fe3 O5 2.105993 1_565
Fe3 O3 2.105993 1_455
Fe4 O2 1.890468 1_555
Fe4 O0 1.890468 1_555
Fe4 O1 1.904883 1_555
Fe4 O21 2.133585 1_555
Fe4 O18 2.401924 1_555
Fe5 O3 1.890468 1_555
Fe5 O5 1.890468 1_555
Fe5 O4 1.904883 1_555
Fe5 O19 2.133585 1_555
Fe5 O20 2.401924 1_555
