# generated using pymatgen
data_Mn(BW)2
_symmetry_space_group_name_H-M   'P 1'
_cell_length_a   3.15597156
_cell_length_b   5.81135922
_cell_length_c   5.81135922
_cell_angle_alpha   90.00000000
_cell_angle_beta   90.00000000
_cell_angle_gamma   90.00000000
_symmetry_Int_Tables_number   1
_chemical_formula_structural   Mn(BW)2
_chemical_formula_sum   'Mn2 B4 W4'
_cell_volume   106.58314325
_cell_formula_units_Z   2
loop_
 _symmetry_equiv_pos_site_id
 _symmetry_equiv_pos_as_xyz
  1  'x, y, z'
loop_
 _atom_site_type_symbol
 _atom_site_label
 _atom_site_symmetry_multiplicity
 _atom_site_fract_x
 _atom_site_fract_y
 _atom_site_fract_z
 _atom_site_occupancy
  Mn  Mn0  1  0.00000000  0.50000000  0.50000000  1
  Mn  Mn1  1  0.00000000  -0.00000000  0.00000000  1
  B  B0  1  -0.00000000  0.61296573  0.11297579  1
  B  B1  1  0.00000000  0.38703427  0.88702421  1
  B  B2  1  0.00000000  0.88702421  0.61296573  1
  B  B3  1  -0.00000000  0.11297579  0.38703427  1
  W  W0  1  0.50000000  0.67796457  0.82198176  1
  W  W1  1  0.50000000  0.32203543  0.17801824  1
  W  W2  1  0.50000000  0.17801824  0.67796457  1
  W  W3  1  0.50000000  0.82198176  0.32203543  1
loop_
_geom_bond_atom_site_label_1
_geom_bond_atom_site_label_2
_geom_bond_distance
_geom_bond_site_symmetry_2
Mn0 W2 2.657226 1_455
Mn0 W1 2.657226 1_555
Mn0 W1 2.657226 1_455
Mn0 W3 2.657226 1_555
Mn0 W0 2.657226 1_555
Mn0 W3 2.657226 1_455
Mn0 W0 2.657226 1_455
Mn0 W2 2.657226 1_555
Mn1 W2 2.657567 1_554
Mn1 W0 2.657567 1_444
Mn1 W2 2.657567 1_454
Mn1 W3 2.657567 1_445
Mn1 W1 2.657567 1_455
Mn1 W1 2.657567 1_555
Mn1 W3 2.657567 1_545
Mn1 W0 2.657567 1_544
B0 B1 1.856901 1_554
B0 W3 2.332700 1_555
B0 W3 2.332700 1_455
B0 Mn0 2.342987 1_555
B0 Mn1 2.343059 1_565
B0 W1 2.343369 1_455
B0 W1 2.343369 1_555
B0 W0 2.343596 1_554
B0 W0 2.343596 1_454
B1 W2 2.332700 1_455
B1 W2 2.332700 1_555
B1 Mn0 2.342987 1_555
B1 Mn1 2.343059 1_556
B1 W0 2.343369 1_555
B1 W0 2.343369 1_455
B1 W1 2.343596 1_456
B1 W1 2.343596 1_556
B2 B3 1.856901 1_565
B2 W0 2.332700 1_555
B2 W0 2.332700 1_455
B2 Mn0 2.342987 1_555
B2 Mn1 2.343059 1_566
B2 W3 2.343369 1_555
B2 W3 2.343369 1_455
B2 W2 2.343596 1_465
B2 W2 2.343596 1_565
B3 W1 2.332700 1_455
B3 W1 2.332700 1_555
B3 Mn0 2.342987 1_555
B3 Mn1 2.343059 1_555
B3 W2 2.343369 1_455
B3 W2 2.343369 1_555
B3 W3 2.343596 1_445
B3 W3 2.343596 1_545
