# generated using pymatgen
data_Rb3GaO3
_symmetry_space_group_name_H-M   'P 1'
_cell_length_a   6.80544866
_cell_length_b   6.82591110
_cell_length_c   6.82591111
_cell_angle_alpha   114.21781992
_cell_angle_beta   97.36356916
_cell_angle_gamma   97.36357621
_symmetry_Int_Tables_number   1
_chemical_formula_structural   Rb3GaO3
_chemical_formula_sum   'Rb6 Ga2 O6'
_cell_volume   281.01136966
_cell_formula_units_Z   2
loop_
 _symmetry_equiv_pos_site_id
 _symmetry_equiv_pos_as_xyz
  1  'x, y, z'
loop_
 _atom_site_type_symbol
 _atom_site_label
 _atom_site_symmetry_multiplicity
 _atom_site_fract_x
 _atom_site_fract_y
 _atom_site_fract_z
 _atom_site_occupancy
  Rb  Rb0  1  0.65370451  0.37124987  0.37124987  1
  Rb  Rb1  1  0.34629549  0.62875013  0.62875013  1
  Rb  Rb2  1  0.50000000  0.19392709  0.80607291  1
  Rb  Rb3  1  0.50000000  0.80607291  0.19392709  1
  Rb  Rb4  1  0.00000000  0.26198669  0.73801331  1
  Rb  Rb5  1  -0.00000000  0.73801331  0.26198669  1
  Ga  Ga0  1  0.85139054  0.83513793  0.83513793  1
  Ga  Ga1  1  0.14860946  0.16486207  0.16486207  1
  O  O0  1  0.14403803  0.90303190  0.90303190  1
  O  O1  1  0.85596197  0.09696810  0.09696810  1
  O  O2  1  0.73385375  0.84792727  0.58322635  1
  O  O3  1  0.26614625  0.41677365  0.15207273  1
  O  O4  1  0.26614625  0.15207273  0.41677365  1
  O  O5  1  0.73385375  0.58322635  0.84792727  1
loop_
_geom_bond_atom_site_label_1
_geom_bond_atom_site_label_2
_geom_bond_distance
_geom_bond_site_symmetry_2
Ga0 O5 1.841930 1_555
Ga0 O2 1.841930 1_555
Ga0 O1 1.933982 1_566
Ga0 O0 1.935621 1_655
Ga1 O3 1.841930 1_555
Ga1 O4 1.841930 1_555
Ga1 O0 1.933982 1_544
Ga1 O1 1.935621 1_455
O0 Rb1 2.711175 1_555
O0 Rb2 3.241184 1_565
O0 Rb3 3.241185 1_556
O1 Rb0 2.711175 1_555
O1 Rb3 3.241184 1_545
O1 Rb2 3.241185 1_554
O2 Rb3 2.802206 1_555
O2 Rb4 2.851742 1_665
O2 Rb0 2.908326 1_555
O2 Rb5 2.944206 1_655
O2 Rb1 2.978473 1_555
O2 Rb2 3.010183 1_565
O3 Rb3 2.802206 1_555
O3 Rb4 2.851743 1_554
O3 Rb1 2.908326 1_555
O3 Rb5 2.944206 1_555
O3 Rb0 2.978473 1_555
O3 Rb2 3.010183 1_554
O4 Rb2 2.802206 1_555
O4 Rb5 2.851742 1_545
O4 Rb1 2.908326 1_555
O4 Rb4 2.944206 1_555
O4 Rb0 2.978473 1_555
O4 Rb3 3.010183 1_545
O5 Rb2 2.802206 1_555
O5 Rb5 2.851743 1_656
O5 Rb0 2.908326 1_555
O5 Rb4 2.944206 1_655
O5 Rb1 2.978473 1_555
O5 Rb3 3.010183 1_556
