# generated using pymatgen
data_Tl2Pd9Pb
_symmetry_space_group_name_H-M   'P 1'
_cell_length_a   12.29375919
_cell_length_b   12.29375919
_cell_length_c   12.29375919
_cell_angle_alpha   160.55410562
_cell_angle_beta   160.55410562
_cell_angle_gamma   27.63596585
_symmetry_Int_Tables_number   1
_chemical_formula_structural   Tl2Pd9Pb
_chemical_formula_sum   'Tl2 Pd9 Pb1'
_cell_volume   205.84372545
_cell_formula_units_Z   1
loop_
 _symmetry_equiv_pos_site_id
 _symmetry_equiv_pos_as_xyz
  1  'x, y, z'
loop_
 _atom_site_type_symbol
 _atom_site_label
 _atom_site_symmetry_multiplicity
 _atom_site_fract_x
 _atom_site_fract_y
 _atom_site_fract_z
 _atom_site_occupancy
  Tl  Tl0  1  0.16604700  0.16604700  0.00000000  1
  Tl  Tl1  1  0.00097900  0.00097900  0.00000000  1
  Pd  Pd0  1  0.91612800  0.41612800  0.50000000  1
  Pd  Pd1  1  0.41612800  0.91612800  0.50000000  1
  Pd  Pd2  1  0.08422900  0.58422900  0.50000000  1
  Pd  Pd3  1  0.58422900  0.08422900  0.50000000  1
  Pd  Pd4  1  0.50027100  0.50027100  0.00000000  1
  Pd  Pd5  1  0.74957300  0.24957300  0.50000000  1
  Pd  Pd6  1  0.24957300  0.74957300  0.50000000  1
  Pd  Pd7  1  0.33104600  0.33104600  0.00000000  1
  Pd  Pd8  1  0.66762300  0.66762300  0.00000000  1
  Pb  Pb0  1  0.83417500  0.83417500  0.00000000  1
loop_
_geom_bond_atom_site_label_1
_geom_bond_atom_site_label_2
_geom_bond_distance
_geom_bond_site_symmetry_2
Pd0 Pd4 2.889074 1_555
Pd0 Pd4 2.889074 1_656
Pd0 Tl1 2.900854 1_666
Pd0 Tl1 2.900854 1_655
Pd0 Pd7 2.904708 1_555
Pd0 Pd7 2.904708 1_656
Pd0 Pd1 2.936220 1_555
Pd0 Pd1 2.936220 1_656
Pd0 Pd1 2.936220 1_544
Pd0 Pd1 2.936220 1_645
Pd1 Pd4 2.889074 1_555
Pd1 Pd4 2.889074 1_566
Pd1 Tl1 2.900854 1_666
Pd1 Tl1 2.900854 1_565
Pd1 Pd7 2.904708 1_555
Pd1 Pd7 2.904708 1_566
Pd2 Tl0 2.850752 1_555
Pd2 Tl0 2.850752 1_566
Pd2 Tl1 2.874288 1_566
Pd2 Tl1 2.874288 1_555
Pd2 Pd8 2.876667 1_455
Pd2 Pd8 2.876667 1_556
Pd2 Pd4 2.886004 1_455
Pd2 Pd4 2.886004 1_556
Pd2 Pd3 2.936220 1_566
Pd2 Pd3 2.936220 1_454
Pd2 Pd3 2.936220 1_555
Pd2 Pd3 2.936220 1_465
Pd3 Tl0 2.850752 1_555
Pd3 Tl0 2.850752 1_656
Pd3 Tl1 2.874288 1_656
Pd3 Tl1 2.874288 1_555
Pd3 Pd8 2.876667 1_545
Pd3 Pd8 2.876667 1_556
Pd3 Pd4 2.886004 1_545
Pd3 Pd4 2.886004 1_556
Pd4 Tl1 2.936269 1_554
Pd4 Tl1 2.936269 1_666
Pd4 Tl1 2.936269 1_565
Pd4 Tl1 2.936269 1_655
Pd5 Pd7 2.845113 1_555
Pd5 Pd7 2.845113 1_656
Pd5 Pd8 2.852912 1_556
Pd5 Pd8 2.852912 1_545
Pd5 Tl0 2.878849 1_555
Pd5 Tl0 2.878849 1_656
Pd5 Pd6 2.936220 1_555
Pd5 Pd6 2.936220 1_656
Pd5 Pd6 2.936220 1_544
Pd5 Pd6 2.936220 1_645
Pd6 Pd7 2.845113 1_555
Pd6 Pd7 2.845113 1_566
Pd6 Pd8 2.852912 1_556
Pd6 Pd8 2.852912 1_455
Pd6 Tl0 2.878849 1_555
Pd6 Tl0 2.878849 1_566
Pd8 Tl0 2.936461 1_554
Pd8 Tl0 2.936461 1_666
Pd8 Tl0 2.936461 1_655
Pd8 Tl0 2.936461 1_565
Pb0 Pd0 2.852961 1_554
Pb0 Pd1 2.852961 1_554
Pb0 Pd0 2.852961 1_565
Pb0 Pd1 2.852961 1_655
Pb0 Pd6 2.896705 1_554
Pb0 Pd5 2.896705 1_554
Pb0 Pd6 2.896705 1_655
Pb0 Pd5 2.896705 1_565
Pb0 Pd7 2.937170 1_655
Pb0 Pd7 2.937170 1_565
Pb0 Pd7 2.937170 1_554
Pb0 Pd7 2.937170 1_666
