# generated using pymatgen
data_KUCuS3
_symmetry_space_group_name_H-M   'P 1'
_cell_length_a   7.34636692
_cell_length_b   7.34636692
_cell_length_c   10.29570800
_cell_angle_alpha   90.00000000
_cell_angle_beta   90.00000000
_cell_angle_gamma   148.71261350
_symmetry_Int_Tables_number   1
_chemical_formula_structural   KUCuS3
_chemical_formula_sum   'K2 U2 Cu2 S6'
_cell_volume   288.56635228
_cell_formula_units_Z   2
loop_
 _symmetry_equiv_pos_site_id
 _symmetry_equiv_pos_as_xyz
  1  'x, y, z'
loop_
 _atom_site_type_symbol
 _atom_site_label
 _atom_site_symmetry_multiplicity
 _atom_site_fract_x
 _atom_site_fract_y
 _atom_site_fract_z
 _atom_site_occupancy
  K  K0  1  0.74338000  0.25662000  0.25000000  1
  K  K1  1  0.25662000  0.74338000  0.75000000  1
  U  U0  1  0.00000000  0.00000000  0.50000000  1
  U  U1  1  0.00000000  0.00000000  0.00000000  1
  Cu  Cu0  1  0.53273000  0.46727000  0.75000000  1
  Cu  Cu1  1  0.46727000  0.53273000  0.25000000  1
  S  S0  1  0.62240100  0.37759900  0.56286200  1
  S  S1  1  0.37759900  0.62240100  0.43713800  1
  S  S2  1  0.37759900  0.62240100  0.06286200  1
  S  S3  1  0.93860500  0.06139500  0.75000000  1
  S  S4  1  0.06139500  0.93860500  0.25000000  1
  S  S5  1  0.62240100  0.37759900  0.93713800  1
loop_
_geom_bond_atom_site_label_1
_geom_bond_atom_site_label_2
_geom_bond_distance
_geom_bond_site_symmetry_2
K0 S4 3.248680 1_655
K0 S4 3.248680 1_545
K0 S1 3.353013 1_655
K0 S1 3.353013 1_545
K0 S2 3.353013 1_655
K0 S2 3.353013 1_545
K0 S0 3.647674 1_555
K0 S5 3.647674 1_554
K1 S3 3.248680 1_565
K1 S3 3.248680 1_455
K1 S5 3.353013 1_565
K1 S5 3.353013 1_455
K1 S0 3.353013 1_565
K1 S0 3.353013 1_455
K1 S2 3.647674 1_556
K1 S1 3.647674 1_555
Cu0 S5 2.306916 1_555
Cu0 S0 2.306916 1_555
Cu0 S3 2.387000 1_565
Cu0 S3 2.387000 1_455
Cu1 S1 2.306916 1_555
Cu1 S2 2.306916 1_555
Cu1 S4 2.387000 1_655
Cu1 S4 2.387000 1_545
S0 U0 2.709658 1_555
S0 U0 2.709658 1_665
S1 U0 2.709658 1_555
S1 U0 2.709658 1_665
S2 U1 2.709658 1_555
S2 U1 2.709658 1_665
S3 U0 2.716550 1_655
S3 U1 2.716550 1_656
S4 U0 2.716550 1_565
S4 U1 2.716550 1_565
S5 U1 2.709658 1_556
S5 U1 2.709658 1_666
