# generated using pymatgen
data_NaLaTi2O6
_symmetry_space_group_name_H-M   'P 1'
_cell_length_a   5.49445500
_cell_length_b   5.51869100
_cell_length_c   7.78232500
_cell_angle_alpha   90.00000000
_cell_angle_beta   90.00000000
_cell_angle_gamma   90.00000000
_symmetry_Int_Tables_number   1
_chemical_formula_structural   NaLaTi2O6
_chemical_formula_sum   'Na2 La2 Ti4 O12'
_cell_volume   235.97721012
_cell_formula_units_Z   2
loop_
 _symmetry_equiv_pos_site_id
 _symmetry_equiv_pos_as_xyz
  1  'x, y, z'
loop_
 _atom_site_type_symbol
 _atom_site_label
 _atom_site_symmetry_multiplicity
 _atom_site_fract_x
 _atom_site_fract_y
 _atom_site_fract_z
 _atom_site_occupancy
  Na  Na0  1  0.99550600  0.27704300  0.50000000  1
  Na  Na1  1  0.49550600  0.72295700  0.00000000  1
  La  La0  1  0.50565400  0.77685400  0.50000000  1
  La  La1  1  0.00565400  0.22314600  0.00000000  1
  Ti  Ti0  1  0.50344900  0.25306800  0.74898500  1
  Ti  Ti1  1  0.00344900  0.74693200  0.24898500  1
  Ti  Ti2  1  0.50344900  0.25306800  0.25101500  1
  Ti  Ti3  1  0.00344900  0.74693200  0.75101500  1
  O  O0  1  0.71689400  0.53291400  0.71650100  1
  O  O1  1  0.77621800  0.02860500  0.28085600  1
  O  O2  1  0.27621800  0.97139500  0.21914400  1
  O  O3  1  0.21689400  0.46708600  0.78349900  1
  O  O4  1  0.27621800  0.97139500  0.78085600  1
  O  O5  1  0.21689400  0.46708600  0.21650100  1
  O  O6  1  0.71689400  0.53291400  0.28349900  1
  O  O7  1  0.77621800  0.02860500  0.71914400  1
  O  O8  1  0.06453600  0.73944800  0.50000000  1
  O  O9  1  0.44118300  0.23962200  0.50000000  1
  O  O10  1  0.94118300  0.76037800  0.00000000  1
  O  O11  1  0.56453600  0.26055200  0.00000000  1
loop_
_geom_bond_atom_site_label_1
_geom_bond_atom_site_label_2
_geom_bond_distance
_geom_bond_site_symmetry_2
Na0 O9 2.457445 1_655
Na0 O7 2.498009 1_555
Na0 O1 2.498009 1_555
Na0 O8 2.579903 1_655
Na0 O0 2.678841 1_555
Na0 O6 2.678841 1_555
Na0 O3 2.728970 1_655
Na0 O5 2.728970 1_655
Na1 O10 2.457445 1_555
Na1 O4 2.498009 1_554
Na1 O2 2.498009 1_555
Na1 O11 2.579903 1_555
Na1 O5 2.678841 1_555
Na1 O3 2.678841 1_554
Na1 O0 2.728970 1_554
Na1 O6 2.728970 1_555
La0 O8 2.432478 1_555
La0 O6 2.449135 1_555
La0 O0 2.449135 1_555
La0 O9 2.578323 1_565
La0 O1 2.654957 1_565
La0 O7 2.654957 1_565
La0 O4 2.742109 1_555
La0 O2 2.742109 1_555
La0 O9 2.985904 1_555
La0 O8 3.077683 1_655
La0 O3 3.210506 1_555
La0 O5 3.210506 1_555
La1 O11 2.432478 1_455
La1 O5 2.449135 1_555
La1 O3 2.449135 1_554
La1 O10 2.578323 1_445
La1 O2 2.654957 1_545
La1 O4 2.654957 1_544
La1 O1 2.742109 1_455
La1 O7 2.742109 1_454
La1 O10 2.985904 1_455
La1 O11 3.077683 1_555
La1 O0 3.210506 1_454
La1 O6 3.210506 1_455
O0 Ti0 1.955608 1_555
O0 Ti3 1.986473 1_655
O1 Ti2 1.958205 1_555
O1 Ti1 2.009145 1_645
O2 Ti1 1.958205 1_555
O2 Ti2 2.009145 1_565
O3 Ti3 1.955608 1_555
O3 Ti0 1.986473 1_555
O4 Ti3 1.958205 1_555
O4 Ti0 2.009145 1_565
O5 Ti1 1.955608 1_555
O5 Ti2 1.986473 1_555
O6 Ti2 1.955608 1_555
O6 Ti1 1.986473 1_655
O7 Ti0 1.958205 1_555
O7 Ti3 2.009145 1_645
O8 Ti1 1.982535 1_555
O8 Ti3 1.982535 1_555
O9 Ti0 1.969051 1_555
O9 Ti2 1.969051 1_555
O10 Ti3 1.969051 1_654
O10 Ti1 1.969051 1_655
O11 Ti0 1.982535 1_554
O11 Ti2 1.982535 1_555
