# generated using pymatgen
data_Ba5Ce4YO15
_symmetry_space_group_name_H-M   'P 1'
_cell_length_a   6.29796783
_cell_length_b   14.02481201
_cell_length_c   10.87841673
_cell_angle_alpha   82.29894890
_cell_angle_beta   106.22084516
_cell_angle_gamma   76.82883795
_symmetry_Int_Tables_number   1
_chemical_formula_structural   Ba5Ce4YO15
_chemical_formula_sum   'Ba10 Ce8 Y2 O30'
_cell_volume   878.04100286
_cell_formula_units_Z   2
loop_
 _symmetry_equiv_pos_site_id
 _symmetry_equiv_pos_as_xyz
  1  'x, y, z'
loop_
 _atom_site_type_symbol
 _atom_site_label
 _atom_site_symmetry_multiplicity
 _atom_site_fract_x
 _atom_site_fract_y
 _atom_site_fract_z
 _atom_site_occupancy
  Ba  Ba0  1  0.15415100  0.55276400  0.35600900  1
  Ba  Ba1  1  0.75465600  0.75013300  0.75101800  1
  Ba  Ba2  1  0.35237200  0.95513100  0.15357800  1
  Ba  Ba3  1  0.95216600  0.15189000  0.55059500  1
  Ba  Ba4  1  0.55266100  0.35240900  0.95285800  1
  Ba  Ba5  1  0.24762800  0.24486900  0.24642200  1
  Ba  Ba6  1  0.84534400  0.44986700  0.64898200  1
  Ba  Ba7  1  0.44584900  0.64723600  0.04399100  1
  Ba  Ba8  1  0.04733900  0.84759100  0.44714200  1
  Ba  Ba9  1  0.64783400  0.04811000  0.84940500  1
  Ce  Ce0  1  0.39864700  0.30203100  0.59969600  1
  Ce  Ce1  1  0.99811500  0.50061200  0.99836100  1
  Ce  Ce2  1  0.60188500  0.69938800  0.40163900  1
  Ce  Ce3  1  0.20135300  0.89796900  0.80030400  1
  Ce  Ce4  1  0.70098500  0.39832500  0.29981500  1
  Ce  Ce5  1  0.89901500  0.80167500  0.10018500  1
  Ce  Ce6  1  0.49828100  0.00058100  0.49830000  1
  Ce  Ce7  1  0.10171900  0.19941900  0.90170000  1
  Y  Y0  1  0.80000000  0.10000000  0.20000000  1
  Y  Y1  1  0.30000000  0.60000000  0.70000000  1
  O  O0  1  0.36953400  0.45705400  0.12966300  1
  O  O1  1  0.96572900  0.65648900  0.52931400  1
  O  O2  1  0.57001400  0.85637000  0.93034000  1
  O  O3  1  0.17213800  0.05605200  0.33262800  1
  O  O4  1  0.76988600  0.25607500  0.73095900  1
  O  O5  1  0.02998600  0.34363000  0.46966000  1
  O  O6  1  0.63427100  0.54351100  0.87068600  1
  O  O7  1  0.23046600  0.74294600  0.27033700  1
  O  O8  1  0.83011400  0.94392500  0.66904100  1
  O  O9  1  0.42786200  0.14394800  0.06737200  1
  O  O10  1  0.01851600  0.33994700  0.98109900  1
  O  O11  1  0.61993300  0.53835700  0.38074500  1
  O  O12  1  0.21824000  0.74237800  0.77998800  1
  O  O13  1  0.82102400  0.93784100  0.17947700  1
  O  O14  1  0.41886500  0.14086500  0.58100700  1
  O  O15  1  0.77897600  0.26215900  0.22052300  1
  O  O16  1  0.38176000  0.45762200  0.62001200  1
  O  O17  1  0.98006700  0.66164300  0.01925500  1
  O  O18  1  0.58148400  0.86005300  0.41890100  1
  O  O19  1  0.18113500  0.05913500  0.81899300  1
  O  O20  1  0.52162300  0.32575400  0.42332000  1
  O  O21  1  0.11997600  0.52753000  0.82735100  1
  O  O22  1  0.72228000  0.72560100  0.22456500  1
  O  O23  1  0.32159600  0.92733900  0.62347200  1
  O  O24  1  0.92338100  0.12854200  0.02323100  1
  O  O25  1  0.87772000  0.47439900  0.17543500  1
  O  O26  1  0.48002400  0.67247000  0.57264900  1
  O  O27  1  0.07837700  0.87424600  0.97668000  1
  O  O28  1  0.67661900  0.07145800  0.37676900  1
  O  O29  1  0.27840400  0.27266100  0.77652800  1
loop_
_geom_bond_atom_site_label_1
_geom_bond_atom_site_label_2
_geom_bond_distance
_geom_bond_site_symmetry_2
Ba0 O25 2.763608 1_455
Ba0 O16 2.807954 1_555
Ba0 O11 2.827162 1_555
Ba0 O1 2.876966 1_455
Ba0 O7 2.895193 1_555
Ba0 O22 3.035121 1_455
Ba0 O20 3.331551 1_555
Ba1 O26 2.737333 1_555
Ba1 O12 2.822672 1_655
Ba1 O17 2.825325 1_556
Ba1 O8 2.929826 1_555
Ba1 O2 2.938423 1_555
Ba1 O23 3.068071 1_555
Ba1 O21 3.270195 1_655
Ba1 O1 3.339635 1_555
Ba1 O6 3.347925 1_555
Ba2 O27 2.754945 1_554
Ba2 O18 2.820594 1_555
Ba2 O13 2.835629 1_555
Ba2 O9 2.876685 1_565
Ba2 O3 2.885754 1_565
Ba2 O24 3.027548 1_465
Ba2 O22 3.361160 1_555
Ba3 O28 2.736826 1_555
Ba3 O14 2.829928 1_655
Ba3 O19 2.841047 1_655
Ba3 O5 2.907559 1_655
Ba3 O4 2.926600 1_555
Ba3 O20 3.033129 1_555
Ba3 O23 3.304691 1_645
Ba4 O29 2.741928 1_555
Ba4 O10 2.825116 1_655
Ba4 O15 2.825507 1_556
Ba4 O0 2.899629 1_556
Ba4 O6 2.913572 1_555
Ba4 O21 3.048719 1_555
Ba4 O24 3.303258 1_556
Ba5 O20 2.754945 1_555
Ba5 O10 2.820594 1_554
Ba5 O15 2.835629 1_455
Ba5 O3 2.876685 1_555
Ba5 O9 2.885754 1_555
Ba5 O28 3.027548 1_555
Ba5 O25 3.361160 1_455
Ba6 O21 2.737333 1_655
Ba6 O16 2.822672 1_555
Ba6 O11 2.825325 1_555
Ba6 O4 2.929826 1_555
Ba6 O5 2.938423 1_655
Ba6 O29 3.068071 1_655
Ba6 O26 3.270195 1_555
Ba6 O6 3.339635 1_555
Ba6 O1 3.347925 1_555
Ba7 O22 2.763608 1_555
Ba7 O12 2.807954 1_554
Ba7 O17 2.827162 1_455
Ba7 O6 2.876966 1_554
Ba7 O0 2.895193 1_555
Ba7 O25 3.035121 1_555
Ba7 O27 3.331551 1_554
Ba8 O23 2.741928 1_555
Ba8 O18 2.825116 1_455
Ba8 O13 2.825507 1_455
Ba8 O7 2.899629 1_555
Ba8 O1 2.913572 1_455
Ba8 O26 3.048719 1_555
Ba8 O28 3.303258 1_465
Ba9 O24 2.736826 1_556
Ba9 O19 2.829928 1_555
Ba9 O14 2.841047 1_555
Ba9 O2 2.907559 1_545
Ba9 O8 2.926600 1_545
Ba9 O27 3.033129 1_645
Ba9 O29 3.304691 1_555
Ce0 O16 2.204197 1_555
Ce0 O5 2.249182 1_555
Ce0 O4 2.263247 1_555
Ce0 O20 2.273429 1_555
Ce0 O14 2.274438 1_555
Ce0 O29 2.277552 1_555
Ce1 O6 2.216208 1_555
Ce1 O21 2.221215 1_655
Ce1 O10 2.263639 1_655
Ce1 O0 2.265710 1_656
Ce1 O25 2.274622 1_556
Ce1 O17 2.280375 1_556
Ce2 O1 2.216208 1_555
Ce2 O26 2.221215 1_555
Ce2 O18 2.263639 1_555
Ce2 O7 2.265710 1_555
Ce2 O22 2.274622 1_555
Ce2 O11 2.280375 1_555
Ce3 O12 2.204197 1_555
Ce3 O2 2.249182 1_555
Ce3 O8 2.263247 1_455
Ce3 O27 2.273429 1_555
Ce3 O19 2.274438 1_565
Ce3 O23 2.277552 1_555
Ce4 O15 2.209743 1_555
Ce4 O5 2.247780 1_655
Ce4 O0 2.260809 1_555
Ce4 O20 2.263272 1_555
Ce4 O11 2.269417 1_555
Ce4 O25 2.281166 1_555
Ce5 O13 2.209743 1_555
Ce5 O2 2.247780 1_554
Ce5 O7 2.260809 1_655
Ce5 O27 2.263272 1_654
Ce5 O17 2.269417 1_555
Ce5 O22 2.281166 1_555
Ce6 O3 2.213646 1_555
Ce6 O28 2.232407 1_555
Ce6 O8 2.264486 1_545
Ce6 O23 2.267176 1_545
Ce6 O18 2.267914 1_545
Ce6 O14 2.282087 1_555
Ce7 O9 2.213646 1_556
Ce7 O24 2.232407 1_456
Ce7 O4 2.264486 1_455
Ce7 O29 2.267176 1_555
Ce7 O10 2.267914 1_555
Ce7 O19 2.282087 1_555
O1 Y1 2.273570 1_655
O3 Y0 2.273476 1_455
O6 Y1 2.273570 1_555
O9 Y0 2.273476 1_555
O12 Y1 2.292818 1_555
O13 Y0 2.292368 1_565
O15 Y0 2.292368 1_555
O16 Y1 2.292818 1_555
O21 Y1 2.294139 1_555
O24 Y0 2.287378 1_555
O26 Y1 2.294139 1_555
O28 Y0 2.287378 1_555
