# generated using pymatgen
data_KAsOF5
_symmetry_space_group_name_H-M   'P 1'
_cell_length_a   9.72036623
_cell_length_b   11.69709702
_cell_length_c   29.51380345
_cell_angle_alpha   90.00000000
_cell_angle_beta   90.00000000
_cell_angle_gamma   90.00000000
_symmetry_Int_Tables_number   1
_chemical_formula_structural   KAsOF5
_chemical_formula_sum   'K24 As24 O24 F120'
_cell_volume   3355.72142562
_cell_formula_units_Z   24
loop_
 _symmetry_equiv_pos_site_id
 _symmetry_equiv_pos_as_xyz
  1  'x, y, z'
loop_
 _atom_site_type_symbol
 _atom_site_label
 _atom_site_symmetry_multiplicity
 _atom_site_fract_x
 _atom_site_fract_y
 _atom_site_fract_z
 _atom_site_occupancy
  K  K0  1  0.77093253  0.66164449  0.83378920  1
  K  K1  1  0.22906747  0.33835551  0.16621080  1
  K  K2  1  0.27093253  0.83835551  0.66621080  1
  K  K3  1  0.72906747  0.66164449  0.16621080  1
  K  K4  1  0.72906747  0.16164449  0.33378920  1
  K  K5  1  0.27093253  0.33835551  0.83378920  1
  K  K6  1  0.22906747  0.83835551  0.33378920  1
  K  K7  1  0.77093253  0.16164449  0.66621080  1
  K  K8  1  0.75000000  0.17958246  0.00000000  1
  K  K9  1  0.25000000  0.82041754  0.00000000  1
  K  K10  1  0.25000000  0.32041754  0.50000000  1
  K  K11  1  0.75000000  0.67958246  0.50000000  1
  K  K12  1  0.74966609  0.67658164  0.66738156  1
  K  K13  1  0.25033391  0.32341836  0.33261844  1
  K  K14  1  0.24966609  0.82341836  0.83261844  1
  K  K15  1  0.75033391  0.67658164  0.33261844  1
  K  K16  1  0.75033391  0.17658164  0.16738156  1
  K  K17  1  0.24966609  0.32341836  0.66738156  1
  K  K18  1  0.25033391  0.82341836  0.16738156  1
  K  K19  1  0.74966609  0.17658164  0.83261844  1
  K  K20  1  0.75000000  0.65962603  0.00000000  1
  K  K21  1  0.25000000  0.34037397  0.00000000  1
  K  K22  1  0.25000000  0.84037397  0.50000000  1
  K  K23  1  0.75000000  0.15962603  0.50000000  1
  As  As0  1  0.57917380  0.89409307  0.75753247  1
  As  As1  1  0.42082620  0.10590693  0.24246753  1
  As  As2  1  0.07917380  0.60590693  0.74246753  1
  As  As3  1  0.92082620  0.89409307  0.24246753  1
  As  As4  1  0.92082620  0.39409307  0.25753247  1
  As  As5  1  0.07917380  0.10590693  0.75753247  1
  As  As6  1  0.42082620  0.60590693  0.25753247  1
  As  As7  1  0.57917380  0.39409307  0.74246753  1
  As  As8  1  0.89195389  0.90391535  0.58377863  1
  As  As9  1  0.10804611  0.09608465  0.41622137  1
  As  As10  1  0.39195389  0.59608465  0.91622137  1
  As  As11  1  0.60804611  0.90391535  0.41622137  1
  As  As12  1  0.60804611  0.40391535  0.08377863  1
  As  As13  1  0.39195389  0.09608465  0.58377863  1
  As  As14  1  0.10804611  0.59608465  0.08377863  1
  As  As15  1  0.89195389  0.40391535  0.91622137  1
  As  As16  1  0.92806877  0.89580455  0.91924312  1
  As  As17  1  0.07193123  0.10419545  0.08075688  1
  As  As18  1  0.42806877  0.60419545  0.58075688  1
  As  As19  1  0.57193123  0.89580455  0.08075688  1
  As  As20  1  0.57193123  0.39580455  0.41924312  1
  As  As21  1  0.42806877  0.10419545  0.91924312  1
  As  As22  1  0.07193123  0.60419545  0.41924312  1
  As  As23  1  0.92806877  0.39580455  0.58075688  1
  O  O0  1  0.76207309  0.82472081  0.91836694  1
  O  O1  1  0.23792691  0.17527919  0.08163306  1
  O  O2  1  0.26207309  0.67527919  0.58163306  1
  O  O3  1  0.73792691  0.82472081  0.08163306  1
  O  O4  1  0.73792691  0.32472081  0.41836694  1
  O  O5  1  0.26207309  0.17527919  0.91836694  1
  O  O6  1  0.23792691  0.67527919  0.41836694  1
  O  O7  1  0.76207309  0.32472081  0.58163306  1
  O  O8  1  0.74924999  0.83099502  0.75539165  1
  O  O9  1  0.25075001  0.16900498  0.24460835  1
  O  O10  1  0.24924999  0.66900498  0.74460835  1
  O  O11  1  0.75075001  0.83099502  0.24460835  1
  O  O12  1  0.75075001  0.33099502  0.25539165  1
  O  O13  1  0.24924999  0.16900498  0.75539165  1
  O  O14  1  0.25075001  0.66900498  0.25539165  1
  O  O15  1  0.74924999  0.33099502  0.74460835  1
  O  O16  1  0.89676708  0.55810911  0.92016729  1
  O  O17  1  0.10323292  0.44189089  0.07983271  1
  O  O18  1  0.39676708  0.94189089  0.57983271  1
  O  O19  1  0.60323292  0.55810911  0.07983271  1
  O  O20  1  0.60323292  0.05810911  0.42016729  1
  O  O21  1  0.39676708  0.44189089  0.92016729  1
  O  O22  1  0.10323292  0.94189089  0.42016729  1
  O  O23  1  0.89676708  0.05810911  0.57983271  1
  F  F0  1  0.87926579  0.99414282  0.87630896  1
  F  F1  1  0.12073421  0.00585718  0.12369104  1
  F  F2  1  0.37926579  0.50585718  0.62369104  1
  F  F3  1  0.62073421  0.99414282  0.12369104  1
  F  F4  1  0.62073421  0.49414282  0.37630896  1
  F  F5  1  0.37926579  0.00585718  0.87630896  1
  F  F6  1  0.12073421  0.50585718  0.37630896  1
  F  F7  1  0.87926579  0.49414282  0.62369104  1
  F  F8  1  0.72779724  0.91738432  0.55665945  1
  F  F9  1  0.27220276  0.08261568  0.44334055  1
  F  F10  1  0.22779724  0.58261568  0.94334055  1
  F  F11  1  0.77220276  0.91738432  0.44334055  1
  F  F12  1  0.77220276  0.41738432  0.05665945  1
  F  F13  1  0.22779724  0.08261568  0.55665945  1
  F  F14  1  0.27220276  0.58261568  0.05665945  1
  F  F15  1  0.72779724  0.41738432  0.94334055  1
  F  F16  1  0.97892566  0.79625726  0.96285270  1
  F  F17  1  0.02107434  0.20374274  0.03714730  1
  F  F18  1  0.47892566  0.70374274  0.53714730  1
  F  F19  1  0.52107434  0.79625726  0.03714730  1
  F  F20  1  0.52107434  0.29625726  0.46285270  1
  F  F21  1  0.47892566  0.20374274  0.96285270  1
  F  F22  1  0.02107434  0.70374274  0.46285270  1
  F  F23  1  0.97892566  0.29625726  0.53714730  1
  F  F24  1  0.62384780  0.98521933  0.80338303  1
  F  F25  1  0.37615220  0.01478067  0.19661697  1
  F  F26  1  0.12384780  0.51478067  0.69661697  1
  F  F27  1  0.87615220  0.98521933  0.19661697  1
  F  F28  1  0.87615220  0.48521933  0.30338303  1
  F  F29  1  0.12384780  0.01478067  0.80338303  1
  F  F30  1  0.37615220  0.51478067  0.30338303  1
  F  F31  1  0.62384780  0.48521933  0.69661697  1
  F  F32  1  0.55642943  0.60445443  0.89012232  1
  F  F33  1  0.44357057  0.39554557  0.10987768  1
  F  F34  1  0.05642943  0.89554557  0.60987768  1
  F  F35  1  0.94357057  0.60445443  0.10987768  1
  F  F36  1  0.94357057  0.10445443  0.39012232  1
  F  F37  1  0.05642943  0.39554557  0.89012232  1
  F  F38  1  0.44357057  0.89554557  0.39012232  1
  F  F39  1  0.55642943  0.10445443  0.60987768  1
  F  F40  1  0.62275457  0.50462159  0.78130762  1
  F  F41  1  0.37724543  0.49537841  0.21869238  1
  F  F42  1  0.12275457  0.99537841  0.71869238  1
  F  F43  1  0.87724543  0.50462159  0.21869238  1
  F  F44  1  0.87724543  0.00462159  0.28130762  1
  F  F45  1  0.12275457  0.49537841  0.78130762  1
  F  F46  1  0.37724543  0.99537841  0.28130762  1
  F  F47  1  0.62275457  0.00462159  0.71869238  1
  F  F48  1  0.59805270  0.54987776  0.57999655  1
  F  F49  1  0.40194730  0.45012224  0.42000345  1
  F  F50  1  0.09805270  0.95012224  0.92000345  1
  F  F51  1  0.90194730  0.54987776  0.42000345  1
  F  F52  1  0.90194730  0.04987776  0.07999655  1
  F  F53  1  0.09805270  0.45012224  0.57999655  1
  F  F54  1  0.40194730  0.95012224  0.07999655  1
  F  F55  1  0.59805270  0.04987776  0.92000345  1
  F  F56  1  0.53138651  0.78324020  0.79697193  1
  F  F57  1  0.46861349  0.21675980  0.20302807  1
  F  F58  1  0.03138651  0.71675980  0.70302807  1
  F  F59  1  0.96861349  0.78324020  0.20302807  1
  F  F60  1  0.96861349  0.28324020  0.29697193  1
  F  F61  1  0.03138651  0.21675980  0.79697193  1
  F  F62  1  0.46861349  0.71675980  0.29697193  1
  F  F63  1  0.53138651  0.28324020  0.70302807  1
  F  F64  1  0.98352378  0.79535757  0.87645623  1
  F  F65  1  0.01647622  0.20464243  0.12354377  1
  F  F66  1  0.48352378  0.70464243  0.62354377  1
  F  F67  1  0.51647622  0.79535757  0.12354377  1
  F  F68  1  0.51647622  0.29535757  0.37645623  1
  F  F69  1  0.48352378  0.20464243  0.87645623  1
  F  F70  1  0.01647622  0.70464243  0.37645623  1
  F  F71  1  0.98352378  0.29535757  0.62354377  1
  F  F72  1  0.86867755  0.75251300  0.58668408  1
  F  F73  1  0.13132245  0.24748700  0.41331592  1
  F  F74  1  0.36867755  0.74748700  0.91331592  1
  F  F75  1  0.63132245  0.75251300  0.41331592  1
  F  F76  1  0.63132245  0.25251300  0.08668408  1
  F  F77  1  0.36867755  0.24748700  0.58668408  1
  F  F78  1  0.13132245  0.74748700  0.08668408  1
  F  F79  1  0.86867755  0.25251300  0.91331592  1
  F  F80  1  0.81193815  0.91135896  0.63848675  1
  F  F81  1  0.18806185  0.08864104  0.36151325  1
  F  F82  1  0.31193815  0.58864104  0.86151325  1
  F  F83  1  0.68806185  0.91135896  0.36151325  1
  F  F84  1  0.68806185  0.41135896  0.13848675  1
  F  F85  1  0.31193815  0.08864104  0.63848675  1
  F  F86  1  0.18806185  0.58864104  0.13848675  1
  F  F87  1  0.81193815  0.41135896  0.86151325  1
  F  F88  1  0.53190310  0.80207743  0.71110760  1
  F  F89  1  0.46809690  0.19792257  0.28889240  1
  F  F90  1  0.03190310  0.69792257  0.78889240  1
  F  F91  1  0.96809690  0.80207743  0.28889240  1
  F  F92  1  0.96809690  0.30207743  0.21110760  1
  F  F93  1  0.03190310  0.19792257  0.71110760  1
  F  F94  1  0.46809690  0.69792257  0.21110760  1
  F  F95  1  0.53190310  0.30207743  0.78889240  1
  F  F96  1  0.97193600  0.88327473  0.52995188  1
  F  F97  1  0.02806400  0.11672527  0.47004812  1
  F  F98  1  0.47193600  0.61672527  0.97004812  1
  F  F99  1  0.52806400  0.88327473  0.47004812  1
  F  F100  1  0.52806400  0.38327473  0.02995188  1
  F  F101  1  0.47193600  0.11672527  0.52995188  1
  F  F102  1  0.02806400  0.61672527  0.02995188  1
  F  F103  1  0.97193600  0.38327473  0.97004812  1
  F  F104  1  0.87575257  0.99510011  0.96136377  1
  F  F105  1  0.12424743  0.00489989  0.03863623  1
  F  F106  1  0.37575257  0.50489989  0.53863623  1
  F  F107  1  0.62424743  0.99510011  0.03863623  1
  F  F108  1  0.62424743  0.49510011  0.46136377  1
  F  F109  1  0.37575257  0.00489989  0.96136377  1
  F  F110  1  0.12424743  0.50489989  0.46136377  1
  F  F111  1  0.87575257  0.49510011  0.53863623  1
  F  F112  1  0.90608666  0.55754255  0.74089862  1
  F  F113  1  0.09391334  0.44245745  0.25910138  1
  F  F114  1  0.40608666  0.94245745  0.75910138  1
  F  F115  1  0.59391334  0.55754255  0.25910138  1
  F  F116  1  0.59391334  0.05754255  0.24089862  1
  F  F117  1  0.40608666  0.44245745  0.74089862  1
  F  F118  1  0.09391334  0.94245745  0.24089862  1
  F  F119  1  0.90608666  0.05754255  0.75910138  1
loop_
_geom_bond_atom_site_label_1
_geom_bond_atom_site_label_2
_geom_bond_distance
_geom_bond_site_symmetry_2
K0 O8 3.053218 1_555
K0 O16 3.076029 1_555
K0 O0 3.142788 1_555
K1 O9 3.053218 1_555
K1 O17 3.076029 1_555
K1 O1 3.142788 1_555
K2 O10 3.053218 1_555
K2 O18 3.076029 1_555
K2 O2 3.142788 1_555
K3 O11 3.053218 1_555
K3 O19 3.076029 1_555
K3 O3 3.142788 1_555
K4 O12 3.053218 1_555
K4 O20 3.076029 1_555
K4 O4 3.142788 1_555
K5 O13 3.053218 1_555
K5 O21 3.076029 1_555
K5 O5 3.142788 1_555
K6 O14 3.053218 1_555
K6 O22 3.076029 1_555
K6 O6 3.142788 1_555
K7 O15 3.053218 1_555
K7 O23 3.076029 1_555
K7 O7 3.142788 1_555
K12 O8 3.163764 1_555
K13 O9 3.163764 1_555
K14 O10 3.163764 1_555
K15 O11 3.163764 1_555
K16 O12 3.163764 1_555
K17 O13 3.163764 1_555
K18 O14 3.163764 1_555
K19 O15 3.163764 1_555
K20 O19 2.999473 1_555
K20 O16 2.999473 1_554
K20 O3 3.089947 1_555
K20 O0 3.089947 1_554
K21 O17 2.999473 1_555
K21 O21 2.999473 1_554
K21 O1 3.089947 1_555
K21 O5 3.089947 1_554
K22 O22 2.999473 1_555
K22 O18 2.999473 1_555
K22 O6 3.089947 1_555
K22 O2 3.089947 1_555
K23 O20 2.999473 1_555
K23 O23 2.999473 1_555
K23 O4 3.089947 1_555
K23 O7 3.089947 1_555
As0 F114 1.775639 1_555
As0 F24 1.776501 1_555
As0 F47 1.779044 1_565
As0 F88 1.801933 1_555
As0 F56 1.803331 1_555
As0 O8 1.811577 1_555
As1 F116 1.775639 1_555
As1 F25 1.776501 1_555
As1 F46 1.779044 1_545
As1 F89 1.801933 1_555
As1 F57 1.803331 1_555
As1 O9 1.811577 1_555
As2 F112 1.775639 1_455
As2 F26 1.776501 1_555
As2 F45 1.779044 1_555
As2 F90 1.801933 1_555
As2 F58 1.803331 1_555
As2 O10 1.811577 1_555
As3 F118 1.775639 1_655
As3 F27 1.776501 1_555
As3 F44 1.779044 1_565
As3 F91 1.801933 1_555
As3 F59 1.803331 1_555
As3 O11 1.811577 1_555
As4 F113 1.775639 1_655
As4 F28 1.776501 1_555
As4 F43 1.779044 1_555
As4 F92 1.801933 1_555
As4 F60 1.803331 1_555
As4 O12 1.811577 1_555
As5 F119 1.775639 1_455
As5 F29 1.776501 1_555
As5 F42 1.779044 1_545
As5 F93 1.801933 1_555
As5 F61 1.803331 1_555
As5 O13 1.811577 1_555
As6 F115 1.775639 1_555
As6 F30 1.776501 1_555
As6 F41 1.779044 1_555
As6 F94 1.801933 1_555
As6 F62 1.803331 1_555
As6 O14 1.811577 1_555
As7 F117 1.775639 1_555
As7 F31 1.776501 1_555
As7 F40 1.779044 1_555
As7 F95 1.801933 1_555
As7 F63 1.803331 1_555
As7 O15 1.811577 1_555
As8 F34 1.777347 1_655
As8 F96 1.785071 1_555
As8 F72 1.787420 1_555
As8 F8 1.792090 1_555
As8 F80 1.794325 1_555
As8 O23 1.807981 1_565
As9 F36 1.777347 1_455
As9 F97 1.785071 1_555
As9 F73 1.787420 1_555
As9 F9 1.792090 1_555
As9 F81 1.794325 1_555
As9 O22 1.807981 1_545
As10 F32 1.777347 1_555
As10 F98 1.785071 1_555
As10 F74 1.787420 1_555
As10 F10 1.792090 1_555
As10 F82 1.794325 1_555
As10 O21 1.807981 1_555
As11 F38 1.777347 1_555
As11 F99 1.785071 1_555
As11 F75 1.787420 1_555
As11 F11 1.792090 1_555
As11 F83 1.794325 1_555
As11 O20 1.807981 1_565
As12 F33 1.777347 1_555
As12 F100 1.785071 1_555
As12 F76 1.787420 1_555
As12 F12 1.792090 1_555
As12 F84 1.794325 1_555
As12 O19 1.807981 1_555
As13 F39 1.777347 1_555
As13 F101 1.785071 1_555
As13 F77 1.787420 1_555
As13 F13 1.792090 1_555
As13 F85 1.794325 1_555
As13 O18 1.807981 1_545
As14 F35 1.777347 1_455
As14 F102 1.785071 1_555
As14 F78 1.787420 1_555
As14 F14 1.792090 1_555
As14 F86 1.794325 1_555
As14 O17 1.807981 1_555
As15 F37 1.777347 1_655
As15 F103 1.785071 1_555
As15 F79 1.787420 1_555
As15 F15 1.792090 1_555
As15 F87 1.794325 1_555
As15 O16 1.807981 1_555
As16 F50 1.770396 1_655
As16 F104 1.775673 1_555
As16 F0 1.775904 1_555
As16 F16 1.804668 1_555
As16 F64 1.807130 1_555
As16 O0 1.815358 1_555
As17 F52 1.770396 1_455
As17 F105 1.775673 1_555
As17 F1 1.775904 1_555
As17 F17 1.804668 1_555
As17 F65 1.807130 1_555
As17 O1 1.815358 1_555
As18 F48 1.770396 1_555
As18 F106 1.775673 1_555
As18 F2 1.775904 1_555
As18 F18 1.804668 1_555
As18 F66 1.807130 1_555
As18 O2 1.815358 1_555
As19 F54 1.770396 1_555
As19 F107 1.775673 1_555
As19 F3 1.775904 1_555
As19 F19 1.804668 1_555
As19 F67 1.807130 1_555
As19 O3 1.815358 1_555
As20 F49 1.770396 1_555
As20 F108 1.775673 1_555
As20 F4 1.775904 1_555
As20 F20 1.804668 1_555
As20 F68 1.807130 1_555
As20 O4 1.815358 1_555
As21 F55 1.770396 1_555
As21 F109 1.775673 1_555
As21 F5 1.775904 1_555
As21 F21 1.804668 1_555
As21 F69 1.807130 1_555
As21 O5 1.815358 1_555
As22 F51 1.770396 1_455
As22 F110 1.775673 1_555
As22 F6 1.775904 1_555
As22 F22 1.804668 1_555
As22 F70 1.807130 1_555
As22 O6 1.815358 1_555
As23 F53 1.770396 1_655
As23 F111 1.775673 1_555
As23 F7 1.775904 1_555
As23 F23 1.804668 1_555
As23 F71 1.807130 1_555
As23 O7 1.815358 1_555
F0 K19 2.793511 1_565
F1 K18 2.793511 1_545
F2 K17 2.793511 1_555
F3 K16 2.793511 1_565
F4 K15 2.793511 1_555
F5 K14 2.793511 1_545
F6 K13 2.793511 1_555
F7 K12 2.793511 1_555
F8 K23 3.297243 1_565
F9 K22 3.297243 1_545
F10 K21 3.297243 1_556
F11 K23 3.297243 1_565
F12 K20 3.297243 1_555
F13 K22 3.297243 1_545
F14 K21 3.297243 1_555
F15 K20 3.297243 1_556
F16 K9 2.867889 1_656
F16 K20 2.950916 1_556
F17 K8 2.867889 1_455
F17 K21 2.950916 1_555
F18 K11 2.867889 1_555
F18 K22 2.950916 1_555
F19 K9 2.867889 1_555
F19 K20 2.950916 1_555
F20 K10 2.867889 1_555
F20 K23 2.950916 1_555
F21 K8 2.867889 1_556
F21 K21 2.950916 1_556
F22 K11 2.867889 1_455
F22 K22 2.950916 1_555
F23 K10 2.867889 1_655
F23 K23 2.950916 1_555
F24 K19 2.692693 1_565
F25 K18 2.692693 1_545
F26 K17 2.692693 1_555
F27 K16 2.692693 1_565
F28 K15 2.692693 1_555
F29 K14 2.692693 1_545
F30 K13 2.692693 1_555
F31 K12 2.692693 1_555
F32 K0 2.749397 1_555
F33 K1 2.749397 1_555
F34 K2 2.749397 1_555
F35 K3 2.749397 1_555
F36 K4 2.749397 1_555
F37 K5 2.749397 1_555
F38 K6 2.749397 1_555
F39 K7 2.749397 1_555
F40 K0 2.801301 1_555
F41 K1 2.801301 1_555
F42 K2 2.801301 1_555
F43 K3 2.801301 1_555
F44 K4 2.801301 1_555
F45 K5 2.801301 1_555
F46 K6 2.801301 1_555
F47 K7 2.801301 1_555
F56 K0 2.936923 1_555
F56 K14 2.970974 1_555
F57 K1 2.936923 1_555
F57 K16 2.970974 1_555
F58 K2 2.936923 1_555
F58 K12 2.970974 1_455
F59 K3 2.936923 1_555
F59 K18 2.970974 1_655
F60 K4 2.936923 1_555
F60 K13 2.970974 1_655
F61 K5 2.936923 1_555
F61 K19 2.970974 1_455
F62 K6 2.936923 1_555
F62 K15 2.970974 1_555
F63 K7 2.936923 1_555
F63 K17 2.970974 1_555
F64 K0 2.881371 1_555
F64 K14 2.911061 1_655
F65 K1 2.881371 1_555
F65 K16 2.911061 1_455
F66 K2 2.881371 1_555
F66 K12 2.911061 1_555
F67 K3 2.881371 1_555
F67 K18 2.911061 1_555
F68 K4 2.881371 1_555
F68 K13 2.911061 1_555
F69 K5 2.881371 1_555
F69 K19 2.911061 1_555
F70 K6 2.881371 1_555
F70 K15 2.911061 1_455
F71 K7 2.881371 1_555
F71 K17 2.911061 1_655
F72 K12 2.792771 1_555
F72 K11 2.933223 1_555
F73 K13 2.792771 1_555
F73 K10 2.933223 1_555
F74 K14 2.792771 1_555
F74 K9 2.933223 1_556
F75 K15 2.792771 1_555
F75 K11 2.933223 1_555
F76 K16 2.792771 1_555
F76 K8 2.933223 1_555
F77 K17 2.792771 1_555
F77 K10 2.933223 1_555
F78 K18 2.792771 1_555
F78 K9 2.933223 1_555
F79 K19 2.792771 1_555
F79 K8 2.933223 1_556
F80 K12 2.938596 1_555
F80 K7 3.065831 1_565
F81 K13 2.938596 1_555
F81 K6 3.065831 1_545
F82 K14 2.938596 1_555
F82 K5 3.065831 1_555
F83 K15 2.938596 1_555
F83 K4 3.065831 1_565
F84 K16 2.938596 1_555
F84 K3 3.065831 1_555
F85 K17 2.938596 1_555
F85 K2 3.065831 1_545
F86 K18 2.938596 1_555
F86 K1 3.065831 1_555
F87 K19 2.938596 1_555
F87 K0 3.065831 1_555
F88 K12 2.881120 1_555
F88 K2 2.893250 1_555
F89 K13 2.881120 1_555
F89 K4 2.893250 1_555
F90 K14 2.881120 1_555
F90 K0 2.893250 1_455
F91 K15 2.881120 1_555
F91 K6 2.893250 1_655
F92 K16 2.881120 1_555
F92 K1 2.893250 1_655
F93 K17 2.881120 1_555
F93 K7 2.893250 1_455
F94 K18 2.881120 1_555
F94 K3 2.893250 1_555
F95 K19 2.881120 1_555
F95 K5 2.893250 1_555
F96 K22 2.887706 1_655
F97 K23 2.887706 1_455
F98 K20 2.887706 1_556
F99 K22 2.887706 1_555
F100 K21 2.887706 1_555
F101 K23 2.887706 1_555
F102 K20 2.887706 1_455
F103 K21 2.887706 1_656
F104 K8 2.729656 1_566
F105 K9 2.729656 1_545
F106 K10 2.729656 1_555
F107 K8 2.729656 1_565
F108 K11 2.729656 1_555
F109 K9 2.729656 1_546
F110 K10 2.729656 1_555
F111 K11 2.729656 1_555
F112 K12 2.993078 1_555
F112 K0 3.274878 1_555
F113 K13 2.993078 1_555
F113 K1 3.274878 1_555
F114 K14 2.993078 1_555
F114 K2 3.274878 1_555
F115 K15 2.993078 1_555
F115 K3 3.274878 1_555
F116 K16 2.993078 1_555
F116 K4 3.274878 1_555
F117 K17 2.993078 1_555
F117 K5 3.274878 1_555
F118 K18 2.993078 1_555
F118 K6 3.274878 1_555
F119 K19 2.993078 1_555
F119 K7 3.274878 1_555
