# generated using pymatgen
data_Li2BiAu
_symmetry_space_group_name_H-M   'P 1'
_cell_length_a   5.53362824
_cell_length_b   5.53362824
_cell_length_c   5.74358300
_cell_angle_alpha   90.00000000
_cell_angle_beta   90.00000000
_cell_angle_gamma   98.18038925
_symmetry_Int_Tables_number   1
_chemical_formula_structural   Li2BiAu
_chemical_formula_sum   'Li4 Bi2 Au2'
_cell_volume   174.08496887
_cell_formula_units_Z   2
loop_
 _symmetry_equiv_pos_site_id
 _symmetry_equiv_pos_as_xyz
  1  'x, y, z'
loop_
 _atom_site_type_symbol
 _atom_site_label
 _atom_site_symmetry_multiplicity
 _atom_site_fract_x
 _atom_site_fract_y
 _atom_site_fract_z
 _atom_site_occupancy
  Li  Li0  1  0.47952800  0.12406400  0.25000000  1
  Li  Li1  1  0.87593600  0.52047200  0.75000000  1
  Li  Li2  1  0.52047200  0.87593600  0.75000000  1
  Li  Li3  1  0.12406400  0.47952800  0.25000000  1
  Bi  Bi0  1  0.66380500  0.66380500  0.25000000  1
  Bi  Bi1  1  0.33619500  0.33619500  0.75000000  1
  Au  Au0  1  0.00000000  0.00000000  0.50000000  1
  Au  Au1  1  0.00000000  0.00000000  0.00000000  1
loop_
_geom_bond_atom_site_label_1
_geom_bond_atom_site_label_2
_geom_bond_distance
_geom_bond_site_symmetry_2
Bi0 Li0 2.875001 1_565
Bi0 Li3 2.875001 1_655
Bi0 Li0 3.015566 1_555
Bi0 Li3 3.015566 1_555
Bi0 Li1 3.243326 1_555
Bi0 Li2 3.243326 1_554
Bi0 Li2 3.243326 1_555
Bi0 Li1 3.243326 1_554
Bi1 Li2 2.875001 1_545
Bi1 Li1 2.875001 1_455
Bi1 Li1 3.015566 1_555
Bi1 Li2 3.015566 1_555
Bi1 Li3 3.243326 1_555
Bi1 Li0 3.243326 1_555
Bi1 Li0 3.243326 1_556
Bi1 Li3 3.243326 1_556
Au0 Bi0 2.828228 1_445
Au0 Bi1 2.828228 1_555
Au0 Li2 3.009304 1_445
Au0 Li1 3.009304 1_445
Au0 Li3 3.009304 1_555
Au0 Li0 3.009304 1_555
Au1 Bi1 2.828228 1_554
Au1 Bi0 2.828228 1_445
Au1 Li2 3.009304 1_444
Au1 Li1 3.009304 1_444
Au1 Li3 3.009304 1_555
Au1 Li0 3.009304 1_555
