# generated using pymatgen
data_Na2CO3
_symmetry_space_group_name_H-M   'P 1'
_cell_length_a   5.30069290
_cell_length_b   18.18797687
_cell_length_c   19.52563144
_cell_angle_alpha   115.57910111
_cell_angle_beta   90.00000000
_cell_angle_gamma   90.00000000
_symmetry_Int_Tables_number   1
_chemical_formula_structural   Na2CO3
_chemical_formula_sum   'Na48 C24 O72'
_cell_volume   1697.94602873
_cell_formula_units_Z   24
loop_
 _symmetry_equiv_pos_site_id
 _symmetry_equiv_pos_as_xyz
  1  'x, y, z'
loop_
 _atom_site_type_symbol
 _atom_site_label
 _atom_site_symmetry_multiplicity
 _atom_site_fract_x
 _atom_site_fract_y
 _atom_site_fract_z
 _atom_site_occupancy
  Na  Na0  1  0.21519698  0.24980321  0.62507026  1
  Na  Na1  1  0.28480302  0.24980321  0.12507026  1
  Na  Na2  1  0.78480302  0.75019679  0.37492974  1
  Na  Na3  1  0.71519698  0.75019679  0.87492974  1
  Na  Na4  1  0.18618854  0.91683458  0.12768779  1
  Na  Na5  1  0.31381146  0.91683458  0.62768779  1
  Na  Na6  1  0.81381146  0.08316542  0.87231221  1
  Na  Na7  1  0.68618854  0.08316542  0.37231221  1
  Na  Na8  1  0.23848361  0.58315866  0.62532038  1
  Na  Na9  1  0.26151639  0.58315866  0.12532038  1
  Na  Na10  1  0.76151639  0.41684134  0.37467962  1
  Na  Na11  1  0.73848361  0.41684134  0.87467962  1
  Na  Na12  1  0.19003864  0.41715709  0.62546513  1
  Na  Na13  1  0.30996136  0.41715709  0.12546513  1
  Na  Na14  1  0.80996136  0.58284291  0.37453487  1
  Na  Na15  1  0.69003864  0.58284291  0.87453487  1
  Na  Na16  1  0.22677842  0.08453536  0.12636252  1
  Na  Na17  1  0.27322158  0.08453536  0.62636252  1
  Na  Na18  1  0.77322158  0.91546464  0.87363748  1
  Na  Na19  1  0.72677842  0.91546464  0.37363748  1
  Na  Na20  1  0.30249564  0.74916340  0.62511319  1
  Na  Na21  1  0.19750436  0.74916340  0.12511319  1
  Na  Na22  1  0.69750436  0.25083660  0.37488681  1
  Na  Na23  1  0.80249564  0.25083660  0.87488681  1
  Na  Na24  1  0.70495232  0.44266956  0.53888036  1
  Na  Na25  1  0.79504768  0.44266956  0.03888036  1
  Na  Na26  1  0.29504768  0.55733044  0.46111964  1
  Na  Na27  1  0.20495232  0.55733044  0.96111964  1
  Na  Na28  1  0.77864073  0.10865377  0.03621136  1
  Na  Na29  1  0.72135927  0.10865377  0.53621136  1
  Na  Na30  1  0.22135927  0.89134623  0.96378864  1
  Na  Na31  1  0.27864073  0.89134623  0.46378864  1
  Na  Na32  1  0.82115470  0.77292347  0.53786797  1
  Na  Na33  1  0.67884530  0.77292347  0.03786797  1
  Na  Na34  1  0.17884530  0.22707653  0.46213203  1
  Na  Na35  1  0.32115470  0.22707653  0.96213203  1
  Na  Na36  1  0.81063871  0.05621997  0.70591029  1
  Na  Na37  1  0.68936129  0.05621997  0.20591029  1
  Na  Na38  1  0.18936129  0.94378003  0.29408971  1
  Na  Na39  1  0.31063871  0.94378003  0.79408971  1
  Na  Na40  1  0.72797938  0.72337815  0.21046646  1
  Na  Na41  1  0.77202062  0.72337815  0.71046646  1
  Na  Na42  1  0.27202062  0.27662185  0.78953354  1
  Na  Na43  1  0.22797938  0.27662185  0.28953354  1
  Na  Na44  1  0.68830225  0.39141866  0.71051867  1
  Na  Na45  1  0.81169775  0.39141866  0.21051867  1
  Na  Na46  1  0.31169775  0.60858134  0.28948133  1
  Na  Na47  1  0.18830225  0.60858134  0.78948133  1
  C  C0  1  0.69436957  0.27839573  0.54300861  1
  C  C1  1  0.80563043  0.27839573  0.04300861  1
  C  C2  1  0.30563043  0.72160427  0.45699139  1
  C  C3  1  0.19436957  0.72160427  0.95699139  1
  C  C4  1  0.71021825  0.94544209  0.04298170  1
  C  C5  1  0.78978175  0.94544209  0.54298170  1
  C  C6  1  0.28978175  0.05455791  0.95701830  1
  C  C7  1  0.21021825  0.05455791  0.45701830  1
  C  C8  1  0.77667448  0.61029438  0.54232970  1
  C  C9  1  0.72332552  0.61029438  0.04232970  1
  C  C10  1  0.22332552  0.38970562  0.45767030  1
  C  C11  1  0.27667448  0.38970562  0.95767030  1
  C  C12  1  0.75362590  0.22278971  0.70792030  1
  C  C13  1  0.74637410  0.22278971  0.20792030  1
  C  C14  1  0.24637410  0.77721029  0.29207970  1
  C  C15  1  0.25362590  0.77721029  0.79207970  1
  C  C16  1  0.68612322  0.88676239  0.20615393  1
  C  C17  1  0.81387678  0.88676239  0.70615393  1
  C  C18  1  0.31387678  0.11323761  0.79384607  1
  C  C19  1  0.18612322  0.11323761  0.29384607  1
  C  C20  1  0.70604689  0.55559037  0.70736386  1
  C  C21  1  0.79395311  0.55559037  0.20736386  1
  C  C22  1  0.29395311  0.44440963  0.29263614  1
  C  C23  1  0.20604689  0.44440963  0.79263614  1
  O  O0  1  0.88471606  0.31198023  0.58800985  1
  O  O1  1  0.61528394  0.31198023  0.08800985  1
  O  O2  1  0.11528394  0.68801977  0.41199015  1
  O  O3  1  0.38471606  0.68801977  0.91199015  1
  O  O4  1  0.91415615  0.98569114  0.07519419  1
  O  O5  1  0.58584385  0.98569114  0.57519419  1
  O  O6  1  0.08584385  0.01430886  0.92480581  1
  O  O7  1  0.41415615  0.01430886  0.42480581  1
  O  O8  1  0.99349865  0.64812367  0.55991354  1
  O  O9  1  0.50650135  0.64812367  0.05991354  1
  O  O10  1  0.00650135  0.35187633  0.44008646  1
  O  O11  1  0.49349865  0.35187633  0.94008646  1
  O  O12  1  0.02847089  0.31164828  0.06028703  1
  O  O13  1  0.47152911  0.31164828  0.56028703  1
  O  O14  1  0.97152911  0.68835172  0.93971297  1
  O  O15  1  0.52847089  0.68835172  0.43971297  1
  O  O16  1  0.00792206  0.97141539  0.57491811  1
  O  O17  1  0.49207794  0.97141539  0.07491811  1
  O  O18  1  0.99207794  0.02858461  0.42508189  1
  O  O19  1  0.50792206  0.02858461  0.92508189  1
  O  O20  1  0.91575379  0.63890427  0.08764023  1
  O  O21  1  0.58424621  0.63890427  0.58764023  1
  O  O22  1  0.08424621  0.36109573  0.91235977  1
  O  O23  1  0.41575379  0.36109573  0.41235977  1
  O  O24  1  0.96983766  0.18481821  0.68981296  1
  O  O25  1  0.53016234  0.18481821  0.18981296  1
  O  O26  1  0.03016234  0.81518179  0.31018704  1
  O  O27  1  0.46983766  0.81518179  0.81018704  1
  O  O28  1  0.86824455  0.84662378  0.16040259  1
  O  O29  1  0.63175545  0.84662378  0.66040259  1
  O  O30  1  0.13175545  0.15337622  0.83959741  1
  O  O31  1  0.36824455  0.15337622  0.33959741  1
  O  O32  1  0.89579337  0.52443278  0.66147638  1
  O  O33  1  0.60420663  0.52443278  0.16147638  1
  O  O34  1  0.10420663  0.47556722  0.33852362  1
  O  O35  1  0.39579337  0.47556722  0.83852362  1
  O  O36  1  0.94090969  0.19379446  0.16361670  1
  O  O37  1  0.55909031  0.19379446  0.66361670  1
  O  O38  1  0.05909031  0.80620554  0.83638330  1
  O  O39  1  0.44090969  0.80620554  0.33638330  1
  O  O40  1  0.04444795  0.85998608  0.69082389  1
  O  O41  1  0.45555205  0.85998608  0.19082389  1
  O  O42  1  0.95555205  0.14001392  0.30917611  1
  O  O43  1  0.54444795  0.14001392  0.80917611  1
  O  O44  1  0.01332312  0.51949869  0.19116591  1
  O  O45  1  0.48667688  0.51949869  0.69116591  1
  O  O46  1  0.98667688  0.48050131  0.80883409  1
  O  O47  1  0.51332312  0.48050131  0.30883409  1
  O  O48  1  0.72752053  0.21200945  0.48071884  1
  O  O49  1  0.77247947  0.21200945  0.98071884  1
  O  O50  1  0.27247947  0.78799055  0.51928116  1
  O  O51  1  0.22752053  0.78799055  0.01928116  1
  O  O52  1  0.72466158  0.87989184  0.97928088  1
  O  O53  1  0.77533842  0.87989184  0.47928088  1
  O  O54  1  0.27533842  0.12010816  0.02071912  1
  O  O55  1  0.22466158  0.12010816  0.52071912  1
  O  O56  1  0.75256117  0.54414381  0.47943491  1
  O  O57  1  0.74743883  0.54414381  0.97943491  1
  O  O58  1  0.24743883  0.45585619  0.52056509  1
  O  O59  1  0.25256117  0.45585619  0.02056509  1
  O  O60  1  0.73236605  0.28954353  0.77038969  1
  O  O61  1  0.76763395  0.28954353  0.27038969  1
  O  O62  1  0.26763395  0.71045647  0.22961031  1
  O  O63  1  0.23236605  0.71045647  0.72961031  1
  O  O64  1  0.73475039  0.95319563  0.26703301  1
  O  O65  1  0.76524961  0.95319563  0.76703301  1
  O  O66  1  0.26524961  0.04680437  0.73296699  1
  O  O67  1  0.23475039  0.04680437  0.23296699  1
  O  O68  1  0.73541674  0.62234828  0.76944192  1
  O  O69  1  0.76458326  0.62234828  0.26944192  1
  O  O70  1  0.26458326  0.37765172  0.23055808  1
  O  O71  1  0.23541674  0.37765172  0.73055808  1
loop_
_geom_bond_atom_site_label_1
_geom_bond_atom_site_label_2
_geom_bond_distance
_geom_bond_site_symmetry_2
Na0 O71 2.350573 1_555
Na0 O55 2.359678 1_555
Na0 O0 2.361754 1_455
Na0 O37 2.364132 1_555
Na0 O13 2.437238 1_555
Na0 O24 2.444742 1_455
Na1 O70 2.350573 1_555
Na1 O54 2.359678 1_555
Na1 O1 2.361754 1_555
Na1 O36 2.364132 1_455
Na1 O12 2.437238 1_555
Na1 O25 2.444742 1_555
Na2 O69 2.350573 1_555
Na2 O53 2.359678 1_555
Na2 O2 2.361754 1_655
Na2 O39 2.364132 1_555
Na2 O15 2.437238 1_555
Na2 O26 2.444742 1_655
Na3 O68 2.350573 1_555
Na3 O52 2.359678 1_555
Na3 O3 2.361754 1_555
Na3 O38 2.364132 1_655
Na3 O14 2.437238 1_555
Na3 O27 2.444742 1_555
Na4 O17 2.357837 1_555
Na4 O28 2.362931 1_455
Na4 O67 2.384075 1_565
Na4 O41 2.393348 1_555
Na4 O51 2.395147 1_555
Na4 O4 2.409701 1_455
Na5 O16 2.357837 1_555
Na5 O29 2.362931 1_555
Na5 O66 2.384075 1_565
Na5 O40 2.393348 1_555
Na5 O50 2.395147 1_555
Na5 O5 2.409701 1_555
Na6 O19 2.357837 1_555
Na6 O30 2.362931 1_655
Na6 O65 2.384075 1_545
Na6 O43 2.393348 1_555
Na6 O49 2.395147 1_555
Na6 O6 2.409701 1_655
Na7 O18 2.357837 1_555
Na7 O31 2.362931 1_555
Na7 O64 2.384075 1_545
Na7 O42 2.393348 1_555
Na7 O48 2.395147 1_555
Na7 O7 2.409701 1_555
Na8 O63 2.331748 1_555
Na8 O58 2.336111 1_555
Na8 O21 2.360618 1_555
Na8 O32 2.364324 1_455
Na8 O45 2.451490 1_555
Na8 O8 2.452862 1_455
Na9 O62 2.331748 1_555
Na9 O59 2.336111 1_555
Na9 O20 2.360618 1_455
Na9 O33 2.364324 1_555
Na9 O44 2.451490 1_555
Na9 O9 2.452862 1_555
Na10 O61 2.331748 1_555
Na10 O56 2.336111 1_555
Na10 O23 2.360618 1_555
Na10 O34 2.364324 1_655
Na10 O47 2.451490 1_555
Na10 O10 2.452862 1_655
Na11 O60 2.331748 1_555
Na11 O57 2.336111 1_555
Na11 O22 2.360618 1_655
Na11 O35 2.364324 1_555
Na11 O46 2.451490 1_555
Na11 O11 2.452862 1_555
Na12 O13 2.328010 1_555
Na12 O45 2.349660 1_555
Na12 O32 2.355698 1_455
Na12 O0 2.367587 1_455
Na12 O58 2.455235 1_555
Na12 O71 2.461308 1_555
Na13 O12 2.328010 1_555
Na13 O44 2.349660 1_555
Na13 O33 2.355698 1_555
Na13 O1 2.367587 1_555
Na13 O59 2.455235 1_555
Na13 O70 2.461308 1_555
Na14 O15 2.328010 1_555
Na14 O47 2.349660 1_555
Na14 O34 2.355698 1_655
Na14 O2 2.367587 1_655
Na14 O56 2.455235 1_555
Na14 O69 2.461308 1_555
Na15 O14 2.328010 1_555
Na15 O46 2.349660 1_555
Na15 O35 2.355698 1_555
Na15 O3 2.367587 1_555
Na15 O57 2.455235 1_555
Na15 O68 2.461308 1_555
Na16 O4 2.329210 1_445
Na16 O17 2.331308 1_545
Na16 O25 2.344464 1_555
Na16 O36 2.350749 1_455
Na16 O54 2.427397 1_555
Na16 O67 2.457423 1_555
Na17 O5 2.329210 1_545
Na17 O16 2.331308 1_545
Na17 O24 2.344464 1_455
Na17 O37 2.350749 1_555
Na17 O55 2.427397 1_555
Na17 O66 2.457423 1_555
Na18 O6 2.329210 1_665
Na18 O19 2.331308 1_565
Na18 O27 2.344464 1_555
Na18 O38 2.350749 1_655
Na18 O52 2.427397 1_555
Na18 O65 2.457423 1_555
Na19 O7 2.329210 1_565
Na19 O18 2.331308 1_565
Na19 O26 2.344464 1_655
Na19 O39 2.350749 1_555
Na19 O53 2.427397 1_555
Na19 O64 2.457423 1_555
Na20 O40 2.312313 1_555
Na20 O21 2.349547 1_555
Na20 O29 2.368187 1_555
Na20 O8 2.379153 1_455
Na20 O63 2.457091 1_555
Na20 O50 2.460548 1_555
Na21 O41 2.312313 1_555
Na21 O20 2.349547 1_455
Na21 O28 2.368187 1_455
Na21 O9 2.379153 1_555
Na21 O62 2.457091 1_555
Na21 O51 2.460548 1_555
Na22 O42 2.312313 1_555
Na22 O23 2.349547 1_555
Na22 O31 2.368187 1_555
Na22 O10 2.379153 1_655
Na22 O61 2.457091 1_555
Na22 O48 2.460548 1_555
Na23 O43 2.312313 1_555
Na23 O22 2.349547 1_655
Na23 O30 2.368187 1_655
Na23 O11 2.379153 1_555
Na23 O60 2.457091 1_555
Na23 O49 2.460548 1_555
Na24 O32 2.427136 1_555
Na24 O58 2.478058 1_555
Na24 O10 2.500456 1_655
Na24 O56 2.582063 1_555
Na24 O23 2.736617 1_555
Na24 O13 2.871320 1_555
Na24 O58 2.920323 1_655
Na24 O45 2.923169 1_555
Na25 O33 2.427136 1_555
Na25 O59 2.478058 1_655
Na25 O11 2.500456 1_554
Na25 O57 2.582063 1_554
Na25 O22 2.736617 1_654
Na25 O12 2.871320 1_655
Na25 O59 2.920323 1_555
Na25 O44 2.923169 1_655
Na26 O34 2.427136 1_555
Na26 O56 2.478058 1_555
Na26 O8 2.500456 1_455
Na26 O58 2.582063 1_555
Na26 O21 2.736617 1_555
Na26 O15 2.871320 1_555
Na26 O56 2.920323 1_455
Na26 O47 2.923169 1_555
Na27 O35 2.427136 1_555
Na27 O57 2.478058 1_455
Na27 O9 2.500456 1_556
Na27 O59 2.582063 1_556
Na27 O20 2.736617 1_456
Na27 O14 2.871320 1_455
Na27 O57 2.920323 1_555
Na27 O46 2.923169 1_455
Na28 O36 2.449456 1_555
Na28 O19 2.481870 1_554
Na28 O49 2.543168 1_554
Na28 O6 2.665466 1_654
Na28 O54 2.668554 1_655
Na28 O54 2.703101 1_555
Na28 O4 2.750817 1_545
Na29 O37 2.449456 1_555
Na29 O18 2.481870 1_555
Na29 O48 2.543168 1_555
Na29 O7 2.665466 1_555
Na29 O55 2.668554 1_555
Na29 O55 2.703101 1_655
Na29 O5 2.750817 1_545
Na30 O38 2.449456 1_555
Na30 O17 2.481870 1_556
Na30 O51 2.543168 1_556
Na30 O4 2.665466 1_456
Na30 O52 2.668554 1_455
Na30 O52 2.703101 1_555
Na30 O6 2.750817 1_565
Na31 O39 2.449456 1_555
Na31 O16 2.481870 1_555
Na31 O50 2.543168 1_555
Na31 O5 2.665466 1_555
Na31 O53 2.668554 1_555
Na31 O53 2.703101 1_455
Na31 O7 2.750817 1_565
Na32 O29 2.399939 1_555
Na32 O15 2.429081 1_555
Na32 O50 2.452743 1_655
Na32 O8 2.648737 1_555
Na32 O53 2.659804 1_555
Na32 O2 2.752990 1_655
Na33 O28 2.399939 1_555
Na33 O14 2.429081 1_554
Na33 O51 2.452743 1_555
Na33 O9 2.648737 1_555
Na33 O52 2.659804 1_554
Na33 O3 2.752990 1_554
Na34 O31 2.399939 1_555
Na34 O13 2.429081 1_555
Na34 O48 2.452743 1_455
Na34 O10 2.648737 1_555
Na34 O55 2.659804 1_555
Na34 O0 2.752990 1_455
Na35 O30 2.399939 1_555
Na35 O12 2.429081 1_556
Na35 O49 2.452743 1_555
Na35 O11 2.648737 1_555
Na35 O54 2.659804 1_556
Na35 O1 2.752990 1_556
Na36 O43 2.392833 1_555
Na36 O66 2.488666 1_655
Na36 O16 2.570579 1_645
Na36 O5 2.598552 1_545
Na36 O24 2.629898 1_555
Na36 O65 2.631436 1_545
Na37 O42 2.392833 1_555
Na37 O67 2.488666 1_555
Na37 O17 2.570579 1_545
Na37 O4 2.598552 1_545
Na37 O25 2.629898 1_555
Na37 O64 2.631436 1_545
Na38 O41 2.392833 1_555
Na38 O64 2.488666 1_455
Na38 O18 2.570579 1_465
Na38 O7 2.598552 1_565
Na38 O26 2.629898 1_555
Na38 O67 2.631436 1_565
Na39 O40 2.392833 1_555
Na39 O65 2.488666 1_555
Na39 O19 2.570579 1_565
Na39 O6 2.598552 1_565
Na39 O27 2.629898 1_555
Na39 O66 2.631436 1_565
Na40 O20 2.433331 1_555
Na40 O62 2.495024 1_555
Na40 O26 2.517440 1_655
Na40 O69 2.562686 1_555
Na41 O21 2.433331 1_555
Na41 O63 2.495024 1_655
Na41 O27 2.517440 1_555
Na41 O68 2.562686 1_555
Na42 O22 2.433331 1_555
Na42 O60 2.495024 1_555
Na42 O24 2.517440 1_455
Na42 O71 2.562686 1_555
Na43 O23 2.433331 1_555
Na43 O61 2.495024 1_455
Na43 O25 2.517440 1_555
Na43 O70 2.562686 1_555
Na44 O0 2.430850 1_555
Na44 O71 2.462380 1_555
Na44 O46 2.475061 1_555
Na44 O60 2.593231 1_555
Na44 O45 2.733458 1_555
Na44 O35 2.773115 1_555
Na44 O13 2.890488 1_555
Na44 O71 2.951423 1_655
Na45 O1 2.430850 1_555
Na45 O70 2.462380 1_655
Na45 O47 2.475061 1_555
Na45 O61 2.593231 1_555
Na45 O44 2.733458 1_655
Na45 O34 2.773115 1_655
Na45 O12 2.890488 1_655
Na45 O70 2.951423 1_555
Na46 O2 2.430850 1_555
Na46 O69 2.462380 1_555
Na46 O44 2.475061 1_555
Na46 O62 2.593231 1_555
Na46 O47 2.733458 1_555
Na46 O33 2.773115 1_555
Na46 O15 2.890488 1_555
Na46 O69 2.951423 1_455
Na47 O3 2.430850 1_555
Na47 O68 2.462380 1_455
Na47 O45 2.475061 1_555
Na47 O63 2.593231 1_555
Na47 O46 2.733458 1_455
Na47 O32 2.773115 1_455
Na47 O14 2.890488 1_455
Na47 O68 2.951423 1_555
C0 O13 1.303327 1_555
C0 O0 1.303740 1_555
C0 O48 1.303813 1_555
C1 O12 1.303327 1_655
C1 O1 1.303740 1_555
C1 O49 1.303813 1_554
C2 O15 1.303327 1_555
C2 O2 1.303740 1_555
C2 O50 1.303813 1_555
C3 O14 1.303327 1_455
C3 O3 1.303740 1_555
C3 O51 1.303813 1_556
C4 O52 1.301463 1_554
C4 O17 1.301790 1_555
C4 O4 1.304796 1_555
C5 O53 1.301463 1_555
C5 O16 1.301790 1_655
C5 O5 1.304796 1_555
C6 O54 1.301463 1_556
C6 O19 1.301790 1_555
C6 O6 1.304796 1_555
C7 O55 1.301463 1_555
C7 O18 1.301790 1_455
C7 O7 1.304796 1_555
C8 O56 1.302366 1_555
C8 O21 1.302446 1_555
C8 O8 1.306990 1_555
C9 O57 1.302366 1_554
C9 O20 1.302446 1_555
C9 O9 1.306990 1_555
C10 O58 1.302366 1_555
C10 O23 1.302446 1_555
C10 O10 1.306990 1_555
C11 O59 1.302366 1_556
C11 O22 1.302446 1_555
C11 O11 1.306990 1_555
C12 O60 1.302222 1_555
C12 O37 1.302236 1_555
C12 O24 1.305602 1_555
C13 O61 1.302222 1_555
C13 O36 1.302236 1_555
C13 O25 1.305602 1_555
C14 O62 1.302222 1_555
C14 O39 1.302236 1_555
C14 O26 1.305602 1_555
C15 O63 1.302222 1_555
C15 O38 1.302236 1_555
C15 O27 1.305602 1_555
C16 O41 1.301782 1_555
C16 O64 1.303514 1_555
C16 O28 1.303753 1_555
C17 O40 1.301782 1_655
C17 O65 1.303514 1_555
C17 O29 1.303753 1_555
C18 O43 1.301782 1_555
C18 O66 1.303514 1_555
C18 O30 1.303753 1_555
C19 O42 1.301782 1_455
C19 O67 1.303514 1_555
C19 O31 1.303753 1_555
C20 O68 1.302632 1_555
C20 O32 1.302723 1_555
C20 O45 1.305294 1_555
C21 O69 1.302632 1_555
C21 O33 1.302723 1_555
C21 O44 1.305294 1_655
C22 O70 1.302632 1_555
C22 O34 1.302723 1_555
C22 O47 1.305294 1_555
C23 O71 1.302632 1_555
C23 O35 1.302723 1_555
C23 O46 1.305294 1_455
