# generated using pymatgen
data_Th6MnBr15
_symmetry_space_group_name_H-M   'P 1'
_cell_length_a   10.13147028
_cell_length_b   10.13175191
_cell_length_c   10.13180530
_cell_angle_alpha   109.46018066
_cell_angle_beta   109.45962206
_cell_angle_gamma   109.45917136
_symmetry_Int_Tables_number   1
_chemical_formula_structural   Th6MnBr15
_chemical_formula_sum   'Th6 Mn1 Br15'
_cell_volume   800.95431668
_cell_formula_units_Z   1
loop_
 _symmetry_equiv_pos_site_id
 _symmetry_equiv_pos_as_xyz
  1  'x, y, z'
loop_
 _atom_site_type_symbol
 _atom_site_label
 _atom_site_symmetry_multiplicity
 _atom_site_fract_x
 _atom_site_fract_y
 _atom_site_fract_z
 _atom_site_occupancy
  Th  Th0  1  -0.00004227  0.24180867  0.24181042  1
  Th  Th1  1  0.00003534  0.75819115  0.75819364  1
  Th  Th2  1  0.24180757  -0.00003697  0.24180625  1
  Th  Th3  1  0.75819395  0.00003973  0.75819231  1
  Th  Th4  1  0.24180936  0.24180557  -0.00003455  1
  Th  Th5  1  0.75819034  0.75819044  0.00003732  1
  Mn  Mn0  1  -0.00000232  -0.00000343  -0.00000069  1
  Br  Br0  1  0.50254653  0.25123081  0.25123395  1
  Br  Br1  1  0.49745043  0.74876249  0.74876246  1
  Br  Br2  1  0.00008283  0.25125098  0.74877243  1
  Br  Br3  1  -0.00000075  0.74877324  0.25122261  1
  Br  Br4  1  0.25123411  0.50254560  0.25123346  1
  Br  Br5  1  0.74874593  -0.00000409  0.25125065  1
  Br  Br6  1  0.74876548  0.49744956  0.74876258  1
  Br  Br7  1  0.25121963  -0.00000642  0.74877408  1
  Br  Br8  1  0.25123496  0.25123129  0.50254726  1
  Br  Br9  1  0.74876475  0.74876189  0.49745085  1
  Br  Br10  1  0.74874448  0.25124895  -0.00000441  1
  Br  Br11  1  0.25122131  0.74877258  -0.00000330  1
  Br  Br12  1  -0.00000120  0.49999009  0.49999173  1
  Br  Br13  1  0.50000005  -0.00000161  0.50000114  1
  Br  Br14  1  0.49999949  0.49999949  -0.00000019  1
loop_
_geom_bond_atom_site_label_1
_geom_bond_atom_site_label_2
_geom_bond_distance
_geom_bond_site_symmetry_2
Mn0 Th2 2.829519 1_555
Mn0 Th1 2.829530 1_544
Mn0 Th5 2.829534 1_445
Mn0 Th3 2.829540 1_454
Mn0 Th4 2.829552 1_555
Mn0 Th0 2.829614 1_555
Br0 Th4 2.942388 1_555
Br0 Th2 2.942389 1_555
Br1 Th5 2.942425 1_556
Br1 Th3 2.942458 1_565
Br2 Th4 2.941044 1_556
Br2 Th3 2.941922 1_455
Br3 Th5 2.941290 1_455
Br3 Th2 2.941317 1_565
Br4 Th4 2.942430 1_555
Br4 Th0 2.942456 1_555
Br5 Th0 2.941616 1_655
Br5 Th5 2.941622 1_545
Br6 Th1 2.942403 1_655
Br6 Th5 2.942473 1_556
Br7 Th1 2.941266 1_545
Br7 Th4 2.941318 1_556
Br8 Th2 2.942424 1_555
Br8 Th0 2.942455 1_555
Br9 Th1 2.942417 1_655
Br9 Th3 2.942470 1_565
Br10 Th3 2.941614 1_554
Br10 Th0 2.941627 1_655
Br11 Th1 2.941264 1_554
Br11 Th2 2.941319 1_565
Br12 Th0 3.020679 1_555
Br12 Th1 3.020941 1_555
Br13 Th3 3.020787 1_555
Br13 Th2 3.020836 1_555
Br14 Th5 3.020799 1_555
Br14 Th4 3.020831 1_555
