# generated using pymatgen
data_Sr2Mg
_symmetry_space_group_name_H-M   'P 1'
_cell_length_a   15.95273151
_cell_length_b   15.95273151
_cell_length_c   15.95273151
_cell_angle_alpha   150.72930466
_cell_angle_beta   148.97902353
_cell_angle_gamma   43.17241289
_symmetry_Int_Tables_number   1
_chemical_formula_structural   Sr2Mg
_chemical_formula_sum   'Sr16 Mg8'
_cell_volume   1020.27641070
_cell_formula_units_Z   8
loop_
 _symmetry_equiv_pos_site_id
 _symmetry_equiv_pos_as_xyz
  1  'x, y, z'
loop_
 _atom_site_type_symbol
 _atom_site_label
 _atom_site_symmetry_multiplicity
 _atom_site_fract_x
 _atom_site_fract_y
 _atom_site_fract_z
 _atom_site_occupancy
  Sr  Sr0_0  1  0.42830700  0.42830700  0.00000000  1
  Sr  Sr0_1  1  0.42830700  0.42830700  0.50000000  1
  Sr  Sr0_2  1  0.42830700  0.92830700  0.00000000  1
  Sr  Sr0_3  1  0.42830700  0.92830700  0.50000000  1
  Sr  Sr0_4  1  0.92830700  0.42830700  0.00000000  1
  Sr  Sr0_5  1  0.92830700  0.42830700  0.50000000  1
  Sr  Sr0_6  1  0.92830700  0.92830700  0.00000000  1
  Sr  Sr0_7  1  0.92830700  0.92830700  0.50000000  1
  Sr  Sr1_0  1  0.07169300  0.07169300  0.00000000  1
  Sr  Sr1_1  1  0.07169300  0.07169300  0.50000000  1
  Sr  Sr1_2  1  0.07169300  0.57169300  0.00000000  1
  Sr  Sr1_3  1  0.07169300  0.57169300  0.50000000  1
  Sr  Sr1_4  1  0.57169300  0.07169300  0.00000000  1
  Sr  Sr1_5  1  0.57169300  0.07169300  0.50000000  1
  Sr  Sr1_6  1  0.57169300  0.57169300  0.00000000  1
  Sr  Sr1_7  1  0.57169300  0.57169300  0.50000000  1
  Mg  Mg0_0  1  0.25000000  0.25000000  0.00000000  1
  Mg  Mg0_1  1  0.25000000  0.25000000  0.50000000  1
  Mg  Mg0_2  1  0.25000000  0.75000000  0.00000000  1
  Mg  Mg0_3  1  0.25000000  0.75000000  0.50000000  1
  Mg  Mg0_4  1  0.75000000  0.25000000  0.00000000  1
  Mg  Mg0_5  1  0.75000000  0.25000000  0.50000000  1
  Mg  Mg0_6  1  0.75000000  0.75000000  0.00000000  1
  Mg  Mg0_7  1  0.75000000  0.75000000  0.50000000  1
loop_
_geom_bond_atom_site_label_1
_geom_bond_atom_site_label_2
_geom_bond_distance
_geom_bond_site_symmetry_2
Sr0_0 Sr0_3 4.030718 1_555
Sr0_0 Sr0_3 4.030718 1_544
Sr0_0 Sr1_6 4.253944 1_555
Sr0_0 Sr0_5 4.265996 1_555
Sr0_0 Sr0_5 4.265996 1_454
Sr0_0 Sr1_1 4.314617 1_554
Sr0_0 Sr1_4 4.314617 1_555
Sr0_0 Sr1_7 4.314617 1_555
Sr0_0 Sr1_2 4.314617 1_555
Sr0_1 Sr0_2 4.030718 1_556
Sr0_1 Sr0_2 4.030718 1_545
Sr0_1 Sr1_7 4.253944 1_555
Sr0_1 Sr0_4 4.265996 1_455
Sr0_1 Sr0_4 4.265996 1_556
Sr0_1 Sr1_6 4.314617 1_556
Sr0_1 Sr1_3 4.314617 1_555
Sr0_1 Sr1_0 4.314617 1_555
Sr0_1 Sr1_5 4.314617 1_555
Sr0_2 Sr1_4 4.253944 1_565
Sr0_2 Sr0_7 4.265996 1_454
Sr0_2 Sr0_7 4.265996 1_555
Sr0_2 Sr1_6 4.314617 1_555
Sr0_2 Sr1_5 4.314617 1_565
Sr0_2 Sr1_0 4.314617 1_565
Sr0_2 Sr1_3 4.314617 1_554
Sr0_3 Sr1_5 4.253944 1_565
Sr0_3 Sr0_6 4.265996 1_455
Sr0_3 Sr0_6 4.265996 1_556
Sr0_3 Sr1_1 4.314617 1_565
Sr0_3 Sr1_4 4.314617 1_566
Sr0_3 Sr1_7 4.314617 1_555
Sr0_3 Sr1_2 4.314617 1_555
Sr0_4 Sr0_7 4.030718 1_555
Sr0_4 Sr0_7 4.030718 1_544
Sr0_4 Sr1_2 4.253944 1_655
Sr0_4 Sr1_6 4.314617 1_555
Sr0_4 Sr1_0 4.314617 1_655
Sr0_4 Sr1_3 4.314617 1_655
Sr0_4 Sr1_5 4.314617 1_554
Sr0_5 Sr0_6 4.030718 1_556
Sr0_5 Sr0_6 4.030718 1_545
Sr0_5 Sr1_3 4.253944 1_655
Sr0_5 Sr1_1 4.314617 1_655
Sr0_5 Sr1_2 4.314617 1_656
Sr0_5 Sr1_7 4.314617 1_555
Sr0_5 Sr1_4 4.314617 1_555
Sr0_6 Sr1_0 4.253944 1_665
Sr0_6 Sr1_1 4.314617 1_665
Sr0_6 Sr1_4 4.314617 1_565
Sr0_6 Sr1_2 4.314617 1_655
Sr0_6 Sr1_7 4.314617 1_554
Sr0_7 Sr1_1 4.253944 1_665
Sr0_7 Sr1_0 4.314617 1_666
Sr0_7 Sr1_6 4.314617 1_555
Sr0_7 Sr1_3 4.314617 1_655
Sr0_7 Sr1_5 4.314617 1_565
Sr1_0 Sr1_3 4.030718 1_544
Sr1_0 Sr1_3 4.030718 1_555
Sr1_0 Sr1_5 4.265996 1_555
Sr1_0 Sr1_5 4.265996 1_454
Sr1_1 Sr1_2 4.030718 1_556
Sr1_1 Sr1_2 4.030718 1_545
Sr1_1 Sr1_4 4.265996 1_556
Sr1_1 Sr1_4 4.265996 1_455
Sr1_2 Sr1_7 4.265996 1_555
Sr1_2 Sr1_7 4.265996 1_454
Sr1_3 Sr1_6 4.265996 1_455
Sr1_3 Sr1_6 4.265996 1_556
Sr1_4 Sr1_7 4.030718 1_544
Sr1_4 Sr1_7 4.030718 1_555
Sr1_5 Sr1_6 4.030718 1_556
Sr1_5 Sr1_6 4.030718 1_545
Mg0_0 Sr1_4 3.624274 1_555
Mg0_0 Sr1_2 3.624274 1_555
Mg0_0 Sr1_7 3.624274 1_555
Mg0_0 Sr1_1 3.624274 1_554
Mg0_0 Sr0_4 3.624274 1_455
Mg0_0 Sr0_7 3.624274 1_444
Mg0_0 Sr0_2 3.624274 1_545
Mg0_0 Sr0_1 3.624274 1_555
Mg0_1 Sr1_5 3.624274 1_555
Mg0_1 Sr1_3 3.624274 1_555
Mg0_1 Sr1_0 3.624274 1_555
Mg0_1 Sr1_6 3.624274 1_556
Mg0_1 Sr0_6 3.624274 1_445
Mg0_1 Sr0_5 3.624274 1_455
Mg0_1 Sr0_0 3.624274 1_556
Mg0_1 Sr0_3 3.624274 1_545
Mg0_2 Sr1_3 3.624274 1_554
Mg0_2 Sr1_5 3.624274 1_565
Mg0_2 Sr1_0 3.624274 1_565
Mg0_2 Sr1_6 3.624274 1_555
Mg0_2 Sr0_6 3.624274 1_455
Mg0_2 Sr0_3 3.624274 1_555
Mg0_2 Sr0_5 3.624274 1_454
Mg0_2 Sr0_0 3.624274 1_555
Mg0_3 Sr1_7 3.624274 1_555
Mg0_3 Sr1_2 3.624274 1_555
Mg0_3 Sr1_4 3.624274 1_566
Mg0_3 Sr1_1 3.624274 1_565
Mg0_3 Sr0_4 3.624274 1_455
Mg0_3 Sr0_7 3.624274 1_455
Mg0_3 Sr0_2 3.624274 1_556
Mg0_3 Sr0_1 3.624274 1_555
Mg0_4 Sr1_5 3.624274 1_554
Mg0_4 Sr1_3 3.624274 1_655
Mg0_4 Sr1_0 3.624274 1_655
Mg0_4 Sr1_6 3.624274 1_555
Mg0_4 Sr0_6 3.624274 1_545
Mg0_4 Sr0_5 3.624274 1_555
Mg0_4 Sr0_0 3.624274 1_555
Mg0_4 Sr0_3 3.624274 1_544
Mg0_5 Sr1_7 3.624274 1_555
Mg0_5 Sr1_4 3.624274 1_555
Mg0_5 Sr1_2 3.624274 1_656
Mg0_5 Sr1_1 3.624274 1_655
Mg0_5 Sr0_2 3.624274 1_545
Mg0_5 Sr0_7 3.624274 1_545
Mg0_5 Sr0_4 3.624274 1_556
Mg0_5 Sr0_1 3.624274 1_555
Mg0_6 Sr1_7 3.624274 1_554
Mg0_6 Sr1_4 3.624274 1_565
Mg0_6 Sr1_2 3.624274 1_655
Mg0_6 Sr1_1 3.624274 1_665
Mg0_6 Sr0_2 3.624274 1_555
Mg0_6 Sr0_4 3.624274 1_555
Mg0_6 Sr0_7 3.624274 1_555
Mg0_6 Sr0_1 3.624274 1_554
Mg0_7 Sr1_5 3.624274 1_565
Mg0_7 Sr1_3 3.624274 1_655
Mg0_7 Sr1_6 3.624274 1_555
Mg0_7 Sr1_0 3.624274 1_666
Mg0_7 Sr0_6 3.624274 1_556
Mg0_7 Sr0_3 3.624274 1_555
Mg0_7 Sr0_5 3.624274 1_555
Mg0_7 Sr0_0 3.624274 1_555
