# generated using pymatgen
data_Mg(MoO2)4
_symmetry_space_group_name_H-M   'P 1'
_cell_length_a   3.20968073
_cell_length_b   7.83187158
_cell_length_c   7.80010954
_cell_angle_alpha   79.49927769
_cell_angle_beta   78.62719332
_cell_angle_gamma   78.04791676
_symmetry_Int_Tables_number   1
_chemical_formula_structural   Mg(MoO2)4
_chemical_formula_sum   'Mg1 Mo4 O8'
_cell_volume   186.00507389
_cell_formula_units_Z   1
loop_
 _symmetry_equiv_pos_site_id
 _symmetry_equiv_pos_as_xyz
  1  'x, y, z'
loop_
 _atom_site_type_symbol
 _atom_site_label
 _atom_site_symmetry_multiplicity
 _atom_site_fract_x
 _atom_site_fract_y
 _atom_site_fract_z
 _atom_site_occupancy
  Mg  Mg0  1  0.32806700  0.14269500  0.20915800  1
  Mo  Mo0  1  0.65116000  0.16926900  0.56384400  1
  Mo  Mo1  1  0.10992000  0.51148900  0.20731000  1
  Mo  Mo2  1  0.85391400  0.47532700  0.83438700  1
  Mo  Mo3  1  0.35528300  0.81045100  0.49064000  1
  O  O0  1  0.87353200  0.66604800  0.60608800  1
  O  O1  1  0.47458000  0.33348500  0.73738300  1
  O  O2  1  0.53172800  0.64440000  0.28328800  1
  O  O3  1  0.16956600  0.30119600  0.40645100  1
  O  O4  1  0.17352300  0.01462000  0.66047100  1
  O  O5  1  0.79018300  0.32099400  0.10701600  1
  O  O6  1  0.83089100  0.00095300  0.34722100  1
  O  O7  1  0.23581600  0.59971300  0.95553400  1
loop_
_geom_bond_atom_site_label_1
_geom_bond_atom_site_label_2
_geom_bond_distance
_geom_bond_site_symmetry_2
Mg0 O3 2.072197 1_555
Mg0 O6 2.122355 1_555
Mg0 O6 2.135132 1_455
Mg0 O5 2.168809 1_455
Mg0 O5 2.184273 1_555
Mo0 O1 1.959005 1_555
Mo0 O4 2.042214 1_655
Mo0 O4 2.089489 1_555
Mo0 O3 2.142129 1_555
Mo0 O3 2.188033 1_655
Mo0 O6 2.244555 1_555
Mo1 O7 1.950795 1_554
Mo1 O2 1.967180 1_455
Mo1 O3 2.053344 1_555
Mo1 O2 2.095888 1_555
Mo1 O5 2.295053 1_455
Mo1 O5 2.451073 1_555
Mo2 O0 2.105092 1_555
Mo2 O1 2.125769 1_555
Mo2 O1 2.137871 1_655
Mo2 O7 2.138578 1_555
Mo2 O7 2.152084 1_655
Mo2 O5 2.240302 1_556
Mo3 O0 2.069985 1_455
Mo3 O0 2.072983 1_555
Mo3 O2 2.174457 1_555
Mo3 O4 2.175541 1_565
Mo3 O6 2.324761 1_465
Mo3 O6 2.338657 1_565
