# generated using pymatgen
data_NaBi(MoO4)2
_symmetry_space_group_name_H-M   'P 1'
_cell_length_a   6.93707613
_cell_length_b   6.93707613
_cell_length_c   6.93707613
_cell_angle_alpha   134.82608469
_cell_angle_beta   134.82608469
_cell_angle_gamma   65.80054501
_symmetry_Int_Tables_number   1
_chemical_formula_structural   NaBi(MoO4)2
_chemical_formula_sum   'Na1 Bi1 Mo2 O8'
_cell_volume   165.39630330
_cell_formula_units_Z   1
loop_
 _symmetry_equiv_pos_site_id
 _symmetry_equiv_pos_as_xyz
  1  'x, y, z'
loop_
 _atom_site_type_symbol
 _atom_site_label
 _atom_site_symmetry_multiplicity
 _atom_site_fract_x
 _atom_site_fract_y
 _atom_site_fract_z
 _atom_site_occupancy
  Na  Na0  1  0.75000000  0.25000000  0.50000000  1
  Bi  Bi0  1  0.50000000  0.50000000  0.00000000  1
  Mo  Mo0  1  0.00000000  0.00000000  0.00000000  1
  Mo  Mo1  1  0.25000000  0.75000000  0.50000000  1
  O  O0  1  0.48094300  0.07816600  0.88656400  1
  O  O1  1  0.19160200  0.59437900  0.11343600  1
  O  O2  1  0.92183400  0.80839800  0.40277800  1
  O  O3  1  0.40562100  0.51905700  0.59722200  1
  O  O4  1  0.32465700  0.92672800  0.08668900  1
  O  O5  1  0.84003900  0.23796800  0.91331100  1
  O  O6  1  0.07327200  0.15996100  0.39792900  1
  O  O7  1  0.76203200  0.67534300  0.60207100  1
loop_
_geom_bond_atom_site_label_1
_geom_bond_atom_site_label_2
_geom_bond_distance
_geom_bond_site_symmetry_2
Na0 O5 2.527347 1_555
Na0 O4 2.527347 1_545
Na0 O7 2.527347 1_555
Na0 O6 2.527347 1_655
Na0 O3 2.546975 1_555
Na0 O0 2.546978 1_554
Na0 O1 2.546978 1_656
Na0 O2 2.546980 1_545
Bi0 O2 2.474614 1_555
Bi0 O0 2.474616 1_554
Bi0 O1 2.474616 1_555
Bi0 O3 2.474622 1_554
Bi0 O5 2.484684 1_554
Bi0 O6 2.484684 1_554
Bi0 O7 2.484684 1_555
Bi0 O4 2.484684 1_555
Mo0 O7 1.809744 1_444
Mo0 O6 1.809744 1_555
Mo0 O4 1.809744 1_545
Mo0 O5 1.809744 1_454
Mo1 O3 1.807173 1_555
Mo1 O0 1.807177 1_565
Mo1 O1 1.807177 1_555
Mo1 O2 1.807180 1_455
