# generated using pymatgen
data_Zn3W2O7
_symmetry_space_group_name_H-M   'P 1'
_cell_length_a   9.83238476
_cell_length_b   9.83238476
_cell_length_c   5.38912000
_cell_angle_alpha   90.00000000
_cell_angle_beta   90.00000000
_cell_angle_gamma   147.84620598
_symmetry_Int_Tables_number   1
_chemical_formula_structural   Zn3W2O7
_chemical_formula_sum   'Zn6 W4 O14'
_cell_volume   277.27154853
_cell_formula_units_Z   2
loop_
 _symmetry_equiv_pos_site_id
 _symmetry_equiv_pos_as_xyz
  1  'x, y, z'
loop_
 _atom_site_type_symbol
 _atom_site_label
 _atom_site_symmetry_multiplicity
 _atom_site_fract_x
 _atom_site_fract_y
 _atom_site_fract_z
 _atom_site_occupancy
  Zn  Zn0  1  0.74026900  0.74026900  0.26049700  1
  Zn  Zn1  1  0.25973100  0.25973100  0.76049700  1
  Zn  Zn2  1  0.98518600  0.57826600  0.21844500  1
  Zn  Zn3  1  0.01481400  0.42173400  0.71844500  1
  Zn  Zn4  1  0.57826600  0.98518600  0.21844500  1
  Zn  Zn5  1  0.42173400  0.01481400  0.71844500  1
  W  W0  1  0.14937000  0.35627000  0.24274600  1
  W  W1  1  0.85063000  0.64373000  0.74274600  1
  W  W2  1  0.64373000  0.85063000  0.74274600  1
  W  W3  1  0.35627000  0.14937000  0.24274600  1
  O  O0  1  0.33969200  0.92915900  0.34337900  1
  O  O1  1  0.66030800  0.07084100  0.84337900  1
  O  O2  1  0.07084100  0.66030800  0.84337900  1
  O  O3  1  0.92915900  0.33969200  0.34337900  1
  O  O4  1  0.55525600  0.28965000  0.90571000  1
  O  O5  1  0.44474400  0.71035000  0.40571000  1
  O  O6  1  0.71035000  0.44474400  0.40571000  1
  O  O7  1  0.28965000  0.55525600  0.90571000  1
  O  O8  1  0.00149800  0.84838100  0.08079500  1
  O  O9  1  0.99850200  0.15161900  0.58079500  1
  O  O10  1  0.37612500  0.37612500  0.13735000  1
  O  O11  1  0.62387500  0.62387500  0.63735000  1
  O  O12  1  0.84838100  0.00149800  0.08079500  1
  O  O13  1  0.15161900  0.99850200  0.58079500  1
loop_
_geom_bond_atom_site_label_1
_geom_bond_atom_site_label_2
_geom_bond_distance
_geom_bond_site_symmetry_2
O0 Zn4 2.017740 1_555
O0 Zn2 2.035574 1_455
O0 Zn5 2.072491 1_565
O0 W3 2.100280 1_565
O1 Zn5 2.017740 1_555
O1 Zn3 2.035574 1_655
O1 Zn4 2.072491 1_546
O1 W2 2.100280 1_545
O2 Zn3 2.017740 1_555
O2 Zn5 2.035574 1_565
O2 Zn2 2.072491 1_456
O2 W1 2.100280 1_455
O3 Zn2 2.017740 1_555
O3 Zn4 2.035574 1_545
O3 Zn3 2.072491 1_655
O3 W0 2.100280 1_655
O4 Zn5 2.009308 1_555
O4 W1 2.050866 1_555
O4 W3 2.111879 1_556
O5 Zn4 2.009308 1_555
O5 W0 2.050866 1_555
O5 W2 2.111879 1_555
O6 Zn2 2.009308 1_555
O6 W3 2.050866 1_555
O6 W1 2.111879 1_555
O7 Zn3 2.009308 1_555
O7 W2 2.050866 1_555
O7 W0 2.111879 1_556
O8 Zn0 2.010460 1_455
O8 W3 2.051364 1_565
O8 W1 2.124660 1_454
O9 Zn1 2.010460 1_655
O9 W2 2.051364 1_545
O9 W0 2.124660 1_655
O10 Zn0 2.091128 1_555
O10 Zn1 2.127520 1_554
O10 W3 2.143500 1_555
O10 W0 2.143500 1_555
O11 Zn1 2.091128 1_555
O11 Zn0 2.127520 1_555
O11 W1 2.143500 1_555
O11 W2 2.143500 1_555
O12 Zn0 2.010460 1_545
O12 W0 2.051364 1_655
O12 W2 2.124660 1_544
O13 Zn1 2.010460 1_565
O13 W1 2.051364 1_455
O13 W3 2.124660 1_565
