# generated using pymatgen
data_Sm2EuSe4
_symmetry_space_group_name_H-M   'P 1'
_cell_length_a   7.72840101
_cell_length_b   7.72836357
_cell_length_c   7.72831580
_cell_angle_alpha   109.35869727
_cell_angle_beta   109.35877018
_cell_angle_gamma   109.69568780
_symmetry_Int_Tables_number   1
_chemical_formula_structural   Sm2EuSe4
_chemical_formula_sum   'Sm4 Eu2 Se8'
_cell_volume   355.33592668
_cell_formula_units_Z   2
loop_
 _symmetry_equiv_pos_site_id
 _symmetry_equiv_pos_as_xyz
  1  'x, y, z'
loop_
 _atom_site_type_symbol
 _atom_site_label
 _atom_site_symmetry_multiplicity
 _atom_site_fract_x
 _atom_site_fract_y
 _atom_site_fract_z
 _atom_site_occupancy
  Sm  Sm0  1  0.99859535  0.37498831  0.12369151  1
  Sm  Sm1  1  0.62502088  0.74871306  0.62361005  1
  Sm  Sm2  1  0.25129282  0.87490278  0.87631527  1
  Sm  Sm3  1  0.12509520  0.00140396  0.37639582  1
  Eu  Eu0  1  0.75000261  0.25000315  0.49999905  1
  Eu  Eu1  1  0.50000437  0.50000130  0.00000541  1
  Se  Se0  1  0.51639355  0.11696952  0.74932391  1
  Se  Se1  1  0.73389941  0.98280178  0.10075596  1
  Se  Se2  1  0.88306721  0.63234529  0.39942024  1
  Se  Se3  1  0.36684340  0.26610160  0.24889613  1
  Se  Se4  1  0.88202996  0.63316116  0.89925134  1
  Se  Se5  1  0.23291759  0.48360257  0.60056829  1
  Se  Se6  1  0.36762398  0.76704346  0.25067466  1
  Se  Se7  1  0.01721167  0.11796207  0.75109437  1
loop_
_geom_bond_atom_site_label_1
_geom_bond_atom_site_label_2
_geom_bond_distance
_geom_bond_site_symmetry_2
Eu0 Se1 3.024577 1_545
Eu0 Se7 3.024599 1_655
Eu0 Se3 3.024702 1_555
Eu0 Se4 3.024743 1_555
Eu0 Se5 3.224501 1_655
Eu0 Se2 3.224514 1_555
Eu0 Se0 3.224581 1_555
Eu0 Se6 3.224808 1_545
Eu1 Se6 3.024158 1_555
Eu1 Se0 3.024161 1_554
Eu1 Se5 3.024253 1_554
Eu1 Se2 3.024287 1_555
Eu1 Se4 3.223300 1_554
Eu1 Se3 3.223380 1_555
Eu1 Se7 3.223402 1_554
Eu1 Se1 3.223446 1_555
Se0 Sm2 2.937238 1_545
Se0 Sm3 2.990669 1_555
Se0 Sm1 3.172795 1_545
Se0 Sm0 3.202042 1_556
Se1 Sm0 2.937178 1_565
Se1 Sm3 2.988857 1_665
Se1 Sm1 3.173785 1_554
Se1 Sm2 3.204822 1_554
Se2 Sm3 2.937107 1_665
Se2 Sm0 2.990389 1_555
Se2 Sm2 3.172783 1_655
Se2 Sm1 3.202275 1_555
Se3 Sm3 2.937178 1_555
Se3 Sm2 2.988828 1_544
Se3 Sm0 3.173708 1_455
Se3 Sm1 3.204852 1_555
Se4 Sm2 2.937207 1_655
Se4 Sm1 2.988705 1_555
Se4 Sm3 3.173732 1_666
Se4 Sm0 3.204884 1_556
Se5 Sm1 2.937320 1_555
Se5 Sm2 2.990688 1_555
Se5 Sm0 3.172757 1_455
Se5 Sm3 3.202020 1_555
Se6 Sm0 2.937001 1_455
Se6 Sm1 2.990604 1_555
Se6 Sm3 3.172818 1_565
Se6 Sm2 3.202050 1_554
Se7 Sm1 2.937223 1_445
Se7 Sm0 2.988890 1_456
Se7 Sm2 3.173791 1_545
Se7 Sm3 3.204648 1_555
