# generated using pymatgen
data_Ca(FeO2)2
_symmetry_space_group_name_H-M   'P 1'
_cell_length_a   6.32985181
_cell_length_b   6.32985181
_cell_length_c   20.71611990
_cell_angle_alpha   80.53512355
_cell_angle_beta   80.53512355
_cell_angle_gamma   59.23840055
_symmetry_Int_Tables_number   1
_chemical_formula_structural   Ca(FeO2)2
_chemical_formula_sum   'Ca8 Fe16 O32'
_cell_volume   700.37306876
_cell_formula_units_Z   8
loop_
 _symmetry_equiv_pos_site_id
 _symmetry_equiv_pos_as_xyz
  1  'x, y, z'
loop_
 _atom_site_type_symbol
 _atom_site_label
 _atom_site_symmetry_multiplicity
 _atom_site_fract_x
 _atom_site_fract_y
 _atom_site_fract_z
 _atom_site_occupancy
  Ca  Ca0  1  0.64716800  0.64716800  0.02823600  1
  Ca  Ca1  1  0.12464100  0.12464100  0.12604600  1
  Ca  Ca2  1  0.90325000  0.90325000  0.28461800  1
  Ca  Ca3  1  0.37510600  0.37510600  0.37540900  1
  Ca  Ca4  1  0.62522100  0.62522100  0.62532100  1
  Ca  Ca5  1  0.50468100  0.50468100  0.49706900  1
  Ca  Ca6  1  0.87702800  0.87702800  0.87525100  1
  Ca  Ca7  1  0.75082200  0.75082200  0.75147300  1
  Fe  Fe0  1  0.63387000  0.11665400  0.12517600  1
  Fe  Fe1  1  0.25097700  0.25097700  0.25185600  1
  Fe  Fe2  1  0.11665400  0.63387000  0.12517600  1
  Fe  Fe3  1  0.14803200  0.14803200  0.53482800  1
  Fe  Fe4  1  0.88872200  0.37298700  0.37342100  1
  Fe  Fe5  1  0.60177000  0.60177000  0.21973300  1
  Fe  Fe6  1  0.39711500  0.39711500  0.78291700  1
  Fe  Fe7  1  0.37298700  0.88872200  0.37342100  1
  Fe  Fe8  1  0.12753600  0.62418500  0.62446700  1
  Fe  Fe9  1  0.85451400  0.85451400  0.46544000  1
  Fe  Fe10  1  0.62418500  0.12753600  0.62446700  1
  Fe  Fe11  1  0.87512700  0.37208600  0.87491100  1
  Fe  Fe12  1  0.37208600  0.87512800  0.87491100  1
  Fe  Fe13  1  0.10369100  0.10369100  0.71575400  1
  Fe  Fe14  1  0.99496500  0.99496500  0.00499100  1
  Fe  Fe15  1  0.35052400  0.35052400  0.96960700  1
  O  O0  1  0.25997200  0.81058500  0.06434000  1
  O  O1  1  0.92346500  0.92346500  0.17707200  1
  O  O2  1  0.81058500  0.25997200  0.06434000  1
  O  O3  1  0.82546800  0.82546800  0.06697600  1
  O  O4  1  0.43276400  0.43276400  0.18629400  1
  O  O5  1  0.51007900  0.06866900  0.31247900  1
  O  O6  1  0.44590400  0.95407200  0.18953500  1
  O  O7  1  0.17727400  0.17727400  0.43822300  1
  O  O8  1  0.06866900  0.51007900  0.31247900  1
  O  O9  1  0.32214300  0.32214300  0.06505000  1
  O  O10  1  0.08635100  0.08635100  0.31595300  1
  O  O11  1  0.95407200  0.44590400  0.18953500  1
  O  O12  1  0.80740300  0.28999300  0.56644800  1
  O  O13  1  0.69805800  0.69805800  0.42658400  1
  O  O14  1  0.72030800  0.18876500  0.42946600  1
  O  O15  1  0.42549700  0.42549700  0.68391100  1
  O  O16  1  0.28999300  0.80740300  0.56644800  1
  O  O17  1  0.57527100  0.57527100  0.31489600  1
  O  O18  1  0.31266500  0.31266500  0.56821700  1
  O  O19  1  0.18876500  0.72030800  0.42946600  1
  O  O20  1  0.94183500  0.94183500  0.68179200  1
  O  O21  1  0.06273100  0.53377300  0.81890600  1
  O  O22  1  0.96262000  0.44354600  0.68345900  1
  O  O23  1  0.67521900  0.67521900  0.91993600  1
  O  O24  1  0.53377300  0.06273100  0.81890600  1
  O  O25  1  0.82494200  0.82494200  0.56487200  1
  O  O26  1  0.55361600  0.55361600  0.81850500  1
  O  O27  1  0.44354600  0.96262000  0.68345900  1
  O  O28  1  0.17596100  0.17596100  0.93972500  1
  O  O29  1  0.19437900  0.70500100  0.94145300  1
  O  O30  1  0.07491700  0.07491700  0.81586400  1
  O  O31  1  0.70500100  0.19437900  0.94145300  1
loop_
_geom_bond_atom_site_label_1
_geom_bond_atom_site_label_2
_geom_bond_distance
_geom_bond_site_symmetry_2
Ca0 O0 2.166676 1_555
Ca0 O2 2.166676 1_555
Ca0 O23 2.206086 1_554
Ca0 O3 2.256185 1_555
Ca1 O2 2.247975 1_455
Ca1 O0 2.247975 1_545
Ca1 O1 2.265813 1_445
Ca1 O11 2.279818 1_455
Ca1 O6 2.279818 1_545
Ca1 O9 2.298290 1_555
Ca2 O5 2.164232 1_565
Ca2 O8 2.164232 1_655
Ca2 O1 2.196742 1_555
Ca2 O10 2.230902 1_665
Ca3 O5 2.227567 1_555
Ca3 O8 2.227567 1_555
Ca3 O19 2.270198 1_555
Ca3 O14 2.270198 1_555
Ca3 O7 2.315551 1_555
Ca3 O17 2.319384 1_555
Ca4 O12 2.281540 1_555
Ca4 O16 2.281540 1_555
Ca4 O22 2.283046 1_555
Ca4 O27 2.283046 1_555
Ca4 O15 2.301156 1_555
Ca4 O25 2.314764 1_555
Ca5 O16 2.276822 1_555
Ca5 O12 2.276822 1_555
Ca5 O14 2.307266 1_555
Ca5 O19 2.307266 1_555
Ca5 O18 2.336614 1_555
Ca5 O13 2.342158 1_555
Ca6 O23 2.238736 1_555
Ca6 O24 2.288084 1_565
Ca6 O21 2.288084 1_655
Ca6 O30 2.289753 1_665
Ca6 O31 2.297645 1_565
Ca6 O29 2.297645 1_655
Ca7 O27 2.275595 1_555
Ca7 O22 2.275595 1_555
Ca7 O21 2.288709 1_655
Ca7 O24 2.288709 1_565
Ca7 O20 2.314065 1_555
Ca7 O26 2.344891 1_555
Fe0 O2 1.964914 1_555
Fe0 O1 1.983472 1_545
Fe0 O3 2.070048 1_545
Fe0 O6 2.128815 1_545
Fe0 O9 2.187887 1_555
Fe0 O4 2.219199 1_555
Fe1 O8 1.965578 1_555
Fe1 O5 1.965578 1_555
Fe1 O10 2.033610 1_555
Fe1 O11 2.150177 1_455
Fe1 O6 2.150177 1_545
Fe1 O4 2.195285 1_555
Fe2 O0 1.964914 1_555
Fe2 O1 1.983472 1_455
Fe2 O3 2.070048 1_455
Fe2 O11 2.128815 1_455
Fe2 O9 2.187887 1_555
Fe2 O4 2.219199 1_555
Fe3 O12 1.905943 1_455
Fe3 O16 1.905943 1_545
Fe3 O7 1.965969 1_555
Fe3 O18 2.058010 1_555
Fe4 O8 1.955029 1_655
Fe4 O10 2.042789 1_655
Fe4 O14 2.064823 1_555
Fe4 O7 2.148903 1_655
Fe4 O13 2.161316 1_555
Fe4 O17 2.174375 1_555
Fe5 O17 1.937522 1_555
Fe5 O6 1.957370 1_555
Fe5 O11 1.957370 1_555
Fe5 O4 2.104014 1_555
Fe6 O24 1.898506 1_555
Fe6 O21 1.898506 1_555
Fe6 O26 1.997614 1_555
Fe6 O15 2.015410 1_555
Fe7 O5 1.955029 1_565
Fe7 O10 2.042789 1_565
Fe7 O19 2.064823 1_555
Fe7 O7 2.148903 1_565
Fe7 O13 2.161316 1_555
Fe7 O17 2.174375 1_555
Fe8 O16 2.049904 1_555
Fe8 O22 2.057293 1_455
Fe8 O15 2.117416 1_555
Fe8 O18 2.135948 1_555
Fe8 O25 2.140002 1_455
Fe8 O20 2.177922 1_455
Fe9 O19 1.898566 1_655
Fe9 O14 1.898566 1_565
Fe9 O25 2.023675 1_555
Fe9 O13 2.033993 1_555
Fe10 O12 2.049904 1_555
Fe10 O27 2.057293 1_545
Fe10 O15 2.117416 1_555
Fe10 O18 2.135948 1_555
Fe10 O25 2.140002 1_545
Fe10 O20 2.177922 1_545
Fe11 O23 1.967157 1_555
Fe11 O21 2.050193 1_655
Fe11 O30 2.109141 1_655
Fe11 O31 2.136848 1_555
Fe11 O26 2.185379 1_555
Fe11 O28 2.201043 1_655
Fe12 O23 1.967157 1_555
Fe12 O24 2.050188 1_565
Fe12 O30 2.109141 1_565
Fe12 O29 2.136853 1_555
Fe12 O26 2.185383 1_555
Fe12 O28 2.201038 1_565
Fe13 O22 1.905490 1_455
Fe13 O27 1.905490 1_545
Fe13 O20 2.035228 1_445
Fe13 O30 2.037853 1_555
Fe14 O0 1.972640 1_655
Fe14 O2 1.972640 1_565
Fe14 O3 2.054839 1_555
Fe14 O31 2.138421 1_564
Fe14 O29 2.138421 1_654
Fe14 O28 2.185634 1_664
Fe15 O9 1.942491 1_556
Fe15 O31 1.960168 1_555
Fe15 O29 1.960168 1_555
Fe15 O28 2.126953 1_555
