# generated using pymatgen
data_BaCaPrBiO6
_symmetry_space_group_name_H-M   'P 1'
_cell_length_a   6.08101206
_cell_length_b   6.19295625
_cell_length_c   8.72082642
_cell_angle_alpha   90.15465876
_cell_angle_beta   89.53378232
_cell_angle_gamma   90.10799318
_symmetry_Int_Tables_number   1
_chemical_formula_structural   BaCaPrBiO6
_chemical_formula_sum   'Ba2 Ca2 Pr2 Bi2 O12'
_cell_volume   328.40881430
_cell_formula_units_Z   2
loop_
 _symmetry_equiv_pos_site_id
 _symmetry_equiv_pos_as_xyz
  1  'x, y, z'
loop_
 _atom_site_type_symbol
 _atom_site_label
 _atom_site_symmetry_multiplicity
 _atom_site_fract_x
 _atom_site_fract_y
 _atom_site_fract_z
 _atom_site_occupancy
  Ba  Ba0  1  0.99338145  0.04032073  0.25066812  1
  Ba  Ba1  1  0.00661855  0.95967927  0.74933188  1
  Ca  Ca0  1  0.51103027  0.54043433  0.25375479  1
  Ca  Ca1  1  0.48896973  0.45956567  0.74624521  1
  Pr  Pr0  1  0.50000000  0.00000000  -0.00000000  1
  Pr  Pr1  1  -0.00000000  0.50000000  0.50000000  1
  Bi  Bi0  1  -0.00000000  0.50000000  -0.00000000  1
  Bi  Bi1  1  0.50000000  0.00000000  0.50000000  1
  O  O0  1  0.19135403  0.21836854  0.95490816  1
  O  O1  1  0.32083526  0.70780517  0.56404430  1
  O  O2  1  0.80864597  0.78163146  0.04509184  1
  O  O3  1  0.67916474  0.29219483  0.43595570  1
  O  O4  1  0.28578395  0.68680590  0.93052376  1
  O  O5  1  0.21523885  0.19417041  0.53503334  1
  O  O6  1  0.71421605  0.31319410  0.06947624  1
  O  O7  1  0.78476115  0.80582959  0.46496666  1
  O  O8  1  0.42459365  0.92851360  0.26374065  1
  O  O9  1  0.12357135  0.48720863  0.23515193  1
  O  O10  1  0.57540635  0.07148640  0.73625935  1
  O  O11  1  0.87642865  0.51279137  0.76484807  1
loop_
_geom_bond_atom_site_label_1
_geom_bond_atom_site_label_2
_geom_bond_distance
_geom_bond_site_symmetry_2
Ba0 O2 2.655776 1_545
Ba0 O7 2.679558 1_545
Ba0 O8 2.716715 1_645
Ba0 O9 2.880359 1_655
Ba0 O6 2.881553 1_555
Ba0 O3 2.939812 1_555
Ba0 O5 2.985744 1_655
Ba0 O0 3.045914 1_654
Ba1 O0 2.655776 1_565
Ba1 O5 2.679558 1_565
Ba1 O10 2.716715 1_465
Ba1 O11 2.880359 1_455
Ba1 O4 2.881553 1_555
Ba1 O1 2.939812 1_555
Ba1 O7 2.985744 1_455
Ba1 O2 3.045914 1_456
Ca0 O9 2.385243 1_555
Ca0 O3 2.445210 1_555
Ca0 O6 2.460038 1_555
Ca0 O8 2.462291 1_555
Ca0 O2 2.961224 1_555
Ca0 O7 2.981294 1_555
Ca1 O11 2.385243 1_555
Ca1 O1 2.445210 1_555
Ca1 O4 2.460038 1_555
Ca1 O10 2.462291 1_555
Ca1 O0 2.961224 1_555
Ca1 O5 2.981294 1_555
Bi0 O2 2.132406 1_455
Bi0 O0 2.132406 1_554
Bi0 O6 2.169029 1_455
Bi0 O4 2.169029 1_554
Bi0 O11 2.191475 1_454
Bi0 O9 2.191475 1_555
Bi1 O5 2.129587 1_555
Bi1 O7 2.129587 1_545
Bi1 O10 2.158957 1_555
Bi1 O8 2.158957 1_545
Bi1 O1 2.182098 1_545
Bi1 O3 2.182098 1_555
O0 Pr0 2.351724 1_556
O1 Pr1 2.403940 1_555
O2 Pr0 2.351724 1_565
O3 Pr1 2.403940 1_655
O4 Pr0 2.413092 1_566
O5 Pr1 2.326511 1_555
O6 Pr0 2.413092 1_555
O7 Pr1 2.326511 1_655
O8 Pr0 2.384113 1_565
O9 Pr1 2.424173 1_555
O10 Pr0 2.384113 1_556
O11 Pr1 2.424173 1_655
