# generated using pymatgen
data_HfTaTiB4MoC4
_symmetry_space_group_name_H-M   'P 1'
_cell_length_a   5.73308000
_cell_length_b   5.74000782
_cell_length_c   7.44502711
_cell_angle_alpha   90.03116168
_cell_angle_beta   89.98643992
_cell_angle_gamma   119.95546292
_symmetry_Int_Tables_number   1
_chemical_formula_structural   HfTaTiB4MoC4
_chemical_formula_sum   'Hf2 Ta2 Ti2 B8 Mo2 C8'
_cell_volume   212.27168481
_cell_formula_units_Z   2
loop_
 _symmetry_equiv_pos_site_id
 _symmetry_equiv_pos_as_xyz
  1  'x, y, z'
loop_
 _atom_site_type_symbol
 _atom_site_label
 _atom_site_symmetry_multiplicity
 _atom_site_fract_x
 _atom_site_fract_y
 _atom_site_fract_z
 _atom_site_occupancy
  Hf  Hf0  1  0.50000000  0.00000000  0.00000000  1
  Hf  Hf1  1  0.00000000  0.00000000  0.50000000  1
  Ta  Ta0  1  0.00000000  0.00000000  0.00000000  1
  Ta  Ta1  1  0.00000000  0.50000000  0.50000000  1
  Ti  Ti0  1  0.00000000  0.50000000  0.00000000  1
  Ti  Ti1  1  0.50000000  0.50000000  0.50000000  1
  B  B0  1  0.33570200  0.16983700  0.74833100  1
  B  B1  1  0.33275200  0.66467400  0.74768500  1
  B  B2  1  0.83037200  0.66326200  0.75228200  1
  B  B3  1  0.83380800  0.16903900  0.75122000  1
  B  B4  1  0.16619200  0.83096100  0.24878000  1
  B  B5  1  0.16962800  0.33673800  0.24771800  1
  B  B6  1  0.66724800  0.33532600  0.25231500  1
  B  B7  1  0.66429800  0.83016300  0.25166900  1
  Mo  Mo0  1  0.50000000  0.50000000  0.00000000  1
  Mo  Mo1  1  0.50000000  0.00000000  0.50000000  1
  C  C0  1  0.33348200  0.16742600  0.25092600  1
  C  C1  1  0.33235900  0.66611500  0.25029000  1
  C  C2  1  0.83314400  0.66620000  0.24853100  1
  C  C3  1  0.83472700  0.16854100  0.24947500  1
  C  C4  1  0.16527300  0.83145900  0.75052500  1
  C  C5  1  0.16685600  0.33380000  0.75146900  1
  C  C6  1  0.66764100  0.33388500  0.74971000  1
  C  C7  1  0.66651800  0.83257400  0.74907400  1
loop_
_geom_bond_atom_site_label_1
_geom_bond_atom_site_label_2
_geom_bond_distance
_geom_bond_site_symmetry_2
Hf0 Ta0 2.866540 1_555
Hf0 Ta0 2.866540 1_655
Hf0 Mo0 2.870004 1_555
Hf0 Mo0 2.870004 1_545
Hf0 Ti0 2.870204 1_545
Hf0 Ti0 2.870204 1_655
Hf1 Mo1 2.866540 1_555
Hf1 Mo1 2.866540 1_455
Hf1 Ta1 2.870004 1_545
Hf1 Ta1 2.870004 1_555
Hf1 Ti1 2.870204 1_555
Hf1 Ti1 2.870204 1_445
Ta0 Ti0 2.870004 1_555
Ta0 Ti0 2.870004 1_545
Ta1 Ti1 2.866540 1_455
Ta1 Ti1 2.866540 1_555
B0 C6 1.648868 1_555
B0 C5 1.653216 1_555
B0 C4 1.682932 1_545
B0 Ti1 2.473310 1_555
B0 Mo1 2.483952 1_555
B0 Hf1 2.489712 1_555
B0 Mo0 2.490734 1_556
B0 Hf0 2.503624 1_556
B0 Ta0 2.508333 1_556
B1 C5 1.645767 1_555
B1 C7 1.657942 1_555
B1 C4 1.660372 1_555
B1 Ti1 2.472982 1_555
B1 Ta1 2.476320 1_555
B1 Mo1 2.486866 1_565
B1 Mo0 2.499894 1_556
B1 Ti0 2.502187 1_556
B1 Hf0 2.511317 1_566
B2 C6 1.638205 1_555
B2 C7 1.655074 1_555
B2 C4 1.663592 1_655
B2 Mo0 2.468725 1_556
B2 Ti0 2.477521 1_656
B2 Ta0 2.490557 1_666
B2 Ti1 2.494120 1_555
B2 Ta1 2.501817 1_655
B2 Hf1 2.517037 1_665
B3 C6 1.644144 1_555
B3 C5 1.654341 1_655
B3 C7 1.673392 1_545
B3 Ti0 2.477236 1_656
B3 Hf0 2.486027 1_556
B3 Ta0 2.491152 1_656
B3 Ta1 2.492055 1_655
B3 Mo1 2.499479 1_555
B3 Hf1 2.503568 1_655
B4 C1 1.644144 1_555
B4 C2 1.654341 1_455
B4 C0 1.673392 1_565
B4 Ti0 2.477236 1_555
B4 Hf0 2.486027 1_565
B4 Ta0 2.491152 1_565
B4 Ta1 2.492055 1_555
B4 Mo1 2.499479 1_565
B4 Hf1 2.503568 1_565
B5 C1 1.638205 1_555
B5 C0 1.655074 1_555
B5 C3 1.663592 1_455
B5 Mo0 2.468725 1_555
B5 Ti0 2.477521 1_555
B5 Ta0 2.490557 1_555
B5 Ti1 2.494120 1_555
B5 Ta1 2.501817 1_555
B5 Hf1 2.517037 1_555
B6 C2 1.645767 1_555
B6 C0 1.657942 1_555
B6 C3 1.660372 1_555
B6 Ti1 2.472982 1_555
B6 Ta1 2.476320 1_655
B6 Mo1 2.486866 1_555
B6 Mo0 2.499894 1_555
B6 Ti0 2.502187 1_655
B6 Hf0 2.511317 1_555
B7 C1 1.648868 1_555
B7 C2 1.653216 1_555
B7 C3 1.682932 1_565
B7 Ti1 2.473310 1_555
B7 Mo1 2.483952 1_565
B7 Hf1 2.489712 1_665
B7 Mo0 2.490734 1_555
B7 Hf0 2.503624 1_565
B7 Ta0 2.508333 1_665
Mo0 Ti0 2.866540 1_555
Mo0 Ti0 2.866540 1_655
Mo0 Ta0 2.870204 1_555
Mo0 Ta0 2.870204 1_665
Mo1 Ti1 2.870004 1_545
Mo1 Ti1 2.870004 1_555
Mo1 Ta1 2.870204 1_545
Mo1 Ta1 2.870204 1_655
C0 Ti1 2.484200 1_555
C0 Hf1 2.486540 1_555
C0 Mo1 2.488495 1_555
C0 Mo0 2.495721 1_555
C0 Ta0 2.496735 1_555
C0 Hf0 2.497671 1_555
C1 Ta1 2.486357 1_555
C1 Ti0 2.489486 1_555
C1 Ti1 2.491399 1_555
C1 Mo1 2.492075 1_565
C1 Mo0 2.493510 1_555
C1 Hf0 2.496514 1_565
C2 Ti0 2.481423 1_655
C2 Mo0 2.482297 1_555
C2 Ta0 2.486465 1_665
C2 Ti1 2.498744 1_555
C2 Ta1 2.498886 1_655
C2 Hf1 2.501571 1_665
C3 Ti0 2.483958 1_655
C3 Ta1 2.488596 1_655
C3 Ta0 2.489196 1_655
C3 Hf0 2.492791 1_555
C3 Hf1 2.496153 1_655
C3 Mo1 2.498728 1_555
C4 Ti0 2.483958 1_556
C4 Ta1 2.488596 1_555
C4 Ta0 2.489196 1_566
C4 Hf0 2.492791 1_566
C4 Hf1 2.496153 1_565
C4 Mo1 2.498728 1_565
C5 Ti0 2.481423 1_556
C5 Mo0 2.482297 1_556
C5 Ta0 2.486465 1_556
C5 Ti1 2.498744 1_555
C5 Ta1 2.498886 1_555
C5 Hf1 2.501571 1_555
C6 Ta1 2.486357 1_655
C6 Ti0 2.489486 1_656
C6 Ti1 2.491399 1_555
C6 Mo1 2.492075 1_555
C6 Mo0 2.493510 1_556
C6 Hf0 2.496514 1_556
C7 Ti1 2.484200 1_555
C7 Hf1 2.486540 1_665
C7 Mo1 2.488495 1_565
C7 Mo0 2.495721 1_556
C7 Ta0 2.496735 1_666
C7 Hf0 2.497671 1_566
