# generated using pymatgen
data_YbIn4Ni
_symmetry_space_group_name_H-M   'P 1'
_cell_length_a   4.45399196
_cell_length_b   7.40475528
_cell_length_c   8.51335494
_cell_angle_alpha   89.92591119
_cell_angle_beta   104.52853062
_cell_angle_gamma   89.94079918
_symmetry_Int_Tables_number   1
_chemical_formula_structural   YbIn4Ni
_chemical_formula_sum   'Yb2 In8 Ni2'
_cell_volume   271.79764861
_cell_formula_units_Z   2
loop_
 _symmetry_equiv_pos_site_id
 _symmetry_equiv_pos_as_xyz
  1  'x, y, z'
loop_
 _atom_site_type_symbol
 _atom_site_label
 _atom_site_symmetry_multiplicity
 _atom_site_fract_x
 _atom_site_fract_y
 _atom_site_fract_z
 _atom_site_occupancy
  Yb  Yb0  1  0.87686200  0.25320900  0.74560000  1
  Yb  Yb1  1  0.12588600  0.75259500  0.25493600  1
  In  In0  1  0.06977900  0.24866900  0.14056400  1
  In  In1  1  0.68314100  0.45466500  0.37162800  1
  In  In2  1  0.93064300  0.75166400  0.85863800  1
  In  In3  1  0.68476900  0.05059300  0.37313900  1
  In  In4  1  0.31398000  0.55035300  0.62600900  1
  In  In5  1  0.50165100  0.00197500  0.99866700  1
  In  In6  1  0.49955800  0.50328200  0.99978900  1
  In  In7  1  0.31370400  0.95489200  0.62671400  1
  Ni  Ni0  1  0.22538700  0.25294900  0.45585800  1
  Ni  Ni1  1  0.77089600  0.75197600  0.54311600  1
loop_
_geom_bond_atom_site_label_1
_geom_bond_atom_site_label_2
_geom_bond_distance
_geom_bond_site_symmetry_2
In0 Ni0 2.598695 1_555
In0 In5 3.108140 1_554
In0 In5 3.111410 1_454
In0 In6 3.131738 1_554
In0 In6 3.146163 1_454
In0 Yb0 3.255104 1_454
In0 In3 3.273142 1_455
In0 In3 3.292062 1_555
In0 In1 3.296030 1_455
In0 In1 3.313566 1_555
In0 Yb1 3.790841 1_545
In0 Yb1 3.850126 1_555
In1 Ni1 2.618139 1_555
In1 Ni0 2.763893 1_555
In1 Ni0 2.774720 1_655
In1 In3 2.992059 1_555
In1 In6 3.084958 1_554
In1 In4 3.111857 1_555
In1 In4 3.168890 1_655
In1 Yb1 3.275475 1_655
In1 Yb1 3.280254 1_555
In1 Yb0 3.422404 1_555
In2 Ni1 2.600525 1_555
In2 In5 3.106232 1_565
In2 In6 3.110060 1_555
In2 In6 3.115202 1_655
In2 In5 3.133539 1_665
In2 Yb1 3.266041 1_656
In2 In4 3.279985 1_655
In2 In7 3.280515 1_655
In2 In4 3.312867 1_555
In2 In7 3.312907 1_555
In2 Yb0 3.808128 1_555
In2 Yb0 3.827423 1_565
In3 Ni1 2.615718 1_545
In3 Ni0 2.765301 1_555
In3 Ni0 2.774627 1_655
In3 In5 3.107612 1_554
In3 In7 3.111672 1_545
In3 In7 3.157128 1_645
In3 Yb1 3.275769 1_645
In3 Yb1 3.292181 1_545
In3 Yb0 3.419261 1_555
In4 Ni0 2.612850 1_555
In4 Ni1 2.755487 1_555
In4 Ni1 2.776935 1_455
In4 In7 2.995526 1_555
In4 In6 3.099594 1_555
In4 Yb0 3.265864 1_455
In4 Yb0 3.296265 1_555
In4 Yb1 3.403176 1_555
In5 In7 3.085929 1_545
In5 Yb0 3.563403 1_555
In5 Yb1 3.577551 1_546
In5 Yb0 3.580135 1_455
In5 Yb1 3.582684 1_646
In6 Yb1 3.565699 1_556
In6 Yb0 3.572734 1_555
In6 Yb0 3.579627 1_455
In6 Yb1 3.590172 1_656
In7 Ni0 2.616166 1_565
In7 Ni1 2.763034 1_555
In7 Ni1 2.785000 1_455
In7 Yb0 3.267193 1_465
In7 Yb0 3.307414 1_565
In7 Yb1 3.412892 1_555
Ni0 Yb0 3.227285 1_455
Ni0 Yb0 3.303499 1_555
Ni1 Yb1 3.235005 1_655
Ni1 Yb1 3.276605 1_555
