# generated using pymatgen
data_MnFe3Sb2(PO4)6
_symmetry_space_group_name_H-M   'P 1'
_cell_length_a   8.86655811
_cell_length_b   8.86655811
_cell_length_c   8.86655825
_cell_angle_alpha   58.80728458
_cell_angle_beta   58.80728458
_cell_angle_gamma   58.80728898
_symmetry_Int_Tables_number   1
_chemical_formula_structural   MnFe3Sb2(PO4)6
_chemical_formula_sum   'Mn1 Fe3 Sb2 P6 O24'
_cell_volume   479.46548783
_cell_formula_units_Z   1
loop_
 _symmetry_equiv_pos_site_id
 _symmetry_equiv_pos_as_xyz
  1  'x, y, z'
loop_
 _atom_site_type_symbol
 _atom_site_label
 _atom_site_symmetry_multiplicity
 _atom_site_fract_x
 _atom_site_fract_y
 _atom_site_fract_z
 _atom_site_occupancy
  Mn  Mn0  1  0.14823000  0.14823000  0.14823000  1
  Fe  Fe0  1  0.85092100  0.85092100  0.85092100  1
  Fe  Fe1  1  0.64892400  0.64892400  0.64892400  1
  Fe  Fe2  1  0.35088700  0.35088700  0.35088700  1
  Sb  Sb0  1  0.99917900  0.99917900  0.99917900  1
  Sb  Sb1  1  0.49987500  0.49987500  0.49987500  1
  P  P0  1  0.46046800  0.04042800  0.74920700  1
  P  P1  1  0.04042800  0.74920700  0.46046800  1
  P  P2  1  0.74920700  0.46046800  0.04042800  1
  P  P3  1  0.25068000  0.54114300  0.95895200  1
  P  P4  1  0.95895200  0.25068000  0.54114300  1
  P  P5  1  0.54114300  0.95895200  0.25068000  1
  O  O0  1  0.69699100  0.49419600  0.88327400  1
  O  O1  1  0.49419600  0.88327400  0.69699100  1
  O  O2  1  0.08339900  0.73399000  0.93995400  1
  O  O3  1  0.88327400  0.69699100  0.49419600  1
  O  O4  1  0.19913700  0.38677900  0.98697600  1
  O  O5  1  0.41769900  0.56212600  0.76678400  1
  O  O6  1  0.93995400  0.08339900  0.73399000  1
  O  O7  1  0.76678400  0.41769900  0.56212600  1
  O  O8  1  0.61715400  0.00693200  0.80185100  1
  O  O9  1  0.56212600  0.76678400  0.41769900  1
  O  O10  1  0.26816300  0.05834100  0.91510000  1
  O  O11  1  0.00693200  0.80185100  0.61715400  1
  O  O12  1  0.98697600  0.19913700  0.38677900  1
  O  O13  1  0.73399000  0.93995400  0.08339900  1
  O  O14  1  0.44115000  0.23284100  0.58223200  1
  O  O15  1  0.38677900  0.98697600  0.19913700  1
  O  O16  1  0.23284100  0.58223200  0.44115000  1
  O  O17  1  0.05834100  0.91510000  0.26816300  1
  O  O18  1  0.58223200  0.44115000  0.23284100  1
  O  O19  1  0.80185100  0.61715400  0.00693200  1
  O  O20  1  0.11691900  0.30208100  0.50703700  1
  O  O21  1  0.91510000  0.26816300  0.05834100  1
  O  O22  1  0.50703700  0.11691900  0.30208100  1
  O  O23  1  0.30208100  0.50703700  0.11691900  1
loop_
_geom_bond_atom_site_label_1
_geom_bond_atom_site_label_2
_geom_bond_distance
_geom_bond_site_symmetry_2
Mn0 O4 1.977270 1_554
Mn0 O12 1.977270 1_455
Mn0 O15 1.977270 1_545
Mn0 O17 2.142543 1_545
Mn0 O10 2.142543 1_554
Mn0 O21 2.142543 1_455
Fe0 O19 1.933831 1_556
Fe0 O11 1.933832 1_655
Fe0 O8 1.933832 1_565
Fe0 O6 2.137996 1_565
Fe0 O13 2.137997 1_556
Fe0 O2 2.137997 1_655
Fe1 O3 1.933957 1_555
Fe1 O0 1.933957 1_555
Fe1 O1 1.933957 1_555
Fe1 O5 2.114141 1_555
Fe1 O9 2.114141 1_555
Fe1 O7 2.114141 1_555
Fe2 O20 1.934386 1_555
Fe2 O23 1.934386 1_555
Fe2 O22 1.934386 1_555
Fe2 O18 2.133655 1_555
Fe2 O14 2.133655 1_555
Fe2 O16 2.133655 1_555
O0 P2 1.529238 1_556
O1 P0 1.529238 1_565
O2 P3 1.576528 1_555
O2 Sb0 2.327251 1_455
O3 P1 1.529238 1_655
O4 P3 1.523776 1_555
O5 P3 1.572950 1_555
O5 Sb1 2.363580 1_555
O6 P4 1.576528 1_555
O6 Sb0 2.327251 1_545
O7 P4 1.572950 1_555
O7 Sb1 2.363580 1_555
O8 P0 1.528680 1_555
O9 P5 1.572950 1_555
O9 Sb1 2.363580 1_555
O10 P0 1.568333 1_555
O10 Sb0 2.359684 1_445
O11 P1 1.528680 1_555
O12 P4 1.523776 1_555
O13 P5 1.576528 1_555
O13 Sb0 2.327251 1_554
O14 P0 1.573360 1_555
O14 Sb1 2.345737 1_555
O15 P5 1.523776 1_555
O16 P1 1.573360 1_555
O16 Sb1 2.345737 1_555
O17 P1 1.568333 1_555
O17 Sb0 2.359684 1_454
O18 P2 1.573360 1_555
O18 Sb1 2.345737 1_555
O19 P2 1.528679 1_555
O20 P4 1.529909 1_455
O21 P2 1.568333 1_555
O21 Sb0 2.359684 1_544
O22 P5 1.529909 1_545
O23 P3 1.529909 1_554
