# generated using pymatgen
data_ScU3Sb5
_symmetry_space_group_name_H-M   'P 1'
_cell_length_a   9.32149659
_cell_length_b   9.32143650
_cell_length_c   6.29426207
_cell_angle_alpha   90.00901052
_cell_angle_beta   89.99581277
_cell_angle_gamma   120.00195117
_symmetry_Int_Tables_number   1
_chemical_formula_structural   ScU3Sb5
_chemical_formula_sum   'Sc2 U6 Sb10'
_cell_volume   473.62585108
_cell_formula_units_Z   2
loop_
 _symmetry_equiv_pos_site_id
 _symmetry_equiv_pos_as_xyz
  1  'x, y, z'
loop_
 _atom_site_type_symbol
 _atom_site_label
 _atom_site_symmetry_multiplicity
 _atom_site_fract_x
 _atom_site_fract_y
 _atom_site_fract_z
 _atom_site_occupancy
  Sc  Sc0  1  0.99996506  0.00003521  0.99997668  1
  Sc  Sc1  1  0.99996150  0.00003226  0.49998723  1
  U  U0  1  0.38653245  -0.00002381  0.74998818  1
  U  U1  1  0.38657752  0.38652872  0.25003898  1
  U  U2  1  0.00003098  0.61347315  0.25016312  1
  U  U3  1  0.00006785  0.38657231  0.74988728  1
  U  U4  1  0.61349351  0.61345130  0.75001119  1
  U  U5  1  0.61348204  0.00001645  0.25006545  1
  Sb  Sb0  1  0.66666257  0.33332175  0.50000656  1
  Sb  Sb1  1  0.33334406  0.66665490  0.00001996  1
  Sb  Sb2  1  0.73323031  0.99996502  0.74992073  1
  Sb  Sb3  1  0.73325289  0.73324756  0.25001919  1
  Sb  Sb4  1  0.33334428  0.66666222  0.50000207  1
  Sb  Sb5  1  0.66668415  0.33333161  0.99999051  1
  Sb  Sb6  1  0.26665630  0.99997619  0.25004217  1
  Sb  Sb7  1  0.26674296  0.26671222  0.74993024  1
  Sb  Sb8  1  -0.00001469  0.73330692  0.74984130  1
  Sb  Sb9  1  -0.00001274  0.26673601  0.25011015  1
loop_
_geom_bond_atom_site_label_1
_geom_bond_atom_site_label_2
_geom_bond_distance
_geom_bond_site_symmetry_2
Sb0 Sb5 3.147030 1_555
Sb0 Sb5 3.147232 1_554
Sb0 U5 3.291162 1_555
Sb0 U4 3.291364 1_555
Sb0 U1 3.291441 1_555
Sb0 U2 3.291527 1_655
Sb0 U0 3.291811 1_555
Sb0 U3 3.291886 1_655
Sb1 Sb4 3.147018 1_555
Sb1 Sb4 3.147244 1_554
Sb1 U3 3.291545 1_554
Sb1 U4 3.291812 1_554
Sb1 U5 3.291824 1_565
Sb1 U0 3.291973 1_564
Sb1 U2 3.291993 1_555
Sb1 U1 3.292136 1_555
Sb2 Sc1 2.941856 1_565
Sb2 Sc0 2.942479 1_565
Sb2 U4 3.194507 1_555
Sb2 U3 3.195232 1_665
Sb2 U0 3.231795 1_565
Sb2 U5 3.338522 1_565
Sb2 U5 3.340085 1_566
Sb3 Sc1 2.942276 1_565
Sb3 Sc0 2.942776 1_564
Sb3 U5 3.194739 1_565
Sb3 U2 3.194856 1_655
Sb3 U1 3.231630 1_555
Sb3 U4 3.339262 1_554
Sb3 U4 3.339344 1_555
Sb4 U3 3.290999 1_555
Sb4 U2 3.291200 1_555
Sb4 U0 3.291345 1_565
Sb4 U1 3.291598 1_555
Sb4 U5 3.291743 1_565
Sb4 U4 3.292105 1_555
Sb5 U1 3.291551 1_556
Sb5 U0 3.291704 1_555
Sb5 U4 3.291745 1_555
Sb5 U5 3.292012 1_556
Sb5 U2 3.292202 1_656
Sb5 U3 3.292268 1_655
Sb6 Sc1 2.942094 1_465
Sb6 Sc0 2.942677 1_464
Sb6 U2 3.194090 1_555
Sb6 U1 3.194483 1_565
Sb6 U5 3.232747 1_565
Sb6 U0 3.339378 1_565
Sb6 U0 3.339865 1_564
Sb7 Sc1 2.942066 1_455
Sb7 Sc0 2.942612 1_455
Sb7 U3 3.194531 1_555
Sb7 U0 3.194576 1_555
Sb7 U4 3.232075 1_555
Sb7 U1 3.338895 1_555
Sb7 U1 3.340008 1_556
Sb8 Sc1 2.942194 1_465
Sb8 Sc0 2.942732 1_465
Sb8 U4 3.194098 1_455
Sb8 U0 3.194495 1_565
Sb8 U3 3.232449 1_555
Sb8 U2 3.337484 1_555
Sb8 U2 3.341633 1_556
Sb9 Sc1 2.941906 1_455
Sb9 Sc0 2.942342 1_454
Sb9 U5 3.194307 1_455
Sb9 U1 3.195099 1_555
Sb9 U2 3.231884 1_555
Sb9 U3 3.337882 1_555
Sb9 U3 3.340857 1_554
