# generated using pymatgen
data_PrAs2Pd3
_symmetry_space_group_name_H-M   'P 1'
_cell_length_a   4.13495565
_cell_length_b   8.61319748
_cell_length_c   10.07421604
_cell_angle_alpha   107.33480203
_cell_angle_beta   90.00876725
_cell_angle_gamma   103.87301371
_symmetry_Int_Tables_number   1
_chemical_formula_structural   PrAs2Pd3
_chemical_formula_sum   'Pr3 As6 Pd9'
_cell_volume   331.51407278
_cell_formula_units_Z   3
loop_
 _symmetry_equiv_pos_site_id
 _symmetry_equiv_pos_as_xyz
  1  'x, y, z'
loop_
 _atom_site_type_symbol
 _atom_site_label
 _atom_site_symmetry_multiplicity
 _atom_site_fract_x
 _atom_site_fract_y
 _atom_site_fract_z
 _atom_site_occupancy
  Pr  Pr0  1  0.84536411  0.69094302  0.29878252  1
  Pr  Pr1  1  0.15464192  0.30905546  0.70121590  1
  Pr  Pr2  1  0.00000096  -0.00000128  -0.00000224  1
  As  As0  1  0.80031061  0.60008652  0.87061020  1
  As  As1  1  0.19969676  0.39990769  0.12939312  1
  As  As2  1  0.53608173  0.07357267  0.78446591  1
  As  As3  1  0.46392640  0.92643329  0.21553029  1
  As  As4  1  0.63571191  0.27247597  0.45279370  1
  As  As5  1  0.36429599  0.72752407  0.54720299  1
  Pd  Pd0  1  0.95540674  0.91105906  0.66622701  1
  Pd  Pd1  1  0.04459486  0.08894420  0.33377326  1
  Pd  Pd2  1  0.77861772  0.55653658  0.60868797  1
  Pd  Pd3  1  0.22136507  0.44345487  0.39131222  1
  Pd  Pd4  1  0.37375011  0.74687788  0.79668329  1
  Pd  Pd5  1  0.62622434  0.25311684  0.20331985  1
  Pd  Pd6  1  0.50001423  0.00001109  0.50000321  1
  Pd  Pd7  1  0.67711410  0.35450651  0.96624169  1
  Pd  Pd8  1  0.32288343  0.64549456  0.03375910  1
loop_
_geom_bond_atom_site_label_1
_geom_bond_atom_site_label_2
_geom_bond_distance
_geom_bond_site_symmetry_2
As0 Pd7 2.521836 1_555
As0 Pd2 2.550541 1_555
As0 Pd8 2.595011 1_656
As0 Pd8 2.596111 1_556
As0 Pd4 2.625714 1_555
As0 Pd4 2.626707 1_655
As0 Pr2 3.194653 1_666
As0 Pr1 3.248885 1_655
As0 Pr1 3.250205 1_555
As1 Pd8 2.521906 1_555
As1 Pd3 2.550514 1_555
As1 Pd7 2.595072 1_454
As1 Pd7 2.596085 1_554
As1 Pd5 2.625603 1_555
As1 Pd5 2.626812 1_455
As1 Pr2 3.194635 1_555
As1 Pr0 3.248901 1_455
As1 Pr0 3.250202 1_555
As2 Pd7 2.496220 1_555
As2 Pd0 2.556786 1_445
As2 Pd0 2.560369 1_545
As2 Pd6 2.740199 1_555
As2 Pd4 2.772062 1_545
As2 Pr1 3.138828 1_555
As2 Pr1 3.144162 1_655
As2 Pr2 3.190239 1_556
As2 Pr2 3.193374 1_656
As3 Pd8 2.496229 1_555
As3 Pd1 2.556773 1_665
As3 Pd1 2.560390 1_565
As3 Pd6 2.740287 1_565
As3 Pd5 2.771943 1_565
As3 Pr0 3.138887 1_555
As3 Pr0 3.144212 1_455
As3 Pr2 3.190211 1_665
As3 Pr2 3.193356 1_565
As4 Pd2 2.412156 1_555
As4 Pd6 2.466214 1_555
As4 Pd5 2.468378 1_555
As4 Pd1 2.632043 1_555
As4 Pd1 2.635884 1_655
As4 Pd3 2.690910 1_555
As4 Pd3 2.692696 1_655
As4 Pr1 3.186171 1_555
As4 Pr1 3.189217 1_655
As5 Pd3 2.412200 1_555
As5 Pd6 2.466349 1_565
As5 Pd4 2.468454 1_555
As5 Pd0 2.632039 1_555
As5 Pd0 2.635932 1_455
As5 Pd2 2.690901 1_555
As5 Pd2 2.692819 1_455
As5 Pr0 3.186153 1_555
As5 Pr0 3.189205 1_455
Pd0 Pd2 2.840659 1_555
Pd0 Pd6 2.896967 1_565
Pd0 Pd6 2.898398 1_665
Pd0 Pd4 2.998181 1_555
Pd0 Pd4 2.999861 1_655
Pd0 Pr2 3.213130 1_666
Pd0 Pr1 3.237260 1_665
Pd0 Pr0 3.592748 1_555
Pd1 Pd3 2.840563 1_555
Pd1 Pd6 2.896990 1_555
Pd1 Pd6 2.898319 1_455
Pd1 Pd5 2.998057 1_555
Pd1 Pd5 2.999867 1_455
Pd1 Pr2 3.213173 1_555
Pd1 Pr0 3.237296 1_445
Pd1 Pr1 3.592723 1_555
Pd2 Pd4 2.923021 1_655
Pd2 Pd4 2.923040 1_555
Pd2 Pd3 2.946382 1_655
Pd2 Pd3 2.950403 1_555
Pd2 Pr1 3.256244 1_655
Pd2 Pr1 3.258378 1_555
Pd2 Pr0 3.628283 1_555
Pd3 Pd5 2.922987 1_555
Pd3 Pd5 2.923027 1_455
Pd3 Pr0 3.256244 1_455
Pd3 Pr0 3.258481 1_555
Pd3 Pr1 3.628233 1_555
Pd4 Pd8 2.768738 1_556
Pd4 Pr2 3.206880 1_666
Pd4 Pr2 3.208189 1_566
Pd4 Pr1 3.488082 1_555
Pd5 Pd7 2.768791 1_554
Pd5 Pr2 3.206834 1_555
Pd5 Pr2 3.208281 1_655
Pd5 Pr0 3.488115 1_555
Pd6 Pr1 3.441275 1_555
Pd6 Pr0 3.441391 1_545
Pd6 Pr1 3.442275 1_655
Pd6 Pr0 3.442443 1_445
Pd7 Pd8 3.103976 1_556
Pd7 Pd8 3.106239 1_656
Pd7 Pr1 3.304375 1_555
Pd7 Pr1 3.306067 1_655
Pd7 Pr0 3.654015 1_556
Pd7 Pr2 3.714206 1_656
Pd7 Pr2 3.714517 1_556
Pd8 Pr0 3.304385 1_555
Pd8 Pr0 3.306026 1_455
Pd8 Pr1 3.654042 1_554
Pd8 Pr2 3.714184 1_565
Pd8 Pr2 3.714524 1_665
