# generated using pymatgen
data_ZnNi2P2O9
_symmetry_space_group_name_H-M   'P 1'
_cell_length_a   6.23456900
_cell_length_b   6.95437800
_cell_length_c   14.44124600
_cell_angle_alpha   90.00000000
_cell_angle_beta   90.00000000
_cell_angle_gamma   90.00000000
_symmetry_Int_Tables_number   1
_chemical_formula_structural   ZnNi2P2O9
_chemical_formula_sum   'Zn4 Ni8 P8 O36'
_cell_volume   626.13703819
_cell_formula_units_Z   4
loop_
 _symmetry_equiv_pos_site_id
 _symmetry_equiv_pos_as_xyz
  1  'x, y, z'
loop_
 _atom_site_type_symbol
 _atom_site_label
 _atom_site_symmetry_multiplicity
 _atom_site_fract_x
 _atom_site_fract_y
 _atom_site_fract_z
 _atom_site_occupancy
  Zn  Zn0  1  0.25000000  0.38601000  0.77318800  1
  Zn  Zn1  1  0.25000000  0.11399000  0.27318800  1
  Zn  Zn2  1  0.75000000  0.61399000  0.22681200  1
  Zn  Zn3  1  0.75000000  0.88601000  0.72681200  1
  Ni  Ni0  1  0.25000000  0.86047600  0.87413200  1
  Ni  Ni1  1  0.75000000  0.13952400  0.12586800  1
  Ni  Ni2  1  0.75000000  0.36047600  0.62586800  1
  Ni  Ni3  1  0.25000000  0.63952400  0.37413200  1
  Ni  Ni4  1  0.00000000  0.50000000  0.00000000  1
  Ni  Ni5  1  0.00000000  0.00000000  0.50000000  1
  Ni  Ni6  1  0.50000000  0.00000000  0.50000000  1
  Ni  Ni7  1  0.50000000  0.50000000  0.00000000  1
  P  P0  1  0.75000000  0.86883200  0.92751700  1
  P  P1  1  0.25000000  0.13116800  0.07248300  1
  P  P2  1  0.25000000  0.36883200  0.57248300  1
  P  P3  1  0.75000000  0.63116800  0.42751700  1
  P  P4  1  0.25000000  0.88384600  0.69709300  1
  P  P5  1  0.75000000  0.11615400  0.30290700  1
  P  P6  1  0.75000000  0.38384600  0.80290700  1
  P  P7  1  0.25000000  0.61615400  0.19709300  1
  O  O0  1  0.53859000  0.10451000  0.35990400  1
  O  O1  1  0.03859000  0.89549000  0.64009600  1
  O  O2  1  0.46141000  0.60451000  0.14009600  1
  O  O3  1  0.96141000  0.39549000  0.85990400  1
  O  O4  1  0.46141000  0.89549000  0.64009600  1
  O  O5  1  0.96141000  0.10451000  0.35990400  1
  O  O6  1  0.53859000  0.39549000  0.85990400  1
  O  O7  1  0.03859000  0.60451000  0.14009600  1
  O  O8  1  0.75000000  0.82301600  0.48233000  1
  O  O9  1  0.25000000  0.17698400  0.51767000  1
  O  O10  1  0.25000000  0.32301600  0.01767000  1
  O  O11  1  0.75000000  0.67698400  0.98233000  1
  O  O12  1  0.25000000  0.65354100  0.95433500  1
  O  O13  1  0.75000000  0.34645900  0.04566500  1
  O  O14  1  0.75000000  0.15354100  0.54566500  1
  O  O15  1  0.25000000  0.84645900  0.45433500  1
  O  O16  1  0.25000000  0.69805600  0.75764500  1
  O  O17  1  0.75000000  0.30194400  0.24235500  1
  O  O18  1  0.75000000  0.19805600  0.74235500  1
  O  O19  1  0.25000000  0.80194400  0.25764500  1
  O  O20  1  0.93805500  0.62831900  0.35753300  1
  O  O21  1  0.43805500  0.37168100  0.64246700  1
  O  O22  1  0.06194500  0.12831900  0.14246700  1
  O  O23  1  0.56194500  0.87168100  0.85753300  1
  O  O24  1  0.06194500  0.37168100  0.64246700  1
  O  O25  1  0.56194500  0.62831900  0.35753300  1
  O  O26  1  0.93805500  0.87168100  0.85753300  1
  O  O27  1  0.43805500  0.12831900  0.14246700  1
  O  O28  1  0.25000000  0.45174100  0.27329100  1
  O  O29  1  0.75000000  0.54825900  0.72670900  1
  O  O30  1  0.75000000  0.95174100  0.22670900  1
  O  O31  1  0.25000000  0.04825900  0.77329100  1
  O  O32  1  0.25000000  0.52717700  0.50057400  1
  O  O33  1  0.75000000  0.47282300  0.49942600  1
  O  O34  1  0.75000000  0.02717700  0.99942600  1
  O  O35  1  0.25000000  0.97282300  0.00057400  1
loop_
_geom_bond_atom_site_label_1
_geom_bond_atom_site_label_2
_geom_bond_distance
_geom_bond_site_symmetry_2
Ni0 O12 1.847301 1_555
Ni0 O31 1.956050 1_565
Ni0 O26 1.961108 1_455
Ni0 O23 1.961108 1_555
Ni0 O35 1.986111 1_556
Ni0 O16 2.026251 1_555
Ni1 O13 1.847301 1_555
Ni1 O30 1.956050 1_545
Ni1 O22 1.961108 1_655
Ni1 O27 1.961108 1_555
Ni1 O34 1.986111 1_554
Ni1 O17 2.026251 1_555
Ni2 O14 1.847301 1_555
Ni2 O29 1.956050 1_555
Ni2 O24 1.961108 1_655
Ni2 O21 1.961108 1_555
Ni2 O33 1.986111 1_555
Ni2 O18 2.026251 1_555
Ni3 O15 1.847301 1_555
Ni3 O28 1.956050 1_555
Ni3 O25 1.961108 1_555
Ni3 O20 1.961108 1_455
Ni3 O32 1.986111 1_555
Ni3 O19 2.026251 1_555
Ni4 O12 2.001103 1_554
Ni4 O13 2.001103 1_455
Ni4 O11 2.002344 1_454
Ni4 O10 2.002344 1_555
Ni4 O3 2.163170 1_454
Ni4 O7 2.163170 1_555
Ni5 O14 2.001103 1_455
Ni5 O15 2.001103 1_545
Ni5 O9 2.002344 1_555
Ni5 O8 2.002344 1_445
Ni5 O5 2.163170 1_455
Ni5 O1 2.163170 1_545
Ni6 O14 2.001103 1_555
Ni6 O15 2.001103 1_545
Ni6 O9 2.002344 1_555
Ni6 O8 2.002344 1_545
Ni6 O0 2.163170 1_555
Ni6 O4 2.163170 1_545
Ni7 O12 2.001103 1_554
Ni7 O13 2.001103 1_555
Ni7 O11 2.002344 1_554
Ni7 O10 2.002344 1_555
Ni7 O6 2.163170 1_554
Ni7 O2 2.163170 1_555
O0 P5 1.556059 1_555
O0 Zn1 2.193129 1_555
O1 P4 1.556059 1_555
O1 Zn3 2.193129 1_455
O2 P7 1.556059 1_555
O2 Zn2 2.193129 1_555
O3 P6 1.556059 1_555
O3 Zn0 2.193129 1_655
O4 P4 1.556059 1_555
O4 Zn3 2.193129 1_555
O5 P5 1.556059 1_555
O5 Zn1 2.193129 1_655
O6 P6 1.556059 1_555
O6 Zn0 2.193129 1_555
O7 P7 1.556059 1_555
O7 Zn2 2.193129 1_455
O8 P3 1.551330 1_555
O9 P2 1.551330 1_555
O10 P1 1.551330 1_555
O11 P0 1.551330 1_555
O16 P4 1.560147 1_555
O16 Zn0 2.181663 1_555
O17 P5 1.560147 1_555
O17 Zn2 2.181663 1_555
O18 P6 1.560147 1_555
O18 Zn3 2.181663 1_545
O19 P7 1.560147 1_555
O19 Zn1 2.181663 1_565
O20 P3 1.548043 1_555
O20 Zn2 2.224464 1_555
O21 P2 1.548043 1_555
O21 Zn0 2.224464 1_555
O22 P1 1.548043 1_555
O22 Zn1 2.224464 1_555
O23 P0 1.548043 1_555
O23 Zn3 2.224464 1_555
O24 P2 1.548043 1_555
O24 Zn0 2.224464 1_555
O25 P3 1.548043 1_555
O25 Zn2 2.224464 1_555
O26 P0 1.548043 1_555
O26 Zn3 2.224464 1_555
O27 P1 1.548043 1_555
O27 Zn1 2.224464 1_555
O28 P7 1.586886 1_555
O28 Zn1 2.348849 1_555
O29 P6 1.586886 1_555
O29 Zn3 2.348849 1_555
O30 P5 1.586886 1_565
O30 Zn2 2.348849 1_555
O31 P4 1.586886 1_545
O31 Zn0 2.348849 1_555
O32 P2 1.513609 1_555
O33 P3 1.513609 1_555
O34 P0 1.513609 1_545
O35 P1 1.513609 1_565
