# generated using pymatgen
data_Cr3N2
_symmetry_space_group_name_H-M   'P 1'
_cell_length_a   7.92139580
_cell_length_b   7.92139580
_cell_length_c   7.92139580
_cell_angle_alpha   109.47122063
_cell_angle_beta   109.47122063
_cell_angle_gamma   109.47122063
_symmetry_Int_Tables_number   1
_chemical_formula_structural   Cr3N2
_chemical_formula_sum   'Cr24 N16'
_cell_volume   382.63372989
_cell_formula_units_Z   8
loop_
 _symmetry_equiv_pos_site_id
 _symmetry_equiv_pos_as_xyz
  1  'x, y, z'
loop_
 _atom_site_type_symbol
 _atom_site_label
 _atom_site_symmetry_multiplicity
 _atom_site_fract_x
 _atom_site_fract_y
 _atom_site_fract_z
 _atom_site_occupancy
  Cr  Cr0  1  0.76498100  0.22167500  0.27321000  1
  Cr  Cr1  1  0.00822900  0.45669400  0.73501900  1
  Cr  Cr2  1  0.22679000  0.44846500  0.49177100  1
  Cr  Cr3  1  0.05153500  0.27832500  0.04330600  1
  Cr  Cr4  1  0.27832500  0.04330600  0.05153500  1
  Cr  Cr5  1  0.04330600  0.05153500  0.27832500  1
  Cr  Cr6  1  0.73501900  0.00822900  0.45669400  1
  Cr  Cr7  1  0.49177100  0.22679000  0.44846500  1
  Cr  Cr8  1  0.27321000  0.76498100  0.22167500  1
  Cr  Cr9  1  0.44846500  0.49177100  0.22679000  1
  Cr  Cr10  1  0.22167500  0.27321000  0.76498100  1
  Cr  Cr11  1  0.45669400  0.73501900  0.00822900  1
  Cr  Cr12  1  0.99076400  0.54608600  0.27176400  1
  Cr  Cr13  1  0.78100000  0.55532200  0.50923600  1
  Cr  Cr14  1  0.22823600  0.77432200  0.71900000  1
  Cr  Cr15  1  0.72567800  0.95391400  0.94467800  1
  Cr  Cr16  1  0.95391400  0.94467800  0.72567800  1
  Cr  Cr17  1  0.94467800  0.72567800  0.95391400  1
  Cr  Cr18  1  0.50923600  0.78100000  0.55532200  1
  Cr  Cr19  1  0.71900000  0.22823600  0.77432200  1
  Cr  Cr20  1  0.27176400  0.99076400  0.54608600  1
  Cr  Cr21  1  0.77432200  0.71900000  0.22823600  1
  Cr  Cr22  1  0.54608600  0.27176400  0.99076400  1
  Cr  Cr23  1  0.55532200  0.50923600  0.78100000  1
  N  N0  1  0.00000000  0.49623500  0.50000000  1
  N  N1  1  0.00376500  0.00376500  0.00376500  1
  N  N2  1  0.50000000  0.00000000  0.49623500  1
  N  N3  1  0.49623500  0.50000000  0.00000000  1
  N  N4  1  0.75000000  0.95556500  0.20556500  1
  N  N5  1  0.95556500  0.20556500  0.75000000  1
  N  N6  1  0.29443500  0.25000000  0.54443500  1
  N  N7  1  0.25000000  0.54443500  0.29443500  1
  N  N8  1  0.54443500  0.29443500  0.25000000  1
  N  N9  1  0.20556500  0.75000000  0.95556500  1
  N  N10  1  0.75000000  0.45510400  0.70510400  1
  N  N11  1  0.45510400  0.70510400  0.75000000  1
  N  N12  1  0.79489600  0.25000000  0.04489600  1
  N  N13  1  0.25000000  0.04489600  0.79489600  1
  N  N14  1  0.04489600  0.79489600  0.25000000  1
  N  N15  1  0.70510400  0.75000000  0.45510400  1
loop_
_geom_bond_atom_site_label_1
_geom_bond_atom_site_label_2
_geom_bond_distance
_geom_bond_site_symmetry_2
Cr0 N4 1.944873 1_545
Cr0 N0 1.972221 1_655
Cr0 N12 1.974387 1_555
Cr0 N8 1.986431 1_555
Cr1 N5 1.944873 1_455
Cr1 N0 1.972221 1_555
Cr1 N10 1.974387 1_455
Cr1 N9 1.986431 1_555
Cr2 N6 1.944873 1_555
Cr2 N0 1.972221 1_555
Cr2 N11 1.974387 1_555
Cr2 N7 1.986431 1_555
Cr3 N7 1.944873 1_555
Cr3 N1 1.972221 1_555
Cr3 N12 1.974387 1_455
Cr3 N5 1.986431 1_454
Cr4 N8 1.944873 1_555
Cr4 N1 1.972221 1_555
Cr4 N13 1.974387 1_554
Cr4 N9 1.986431 1_544
Cr5 N6 1.944873 1_555
Cr5 N1 1.972221 1_555
Cr5 N14 1.974387 1_545
Cr5 N4 1.986431 1_445
Cr6 N4 1.944873 1_545
Cr6 N2 1.972221 1_555
Cr6 N15 1.974387 1_545
Cr6 N5 1.986431 1_555
Cr7 N8 1.944873 1_555
Cr7 N2 1.972221 1_555
Cr7 N10 1.974387 1_555
Cr7 N6 1.986431 1_555
Cr8 N9 1.944873 1_554
Cr8 N2 1.972221 1_565
Cr8 N14 1.974387 1_555
Cr8 N7 1.986431 1_555
Cr9 N7 1.944873 1_555
Cr9 N3 1.972221 1_555
Cr9 N15 1.974387 1_555
Cr9 N8 1.986431 1_555
Cr10 N5 1.944873 1_455
Cr10 N3 1.972221 1_556
Cr10 N13 1.974387 1_555
Cr10 N6 1.986431 1_555
Cr11 N9 1.944873 1_554
Cr11 N3 1.972221 1_555
Cr11 N11 1.974387 1_554
Cr11 N4 1.986431 1_555
Cr12 N14 1.952054 1_655
Cr12 N0 1.958827 1_655
Cr12 N7 2.005728 1_655
Cr12 N12 2.010725 1_555
Cr13 N15 1.952054 1_555
Cr13 N0 1.958827 1_655
Cr13 N8 2.005728 1_555
Cr13 N10 2.010725 1_555
Cr14 N13 1.952054 1_565
Cr14 N0 1.958827 1_555
Cr14 N9 2.005728 1_555
Cr14 N11 2.010725 1_555
Cr15 N11 1.952054 1_555
Cr15 N1 1.958827 1_666
Cr15 N4 2.005728 1_556
Cr15 N12 2.010725 1_566
Cr16 N15 1.952054 1_555
Cr16 N1 1.958827 1_666
Cr16 N5 2.005728 1_565
Cr16 N13 2.010725 1_665
Cr17 N10 1.952054 1_555
Cr17 N1 1.958827 1_666
Cr17 N9 2.005728 1_655
Cr17 N14 2.010725 1_656
Cr18 N11 1.952054 1_555
Cr18 N2 1.958827 1_565
Cr18 N7 2.005728 1_555
Cr18 N15 2.010725 1_555
Cr19 N12 1.952054 1_556
Cr19 N2 1.958827 1_555
Cr19 N5 2.005728 1_555
Cr19 N10 2.010725 1_555
Cr20 N13 1.952054 1_565
Cr20 N2 1.958827 1_565
Cr20 N6 2.005728 1_565
Cr20 N14 2.010725 1_555
Cr21 N14 1.952054 1_655
Cr21 N3 1.958827 1_555
Cr21 N4 2.005728 1_555
Cr21 N15 2.010725 1_555
Cr22 N12 1.952054 1_556
Cr22 N3 1.958827 1_556
Cr22 N8 2.005728 1_556
Cr22 N13 2.010725 1_555
Cr23 N10 1.952054 1_555
Cr23 N3 1.958827 1_556
Cr23 N6 2.005728 1_555
Cr23 N11 2.010725 1_555
