# generated using pymatgen
data_Mg6ZnC
_symmetry_space_group_name_H-M   'P 1'
_cell_length_a   3.57790100
_cell_length_b   8.57209300
_cell_length_c   9.82133400
_cell_angle_alpha   90.00000000
_cell_angle_beta   90.00000000
_cell_angle_gamma   90.00000000
_symmetry_Int_Tables_number   1
_chemical_formula_structural   Mg6ZnC
_chemical_formula_sum   'Mg12 Zn2 C2'
_cell_volume   301.22129706
_cell_formula_units_Z   2
loop_
 _symmetry_equiv_pos_site_id
 _symmetry_equiv_pos_as_xyz
  1  'x, y, z'
loop_
 _atom_site_type_symbol
 _atom_site_label
 _atom_site_symmetry_multiplicity
 _atom_site_fract_x
 _atom_site_fract_y
 _atom_site_fract_z
 _atom_site_occupancy
  Mg  Mg0  1  0.50000000  0.75721800  0.85510400  1
  Mg  Mg1  1  0.50000000  0.24278200  0.85510400  1
  Mg  Mg2  1  0.00000000  0.66936300  0.11693600  1
  Mg  Mg3  1  0.00000000  0.33063700  0.11693600  1
  Mg  Mg4  1  0.00000000  0.50000000  0.82139300  1
  Mg  Mg5  1  0.00000000  0.50000000  0.38772700  1
  Mg  Mg6  1  0.50000000  0.25721800  0.35510400  1
  Mg  Mg7  1  0.50000000  0.74278200  0.35510400  1
  Mg  Mg8  1  0.00000000  0.16936300  0.61693600  1
  Mg  Mg9  1  0.00000000  0.83063700  0.61693600  1
  Mg  Mg10  1  0.00000000  0.00000000  0.32139300  1
  Mg  Mg11  1  0.00000000  0.00000000  0.88772700  1
  Zn  Zn0  1  0.50000000  0.50000000  0.60991100  1
  Zn  Zn1  1  0.50000000  0.00000000  0.10991100  1
  C  C0  1  0.50000000  0.50000000  0.23688400  1
  C  C1  1  0.50000000  0.00000000  0.73688400  1
loop_
_geom_bond_atom_site_label_1
_geom_bond_atom_site_label_2
_geom_bond_distance
_geom_bond_site_symmetry_2
Mg4 Zn0 2.741244 1_555
Mg4 Zn0 2.741244 1_455
Mg5 Zn0 2.821718 1_455
Mg5 Zn0 2.821718 1_555
Mg10 Zn1 2.741244 1_555
Mg10 Zn1 2.741244 1_455
Mg11 Zn1 2.821718 1_456
Mg11 Zn1 2.821718 1_556
C0 Mg5 2.322741 1_655
C0 Mg5 2.322741 1_555
C0 Mg7 2.383126 1_555
C0 Mg6 2.383126 1_555
C0 Mg2 2.587635 1_655
C0 Mg2 2.587635 1_555
C0 Mg3 2.587635 1_555
C0 Mg3 2.587635 1_655
C1 Mg11 2.322741 1_655
C1 Mg11 2.322741 1_555
C1 Mg0 2.383126 1_545
C1 Mg1 2.383126 1_555
C1 Mg8 2.587635 1_655
C1 Mg8 2.587635 1_555
C1 Mg9 2.587635 1_645
C1 Mg9 2.587635 1_545
