# generated using pymatgen
data_Li9Mn2Co5O16
_symmetry_space_group_name_H-M   'P 1'
_cell_length_a   2.91147921
_cell_length_b   5.14987930
_cell_length_c   19.70871445
_cell_angle_alpha   95.21602072
_cell_angle_beta   82.76460644
_cell_angle_gamma   91.65576933
_symmetry_Int_Tables_number   1
_chemical_formula_structural   Li9Mn2Co5O16
_chemical_formula_sum   'Li9 Mn2 Co5 O16'
_cell_volume   291.89529482
_cell_formula_units_Z   1
loop_
 _symmetry_equiv_pos_site_id
 _symmetry_equiv_pos_as_xyz
  1  'x, y, z'
loop_
 _atom_site_type_symbol
 _atom_site_label
 _atom_site_symmetry_multiplicity
 _atom_site_fract_x
 _atom_site_fract_y
 _atom_site_fract_z
 _atom_site_occupancy
  Li  Li0  1  0.87771400  0.38523200  0.11915300  1
  Li  Li1  1  0.13322000  0.62290900  0.37102700  1
  Li  Li2  1  0.37570800  0.87597900  0.62712800  1
  Li  Li3  1  0.61724300  0.12455600  0.87807100  1
  Li  Li4  1  0.38275700  0.87544400  0.12192900  1
  Li  Li5  1  0.62429200  0.12402100  0.37287200  1
  Li  Li6  1  0.86678000  0.37709100  0.62897300  1
  Li  Li7  1  0.12228600  0.61476800  0.88084700  1
  Li  Li8  1  0.50000000  0.50000000  0.00000000  1
  Mn  Mn0  1  0.00000000  0.00000000  0.00000000  1
  Mn  Mn1  1  0.50000000  0.50000000  0.50000000  1
  Co  Co0  1  0.25131300  0.24992300  0.24974000  1
  Co  Co1  1  0.74868700  0.75007700  0.75026000  1
  Co  Co2  1  0.75104800  0.74987500  0.24924800  1
  Co  Co3  1  0.00000000  0.00000000  0.50000000  1
  Co  Co4  1  0.24895200  0.25012500  0.75075200  1
  O  O0  1  0.45692200  0.16888700  0.05580600  1
  O  O1  1  0.67640400  0.43183100  0.30888600  1
  O  O2  1  0.91592600  0.68508000  0.55722800  1
  O  O3  1  0.17663000  0.92745200  0.80555200  1
  O  O4  1  0.93841500  0.71726200  0.05817700  1
  O  O5  1  0.17330100  0.92923500  0.30882100  1
  O  O6  1  0.47942100  0.18034100  0.55373000  1
  O  O7  1  0.67538800  0.43027300  0.80708300  1
  O  O8  1  0.32461200  0.56972700  0.19291700  1
  O  O9  1  0.52057900  0.81965900  0.44627000  1
  O  O10  1  0.82669900  0.07076500  0.69117900  1
  O  O11  1  0.06158500  0.28273800  0.94182300  1
  O  O12  1  0.82337000  0.07254800  0.19444800  1
  O  O13  1  0.08407400  0.31492000  0.44277200  1
  O  O14  1  0.32359600  0.56816900  0.69111400  1
  O  O15  1  0.54307800  0.83111300  0.94419400  1
loop_
_geom_bond_atom_site_label_1
_geom_bond_atom_site_label_2
_geom_bond_distance
_geom_bond_site_symmetry_2
Li0 O0 2.086738 1_555
Li0 O4 2.168393 1_555
Li0 O8 2.203867 1_555
Li0 O8 2.205242 1_655
Li0 O0 2.229163 1_655
Li0 O12 2.276143 1_555
Li1 O5 2.076129 1_555
Li1 O1 2.086198 1_555
Li1 O1 2.086318 1_455
Li1 O9 2.140027 1_555
Li1 O13 2.208916 1_555
Li1 O9 2.360569 1_455
Li2 O14 2.104170 1_555
Li2 O10 2.105964 1_565
Li2 O10 2.123427 1_465
Li2 O2 2.153021 1_555
Li2 O2 2.190568 1_455
Li2 O6 2.217090 1_565
Li3 O11 2.019505 1_655
Li3 O11 2.058540 1_555
Li3 O15 2.072922 1_545
Li3 O7 2.188672 1_555
Li3 O3 2.200364 1_545
Li3 O3 2.229577 1_645
Li4 O4 2.019505 1_455
Li4 O4 2.058540 1_555
Li4 O0 2.072922 1_565
Li4 O8 2.188672 1_555
Li4 O12 2.200364 1_565
Li4 O12 2.229577 1_465
Li5 O1 2.104170 1_555
Li5 O5 2.105964 1_545
Li5 O5 2.123427 1_645
Li5 O13 2.153021 1_555
Li5 O13 2.190568 1_655
Li5 O9 2.217090 1_545
Li6 O10 2.076129 1_555
Li6 O14 2.086198 1_555
Li6 O14 2.086318 1_655
Li6 O6 2.140027 1_555
Li6 O2 2.208916 1_555
Li6 O6 2.360569 1_655
Li7 O15 2.086738 1_555
Li7 O11 2.168393 1_555
Li7 O7 2.203867 1_555
Li7 O7 2.205242 1_455
Li7 O15 2.229163 1_455
Li7 O3 2.276143 1_555
Li8 O4 2.061240 1_555
Li8 O11 2.061240 1_554
Li8 O0 2.104046 1_555
Li8 O15 2.104046 1_554
Li8 O4 2.154101 1_455
Li8 O11 2.154101 1_654
Mn0 O11 1.924484 1_554
Mn0 O4 1.924484 1_445
Mn0 O0 1.965624 1_555
Mn0 O15 1.965624 1_444
Mn0 O0 1.983360 1_455
Mn0 O15 1.983360 1_544
Mn1 O2 1.931039 1_555
Mn1 O13 1.931039 1_555
Mn1 O9 2.032298 1_555
Mn1 O6 2.032298 1_555
Mn1 O2 2.118360 1_455
Mn1 O13 2.118360 1_655
Co0 O12 1.915609 1_455
Co0 O1 1.966228 1_555
Co0 O12 2.060504 1_555
Co0 O8 2.065680 1_555
Co0 O5 2.096726 1_545
Co0 O1 2.106832 1_455
Co1 O3 1.915609 1_655
Co1 O14 1.966228 1_555
Co1 O3 2.060504 1_555
Co1 O7 2.065680 1_555
Co1 O10 2.096726 1_565
Co1 O14 2.106832 1_655
Co2 O8 1.930831 1_555
Co2 O5 1.960580 1_655
Co2 O12 2.054500 1_565
Co2 O8 2.077778 1_655
Co2 O1 2.092025 1_555
Co2 O5 2.110994 1_555
Co3 O9 1.944060 1_545
Co3 O6 1.944060 1_455
Co3 O9 2.012669 1_445
Co3 O6 2.012669 1_555
Co3 O2 2.049974 1_445
Co3 O13 2.049974 1_555
Co4 O7 1.930831 1_555
Co4 O10 1.960580 1_455
Co4 O3 2.054500 1_545
Co4 O7 2.077778 1_455
Co4 O14 2.092025 1_555
Co4 O10 2.110994 1_555
