# generated using pymatgen
data_CoCu2GeSe4
_symmetry_space_group_name_H-M   'P 1'
_cell_length_a   6.52053100
_cell_length_b   6.79781500
_cell_length_c   7.85357600
_cell_angle_alpha   90.00000000
_cell_angle_beta   90.00000000
_cell_angle_gamma   90.00000000
_symmetry_Int_Tables_number   1
_chemical_formula_structural   CoCu2GeSe4
_chemical_formula_sum   'Co2 Cu4 Ge2 Se8'
_cell_volume   348.11261050
_cell_formula_units_Z   2
loop_
 _symmetry_equiv_pos_site_id
 _symmetry_equiv_pos_as_xyz
  1  'x, y, z'
loop_
 _atom_site_type_symbol
 _atom_site_label
 _atom_site_symmetry_multiplicity
 _atom_site_fract_x
 _atom_site_fract_y
 _atom_site_fract_z
 _atom_site_occupancy
  Co  Co0  1  0.50582900  0.33905200  0.00000000  1
  Co  Co1  1  0.00582900  0.66094800  0.50000000  1
  Cu  Cu0  1  0.51291200  0.82572200  0.24928000  1
  Cu  Cu1  1  0.01291200  0.17427800  0.25072000  1
  Cu  Cu2  1  0.01291200  0.17427800  0.74928000  1
  Cu  Cu3  1  0.51291200  0.82572200  0.75072000  1
  Ge  Ge0  1  0.00286700  0.66865800  0.00000000  1
  Ge  Ge1  1  0.50286700  0.33134200  0.50000000  1
  Se  Se0  1  0.87196200  0.33215100  0.00000000  1
  Se  Se1  1  0.37196200  0.66784900  0.50000000  1
  Se  Se2  1  0.88249900  0.83916100  0.25895200  1
  Se  Se3  1  0.38249900  0.16083900  0.24104800  1
  Se  Se4  1  0.38249900  0.16083900  0.75895200  1
  Se  Se5  1  0.88249900  0.83916100  0.74104800  1
  Se  Se6  1  0.38102000  0.66455300  0.00000000  1
  Se  Se7  1  0.88102000  0.33544700  0.50000000  1
loop_
_geom_bond_atom_site_label_1
_geom_bond_atom_site_label_2
_geom_bond_distance
_geom_bond_site_symmetry_2
Co0 Se6 2.357610 1_555
Co0 Se4 2.387073 1_554
Co0 Se3 2.387073 1_555
Co0 Se0 2.387842 1_555
Co1 Se7 2.357610 1_455
Co1 Se2 2.387073 1_455
Co1 Se5 2.387073 1_455
Co1 Se1 2.387842 1_555
Cu0 Se6 2.402642 1_555
Cu0 Se2 2.412830 1_555
Cu0 Se1 2.423547 1_555
Cu0 Se3 2.432461 1_565
Cu1 Se7 2.402642 1_455
Cu1 Se3 2.412830 1_555
Cu1 Se0 2.423547 1_455
Cu1 Se2 2.432461 1_445
Cu2 Se7 2.402642 1_455
Cu2 Se4 2.412830 1_555
Cu2 Se0 2.423547 1_456
Cu2 Se5 2.432461 1_445
Cu3 Se6 2.402642 1_556
Cu3 Se5 2.412830 1_555
Cu3 Se1 2.423547 1_555
Cu3 Se4 2.432461 1_565
Ge0 Se0 2.441576 1_455
Ge0 Se6 2.465916 1_555
Ge0 Se5 2.468873 1_454
Ge0 Se2 2.468873 1_455
Ge1 Se1 2.441576 1_555
Ge1 Se7 2.465916 1_555
Ge1 Se4 2.468873 1_555
Ge1 Se3 2.468873 1_555
