# generated using pymatgen
data_Zn2Ge5N8
_symmetry_space_group_name_H-M   'P 1'
_cell_length_a   11.28794650
_cell_length_b   10.42053320
_cell_length_c   14.13894662
_cell_angle_alpha   90.00000000
_cell_angle_beta   90.00000000
_cell_angle_gamma   90.00000000
_symmetry_Int_Tables_number   1
_chemical_formula_structural   Zn2Ge5N8
_chemical_formula_sum   'Zn16 Ge40 N64'
_cell_volume   1663.11369134
_cell_formula_units_Z   8
loop_
 _symmetry_equiv_pos_site_id
 _symmetry_equiv_pos_as_xyz
  1  'x, y, z'
loop_
 _atom_site_type_symbol
 _atom_site_label
 _atom_site_symmetry_multiplicity
 _atom_site_fract_x
 _atom_site_fract_y
 _atom_site_fract_z
 _atom_site_occupancy
  Zn  Zn0  1  0.07322837  0.13028323  0.01783887  1
  Zn  Zn1  1  0.57322837  0.36971677  0.98216113  1
  Zn  Zn2  1  0.92677163  0.63028323  0.48216113  1
  Zn  Zn3  1  0.42677163  0.86971677  0.51783887  1
  Zn  Zn4  1  0.92677163  0.86971677  0.98216113  1
  Zn  Zn5  1  0.42677163  0.63028323  0.01783887  1
  Zn  Zn6  1  0.07322837  0.36971677  0.51783887  1
  Zn  Zn7  1  0.57322837  0.13028323  0.48216113  1
  Zn  Zn8  1  0.34187824  0.10640721  0.03455564  1
  Zn  Zn9  1  0.84187824  0.39359279  0.96544436  1
  Zn  Zn10  1  0.65812176  0.60640721  0.46544436  1
  Zn  Zn11  1  0.15812176  0.89359279  0.53455564  1
  Zn  Zn12  1  0.65812176  0.89359279  0.96544436  1
  Zn  Zn13  1  0.15812176  0.60640721  0.03455564  1
  Zn  Zn14  1  0.34187824  0.39359279  0.53455564  1
  Zn  Zn15  1  0.84187824  0.10640721  0.46544436  1
  Ge  Ge0  1  0.39863264  0.23877260  0.83918527  1
  Ge  Ge1  1  0.89863264  0.26122740  0.16081473  1
  Ge  Ge2  1  0.60136736  0.73877260  0.66081473  1
  Ge  Ge3  1  0.10136736  0.76122740  0.33918527  1
  Ge  Ge4  1  0.60136736  0.76122740  0.16081473  1
  Ge  Ge5  1  0.10136736  0.73877260  0.83918527  1
  Ge  Ge6  1  0.39863264  0.26122740  0.33918527  1
  Ge  Ge7  1  0.89863264  0.23877260  0.66081473  1
  Ge  Ge8  1  0.16396968  0.24124723  0.71844175  1
  Ge  Ge9  1  0.66396968  0.25875277  0.28155825  1
  Ge  Ge10  1  0.83603032  0.74124723  0.78155825  1
  Ge  Ge11  1  0.33603032  0.75875277  0.21844175  1
  Ge  Ge12  1  0.83603032  0.75875277  0.28155825  1
  Ge  Ge13  1  0.33603032  0.74124723  0.71844175  1
  Ge  Ge14  1  0.16396968  0.25875277  0.21844175  1
  Ge  Ge15  1  0.66396968  0.24124723  0.78155825  1
  Ge  Ge16  1  0.25373806  0.98214027  0.83662125  1
  Ge  Ge17  1  0.75373806  0.51785973  0.16337875  1
  Ge  Ge18  1  0.74626194  0.48214027  0.66337875  1
  Ge  Ge19  1  0.24626194  0.01785973  0.33662125  1
  Ge  Ge20  1  0.74626194  0.01785973  0.16337875  1
  Ge  Ge21  1  0.24626194  0.48214027  0.83662125  1
  Ge  Ge22  1  0.25373806  0.51785973  0.33662125  1
  Ge  Ge23  1  0.75373806  0.98214027  0.66337875  1
  Ge  Ge24  1  0.98444396  0.00614540  0.78483948  1
  Ge  Ge25  1  0.48444396  0.49385460  0.21516052  1
  Ge  Ge26  1  0.01555604  0.50614540  0.71516052  1
  Ge  Ge27  1  0.51555604  0.99385460  0.28483948  1
  Ge  Ge28  1  0.01555604  0.99385460  0.21516052  1
  Ge  Ge29  1  0.51555604  0.50614540  0.78483948  1
  Ge  Ge30  1  0.98444396  0.49385460  0.28483948  1
  Ge  Ge31  1  0.48444396  0.00614540  0.71516052  1
  Ge  Ge32  1  0.82239697  0.13788900  0.96100462  1
  Ge  Ge33  1  0.32239697  0.36211100  0.03899538  1
  Ge  Ge34  1  0.17760303  0.63788900  0.53899538  1
  Ge  Ge35  1  0.67760303  0.86211100  0.46100462  1
  Ge  Ge36  1  0.17760303  0.86211100  0.03899538  1
  Ge  Ge37  1  0.67760303  0.63788900  0.96100462  1
  Ge  Ge38  1  0.82239697  0.36211100  0.46100462  1
  Ge  Ge39  1  0.32239697  0.13788900  0.53899538  1
  N  N0  1  0.92395002  0.24904861  0.03116361  1
  N  N1  1  0.42395002  0.25095139  0.96883639  1
  N  N2  1  0.07604998  0.74904861  0.46883639  1
  N  N3  1  0.57604998  0.75095139  0.53116361  1
  N  N4  1  0.07604998  0.75095139  0.96883639  1
  N  N5  1  0.57604998  0.74904861  0.03116361  1
  N  N6  1  0.92395002  0.25095139  0.53116361  1
  N  N7  1  0.42395002  0.24904861  0.46883639  1
  N  N8  1  0.94523741  0.04155039  0.90828514  1
  N  N9  1  0.44523741  0.45844961  0.09171486  1
  N  N10  1  0.05476259  0.54155039  0.59171486  1
  N  N11  1  0.55476259  0.95844961  0.40828514  1
  N  N12  1  0.05476259  0.95844961  0.09171486  1
  N  N13  1  0.55476259  0.54155039  0.90828514  1
  N  N14  1  0.94523741  0.45844961  0.40828514  1
  N  N15  1  0.44523741  0.04155039  0.59171486  1
  N  N16  1  0.72593660  0.26536185  0.90344414  1
  N  N17  1  0.22593660  0.23463815  0.09655586  1
  N  N18  1  0.27406340  0.76536185  0.59655586  1
  N  N19  1  0.77406340  0.73463815  0.40344414  1
  N  N20  1  0.27406340  0.73463815  0.09655586  1
  N  N21  1  0.77406340  0.76536185  0.90344414  1
  N  N22  1  0.72593660  0.23463815  0.40344414  1
  N  N23  1  0.22593660  0.26536185  0.59655586  1
  N  N24  1  0.25888356  0.97796530  0.96632867  1
  N  N25  1  0.75888356  0.52203470  0.03367133  1
  N  N26  1  0.74111644  0.47796530  0.53367133  1
  N  N27  1  0.24111644  0.02203470  0.46632867  1
  N  N28  1  0.74111644  0.02203470  0.03367133  1
  N  N29  1  0.24111644  0.47796530  0.96632867  1
  N  N30  1  0.25888356  0.52203470  0.46632867  1
  N  N31  1  0.75888356  0.97796530  0.53367133  1
  N  N32  1  0.02401454  0.14603163  0.70898877  1
  N  N33  1  0.52401454  0.35396837  0.29101123  1
  N  N34  1  0.97598546  0.64603163  0.79101123  1
  N  N35  1  0.47598546  0.85396837  0.20898877  1
  N  N36  1  0.97598546  0.85396837  0.29101123  1
  N  N37  1  0.47598546  0.64603163  0.70898877  1
  N  N38  1  0.02401454  0.35396837  0.20898877  1
  N  N39  1  0.52401454  0.14603163  0.79101123  1
  N  N40  1  0.37594219  0.89877333  0.77468463  1
  N  N41  1  0.87594219  0.60122667  0.22531537  1
  N  N42  1  0.62405781  0.39877333  0.72531537  1
  N  N43  1  0.12405781  0.10122667  0.27468463  1
  N  N44  1  0.62405781  0.10122667  0.22531537  1
  N  N45  1  0.12405781  0.39877333  0.77468463  1
  N  N46  1  0.37594219  0.60122667  0.27468463  1
  N  N47  1  0.87594219  0.89877333  0.72531537  1
  N  N48  1  0.26097839  0.15502535  0.80327449  1
  N  N49  1  0.76097839  0.34497465  0.19672551  1
  N  N50  1  0.73902161  0.65502535  0.69672551  1
  N  N51  1  0.23902161  0.84497465  0.30327449  1
  N  N52  1  0.73902161  0.84497465  0.19672551  1
  N  N53  1  0.23902161  0.65502535  0.80327449  1
  N  N54  1  0.26097839  0.34497465  0.30327449  1
  N  N55  1  0.76097839  0.15502535  0.69672551  1
  N  N56  1  0.11893454  0.90372047  0.78977401  1
  N  N57  1  0.61893454  0.59627953  0.21022599  1
  N  N58  1  0.88106546  0.40372047  0.71022599  1
  N  N59  1  0.38106546  0.09627953  0.28977401  1
  N  N60  1  0.88106546  0.09627953  0.21022599  1
  N  N61  1  0.38106546  0.40372047  0.78977401  1
  N  N62  1  0.11893454  0.59627953  0.28977401  1
  N  N63  1  0.61893454  0.90372047  0.71022599  1
loop_
_geom_bond_atom_site_label_1
_geom_bond_atom_site_label_2
_geom_bond_distance
_geom_bond_site_symmetry_2
Ge0 N39 1.844173 1_555
Ge0 N48 1.853049 1_555
Ge0 N1 1.859608 1_555
Ge0 N61 1.865964 1_555
Ge1 N38 1.844173 1_655
Ge1 N49 1.853049 1_555
Ge1 N0 1.859608 1_555
Ge1 N60 1.865964 1_555
Ge2 N37 1.844173 1_555
Ge2 N50 1.853049 1_555
Ge2 N3 1.859608 1_555
Ge2 N63 1.865964 1_555
Ge3 N36 1.844173 1_455
Ge3 N51 1.853049 1_555
Ge3 N2 1.859608 1_555
Ge3 N62 1.865964 1_555
Ge4 N35 1.844173 1_555
Ge4 N52 1.853049 1_555
Ge4 N5 1.859608 1_555
Ge4 N57 1.865964 1_555
Ge5 N34 1.844173 1_455
Ge5 N53 1.853049 1_555
Ge5 N4 1.859608 1_555
Ge5 N56 1.865964 1_555
Ge6 N33 1.844173 1_555
Ge6 N54 1.853049 1_555
Ge6 N7 1.859608 1_555
Ge6 N59 1.865964 1_555
Ge7 N32 1.844173 1_655
Ge7 N55 1.853049 1_555
Ge7 N6 1.859608 1_555
Ge7 N58 1.865964 1_555
Ge8 N48 1.856077 1_555
Ge8 N32 1.870323 1_555
Ge8 N23 1.876782 1_555
Ge8 N45 1.878797 1_555
Ge9 N49 1.856077 1_555
Ge9 N33 1.870323 1_555
Ge9 N22 1.876782 1_555
Ge9 N44 1.878797 1_555
Ge10 N50 1.856077 1_555
Ge10 N34 1.870323 1_555
Ge10 N21 1.876782 1_555
Ge10 N47 1.878797 1_555
Ge11 N51 1.856077 1_555
Ge11 N35 1.870323 1_555
Ge11 N20 1.876782 1_555
Ge11 N46 1.878797 1_555
Ge12 N52 1.856077 1_555
Ge12 N36 1.870323 1_555
Ge12 N19 1.876782 1_555
Ge12 N41 1.878797 1_555
Ge13 N53 1.856077 1_555
Ge13 N37 1.870323 1_555
Ge13 N18 1.876782 1_555
Ge13 N40 1.878797 1_555
Ge14 N54 1.856077 1_555
Ge14 N38 1.870323 1_555
Ge14 N17 1.876782 1_555
Ge14 N43 1.878797 1_555
Ge15 N55 1.856077 1_555
Ge15 N39 1.870323 1_555
Ge15 N16 1.876782 1_555
Ge15 N42 1.878797 1_555
Ge16 N24 1.835362 1_555
Ge16 N56 1.849850 1_555
Ge16 N40 1.850516 1_555
Ge16 N48 1.864023 1_565
Ge17 N25 1.835362 1_555
Ge17 N57 1.849850 1_555
Ge17 N41 1.850516 1_555
Ge17 N49 1.864023 1_555
Ge18 N26 1.835362 1_555
Ge18 N58 1.849850 1_555
Ge18 N42 1.850516 1_555
Ge18 N50 1.864023 1_555
Ge19 N27 1.835362 1_555
Ge19 N59 1.849850 1_555
Ge19 N43 1.850516 1_555
Ge19 N51 1.864023 1_545
Ge20 N28 1.835362 1_555
Ge20 N60 1.849850 1_555
Ge20 N44 1.850516 1_555
Ge20 N52 1.864023 1_545
Ge21 N29 1.835362 1_555
Ge21 N61 1.849850 1_555
Ge21 N45 1.850516 1_555
Ge21 N53 1.864023 1_555
Ge22 N30 1.835362 1_555
Ge22 N62 1.849850 1_555
Ge22 N46 1.850516 1_555
Ge22 N54 1.864023 1_555
Ge23 N31 1.835362 1_555
Ge23 N63 1.849850 1_555
Ge23 N47 1.850516 1_555
Ge23 N55 1.864023 1_565
Ge24 N8 1.838034 1_555
Ge24 N56 1.857079 1_645
Ge24 N47 1.860168 1_545
Ge24 N32 1.864006 1_655
Ge25 N9 1.838034 1_555
Ge25 N57 1.857079 1_555
Ge25 N46 1.860168 1_555
Ge25 N33 1.864006 1_555
Ge26 N10 1.838034 1_555
Ge26 N58 1.857079 1_455
Ge26 N45 1.860168 1_555
Ge26 N34 1.864006 1_455
Ge27 N11 1.838034 1_555
Ge27 N59 1.857079 1_565
Ge27 N44 1.860168 1_565
Ge27 N35 1.864006 1_555
Ge28 N12 1.838034 1_555
Ge28 N60 1.857079 1_465
Ge28 N43 1.860168 1_565
Ge28 N36 1.864006 1_455
Ge29 N13 1.838034 1_555
Ge29 N61 1.857079 1_555
Ge29 N42 1.860168 1_555
Ge29 N37 1.864006 1_555
Ge30 N14 1.838034 1_555
Ge30 N62 1.857079 1_655
Ge30 N41 1.860168 1_555
Ge30 N38 1.864006 1_655
Ge31 N15 1.838034 1_555
Ge31 N63 1.857079 1_545
Ge31 N40 1.860168 1_545
Ge31 N39 1.864006 1_555
Ge32 N28 1.831635 1_556
Ge32 N8 1.867120 1_555
Ge32 N16 1.900628 1_555
Ge32 N0 1.907834 1_556
Ge33 N29 1.831635 1_554
Ge33 N9 1.867120 1_555
Ge33 N17 1.900628 1_555
Ge33 N1 1.907834 1_554
Ge34 N30 1.831635 1_555
Ge34 N10 1.867120 1_555
Ge34 N18 1.900628 1_555
Ge34 N2 1.907834 1_555
Ge35 N31 1.831635 1_555
Ge35 N11 1.867120 1_555
Ge35 N19 1.900628 1_555
Ge35 N3 1.907834 1_555
Ge36 N24 1.831635 1_554
Ge36 N12 1.867120 1_555
Ge36 N20 1.900628 1_555
Ge36 N4 1.907834 1_554
Ge37 N25 1.831635 1_556
Ge37 N13 1.867120 1_555
Ge37 N21 1.900628 1_555
Ge37 N5 1.907834 1_556
Ge38 N26 1.831635 1_555
Ge38 N14 1.867120 1_555
Ge38 N22 1.900628 1_555
Ge38 N6 1.907834 1_555
Ge39 N27 1.831635 1_555
Ge39 N15 1.867120 1_555
Ge39 N23 1.900628 1_555
Ge39 N7 1.907834 1_555
N0 Zn9 1.997597 1_554
N0 Zn0 2.099172 1_655
N1 Zn8 1.997597 1_556
N1 Zn1 2.099172 1_555
N2 Zn11 1.997597 1_555
N2 Zn2 2.099172 1_455
N3 Zn10 1.997597 1_555
N3 Zn3 2.099172 1_555
N4 Zn13 1.997597 1_556
N4 Zn4 2.099172 1_455
N5 Zn12 1.997597 1_554
N5 Zn5 2.099172 1_555
N6 Zn15 1.997597 1_555
N6 Zn6 2.099172 1_655
N7 Zn14 1.997597 1_555
N7 Zn7 2.099172 1_555
N8 Zn4 2.083442 1_545
N8 Zn0 2.311191 1_656
N9 Zn5 2.083442 1_555
N9 Zn1 2.311191 1_554
N10 Zn6 2.083442 1_555
N10 Zn2 2.311191 1_455
N11 Zn7 2.083442 1_565
N11 Zn3 2.311191 1_555
N12 Zn0 2.083442 1_565
N12 Zn4 2.311191 1_454
N13 Zn1 2.083442 1_555
N13 Zn5 2.311191 1_556
N14 Zn2 2.083442 1_555
N14 Zn6 2.311191 1_655
N15 Zn3 2.083442 1_545
N15 Zn7 2.311191 1_555
N16 Zn9 2.065621 1_555
N16 Zn1 2.322194 1_555
N17 Zn8 2.065621 1_555
N17 Zn0 2.322194 1_555
N18 Zn11 2.065621 1_555
N18 Zn3 2.322194 1_555
N19 Zn10 2.065621 1_555
N19 Zn2 2.322194 1_555
N20 Zn13 2.065621 1_555
N20 Zn5 2.322194 1_555
N21 Zn12 2.065621 1_555
N21 Zn4 2.322194 1_555
N22 Zn15 2.065621 1_555
N22 Zn7 2.322194 1_555
N23 Zn14 2.065621 1_555
N23 Zn6 2.322194 1_555
N24 Zn8 1.897271 1_566
N25 Zn9 1.897271 1_554
N26 Zn10 1.897271 1_555
N27 Zn11 1.897271 1_545
N28 Zn12 1.897271 1_544
N29 Zn13 1.897271 1_556
N30 Zn14 1.897271 1_555
N31 Zn15 1.897271 1_565
