# generated using pymatgen
data_Sr2CaTi6N2O11
_symmetry_space_group_name_H-M   'P 1'
_cell_length_a   3.87459904
_cell_length_b   7.44751029
_cell_length_c   10.09393809
_cell_angle_alpha   76.71007452
_cell_angle_beta   89.99099618
_cell_angle_gamma   74.90615207
_symmetry_Int_Tables_number   1
_chemical_formula_structural   Sr2CaTi6N2O11
_chemical_formula_sum   'Sr2 Ca1 Ti6 N2 O11'
_cell_volume   273.13877262
_cell_formula_units_Z   1
loop_
 _symmetry_equiv_pos_site_id
 _symmetry_equiv_pos_as_xyz
  1  'x, y, z'
loop_
 _atom_site_type_symbol
 _atom_site_label
 _atom_site_symmetry_multiplicity
 _atom_site_fract_x
 _atom_site_fract_y
 _atom_site_fract_z
 _atom_site_occupancy
  Sr  Sr0  1  0.53358100  0.92972300  0.81305400  1
  Sr  Sr1  1  0.49550500  0.00786700  0.46422200  1
  Ca  Ca0  1  0.47421800  0.04777700  0.12969500  1
  Ti  Ti0  1  0.14353700  0.70998500  0.05166600  1
  Ti  Ti1  1  0.16751500  0.66178800  0.38367900  1
  Ti  Ti2  1  0.22467200  0.54755400  0.71647100  1
  Ti  Ti3  1  0.77381500  0.44957700  0.22840500  1
  Ti  Ti4  1  0.82370400  0.34983100  0.56766600  1
  Ti  Ti5  1  0.86240800  0.27180700  0.91753100  1
  N  N0  1  0.23368800  0.52974400  0.23530200  1
  N  N1  1  0.84295600  0.31085500  0.09006400  1
  O  O0  1  0.04093200  0.91366200  0.28932100  1
  O  O1  1  0.11332900  0.76992100  0.58436100  1
  O  O2  1  0.16347200  0.67002800  0.87670200  1
  O  O3  1  0.63140200  0.73416300  0.07994800  1
  O  O4  1  0.68097400  0.63477300  0.41396100  1
  O  O5  1  0.75471400  0.48748100  0.73848600  1
  O  O6  1  0.29681600  0.40346200  0.55160500  1
  O  O7  1  0.36717200  0.26242700  0.87612100  1
  O  O8  1  0.87258600  0.25265800  0.39634300  1
  O  O9  1  0.94260100  0.11175400  0.67500700  1
  O  O10  1  0.00106100  0.99484500  0.98222900  1
loop_
_geom_bond_atom_site_label_1
_geom_bond_atom_site_label_2
_geom_bond_distance
_geom_bond_site_symmetry_2
Ca0 O3 2.424167 1_545
Ca0 O10 2.525681 1_544
Ca0 O10 2.527397 1_644
Ca0 O0 2.556219 1_645
Ca0 O0 2.558266 1_545
Ca0 O7 2.655700 1_554
Ca0 N1 2.669334 1_455
Ca0 N1 2.671578 1_555
N0 Ti1 1.954906 1_555
N0 Ti0 1.992943 1_555
N0 Ti3 2.027153 1_555
N0 Ti3 2.027165 1_455
N1 Ti5 1.828823 1_554
N1 Ti3 1.899500 1_555
O0 Ti1 1.834676 1_555
O0 Sr1 2.805566 1_465
O0 Sr1 2.815164 1_565
O1 Ti2 1.822013 1_555
O1 Ti1 2.336191 1_555
O1 Sr1 2.672998 1_465
O1 Sr1 2.679870 1_565
O2 Ti0 1.855574 1_556
O2 Ti2 2.017313 1_555
O2 Sr0 2.660962 1_455
O2 Sr0 2.661340 1_555
O3 Ti0 1.971841 1_555
O3 Ti0 1.972006 1_655
O3 Ti3 2.230044 1_555
O3 Sr0 2.726070 1_554
O4 Ti1 1.963484 1_555
O4 Ti1 1.963869 1_655
O4 Ti4 2.256468 1_555
O4 Ti3 2.543407 1_555
O4 Sr1 2.846509 1_565
O5 Ti2 1.985735 1_555
O5 Ti2 1.985864 1_655
O5 Ti5 2.082516 1_555
O5 Ti4 2.182939 1_555
O6 Ti4 1.974234 1_455
O6 Ti4 1.974621 1_555
O6 Ti2 2.159585 1_555
O6 Ti1 2.196468 1_555
O6 Sr1 3.172386 1_555
O7 Ti5 1.986211 1_555
O7 Ti5 1.986605 1_455
O7 Ti2 2.286340 1_555
O7 Sr0 2.617936 1_545
O8 Ti3 1.932803 1_555
O8 Ti4 2.013472 1_555
O8 Sr1 2.596212 1_555
O8 Sr1 2.598654 1_655
O9 Ti4 1.794855 1_555
O9 Sr0 2.557062 1_645
O9 Sr0 2.557501 1_545
O9 Sr1 3.095554 1_555
O9 Sr1 3.099526 1_655
O10 Ti5 1.942528 1_465
O10 Ti0 2.000826 1_556
O10 Sr0 2.695733 1_555
O10 Sr0 2.696538 1_455
