# generated using pymatgen
data_Lu6GaNi2
_symmetry_space_group_name_H-M   'P 1'
_cell_length_a   8.05937313
_cell_length_b   8.05937313
_cell_length_c   8.05937313
_cell_angle_alpha   111.70566902
_cell_angle_beta   109.82544243
_cell_angle_gamma   106.91817088
_symmetry_Int_Tables_number   1
_chemical_formula_structural   Lu6GaNi2
_chemical_formula_sum   'Lu12 Ga2 Ni4'
_cell_volume   402.26813254
_cell_formula_units_Z   2
loop_
 _symmetry_equiv_pos_site_id
 _symmetry_equiv_pos_as_xyz
  1  'x, y, z'
loop_
 _atom_site_type_symbol
 _atom_site_label
 _atom_site_symmetry_multiplicity
 _atom_site_fract_x
 _atom_site_fract_y
 _atom_site_fract_z
 _atom_site_occupancy
  Lu  Lu0  1  0.43418776  0.23562232  0.19856544  1
  Lu  Lu1  1  0.56581224  0.76437768  0.80143456  1
  Lu  Lu2  1  0.03705688  0.23562232  0.80143456  1
  Lu  Lu3  1  0.96294312  0.76437768  0.19856544  1
  Lu  Lu4  1  0.18029733  0.28323322  0.46353055  1
  Lu  Lu5  1  0.81970267  0.71676678  0.53646945  1
  Lu  Lu6  1  0.18029733  0.71676678  0.89706411  1
  Lu  Lu7  1  0.81970267  0.28323322  0.10293589  1
  Lu  Lu8  1  0.32737712  0.63158202  0.30420490  1
  Lu  Lu9  1  0.67262288  0.36841798  0.69579510  1
  Lu  Lu10  1  0.32737712  0.02317221  0.69579510  1
  Lu  Lu11  1  0.67262288  0.97682779  0.30420490  1
  Ga  Ga0  1  0.50000000  0.50000000  -0.00000000  1
  Ga  Ga1  1  -0.00000000  -0.00000000  -0.00000000  1
  Ni  Ni0  1  0.34996248  0.00000000  0.34996248  1
  Ni  Ni1  1  0.65003752  -0.00000000  0.65003752  1
  Ni  Ni2  1  0.12263390  0.62263390  0.50000000  1
  Ni  Ni3  1  0.87736610  0.37736610  0.50000000  1
loop_
_geom_bond_atom_site_label_1
_geom_bond_atom_site_label_2
_geom_bond_distance
_geom_bond_site_symmetry_2
Lu0 Ni0 2.661037 1_555
Lu0 Ni3 3.106588 1_555
Lu1 Ni1 2.661037 1_565
Lu1 Ni2 3.106588 1_555
Lu2 Ni1 2.661037 1_455
Lu2 Ni3 3.106588 1_455
Lu3 Ni0 2.661037 1_665
Lu3 Ni2 3.106588 1_655
Lu4 Ni3 2.832378 1_455
Lu4 Ni2 2.832378 1_555
Lu4 Ni0 3.006383 1_555
Lu5 Ni2 2.832378 1_655
Lu5 Ni3 2.832378 1_555
Lu5 Ni1 3.006383 1_565
Lu6 Ni2 2.832378 1_555
Lu6 Ni3 2.832378 1_455
Lu6 Ni0 3.006383 1_566
Lu7 Ni3 2.832378 1_555
Lu7 Ni2 2.832378 1_655
Lu7 Ni1 3.006383 1_554
Lu8 Ni2 2.645601 1_555
Lu8 Ni1 2.795597 1_565
Lu8 Ni0 2.795597 1_565
Lu9 Ni3 2.645601 1_555
Lu9 Ni1 2.795597 1_555
Lu9 Ni0 2.795597 1_555
Lu10 Ni2 2.645601 1_545
Lu10 Ni1 2.795597 1_555
Lu10 Ni0 2.795597 1_555
Lu11 Ni3 2.645601 1_565
Lu11 Ni0 2.795597 1_565
Lu11 Ni1 2.795597 1_565
Ga0 Lu1 3.134080 1_554
Ga0 Lu0 3.134080 1_555
Ga0 Lu2 3.134080 1_554
Ga0 Lu3 3.134080 1_555
Ga0 Lu8 3.212499 1_555
Ga0 Lu9 3.212499 1_554
Ga0 Lu10 3.212499 1_554
Ga0 Lu11 3.212499 1_555
Ga0 Lu6 3.552615 1_554
Ga0 Lu5 3.552615 1_555
Ga0 Lu4 3.552615 1_554
Ga0 Lu7 3.552615 1_555
Ga1 Lu0 2.915172 1_555
Ga1 Lu3 2.915172 1_445
Ga1 Lu1 2.915172 1_444
Ga1 Lu2 2.915172 1_554
Ga1 Lu5 3.059047 1_444
Ga1 Lu6 3.059047 1_544
Ga1 Lu7 3.059047 1_455
Ga1 Lu4 3.059047 1_555
Ni2 Ni3 2.353847 1_455
