# generated using pymatgen
data_NdFeRu
_symmetry_space_group_name_H-M   'P 1'
_cell_length_a   5.34526978
_cell_length_b   5.34526978
_cell_length_c   5.34526978
_cell_angle_alpha   88.54692978
_cell_angle_beta   58.93073565
_cell_angle_gamma   117.29473775
_symmetry_Int_Tables_number   1
_chemical_formula_structural   NdFeRu
_chemical_formula_sum   'Nd2 Fe2 Ru2'
_cell_volume   109.14602245
_cell_formula_units_Z   2
loop_
 _symmetry_equiv_pos_site_id
 _symmetry_equiv_pos_as_xyz
  1  'x, y, z'
loop_
 _atom_site_type_symbol
 _atom_site_label
 _atom_site_symmetry_multiplicity
 _atom_site_fract_x
 _atom_site_fract_y
 _atom_site_fract_z
 _atom_site_occupancy
  Nd  Nd0  1  0.50000000  0.75211800  0.74788200  1
  Nd  Nd1  1  0.00000000  0.99788200  0.00211800  1
  Fe  Fe0  1  0.75000000  0.37500000  0.87500000  1
  Fe  Fe1  1  0.25000000  0.37500000  0.37500000  1
  Ru  Ru0  1  0.25000000  0.87500000  0.37500000  1
  Ru  Ru1  1  0.75000000  0.37500000  0.37500000  1
loop_
_geom_bond_atom_site_label_1
_geom_bond_atom_site_label_2
_geom_bond_distance
_geom_bond_site_symmetry_2
Nd0 Ru0 3.110880 1_555
Nd0 Ru1 3.110880 1_565
Nd0 Ru0 3.122024 1_655
Nd0 Ru1 3.122024 1_555
Nd0 Ru1 3.122024 1_456
Nd0 Ru0 3.122024 1_556
Nd1 Ru0 3.110880 1_555
Nd1 Ru1 3.110880 1_455
Nd1 Ru0 3.122024 1_455
Nd1 Ru1 3.122024 1_465
Nd1 Ru0 3.122024 1_554
Nd1 Ru1 3.122024 1_564
Fe0 Fe1 2.629324 1_556
Fe0 Fe1 2.629324 1_655
Fe0 Ru1 2.672635 1_556
Fe0 Ru0 2.672635 1_546
Fe0 Ru0 2.672635 1_655
Fe0 Ru1 2.672635 1_555
Fe0 Nd0 3.106305 1_555
Fe0 Nd1 3.106305 1_646
Fe0 Nd1 3.210016 1_546
Fe0 Nd0 3.210016 1_655
Fe0 Nd1 3.210016 1_656
Fe0 Nd0 3.210016 1_545
Fe1 Ru0 2.672635 1_555
Fe1 Ru1 2.672635 1_455
Fe1 Ru1 2.672635 1_555
Fe1 Ru0 2.672635 1_545
Fe1 Nd0 3.106305 1_554
Fe1 Nd1 3.106305 1_546
Fe1 Nd0 3.210016 1_555
Fe1 Nd1 3.210016 1_545
Fe1 Nd0 3.210016 1_445
Fe1 Nd1 3.210016 1_655
Ru0 Ru1 2.781164 1_455
Ru0 Ru1 2.781164 1_565
