# generated using pymatgen
data_Li4MnCo2O7
_symmetry_space_group_name_H-M   'P 1'
_cell_length_a   10.25540864
_cell_length_b   10.25540864
_cell_length_c   5.17450803
_cell_angle_alpha   84.55349251
_cell_angle_beta   84.55349251
_cell_angle_gamma   150.72787708
_symmetry_Int_Tables_number   1
_chemical_formula_structural   Li4MnCo2O7
_chemical_formula_sum   'Li8 Mn2 Co4 O14'
_cell_volume   246.61322535
_cell_formula_units_Z   2
loop_
 _symmetry_equiv_pos_site_id
 _symmetry_equiv_pos_as_xyz
  1  'x, y, z'
loop_
 _atom_site_type_symbol
 _atom_site_label
 _atom_site_symmetry_multiplicity
 _atom_site_fract_x
 _atom_site_fract_y
 _atom_site_fract_z
 _atom_site_occupancy
  Li  Li0  1  0.85734800  0.14265200  0.50000000  1
  Li  Li1  1  0.28542500  0.71457500  0.50000000  1
  Li  Li2  1  0.71457500  0.28542500  0.50000000  1
  Li  Li3  1  0.14265200  0.85734800  0.50000000  1
  Li  Li4  1  0.57002500  0.42997500  0.50000000  1
  Li  Li5  1  0.00000000  0.00000000  0.50000000  1
  Li  Li6  1  0.42997500  0.57002500  0.50000000  1
  Li  Li7  1  0.50000000  0.50000000  0.00000000  1
  Mn  Mn0  1  0.92776900  0.07223100  0.00000000  1
  Mn  Mn1  1  0.07223100  0.92776900  0.00000000  1
  Co  Co0  1  0.35702400  0.64297600  0.00000000  1
  Co  Co1  1  0.78544400  0.21455600  0.00000000  1
  Co  Co2  1  0.21455600  0.78544400  0.00000000  1
  Co  Co3  1  0.64297600  0.35702400  0.00000000  1
  O  O0  1  0.62913400  0.91531200  0.23274200  1
  O  O1  1  0.05912500  0.48868500  0.22463700  1
  O  O2  1  0.48868500  0.05912500  0.22463700  1
  O  O3  1  0.91531200  0.62913400  0.23274200  1
  O  O4  1  0.31957700  0.16831200  0.21255100  1
  O  O5  1  0.78061900  0.78061900  0.23541600  1
  O  O6  1  0.16831200  0.31957700  0.21255100  1
  O  O7  1  0.08468800  0.37086600  0.76725800  1
  O  O8  1  0.51131500  0.94087500  0.77536300  1
  O  O9  1  0.94087500  0.51131500  0.77536300  1
  O  O10  1  0.37086600  0.08468800  0.76725800  1
  O  O11  1  0.83168800  0.68042300  0.78744900  1
  O  O12  1  0.21938100  0.21938100  0.76458400  1
  O  O13  1  0.68042300  0.83168800  0.78744900  1
loop_
_geom_bond_atom_site_label_1
_geom_bond_atom_site_label_2
_geom_bond_distance
_geom_bond_site_symmetry_2
Li0 O13 2.041309 1_545
Li0 O6 2.041309 1_655
Li0 O0 2.128991 1_545
Li0 O7 2.128991 1_655
Li0 O1 2.138849 1_655
Li0 O8 2.138849 1_545
Li1 O7 2.109436 1_555
Li1 O0 2.109436 1_555
Li1 O9 2.119266 1_455
Li1 O2 2.119266 1_565
Li1 O1 2.158162 1_555
Li1 O8 2.158162 1_555
Li2 O10 2.109436 1_555
Li2 O3 2.109436 1_555
Li2 O8 2.119266 1_545
Li2 O1 2.119266 1_655
Li2 O2 2.158162 1_555
Li2 O9 2.158162 1_555
Li3 O11 2.041309 1_455
Li3 O4 2.041309 1_565
Li3 O3 2.128991 1_455
Li3 O10 2.128991 1_565
Li3 O2 2.138849 1_565
Li3 O9 2.138849 1_455
Li4 O12 2.103521 1_555
Li4 O5 2.103521 1_555
Li4 O10 2.130623 1_555
Li4 O3 2.130623 1_555
Li4 O4 2.338532 1_555
Li4 O11 2.338532 1_555
Li5 O12 2.082446 1_555
Li5 O5 2.082446 1_445
Li5 O11 2.156579 1_445
Li5 O6 2.156579 1_555
Li5 O13 2.156579 1_445
Li5 O4 2.156579 1_555
Li6 O12 2.103521 1_555
Li6 O5 2.103521 1_555
Li6 O7 2.130623 1_555
Li6 O0 2.130623 1_555
Li6 O13 2.338532 1_555
Li6 O6 2.338532 1_555
Li7 O4 2.031506 1_555
Li7 O13 2.031506 1_554
Li7 O6 2.031506 1_555
Li7 O11 2.031506 1_554
Li7 O12 2.220369 1_554
Li7 O5 2.220369 1_555
Mn0 O7 1.937328 1_654
Mn0 O0 1.937328 1_545
Mn0 O5 1.947009 1_545
Mn0 O12 1.947009 1_654
Mn0 O13 1.963996 1_544
Mn0 O6 1.963996 1_655
Mn1 O10 1.937328 1_564
Mn1 O3 1.937328 1_455
Mn1 O5 1.947009 1_455
Mn1 O12 1.947009 1_564
Mn1 O11 1.963996 1_454
Mn1 O4 1.963996 1_565
Co0 O6 1.913184 1_555
Co0 O13 1.913184 1_554
Co0 O1 1.931692 1_555
Co0 O8 1.931692 1_554
Co0 O7 2.171949 1_554
Co0 O0 2.171949 1_555
Co1 O9 1.915064 1_554
Co1 O2 1.915064 1_555
Co1 O0 1.946118 1_545
Co1 O7 1.946118 1_654
Co1 O8 2.146148 1_544
Co1 O1 2.146148 1_655
Co2 O8 1.915064 1_554
Co2 O1 1.915064 1_555
Co2 O3 1.946118 1_455
Co2 O10 1.946118 1_564
Co2 O9 2.146148 1_454
Co2 O2 2.146148 1_565
Co3 O4 1.913184 1_555
Co3 O11 1.913184 1_554
Co3 O9 1.931692 1_554
Co3 O2 1.931692 1_555
Co3 O10 2.171949 1_554
Co3 O3 2.171949 1_555
