# generated using pymatgen
data_UTe(PbO4)2
_symmetry_space_group_name_H-M   'P 1'
_cell_length_a   5.86560700
_cell_length_b   7.90448700
_cell_length_c   8.03866457
_cell_angle_alpha   90.00000000
_cell_angle_beta   90.62258727
_cell_angle_gamma   90.00000000
_symmetry_Int_Tables_number   1
_chemical_formula_structural   UTe(PbO4)2
_chemical_formula_sum   'U2 Te2 Pb4 O16'
_cell_volume   372.68757885
_cell_formula_units_Z   2
loop_
 _symmetry_equiv_pos_site_id
 _symmetry_equiv_pos_as_xyz
  1  'x, y, z'
loop_
 _atom_site_type_symbol
 _atom_site_label
 _atom_site_symmetry_multiplicity
 _atom_site_fract_x
 _atom_site_fract_y
 _atom_site_fract_z
 _atom_site_occupancy
  U  U0  1  0.50000000  0.50000000  0.50000000  1
  U  U1  1  0.50000000  0.00000000  0.00000000  1
  Te  Te0  1  0.50000000  0.50000000  0.00000000  1
  Te  Te1  1  0.50000000  0.00000000  0.50000000  1
  Pb  Pb0  1  0.00466700  0.33635100  0.81644800  1
  Pb  Pb1  1  0.99533300  0.83635100  0.68355200  1
  Pb  Pb2  1  0.99533300  0.66364900  0.18355200  1
  Pb  Pb3  1  0.00466700  0.16364900  0.31644800  1
  O  O0  1  0.62732500  0.26803400  0.99601200  1
  O  O1  1  0.37267500  0.76803400  0.50398800  1
  O  O2  1  0.37267500  0.73196600  0.00398800  1
  O  O3  1  0.62732500  0.23196600  0.49601200  1
  O  O4  1  0.39051300  0.47324400  0.76634100  1
  O  O5  1  0.60948700  0.97324400  0.73365900  1
  O  O6  1  0.60948700  0.52675600  0.23365900  1
  O  O7  1  0.39051300  0.02675600  0.26634100  1
  O  O8  1  0.20436800  0.43482600  0.43438500  1
  O  O9  1  0.79563200  0.93482600  0.06561500  1
  O  O10  1  0.79563200  0.56517400  0.56561500  1
  O  O11  1  0.20436800  0.06517400  0.93438500  1
  O  O12  1  0.20170900  0.41908700  0.06574400  1
  O  O13  1  0.79829100  0.91908700  0.43425600  1
  O  O14  1  0.79829100  0.58091300  0.93425600  1
  O  O15  1  0.20170900  0.08091300  0.56574400  1
loop_
_geom_bond_atom_site_label_1
_geom_bond_atom_site_label_2
_geom_bond_distance
_geom_bond_site_symmetry_2
O0 Te0 1.980228 1_556
O0 U1 2.246794 1_556
O0 Pb0 2.709885 1_655
O1 Te1 1.980228 1_565
O1 U0 2.246794 1_555
O1 Pb1 2.709885 1_455
O2 Te0 1.980228 1_555
O2 U1 2.246794 1_565
O2 Pb2 2.709885 1_455
O3 Te1 1.980228 1_555
O3 U0 2.246794 1_555
O3 Pb3 2.709885 1_655
O4 Te0 1.989719 1_556
O4 U0 2.251895 1_555
O4 Pb0 2.544621 1_555
O5 Te1 1.989719 1_565
O5 U1 2.251895 1_566
O5 Pb1 2.544621 1_555
O6 Te0 1.989719 1_555
O6 U0 2.251895 1_555
O6 Pb2 2.544621 1_555
O7 Te1 1.989719 1_555
O7 U1 2.251895 1_555
O7 Pb3 2.544621 1_555
O8 U0 1.879015 1_555
O8 Pb3 2.615614 1_555
O9 U1 1.879015 1_565
O9 Pb2 2.615614 1_555
O10 U0 1.879015 1_555
O10 Pb1 2.615614 1_555
O11 U1 1.879015 1_556
O11 Pb0 2.615614 1_555
O12 Te0 1.941587 1_555
O12 Pb0 2.393577 1_554
O12 Pb2 2.474699 1_455
O13 Te1 1.941587 1_565
O13 Pb1 2.393577 1_555
O13 Pb3 2.474699 1_665
O14 Te0 1.941587 1_556
O14 Pb2 2.393577 1_556
O14 Pb0 2.474699 1_655
O15 Te1 1.941587 1_555
O15 Pb3 2.393577 1_555
O15 Pb1 2.474699 1_445
