# generated using pymatgen
data_SrAl7Tl5Si5O24
_symmetry_space_group_name_H-M   'P 1'
_cell_length_a   12.78023803
_cell_length_b   12.45065104
_cell_length_c   12.55601501
_cell_angle_alpha   89.81855587
_cell_angle_beta   89.65777434
_cell_angle_gamma   88.31662309
_symmetry_Int_Tables_number   1
_chemical_formula_structural   SrAl7Tl5Si5O24
_chemical_formula_sum   'Sr2 Al14 Tl10 Si10 O48'
_cell_volume   1997.03495718
_cell_formula_units_Z   2
loop_
 _symmetry_equiv_pos_site_id
 _symmetry_equiv_pos_as_xyz
  1  'x, y, z'
loop_
 _atom_site_type_symbol
 _atom_site_label
 _atom_site_symmetry_multiplicity
 _atom_site_fract_x
 _atom_site_fract_y
 _atom_site_fract_z
 _atom_site_occupancy
  Sr  Sr0  1  0.21936139  0.20613886  0.79031187  1
  Sr  Sr1  1  0.41129366  0.44927437  0.00538308  1
  Al  Al0  1  0.01319902  0.63484610  0.19171894  1
  Al  Al1  1  0.00563877  0.83188807  0.37670757  1
  Al  Al2  1  0.02102306  0.63764504  0.81419089  1
  Al  Al3  1  0.37734752  0.18563330  0.00668100  1
  Al  Al4  1  0.37717684  0.99412847  0.81623919  1
  Al  Al5  1  0.37928207  0.81104818  0.01001318  1
  Al  Al6  1  0.62026933  0.01221802  0.19506066  1
  Al  Al7  1  0.61505821  0.21025055  0.00092414  1
  Al  Al8  1  0.62130307  0.01682313  0.81535497  1
  Al  Al9  1  0.63283554  0.83394350  0.01032717  1
  Al  Al10  1  0.82188390  0.02225641  0.37422525  1
  Al  Al11  1  0.82672643  0.01789003  0.62801636  1
  Al  Al12  1  0.82644037  0.37972281  0.00785854  1
  Al  Al13  1  0.83838155  0.64027906  0.00471801  1
  Tl  Tl0  1  0.27369820  0.25018761  0.26813188  1
  Tl  Tl1  1  0.61003421  0.58782268  0.04498141  1
  Tl  Tl2  1  0.58090074  0.05765065  0.56015672  1
  Tl  Tl3  1  0.65558610  0.25315603  0.26193306  1
  Tl  Tl4  1  0.14405656  0.87354117  0.86970874  1
  Tl  Tl5  1  0.13067651  0.86063179  0.15328395  1
  Tl  Tl6  1  0.86416867  0.13051287  0.13279488  1
  Tl  Tl7  1  0.82571897  0.14344173  0.86240990  1
  Tl  Tl8  1  0.86007565  0.86539288  0.14604083  1
  Tl  Tl9  1  0.85486072  0.86617089  0.86348408  1
  Si  Si0  1  0.01338798  0.20063402  0.38049298  1
  Si  Si1  1  0.00713079  0.38051253  0.19254351  1
  Si  Si2  1  0.00691418  0.20012770  0.62563394  1
  Si  Si3  1  0.00367012  0.38058723  0.81778479  1
  Si  Si4  1  0.01101419  0.82915071  0.62704800  1
  Si  Si5  1  0.18750772  0.01052981  0.62331508  1
  Si  Si6  1  0.19523266  0.62930657  0.99970905  1
  Si  Si7  1  0.19109792  0.01577913  0.38038274  1
  Si  Si8  1  0.17358965  0.37265309  0.00390633  1
  Si  Si9  1  0.37508261  0.00134299  0.19421703  1
  O  O0  1  0.02431188  0.29865685  0.29489952  1
  O  O1  1  0.02683534  0.29367981  0.71732040  1
  O  O2  1  0.01143879  0.78722617  0.50719203  1
  O  O3  1  0.02256327  0.49999576  0.77790571  1
  O  O4  1  0.02885985  0.73420562  0.71353137  1
  O  O5  1  0.11794153  0.12637697  0.64121116  1
  O  O6  1  0.12272966  0.64570734  0.10293904  1
  O  O7  1  0.12926303  0.13544278  0.36675523  1
  O  O8  1  0.11503884  0.35304488  0.11622358  1
  O  O9  1  0.13965158  0.66071816  0.88761439  1
  O  O10  1  0.11578005  0.90863942  0.64505604  1
  O  O11  1  0.10808256  0.34185138  0.89635094  1
  O  O12  1  0.11347155  0.92171784  0.35607908  1
  O  O13  1  0.23727719  0.01280772  0.50303167  1
  O  O14  1  0.22380704  0.49334256  0.99335182  1
  O  O15  1  0.30909934  0.68392296  0.01229013  1
  O  O16  1  0.27485325  0.02310509  0.71570309  1
  O  O17  1  0.28907554  0.02020711  0.29618427  1
  O  O18  1  0.27946464  0.29654370  0.99685564  1
  O  O19  1  0.35221362  0.11531894  0.12559553  1
  O  O20  1  0.34966414  0.11566513  0.89087709  1
  O  O21  1  0.34553629  0.89608443  0.12447117  1
  O  O22  1  0.33910081  0.88322818  0.89360572  1
  O  O23  1  0.49066683  0.99962415  0.24520924  1
  O  O24  1  0.48506366  0.27364430  0.00504800  1
  O  O25  1  0.51051044  0.77373881  0.01341911  1
  O  O26  1  0.49882585  -0.00007322  0.75586228  1
  O  O27  1  0.61502108  0.13064196  0.11651112  1
  O  O28  1  0.63167989  0.14213248  0.88117766  1
  O  O29  1  0.66535922  0.89661293  0.13100378  1
  O  O30  1  0.66081666  0.91213189  0.89946801  1
  O  O31  1  0.72024836  0.71949946  0.00315006  1
  O  O32  1  0.71871998  0.02809702  0.71390860  1
  O  O33  1  0.71833037  0.05727030  0.28560796  1
  O  O34  1  0.72223366  0.29350994  0.01914117  1
  O  O35  1  0.78533510  0.51238183  0.00910878  1
  O  O36  1  0.77238762  0.02719249  0.50260617  1
  O  O37  1  0.90570383  0.13339099  0.65225356  1
  O  O38  1  0.89880833  0.67169341  0.12460845  1
  O  O39  1  0.91468806  0.12946589  0.35323041  1
  O  O40  1  0.90874816  0.34648256  0.12046938  1
  O  O41  1  0.90085090  0.35396024  0.88638351  1
  O  O42  1  0.91223797  0.66860145  0.89205107  1
  O  O43  1  0.88965882  0.90264496  0.34104345  1
  O  O44  1  0.90810825  0.90467626  0.65617905  1
  O  O45  1  0.01018933  0.24818040  0.50380803  1
  O  O46  1  0.01041749  0.50066093  0.23408302  1
  O  O47  1  0.03900250  0.73493278  0.28253383  1
loop_
_geom_bond_atom_site_label_1
_geom_bond_atom_site_label_2
_geom_bond_distance
_geom_bond_site_symmetry_2
Sr1 Tl1 3.154708 1_555
Al0 O47 1.731902 1_555
Al0 O38 1.740875 1_455
Al0 O46 1.753013 1_555
Al0 O6 1.792187 1_555
Al1 O2 1.729800 1_555
Al1 O47 1.734934 1_555
Al1 O43 1.761366 1_455
Al1 O12 1.817056 1_555
Al2 O42 1.729706 1_455
Al2 O4 1.746068 1_555
Al2 O3 1.774261 1_555
Al2 O9 1.809686 1_555
Al3 O20 1.740854 1_554
Al3 O19 1.761093 1_555
Al3 O24 1.784507 1_555
Al3 O18 1.840193 1_554
Al4 O26 1.728927 1_565
Al4 O22 1.764182 1_555
Al4 O20 1.807065 1_565
Al4 O16 1.850106 1_565
Al5 O25 1.727813 1_555
Al5 O22 1.783591 1_554
Al5 O21 1.829681 1_555
Al5 O15 1.842115 1_555
Al6 O29 1.733144 1_545
Al6 O27 1.771162 1_555
Al6 O23 1.779533 1_545
Al6 O33 1.800054 1_555
Al7 O28 1.737449 1_554
Al7 O27 1.754893 1_555
Al7 O34 1.758337 1_555
Al7 O24 1.818784 1_555
Al8 O30 1.740242 1_545
Al8 O26 1.756897 1_555
Al8 O28 1.776639 1_555
Al8 O32 1.783933 1_555
Al9 O30 1.737534 1_554
Al9 O25 1.753674 1_555
Al9 O29 1.763960 1_555
Al9 O31 1.786783 1_555
Al10 O36 1.728722 1_555
Al10 O43 1.750862 1_545
Al10 O33 1.777700 1_555
Al10 O39 1.828947 1_555
Al11 O36 1.726964 1_555
Al11 O32 1.748535 1_555
Al11 O44 1.763189 1_545
Al11 O37 1.808630 1_555
Al12 O35 1.718544 1_555
Al12 O34 1.739741 1_555
Al12 O40 1.807076 1_555
Al12 O41 1.816995 1_554
Al13 O42 1.736944 1_554
Al13 O38 1.746657 1_555
Al13 O35 1.749521 1_555
Al13 O31 1.779160 1_555
O0 Si0 1.632147 1_555
O0 Si1 1.649400 1_555
O1 Si2 1.666211 1_555
O1 Si3 1.683765 1_555
O1 Sr0 2.818716 1_555
O2 Si4 1.594358 1_555
O3 Si3 1.591941 1_555
O4 Si4 1.614801 1_555
O5 Si2 1.679431 1_555
O5 Si5 1.686921 1_555
O5 Sr0 2.507482 1_555
O6 Si6 1.598916 1_554
O6 Tl5 2.756458 1_555
O7 Si7 1.674633 1_555
O7 Si0 1.675971 1_555
O7 Tl0 2.664263 1_555
O8 Si8 1.613789 1_555
O8 Si1 1.701680 1_555
O9 Si6 1.621919 1_555
O9 Tl4 2.660811 1_555
O10 Si5 1.608522 1_565
O10 Si4 1.704768 1_555
O11 Si8 1.645412 1_556
O11 Si3 1.720844 1_555
O11 Sr0 2.549672 1_555
O12 Si7 1.588403 1_565
O12 Tl5 2.665744 1_555
O13 Si5 1.635739 1_555
O13 Si7 1.652405 1_555
O14 Si8 1.655849 1_556
O14 Si6 1.723261 1_555
O14 Sr1 2.447822 1_556
O15 Si6 1.632993 1_554
O15 Sr1 3.166185 1_555
O16 Si5 1.625786 1_555
O16 Sr0 2.546469 1_555
O17 Si7 1.636009 1_555
O17 Si9 1.694840 1_555
O18 Si8 1.631095 1_556
O18 Sr1 2.580268 1_556
O18 Sr0 2.945443 1_555
O19 Si9 1.677042 1_555
O19 Tl0 2.632146 1_555
O20 Sr0 2.354238 1_555
O21 Si9 1.633185 1_565
O21 Tl5 2.815022 1_555
O22 Tl4 2.518932 1_555
O23 Si9 1.613024 1_565
O24 Sr1 2.355731 1_555
O25 Tl1 2.638238 1_555
O26 Tl2 2.767191 1_555
O27 Tl3 2.450500 1_555
O28 Tl7 2.490160 1_555
O29 Tl8 2.515512 1_555
O30 Tl9 2.566423 1_555
O31 Tl1 2.251475 1_555
O32 Tl2 2.638695 1_555
O32 Tl7 2.751706 1_555
O33 Tl3 2.561835 1_555
O33 Tl6 2.834269 1_555
O35 Tl1 2.443657 1_555
O36 Tl2 2.565361 1_555
O37 Si2 1.591062 1_655
O37 Tl7 2.825922 1_555
O38 Tl8 2.462937 1_555
O39 Si0 1.601946 1_655
O39 Tl6 2.845756 1_555
O40 Si1 1.620721 1_655
O40 Tl6 2.768645 1_555
O41 Si3 1.608973 1_655
O41 Tl7 2.835321 1_555
O42 Tl9 2.570779 1_555
O43 Tl8 2.526174 1_555
O44 Si4 1.634459 1_655
O44 Tl9 2.730983 1_555
O45 Si2 1.641473 1_555
O45 Si0 1.659252 1_555
O46 Si1 1.587605 1_555
O47 Tl5 2.554336 1_555
