# generated using pymatgen
data_KHfMg30O31
_symmetry_space_group_name_H-M   'P 1'
_cell_length_a   8.58863200
_cell_length_b   8.68321900
_cell_length_c   8.71979700
_cell_angle_alpha   90.00000000
_cell_angle_beta   90.00000000
_cell_angle_gamma   90.00000000
_symmetry_Int_Tables_number   1
_chemical_formula_structural   KHfMg30O31
_chemical_formula_sum   'K1 Hf1 Mg30 O31'
_cell_volume   650.29606165
_cell_formula_units_Z   1
loop_
 _symmetry_equiv_pos_site_id
 _symmetry_equiv_pos_as_xyz
  1  'x, y, z'
loop_
 _atom_site_type_symbol
 _atom_site_label
 _atom_site_symmetry_multiplicity
 _atom_site_fract_x
 _atom_site_fract_y
 _atom_site_fract_z
 _atom_site_occupancy
  K  K0  1  0.01298400  0.00000000  0.00000000  1
  Hf  Hf0  1  0.99895000  0.00000000  0.50000000  1
  Mg  Mg0  1  0.99873100  0.50000000  0.00000000  1
  Mg  Mg1  1  0.99976700  0.50000000  0.50000000  1
  Mg  Mg2  1  0.49210500  0.00000000  0.00000000  1
  Mg  Mg3  1  0.50171600  0.00000000  0.50000000  1
  Mg  Mg4  1  0.50179200  0.50000000  0.00000000  1
  Mg  Mg5  1  0.50020200  0.50000000  0.50000000  1
  Mg  Mg6  1  0.99991300  0.25854900  0.24364800  1
  Mg  Mg7  1  0.99991300  0.25854900  0.75635200  1
  Mg  Mg8  1  0.99991300  0.74145100  0.24364800  1
  Mg  Mg9  1  0.99991300  0.74145100  0.75635200  1
  Mg  Mg10  1  0.50039400  0.25103300  0.24841600  1
  Mg  Mg11  1  0.50039400  0.25103300  0.75158400  1
  Mg  Mg12  1  0.50039400  0.74896700  0.24841600  1
  Mg  Mg13  1  0.50039400  0.74896700  0.75158400  1
  Mg  Mg14  1  0.25997700  0.00000000  0.24908500  1
  Mg  Mg15  1  0.25997700  0.00000000  0.75091500  1
  Mg  Mg16  1  0.25123200  0.50000000  0.24983500  1
  Mg  Mg17  1  0.25123200  0.50000000  0.75016500  1
  Mg  Mg18  1  0.74287800  0.00000000  0.24183700  1
  Mg  Mg19  1  0.74287800  0.00000000  0.75816300  1
  Mg  Mg20  1  0.74878300  0.50000000  0.24834300  1
  Mg  Mg21  1  0.74878300  0.50000000  0.75165700  1
  Mg  Mg22  1  0.25403200  0.25832100  0.00000000  1
  Mg  Mg23  1  0.25531200  0.25659400  0.50000000  1
  Mg  Mg24  1  0.25403200  0.74167900  0.00000000  1
  Mg  Mg25  1  0.25531200  0.74340600  0.50000000  1
  Mg  Mg26  1  0.74837900  0.25126300  0.00000000  1
  Mg  Mg27  1  0.74463600  0.25572000  0.50000000  1
  Mg  Mg28  1  0.74837900  0.74873700  0.00000000  1
  Mg  Mg29  1  0.74463600  0.74428000  0.50000000  1
  O  O0  1  0.24916000  0.00000000  0.50000000  1
  O  O1  1  0.25423500  0.50000000  0.00000000  1
  O  O2  1  0.24982400  0.50000000  0.50000000  1
  O  O3  1  0.72748500  0.00000000  0.00000000  1
  O  O4  1  0.75121200  0.00000000  0.50000000  1
  O  O5  1  0.74672800  0.50000000  0.00000000  1
  O  O6  1  0.75011900  0.50000000  0.50000000  1
  O  O7  1  0.24867800  0.25033300  0.25241000  1
  O  O8  1  0.24867800  0.25033300  0.74759000  1
  O  O9  1  0.24867800  0.74966700  0.25241000  1
  O  O10  1  0.24867800  0.74966700  0.74759000  1
  O  O11  1  0.75146000  0.24862600  0.25060400  1
  O  O12  1  0.75146000  0.24862600  0.74939600  1
  O  O13  1  0.75146000  0.75137400  0.25060400  1
  O  O14  1  0.75146000  0.75137400  0.74939600  1
  O  O15  1  0.99891900  0.00000000  0.26957100  1
  O  O16  1  0.99891900  0.00000000  0.73042900  1
  O  O17  1  0.99994700  0.50000000  0.25604400  1
  O  O18  1  0.99994700  0.50000000  0.74395600  1
  O  O19  1  0.50143900  0.00000000  0.25781200  1
  O  O20  1  0.50143900  0.00000000  0.74218800  1
  O  O21  1  0.50008600  0.50000000  0.25191700  1
  O  O22  1  0.50008600  0.50000000  0.74808300  1
  O  O23  1  0.99978900  0.27395300  0.00000000  1
  O  O24  1  0.99980800  0.24777600  0.50000000  1
  O  O25  1  0.99978900  0.72604700  0.00000000  1
  O  O26  1  0.99980800  0.75222400  0.50000000  1
  O  O27  1  0.50125200  0.25546400  0.00000000  1
  O  O28  1  0.50013600  0.24984400  0.50000000  1
  O  O29  1  0.50125200  0.74453600  0.00000000  1
  O  O30  1  0.50013600  0.75015600  0.50000000  1
loop_
_geom_bond_atom_site_label_1
_geom_bond_atom_site_label_2
_geom_bond_distance
_geom_bond_site_symmetry_2
K0 O16 2.353706 1_454
K0 O15 2.353706 1_455
K0 O23 2.381492 1_455
K0 O25 2.381492 1_445
K0 O3 2.452046 1_455
Hf0 O16 2.009294 1_555
Hf0 O15 2.009294 1_555
Hf0 O4 2.127731 1_555
Hf0 O0 2.148962 1_655
Hf0 O24 2.151506 1_555
Hf0 O26 2.151506 1_545
Mg0 O23 1.962837 1_555
Mg0 O25 1.962837 1_555
Mg0 O5 2.164361 1_555
Mg0 O1 2.194430 1_655
Mg0 O17 2.232676 1_555
Mg0 O18 2.232676 1_554
Mg1 O18 2.127247 1_555
Mg1 O17 2.127247 1_555
Mg1 O6 2.144135 1_555
Mg1 O2 2.147648 1_655
Mg1 O24 2.190116 1_555
Mg1 O26 2.190116 1_555
Mg2 O3 2.021592 1_555
Mg2 O29 2.219641 1_545
Mg2 O27 2.219641 1_555
Mg2 O19 2.249497 1_555
Mg2 O20 2.249497 1_554
Mg3 O20 2.111832 1_555
Mg3 O19 2.111832 1_555
Mg3 O4 2.142829 1_555
Mg3 O0 2.169111 1_555
Mg3 O30 2.169493 1_545
Mg3 O28 2.169493 1_555
Mg4 O5 2.103665 1_555
Mg4 O29 2.123365 1_555
Mg4 O27 2.123365 1_555
Mg4 O1 2.126176 1_555
Mg4 O22 2.196714 1_554
Mg4 O21 2.196714 1_555
Mg5 O6 2.146445 1_555
Mg5 O2 2.150405 1_555
Mg5 O21 2.163234 1_555
Mg5 O22 2.163234 1_555
Mg5 O28 2.172159 1_555
Mg5 O30 2.172159 1_555
Mg6 O17 2.099356 1_555
Mg6 O23 2.128768 1_555
Mg6 O11 2.136471 1_555
Mg6 O7 2.139107 1_655
Mg6 O24 2.237294 1_555
Mg6 O15 2.256405 1_555
Mg7 O18 2.099356 1_555
Mg7 O23 2.128768 1_556
Mg7 O12 2.136471 1_555
Mg7 O8 2.139107 1_655
Mg7 O24 2.237294 1_555
Mg7 O16 2.256405 1_555
Mg8 O17 2.099356 1_555
Mg8 O25 2.128768 1_555
Mg8 O13 2.136471 1_555
Mg8 O9 2.139107 1_655
Mg8 O26 2.237294 1_555
Mg8 O15 2.256405 1_565
Mg9 O18 2.099356 1_555
Mg9 O25 2.128768 1_556
Mg9 O14 2.136471 1_555
Mg9 O10 2.139107 1_655
Mg9 O26 2.237294 1_555
Mg9 O16 2.256405 1_565
Mg10 O11 2.156499 1_555
Mg10 O21 2.162052 1_555
Mg10 O7 2.162185 1_555
Mg10 O27 2.166491 1_555
Mg10 O19 2.181332 1_555
Mg10 O28 2.193787 1_555
Mg11 O12 2.156499 1_555
Mg11 O22 2.162052 1_555
Mg11 O8 2.162185 1_555
Mg11 O27 2.166491 1_556
Mg11 O20 2.181332 1_555
Mg11 O28 2.193787 1_555
Mg12 O13 2.156499 1_555
Mg12 O21 2.162052 1_555
Mg12 O9 2.162185 1_555
Mg12 O29 2.166491 1_555
Mg12 O19 2.181332 1_565
Mg12 O30 2.193787 1_555
Mg13 O14 2.156499 1_555
Mg13 O22 2.162052 1_555
Mg13 O10 2.162185 1_555
Mg13 O29 2.166491 1_556
Mg13 O20 2.181332 1_565
Mg13 O30 2.193787 1_555
Mg14 O19 2.075224 1_555
Mg14 O7 2.176055 1_555
Mg14 O9 2.176055 1_545
Mg14 O0 2.189899 1_555
Mg14 O15 2.249236 1_455
Mg15 O20 2.075224 1_555
Mg15 O8 2.176055 1_555
Mg15 O10 2.176055 1_545
Mg15 O0 2.189899 1_555
Mg15 O16 2.249236 1_455
Mg16 O21 2.137393 1_555
Mg16 O17 2.158873 1_455
Mg16 O7 2.168140 1_555
Mg16 O9 2.168140 1_555
Mg16 O1 2.178663 1_555
Mg16 O2 2.181422 1_555
Mg17 O22 2.137393 1_555
Mg17 O18 2.158873 1_455
Mg17 O8 2.168140 1_555
Mg17 O10 2.168140 1_555
Mg17 O1 2.178663 1_556
Mg17 O2 2.181422 1_555
Mg18 O19 2.078304 1_555
Mg18 O3 2.112910 1_555
Mg18 O11 2.161484 1_555
Mg18 O13 2.161484 1_545
Mg18 O15 2.212300 1_555
Mg18 O4 2.252267 1_555
Mg19 O20 2.078304 1_555
Mg19 O3 2.112910 1_556
Mg19 O12 2.161484 1_555
Mg19 O14 2.161484 1_545
Mg19 O16 2.212300 1_555
Mg19 O4 2.252267 1_555
Mg20 O21 2.136194 1_555
Mg20 O17 2.158200 1_555
Mg20 O5 2.165572 1_555
Mg20 O13 2.182946 1_555
Mg20 O11 2.182946 1_555
Mg20 O6 2.194428 1_555
Mg21 O22 2.136194 1_555
Mg21 O18 2.158200 1_555
Mg21 O5 2.165572 1_556
Mg21 O12 2.182946 1_555
Mg21 O14 2.182946 1_555
Mg21 O6 2.194428 1_555
Mg22 O1 2.098552 1_555
Mg22 O27 2.123427 1_555
Mg22 O23 2.187814 1_455
Mg22 O8 2.202537 1_554
Mg22 O7 2.202537 1_555
Mg23 O28 2.103520 1_555
Mg23 O2 2.114073 1_555
Mg23 O8 2.160370 1_555
Mg23 O7 2.160370 1_555
Mg23 O24 2.195765 1_455
Mg23 O0 2.228688 1_555
Mg24 O1 2.098552 1_555
Mg24 O29 2.123427 1_555
Mg24 O25 2.187814 1_455
Mg24 O9 2.202537 1_555
Mg24 O10 2.202537 1_554
Mg25 O30 2.103520 1_555
Mg25 O2 2.114073 1_555
Mg25 O9 2.160370 1_555
Mg25 O10 2.160370 1_555
Mg25 O26 2.195765 1_455
Mg25 O0 2.228688 1_565
Mg26 O27 2.122796 1_555
Mg26 O5 2.159884 1_555
Mg26 O23 2.168238 1_555
Mg26 O11 2.185496 1_555
Mg26 O12 2.185496 1_554
Mg26 O3 2.189139 1_555
Mg27 O28 2.100540 1_555
Mg27 O6 2.121659 1_555
Mg27 O12 2.176344 1_555
Mg27 O11 2.176344 1_555
Mg27 O24 2.192664 1_555
Mg27 O4 2.221191 1_555
Mg28 O29 2.122796 1_555
Mg28 O5 2.159884 1_555
Mg28 O25 2.168238 1_555
Mg28 O13 2.185496 1_555
Mg28 O14 2.185496 1_554
Mg28 O3 2.189139 1_565
Mg29 O30 2.100540 1_555
Mg29 O6 2.121659 1_555
Mg29 O14 2.176344 1_555
Mg29 O13 2.176344 1_555
Mg29 O26 2.192664 1_555
Mg29 O4 2.221191 1_565
