# generated using pymatgen
data_Fe4Mo2N
_symmetry_space_group_name_H-M   'P 1'
_cell_length_a   7.69296289
_cell_length_b   7.69296289
_cell_length_c   7.69296289
_cell_angle_alpha   119.63966685
_cell_angle_beta   119.63966685
_cell_angle_gamma   90.62525668
_symmetry_Int_Tables_number   1
_chemical_formula_structural   Fe4Mo2N
_chemical_formula_sum   'Fe16 Mo8 N4'
_cell_volume   323.66583026
_cell_formula_units_Z   4
loop_
 _symmetry_equiv_pos_site_id
 _symmetry_equiv_pos_as_xyz
  1  'x, y, z'
loop_
 _atom_site_type_symbol
 _atom_site_label
 _atom_site_symmetry_multiplicity
 _atom_site_fract_x
 _atom_site_fract_y
 _atom_site_fract_z
 _atom_site_occupancy
  Fe  Fe0  1  0.12365700  0.37140600  0.24774900  1
  Fe  Fe1  1  0.12409300  0.87634300  0.24774900  1
  Fe  Fe2  1  0.62859400  0.87634300  0.75225100  1
  Fe  Fe3  1  0.12365700  0.87590700  0.75225100  1
  Fe  Fe4  1  0.91882700  0.75650300  0.83767600  1
  Fe  Fe5  1  0.91884900  0.08117300  0.83767600  1
  Fe  Fe6  1  0.24349700  0.08117300  0.16232400  1
  Fe  Fe7  1  0.91882700  0.08115100  0.16232400  1
  Fe  Fe8  1  0.33481100  0.99982700  0.66501600  1
  Fe  Fe9  1  0.33020600  0.66518900  0.66501600  1
  Fe  Fe10  1  0.00017300  0.66518900  0.33498400  1
  Fe  Fe11  1  0.33481100  0.66979400  0.33498400  1
  Fe  Fe12  1  0.69505000  0.69505000  0.39009900  1
  Fe  Fe13  1  0.30495000  0.30495000  0.60990100  1
  Fe  Fe14  1  0.30495000  0.69505000  0.00000000  1
  Fe  Fe15  1  0.69505000  0.30495000  0.00000000  1
  Mo  Mo0  1  0.30637700  0.30637700  0.00000000  1
  Mo  Mo1  1  0.69362300  0.69362300  0.00000000  1
  Mo  Mo2  1  0.55167300  0.05167300  0.10334500  1
  Mo  Mo3  1  0.94832700  0.44832700  0.89665500  1
  Mo  Mo4  1  0.94832700  0.05167300  0.50000000  1
  Mo  Mo5  1  0.55167300  0.44832700  0.50000000  1
  Mo  Mo6  1  0.94716200  0.44716200  0.50000000  1
  Mo  Mo7  1  0.55283800  0.05283800  0.50000000  1
  N  N0  1  0.61792700  0.86495600  0.24702900  1
  N  N1  1  0.62910200  0.38207300  0.24702900  1
  N  N2  1  0.13504400  0.38207300  0.75297100  1
  N  N3  1  0.61792700  0.37089800  0.75297100  1
loop_
_geom_bond_atom_site_label_1
_geom_bond_atom_site_label_2
_geom_bond_distance
_geom_bond_site_symmetry_2
Fe0 Fe7 2.312654 1_455
Fe0 Fe5 2.336640 1_454
Fe0 Fe6 2.336640 1_555
Fe0 Fe9 2.374429 1_555
Fe0 Fe10 2.374429 1_555
Fe0 Fe11 2.382229 1_555
Fe0 Mo6 2.730146 1_455
Fe0 Mo3 2.731219 1_454
Fe0 Mo5 2.731225 1_555
Fe0 Fe15 2.747641 1_455
Fe0 Fe13 2.747648 1_555
Fe0 Mo0 2.753327 1_555
Fe1 Fe6 2.312650 1_565
Fe1 Fe4 2.336640 1_454
Fe1 Fe7 2.336644 1_465
Fe1 Fe8 2.374429 1_555
Fe1 Fe11 2.374432 1_555
Fe1 Fe10 2.382239 1_555
Fe1 Mo7 2.730140 1_565
Fe1 Mo3 2.731224 1_454
Fe1 Mo4 2.731232 1_465
Fe1 Fe14 2.747634 1_555
Fe1 Fe13 2.747642 1_565
Fe1 Mo1 2.753334 1_455
Fe2 Fe5 2.312654 1_565
Fe2 Fe4 2.336640 1_555
Fe2 Fe7 2.336640 1_566
Fe2 Fe8 2.374429 1_555
Fe2 Fe9 2.382229 1_555
Fe2 Mo7 2.730146 1_565
Fe2 Mo2 2.731219 1_566
Fe2 Mo5 2.731225 1_555
Fe2 Mo1 2.753327 1_556
Fe3 Fe4 2.312650 1_455
Fe3 Fe6 2.336640 1_566
Fe3 Fe5 2.336644 1_465
Fe3 Fe9 2.374432 1_555
Fe3 Fe8 2.382239 1_555
Fe3 Mo6 2.730140 1_455
Fe3 Mo2 2.731224 1_566
Fe3 Mo4 2.731232 1_465
Fe3 Mo0 2.753334 1_566
Fe4 Fe5 2.497672 1_565
Fe4 Fe6 2.497672 1_666
Fe4 Fe7 2.511095 1_566
Fe4 Mo5 2.617597 1_555
Fe4 Mo3 2.617601 1_555
Fe4 Mo6 2.629796 1_555
Fe4 Mo1 2.741151 1_556
Fe5 Fe7 2.497672 1_556
Fe5 Fe6 2.511095 1_656
Fe5 Mo3 2.617594 1_555
Fe5 Mo4 2.617597 1_555
Fe5 Mo7 2.629796 1_555
Fe5 Mo0 2.741151 1_656
Fe6 Fe7 2.497672 1_455
Fe6 Mo5 2.617597 1_555
Fe6 Mo2 2.617601 1_555
Fe6 Mo7 2.629796 1_555
Fe6 Mo0 2.741151 1_555
Fe7 Mo2 2.617594 1_555
Fe7 Mo4 2.617597 1_555
Fe7 Mo6 2.629796 1_555
Fe7 Mo1 2.741151 1_545
Fe8 Fe9 2.574215 1_555
Fe8 Mo0 2.609244 1_566
Fe8 Mo7 2.682203 1_565
Fe8 Mo2 2.721035 1_566
Fe8 Mo4 2.721042 1_465
Fe9 Mo1 2.609239 1_556
Fe9 Mo6 2.682210 1_455
Fe9 Mo5 2.721035 1_555
Fe9 Mo2 2.721039 1_566
Fe10 Fe3 2.374429 1_555
Fe10 Fe9 2.552743 1_555
Fe10 Fe11 2.574215 1_555
Fe10 Fe8 2.574215 1_555
Fe10 Fe12 2.577243 1_455
Fe10 Fe15 2.577247 1_455
Fe10 Mo1 2.609244 1_455
Fe10 Mo6 2.682203 1_455
Fe10 Mo3 2.721035 1_454
Fe10 Mo4 2.721042 1_465
Fe11 Fe2 2.374429 1_555
Fe11 Fe8 2.552743 1_555
Fe11 Fe9 2.574207 1_555
Fe11 Fe12 2.577250 1_555
Fe11 Fe14 2.577252 1_555
Fe11 Mo0 2.609239 1_555
Fe11 Mo7 2.682210 1_565
Fe11 Mo5 2.721035 1_555
Fe11 Mo3 2.721039 1_454
Fe12 N0 2.016387 1_555
Fe12 N1 2.016394 1_555
Fe12 Fe3 2.747642 1_655
Fe12 Fe2 2.747648 1_555
Fe12 Fe5 2.748101 1_565
Fe12 Fe4 2.748105 1_555
Fe13 N2 2.016387 1_555
Fe13 N3 2.016394 1_555
Fe13 Fe8 2.577243 1_545
Fe13 Fe9 2.577250 1_555
Fe13 Fe7 2.748101 1_455
Fe13 Fe6 2.748105 1_555
Fe14 N2 2.016393 1_554
Fe14 N0 2.016393 1_555
Fe14 Fe9 2.577252 1_554
Fe14 Fe3 2.747634 1_554
Fe14 Fe6 2.748098 1_565
Fe14 Fe4 2.748098 1_454
Fe15 N1 2.016393 1_555
Fe15 N3 2.016393 1_554
Fe15 Fe8 2.577247 1_544
Fe15 Fe2 2.747641 1_544
Fe15 Fe7 2.748098 1_555
Fe15 Fe5 2.748098 1_554
Mo0 N2 2.078865 1_554
Mo0 N1 2.078865 1_555
Mo1 N0 2.078865 1_555
Mo1 N3 2.078865 1_554
Mo2 N1 2.138687 1_555
Mo2 N0 2.138694 1_545
Mo3 N3 2.138687 1_555
Mo3 N2 2.138694 1_655
Mo4 N2 2.138688 1_655
Mo4 N0 2.138688 1_545
Mo5 N3 2.138688 1_555
Mo5 N1 2.138688 1_555
Mo6 N1 2.079568 1_555
Mo6 N2 2.079568 1_655
Mo7 N3 2.079568 1_555
Mo7 N0 2.079568 1_545
