# generated using pymatgen
data_ErGe2Ir
_symmetry_space_group_name_H-M   'P 1'
_cell_length_a   9.37605239
_cell_length_b   9.37661395
_cell_length_c   9.37748432
_cell_angle_alpha   153.92327923
_cell_angle_beta   124.00806329
_cell_angle_gamma   62.77549787
_symmetry_Int_Tables_number   1
_chemical_formula_structural   ErGe2Ir
_chemical_formula_sum   'Er4 Ge8 Ir4'
_cell_volume   298.12322658
_cell_formula_units_Z   4
loop_
 _symmetry_equiv_pos_site_id
 _symmetry_equiv_pos_as_xyz
  1  'x, y, z'
loop_
 _atom_site_type_symbol
 _atom_site_label
 _atom_site_symmetry_multiplicity
 _atom_site_fract_x
 _atom_site_fract_y
 _atom_site_fract_z
 _atom_site_occupancy
  Er  Er0  1  0.70559279  0.20559962  0.49987022  1
  Er  Er1  1  0.25927909  0.99986955  0.25924403  1
  Er  Er2  1  0.29440765  0.79440085  0.50012941  1
  Er  Er3  1  0.74072010  0.00013092  0.74075645  1
  Ge  Ge0  1  0.04831964  0.20143353  0.84686144  1
  Ge  Ge1  1  0.95168042  0.79856613  0.15313831  1
  Ge  Ge2  1  0.64545491  0.79836288  0.84670995  1
  Ge  Ge3  1  0.35454512  0.20163688  0.15328899  1
  Ge  Ge4  1  0.57629846  0.57618863  0.99980502  1
  Ge  Ge5  1  0.92300485  0.42304656  0.50002252  1
  Ge  Ge6  1  0.07699449  0.57695371  0.49997741  1
  Ge  Ge7  1  0.42370186  0.42381185  0.00019594  1
  Ir  Ir0  1  0.60572674  0.35497120  0.25040229  1
  Ir  Ir1  1  0.39427345  0.64502828  0.74959765  1
  Ir  Ir2  1  0.89538255  0.64481685  0.25048310  1
  Ir  Ir3  1  0.10461689  0.35518156  0.74951527  1
loop_
_geom_bond_atom_site_label_1
_geom_bond_atom_site_label_2
_geom_bond_distance
_geom_bond_site_symmetry_2
Er0 Ge2 2.915178 1_555
Er0 Ge1 2.916240 1_545
Er0 Ge1 2.916311 1_556
Er0 Ge2 2.916528 1_544
Er0 Ge4 2.959869 1_544
Er0 Ge4 2.959960 1_555
Er0 Ge3 3.053935 1_555
Er0 Ge0 3.054919 1_655
Er0 Ir1 3.206342 1_544
Er0 Ir2 3.207528 1_545
Er0 Ir1 3.207817 1_555
Er0 Ir2 3.208048 1_556
Er0 Ir0 3.247602 1_555
Er0 Ir3 3.248085 1_655
Er0 Ge5 3.479488 1_555
Er1 Ir3 3.138867 1_554
Er1 Ir3 3.140237 1_565
Er1 Ir1 3.140243 1_554
Er1 Ir1 3.141038 1_565
Er1 Ge7 3.233037 1_555
Er1 Ge4 3.233416 1_565
Er1 Ge4 3.234025 1_554
Er1 Ge7 3.234811 1_566
Er1 Ge5 3.346706 1_454
Er1 Ge5 3.347529 1_465
Er1 Ge6 3.347770 1_565
Er1 Ge6 3.347963 1_554
Er1 Ge1 3.356722 1_455
Er1 Ge3 3.358587 1_565
Er2 Ge3 2.915181 1_555
Er2 Ge0 2.916244 1_565
Er2 Ge0 2.916316 1_554
Er2 Ge3 2.916527 1_566
Er2 Ge7 2.959863 1_566
Er2 Ge7 2.959950 1_555
Er2 Ge2 3.053933 1_555
Er2 Ge1 3.054916 1_455
Er2 Ir0 3.206340 1_566
Er2 Ir3 3.207521 1_565
Er2 Ir0 3.207817 1_555
Er2 Ir3 3.208047 1_554
Er2 Ir1 3.247614 1_555
Er2 Ir2 3.248096 1_455
Er2 Ge6 3.479501 1_555
Er3 Ir2 3.138862 1_556
Er3 Ir0 3.140236 1_556
Er3 Ir2 3.140246 1_545
Er3 Ir0 3.141038 1_545
Er3 Ge4 3.233033 1_555
Er3 Ge7 3.233411 1_545
Er3 Ge7 3.234017 1_556
Er3 Ge4 3.234809 1_544
Er3 Ge6 3.346705 1_656
Er3 Ge6 3.347531 1_645
Er3 Ge5 3.347769 1_545
Er3 Ge5 3.347960 1_556
Er3 Ge0 3.356729 1_655
Er3 Ge2 3.358574 1_545
Ge0 Ir2 2.452530 1_445
Ge0 Ir2 2.452592 1_456
Ge0 Ir3 2.605689 1_555
Ge0 Ge3 2.695724 1_556
Ge1 Ir3 2.452524 1_665
Ge1 Ir3 2.452593 1_654
Ge1 Ir2 2.605691 1_555
Ge1 Ge2 2.695728 1_554
Ge2 Ir0 2.452477 1_566
Ge2 Ir0 2.452776 1_555
Ge2 Ir1 2.605728 1_555
Ge3 Ir1 2.452482 1_544
Ge3 Ir1 2.452782 1_555
Ge3 Ir0 2.605721 1_555
Ge4 Ge7 2.444204 1_556
Ge4 Ir2 2.463252 1_556
Ge4 Ir1 2.463316 1_555
Ge5 Ir0 2.449514 1_555
Ge5 Ir3 2.450485 1_655
Ge6 Ir1 2.449520 1_555
Ge6 Ir2 2.450483 1_455
Ge7 Ir3 2.463259 1_554
Ge7 Ir0 2.463315 1_555
