# generated using pymatgen
data_HgAsPd5
_symmetry_space_group_name_H-M   'P 1'
_cell_length_a   4.02172703
_cell_length_b   4.02172703
_cell_length_c   7.09059946
_cell_angle_alpha   90.00000000
_cell_angle_beta   90.00000000
_cell_angle_gamma   90.00000000
_symmetry_Int_Tables_number   1
_chemical_formula_structural   HgAsPd5
_chemical_formula_sum   'Hg1 As1 Pd5'
_cell_volume   114.68539991
_cell_formula_units_Z   1
loop_
 _symmetry_equiv_pos_site_id
 _symmetry_equiv_pos_as_xyz
  1  'x, y, z'
loop_
 _atom_site_type_symbol
 _atom_site_label
 _atom_site_symmetry_multiplicity
 _atom_site_fract_x
 _atom_site_fract_y
 _atom_site_fract_z
 _atom_site_occupancy
  Hg  Hg0  1  0.50000000  0.50000000  -0.00000000  1
  As  As0  1  -0.00000000  0.00000000  0.50000000  1
  Pd  Pd0  1  -0.00000000  0.00000000  -0.00000000  1
  Pd  Pd1  1  0.50000000  -0.00000000  0.70767343  1
  Pd  Pd2  1  0.00000000  0.50000000  0.70767343  1
  Pd  Pd3  1  0.50000000  0.00000000  0.29232657  1
  Pd  Pd4  1  -0.00000000  0.50000000  0.29232657  1
loop_
_geom_bond_atom_site_label_1
_geom_bond_atom_site_label_2
_geom_bond_distance
_geom_bond_site_symmetry_2
Hg0 Pd0 2.843790 1_565
Hg0 Pd0 2.843790 1_655
Hg0 Pd0 2.843790 1_555
Hg0 Pd0 2.843790 1_665
Hg0 Pd4 2.887897 1_555
Hg0 Pd3 2.887897 1_565
Hg0 Pd4 2.887897 1_655
Hg0 Pd3 2.887897 1_555
Hg0 Pd2 2.887897 1_654
Hg0 Pd2 2.887897 1_554
Hg0 Pd1 2.887897 1_564
Hg0 Pd1 2.887897 1_554
As0 Pd3 2.492371 1_555
As0 Pd4 2.492371 1_545
As0 Pd3 2.492371 1_455
As0 Pd4 2.492371 1_555
As0 Pd2 2.492371 1_555
As0 Pd1 2.492371 1_455
As0 Pd2 2.492371 1_545
As0 Pd1 2.492371 1_555
Pd0 Pd4 2.887897 1_555
Pd0 Pd2 2.887897 1_544
Pd0 Pd1 2.887897 1_554
Pd0 Pd1 2.887897 1_454
Pd0 Pd3 2.887897 1_555
Pd0 Pd2 2.887897 1_554
Pd0 Pd3 2.887897 1_455
Pd0 Pd4 2.887897 1_545
Pd1 Pd2 2.843790 1_655
Pd1 Pd2 2.843790 1_555
Pd1 Pd2 2.843790 1_545
Pd1 Pd2 2.843790 1_645
Pd1 Pd3 2.945058 1_555
Pd2 Pd4 2.945058 1_555
Pd3 Pd4 2.843790 1_545
Pd3 Pd4 2.843790 1_555
Pd3 Pd4 2.843790 1_645
Pd3 Pd4 2.843790 1_655
