# generated using pymatgen
data_RbNaMg14
_symmetry_space_group_name_H-M   'P 1'
_cell_length_a   6.66140081
_cell_length_b   6.43710435
_cell_length_c   10.91872479
_cell_angle_alpha   90.00000000
_cell_angle_beta   90.00000000
_cell_angle_gamma   118.89228873
_symmetry_Int_Tables_number   1
_chemical_formula_structural   RbNaMg14
_chemical_formula_sum   'Rb1 Na1 Mg14'
_cell_volume   409.91975602
_cell_formula_units_Z   1
loop_
 _symmetry_equiv_pos_site_id
 _symmetry_equiv_pos_as_xyz
  1  'x, y, z'
loop_
 _atom_site_type_symbol
 _atom_site_label
 _atom_site_symmetry_multiplicity
 _atom_site_fract_x
 _atom_site_fract_y
 _atom_site_fract_z
 _atom_site_occupancy
  Rb  Rb0  1  0.16611656  0.83305778  0.12500000  1
  Na  Na0  1  0.16845992  0.33422946  0.12500000  1
  Mg  Mg0  1  0.16274794  0.33137347  0.62500000  1
  Mg  Mg1  1  0.16371471  0.83185686  0.62500000  1
  Mg  Mg2  1  0.66629528  0.33526631  0.12500000  1
  Mg  Mg3  1  0.66757114  0.33285209  0.62500000  1
  Mg  Mg4  1  0.66629528  0.83102797  0.12500000  1
  Mg  Mg5  1  0.66757114  0.83471805  0.62500000  1
  Mg  Mg6  1  0.34312172  0.17607559  0.39775523  1
  Mg  Mg7  1  0.34312172  0.17607559  0.85224477  1
  Mg  Mg8  1  0.34312172  0.66704713  0.39775523  1
  Mg  Mg9  1  0.34312172  0.66704713  0.85224477  1
  Mg  Mg10  1  0.82838821  0.16419460  0.37671861  1
  Mg  Mg11  1  0.82838821  0.16419460  0.87328139  1
  Mg  Mg12  1  0.82098236  0.66049168  0.39015190  1
  Mg  Mg13  1  0.82098236  0.66049168  0.85984810  1
loop_
_geom_bond_atom_site_label_1
_geom_bond_atom_site_label_2
_geom_bond_distance
_geom_bond_site_symmetry_2
Na0 Rb0 3.218581 1_545
Na0 Rb0 3.218581 1_555
Mg0 Mg6 3.124133 1_555
Mg0 Mg7 3.124133 1_555
Mg0 Mg9 3.124140 1_555
Mg0 Mg8 3.124140 1_555
Mg0 Mg1 3.218557 1_545
Mg0 Mg1 3.218557 1_555
Mg0 Mg5 3.303180 1_445
Mg0 Mg3 3.303180 1_455
Mg0 Mg10 3.339437 1_455
Mg0 Mg11 3.339437 1_455
Mg0 Mg5 3.358241 1_555
Mg0 Mg3 3.358241 1_555
Mg1 Mg9 3.152052 1_555
Mg1 Mg8 3.152052 1_555
Mg1 Mg7 3.152058 1_565
Mg1 Mg6 3.152058 1_565
Mg1 Mg12 3.251299 1_455
Mg1 Mg13 3.251299 1_455
Mg1 Mg3 3.313949 1_455
Mg1 Mg5 3.313949 1_455
Mg1 Mg3 3.347529 1_565
Mg1 Mg5 3.347530 1_555
Mg2 Mg4 3.191270 1_555
Mg2 Mg4 3.245835 1_545
Mg2 Na0 3.313061 1_555
Mg2 Rb0 3.323216 1_655
Mg2 Rb0 3.338223 1_545
Mg2 Na0 3.348350 1_655
Mg2 Mg7 3.524505 1_554
Mg2 Mg6 3.524505 1_555
Mg3 Mg6 3.120639 1_555
Mg3 Mg7 3.120639 1_555
Mg3 Mg5 3.206541 1_545
Mg3 Mg5 3.230564 1_555
Mg4 Na0 3.313061 1_555
Mg4 Rb0 3.323216 1_655
Mg4 Rb0 3.338224 1_555
Mg4 Na0 3.348350 1_665
Mg4 Mg8 3.524505 1_555
Mg4 Mg9 3.524505 1_554
Mg5 Mg8 3.120639 1_555
Mg5 Mg9 3.120639 1_555
Mg6 Mg8 3.160435 1_555
Mg6 Mg8 3.276669 1_545
Mg6 Na0 3.521942 1_555
Mg6 Rb0 3.552351 1_545
Mg7 Mg9 3.160435 1_555
Mg7 Mg9 3.276669 1_545
Mg7 Na0 3.521942 1_556
Mg7 Rb0 3.552351 1_546
Mg8 Na0 3.521947 1_555
Mg8 Rb0 3.552345 1_555
Mg9 Na0 3.521947 1_556
Mg9 Rb0 3.552345 1_556
Mg10 Mg12 3.222182 1_545
Mg10 Mg12 3.222182 1_555
Mg10 Mg8 3.278249 1_545
Mg10 Mg6 3.278249 1_555
Mg10 Mg3 3.286218 1_555
Mg10 Mg5 3.286224 1_545
Mg10 Mg2 3.328891 1_555
Mg10 Mg4 3.328897 1_545
Mg10 Na0 3.389361 1_655
Mg10 Mg8 3.400322 1_655
Mg10 Mg6 3.400322 1_655
Mg11 Mg13 3.222182 1_545
Mg11 Mg13 3.222182 1_555
Mg11 Mg9 3.278249 1_545
Mg11 Mg7 3.278249 1_555
Mg11 Mg3 3.286218 1_555
Mg11 Mg5 3.286224 1_545
Mg11 Mg2 3.328891 1_556
Mg11 Mg4 3.328897 1_546
Mg11 Na0 3.389361 1_656
Mg11 Mg9 3.400322 1_655
Mg11 Mg7 3.400322 1_655
Mg12 Mg5 3.159905 1_555
Mg12 Mg3 3.159911 1_555
Mg12 Mg6 3.204898 1_555
Mg12 Mg8 3.204898 1_555
Mg12 Mg4 3.426612 1_555
Mg12 Mg2 3.426618 1_555
Mg12 Mg6 3.458984 1_665
Mg12 Mg8 3.458985 1_655
Mg12 Rb0 3.526121 1_655
Mg13 Mg5 3.159905 1_555
Mg13 Mg3 3.159911 1_555
Mg13 Mg7 3.204898 1_555
Mg13 Mg9 3.204898 1_555
Mg13 Mg4 3.426612 1_556
Mg13 Mg2 3.426618 1_556
Mg13 Mg7 3.458984 1_665
Mg13 Mg9 3.458985 1_655
Mg13 Rb0 3.526121 1_656
