# generated using pymatgen
data_Ga2(CN2)3
_symmetry_space_group_name_H-M   'P 1'
_cell_length_a   9.89654281
_cell_length_b   5.68699140
_cell_length_c   28.00795288
_cell_angle_alpha   89.99999802
_cell_angle_beta   160.62367807
_cell_angle_gamma   73.30230434
_symmetry_Int_Tables_number   1
_chemical_formula_structural   Ga2(CN2)3
_chemical_formula_sum   'Ga4 C6 N12'
_cell_volume   261.49167184
_cell_formula_units_Z   2
loop_
 _symmetry_equiv_pos_site_id
 _symmetry_equiv_pos_as_xyz
  1  'x, y, z'
loop_
 _atom_site_type_symbol
 _atom_site_label
 _atom_site_symmetry_multiplicity
 _atom_site_fract_x
 _atom_site_fract_y
 _atom_site_fract_z
 _atom_site_occupancy
  Ga  Ga0  1  0.00000900  0.99999500  0.16373200  1
  Ga  Ga1  1  0.00000900  0.99999600  0.66373200  1
  Ga  Ga2  1  0.99999100  0.00000500  0.83628600  1
  Ga  Ga3  1  0.99999100  0.00000400  0.33628600  1
  C  C0  1  0.92656400  0.69114300  0.05886400  1
  C  C1  1  0.00000400  0.69114000  0.75001100  1
  C  C2  1  0.07343400  0.61770700  0.44115400  1
  C  C3  1  0.92656400  0.38229300  0.55886400  1
  C  C4  1  0.07343400  0.30885900  0.94115400  1
  C  C5  1  0.00000400  0.30885600  0.25001100  1
  N  N0  1  0.82094600  0.78434600  0.06631600  1
  N  N1  1  0.17398400  0.61036000  0.85066100  1
  N  N2  1  0.00507100  0.60529200  0.46102300  1
  N  N3  1  0.82094600  0.39470800  0.56631600  1
  N  N4  1  0.00507100  0.38963700  0.96102300  1
  N  N5  1  0.17398400  0.21565600  0.35066100  1
  N  N6  1  0.17906100  0.21565100  0.93370500  1
  N  N7  1  0.82601500  0.38963800  0.14935600  1
  N  N8  1  0.99492300  0.39471300  0.53899300  1
  N  N9  1  0.17906100  0.60528800  0.43370500  1
  N  N10  1  0.99492300  0.61036500  0.03899300  1
  N  N11  1  0.82601500  0.78434700  0.64935600  1
loop_
_geom_bond_atom_site_label_1
_geom_bond_atom_site_label_2
_geom_bond_distance
_geom_bond_site_symmetry_2
Ga0 N0 2.053089 1_455
Ga0 N1 2.053108 1_464
Ga0 N2 2.053116 1_655
Ga0 N8 2.129925 1_555
Ga0 N7 2.129941 1_465
Ga0 N6 2.129952 1_464
Ga1 N3 2.053090 1_465
Ga1 N5 2.053107 1_465
Ga1 N4 2.053117 1_655
Ga1 N10 2.129926 1_556
Ga1 N11 2.129940 1_455
Ga1 N9 2.129953 1_465
Ga2 N6 2.053103 1_655
Ga2 N7 2.053105 1_646
Ga2 N8 2.053120 1_455
Ga2 N2 2.129936 1_555
Ga2 N0 2.129950 1_646
Ga2 N1 2.129963 1_645
Ga3 N9 2.053103 1_645
Ga3 N11 2.053104 1_645
Ga3 N10 2.053123 1_455
Ga3 N4 2.129936 1_554
Ga3 N3 2.129951 1_645
Ga3 N5 2.129962 1_655
C0 N10 1.228918 1_555
C0 N0 1.228943 1_555
C1 N1 1.228898 1_555
C1 N11 1.228956 1_455
C2 N2 1.228898 1_555
C2 N9 1.228945 1_555
C3 N8 1.228919 1_555
C3 N3 1.228943 1_555
C4 N4 1.228898 1_555
C4 N6 1.228945 1_555
C5 N5 1.228898 1_555
C5 N7 1.228956 1_455
