# generated using pymatgen
data_LiHfMg14O15
_symmetry_space_group_name_H-M   'P 1'
_cell_length_a   8.56777928
_cell_length_b   8.61335736
_cell_length_c   4.29318947
_cell_angle_alpha   90.00000000
_cell_angle_beta   90.00000000
_cell_angle_gamma   90.00000000
_symmetry_Int_Tables_number   1
_chemical_formula_structural   LiHfMg14O15
_chemical_formula_sum   'Li1 Hf1 Mg14 O15'
_cell_volume   316.82598327
_cell_formula_units_Z   1
loop_
 _symmetry_equiv_pos_site_id
 _symmetry_equiv_pos_as_xyz
  1  'x, y, z'
loop_
 _atom_site_type_symbol
 _atom_site_label
 _atom_site_symmetry_multiplicity
 _atom_site_fract_x
 _atom_site_fract_y
 _atom_site_fract_z
 _atom_site_occupancy
  Li  Li0  1  -0.00000348  0.00000000  0.00000000  1
  Hf  Hf0  1  0.00772751  0.50000000  0.00000000  1
  Mg  Mg0  1  0.50019872  0.00000000  0.00000000  1
  Mg  Mg1  1  0.49986870  0.50000000  0.00000000  1
  Mg  Mg2  1  0.00089195  0.23380428  0.50000000  1
  Mg  Mg3  1  0.00089195  0.76619572  0.50000000  1
  Mg  Mg4  1  0.49933672  0.24728499  0.50000000  1
  Mg  Mg5  1  0.49933672  0.75271501  0.50000000  1
  Mg  Mg6  1  0.24594059  0.00000000  0.50000000  1
  Mg  Mg7  1  0.25321955  0.50000000  0.50000000  1
  Mg  Mg8  1  0.75411158  0.00000000  0.50000000  1
  Mg  Mg9  1  0.74415780  0.50000000  0.50000000  1
  Mg  Mg10  1  0.25369304  0.23887214  0.00000000  1
  Mg  Mg11  1  0.25369304  0.76112786  0.00000000  1
  Mg  Mg12  1  0.74690585  0.24150457  0.00000000  1
  Mg  Mg13  1  0.74690585  0.75849543  0.00000000  1
  O  O0  1  0.25731440  0.00000000  0.00000000  1
  O  O1  1  0.74289159  0.00000000  0.00000000  1
  O  O2  1  0.74567698  0.50000000  0.00000000  1
  O  O3  1  0.24963302  0.24549946  0.50000000  1
  O  O4  1  0.24963302  0.75450054  0.50000000  1
  O  O5  1  0.75137125  0.25091761  0.50000000  1
  O  O6  1  0.75137125  0.74908239  0.50000000  1
  O  O7  1  0.99929392  0.00000000  0.50000000  1
  O  O8  1  0.99468272  0.50000000  0.50000000  1
  O  O9  1  0.50116549  0.00000000  0.50000000  1
  O  O10  1  0.49995525  0.50000000  0.50000000  1
  O  O11  1  0.99971460  0.25922816  -0.00000000  1
  O  O12  1  0.99971460  0.74077184  0.00000000  1
  O  O13  1  0.50035290  0.25224022  0.00000000  1
  O  O14  1  0.50035290  0.74775978  0.00000000  1
loop_
_geom_bond_atom_site_label_1
_geom_bond_atom_site_label_2
_geom_bond_distance
_geom_bond_site_symmetry_2
Li0 O7 2.146603 1_455
Li0 O7 2.146603 1_454
Li0 O1 2.202818 1_455
Li0 O0 2.204643 1_555
Li0 O12 2.232826 1_445
Li0 O11 2.232826 1_455
Hf0 O11 2.074990 1_455
Hf0 O12 2.074990 1_455
Hf0 O8 2.149502 1_455
Hf0 O8 2.149502 1_454
Hf0 O2 2.245191 1_455
Mg0 O1 2.079339 1_555
Mg0 O0 2.080979 1_555
Mg0 O9 2.146611 1_555
Mg0 O9 2.146611 1_554
Mg0 O14 2.172636 1_545
Mg0 O13 2.172636 1_555
Mg1 O2 2.106031 1_555
Mg1 O14 2.134048 1_555
Mg1 O13 2.134048 1_555
Mg1 O10 2.146595 1_555
Mg1 O10 2.146595 1_554
Mg2 O7 2.013886 1_455
Mg2 O3 2.133538 1_555
Mg2 O5 2.142914 1_455
Mg2 O11 2.157759 1_455
Mg2 O11 2.157759 1_456
Mg2 O8 2.293456 1_455
Mg3 O7 2.013886 1_465
Mg3 O4 2.133538 1_555
Mg3 O6 2.142914 1_455
Mg3 O12 2.157759 1_455
Mg3 O12 2.157759 1_456
Mg3 O8 2.293456 1_455
Mg4 O9 2.130012 1_555
Mg4 O3 2.139461 1_555
Mg4 O13 2.147037 1_555
Mg4 O13 2.147037 1_556
Mg4 O5 2.159603 1_555
Mg4 O10 2.176731 1_555
Mg5 O9 2.130012 1_565
Mg5 O4 2.139461 1_555
Mg5 O14 2.147037 1_556
Mg5 O14 2.147037 1_555
Mg5 O6 2.159603 1_555
Mg5 O10 2.176731 1_555
Mg6 O7 2.113214 1_455
Mg6 O4 2.114811 1_545
Mg6 O3 2.114811 1_555
Mg6 O0 2.148806 1_555
Mg6 O0 2.148806 1_556
Mg6 O9 2.186711 1_555
Mg7 O10 2.113977 1_555
Mg7 O4 2.192319 1_555
Mg7 O3 2.192319 1_555
Mg7 O8 2.215086 1_455
Mg8 O7 2.100668 1_555
Mg8 O1 2.148746 1_556
Mg8 O1 2.148746 1_555
Mg8 O6 2.161371 1_545
Mg8 O5 2.161371 1_555
Mg8 O9 2.167186 1_555
Mg9 O10 2.092274 1_555
Mg9 O5 2.146326 1_555
Mg9 O6 2.146326 1_555
Mg9 O8 2.146442 1_555
Mg9 O2 2.146634 1_556
Mg9 O2 2.146634 1_555
Mg10 O0 2.057725 1_555
Mg10 O13 2.116462 1_555
Mg10 O3 2.147635 1_555
Mg10 O3 2.147635 1_554
Mg10 O11 2.183084 1_455
Mg11 O0 2.057725 1_565
Mg11 O14 2.116462 1_555
Mg11 O4 2.147635 1_554
Mg11 O4 2.147635 1_555
Mg11 O12 2.183084 1_455
Mg12 O1 2.080449 1_555
Mg12 O13 2.114434 1_555
Mg12 O5 2.148466 1_555
Mg12 O5 2.148466 1_554
Mg12 O11 2.171383 1_555
Mg12 O2 2.226538 1_555
Mg13 O1 2.080449 1_565
Mg13 O14 2.114434 1_555
Mg13 O6 2.148466 1_555
Mg13 O6 2.148466 1_554
Mg13 O12 2.171383 1_555
Mg13 O2 2.226538 1_555
