# generated using pymatgen
data_PrSbPd
_symmetry_space_group_name_H-M   'P 1'
_cell_length_a   4.59748447
_cell_length_b   4.59780746
_cell_length_c   8.15274054
_cell_angle_alpha   90.00000000
_cell_angle_beta   90.00000000
_cell_angle_gamma   119.99767615
_symmetry_Int_Tables_number   1
_chemical_formula_structural   PrSbPd
_chemical_formula_sum   'Pr2 Sb2 Pd2'
_cell_volume   149.25038966
_cell_formula_units_Z   2
loop_
 _symmetry_equiv_pos_site_id
 _symmetry_equiv_pos_as_xyz
  1  'x, y, z'
loop_
 _atom_site_type_symbol
 _atom_site_label
 _atom_site_symmetry_multiplicity
 _atom_site_fract_x
 _atom_site_fract_y
 _atom_site_fract_z
 _atom_site_occupancy
  Pr  Pr0  1  -0.00000000  0.00000000  0.50000000  1
  Pr  Pr1  1  -0.00000000  0.00000000  0.00000000  1
  Sb  Sb0  1  0.33334804  0.66669509  0.75000000  1
  Sb  Sb1  1  0.66665196  0.33330491  0.25000000  1
  Pd  Pd0  1  0.33336110  0.66672120  0.25000000  1
  Pd  Pd1  1  0.66663890  0.33327880  0.75000000  1
loop_
_geom_bond_atom_site_label_1
_geom_bond_atom_site_label_2
_geom_bond_distance
_geom_bond_site_symmetry_2
Pr0 Sb0 3.346616 1_445
Pr0 Sb1 3.346616 1_555
Pr0 Sb0 3.346619 1_545
Pr0 Sb1 3.346619 1_455
Pr0 Sb0 3.346900 1_555
Pr0 Sb1 3.346900 1_445
Pr1 Sb1 3.346616 1_555
Pr1 Sb0 3.346616 1_444
Pr1 Sb0 3.346619 1_544
Pr1 Sb1 3.346619 1_455
Pr1 Sb0 3.346900 1_554
Pr1 Sb1 3.346900 1_445
Pd0 Sb1 2.654277 1_565
Pd0 Sb1 2.654582 1_555
Pd0 Sb1 2.654590 1_455
Pd0 Pr1 3.346575 1_665
Pd0 Pr0 3.346575 1_665
Pd0 Pr0 3.346578 1_565
Pd0 Pr1 3.346578 1_565
Pd0 Pr0 3.346983 1_555
Pd0 Pr1 3.346983 1_555
Pd1 Sb0 2.654277 1_545
Pd1 Sb0 2.654582 1_555
Pd1 Sb0 2.654590 1_655
Pd1 Pr1 3.346575 1_556
Pd1 Pr0 3.346575 1_555
Pd1 Pr0 3.346578 1_655
Pd1 Pr1 3.346578 1_656
Pd1 Pr0 3.346983 1_665
Pd1 Pr1 3.346983 1_666
