# generated using pymatgen
data_Sr4Ca4FeCo7O24
_symmetry_space_group_name_H-M   'P 1'
_cell_length_a   7.75343719
_cell_length_b   7.75343719
_cell_length_c   7.59774498
_cell_angle_alpha   89.90478315
_cell_angle_beta   89.90478315
_cell_angle_gamma   89.99186939
_symmetry_Int_Tables_number   1
_chemical_formula_structural   Sr4Ca4FeCo7O24
_chemical_formula_sum   'Sr4 Ca4 Fe1 Co7 O24'
_cell_volume   456.74316251
_cell_formula_units_Z   1
loop_
 _symmetry_equiv_pos_site_id
 _symmetry_equiv_pos_as_xyz
  1  'x, y, z'
loop_
 _atom_site_type_symbol
 _atom_site_label
 _atom_site_symmetry_multiplicity
 _atom_site_fract_x
 _atom_site_fract_y
 _atom_site_fract_z
 _atom_site_occupancy
  Sr  Sr0  1  0.74591800  0.25378800  0.75194500  1
  Sr  Sr1  1  0.74599200  0.74599200  0.75222500  1
  Sr  Sr2  1  0.25378800  0.74591800  0.75194500  1
  Sr  Sr3  1  0.25393400  0.25393400  0.24860100  1
  Ca  Ca0  1  0.74405800  0.25719200  0.24391200  1
  Ca  Ca1  1  0.74275200  0.74275200  0.24528200  1
  Ca  Ca2  1  0.25664700  0.25664700  0.75537800  1
  Ca  Ca3  1  0.25719200  0.74405800  0.24391200  1
  Fe  Fe0  1  0.99996000  0.99996000  0.00162000  1
  Co  Co0  1  0.99997100  0.49991700  0.00143200  1
  Co  Co1  1  0.00021900  0.00021900  0.49918700  1
  Co  Co2  1  0.00008800  0.50017600  0.49831900  1
  Co  Co3  1  0.49991700  0.99997100  0.00143200  1
  Co  Co4  1  0.49972200  0.49972200  0.00081300  1
  Co  Co5  1  0.50017600  0.00008800  0.49831900  1
  Co  Co6  1  0.49992600  0.49992600  0.49829100  1
  O  O0  1  0.75147400  0.99910600  0.00560300  1
  O  O1  1  0.74570400  0.49918100  0.00695100  1
  O  O2  1  0.73523600  0.00089200  0.49624500  1
  O  O3  1  0.74422300  0.50120600  0.49095100  1
  O  O4  1  0.24822400  0.99972300  0.00257900  1
  O  O5  1  0.25420600  0.50151700  0.00243200  1
  O  O6  1  0.26502900  0.99905600  0.49853700  1
  O  O7  1  0.25598800  0.49949500  0.49907600  1
  O  O8  1  0.00287800  0.00287800  0.73337900  1
  O  O9  1  0.00193800  0.49785400  0.76370900  1
  O  O10  1  0.99774400  0.99774400  0.26738200  1
  O  O11  1  0.99849500  0.50129000  0.23713400  1
  O  O12  1  0.49785400  0.00193800  0.76370900  1
  O  O13  1  0.49713900  0.49713900  0.75041800  1
  O  O14  1  0.50129000  0.99849500  0.23713400  1
  O  O15  1  0.50214400  0.50214400  0.24977200  1
  O  O16  1  0.99972300  0.24822400  0.00257900  1
  O  O17  1  0.99910600  0.75147400  0.00560300  1
  O  O18  1  0.99905600  0.26502900  0.49853700  1
  O  O19  1  0.00089200  0.73523600  0.49624500  1
  O  O20  1  0.50151700  0.25420600  0.00243200  1
  O  O21  1  0.49918100  0.74570400  0.00695100  1
  O  O22  1  0.49949500  0.25598800  0.49907600  1
  O  O23  1  0.50120600  0.74422300  0.49095100  1
loop_
_geom_bond_atom_site_label_1
_geom_bond_atom_site_label_2
_geom_bond_distance
_geom_bond_site_symmetry_2
Ca0 O1 2.598172 1_555
Ca0 O20 2.629577 1_555
Ca0 O3 2.667242 1_555
Ca0 O15 2.669481 1_555
Ca0 O16 2.699004 1_555
Ca0 O0 2.701388 1_545
Ca0 O22 2.709584 1_555
Ca0 O11 2.734368 1_555
Ca0 O14 2.751470 1_545
Ca0 O2 2.759731 1_555
Ca0 O18 2.769184 1_555
Ca0 O10 2.818880 1_545
Ca1 O1 2.618613 1_555
Ca1 O21 2.618613 1_555
Ca1 O15 2.638598 1_555
Ca1 O3 2.641957 1_555
Ca1 O23 2.641957 1_555
Ca1 O17 2.694241 1_555
Ca1 O0 2.694241 1_555
Ca1 O11 2.727560 1_555
Ca1 O14 2.727560 1_555
Ca1 O2 2.767178 1_565
Ca1 O19 2.767178 1_655
Ca1 O10 2.801621 1_555
Ca2 O13 2.637366 1_555
Ca2 O5 2.672083 1_556
Ca2 O20 2.672083 1_556
Ca2 O7 2.706520 1_555
Ca2 O22 2.706520 1_555
Ca2 O12 2.720411 1_555
Ca2 O9 2.720411 1_555
Ca2 O4 2.736279 1_546
Ca2 O16 2.736279 1_456
Ca2 O8 2.788186 1_555
Ca2 O6 2.795282 1_545
Ca2 O18 2.795282 1_455
Ca3 O21 2.598172 1_555
Ca3 O5 2.629577 1_555
Ca3 O23 2.667242 1_555
Ca3 O15 2.669481 1_555
Ca3 O4 2.699004 1_555
Ca3 O17 2.701388 1_455
Ca3 O7 2.709584 1_555
Ca3 O14 2.734368 1_555
Ca3 O11 2.751470 1_455
Ca3 O19 2.759731 1_555
Ca3 O6 2.769184 1_555
Ca3 O10 2.818880 1_455
Fe0 O4 1.924926 1_655
Fe0 O16 1.924926 1_565
Fe0 O17 1.926820 1_555
Fe0 O0 1.926820 1_555
Fe0 O10 2.019281 1_555
Fe0 O8 2.038203 1_664
Co0 O11 1.790871 1_555
Co0 O9 1.806295 1_654
Co0 O17 1.950752 1_555
Co0 O16 1.951492 1_555
Co0 O5 1.971263 1_655
Co0 O1 1.971828 1_555
Co1 O10 1.761468 1_445
Co1 O8 1.779638 1_555
Co1 O6 2.053204 1_545
Co1 O18 2.053204 1_455
Co1 O19 2.054694 1_545
Co1 O2 2.054694 1_455
Co2 O19 1.822576 1_555
Co2 O18 1.823214 1_455
Co2 O7 1.984129 1_555
Co2 O11 1.984480 1_455
Co2 O3 1.984730 1_455
Co2 O9 2.016491 1_555
Co3 O14 1.790871 1_555
Co3 O12 1.806295 1_564
Co3 O0 1.950752 1_555
Co3 O4 1.951492 1_555
Co3 O20 1.971263 1_565
Co3 O21 1.971828 1_555
Co4 O15 1.891776 1_555
Co4 O13 1.902715 1_554
Co4 O5 1.903661 1_555
Co4 O20 1.903661 1_555
Co4 O1 1.907857 1_555
Co4 O21 1.907857 1_555
Co5 O2 1.822576 1_555
Co5 O6 1.823214 1_545
Co5 O22 1.984129 1_555
Co5 O14 1.984480 1_545
Co5 O23 1.984730 1_545
Co5 O12 2.016491 1_555
Co6 O15 1.888283 1_555
Co6 O7 1.891361 1_555
Co6 O22 1.891361 1_555
Co6 O3 1.894896 1_555
Co6 O23 1.894896 1_555
Co6 O13 1.915769 1_555
O0 Sr1 2.751744 1_554
O0 Sr0 2.757346 1_564
O1 Sr0 2.717733 1_554
O1 Sr1 2.719417 1_554
O2 Sr0 2.763900 1_555
O2 Sr1 2.771851 1_545
O3 Sr1 2.748737 1_555
O3 Sr0 2.756772 1_555
O4 Sr3 2.719069 1_565
O4 Sr2 2.740926 1_554
O5 Sr3 2.677896 1_555
O5 Sr2 2.683430 1_554
O6 Sr3 2.739840 1_565
O6 Sr2 2.748376 1_555
O7 Sr3 2.694250 1_555
O7 Sr2 2.711826 1_555
O8 Sr2 2.787968 1_545
O8 Sr0 2.787968 1_455
O8 Sr1 2.820260 1_445
O9 Sr2 2.742302 1_555
O9 Sr0 2.744369 1_455
O9 Sr1 2.765160 1_455
O10 Sr3 2.812613 1_665
O11 Sr3 2.758118 1_655
O12 Sr0 2.742302 1_555
O12 Sr2 2.744369 1_545
O12 Sr1 2.765160 1_545
O13 Sr2 2.698105 1_555
O13 Sr0 2.698105 1_555
O13 Sr1 2.728938 1_555
O14 Sr3 2.758118 1_565
O15 Sr3 2.721855 1_555
O16 Sr3 2.719069 1_655
O16 Sr0 2.740926 1_554
O17 Sr1 2.751744 1_554
O17 Sr2 2.757346 1_654
O18 Sr3 2.739840 1_655
O18 Sr0 2.748376 1_555
O19 Sr2 2.763900 1_555
O19 Sr1 2.771851 1_455
O20 Sr3 2.677896 1_555
O20 Sr0 2.683430 1_554
O21 Sr2 2.717733 1_554
O21 Sr1 2.719417 1_554
O22 Sr3 2.694250 1_555
O22 Sr0 2.711826 1_555
O23 Sr1 2.748737 1_555
O23 Sr2 2.756772 1_555
