# generated using pymatgen
data_LiLa4CoO8
_symmetry_space_group_name_H-M   'P 1'
_cell_length_a   5.36935601
_cell_length_b   12.82737037
_cell_length_c   12.80471863
_cell_angle_alpha   113.95387445
_cell_angle_beta   101.84868474
_cell_angle_gamma   102.38818391
_symmetry_Int_Tables_number   1
_chemical_formula_structural   LiLa4CoO8
_chemical_formula_sum   'Li4 La16 Co4 O32'
_cell_volume   743.75331039
_cell_formula_units_Z   4
loop_
 _symmetry_equiv_pos_site_id
 _symmetry_equiv_pos_as_xyz
  1  'x, y, z'
loop_
 _atom_site_type_symbol
 _atom_site_label
 _atom_site_symmetry_multiplicity
 _atom_site_fract_x
 _atom_site_fract_y
 _atom_site_fract_z
 _atom_site_occupancy
  Li  Li0  1  0.49980300  0.50000500  0.50008500  1
  Li  Li1  1  0.50180800  0.74942700  0.25046600  1
  Li  Li2  1  0.50028900  0.25013000  0.74997400  1
  Li  Li3  1  0.49808000  0.00040700  0.99949200  1
  La  La0  1  0.36251700  0.98809200  0.73809500  1
  La  La1  1  0.36428000  0.23768800  0.48749300  1
  La  La2  1  0.36397900  0.73913400  0.98917300  1
  La  La3  1  0.36491900  0.48775300  0.23754300  1
  La  La4  1  0.63609300  0.76236900  0.51235200  1
  La  La5  1  0.63582500  0.01063100  0.26079200  1
  La  La6  1  0.63581700  0.51260200  0.76246700  1
  La  La7  1  0.63652600  0.26180500  0.01204300  1
  La  La8  1  0.13748000  0.63825600  0.63820200  1
  La  La9  1  0.14133000  0.88672200  0.38840700  1
  La  La10  1  0.13811600  0.38793800  0.88801400  1
  La  La11  1  0.13399600  0.13803800  0.13763800  1
  La  La12  1  0.86214300  0.11211200  0.61109600  1
  La  La13  1  0.86201200  0.36216000  0.36181600  1
  La  La14  1  0.85859900  0.86324200  0.86179300  1
  La  La15  1  0.86636400  0.61153900  0.11299400  1
  Co  Co0  1  0.00008500  0.62459800  0.37538700  1
  Co  Co1  1  0.00004100  0.37514100  0.62496900  1
  Co  Co2  1  0.99986900  0.87474600  0.12504100  1
  Co  Co3  1  0.99990200  0.12539500  0.87455600  1
  O  O0  1  0.67988800  0.68030300  0.68148400  1
  O  O1  1  0.68270500  0.93127300  0.43198200  1
  O  O2  1  0.68185400  0.43183100  0.93046500  1
  O  O3  1  0.68083400  0.18213000  0.18164100  1
  O  O4  1  0.31976100  0.06955600  0.56817800  1
  O  O5  1  0.31843300  0.31846200  0.31970200  1
  O  O6  1  0.31706600  0.81844900  0.81790600  1
  O  O7  1  0.31955100  0.56797800  0.06869200  1
  O  O8  1  0.82057500  0.94545400  0.69588400  1
  O  O9  1  0.81961500  0.19528200  0.44569300  1
  O  O10  1  0.82567000  0.70045600  0.95057800  1
  O  O11  1  0.81957600  0.44519800  0.19535900  1
  O  O12  1  0.18101200  0.80488100  0.55458800  1
  O  O13  1  0.17443600  0.04962900  0.29950500  1
  O  O14  1  0.18032400  0.55461000  0.80429000  1
  O  O15  1  0.17888900  0.30447600  0.05419600  1
  O  O16  1  0.24382100  0.06437600  0.93571800  1
  O  O17  1  0.24630000  0.31445000  0.68519900  1
  O  O18  1  0.25535300  0.81160700  0.18852900  1
  O  O19  1  0.24493700  0.56397400  0.43600200  1
  O  O20  1  0.75430400  0.06462500  0.93539300  1
  O  O21  1  0.75346700  0.31477800  0.68574300  1
  O  O22  1  0.75629200  0.81289200  0.18709900  1
  O  O23  1  0.75378200  0.56397400  0.43608400  1
  O  O24  1  0.75602700  0.68549100  0.31459000  1
  O  O25  1  0.74482800  0.93837800  0.06175700  1
  O  O26  1  0.75371700  0.43560900  0.56446000  1
  O  O27  1  0.75514900  0.18616400  0.81373100  1
  O  O28  1  0.24637100  0.68504600  0.31481600  1
  O  O29  1  0.24362200  0.93704600  0.06311900  1
  O  O30  1  0.24637900  0.43538600  0.56405900  1
  O  O31  1  0.24559700  0.18630500  0.81366300  1
loop_
_geom_bond_atom_site_label_1
_geom_bond_atom_site_label_2
_geom_bond_distance
_geom_bond_site_symmetry_2
Li0 O23 1.931179 1_555
Li0 O30 1.932568 1_555
Li0 O19 1.945955 1_555
Li0 O26 1.948111 1_555
Li0 O0 2.331334 1_555
Li0 O5 2.332798 1_555
Li1 O18 1.884631 1_555
Li1 O22 1.924207 1_555
Li1 O28 1.942346 1_555
Li1 O24 1.943421 1_555
Li1 O7 2.341133 1_555
Li1 O1 2.342035 1_555
Li2 O31 1.930089 1_555
Li2 O21 1.934258 1_555
Li2 O27 1.944035 1_555
Li2 O17 1.949985 1_555
Li2 O2 2.334516 1_555
Li2 O4 2.335678 1_555
Li3 O25 1.886186 1_546
Li3 O29 1.925981 1_546
Li3 O16 1.941877 1_555
Li3 O20 1.942005 1_555
Li3 O6 2.343208 1_545
Li3 O3 2.345318 1_556
La0 O12 2.363689 1_555
La0 O16 2.585801 1_565
La0 O20 2.586324 1_565
La0 O27 2.589014 1_565
La0 O31 2.594530 1_565
La0 O8 2.736767 1_455
La0 O6 2.742186 1_555
La0 O8 2.742869 1_555
La0 O4 2.760882 1_565
La1 O13 2.423796 1_555
La1 O26 2.575546 1_555
La1 O17 2.584915 1_555
La1 O21 2.585614 1_555
La1 O30 2.591875 1_555
La1 O9 2.726035 1_555
La1 O5 2.729490 1_555
La1 O4 2.732281 1_555
La1 O9 2.751962 1_455
La2 O14 2.381004 1_555
La2 O25 2.574049 1_556
La2 O18 2.576389 1_556
La2 O22 2.600187 1_556
La2 O29 2.600471 1_556
La2 O10 2.728308 1_455
La2 O10 2.732666 1_555
La2 O6 2.757311 1_555
La2 O7 2.757546 1_556
La3 O15 2.363083 1_555
La3 O24 2.578515 1_555
La3 O23 2.589306 1_555
La3 O28 2.589478 1_555
La3 O19 2.598802 1_555
La3 O11 2.724541 1_555
La3 O7 2.736953 1_555
La3 O11 2.754814 1_455
La3 O5 2.759534 1_555
La4 O8 2.363014 1_555
La4 O28 2.580536 1_555
La4 O19 2.585832 1_555
La4 O24 2.591150 1_555
La4 O23 2.599008 1_555
La4 O12 2.726800 1_555
La4 O1 2.738514 1_555
La4 O12 2.752575 1_655
La4 O0 2.757162 1_555
La5 O9 2.381936 1_555
La5 O18 2.571960 1_545
La5 O25 2.573736 1_545
La5 O29 2.598190 1_545
La5 O22 2.598769 1_545
La5 O13 2.729249 1_655
La5 O13 2.732760 1_555
La5 O1 2.756789 1_545
La5 O3 2.758257 1_555
La6 O10 2.423271 1_555
La6 O17 2.577006 1_555
La6 O30 2.587352 1_555
La6 O26 2.588167 1_555
La6 O21 2.592640 1_555
La6 O14 2.725365 1_555
La6 O0 2.729920 1_555
La6 O2 2.731919 1_555
La6 O14 2.751663 1_655
La7 O11 2.363600 1_555
La7 O16 2.582161 1_554
La7 O20 2.585732 1_554
La7 O27 2.593068 1_554
La7 O31 2.595585 1_554
La7 O15 2.739012 1_655
La7 O15 2.740563 1_555
La7 O3 2.740728 1_555
La7 O2 2.762908 1_554
La8 O6 2.319699 1_555
La8 O19 2.605848 1_555
La8 O26 2.608499 1_455
La8 O23 2.610778 1_455
La8 O30 2.624854 1_555
La8 O14 2.735861 1_555
La8 O0 2.738702 1_555
La8 O12 2.741500 1_555
La8 O0 2.742231 1_455
La9 O4 2.337435 1_565
La9 O18 2.597652 1_555
La9 O24 2.600177 1_455
La9 O28 2.600638 1_555
La9 O22 2.608598 1_455
La9 O12 2.720139 1_555
La9 O1 2.729446 1_555
La9 O13 2.747635 1_565
La9 O1 2.758813 1_455
La10 O7 2.324998 1_556
La10 O27 2.597343 1_455
La10 O31 2.606840 1_555
La10 O17 2.614760 1_555
La10 O21 2.617725 1_455
La10 O15 2.735186 1_556
La10 O2 2.739403 1_455
La10 O14 2.743096 1_555
La10 O2 2.744191 1_555
La11 O5 2.336512 1_555
La11 O25 2.592123 1_445
La11 O20 2.603367 1_454
La11 O29 2.605428 1_545
La11 O16 2.609011 1_554
La11 O3 2.729920 1_455
La11 O13 2.731047 1_555
La11 O15 2.737694 1_555
La11 O3 2.758218 1_555
La12 O1 2.320126 1_545
La12 O17 2.605928 1_655
La12 O27 2.609535 1_555
La12 O31 2.614271 1_655
La12 O21 2.621950 1_555
La12 O9 2.723352 1_555
La12 O4 2.738289 1_555
La12 O4 2.742960 1_655
La12 O8 2.752828 1_545
La13 O3 2.321680 1_555
La13 O19 2.597828 1_655
La13 O23 2.610951 1_555
La13 O26 2.613103 1_555
La13 O30 2.616530 1_655
La13 O11 2.734538 1_555
La13 O5 2.738160 1_655
La13 O5 2.744064 1_555
La13 O9 2.746943 1_555
La14 O0 2.341521 1_555
La14 O20 2.595258 1_565
La14 O25 2.597930 1_556
La14 O16 2.598837 1_665
La14 O29 2.608783 1_656
La14 O8 2.720361 1_555
La14 O6 2.729565 1_555
La14 O10 2.745125 1_555
La14 O6 2.760172 1_655
La15 O2 2.335035 1_554
La15 O18 2.595956 1_655
La15 O28 2.600246 1_655
La15 O24 2.606751 1_555
La15 O22 2.610727 1_555
La15 O11 2.726585 1_555
La15 O7 2.729092 1_655
La15 O10 2.742295 1_554
La15 O7 2.758451 1_555
Co0 O28 1.849613 1_555
Co0 O23 1.851852 1_455
Co0 O19 1.856157 1_555
Co0 O24 1.856718 1_455
Co0 O11 2.316681 1_455
Co0 O12 2.317059 1_555
Co1 O30 1.851876 1_555
Co1 O21 1.852153 1_455
Co1 O26 1.859719 1_455
Co1 O17 1.860014 1_555
Co1 O14 2.312558 1_555
Co1 O9 2.314788 1_455
Co2 O22 1.861435 1_555
Co2 O29 1.863373 1_655
Co2 O18 1.937008 1_655
Co2 O25 1.938845 1_555
Co2 O10 2.247866 1_554
Co2 O13 2.251696 1_665
Co3 O20 1.851310 1_555
Co3 O31 1.852997 1_655
Co3 O27 1.858349 1_555
Co3 O16 1.859476 1_655
Co3 O8 2.311452 1_545
Co3 O15 2.312124 1_656
