# generated using pymatgen
data_Ti2CoS4
_symmetry_space_group_name_H-M   'P 1'
_cell_length_a   6.61111806
_cell_length_b   6.61111806
_cell_length_c   5.92437754
_cell_angle_alpha   63.28255150
_cell_angle_beta   63.28255150
_cell_angle_gamma   30.02574026
_symmetry_Int_Tables_number   1
_chemical_formula_structural   Ti2CoS4
_chemical_formula_sum   'Ti2 Co1 S4'
_cell_volume   114.67599693
_cell_formula_units_Z   1
loop_
 _symmetry_equiv_pos_site_id
 _symmetry_equiv_pos_as_xyz
  1  'x, y, z'
loop_
 _atom_site_type_symbol
 _atom_site_label
 _atom_site_symmetry_multiplicity
 _atom_site_fract_x
 _atom_site_fract_y
 _atom_site_fract_z
 _atom_site_occupancy
  Ti  Ti0  1  0.74566680  0.74566680  0.26560290  1
  Ti  Ti1  1  0.25433320  0.25433320  0.73439710  1
  Co  Co0  1  0.00000000  0.00000000  0.00000000  1
  S  S0  1  0.88056526  0.88056526  0.44884803  1
  S  S1  1  0.11943474  0.11943474  0.55115197  1
  S  S2  1  0.62537974  0.62537974  0.03889407  1
  S  S3  1  0.37462026  0.37462026  0.96110593  1
loop_
_geom_bond_atom_site_label_1
_geom_bond_atom_site_label_2
_geom_bond_distance
_geom_bond_site_symmetry_2
Co0 S1 2.370998 1_554
Co0 S0 2.370998 1_445
Co0 S2 2.427589 1_455
Co0 S2 2.427589 1_545
Co0 S3 2.427589 1_454
Co0 S3 2.427589 1_544
S0 Ti1 2.419615 1_565
S0 Ti1 2.419615 1_655
S0 Ti0 2.426452 1_555
S1 Ti0 2.419615 1_455
S1 Ti0 2.419615 1_545
S1 Ti1 2.426452 1_555
S2 Ti0 2.466695 1_555
S2 Ti1 2.476563 1_654
S2 Ti1 2.476563 1_564
S3 Ti1 2.466695 1_555
S3 Ti0 2.476563 1_546
S3 Ti0 2.476563 1_456
