# generated using pymatgen
data_Eu3Ta5O15
_symmetry_space_group_name_H-M   'P 1'
_cell_length_a   12.58328000
_cell_length_b   12.58328000
_cell_length_c   3.97455300
_cell_angle_alpha   90.00000000
_cell_angle_beta   90.00000000
_cell_angle_gamma   90.00000000
_symmetry_Int_Tables_number   1
_chemical_formula_structural   Eu3Ta5O15
_chemical_formula_sum   'Eu6 Ta10 O30'
_cell_volume   629.32649134
_cell_formula_units_Z   2
loop_
 _symmetry_equiv_pos_site_id
 _symmetry_equiv_pos_as_xyz
  1  'x, y, z'
loop_
 _atom_site_type_symbol
 _atom_site_label
 _atom_site_symmetry_multiplicity
 _atom_site_fract_x
 _atom_site_fract_y
 _atom_site_fract_z
 _atom_site_occupancy
  Eu  Eu0  1  0.16250600  0.66250600  0.50000000  1
  Eu  Eu1  1  0.83749400  0.33749400  0.50000000  1
  Eu  Eu2  1  0.66250600  0.83749400  0.50000000  1
  Eu  Eu3  1  0.33749400  0.16250600  0.50000000  1
  Eu  Eu4  1  0.00000000  0.00000000  0.50000000  1
  Eu  Eu5  1  0.50000000  0.50000000  0.50000000  1
  Ta  Ta0  1  0.07956300  0.20994500  0.00000000  1
  Ta  Ta1  1  0.92043700  0.79005500  0.00000000  1
  Ta  Ta2  1  0.20994500  0.92043700  0.00000000  1
  Ta  Ta3  1  0.57956300  0.29005500  0.00000000  1
  Ta  Ta4  1  0.79005500  0.07956300  0.00000000  1
  Ta  Ta5  1  0.42043700  0.70994500  0.00000000  1
  Ta  Ta6  1  0.70994500  0.57956300  0.00000000  1
  Ta  Ta7  1  0.29005500  0.42043700  0.00000000  1
  Ta  Ta8  1  0.50000000  0.00000000  0.00000000  1
  Ta  Ta9  1  0.00000000  0.50000000  0.00000000  1
  O  O0  1  0.72873000  0.22873000  0.00000000  1
  O  O1  1  0.27127000  0.77127000  0.00000000  1
  O  O2  1  0.22873000  0.27127000  0.00000000  1
  O  O3  1  0.77127000  0.72873000  0.00000000  1
  O  O4  1  0.34110000  0.00971100  0.00000000  1
  O  O5  1  0.65890000  0.99028900  0.00000000  1
  O  O6  1  0.00971100  0.65890000  0.00000000  1
  O  O7  1  0.84110000  0.49028900  0.00000000  1
  O  O8  1  0.99028900  0.34110000  0.00000000  1
  O  O9  1  0.15890000  0.50971100  0.00000000  1
  O  O10  1  0.50971100  0.84110000  0.00000000  1
  O  O11  1  0.49028900  0.15890000  0.00000000  1
  O  O12  1  0.08006400  0.20573300  0.50000000  1
  O  O13  1  0.91993600  0.79426700  0.50000000  1
  O  O14  1  0.20573300  0.91993600  0.50000000  1
  O  O15  1  0.58006400  0.29426700  0.50000000  1
  O  O16  1  0.79426700  0.08006400  0.50000000  1
  O  O17  1  0.41993600  0.70573300  0.50000000  1
  O  O18  1  0.70573300  0.58006400  0.50000000  1
  O  O19  1  0.29426700  0.41993600  0.50000000  1
  O  O20  1  0.13538400  0.06283100  0.00000000  1
  O  O21  1  0.86461600  0.93716900  0.00000000  1
  O  O22  1  0.06283100  0.86461600  0.00000000  1
  O  O23  1  0.63538400  0.43716900  0.00000000  1
  O  O24  1  0.93716900  0.13538400  0.00000000  1
  O  O25  1  0.36461600  0.56283100  0.00000000  1
  O  O26  1  0.56283100  0.63538400  0.00000000  1
  O  O27  1  0.43716900  0.36461600  0.00000000  1
  O  O28  1  0.50000000  0.00000000  0.50000000  1
  O  O29  1  0.00000000  0.50000000  0.50000000  1
loop_
_geom_bond_atom_site_label_1
_geom_bond_atom_site_label_2
_geom_bond_distance
_geom_bond_site_symmetry_2
Eu0 O6 2.765494 1_556
Eu0 O6 2.765494 1_555
Eu0 O9 2.765494 1_556
Eu0 O9 2.765494 1_555
Eu0 O1 2.774066 1_556
Eu0 O1 2.774066 1_555
Eu0 O29 2.891867 1_555
Eu1 O8 2.765494 1_555
Eu1 O8 2.765494 1_556
Eu1 O7 2.765494 1_556
Eu1 O7 2.765494 1_555
Eu1 O0 2.774066 1_555
Eu1 O0 2.774066 1_556
Eu1 O29 2.891867 1_655
Eu2 O10 2.765494 1_555
Eu2 O10 2.765494 1_556
Eu2 O5 2.765494 1_555
Eu2 O5 2.765494 1_556
Eu2 O3 2.774066 1_556
Eu2 O3 2.774066 1_555
Eu2 O28 2.891867 1_565
Eu3 O4 2.765494 1_556
Eu3 O4 2.765494 1_555
Eu3 O11 2.765494 1_556
Eu3 O11 2.765494 1_555
Eu3 O2 2.774066 1_555
Eu3 O2 2.774066 1_556
Eu3 O28 2.891867 1_555
Eu4 O20 2.734322 1_555
Eu4 O20 2.734322 1_556
Eu4 O24 2.734322 1_455
Eu4 O24 2.734322 1_456
Eu4 O22 2.734322 1_546
Eu4 O22 2.734322 1_545
Eu4 O21 2.734322 1_445
Eu4 O21 2.734322 1_446
Eu4 O12 2.777923 1_555
Eu4 O16 2.777923 1_455
Eu4 O14 2.777923 1_545
Eu4 O13 2.777923 1_445
Eu5 O26 2.734322 1_555
Eu5 O26 2.734322 1_556
Eu5 O23 2.734322 1_556
Eu5 O23 2.734322 1_555
Eu5 O27 2.734322 1_556
Eu5 O27 2.734322 1_555
Eu5 O25 2.734322 1_555
Eu5 O25 2.734322 1_556
Eu5 O17 2.777923 1_555
Eu5 O18 2.777923 1_555
Eu5 O19 2.777923 1_555
Eu5 O15 2.777923 1_555
O0 Ta4 2.029444 1_555
O0 Ta3 2.029444 1_555
O1 Ta2 2.029444 1_555
O1 Ta5 2.029444 1_555
O2 Ta7 2.029444 1_555
O2 Ta0 2.029444 1_555
O3 Ta1 2.029444 1_555
O3 Ta6 2.029444 1_555
O4 Ta2 1.996403 1_545
O4 Ta8 2.003214 1_555
O5 Ta4 1.996403 1_565
O5 Ta8 2.003214 1_565
O6 Ta1 1.996403 1_455
O6 Ta9 2.003214 1_555
O7 Ta6 1.996403 1_555
O7 Ta9 2.003214 1_655
O8 Ta0 1.996403 1_655
O8 Ta9 2.003214 1_655
O9 Ta7 1.996403 1_555
O9 Ta9 2.003214 1_555
O10 Ta5 1.996403 1_555
O10 Ta8 2.003214 1_565
O11 Ta3 1.996403 1_555
O11 Ta8 2.003214 1_555
O12 Ta0 1.987993 1_555
O12 Ta0 1.987993 1_556
O13 Ta1 1.987993 1_556
O13 Ta1 1.987993 1_555
O14 Ta2 1.987993 1_555
O14 Ta2 1.987993 1_556
O15 Ta3 1.987993 1_555
O15 Ta3 1.987993 1_556
O16 Ta4 1.987993 1_556
O16 Ta4 1.987993 1_555
O17 Ta5 1.987993 1_556
O17 Ta5 1.987993 1_555
O18 Ta6 1.987993 1_556
O18 Ta6 1.987993 1_555
O19 Ta7 1.987993 1_555
O19 Ta7 1.987993 1_556
O20 Ta0 1.979959 1_555
O20 Ta2 2.022560 1_545
O21 Ta1 1.979959 1_555
O21 Ta4 2.022560 1_565
O22 Ta2 1.979959 1_555
O22 Ta1 2.022560 1_455
O23 Ta3 1.979959 1_555
O23 Ta6 2.022560 1_555
O24 Ta4 1.979959 1_555
O24 Ta0 2.022560 1_655
O25 Ta5 1.979959 1_555
O25 Ta7 2.022560 1_555
O26 Ta6 1.979959 1_555
O26 Ta5 2.022560 1_555
O27 Ta7 1.979959 1_555
O27 Ta3 2.022560 1_555
O28 Ta8 1.987277 1_555
O28 Ta8 1.987277 1_556
O29 Ta9 1.987277 1_556
O29 Ta9 1.987277 1_555
