# generated using pymatgen
data_AlFeO3
_symmetry_space_group_name_H-M   'P 1'
_cell_length_a   4.88617100
_cell_length_b   4.93583800
_cell_length_c   7.43877800
_cell_angle_alpha   90.00000000
_cell_angle_beta   90.00000000
_cell_angle_gamma   90.00000000
_symmetry_Int_Tables_number   1
_chemical_formula_structural   AlFeO3
_chemical_formula_sum   'Al4 Fe4 O12'
_cell_volume   179.40360141
_cell_formula_units_Z   4
loop_
 _symmetry_equiv_pos_site_id
 _symmetry_equiv_pos_as_xyz
  1  'x, y, z'
loop_
 _atom_site_type_symbol
 _atom_site_label
 _atom_site_symmetry_multiplicity
 _atom_site_fract_x
 _atom_site_fract_y
 _atom_site_fract_z
 _atom_site_occupancy
  Al  Al0  1  0.99427200  0.46466800  0.25000000  1
  Al  Al1  1  0.49427200  0.03533200  0.75000000  1
  Al  Al2  1  0.50572800  0.96466800  0.25000000  1
  Al  Al3  1  0.00572800  0.53533200  0.75000000  1
  Fe  Fe0  1  0.00000000  0.00000000  0.00000000  1
  Fe  Fe1  1  0.50000000  0.50000000  0.00000000  1
  Fe  Fe2  1  0.50000000  0.50000000  0.50000000  1
  Fe  Fe3  1  0.00000000  0.00000000  0.50000000  1
  O  O0  1  0.66421700  0.82862500  0.92237500  1
  O  O1  1  0.16421700  0.67137500  0.07762500  1
  O  O2  1  0.83578300  0.32862500  0.57762500  1
  O  O3  1  0.33578300  0.17137500  0.42237500  1
  O  O4  1  0.33578300  0.17137500  0.07762500  1
  O  O5  1  0.83578300  0.32862500  0.92237500  1
  O  O6  1  0.16421700  0.67137500  0.42237500  1
  O  O7  1  0.66421700  0.82862500  0.57762500  1
  O  O8  1  0.14159900  0.89255700  0.75000000  1
  O  O9  1  0.64159900  0.60744300  0.25000000  1
  O  O10  1  0.35840100  0.39255700  0.75000000  1
  O  O11  1  0.85840100  0.10744300  0.25000000  1
loop_
_geom_bond_atom_site_label_1
_geom_bond_atom_site_label_2
_geom_bond_distance
_geom_bond_site_symmetry_2
Al0 O1 1.837029 1_655
Al0 O6 1.837029 1_655
Al0 O9 1.861750 1_555
Al0 O11 1.884049 1_555
Al1 O0 1.837029 1_545
Al1 O7 1.837029 1_545
Al1 O8 1.861750 1_545
Al1 O10 1.884049 1_555
Al2 O3 1.837029 1_565
Al2 O4 1.837029 1_565
Al2 O11 1.861750 1_565
Al2 O9 1.884049 1_555
Al3 O5 1.837029 1_455
Al3 O2 1.837029 1_455
Al3 O10 1.861750 1_555
Al3 O8 1.884049 1_555
Fe0 O5 1.899547 1_454
Fe0 O1 1.899547 1_545
Fe0 O4 1.934119 1_555
Fe0 O0 1.934119 1_444
Fe0 O11 2.053874 1_455
Fe0 O8 2.053874 1_544
Fe1 O0 1.899547 1_554
Fe1 O4 1.899547 1_555
Fe1 O5 1.934119 1_554
Fe1 O1 1.934119 1_555
Fe1 O9 2.053874 1_555
Fe1 O10 2.053874 1_554
Fe2 O7 1.899547 1_555
Fe2 O3 1.899547 1_555
Fe2 O2 1.934119 1_555
Fe2 O6 1.934119 1_555
Fe2 O9 2.053874 1_555
Fe2 O10 2.053874 1_555
Fe3 O2 1.899547 1_455
Fe3 O6 1.899547 1_545
Fe3 O7 1.934119 1_445
Fe3 O3 1.934119 1_555
Fe3 O11 2.053874 1_455
Fe3 O8 2.053874 1_545
