# generated using pymatgen
data_ErMnGa
_symmetry_space_group_name_H-M   'P 1'
_cell_length_a   8.14375089
_cell_length_b   8.14375089
_cell_length_c   8.14375089
_cell_angle_alpha   128.32644858
_cell_angle_beta   119.76630575
_cell_angle_gamma   83.30380425
_symmetry_Int_Tables_number   1
_chemical_formula_structural   ErMnGa
_chemical_formula_sum   'Er6 Mn6 Ga6'
_cell_volume   352.99187789
_cell_formula_units_Z   6
loop_
 _symmetry_equiv_pos_site_id
 _symmetry_equiv_pos_as_xyz
  1  'x, y, z'
loop_
 _atom_site_type_symbol
 _atom_site_label
 _atom_site_symmetry_multiplicity
 _atom_site_fract_x
 _atom_site_fract_y
 _atom_site_fract_z
 _atom_site_occupancy
  Er  Er0  1  0.53086200  0.26044900  0.22958700  1
  Er  Er1  1  0.46913800  0.69872500  0.72958700  1
  Er  Er2  1  0.25113000  0.83725200  0.08612300  1
  Er  Er3  1  0.74887000  0.83499300  0.58612300  1
  Er  Er4  1  0.94851400  0.64971800  0.20120400  1
  Er  Er5  1  0.05148600  0.25269100  0.70120400  1
  Mn  Mn0  1  0.50000000  0.48744100  0.98744100  1
  Mn  Mn1  1  0.00000000  0.48744100  0.48744100  1
  Mn  Mn2  1  0.90041100  0.01653800  0.15070400  1
  Mn  Mn3  1  0.09958900  0.25029300  0.11612600  1
  Mn  Mn4  1  0.63416700  0.25029300  0.65070400  1
  Mn  Mn5  1  0.36583300  0.01653800  0.61612600  1
  Ga  Ga0  1  0.73058900  0.23008000  0.99949100  1
  Ga  Ga1  1  0.26941100  0.26890200  0.49949100  1
  Ga  Ga2  1  0.67216300  0.92217700  0.25911000  1
  Ga  Ga3  1  0.32783700  0.58694700  0.25001400  1
  Ga  Ga4  1  0.83693300  0.58694700  0.75911000  1
  Ga  Ga5  1  0.16306700  0.92217700  0.75001400  1
loop_
_geom_bond_atom_site_label_1
_geom_bond_atom_site_label_2
_geom_bond_distance
_geom_bond_site_symmetry_2
Er0 Ga3 2.920696 1_555
Er0 Ga4 2.920696 1_555
Er0 Ga0 2.928438 1_554
Er0 Ga2 2.962836 1_545
Er0 Ga5 2.962836 1_544
Er0 Mn1 3.360034 1_655
Er0 Mn0 3.360034 1_554
Er1 Ga2 2.920696 1_556
Er1 Ga5 2.920696 1_555
Er1 Ga1 2.928438 1_555
Er1 Ga3 2.962836 1_555
Er1 Ga4 2.962836 1_555
Er1 Mn0 3.360034 1_555
Er1 Mn1 3.360034 1_555
Er2 Ga3 2.928539 1_555
Er2 Ga4 2.928545 1_454
Er2 Ga1 2.942611 1_565
Er2 Ga2 2.961071 1_555
Er2 Ga5 2.961077 1_554
Er2 Mn0 3.209404 1_554
Er2 Mn1 3.209410 1_554
Er3 Ga2 2.928547 1_555
Er3 Ga5 2.928547 1_655
Er3 Ga0 2.942607 1_565
Er3 Ga4 2.961071 1_555
Er3 Ga3 2.961071 1_555
Er3 Mn0 3.209410 1_554
Er3 Mn1 3.209410 1_655
Er4 Ga3 2.937084 1_655
Er4 Ga4 2.937084 1_554
Er4 Ga2 2.966816 1_555
Er4 Ga5 2.966816 1_655
Er4 Ga0 3.013953 1_554
Er4 Mn3 3.113260 1_655
Er4 Mn4 3.113260 1_554
Er4 Mn0 3.174450 1_554
Er4 Mn1 3.174450 1_655
Er4 Mn5 3.215174 1_665
Er4 Mn2 3.215178 1_565
Er5 Ga2 2.937086 1_445
Er5 Ga5 2.937092 1_545
Er5 Ga4 2.966810 1_455
Er5 Ga3 2.966816 1_556
Er5 Ga1 3.013949 1_555
Er5 Mn2 3.113260 1_455
Er5 Mn5 3.113260 1_555
Er5 Mn1 3.174442 1_555
Er5 Mn0 3.174448 1_555
Er5 Mn4 3.215171 1_455
Er5 Mn3 3.215176 1_556
Mn0 Mn5 2.891042 1_555
Mn0 Mn4 2.891048 1_555
Mn1 Mn2 2.891042 1_455
Mn1 Mn3 2.891048 1_555
Ga0 Mn2 2.618686 1_556
Ga0 Mn5 2.618693 1_555
Ga0 Mn3 2.654598 1_656
Ga0 Mn4 2.654598 1_555
Ga0 Mn1 2.661386 1_656
Ga0 Mn0 2.661386 1_555
Ga1 Mn3 2.618693 1_555
Ga1 Mn4 2.618693 1_555
Ga1 Mn5 2.654590 1_555
Ga1 Mn2 2.654596 1_455
Ga1 Mn0 2.661386 1_555
Ga1 Mn1 2.661386 1_555
Ga2 Mn4 2.761131 1_565
Ga2 Mn2 2.762058 1_565
Ga2 Mn0 2.785246 1_554
Ga3 Mn5 2.761136 1_565
Ga3 Mn3 2.762054 1_555
Ga3 Mn0 2.785246 1_554
Ga4 Mn2 2.761136 1_566
Ga4 Mn4 2.762054 1_555
Ga4 Mn1 2.785246 1_655
Ga5 Mn3 2.761131 1_566
Ga5 Mn5 2.762058 1_565
Ga5 Mn1 2.785246 1_555
