# generated using pymatgen
data_Na2MnH4(SO5)2
_symmetry_space_group_name_H-M   'P 1'
_cell_length_a   5.58734741
_cell_length_b   5.90275828
_cell_length_c   13.50693000
_cell_angle_alpha   90.00000000
_cell_angle_beta   90.00000000
_cell_angle_gamma   106.08917389
_symmetry_Int_Tables_number   1
_chemical_formula_structural   Na2MnH4(SO5)2
_chemical_formula_sum   'Na4 Mn2 H8 S4 O20'
_cell_volume   428.02050302
_cell_formula_units_Z   2
loop_
 _symmetry_equiv_pos_site_id
 _symmetry_equiv_pos_as_xyz
  1  'x, y, z'
loop_
 _atom_site_type_symbol
 _atom_site_label
 _atom_site_symmetry_multiplicity
 _atom_site_fract_x
 _atom_site_fract_y
 _atom_site_fract_z
 _atom_site_occupancy
  Na  Na0  1  0.76207100  0.58152100  0.38527600  1
  Na  Na1  1  0.73792900  0.41847900  0.88527600  1
  Na  Na2  1  0.23792900  0.41847900  0.61472400  1
  Na  Na3  1  0.26207100  0.58152100  0.11472400  1
  Mn  Mn0  1  0.50000000  0.00000000  0.50000000  1
  Mn  Mn1  1  0.00000000  0.00000000  0.00000000  1
  H  H0  1  0.50538400  0.90902500  0.30028900  1
  H  H1  1  0.99461600  0.09097500  0.80028900  1
  H  H2  1  0.49461600  0.09097500  0.69971100  1
  H  H3  1  0.00538400  0.90902500  0.19971100  1
  H  H4  1  0.31812300  0.68104200  0.34801800  1
  H  H5  1  0.18187700  0.31895800  0.84801800  1
  H  H6  1  0.68187700  0.31895800  0.65198200  1
  H  H7  1  0.81812300  0.68104200  0.15198200  1
  S  S0  1  0.07297200  0.22848800  0.38435400  1
  S  S1  1  0.42702800  0.77151200  0.88435400  1
  S  S2  1  0.92702800  0.77151200  0.61564600  1
  S  S3  1  0.57297200  0.22848800  0.11564600  1
  O  O0  1  0.01773100  0.00522200  0.32909100  1
  O  O1  1  0.48226900  0.99477800  0.82909100  1
  O  O2  1  0.98226900  0.99477800  0.67090900  1
  O  O3  1  0.51773100  0.00522200  0.17090900  1
  O  O4  1  0.30843400  0.26406400  0.44455200  1
  O  O5  1  0.19156600  0.73593600  0.94455200  1
  O  O6  1  0.69156600  0.73593600  0.55544800  1
  O  O7  1  0.80843400  0.26406400  0.05544800  1
  O  O8  1  0.86373300  0.23042400  0.45501500  1
  O  O9  1  0.63626700  0.76957600  0.95501500  1
  O  O10  1  0.13626700  0.76957600  0.54498500  1
  O  O11  1  0.36373300  0.23042400  0.04498500  1
  O  O12  1  0.10186900  0.43556900  0.31746800  1
  O  O13  1  0.39813100  0.56443100  0.81746800  1
  O  O14  1  0.89813100  0.56443100  0.68253200  1
  O  O15  1  0.60186900  0.43556900  0.18253200  1
  O  O16  1  0.47543200  0.80939300  0.36050300  1
  O  O17  1  0.02456800  0.19060700  0.86050300  1
  O  O18  1  0.52456800  0.19060700  0.63949700  1
  O  O19  1  0.97543200  0.80939300  0.13949700  1
loop_
_geom_bond_atom_site_label_1
_geom_bond_atom_site_label_2
_geom_bond_distance
_geom_bond_site_symmetry_2
Na0 O16 2.383308 1_555
Na0 O12 2.468239 1_655
Na0 O8 2.481416 1_555
Na0 O6 2.543245 1_555
Na0 O0 2.625123 1_665
Na0 O4 2.818551 1_555
Na0 O15 2.935150 1_555
Na0 O10 2.995086 1_655
Na1 O17 2.383308 1_655
Na1 O13 2.468239 1_555
Na1 O9 2.481416 1_555
Na1 O7 2.543245 1_556
Na1 O1 2.625123 1_545
Na1 O5 2.818551 1_655
Na1 O14 2.935150 1_555
Na1 O11 2.995086 1_556
Na2 O18 2.383308 1_555
Na2 O14 2.468239 1_455
Na2 O10 2.481416 1_555
Na2 O4 2.543245 1_555
Na2 O2 2.625123 1_445
Na2 O6 2.818551 1_555
Na2 O13 2.935150 1_555
Na2 O8 2.995086 1_455
Na3 O19 2.383308 1_455
Na3 O15 2.468239 1_555
Na3 O11 2.481416 1_555
Na3 O5 2.543245 1_554
Na3 O3 2.625123 1_565
Na3 O7 2.818551 1_455
Na3 O12 2.935150 1_555
Na3 O9 2.995086 1_554
Mn0 O16 2.179272 1_545
Mn0 O18 2.179272 1_555
Mn0 O8 2.194837 1_555
Mn0 O10 2.194837 1_545
Mn0 O4 2.249626 1_555
Mn0 O6 2.249626 1_545
Mn1 O19 2.179272 1_445
Mn1 O17 2.179272 1_554
Mn1 O11 2.194837 1_555
Mn1 O9 2.194837 1_444
Mn1 O5 2.249626 1_544
Mn1 O7 2.249626 1_455
H0 O16 0.990348 1_555
H1 O17 0.990348 1_655
H2 O18 0.990348 1_555
H3 O19 0.990348 1_455
H4 O16 1.002935 1_555
H4 O12 1.661126 1_555
H5 O17 1.002935 1_555
H5 O13 1.661126 1_555
H6 O18 1.002935 1_555
H6 O14 1.661126 1_555
H7 O19 1.002935 1_555
H7 O15 1.661126 1_555
O0 S0 1.470984 1_555
O1 S1 1.470984 1_555
O2 S2 1.470984 1_555
O3 S3 1.470984 1_555
O4 S0 1.510930 1_555
O5 S1 1.510930 1_555
O6 S2 1.510930 1_555
O7 S3 1.510930 1_555
O8 S0 1.511692 1_655
O9 S1 1.511692 1_555
O10 S2 1.511692 1_455
O11 S3 1.511692 1_555
O12 S0 1.492311 1_555
O13 S1 1.492311 1_555
O14 S2 1.492311 1_555
O15 S3 1.492311 1_555
