# generated using pymatgen
data_CoO
_symmetry_space_group_name_H-M   'P 1'
_cell_length_a   4.21412297
_cell_length_b   4.50177138
_cell_length_c   5.21252646
_cell_angle_alpha   64.38006027
_cell_angle_beta   113.87672901
_cell_angle_gamma   90.07736036
_symmetry_Int_Tables_number   1
_chemical_formula_structural   CoO
_chemical_formula_sum   'Co4 O4'
_cell_volume   79.70449348
_cell_formula_units_Z   4
loop_
 _symmetry_equiv_pos_site_id
 _symmetry_equiv_pos_as_xyz
  1  'x, y, z'
loop_
 _atom_site_type_symbol
 _atom_site_label
 _atom_site_symmetry_multiplicity
 _atom_site_fract_x
 _atom_site_fract_y
 _atom_site_fract_z
 _atom_site_occupancy
  Co  Co0  1  0.25097900  0.24900800  0.50198400  1
  Co  Co1  1  0.49901400  0.50099900  0.99800100  1
  Co  Co2  1  0.75094800  0.74905100  0.50190200  1
  Co  Co3  1  0.99905800  0.00094300  0.99810800  1
  O  O0  1  0.74968800  0.25028400  0.49937700  1
  O  O1  1  0.24969200  0.75032100  0.49939300  1
  O  O2  1  0.50031500  0.99967200  0.00062400  1
  O  O3  1  0.00030500  0.49972200  0.00061000  1
loop_
_geom_bond_atom_site_label_1
_geom_bond_atom_site_label_2
_geom_bond_distance
_geom_bond_site_symmetry_2
Co0 O2 2.094979 1_546
Co0 O3 2.106466 1_555
Co0 O0 2.107038 1_455
Co0 O0 2.107142 1_555
Co0 O1 2.250834 1_545
Co0 O1 2.250990 1_555
Co1 O1 2.094845 1_555
Co1 O0 2.106474 1_556
Co1 O3 2.107034 1_656
Co1 O3 2.107146 1_556
Co1 O2 2.250843 1_556
Co1 O2 2.250982 1_546
Co2 O3 2.095265 1_656
Co2 O2 2.106062 1_555
Co2 O1 2.107081 1_655
Co2 O1 2.107095 1_555
Co2 O0 2.250777 1_565
Co2 O0 2.251044 1_555
Co3 O0 2.095361 1_555
Co3 O1 2.106092 1_646
Co3 O2 2.107084 1_646
Co3 O2 2.107092 1_546
Co3 O3 2.250775 1_646
Co3 O3 2.251046 1_656
