# generated using pymatgen
data_Mg14NbW
_symmetry_space_group_name_H-M   'P 1'
_cell_length_a   6.30930844
_cell_length_b   6.07109633
_cell_length_c   10.06374619
_cell_angle_alpha   90.00000000
_cell_angle_beta   90.00000000
_cell_angle_gamma   118.75872352
_symmetry_Int_Tables_number   1
_chemical_formula_structural   Mg14NbW
_chemical_formula_sum   'Mg14 Nb1 W1'
_cell_volume   337.93761567
_cell_formula_units_Z   1
loop_
 _symmetry_equiv_pos_site_id
 _symmetry_equiv_pos_as_xyz
  1  'x, y, z'
loop_
 _atom_site_type_symbol
 _atom_site_label
 _atom_site_symmetry_multiplicity
 _atom_site_fract_x
 _atom_site_fract_y
 _atom_site_fract_z
 _atom_site_occupancy
  Mg  Mg0  1  0.16665810  0.33332855  0.62500000  1
  Mg  Mg1  1  0.16514690  0.83257295  0.62500000  1
  Mg  Mg2  1  0.66102307  0.32908672  0.12500000  1
  Mg  Mg3  1  0.66340045  0.33252639  0.62500000  1
  Mg  Mg4  1  0.66102307  0.83193535  0.12500000  1
  Mg  Mg5  1  0.66340045  0.83087306  0.62500000  1
  Mg  Mg6  1  0.32757057  0.16146765  0.36383591  1
  Mg  Mg7  1  0.32757057  0.16146765  0.88616409  1
  Mg  Mg8  1  0.32757057  0.66610392  0.36383591  1
  Mg  Mg9  1  0.32757057  0.66610392  0.88616409  1
  Mg  Mg10  1  0.84704479  0.17352289  0.37171422  1
  Mg  Mg11  1  0.84704479  0.17352289  0.87828578  1
  Mg  Mg12  1  0.85053286  0.67526693  0.36498178  1
  Mg  Mg13  1  0.85053286  0.67526693  0.88501822  1
  Nb  Nb0  1  0.15653518  0.32826709  0.12500000  1
  W  W0  1  0.15737521  0.82868711  0.12500000  1
loop_
_geom_bond_atom_site_label_1
_geom_bond_atom_site_label_2
_geom_bond_distance
_geom_bond_site_symmetry_2
Mg0 Mg1 3.035560 1_545
Mg0 Mg1 3.035560 1_555
Mg0 Mg11 3.102025 1_455
Mg0 Mg10 3.102025 1_455
Mg0 Mg5 3.136446 1_555
Mg0 Mg3 3.136447 1_555
Mg0 Mg7 3.169634 1_555
Mg0 Mg6 3.169634 1_555
Mg0 Mg9 3.169639 1_555
Mg0 Mg8 3.169639 1_555
Mg0 Mg5 3.172867 1_445
Mg0 Mg3 3.172868 1_455
Mg1 Mg13 3.142540 1_455
Mg1 Mg12 3.142540 1_455
Mg1 Mg3 3.148613 1_565
Mg1 Mg5 3.148614 1_555
Mg1 Mg8 3.158494 1_555
Mg1 Mg9 3.158494 1_555
Mg1 Mg7 3.158500 1_565
Mg1 Mg6 3.158500 1_565
Mg1 Mg3 3.160721 1_455
Mg1 Mg5 3.160721 1_455
Mg2 Mg4 3.018254 1_545
Mg2 Mg6 3.029666 1_555
Mg2 Mg7 3.029666 1_554
Mg2 Mg4 3.052842 1_555
Mg2 Nb0 3.128736 1_655
Mg2 W0 3.141174 1_655
Mg2 W0 3.168229 1_545
Mg2 Nb0 3.180579 1_555
Mg3 Mg5 3.025511 1_555
Mg3 Mg5 3.045586 1_545
Mg3 Mg7 3.218475 1_555
Mg3 Mg6 3.218475 1_555
Mg4 Mg8 3.029666 1_555
Mg4 Mg9 3.029666 1_554
Mg4 Nb0 3.128736 1_665
Mg4 W0 3.141174 1_655
Mg4 W0 3.168229 1_555
Mg4 Nb0 3.180578 1_555
Mg5 Mg9 3.218475 1_555
Mg5 Mg8 3.218475 1_555
Mg6 W0 2.987393 1_545
Mg6 Nb0 3.003113 1_555
Mg7 W0 2.987393 1_546
Mg7 Nb0 3.003113 1_556
Mg8 W0 2.987387 1_555
Mg8 Nb0 3.003119 1_555
Mg9 W0 2.987387 1_556
Mg9 Nb0 3.003119 1_556
Mg10 Nb0 3.015784 1_655
Mg10 Mg12 3.036365 1_545
Mg10 Mg12 3.036366 1_555
Mg10 Mg8 3.068693 1_655
Mg10 Mg6 3.068693 1_655
Mg10 Mg2 3.082324 1_555
Mg10 Mg4 3.082330 1_545
Mg10 Mg3 3.138160 1_555
Mg10 Mg5 3.138166 1_545
Mg10 Mg8 3.243914 1_545
Mg10 Mg6 3.243914 1_555
Mg11 Nb0 3.015784 1_656
Mg11 Mg13 3.036365 1_545
Mg11 Mg13 3.036366 1_555
Mg11 Mg9 3.068693 1_655
Mg11 Mg7 3.068693 1_655
Mg11 Mg2 3.082324 1_556
Mg11 Mg4 3.082330 1_546
Mg11 Mg3 3.138160 1_555
Mg11 Mg5 3.138166 1_545
Mg11 Mg9 3.243914 1_545
Mg11 Mg7 3.243914 1_555
Mg12 W0 2.951807 1_655
Mg12 Mg4 3.043261 1_555
Mg12 Mg2 3.043267 1_555
Mg12 Mg5 3.194862 1_555
Mg12 Mg3 3.194868 1_555
Mg13 W0 2.951807 1_656
Mg13 Mg4 3.043261 1_556
Mg13 Mg2 3.043267 1_556
Mg13 Mg5 3.194862 1_555
Mg13 Mg3 3.194868 1_555
Nb0 W0 3.035552 1_545
Nb0 W0 3.035552 1_555
