# generated using pymatgen
data_Pr5CuBi3
_symmetry_space_group_name_H-M   'P 1'
_cell_length_a   9.69499975
_cell_length_b   9.69499975
_cell_length_c   6.64403800
_cell_angle_alpha   90.00000000
_cell_angle_beta   90.00000000
_cell_angle_gamma   119.99999829
_symmetry_Int_Tables_number   1
_chemical_formula_structural   Pr5CuBi3
_chemical_formula_sum   'Pr10 Cu2 Bi6'
_cell_volume   540.82698287
_cell_formula_units_Z   2
loop_
 _symmetry_equiv_pos_site_id
 _symmetry_equiv_pos_as_xyz
  1  'x, y, z'
loop_
 _atom_site_type_symbol
 _atom_site_label
 _atom_site_symmetry_multiplicity
 _atom_site_fract_x
 _atom_site_fract_y
 _atom_site_fract_z
 _atom_site_occupancy
  Pr  Pr0  1  0.66666700  0.33333300  0.00000000  1
  Pr  Pr1  1  0.33333300  0.66666700  0.00000000  1
  Pr  Pr2  1  0.33333300  0.66666700  0.50000000  1
  Pr  Pr3  1  0.66666700  0.33333300  0.50000000  1
  Pr  Pr4  1  0.74248800  0.74248800  0.75000000  1
  Pr  Pr5  1  0.25751200  0.00000000  0.75000000  1
  Pr  Pr6  1  0.00000000  0.25751200  0.75000000  1
  Pr  Pr7  1  0.25751200  0.25751200  0.25000000  1
  Pr  Pr8  1  0.74248800  0.00000000  0.25000000  1
  Pr  Pr9  1  0.00000000  0.74248800  0.25000000  1
  Cu  Cu0  1  0.00000000  0.00000000  0.00000000  1
  Cu  Cu1  1  0.00000000  0.00000000  0.50000000  1
  Bi  Bi0  1  0.38465500  0.38465500  0.75000000  1
  Bi  Bi1  1  0.61534500  0.00000000  0.75000000  1
  Bi  Bi2  1  0.00000000  0.61534500  0.75000000  1
  Bi  Bi3  1  0.61534500  0.61534500  0.25000000  1
  Bi  Bi4  1  0.38465500  0.00000000  0.25000000  1
  Bi  Bi5  1  0.00000000  0.38465500  0.25000000  1
loop_
_geom_bond_atom_site_label_1
_geom_bond_atom_site_label_2
_geom_bond_distance
_geom_bond_site_symmetry_2
Cu0 Pr6 2.998643 1_554
Cu0 Pr5 2.998643 1_554
Cu0 Pr9 2.998643 1_545
Cu0 Pr8 2.998643 1_455
Cu0 Pr7 2.998643 1_555
Cu0 Pr4 2.998643 1_444
Cu1 Pr5 2.998643 1_555
Cu1 Pr6 2.998643 1_555
Cu1 Pr9 2.998643 1_545
Cu1 Pr8 2.998643 1_455
Cu1 Pr7 2.998643 1_555
Cu1 Pr4 2.998643 1_445
Bi0 Pr5 3.290858 1_555
Bi0 Pr6 3.290858 1_555
Bi0 Pr2 3.441259 1_555
Bi0 Pr1 3.441259 1_556
Bi0 Pr3 3.441259 1_555
Bi0 Pr0 3.441259 1_556
Bi0 Pr4 3.469191 1_555
Bi0 Pr7 3.543337 1_555
Bi0 Pr7 3.543337 1_556
Bi1 Pr4 3.290858 1_545
Bi1 Pr6 3.290858 1_655
Bi1 Pr3 3.441251 1_555
Bi1 Pr0 3.441251 1_556
Bi1 Pr2 3.441254 1_545
Bi1 Pr1 3.441254 1_546
Bi1 Pr5 3.469191 1_555
Bi1 Pr8 3.543337 1_555
Bi1 Pr8 3.543337 1_556
Bi2 Pr4 3.290858 1_455
Bi2 Pr5 3.290858 1_565
Bi2 Pr2 3.441251 1_555
Bi2 Pr1 3.441251 1_556
Bi2 Pr0 3.441254 1_456
Bi2 Pr3 3.441254 1_455
Bi2 Pr6 3.469191 1_555
Bi2 Pr9 3.543337 1_556
Bi2 Pr9 3.543337 1_555
Bi3 Pr8 3.290858 1_565
Bi3 Pr9 3.290858 1_655
Bi3 Pr1 3.441259 1_555
Bi3 Pr3 3.441259 1_555
Bi3 Pr0 3.441259 1_555
Bi3 Pr2 3.441259 1_555
Bi3 Pr7 3.469191 1_555
Bi3 Pr4 3.543337 1_554
Bi3 Pr4 3.543337 1_555
Bi4 Pr7 3.290858 1_555
Bi4 Pr9 3.290858 1_545
Bi4 Pr2 3.441251 1_545
Bi4 Pr1 3.441251 1_545
Bi4 Pr0 3.441254 1_555
Bi4 Pr3 3.441254 1_555
Bi4 Pr8 3.469191 1_555
Bi4 Pr5 3.543337 1_554
Bi4 Pr5 3.543337 1_555
Bi5 Pr7 3.290858 1_555
Bi5 Pr8 3.290858 1_455
Bi5 Pr3 3.441251 1_455
Bi5 Pr0 3.441251 1_455
Bi5 Pr2 3.441254 1_555
Bi5 Pr1 3.441254 1_555
Bi5 Pr9 3.469191 1_555
Bi5 Pr6 3.543337 1_555
Bi5 Pr6 3.543337 1_554
