# generated using pymatgen
data_Eu5Nb4O15
_symmetry_space_group_name_H-M   'P 1'
_cell_length_a   5.67484679
_cell_length_b   5.67615607
_cell_length_c   11.47624490
_cell_angle_alpha   90.00067942
_cell_angle_beta   89.99311349
_cell_angle_gamma   120.00735021
_symmetry_Int_Tables_number   1
_chemical_formula_structural   Eu5Nb4O15
_chemical_formula_sum   'Eu5 Nb4 O15'
_cell_volume   320.11552207
_cell_formula_units_Z   1
loop_
 _symmetry_equiv_pos_site_id
 _symmetry_equiv_pos_as_xyz
  1  'x, y, z'
loop_
 _atom_site_type_symbol
 _atom_site_label
 _atom_site_symmetry_multiplicity
 _atom_site_fract_x
 _atom_site_fract_y
 _atom_site_fract_z
 _atom_site_occupancy
  Eu  Eu0  1  0.99988287  0.99997902  -0.00006127  1
  Eu  Eu1  1  0.33329627  0.66700648  0.43891487  1
  Eu  Eu2  1  0.66645894  0.33351773  0.56108433  1
  Eu  Eu3  1  0.33327415  0.66712241  0.77487945  1
  Eu  Eu4  1  0.66598121  0.33303259  0.22500734  1
  Nb  Nb0  1  0.33334844  0.66663756  0.10500017  1
  Nb  Nb1  1  0.66671280  0.33334659  0.89501452  1
  Nb  Nb2  1  0.99951021  0.99976585  0.32104184  1
  Nb  Nb3  1  0.00021454  0.00035993  0.67899392  1
  O  O0  1  0.17199674  0.82788677  0.60441642  1
  O  O1  1  0.17288492  0.34468677  0.60453586  1
  O  O2  1  0.65586010  0.82866039  0.60458707  1
  O  O3  1  0.34365850  0.17142382  0.39557071  1
  O  O4  1  0.82648495  0.65533474  0.39540626  1
  O  O5  1  0.82716598  0.17182937  0.39538345  1
  O  O6  1  0.49986857  0.00001203  0.00006724  1
  O  O7  1  -0.00013754  0.50003824  0.00022102  1
  O  O8  1  0.49983041  0.49990544  -0.00015525  1
  O  O9  1  0.16407989  0.83633755  0.19734298  1
  O  O10  1  0.16432124  0.32712544  0.19711940  1
  O  O11  1  0.67406043  0.83689800  0.19646608  1
  O  O12  1  0.32716978  0.16292177  0.80300345  1
  O  O13  1  0.83664584  0.67267796  0.80286396  1
  O  O14  1  0.83715077  0.16349756  0.80329420  1
loop_
_geom_bond_atom_site_label_1
_geom_bond_atom_site_label_2
_geom_bond_distance
_geom_bond_site_symmetry_2
Eu0 O11 2.765784 1_555
Eu0 O14 2.768582 1_564
Eu0 O12 2.773771 1_664
Eu0 O13 2.775575 1_554
Eu0 O10 2.776128 1_665
Eu0 O9 2.780210 1_655
Eu0 O8 2.837078 1_665
Eu0 O6 2.837249 1_665
Eu0 O6 2.837598 1_565
Eu0 O7 2.837686 1_655
Eu0 O8 2.837793 1_555
Eu0 O7 2.838474 1_665
Eu1 O0 2.472823 1_555
Eu1 O1 2.474350 1_555
Eu1 O2 2.475560 1_555
Eu1 O4 2.876099 1_555
Eu1 O3 2.877526 1_565
Eu1 O5 2.877891 1_565
Eu1 O5 2.885275 1_455
Eu1 O3 2.886053 1_555
Eu1 O4 2.887089 1_455
Eu1 O9 3.233524 1_555
Eu1 O10 3.239080 1_555
Eu1 O11 3.247270 1_555
Eu2 O4 2.473274 1_555
Eu2 O3 2.474910 1_555
Eu2 O5 2.475261 1_555
Eu2 O1 2.876685 1_555
Eu2 O2 2.879660 1_545
Eu2 O0 2.880986 1_655
Eu2 O0 2.881429 1_545
Eu2 O2 2.884589 1_555
Eu2 O1 2.886179 1_655
Eu2 O13 3.237095 1_555
Eu2 O12 3.238330 1_555
Eu2 O14 3.245283 1_555
Eu3 O2 2.516259 1_555
Eu3 O0 2.516579 1_555
Eu3 O1 2.516716 1_555
Eu3 O12 2.850048 1_565
Eu3 O13 2.852291 1_455
Eu3 O14 2.855616 1_455
Eu3 O14 2.857086 1_565
Eu3 O13 2.859052 1_555
Eu3 O12 2.863010 1_555
Eu3 O6 3.058837 1_566
Eu3 O8 3.059033 1_556
Eu3 O7 3.061240 1_556
Eu4 O4 2.516794 1_555
Eu4 O5 2.516875 1_555
Eu4 O3 2.517862 1_555
Eu4 O10 2.848301 1_555
Eu4 O9 2.851326 1_545
Eu4 O11 2.856214 1_555
Eu4 O11 2.858170 1_545
Eu4 O9 2.859187 1_655
Eu4 O10 2.862828 1_655
Eu4 O6 3.056782 1_555
Eu4 O7 3.057096 1_655
Eu4 O8 3.058971 1_555
Nb0 O9 1.974540 1_555
Nb0 O10 1.975450 1_555
Nb0 O11 1.976277 1_555
Nb0 O7 2.032775 1_555
Nb0 O6 2.033501 1_565
Nb0 O8 2.034354 1_555
Nb1 O12 1.974754 1_555
Nb1 O13 1.974887 1_555
Nb1 O14 1.976197 1_555
Nb1 O8 2.033042 1_556
Nb1 O6 2.034157 1_556
Nb1 O7 2.034350 1_656
Nb2 O3 1.895296 1_665
Nb2 O5 1.895647 1_565
Nb2 O4 1.895894 1_555
Nb2 O11 2.145315 1_555
Nb2 O10 2.147434 1_665
Nb2 O9 2.148056 1_655
Nb3 O2 1.895569 1_445
Nb3 O1 1.895917 1_555
Nb3 O0 1.896200 1_545
Nb3 O14 2.146016 1_455
Nb3 O12 2.146528 1_555
Nb3 O13 2.148216 1_445
