# generated using pymatgen
data_HfMg14CO16
_symmetry_space_group_name_H-M   'P 1'
_cell_length_a   8.79908628
_cell_length_b   8.79908628
_cell_length_c   4.20839970
_cell_angle_alpha   90.00000000
_cell_angle_beta   90.00000000
_cell_angle_gamma   90.00000000
_symmetry_Int_Tables_number   1
_chemical_formula_structural   HfMg14CO16
_chemical_formula_sum   'Hf1 Mg14 C1 O16'
_cell_volume   325.83079902
_cell_formula_units_Z   1
loop_
 _symmetry_equiv_pos_site_id
 _symmetry_equiv_pos_as_xyz
  1  'x, y, z'
loop_
 _atom_site_type_symbol
 _atom_site_label
 _atom_site_symmetry_multiplicity
 _atom_site_fract_x
 _atom_site_fract_y
 _atom_site_fract_z
 _atom_site_occupancy
  Hf  Hf0  1  0.50000000  0.50000000  0.00000000  1
  Mg  Mg0  1  0.00000000  0.50000000  0.00000000  1
  Mg  Mg1  1  0.50000000  -0.00000000  0.00000000  1
  Mg  Mg2  1  0.00000000  0.24068259  0.50000000  1
  Mg  Mg3  1  0.00000000  0.75931741  0.50000000  1
  Mg  Mg4  1  0.50000000  0.23200650  0.50000000  1
  Mg  Mg5  1  0.50000000  0.76799350  0.50000000  1
  Mg  Mg6  1  0.24068259  -0.00000000  0.50000000  1
  Mg  Mg7  1  0.23200650  0.50000000  0.50000000  1
  Mg  Mg8  1  0.75931741  -0.00000000  0.50000000  1
  Mg  Mg9  1  0.76799350  0.50000000  0.50000000  1
  Mg  Mg10  1  0.22854673  0.22854673  -0.00000000  1
  Mg  Mg11  1  0.22854673  0.77145327  0.00000000  1
  Mg  Mg12  1  0.77145327  0.22854673  -0.00000000  1
  Mg  Mg13  1  0.77145327  0.77145327  0.00000000  1
  C  C0  1  0.00000000  -0.00000000  0.00000000  1
  O  O0  1  0.28270147  -0.00000000  0.00000000  1
  O  O1  1  0.26293128  0.50000000  0.00000000  1
  O  O2  1  0.71729853  -0.00000000  0.00000000  1
  O  O3  1  0.73706872  0.50000000  0.00000000  1
  O  O4  1  0.24997032  0.24997032  0.50000000  1
  O  O5  1  0.24997032  0.75002968  0.50000000  1
  O  O6  1  0.75002968  0.24997032  0.50000000  1
  O  O7  1  0.75002968  0.75002968  0.50000000  1
  O  O8  1  0.00000000  -0.00000000  0.50000000  1
  O  O9  1  0.00000000  0.50000000  0.50000000  1
  O  O10  1  0.50000000  -0.00000000  0.50000000  1
  O  O11  1  0.50000000  0.50000000  0.50000000  1
  O  O12  1  0.00000000  0.28270147  -0.00000000  1
  O  O13  1  0.00000000  0.71729853  -0.00000000  1
  O  O14  1  0.50000000  0.26293128  0.00000000  1
  O  O15  1  0.50000000  0.73706872  -0.00000000  1
loop_
_geom_bond_atom_site_label_1
_geom_bond_atom_site_label_2
_geom_bond_distance
_geom_bond_site_symmetry_2
Hf0 O14 2.085988 1_555
Hf0 O15 2.085988 1_555
Hf0 O3 2.085988 1_555
Hf0 O1 2.085988 1_555
Hf0 O11 2.104200 1_554
Hf0 O11 2.104200 1_555
Mg0 O12 1.912029 1_555
Mg0 O13 1.912029 1_555
Mg0 O9 2.104200 1_554
Mg0 O9 2.104200 1_555
Mg0 O1 2.313555 1_555
Mg0 O3 2.313555 1_455
Mg1 O0 1.912029 1_555
Mg1 O2 1.912029 1_555
Mg1 O10 2.104200 1_555
Mg1 O10 2.104200 1_554
Mg1 O15 2.313555 1_545
Mg1 O14 2.313555 1_555
Mg2 O8 2.117787 1_555
Mg2 O12 2.136435 1_556
Mg2 O12 2.136435 1_555
Mg2 O4 2.201028 1_555
Mg2 O6 2.201028 1_455
Mg2 O9 2.281756 1_555
Mg3 O8 2.117787 1_565
Mg3 O13 2.136435 1_555
Mg3 O13 2.136435 1_556
Mg3 O7 2.201028 1_455
Mg3 O5 2.201028 1_555
Mg3 O9 2.281756 1_555
Mg4 O10 2.041445 1_555
Mg4 O14 2.121721 1_556
Mg4 O14 2.121721 1_555
Mg4 O4 2.205704 1_555
Mg4 O6 2.205704 1_555
Mg4 O11 2.358098 1_555
Mg5 O10 2.041445 1_565
Mg5 O15 2.121721 1_556
Mg5 O15 2.121721 1_555
Mg5 O5 2.205704 1_555
Mg5 O7 2.205704 1_555
Mg5 O11 2.358098 1_555
Mg6 O8 2.117787 1_555
Mg6 O0 2.136435 1_555
Mg6 O0 2.136435 1_556
Mg6 O5 2.201028 1_545
Mg6 O4 2.201028 1_555
Mg6 O10 2.281756 1_555
Mg7 O9 2.041445 1_555
Mg7 O1 2.121721 1_556
Mg7 O1 2.121721 1_555
Mg7 O5 2.205704 1_555
Mg7 O4 2.205704 1_555
Mg7 O11 2.358098 1_555
Mg8 O8 2.117787 1_655
Mg8 O2 2.136435 1_556
Mg8 O2 2.136435 1_555
Mg8 O6 2.201028 1_555
Mg8 O7 2.201028 1_545
Mg8 O10 2.281756 1_555
Mg9 O9 2.041445 1_655
Mg9 O3 2.121721 1_556
Mg9 O3 2.121721 1_555
Mg9 O7 2.205704 1_555
Mg9 O6 2.205704 1_555
Mg9 O11 2.358098 1_555
Mg10 O12 2.066687 1_555
Mg10 O0 2.066687 1_555
Mg10 O4 2.121020 1_554
Mg10 O4 2.121020 1_555
Mg10 O14 2.407626 1_555
Mg10 O1 2.407626 1_555
Mg11 O13 2.066687 1_555
Mg11 O0 2.066687 1_565
Mg11 O5 2.121020 1_555
Mg11 O5 2.121020 1_554
Mg11 O15 2.407626 1_555
Mg11 O1 2.407626 1_555
Mg12 O2 2.066687 1_555
Mg12 O12 2.066687 1_655
Mg12 O6 2.121020 1_555
Mg12 O6 2.121020 1_554
Mg12 O14 2.407626 1_555
Mg12 O3 2.407626 1_555
Mg13 O13 2.066687 1_655
Mg13 O2 2.066687 1_565
Mg13 O7 2.121020 1_555
Mg13 O7 2.121020 1_554
Mg13 O15 2.407626 1_555
Mg13 O3 2.407626 1_555
C0 O8 2.104200 1_555
C0 O8 2.104200 1_554
