# generated using pymatgen
data_RbSm(SeO4)2
_symmetry_space_group_name_H-M   'P 1'
_cell_length_a   7.45382300
_cell_length_b   9.31880200
_cell_length_c   11.15451731
_cell_angle_alpha   88.79585176
_cell_angle_beta   90.00000000
_cell_angle_gamma   90.00000000
_symmetry_Int_Tables_number   1
_chemical_formula_structural   RbSm(SeO4)2
_chemical_formula_sum   'Rb4 Sm4 Se8 O32'
_cell_volume   774.62948486
_cell_formula_units_Z   4
loop_
 _symmetry_equiv_pos_site_id
 _symmetry_equiv_pos_as_xyz
  1  'x, y, z'
loop_
 _atom_site_type_symbol
 _atom_site_label
 _atom_site_symmetry_multiplicity
 _atom_site_fract_x
 _atom_site_fract_y
 _atom_site_fract_z
 _atom_site_occupancy
  Rb  Rb0  1  0.35476300  0.43627600  0.84050400  1
  Rb  Rb1  1  0.64523700  0.56372400  0.15949600  1
  Rb  Rb2  1  0.85476300  0.56372400  0.65949600  1
  Rb  Rb3  1  0.14523700  0.43627600  0.34050400  1
  Sm  Sm0  1  0.16811700  0.94733300  0.84818100  1
  Sm  Sm1  1  0.83188300  0.05266700  0.15181900  1
  Sm  Sm2  1  0.66811700  0.05266700  0.65181900  1
  Sm  Sm3  1  0.33188300  0.94733300  0.34818100  1
  Se  Se0  1  0.16727200  0.17833900  0.60863500  1
  Se  Se1  1  0.83272800  0.82166100  0.39136500  1
  Se  Se2  1  0.66727200  0.82166100  0.89136500  1
  Se  Se3  1  0.33272800  0.17833900  0.10863500  1
  Se  Se4  1  0.34155800  0.73544200  0.58799400  1
  Se  Se5  1  0.65844200  0.26455800  0.41200600  1
  Se  Se6  1  0.84155800  0.26455800  0.91200600  1
  Se  Se7  1  0.15844200  0.73544200  0.08799400  1
  O  O0  1  0.82764100  0.88492000  0.52994300  1
  O  O1  1  0.17235900  0.11508000  0.47005700  1
  O  O2  1  0.32764100  0.11508000  0.97005700  1
  O  O3  1  0.67235900  0.88492000  0.02994300  1
  O  O4  1  0.50292500  0.90897400  0.81276600  1
  O  O5  1  0.49707500  0.09102600  0.18723400  1
  O  O6  1  0.00292500  0.09102600  0.68723400  1
  O  O7  1  0.99707500  0.90897400  0.31276600  1
  O  O8  1  0.14836200  0.35361200  0.60543100  1
  O  O9  1  0.85163800  0.64638800  0.39456900  1
  O  O10  1  0.64836200  0.64638800  0.89456900  1
  O  O11  1  0.35163800  0.35361200  0.10543100  1
  O  O12  1  0.25949300  0.71754800  0.95418700  1
  O  O13  1  0.74050700  0.28245200  0.04581300  1
  O  O14  1  0.75949300  0.28245200  0.54581300  1
  O  O15  1  0.24050700  0.71754800  0.45418700  1
  O  O16  1  0.45512600  0.88942500  0.55443000  1
  O  O17  1  0.54487400  0.11057500  0.44557000  1
  O  O18  1  0.95512600  0.11057500  0.94557000  1
  O  O19  1  0.04487400  0.88942500  0.05443000  1
  O  O20  1  0.47237300  0.60128500  0.62699200  1
  O  O21  1  0.52762700  0.39871500  0.37300800  1
  O  O22  1  0.97237300  0.39871500  0.87300800  1
  O  O23  1  0.02762700  0.60128500  0.12699200  1
  O  O24  1  0.84471300  0.87194700  0.80345300  1
  O  O25  1  0.15528700  0.12805300  0.19654700  1
  O  O26  1  0.34471300  0.12805300  0.69654700  1
  O  O27  1  0.65528700  0.87194700  0.30345300  1
  O  O28  1  0.18786000  0.76678100  0.69463500  1
  O  O29  1  0.81214000  0.23321900  0.30536500  1
  O  O30  1  0.68786000  0.23321900  0.80536500  1
  O  O31  1  0.31214000  0.76678100  0.19463500  1
loop_
_geom_bond_atom_site_label_1
_geom_bond_atom_site_label_2
_geom_bond_distance
_geom_bond_site_symmetry_2
O0 Se1 1.666329 1_555
O0 Sm2 2.407268 1_565
O0 Rb2 3.302485 1_555
O1 Se0 1.666329 1_555
O1 Sm3 2.407268 1_545
O1 Rb3 3.302485 1_555
O2 Se3 1.666329 1_556
O2 Sm0 2.407268 1_545
O2 Rb0 3.302485 1_555
O3 Se2 1.666329 1_554
O3 Sm1 2.407268 1_565
O3 Rb1 3.302485 1_555
O4 Se2 1.703340 1_555
O4 Sm2 2.535979 1_565
O4 Sm0 2.552995 1_555
O5 Se3 1.703340 1_555
O5 Sm3 2.535979 1_545
O5 Sm1 2.552995 1_555
O6 Se0 1.703340 1_555
O6 Sm0 2.535979 1_545
O6 Sm2 2.552995 1_455
O7 Se1 1.703340 1_555
O7 Sm1 2.535979 1_565
O7 Sm3 2.552995 1_655
O8 Se0 1.639046 1_555
O8 Rb2 3.006044 1_455
O8 Rb3 3.038270 1_555
O8 Rb0 3.149723 1_555
O9 Se1 1.639046 1_555
O9 Rb3 3.006044 1_655
O9 Rb2 3.038270 1_555
O9 Rb1 3.149723 1_555
O10 Se2 1.639046 1_555
O10 Rb0 3.006044 1_555
O10 Rb1 3.038270 1_556
O10 Rb2 3.149723 1_555
O11 Se3 1.639046 1_555
O11 Rb1 3.006044 1_555
O11 Rb0 3.038270 1_554
O11 Rb3 3.149723 1_555
O12 Se7 1.683245 1_556
O12 Sm0 2.518117 1_555
O12 Rb0 3.020308 1_555
O13 Se6 1.683245 1_554
O13 Sm1 2.518117 1_555
O13 Rb1 3.020308 1_555
O14 Se5 1.683245 1_555
O14 Sm2 2.518117 1_555
O14 Rb2 3.020308 1_555
O15 Se4 1.683245 1_555
O15 Sm3 2.518117 1_555
O15 Rb3 3.020308 1_555
O16 Se4 1.700947 1_555
O16 Sm2 2.466604 1_565
O16 Sm3 2.525016 1_555
O17 Se5 1.700947 1_555
O17 Sm3 2.466604 1_545
O17 Sm2 2.525016 1_555
O18 Se6 1.700947 1_555
O18 Sm0 2.466604 1_645
O18 Sm1 2.525016 1_556
O19 Se7 1.700947 1_555
O19 Sm1 2.466604 1_465
O19 Sm0 2.525016 1_554
O20 Se4 1.637099 1_555
O20 Rb2 2.893555 1_555
O20 Rb0 2.941291 1_555
O21 Se5 1.637099 1_555
O21 Rb3 2.893555 1_555
O21 Rb1 2.941291 1_555
O22 Se6 1.637099 1_555
O22 Rb0 2.893555 1_655
O22 Rb2 2.941291 1_555
O23 Se7 1.637099 1_555
O23 Rb1 2.893555 1_455
O23 Rb3 2.941291 1_555
O24 Se2 1.706222 1_555
O24 Sm0 2.562839 1_655
O24 Sm2 2.703698 1_565
O24 Rb2 3.320827 1_555
O25 Se3 1.706222 1_555
O25 Sm1 2.562839 1_455
O25 Sm3 2.703698 1_545
O25 Rb3 3.320827 1_555
O26 Se0 1.706222 1_555
O26 Sm2 2.562839 1_555
O26 Sm0 2.703698 1_545
O26 Rb0 3.320827 1_555
O27 Se1 1.706222 1_555
O27 Sm3 2.562839 1_555
O27 Sm1 2.703698 1_565
O27 Rb1 3.320827 1_555
O28 Se4 1.681474 1_555
O28 Sm0 2.430458 1_555
O28 Rb2 3.151179 1_455
O29 Se5 1.681474 1_555
O29 Sm1 2.430458 1_555
O29 Rb3 3.151179 1_655
O30 Se6 1.681474 1_555
O30 Sm2 2.430458 1_555
O30 Rb0 3.151179 1_555
O31 Se7 1.681474 1_555
O31 Sm3 2.430458 1_555
O31 Rb1 3.151179 1_555
