# generated using pymatgen
data_TiAlPd2
_symmetry_space_group_name_H-M   'P 1'
_cell_length_a   5.83948400
_cell_length_b   5.83948400
_cell_length_c   14.30190600
_cell_angle_alpha   90.00000000
_cell_angle_beta   90.00000000
_cell_angle_gamma   90.00000000
_symmetry_Int_Tables_number   1
_chemical_formula_structural   TiAlPd2
_chemical_formula_sum   'Ti8 Al8 Pd16'
_cell_volume   487.68889321
_cell_formula_units_Z   8
loop_
 _symmetry_equiv_pos_site_id
 _symmetry_equiv_pos_as_xyz
  1  'x, y, z'
loop_
 _atom_site_type_symbol
 _atom_site_label
 _atom_site_symmetry_multiplicity
 _atom_site_fract_x
 _atom_site_fract_y
 _atom_site_fract_z
 _atom_site_occupancy
  Ti  Ti0_0  1  0.00000000  0.00000000  0.25000000  1
  Ti  Ti0_1  1  0.00000000  0.00000000  0.75000000  1
  Ti  Ti0_2  1  0.00000000  0.50000000  0.25000000  1
  Ti  Ti0_3  1  0.00000000  0.50000000  0.75000000  1
  Ti  Ti0_4  1  0.50000000  0.00000000  0.25000000  1
  Ti  Ti0_5  1  0.50000000  0.00000000  0.75000000  1
  Ti  Ti0_6  1  0.50000000  0.50000000  0.25000000  1
  Ti  Ti0_7  1  0.50000000  0.50000000  0.75000000  1
  Al  Al0_0  1  0.00000000  0.00000000  0.00000000  1
  Al  Al0_1  1  0.00000000  0.00000000  0.50000000  1
  Al  Al0_2  1  0.00000000  0.50000000  0.00000000  1
  Al  Al0_3  1  0.00000000  0.50000000  0.50000000  1
  Al  Al0_4  1  0.50000000  0.00000000  0.00000000  1
  Al  Al0_5  1  0.50000000  0.00000000  0.50000000  1
  Al  Al0_6  1  0.50000000  0.50000000  0.00000000  1
  Al  Al0_7  1  0.50000000  0.50000000  0.50000000  1
  Pd  Pd0_0  1  0.25000000  0.25000000  0.11427750  1
  Pd  Pd0_1  1  0.25000000  0.25000000  0.61427750  1
  Pd  Pd0_2  1  0.25000000  0.75000000  0.11427750  1
  Pd  Pd0_3  1  0.25000000  0.75000000  0.61427750  1
  Pd  Pd0_4  1  0.75000000  0.25000000  0.11427750  1
  Pd  Pd0_5  1  0.75000000  0.25000000  0.61427750  1
  Pd  Pd0_6  1  0.75000000  0.75000000  0.11427750  1
  Pd  Pd0_7  1  0.75000000  0.75000000  0.61427750  1
  Pd  Pd1_0  1  0.25000000  0.25000000  0.38572250  1
  Pd  Pd1_1  1  0.25000000  0.25000000  0.88572250  1
  Pd  Pd1_2  1  0.25000000  0.75000000  0.38572250  1
  Pd  Pd1_3  1  0.25000000  0.75000000  0.88572250  1
  Pd  Pd1_4  1  0.75000000  0.25000000  0.38572250  1
  Pd  Pd1_5  1  0.75000000  0.25000000  0.88572250  1
  Pd  Pd1_6  1  0.75000000  0.75000000  0.38572250  1
  Pd  Pd1_7  1  0.75000000  0.75000000  0.88572250  1
loop_
_geom_bond_atom_site_label_1
_geom_bond_atom_site_label_2
_geom_bond_distance
_geom_bond_site_symmetry_2
Ti0_0 Ti0_2 2.919742 1_555
Ti0_0 Ti0_4 2.919742 1_555
Ti0_0 Ti0_2 2.919742 1_545
Ti0_0 Ti0_4 2.919742 1_455
Ti0_1 Ti0_5 2.919742 1_555
Ti0_1 Ti0_3 2.919742 1_555
Ti0_1 Ti0_5 2.919742 1_455
Ti0_1 Ti0_3 2.919742 1_545
Ti0_2 Ti0_6 2.919742 1_555
Ti0_2 Ti0_6 2.919742 1_455
Ti0_3 Ti0_7 2.919742 1_555
Ti0_3 Ti0_7 2.919742 1_455
Ti0_4 Ti0_6 2.919742 1_555
Ti0_4 Ti0_6 2.919742 1_545
Ti0_5 Ti0_7 2.919742 1_555
Ti0_5 Ti0_7 2.919742 1_545
Al0_0 Pd0_2 2.633185 1_545
Al0_0 Pd0_0 2.633185 1_555
Al0_0 Pd0_6 2.633185 1_445
Al0_0 Pd0_4 2.633185 1_455
Al0_0 Pd1_5 2.633185 1_454
Al0_0 Pd1_1 2.633185 1_554
Al0_0 Pd1_3 2.633185 1_544
Al0_0 Pd1_7 2.633185 1_444
Al0_0 Al0_4 2.919742 1_555
Al0_0 Al0_2 2.919742 1_555
Al0_0 Al0_4 2.919742 1_455
Al0_0 Al0_2 2.919742 1_545
Al0_1 Pd0_1 2.633185 1_555
Al0_1 Pd0_5 2.633185 1_455
Al0_1 Pd0_3 2.633185 1_545
Al0_1 Pd0_7 2.633185 1_445
Al0_1 Pd1_4 2.633185 1_455
Al0_1 Pd1_0 2.633185 1_555
Al0_1 Pd1_2 2.633185 1_545
Al0_1 Pd1_6 2.633185 1_445
Al0_1 Al0_3 2.919742 1_555
Al0_1 Al0_5 2.919742 1_555
Al0_1 Al0_3 2.919742 1_545
Al0_1 Al0_5 2.919742 1_455
Al0_2 Pd0_2 2.633185 1_555
Al0_2 Pd0_0 2.633185 1_555
Al0_2 Pd0_4 2.633185 1_455
Al0_2 Pd0_6 2.633185 1_455
Al0_2 Pd1_5 2.633185 1_454
Al0_2 Pd1_1 2.633185 1_554
Al0_2 Pd1_3 2.633185 1_554
Al0_2 Pd1_7 2.633185 1_454
Al0_2 Al0_6 2.919742 1_555
Al0_2 Al0_6 2.919742 1_455
Al0_3 Pd0_1 2.633185 1_555
Al0_3 Pd0_5 2.633185 1_455
Al0_3 Pd0_3 2.633185 1_555
Al0_3 Pd0_7 2.633185 1_455
Al0_3 Pd1_4 2.633185 1_455
Al0_3 Pd1_0 2.633185 1_555
Al0_3 Pd1_6 2.633185 1_455
Al0_3 Pd1_2 2.633185 1_555
Al0_3 Al0_7 2.919742 1_555
Al0_3 Al0_7 2.919742 1_455
Al0_4 Pd0_6 2.633185 1_545
Al0_4 Pd0_2 2.633185 1_545
Al0_4 Pd0_0 2.633185 1_555
Al0_4 Pd0_4 2.633185 1_555
Al0_4 Pd1_1 2.633185 1_554
Al0_4 Pd1_3 2.633185 1_544
Al0_4 Pd1_5 2.633185 1_554
Al0_4 Pd1_7 2.633185 1_544
Al0_4 Al0_6 2.919742 1_555
Al0_4 Al0_6 2.919742 1_545
Al0_5 Pd0_1 2.633185 1_555
Al0_5 Pd0_3 2.633185 1_545
Al0_5 Pd0_7 2.633185 1_545
Al0_5 Pd0_5 2.633185 1_555
Al0_5 Pd1_0 2.633185 1_555
Al0_5 Pd1_2 2.633185 1_545
Al0_5 Pd1_6 2.633185 1_545
Al0_5 Pd1_4 2.633185 1_555
Al0_5 Al0_7 2.919742 1_555
Al0_5 Al0_7 2.919742 1_545
Al0_6 Pd0_2 2.633185 1_555
Al0_6 Pd0_0 2.633185 1_555
Al0_6 Pd0_4 2.633185 1_555
Al0_6 Pd0_6 2.633185 1_555
Al0_6 Pd1_1 2.633185 1_554
Al0_6 Pd1_5 2.633185 1_554
Al0_6 Pd1_3 2.633185 1_554
Al0_6 Pd1_7 2.633185 1_554
Al0_7 Pd0_1 2.633185 1_555
Al0_7 Pd0_5 2.633185 1_555
Al0_7 Pd0_3 2.633185 1_555
Al0_7 Pd0_7 2.633185 1_555
Al0_7 Pd1_0 2.633185 1_555
Al0_7 Pd1_4 2.633185 1_555
Al0_7 Pd1_2 2.633185 1_555
Al0_7 Pd1_6 2.633185 1_555
Pd0_0 Ti0_4 2.833775 1_555
Pd0_0 Ti0_2 2.833775 1_555
Pd0_0 Ti0_6 2.833775 1_555
Pd0_0 Ti0_0 2.833775 1_555
Pd0_0 Pd0_2 2.919742 1_555
Pd0_0 Pd0_2 2.919742 1_545
Pd0_0 Pd0_4 2.919742 1_455
Pd0_0 Pd0_4 2.919742 1_555
Pd0_1 Ti0_3 2.833775 1_555
Pd0_1 Ti0_7 2.833775 1_555
Pd0_1 Ti0_1 2.833775 1_555
Pd0_1 Ti0_5 2.833775 1_555
Pd0_1 Pd0_5 2.919742 1_555
Pd0_1 Pd0_3 2.919742 1_555
Pd0_1 Pd0_5 2.919742 1_455
Pd0_1 Pd0_3 2.919742 1_545
Pd0_2 Ti0_0 2.833775 1_565
Pd0_2 Ti0_4 2.833775 1_565
Pd0_2 Ti0_2 2.833775 1_555
Pd0_2 Ti0_6 2.833775 1_555
Pd0_2 Pd0_6 2.919742 1_455
Pd0_2 Pd0_6 2.919742 1_555
Pd0_3 Ti0_3 2.833775 1_555
Pd0_3 Ti0_7 2.833775 1_555
Pd0_3 Ti0_1 2.833775 1_565
Pd0_3 Ti0_5 2.833775 1_565
Pd0_3 Pd0_7 2.919742 1_455
Pd0_3 Pd0_7 2.919742 1_555
Pd0_4 Ti0_2 2.833775 1_655
Pd0_4 Ti0_4 2.833775 1_555
Pd0_4 Ti0_0 2.833775 1_655
Pd0_4 Ti0_6 2.833775 1_555
Pd0_4 Pd0_6 2.919742 1_555
Pd0_4 Pd0_6 2.919742 1_545
Pd0_5 Ti0_7 2.833775 1_555
Pd0_5 Ti0_3 2.833775 1_655
Pd0_5 Ti0_1 2.833775 1_655
Pd0_5 Ti0_5 2.833775 1_555
Pd0_5 Pd0_7 2.919742 1_545
Pd0_5 Pd0_7 2.919742 1_555
Pd0_6 Ti0_2 2.833775 1_655
Pd0_6 Ti0_4 2.833775 1_565
Pd0_6 Ti0_0 2.833775 1_665
Pd0_6 Ti0_6 2.833775 1_555
Pd0_7 Ti0_7 2.833775 1_555
Pd0_7 Ti0_3 2.833775 1_655
Pd0_7 Ti0_1 2.833775 1_665
Pd0_7 Ti0_5 2.833775 1_565
Pd1_0 Ti0_0 2.833775 1_555
Pd1_0 Ti0_4 2.833775 1_555
Pd1_0 Ti0_6 2.833775 1_555
Pd1_0 Ti0_2 2.833775 1_555
Pd1_0 Pd1_4 2.919742 1_555
Pd1_0 Pd1_2 2.919742 1_545
Pd1_0 Pd1_2 2.919742 1_555
Pd1_0 Pd1_4 2.919742 1_455
Pd1_1 Ti0_1 2.833775 1_555
Pd1_1 Ti0_5 2.833775 1_555
Pd1_1 Ti0_3 2.833775 1_555
Pd1_1 Ti0_7 2.833775 1_555
Pd1_1 Pd1_3 2.919742 1_545
Pd1_1 Pd1_3 2.919742 1_555
Pd1_1 Pd1_5 2.919742 1_455
Pd1_1 Pd1_5 2.919742 1_555
Pd1_2 Ti0_4 2.833775 1_565
Pd1_2 Ti0_0 2.833775 1_565
Pd1_2 Ti0_6 2.833775 1_555
Pd1_2 Ti0_2 2.833775 1_555
Pd1_2 Pd1_6 2.919742 1_555
Pd1_2 Pd1_6 2.919742 1_455
Pd1_3 Ti0_1 2.833775 1_565
Pd1_3 Ti0_5 2.833775 1_565
Pd1_3 Ti0_3 2.833775 1_555
Pd1_3 Ti0_7 2.833775 1_555
Pd1_3 Pd1_7 2.919742 1_555
Pd1_3 Pd1_7 2.919742 1_455
Pd1_4 Ti0_2 2.833775 1_655
Pd1_4 Ti0_0 2.833775 1_655
Pd1_4 Ti0_6 2.833775 1_555
Pd1_4 Ti0_4 2.833775 1_555
Pd1_4 Pd1_6 2.919742 1_555
Pd1_4 Pd1_6 2.919742 1_545
Pd1_5 Ti0_1 2.833775 1_655
Pd1_5 Ti0_3 2.833775 1_655
Pd1_5 Ti0_7 2.833775 1_555
Pd1_5 Ti0_5 2.833775 1_555
Pd1_5 Pd1_7 2.919742 1_555
Pd1_5 Pd1_7 2.919742 1_545
Pd1_6 Ti0_6 2.833775 1_555
Pd1_6 Ti0_2 2.833775 1_655
Pd1_6 Ti0_4 2.833775 1_565
Pd1_6 Ti0_0 2.833775 1_665
Pd1_7 Ti0_7 2.833775 1_555
Pd1_7 Ti0_3 2.833775 1_655
Pd1_7 Ti0_1 2.833775 1_665
Pd1_7 Ti0_5 2.833775 1_565
