# generated using pymatgen
data_HAuC4(N2O)2
_symmetry_space_group_name_H-M   'P 1'
_cell_length_a   8.88403700
_cell_length_b   6.43166600
_cell_length_c   7.39108562
_cell_angle_alpha   88.14444880
_cell_angle_beta   90.00000000
_cell_angle_gamma   90.00000000
_symmetry_Int_Tables_number   1
_chemical_formula_structural   HAuC4(N2O)2
_chemical_formula_sum   'H2 Au2 C8 N8 O4'
_cell_volume   422.09896466
_cell_formula_units_Z   2
loop_
 _symmetry_equiv_pos_site_id
 _symmetry_equiv_pos_as_xyz
  1  'x, y, z'
loop_
 _atom_site_type_symbol
 _atom_site_label
 _atom_site_symmetry_multiplicity
 _atom_site_fract_x
 _atom_site_fract_y
 _atom_site_fract_z
 _atom_site_occupancy
  H  H0  1  0.50000000  0.50000000  0.00000000  1
  H  H1  1  0.00000000  0.50000000  0.50000000  1
  Au  Au0  1  0.50000000  0.00000000  0.50000000  1
  Au  Au1  1  0.00000000  0.00000000  0.00000000  1
  C  C0  1  0.92191600  0.87091800  0.77415900  1
  C  C1  1  0.07808400  0.12908200  0.22584100  1
  C  C2  1  0.42191600  0.12908200  0.72584100  1
  C  C3  1  0.57808400  0.87091800  0.27415900  1
  C  C4  1  0.35175900  0.76621200  0.53875800  1
  C  C5  1  0.64824100  0.23378800  0.46124200  1
  C  C6  1  0.85175900  0.23378800  0.96124200  1
  C  C7  1  0.14824100  0.76621200  0.03875800  1
  N  N0  1  0.86652900  0.80214700  0.64562100  1
  N  N1  1  0.13347100  0.19785300  0.35437900  1
  N  N2  1  0.36652900  0.19785300  0.85437900  1
  N  N3  1  0.63347100  0.80214700  0.14562100  1
  N  N4  1  0.26467100  0.63277300  0.56183500  1
  N  N5  1  0.73532900  0.36722700  0.43816500  1
  N  N6  1  0.76467100  0.36722700  0.93816500  1
  N  N7  1  0.23532900  0.63277300  0.06183500  1
  O  O0  1  0.08613800  0.38640400  0.58984000  1
  O  O1  1  0.91386200  0.61359600  0.41016000  1
  O  O2  1  0.58613800  0.61359600  0.91016000  1
  O  O3  1  0.41386200  0.38640400  0.08984000  1
loop_
_geom_bond_atom_site_label_1
_geom_bond_atom_site_label_2
_geom_bond_distance
_geom_bond_site_symmetry_2
H0 O3 1.236489 1_555
H0 O2 1.236489 1_554
H1 O0 1.236489 1_555
H1 O1 1.236489 1_455
Au0 C2 2.011586 1_555
Au0 C3 2.011586 1_545
Au0 C5 2.012350 1_555
Au0 C4 2.012350 1_545
Au1 C0 2.011586 1_444
Au1 C1 2.011586 1_555
Au1 C6 2.012350 1_454
Au1 C7 2.012350 1_545
C0 N0 1.169420 1_555
C1 N1 1.169420 1_555
C2 N2 1.169420 1_555
C3 N3 1.169420 1_555
C4 N4 1.163950 1_555
C5 N5 1.163950 1_555
C6 N6 1.163950 1_555
C7 N7 1.163950 1_555
