# generated using pymatgen
data_DySiNi4
_symmetry_space_group_name_H-M   'P 1'
_cell_length_a   4.75911817
_cell_length_b   4.75911817
_cell_length_c   3.91130759
_cell_angle_alpha   90.00000000
_cell_angle_beta   90.00000000
_cell_angle_gamma   116.48062096
_symmetry_Int_Tables_number   1
_chemical_formula_structural   DySiNi4
_chemical_formula_sum   'Dy1 Si1 Ni4'
_cell_volume   79.29381929
_cell_formula_units_Z   1
loop_
 _symmetry_equiv_pos_site_id
 _symmetry_equiv_pos_as_xyz
  1  'x, y, z'
loop_
 _atom_site_type_symbol
 _atom_site_label
 _atom_site_symmetry_multiplicity
 _atom_site_fract_x
 _atom_site_fract_y
 _atom_site_fract_z
 _atom_site_occupancy
  Dy  Dy0  1  0.00000000  0.00000000  -0.00000000  1
  Si  Si0  1  0.50000000  0.50000000  0.50000000  1
  Ni  Ni0  1  0.34092322  0.65907678  -0.00000000  1
  Ni  Ni1  1  0.65907678  0.34092322  0.00000000  1
  Ni  Ni2  1  0.50000000  0.00000000  0.50000000  1
  Ni  Ni3  1  0.00000000  0.50000000  0.50000000  1
loop_
_geom_bond_atom_site_label_1
_geom_bond_atom_site_label_2
_geom_bond_distance
_geom_bond_site_symmetry_2
Dy0 Ni0 2.759094 1_545
Dy0 Ni1 2.759094 1_455
Dy0 Ni1 2.816459 1_445
Dy0 Ni0 2.816459 1_445
Dy0 Ni0 2.816459 1_555
Dy0 Ni1 2.816459 1_555
Dy0 Ni3 3.080078 1_544
Dy0 Ni3 3.080078 1_555
Dy0 Ni2 3.080078 1_454
Dy0 Ni2 3.080078 1_554
Dy0 Ni3 3.080078 1_545
Dy0 Ni2 3.080078 1_555
Dy0 Ni2 3.080078 1_455
Dy0 Ni3 3.080078 1_554
Dy0 Si0 3.177987 1_444
Dy0 Si0 3.177987 1_555
Dy0 Si0 3.177987 1_445
Dy0 Si0 3.177987 1_554
Ni0 Si0 2.341368 1_555
Ni0 Si0 2.341368 1_554
Ni0 Ni2 2.436144 1_565
Ni0 Ni2 2.436144 1_564
Ni0 Ni3 2.436144 1_554
Ni0 Ni3 2.436144 1_555
Ni0 Ni1 2.574819 1_555
Ni0 Ni1 2.905318 1_565
Ni0 Ni1 2.905318 1_455
Ni1 Si0 2.341368 1_555
Ni1 Si0 2.341368 1_554
Ni1 Ni3 2.436144 1_654
Ni1 Ni3 2.436144 1_655
Ni1 Ni2 2.436144 1_555
Ni1 Ni2 2.436144 1_554
Ni2 Si0 2.379559 1_545
Ni2 Si0 2.379559 1_555
Ni2 Ni3 2.504999 1_655
Ni2 Ni3 2.504999 1_545
Ni3 Si0 2.379559 1_555
Ni3 Si0 2.379559 1_455
