# generated using pymatgen
data_Sr2TiMoO6
_symmetry_space_group_name_H-M   'P 1'
_cell_length_a   5.65619763
_cell_length_b   5.65619763
_cell_length_c   5.65619763
_cell_angle_alpha   119.79006715
_cell_angle_beta   119.79006715
_cell_angle_gamma   90.36400059
_symmetry_Int_Tables_number   1
_chemical_formula_structural   Sr2TiMoO6
_chemical_formula_sum   'Sr2 Ti1 Mo1 O6'
_cell_volume   128.35864672
_cell_formula_units_Z   1
loop_
 _symmetry_equiv_pos_site_id
 _symmetry_equiv_pos_as_xyz
  1  'x, y, z'
loop_
 _atom_site_type_symbol
 _atom_site_label
 _atom_site_symmetry_multiplicity
 _atom_site_fract_x
 _atom_site_fract_y
 _atom_site_fract_z
 _atom_site_occupancy
  Sr  Sr0  1  0.75000000  0.25000000  0.50000000  1
  Sr  Sr1  1  0.25000000  0.75000000  0.50000000  1
  Ti  Ti0  1  0.50000000  0.50000000  0.00000000  1
  Mo  Mo0  1  0.00000000  0.00000000  0.00000000  1
  O  O0  1  0.76432300  0.72076600  0.48508900  1
  O  O1  1  0.23567700  0.27923400  0.51491100  1
  O  O2  1  0.27923400  0.76432300  0.04355700  1
  O  O3  1  0.72076600  0.23567700  0.95644300  1
  O  O4  1  0.25258800  0.25258800  0.00000000  1
  O  O5  1  0.74741200  0.74741200  0.00000000  1
loop_
_geom_bond_atom_site_label_1
_geom_bond_atom_site_label_2
_geom_bond_distance
_geom_bond_site_symmetry_2
Mo0 O4 2.014041 1_555
Mo0 O5 2.014041 1_445
Mo0 O1 2.073315 1_555
Mo0 O0 2.073315 1_444
Mo0 O2 2.073315 1_545
Mo0 O3 2.073315 1_454
O0 Ti0 1.954114 1_555
O0 Sr1 2.707598 1_655
O0 Sr0 2.707598 1_555
O0 Sr1 2.955239 1_555
O0 Sr0 2.955239 1_565
O1 Ti0 1.954114 1_556
O1 Sr1 2.707598 1_555
O1 Sr0 2.707598 1_455
O1 Sr1 2.955239 1_545
O1 Sr0 2.955239 1_555
O2 Ti0 1.954114 1_555
O2 Sr1 2.707598 1_555
O2 Sr0 2.707598 1_565
O2 Sr0 2.955239 1_454
O2 Sr1 2.955239 1_554
O3 Ti0 1.954114 1_556
O3 Sr0 2.707598 1_555
O3 Sr1 2.707598 1_545
O3 Sr1 2.955239 1_656
O3 Sr0 2.955239 1_556
O4 Ti0 1.972770 1_555
O4 Sr1 2.837143 1_555
O4 Sr0 2.837143 1_555
O4 Sr0 2.837143 1_454
O4 Sr1 2.837143 1_544
O5 Ti0 1.972770 1_555
O5 Sr1 2.837143 1_554
O5 Sr1 2.837143 1_655
O5 Sr0 2.837143 1_565
O5 Sr0 2.837143 1_554
