# generated using pymatgen
data_Li4CO4
_symmetry_space_group_name_H-M   'P 1'
_cell_length_a   4.96498203
_cell_length_b   4.96498203
_cell_length_c   4.96498203
_cell_angle_alpha   129.53883873
_cell_angle_beta   129.11772182
_cell_angle_gamma   74.48343630
_symmetry_Int_Tables_number   1
_chemical_formula_structural   Li4CO4
_chemical_formula_sum   'Li4 C1 O4'
_cell_volume   71.36732762
_cell_formula_units_Z   1
loop_
 _symmetry_equiv_pos_site_id
 _symmetry_equiv_pos_as_xyz
  1  'x, y, z'
loop_
 _atom_site_type_symbol
 _atom_site_label
 _atom_site_symmetry_multiplicity
 _atom_site_fract_x
 _atom_site_fract_y
 _atom_site_fract_z
 _atom_site_occupancy
  Li  Li0  1  0.85465600  0.45073300  0.01720500  1
  Li  Li1  1  0.56647200  0.54926700  0.40392300  1
  Li  Li2  1  0.43352800  0.83745100  0.98279500  1
  Li  Li3  1  0.14534400  0.16254900  0.59607700  1
  C  C0  1  0.00000000  0.00000000  0.00000000  1
  O  O0  1  0.08444800  0.70216100  0.99951100  1
  O  O1  1  0.70265000  0.08493700  0.00048900  1
  O  O2  1  0.91555200  0.91506300  0.61771300  1
  O  O3  1  0.29735000  0.29783900  0.38228700  1
loop_
_geom_bond_atom_site_label_1
_geom_bond_atom_site_label_2
_geom_bond_distance
_geom_bond_site_symmetry_2
Li0 O0 1.973794 1_654
Li0 O1 2.082632 1_555
Li0 O3 2.127177 1_655
Li0 O2 2.170037 1_544
Li0 O2 2.186249 1_555
Li0 O3 2.289226 1_554
Li1 O3 1.973794 1_555
Li1 O2 2.082632 1_555
Li1 O0 2.127177 1_655
Li1 O1 2.170037 1_566
Li1 O1 2.186249 1_555
Li1 O0 2.289226 1_554
Li2 O1 1.973794 1_566
Li2 O0 2.082632 1_555
Li2 O2 2.127177 1_455
Li2 O3 2.170037 1_566
Li2 O3 2.186249 1_555
Li2 O2 2.289226 1_556
Li3 O2 1.973794 1_445
Li3 O3 2.082632 1_555
Li3 O1 2.127177 1_455
Li3 O0 2.170037 1_544
Li3 O0 2.186249 1_555
Li3 O1 2.289226 1_556
C0 O3 1.423914 1_555
C0 O2 1.423914 1_444
C0 O1 1.423914 1_455
C0 O0 1.423914 1_544
