# generated using pymatgen
data_AlTlSiO4
_symmetry_space_group_name_H-M   'P 1'
_cell_length_a   9.07157970
_cell_length_b   9.07157970
_cell_length_c   9.07157928
_cell_angle_alpha   90.55971960
_cell_angle_beta   90.55971960
_cell_angle_gamma   90.55972480
_symmetry_Int_Tables_number   1
_chemical_formula_structural   AlTlSiO4
_chemical_formula_sum   'Al6 Tl6 Si6 O24'
_cell_volume   746.42497147
_cell_formula_units_Z   6
loop_
 _symmetry_equiv_pos_site_id
 _symmetry_equiv_pos_as_xyz
  1  'x, y, z'
loop_
 _atom_site_type_symbol
 _atom_site_label
 _atom_site_symmetry_multiplicity
 _atom_site_fract_x
 _atom_site_fract_y
 _atom_site_fract_z
 _atom_site_occupancy
  Al  Al0  1  0.50155700  0.74878900  0.99584600  1
  Al  Al1  1  0.99584600  0.50155700  0.74878900  1
  Al  Al2  1  0.74878900  0.99584600  0.50155700  1
  Al  Al3  1  0.00155700  0.49584600  0.24878900  1
  Al  Al4  1  0.24878900  0.00155700  0.49584600  1
  Al  Al5  1  0.49584600  0.24878900  0.00155700  1
  Tl  Tl0  1  0.35223200  0.64958000  0.35184300  1
  Tl  Tl1  1  0.64958000  0.35184300  0.35223200  1
  Tl  Tl2  1  0.35184300  0.35223200  0.64958000  1
  Tl  Tl3  1  0.14958000  0.85223200  0.85184300  1
  Tl  Tl4  1  0.85184300  0.14958000  0.85223200  1
  Tl  Tl5  1  0.85223200  0.85184300  0.14958000  1
  Si  Si0  1  0.99859700  0.74883300  0.50044700  1
  Si  Si1  1  0.50044700  0.99859700  0.74883300  1
  Si  Si2  1  0.74883300  0.50044700  0.99859700  1
  Si  Si3  1  0.49859700  0.00044700  0.24883300  1
  Si  Si4  1  0.24883300  0.49859700  0.00044700  1
  Si  Si5  1  0.00044700  0.24883300  0.49859700  1
  O  O0  1  0.65066400  0.63991800  0.94781100  1
  O  O1  1  0.94781100  0.65066400  0.63991800  1
  O  O2  1  0.63991800  0.94781100  0.65066400  1
  O  O3  1  0.35060700  0.64099200  0.05581800  1
  O  O4  1  0.05592900  0.64993700  0.35923000  1
  O  O5  1  0.36271200  0.94006600  0.35136200  1
  O  O6  1  0.64993700  0.35923000  0.05592900  1
  O  O7  1  0.94006600  0.35136200  0.36271200  1
  O  O8  1  0.64099200  0.05581800  0.35060700  1
  O  O9  1  0.35136200  0.36271200  0.94006600  1
  O  O10  1  0.05581800  0.35060700  0.64099200  1
  O  O11  1  0.35923000  0.05592900  0.64993700  1
  O  O12  1  0.14993700  0.55592900  0.85923000  1
  O  O13  1  0.44006600  0.86271200  0.85136200  1
  O  O14  1  0.14099200  0.85060700  0.55581800  1
  O  O15  1  0.85136200  0.44006600  0.86271200  1
  O  O16  1  0.55581800  0.14099200  0.85060700  1
  O  O17  1  0.85923000  0.14993700  0.55592900  1
  O  O18  1  0.15066400  0.44781100  0.13991800  1
  O  O19  1  0.44781100  0.13991800  0.15066400  1
  O  O20  1  0.13991800  0.15066400  0.44781100  1
  O  O21  1  0.85060700  0.55581800  0.14099200  1
  O  O22  1  0.55592900  0.85923000  0.14993700  1
  O  O23  1  0.86271200  0.85136200  0.44006600  1
loop_
_geom_bond_atom_site_label_1
_geom_bond_atom_site_label_2
_geom_bond_distance
_geom_bond_site_symmetry_2
Al0 O0 1.739003 1_555
Al0 O13 1.766516 1_555
Al0 O3 1.768097 1_556
Al0 O22 1.774974 1_556
Al1 O1 1.739003 1_555
Al1 O15 1.766516 1_555
Al1 O10 1.768097 1_655
Al1 O12 1.774974 1_655
Al2 O2 1.739003 1_555
Al2 O23 1.766516 1_555
Al2 O8 1.768097 1_565
Al2 O17 1.774974 1_565
Al3 O18 1.739003 1_555
Al3 O7 1.766516 1_455
Al3 O21 1.768097 1_455
Al3 O4 1.774974 1_555
Al4 O20 1.739003 1_555
Al4 O5 1.766516 1_545
Al4 O14 1.768097 1_545
Al4 O11 1.774974 1_555
Al5 O19 1.739003 1_555
Al5 O9 1.766516 1_554
Al5 O16 1.768097 1_554
Al5 O6 1.774974 1_555
O0 Si2 1.622191 1_555
O1 Si0 1.622191 1_555
O2 Si1 1.622191 1_555
O3 Si4 1.651749 1_555
O3 Tl0 2.685676 1_555
O4 Si0 1.648077 1_455
O4 Tl0 2.689459 1_555
O5 Si3 1.644326 1_565
O5 Tl0 2.636001 1_555
O6 Si2 1.648077 1_554
O6 Tl1 2.689458 1_555
O7 Si5 1.644326 1_655
O7 Tl1 2.636001 1_555
O8 Si3 1.651749 1_555
O8 Tl1 2.685676 1_555
O9 Si4 1.644326 1_556
O9 Tl2 2.636001 1_555
O10 Si5 1.651749 1_555
O10 Tl2 2.685676 1_555
O11 Si1 1.648077 1_545
O11 Tl2 2.689459 1_555
O12 Si4 1.648077 1_556
O12 Tl3 2.689459 1_555
O13 Si1 1.644326 1_555
O13 Tl3 2.636001 1_555
O14 Si0 1.651749 1_455
O14 Tl3 2.685676 1_555
O15 Si2 1.644326 1_555
O15 Tl4 2.636001 1_555
O16 Si1 1.651749 1_545
O16 Tl4 2.685676 1_555
O17 Si5 1.648077 1_655
O17 Tl4 2.689458 1_555
O18 Si4 1.622191 1_555
O19 Si3 1.622191 1_555
O20 Si5 1.622191 1_555
O21 Si2 1.651749 1_554
O21 Tl5 2.685676 1_555
O22 Si3 1.648077 1_565
O22 Tl5 2.689459 1_555
O23 Si0 1.644326 1_555
O23 Tl5 2.636001 1_555
