# generated using pymatgen
data_KTbTi4O12
_symmetry_space_group_name_H-M   'P 1'
_cell_length_a   5.47870202
_cell_length_b   5.47870202
_cell_length_c   7.77381827
_cell_angle_alpha   90.00000000
_cell_angle_beta   90.00000000
_cell_angle_gamma   90.03216572
_symmetry_Int_Tables_number   1
_chemical_formula_structural   KTbTi4O12
_chemical_formula_sum   'K1 Tb1 Ti4 O12'
_cell_volume   233.34025891
_cell_formula_units_Z   1
loop_
 _symmetry_equiv_pos_site_id
 _symmetry_equiv_pos_as_xyz
  1  'x, y, z'
loop_
 _atom_site_type_symbol
 _atom_site_label
 _atom_site_symmetry_multiplicity
 _atom_site_fract_x
 _atom_site_fract_y
 _atom_site_fract_z
 _atom_site_occupancy
  K  K0  1  0.98949891  0.01050109  0.00000000  1
  Tb  Tb0  1  0.52156473  0.47843527  0.50000000  1
  Ti  Ti0  1  0.49596898  0.99065779  0.24327894  1
  Ti  Ti1  1  0.49596898  0.99065779  0.75672106  1
  Ti  Ti2  1  0.00934221  0.50403102  0.75672106  1
  Ti  Ti3  1  0.00934221  0.50403102  0.24327894  1
  O  O0  1  0.24860078  0.25045991  0.27101316  1
  O  O1  1  0.74954009  0.75139922  0.27101316  1
  O  O2  1  0.74954009  0.75139922  0.72898684  1
  O  O3  1  0.24860078  0.25045991  0.72898684  1
  O  O4  1  0.27027933  0.72972067  0.29269834  1
  O  O5  1  0.73203046  0.26796954  0.25518389  1
  O  O6  1  0.73203046  0.26796954  0.74481611  1
  O  O7  1  0.27027933  0.72972067  0.70730166  1
  O  O8  1  0.48621134  0.98919028  0.00000000  1
  O  O9  1  0.51761759  0.04452599  0.50000000  1
  O  O10  1  0.01080972  0.51378866  0.00000000  1
  O  O11  1  0.95547401  0.48238241  0.50000000  1
loop_
_geom_bond_atom_site_label_1
_geom_bond_atom_site_label_2
_geom_bond_distance
_geom_bond_site_symmetry_2
K0 O10 2.723908 1_645
K0 O8 2.723908 1_645
K0 O8 2.759768 1_545
K0 O10 2.759768 1_655
K0 O6 2.813726 1_554
K0 O5 2.813726 1_555
K0 O2 2.860066 1_544
K0 O1 2.860066 1_545
K0 O3 2.860066 1_654
K0 O0 2.860066 1_655
K0 O7 3.148466 1_644
K0 O4 3.148466 1_645
O0 Ti3 1.922702 1_555
O0 Ti0 1.977720 1_545
O0 Tb0 2.638783 1_555
O1 Ti0 1.922702 1_555
O1 Ti3 1.977720 1_655
O1 Tb0 2.638783 1_555
O2 Ti1 1.922702 1_555
O2 Ti2 1.977720 1_655
O2 Tb0 2.638783 1_555
O3 Ti2 1.922702 1_555
O3 Ti1 1.977720 1_545
O3 Tb0 2.638783 1_555
O4 Ti3 1.928277 1_555
O4 Ti0 1.928277 1_555
O4 Tb0 2.527815 1_555
O5 Ti3 1.996825 1_655
O5 Ti0 1.996825 1_545
O5 Tb0 2.506527 1_555
O6 Ti2 1.996825 1_655
O6 Ti1 1.996825 1_545
O6 Tb0 2.506527 1_555
O7 Ti2 1.928277 1_555
O7 Ti1 1.928277 1_555
O7 Tb0 2.527815 1_555
O8 Ti1 1.891979 1_554
O8 Ti0 1.891979 1_555
O9 Ti1 2.020881 1_545
O9 Ti0 2.020881 1_545
O9 Tb0 2.377346 1_555
O10 Ti2 1.891979 1_554
O10 Ti3 1.891979 1_555
O11 Ti2 2.020881 1_655
O11 Ti3 2.020881 1_655
O11 Tb0 2.377346 1_555
