# generated using pymatgen
data_KLaMnWO6
_symmetry_space_group_name_H-M   'P 1'
_cell_length_a   5.72759320
_cell_length_b   5.76225300
_cell_length_c   8.26377585
_cell_angle_alpha   90.00000000
_cell_angle_beta   90.45067436
_cell_angle_gamma   90.00000000
_symmetry_Int_Tables_number   1
_chemical_formula_structural   KLaMnWO6
_chemical_formula_sum   'K2 La2 Mn2 W2 O12'
_cell_volume   272.72790817
_cell_formula_units_Z   2
loop_
 _symmetry_equiv_pos_site_id
 _symmetry_equiv_pos_as_xyz
  1  'x, y, z'
loop_
 _atom_site_type_symbol
 _atom_site_label
 _atom_site_symmetry_multiplicity
 _atom_site_fract_x
 _atom_site_fract_y
 _atom_site_fract_z
 _atom_site_occupancy
  K  K0  1  0.24310600  0.75769500  0.00073800  1
  K  K1  1  0.75689400  0.25769500  0.99926200  1
  La  La0  1  0.24929000  0.80766600  0.49993400  1
  La  La1  1  0.75071000  0.30766600  0.50006600  1
  Mn  Mn0  1  0.74623900  0.77516900  0.24406600  1
  Mn  Mn1  1  0.25376100  0.27516900  0.75593400  1
  W  W0  1  0.75754500  0.76926800  0.75034400  1
  W  W1  1  0.24245500  0.26926800  0.24965600  1
  O  O0  1  0.54231800  0.02751900  0.69322400  1
  O  O1  1  0.45768200  0.52751900  0.30677600  1
  O  O2  1  0.51078100  0.05906100  0.30747100  1
  O  O3  1  0.48921900  0.55906100  0.69252900  1
  O  O4  1  0.97875000  0.47200800  0.24603400  1
  O  O5  1  0.02125000  0.97200800  0.75396600  1
  O  O6  1  0.95004300  0.49390000  0.75691700  1
  O  O7  1  0.04995700  0.99390000  0.24308300  1
  O  O8  1  0.82574600  0.74682600  0.50548000  1
  O  O9  1  0.17425400  0.24682600  0.49452000  1
  O  O10  1  0.70737000  0.77427700  0.97462900  1
  O  O11  1  0.29263000  0.27427700  0.02537100  1
loop_
_geom_bond_atom_site_label_1
_geom_bond_atom_site_label_2
_geom_bond_distance
_geom_bond_site_symmetry_2
K0 O7 2.668702 1_555
K0 O10 2.671255 1_554
K0 O5 2.693988 1_554
K0 O11 2.807210 1_555
K0 O11 2.996930 1_565
K0 O6 3.022354 1_454
K0 O4 3.026524 1_455
K0 O10 3.075845 1_454
K0 O1 3.101081 1_555
K0 O3 3.136984 1_554
K1 O6 2.668702 1_555
K1 O11 2.671255 1_556
K1 O4 2.693988 1_556
K1 O10 2.807210 1_545
K1 O10 2.996930 1_555
K1 O7 3.022354 1_646
K1 O5 3.026524 1_645
K1 O11 3.075845 1_656
K1 O0 3.101081 1_555
K1 O2 3.136984 1_556
La0 O8 2.451874 1_455
La0 O3 2.537569 1_555
La0 O9 2.567118 1_565
La0 O1 2.570683 1_555
La0 O2 2.628434 1_565
La0 O7 2.631010 1_555
La0 O0 2.632671 1_565
La0 O5 2.655704 1_555
La1 O9 2.451874 1_655
La1 O2 2.537569 1_555
La1 O8 2.567118 1_555
La1 O0 2.570683 1_555
La1 O3 2.628434 1_555
La1 O6 2.631010 1_555
La1 O1 2.632671 1_555
La1 O4 2.655704 1_555
Mn0 O7 2.148248 1_655
Mn0 O2 2.186419 1_565
Mn0 O4 2.196600 1_555
Mn0 O8 2.210277 1_555
Mn0 O10 2.235932 1_554
Mn0 O1 2.247211 1_555
Mn1 O6 2.148248 1_455
Mn1 O3 2.186419 1_555
Mn1 O5 2.196600 1_545
Mn1 O9 2.210277 1_555
Mn1 O11 2.235932 1_556
Mn1 O0 2.247211 1_555
O0 W0 1.986894 1_545
O1 W1 1.986894 1_555
O2 W1 2.011423 1_555
O3 W0 2.011423 1_555
O4 W1 1.909518 1_655
O5 W0 1.909518 1_455
O6 W0 1.932710 1_555
O7 W1 1.932710 1_565
O8 W0 2.067923 1_555
O9 W1 2.067923 1_555
O10 W0 1.878043 1_555
O11 W1 1.878043 1_555
