# generated using pymatgen
data_Ag8Sb5As3S16
_symmetry_space_group_name_H-M   'P 1'
_cell_length_a   5.97363300
_cell_length_b   8.81196699
_cell_length_c   13.71536900
_cell_angle_alpha   95.73033089
_cell_angle_beta   90.35217693
_cell_angle_gamma   90.08628863
_symmetry_Int_Tables_number   1
_chemical_formula_structural   Ag8Sb5As3S16
_chemical_formula_sum   'Ag8 Sb5 As3 S16'
_cell_volume   718.34658602
_cell_formula_units_Z   1
loop_
 _symmetry_equiv_pos_site_id
 _symmetry_equiv_pos_as_xyz
  1  'x, y, z'
loop_
 _atom_site_type_symbol
 _atom_site_label
 _atom_site_symmetry_multiplicity
 _atom_site_fract_x
 _atom_site_fract_y
 _atom_site_fract_z
 _atom_site_occupancy
  Ag  Ag0  1  0.26860200  0.97639700  0.57643500  1
  Ag  Ag1  1  0.23117100  0.47609900  0.07511500  1
  Ag  Ag2  1  0.73065600  0.02320700  0.42400100  1
  Ag  Ag3  1  0.77180600  0.52160700  0.92351100  1
  Ag  Ag4  1  0.75148600  0.92950400  0.78915700  1
  Ag  Ag5  1  0.75141300  0.42723700  0.29056800  1
  Ag  Ag6  1  0.25101700  0.07540100  0.21232800  1
  Ag  Ag7  1  0.24833800  0.57526600  0.71170500  1
  Sb  Sb0  1  0.28714700  0.22235400  0.85190800  1
  Sb  Sb1  1  0.22296900  0.71568900  0.36026700  1
  Sb  Sb2  1  0.71500300  0.78353500  0.14271300  1
  Sb  Sb3  1  0.78268500  0.28599800  0.64342000  1
  Sb  Sb4  1  0.27248200  0.83493400  0.96239400  1
  As  As0  1  0.24106400  0.32633400  0.45278500  1
  As  As1  1  0.73903300  0.17384300  0.04744400  1
  As  As2  1  0.75949100  0.67338000  0.54630700  1
  S  S0  1  0.36529900  0.24862900  0.66606700  1
  S  S1  1  0.13025600  0.74189700  0.16952900  1
  S  S2  1  0.63470900  0.75718500  0.33319100  1
  S  S3  1  0.86760400  0.25798000  0.83064500  1
  S  S4  1  0.12338200  0.18615100  0.05602200  1
  S  S5  1  0.37495500  0.68622900  0.55524800  1
  S  S6  1  0.85862000  0.81497300  0.94913900  1
  S  S7  1  0.62512500  0.31203400  0.44488300  1
  S  S8  1  0.83883700  0.91797300  0.60516400  1
  S  S9  1  0.66178900  0.41759000  0.10718300  1
  S  S10  1  0.16007200  0.08168700  0.39457600  1
  S  S11  1  0.34111300  0.56852700  0.89376400  1
  S  S12  1  0.30945400  0.94253100  0.79887800  1
  S  S13  1  0.18972400  0.43550600  0.30576600  1
  S  S14  1  0.68829400  0.06409100  0.19447800  1
  S  S15  1  0.81080300  0.56693400  0.69460800  1
loop_
_geom_bond_atom_site_label_1
_geom_bond_atom_site_label_2
_geom_bond_distance
_geom_bond_site_symmetry_2
Ag0 S5 2.623900 1_555
Ag0 S0 2.645342 1_565
Ag0 S8 2.657083 1_455
Ag0 S10 2.818965 1_565
Ag0 S12 3.103129 1_555
Ag1 S4 2.621187 1_555
Ag1 S1 2.633312 1_555
Ag1 S9 2.666766 1_555
Ag1 S11 2.775670 1_554
Ag2 S2 2.603664 1_545
Ag2 S7 2.611251 1_555
Ag2 S10 2.656844 1_655
Ag2 S8 2.809545 1_545
Ag3 S3 2.601641 1_555
Ag3 S6 2.624436 1_555
Ag3 S11 2.642101 1_555
Ag3 S9 2.845646 1_556
Ag4 S8 2.572151 1_555
Ag4 S6 2.582560 1_555
Ag4 S12 2.646804 1_555
Ag4 S3 2.973781 1_565
Ag5 S7 2.554520 1_555
Ag5 S9 2.561380 1_555
Ag5 S13 2.625640 1_655
Ag5 S2 2.992150 1_555
Ag6 S4 2.555298 1_555
Ag6 S10 2.556431 1_555
Ag6 S14 2.626191 1_555
Ag6 S1 3.024167 1_545
Ag7 S11 2.560939 1_555
Ag7 S5 2.563133 1_555
Ag7 S15 2.622998 1_455
Ag7 S0 2.969227 1_555
As0 S10 2.273199 1_555
As0 S7 2.300513 1_555
As0 S13 2.337979 1_555
As1 S9 2.270214 1_555
As1 S4 2.300091 1_655
As1 S14 2.343094 1_555
As2 S8 2.273014 1_555
As2 S5 2.303453 1_555
As2 S15 2.342041 1_555
S0 Sb3 2.539485 1_555
S0 Sb0 2.626878 1_555
S1 Sb2 2.538029 1_455
S1 Sb1 2.703140 1_555
S2 Sb1 2.521270 1_555
S2 Sb2 2.691693 1_555
S3 Sb0 2.544855 1_655
S3 Sb3 2.650124 1_555
S4 Sb0 3.017790 1_554
S5 Sb1 2.855298 1_555
S6 Sb4 2.482506 1_655
S6 Sb2 2.834718 1_556
S7 Sb3 2.906403 1_555
S11 Sb4 2.476198 1_555
S11 Sb0 3.063312 1_555
S12 Sb0 2.504183 1_565
S12 Sb4 2.531295 1_555
S13 Sb1 2.514385 1_555
S14 Sb2 2.508708 1_545
S15 Sb3 2.509964 1_555
