# generated using pymatgen
data_YbCu4Pd
_symmetry_space_group_name_H-M   'P 1'
_cell_length_a   4.94594182
_cell_length_b   4.94594182
_cell_length_c   4.94594182
_cell_angle_alpha   60.00000000
_cell_angle_beta   60.00000000
_cell_angle_gamma   60.00000000
_symmetry_Int_Tables_number   1
_chemical_formula_structural   YbCu4Pd
_chemical_formula_sum   'Yb1 Cu4 Pd1'
_cell_volume   85.55236353
_cell_formula_units_Z   1
loop_
 _symmetry_equiv_pos_site_id
 _symmetry_equiv_pos_as_xyz
  1  'x, y, z'
loop_
 _atom_site_type_symbol
 _atom_site_label
 _atom_site_symmetry_multiplicity
 _atom_site_fract_x
 _atom_site_fract_y
 _atom_site_fract_z
 _atom_site_occupancy
  Yb  Yb0  1  0.00000000  0.00000000  0.00000000  1
  Cu  Cu0  1  0.62458800  0.62458800  0.12623500  1
  Cu  Cu1  1  0.62458800  0.12623500  0.62458800  1
  Cu  Cu2  1  0.12623500  0.62458800  0.62458800  1
  Cu  Cu3  1  0.62458800  0.62458800  0.62458800  1
  Pd  Pd0  1  0.25000000  0.25000000  0.25000000  1
loop_
_geom_bond_atom_site_label_1
_geom_bond_atom_site_label_2
_geom_bond_distance
_geom_bond_site_symmetry_2
Cu0 Cu1 2.464825 1_555
Cu0 Cu2 2.464825 1_555
Cu0 Cu3 2.464825 1_555
Cu0 Cu3 2.481117 1_554
Cu0 Cu1 2.481117 1_564
Cu0 Cu2 2.481117 1_654
Cu0 Pd0 2.898949 1_555
Cu0 Pd0 2.898953 1_655
Cu0 Pd0 2.898953 1_565
Cu0 Yb0 2.900686 1_655
Cu0 Yb0 2.900686 1_565
Cu0 Yb0 2.900691 1_665
Cu1 Cu2 2.464825 1_555
Cu1 Cu3 2.464825 1_555
Cu1 Cu3 2.481117 1_545
Cu1 Cu2 2.481117 1_645
Cu1 Pd0 2.898949 1_555
Cu1 Pd0 2.898953 1_655
Cu1 Pd0 2.898953 1_556
Cu1 Yb0 2.900686 1_655
Cu1 Yb0 2.900686 1_556
Cu1 Yb0 2.900691 1_656
Cu2 Cu3 2.464825 1_555
Cu2 Cu3 2.481117 1_455
Cu2 Pd0 2.898949 1_555
Cu2 Pd0 2.898953 1_556
Cu2 Pd0 2.898953 1_565
Cu2 Yb0 2.900686 1_556
Cu2 Yb0 2.900686 1_565
Cu2 Yb0 2.900691 1_566
Cu3 Pd0 2.898951 1_556
Cu3 Pd0 2.898951 1_565
Cu3 Pd0 2.898951 1_655
Cu3 Yb0 2.900688 1_656
Cu3 Yb0 2.900688 1_665
Cu3 Yb0 2.900688 1_566
Pd0 Yb0 3.028758 1_565
Pd0 Yb0 3.028758 1_555
Pd0 Yb0 3.028758 1_556
Pd0 Yb0 3.028758 1_655
