# generated using pymatgen
data_MgSb2
_symmetry_space_group_name_H-M   'P 1'
_cell_length_a   18.25253546
_cell_length_b   18.25253546
_cell_length_c   10.75987800
_cell_angle_alpha   90.00000000
_cell_angle_beta   90.00000000
_cell_angle_gamma   159.51575106
_symmetry_Int_Tables_number   1
_chemical_formula_structural   MgSb2
_chemical_formula_sum   'Mg16 Sb32'
_cell_volume   1254.46799210
_cell_formula_units_Z   16
loop_
 _symmetry_equiv_pos_site_id
 _symmetry_equiv_pos_as_xyz
  1  'x, y, z'
loop_
 _atom_site_type_symbol
 _atom_site_label
 _atom_site_symmetry_multiplicity
 _atom_site_fract_x
 _atom_site_fract_y
 _atom_site_fract_z
 _atom_site_occupancy
  Mg  Mg0_0  1  0.14563650  0.35436350  0.12500000  1
  Mg  Mg0_1  1  0.14563650  0.35436350  0.62500000  1
  Mg  Mg0_2  1  0.14563650  0.85436350  0.12500000  1
  Mg  Mg0_3  1  0.14563650  0.85436350  0.62500000  1
  Mg  Mg0_4  1  0.64563650  0.35436350  0.12500000  1
  Mg  Mg0_5  1  0.64563650  0.35436350  0.62500000  1
  Mg  Mg0_6  1  0.64563650  0.85436350  0.12500000  1
  Mg  Mg0_7  1  0.64563650  0.85436350  0.62500000  1
  Mg  Mg1_0  1  0.35436350  0.14563650  0.37500000  1
  Mg  Mg1_1  1  0.35436350  0.14563650  0.87500000  1
  Mg  Mg1_2  1  0.35436350  0.64563650  0.37500000  1
  Mg  Mg1_3  1  0.35436350  0.64563650  0.87500000  1
  Mg  Mg1_4  1  0.85436350  0.14563650  0.37500000  1
  Mg  Mg1_5  1  0.85436350  0.14563650  0.87500000  1
  Mg  Mg1_6  1  0.85436350  0.64563650  0.37500000  1
  Mg  Mg1_7  1  0.85436350  0.64563650  0.87500000  1
  Sb  Sb0_0  1  0.32432300  0.17567700  0.12500000  1
  Sb  Sb0_1  1  0.32432300  0.17567700  0.62500000  1
  Sb  Sb0_2  1  0.32432300  0.67567700  0.12500000  1
  Sb  Sb0_3  1  0.32432300  0.67567700  0.62500000  1
  Sb  Sb0_4  1  0.82432300  0.17567700  0.12500000  1
  Sb  Sb0_5  1  0.82432300  0.17567700  0.62500000  1
  Sb  Sb0_6  1  0.82432300  0.67567700  0.12500000  1
  Sb  Sb0_7  1  0.82432300  0.67567700  0.62500000  1
  Sb  Sb1_0  1  0.47814200  0.02185800  0.12500000  1
  Sb  Sb1_1  1  0.47814200  0.02185800  0.62500000  1
  Sb  Sb1_2  1  0.47814200  0.52185800  0.12500000  1
  Sb  Sb1_3  1  0.47814200  0.52185800  0.62500000  1
  Sb  Sb1_4  1  0.97814200  0.02185800  0.12500000  1
  Sb  Sb1_5  1  0.97814200  0.02185800  0.62500000  1
  Sb  Sb1_6  1  0.97814200  0.52185800  0.12500000  1
  Sb  Sb1_7  1  0.97814200  0.52185800  0.62500000  1
  Sb  Sb2_0  1  0.02185800  0.47814200  0.37500000  1
  Sb  Sb2_1  1  0.02185800  0.47814200  0.87500000  1
  Sb  Sb2_2  1  0.02185800  0.97814200  0.37500000  1
  Sb  Sb2_3  1  0.02185800  0.97814200  0.87500000  1
  Sb  Sb2_4  1  0.52185800  0.47814200  0.37500000  1
  Sb  Sb2_5  1  0.52185800  0.47814200  0.87500000  1
  Sb  Sb2_6  1  0.52185800  0.97814200  0.37500000  1
  Sb  Sb2_7  1  0.52185800  0.97814200  0.87500000  1
  Sb  Sb3_0  1  0.17567700  0.32432300  0.37500000  1
  Sb  Sb3_1  1  0.17567700  0.32432300  0.87500000  1
  Sb  Sb3_2  1  0.17567700  0.82432300  0.37500000  1
  Sb  Sb3_3  1  0.17567700  0.82432300  0.87500000  1
  Sb  Sb3_4  1  0.67567700  0.32432300  0.37500000  1
  Sb  Sb3_5  1  0.67567700  0.32432300  0.87500000  1
  Sb  Sb3_6  1  0.67567700  0.82432300  0.37500000  1
  Sb  Sb3_7  1  0.67567700  0.82432300  0.87500000  1
loop_
_geom_bond_atom_site_label_1
_geom_bond_atom_site_label_2
_geom_bond_distance
_geom_bond_site_symmetry_2
Mg0_0 Sb3_0 2.898364 1_555
Mg0_0 Sb3_1 2.898364 1_554
Mg0_0 Sb0_4 3.032518 1_455
Mg0_0 Sb0_2 3.032518 1_555
Mg0_0 Sb1_4 3.379023 1_455
Mg0_0 Sb1_2 3.379023 1_555
Mg0_1 Sb3_0 2.898364 1_555
Mg0_1 Sb3_1 2.898364 1_555
Mg0_1 Sb0_5 3.032518 1_455
Mg0_1 Sb0_3 3.032518 1_555
Mg0_1 Sb1_5 3.379023 1_455
Mg0_1 Sb1_3 3.379023 1_555
Mg0_2 Sb3_2 2.898364 1_555
Mg0_2 Sb3_3 2.898364 1_554
Mg0_2 Sb0_6 3.032518 1_455
Mg0_2 Sb0_0 3.032518 1_565
Mg0_2 Sb1_0 3.379023 1_565
Mg0_2 Sb1_6 3.379023 1_455
Mg0_3 Sb3_2 2.898364 1_555
Mg0_3 Sb3_3 2.898364 1_555
Mg0_3 Sb0_7 3.032518 1_455
Mg0_3 Sb0_1 3.032518 1_565
Mg0_3 Sb1_1 3.379023 1_565
Mg0_3 Sb1_7 3.379023 1_455
Mg0_4 Sb3_5 2.898364 1_554
Mg0_4 Sb3_4 2.898364 1_555
Mg0_4 Sb0_6 3.032518 1_555
Mg0_4 Sb0_0 3.032518 1_555
Mg0_4 Sb1_6 3.379023 1_555
Mg0_4 Sb1_0 3.379023 1_555
Mg0_5 Sb3_4 2.898364 1_555
Mg0_5 Sb3_5 2.898364 1_555
Mg0_5 Sb0_7 3.032518 1_555
Mg0_5 Sb0_1 3.032518 1_555
Mg0_5 Sb1_7 3.379023 1_555
Mg0_5 Sb1_1 3.379023 1_555
Mg0_6 Sb3_6 2.898364 1_555
Mg0_6 Sb3_7 2.898364 1_554
Mg0_6 Sb0_2 3.032518 1_555
Mg0_6 Sb0_4 3.032518 1_565
Mg0_6 Sb1_4 3.379023 1_565
Mg0_6 Sb1_2 3.379023 1_555
Mg0_7 Sb3_6 2.898364 1_555
Mg0_7 Sb3_7 2.898364 1_555
Mg0_7 Sb0_3 3.032518 1_555
Mg0_7 Sb0_5 3.032518 1_565
Mg0_7 Sb1_5 3.379023 1_565
Mg0_7 Sb1_3 3.379023 1_555
Mg1_0 Sb0_0 2.898364 1_555
Mg1_0 Sb0_1 2.898364 1_555
Mg1_0 Sb3_4 3.032518 1_555
Mg1_0 Sb3_2 3.032518 1_545
Mg1_0 Sb2_2 3.379023 1_545
Mg1_0 Sb2_4 3.379023 1_555
Mg1_1 Sb0_1 2.898364 1_555
Mg1_1 Sb0_0 2.898364 1_556
Mg1_1 Sb3_5 3.032518 1_555
Mg1_1 Sb3_3 3.032518 1_545
Mg1_1 Sb2_3 3.379023 1_545
Mg1_1 Sb2_5 3.379023 1_555
Mg1_2 Sb0_3 2.898364 1_555
Mg1_2 Sb0_2 2.898364 1_555
Mg1_2 Sb3_6 3.032518 1_555
Mg1_2 Sb3_0 3.032518 1_555
Mg1_2 Sb2_6 3.379023 1_555
Mg1_2 Sb2_0 3.379023 1_555
Mg1_3 Sb0_3 2.898364 1_555
Mg1_3 Sb0_2 2.898364 1_556
Mg1_3 Sb3_7 3.032518 1_555
Mg1_3 Sb3_1 3.032518 1_555
Mg1_3 Sb2_7 3.379023 1_555
Mg1_3 Sb2_1 3.379023 1_555
Mg1_4 Sb0_4 2.898364 1_555
Mg1_4 Sb0_5 2.898364 1_555
Mg1_4 Sb3_6 3.032518 1_545
Mg1_4 Sb3_0 3.032518 1_655
Mg1_4 Sb2_0 3.379023 1_655
Mg1_4 Sb2_6 3.379023 1_545
Mg1_5 Sb0_5 2.898364 1_555
Mg1_5 Sb0_4 2.898364 1_556
Mg1_5 Sb3_7 3.032518 1_545
Mg1_5 Sb3_1 3.032518 1_655
Mg1_5 Sb2_1 3.379023 1_655
Mg1_5 Sb2_7 3.379023 1_545
Mg1_6 Sb0_7 2.898364 1_555
Mg1_6 Sb0_6 2.898364 1_555
Mg1_6 Sb3_4 3.032518 1_555
Mg1_6 Sb3_2 3.032518 1_655
Mg1_6 Sb2_2 3.379023 1_655
Mg1_6 Sb2_4 3.379023 1_555
Mg1_7 Sb0_7 2.898364 1_555
Mg1_7 Sb0_6 2.898364 1_556
Mg1_7 Sb3_5 3.032518 1_555
Mg1_7 Sb3_3 3.032518 1_655
Mg1_7 Sb2_3 3.379023 1_655
Mg1_7 Sb2_5 3.379023 1_555
Sb1_0 Sb2_6 3.114831 1_545
Sb1_0 Sb2_7 3.114831 1_544
Sb1_0 Sb1_6 3.245452 1_555
Sb1_0 Sb1_6 3.245452 1_445
Sb1_1 Sb2_6 3.114831 1_545
Sb1_1 Sb2_7 3.114831 1_545
Sb1_1 Sb1_7 3.245452 1_555
Sb1_1 Sb1_7 3.245452 1_445
Sb1_2 Sb2_4 3.114831 1_555
Sb1_2 Sb2_5 3.114831 1_554
Sb1_2 Sb1_4 3.245452 1_565
Sb1_2 Sb1_4 3.245452 1_455
Sb1_3 Sb2_4 3.114831 1_555
Sb1_3 Sb2_5 3.114831 1_555
Sb1_3 Sb1_5 3.245452 1_565
Sb1_3 Sb1_5 3.245452 1_455
Sb1_4 Sb2_3 3.114831 1_644
Sb1_4 Sb2_2 3.114831 1_645
Sb1_5 Sb2_3 3.114831 1_645
Sb1_5 Sb2_2 3.114831 1_645
Sb1_6 Sb2_0 3.114831 1_655
Sb1_6 Sb2_1 3.114831 1_654
Sb1_7 Sb2_0 3.114831 1_655
Sb1_7 Sb2_1 3.114831 1_655
Sb2_0 Sb2_6 3.245452 1_555
Sb2_0 Sb2_6 3.245452 1_445
Sb2_1 Sb2_7 3.245452 1_555
Sb2_1 Sb2_7 3.245452 1_445
Sb2_2 Sb2_4 3.245452 1_455
Sb2_2 Sb2_4 3.245452 1_565
Sb2_3 Sb2_5 3.245452 1_455
Sb2_3 Sb2_5 3.245452 1_565
