# generated using pymatgen
data_Ge
_symmetry_space_group_name_H-M   'P 1'
_cell_length_a   10.88466058
_cell_length_b   10.88466058
_cell_length_c   10.88466058
_cell_angle_alpha   60.00000000
_cell_angle_beta   60.00000000
_cell_angle_gamma   60.00000000
_symmetry_Int_Tables_number   1
_chemical_formula_structural   Ge
_chemical_formula_sum   Ge34
_cell_volume   911.86317043
_cell_formula_units_Z   34
loop_
 _symmetry_equiv_pos_site_id
 _symmetry_equiv_pos_as_xyz
  1  'x, y, z'
loop_
 _atom_site_type_symbol
 _atom_site_label
 _atom_site_symmetry_multiplicity
 _atom_site_fract_x
 _atom_site_fract_y
 _atom_site_fract_z
 _atom_site_occupancy
  Ge  Ge0  1  0.75000000  0.75000000  0.75000000  1
  Ge  Ge1  1  0.00000000  0.00000000  0.00000000  1
  Ge  Ge2  1  0.09163031  0.63612356  0.63612356  1
  Ge  Ge3  1  0.63612356  0.09163031  0.63612356  1
  Ge  Ge4  1  0.63612356  0.63612356  0.09163031  1
  Ge  Ge5  1  0.63612356  0.63612356  0.63612356  1
  Ge  Ge6  1  0.65836969  0.11387644  0.11387644  1
  Ge  Ge7  1  0.11387644  0.65836969  0.11387644  1
  Ge  Ge8  1  0.11387644  0.11387644  0.65836969  1
  Ge  Ge9  1  0.11387644  0.11387644  0.11387644  1
  Ge  Ge10  1  0.37896876  0.61522054  0.00290535  1
  Ge  Ge11  1  0.37896876  0.00290535  0.00290535  1
  Ge  Ge12  1  0.37896876  0.00290535  0.61522054  1
  Ge  Ge13  1  0.61522054  0.37896876  0.00290535  1
  Ge  Ge14  1  0.00290535  0.37896876  0.61522054  1
  Ge  Ge15  1  0.00290535  0.37896876  0.00290535  1
  Ge  Ge16  1  0.00290535  0.00290535  0.37896876  1
  Ge  Ge17  1  0.00290535  0.61522054  0.37896876  1
  Ge  Ge18  1  0.61522054  0.00290535  0.37896876  1
  Ge  Ge19  1  0.00290535  0.00290535  0.61522054  1
  Ge  Ge20  1  0.61522054  0.00290535  0.00290535  1
  Ge  Ge21  1  0.00290535  0.61522054  0.00290535  1
  Ge  Ge22  1  0.37103124  0.13477946  0.74709465  1
  Ge  Ge23  1  0.37103124  0.74709465  0.74709465  1
  Ge  Ge24  1  0.37103124  0.74709465  0.13477946  1
  Ge  Ge25  1  0.13477946  0.37103124  0.74709465  1
  Ge  Ge26  1  0.74709465  0.37103124  0.13477946  1
  Ge  Ge27  1  0.74709465  0.37103124  0.74709465  1
  Ge  Ge28  1  0.74709465  0.74709465  0.37103124  1
  Ge  Ge29  1  0.74709465  0.13477946  0.37103124  1
  Ge  Ge30  1  0.13477946  0.74709465  0.37103124  1
  Ge  Ge31  1  0.74709465  0.74709465  0.13477946  1
  Ge  Ge32  1  0.13477946  0.74709465  0.74709465  1
  Ge  Ge33  1  0.74709465  0.13477946  0.74709465  1
loop_
_geom_bond_atom_site_label_1
_geom_bond_atom_site_label_2
_geom_bond_distance
_geom_bond_site_symmetry_2
Ge0 Ge5 3.036158 1_555
Ge0 Ge2 3.036167 1_655
Ge0 Ge3 3.036167 1_565
Ge0 Ge4 3.036167 1_556
Ge1 Ge9 3.036158 1_555
Ge1 Ge6 3.036167 1_455
Ge1 Ge7 3.036167 1_545
Ge1 Ge8 3.036167 1_554
Ge2 Ge32 2.394185 1_555
Ge2 Ge30 2.394195 1_555
Ge2 Ge25 2.394195 1_555
Ge3 Ge33 2.394185 1_555
Ge10 Ge7 2.394195 1_555
Ge10 Ge24 2.437334 1_555
Ge10 Ge23 2.437334 1_554
Ge10 Ge13 2.571520 1_555
Ge11 Ge9 2.394193 1_555
Ge11 Ge22 2.437334 1_554
Ge11 Ge24 2.437334 1_545
Ge11 Ge20 2.571520 1_555
Ge12 Ge8 2.394195 1_555
Ge12 Ge22 2.437334 1_555
Ge12 Ge23 2.437334 1_545
Ge12 Ge18 2.571520 1_555
Ge13 Ge6 2.394195 1_555
Ge13 Ge26 2.437334 1_555
Ge13 Ge27 2.437334 1_554
Ge14 Ge8 2.394195 1_555
Ge14 Ge25 2.437334 1_555
Ge14 Ge27 2.437334 1_455
Ge14 Ge17 2.571520 1_555
Ge15 Ge9 2.394193 1_555
Ge15 Ge25 2.437334 1_554
Ge15 Ge26 2.437334 1_455
Ge15 Ge21 2.571520 1_555
Ge16 Ge9 2.394193 1_555
Ge16 Ge30 2.437334 1_545
Ge16 Ge29 2.437334 1_455
Ge16 Ge19 2.571520 1_555
Ge17 Ge7 2.394195 1_555
Ge17 Ge30 2.437334 1_555
Ge17 Ge28 2.437334 1_455
Ge18 Ge6 2.394195 1_555
Ge18 Ge29 2.437334 1_555
Ge18 Ge28 2.437334 1_545
Ge19 Ge8 2.394185 1_555
Ge19 Ge32 2.437334 1_545
Ge19 Ge33 2.437334 1_455
Ge20 Ge6 2.394185 1_555
Ge20 Ge31 2.437334 1_545
Ge20 Ge33 2.437334 1_554
Ge21 Ge7 2.394185 1_555
Ge21 Ge32 2.437334 1_554
Ge21 Ge31 2.437334 1_455
Ge22 Ge3 2.394195 1_555
Ge22 Ge25 2.571520 1_555
Ge23 Ge5 2.394193 1_555
Ge23 Ge32 2.571520 1_555
Ge24 Ge4 2.394195 1_555
Ge24 Ge30 2.571520 1_555
Ge26 Ge4 2.394195 1_555
Ge26 Ge29 2.571520 1_555
Ge27 Ge5 2.394193 1_555
Ge27 Ge33 2.571520 1_555
Ge28 Ge5 2.394193 1_555
Ge28 Ge31 2.571520 1_555
Ge29 Ge3 2.394195 1_555
Ge31 Ge4 2.394185 1_555
