# generated using pymatgen
data_Ti5Mn3
_symmetry_space_group_name_H-M   'P 1'
_cell_length_a   5.25480200
_cell_length_b   7.17303292
_cell_length_c   7.17303292
_cell_angle_alpha   120.00000851
_cell_angle_beta   90.00000000
_cell_angle_gamma   90.00000000
_symmetry_Int_Tables_number   1
_chemical_formula_structural   Ti5Mn3
_chemical_formula_sum   'Ti10 Mn6'
_cell_volume   234.14915743
_cell_formula_units_Z   2
loop_
 _symmetry_equiv_pos_site_id
 _symmetry_equiv_pos_as_xyz
  1  'x, y, z'
loop_
 _atom_site_type_symbol
 _atom_site_label
 _atom_site_symmetry_multiplicity
 _atom_site_fract_x
 _atom_site_fract_y
 _atom_site_fract_z
 _atom_site_occupancy
  Ti  Ti0  1  0.00000000  0.66666700  0.33333300  1
  Ti  Ti1  1  0.00000000  0.33333300  0.66666700  1
  Ti  Ti2  1  0.50000000  0.33333300  0.66666700  1
  Ti  Ti3  1  0.50000000  0.66666700  0.33333300  1
  Ti  Ti4  1  0.75000000  0.76137000  0.76137000  1
  Ti  Ti5  1  0.25000000  0.23863000  0.23863000  1
  Ti  Ti6  1  0.75000000  0.00000000  0.23863000  1
  Ti  Ti7  1  0.25000000  0.00000000  0.76137000  1
  Ti  Ti8  1  0.75000000  0.23863000  0.00000000  1
  Ti  Ti9  1  0.25000000  0.76137000  0.00000000  1
  Mn  Mn0  1  0.75000000  0.39878100  0.39878100  1
  Mn  Mn1  1  0.25000000  0.60121900  0.60121900  1
  Mn  Mn2  1  0.75000000  0.00000000  0.60121900  1
  Mn  Mn3  1  0.25000000  0.00000000  0.39878100  1
  Mn  Mn4  1  0.75000000  0.60121900  0.00000000  1
  Mn  Mn5  1  0.25000000  0.39878100  0.00000000  1
loop_
_geom_bond_atom_site_label_1
_geom_bond_atom_site_label_2
_geom_bond_distance
_geom_bond_site_symmetry_2
Ti0 Ti3 2.627401 1_455
Ti0 Ti3 2.627401 1_555
Ti0 Ti6 3.086814 1_465
Ti0 Ti9 3.086814 1_555
Ti0 Ti8 3.086818 1_455
Ti0 Ti7 3.086818 1_565
Ti0 Ti5 3.086820 1_555
Ti0 Ti4 3.086820 1_455
Ti1 Ti2 2.627401 1_455
Ti1 Ti2 2.627401 1_555
Ti1 Ti8 3.086814 1_456
Ti1 Ti7 3.086814 1_555
Ti1 Ti6 3.086818 1_455
Ti1 Ti9 3.086818 1_556
Ti1 Ti5 3.086820 1_555
Ti1 Ti4 3.086820 1_455
Ti2 Ti8 3.086814 1_556
Ti2 Ti7 3.086814 1_555
Ti2 Ti9 3.086818 1_556
Ti2 Ti6 3.086818 1_555
Ti2 Ti4 3.086820 1_555
Ti2 Ti5 3.086820 1_555
Ti3 Ti6 3.086814 1_565
Ti3 Ti9 3.086814 1_555
Ti3 Ti8 3.086818 1_555
Ti3 Ti7 3.086818 1_565
Ti3 Ti4 3.086820 1_555
Ti3 Ti5 3.086820 1_555
Ti4 Ti8 2.964753 1_566
Ti4 Ti6 2.964753 1_566
Ti4 Ti9 3.135786 1_656
Ti4 Ti7 3.135786 1_565
Ti4 Ti7 3.135786 1_665
Ti4 Ti9 3.135786 1_556
Ti5 Ti7 2.964753 1_554
Ti5 Ti9 2.964753 1_545
Ti5 Ti8 3.135786 1_455
Ti5 Ti6 3.135786 1_555
Ti5 Ti8 3.135786 1_555
Ti5 Ti6 3.135786 1_455
Ti6 Ti8 2.964753 1_555
Ti6 Ti9 3.135786 1_645
Ti6 Ti9 3.135786 1_545
Ti7 Ti9 2.964753 1_546
Ti7 Ti8 3.135786 1_556
Ti7 Ti8 3.135786 1_456
Mn0 Ti8 2.493178 1_555
Mn0 Ti6 2.493178 1_555
Mn0 Ti2 2.557474 1_555
Mn0 Ti1 2.557474 1_655
Mn0 Ti3 2.557474 1_555
Mn0 Ti0 2.557474 1_655
Mn0 Ti4 2.600862 1_555
Mn0 Ti5 2.867561 1_555
Mn0 Ti5 2.867561 1_655
Mn0 Mn1 3.001968 1_555
Mn0 Mn1 3.001968 1_655
Mn1 Ti7 2.493178 1_565
Mn1 Ti9 2.493178 1_556
Mn1 Ti0 2.557474 1_555
Mn1 Ti3 2.557474 1_555
Mn1 Ti1 2.557474 1_555
Mn1 Ti2 2.557474 1_555
Mn1 Ti5 2.600862 1_555
Mn1 Ti4 2.867561 1_555
Mn1 Ti4 2.867561 1_455
Mn2 Ti8 2.493178 1_556
Mn2 Ti4 2.493178 1_545
Mn2 Ti2 2.557467 1_555
Mn2 Ti1 2.557467 1_655
Mn2 Ti3 2.557469 1_545
Mn2 Ti0 2.557469 1_645
Mn2 Ti6 2.600863 1_555
Mn2 Ti7 2.867561 1_555
Mn2 Ti7 2.867561 1_655
Mn2 Mn3 3.001968 1_655
Mn2 Mn3 3.001968 1_555
Mn3 Ti9 2.493178 1_545
Mn3 Ti5 2.493178 1_555
Mn3 Ti0 2.557467 1_545
Mn3 Ti3 2.557467 1_545
Mn3 Ti2 2.557469 1_555
Mn3 Ti1 2.557469 1_555
Mn3 Ti7 2.600863 1_555
Mn3 Ti6 2.867561 1_455
Mn3 Ti6 2.867561 1_555
Mn4 Ti6 2.493178 1_565
Mn4 Ti4 2.493178 1_554
Mn4 Ti3 2.557467 1_555
Mn4 Ti0 2.557467 1_655
Mn4 Ti2 2.557469 1_554
Mn4 Ti1 2.557469 1_654
Mn4 Ti8 2.600863 1_555
Mn4 Ti9 2.867561 1_555
Mn4 Ti9 2.867561 1_655
Mn4 Mn5 3.001968 1_555
Mn4 Mn5 3.001968 1_655
Mn5 Ti7 2.493178 1_554
Mn5 Ti5 2.493178 1_555
Mn5 Ti2 2.557467 1_554
Mn5 Ti1 2.557467 1_554
Mn5 Ti0 2.557469 1_555
Mn5 Ti3 2.557469 1_555
Mn5 Ti9 2.600863 1_555
Mn5 Ti8 2.867561 1_455
Mn5 Ti8 2.867561 1_555
