# generated using pymatgen
data_Li9Mn2Co5O16
_symmetry_space_group_name_H-M   'P 1'
_cell_length_a   2.93809400
_cell_length_b   9.93161100
_cell_length_c   10.05544548
_cell_angle_alpha   78.82140352
_cell_angle_beta   90.00000000
_cell_angle_gamma   90.00000000
_symmetry_Int_Tables_number   1
_chemical_formula_structural   Li9Mn2Co5O16
_chemical_formula_sum   'Li9 Mn2 Co5 O16'
_cell_volume   287.85113659
_cell_formula_units_Z   1
loop_
 _symmetry_equiv_pos_site_id
 _symmetry_equiv_pos_as_xyz
  1  'x, y, z'
loop_
 _atom_site_type_symbol
 _atom_site_label
 _atom_site_symmetry_multiplicity
 _atom_site_fract_x
 _atom_site_fract_y
 _atom_site_fract_z
 _atom_site_occupancy
  Li  Li0  1  0.50000000  0.27082800  0.61788500  1
  Li  Li1  1  0.50000000  0.72917200  0.38211500  1
  Li  Li2  1  0.50000000  0.25755700  0.12007500  1
  Li  Li3  1  0.00000000  0.26257200  0.37418900  1
  Li  Li4  1  0.00000000  0.73306300  0.12522300  1
  Li  Li5  1  0.00000000  0.26693700  0.87477700  1
  Li  Li6  1  0.50000000  0.74244300  0.87992500  1
  Li  Li7  1  0.00000000  0.73742800  0.62581100  1
  Li  Li8  1  0.00000000  0.50000000  0.50000000  1
  Mn  Mn0  1  0.00000000  0.00148600  0.74663000  1
  Mn  Mn1  1  0.00000000  0.99851400  0.25337000  1
  Co  Co0  1  0.00000000  0.50000000  0.00000000  1
  Co  Co1  1  0.50000000  0.49830500  0.26336600  1
  Co  Co2  1  0.50000000  0.00000000  0.00000000  1
  Co  Co3  1  0.50000000  0.50169500  0.73663400  1
  Co  Co4  1  0.50000000  0.00000000  0.50000000  1
  O  O0  1  0.50000000  0.11148300  0.79489600  1
  O  O1  1  0.50000000  0.62260900  0.57765500  1
  O  O2  1  0.50000000  0.10451400  0.31646700  1
  O  O3  1  0.00000000  0.10457100  0.55906000  1
  O  O4  1  0.00000000  0.61732600  0.30804300  1
  O  O5  1  0.00000000  0.11242000  0.07822500  1
  O  O6  1  0.50000000  0.61535700  0.06594700  1
  O  O7  1  0.00000000  0.61278300  0.82216500  1
  O  O8  1  0.50000000  0.37739100  0.42234500  1
  O  O9  1  0.50000000  0.88851700  0.20510400  1
  O  O10  1  0.50000000  0.38464300  0.93405300  1
  O  O11  1  0.00000000  0.38721700  0.17783500  1
  O  O12  1  0.00000000  0.88758000  0.92177500  1
  O  O13  1  0.00000000  0.38267400  0.69195700  1
  O  O14  1  0.50000000  0.89548600  0.68353300  1
  O  O15  1  0.00000000  0.89542900  0.44094000  1
loop_
_geom_bond_atom_site_label_1
_geom_bond_atom_site_label_2
_geom_bond_distance
_geom_bond_site_symmetry_2
Li0 O8 2.044342 1_555
Li0 O13 2.065809 1_655
Li0 O13 2.065809 1_555
Li0 O0 2.140192 1_555
Li0 O3 2.369209 1_655
Li0 O3 2.369209 1_555
Li1 O1 2.044342 1_555
Li1 O4 2.065809 1_555
Li1 O4 2.065809 1_655
Li1 O9 2.140192 1_555
Li1 O15 2.369209 1_555
Li1 O15 2.369209 1_655
Li2 O10 2.043661 1_554
Li2 O11 2.108004 1_655
Li2 O11 2.108004 1_555
Li2 O5 2.155956 1_555
Li2 O5 2.155956 1_655
Li2 O2 2.246401 1_555
Li3 O8 1.976626 1_455
Li3 O8 1.976626 1_555
Li3 O11 2.117338 1_555
Li3 O3 2.187939 1_555
Li3 O2 2.304874 1_555
Li3 O2 2.304874 1_455
Li4 O4 1.970129 1_555
Li4 O6 2.037185 1_455
Li4 O6 2.037185 1_555
Li4 O12 2.307135 1_554
Li4 O9 2.380712 1_455
Li4 O9 2.380712 1_555
Li5 O13 1.970129 1_555
Li5 O10 2.037185 1_455
Li5 O10 2.037185 1_555
Li5 O5 2.307135 1_556
Li5 O0 2.380712 1_455
Li5 O0 2.380712 1_555
Li6 O6 2.043661 1_556
Li6 O7 2.108004 1_655
Li6 O7 2.108004 1_555
Li6 O12 2.155956 1_655
Li6 O12 2.155956 1_555
Li6 O14 2.246401 1_555
Li7 O1 1.976626 1_455
Li7 O1 1.976626 1_555
Li7 O7 2.117338 1_555
Li7 O15 2.187939 1_555
Li7 O14 2.304874 1_555
Li7 O14 2.304874 1_455
Li8 O13 2.052175 1_555
Li8 O4 2.052175 1_555
Li8 O1 2.149260 1_455
Li8 O1 2.149260 1_555
Li8 O8 2.149260 1_455
Li8 O8 2.149260 1_555
Mn0 O12 1.899725 1_545
Mn0 O0 1.947478 1_455
Mn0 O0 1.947478 1_555
Mn0 O3 1.963880 1_555
Mn0 O14 1.981897 1_445
Mn0 O14 1.981897 1_545
Mn1 O5 1.899725 1_565
Mn1 O9 1.947478 1_455
Mn1 O9 1.947478 1_555
Mn1 O15 1.963880 1_555
Mn1 O2 1.981897 1_565
Mn1 O2 1.981897 1_465
Co0 O11 1.917217 1_555
Co0 O7 1.917217 1_554
Co0 O6 2.050609 1_555
Co0 O6 2.050609 1_455
Co0 O10 2.050609 1_554
Co0 O10 2.050609 1_454
Co1 O8 1.803686 1_555
Co1 O4 1.990758 1_555
Co1 O4 1.990758 1_655
Co1 O6 2.097000 1_555
Co1 O11 2.117295 1_555
Co1 O11 2.117295 1_655
Co2 O12 2.089004 1_644
Co2 O12 2.089004 1_544
Co2 O5 2.089004 1_655
Co2 O5 2.089004 1_555
Co2 O9 2.143373 1_545
Co2 O0 2.143373 1_554
Co3 O1 1.803686 1_555
Co3 O13 1.990758 1_655
Co3 O13 1.990758 1_555
Co3 O10 2.097000 1_555
Co3 O7 2.117295 1_655
Co3 O7 2.117295 1_555
Co4 O14 1.934054 1_545
Co4 O2 1.934054 1_555
Co4 O3 1.956664 1_555
Co4 O3 1.956664 1_655
Co4 O15 1.956664 1_545
Co4 O15 1.956664 1_645
