# generated using pymatgen
data_RbMg14Ga
_symmetry_space_group_name_H-M   'P 1'
_cell_length_a   6.52380505
_cell_length_b   6.57958505
_cell_length_c   10.62096666
_cell_angle_alpha   90.00000000
_cell_angle_beta   90.00000000
_cell_angle_gamma   120.28325025
_symmetry_Int_Tables_number   1
_chemical_formula_structural   RbMg14Ga
_chemical_formula_sum   'Rb1 Mg14 Ga1'
_cell_volume   393.68375715
_cell_formula_units_Z   1
loop_
 _symmetry_equiv_pos_site_id
 _symmetry_equiv_pos_as_xyz
  1  'x, y, z'
loop_
 _atom_site_type_symbol
 _atom_site_label
 _atom_site_symmetry_multiplicity
 _atom_site_fract_x
 _atom_site_fract_y
 _atom_site_fract_z
 _atom_site_occupancy
  Rb  Rb0  1  0.15977674  0.32988787  0.12500000  1
  Mg  Mg0  1  0.16898967  0.33449434  0.62500000  1
  Mg  Mg1  1  0.16478197  0.83239049  0.62500000  1
  Mg  Mg2  1  0.65623281  0.32086171  0.12500000  1
  Mg  Mg3  1  0.66777476  0.33718926  0.62500000  1
  Mg  Mg4  1  0.65623281  0.83537010  0.12500000  1
  Mg  Mg5  1  0.66777476  0.83058450  0.62500000  1
  Mg  Mg6  1  0.33566299  0.15701330  0.38743789  1
  Mg  Mg7  1  0.33566299  0.15701330  0.86256211  1
  Mg  Mg8  1  0.33566299  0.67865069  0.38743789  1
  Mg  Mg9  1  0.33566299  0.67865069  0.86256211  1
  Mg  Mg10  1  0.82007481  0.16003790  0.39251790  1
  Mg  Mg11  1  0.82007481  0.16003790  0.85748210  1
  Mg  Mg12  1  0.83717431  0.66858765  0.36529618  1
  Mg  Mg13  1  0.83717431  0.66858765  0.88470382  1
  Ga  Ga0  1  0.20128628  0.85064264  0.12500000  1
loop_
_geom_bond_atom_site_label_1
_geom_bond_atom_site_label_2
_geom_bond_distance
_geom_bond_site_symmetry_2
Mg0 Mg11 3.156045 1_455
Mg0 Mg10 3.156045 1_455
Mg0 Mg6 3.192616 1_555
Mg0 Mg7 3.192616 1_555
Mg0 Mg8 3.192623 1_555
Mg0 Mg9 3.192623 1_555
Mg0 Mg5 3.245071 1_555
Mg0 Mg3 3.245071 1_555
Mg0 Mg5 3.278805 1_445
Mg0 Mg3 3.278806 1_455
Mg0 Mg1 3.289878 1_545
Mg0 Mg1 3.289878 1_555
Mg1 Mg8 3.125624 1_555
Mg1 Mg9 3.125624 1_555
Mg1 Mg7 3.125631 1_565
Mg1 Mg6 3.125631 1_565
Mg1 Mg3 3.236402 1_455
Mg1 Mg5 3.236402 1_455
Mg1 Mg3 3.287435 1_565
Mg1 Mg5 3.287435 1_555
Mg1 Mg12 3.318812 1_455
Mg1 Mg13 3.318812 1_455
Mg2 Rb0 3.255478 1_655
Mg2 Rb0 3.269133 1_555
Mg2 Mg7 3.321343 1_554
Mg2 Mg6 3.321343 1_555
Mg3 Mg6 3.142520 1_555
Mg3 Mg7 3.142520 1_555
Mg3 Mg5 3.246336 1_555
Mg3 Mg5 3.333249 1_545
Mg4 Rb0 3.255478 1_665
Mg4 Rb0 3.269133 1_555
Mg4 Mg9 3.321343 1_554
Mg4 Mg8 3.321343 1_555
Mg5 Mg9 3.142520 1_555
Mg5 Mg8 3.142520 1_555
Mg6 Mg8 3.147427 1_545
Mg6 Rb0 3.419944 1_555
Mg6 Mg8 3.432158 1_555
Mg7 Mg9 3.147427 1_545
Mg7 Rb0 3.419944 1_556
Mg7 Mg9 3.432158 1_555
Mg8 Rb0 3.419950 1_555
Mg9 Rb0 3.419950 1_556
Mg10 Mg3 3.100104 1_555
Mg10 Mg5 3.100111 1_545
Mg10 Mg8 3.150681 1_545
Mg10 Mg6 3.150682 1_555
Mg10 Mg12 3.303877 1_555
Mg10 Mg12 3.303877 1_545
Mg10 Mg8 3.374107 1_655
Mg10 Mg6 3.374107 1_655
Mg10 Mg2 3.387604 1_555
Mg10 Mg4 3.387610 1_545
Mg10 Rb0 3.425694 1_655
Mg11 Mg3 3.100104 1_555
Mg11 Mg5 3.100111 1_545
Mg11 Mg9 3.150681 1_545
Mg11 Mg7 3.150682 1_555
Mg11 Mg13 3.303877 1_555
Mg11 Mg13 3.303877 1_545
Mg11 Mg9 3.374107 1_655
Mg11 Mg7 3.374107 1_655
Mg11 Mg2 3.387604 1_556
Mg11 Mg4 3.387610 1_546
Mg11 Rb0 3.425694 1_656
Mg12 Mg4 3.227638 1_555
Mg12 Mg2 3.227644 1_555
Mg12 Mg6 3.227740 1_665
Mg12 Mg8 3.227741 1_655
Mg12 Mg6 3.313999 1_555
Mg12 Mg8 3.313999 1_555
Mg12 Mg5 3.339707 1_555
Mg12 Mg3 3.339713 1_555
Mg13 Mg4 3.227638 1_556
Mg13 Mg2 3.227644 1_556
Mg13 Mg7 3.227740 1_665
Mg13 Mg9 3.227741 1_655
Mg13 Mg7 3.313999 1_555
Mg13 Mg9 3.313999 1_555
Mg13 Mg5 3.339707 1_555
Mg13 Mg3 3.339713 1_555
Ga0 Mg2 3.019902 1_565
Ga0 Mg4 3.019903 1_555
Ga0 Mg13 3.274334 1_454
Ga0 Mg12 3.274334 1_455
Ga0 Mg9 3.289213 1_554
Ga0 Mg8 3.289213 1_555
Ga0 Mg7 3.289220 1_564
Ga0 Mg6 3.289220 1_565
Ga0 Rb0 3.298093 1_555
Ga0 Rb0 3.298093 1_565
