# generated using pymatgen
data_Ba2MnNbO6
_symmetry_space_group_name_H-M   'P 1'
_cell_length_a   5.79750783
_cell_length_b   5.79703629
_cell_length_c   19.30034575
_cell_angle_alpha   82.61157194
_cell_angle_beta   91.56531997
_cell_angle_gamma   61.22542836
_symmetry_Int_Tables_number   1
_chemical_formula_structural   Ba2MnNbO6
_chemical_formula_sum   'Ba8 Mn4 Nb4 O24'
_cell_volume   560.85918584
_cell_formula_units_Z   4
loop_
 _symmetry_equiv_pos_site_id
 _symmetry_equiv_pos_as_xyz
  1  'x, y, z'
loop_
 _atom_site_type_symbol
 _atom_site_label
 _atom_site_symmetry_multiplicity
 _atom_site_fract_x
 _atom_site_fract_y
 _atom_site_fract_z
 _atom_site_occupancy
  Ba  Ba0  1  0.50579800  0.99373000  0.50007100  1
  Ba  Ba1  1  0.24454500  0.50601000  0.75014400  1
  Ba  Ba2  1  0.00674500  0.99350100  0.99998600  1
  Ba  Ba3  1  0.74301400  0.50694700  0.25015400  1
  Ba  Ba4  1  0.88135700  0.24354000  0.62482700  1
  Ba  Ba5  1  0.61959200  0.75619000  0.87492000  1
  Ba  Ba6  1  0.38123600  0.24363900  0.12485100  1
  Ba  Ba7  1  0.11796700  0.75667700  0.37503800  1
  Mn  Mn0  1  0.56329300  0.87453800  0.68737900  1
  Mn  Mn1  1  0.31249100  0.37531500  0.93751900  1
  Mn  Mn2  1  0.06200200  0.87532200  0.18749200  1
  Mn  Mn3  1  0.81216200  0.37479100  0.43750900  1
  Nb  Nb0  1  0.19836700  0.61369600  0.56250700  1
  Nb  Nb1  1  0.92688200  0.13600800  0.81248700  1
  Nb  Nb2  1  0.69838400  0.61394700  0.06247200  1
  Nb  Nb3  1  0.42594200  0.13635500  0.31250300  1
  O  O0  1  0.52420600  0.47991600  0.50118200  1
  O  O1  1  0.21173600  0.02679600  0.75195000  1
  O  O2  1  0.02433400  0.48002900  0.00108600  1
  O  O3  1  0.71136200  0.02708300  0.25200500  1
  O  O4  1  0.91327300  0.72316600  0.62306700  1
  O  O5  1  0.60100000  0.27013700  0.87389000  1
  O  O6  1  0.41343800  0.72296900  0.12301600  1
  O  O7  1  0.10093000  0.26972300  0.37399300  1
  O  O8  1  0.39426100  0.73502800  0.62527000  1
  O  O9  1  0.11055300  0.26893600  0.87552600  1
  O  O10  1  0.89412600  0.73522100  0.12529300  1
  O  O11  1  0.61010400  0.26883600  0.37553600  1
  O  O12  1  0.01447700  0.48117700  0.49943900  1
  O  O13  1  0.73080300  0.01497100  0.74977200  1
  O  O14  1  0.51490300  0.48137200  0.99938700  1
  O  O15  1  0.23050700  0.01494600  0.24977100  1
  O  O16  1  0.02905100  0.95927700  0.50192400  1
  O  O17  1  0.73292500  0.52301900  0.75103600  1
  O  O18  1  0.52927300  0.95926300  0.00193000  1
  O  O19  1  0.23216200  0.52288500  0.25107100  1
  O  O20  1  0.39238300  0.22684200  0.62394700  1
  O  O21  1  0.09640600  0.79052900  0.87308200  1
  O  O22  1  0.89224000  0.22690400  0.12393500  1
  O  O23  1  0.59577200  0.79077200  0.37303600  1
loop_
_geom_bond_atom_site_label_1
_geom_bond_atom_site_label_2
_geom_bond_distance
_geom_bond_site_symmetry_2
Ba0 O23 2.808689 1_555
Ba0 O20 2.834798 1_565
Ba0 O16 2.866283 1_555
Ba0 O0 2.874097 1_565
Ba0 O12 2.887708 1_565
Ba0 O0 2.925973 1_555
Ba0 O8 2.931404 1_555
Ba0 O16 2.941533 1_655
Ba0 O11 2.950967 1_565
Ba0 O4 2.974027 1_555
Ba0 O7 3.010260 1_565
Ba0 O12 3.016795 1_655
Ba1 O4 2.812405 1_455
Ba1 O5 2.830991 1_555
Ba1 O1 2.870360 1_555
Ba1 O17 2.879812 1_555
Ba1 O13 2.886344 1_555
Ba1 O17 2.920540 1_455
Ba1 O9 2.936559 1_555
Ba1 O1 2.937078 1_565
Ba1 O8 2.953873 1_555
Ba1 O21 2.973558 1_555
Ba1 O20 3.013050 1_555
Ba1 O13 3.018191 1_465
Ba2 O21 2.806355 1_555
Ba2 O22 2.837047 1_466
Ba2 O18 2.869868 1_456
Ba2 O2 2.873637 1_566
Ba2 O14 2.890596 1_465
Ba2 O2 2.926175 1_556
Ba2 O10 2.934819 1_456
Ba2 O18 2.937830 1_556
Ba2 O9 2.949494 1_565
Ba2 O6 2.972136 1_556
Ba2 O5 3.013258 1_465
Ba2 O14 3.013908 1_555
Ba3 O6 2.808948 1_555
Ba3 O7 2.836564 1_655
Ba3 O3 2.870460 1_555
Ba3 O19 2.881104 1_655
Ba3 O15 2.892851 1_655
Ba3 O19 2.918934 1_555
Ba3 O11 2.936294 1_555
Ba3 O3 2.936332 1_565
Ba3 O10 2.955902 1_555
Ba3 O23 2.970301 1_555
Ba3 O15 3.011662 1_565
Ba3 O22 3.016376 1_555
Ba4 O1 2.810802 1_655
Ba4 O0 2.831492 1_555
Ba4 O4 2.870089 1_555
Ba4 O20 2.882342 1_555
Ba4 O8 2.890341 1_555
Ba4 O20 2.917909 1_655
Ba4 O12 2.935659 1_655
Ba4 O4 2.936793 1_545
Ba4 O13 2.956248 1_555
Ba4 O16 2.972085 1_645
Ba4 O8 3.014171 1_645
Ba4 O17 3.014331 1_555
Ba5 O18 2.808551 1_556
Ba5 O17 2.835088 1_555
Ba5 O21 2.866310 1_655
Ba5 O5 2.873663 1_555
Ba5 O9 2.886144 1_655
Ba5 O5 2.926455 1_565
Ba5 O13 2.929961 1_565
Ba5 O21 2.941436 1_555
Ba5 O14 2.950172 1_555
Ba5 O1 2.974828 1_565
Ba5 O2 3.011166 1_656
Ba5 O9 3.018343 1_565
Ba6 O3 2.810623 1_555
Ba6 O2 2.832570 1_555
Ba6 O6 2.869097 1_555
Ba6 O22 2.882567 1_455
Ba6 O10 2.890660 1_455
Ba6 O22 2.917710 1_555
Ba6 O6 2.938003 1_545
Ba6 O14 2.938685 1_554
Ba6 O15 2.956769 1_555
Ba6 O18 2.972815 1_545
Ba6 O10 3.013858 1_545
Ba6 O19 3.014023 1_555
Ba7 O16 2.805049 1_555
Ba7 O19 2.838382 1_555
Ba7 O23 2.871389 1_555
Ba7 O7 2.874341 1_555
Ba7 O11 2.891681 1_555
Ba7 O7 2.925296 1_565
Ba7 O15 2.933972 1_565
Ba7 O23 2.936233 1_455
Ba7 O12 2.947943 1_555
Ba7 O3 2.971881 1_465
Ba7 O11 3.012832 1_465
Ba7 O0 3.015401 1_555
Mn0 O17 1.997466 1_555
Mn0 O20 1.998529 1_565
Mn0 O8 1.999875 1_555
Mn0 O13 2.001339 1_565
Mn0 O4 2.265217 1_555
Mn0 O1 2.275086 1_565
Mn1 O14 1.996929 1_555
Mn1 O9 1.997701 1_555
Mn1 O2 1.997943 1_556
Mn1 O5 2.000142 1_555
Mn1 O21 2.269747 1_555
Mn1 O18 2.273176 1_546
Mn2 O22 1.996804 1_465
Mn2 O10 1.998972 1_455
Mn2 O15 2.000406 1_565
Mn2 O19 2.000462 1_555
Mn2 O3 2.270462 1_465
Mn2 O6 2.273452 1_555
Mn3 O11 1.996320 1_555
Mn3 O0 1.998459 1_555
Mn3 O12 1.998542 1_655
Mn3 O7 1.999742 1_655
Mn3 O16 2.270965 1_645
Mn3 O23 2.273290 1_555
Nb0 O16 1.945707 1_555
Nb0 O4 1.946088 1_455
Nb0 O8 2.040810 1_555
Nb0 O12 2.041194 1_555
Nb0 O20 2.124929 1_555
Nb0 O0 2.125719 1_555
Nb1 O1 1.944815 1_655
Nb1 O21 1.945384 1_645
Nb1 O13 2.039813 1_555
Nb1 O9 2.041639 1_655
Nb1 O17 2.125677 1_555
Nb1 O5 2.126865 1_555
Nb2 O18 1.944266 1_555
Nb2 O6 1.945290 1_555
Nb2 O14 2.040001 1_554
Nb2 O10 2.040653 1_555
Nb2 O22 2.125903 1_555
Nb2 O2 2.126934 1_655
Nb3 O23 1.945256 1_545
Nb3 O3 1.946639 1_555
Nb3 O15 2.038866 1_555
Nb3 O11 2.041697 1_555
Nb3 O19 2.123489 1_555
Nb3 O7 2.124212 1_555
