# generated using pymatgen
data_Sm2Fe17CN
_symmetry_space_group_name_H-M   'P 1'
_cell_length_a   6.50286132
_cell_length_b   6.53925720
_cell_length_c   6.54793533
_cell_angle_alpha   84.04870341
_cell_angle_beta   83.57391212
_cell_angle_gamma   83.50812327
_symmetry_Int_Tables_number   1
_chemical_formula_structural   Sm2Fe17CN
_chemical_formula_sum   'Sm2 Fe17 C1 N1'
_cell_volume   273.74908864
_cell_formula_units_Z   1
loop_
 _symmetry_equiv_pos_site_id
 _symmetry_equiv_pos_as_xyz
  1  'x, y, z'
loop_
 _atom_site_type_symbol
 _atom_site_label
 _atom_site_symmetry_multiplicity
 _atom_site_fract_x
 _atom_site_fract_y
 _atom_site_fract_z
 _atom_site_occupancy
  Sm  Sm0  1  0.66355621  0.65232221  0.65876583  1
  Sm  Sm1  1  0.33644379  0.34767779  0.34123417  1
  Fe  Fe0  1  0.90369186  0.90369260  0.90492906  1
  Fe  Fe1  1  0.09630814  0.09630740  0.09507094  1
  Fe  Fe2  1  0.34344308  0.85440672  0.34073099  1
  Fe  Fe3  1  0.85056428  0.34182210  0.34104259  1
  Fe  Fe4  1  0.34428518  0.34280186  0.85585945  1
  Fe  Fe5  1  0.65655692  0.14559328  0.65926901  1
  Fe  Fe6  1  0.14943572  0.65817790  0.65895741  1
  Fe  Fe7  1  0.65571482  0.65719814  0.14414055  1
  Fe  Fe8  1  0.71556412  0.00289292  0.28152593  1
  Fe  Fe9  1  -0.00043661  0.28209744  0.71938482  1
  Fe  Fe10  1  0.29001144  0.71103562  0.99877172  1
  Fe  Fe11  1  0.00043661  0.71790256  0.28061518  1
  Fe  Fe12  1  0.70998856  0.28896438  0.00122828  1
  Fe  Fe13  1  0.28443588  0.99710708  0.71847407  1
  Fe  Fe14  1  -0.00000000  0.50000000  -0.00000000  1
  Fe  Fe15  1  0.50000000  -0.00000000  -0.00000000  1
  Fe  Fe16  1  -0.00000000  -0.00000000  0.50000000  1
  C  C0  1  0.50000000  -0.00000000  0.50000000  1
  N  N0  1  -0.00000000  0.50000000  0.50000000  1
loop_
_geom_bond_atom_site_label_1
_geom_bond_atom_site_label_2
_geom_bond_distance
_geom_bond_site_symmetry_2
Fe0 Fe1 2.395103 1_666
Fe0 Fe15 2.649004 1_566
Fe0 Fe6 2.665574 1_655
Fe0 Fe14 2.668559 1_656
Fe0 Fe5 2.673690 1_565
Fe0 Fe7 2.674096 1_556
Fe0 Fe16 2.681464 1_665
Fe0 Fe8 2.734089 1_566
Fe0 Fe11 2.734432 1_656
Fe0 Fe13 2.739462 1_655
Fe0 Fe9 2.746580 1_665
Fe0 Fe10 2.783013 1_655
Fe0 Fe12 2.786688 1_566
Fe0 Sm0 3.071135 1_555
Fe1 Fe15 2.649004 1_555
Fe1 Fe3 2.665574 1_455
Fe1 Fe14 2.668559 1_555
Fe1 Fe2 2.673690 1_545
Fe1 Fe4 2.674096 1_554
Fe1 Fe16 2.681464 1_555
Fe1 Fe13 2.734089 1_544
Fe1 Fe9 2.734432 1_554
Fe1 Fe8 2.739462 1_455
Fe1 Fe11 2.746580 1_545
Fe1 Fe12 2.783013 1_455
Fe1 Fe10 2.786688 1_544
Fe1 Sm1 3.071135 1_555
Fe2 Fe7 2.571116 1_555
Fe3 N0 1.942816 1_655
Fe3 Fe7 2.596995 1_555
Fe4 Fe5 2.571116 1_555
Fe4 Fe9 2.589296 1_555
Fe4 Fe6 2.596995 1_555
Fe4 Sm0 3.143493 1_555
Fe4 Sm1 3.176312 1_556
Fe4 Sm1 3.372615 1_555
Fe6 N0 1.942816 1_555
Fe7 Fe8 2.601923 1_565
Fe7 Sm1 3.143493 1_555
Fe7 Sm0 3.176312 1_554
Fe7 Sm0 3.372615 1_555
Fe9 N0 1.915602 1_555
Fe10 Fe15 2.454475 1_566
Fe10 Fe14 2.458446 1_556
Fe10 Fe13 2.481327 1_555
Fe10 Fe11 2.484746 1_556
Fe10 Fe6 2.567560 1_555
Fe10 Fe2 2.587765 1_556
Fe10 Fe7 2.633122 1_556
Fe10 Fe4 2.645705 1_555
Fe10 Sm1 3.106424 1_556
Fe10 Sm0 3.124160 1_555
Fe11 N0 1.915602 1_555
Fe11 Fe14 2.439599 1_555
Fe11 Fe16 2.452336 1_565
Fe11 Fe7 2.589296 1_455
Fe12 Fe15 2.454475 1_555
Fe12 Fe14 2.458446 1_655
Fe12 Fe8 2.481327 1_555
Fe12 Fe9 2.484746 1_654
Fe12 Fe3 2.567560 1_555
Fe12 Fe5 2.587765 1_554
Fe12 Fe4 2.633122 1_554
Fe12 Fe7 2.645705 1_555
Fe12 Sm0 3.106424 1_554
Fe12 Sm1 3.124160 1_555
Fe13 Fe15 2.440324 1_566
Fe13 Fe16 2.459025 1_565
Fe13 Fe4 2.601923 1_565
Fe14 Fe9 2.439599 1_554
Fe14 Fe7 2.483482 1_455
Fe14 Fe4 2.483482 1_554
Fe14 Fe6 2.502724 1_554
Fe14 Fe3 2.502724 1_455
Fe14 Sm0 3.303217 1_454
Fe14 Sm1 3.303217 1_555
Fe15 Fe8 2.440324 1_555
Fe15 Fe2 2.488153 1_545
Fe15 Fe5 2.488153 1_554
Fe15 Fe7 2.490611 1_545
Fe15 Fe4 2.490611 1_554
Fe15 Sm0 3.356692 1_544
Fe15 Sm1 3.356692 1_555
Fe16 Fe9 2.452336 1_555
Fe16 Fe8 2.459025 1_455
Fe16 Fe5 2.487102 1_455
Fe16 Fe2 2.487102 1_545
Fe16 Fe3 2.505365 1_455
Fe16 Fe6 2.505365 1_545
Fe16 Sm1 3.340960 1_555
Fe16 Sm0 3.340960 1_445
C0 Fe13 1.887683 1_545
C0 Fe8 1.887683 1_555
C0 Fe2 1.921780 1_545
C0 Fe5 1.921780 1_555
C0 Sm1 2.567408 1_555
C0 Sm0 2.567408 1_545
N0 Sm0 2.464225 1_455
N0 Sm1 2.464225 1_555
