# generated using pymatgen
data_TaVMo2
_symmetry_space_group_name_H-M   'P 1'
_cell_length_a   10.49504720
_cell_length_b   10.49504720
_cell_length_c   10.49504720
_cell_angle_alpha   128.69394590
_cell_angle_beta   116.18323187
_cell_angle_gamma   86.19256197
_symmetry_Int_Tables_number   1
_chemical_formula_structural   TaVMo2
_chemical_formula_sum   'Ta1 V1 Mo2'
_cell_volume   772.61511763
_cell_formula_units_Z   1
loop_
 _symmetry_equiv_pos_site_id
 _symmetry_equiv_pos_as_xyz
  1  'x, y, z'
loop_
 _atom_site_type_symbol
 _atom_site_label
 _atom_site_symmetry_multiplicity
 _atom_site_fract_x
 _atom_site_fract_y
 _atom_site_fract_z
 _atom_site_occupancy
  Ta  Ta0  1  0.00000000  0.50000000  0.50000000  1
  V  V0  1  0.00000000  0.00000000  0.00000000  1
  Mo  Mo0  1  0.00000000  0.24597200  0.24597200  1
  Mo  Mo1  1  0.00000000  0.75402800  0.75402800  1
loop_
_geom_bond_atom_site_label_1
_geom_bond_atom_site_label_2
_geom_bond_distance
_geom_bond_site_symmetry_2
Mo0 V0 2.235156 1_555
Mo0 Ta0 2.308362 1_555
Mo1 V0 2.235156 1_566
Mo1 Ta0 2.308362 1_555
