# generated using pymatgen
data_La2NiP2O
_symmetry_space_group_name_H-M   'P 1'
_cell_length_a   3.36988800
_cell_length_b   3.36988800
_cell_length_c   14.32123700
_cell_angle_alpha   90.00000000
_cell_angle_beta   90.00000000
_cell_angle_gamma   90.00000000
_symmetry_Int_Tables_number   1
_chemical_formula_structural   La2NiP2O
_chemical_formula_sum   'La2 Ni1 P2 O1'
_cell_volume   162.63404585
_cell_formula_units_Z   1
loop_
 _symmetry_equiv_pos_site_id
 _symmetry_equiv_pos_as_xyz
  1  'x, y, z'
loop_
 _atom_site_type_symbol
 _atom_site_label
 _atom_site_symmetry_multiplicity
 _atom_site_fract_x
 _atom_site_fract_y
 _atom_site_fract_z
 _atom_site_occupancy
  La  La0  1  0.50000000  0.50000000  0.14801100  1
  La  La1  1  0.50000000  0.50000000  0.85198900  1
  Ni  Ni0  1  0.50000000  0.50000000  0.50000000  1
  P  P0  1  0.50000000  0.50000000  0.64650600  1
  P  P1  1  0.50000000  0.50000000  0.35349400  1
  O  O0  1  0.50000000  0.50000000  0.00000000  1
loop_
_geom_bond_atom_site_label_1
_geom_bond_atom_site_label_2
_geom_bond_distance
_geom_bond_site_symmetry_2
La0 O0 2.119701 1_555
La0 P1 2.942771 1_555
La1 O0 2.119701 1_556
La1 P0 2.942771 1_555
Ni0 P1 2.098147 1_555
Ni0 P0 2.098147 1_555
