# generated using pymatgen
data_Al2Zn2S5
_symmetry_space_group_name_H-M   'P 1'
_cell_length_a   3.67055759
_cell_length_b   3.67055759
_cell_length_c   15.15918600
_cell_angle_alpha   90.00000000
_cell_angle_beta   90.00000000
_cell_angle_gamma   119.99999260
_symmetry_Int_Tables_number   1
_chemical_formula_structural   Al2Zn2S5
_chemical_formula_sum   'Al2 Zn2 S5'
_cell_volume   176.87670142
_cell_formula_units_Z   1
loop_
 _symmetry_equiv_pos_site_id
 _symmetry_equiv_pos_as_xyz
  1  'x, y, z'
loop_
 _atom_site_type_symbol
 _atom_site_label
 _atom_site_symmetry_multiplicity
 _atom_site_fract_x
 _atom_site_fract_y
 _atom_site_fract_z
 _atom_site_occupancy
  Al  Al0  1  0.66666700  0.33333300  0.82747400  1
  Al  Al1  1  0.33333300  0.66666700  0.17252600  1
  Zn  Zn0  1  0.66666700  0.33333300  0.40126400  1
  Zn  Zn1  1  0.33333300  0.66666700  0.59873600  1
  S  S0  1  0.00000000  0.00000000  0.50000000  1
  S  S1  1  0.66666700  0.33333300  0.68356300  1
  S  S2  1  0.33333300  0.66666700  0.31643700  1
  S  S3  1  0.66666700  0.33333300  0.10779700  1
  S  S4  1  0.33333300  0.66666700  0.89220300  1
loop_
_geom_bond_atom_site_label_1
_geom_bond_atom_site_label_2
_geom_bond_distance
_geom_bond_site_symmetry_2
Al0 S1 2.181574 1_555
Al0 S4 2.335341 1_545
Al0 S4 2.335341 1_655
Al0 S4 2.335347 1_555
Al1 S2 2.181574 1_555
Al1 S3 2.335341 1_455
Al1 S3 2.335341 1_565
Al1 S3 2.335347 1_555
S0 Zn1 2.594469 1_545
S0 Zn0 2.594469 1_455
S0 Zn1 2.594472 1_445
S0 Zn1 2.594472 1_555
S0 Zn0 2.594472 1_555
S0 Zn0 2.594472 1_445
S1 Zn1 2.478820 1_545
S1 Zn1 2.478820 1_655
S1 Zn1 2.478825 1_555
S2 Zn0 2.478820 1_455
S2 Zn0 2.478820 1_565
S2 Zn0 2.478825 1_555
