# generated using pymatgen
data_Ba6LiNb2Ir(ClO6)2
_symmetry_space_group_name_H-M   'P 1'
_cell_length_a   6.17582625
_cell_length_b   6.17588691
_cell_length_c   15.25376640
_cell_angle_alpha   92.61848199
_cell_angle_beta   87.38361706
_cell_angle_gamma   123.50389588
_symmetry_Int_Tables_number   1
_chemical_formula_structural   Ba6LiNb2Ir(ClO6)2
_chemical_formula_sum   'Ba6 Li1 Nb2 Ir1 Cl2 O12'
_cell_volume   484.47812854
_cell_formula_units_Z   1
loop_
 _symmetry_equiv_pos_site_id
 _symmetry_equiv_pos_as_xyz
  1  'x, y, z'
loop_
 _atom_site_type_symbol
 _atom_site_label
 _atom_site_symmetry_multiplicity
 _atom_site_fract_x
 _atom_site_fract_y
 _atom_site_fract_z
 _atom_site_occupancy
  Ba  Ba0  1  0.32719200  0.67283800  0.36875300  1
  Ba  Ba1  1  0.33007100  0.66992100  0.78738600  1
  Ba  Ba2  1  0.68129000  0.31868800  0.63747200  1
  Ba  Ba3  1  0.64100100  0.35901300  0.91938500  1
  Ba  Ba4  1  0.29871900  0.70132300  0.03933600  1
  Ba  Ba5  1  0.70569200  0.29432000  0.21624600  1
  Li  Li0  1  0.46581200  0.53412200  0.17066800  1
  Nb  Nb0  1  0.99806800  0.00193300  0.81463800  1
  Nb  Nb1  1  0.01351400  0.98646700  0.18464900  1
  Ir  Ir0  1  0.99772400  0.00228900  0.00260700  1
  Cl  Cl0  1  0.67400500  0.32600500  0.42465200  1
  Cl  Cl1  1  0.33098700  0.66900000  0.57944100  1
  O  O0  1  0.15941400  0.30898600  0.91605900  1
  O  O1  1  0.33096300  0.16647100  0.75736300  1
  O  O2  1  0.17075500  0.32093800  0.24822600  1
  O  O3  1  0.83355200  0.66903600  0.75735900  1
  O  O4  1  0.84480600  0.15518000  0.75758000  1
  O  O5  1  0.82288700  0.68450000  0.08975600  1
  O  O6  1  0.16703400  0.83295200  0.23995000  1
  O  O7  1  0.31550800  0.17713500  0.08976700  1
  O  O8  1  0.84945700  0.15053900  0.08921400  1
  O  O9  1  0.69102600  0.84058600  0.91605500  1
  O  O10  1  0.67903600  0.82921300  0.24821500  1
  O  O11  1  0.15065600  0.84937700  0.91040200  1
loop_
_geom_bond_atom_site_label_1
_geom_bond_atom_site_label_2
_geom_bond_distance
_geom_bond_site_symmetry_2
Ba0 O10 2.552590 1_555
Ba0 O2 2.552592 1_555
Ba0 O6 2.692775 1_555
Ba0 Cl1 3.216206 1_555
Ba0 Cl0 3.449758 1_565
Ba0 Cl0 3.449881 1_455
Ba1 O11 2.636865 1_555
Ba1 O9 2.747525 1_555
Ba1 O0 2.747597 1_555
Ba1 O4 2.961183 1_565
Ba1 O4 2.961187 1_455
Ba1 O3 3.118046 1_455
Ba1 O1 3.118247 1_565
Ba1 O1 3.125024 1_555
Ba1 O3 3.125182 1_555
Ba1 Cl1 3.171442 1_555
Ba2 O3 2.541532 1_555
Ba2 O1 2.541582 1_555
Ba2 O4 2.619128 1_555
Ba2 Cl0 3.251393 1_555
Ba2 Cl1 3.439542 1_545
Ba2 Cl1 3.439613 1_655
Ba3 O9 2.818069 1_555
Ba3 O0 2.818113 1_555
Ba3 O11 2.927747 1_545
Ba3 O11 2.927866 1_655
Ba3 O1 2.972906 1_555
Ba3 O3 2.973019 1_555
Ba3 O5 3.058220 1_556
Ba3 O7 3.058464 1_556
Ba3 O4 3.231464 1_555
Ba3 O0 3.379976 1_655
Ba3 O9 3.380080 1_545
Ba3 O8 3.530585 1_556
Ba4 O11 2.606105 1_554
Ba4 O0 2.752689 1_554
Ba4 O9 2.752706 1_554
Ba4 Li0 2.774632 1_555
Ba4 O5 2.949897 1_455
Ba4 O7 2.949919 1_565
Ba4 O8 3.077374 1_565
Ba4 O8 3.077698 1_455
Ba4 O6 3.310882 1_555
Ba5 O8 2.426449 1_555
Ba5 O2 2.848431 1_655
Ba5 O10 2.848592 1_545
Ba5 Cl0 3.179799 1_555
Li0 O10 1.936597 1_555
Li0 O2 1.936601 1_555
Li0 O7 2.200436 1_555
Li0 O5 2.200929 1_555
Nb0 O1 1.906137 1_655
Nb0 O3 1.906143 1_545
Nb0 O4 1.920572 1_555
Nb0 O9 2.183770 1_545
Nb0 O0 2.183788 1_655
Nb0 O11 2.267412 1_645
Nb1 O6 1.909930 1_555
Nb1 O10 1.959286 1_455
Nb1 O2 1.959298 1_565
Nb1 O5 2.108121 1_455
Nb1 O7 2.108193 1_565
Nb1 O8 2.361217 1_465
Ir0 O8 2.031399 1_555
Ir0 O9 2.085088 1_544
Ir0 O0 2.085129 1_654
Ir0 O11 2.122284 1_644
Ir0 O5 2.133723 1_545
Ir0 O7 2.133726 1_655
