# generated using pymatgen
data_LiCo(CO3)2
_symmetry_space_group_name_H-M   'P 1'
_cell_length_a   5.10733203
_cell_length_b   10.24393070
_cell_length_c   10.07936545
_cell_angle_alpha   79.28807811
_cell_angle_beta   76.20322028
_cell_angle_gamma   105.05936870
_symmetry_Int_Tables_number   1
_chemical_formula_structural   LiCo(CO3)2
_chemical_formula_sum   'Li4 Co4 C8 O24'
_cell_volume   476.95907697
_cell_formula_units_Z   4
loop_
 _symmetry_equiv_pos_site_id
 _symmetry_equiv_pos_as_xyz
  1  'x, y, z'
loop_
 _atom_site_type_symbol
 _atom_site_label
 _atom_site_symmetry_multiplicity
 _atom_site_fract_x
 _atom_site_fract_y
 _atom_site_fract_z
 _atom_site_occupancy
  Li  Li0  1  0.35461200  0.34816400  0.71200800  1
  Li  Li1  1  0.38542500  0.85801900  0.19591300  1
  Li  Li2  1  0.63580400  0.70591300  0.84617500  1
  Li  Li3  1  0.63099900  0.23241900  0.33692300  1
  Co  Co0  1  0.02952300  0.00798300  0.99119200  1
  Co  Co1  1  0.99186400  0.99088500  0.50615000  1
  Co  Co2  1  0.01541700  0.50718800  0.49194500  1
  Co  Co3  1  0.98402400  0.49136300  0.00587900  1
  C  C0  1  0.86733300  0.18789300  0.07550600  1
  C  C1  1  0.89138100  0.68805200  0.57113300  1
  C  C2  1  0.11837700  0.57347900  0.18794400  1
  C  C3  1  0.11103500  0.06846200  0.69249200  1
  C  C4  1  0.84943300  0.43326800  0.80923200  1
  C  C5  1  0.87520700  0.93342100  0.30678200  1
  C  C6  1  0.14214600  0.80284200  0.93239300  1
  C  C7  1  0.13574500  0.31033200  0.43712700  1
  O  O0  1  0.69885500  0.09039400  0.04001500  1
  O  O1  1  0.73532400  0.60437600  0.51689600  1
  O  O2  1  0.26984400  0.51968000  0.10418300  1
  O  O3  1  0.27562600  0.02416300  0.60487700  1
  O  O4  1  0.78401600  0.28031600  0.12808800  1
  O  O5  1  0.81517900  0.77905000  0.62708700  1
  O  O6  1  0.20087700  0.63172200  0.27844200  1
  O  O7  1  0.18773300  0.12349200  0.78767500  1
  O  O8  1  0.87324700  0.56455000  0.16507900  1
  O  O9  1  0.86745300  0.05818600  0.66941300  1
  O  O10  1  0.12427100  0.18212200  0.05680100  1
  O  O11  1  0.13200700  0.66375200  0.56672600  1
  O  O12  1  0.71628700  0.49222600  0.89602800  1
  O  O13  1  0.72356100  0.98124700  0.39790400  1
  O  O14  1  0.27942100  0.88789100  0.99497000  1
  O  O15  1  0.27403600  0.39591900  0.49778300  1
  O  O16  1  0.75786600  0.39017600  0.71369300  1
  O  O17  1  0.79634700  0.89303100  0.20668000  1
  O  O18  1  0.23538400  0.70978000  0.88921000  1
  O  O19  1  0.22150100  0.21582400  0.39422500  1
  O  O20  1  0.91033300  0.82570000  0.91731000  1
  O  O21  1  0.90419200  0.33648300  0.42285500  1
  O  O22  1  0.08431400  0.42139400  0.83389600  1
  O  O23  1  0.11400100  0.92915300  0.33168000  1
loop_
_geom_bond_atom_site_label_1
_geom_bond_atom_site_label_2
_geom_bond_distance
_geom_bond_site_symmetry_2
Li0 O16 1.996514 1_555
Li0 O22 2.012383 1_555
Li0 O7 2.150168 1_555
Li0 O15 2.281842 1_555
Li1 O17 2.068085 1_555
Li1 O23 2.077533 1_555
Li1 O6 2.174410 1_555
Li1 O14 2.206264 1_554
Li1 O0 2.475434 1_565
Li2 O20 1.974399 1_555
Li2 O18 1.999362 1_555
Li2 O5 2.083373 1_555
Li2 O12 2.317401 1_555
Li3 O4 1.978487 1_555
Li3 O19 1.984747 1_555
Li3 O21 1.995035 1_555
Co0 O14 1.991362 1_545
Co0 O10 1.999065 1_556
Co0 O7 2.017730 1_555
Co0 O0 2.075073 1_456
Co0 O20 2.134098 1_445
Co0 O17 2.146904 1_446
Co1 O9 1.933307 1_565
Co1 O13 1.939260 1_555
Co1 O3 1.940117 1_665
Co1 O23 1.994163 1_655
Co1 O5 2.117464 1_555
Co1 O19 2.226227 1_665
Co2 O11 1.913682 1_555
Co2 O1 1.939694 1_455
Co2 O15 1.960054 1_555
Co2 O21 1.997684 1_455
Co2 O6 2.129548 1_555
Co2 O16 2.223762 1_455
Co3 O8 1.921370 1_555
Co3 O2 1.942562 1_655
Co3 O12 1.954650 1_554
Co3 O22 2.002553 1_654
Co3 O4 2.120635 1_555
Co3 O18 2.201447 1_654
C0 O4 1.283226 1_555
C0 O10 1.299053 1_655
C0 O0 1.303448 1_555
C1 O5 1.271914 1_555
C1 O1 1.302252 1_555
C1 O11 1.308172 1_655
C2 O6 1.273008 1_555
C2 O2 1.303051 1_555
C2 O8 1.309516 1_455
C3 O7 1.287321 1_555
C3 O3 1.298297 1_555
C3 O9 1.300748 1_455
C4 O16 1.267450 1_555
C4 O12 1.310972 1_555
C4 O22 1.312439 1_655
C5 O17 1.270369 1_555
C5 O13 1.307139 1_555
C5 O23 1.312222 1_655
C6 O18 1.271348 1_555
C6 O20 1.302437 1_455
C6 O14 1.321446 1_555
C7 O19 1.265599 1_555
C7 O21 1.312435 1_455
C7 O15 1.313299 1_555
