# generated using pymatgen
data_NaSr2Ca
_symmetry_space_group_name_H-M   'P 1'
_cell_length_a   15.16530426
_cell_length_b   14.84235091
_cell_length_c   14.84235096
_cell_angle_alpha   59.51344642
_cell_angle_beta   59.27757181
_cell_angle_gamma   59.27757418
_symmetry_Int_Tables_number   1
_chemical_formula_structural   NaSr2Ca
_chemical_formula_sum   'Na1 Sr2 Ca1'
_cell_volume   2327.68948363
_cell_formula_units_Z   1
loop_
 _symmetry_equiv_pos_site_id
 _symmetry_equiv_pos_as_xyz
  1  'x, y, z'
loop_
 _atom_site_type_symbol
 _atom_site_label
 _atom_site_symmetry_multiplicity
 _atom_site_fract_x
 _atom_site_fract_y
 _atom_site_fract_z
 _atom_site_occupancy
  Na  Na0  1  -0.00000000  -0.00000000  -0.00000000  1
  Sr  Sr0  1  0.75066297  0.00000000  -0.00000000  1
  Sr  Sr1  1  0.24933703  -0.00000000  0.00000000  1
  Ca  Ca0  1  0.50000000  -0.00000000  -0.00000000  1
loop_
_geom_bond_atom_site_label_1
_geom_bond_atom_site_label_2
_geom_bond_distance
_geom_bond_site_symmetry_2
Na0 Sr0 3.781272 1_455
Na0 Sr1 3.781272 1_555
Ca0 Sr1 3.801380 1_555
Ca0 Sr0 3.801380 1_555
