# generated using pymatgen
data_TmZrF7
_symmetry_space_group_name_H-M   'P 1'
_cell_length_a   5.63205257
_cell_length_b   5.95209240
_cell_length_c   8.11105080
_cell_angle_alpha   102.83344819
_cell_angle_beta   90.00000000
_cell_angle_gamma   90.00000000
_symmetry_Int_Tables_number   1
_chemical_formula_structural   TmZrF7
_chemical_formula_sum   'Tm2 Zr2 F14'
_cell_volume   265.11050955
_cell_formula_units_Z   2
loop_
 _symmetry_equiv_pos_site_id
 _symmetry_equiv_pos_as_xyz
  1  'x, y, z'
loop_
 _atom_site_type_symbol
 _atom_site_label
 _atom_site_symmetry_multiplicity
 _atom_site_fract_x
 _atom_site_fract_y
 _atom_site_fract_z
 _atom_site_occupancy
  Tm  Tm0  1  0.69808655  0.65324909  0.68529671  1
  Tm  Tm1  1  0.19808655  0.34675091  0.31470329  1
  Zr  Zr0  1  0.70739758  0.81281062  0.22581362  1
  Zr  Zr1  1  0.20739758  0.18718938  0.77418638  1
  F  F0  1  0.89676494  0.46202567  0.47810174  1
  F  F1  1  0.39676494  0.53797433  0.52189826  1
  F  F2  1  0.43321076  0.92279917  0.76821214  1
  F  F3  1  0.93321076  0.07720083  0.23178786  1
  F  F4  1  0.94966516  0.94551581  0.75817607  1
  F  F5  1  0.44966516  0.05448419  0.24182393  1
  F  F6  1  0.98892786  0.45852543  0.78858742  1
  F  F7  1  0.48892786  0.54147457  0.21141258  1
  F  F8  1  0.69689282  0.75480441  0.97294459  1
  F  F9  1  0.19689282  0.24519559  0.02705541  1
  F  F10  1  0.70029034  0.86622004  0.47966109  1
  F  F11  1  0.20029034  0.13377996  0.52033891  1
  F  F12  1  0.50512000  0.38074783  0.78190033  1
  F  F13  1  0.00512000  0.61925217  0.21809967  1
loop_
_geom_bond_atom_site_label_1
_geom_bond_atom_site_label_2
_geom_bond_distance
_geom_bond_site_symmetry_2
F0 Tm0 2.126528 1_555
F0 Tm1 2.168715 1_655
F1 Tm1 2.126528 1_555
F1 Tm0 2.168715 1_555
F2 Zr1 2.015535 1_565
F2 Tm0 2.184600 1_555
F3 Zr0 2.015535 1_545
F3 Tm1 2.184600 1_655
F4 Zr1 2.027336 1_665
F4 Tm0 2.219557 1_555
F5 Zr0 2.027336 1_545
F5 Tm1 2.219557 1_555
F6 Zr1 2.012980 1_655
F6 Tm0 2.271503 1_555
F7 Zr0 2.012980 1_555
F7 Tm1 2.271503 1_555
F8 Zr0 2.003712 1_556
F8 Tm0 2.276489 1_555
F9 Zr1 2.003712 1_554
F9 Tm1 2.276489 1_555
F10 Zr0 2.012771 1_555
F10 Tm0 2.308295 1_555
F11 Zr1 2.012771 1_555
F11 Tm1 2.308295 1_555
F12 Zr1 2.027510 1_555
F12 Tm0 2.233920 1_555
F13 Zr0 2.027510 1_455
F13 Tm1 2.233920 1_555
