# generated using pymatgen
data_Bi2Br2O
_symmetry_space_group_name_H-M   'P 1'
_cell_length_a   3.25210900
_cell_length_b   3.25210900
_cell_length_c   14.65385800
_cell_angle_alpha   90.00000000
_cell_angle_beta   90.00000000
_cell_angle_gamma   90.00000000
_symmetry_Int_Tables_number   1
_chemical_formula_structural   Bi2Br2O
_chemical_formula_sum   'Bi2 Br2 O1'
_cell_volume   154.98232272
_cell_formula_units_Z   1
loop_
 _symmetry_equiv_pos_site_id
 _symmetry_equiv_pos_as_xyz
  1  'x, y, z'
loop_
 _atom_site_type_symbol
 _atom_site_label
 _atom_site_symmetry_multiplicity
 _atom_site_fract_x
 _atom_site_fract_y
 _atom_site_fract_z
 _atom_site_occupancy
  Bi  Bi0  1  0.50000000  0.50000000  0.14302300  1
  Bi  Bi1  1  0.50000000  0.50000000  0.85697700  1
  Br  Br0  1  0.50000000  0.50000000  0.64671900  1
  Br  Br1  1  0.50000000  0.50000000  0.35328100  1
  O  O0  1  0.50000000  0.50000000  0.00000000  1
loop_
_geom_bond_atom_site_label_1
_geom_bond_atom_site_label_2
_geom_bond_distance
_geom_bond_site_symmetry_2
Bi0 O0 2.095839 1_555
Bi0 Br1 3.081091 1_555
Bi1 O0 2.095839 1_556
Bi1 Br0 3.081091 1_555
