# generated using pymatgen
data_ThAl2Ni3
_symmetry_space_group_name_H-M   'P 1'
_cell_length_a   5.33451345
_cell_length_b   5.33451345
_cell_length_c   3.80682000
_cell_angle_alpha   90.00000000
_cell_angle_beta   90.00000000
_cell_angle_gamma   119.99999312
_symmetry_Int_Tables_number   1
_chemical_formula_structural   ThAl2Ni3
_chemical_formula_sum   'Th1 Al2 Ni3'
_cell_volume   93.81723566
_cell_formula_units_Z   1
loop_
 _symmetry_equiv_pos_site_id
 _symmetry_equiv_pos_as_xyz
  1  'x, y, z'
loop_
 _atom_site_type_symbol
 _atom_site_label
 _atom_site_symmetry_multiplicity
 _atom_site_fract_x
 _atom_site_fract_y
 _atom_site_fract_z
 _atom_site_occupancy
  Th  Th0  1  0.00000000  0.00000000  0.00000000  1
  Al  Al0  1  0.66666700  0.33333300  0.00000000  1
  Al  Al1  1  0.33333300  0.66666700  0.00000000  1
  Ni  Ni0  1  0.50000000  0.50000000  0.50000000  1
  Ni  Ni1  1  0.50000000  0.00000000  0.50000000  1
  Ni  Ni2  1  0.00000000  0.50000000  0.50000000  1
loop_
_geom_bond_atom_site_label_1
_geom_bond_atom_site_label_2
_geom_bond_distance
_geom_bond_site_symmetry_2
Al0 Ni1 2.448343 1_555
Al0 Ni1 2.448343 1_554
Al0 Ni2 2.448343 1_654
Al0 Ni2 2.448343 1_655
Al0 Ni0 2.448346 1_555
Al0 Ni0 2.448346 1_554
Al0 Th0 3.079880 1_655
Al0 Th0 3.079885 1_665
Al0 Th0 3.079885 1_555
Al1 Ni2 2.448343 1_554
Al1 Ni1 2.448343 1_565
Al1 Ni2 2.448343 1_555
Al1 Ni1 2.448343 1_564
Al1 Ni0 2.448346 1_555
Al1 Ni0 2.448346 1_554
Al1 Th0 3.079880 1_565
Al1 Th0 3.079885 1_665
Al1 Th0 3.079885 1_555
Ni0 Th0 3.276771 1_665
Ni0 Th0 3.276771 1_666
Ni0 Th0 3.276771 1_555
Ni0 Th0 3.276771 1_556
Ni1 Th0 3.276771 1_556
Ni1 Th0 3.276771 1_655
Ni1 Th0 3.276771 1_656
Ni1 Th0 3.276771 1_555
Ni2 Th0 3.276771 1_556
Ni2 Th0 3.276771 1_565
Ni2 Th0 3.276771 1_566
Ni2 Th0 3.276771 1_555
