# generated using pymatgen
data_Ba3TaNb4O15
_symmetry_space_group_name_H-M   'P 1'
_cell_length_a   12.83065600
_cell_length_b   12.83065600
_cell_length_c   4.03785800
_cell_angle_alpha   90.00000000
_cell_angle_beta   90.00000000
_cell_angle_gamma   90.00000000
_symmetry_Int_Tables_number   1
_chemical_formula_structural   Ba3TaNb4O15
_chemical_formula_sum   'Ba6 Ta2 Nb8 O30'
_cell_volume   664.73533458
_cell_formula_units_Z   2
loop_
 _symmetry_equiv_pos_site_id
 _symmetry_equiv_pos_as_xyz
  1  'x, y, z'
loop_
 _atom_site_type_symbol
 _atom_site_label
 _atom_site_symmetry_multiplicity
 _atom_site_fract_x
 _atom_site_fract_y
 _atom_site_fract_z
 _atom_site_occupancy
  Ba  Ba0  1  0.50000000  0.50000000  0.00000000  1
  Ba  Ba1  1  0.00000000  0.00000000  0.00000000  1
  Ba  Ba2  1  0.66971900  0.16971900  0.00000000  1
  Ba  Ba3  1  0.33028100  0.83028100  0.00000000  1
  Ba  Ba4  1  0.16971900  0.33028100  0.00000000  1
  Ba  Ba5  1  0.83028100  0.66971900  0.00000000  1
  Ta  Ta0  1  0.50000000  0.00000000  0.50000000  1
  Ta  Ta1  1  0.00000000  0.50000000  0.50000000  1
  Nb  Nb0  1  0.57688700  0.71323200  0.50000000  1
  Nb  Nb1  1  0.42311300  0.28676800  0.50000000  1
  Nb  Nb2  1  0.07688700  0.78676800  0.50000000  1
  Nb  Nb3  1  0.92311300  0.21323200  0.50000000  1
  Nb  Nb4  1  0.28676800  0.57688700  0.50000000  1
  Nb  Nb5  1  0.71323200  0.42311300  0.50000000  1
  Nb  Nb6  1  0.21323200  0.07688700  0.50000000  1
  Nb  Nb7  1  0.78676800  0.92311300  0.50000000  1
  O  O0  1  0.50000000  0.00000000  0.00000000  1
  O  O1  1  0.00000000  0.50000000  0.00000000  1
  O  O2  1  0.78104400  0.28104400  0.50000000  1
  O  O3  1  0.21895600  0.71895600  0.50000000  1
  O  O4  1  0.28104400  0.21895600  0.50000000  1
  O  O5  1  0.71895600  0.78104400  0.50000000  1
  O  O6  1  0.57679800  0.70951700  0.00000000  1
  O  O7  1  0.42320200  0.29048300  0.00000000  1
  O  O8  1  0.07679800  0.79048300  0.00000000  1
  O  O9  1  0.92320200  0.20951700  0.00000000  1
  O  O10  1  0.29048300  0.57679800  0.00000000  1
  O  O11  1  0.70951700  0.42320200  0.00000000  1
  O  O12  1  0.20951700  0.07679800  0.00000000  1
  O  O13  1  0.79048300  0.92320200  0.00000000  1
  O  O14  1  0.84486100  0.50726900  0.50000000  1
  O  O15  1  0.15513900  0.49273100  0.50000000  1
  O  O16  1  0.34486100  0.99273100  0.50000000  1
  O  O17  1  0.65513900  0.00726900  0.50000000  1
  O  O18  1  0.49273100  0.84486100  0.50000000  1
  O  O19  1  0.50726900  0.15513900  0.50000000  1
  O  O20  1  0.00726900  0.34486100  0.50000000  1
  O  O21  1  0.99273100  0.65513900  0.50000000  1
  O  O22  1  0.63949600  0.56966600  0.50000000  1
  O  O23  1  0.36050400  0.43033400  0.50000000  1
  O  O24  1  0.13949600  0.93033400  0.50000000  1
  O  O25  1  0.86050400  0.06966600  0.50000000  1
  O  O26  1  0.43033400  0.63949600  0.50000000  1
  O  O27  1  0.56966600  0.36050400  0.50000000  1
  O  O28  1  0.06966600  0.13949600  0.50000000  1
  O  O29  1  0.93033400  0.86050400  0.50000000  1
loop_
_geom_bond_atom_site_label_1
_geom_bond_atom_site_label_2
_geom_bond_distance
_geom_bond_site_symmetry_2
Ba0 O22 2.842276 1_555
Ba0 O22 2.842276 1_554
Ba0 O26 2.842276 1_555
Ba0 O26 2.842276 1_554
Ba0 O27 2.842276 1_555
Ba0 O23 2.842276 1_554
Ba0 O27 2.842276 1_554
Ba0 O23 2.842276 1_555
Ba0 O6 2.863143 1_555
Ba0 O10 2.863143 1_555
Ba0 O11 2.863143 1_555
Ba0 O7 2.863143 1_555
Ba1 O28 2.842276 1_555
Ba1 O28 2.842276 1_554
Ba1 O24 2.842276 1_545
Ba1 O24 2.842276 1_544
Ba1 O25 2.842276 1_455
Ba1 O25 2.842276 1_454
Ba1 O29 2.842276 1_445
Ba1 O29 2.842276 1_444
Ba1 O12 2.863143 1_555
Ba1 O9 2.863143 1_455
Ba1 O8 2.863143 1_545
Ba1 O13 2.863143 1_445
Ba2 O2 2.855971 1_554
Ba2 O2 2.855971 1_555
Ba2 O19 2.907842 1_555
Ba2 O19 2.907842 1_554
Ba2 O17 2.907842 1_554
Ba2 O17 2.907842 1_555
Ba3 O3 2.855971 1_554
Ba3 O3 2.855971 1_555
Ba3 O16 2.907842 1_555
Ba3 O16 2.907842 1_554
Ba3 O18 2.907842 1_554
Ba3 O18 2.907842 1_555
Ba4 O4 2.855971 1_554
Ba4 O4 2.855971 1_555
Ba4 O15 2.907842 1_554
Ba4 O15 2.907842 1_555
Ba4 O20 2.907842 1_554
Ba4 O20 2.907842 1_555
Ba5 O5 2.855971 1_555
Ba5 O5 2.855971 1_554
Ba5 O14 2.907842 1_555
Ba5 O14 2.907842 1_554
Ba5 O21 2.907842 1_555
Ba5 O21 2.907842 1_554
Nb0 O18 2.004559 1_555
Nb0 O22 2.009589 1_555
Nb0 O6 2.019492 1_556
Nb0 O6 2.019492 1_555
Nb0 O5 2.019843 1_555
Nb0 O26 2.104962 1_555
Nb1 O19 2.004559 1_555
Nb1 O23 2.009589 1_555
Nb1 O7 2.019492 1_556
Nb1 O7 2.019492 1_555
Nb1 O4 2.019843 1_555
Nb1 O27 2.104962 1_555
Nb2 O21 2.004559 1_455
Nb2 O24 2.009589 1_555
Nb2 O8 2.019492 1_556
Nb2 O8 2.019492 1_555
Nb2 O3 2.019843 1_555
Nb2 O29 2.104962 1_455
Nb3 O20 2.004559 1_655
Nb3 O25 2.009589 1_555
Nb3 O9 2.019492 1_555
Nb3 O9 2.019492 1_556
Nb3 O2 2.019843 1_555
Nb3 O28 2.104962 1_655
Nb4 O15 2.004559 1_555
Nb4 O26 2.009589 1_555
Nb4 O10 2.019492 1_556
Nb4 O10 2.019492 1_555
Nb4 O3 2.019843 1_555
Nb4 O23 2.104962 1_555
Nb5 O14 2.004559 1_555
Nb5 O27 2.009589 1_555
Nb5 O11 2.019492 1_556
Nb5 O11 2.019492 1_555
Nb5 O2 2.019843 1_555
Nb5 O22 2.104962 1_555
Nb6 O16 2.004559 1_545
Nb6 O28 2.009589 1_555
Nb6 O12 2.019492 1_556
Nb6 O12 2.019492 1_555
Nb6 O4 2.019843 1_555
Nb6 O24 2.104962 1_545
Nb7 O17 2.004559 1_565
Nb7 O29 2.009589 1_555
Nb7 O13 2.019492 1_556
Nb7 O13 2.019492 1_555
Nb7 O5 2.019843 1_555
Nb7 O25 2.104962 1_565
O0 Ta0 2.018929 1_555
O0 Ta0 2.018929 1_554
O1 Ta1 2.018929 1_554
O1 Ta1 2.018929 1_555
O14 Ta1 1.992719 1_655
O15 Ta1 1.992719 1_555
O16 Ta0 1.992719 1_565
O17 Ta0 1.992719 1_555
O18 Ta0 1.992719 1_565
O19 Ta0 1.992719 1_555
O20 Ta1 1.992719 1_555
O21 Ta1 1.992719 1_655
