# generated using pymatgen
data_Ta2Bi2O9
_symmetry_space_group_name_H-M   'P 1'
_cell_length_a   3.76258549
_cell_length_b   3.76258549
_cell_length_c   14.99078732
_cell_angle_alpha   83.20275573
_cell_angle_beta   83.20275573
_cell_angle_gamma   89.95415131
_symmetry_Int_Tables_number   1
_chemical_formula_structural   Ta2Bi2O9
_chemical_formula_sum   'Ta2 Bi2 O9'
_cell_volume   209.23365044
_cell_formula_units_Z   1
loop_
 _symmetry_equiv_pos_site_id
 _symmetry_equiv_pos_as_xyz
  1  'x, y, z'
loop_
 _atom_site_type_symbol
 _atom_site_label
 _atom_site_symmetry_multiplicity
 _atom_site_fract_x
 _atom_site_fract_y
 _atom_site_fract_z
 _atom_site_occupancy
  Ta  Ta0  1  0.06352000  0.06352000  0.87130000  1
  Ta  Ta1  1  0.93648000  0.93648000  0.12870000  1
  Bi  Bi0  1  0.78704800  0.78704800  0.40849400  1
  Bi  Bi1  1  0.21295200  0.21295200  0.59150600  1
  O  O0  1  0.66975600  0.66975600  0.64018400  1
  O  O1  1  0.33024400  0.33024400  0.35981600  1
  O  O2  1  0.58029800  0.07929500  0.83899000  1
  O  O3  1  0.25039600  0.74960400  0.50000000  1
  O  O4  1  0.74960400  0.25039600  0.50000000  1
  O  O5  1  0.07929500  0.58029800  0.83899000  1
  O  O6  1  0.41970200  0.92070500  0.16101000  1
  O  O7  1  0.92070500  0.41970200  0.16101000  1
  O  O8  1  0.00000000  0.00000000  0.00000000  1
loop_
_geom_bond_atom_site_label_1
_geom_bond_atom_site_label_2
_geom_bond_distance
_geom_bond_site_symmetry_2
Bi0 O4 2.297337 1_555
Bi0 O3 2.297337 1_555
Bi0 O4 2.336855 1_565
Bi0 O3 2.336855 1_655
Bi0 O1 2.653168 1_555
Bi0 O1 2.757187 1_655
Bi0 O1 2.757187 1_565
Bi0 O1 2.861383 1_665
Bi1 O3 2.297337 1_555
Bi1 O4 2.297337 1_555
Bi1 O4 2.336855 1_455
Bi1 O3 2.336855 1_545
Bi1 O0 2.653168 1_555
Bi1 O0 2.757187 1_545
Bi1 O0 2.757187 1_455
Bi1 O0 2.861383 1_445
O2 Ta0 1.935283 1_655
O2 Ta0 1.946623 1_555
O5 Ta0 1.935283 1_565
O5 Ta0 1.946623 1_555
O6 Ta1 1.935283 1_455
O6 Ta1 1.946623 1_555
O7 Ta1 1.935283 1_545
O7 Ta1 1.946623 1_555
O8 Ta0 1.902180 1_554
O8 Ta1 1.902180 1_445
