# generated using pymatgen
data_CsNd3
_symmetry_space_group_name_H-M   'P 1'
_cell_length_a   6.63649669
_cell_length_b   6.63649669
_cell_length_c   6.63649669
_cell_angle_alpha   131.56328843
_cell_angle_beta   131.56328843
_cell_angle_gamma   70.91964605
_symmetry_Int_Tables_number   1
_chemical_formula_structural   CsNd3
_chemical_formula_sum   'Cs1 Nd3'
_cell_volume   160.25193743
_cell_formula_units_Z   1
loop_
 _symmetry_equiv_pos_site_id
 _symmetry_equiv_pos_as_xyz
  1  'x, y, z'
loop_
 _atom_site_type_symbol
 _atom_site_label
 _atom_site_symmetry_multiplicity
 _atom_site_fract_x
 _atom_site_fract_y
 _atom_site_fract_z
 _atom_site_occupancy
  Cs  Cs0  1  0.00000000  0.00000000  0.00000000  1
  Nd  Nd0  1  0.75000000  0.25000000  0.50000000  1
  Nd  Nd1  1  0.25000000  0.75000000  0.50000000  1
  Nd  Nd2  1  0.50000000  0.50000000  0.00000000  1
loop_
_geom_bond_atom_site_label_1
_geom_bond_atom_site_label_2
_geom_bond_distance
_geom_bond_site_symmetry_2
Cs0 Nd0 3.836207 1_454
Cs0 Nd1 3.836207 1_544
Cs0 Nd0 3.836207 1_444
Cs0 Nd0 3.836207 1_555
Cs0 Nd1 3.836207 1_444
Cs0 Nd1 3.836207 1_555
Cs0 Nd0 3.836207 1_455
Cs0 Nd1 3.836207 1_545
Cs0 Nd2 3.850044 1_444
Cs0 Nd2 3.850044 1_556
Cs0 Nd2 3.850044 1_545
Cs0 Nd2 3.850044 1_455
Nd0 Nd2 3.836207 1_545
Nd0 Nd2 3.836207 1_556
Nd0 Nd2 3.836207 1_555
Nd0 Nd2 3.836207 1_656
Nd0 Nd1 3.850044 1_544
Nd0 Nd1 3.850044 1_645
Nd0 Nd1 3.850044 1_656
Nd0 Nd1 3.850044 1_555
Nd1 Nd2 3.836207 1_556
Nd1 Nd2 3.836207 1_555
Nd1 Nd2 3.836207 1_566
Nd1 Nd2 3.836207 1_455
