# generated using pymatgen
data_CaLa2FeO6
_symmetry_space_group_name_H-M   'P 1'
_cell_length_a   5.80317023
_cell_length_b   5.72826623
_cell_length_c   10.03705343
_cell_angle_alpha   93.92233721
_cell_angle_beta   74.71451017
_cell_angle_gamma   61.80877901
_symmetry_Int_Tables_number   1
_chemical_formula_structural   CaLa2FeO6
_chemical_formula_sum   'Ca2 La4 Fe2 O12'
_cell_volume   276.26886205
_cell_formula_units_Z   2
loop_
 _symmetry_equiv_pos_site_id
 _symmetry_equiv_pos_as_xyz
  1  'x, y, z'
loop_
 _atom_site_type_symbol
 _atom_site_label
 _atom_site_symmetry_multiplicity
 _atom_site_fract_x
 _atom_site_fract_y
 _atom_site_fract_z
 _atom_site_occupancy
  Ca  Ca0  1  0.49350800  0.74871000  0.24979800  1
  Ca  Ca1  1  0.50649100  0.25129000  0.75018900  1
  La  La0  1  0.76010800  0.14300700  0.38047100  1
  La  La1  1  0.77485100  0.63781700  0.87979100  1
  La  La2  1  0.22517400  0.36222000  0.12018500  1
  La  La3  1  0.23988000  0.85698100  0.61952400  1
  Fe  Fe0  1  0.99964000  0.50008700  0.50015100  1
  Fe  Fe1  1  0.00034300  0.99999500  0.99993800  1
  O  O0  1  0.32355300  0.86006000  0.06520100  1
  O  O1  1  0.34494900  0.35712000  0.56622600  1
  O  O2  1  0.79384000  0.29117500  0.16084600  1
  O  O3  1  0.80367900  0.79502500  0.65951400  1
  O  O4  1  0.12806800  0.71142100  0.38722000  1
  O  O5  1  0.14033800  0.22908100  0.88887100  1
  O  O6  1  0.65503300  0.64283300  0.43378500  1
  O  O7  1  0.67650600  0.13996600  0.93478800  1
  O  O8  1  0.85970200  0.77083400  0.11106400  1
  O  O9  1  0.87187500  0.28854300  0.61279900  1
  O  O10  1  0.19626300  0.20497800  0.34048000  1
  O  O11  1  0.20620100  0.70885900  0.83915900  1
loop_
_geom_bond_atom_site_label_1
_geom_bond_atom_site_label_2
_geom_bond_distance
_geom_bond_site_symmetry_2
Ca0 O6 2.277169 1_555
Ca0 O8 2.278031 1_555
Ca0 O10 2.285173 1_565
Ca0 O2 2.290702 1_555
Ca0 O0 2.311556 1_555
Ca0 O4 2.317661 1_555
Ca1 O1 2.276958 1_555
Ca1 O5 2.277911 1_555
Ca1 O3 2.285116 1_545
Ca1 O11 2.290841 1_555
Ca1 O7 2.311732 1_555
Ca1 O9 2.317168 1_555
La0 O1 2.304716 1_555
La0 O4 2.405736 1_645
La0 O2 2.409032 1_555
La0 O6 2.612381 1_555
La0 O10 2.650709 1_655
La0 O9 2.756045 1_555
La0 O8 3.068239 1_545
La0 O6 3.248927 1_545
La0 O10 3.257026 1_555
La1 O5 2.329786 1_655
La1 O0 2.428748 1_556
La1 O3 2.438620 1_555
La1 O8 2.631853 1_556
La1 O7 2.640068 1_565
La1 O11 2.654212 1_655
La1 O9 2.984615 1_555
La1 O7 3.217198 1_555
La1 O11 3.268825 1_555
La2 O8 2.329487 1_455
La2 O7 2.428811 1_554
La2 O10 2.438878 1_555
La2 O5 2.632402 1_554
La2 O0 2.640050 1_545
La2 O2 2.654107 1_455
La2 O4 2.984571 1_555
La2 O0 3.217221 1_555
La2 O2 3.269026 1_555
La3 O6 2.304613 1_555
La3 O9 2.405679 1_465
La3 O11 2.409003 1_555
La3 O1 2.612577 1_555
La3 O3 2.650920 1_455
La3 O4 2.756037 1_555
La3 O5 3.067651 1_565
La3 O1 3.248682 1_565
La3 O3 3.256789 1_555
Fe0 O3 1.887331 1_555
Fe0 O10 1.889646 1_655
Fe0 O9 1.972526 1_555
Fe0 O4 1.974976 1_655
Fe0 O6 2.084095 1_555
Fe0 O1 2.085795 1_655
Fe1 O11 1.882958 1_555
Fe1 O2 1.883872 1_466
Fe1 O0 1.971995 1_556
Fe1 O7 1.974380 1_465
Fe1 O5 2.086794 1_565
Fe1 O8 2.089487 1_456
