# generated using pymatgen
data_K2P2PdS6
_symmetry_space_group_name_H-M   'P 1'
_cell_length_a   7.21356500
_cell_length_b   10.26941400
_cell_length_c   15.94654800
_cell_angle_alpha   90.00000000
_cell_angle_beta   90.00000000
_cell_angle_gamma   90.00000000
_symmetry_Int_Tables_number   1
_chemical_formula_structural   K2P2PdS6
_chemical_formula_sum   'K8 P8 Pd4 S24'
_cell_volume   1181.30569114
_cell_formula_units_Z   4
loop_
 _symmetry_equiv_pos_site_id
 _symmetry_equiv_pos_as_xyz
  1  'x, y, z'
loop_
 _atom_site_type_symbol
 _atom_site_label
 _atom_site_symmetry_multiplicity
 _atom_site_fract_x
 _atom_site_fract_y
 _atom_site_fract_z
 _atom_site_occupancy
  K  K0  1  0.25000000  0.08625400  0.18315600  1
  K  K1  1  0.25000000  0.41374600  0.68315600  1
  K  K2  1  0.75000000  0.91374600  0.81684400  1
  K  K3  1  0.75000000  0.58625400  0.31684400  1
  K  K4  1  0.25000000  0.56455800  0.11898700  1
  K  K5  1  0.25000000  0.93544200  0.61898700  1
  K  K6  1  0.75000000  0.43544200  0.88101300  1
  K  K7  1  0.75000000  0.06455800  0.38101300  1
  P  P0  1  0.75000000  0.71888300  0.05646100  1
  P  P1  1  0.75000000  0.78111700  0.55646100  1
  P  P2  1  0.25000000  0.28111700  0.94353900  1
  P  P3  1  0.25000000  0.21888300  0.44353900  1
  P  P4  1  0.25000000  0.14980900  0.83187200  1
  P  P5  1  0.25000000  0.35019100  0.33187200  1
  P  P6  1  0.75000000  0.85019100  0.16812800  1
  P  P7  1  0.75000000  0.64980900  0.66812800  1
  Pd  Pd0  1  0.50000000  0.00000000  0.00000000  1
  Pd  Pd1  1  0.00000000  0.50000000  0.50000000  1
  Pd  Pd2  1  0.00000000  0.00000000  0.00000000  1
  Pd  Pd3  1  0.50000000  0.50000000  0.50000000  1
  S  S0  1  0.51277100  0.76969600  0.99202800  1
  S  S1  1  0.98722900  0.73030400  0.49202800  1
  S  S2  1  0.01277100  0.23030400  0.00797200  1
  S  S3  1  0.48722900  0.26969600  0.50797200  1
  S  S4  1  0.48722900  0.23030400  0.00797200  1
  S  S5  1  0.01277100  0.26969600  0.50797200  1
  S  S6  1  0.98722900  0.76969600  0.99202800  1
  S  S7  1  0.51277100  0.73030400  0.49202800  1
  S  S8  1  0.48511100  0.16633000  0.76731600  1
  S  S9  1  0.01488900  0.33367000  0.26731600  1
  S  S10  1  0.98511100  0.83367000  0.23268400  1
  S  S11  1  0.51488900  0.66633000  0.73268400  1
  S  S12  1  0.51488900  0.83367000  0.23268400  1
  S  S13  1  0.98511100  0.66633000  0.73268400  1
  S  S14  1  0.01488900  0.16633000  0.76731600  1
  S  S15  1  0.48511100  0.33367000  0.26731600  1
  S  S16  1  0.25000000  0.97323000  0.90527600  1
  S  S17  1  0.25000000  0.52677000  0.40527600  1
  S  S18  1  0.75000000  0.02677000  0.09472400  1
  S  S19  1  0.75000000  0.47323000  0.59472400  1
  S  S20  1  0.75000000  0.53276900  0.09022700  1
  S  S21  1  0.75000000  0.96723100  0.59022700  1
  S  S22  1  0.25000000  0.46723100  0.90977300  1
  S  S23  1  0.25000000  0.03276900  0.40977300  1
loop_
_geom_bond_atom_site_label_1
_geom_bond_atom_site_label_2
_geom_bond_distance
_geom_bond_site_symmetry_2
K0 S10 3.317105 1_445
K0 S12 3.317105 1_545
K0 S9 3.336654 1_555
K0 S15 3.336654 1_555
K0 Pd0 3.545045 1_555
K0 Pd2 3.545045 1_555
K0 S2 3.594562 1_555
K0 S4 3.594562 1_555
K0 S23 3.655262 1_555
K1 S11 3.317105 1_555
K1 S13 3.317105 1_455
K1 S8 3.336654 1_555
K1 S14 3.336654 1_555
K1 Pd1 3.545045 1_555
K1 Pd3 3.545045 1_555
K1 S5 3.594562 1_555
K1 S3 3.594562 1_555
K1 S22 3.655262 1_555
K2 S14 3.317105 1_665
K2 S8 3.317105 1_565
K2 S13 3.336654 1_555
K2 S11 3.336654 1_555
K2 Pd0 3.545045 1_566
K2 Pd2 3.545045 1_666
K2 S0 3.594562 1_555
K2 S6 3.594562 1_555
K2 S21 3.655262 1_555
K3 S9 3.317105 1_655
K3 S15 3.317105 1_555
K3 S10 3.336654 1_555
K3 S12 3.336654 1_555
K3 Pd1 3.545045 1_655
K3 Pd3 3.545045 1_555
K3 S7 3.594562 1_555
K3 S1 3.594562 1_555
K3 S20 3.655262 1_555
K4 S22 3.482741 1_554
K4 S0 3.482783 1_554
K4 S6 3.482783 1_454
K4 S20 3.650450 1_555
K4 S20 3.650450 1_455
K4 S9 3.754095 1_555
K4 S15 3.754095 1_555
K4 S12 3.817851 1_555
K4 S10 3.817851 1_455
K5 S23 3.482741 1_565
K5 S7 3.482783 1_555
K5 S1 3.482783 1_455
K5 S21 3.650450 1_455
K5 S21 3.650450 1_555
K5 S8 3.754095 1_565
K5 S14 3.754095 1_565
K5 S11 3.817851 1_555
K5 S13 3.817851 1_455
K6 S20 3.482741 1_556
K6 S4 3.482783 1_556
K6 S2 3.482783 1_656
K6 S22 3.650450 1_655
K6 S22 3.650450 1_555
K6 S11 3.754095 1_555
K6 S13 3.754095 1_555
K6 S14 3.817851 1_655
K6 S8 3.817851 1_555
K7 S21 3.482741 1_545
K7 S3 3.482783 1_555
K7 S5 3.482783 1_655
K7 S23 3.650450 1_555
K7 S23 3.650450 1_655
K7 S12 3.754095 1_545
K7 S10 3.754095 1_545
K7 S15 3.817851 1_555
K7 S9 3.817851 1_655
P0 S20 1.985681 1_555
P0 S6 2.063117 1_554
P0 S0 2.063117 1_554
P0 P6 2.233660 1_555
P1 S21 1.985681 1_555
P1 S1 2.063117 1_555
P1 S7 2.063117 1_555
P1 P7 2.233660 1_555
P2 S22 1.985681 1_555
P2 S2 2.063117 1_556
P2 S4 2.063117 1_556
P2 P4 2.233660 1_555
P3 S23 1.985681 1_555
P3 S5 2.063117 1_555
P3 S3 2.063117 1_555
P3 P5 2.233660 1_555
P4 S8 1.991211 1_555
P4 S14 1.991211 1_555
P4 S16 2.158344 1_545
P5 S15 1.991211 1_555
P5 S9 1.991211 1_555
P5 S17 2.158344 1_555
P6 S12 1.991211 1_555
P6 S10 1.991211 1_555
P6 S18 2.158344 1_565
P7 S13 1.991211 1_555
P7 S11 1.991211 1_555
P7 S19 2.158344 1_555
Pd0 S18 2.368432 1_555
Pd0 S16 2.368432 1_544
Pd0 S0 2.370292 1_544
Pd0 S4 2.370292 1_555
Pd1 S17 2.368432 1_555
Pd1 S19 2.368432 1_455
Pd1 S1 2.370292 1_455
Pd1 S5 2.370292 1_555
Pd2 S18 2.368432 1_455
Pd2 S16 2.368432 1_544
Pd2 S6 2.370292 1_444
Pd2 S2 2.370292 1_555
Pd3 S17 2.368432 1_555
Pd3 S19 2.368432 1_555
Pd3 S7 2.370292 1_555
Pd3 S3 2.370292 1_555
