# generated using pymatgen
data_Er3CrB7
_symmetry_space_group_name_H-M   'P 1'
_cell_length_a   7.99821854
_cell_length_b   7.99821854
_cell_length_c   9.27375487
_cell_angle_alpha   90.00000000
_cell_angle_beta   90.00000000
_cell_angle_gamma   155.34032775
_symmetry_Int_Tables_number   1
_chemical_formula_structural   Er3CrB7
_chemical_formula_sum   'Er6 Cr2 B14'
_cell_volume   247.52272989
_cell_formula_units_Z   2
loop_
 _symmetry_equiv_pos_site_id
 _symmetry_equiv_pos_as_xyz
  1  'x, y, z'
loop_
 _atom_site_type_symbol
 _atom_site_label
 _atom_site_symmetry_multiplicity
 _atom_site_fract_x
 _atom_site_fract_y
 _atom_site_fract_z
 _atom_site_occupancy
  Er  Er0  1  0.75770492  0.24229508  0.25000000  1
  Er  Er1  1  0.24229508  0.75770492  0.75000000  1
  Er  Er2  1  0.89456671  0.10543329  0.55937998  1
  Er  Er3  1  0.10543329  0.89456671  0.44062002  1
  Er  Er4  1  0.10543329  0.89456671  0.05937998  1
  Er  Er5  1  0.89456671  0.10543329  0.94062002  1
  Cr  Cr0  1  0.94676757  0.05323243  0.25000000  1
  Cr  Cr1  1  0.05323243  0.94676757  0.75000000  1
  B  B0  1  0.54314020  0.45685980  0.25000000  1
  B  B1  1  0.45685980  0.54314020  0.75000000  1
  B  B2  1  0.52046484  0.47953516  0.90363067  1
  B  B3  1  0.47953516  0.52046484  0.09636933  1
  B  B4  1  0.47953516  0.52046484  0.40363067  1
  B  B5  1  0.52046484  0.47953516  0.59636933  1
  B  B6  1  0.63108925  0.36891075  0.84885976  1
  B  B7  1  0.36891075  0.63108925  0.15114024  1
  B  B8  1  0.72705643  0.27294357  0.96751988  1
  B  B9  1  0.27294357  0.72705643  0.03248012  1
  B  B10  1  0.27294357  0.72705643  0.46751988  1
  B  B11  1  0.72705643  0.27294357  0.53248012  1
  B  B12  1  0.63108925  0.36891075  0.65114024  1
  B  B13  1  0.36891075  0.63108925  0.34885976  1
loop_
_geom_bond_atom_site_label_1
_geom_bond_atom_site_label_2
_geom_bond_distance
_geom_bond_site_symmetry_2
B0 B3 1.737203 1_555
B0 B4 1.737203 1_555
B0 Cr0 2.277115 1_455
B0 Cr0 2.277115 1_565
B0 Er3 2.643802 1_655
B0 Er4 2.643802 1_655
B0 Er3 2.643802 1_545
B0 Er4 2.643802 1_545
B1 B2 1.737203 1_555
B1 B5 1.737203 1_555
B1 Cr1 2.277115 1_545
B1 Cr1 2.277115 1_655
B1 Er2 2.643802 1_565
B1 Er5 2.643802 1_565
B1 Er5 2.643802 1_455
B1 Er2 2.643802 1_455
B2 B6 1.801853 1_555
B2 B3 1.898410 1_556
B2 Cr1 2.282349 1_545
B2 Cr1 2.282349 1_655
B2 Er4 2.601237 1_656
B2 Er4 2.601237 1_546
B2 Er5 2.627858 1_455
B2 Er5 2.627858 1_565
B3 B7 1.801853 1_555
B3 Cr0 2.282349 1_455
B3 Cr0 2.282349 1_565
B3 Er5 2.601237 1_564
B3 Er5 2.601237 1_454
B3 Er4 2.627858 1_655
B3 Er4 2.627858 1_545
B4 B5 1.898410 1_555
B4 Cr0 2.282349 1_455
B4 Cr0 2.282349 1_565
B4 Er2 2.601237 1_565
B4 Er2 2.601237 1_455
B4 Er3 2.627858 1_655
B4 Er3 2.627858 1_545
B5 Cr1 2.282349 1_545
B5 Cr1 2.282349 1_655
B5 Er3 2.601237 1_655
B5 Er3 2.601237 1_545
B5 Er2 2.627858 1_565
B5 Er2 2.627858 1_455
B6 B8 1.860137 1_555
B6 Cr1 2.288652 1_545
B6 Cr1 2.288652 1_655
B6 Er1 2.603409 1_655
B6 Er1 2.603409 1_545
B6 Er4 2.624750 1_656
B6 Er4 2.624750 1_546
B7 B9 1.860137 1_555
B7 Cr0 2.288652 1_455
B7 Cr0 2.288652 1_565
B7 Er0 2.603409 1_565
B7 Er0 2.603409 1_455
B7 Er5 2.624750 1_564
B7 Er5 2.624750 1_454
B8 B9 1.947866 1_656
B8 B9 1.947866 1_546
B8 Er5 2.629622 1_555
B8 Er1 2.653855 1_655
B8 Er1 2.653855 1_545
B8 Er0 2.663076 1_556
B8 Er4 2.693560 1_546
B8 Er4 2.693560 1_656
B9 Er4 2.629622 1_555
B9 Er0 2.653855 1_565
B9 Er0 2.653855 1_455
B9 Er1 2.663076 1_554
B9 Er5 2.693560 1_454
B9 Er5 2.693560 1_564
B10 B13 1.860137 1_555
B10 B11 1.947866 1_455
B10 B11 1.947866 1_565
B10 Er3 2.629622 1_555
B10 Er0 2.653855 1_565
B10 Er0 2.653855 1_455
B10 Er1 2.663076 1_555
B10 Er2 2.693560 1_455
B10 Er2 2.693560 1_565
B11 B12 1.860137 1_555
B11 Er2 2.629622 1_555
B11 Er1 2.653855 1_655
B11 Er1 2.653855 1_545
B11 Er0 2.663076 1_555
B11 Er3 2.693560 1_545
B11 Er3 2.693560 1_655
B12 B5 1.801853 1_555
B12 B6 1.833602 1_555
B12 Cr1 2.288652 1_545
B12 Cr1 2.288652 1_655
B12 Er1 2.603409 1_655
B12 Er1 2.603409 1_545
B12 Er3 2.624750 1_655
B12 Er3 2.624750 1_545
B13 B4 1.801853 1_555
B13 B7 1.833602 1_555
B13 Cr0 2.288652 1_455
B13 Cr0 2.288652 1_565
B13 Er0 2.603409 1_565
B13 Er0 2.603409 1_455
B13 Er2 2.624750 1_565
B13 Er2 2.624750 1_455
