# generated using pymatgen
data_Li5V3P8O29
_symmetry_space_group_name_H-M   'P 1'
_cell_length_a   9.78524169
_cell_length_b   9.81036459
_cell_length_c   14.10318767
_cell_angle_alpha   90.22629067
_cell_angle_beta   90.22900946
_cell_angle_gamma   59.90521750
_symmetry_Int_Tables_number   1
_chemical_formula_structural   Li5V3P8O29
_chemical_formula_sum   'Li10 V6 P16 O58'
_cell_volume   1171.34403638
_cell_formula_units_Z   2
loop_
 _symmetry_equiv_pos_site_id
 _symmetry_equiv_pos_as_xyz
  1  'x, y, z'
loop_
 _atom_site_type_symbol
 _atom_site_label
 _atom_site_symmetry_multiplicity
 _atom_site_fract_x
 _atom_site_fract_y
 _atom_site_fract_z
 _atom_site_occupancy
  Li  Li0  1  0.76991708  0.91367714  0.56095339  1
  Li  Li1  1  0.90605707  0.32015106  0.55285929  1
  Li  Li2  1  0.76457656  0.33330464  0.06238752  1
  Li  Li3  1  0.33197042  0.90140960  0.06084149  1
  Li  Li4  1  0.31983074  0.77132294  0.55878167  1
  Li  Li5  1  0.23425256  0.66549679  0.94241191  1
  Li  Li6  1  0.09120543  0.67659396  0.43474363  1
  Li  Li7  1  0.22638407  0.09273169  0.43813993  1
  Li  Li8  1  0.09883899  0.23249231  0.94570306  1
  Li  Li9  1  0.94485918  0.98873635  0.99217829  1
  V  V0  1  0.56763675  0.43013722  0.25362580  1
  V  V1  1  0.43470290  0.56579744  0.75031229  1
  V  V2  1  0.56775643  0.00406834  0.75266371  1
  V  V3  1  0.43885344  0.99827098  0.24976519  1
  V  V4  1  0.99342103  0.57001299  0.24300860  1
  V  V5  1  0.00222735  0.43397920  0.75190085  1
  P  P0  1  0.91618327  0.77699849  0.83800948  1
  P  P1  1  0.77123241  0.91397450  0.34477634  1
  P  P2  1  0.91179963  0.32014670  0.34012826  1
  P  P3  1  0.66426133  0.66014540  0.12835441  1
  P  P4  1  0.66817390  0.66813495  0.63160055  1
  P  P5  1  0.77422517  0.31457875  0.84615726  1
  P  P6  1  0.68718830  0.22923155  0.66257500  1
  P  P7  1  0.31563740  0.91359653  0.84107834  1
  P  P8  1  0.69218128  0.08539633  0.16097132  1
  P  P9  1  0.31856345  0.77087302  0.34075722  1
  P  P10  1  0.22813302  0.68549493  0.15789924  1
  P  P11  1  0.32656393  0.33904586  0.36835830  1
  P  P12  1  0.33169865  0.33493036  0.87078969  1
  P  P13  1  0.08819448  0.68013325  0.65472193  1
  P  P14  1  0.23038521  0.08887659  0.65890149  1
  P  P15  1  0.08968449  0.22667204  0.15978210  1
  O  O0  1  0.00133319  0.75047937  0.56401997  1
  O  O1  1  0.91828973  0.74923232  0.33747444  1
  O  O2  1  0.79456549  0.00334589  0.07876965  1
  O  O3  1  0.74439514  0.91292163  0.83568197  1
  O  O4  1  0.92203971  0.61597726  0.82909986  1
  O  O5  1  0.81033299  0.66740634  0.17137056  1
  O  O6  1  0.90226930  0.47869367  0.32567405  1
  O  O7  1  0.00264294  0.22657568  0.07111285  1
  O  O8  1  0.92244504  0.33753160  0.83621770  1
  O  O9  1  0.67322601  0.81660126  0.66701788  1
  O  O10  1  0.62028908  0.90181783  0.32004760  1
  O  O11  1  0.81695673  0.51918766  0.68019861  1
  O  O12  1  0.66950746  0.64054884  0.02332612  1
  O  O13  1  0.68236709  0.64789327  0.52663597  1
  O  O14  1  0.67497175  0.50736107  0.17491481  1
  O  O15  1  0.47331352  0.90661523  0.82791208  1
  O  O16  1  0.51124330  0.80854944  0.16449717  1
  O  O17  1  0.74401896  0.33934504  0.33556925  1
  O  O18  1  0.78991871  0.20278106  0.75862582  1
  O  O19  1  0.77205895  0.24128712  0.57956786  1
  O  O20  1  0.79209397  0.22885402  0.93707174  1
  O  O21  1  0.62170396  0.47155882  0.83205384  1
  O  O22  1  0.51467268  0.67355958  0.67006789  1
  O  O23  1  0.65948874  0.26015908  0.16428866  1
  O  O24  1  0.47990897  0.61960555  0.32311317  1
  O  O25  1  0.33705518  0.91797363  0.34214624  1
  O  O26  1  0.78662024  0.01293381  0.25922318  1
  O  O27  1  0.75458397  0.99309360  0.43724405  1
  O  O28  1  0.23800905  0.00182190  0.56924080  1
  O  O29  1  0.66418799  0.08446723  0.66100559  1
  O  O30  1  0.52396097  0.38172869  0.68062047  1
  O  O31  1  0.33530658  0.74600402  0.83743076  1
  O  O32  1  0.47571030  0.33961755  0.32184309  1
  O  O33  1  0.38712625  0.53039877  0.17328005  1
  O  O34  1  0.23186037  0.76993020  0.06910529  1
  O  O35  1  0.24186800  0.75728610  0.42978955  1
  O  O36  1  0.20925929  0.79386603  0.24995650  1
  O  O37  1  0.25317098  0.66431838  0.65762926  1
  O  O38  1  0.48173739  0.19557963  0.82729430  1
  O  O39  1  0.53573942  0.08575927  0.16900440  1
  O  O40  1  0.31932928  0.49199743  0.83543504  1
  O  O41  1  0.30768478  0.33434856  0.97507242  1
  O  O42  1  0.32919098  0.34562843  0.47371733  1
  O  O43  1  0.17956981  0.48908362  0.32649396  1
  O  O44  1  0.38100388  0.09727697  0.67675606  1
  O  O45  1  0.32842407  0.18717301  0.33053491  1
  O  O46  1  0.08852465  0.65894756  0.15909072  1
  O  O47  1  0.99236004  0.79601703  0.74088613  1
  O  O48  1  0.00725972  0.78961846  0.91961785  1
  O  O49  1  0.09863546  0.52034224  0.67769925  1
  O  O50  1  0.18474018  0.32558277  0.82309124  1
  O  O51  1  0.09971528  0.37635634  0.17141196  1
  O  O52  1  0.25736663  0.07807061  0.16185468  1
  O  O53  1  0.22720527  0.99883515  0.92965292  1
  O  O54  1  0.20639124  0.00199037  0.74907778  1
  O  O55  1  0.08098623  0.25670978  0.65945590  1
  O  O56  1  0.99903028  0.23778522  0.42901787  1
  O  O57  1  0.00227791  0.20601706  0.25074739  1
loop_
_geom_bond_atom_site_label_1
_geom_bond_atom_site_label_2
_geom_bond_distance
_geom_bond_site_symmetry_2
Li0 O27 1.888093 1_555
Li0 O0 2.014166 1_655
Li0 O29 2.030605 1_565
Li0 O9 2.228437 1_555
Li1 O19 1.866371 1_555
Li1 O56 1.948176 1_555
Li1 O55 2.120342 1_655
Li1 O11 2.464877 1_555
Li2 O20 1.989683 1_554
Li2 O7 2.022572 1_655
Li2 O23 2.097061 1_555
Li2 O14 2.165946 1_555
Li3 O34 1.976413 1_555
Li3 O52 2.070287 1_565
Li3 O53 2.098520 1_554
Li3 O16 2.105150 1_555
Li4 O28 1.989677 1_565
Li4 O35 2.000681 1_555
Li4 O37 2.043624 1_555
Li4 O22 2.274278 1_555
Li5 O48 1.950558 1_555
Li5 O34 2.050516 1_556
Li5 O40 2.105968 1_555
Li5 O31 2.144258 1_555
Li6 O35 1.994161 1_555
Li6 O0 1.996492 1_555
Li6 O1 2.008125 1_455
Li6 O43 2.203520 1_555
Li7 O56 1.953245 1_455
Li7 O25 2.018990 1_545
Li7 O28 2.033847 1_555
Li7 O45 2.260395 1_555
Li8 O53 1.998526 1_545
Li8 O7 2.021522 1_556
Li8 O8 2.152414 1_455
Li8 O50 2.307533 1_555
Li9 O2 1.864493 1_566
Li9 O48 2.007216 1_655
Li9 O20 2.204855 1_565
O0 P13 1.498347 1_555
O1 P1 1.536516 1_555
O1 V4 2.024784 1_555
O2 P8 1.479461 1_555
O3 P0 1.535208 1_555
O3 V2 1.897379 1_565
O4 P0 1.556328 1_555
O4 V5 1.890884 1_655
O5 P3 1.584608 1_555
O5 V4 1.849281 1_555
O6 P2 1.525260 1_555
O6 V4 1.943006 1_555
O7 P15 1.510468 1_555
O8 P5 1.582187 1_555
O8 V5 1.917261 1_655
O9 P4 1.561930 1_555
O9 V2 1.998845 1_565
O10 P1 1.577860 1_555
O10 V3 1.827145 1_555
O11 P4 1.609656 1_555
O11 V5 1.865542 1_655
O12 P3 1.490674 1_555
O13 P4 1.490563 1_555
O14 P3 1.593258 1_555
O14 V0 1.929582 1_555
O15 P7 1.521816 1_555
O15 V2 1.948392 1_565
O16 P3 1.560601 1_555
O16 V3 2.019663 1_555
O17 P2 1.556978 1_555
O17 V0 1.886338 1_555
O18 P5 1.603850 1_555
O18 P6 1.625775 1_555
O19 P6 1.476993 1_555
O20 P5 1.497027 1_555
O21 P5 1.527652 1_555
O21 V1 1.956286 1_555
O22 P4 1.574616 1_555
O22 V1 1.963901 1_555
O23 P8 1.579061 1_555
O23 V0 1.914516 1_555
O24 P9 1.551565 1_555
O24 V0 1.882660 1_555
O25 P9 1.541854 1_555
O25 V3 2.028715 1_555
O26 P1 1.605708 1_545
O26 P8 1.618063 1_555
O27 P1 1.482076 1_555
O28 P14 1.504074 1_555
O29 P6 1.545427 1_555
O29 V2 1.986883 1_555
O30 P6 1.567777 1_555
O30 V1 1.844147 1_555
O31 P7 1.557228 1_555
O31 V1 1.961885 1_555
O32 P11 1.605061 1_555
O32 V0 1.827046 1_555
O33 P10 1.551955 1_555
O33 V0 1.903120 1_555
O34 P10 1.514773 1_555
O35 P9 1.505589 1_555
O36 P9 1.607520 1_555
O36 P10 1.626070 1_555
O37 P13 1.542780 1_555
O37 V1 2.016864 1_555
O38 P12 1.545456 1_555
O38 V2 1.936930 1_555
O39 P8 1.533681 1_555
O39 V3 1.940398 1_545
O40 P12 1.567208 1_555
O40 V1 2.019245 1_555
O41 P12 1.490784 1_555
O42 P11 1.487725 1_555
O43 P11 1.568729 1_555
O43 V4 1.968365 1_455
O44 P14 1.536581 1_555
O44 V2 1.907343 1_555
O45 P11 1.572058 1_555
O45 V3 1.970906 1_545
O46 P10 1.513727 1_555
O46 V4 1.964480 1_455
O47 P13 1.605484 1_655
O47 P0 1.617502 1_555
O48 P0 1.495179 1_455
O49 P13 1.554341 1_555
O49 V5 1.876001 1_555
O50 P12 1.628766 1_555
O50 V5 1.848761 1_555
O51 P15 1.528208 1_555
O51 V4 1.929338 1_455
O52 P15 1.555463 1_555
O52 V3 1.974746 1_545
O53 P7 1.511037 1_555
O54 P14 1.615780 1_555
O54 P7 1.626775 1_545
O55 P14 1.560214 1_555
O55 V5 1.991021 1_555
O56 P2 1.503600 1_555
O57 P15 1.613398 1_555
O57 P2 1.621764 1_455
