# generated using pymatgen
data_Cs4Zr6BBr17
_symmetry_space_group_name_H-M   'P 1'
_cell_length_a   12.86440000
_cell_length_b   12.86440000
_cell_length_c   11.82046100
_cell_angle_alpha   90.00000000
_cell_angle_beta   90.00000000
_cell_angle_gamma   90.00000000
_symmetry_Int_Tables_number   1
_chemical_formula_structural   Cs4Zr6BBr17
_chemical_formula_sum   'Cs8 Zr12 B2 Br34'
_cell_volume   1956.20103877
_cell_formula_units_Z   2
loop_
 _symmetry_equiv_pos_site_id
 _symmetry_equiv_pos_as_xyz
  1  'x, y, z'
loop_
 _atom_site_type_symbol
 _atom_site_label
 _atom_site_symmetry_multiplicity
 _atom_site_fract_x
 _atom_site_fract_y
 _atom_site_fract_z
 _atom_site_occupancy
  Cs  Cs0  1  0.47903100  0.71937200  0.33919200  1
  Cs  Cs1  1  0.02096900  0.21937200  0.66080800  1
  Cs  Cs2  1  0.52096900  0.28062800  0.33919200  1
  Cs  Cs3  1  0.97903100  0.78062800  0.66080800  1
  Cs  Cs4  1  0.71937200  0.52096900  0.66080800  1
  Cs  Cs5  1  0.78062800  0.02096900  0.33919200  1
  Cs  Cs6  1  0.28062800  0.47903100  0.66080800  1
  Cs  Cs7  1  0.21937200  0.97903100  0.33919200  1
  Zr  Zr0  1  0.59204900  0.90795100  0.69733000  1
  Zr  Zr1  1  0.90795100  0.40795100  0.30267000  1
  Zr  Zr2  1  0.40795100  0.09204900  0.69733000  1
  Zr  Zr3  1  0.09204900  0.59204900  0.30267000  1
  Zr  Zr4  1  0.59195000  0.90805000  0.97822300  1
  Zr  Zr5  1  0.90805000  0.40805000  0.02177700  1
  Zr  Zr6  1  0.40805000  0.09195000  0.97822300  1
  Zr  Zr7  1  0.09195000  0.59195000  0.02177700  1
  Zr  Zr8  1  0.87114800  0.62885200  0.15926900  1
  Zr  Zr9  1  0.62885200  0.12885200  0.84073100  1
  Zr  Zr10  1  0.12885200  0.37114800  0.15926900  1
  Zr  Zr11  1  0.37114800  0.87114800  0.84073100  1
  B  B0  1  0.00000000  0.50000000  0.16169200  1
  B  B1  1  0.50000000  0.00000000  0.83830800  1
  Br  Br0  1  0.00000000  0.50000000  0.83670200  1
  Br  Br1  1  0.50000000  0.00000000  0.16329800  1
  Br  Br2  1  0.70546400  0.79453600  0.15980200  1
  Br  Br3  1  0.79453600  0.29453600  0.84019800  1
  Br  Br4  1  0.29453600  0.20546400  0.15980200  1
  Br  Br5  1  0.20546400  0.70546400  0.84019800  1
  Br  Br6  1  0.45573000  0.74787000  0.67967500  1
  Br  Br7  1  0.04427000  0.24787000  0.32032500  1
  Br  Br8  1  0.54427000  0.25213000  0.67967500  1
  Br  Br9  1  0.95573000  0.75213000  0.32032500  1
  Br  Br10  1  0.74787000  0.54427000  0.32032500  1
  Br  Br11  1  0.75213000  0.04427000  0.67967500  1
  Br  Br12  1  0.25213000  0.45573000  0.32032500  1
  Br  Br13  1  0.24787000  0.95573000  0.67967500  1
  Br  Br14  1  0.70477200  0.79522800  0.52849500  1
  Br  Br15  1  0.79522800  0.29522800  0.47150500  1
  Br  Br16  1  0.29522800  0.20477200  0.52849500  1
  Br  Br17  1  0.20477200  0.70477200  0.47150500  1
  Br  Br18  1  0.00000000  0.50000000  0.48779600  1
  Br  Br19  1  0.50000000  0.00000000  0.51220400  1
  Br  Br20  1  0.45939300  0.74605500  0.99835800  1
  Br  Br21  1  0.04060700  0.24605500  0.00164200  1
  Br  Br22  1  0.54060700  0.25394500  0.99835800  1
  Br  Br23  1  0.95939300  0.75394500  0.00164200  1
  Br  Br24  1  0.74605500  0.54060700  0.00164200  1
  Br  Br25  1  0.75394500  0.04060700  0.99835800  1
  Br  Br26  1  0.25394500  0.45939300  0.00164200  1
  Br  Br27  1  0.24605500  0.95939300  0.99835800  1
  Br  Br28  1  0.70884800  0.79115200  0.83750500  1
  Br  Br29  1  0.79115200  0.29115200  0.16249500  1
  Br  Br30  1  0.29115200  0.20884800  0.83750500  1
  Br  Br31  1  0.20884800  0.70884800  0.16249500  1
  Br  Br32  1  0.50000000  0.50000000  0.50000000  1
  Br  Br33  1  0.00000000  0.00000000  0.50000000  1
loop_
_geom_bond_atom_site_label_1
_geom_bond_atom_site_label_2
_geom_bond_distance
_geom_bond_site_symmetry_2
B0 Zr10 2.344381 1_555
B0 Zr8 2.344381 1_455
B0 Zr5 2.352375 1_455
B0 Zr7 2.352375 1_555
B0 Zr3 2.362503 1_555
B0 Zr1 2.362503 1_455
B1 Zr9 2.344381 1_555
B1 Zr11 2.344381 1_545
B1 Zr6 2.352375 1_555
B1 Zr4 2.352375 1_545
B1 Zr2 2.362503 1_555
B1 Zr0 2.362503 1_545
Br0 Zr5 2.753965 1_456
Br0 Zr7 2.753965 1_556
Br0 Cs3 4.174748 1_455
Br0 Cs6 4.174748 1_555
Br0 Cs4 4.174748 1_455
Br0 Cs1 4.174748 1_555
Br1 Zr6 2.753965 1_554
Br1 Zr4 2.753965 1_544
Br1 Cs5 4.174748 1_555
Br1 Cs2 4.174748 1_555
Br1 Cs0 4.174748 1_545
Br1 Cs7 4.174748 1_545
Br2 Zr4 2.978540 1_554
Br2 Zr8 3.014297 1_555
Br2 Cs0 3.730483 1_555
Br2 Cs5 3.730483 1_565
Br3 Zr5 2.978540 1_556
Br3 Zr9 3.014297 1_555
Br3 Cs1 3.730483 1_655
Br3 Cs4 3.730483 1_555
Br4 Zr6 2.978540 1_554
Br4 Zr10 3.014297 1_555
Br4 Cs7 3.730483 1_545
Br4 Cs2 3.730483 1_555
Br5 Zr7 2.978540 1_556
Br5 Zr11 3.014297 1_555
Br5 Cs3 3.730483 1_455
Br5 Cs6 3.730483 1_555
Br6 Zr11 2.706162 1_555
Br6 Zr0 2.712893 1_555
Br6 Cs0 4.052430 1_555
Br6 Cs6 4.133371 1_555
Br7 Zr10 2.706162 1_555
Br7 Zr1 2.712893 1_455
Br7 Cs1 4.052430 1_555
Br7 Cs7 4.133371 1_545
Br8 Zr9 2.706162 1_555
Br8 Zr2 2.712893 1_555
Br8 Cs2 4.052430 1_555
Br8 Cs4 4.133371 1_555
Br9 Zr8 2.706162 1_555
Br9 Zr3 2.712893 1_655
Br9 Cs3 4.052430 1_555
Br9 Cs5 4.133371 1_565
Br10 Zr8 2.706162 1_555
Br10 Zr1 2.712893 1_555
Br10 Cs4 4.052430 1_555
Br10 Cs0 4.133371 1_555
Br11 Zr9 2.706162 1_555
Br11 Zr0 2.712893 1_545
Br11 Cs5 4.052430 1_555
Br11 Cs1 4.133371 1_655
Br12 Zr10 2.706162 1_555
Br12 Zr3 2.712893 1_555
Br12 Cs6 4.052430 1_555
Br12 Cs2 4.133371 1_555
Br13 Zr11 2.706162 1_555
Br13 Zr2 2.712893 1_565
Br13 Cs7 4.052430 1_555
Br13 Cs3 4.133371 1_455
Br14 Zr0 2.861557 1_555
Br14 Cs0 3.793769 1_555
Br14 Cs5 3.793769 1_565
Br14 Cs4 3.863860 1_555
Br14 Cs3 3.863860 1_555
Br15 Zr1 2.861557 1_555
Br15 Cs4 3.793769 1_555
Br15 Cs1 3.793769 1_655
Br15 Cs2 3.863860 1_555
Br15 Cs5 3.863860 1_555
Br16 Zr2 2.861557 1_555
Br16 Cs7 3.793769 1_545
Br16 Cs2 3.793769 1_555
Br16 Cs6 3.863860 1_555
Br16 Cs1 3.863860 1_555
Br17 Zr3 2.861557 1_555
Br17 Cs3 3.793769 1_455
Br17 Cs6 3.793769 1_555
Br17 Cs7 3.863860 1_555
Br17 Cs0 3.863860 1_555
Br18 Zr3 2.755539 1_555
Br18 Zr1 2.755539 1_455
Br18 Cs3 4.157887 1_455
Br18 Cs4 4.157887 1_455
Br18 Cs6 4.157887 1_555
Br18 Cs1 4.157887 1_555
Br19 Zr2 2.755539 1_555
Br19 Zr0 2.755539 1_545
Br19 Cs5 4.157887 1_555
Br19 Cs0 4.157887 1_545
Br19 Cs2 4.157887 1_555
Br19 Cs7 4.157887 1_545
Br20 Zr4 2.703240 1_555
Br20 Zr11 2.711088 1_555
Br20 Cs0 4.051296 1_556
Br21 Zr5 2.703240 1_455
Br21 Zr10 2.711088 1_555
Br21 Cs1 4.051296 1_554
Br22 Zr6 2.703240 1_555
Br22 Zr9 2.711088 1_555
Br22 Cs2 4.051296 1_556
Br23 Zr7 2.703240 1_655
Br23 Zr8 2.711088 1_555
Br23 Cs3 4.051296 1_554
Br24 Zr5 2.703240 1_555
Br24 Zr8 2.711088 1_555
Br24 Cs4 4.051296 1_554
Br25 Zr4 2.703240 1_545
Br25 Zr9 2.711088 1_555
Br25 Cs5 4.051296 1_556
Br26 Zr7 2.703240 1_555
Br26 Zr10 2.711088 1_555
Br26 Cs6 4.051296 1_554
Br27 Zr6 2.703240 1_565
Br27 Zr11 2.711088 1_555
Br27 Cs7 4.051296 1_556
Br28 Zr0 2.694575 1_555
Br28 Zr4 2.699945 1_555
Br28 Cs4 4.057281 1_555
Br28 Cs3 4.057281 1_555
Br29 Zr1 2.694575 1_555
Br29 Zr5 2.699945 1_555
Br29 Cs2 4.057281 1_555
Br29 Cs5 4.057281 1_555
Br30 Zr2 2.694575 1_555
Br30 Zr6 2.699945 1_555
Br30 Cs1 4.057281 1_555
Br30 Cs6 4.057281 1_555
Br31 Zr3 2.694575 1_555
Br31 Zr7 2.699945 1_555
Br31 Cs7 4.057281 1_555
Br31 Cs0 4.057281 1_555
Br32 Cs4 3.413223 1_555
Br32 Cs6 3.413223 1_555
Br32 Cs0 3.413223 1_555
Br32 Cs2 3.413223 1_555
Br33 Cs1 3.413223 1_555
Br33 Cs7 3.413223 1_545
Br33 Cs5 3.413223 1_455
Br33 Cs3 3.413223 1_445
