# generated using pymatgen
data_Ca3(MoN2)2
_symmetry_space_group_name_H-M   'P 1'
_cell_length_a   7.04236519
_cell_length_b   8.55334875
_cell_length_c   5.50287938
_cell_angle_alpha   90.00000169
_cell_angle_beta   90.58006323
_cell_angle_gamma   127.39295568
_symmetry_Int_Tables_number   1
_chemical_formula_structural   Ca3(MoN2)2
_chemical_formula_sum   'Ca6 Mo4 N8'
_cell_volume   263.32827869
_cell_formula_units_Z   2
loop_
 _symmetry_equiv_pos_site_id
 _symmetry_equiv_pos_as_xyz
  1  'x, y, z'
loop_
 _atom_site_type_symbol
 _atom_site_label
 _atom_site_symmetry_multiplicity
 _atom_site_fract_x
 _atom_site_fract_y
 _atom_site_fract_z
 _atom_site_occupancy
  Ca  Ca0  1  0.22641200  0.97946300  0.02966800  1
  Ca  Ca1  1  0.77358800  0.75305100  0.47033200  1
  Ca  Ca2  1  0.77358800  0.02053700  0.97033200  1
  Ca  Ca3  1  0.22641200  0.24694900  0.52966800  1
  Ca  Ca4  1  0.00000000  0.60325700  0.75000000  1
  Ca  Ca5  1  0.00000000  0.39674300  0.25000000  1
  Mo  Mo0  1  0.59303500  0.17494600  0.58794100  1
  Mo  Mo1  1  0.40696500  0.58191100  0.91205900  1
  Mo  Mo2  1  0.40696500  0.82505400  0.41205900  1
  Mo  Mo3  1  0.59303500  0.41808900  0.08794100  1
  N  N0  1  0.23562100  0.94658300  0.52141800  1
  N  N1  1  0.76437900  0.71096200  0.97858200  1
  N  N2  1  0.76437900  0.05341700  0.47858200  1
  N  N3  1  0.23562100  0.28903800  0.02141800  1
  N  N4  1  0.69360600  0.26495000  0.92643300  1
  N  N5  1  0.30639400  0.57134400  0.57356700  1
  N  N6  1  0.30639400  0.73505000  0.07356700  1
  N  N7  1  0.69360600  0.42865600  0.42643300  1
loop_
_geom_bond_atom_site_label_1
_geom_bond_atom_site_label_2
_geom_bond_distance
_geom_bond_site_symmetry_2
Ca0 N6 2.484640 1_555
Ca0 N3 2.609434 1_565
Ca0 N1 2.616508 1_454
Ca0 N4 2.718547 1_564
Ca0 N0 2.724804 1_555
Ca0 N0 2.816279 1_554
Ca1 N7 2.484640 1_555
Ca1 N2 2.609434 1_565
Ca1 N0 2.616508 1_655
Ca1 N5 2.718547 1_555
Ca1 N1 2.724804 1_554
Ca1 N1 2.816279 1_555
Ca2 N4 2.484640 1_555
Ca2 N1 2.609434 1_545
Ca2 N3 2.616508 1_656
Ca2 N6 2.718547 1_546
Ca2 N2 2.724804 1_555
Ca2 N2 2.816279 1_556
Ca3 N5 2.484640 1_555
Ca3 N0 2.609434 1_545
Ca3 N2 2.616508 1_455
Ca3 N7 2.718547 1_555
Ca3 N3 2.724804 1_556
Ca3 N3 2.816279 1_555
Ca4 N7 2.462704 1_455
Ca4 N6 2.462704 1_556
Ca4 N4 2.535890 1_455
Ca4 N5 2.535890 1_555
Ca4 N0 2.661417 1_555
Ca4 N1 2.661417 1_455
Ca5 N5 2.462704 1_555
Ca5 N4 2.462704 1_454
Ca5 N6 2.535890 1_555
Ca5 N7 2.535890 1_455
Ca5 N2 2.661417 1_455
Ca5 N3 2.661417 1_555
Mo0 N4 1.968481 1_555
Mo0 N7 2.036354 1_555
Mo0 N0 2.072386 1_545
Mo0 N2 2.106381 1_555
Mo1 N5 1.968481 1_555
Mo1 N6 2.036354 1_556
Mo1 N1 2.072387 1_555
Mo1 N3 2.106381 1_556
Mo2 N6 1.968481 1_555
Mo2 N5 2.036354 1_555
Mo2 N2 2.072386 1_565
Mo2 N0 2.106381 1_555
Mo3 N7 1.968481 1_555
Mo3 N4 2.036354 1_554
Mo3 N3 2.072387 1_555
Mo3 N1 2.106381 1_554
