# generated using pymatgen
data_NdRe3(H2O5)3
_symmetry_space_group_name_H-M   'P 1'
_cell_length_a   13.89069600
_cell_length_b   7.70209800
_cell_length_c   13.24487616
_cell_angle_alpha   76.34365294
_cell_angle_beta   90.00000000
_cell_angle_gamma   90.00000000
_symmetry_Int_Tables_number   1
_chemical_formula_structural   NdRe3(H2O5)3
_chemical_formula_sum   'Nd4 Re12 H24 O60'
_cell_volume   1376.97558177
_cell_formula_units_Z   4
loop_
 _symmetry_equiv_pos_site_id
 _symmetry_equiv_pos_as_xyz
  1  'x, y, z'
loop_
 _atom_site_type_symbol
 _atom_site_label
 _atom_site_symmetry_multiplicity
 _atom_site_fract_x
 _atom_site_fract_y
 _atom_site_fract_z
 _atom_site_occupancy
  Nd  Nd0  1  0.13510500  0.68188600  0.17397800  1
  Nd  Nd1  1  0.63510500  0.31811400  0.32602200  1
  Nd  Nd2  1  0.86489500  0.31811400  0.82602200  1
  Nd  Nd3  1  0.36489500  0.68188600  0.67397800  1
  Re  Re0  1  0.01273100  0.20131000  0.11623000  1
  Re  Re1  1  0.51273100  0.79869000  0.38377000  1
  Re  Re2  1  0.98726900  0.79869000  0.88377000  1
  Re  Re3  1  0.48726900  0.20131000  0.61623000  1
  Re  Re4  1  0.33898000  0.31627600  0.30102800  1
  Re  Re5  1  0.83898000  0.68372400  0.19897200  1
  Re  Re6  1  0.66102000  0.68372400  0.69897200  1
  Re  Re7  1  0.16102000  0.31627600  0.80102800  1
  Re  Re8  1  0.05593800  0.28245000  0.44045400  1
  Re  Re9  1  0.55593800  0.71755000  0.05954600  1
  Re  Re10  1  0.94406200  0.71755000  0.55954600  1
  Re  Re11  1  0.44406200  0.28245000  0.94045400  1
  H  H0  1  0.33592100  0.85027000  0.10724700  1
  H  H1  1  0.83592100  0.14973000  0.39275300  1
  H  H2  1  0.66407900  0.14973000  0.89275300  1
  H  H3  1  0.16407900  0.85027000  0.60724700  1
  H  H4  1  0.27307000  0.02142600  0.10187200  1
  H  H5  1  0.77307000  0.97857400  0.39812800  1
  H  H6  1  0.72693000  0.97857400  0.89812800  1
  H  H7  1  0.22693000  0.02142600  0.60187200  1
  H  H8  1  0.20195400  0.56395500  0.96880000  1
  H  H9  1  0.70195400  0.43604500  0.53120000  1
  H  H10  1  0.79804600  0.43604500  0.03120000  1
  H  H11  1  0.29804600  0.56395500  0.46880000  1
  H  H12  1  0.29634800  0.58869400  0.02953300  1
  H  H13  1  0.79634800  0.41130600  0.47046700  1
  H  H14  1  0.70365200  0.41130600  0.97046700  1
  H  H15  1  0.20365200  0.58869400  0.52953300  1
  H  H16  1  0.14403000  0.77215700  0.39233500  1
  H  H17  1  0.64403000  0.22784300  0.10766500  1
  H  H18  1  0.85597000  0.22784300  0.60766500  1
  H  H19  1  0.35597000  0.77215700  0.89233500  1
  H  H20  1  0.20754500  0.91969500  0.31871300  1
  H  H21  1  0.70754500  0.08030500  0.18128700  1
  H  H22  1  0.79245500  0.08030500  0.68128700  1
  H  H23  1  0.29245500  0.91969500  0.81871300  1
  O  O0  1  0.08702900  0.01100200  0.13696800  1
  O  O1  1  0.58702900  0.98899800  0.36303200  1
  O  O2  1  0.91297100  0.98899800  0.86303200  1
  O  O3  1  0.41297100  0.01100200  0.63696800  1
  O  O4  1  0.96060400  0.24211200  0.99135800  1
  O  O5  1  0.46060400  0.75788800  0.50864200  1
  O  O6  1  0.03939600  0.75788800  0.00864200  1
  O  O7  1  0.53939600  0.24211200  0.49135800  1
  O  O8  1  0.07462500  0.39094300  0.13473100  1
  O  O9  1  0.57462500  0.60905700  0.36526900  1
  O  O10  1  0.92537500  0.60905700  0.86526900  1
  O  O11  1  0.42537500  0.39094300  0.63473100  1
  O  O12  1  0.91955900  0.16075200  0.20503900  1
  O  O13  1  0.41955900  0.83924800  0.29496100  1
  O  O14  1  0.08044100  0.83924800  0.79496100  1
  O  O15  1  0.58044100  0.16075200  0.70503900  1
  O  O16  1  0.46319200  0.30590500  0.27449900  1
  O  O17  1  0.96319200  0.69409500  0.22550100  1
  O  O18  1  0.53680800  0.69409500  0.72550100  1
  O  O19  1  0.03680800  0.30590500  0.77449900  1
  O  O20  1  0.28976100  0.52289100  0.23417100  1
  O  O21  1  0.78976100  0.47710900  0.26582900  1
  O  O22  1  0.71023900  0.47710900  0.76582900  1
  O  O23  1  0.21023900  0.52289100  0.73417100  1
  O  O24  1  0.27570200  0.14087000  0.26986500  1
  O  O25  1  0.77570200  0.85913000  0.23013500  1
  O  O26  1  0.72429800  0.85913000  0.73013500  1
  O  O27  1  0.22429800  0.14087000  0.76986500  1
  O  O28  1  0.32676300  0.29949600  0.43382300  1
  O  O29  1  0.82676300  0.70050400  0.06617700  1
  O  O30  1  0.67323700  0.70050400  0.56617700  1
  O  O31  1  0.17323700  0.29949600  0.93382300  1
  O  O32  1  0.10375300  0.45787200  0.34169900  1
  O  O33  1  0.60375300  0.54212800  0.15830100  1
  O  O34  1  0.89624700  0.54212800  0.65830100  1
  O  O35  1  0.39624700  0.45787200  0.84169900  1
  O  O36  1  0.12586800  0.25793300  0.55225900  1
  O  O37  1  0.62586800  0.74206700  0.94774100  1
  O  O38  1  0.87413200  0.74206700  0.44774100  1
  O  O39  1  0.37413200  0.25793300  0.05225900  1
  O  O40  1  0.93457200  0.32381300  0.46745700  1
  O  O41  1  0.43457200  0.67618700  0.03254300  1
  O  O42  1  0.06542800  0.67618700  0.53254300  1
  O  O43  1  0.56542800  0.32381300  0.96745700  1
  O  O44  1  0.06291300  0.08559300  0.39826900  1
  O  O45  1  0.56291300  0.91440700  0.10173100  1
  O  O46  1  0.93708700  0.91440700  0.60173100  1
  O  O47  1  0.43708700  0.08559300  0.89826900  1
  O  O48  1  0.26981500  0.89256400  0.10874900  1
  O  O49  1  0.76981500  0.10743600  0.39125100  1
  O  O50  1  0.73018500  0.10743600  0.89125100  1
  O  O51  1  0.23018500  0.89256400  0.60874900  1
  O  O52  1  0.22647100  0.60537000  0.02782100  1
  O  O53  1  0.72647100  0.39463000  0.47217900  1
  O  O54  1  0.77352900  0.39463000  0.97217900  1
  O  O55  1  0.27352900  0.60537000  0.52782100  1
  O  O56  1  0.17924500  0.80014000  0.32644300  1
  O  O57  1  0.67924500  0.19986000  0.17355700  1
  O  O58  1  0.82075500  0.19986000  0.67355700  1
  O  O59  1  0.32075500  0.80014000  0.82644300  1
loop_
_geom_bond_atom_site_label_1
_geom_bond_atom_site_label_2
_geom_bond_distance
_geom_bond_site_symmetry_2
Nd0 O56 2.480299 1_555
Nd0 O17 2.491453 1_455
Nd0 O48 2.493776 1_555
Nd0 O52 2.498834 1_555
Nd0 O20 2.507855 1_555
Nd0 O32 2.508298 1_555
Nd0 O6 2.510040 1_555
Nd0 O0 2.554438 1_565
Nd0 O8 2.558817 1_555
Nd1 O57 2.480299 1_555
Nd1 O16 2.491453 1_555
Nd1 O49 2.493776 1_555
Nd1 O53 2.498834 1_555
Nd1 O21 2.507855 1_555
Nd1 O33 2.508298 1_555
Nd1 O7 2.510040 1_555
Nd1 O1 2.554438 1_545
Nd1 O9 2.558817 1_555
Nd2 O58 2.480299 1_555
Nd2 O19 2.491453 1_655
Nd2 O50 2.493776 1_555
Nd2 O54 2.498834 1_555
Nd2 O22 2.507855 1_555
Nd2 O34 2.508298 1_555
Nd2 O4 2.510040 1_555
Nd2 O2 2.554438 1_545
Nd2 O10 2.558817 1_555
Nd3 O59 2.480299 1_555
Nd3 O18 2.491453 1_555
Nd3 O51 2.493776 1_555
Nd3 O55 2.498834 1_555
Nd3 O23 2.507855 1_555
Nd3 O35 2.508298 1_555
Nd3 O5 2.510040 1_555
Nd3 O3 2.554438 1_565
Nd3 O11 2.558817 1_555
H0 O48 0.976099 1_555
H1 O49 0.976099 1_555
H2 O50 0.976099 1_555
H3 O51 0.976099 1_555
H4 O48 0.976076 1_545
H5 O49 0.976076 1_565
H6 O50 0.976076 1_565
H7 O51 0.976076 1_545
H8 O52 0.972918 1_556
H9 O53 0.972918 1_555
H10 O54 0.972918 1_554
H11 O55 0.972918 1_555
H12 O52 0.978661 1_555
H13 O53 0.978661 1_555
H14 O54 0.978661 1_555
H15 O55 0.978661 1_555
H16 O56 0.979067 1_555
H17 O57 0.979067 1_555
H18 O58 0.979067 1_555
H19 O59 0.979067 1_555
H20 O56 0.984081 1_555
H21 O57 0.984081 1_555
H22 O58 0.984081 1_555
H23 O59 0.984081 1_555
O0 Re0 1.760383 1_555
O1 Re1 1.760383 1_555
O2 Re2 1.760383 1_555
O3 Re3 1.760383 1_555
O4 Re0 1.764385 1_656
O5 Re1 1.764385 1_555
O6 Re2 1.764385 1_454
O7 Re3 1.764385 1_555
O8 Re0 1.761104 1_555
O9 Re1 1.761104 1_555
O10 Re2 1.761104 1_555
O11 Re3 1.761104 1_555
O12 Re0 1.727047 1_655
O13 Re1 1.727047 1_555
O14 Re2 1.727047 1_455
O15 Re3 1.727047 1_555
O16 Re4 1.766372 1_555
O17 Re5 1.766372 1_555
O18 Re6 1.766372 1_555
O19 Re7 1.766372 1_555
O20 Re4 1.765958 1_555
O21 Re5 1.765958 1_555
O22 Re6 1.765958 1_555
O23 Re7 1.765958 1_555
O24 Re4 1.741107 1_555
O25 Re5 1.741107 1_555
O26 Re6 1.741107 1_555
O27 Re7 1.741107 1_555
O28 Re4 1.741186 1_555
O29 Re5 1.741186 1_555
O30 Re6 1.741186 1_555
O31 Re7 1.741186 1_555
O32 Re8 1.772858 1_555
O33 Re9 1.772858 1_555
O34 Re10 1.772858 1_555
O35 Re11 1.772858 1_555
O36 Re8 1.743584 1_555
O37 Re9 1.743584 1_556
O38 Re10 1.743584 1_555
O39 Re11 1.743584 1_554
O40 Re8 1.767860 1_655
O41 Re9 1.767860 1_555
O42 Re10 1.767860 1_455
O43 Re11 1.767860 1_555
O44 Re8 1.737958 1_555
O45 Re9 1.737958 1_555
O46 Re10 1.737958 1_555
O47 Re11 1.737958 1_555
