# generated using pymatgen
data_NdCd3
_symmetry_space_group_name_H-M   'P 1'
_cell_length_a   6.78574754
_cell_length_b   6.78574870
_cell_length_c   4.94943799
_cell_angle_alpha   90.00000000
_cell_angle_beta   90.00000000
_cell_angle_gamma   120.00000439
_symmetry_Int_Tables_number   1
_chemical_formula_structural   NdCd3
_chemical_formula_sum   'Nd2 Cd6'
_cell_volume   197.37037662
_cell_formula_units_Z   2
loop_
 _symmetry_equiv_pos_site_id
 _symmetry_equiv_pos_as_xyz
  1  'x, y, z'
loop_
 _atom_site_type_symbol
 _atom_site_label
 _atom_site_symmetry_multiplicity
 _atom_site_fract_x
 _atom_site_fract_y
 _atom_site_fract_z
 _atom_site_occupancy
  Nd  Nd0  1  0.66666600  0.33333200  0.25000000  1
  Nd  Nd1  1  0.33333300  0.66666700  0.74999900  1
  Cd  Cd0  1  0.84324034  0.15675966  0.74999900  1
  Cd  Cd1  1  0.31351832  0.15675966  0.74999900  1
  Cd  Cd2  1  0.84324034  0.68647968  0.74999900  1
  Cd  Cd3  1  0.15675866  0.84324134  0.25000000  1
  Cd  Cd4  1  0.68648068  0.84324134  0.25000000  1
  Cd  Cd5  1  0.15675966  0.31351932  0.25000000  1
loop_
_geom_bond_atom_site_label_1
_geom_bond_atom_site_label_2
_geom_bond_distance
_geom_bond_site_symmetry_2
Cd0 Cd4 3.085249 1_545
Cd0 Cd5 3.085253 1_655
Cd0 Cd4 3.085257 1_546
Cd0 Cd5 3.085260 1_656
Cd0 Cd1 3.191188 1_655
Cd0 Cd2 3.191202 1_545
Cd0 Nd0 3.229726 1_555
Cd0 Nd0 3.229734 1_556
Cd0 Nd1 3.394871 1_545
Cd0 Nd1 3.394871 1_655
Cd0 Cd2 3.594547 1_555
Cd0 Cd1 3.594560 1_555
Cd1 Cd5 3.085249 1_555
Cd1 Cd3 3.085249 1_545
Cd1 Cd5 3.085257 1_556
Cd1 Cd3 3.085257 1_546
Cd1 Cd2 3.191194 1_445
Cd1 Nd0 3.229730 1_555
Cd1 Nd0 3.229737 1_556
Cd1 Nd1 3.394872 1_545
Cd1 Nd1 3.394872 1_555
Cd1 Cd2 3.594553 1_555
Cd2 Cd3 3.085249 1_655
Cd2 Cd3 3.085257 1_656
Cd2 Cd4 3.085260 1_555
Cd2 Cd4 3.085268 1_556
Cd2 Nd0 3.229730 1_555
Cd2 Nd0 3.229738 1_556
Cd2 Nd1 3.394864 1_655
Cd2 Nd1 3.394878 1_555
Cd3 Cd5 3.191185 1_565
Cd3 Cd4 3.191188 1_455
Cd3 Nd1 3.229734 1_555
Cd3 Nd1 3.229741 1_554
Cd3 Nd0 3.394865 1_565
Cd3 Nd0 3.394879 1_455
Cd3 Cd4 3.594560 1_555
Cd3 Cd5 3.594564 1_555
Cd4 Cd5 3.191191 1_665
Cd4 Nd1 3.229730 1_555
Cd4 Nd1 3.229737 1_554
Cd4 Nd0 3.394858 1_565
Cd4 Nd0 3.394885 1_555
Cd4 Cd5 3.594557 1_555
Cd5 Nd1 3.229730 1_555
Cd5 Nd1 3.229738 1_554
Cd5 Nd0 3.394871 1_555
Cd5 Nd0 3.394871 1_455
