# generated using pymatgen
data_Re3S4Br3
_symmetry_space_group_name_H-M   'P 1'
_cell_length_a   9.23397900
_cell_length_b   9.25046501
_cell_length_c   12.99224114
_cell_angle_alpha   83.29417665
_cell_angle_beta   83.23071868
_cell_angle_gamma   82.66387892
_symmetry_Int_Tables_number   1
_chemical_formula_structural   Re3S4Br3
_chemical_formula_sum   'Re12 S16 Br12'
_cell_volume   1087.17628976
_cell_formula_units_Z   4
loop_
 _symmetry_equiv_pos_site_id
 _symmetry_equiv_pos_as_xyz
  1  'x, y, z'
loop_
 _atom_site_type_symbol
 _atom_site_label
 _atom_site_symmetry_multiplicity
 _atom_site_fract_x
 _atom_site_fract_y
 _atom_site_fract_z
 _atom_site_occupancy
  Re  Re0  1  0.69423700  0.47253900  0.94388700  1
  Re  Re1  1  0.30576300  0.52746100  0.05611300  1
  Re  Re2  1  0.47924200  0.68852000  0.93200700  1
  Re  Re3  1  0.52075800  0.31148000  0.06799300  1
  Re  Re4  1  0.44078100  0.42287100  0.88109800  1
  Re  Re5  1  0.55921900  0.57712900  0.11890200  1
  Re  Re6  1  0.88690500  0.19086200  0.49978500  1
  Re  Re7  1  0.11309500  0.80913800  0.50021500  1
  Re  Re8  1  0.83006300  0.91456000  0.50827400  1
  Re  Re9  1  0.16993700  0.08544000  0.49172600  1
  Re  Re10  1  0.98820900  0.98635300  0.64614700  1
  Re  Re11  1  0.01179100  0.01364700  0.35385300  1
  S  S0  1  0.60125200  0.57936100  0.77982700  1
  S  S1  1  0.39874800  0.42063900  0.22017300  1
  S  S2  1  0.95671200  0.76181300  0.37627800  1
  S  S3  1  0.04328800  0.23818700  0.62372200  1
  S  S4  1  0.63793500  0.23302700  0.90381300  1
  S  S5  1  0.36206500  0.76697300  0.09618700  1
  S  S6  1  0.26972500  0.92294000  0.36122400  1
  S  S7  1  0.73027500  0.07706000  0.63877600  1
  S  S8  1  0.24679400  0.89313900  0.62526000  1
  S  S9  1  0.75320600  0.10686100  0.37474000  1
  S  S10  1  0.24849900  0.62635300  0.88378300  1
  S  S11  1  0.75150100  0.37364700  0.11621700  1
  S  S12  1  0.93483700  0.73680900  0.64001700  1
  S  S13  1  0.06516300  0.26319100  0.35998300  1
  S  S14  1  0.71575100  0.71282400  0.98879200  1
  S  S15  1  0.28424900  0.28717600  0.01120800  1
  Br  Br0  1  0.64410000  0.68034800  0.26725700  1
  Br  Br1  1  0.35590000  0.31965200  0.73274300  1
  Br  Br2  1  0.97630800  0.96846500  0.84112100  1
  Br  Br3  1  0.02369200  0.03153500  0.15887900  1
  Br  Br4  1  0.59650100  0.79562100  0.51713100  1
  Br  Br5  1  0.40349900  0.20437900  0.48286900  1
  Br  Br6  1  0.95574200  0.42478700  0.86349400  1
  Br  Br7  1  0.04425800  0.57521300  0.13650600  1
  Br  Br8  1  0.44747600  0.94606600  0.84361700  1
  Br  Br9  1  0.55252400  0.05393400  0.15638300  1
  Br  Br10  1  0.73500100  0.43512000  0.50286600  1
  Br  Br11  1  0.26499900  0.56488000  0.49713400  1
loop_
_geom_bond_atom_site_label_1
_geom_bond_atom_site_label_2
_geom_bond_distance
_geom_bond_site_symmetry_2
Re0 S14 2.400708 1_555
Re0 S11 2.409687 1_556
Re0 S0 2.445377 1_555
Re0 S4 2.465282 1_555
Re1 S15 2.400708 1_555
Re1 S10 2.409687 1_554
Re1 S1 2.445377 1_555
Re1 S5 2.465282 1_555
Re2 S0 2.418412 1_555
Re2 S5 2.421631 1_556
Re2 S14 2.430701 1_555
Re2 S10 2.444342 1_555
Re3 S1 2.418412 1_555
Re3 S4 2.421631 1_554
Re3 S15 2.430701 1_555
Re3 S11 2.444342 1_555
Re4 S0 2.380289 1_555
Re4 S4 2.382135 1_555
Re4 S10 2.417440 1_555
Re4 S15 2.431905 1_556
Re5 S1 2.380289 1_555
Re5 S5 2.382135 1_555
Re5 S11 2.417440 1_555
Re5 S14 2.431905 1_554
Re6 S3 2.396649 1_655
Re6 S13 2.397665 1_655
Re6 S9 2.404163 1_555
Re6 S7 2.406273 1_555
Re7 S2 2.396649 1_455
Re7 S12 2.397665 1_455
Re7 S8 2.404163 1_555
Re7 S6 2.406273 1_555
Re8 S7 2.420047 1_565
Re8 S12 2.428212 1_555
Re8 S9 2.434144 1_565
Re8 S2 2.444639 1_555
Re9 S6 2.420047 1_545
Re9 S13 2.428212 1_555
Re9 S8 2.434144 1_545
Re9 S3 2.444639 1_555
Re10 S3 2.424798 1_665
Re10 S8 2.427897 1_655
Re10 S7 2.431178 1_565
Re10 S12 2.433240 1_555
Re11 S2 2.424798 1_445
Re11 S9 2.427897 1_455
Re11 S6 2.431178 1_545
Re11 S13 2.433240 1_555
Br0 Re5 2.493633 1_555
Br1 Re4 2.493633 1_555
Br2 Re10 2.509468 1_555
Br3 Re11 2.509468 1_555
Br4 Re8 2.528452 1_555
Br5 Re9 2.528452 1_555
Br6 Re0 2.521462 1_555
Br7 Re1 2.521462 1_555
Br8 Re2 2.518479 1_555
Br9 Re3 2.518479 1_555
Br10 Re6 2.504585 1_555
Br11 Re7 2.504585 1_555
