# generated using pymatgen
data_YMg6Mn
_symmetry_space_group_name_H-M   'P 1'
_cell_length_a   5.05889800
_cell_length_b   6.47313700
_cell_length_c   11.25931300
_cell_angle_alpha   90.00000000
_cell_angle_beta   90.00000000
_cell_angle_gamma   90.00000000
_symmetry_Int_Tables_number   1
_chemical_formula_structural   YMg6Mn
_chemical_formula_sum   'Y2 Mg12 Mn2'
_cell_volume   368.70804526
_cell_formula_units_Z   2
loop_
 _symmetry_equiv_pos_site_id
 _symmetry_equiv_pos_as_xyz
  1  'x, y, z'
loop_
 _atom_site_type_symbol
 _atom_site_label
 _atom_site_symmetry_multiplicity
 _atom_site_fract_x
 _atom_site_fract_y
 _atom_site_fract_z
 _atom_site_occupancy
  Y  Y0  1  0.50000000  0.50000000  0.17398000  1
  Y  Y1  1  0.50000000  0.00000000  0.67398000  1
  Mg  Mg0  1  0.00000000  0.75492900  0.08025400  1
  Mg  Mg1  1  0.00000000  0.24507100  0.08025400  1
  Mg  Mg2  1  0.00000000  0.00000000  0.33372300  1
  Mg  Mg3  1  0.50000000  0.26030600  0.41775800  1
  Mg  Mg4  1  0.50000000  0.73969400  0.41775800  1
  Mg  Mg5  1  0.50000000  0.00000000  0.16305300  1
  Mg  Mg6  1  0.00000000  0.25492900  0.58025400  1
  Mg  Mg7  1  0.00000000  0.74507100  0.58025400  1
  Mg  Mg8  1  0.00000000  0.50000000  0.83372300  1
  Mg  Mg9  1  0.50000000  0.76030600  0.91775800  1
  Mg  Mg10  1  0.50000000  0.23969400  0.91775800  1
  Mg  Mg11  1  0.50000000  0.50000000  0.66305300  1
  Mn  Mn0  1  0.00000000  0.50000000  0.33322100  1
  Mn  Mn1  1  0.00000000  0.00000000  0.83322100  1
loop_
_geom_bond_atom_site_label_1
_geom_bond_atom_site_label_2
_geom_bond_distance
_geom_bond_site_symmetry_2
Mg0 Mg9 3.121976 1_454
Mg0 Mg9 3.121976 1_554
Mg0 Mg5 3.127909 1_565
Mg0 Mg5 3.127909 1_465
Mg0 Mg1 3.172756 1_565
Mg0 Y0 3.199200 1_455
Mg0 Y0 3.199200 1_555
Mg0 Mn1 3.202016 1_564
Mg0 Mg8 3.229245 1_554
Mg0 Mg2 3.265159 1_565
Mg0 Mn0 3.291742 1_555
Mg0 Mg1 3.300381 1_555
Mg1 Mg10 3.121976 1_454
Mg1 Mg10 3.121976 1_554
Mg1 Mg5 3.127909 1_455
Mg1 Mg5 3.127909 1_555
Mg1 Y0 3.199200 1_455
Mg1 Y0 3.199200 1_555
Mg1 Mn1 3.202016 1_554
Mg1 Mg8 3.229245 1_554
Mg1 Mg2 3.265159 1_555
Mg1 Mn0 3.291742 1_555
Mg2 Mg5 3.176596 1_455
Mg2 Mg5 3.176596 1_555
Mg2 Mg3 3.183171 1_455
Mg2 Mg4 3.183171 1_445
Mg2 Mg3 3.183171 1_555
Mg2 Mg4 3.183171 1_545
Mg2 Mg6 3.229245 1_555
Mg2 Mg7 3.229245 1_545
Mg2 Mn0 3.236573 1_545
Mg2 Mn0 3.236573 1_555
Mg3 Mg4 3.103144 1_555
Mg3 Mn0 3.116322 1_555
Mg3 Mn0 3.116322 1_655
Mg3 Mg6 3.121976 1_655
Mg3 Mg6 3.121976 1_555
Mg3 Y0 3.152960 1_555
Mg3 Mg5 3.326185 1_555
Mg3 Y1 3.340923 1_555
Mg3 Mg4 3.369993 1_545
Mg4 Mn0 3.116322 1_555
Mg4 Mn0 3.116322 1_655
Mg4 Mg7 3.121976 1_655
Mg4 Mg7 3.121976 1_555
Mg4 Y0 3.152960 1_555
Mg4 Mg5 3.326185 1_565
Mg4 Y1 3.340923 1_565
Mg5 Mg9 3.167840 1_544
Mg5 Y0 3.238906 1_545
Mg5 Y0 3.238906 1_555
Mg6 Mg7 3.172756 1_555
Mg6 Y1 3.199200 1_555
Mg6 Y1 3.199200 1_455
Mg6 Mn0 3.202016 1_555
Mg6 Mg8 3.265159 1_555
Mg6 Mn1 3.291742 1_555
Mg6 Mg7 3.300381 1_545
Mg7 Y1 3.199200 1_465
Mg7 Y1 3.199200 1_565
Mg7 Mn0 3.202016 1_555
Mg7 Mg8 3.265159 1_555
Mg7 Mn1 3.291742 1_565
Mg8 Mg9 3.183171 1_455
Mg8 Mg9 3.183171 1_555
Mg8 Mn1 3.236573 1_555
Mg8 Mn1 3.236573 1_565
Mg9 Mn1 3.116322 1_665
Mg9 Mn1 3.116322 1_565
Mg9 Y1 3.152960 1_565
Mg9 Y0 3.340923 1_556
Mg10 Mg9 3.103144 1_545
Mg10 Mn1 3.116322 1_555
Mg10 Mn1 3.116322 1_655
Mg10 Y1 3.152960 1_555
Mg10 Mg5 3.167840 1_556
Mg10 Mg8 3.183171 1_655
Mg10 Mg8 3.183171 1_555
Mg10 Mg11 3.326185 1_555
Mg10 Y0 3.340923 1_556
Mg10 Mg9 3.369993 1_555
Mg11 Mg7 3.127909 1_655
Mg11 Mg7 3.127909 1_555
Mg11 Mg6 3.127909 1_655
Mg11 Mg6 3.127909 1_555
Mg11 Mg4 3.167840 1_555
Mg11 Mg3 3.167840 1_555
Mg11 Mg8 3.176596 1_555
Mg11 Mg8 3.176596 1_655
Mg11 Y1 3.238906 1_555
Mg11 Y1 3.238906 1_565
Mg11 Mg9 3.326185 1_555
Mn0 Y0 3.100445 1_555
Mn0 Y0 3.100445 1_455
Mn1 Y1 3.100445 1_455
Mn1 Y1 3.100445 1_555
