# generated using pymatgen
data_KPr9(Si3O13)2
_symmetry_space_group_name_H-M   'P 1'
_cell_length_a   9.71719103
_cell_length_b   9.71719103
_cell_length_c   7.21729000
_cell_angle_alpha   90.00000000
_cell_angle_beta   90.00000000
_cell_angle_gamma   119.99999336
_symmetry_Int_Tables_number   1
_chemical_formula_structural   KPr9(Si3O13)2
_chemical_formula_sum   'K1 Pr9 Si6 O26'
_cell_volume   590.18245917
_cell_formula_units_Z   1
loop_
 _symmetry_equiv_pos_site_id
 _symmetry_equiv_pos_as_xyz
  1  'x, y, z'
loop_
 _atom_site_type_symbol
 _atom_site_label
 _atom_site_symmetry_multiplicity
 _atom_site_fract_x
 _atom_site_fract_y
 _atom_site_fract_z
 _atom_site_occupancy
  K  K0  1  0.00000000  0.00000000  0.49876200  1
  Pr  Pr0  1  0.66666700  0.33333300  0.99944800  1
  Pr  Pr1  1  0.66666700  0.33333300  0.49906900  1
  Pr  Pr2  1  0.00000000  0.00000000  0.99767900  1
  Pr  Pr3  1  0.34189300  0.43415900  0.74846900  1
  Pr  Pr4  1  0.56584100  0.90773400  0.74846900  1
  Pr  Pr5  1  0.09226600  0.65810700  0.74846900  1
  Pr  Pr6  1  0.32094700  0.90005800  0.25150100  1
  Pr  Pr7  1  0.09994200  0.42088900  0.25150100  1
  Pr  Pr8  1  0.57911100  0.67905300  0.25150100  1
  Si  Si0  1  0.96186300  0.26847600  0.75337900  1
  Si  Si1  1  0.73152400  0.69338600  0.75337900  1
  Si  Si2  1  0.30661400  0.03813700  0.75337900  1
  Si  Si3  1  0.69994500  0.06525400  0.24400600  1
  Si  Si4  1  0.93474600  0.63469100  0.24400600  1
  Si  Si5  1  0.36530900  0.30005500  0.24400600  1
  O  O0  1  0.85603400  0.07534300  0.76916800  1
  O  O1  1  0.92465700  0.78069100  0.76916800  1
  O  O2  1  0.21930900  0.14396600  0.76916800  1
  O  O3  1  0.80162400  0.26220400  0.24940700  1
  O  O4  1  0.73779600  0.53942000  0.24940700  1
  O  O5  1  0.46058000  0.19837600  0.24940700  1
  O  O6  1  0.65241600  0.49771100  0.74938600  1
  O  O7  1  0.50228900  0.15470500  0.74938600  1
  O  O8  1  0.84529500  0.34758400  0.74938600  1
  O  O9  1  0.02066800  0.82581800  0.22890600  1
  O  O10  1  0.17418200  0.19485100  0.22890600  1
  O  O11  1  0.80514900  0.97933200  0.22890600  1
  O  O12  1  0.33333300  0.66666700  0.75585200  1
  O  O13  1  0.33333300  0.66666700  0.25115100  1
  O  O14  1  0.08258600  0.33849800  0.57395200  1
  O  O15  1  0.66150200  0.74408800  0.57395200  1
  O  O16  1  0.25591200  0.91741400  0.57395200  1
  O  O17  1  0.57797600  0.01705200  0.06461500  1
  O  O18  1  0.98294800  0.56092400  0.06461500  1
  O  O19  1  0.43907600  0.42202400  0.06461500  1
  O  O20  1  0.58740400  0.01326000  0.43225600  1
  O  O21  1  0.98674000  0.57414400  0.43225600  1
  O  O22  1  0.42585600  0.41259600  0.43225600  1
  O  O23  1  0.08248600  0.32832200  0.93430300  1
  O  O24  1  0.67167800  0.75416500  0.93430300  1
  O  O25  1  0.24583500  0.91751400  0.93430300  1
loop_
_geom_bond_atom_site_label_1
_geom_bond_atom_site_label_2
_geom_bond_distance
_geom_bond_site_symmetry_2
K0 O9 2.652975 1_545
K0 O10 2.652979 1_555
K0 O11 2.652982 1_445
K0 O0 2.706656 1_455
K0 O1 2.706656 1_445
K0 O2 2.706656 1_555
K0 O16 3.019607 1_545
K0 O14 3.019608 1_555
K0 O15 3.019608 1_445
O0 Si0 1.631753 1_555
O0 Pr4 2.456397 1_545
O0 Pr2 2.497441 1_655
O1 Si1 1.631752 1_555
O1 Pr5 2.456396 1_655
O1 Pr2 2.497441 1_665
O2 Si2 1.631761 1_555
O2 Pr3 2.456397 1_555
O2 Pr2 2.497441 1_555
O3 Si3 1.658151 1_555
O3 Pr7 2.512197 1_655
O3 Pr1 2.520057 1_555
O3 Pr0 2.521591 1_554
O4 Si4 1.658151 1_555
O4 Pr8 2.512197 1_555
O4 Pr1 2.520064 1_555
O4 Pr0 2.521597 1_554
O5 Si5 1.658151 1_555
O5 Pr6 2.512197 1_545
O5 Pr1 2.520063 1_555
O5 Pr0 2.521596 1_554
O6 Si1 1.656948 1_555
O6 Pr0 2.459453 1_555
O6 Pr1 2.460803 1_555
O6 Pr3 2.760939 1_555
O7 Si2 1.656950 1_555
O7 Pr0 2.459449 1_555
O7 Pr1 2.460800 1_555
O7 Pr4 2.760939 1_545
O8 Si0 1.656957 1_555
O8 Pr0 2.459446 1_555
O8 Pr1 2.460797 1_555
O8 Pr5 2.760940 1_655
O9 Si4 1.614806 1_455
O9 Pr2 2.455610 1_564
O9 Pr6 2.637425 1_555
O10 Si5 1.614805 1_555
O10 Pr2 2.455614 1_554
O10 Pr7 2.637416 1_555
O11 Si3 1.614797 1_565
O11 Pr2 2.455617 1_664
O11 Pr8 2.637423 1_555
O12 Pr5 2.302648 1_555
O12 Pr4 2.302653 1_555
O12 Pr3 2.302658 1_555
O13 Pr6 2.330417 1_555
O13 Pr7 2.330422 1_555
O13 Pr8 2.330427 1_555
O14 Si0 1.648599 1_455
O14 Pr7 2.439336 1_555
O14 Pr3 2.541131 1_555
O15 Si1 1.648604 1_555
O15 Pr8 2.439336 1_555
O15 Pr4 2.541131 1_555
O16 Si2 1.648599 1_565
O16 Pr6 2.439336 1_555
O16 Pr5 2.541131 1_555
O17 Si3 1.656876 1_555
O17 Pr4 2.494651 1_544
O17 Pr6 2.551534 1_545
O17 Pr0 2.785823 1_554
O18 Si4 1.656876 1_555
O18 Pr5 2.494651 1_654
O18 Pr7 2.551534 1_655
O18 Pr0 2.785825 1_554
O19 Si5 1.656876 1_555
O19 Pr3 2.494651 1_554
O19 Pr8 2.551534 1_555
O19 Pr0 2.785832 1_554
O20 Si3 1.656687 1_555
O20 Pr4 2.467583 1_545
O20 Pr6 2.601494 1_545
O20 Pr1 2.846689 1_555
O21 Si4 1.656687 1_555
O21 Pr5 2.467583 1_655
O21 Pr7 2.601494 1_655
O21 Pr1 2.846692 1_555
O22 Si5 1.656687 1_555
O22 Pr3 2.467583 1_555
O22 Pr8 2.601494 1_555
O22 Pr1 2.846698 1_555
O23 Si0 1.653928 1_455
O23 Pr7 2.434383 1_556
O23 Pr3 2.572572 1_555
O23 Pr2 2.910831 1_555
O24 Si1 1.653938 1_555
O24 Pr8 2.434384 1_556
O24 Pr4 2.572564 1_555
O24 Pr2 2.910828 1_665
O25 Si2 1.653928 1_565
O25 Pr6 2.434387 1_556
O25 Pr5 2.572571 1_555
O25 Pr2 2.910821 1_565
