# generated using pymatgen
data_Zr2SO3
_symmetry_space_group_name_H-M   'P 1'
_cell_length_a   3.85926700
_cell_length_b   3.85926700
_cell_length_c   5.52412600
_cell_angle_alpha   90.00000000
_cell_angle_beta   90.00000000
_cell_angle_gamma   90.00000000
_symmetry_Int_Tables_number   1
_chemical_formula_structural   Zr2SO3
_chemical_formula_sum   'Zr2 S1 O3'
_cell_volume   82.27601101
_cell_formula_units_Z   1
loop_
 _symmetry_equiv_pos_site_id
 _symmetry_equiv_pos_as_xyz
  1  'x, y, z'
loop_
 _atom_site_type_symbol
 _atom_site_label
 _atom_site_symmetry_multiplicity
 _atom_site_fract_x
 _atom_site_fract_y
 _atom_site_fract_z
 _atom_site_occupancy
  Zr  Zr0  1  0.50000000  0.00000000  0.78109100  1
  Zr  Zr1  1  0.00000000  0.50000000  0.21890900  1
  S  S0  1  0.50000000  0.50000000  0.50000000  1
  O  O0  1  0.00000000  0.00000000  0.00000000  1
  O  O1  1  0.50000000  0.50000000  0.00000000  1
  O  O2  1  0.00000000  0.00000000  0.50000000  1
loop_
_geom_bond_atom_site_label_1
_geom_bond_atom_site_label_2
_geom_bond_distance
_geom_bond_site_symmetry_2
S0 Zr0 2.476816 1_565
S0 Zr1 2.476816 1_655
S0 Zr0 2.476816 1_555
S0 Zr1 2.476816 1_555
O0 Zr1 2.277245 1_555
O0 Zr0 2.277245 1_554
O0 Zr1 2.277245 1_545
O0 Zr0 2.277245 1_454
O1 Zr1 2.277245 1_555
O1 Zr0 2.277245 1_564
O1 Zr1 2.277245 1_655
O1 Zr0 2.277245 1_554
O2 Zr0 2.476816 1_555
O2 Zr1 2.476816 1_555
O2 Zr1 2.476816 1_545
O2 Zr0 2.476816 1_455
