# generated using pymatgen
data_BaMo(PO4)2
_symmetry_space_group_name_H-M   'P 1'
_cell_length_a   4.97427562
_cell_length_b   5.00243597
_cell_length_c   7.97844140
_cell_angle_alpha   86.29912934
_cell_angle_beta   86.81541981
_cell_angle_gamma   64.64844502
_symmetry_Int_Tables_number   1
_chemical_formula_structural   BaMo(PO4)2
_chemical_formula_sum   'Ba1 Mo1 P2 O8'
_cell_volume   178.95251919
_cell_formula_units_Z   1
loop_
 _symmetry_equiv_pos_site_id
 _symmetry_equiv_pos_as_xyz
  1  'x, y, z'
loop_
 _atom_site_type_symbol
 _atom_site_label
 _atom_site_symmetry_multiplicity
 _atom_site_fract_x
 _atom_site_fract_y
 _atom_site_fract_z
 _atom_site_occupancy
  Ba  Ba0  1  0.00000000  0.00000000  0.00000000  1
  Mo  Mo0  1  0.00000000  0.00000000  0.50000000  1
  P  P0  1  0.36391000  0.36792300  0.28805800  1
  P  P1  1  0.63609000  0.63207700  0.71194200  1
  O  O0  1  0.75742800  0.29279000  0.69045200  1
  O  O1  1  0.69288900  0.68695700  0.88938700  1
  O  O2  1  0.24257200  0.70721000  0.30954800  1
  O  O3  1  0.22531200  0.24053300  0.43232300  1
  O  O4  1  0.77468800  0.75946700  0.56767700  1
  O  O5  1  0.71013600  0.22001300  0.31174100  1
  O  O6  1  0.30711100  0.31304300  0.11061300  1
  O  O7  1  0.28986400  0.77998700  0.68825900  1
loop_
_geom_bond_atom_site_label_1
_geom_bond_atom_site_label_2
_geom_bond_distance
_geom_bond_site_symmetry_2
Ba0 O1 2.818095 1_444
Ba0 O6 2.818095 1_555
Ba0 O2 2.837491 1_545
Ba0 O0 2.837491 1_454
Ba0 O5 2.841212 1_455
Ba0 O7 2.841212 1_544
Ba0 O6 3.191322 1_545
Ba0 O1 3.191322 1_454
Ba0 O6 3.213848 1_455
Ba0 O1 3.213848 1_544
Mo0 O4 1.999799 1_445
Mo0 O3 1.999799 1_555
Mo0 O7 2.052950 1_545
Mo0 O5 2.052950 1_455
Mo0 O0 2.116666 1_455
Mo0 O2 2.116666 1_545
O0 P1 1.556666 1_555
O1 P1 1.523331 1_555
O2 P0 1.556666 1_555
O3 P0 1.549065 1_555
O4 P1 1.549065 1_555
O5 P0 1.573564 1_555
O6 P0 1.523331 1_555
O7 P1 1.573564 1_555
