# generated using pymatgen
data_NaLiFePO4F
_symmetry_space_group_name_H-M   'P 1'
_cell_length_a   6.42327408
_cell_length_b   11.16342491
_cell_length_c   11.56239471
_cell_angle_alpha   90.00000000
_cell_angle_beta   90.00000000
_cell_angle_gamma   90.00000000
_symmetry_Int_Tables_number   1
_chemical_formula_structural   NaLiFePO4F
_chemical_formula_sum   'Na8 Li8 Fe8 P8 O32 F8'
_cell_volume   829.09004421
_cell_formula_units_Z   8
loop_
 _symmetry_equiv_pos_site_id
 _symmetry_equiv_pos_as_xyz
  1  'x, y, z'
loop_
 _atom_site_type_symbol
 _atom_site_label
 _atom_site_symmetry_multiplicity
 _atom_site_fract_x
 _atom_site_fract_y
 _atom_site_fract_z
 _atom_site_occupancy
  Na  Na0  1  0.99462734  0.27726823  0.84286609  1
  Na  Na1  1  0.50537266  0.77726823  0.65713391  1
  Na  Na2  1  0.49462734  0.72273177  0.15713391  1
  Na  Na3  1  0.00537266  0.22273177  0.34286609  1
  Na  Na4  1  0.00537266  0.72273177  0.15713391  1
  Na  Na5  1  0.49462734  0.22273177  0.34286609  1
  Na  Na6  1  0.50537266  0.27726823  0.84286609  1
  Na  Na7  1  0.99462734  0.77726823  0.65713391  1
  Li  Li0  1  0.75000000  0.23049903  0.08631807  1
  Li  Li1  1  0.75000000  0.73049903  0.41368193  1
  Li  Li2  1  0.25000000  0.76950097  0.91368193  1
  Li  Li3  1  0.25000000  0.26950097  0.58631807  1
  Li  Li4  1  0.75000000  0.05573981  0.73060410  1
  Li  Li5  1  0.75000000  0.55573981  0.76939590  1
  Li  Li6  1  0.25000000  0.94426019  0.26939590  1
  Li  Li7  1  0.25000000  0.44426019  0.23060410  1
  Fe  Fe0  1  0.00000000  0.50000000  0.50000000  1
  Fe  Fe1  1  0.50000000  0.00000000  0.00000000  1
  Fe  Fe2  1  0.50000000  0.50000000  0.50000000  1
  Fe  Fe3  1  0.00000000  -0.00000000  0.00000000  1
  Fe  Fe4  1  -0.00000000  0.50000000  0.00000000  1
  Fe  Fe5  1  0.50000000  -0.00000000  0.50000000  1
  Fe  Fe6  1  0.50000000  0.50000000  0.00000000  1
  Fe  Fe7  1  0.00000000  -0.00000000  0.50000000  1
  P  P0  1  0.75000000  0.45807486  0.24119497  1
  P  P1  1  0.75000000  0.95807486  0.25880503  1
  P  P2  1  0.25000000  0.54192514  0.75880503  1
  P  P3  1  0.25000000  0.04192514  0.74119497  1
  P  P4  1  0.75000000  0.25389362  0.57691706  1
  P  P5  1  0.75000000  0.75389362  0.92308294  1
  P  P6  1  0.25000000  0.74610638  0.42308294  1
  P  P7  1  0.25000000  0.24610638  0.07691706  1
  O  O0  1  0.94948810  0.31933917  0.53381111  1
  O  O1  1  0.55051190  0.81933917  0.96618889  1
  O  O2  1  0.44948810  0.68066083  0.46618889  1
  O  O3  1  0.05051190  0.18066083  0.03381111  1
  O  O4  1  0.05051190  0.68066083  0.46618889  1
  O  O5  1  0.44948810  0.18066083  0.03381111  1
  O  O6  1  0.55051190  0.31933917  0.53381111  1
  O  O7  1  0.94948810  0.81933917  0.96618889  1
  O  O8  1  0.75000000  0.23644808  0.70810471  1
  O  O9  1  0.75000000  0.73644808  0.79189529  1
  O  O10  1  0.25000000  0.76355192  0.29189529  1
  O  O11  1  0.25000000  0.26355192  0.20810471  1
  O  O12  1  0.75000000  0.31972794  0.23785745  1
  O  O13  1  0.75000000  0.81972794  0.26214255  1
  O  O14  1  0.25000000  0.68027206  0.76214255  1
  O  O15  1  0.25000000  0.18027206  0.73785745  1
  O  O16  1  0.75000000  0.12678545  0.51729060  1
  O  O17  1  0.75000000  0.62678545  0.98270940  1
  O  O18  1  0.25000000  0.87321455  0.48270940  1
  O  O19  1  0.25000000  0.37321455  0.01729060  1
  O  O20  1  0.75000000  0.00676810  0.13218484  1
  O  O21  1  0.75000000  0.50676810  0.36781516  1
  O  O22  1  0.25000000  0.99323190  0.86781516  1
  O  O23  1  0.25000000  0.49323190  0.63218484  1
  O  O24  1  0.45068535  0.49312045  0.82090319  1
  O  O25  1  0.04931465  0.99312045  0.67909681  1
  O  O26  1  0.95068535  0.50687955  0.17909681  1
  O  O27  1  0.54931465  0.00687955  0.32090319  1
  O  O28  1  0.54931465  0.50687955  0.17909681  1
  O  O29  1  0.95068535  0.00687955  0.32090319  1
  O  O30  1  0.04931465  0.49312045  0.82090319  1
  O  O31  1  0.45068535  0.99312045  0.67909681  1
  F  F0  1  0.75000000  0.36959986  0.96957324  1
  F  F1  1  0.75000000  0.86959986  0.53042676  1
  F  F2  1  0.25000000  0.63040014  0.03042676  1
  F  F3  1  0.25000000  0.13040014  0.46957324  1
  F  F4  1  0.75000000  0.06244945  0.89294309  1
  F  F5  1  0.75000000  0.56244945  0.60705691  1
  F  F6  1  0.25000000  0.93755055  0.10705691  1
  F  F7  1  0.25000000  0.43755055  0.39294309  1
loop_
_geom_bond_atom_site_label_1
_geom_bond_atom_site_label_2
_geom_bond_distance
_geom_bond_site_symmetry_2
Na0 O8 2.259323 1_555
Na0 O15 2.310264 1_655
Na0 O30 2.448324 1_655
Na0 O3 2.483194 1_656
Na1 O9 2.259323 1_555
Na1 O14 2.310264 1_555
Na1 O31 2.448324 1_555
Na1 O2 2.483194 1_555
Na2 O10 2.259323 1_555
Na2 O13 2.310264 1_555
Na2 O28 2.448324 1_555
Na2 O1 2.483194 1_554
Na3 O11 2.259323 1_555
Na3 O12 2.310264 1_455
Na3 O29 2.448324 1_455
Na3 O0 2.483194 1_455
Na4 O10 2.259323 1_555
Na4 O13 2.310264 1_455
Na4 O26 2.448324 1_455
Na4 O7 2.483194 1_454
Na5 O11 2.259323 1_555
Na5 O12 2.310264 1_555
Na5 O27 2.448324 1_555
Na5 O6 2.483194 1_555
Na6 O8 2.259323 1_555
Na6 O15 2.310264 1_555
Na6 O24 2.448324 1_555
Na6 O5 2.483194 1_556
Na7 O9 2.259323 1_555
Na7 O14 2.310264 1_655
Na7 O25 2.448324 1_655
Na7 O4 2.483194 1_655
Li0 O12 2.015508 1_555
Li0 O5 2.098586 1_555
Li0 O3 2.098586 1_655
Li0 O20 2.553287 1_555
Li1 O13 2.015508 1_555
Li1 O2 2.098586 1_555
Li1 O4 2.098586 1_655
Li1 O21 2.553287 1_555
Li2 O14 2.015508 1_555
Li2 O7 2.098586 1_455
Li2 O1 2.098586 1_555
Li2 O22 2.553287 1_555
Li3 O15 2.015508 1_555
Li3 O0 2.098586 1_455
Li3 O6 2.098586 1_555
Li3 O23 2.553287 1_555
Li4 O8 2.034028 1_555
Li4 O25 2.130647 1_645
Li4 O31 2.130647 1_545
Li5 O9 2.034028 1_555
Li5 O30 2.130647 1_655
Li5 O24 2.130647 1_555
Li6 O10 2.034028 1_555
Li6 O29 2.130647 1_465
Li6 O27 2.130647 1_565
Li7 O11 2.034028 1_555
Li7 O28 2.130647 1_555
Li7 O26 2.130647 1_455
Fe0 O4 2.079797 1_555
Fe0 O0 2.079797 1_455
Fe0 O23 2.218172 1_555
Fe0 O21 2.218172 1_455
Fe1 O5 2.079797 1_555
Fe1 O1 2.079797 1_544
Fe1 O20 2.218172 1_555
Fe1 O22 2.218172 1_544
Fe2 O2 2.079797 1_555
Fe2 O6 2.079797 1_555
Fe2 O23 2.218172 1_555
Fe2 O21 2.218172 1_555
Fe3 O7 2.079797 1_444
Fe3 O3 2.079797 1_555
Fe3 O20 2.218172 1_455
Fe3 O22 2.218172 1_544
Fe4 O30 2.096282 1_554
Fe4 O26 2.096282 1_455
Fe4 O17 2.149852 1_454
Fe4 O19 2.149852 1_555
Fe5 O31 2.096282 1_545
Fe5 O27 2.096282 1_555
Fe5 O18 2.149852 1_545
Fe5 O16 2.149852 1_555
Fe6 O28 2.096282 1_555
Fe6 O24 2.096282 1_554
Fe6 O17 2.149852 1_554
Fe6 O19 2.149852 1_555
Fe7 O29 2.096282 1_455
Fe7 O25 2.096282 1_545
Fe7 O18 2.149852 1_545
Fe7 O16 2.149852 1_455
O0 P4 1.556947 1_555
O1 P5 1.556947 1_555
O2 P6 1.556947 1_555
O3 P7 1.556947 1_555
O4 P6 1.556947 1_555
O5 P7 1.556947 1_555
O6 P4 1.556947 1_555
O7 P5 1.556947 1_555
O8 P4 1.529295 1_555
O9 P5 1.529295 1_555
O10 P6 1.529295 1_555
O11 P7 1.529295 1_555
O12 P0 1.544907 1_555
O13 P1 1.544907 1_555
O14 P2 1.544907 1_555
O15 P3 1.544907 1_555
O16 P4 1.577581 1_555
O17 P5 1.577581 1_555
O18 P6 1.577581 1_555
O19 P7 1.577581 1_555
O20 P1 1.561690 1_545
O21 P0 1.561690 1_555
O22 P3 1.561690 1_565
O23 P2 1.561690 1_555
O24 P2 1.572906 1_555
O25 P3 1.572906 1_565
O26 P0 1.572906 1_555
O27 P1 1.572906 1_545
O28 P0 1.572906 1_555
O29 P1 1.572906 1_545
O30 P2 1.572906 1_555
O31 P3 1.572906 1_565
F0 Li0 2.057526 1_556
F0 Fe4 2.195796 1_656
F0 Fe6 2.195796 1_556
F0 Na6 2.382806 1_555
F0 Na0 2.382806 1_555
F1 Li1 2.057526 1_555
F1 Fe7 2.195796 1_665
F1 Fe5 2.195796 1_565
F1 Na7 2.382806 1_555
F1 Na1 2.382806 1_555
F2 Li2 2.057526 1_554
F2 Fe4 2.195796 1_555
F2 Fe6 2.195796 1_555
F2 Na4 2.382806 1_555
F2 Na2 2.382806 1_555
F3 Li3 2.057526 1_555
F3 Fe5 2.195796 1_555
F3 Fe7 2.195796 1_555
F3 Na3 2.382806 1_555
F3 Na5 2.382806 1_555
F4 Li4 1.878521 1_555
F4 Fe1 2.144039 1_556
F4 Fe3 2.144039 1_656
F5 Li5 1.878521 1_555
F5 Fe0 2.144039 1_655
F5 Fe2 2.144039 1_555
F6 Li6 1.878521 1_555
F6 Fe1 2.144039 1_565
F6 Fe3 2.144039 1_565
F7 Li7 1.878521 1_555
F7 Fe0 2.144039 1_555
F7 Fe2 2.144039 1_555
