# generated using pymatgen
data_As4N2Cl2O7
_symmetry_space_group_name_H-M   'P 1'
_cell_length_a   5.32695444
_cell_length_b   5.32695444
_cell_length_c   12.19745800
_cell_angle_alpha   90.00000000
_cell_angle_beta   90.00000000
_cell_angle_gamma   120.00000550
_symmetry_Int_Tables_number   1
_chemical_formula_structural   As4N2Cl2O7
_chemical_formula_sum   'As4 N2 Cl2 O7'
_cell_volume   299.74911134
_cell_formula_units_Z   1
loop_
 _symmetry_equiv_pos_site_id
 _symmetry_equiv_pos_as_xyz
  1  'x, y, z'
loop_
 _atom_site_type_symbol
 _atom_site_label
 _atom_site_symmetry_multiplicity
 _atom_site_fract_x
 _atom_site_fract_y
 _atom_site_fract_z
 _atom_site_occupancy
  As  As0  1  0.66666700  0.33333300  0.78856700  1
  As  As1  1  0.33333300  0.66666700  0.78856700  1
  As  As2  1  0.33333300  0.66666700  0.21143300  1
  As  As3  1  0.66666700  0.33333300  0.21143300  1
  N  N0  1  0.66666700  0.33333300  0.50000000  1
  N  N1  1  0.33333300  0.66666700  0.50000000  1
  Cl  Cl0  1  0.00000000  0.00000000  0.67778000  1
  Cl  Cl1  1  0.00000000  0.00000000  0.32222000  1
  O  O0  1  0.50000000  0.50000000  0.86649600  1
  O  O1  1  0.50000000  0.00000000  0.86649600  1
  O  O2  1  0.00000000  0.50000000  0.86649600  1
  O  O3  1  0.50000000  0.50000000  0.13350400  1
  O  O4  1  0.50000000  0.00000000  0.13350400  1
  O  O5  1  0.00000000  0.50000000  0.13350400  1
  O  O6  1  0.00000000  0.00000000  0.00000000  1
loop_
_geom_bond_atom_site_label_1
_geom_bond_atom_site_label_2
_geom_bond_distance
_geom_bond_site_symmetry_2
As0 O2 1.807821 1_655
As0 O1 1.807821 1_555
As0 O0 1.807825 1_555
As1 O2 1.807821 1_555
As1 O1 1.807821 1_565
As1 O0 1.807825 1_555
As2 O4 1.807821 1_565
As2 O5 1.807821 1_555
As2 O3 1.807825 1_555
As3 O5 1.807821 1_655
As3 O4 1.807821 1_555
As3 O3 1.807825 1_555
