# generated using pymatgen
data_KTeO4
_symmetry_space_group_name_H-M   'P 1'
_cell_length_a   6.82080900
_cell_length_b   7.84346400
_cell_length_c   17.20922613
_cell_angle_alpha   87.70130314
_cell_angle_beta   90.00000000
_cell_angle_gamma   90.00000000
_symmetry_Int_Tables_number   1
_chemical_formula_structural   KTeO4
_chemical_formula_sum   'K8 Te8 O32'
_cell_volume   919.93156997
_cell_formula_units_Z   8
loop_
 _symmetry_equiv_pos_site_id
 _symmetry_equiv_pos_as_xyz
  1  'x, y, z'
loop_
 _atom_site_type_symbol
 _atom_site_label
 _atom_site_symmetry_multiplicity
 _atom_site_fract_x
 _atom_site_fract_y
 _atom_site_fract_z
 _atom_site_occupancy
  K  K0  1  0.54581500  0.58479000  0.60057600  1
  K  K1  1  0.04581500  0.41521000  0.89942400  1
  K  K2  1  0.45418500  0.41521000  0.39942400  1
  K  K3  1  0.95418500  0.58479000  0.10057600  1
  K  K4  1  0.58839000  0.10808900  0.79399400  1
  K  K5  1  0.08839000  0.89191100  0.70600600  1
  K  K6  1  0.41161000  0.89191100  0.20600600  1
  K  K7  1  0.91161000  0.10808900  0.29399400  1
  Te  Te0  1  0.52346900  0.92700500  0.41277100  1
  Te  Te1  1  0.02346900  0.07299500  0.08722900  1
  Te  Te2  1  0.47653100  0.07299500  0.58722900  1
  Te  Te3  1  0.97653100  0.92700500  0.91277100  1
  Te  Te4  1  0.00255700  0.70137800  0.48731200  1
  Te  Te5  1  0.50255700  0.29862200  0.01268800  1
  Te  Te6  1  0.99744300  0.29862200  0.51268800  1
  Te  Te7  1  0.49744300  0.70137800  0.98731200  1
  O  O0  1  0.51284500  0.09389400  0.33284500  1
  O  O1  1  0.01284500  0.90610600  0.16715500  1
  O  O2  1  0.48715500  0.90610600  0.66715500  1
  O  O3  1  0.98715500  0.09389400  0.83284500  1
  O  O4  1  0.39911400  0.87054900  0.51384200  1
  O  O5  1  0.89911400  0.12945100  0.98615800  1
  O  O6  1  0.60088600  0.12945100  0.48615800  1
  O  O7  1  0.10088600  0.87054900  0.01384200  1
  O  O8  1  0.38914800  0.75394100  0.36483900  1
  O  O9  1  0.88914800  0.24605900  0.13516100  1
  O  O10  1  0.61085200  0.24605900  0.63516100  1
  O  O11  1  0.11085200  0.75394100  0.86483900  1
  O  O12  1  0.18202100  0.49152200  0.52153500  1
  O  O13  1  0.68202100  0.50847800  0.97846500  1
  O  O14  1  0.81797900  0.50847800  0.47846500  1
  O  O15  1  0.31797900  0.49152200  0.02153500  1
  O  O16  1  0.92173300  0.57010600  0.30967000  1
  O  O17  1  0.42173300  0.42989400  0.19033000  1
  O  O18  1  0.07826700  0.42989400  0.69033000  1
  O  O19  1  0.57826700  0.57010600  0.80967000  1
  O  O20  1  0.92197400  0.75913800  0.58484100  1
  O  O21  1  0.42197400  0.24086200  0.91515900  1
  O  O22  1  0.07802600  0.24086200  0.41515900  1
  O  O23  1  0.57802600  0.75913800  0.08484100  1
  O  O24  1  0.21425900  0.14895000  0.58688100  1
  O  O25  1  0.71425900  0.85105000  0.91311900  1
  O  O26  1  0.78574100  0.85105000  0.41311900  1
  O  O27  1  0.28574100  0.14895000  0.08688100  1
  O  O28  1  0.93580800  0.45583000  0.73239600  1
  O  O29  1  0.43580800  0.54417000  0.76760400  1
  O  O30  1  0.06419200  0.54417000  0.26760400  1
  O  O31  1  0.56419200  0.45583000  0.23239600  1
loop_
_geom_bond_atom_site_label_1
_geom_bond_atom_site_label_2
_geom_bond_distance
_geom_bond_site_symmetry_2
K0 O10 2.735488 1_555
K0 O4 2.825669 1_555
K0 O2 2.838324 1_555
K0 O14 2.884673 1_555
K0 O20 2.914879 1_555
K0 O12 2.936394 1_555
K0 O29 2.975459 1_555
K1 O11 2.735488 1_555
K1 O5 2.825669 1_455
K1 O3 2.838324 1_455
K1 O15 2.884673 1_556
K1 O21 2.914879 1_555
K1 O13 2.936394 1_455
K1 O28 2.975459 1_455
K2 O8 2.735488 1_555
K2 O6 2.825669 1_555
K2 O0 2.838324 1_555
K2 O12 2.884673 1_555
K2 O22 2.914879 1_555
K2 O14 2.936394 1_555
K2 O31 2.975459 1_555
K3 O9 2.735488 1_555
K3 O7 2.825669 1_655
K3 O1 2.838324 1_655
K3 O13 2.884673 1_554
K3 O23 2.914879 1_555
K3 O15 2.936394 1_655
K3 O30 2.975459 1_655
K4 O21 2.625836 1_555
K4 O3 2.802017 1_555
K4 O2 2.833488 1_545
K4 O10 2.903223 1_555
K4 O25 2.944960 1_545
K5 O20 2.625836 1_455
K5 O2 2.802017 1_555
K5 O3 2.833488 1_465
K5 O11 2.903223 1_555
K5 O24 2.944960 1_565
K6 O23 2.625836 1_555
K6 O1 2.802017 1_555
K6 O0 2.833488 1_565
K6 O8 2.903223 1_555
K6 O27 2.944960 1_565
K7 O22 2.625836 1_655
K7 O0 2.802017 1_555
K7 O1 2.833488 1_645
K7 O9 2.903223 1_555
K7 O26 2.944960 1_545
O0 Te0 1.861766 1_545
O1 Te1 1.861766 1_565
O2 Te2 1.861766 1_565
O3 Te3 1.861766 1_545
O4 Te0 1.969542 1_555
O4 Te2 2.134493 1_565
O5 Te1 1.969542 1_656
O5 Te3 2.134493 1_545
O6 Te2 1.969542 1_555
O6 Te0 2.134493 1_545
O7 Te3 1.969542 1_454
O7 Te1 2.134493 1_565
O8 Te0 1.858012 1_555
O9 Te1 1.858012 1_655
O10 Te2 1.858012 1_555
O11 Te3 1.858012 1_455
O12 Te6 1.978850 1_455
O12 Te4 2.115846 1_555
O13 Te7 1.978850 1_555
O13 Te5 2.115846 1_556
O14 Te4 1.978850 1_655
O14 Te6 2.115846 1_555
O15 Te5 1.978850 1_555
O15 Te7 2.115846 1_554
O16 O30 1.233464 1_655
O17 O31 1.233464 1_555
O18 O28 1.233464 1_455
O19 O29 1.233464 1_555
O20 Te4 1.839937 1_655
O21 Te5 1.839937 1_556
O22 Te6 1.839937 1_455
O23 Te7 1.839937 1_554
O24 Te2 1.885433 1_555
O24 Te6 2.252814 1_455
O25 Te3 1.885433 1_555
O25 Te7 2.252814 1_555
O26 Te0 1.885433 1_555
O26 Te4 2.252814 1_655
O27 Te1 1.885433 1_555
O27 Te5 2.252814 1_555
