# generated using pymatgen
data_CaEr2(GeO3)4
_symmetry_space_group_name_H-M   'P 1'
_cell_length_a   10.07394602
_cell_length_b   10.07394602
_cell_length_c   5.07966300
_cell_angle_alpha   90.00000000
_cell_angle_beta   90.00000000
_cell_angle_gamma   90.01295787
_symmetry_Int_Tables_number   1
_chemical_formula_structural   CaEr2(GeO3)4
_chemical_formula_sum   'Ca2 Er4 Ge8 O24'
_cell_volume   515.50647994
_cell_formula_units_Z   2
loop_
 _symmetry_equiv_pos_site_id
 _symmetry_equiv_pos_as_xyz
  1  'x, y, z'
loop_
 _atom_site_type_symbol
 _atom_site_label
 _atom_site_symmetry_multiplicity
 _atom_site_fract_x
 _atom_site_fract_y
 _atom_site_fract_z
 _atom_site_occupancy
  Ca  Ca0  1  0.50000000  0.00000000  0.50000000  1
  Ca  Ca1  1  0.00000000  0.50000000  0.50000000  1
  Er  Er0  1  0.50000000  0.50000000  0.50000000  1
  Er  Er1  1  0.00000000  0.00000000  0.50000000  1
  Er  Er2  1  0.25000000  0.25000000  0.50000000  1
  Er  Er3  1  0.75000000  0.75000000  0.50000000  1
  Ge  Ge0  1  0.97984100  0.25047000  0.99847400  1
  Ge  Ge1  1  0.02015900  0.74953000  0.00152600  1
  Ge  Ge2  1  0.47984100  0.75047000  0.00152600  1
  Ge  Ge3  1  0.52015900  0.24953000  0.99847400  1
  Ge  Ge4  1  0.24953000  0.52015900  0.00152600  1
  Ge  Ge5  1  0.75047000  0.47984100  0.99847400  1
  Ge  Ge6  1  0.74953000  0.02015900  0.99847400  1
  Ge  Ge7  1  0.25047000  0.97984100  0.00152600  1
  O  O0  1  0.32274300  0.06866500  0.25400500  1
  O  O1  1  0.67162600  0.55927100  0.26022400  1
  O  O2  1  0.82837400  0.94072900  0.26022400  1
  O  O3  1  0.17725700  0.43133500  0.25400500  1
  O  O4  1  0.67725700  0.93133500  0.74599500  1
  O  O5  1  0.32837400  0.44072900  0.73977600  1
  O  O6  1  0.17162600  0.05927100  0.73977600  1
  O  O7  1  0.82274300  0.56866500  0.74599500  1
  O  O8  1  0.43133500  0.17725700  0.74599500  1
  O  O9  1  0.94072900  0.82837400  0.73977600  1
  O  O10  1  0.55927100  0.67162600  0.73977600  1
  O  O11  1  0.06866500  0.32274300  0.74599500  1
  O  O12  1  0.56866500  0.82274300  0.25400500  1
  O  O13  1  0.05927100  0.17162600  0.26022400  1
  O  O14  1  0.44072900  0.32837400  0.26022400  1
  O  O15  1  0.93133500  0.67725700  0.25400500  1
  O  O16  1  0.87043400  0.37043400  0.15588800  1
  O  O17  1  0.12419500  0.87580500  0.16532600  1
  O  O18  1  0.37580500  0.62419500  0.16532600  1
  O  O19  1  0.62956600  0.12956600  0.15588800  1
  O  O20  1  0.12956600  0.62956600  0.84411200  1
  O  O21  1  0.87580500  0.12419500  0.83467400  1
  O  O22  1  0.62419500  0.37580500  0.83467400  1
  O  O23  1  0.37043400  0.87043400  0.84411200  1
loop_
_geom_bond_atom_site_label_1
_geom_bond_atom_site_label_2
_geom_bond_distance
_geom_bond_site_symmetry_2
Ca0 O8 2.286727 1_555
Ca0 O12 2.286727 1_545
Ca0 O4 2.286727 1_545
Ca0 O0 2.286727 1_555
Ca0 O19 2.542036 1_555
Ca0 O23 2.542036 1_545
Ca1 O11 2.286727 1_555
Ca1 O15 2.286727 1_455
Ca1 O3 2.286727 1_555
Ca1 O7 2.286727 1_455
Ca1 O16 2.542036 1_455
Ca1 O20 2.542036 1_555
Er0 O10 2.197454 1_555
Er0 O1 2.197454 1_555
Er0 O5 2.197454 1_555
Er0 O14 2.197454 1_555
Er0 O18 2.453871 1_555
Er0 O22 2.453871 1_555
Er1 O2 2.197454 1_445
Er1 O9 2.197454 1_445
Er1 O13 2.197454 1_555
Er1 O6 2.197454 1_555
Er1 O17 2.453871 1_545
Er1 O21 2.453871 1_455
Er2 O11 2.331543 1_555
Er2 O0 2.331543 1_555
Er2 O8 2.331543 1_555
Er2 O3 2.331543 1_555
Er2 O5 2.407885 1_555
Er2 O13 2.407885 1_555
Er2 O6 2.407885 1_555
Er2 O14 2.407885 1_555
Er3 O7 2.331543 1_555
Er3 O15 2.331543 1_555
Er3 O12 2.331543 1_555
Er3 O4 2.331543 1_555
Er3 O1 2.407885 1_555
Er3 O10 2.407885 1_555
Er3 O9 2.407885 1_555
Er3 O2 2.407885 1_555
Ge0 O11 1.724908 1_655
Ge0 O13 1.743351 1_656
Ge0 O16 1.820779 1_556
Ge0 O21 1.846165 1_555
Ge1 O15 1.724908 1_455
Ge1 O9 1.743351 1_454
Ge1 O20 1.820779 1_554
Ge1 O17 1.846165 1_555
Ge2 O12 1.724908 1_555
Ge2 O10 1.743351 1_554
Ge2 O23 1.820779 1_554
Ge2 O18 1.846165 1_555
Ge3 O8 1.724908 1_555
Ge3 O14 1.743351 1_556
Ge3 O19 1.820779 1_556
Ge3 O22 1.846165 1_555
Ge4 O3 1.724908 1_555
Ge4 O5 1.743351 1_554
Ge4 O20 1.820779 1_554
Ge4 O18 1.846165 1_555
Ge5 O7 1.724908 1_555
Ge5 O1 1.743351 1_556
Ge5 O16 1.820779 1_556
Ge5 O22 1.846165 1_555
Ge6 O4 1.724908 1_545
Ge6 O2 1.743351 1_546
Ge6 O19 1.820779 1_556
Ge6 O21 1.846165 1_555
Ge7 O0 1.724908 1_565
Ge7 O6 1.743351 1_564
Ge7 O23 1.820779 1_554
Ge7 O17 1.846165 1_555
