# generated using pymatgen
data_ScNi3
_symmetry_space_group_name_H-M   'P 1'
_cell_length_a   5.27207372
_cell_length_b   5.27206904
_cell_length_c   4.17617690
_cell_angle_alpha   90.00000000
_cell_angle_beta   90.00000000
_cell_angle_gamma   119.99689495
_symmetry_Int_Tables_number   1
_chemical_formula_structural   ScNi3
_chemical_formula_sum   'Sc2 Ni6'
_cell_volume   100.52768214
_cell_formula_units_Z   2
loop_
 _symmetry_equiv_pos_site_id
 _symmetry_equiv_pos_as_xyz
  1  'x, y, z'
loop_
 _atom_site_type_symbol
 _atom_site_label
 _atom_site_symmetry_multiplicity
 _atom_site_fract_x
 _atom_site_fract_y
 _atom_site_fract_z
 _atom_site_occupancy
  Sc  Sc0  1  0.33331559  0.66668441  0.75000000  1
  Sc  Sc1  1  0.66668441  0.33331559  0.25000000  1
  Ni  Ni0  1  0.15487683  0.30977968  0.25000000  1
  Ni  Ni1  1  0.69022032  0.84512317  0.25000000  1
  Ni  Ni2  1  0.15490044  0.84509956  0.25000000  1
  Ni  Ni3  1  0.84512317  0.69022032  0.75000000  1
  Ni  Ni4  1  0.30977968  0.15487683  0.75000000  1
  Ni  Ni5  1  0.84509956  0.15490044  0.75000000  1
loop_
_geom_bond_atom_site_label_1
_geom_bond_atom_site_label_2
_geom_bond_distance
_geom_bond_site_symmetry_2
Ni0 Ni1 2.449817 1_445
Ni0 Ni2 2.449888 1_545
Ni0 Ni5 2.522037 1_455
Ni0 Ni5 2.522037 1_454
Ni0 Ni4 2.522072 1_554
Ni0 Ni4 2.522072 1_555
Ni0 Sc1 2.638012 1_455
Ni0 Sc1 2.638441 1_555
Ni0 Sc0 2.648711 1_554
Ni0 Sc0 2.648711 1_555
Ni0 Ni2 2.822181 1_555
Ni0 Ni1 2.822502 1_555
Ni1 Ni2 2.449890 1_655
Ni1 Ni5 2.522036 1_565
Ni1 Ni5 2.522036 1_564
Ni1 Ni3 2.522072 1_554
Ni1 Ni3 2.522072 1_555
Ni1 Sc1 2.638010 1_565
Ni1 Sc1 2.638439 1_555
Ni1 Sc0 2.648712 1_555
Ni1 Sc0 2.648712 1_554
Ni1 Ni2 2.822184 1_555
Ni2 Ni4 2.522036 1_565
Ni2 Ni4 2.522036 1_564
Ni2 Ni3 2.522037 1_454
Ni2 Ni3 2.522037 1_455
Ni2 Sc1 2.638354 1_455
Ni2 Sc1 2.638355 1_565
Ni2 Sc0 2.648455 1_555
Ni2 Sc0 2.648455 1_554
Ni3 Ni4 2.449817 1_665
Ni3 Ni5 2.449888 1_565
Ni3 Sc0 2.638012 1_655
Ni3 Sc0 2.638441 1_555
Ni3 Sc1 2.648711 1_555
Ni3 Sc1 2.648711 1_556
Ni3 Ni5 2.822181 1_555
Ni3 Ni4 2.822502 1_555
Ni4 Ni5 2.449890 1_455
Ni4 Sc0 2.638010 1_545
Ni4 Sc0 2.638439 1_555
Ni4 Sc1 2.648712 1_555
Ni4 Sc1 2.648712 1_556
Ni4 Ni5 2.822184 1_555
Ni5 Sc0 2.638354 1_655
Ni5 Sc0 2.638355 1_545
Ni5 Sc1 2.648455 1_555
Ni5 Sc1 2.648455 1_556
