# generated using pymatgen
data_Li9Mn2Co5O16
_symmetry_space_group_name_H-M   'P 1'
_cell_length_a   6.51921277
_cell_length_b   6.51921277
_cell_length_c   10.25702271
_cell_angle_alpha   59.75968300
_cell_angle_beta   59.75968300
_cell_angle_gamma   52.89036034
_symmetry_Int_Tables_number   1
_chemical_formula_structural   Li9Mn2Co5O16
_chemical_formula_sum   'Li9 Mn2 Co5 O16'
_cell_volume   287.43310426
_cell_formula_units_Z   1
loop_
 _symmetry_equiv_pos_site_id
 _symmetry_equiv_pos_as_xyz
  1  'x, y, z'
loop_
 _atom_site_type_symbol
 _atom_site_label
 _atom_site_symmetry_multiplicity
 _atom_site_fract_x
 _atom_site_fract_y
 _atom_site_fract_z
 _atom_site_occupancy
  Li  Li0  1  0.49997700  0.00030500  0.00084400  1
  Li  Li1  1  0.99981700  0.49937600  0.49966100  1
  Li  Li2  1  0.24617400  0.24728100  0.25169300  1
  Li  Li3  1  0.75271900  0.75382600  0.74830700  1
  Li  Li4  1  0.25806700  0.25985100  0.73472300  1
  Li  Li5  1  0.74014900  0.74193300  0.26527700  1
  Li  Li6  1  0.99969500  0.50002300  0.99915600  1
  Li  Li7  1  0.50062400  0.00018300  0.50033900  1
  Li  Li8  1  0.74702800  0.25297200  0.50000000  1
  Mn  Mn0  1  0.00184100  0.99698200  0.74753500  1
  Mn  Mn1  1  0.00301800  0.99815900  0.25246500  1
  Co  Co0  1  0.50686500  0.49566700  0.25620800  1
  Co  Co1  1  0.74805200  0.25194800  0.00000000  1
  Co  Co2  1  0.24812400  0.75187600  0.50000000  1
  Co  Co3  1  0.25491500  0.74508500  0.00000000  1
  Co  Co4  1  0.50433300  0.49313500  0.74379200  1
  O  O0  1  0.63855200  0.13171600  0.75343300  1
  O  O1  1  0.13519800  0.64071300  0.24374900  1
  O  O2  1  0.38673700  0.38523300  0.99685600  1
  O  O3  1  0.90470800  0.88082600  0.47815700  1
  O  O4  1  0.36889100  0.41063700  0.48877400  1
  O  O5  1  0.89219000  0.89110100  0.98263400  1
  O  O6  1  0.11700300  0.64165900  0.75664400  1
  O  O7  1  0.64835500  0.12114600  0.24642000  1
  O  O8  1  0.35834100  0.88299700  0.24335600  1
  O  O9  1  0.87885400  0.35164500  0.75358000  1
  O  O10  1  0.11917400  0.09529200  0.52184300  1
  O  O11  1  0.61476700  0.61326300  0.00314400  1
  O  O12  1  0.10889900  0.10781000  0.01736600  1
  O  O13  1  0.58936300  0.63110900  0.51122600  1
  O  O14  1  0.86828400  0.36144800  0.24656700  1
  O  O15  1  0.35928700  0.86480200  0.75625100  1
loop_
_geom_bond_atom_site_label_1
_geom_bond_atom_site_label_2
_geom_bond_distance
_geom_bond_site_symmetry_2
Li0 O8 2.060916 1_545
Li0 O0 2.103539 1_554
Li0 O2 2.129665 1_554
Li0 O5 2.129762 1_544
Li0 O12 2.132666 1_555
Li0 O11 2.146275 1_545
Li1 O4 2.061829 1_655
Li1 O3 2.083688 1_555
Li1 O9 2.157261 1_555
Li1 O10 2.167481 1_655
Li1 O1 2.174781 1_655
Li1 O13 2.218477 1_555
Li2 O8 2.056204 1_545
Li2 O14 2.122331 1_455
Li2 O2 2.166761 1_554
Li2 O1 2.172170 1_555
Li2 O7 2.203143 1_555
Li2 O10 2.293240 1_555
Li3 O6 2.056204 1_655
Li3 O0 2.122331 1_565
Li3 O11 2.166761 1_556
Li3 O15 2.172170 1_555
Li3 O9 2.203143 1_555
Li3 O3 2.293240 1_555
Li4 O9 2.087325 1_455
Li4 O4 2.091806 1_555
Li4 O15 2.154108 1_545
Li4 O6 2.164517 1_555
Li4 O0 2.169110 1_555
Li4 O12 2.400378 1_556
Li5 O7 2.087325 1_565
Li5 O13 2.091806 1_555
Li5 O1 2.154108 1_655
Li5 O8 2.164517 1_555
Li5 O14 2.169110 1_555
Li5 O5 2.400378 1_554
Li6 O6 2.060916 1_655
Li6 O14 2.103539 1_556
Li6 O11 2.129665 1_556
Li6 O12 2.129762 1_656
Li6 O5 2.132666 1_555
Li6 O2 2.146275 1_655
Li7 O13 2.061829 1_545
Li7 O10 2.083688 1_555
Li7 O7 2.157261 1_555
Li7 O3 2.167481 1_545
Li7 O15 2.174781 1_545
Li7 O4 2.218477 1_555
Li8 O13 2.062987 1_555
Li8 O4 2.062987 1_555
Li8 O3 2.073401 1_545
Li8 O10 2.073401 1_655
Li8 O0 2.152993 1_555
Li8 O14 2.152993 1_555
Mn0 O10 1.915287 1_565
Mn0 O6 1.921544 1_555
Mn0 O0 1.945064 1_465
Mn0 O9 1.962134 1_465
Mn0 O15 1.972278 1_555
Mn0 O5 1.996228 1_455
Mn1 O3 1.915287 1_455
Mn1 O8 1.921544 1_555
Mn1 O14 1.945064 1_465
Mn1 O7 1.962134 1_465
Mn1 O1 1.972278 1_555
Mn1 O12 1.996228 1_565
Co0 O14 1.921363 1_555
Co0 O4 1.978680 1_555
Co0 O8 2.043032 1_555
Co0 O1 2.051042 1_555
Co0 O7 2.063554 1_555
Co0 O11 2.151124 1_555
Co1 O2 1.970514 1_554
Co1 O11 1.970514 1_555
Co1 O5 2.008670 1_544
Co1 O12 2.008670 1_655
Co1 O9 2.093124 1_554
Co1 O7 2.093124 1_555
Co2 O4 1.906634 1_555
Co2 O13 1.906634 1_555
Co2 O3 1.952844 1_455
Co2 O10 1.952844 1_565
Co2 O8 2.178525 1_555
Co2 O6 2.178525 1_555
Co3 O11 1.964333 1_555
Co3 O2 1.964333 1_554
Co3 O12 2.016643 1_565
Co3 O5 2.016643 1_454
Co3 O1 2.069946 1_555
Co3 O15 2.069946 1_554
Co4 O0 1.921363 1_555
Co4 O13 1.978680 1_555
Co4 O6 2.043032 1_555
Co4 O15 2.051042 1_555
Co4 O9 2.063554 1_555
Co4 O2 2.151124 1_555
