# generated using pymatgen
data_Mg2Co3O8
_symmetry_space_group_name_H-M   'P 1'
_cell_length_a   5.73764872
_cell_length_b   5.73764872
_cell_length_c   4.74965440
_cell_angle_alpha   72.81262927
_cell_angle_beta   72.81262927
_cell_angle_gamma   58.35089747
_symmetry_Int_Tables_number   1
_chemical_formula_structural   Mg2Co3O8
_chemical_formula_sum   'Mg2 Co3 O8'
_cell_volume   125.25242164
_cell_formula_units_Z   1
loop_
 _symmetry_equiv_pos_site_id
 _symmetry_equiv_pos_as_xyz
  1  'x, y, z'
loop_
 _atom_site_type_symbol
 _atom_site_label
 _atom_site_symmetry_multiplicity
 _atom_site_fract_x
 _atom_site_fract_y
 _atom_site_fract_z
 _atom_site_occupancy
  Mg  Mg0  1  0.72608142  0.72608142  0.34318379  1
  Mg  Mg1  1  0.27391858  0.27391858  0.65681621  1
  Co  Co0  1  -0.00000000  -0.00000000  0.50000000  1
  Co  Co1  1  0.74153163  0.25846837  -0.00000000  1
  Co  Co2  1  0.25846837  0.74153163  -0.00000000  1
  O  O0  1  0.39772746  0.39772746  0.92659092  1
  O  O1  1  0.60227254  0.60227254  0.07340908  1
  O  O2  1  0.89456915  0.89456915  0.91514353  1
  O  O3  1  0.10543085  0.10543085  0.08485647  1
  O  O4  1  0.33800757  0.88456448  0.59711861  1
  O  O5  1  0.88456448  0.33800757  0.59711861  1
  O  O6  1  0.11543552  0.66199243  0.40288139  1
  O  O7  1  0.66199243  0.11543552  0.40288139  1
loop_
_geom_bond_atom_site_label_1
_geom_bond_atom_site_label_2
_geom_bond_distance
_geom_bond_site_symmetry_2
Mg0 O4 2.043440 1_555
Mg0 O5 2.043440 1_555
Mg0 O1 2.063136 1_555
Mg0 O7 2.157989 1_565
Mg0 O6 2.157989 1_655
Mg0 O2 2.158715 1_554
Mg1 O7 2.043440 1_555
Mg1 O6 2.043440 1_555
Mg1 O0 2.063136 1_555
Mg1 O4 2.157989 1_545
Mg1 O5 2.157989 1_455
Mg1 O3 2.158715 1_556
Co0 O4 1.847364 1_545
Co0 O5 1.847364 1_455
Co0 O7 1.847364 1_455
Co0 O6 1.847364 1_545
Co0 O3 1.895780 1_555
Co0 O2 1.895780 1_445
Co1 O1 1.799727 1_555
Co1 O0 1.799727 1_554
Co1 O5 1.868764 1_554
Co1 O7 1.868764 1_555
Co1 O2 1.912352 1_544
Co1 O3 1.912352 1_655
Co2 O1 1.799727 1_555
Co2 O0 1.799727 1_554
Co2 O4 1.868764 1_554
Co2 O6 1.868764 1_555
Co2 O2 1.912352 1_454
Co2 O3 1.912352 1_565
