# generated using pymatgen
data_KNaMg30O31
_symmetry_space_group_name_H-M   'P 1'
_cell_length_a   8.66251400
_cell_length_b   8.66251400
_cell_length_c   8.48624600
_cell_angle_alpha   90.00000000
_cell_angle_beta   90.00000000
_cell_angle_gamma   90.00000000
_symmetry_Int_Tables_number   1
_chemical_formula_structural   KNaMg30O31
_chemical_formula_sum   'K1 Na1 Mg30 O31'
_cell_volume   636.80067635
_cell_formula_units_Z   1
loop_
 _symmetry_equiv_pos_site_id
 _symmetry_equiv_pos_as_xyz
  1  'x, y, z'
loop_
 _atom_site_type_symbol
 _atom_site_label
 _atom_site_symmetry_multiplicity
 _atom_site_fract_x
 _atom_site_fract_y
 _atom_site_fract_z
 _atom_site_occupancy
  K  K0  1  0.00000000  0.00000000  0.05659400  1
  Na  Na0  1  0.50000000  0.50000000  0.99702800  1
  Mg  Mg0  1  0.50000000  0.00000000  0.99183900  1
  Mg  Mg1  1  0.00000000  0.50000000  0.99183900  1
  Mg  Mg2  1  0.00000000  0.00000000  0.52079000  1
  Mg  Mg3  1  0.50000000  0.00000000  0.50359400  1
  Mg  Mg4  1  0.00000000  0.50000000  0.50359400  1
  Mg  Mg5  1  0.50000000  0.50000000  0.49969100  1
  Mg  Mg6  1  0.25311600  0.25311600  0.99739900  1
  Mg  Mg7  1  0.74688400  0.25311600  0.99739900  1
  Mg  Mg8  1  0.25311600  0.74688400  0.99739900  1
  Mg  Mg9  1  0.74688400  0.74688400  0.99739900  1
  Mg  Mg10  1  0.24889600  0.24889600  0.49924200  1
  Mg  Mg11  1  0.75110400  0.24889600  0.49924200  1
  Mg  Mg12  1  0.24889600  0.75110400  0.49924200  1
  Mg  Mg13  1  0.75110400  0.75110400  0.49924200  1
  Mg  Mg14  1  0.27796800  0.00000000  0.24749200  1
  Mg  Mg15  1  0.72203200  0.00000000  0.24749200  1
  Mg  Mg16  1  0.25460600  0.50000000  0.24638200  1
  Mg  Mg17  1  0.74539400  0.50000000  0.24638200  1
  Mg  Mg18  1  0.24839100  0.00000000  0.75723500  1
  Mg  Mg19  1  0.75160900  0.00000000  0.75723500  1
  Mg  Mg20  1  0.25213600  0.50000000  0.75014300  1
  Mg  Mg21  1  0.74786400  0.50000000  0.75014300  1
  Mg  Mg22  1  0.00000000  0.27796800  0.24749200  1
  Mg  Mg23  1  0.50000000  0.25460600  0.24638200  1
  Mg  Mg24  1  0.00000000  0.72203200  0.24749200  1
  Mg  Mg25  1  0.50000000  0.74539400  0.24638200  1
  Mg  Mg26  1  0.00000000  0.24839100  0.75723500  1
  Mg  Mg27  1  0.50000000  0.25213600  0.75014300  1
  Mg  Mg28  1  0.00000000  0.75160900  0.75723500  1
  Mg  Mg29  1  0.50000000  0.74786400  0.75014300  1
  O  O0  1  0.50000000  0.00000000  0.25825600  1
  O  O1  1  0.00000000  0.50000000  0.25825600  1
  O  O2  1  0.50000000  0.50000000  0.26218800  1
  O  O3  1  0.00000000  0.00000000  0.75019000  1
  O  O4  1  0.50000000  0.00000000  0.74220700  1
  O  O5  1  0.00000000  0.50000000  0.74220700  1
  O  O6  1  0.50000000  0.50000000  0.73458000  1
  O  O7  1  0.24248300  0.24248300  0.24820900  1
  O  O8  1  0.75751700  0.24248300  0.24820900  1
  O  O9  1  0.24248300  0.75751700  0.24820900  1
  O  O10  1  0.75751700  0.75751700  0.24820900  1
  O  O11  1  0.24890200  0.24890200  0.74770500  1
  O  O12  1  0.75109800  0.24890200  0.74770500  1
  O  O13  1  0.24890200  0.75109800  0.74770500  1
  O  O14  1  0.75109800  0.75109800  0.74770500  1
  O  O15  1  0.26933100  0.00000000  0.00196600  1
  O  O16  1  0.73066900  0.00000000  0.00196600  1
  O  O17  1  0.23963700  0.50000000  0.00081500  1
  O  O18  1  0.76036300  0.50000000  0.00081500  1
  O  O19  1  0.24199000  0.00000000  0.49151100  1
  O  O20  1  0.75801000  0.00000000  0.49151100  1
  O  O21  1  0.24668300  0.50000000  0.49618700  1
  O  O22  1  0.75331700  0.50000000  0.49618700  1
  O  O23  1  0.00000000  0.26933100  0.00196600  1
  O  O24  1  0.50000000  0.23963700  0.00081500  1
  O  O25  1  0.00000000  0.73066900  0.00196600  1
  O  O26  1  0.50000000  0.76036300  0.00081500  1
  O  O27  1  0.00000000  0.24199000  0.49151100  1
  O  O28  1  0.50000000  0.24668300  0.49618700  1
  O  O29  1  0.00000000  0.75801000  0.49151100  1
  O  O30  1  0.50000000  0.75331700  0.49618700  1
loop_
_geom_bond_atom_site_label_1
_geom_bond_atom_site_label_2
_geom_bond_distance
_geom_bond_site_symmetry_2
K0 O23 2.378695 1_555
K0 O25 2.378695 1_545
K0 O16 2.378695 1_455
K0 O15 2.378695 1_555
K0 O3 2.600220 1_554
Na0 O6 2.227198 1_555
Na0 O2 2.250213 1_556
Na0 O17 2.255627 1_556
Na0 O18 2.255627 1_556
Na0 O26 2.255627 1_556
Na0 O24 2.255627 1_556
Mg0 O15 2.000021 1_556
Mg0 O16 2.000021 1_556
Mg0 O26 2.077256 1_546
Mg0 O24 2.077256 1_556
Mg0 O4 2.118439 1_555
Mg0 O0 2.260880 1_556
Mg1 O23 2.000021 1_556
Mg1 O25 2.000021 1_556
Mg1 O18 2.077256 1_456
Mg1 O17 2.077256 1_556
Mg1 O5 2.118439 1_555
Mg1 O1 2.260880 1_556
Mg2 O3 1.946745 1_555
Mg2 O29 2.110916 1_545
Mg2 O20 2.110916 1_455
Mg2 O27 2.110916 1_555
Mg2 O19 2.110916 1_555
Mg3 O4 2.024929 1_555
Mg3 O0 2.081999 1_555
Mg3 O30 2.137819 1_545
Mg3 O28 2.137819 1_555
Mg3 O19 2.237366 1_555
Mg3 O20 2.237366 1_555
Mg4 O5 2.024929 1_555
Mg4 O1 2.081999 1_555
Mg4 O22 2.137819 1_455
Mg4 O21 2.137819 1_555
Mg4 O29 2.237366 1_555
Mg4 O27 2.237366 1_555
Mg5 O6 1.993326 1_555
Mg5 O2 2.015509 1_555
Mg5 O22 2.194564 1_555
Mg5 O30 2.194564 1_555
Mg5 O21 2.194564 1_555
Mg5 O28 2.194564 1_555
Mg6 O11 2.119593 1_555
Mg6 O7 2.132418 1_556
Mg6 O17 2.142017 1_556
Mg6 O24 2.142017 1_556
Mg6 O23 2.197457 1_556
Mg6 O15 2.197457 1_556
Mg7 O12 2.119593 1_555
Mg7 O8 2.132418 1_556
Mg7 O18 2.142017 1_556
Mg7 O24 2.142017 1_556
Mg7 O23 2.197457 1_656
Mg7 O16 2.197457 1_556
Mg8 O13 2.119593 1_555
Mg8 O9 2.132418 1_556
Mg8 O26 2.142017 1_556
Mg8 O17 2.142017 1_556
Mg8 O25 2.197457 1_556
Mg8 O15 2.197457 1_566
Mg9 O14 2.119593 1_555
Mg9 O10 2.132418 1_556
Mg9 O26 2.142017 1_556
Mg9 O18 2.142017 1_556
Mg9 O16 2.197457 1_566
Mg9 O25 2.197457 1_656
Mg10 O11 2.108518 1_555
Mg10 O7 2.131776 1_555
Mg10 O27 2.157892 1_555
Mg10 O19 2.157892 1_555
Mg10 O28 2.175431 1_555
Mg10 O21 2.175431 1_555
Mg11 O12 2.108518 1_555
Mg11 O8 2.131776 1_555
Mg11 O20 2.157892 1_555
Mg11 O27 2.157892 1_655
Mg11 O28 2.175431 1_555
Mg11 O22 2.175431 1_555
Mg12 O13 2.108518 1_555
Mg12 O9 2.131776 1_555
Mg12 O19 2.157892 1_565
Mg12 O29 2.157892 1_555
Mg12 O30 2.175431 1_555
Mg12 O21 2.175431 1_555
Mg13 O14 2.108518 1_555
Mg13 O10 2.131776 1_555
Mg13 O20 2.157892 1_565
Mg13 O29 2.157892 1_655
Mg13 O22 2.175431 1_555
Mg13 O30 2.175431 1_555
Mg14 O0 1.925523 1_555
Mg14 O15 2.084937 1_555
Mg14 O19 2.094127 1_555
Mg14 O7 2.122894 1_555
Mg14 O9 2.122894 1_545
Mg15 O0 1.925523 1_555
Mg15 O16 2.084937 1_555
Mg15 O20 2.094127 1_555
Mg15 O8 2.122894 1_555
Mg15 O10 2.122894 1_545
Mg16 O17 2.087972 1_555
Mg16 O21 2.121017 1_555
Mg16 O2 2.129957 1_555
Mg16 O1 2.207829 1_555
Mg16 O7 2.233269 1_555
Mg16 O9 2.233269 1_555
Mg17 O18 2.087972 1_555
Mg17 O22 2.121017 1_555
Mg17 O2 2.129957 1_555
Mg17 O1 2.207829 1_655
Mg17 O8 2.233269 1_555
Mg17 O10 2.233269 1_555
Mg18 O15 2.084754 1_556
Mg18 O3 2.152521 1_555
Mg18 O13 2.157638 1_545
Mg18 O11 2.157638 1_555
Mg18 O4 2.183294 1_555
Mg18 O19 2.255681 1_555
Mg19 O16 2.084754 1_556
Mg19 O3 2.152521 1_655
Mg19 O14 2.157638 1_545
Mg19 O12 2.157638 1_555
Mg19 O4 2.183294 1_555
Mg19 O20 2.255681 1_555
Mg20 O17 2.130018 1_556
Mg20 O6 2.151183 1_555
Mg20 O21 2.155651 1_555
Mg20 O11 2.175419 1_555
Mg20 O13 2.175419 1_555
Mg20 O5 2.185170 1_555
Mg21 O18 2.130018 1_556
Mg21 O6 2.151183 1_555
Mg21 O22 2.155651 1_555
Mg21 O12 2.175419 1_555
Mg21 O14 2.175419 1_555
Mg21 O5 2.185170 1_655
Mg22 O1 1.925523 1_555
Mg22 O23 2.084937 1_555
Mg22 O27 2.094127 1_555
Mg22 O7 2.122894 1_555
Mg22 O8 2.122894 1_455
Mg23 O24 2.087972 1_555
Mg23 O28 2.121017 1_555
Mg23 O2 2.129957 1_555
Mg23 O0 2.207829 1_555
Mg23 O7 2.233269 1_555
Mg23 O8 2.233269 1_555
Mg24 O1 1.925523 1_555
Mg24 O25 2.084937 1_555
Mg24 O29 2.094127 1_555
Mg24 O10 2.122894 1_455
Mg24 O9 2.122894 1_555
Mg25 O26 2.087972 1_555
Mg25 O30 2.121017 1_555
Mg25 O2 2.129957 1_555
Mg25 O0 2.207829 1_565
Mg25 O9 2.233269 1_555
Mg25 O10 2.233269 1_555
Mg26 O23 2.084754 1_556
Mg26 O3 2.152521 1_555
Mg26 O12 2.157638 1_455
Mg26 O11 2.157638 1_555
Mg26 O5 2.183294 1_555
Mg26 O27 2.255681 1_555
Mg27 O24 2.130018 1_556
Mg27 O6 2.151183 1_555
Mg27 O28 2.155651 1_555
Mg27 O11 2.175419 1_555
Mg27 O12 2.175419 1_555
Mg27 O4 2.185170 1_555
Mg28 O25 2.084754 1_556
Mg28 O3 2.152521 1_565
Mg28 O14 2.157638 1_455
Mg28 O13 2.157638 1_555
Mg28 O5 2.183294 1_555
Mg28 O29 2.255681 1_555
Mg29 O26 2.130018 1_556
Mg29 O6 2.151183 1_555
Mg29 O30 2.155651 1_555
Mg29 O13 2.175419 1_555
Mg29 O14 2.175419 1_555
Mg29 O4 2.185170 1_565
