# generated using pymatgen
data_Li5V3P8O29
_symmetry_space_group_name_H-M   'P 1'
_cell_length_a   9.75846900
_cell_length_b   9.79367597
_cell_length_c   14.11127249
_cell_angle_alpha   90.46304293
_cell_angle_beta   90.02816619
_cell_angle_gamma   119.81781378
_symmetry_Int_Tables_number   1
_chemical_formula_structural   Li5V3P8O29
_chemical_formula_sum   'Li10 V6 P16 O58'
_cell_volume   1170.03416523
_cell_formula_units_Z   2
loop_
 _symmetry_equiv_pos_site_id
 _symmetry_equiv_pos_as_xyz
  1  'x, y, z'
loop_
 _atom_site_type_symbol
 _atom_site_label
 _atom_site_symmetry_multiplicity
 _atom_site_fract_x
 _atom_site_fract_y
 _atom_site_fract_z
 _atom_site_occupancy
  Li  Li0  1  0.09502400  0.33231400  0.05903900  1
  Li  Li1  1  0.23092100  0.32038900  0.56463200  1
  Li  Li2  1  0.09520200  0.77150800  0.55790900  1
  Li  Li3  1  0.23454000  0.90103000  0.05822500  1
  Li  Li4  1  0.66728200  0.76534000  0.05630700  1
  Li  Li5  1  0.66863100  0.90278400  0.56350500  1
  Li  Li6  1  0.90985100  0.22835700  0.44204000  1
  Li  Li7  1  0.77560800  0.68475400  0.43908200  1
  Li  Li8  1  0.90100600  0.66688700  0.93763300  1
  Li  Li9  1  0.03623900  0.04582000  0.99025000  1
  V  V0  1  0.43269800  0.99989900  0.24951500  1
  V  V1  1  0.56642800  0.00210200  0.75404800  1
  V  V2  1  0.43452900  0.42811900  0.75300300  1
  V  V3  1  0.56285600  0.56546500  0.24837200  1
  V  V4  1  0.00277700  0.43185000  0.24764500  1
  V  V5  1  0.00129500  0.56819800  0.74843200  1
  P  P0  1  0.08861800  0.31561900  0.84209900  1
  P  P1  1  0.23421900  0.32111300  0.34649300  1
  P  P2  1  0.09083300  0.76988300  0.33868400  1
  P  P3  1  0.33367000  0.66934100  0.12692900  1
  P  P4  1  0.33613400  0.66380000  0.63043100  1
  P  P5  1  0.22493400  0.91596100  0.84647700  1
  P  P6  1  0.31025100  0.08262000  0.66284900  1
  P  P7  1  0.68621400  0.77311800  0.83869000  1
  P  P8  1  0.30472400  0.22089400  0.16262100  1
  P  P9  1  0.68250500  0.91439600  0.34379900  1
  P  P10  1  0.77597400  0.08082900  0.15970000  1
  P  P11  1  0.66987400  0.33351900  0.36707700  1
  P  P12  1  0.67178500  0.33909200  0.87106800  1
  P  P13  1  0.90985500  0.22879700  0.66058400  1
  P  P14  1  0.76868500  0.68018900  0.65624800  1
  P  P15  1  0.91019900  0.68007000  0.15778700  1
  O  O0  1  0.00059100  0.24249700  0.57160200  1
  O  O1  1  0.08356300  0.33654900  0.33757800  1
  O  O2  1  0.19265200  0.20223400  0.08438000  1
  O  O3  1  0.25952900  0.34278400  0.83104500  1
  O  O4  1  0.08734700  0.46981200  0.83221300  1
  O  O5  1  0.19040200  0.51215800  0.16446400  1
  O  O6  1  0.10258200  0.62068500  0.32087000  1
  O  O7  1  0.99561500  0.76571000  0.06943100  1
  O  O8  1  0.08036000  0.74579900  0.83438600  1
  O  O9  1  0.33193200  0.51231300  0.67321300  1
  O  O10  1  0.38158900  0.48233800  0.32044700  1
  O  O11  1  0.18703900  0.66988300  0.66878700  1
  O  O12  1  0.33132900  0.68062200  0.02148000  1
  O  O13  1  0.33404400  0.65561700  0.52450100  1
  O  O14  1  0.32211100  0.81317000  0.17245800  1
  O  O15  1  0.52873200  0.61703500  0.82550800  1
  O  O16  1  0.48980900  0.68138200  0.16546100  1
  O  O17  1  0.25716400  0.91766300  0.33318200  1
  O  O18  1  0.21004300  0.01327800  0.75961000  1
  O  O19  1  0.21786900  0.98928900  0.57949100  1
  O  O20  1  0.20369600  0.98351500  0.93779400  1
  O  O21  1  0.37932300  0.91408000  0.83487500  1
  O  O22  1  0.48783700  0.81221300  0.66974100  1
  O  O23  1  0.33600500  0.07861700  0.16041000  1
  O  O24  1  0.52105500  0.90264700  0.32150300  1
  O  O25  1  0.66705200  0.74974200  0.34002500  1
  O  O26  1  0.21653700  0.20053800  0.26306100  1
  O  O27  1  0.24744500  0.26041700  0.43969900  1
  O  O28  1  0.75585700  0.75769100  0.56760100  1
  O  O29  1  0.33829000  0.25422100  0.66160400  1
  O  O30  1  0.47035900  0.08885600  0.67816200  1
  O  O31  1  0.65830600  0.91390900  0.83542200  1
  O  O32  1  0.52340600  0.18512200  0.31664900  1
  O  O33  1  0.61527300  0.07578400  0.16944700  1
  O  O34  1  0.78951800  0.98817800  0.07938900  1
  O  O35  1  0.75174200  0.99910800  0.43589500  1
  O  O36  1  0.79980300  0.01286600  0.25951500  1
  O  O37  1  0.74463800  0.08119900  0.65973500  1
  O  O38  1  0.51831300  0.33355200  0.82221700  1
  O  O39  1  0.46003300  0.37722300  0.16762500  1
  O  O40  1  0.67643700  0.19615100  0.82759700  1
  O  O41  1  0.66241100  0.34880200  0.97583900  1
  O  O42  1  0.66352000  0.32385200  0.47212600  1
  O  O43  1  0.81702600  0.32666100  0.32805200  1
  O  O44  1  0.61840700  0.52209800  0.67542700  1
  O  O45  1  0.67099400  0.48436500  0.32895100  1
  O  O46  1  0.91477000  0.25322700  0.15857700  1
  O  O47  1  0.99739600  0.20569400  0.75120200  1
  O  O48  1  0.02061300  0.22777100  0.93226900  1
  O  O49  1  0.89937200  0.37933200  0.67898600  1
  O  O50  1  0.81300700  0.49459800  0.83104500  1
  O  O51  1  0.90484800  0.52280100  0.17149900  1
  O  O52  1  0.74136200  0.65853500  0.16026200  1
  O  O53  1  0.77268600  0.77396100  0.92768900  1
  O  O54  1  0.79382300  0.79226500  0.74740100  1
  O  O55  1  0.91695000  0.66197800  0.65482300  1
  O  O56  1  0.00466800  0.76155000  0.42843800  1
  O  O57  1  0.99683600  0.78926600  0.24986500  1
loop_
_geom_bond_atom_site_label_1
_geom_bond_atom_site_label_2
_geom_bond_distance
_geom_bond_site_symmetry_2
Li0 O2 1.967874 1_555
Li0 O48 2.001358 1_554
Li0 O46 2.081353 1_455
Li0 O5 2.123146 1_555
Li1 O27 1.885934 1_555
Li1 O0 1.984912 1_555
Li1 O29 2.019506 1_555
Li1 O9 2.227501 1_555
Li2 O19 1.877471 1_555
Li2 O56 2.009431 1_555
Li2 O55 2.053562 1_455
Li2 O11 2.269943 1_555
Li3 O20 1.973515 1_554
Li3 O7 2.036737 1_455
Li3 O23 2.080870 1_565
Li3 O14 2.195786 1_555
Li4 O34 1.921214 1_555
Li4 O53 2.068127 1_554
Li4 O52 2.131761 1_555
Li4 O16 2.157521 1_555
Li5 O28 1.987773 1_555
Li5 O35 2.014544 1_555
Li5 O37 2.029551 1_565
Li5 O22 2.148165 1_555
Li6 O35 1.995158 1_545
Li6 O0 2.004558 1_655
Li6 O1 2.100163 1_655
Li6 O43 2.285965 1_555
Li7 O56 1.978618 1_655
Li7 O28 1.988153 1_555
Li7 O25 2.040747 1_555
Li7 O45 2.294697 1_555
Li8 O53 1.998866 1_555
Li8 O7 2.080547 1_556
Li8 O50 2.088914 1_555
Li8 O8 2.111580 1_655
Li9 O2 2.020043 1_556
Li9 O48 2.040040 1_555
Li9 O20 2.139194 1_545
Li9 O34 2.521969 1_446
O0 P13 1.504772 1_455
O1 P1 1.556033 1_555
O1 V4 1.962924 1_555
O2 P8 1.498416 1_555
O3 P0 1.560904 1_555
O3 V2 1.850671 1_555
O4 P0 1.523843 1_555
O4 V5 1.963020 1_555
O5 P3 1.574321 1_555
O5 V4 1.983336 1_555
O6 P2 1.540172 1_555
O6 V4 1.900885 1_555
O7 P15 1.508463 1_555
O8 P5 1.566450 1_555
O8 V5 1.929308 1_555
O9 P4 1.587847 1_555
O9 V2 1.945489 1_555
O10 P1 1.564640 1_555
O10 V3 1.846400 1_555
O11 P4 1.581077 1_555
O11 V5 1.940433 1_555
O12 P3 1.494009 1_555
O13 P4 1.495893 1_555
O14 P3 1.597857 1_555
O14 V0 1.922341 1_555
O15 P7 1.546580 1_555
O15 V2 1.895278 1_555
O16 P3 1.565442 1_555
O16 V3 1.997799 1_555
O17 P2 1.549520 1_555
O17 V0 1.903190 1_555
O18 P5 1.608893 1_545
O18 P6 1.624095 1_555
O19 P6 1.481201 1_565
O20 P5 1.504660 1_555
O21 P5 1.524724 1_555
O21 V1 1.957148 1_565
O22 P4 1.567868 1_555
O22 V1 2.001745 1_565
O23 P8 1.567822 1_555
O23 V0 1.950289 1_545
O24 P9 1.553411 1_555
O24 V0 1.874574 1_555
O25 P9 1.543608 1_555
O25 V3 2.024786 1_555
O26 P1 1.607805 1_555
O26 P8 1.619974 1_555
O27 P1 1.479418 1_555
O28 P14 1.505419 1_555
O29 P6 1.562940 1_555
O29 V2 1.954144 1_555
O30 P6 1.547935 1_555
O30 V1 1.885030 1_555
O31 P7 1.533629 1_555
O31 V1 1.911450 1_565
O32 P11 1.605607 1_555
O32 V0 1.829256 1_545
O33 P10 1.550440 1_555
O33 V0 1.924044 1_545
O34 P10 1.492640 1_565
O35 P9 1.502664 1_555
O36 P9 1.605273 1_545
O36 P10 1.627814 1_555
O37 P13 1.539827 1_555
O37 V1 2.018623 1_555
O38 P12 1.624401 1_555
O38 V2 1.801964 1_555
O39 P8 1.528584 1_555
O39 V3 1.956835 1_555
O40 P12 1.545146 1_555
O40 V1 1.944077 1_555
O41 P12 1.486521 1_555
O42 P11 1.485518 1_555
O43 P11 1.570319 1_555
O43 V4 1.948906 1_655
O44 P14 1.539533 1_555
O44 V2 1.908150 1_555
O45 P11 1.571270 1_555
O45 V3 1.970870 1_555
O46 P10 1.552963 1_555
O46 V4 1.961345 1_655
O47 P13 1.616155 1_555
O47 P0 1.618696 1_655
O48 P0 1.500121 1_555
O49 P13 1.547661 1_555
O49 V5 1.873798 1_655
O50 P12 1.570039 1_555
O50 V5 1.988269 1_655
O51 P15 1.528841 1_555
O51 V4 1.929314 1_655
O52 P15 1.553982 1_555
O52 V3 1.962785 1_555
O53 P7 1.510379 1_555
O54 P7 1.614542 1_555
O54 P14 1.621297 1_555
O55 P14 1.543423 1_555
O55 V5 2.009037 1_655
O56 P2 1.500758 1_555
O57 P15 1.619888 1_555
O57 P2 1.619932 1_655
