# generated using pymatgen
data_US2O9
_symmetry_space_group_name_H-M   'P 1'
_cell_length_a   6.50673089
_cell_length_b   6.83721326
_cell_length_c   8.00997202
_cell_angle_alpha   87.54425010
_cell_angle_beta   78.71895001
_cell_angle_gamma   75.24070856
_symmetry_Int_Tables_number   1
_chemical_formula_structural   US2O9
_chemical_formula_sum   'U2 S4 O18'
_cell_volume   337.92225374
_cell_formula_units_Z   2
loop_
 _symmetry_equiv_pos_site_id
 _symmetry_equiv_pos_as_xyz
  1  'x, y, z'
loop_
 _atom_site_type_symbol
 _atom_site_label
 _atom_site_symmetry_multiplicity
 _atom_site_fract_x
 _atom_site_fract_y
 _atom_site_fract_z
 _atom_site_occupancy
  U  U0  1  0.79461882  0.80109809  0.74741323  1
  U  U1  1  0.20538118  0.19890191  0.25258677  1
  S  S0  1  0.98087844  0.25103099  0.85096066  1
  S  S1  1  0.01912156  0.74896901  0.14903934  1
  S  S2  1  0.39444755  0.26009158  0.64439753  1
  S  S3  1  0.60555245  0.73990842  0.35560247  1
  O  O0  1  0.55384287  0.80735910  0.89653482  1
  O  O1  1  0.44615713  0.19264090  0.10346518  1
  O  O2  1  0.03527585  0.79314345  0.59710812  1
  O  O3  1  0.96472415  0.20685655  0.40289188  1
  O  O4  1  0.89867030  0.43533252  0.76415127  1
  O  O5  1  0.10132970  0.56466748  0.23584873  1
  O  O6  1  0.01962929  0.28752674  0.01679333  1
  O  O7  1  0.98037071  0.71247326  0.98320667  1
  O  O8  1  0.85679386  0.10390887  0.85450282  1
  O  O9  1  0.14320614  0.89609113  0.14549718  1
  O  O10  1  0.20814940  0.13953812  0.73817276  1
  O  O11  1  0.79185060  0.86046188  0.26182724  1
  O  O12  1  0.38451195  0.42162095  0.75210867  1
  O  O13  1  0.61548805  0.57837905  0.24789133  1
  O  O14  1  0.33374334  0.31753041  0.48062897  1
  O  O15  1  0.66625666  0.68246959  0.51937103  1
  O  O16  1  0.58519655  0.09205935  0.62610514  1
  O  O17  1  0.41480345  0.90794065  0.37389486  1
loop_
_geom_bond_atom_site_label_1
_geom_bond_atom_site_label_2
_geom_bond_distance
_geom_bond_site_symmetry_2
O0 U0 1.766656 1_555
O1 U1 1.766656 1_555
O2 U0 1.768919 1_455
O3 U1 1.768919 1_655
O4 S0 1.443778 1_555
O4 U0 2.423744 1_555
O5 S1 1.443778 1_555
O5 U1 2.423744 1_555
O6 S0 1.442830 1_454
O6 U1 2.411855 1_555
O7 S1 1.442830 1_656
O7 U0 2.411855 1_555
O8 S0 1.437678 1_555
O8 U0 2.429129 1_545
O9 S1 1.437678 1_555
O9 U1 2.429129 1_565
O10 S0 1.595638 1_455
O10 S2 1.677139 1_555
O11 S1 1.595638 1_655
O11 S3 1.677139 1_555
O12 S2 1.411282 1_555
O13 S3 1.411282 1_555
O14 S2 1.452773 1_555
O14 U1 2.400204 1_555
O15 S3 1.452773 1_555
O15 U0 2.400204 1_555
O16 S2 1.448647 1_555
O16 U0 2.393683 1_545
O17 S3 1.448647 1_555
O17 U1 2.393683 1_565
