# generated using pymatgen
data_Co2O3F
_symmetry_space_group_name_H-M   'P 1'
_cell_length_a   6.00792421
_cell_length_b   6.56638568
_cell_length_c   6.77872114
_cell_angle_alpha   89.93460106
_cell_angle_beta   63.75833517
_cell_angle_gamma   89.92198176
_symmetry_Int_Tables_number   1
_chemical_formula_structural   Co2O3F
_chemical_formula_sum   'Co8 O12 F4'
_cell_volume   239.86125180
_cell_formula_units_Z   4
loop_
 _symmetry_equiv_pos_site_id
 _symmetry_equiv_pos_as_xyz
  1  'x, y, z'
loop_
 _atom_site_type_symbol
 _atom_site_label
 _atom_site_symmetry_multiplicity
 _atom_site_fract_x
 _atom_site_fract_y
 _atom_site_fract_z
 _atom_site_occupancy
  Co  Co0  1  0.99856200  0.96571100  0.00029000  1
  Co  Co1  1  0.50096100  0.03506300  0.00032300  1
  Co  Co2  1  0.74900400  0.46515200  0.49969600  1
  Co  Co3  1  0.25141300  0.53449600  0.49971400  1
  Co  Co4  1  0.75031000  0.50027500  0.99924500  1
  Co  Co5  1  0.49969600  0.99984500  0.50075800  1
  Co  Co6  1  0.00038600  0.99961800  0.49939900  1
  Co  Co7  1  0.24960400  0.50028200  0.00057700  1
  O  O0  1  0.15155800  0.99939100  0.19332700  1
  O  O1  1  0.64777700  0.99965200  0.20617200  1
  O  O2  1  0.09758300  0.50034900  0.30665800  1
  O  O3  1  0.60278800  0.50009700  0.29384100  1
  O  O4  1  0.50155800  0.32116100  0.99792400  1
  O  O5  1  0.74830100  0.17880100  0.50249400  1
  O  O6  1  0.00013100  0.67920000  0.99863900  1
  O  O7  1  0.25012400  0.82078000  0.50089800  1
  O  O8  1  0.35125300  0.00039600  0.79518200  1
  O  O9  1  0.84898400  0.99992600  0.80561600  1
  O  O10  1  0.40182700  0.49996200  0.69437400  1
  O  O11  1  0.89821100  0.49963700  0.70483600  1
  F  F0  1  0.99609000  0.28380000  0.00169700  1
  F  F1  1  0.25397500  0.21631000  0.49813800  1
  F  F2  1  0.50263600  0.71685900  0.00111200  1
  F  F3  1  0.74726600  0.78323800  0.49909100  1
loop_
_geom_bond_atom_site_label_1
_geom_bond_atom_site_label_2
_geom_bond_distance
_geom_bond_site_symmetry_2
Co0 O6 1.881374 1_654
Co0 O9 1.909709 1_554
Co0 O0 1.915978 1_655
Co0 O1 1.958920 1_555
Co0 O8 1.967284 1_664
Co0 F0 2.088730 1_565
Co1 O4 1.878676 1_554
Co1 O9 1.930299 1_544
Co1 O0 1.935226 1_545
Co1 O1 1.966304 1_545
Co1 O8 1.975320 1_554
Co1 F2 2.089473 1_545
Co2 O5 1.880357 1_555
Co2 O10 1.926039 1_555
Co2 O2 1.931005 1_655
Co2 O3 1.963239 1_555
Co2 O11 1.972867 1_555
Co2 F3 2.088696 1_555
Co3 O7 1.879868 1_555
Co3 O10 1.913768 1_555
Co3 O2 1.920374 1_555
Co3 O3 1.961945 1_555
Co3 O11 1.969788 1_455
Co3 F1 2.089372 1_555
Co4 O11 1.790050 1_555
Co4 O3 1.791172 1_556
Co4 O6 1.905896 1_655
Co4 O4 1.906172 1_555
Co4 F2 2.052931 1_556
Co4 F0 2.053578 1_556
Co5 O8 1.790154 1_565
Co5 O1 1.791122 1_555
Co5 O5 1.905828 1_565
Co5 O7 1.906384 1_555
Co5 F3 2.053011 1_555
Co5 F1 2.053648 1_565
Co6 O0 1.860968 1_555
Co6 O9 1.861846 1_455
Co6 O7 1.907618 1_555
Co6 O5 1.909353 1_465
Co6 F3 2.083286 1_455
Co6 F1 2.083318 1_565
Co7 O2 1.861004 1_555
Co7 O10 1.861746 1_554
Co7 O6 1.907737 1_554
Co7 O4 1.909501 1_554
Co7 F0 2.082352 1_455
Co7 F2 2.084283 1_555
