# generated using pymatgen
data_Ba3RhF12
_symmetry_space_group_name_H-M   'P 1'
_cell_length_a   6.67656518
_cell_length_b   8.05906208
_cell_length_c   8.50649057
_cell_angle_alpha   118.27479202
_cell_angle_beta   100.06555551
_cell_angle_gamma   68.34874417
_symmetry_Int_Tables_number   1
_chemical_formula_structural   Ba3RhF12
_chemical_formula_sum   'Ba3 Rh1 F12'
_cell_volume   374.65675942
_cell_formula_units_Z   1
loop_
 _symmetry_equiv_pos_site_id
 _symmetry_equiv_pos_as_xyz
  1  'x, y, z'
loop_
 _atom_site_type_symbol
 _atom_site_label
 _atom_site_symmetry_multiplicity
 _atom_site_fract_x
 _atom_site_fract_y
 _atom_site_fract_z
 _atom_site_occupancy
  Ba  Ba0  1  0.50000000  0.00000000  0.00000000  1
  Ba  Ba1  1  0.00000000  0.50000000  0.50000000  1
  Ba  Ba2  1  0.00000000  0.00000000  0.50000000  1
  Rh  Rh0  1  0.00000000  0.00000000  0.00000000  1
  F  F0  1  0.89142100  0.76522400  0.84542300  1
  F  F1  1  0.10857900  0.23477600  0.15457700  1
  F  F2  1  0.75380900  0.79350400  0.45077400  1
  F  F3  1  0.10857900  0.08019900  0.84542300  1
  F  F4  1  0.24619100  0.20649600  0.54922600  1
  F  F5  1  0.89142100  0.91980100  0.15457700  1
  F  F6  1  0.24362000  0.76563500  0.84219100  1
  F  F7  1  0.24619100  0.65727000  0.45077400  1
  F  F8  1  0.75638000  0.23436500  0.15780900  1
  F  F9  1  0.75380900  0.34273000  0.54922600  1
  F  F10  1  0.75638000  0.07655600  0.84219100  1
  F  F11  1  0.24362000  0.92344400  0.15780900  1
loop_
_geom_bond_atom_site_label_1
_geom_bond_atom_site_label_2
_geom_bond_distance
_geom_bond_site_symmetry_2
Ba0 F3 2.708120 1_554
Ba0 F5 2.708120 1_545
Ba0 F0 2.708120 1_544
Ba0 F1 2.708120 1_555
Ba0 F6 2.734941 1_544
Ba0 F8 2.734941 1_555
Ba0 F11 2.734942 1_545
Ba0 F10 2.734942 1_554
Ba1 F4 2.510157 1_555
Ba1 F2 2.510157 1_455
Ba1 F7 2.600820 1_555
Ba1 F9 2.600820 1_455
Ba1 F1 2.716436 1_555
Ba1 F0 2.716436 1_455
Ba2 F9 2.510157 1_455
Ba2 F7 2.510157 1_545
Ba2 F4 2.600820 1_555
Ba2 F2 2.600820 1_445
Ba2 F5 2.716436 1_445
Ba2 F3 2.716436 1_555
F0 Rh0 2.038715 1_666
F1 Rh0 2.038715 1_555
F3 Rh0 2.038715 1_556
F5 Rh0 2.038715 1_665
F6 Rh0 2.027128 1_566
F8 Rh0 2.027128 1_655
F10 Rh0 2.027128 1_656
F11 Rh0 2.027128 1_565
