# generated using pymatgen
data_Li3PrSb2
_symmetry_space_group_name_H-M   'P 1'
_cell_length_a   4.60892722
_cell_length_b   4.60891756
_cell_length_c   7.39202571
_cell_angle_alpha   90.00088601
_cell_angle_beta   89.99959640
_cell_angle_gamma   119.99692051
_symmetry_Int_Tables_number   1
_chemical_formula_structural   Li3PrSb2
_chemical_formula_sum   'Li3 Pr1 Sb2'
_cell_volume   135.98980991
_cell_formula_units_Z   1
loop_
 _symmetry_equiv_pos_site_id
 _symmetry_equiv_pos_as_xyz
  1  'x, y, z'
loop_
 _atom_site_type_symbol
 _atom_site_label
 _atom_site_symmetry_multiplicity
 _atom_site_fract_x
 _atom_site_fract_y
 _atom_site_fract_z
 _atom_site_occupancy
  Li  Li0  1  0.66666958  0.33333626  0.35400483  1
  Li  Li1  1  0.33333042  0.66666374  0.64599517  1
  Li  Li2  1  0.00000000  -0.00000000  0.50000000  1
  Pr  Pr0  1  0.00000000  -0.00000000  -0.00000000  1
  Sb  Sb0  1  0.66665285  0.33332176  0.74280620  1
  Sb  Sb1  1  0.33334715  0.66667824  0.25719380  1
loop_
_geom_bond_atom_site_label_1
_geom_bond_atom_site_label_2
_geom_bond_distance
_geom_bond_site_symmetry_2
Li0 Sb1 2.755473 1_555
Li0 Sb1 2.755546 1_545
Li0 Sb1 2.755637 1_655
Li0 Li2 2.871454 1_655
Li0 Li2 2.871529 1_665
Li0 Li2 2.871570 1_555
Li0 Sb0 2.874030 1_555
Li1 Sb0 2.755473 1_555
Li1 Sb0 2.755546 1_565
Li1 Sb0 2.755637 1_455
Li1 Li2 2.871454 1_565
Li1 Li2 2.871529 1_555
Li1 Li2 2.871570 1_665
Li1 Sb1 2.874030 1_555
Li2 Sb1 3.209648 1_545
Li2 Sb0 3.209648 1_455
Li2 Sb0 3.209718 1_555
Li2 Sb1 3.209718 1_445
Li2 Sb0 3.209819 1_445
Li2 Sb1 3.209819 1_555
Li2 Pr0 3.696013 1_556
Li2 Pr0 3.696013 1_555
Pr0 Sb1 3.270348 1_545
Pr0 Sb0 3.270348 1_454
Pr0 Sb0 3.270380 1_554
Pr0 Sb1 3.270380 1_445
Pr0 Sb1 3.270436 1_555
Pr0 Sb0 3.270436 1_444
