# generated using pymatgen
data_Sr7CaMn4(FeO6)4
_symmetry_space_group_name_H-M   'P 1'
_cell_length_a   7.80233291
_cell_length_b   7.80233291
_cell_length_c   7.80233308
_cell_angle_alpha   89.99425672
_cell_angle_beta   89.99425672
_cell_angle_gamma   89.99425701
_symmetry_Int_Tables_number   1
_chemical_formula_structural   Sr7CaMn4(FeO6)4
_chemical_formula_sum   'Sr7 Ca1 Mn4 Fe4 O24'
_cell_volume   474.97793271
_cell_formula_units_Z   1
loop_
 _symmetry_equiv_pos_site_id
 _symmetry_equiv_pos_as_xyz
  1  'x, y, z'
loop_
 _atom_site_type_symbol
 _atom_site_label
 _atom_site_symmetry_multiplicity
 _atom_site_fract_x
 _atom_site_fract_y
 _atom_site_fract_z
 _atom_site_occupancy
  Sr  Sr0  1  0.25069300  0.25069300  0.74925100  1
  Sr  Sr1  1  0.74931600  0.25071000  0.74931600  1
  Sr  Sr2  1  0.74925100  0.25069300  0.25069300  1
  Sr  Sr3  1  0.25071000  0.74931600  0.74931600  1
  Sr  Sr4  1  0.74926200  0.74926200  0.74926200  1
  Sr  Sr5  1  0.25069300  0.74925100  0.25069300  1
  Sr  Sr6  1  0.74931600  0.74931600  0.25071000  1
  Ca  Ca0  1  0.25099900  0.25099900  0.25099900  1
  Mn  Mn0  1  0.49947900  0.00071200  0.49947900  1
  Mn  Mn1  1  0.49947900  0.49947900  0.00071200  1
  Mn  Mn2  1  0.00071200  0.49947900  0.49947900  1
  Mn  Mn3  1  0.49952500  0.49952500  0.49952500  1
  Fe  Fe0  1  0.00062800  0.00062800  0.00062800  1
  Fe  Fe1  1  0.49940400  0.00061500  0.00061500  1
  Fe  Fe2  1  0.00061500  0.00061500  0.49940400  1
  Fe  Fe3  1  0.00061500  0.49940400  0.00061500  1
  O  O0  1  0.00231900  0.24713800  0.00231900  1
  O  O1  1  0.49747900  0.25361000  0.00245000  1
  O  O2  1  0.00245000  0.25361000  0.49747900  1
  O  O3  1  0.49715200  0.25098100  0.49715200  1
  O  O4  1  0.00054800  0.75298300  0.00054800  1
  O  O5  1  0.49956000  0.74633700  0.00046900  1
  O  O6  1  0.00046900  0.74633700  0.49956000  1
  O  O7  1  0.49969100  0.74896900  0.49969100  1
  O  O8  1  0.00054800  0.00054800  0.75298300  1
  O  O9  1  0.49956000  0.00046900  0.74633700  1
  O  O10  1  0.00231900  0.00231900  0.24713800  1
  O  O11  1  0.49747900  0.00245000  0.25361000  1
  O  O12  1  0.00046900  0.49956000  0.74633700  1
  O  O13  1  0.49969100  0.49969100  0.74896900  1
  O  O14  1  0.00245000  0.49747900  0.25361000  1
  O  O15  1  0.49715200  0.49715200  0.25098100  1
  O  O16  1  0.24713800  0.00231900  0.00231900  1
  O  O17  1  0.75298300  0.00054800  0.00054800  1
  O  O18  1  0.25361000  0.00245000  0.49747900  1
  O  O19  1  0.74633700  0.00046900  0.49956000  1
  O  O20  1  0.25361000  0.49747900  0.00245000  1
  O  O21  1  0.74633700  0.49956000  0.00046900  1
  O  O22  1  0.25098100  0.49715200  0.49715200  1
  O  O23  1  0.74896900  0.49969100  0.49969100  1
loop_
_geom_bond_atom_site_label_1
_geom_bond_atom_site_label_2
_geom_bond_distance
_geom_bond_site_symmetry_2
Ca0 O15 2.716229 1_555
Ca0 O22 2.716229 1_555
Ca0 O3 2.716229 1_555
Ca0 O11 2.731079 1_555
Ca0 O14 2.731079 1_555
Ca0 O2 2.731079 1_555
Ca0 O18 2.731079 1_555
Ca0 O20 2.731079 1_555
Ca0 O1 2.731079 1_555
Ca0 O10 2.744283 1_555
Ca0 O0 2.744283 1_555
Ca0 O16 2.744283 1_555
Mn0 O18 1.918463 1_555
Mn0 O11 1.918463 1_555
Mn0 O19 1.926069 1_555
Mn0 O9 1.926069 1_555
Mn0 O3 1.952847 1_555
Mn0 O7 1.964184 1_545
Mn1 O1 1.918463 1_555
Mn1 O20 1.918463 1_555
Mn1 O21 1.926069 1_555
Mn1 O5 1.926069 1_555
Mn1 O15 1.952847 1_555
Mn1 O13 1.964184 1_554
Mn2 O2 1.918463 1_555
Mn2 O14 1.918463 1_555
Mn2 O6 1.926069 1_555
Mn2 O12 1.926069 1_555
Mn2 O22 1.952847 1_555
Mn2 O23 1.964184 1_455
Mn3 O22 1.939404 1_555
Mn3 O3 1.939404 1_555
Mn3 O15 1.939404 1_555
Mn3 O23 1.946246 1_555
Mn3 O7 1.946246 1_555
Mn3 O13 1.946246 1_555
Fe0 O16 1.923446 1_555
Fe0 O0 1.923446 1_555
Fe0 O10 1.923446 1_555
Fe0 O4 1.932209 1_545
Fe0 O17 1.932209 1_455
Fe0 O8 1.932209 1_554
Fe1 O16 1.968350 1_555
Fe1 O1 1.974060 1_555
Fe1 O11 1.974060 1_555
Fe1 O17 1.978508 1_555
Fe1 O5 1.983962 1_545
Fe1 O9 1.983962 1_554
Fe2 O10 1.968351 1_555
Fe2 O2 1.974060 1_555
Fe2 O18 1.974060 1_555
Fe2 O8 1.978508 1_555
Fe2 O19 1.983962 1_455
Fe2 O6 1.983962 1_545
Fe3 O0 1.968350 1_555
Fe3 O20 1.974060 1_555
Fe3 O14 1.974060 1_555
Fe3 O4 1.978508 1_555
Fe3 O21 1.983962 1_455
Fe3 O12 1.983962 1_554
O0 Sr2 2.766618 1_455
O0 Sr0 2.766618 1_554
O0 Sr1 2.791952 1_454
O1 Sr0 2.758921 1_554
O1 Sr2 2.758922 1_555
O1 Sr1 2.785928 1_554
O2 Sr2 2.758921 1_455
O2 Sr0 2.758922 1_555
O2 Sr1 2.785928 1_455
O3 Sr2 2.750625 1_555
O3 Sr0 2.750625 1_555
O3 Sr1 2.782559 1_555
O4 Sr5 2.760429 1_555
O4 Sr6 2.766248 1_455
O4 Sr3 2.766248 1_554
O4 Sr4 2.773026 1_454
O5 Sr5 2.753492 1_555
O5 Sr6 2.758765 1_555
O5 Sr3 2.758820 1_554
O5 Sr4 2.763525 1_554
O6 Sr5 2.753492 1_555
O6 Sr3 2.758765 1_555
O6 Sr6 2.758820 1_455
O6 Sr4 2.763525 1_455
O7 Sr5 2.747623 1_555
O7 Sr6 2.750716 1_555
O7 Sr3 2.750716 1_555
O7 Sr4 2.753947 1_555
O8 Sr0 2.760429 1_555
O8 Sr1 2.766248 1_455
O8 Sr3 2.766248 1_545
O8 Sr4 2.773026 1_445
O9 Sr0 2.753492 1_555
O9 Sr1 2.758765 1_555
O9 Sr3 2.758820 1_545
O9 Sr4 2.763524 1_545
O10 Sr5 2.766618 1_545
O10 Sr2 2.766618 1_455
O10 Sr6 2.791952 1_445
O11 Sr5 2.758921 1_545
O11 Sr2 2.758922 1_555
O11 Sr6 2.785928 1_545
O12 Sr0 2.753492 1_555
O12 Sr3 2.758765 1_555
O12 Sr1 2.758820 1_455
O12 Sr4 2.763524 1_455
O13 Sr0 2.747623 1_555
O13 Sr3 2.750716 1_555
O13 Sr1 2.750716 1_555
O13 Sr4 2.753947 1_555
O14 Sr2 2.758921 1_455
O14 Sr5 2.758922 1_555
O14 Sr6 2.785928 1_455
O15 Sr5 2.750625 1_555
O15 Sr2 2.750625 1_555
O15 Sr6 2.782559 1_555
O16 Sr5 2.766618 1_545
O16 Sr0 2.766618 1_554
O16 Sr3 2.791952 1_544
O17 Sr2 2.760429 1_555
O17 Sr6 2.766248 1_545
O17 Sr1 2.766248 1_554
O17 Sr4 2.773026 1_544
O18 Sr5 2.758921 1_545
O18 Sr0 2.758922 1_555
O18 Sr3 2.785928 1_545
O19 Sr2 2.753492 1_555
O19 Sr1 2.758765 1_555
O19 Sr6 2.758820 1_545
O19 Sr4 2.763525 1_545
O20 Sr0 2.758921 1_554
O20 Sr5 2.758922 1_555
O20 Sr3 2.785928 1_554
O21 Sr2 2.753492 1_555
O21 Sr6 2.758765 1_555
O21 Sr1 2.758820 1_554
O21 Sr4 2.763525 1_554
O22 Sr5 2.750625 1_555
O22 Sr0 2.750625 1_555
O22 Sr3 2.782559 1_555
O23 Sr2 2.747623 1_555
O23 Sr6 2.750716 1_555
O23 Sr1 2.750716 1_555
O23 Sr4 2.753947 1_555
