# generated using pymatgen
data_MnAg4(PO4)6
_symmetry_space_group_name_H-M   'P 1'
_cell_length_a   6.63582700
_cell_length_b   8.24351205
_cell_length_c   9.37153101
_cell_angle_alpha   101.92740340
_cell_angle_beta   103.23889811
_cell_angle_gamma   90.90356281
_symmetry_Int_Tables_number   1
_chemical_formula_structural   MnAg4(PO4)6
_chemical_formula_sum   'Mn1 Ag4 P6 O24'
_cell_volume   487.17557872
_cell_formula_units_Z   1
loop_
 _symmetry_equiv_pos_site_id
 _symmetry_equiv_pos_as_xyz
  1  'x, y, z'
loop_
 _atom_site_type_symbol
 _atom_site_label
 _atom_site_symmetry_multiplicity
 _atom_site_fract_x
 _atom_site_fract_y
 _atom_site_fract_z
 _atom_site_occupancy
  Mn  Mn0  1  0.00000000  0.00000000  0.00000000  1
  Ag  Ag0  1  0.61940500  0.28498600  0.41453000  1
  Ag  Ag1  1  0.38059500  0.71501400  0.58547000  1
  Ag  Ag2  1  0.19922300  0.45216000  0.16515100  1
  Ag  Ag3  1  0.80077700  0.54784000  0.83484900  1
  P  P0  1  0.85467000  0.72209900  0.51857200  1
  P  P1  1  0.14533000  0.27790100  0.48142800  1
  P  P2  1  0.46880500  0.16039700  0.69069100  1
  P  P3  1  0.53119500  0.83960300  0.30930900  1
  P  P4  1  0.72673900  0.54462100  0.20614500  1
  P  P5  1  0.27326100  0.45537900  0.79385500  1
  O  O0  1  0.29259900  0.36654500  0.41310900  1
  O  O1  1  0.70740100  0.63345500  0.58689100  1
  O  O2  1  0.93427500  0.22083300  0.38328500  1
  O  O3  1  0.06572500  0.77916700  0.61671500  1
  O  O4  1  0.73609700  0.86820100  0.45267100  1
  O  O5  1  0.26390300  0.13179900  0.54732900  1
  O  O6  1  0.89065900  0.59987500  0.36772300  1
  O  O7  1  0.10934100  0.40012500  0.63227700  1
  O  O8  1  0.49599500  0.00247700  0.26831900  1
  O  O9  1  0.50400500  0.99752300  0.73168100  1
  O  O10  1  0.36276200  0.73821100  0.34680500  1
  O  O11  1  0.63723800  0.26178900  0.65319500  1
  O  O12  1  0.61878800  0.71311000  0.18146800  1
  O  O13  1  0.38121200  0.28689000  0.81853200  1
  O  O14  1  0.85196000  0.49443800  0.09133300  1
  O  O15  1  0.14804000  0.50556200  0.90866700  1
  O  O16  1  0.56484400  0.41955900  0.22026100  1
  O  O17  1  0.43515600  0.58044100  0.77973900  1
  O  O18  1  0.18351700  0.19152900  0.06498000  1
  O  O19  1  0.81648300  0.80847100  0.93502000  1
  O  O20  1  0.21944700  0.86083900  0.01690100  1
  O  O21  1  0.78055300  0.13916100  0.98309900  1
  O  O22  1  0.00923300  0.90125700  0.16519000  1
  O  O23  1  0.99076700  0.09874300  0.83481000  1
loop_
_geom_bond_atom_site_label_1
_geom_bond_atom_site_label_2
_geom_bond_distance
_geom_bond_site_symmetry_2
Mn0 O21 1.866495 1_454
Mn0 O20 1.866495 1_545
Mn0 O23 1.881991 1_454
Mn0 O22 1.881991 1_545
Mn0 O19 1.883866 1_444
Mn0 O18 1.883866 1_555
Ag0 O2 2.232078 1_555
Ag0 O11 2.260415 1_555
Ag0 O0 2.278511 1_555
Ag0 O16 2.285150 1_555
Ag0 O8 2.465493 1_555
Ag1 O3 2.232078 1_555
Ag1 O10 2.260415 1_555
Ag1 O1 2.278511 1_555
Ag1 O17 2.285150 1_555
Ag1 O9 2.465493 1_555
Ag2 O18 2.150042 1_555
Ag2 O14 2.303264 1_455
Ag2 O16 2.393618 1_555
Ag2 O15 2.480895 1_554
Ag2 O0 2.512776 1_555
Ag2 O10 2.655197 1_555
Ag3 O19 2.150042 1_555
Ag3 O15 2.303264 1_655
Ag3 O17 2.393618 1_555
Ag3 O14 2.480895 1_556
Ag3 O1 2.512776 1_555
Ag3 O11 2.655197 1_555
O0 P1 1.535046 1_555
O1 P0 1.535046 1_555
O2 P1 1.496362 1_655
O3 P0 1.496362 1_455
O4 P0 1.601830 1_555
O4 P3 1.652773 1_555
O5 P1 1.601830 1_555
O5 P2 1.652773 1_555
O6 P4 1.621245 1_555
O6 P0 1.626093 1_555
O7 P5 1.621245 1_555
O7 P1 1.626093 1_555
O8 P3 1.478792 1_545
O9 P2 1.478792 1_565
O10 P3 1.530734 1_555
O11 P2 1.530734 1_555
O12 P4 1.607501 1_555
O12 P3 1.637751 1_555
O13 P5 1.607501 1_555
O13 P2 1.637751 1_555
O14 P4 1.501887 1_555
O15 P5 1.501887 1_555
O16 P4 1.523493 1_555
O17 P5 1.523493 1_555
