# generated using pymatgen
data_Ho6Ge11
_symmetry_space_group_name_H-M   'P 1'
_cell_length_a   4.00350013
_cell_length_b   4.05583771
_cell_length_c   47.40612519
_cell_angle_alpha   105.62665196
_cell_angle_beta   90.31574431
_cell_angle_gamma   89.96863880
_symmetry_Int_Tables_number   1
_chemical_formula_structural   Ho6Ge11
_chemical_formula_sum   'Ho12 Ge22'
_cell_volume   741.29524461
_cell_formula_units_Z   2
loop_
 _symmetry_equiv_pos_site_id
 _symmetry_equiv_pos_as_xyz
  1  'x, y, z'
loop_
 _atom_site_type_symbol
 _atom_site_label
 _atom_site_symmetry_multiplicity
 _atom_site_fract_x
 _atom_site_fract_y
 _atom_site_fract_z
 _atom_site_occupancy
  Ho  Ho0  1  0.23620500  0.10590400  0.04708600  1
  Ho  Ho1  1  0.23345500  0.95804500  0.38369800  1
  Ho  Ho2  1  0.23673600  0.10985300  0.71639700  1
  Ho  Ho3  1  0.73265800  0.04297200  0.28299200  1
  Ho  Ho4  1  0.73111800  0.93014100  0.63840100  1
  Ho  Ho5  1  0.73225100  0.92358500  0.97010200  1
  Ho  Ho6  1  0.24449300  0.79162300  0.11898000  1
  Ho  Ho7  1  0.24629000  0.71401700  0.45687800  1
  Ho  Ho8  1  0.24801500  0.79093100  0.78990700  1
  Ho  Ho9  1  0.74043700  0.27357700  0.20900300  1
  Ho  Ho10  1  0.74518400  0.24138400  0.55307100  1
  Ho  Ho11  1  0.74742300  0.23379500  0.88047900  1
  Ge  Ge0  1  0.23497800  0.49160800  0.26970000  1
  Ge  Ge1  1  0.22960400  0.39381000  0.61041500  1
  Ge  Ge2  1  0.23151900  0.38514400  0.94207800  1
  Ge  Ge3  1  0.73485100  0.57522200  0.03724300  1
  Ge  Ge4  1  0.73596400  0.50971000  0.39690000  1
  Ge  Ge5  1  0.73442900  0.57324100  0.70441300  1
  Ge  Ge6  1  0.23904600  0.85368800  0.23221500  1
  Ge  Ge7  1  0.24609800  0.79472500  0.57552800  1
  Ge  Ge8  1  0.24627300  0.78608300  0.90649600  1
  Ge  Ge9  1  0.74108700  0.22839300  0.09393200  1
  Ge  Ge10  1  0.74434000  0.14545700  0.43475000  1
  Ge  Ge11  1  0.74336400  0.22144300  0.76426000  1
  Ge  Ge12  1  0.24705500  0.65742800  0.17670400  1
  Ge  Ge13  1  0.25495800  0.65057600  0.51830500  1
  Ge  Ge14  1  0.25238600  0.65390400  0.84869500  1
  Ge  Ge15  1  0.74594800  0.33359900  0.14774000  1
  Ge  Ge16  1  0.75310400  0.30694300  0.49082900  1
  Ge  Ge17  1  0.75076700  0.33989500  0.81905300  1
  Ge  Ge18  1  0.23156000  0.47602400  0.99808600  1
  Ge  Ge19  1  0.21031700  0.27392300  0.33364800  1
  Ge  Ge20  1  0.23061900  0.48165200  0.66637200  1
  Ge  Ge21  1  0.70346700  0.73070400  0.33298000  1
loop_
_geom_bond_atom_site_label_1
_geom_bond_atom_site_label_2
_geom_bond_distance
_geom_bond_site_symmetry_2
Ge0 Ge6 2.592470 1_555
Ge0 Ge6 2.715791 1_545
Ge0 Ho3 2.877112 1_555
Ge0 Ho3 2.896191 1_455
Ge0 Ho3 2.932515 1_565
Ge0 Ho3 2.948223 1_465
Ge0 Ho9 3.398496 1_455
Ge0 Ho9 3.442072 1_555
Ge1 Ge7 2.545505 1_545
Ge1 Ge20 2.579635 1_555
Ge1 Ge7 2.614144 1_555
Ge1 Ho4 2.990639 1_555
Ge1 Ho4 2.990719 1_455
Ge1 Ho10 3.251336 1_455
Ge1 Ho4 3.261690 1_545
Ge1 Ho4 3.264486 1_445
Ge1 Ho10 3.344826 1_555
Ge2 Ge8 2.558357 1_545
Ge2 Ge8 2.640472 1_555
Ge2 Ho5 2.994200 1_555
Ge2 Ho5 2.998469 1_455
Ge2 Ho5 3.254913 1_545
Ge2 Ho5 3.261567 1_445
Ge2 Ho11 3.410802 1_455
Ge2 Ho11 3.502792 1_555
Ge3 Ho0 2.881009 1_565
Ge3 Ho0 2.884306 1_555
Ge3 Ho0 2.886600 1_665
Ge3 Ho0 2.886814 1_655
Ge4 Ho1 2.880256 1_655
Ge4 Ho1 2.888030 1_555
Ge4 Ho1 2.935861 1_645
Ge4 Ho1 2.946507 1_545
Ge4 Ho7 3.377083 1_555
Ge4 Ho7 3.407913 1_655
Ge5 Ho2 2.893310 1_565
Ge5 Ho2 2.901191 1_555
Ge5 Ho2 2.903388 1_665
Ge5 Ho2 2.908188 1_655
Ge6 Ho9 3.012882 1_465
Ge6 Ho9 3.029532 1_565
Ge6 Ho3 3.040170 1_565
Ge6 Ho9 3.052468 1_455
Ge6 Ho9 3.066006 1_555
Ge6 Ho3 3.090349 1_465
Ge7 Ho10 2.980935 1_455
Ge7 Ho10 2.982250 1_555
Ge7 Ho10 3.073816 1_465
Ge7 Ho10 3.077980 1_565
Ge7 Ho4 3.465745 1_555
Ge7 Ho4 3.552562 1_455
Ge8 Ho11 3.002784 1_455
Ge8 Ho11 3.016319 1_555
Ge8 Ho11 3.159512 1_465
Ge8 Ho11 3.175179 1_565
Ge8 Ho5 3.495588 1_555
Ge8 Ho5 3.577601 1_455
Ge9 Ho0 2.925902 1_655
Ge9 Ho0 2.936254 1_555
Ge9 Ho6 3.023349 1_555
Ge9 Ho6 3.034377 1_655
Ge9 Ho6 3.108663 1_545
Ge9 Ho6 3.116538 1_645
Ge10 Ge16 2.560998 1_555
Ge10 Ge4 2.613555 1_555
Ge10 Ge4 2.715917 1_545
Ge10 Ho7 3.018049 1_555
Ge10 Ho7 3.022407 1_655
Ge10 Ho7 3.025553 1_545
Ge10 Ho7 3.026966 1_645
Ge10 Ho1 3.054343 1_645
Ge10 Ho1 3.094266 1_545
Ge11 Ge17 2.511113 1_555
Ge11 Ho2 2.958014 1_655
Ge11 Ho2 2.977277 1_555
Ge11 Ho8 3.042144 1_555
Ge11 Ho8 3.059445 1_655
Ge11 Ho8 3.103856 1_545
Ge11 Ho8 3.117966 1_645
Ge12 Ge6 2.536170 1_555
Ge12 Ge15 2.576059 1_455
Ge12 Ge15 2.579811 1_555
Ge12 Ho6 2.930304 1_555
Ge12 Ho9 3.149188 1_555
Ge12 Ho9 3.194357 1_455
Ge12 Ho9 3.225178 1_565
Ge12 Ho9 3.266577 1_465
Ge13 Ge16 2.581467 1_555
Ge13 Ge16 2.583029 1_455
Ge13 Ge7 2.616971 1_555
Ge13 Ho7 2.991620 1_555
Ge13 Ho10 3.186212 1_565
Ge13 Ho10 3.244608 1_465
Ge13 Ho10 3.279766 1_555
Ge13 Ho10 3.339188 1_455
Ge14 Ge17 2.576267 1_455
Ge14 Ge17 2.577145 1_555
Ge14 Ge8 2.646810 1_555
Ge14 Ho8 2.984949 1_555
Ge14 Ho11 3.129348 1_565
Ge14 Ho11 3.163557 1_465
Ge14 Ho11 3.232327 1_555
Ge14 Ho11 3.268177 1_455
Ge15 Ge9 2.470276 1_555
Ge15 Ho9 2.979257 1_555
Ge15 Ho6 3.013509 1_545
Ge15 Ho6 3.014154 1_645
Ge15 Ho6 3.266557 1_555
Ge15 Ho6 3.269870 1_655
Ge16 Ho10 3.033442 1_555
Ge16 Ho7 3.196364 1_645
Ge16 Ho7 3.220977 1_545
Ge16 Ho7 3.268798 1_655
Ge16 Ho7 3.290170 1_555
Ge17 Ho8 3.032749 1_645
Ge17 Ho8 3.038844 1_545
Ge17 Ho11 3.056213 1_555
Ge17 Ho8 3.257998 1_655
Ge17 Ho8 3.260949 1_555
Ge18 Ge2 2.580366 1_555
Ge18 Ge3 2.683196 1_456
Ge18 Ge3 2.687916 1_556
Ge18 Ho0 2.953848 1_566
Ge18 Ho5 3.024974 1_445
Ge18 Ho5 3.036665 1_545
Ge18 Ho0 3.086701 1_556
Ge18 Ho5 3.211705 1_455
Ge18 Ho5 3.225476 1_555
Ge19 Ge21 2.714314 1_555
Ge19 Ge21 2.752739 1_455
Ge19 Ge21 2.951514 1_545
Ge19 Ho1 2.985731 1_545
Ge19 Ge21 2.989862 1_445
Ge19 Ho3 3.006757 1_455
Ge19 Ho1 3.128609 1_555
Ge19 Ho3 3.139842 1_555
Ge20 Ge5 2.648415 1_455
Ge20 Ge5 2.656744 1_555
Ge20 Ho2 2.976661 1_565
Ge20 Ho4 3.022993 1_445
Ge20 Ho4 3.033675 1_545
Ge20 Ho2 3.134390 1_555
Ge20 Ho4 3.214381 1_455
Ge20 Ho4 3.227185 1_555
Ge21 Ho3 2.975479 1_565
Ge21 Ho1 3.004238 1_555
Ge21 Ho3 3.138684 1_555
Ge21 Ho1 3.143993 1_655
