# generated using pymatgen
data_Ca7(ZnN3)2
_symmetry_space_group_name_H-M   'P 1'
_cell_length_a   6.74580941
_cell_length_b   11.49815453
_cell_length_c   6.11236761
_cell_angle_alpha   89.99999196
_cell_angle_beta   88.84445052
_cell_angle_gamma   31.54339577
_symmetry_Int_Tables_number   1
_chemical_formula_structural   Ca7(ZnN3)2
_chemical_formula_sum   'Ca7 Zn2 N6'
_cell_volume   247.83929529
_cell_formula_units_Z   1
loop_
 _symmetry_equiv_pos_site_id
 _symmetry_equiv_pos_as_xyz
  1  'x, y, z'
loop_
 _atom_site_type_symbol
 _atom_site_label
 _atom_site_symmetry_multiplicity
 _atom_site_fract_x
 _atom_site_fract_y
 _atom_site_fract_z
 _atom_site_occupancy
  Ca  Ca0  1  0.00000000  0.50000000  0.00000000  1
  Ca  Ca1  1  0.00000000  0.35294000  0.50000000  1
  Ca  Ca2  1  0.00000000  0.64706000  0.50000000  1
  Ca  Ca3  1  0.70998900  0.98625600  0.82392200  1
  Ca  Ca4  1  0.70998900  0.30375500  0.82392200  1
  Ca  Ca5  1  0.29001100  0.01374400  0.17607800  1
  Ca  Ca6  1  0.29001100  0.69624500  0.17607800  1
  Zn  Zn0  1  0.37264700  0.81367600  0.63907500  1
  Zn  Zn1  1  0.62735300  0.18632400  0.36092500  1
  N  N0  1  0.40736300  0.95551800  0.77354800  1
  N  N1  1  0.40736300  0.63711900  0.77354800  1
  N  N2  1  0.59263700  0.04448200  0.22645200  1
  N  N3  1  0.59263700  0.36288100  0.22645200  1
  N  N4  1  0.63483500  0.68258300  0.32188100  1
  N  N5  1  0.36516500  0.31741700  0.67811900  1
loop_
_geom_bond_atom_site_label_1
_geom_bond_atom_site_label_2
_geom_bond_distance
_geom_bond_site_symmetry_2
Ca0 N4 2.309999 1_455
Ca0 N5 2.309999 1_554
Ca1 N5 2.411095 1_555
Ca1 N4 2.411103 1_455
Ca1 N1 2.630522 1_455
Ca1 N2 2.630522 1_555
Ca2 N4 2.411095 1_455
Ca2 N5 2.411103 1_555
Ca2 N3 2.630522 1_555
Ca2 N0 2.630522 1_455
Ca3 N0 2.375380 1_555
Ca3 N5 2.385473 1_565
Ca3 N1 2.468441 1_655
Ca3 N2 2.479234 1_566
Ca4 N1 2.375380 1_555
Ca4 N5 2.385482 1_555
Ca4 N0 2.468441 1_645
Ca4 N3 2.479234 1_556
Ca5 N2 2.375380 1_555
Ca5 N4 2.385473 1_545
Ca5 N3 2.468441 1_455
Ca5 N0 2.479234 1_544
Ca6 N3 2.375380 1_555
Ca6 N4 2.385482 1_555
Ca6 N2 2.468441 1_465
Ca6 N1 2.479234 1_554
N0 Zn0 2.012244 1_555
N1 Zn0 2.012233 1_555
N2 Zn1 2.012244 1_555
N3 Zn1 2.012233 1_555
N4 Zn0 2.115842 1_555
N5 Zn1 2.115842 1_555
