# generated using pymatgen
data_CaMg3
_symmetry_space_group_name_H-M   'P 1'
_cell_length_a   6.81135602
_cell_length_b   6.81135602
_cell_length_c   5.31592758
_cell_angle_alpha   90.00000000
_cell_angle_beta   90.00000000
_cell_angle_gamma   120.00000115
_symmetry_Int_Tables_number   1
_chemical_formula_structural   CaMg3
_chemical_formula_sum   'Ca2 Mg6'
_cell_volume   213.58799746
_cell_formula_units_Z   2
loop_
 _symmetry_equiv_pos_site_id
 _symmetry_equiv_pos_as_xyz
  1  'x, y, z'
loop_
 _atom_site_type_symbol
 _atom_site_label
 _atom_site_symmetry_multiplicity
 _atom_site_fract_x
 _atom_site_fract_y
 _atom_site_fract_z
 _atom_site_occupancy
  Ca  Ca0  1  0.33333300  0.66666700  0.25000000  1
  Ca  Ca1  1  0.66666700  0.33333300  0.75000000  1
  Mg  Mg0  1  0.83987340  0.16012660  0.25000000  1
  Mg  Mg1  1  0.83987340  0.67974580  0.25000000  1
  Mg  Mg2  1  0.32025420  0.16012660  0.25000000  1
  Mg  Mg3  1  0.67974580  0.83987340  0.75000000  1
  Mg  Mg4  1  0.16012660  0.83987340  0.75000000  1
  Mg  Mg5  1  0.16012660  0.32025420  0.75000000  1
loop_
_geom_bond_atom_site_label_1
_geom_bond_atom_site_label_2
_geom_bond_distance
_geom_bond_site_symmetry_2
Ca0 Mg3 3.352663 1_554
Ca0 Mg3 3.352663 1_555
Ca0 Mg5 3.352663 1_554
Ca0 Mg5 3.352663 1_555
Ca0 Mg4 3.352663 1_554
Ca0 Mg4 3.352663 1_555
Ca0 Mg2 3.406545 1_565
Ca0 Mg1 3.406545 1_455
Ca0 Mg0 3.406552 1_565
Ca0 Mg0 3.406552 1_455
Ca0 Mg1 3.406559 1_555
Ca0 Mg2 3.406559 1_555
Ca1 Mg1 3.352663 1_555
Ca1 Mg1 3.352663 1_556
Ca1 Mg2 3.352663 1_555
Ca1 Mg2 3.352663 1_556
Ca1 Mg0 3.352663 1_556
Ca1 Mg0 3.352663 1_555
Ca1 Mg5 3.406545 1_655
Ca1 Mg3 3.406545 1_545
Ca1 Mg4 3.406552 1_655
Ca1 Mg4 3.406552 1_545
Ca1 Mg3 3.406559 1_555
Ca1 Mg5 3.406559 1_555
Mg0 Mg5 3.260907 1_654
Mg0 Mg5 3.260907 1_655
Mg0 Mg3 3.260907 1_544
Mg0 Mg3 3.260907 1_545
Mg0 Mg2 3.272045 1_655
Mg0 Mg1 3.272045 1_545
Mg1 Mg4 3.260907 1_655
Mg1 Mg4 3.260907 1_654
Mg1 Mg3 3.260914 1_554
Mg1 Mg3 3.260914 1_555
Mg1 Mg2 3.272045 1_665
Mg2 Mg4 3.260907 1_544
Mg2 Mg4 3.260907 1_545
Mg2 Mg5 3.260914 1_554
Mg2 Mg5 3.260914 1_555
Mg3 Mg5 3.272045 1_665
Mg3 Mg4 3.272045 1_655
Mg4 Mg5 3.272045 1_565
