# generated using pymatgen
data_Fe4Sb3
_symmetry_space_group_name_H-M   'P 1'
_cell_length_a   4.06867756
_cell_length_b   4.06867756
_cell_length_c   9.71892500
_cell_angle_alpha   90.00000000
_cell_angle_beta   90.00000000
_cell_angle_gamma   119.99999285
_symmetry_Int_Tables_number   1
_chemical_formula_structural   Fe4Sb3
_chemical_formula_sum   'Fe4 Sb3'
_cell_volume   139.33346617
_cell_formula_units_Z   1
loop_
 _symmetry_equiv_pos_site_id
 _symmetry_equiv_pos_as_xyz
  1  'x, y, z'
loop_
 _atom_site_type_symbol
 _atom_site_label
 _atom_site_symmetry_multiplicity
 _atom_site_fract_x
 _atom_site_fract_y
 _atom_site_fract_z
 _atom_site_occupancy
  Fe  Fe0  1  0.66666700  0.33333300  0.12301000  1
  Fe  Fe1  1  0.66666700  0.33333300  0.62758800  1
  Fe  Fe2  1  0.66666700  0.33333300  0.37241200  1
  Fe  Fe3  1  0.66666700  0.33333300  0.87699000  1
  Sb  Sb0  1  0.33333300  0.66666700  0.50000000  1
  Sb  Sb1  1  0.00000000  0.00000000  0.24072500  1
  Sb  Sb2  1  0.00000000  0.00000000  0.75927500  1
loop_
_geom_bond_atom_site_label_1
_geom_bond_atom_site_label_2
_geom_bond_distance
_geom_bond_site_symmetry_2
Fe0 Fe3 2.391050 1_554
Fe0 Fe2 2.423919 1_555
Fe0 Sb1 2.612837 1_655
Fe0 Sb1 2.612840 1_665
Fe0 Sb1 2.612840 1_555
Fe1 Fe3 2.423919 1_555
Fe1 Fe2 2.480036 1_555
Fe1 Sb0 2.656253 1_545
Fe1 Sb0 2.656253 1_655
Fe1 Sb0 2.656259 1_555
Fe1 Sb2 2.675082 1_655
Fe1 Sb2 2.675086 1_665
Fe1 Sb2 2.675086 1_555
Fe2 Sb0 2.656253 1_655
Fe2 Sb0 2.656253 1_545
Fe2 Sb0 2.656259 1_555
Fe2 Sb1 2.675082 1_655
Fe2 Sb1 2.675086 1_555
Fe2 Sb1 2.675086 1_665
Fe3 Sb2 2.612837 1_655
Fe3 Sb2 2.612840 1_665
Fe3 Sb2 2.612840 1_555
