# generated using pymatgen
data_Na2Ta2O5
_symmetry_space_group_name_H-M   'P 1'
_cell_length_a   8.86224400
_cell_length_b   8.86224400
_cell_length_c   8.86224400
_cell_angle_alpha   143.07050281
_cell_angle_beta   142.81816130
_cell_angle_gamma   53.40912834
_symmetry_Int_Tables_number   1
_chemical_formula_structural   Na2Ta2O5
_chemical_formula_sum   'Na4 Ta4 O10'
_cell_volume   251.13861280
_cell_formula_units_Z   2
loop_
 _symmetry_equiv_pos_site_id
 _symmetry_equiv_pos_as_xyz
  1  'x, y, z'
loop_
 _atom_site_type_symbol
 _atom_site_label
 _atom_site_symmetry_multiplicity
 _atom_site_fract_x
 _atom_site_fract_y
 _atom_site_fract_z
 _atom_site_occupancy
  Na  Na0  1  0.89610200  0.37962700  0.51319500  1
  Na  Na1  1  0.10389800  0.61709400  0.48352500  1
  Na  Na2  1  0.36643200  0.87962700  0.48352500  1
  Na  Na3  1  0.63356800  0.11709400  0.51319500  1
  Ta  Ta0  1  0.00000000  0.99606100  0.99606100  1
  Ta  Ta1  1  0.50000000  0.49606100  0.99606100  1
  Ta  Ta2  1  0.74078900  0.73206600  0.97285500  1
  Ta  Ta3  1  0.25921100  0.23206600  0.99127800  1
  O  O0  1  0.25502900  0.25158400  0.49478100  1
  O  O1  1  0.74497100  0.23975100  0.99655400  1
  O  O2  1  0.25680300  0.75158400  0.99655400  1
  O  O3  1  0.74319700  0.73975100  0.49478100  1
  O  O4  1  0.90087700  0.86202300  0.01780200  1
  O  O5  1  0.09912300  0.11692500  0.96114600  1
  O  O6  1  0.34422100  0.36202300  0.96114600  1
  O  O7  1  0.65577900  0.61692500  0.01780200  1
  O  O8  1  0.51274800  0.46886900  0.48161700  1
  O  O9  1  0.48725200  0.96886900  0.95612100  1
loop_
_geom_bond_atom_site_label_1
_geom_bond_atom_site_label_2
_geom_bond_distance
_geom_bond_site_symmetry_2
Na0 O6 2.585631 1_655
Na0 O3 2.715317 1_555
Na0 O1 2.725406 1_554
Na0 O2 2.757183 1_655
Na0 O4 2.761483 1_556
Na0 O0 2.767713 1_655
Na0 O8 2.807402 1_555
Na0 O4 2.861093 1_545
Na1 O7 2.585628 1_455
Na1 O2 2.715322 1_555
Na1 O0 2.725411 1_555
Na1 O3 2.757186 1_455
Na1 O5 2.761480 1_565
Na1 O1 2.767722 1_454
Na1 O9 2.807396 1_555
Na1 O5 2.861095 1_554
Na2 O4 2.585631 1_455
Na2 O1 2.715322 1_565
Na2 O3 2.725401 1_555
Na2 O0 2.757180 1_565
Na2 O6 2.761483 1_565
Na2 O2 2.767722 1_554
Na2 O9 2.807402 1_555
Na2 O6 2.861093 1_554
Na3 O5 2.585633 1_655
Na3 O0 2.715327 1_555
Na3 O2 2.725406 1_544
Na3 O1 2.757183 1_555
Na3 O7 2.761480 1_556
Na3 O3 2.767730 1_545
Na3 O8 2.807393 1_555
Na3 O7 2.861095 1_545
O0 Ta0 1.988401 1_544
O0 Ta1 1.998611 1_555
O1 Ta0 1.988397 1_645
O1 Ta1 1.998615 1_555
O2 Ta1 1.988401 1_555
O2 Ta0 1.998611 1_555
O3 Ta1 1.988401 1_554
O3 Ta0 1.998611 1_655
O4 Ta2 1.952433 1_554
O4 Ta0 2.024725 1_654
O5 Ta3 1.952426 1_555
O5 Ta0 2.024725 1_545
O6 Ta3 1.952442 1_555
O6 Ta1 2.024725 1_555
O7 Ta2 1.952433 1_554
O7 Ta1 2.024725 1_554
O8 Ta3 1.954401 1_554
O8 Ta2 1.960493 1_555
O9 Ta2 1.954405 1_555
O9 Ta3 1.960493 1_565
