# generated using pymatgen
data_Ca2Ta3CuBrO10
_symmetry_space_group_name_H-M   'P 1'
_cell_length_a   3.94326100
_cell_length_b   3.94326100
_cell_length_c   15.78642300
_cell_angle_alpha   90.00000000
_cell_angle_beta   90.00000000
_cell_angle_gamma   90.00000000
_symmetry_Int_Tables_number   1
_chemical_formula_structural   Ca2Ta3CuBrO10
_chemical_formula_sum   'Ca2 Ta3 Cu1 Br1 O10'
_cell_volume   245.46794262
_cell_formula_units_Z   1
loop_
 _symmetry_equiv_pos_site_id
 _symmetry_equiv_pos_as_xyz
  1  'x, y, z'
loop_
 _atom_site_type_symbol
 _atom_site_label
 _atom_site_symmetry_multiplicity
 _atom_site_fract_x
 _atom_site_fract_y
 _atom_site_fract_z
 _atom_site_occupancy
  Ca  Ca0  1  0.50000000  0.50000000  0.85539500  1
  Ca  Ca1  1  0.50000000  0.50000000  0.14460500  1
  Ta  Ta0  1  0.00000000  0.00000000  0.00000000  1
  Ta  Ta1  1  0.00000000  0.00000000  0.73176700  1
  Ta  Ta2  1  0.00000000  0.00000000  0.26823300  1
  Cu  Cu0  1  0.00000000  0.00000000  0.50000000  1
  Br  Br0  1  0.50000000  0.50000000  0.50000000  1
  O  O0  1  0.50000000  0.00000000  0.00000000  1
  O  O1  1  0.00000000  0.50000000  0.00000000  1
  O  O2  1  0.00000000  0.00000000  0.87531200  1
  O  O3  1  0.00000000  0.00000000  0.12468800  1
  O  O4  1  0.50000000  0.00000000  0.75872400  1
  O  O5  1  0.00000000  0.50000000  0.75872400  1
  O  O6  1  0.50000000  0.00000000  0.24127600  1
  O  O7  1  0.00000000  0.50000000  0.24127600  1
  O  O8  1  0.00000000  0.00000000  0.61797000  1
  O  O9  1  0.00000000  0.00000000  0.38203000  1
loop_
_geom_bond_atom_site_label_1
_geom_bond_atom_site_label_2
_geom_bond_distance
_geom_bond_site_symmetry_2
Ca0 O4 2.493246 1_555
Ca0 O4 2.493246 1_565
Ca0 O5 2.493246 1_555
Ca0 O5 2.493246 1_655
Ca0 O2 2.805978 1_555
Ca0 O2 2.805978 1_655
Ca0 O2 2.805978 1_565
Ca0 O2 2.805978 1_665
Ca0 O1 3.016369 1_656
Ca0 O1 3.016369 1_556
Ca0 O0 3.016369 1_566
Ca0 O0 3.016369 1_556
Ca1 O7 2.493246 1_655
Ca1 O6 2.493246 1_555
Ca1 O6 2.493246 1_565
Ca1 O7 2.493246 1_555
Ca1 O3 2.805978 1_655
Ca1 O3 2.805978 1_665
Ca1 O3 2.805978 1_565
Ca1 O3 2.805978 1_555
Ca1 O1 3.016369 1_555
Ca1 O1 3.016369 1_655
Ca1 O0 3.016369 1_555
Ca1 O0 3.016369 1_565
Cu0 O9 1.862324 1_555
Cu0 O8 1.862324 1_555
Br0 Cu0 2.788307 1_655
Br0 Cu0 2.788307 1_565
Br0 Cu0 2.788307 1_665
Br0 Cu0 2.788307 1_555
O0 Ta0 1.971630 1_555
O0 Ta0 1.971630 1_655
O1 Ta0 1.971630 1_555
O1 Ta0 1.971630 1_565
O2 Ta0 1.968378 1_556
O2 Ta1 2.266062 1_555
O3 Ta0 1.968378 1_555
O3 Ta2 2.266062 1_555
O4 Ta1 2.017033 1_555
O4 Ta1 2.017033 1_655
O5 Ta1 2.017033 1_555
O5 Ta1 2.017033 1_565
O6 Ta2 2.017033 1_555
O6 Ta2 2.017033 1_655
O7 Ta2 2.017033 1_565
O7 Ta2 2.017033 1_555
O8 Ta1 1.796448 1_555
O9 Ta2 1.796448 1_555
