# generated using pymatgen
data_YPO6
_symmetry_space_group_name_H-M   'P 1'
_cell_length_a   8.30886439
_cell_length_b   8.30886439
_cell_length_c   5.75538156
_cell_angle_alpha   81.04488416
_cell_angle_beta   81.04488416
_cell_angle_gamma   138.57926356
_symmetry_Int_Tables_number   1
_chemical_formula_structural   YPO6
_chemical_formula_sum   'Y2 P2 O12'
_cell_volume   236.03633860
_cell_formula_units_Z   2
loop_
 _symmetry_equiv_pos_site_id
 _symmetry_equiv_pos_as_xyz
  1  'x, y, z'
loop_
 _atom_site_type_symbol
 _atom_site_label
 _atom_site_symmetry_multiplicity
 _atom_site_fract_x
 _atom_site_fract_y
 _atom_site_fract_z
 _atom_site_occupancy
  Y  Y0  1  0.32017100  0.67982900  0.75000000  1
  Y  Y1  1  0.67982900  0.32017100  0.25000000  1
  P  P0  1  0.83508400  0.16491600  0.75000000  1
  P  P1  1  0.16491600  0.83508400  0.25000000  1
  O  O0  1  0.71114700  0.15727300  0.56390000  1
  O  O1  1  0.28885300  0.84272700  0.43610000  1
  O  O2  1  0.84272700  0.28885300  0.93610000  1
  O  O3  1  0.15727300  0.71114700  0.06390000  1
  O  O4  1  0.18189000  0.05126700  0.69391100  1
  O  O5  1  0.81811000  0.94873300  0.30608900  1
  O  O6  1  0.94873300  0.81811000  0.80608900  1
  O  O7  1  0.05126700  0.18189000  0.19391100  1
  O  O8  1  0.64299700  0.86781000  0.89163700  1
  O  O9  1  0.35700300  0.13219000  0.10836300  1
  O  O10  1  0.13219000  0.35700300  0.60836300  1
  O  O11  1  0.86781000  0.64299700  0.39163700  1
loop_
_geom_bond_atom_site_label_1
_geom_bond_atom_site_label_2
_geom_bond_distance
_geom_bond_site_symmetry_2
O0 P0 1.574215 1_555
O0 Y1 2.253183 1_555
O0 Y0 2.388350 1_545
O1 P1 1.574215 1_555
O1 Y0 2.253183 1_555
O1 Y1 2.388350 1_565
O2 P0 1.574215 1_555
O2 Y1 2.253183 1_556
O2 Y0 2.388350 1_655
O3 P1 1.574215 1_555
O3 Y0 2.253183 1_554
O3 Y1 2.388350 1_455
O4 O6 1.231069 1_445
O4 Y1 3.115339 1_555
O5 O7 1.231069 1_665
O5 Y0 3.115339 1_555
O6 Y1 3.115339 1_556
O7 Y0 3.115339 1_554
O8 P0 1.537981 1_565
O8 Y0 2.256718 1_555
O9 P1 1.537981 1_545
O9 Y1 2.256718 1_555
O10 P0 1.537981 1_455
O10 Y0 2.256718 1_555
O11 P1 1.537981 1_655
O11 Y1 2.256718 1_555
