# generated using pymatgen
data_Sm7Al7Co6
_symmetry_space_group_name_H-M   'P 1'
_cell_length_a   4.14275404
_cell_length_b   13.58931443
_cell_length_c   13.58931443
_cell_angle_alpha   90.00000000
_cell_angle_beta   90.00000000
_cell_angle_gamma   90.00000000
_symmetry_Int_Tables_number   1
_chemical_formula_structural   Sm7Al7Co6
_chemical_formula_sum   'Sm14 Al14 Co12'
_cell_volume   765.04017914
_cell_formula_units_Z   2
loop_
 _symmetry_equiv_pos_site_id
 _symmetry_equiv_pos_as_xyz
  1  'x, y, z'
loop_
 _atom_site_type_symbol
 _atom_site_label
 _atom_site_symmetry_multiplicity
 _atom_site_fract_x
 _atom_site_fract_y
 _atom_site_fract_z
 _atom_site_occupancy
  Sm  Sm0  1  0.50000000  0.63147160  0.13147160  1
  Sm  Sm1  1  0.50000000  0.36852840  0.86852840  1
  Sm  Sm2  1  0.50000000  0.86852840  0.63147160  1
  Sm  Sm3  1  0.50000000  0.13147160  0.36852840  1
  Sm  Sm4  1  -0.00000000  0.26105756  0.04764998  1
  Sm  Sm5  1  0.00000000  0.73894244  0.95235002  1
  Sm  Sm6  1  -0.00000000  0.95235002  0.26105756  1
  Sm  Sm7  1  0.00000000  0.23894244  0.54764998  1
  Sm  Sm8  1  0.00000000  0.04764998  0.73894244  1
  Sm  Sm9  1  -0.00000000  0.76105756  0.45235002  1
  Sm  Sm10  1  0.00000000  0.54764998  0.76105756  1
  Sm  Sm11  1  -0.00000000  0.45235002  0.23894244  1
  Sm  Sm12  1  0.00000000  0.00000000  0.00000000  1
  Sm  Sm13  1  0.00000000  0.50000000  0.50000000  1
  Al  Al0  1  0.50000000  0.21407667  0.71407667  1
  Al  Al1  1  0.50000000  0.78592333  0.28592333  1
  Al  Al2  1  0.50000000  0.28592333  0.21407667  1
  Al  Al3  1  0.50000000  0.71407667  0.78592333  1
  Al  Al4  1  0.00000000  0.00000000  0.50000000  1
  Al  Al5  1  0.00000000  0.50000000  0.00000000  1
  Al  Al6  1  0.50000000  0.09767949  0.13855566  1
  Al  Al7  1  0.50000000  0.90232051  0.86144434  1
  Al  Al8  1  0.50000000  0.86144434  0.09767949  1
  Al  Al9  1  0.50000000  0.40232051  0.63855566  1
  Al  Al10  1  0.50000000  0.13855566  0.90232051  1
  Al  Al11  1  0.50000000  0.59767949  0.36144434  1
  Al  Al12  1  0.50000000  0.63855566  0.59767949  1
  Al  Al13  1  0.50000000  0.36144434  0.40232051  1
  Co  Co0  1  0.50000000  0.07271344  0.57271344  1
  Co  Co1  1  0.50000000  0.92728656  0.42728656  1
  Co  Co2  1  0.50000000  0.42728656  0.07271344  1
  Co  Co3  1  0.50000000  0.57271344  0.92728656  1
  Co  Co4  1  0.00000000  0.16369354  0.21184684  1
  Co  Co5  1  -0.00000000  0.83630646  0.78815316  1
  Co  Co6  1  0.00000000  0.78815316  0.16369354  1
  Co  Co7  1  -0.00000000  0.33630646  0.71184684  1
  Co  Co8  1  -0.00000000  0.21184684  0.83630646  1
  Co  Co9  1  0.00000000  0.66369354  0.28815316  1
  Co  Co10  1  -0.00000000  0.71184684  0.66369354  1
  Co  Co11  1  0.00000000  0.28815316  0.33630646  1
loop_
_geom_bond_atom_site_label_1
_geom_bond_atom_site_label_2
_geom_bond_distance
_geom_bond_site_symmetry_2
Al0 Co7 2.655279 1_555
Al0 Co7 2.655279 1_655
Al0 Co8 2.655279 1_555
Al0 Co8 2.655279 1_655
Al0 Co0 2.716746 1_555
Al0 Al9 2.756292 1_555
Al0 Al10 2.756292 1_555
Al0 Sm1 2.968283 1_555
Al0 Sm7 3.085406 1_555
Al0 Sm7 3.085406 1_655
Al0 Sm8 3.085406 1_555
Al0 Sm8 3.085406 1_655
Al1 Co6 2.655279 1_555
Al1 Co6 2.655279 1_655
Al1 Co9 2.655279 1_655
Al1 Co9 2.655279 1_555
Al1 Co1 2.716746 1_555
Al1 Al8 2.756292 1_555
Al1 Al11 2.756292 1_555
Al1 Sm0 2.968283 1_555
Al1 Sm6 3.085406 1_655
Al1 Sm6 3.085406 1_555
Al1 Sm9 3.085406 1_655
Al1 Sm9 3.085406 1_555
Al2 Co4 2.655279 1_555
Al2 Co4 2.655279 1_655
Al2 Co11 2.655279 1_655
Al2 Co11 2.655279 1_555
Al2 Co2 2.716746 1_555
Al2 Al6 2.756292 1_555
Al2 Sm3 2.968283 1_555
Al2 Sm4 3.085406 1_555
Al2 Sm4 3.085406 1_655
Al2 Sm11 3.085406 1_555
Al2 Sm11 3.085406 1_655
Al3 Co5 2.655279 1_555
Al3 Co10 2.655279 1_655
Al3 Co5 2.655279 1_655
Al3 Co10 2.655279 1_555
Al3 Co3 2.716746 1_555
Al3 Al7 2.756292 1_555
Al3 Sm2 2.968283 1_555
Al3 Sm10 3.085406 1_555
Al3 Sm10 3.085406 1_655
Al3 Sm5 3.085406 1_555
Al3 Sm5 3.085406 1_655
Al4 Co0 2.498677 1_555
Al4 Co1 2.498677 1_545
Al4 Co0 2.498677 1_455
Al4 Co1 2.498677 1_445
Al4 Sm3 3.267192 1_455
Al4 Sm3 3.267192 1_555
Al4 Sm2 3.267192 1_445
Al4 Sm2 3.267192 1_545
Al4 Sm6 3.311000 1_545
Al4 Sm9 3.311000 1_545
Al4 Sm7 3.311000 1_555
Al4 Sm8 3.311000 1_555
Al5 Co2 2.498677 1_455
Al5 Co3 2.498677 1_454
Al5 Co2 2.498677 1_555
Al5 Co3 2.498677 1_554
Al5 Sm0 3.267192 1_455
Al5 Sm0 3.267192 1_555
Al5 Sm1 3.267192 1_454
Al5 Sm1 3.267192 1_554
Al5 Sm5 3.311000 1_554
Al5 Sm10 3.311000 1_554
Al5 Sm4 3.311000 1_555
Al5 Sm11 3.311000 1_555
Al6 Co4 2.467253 1_555
Al6 Co4 2.467253 1_655
Al6 Sm12 3.098033 1_655
Al6 Sm12 3.098033 1_555
Al6 Sm3 3.158730 1_555
Al6 Sm4 3.278102 1_655
Al6 Sm4 3.278102 1_555
Al6 Sm6 3.310925 1_645
Al6 Sm6 3.310925 1_545
Al7 Co5 2.467253 1_655
Al7 Co5 2.467253 1_555
Al7 Sm12 3.098033 1_566
Al7 Sm12 3.098033 1_666
Al7 Sm2 3.158730 1_555
Al7 Sm5 3.278102 1_655
Al7 Sm5 3.278102 1_555
Al7 Sm8 3.310925 1_565
Al7 Sm8 3.310925 1_665
Al8 Co6 2.467253 1_555
Al8 Co6 2.467253 1_655
Al8 Sm12 3.098033 1_565
Al8 Sm12 3.098033 1_665
Al8 Sm0 3.158730 1_555
Al8 Sm6 3.278102 1_555
Al8 Sm6 3.278102 1_655
Al8 Sm5 3.310925 1_554
Al8 Sm5 3.310925 1_654
Al9 Co7 2.467253 1_655
Al9 Co7 2.467253 1_555
Al9 Sm13 3.098033 1_555
Al9 Sm13 3.098033 1_655
Al9 Sm1 3.158730 1_555
Al9 Sm7 3.278102 1_555
Al9 Sm7 3.278102 1_655
Al9 Sm10 3.310925 1_555
Al9 Sm10 3.310925 1_655
Al10 Co8 2.467253 1_655
Al10 Co8 2.467253 1_555
Al10 Sm12 3.098033 1_656
Al10 Sm12 3.098033 1_556
Al10 Sm1 3.158730 1_555
Al10 Sm8 3.278102 1_655
Al10 Sm8 3.278102 1_555
Al10 Sm4 3.310925 1_556
Al10 Sm4 3.310925 1_656
Al11 Co9 2.467253 1_655
Al11 Co9 2.467253 1_555
Al11 Sm13 3.098033 1_555
Al11 Sm13 3.098033 1_655
Al11 Sm0 3.158730 1_555
Al11 Sm9 3.278102 1_655
Al11 Sm9 3.278102 1_555
Al11 Sm11 3.310925 1_555
Al11 Sm11 3.310925 1_655
Al12 Co10 2.467253 1_655
Al12 Co10 2.467253 1_555
Al12 Al3 2.756292 1_555
Al12 Sm13 3.098033 1_555
Al12 Sm13 3.098033 1_655
Al12 Sm2 3.158730 1_555
Al12 Sm10 3.278102 1_555
Al12 Sm10 3.278102 1_655
Al12 Sm9 3.310925 1_655
Al12 Sm9 3.310925 1_555
Al13 Co11 2.467253 1_655
Al13 Co11 2.467253 1_555
Al13 Al2 2.756292 1_555
Al13 Sm13 3.098033 1_555
Al13 Sm13 3.098033 1_655
Al13 Sm3 3.158730 1_555
Al13 Sm11 3.278102 1_555
Al13 Sm11 3.278102 1_655
Al13 Sm7 3.310925 1_655
Al13 Sm7 3.310925 1_555
Co0 Sm3 2.887339 1_555
Co0 Sm2 2.887339 1_545
Co0 Sm8 3.083733 1_555
Co0 Sm8 3.083733 1_655
Co0 Sm7 3.083733 1_655
Co0 Sm7 3.083733 1_555
Co1 Sm3 2.887339 1_565
Co1 Sm2 2.887339 1_555
Co1 Sm6 3.083733 1_555
Co1 Sm9 3.083733 1_555
Co1 Sm9 3.083733 1_655
Co1 Sm6 3.083733 1_655
Co2 Sm0 2.887339 1_555
Co2 Sm1 2.887339 1_554
Co2 Sm4 3.083733 1_555
Co2 Sm4 3.083733 1_655
Co2 Sm11 3.083733 1_555
Co2 Sm11 3.083733 1_655
Co3 Sm0 2.887339 1_556
Co3 Sm1 2.887339 1_555
Co3 Sm5 3.083733 1_555
Co3 Sm10 3.083733 1_555
Co3 Sm10 3.083733 1_655
Co3 Sm5 3.083733 1_655
Co4 Sm4 2.594113 1_555
Co4 Sm6 2.948843 1_545
Co4 Sm3 3.002633 1_455
Co4 Sm3 3.002633 1_555
Co5 Sm5 2.594113 1_555
Co5 Sm8 2.948843 1_565
Co5 Sm2 3.002633 1_455
Co5 Sm2 3.002633 1_555
Co6 Co9 2.391889 1_555
Co6 Sm6 2.594113 1_555
Co6 Sm5 2.948843 1_554
Co6 Sm0 3.002633 1_555
Co6 Sm0 3.002633 1_455
Co7 Co8 2.391889 1_555
Co7 Sm7 2.594113 1_555
Co7 Sm10 2.948843 1_555
Co7 Sm1 3.002633 1_555
Co7 Sm1 3.002633 1_455
Co8 Sm8 2.594113 1_555
Co8 Sm4 2.948843 1_556
Co8 Sm1 3.002633 1_555
Co8 Sm1 3.002633 1_455
Co9 Sm9 2.594113 1_555
Co9 Sm11 2.948843 1_555
Co9 Sm0 3.002633 1_555
Co9 Sm0 3.002633 1_455
Co10 Co5 2.391889 1_555
Co10 Sm10 2.594113 1_555
Co10 Sm9 2.948843 1_555
Co10 Sm2 3.002633 1_455
Co10 Sm2 3.002633 1_555
Co11 Co4 2.391889 1_555
Co11 Sm11 2.594113 1_555
Co11 Sm7 2.948843 1_555
Co11 Sm3 3.002633 1_555
Co11 Sm3 3.002633 1_455
