# generated using pymatgen
data_DyPt
_symmetry_space_group_name_H-M   'P 1'
_cell_length_a   4.50699515
_cell_length_b   5.53031266
_cell_length_c   6.99820167
_cell_angle_alpha   90.00000000
_cell_angle_beta   90.00000000
_cell_angle_gamma   90.00000000
_symmetry_Int_Tables_number   1
_chemical_formula_structural   DyPt
_chemical_formula_sum   'Dy4 Pt4'
_cell_volume   174.43082281
_cell_formula_units_Z   4
loop_
 _symmetry_equiv_pos_site_id
 _symmetry_equiv_pos_as_xyz
  1  'x, y, z'
loop_
 _atom_site_type_symbol
 _atom_site_label
 _atom_site_symmetry_multiplicity
 _atom_site_fract_x
 _atom_site_fract_y
 _atom_site_fract_z
 _atom_site_occupancy
  Dy  Dy0  1  0.25000000  0.35965951  0.68215566  1
  Dy  Dy1  1  0.25000000  0.14034049  0.18215566  1
  Dy  Dy2  1  0.75000000  0.64034049  0.31784434  1
  Dy  Dy3  1  0.75000000  0.85965951  0.81784434  1
  Pt  Pt0  1  0.25000000  0.84477427  0.54344952  1
  Pt  Pt1  1  0.25000000  0.65522573  0.04344952  1
  Pt  Pt2  1  0.75000000  0.15522573  0.45655048  1
  Pt  Pt3  1  0.75000000  0.34477427  0.95655048  1
loop_
_geom_bond_atom_site_label_1
_geom_bond_atom_site_label_2
_geom_bond_distance
_geom_bond_site_symmetry_2
Dy0 Pt0 2.853043 1_555
Dy0 Pt3 2.961835 1_455
Dy0 Pt3 2.961835 1_555
Dy0 Pt2 2.974756 1_455
Dy0 Pt2 2.974756 1_555
Dy0 Pt0 3.008383 1_545
Dy0 Pt1 3.010760 1_556
Dy1 Pt1 2.853043 1_545
Dy1 Pt2 2.961835 1_555
Dy1 Pt2 2.961835 1_455
Dy1 Pt3 2.974756 1_554
Dy1 Pt3 2.974756 1_454
Dy1 Pt1 3.008383 1_555
Dy1 Pt0 3.010760 1_545
Dy2 Pt2 2.853043 1_555
Dy2 Pt1 2.961835 1_555
Dy2 Pt1 2.961835 1_655
Dy2 Pt0 2.974756 1_655
Dy2 Pt0 2.974756 1_555
Dy2 Pt2 3.008383 1_565
Dy2 Pt3 3.010760 1_554
Dy3 Pt3 2.853043 1_565
Dy3 Pt0 2.961835 1_555
Dy3 Pt0 2.961835 1_655
Dy3 Pt1 2.974756 1_656
Dy3 Pt1 2.974756 1_556
Dy3 Pt3 3.008383 1_555
Dy3 Pt2 3.010760 1_565
Pt0 Pt2 2.897552 1_565
Pt0 Pt2 2.897552 1_465
Pt1 Pt3 2.897552 1_554
Pt1 Pt3 2.897552 1_454
