# generated using pymatgen
data_LuGaAu
_symmetry_space_group_name_H-M   'P 1'
_cell_length_a   5.57802664
_cell_length_b   5.57802664
_cell_length_c   6.91511269
_cell_angle_alpha   52.63008563
_cell_angle_beta   52.63008563
_cell_angle_gamma   46.49816058
_symmetry_Int_Tables_number   1
_chemical_formula_structural   LuGaAu
_chemical_formula_sum   'Lu2 Ga2 Au2'
_cell_volume   117.16484232
_cell_formula_units_Z   2
loop_
 _symmetry_equiv_pos_site_id
 _symmetry_equiv_pos_as_xyz
  1  'x, y, z'
loop_
 _atom_site_type_symbol
 _atom_site_label
 _atom_site_symmetry_multiplicity
 _atom_site_fract_x
 _atom_site_fract_y
 _atom_site_fract_z
 _atom_site_occupancy
  Lu  Lu0  1  0.53647148  0.53647148  0.70336847  1
  Lu  Lu1  1  0.46352852  0.46352852  0.29663153  1
  Ga  Ga0  1  0.84235509  0.84235509  0.10714149  1
  Ga  Ga1  1  0.15764491  0.15764491  0.89285851  1
  Au  Au0  1  0.17677137  0.17677137  0.28649793  1
  Au  Au1  1  0.82322863  0.82322863  0.71350207  1
loop_
_geom_bond_atom_site_label_1
_geom_bond_atom_site_label_2
_geom_bond_distance
_geom_bond_site_symmetry_2
Lu0 Lu1 3.353852 1_555
Ga0 Ga1 2.512580 1_664
Ga0 Lu0 3.043509 1_654
Ga0 Lu0 3.043509 1_564
Ga0 Lu0 3.122533 1_555
Ga0 Lu1 3.173722 1_555
Ga0 Lu1 3.202798 1_565
Ga0 Lu1 3.202798 1_655
Ga1 Lu1 3.043509 1_546
Ga1 Lu1 3.043509 1_456
Ga1 Lu1 3.122533 1_555
Ga1 Lu0 3.173722 1_555
Ga1 Lu0 3.202798 1_455
Ga1 Lu0 3.202798 1_545
Au0 Ga0 2.546706 1_455
Au0 Ga0 2.546706 1_545
Au0 Au1 2.777378 1_445
Au0 Ga1 2.855367 1_554
Au0 Lu1 2.986060 1_555
Au0 Lu1 3.070523 1_455
Au0 Lu1 3.070523 1_545
Au0 Lu0 3.122322 1_545
Au0 Lu0 3.122322 1_455
Au0 Lu0 3.195510 1_554
Au1 Ga1 2.546706 1_655
Au1 Ga1 2.546706 1_565
Au1 Ga0 2.855367 1_556
Au1 Lu0 2.986060 1_555
Au1 Lu0 3.070523 1_655
Au1 Lu0 3.070523 1_565
Au1 Lu1 3.122322 1_655
Au1 Lu1 3.122322 1_565
Au1 Lu1 3.195510 1_556
