# generated using pymatgen
data_LiDySn2
_symmetry_space_group_name_H-M   'P 1'
_cell_length_a   4.33357600
_cell_length_b   4.56443300
_cell_length_c   9.74421568
_cell_angle_alpha   90.00000000
_cell_angle_beta   102.84807226
_cell_angle_gamma   90.00000000
_symmetry_Int_Tables_number   1
_chemical_formula_structural   LiDySn2
_chemical_formula_sum   'Li2 Dy2 Sn4'
_cell_volume   187.91797923
_cell_formula_units_Z   2
loop_
 _symmetry_equiv_pos_site_id
 _symmetry_equiv_pos_as_xyz
  1  'x, y, z'
loop_
 _atom_site_type_symbol
 _atom_site_label
 _atom_site_symmetry_multiplicity
 _atom_site_fract_x
 _atom_site_fract_y
 _atom_site_fract_z
 _atom_site_occupancy
  Li  Li0  1  0.67344000  0.25000000  0.34688000  1
  Li  Li1  1  0.32656000  0.75000000  0.65312000  1
  Dy  Dy0  1  0.89322200  0.25000000  0.78644400  1
  Dy  Dy1  1  0.10677800  0.75000000  0.21355600  1
  Sn  Sn0  1  0.54343000  0.25000000  0.08686000  1
  Sn  Sn1  1  0.45657000  0.75000000  0.91314000  1
  Sn  Sn2  1  0.25297600  0.25000000  0.50595200  1
  Sn  Sn3  1  0.74702400  0.75000000  0.49404800  1
loop_
_geom_bond_atom_site_label_1
_geom_bond_atom_site_label_2
_geom_bond_distance
_geom_bond_site_symmetry_2
Li0 Sn0 2.470255 1_555
Li0 Sn2 2.641736 1_655
Li0 Sn2 2.641736 1_555
Li0 Sn3 2.676432 1_545
Li0 Sn3 2.676432 1_555
Li1 Sn1 2.470255 1_555
Li1 Sn3 2.641736 1_555
Li1 Sn3 2.641736 1_455
Li1 Sn2 2.676432 1_565
Li1 Sn2 2.676432 1_555
Dy0 Sn1 3.369309 1_655
Dy0 Sn1 3.369309 1_645
Dy0 Sn1 3.369309 1_545
Dy0 Sn1 3.369309 1_555
Dy0 Li1 3.392313 1_655
Dy0 Li1 3.392313 1_645
Dy0 Li1 3.392313 1_545
Dy0 Li1 3.392313 1_555
Dy0 Sn2 3.434506 1_655
Dy0 Sn2 3.434506 1_555
Dy0 Sn0 3.583356 1_656
Dy0 Sn0 3.583356 1_556
Dy0 Sn3 3.595119 1_545
Dy0 Sn3 3.595119 1_555
Dy1 Sn0 3.369309 1_565
Dy1 Sn0 3.369309 1_455
Dy1 Sn0 3.369309 1_555
Dy1 Sn0 3.369309 1_465
Dy1 Li0 3.392313 1_465
Dy1 Li0 3.392313 1_565
Dy1 Li0 3.392313 1_555
Dy1 Li0 3.392313 1_455
Dy1 Sn3 3.434506 1_555
Dy1 Sn3 3.434506 1_455
Dy1 Sn1 3.583356 1_554
Dy1 Sn1 3.583356 1_454
Dy1 Sn2 3.595119 1_565
Dy1 Sn2 3.595119 1_555
