# generated using pymatgen
data_SrZnCo(PO4)2
_symmetry_space_group_name_H-M   'P 1'
_cell_length_a   8.27364214
_cell_length_b   9.48408720
_cell_length_c   9.41141824
_cell_angle_alpha   97.96524094
_cell_angle_beta   115.92886184
_cell_angle_gamma   76.28393070
_symmetry_Int_Tables_number   1
_chemical_formula_structural   SrZnCo(PO4)2
_chemical_formula_sum   'Sr4 Zn4 Co4 P8 O32'
_cell_volume   644.70124134
_cell_formula_units_Z   4
loop_
 _symmetry_equiv_pos_site_id
 _symmetry_equiv_pos_as_xyz
  1  'x, y, z'
loop_
 _atom_site_type_symbol
 _atom_site_label
 _atom_site_symmetry_multiplicity
 _atom_site_fract_x
 _atom_site_fract_y
 _atom_site_fract_z
 _atom_site_occupancy
  Sr  Sr0  1  0.52384700  0.27539900  0.05044600  1
  Sr  Sr1  1  0.02385600  0.77541700  0.05046500  1
  Sr  Sr2  1  0.47614300  0.72459500  0.94952700  1
  Sr  Sr3  1  0.97611600  0.22457500  0.94949400  1
  Zn  Zn0  1  0.68601000  0.69386700  0.64561600  1
  Zn  Zn1  1  0.18598900  0.19388800  0.64559900  1
  Zn  Zn2  1  0.31395800  0.30614900  0.35440000  1
  Zn  Zn3  1  0.81401400  0.80612600  0.35441200  1
  Co  Co0  1  0.23970000  0.60831900  0.55946000  1
  Co  Co1  1  0.26034300  0.89166800  0.44058100  1
  Co  Co2  1  0.73969300  0.10831000  0.55938700  1
  Co  Co3  1  0.76028800  0.39167900  0.44052700  1
  P  P0  1  0.40919500  0.01451000  0.23402400  1
  P  P1  1  0.90922500  0.51451000  0.23403500  1
  P  P2  1  0.59080300  0.98550400  0.76597900  1
  P  P3  1  0.09076700  0.48549700  0.76596500  1
  P  P4  1  0.43263000  0.58996800  0.30091800  1
  P  P5  1  0.93264100  0.08993900  0.30091600  1
  P  P6  1  0.56736900  0.41002000  0.69907800  1
  P  P7  1  0.06739100  0.91006300  0.69910600  1
  O  O0  1  0.68257400  0.87312500  0.89614200  1
  O  O1  1  0.18259500  0.37312200  0.89612200  1
  O  O2  1  0.31742700  0.12689400  0.10387800  1
  O  O3  1  0.81738700  0.62687100  0.10386100  1
  O  O4  1  0.56992100  0.90444600  0.21091000  1
  O  O5  1  0.06989700  0.40441000  0.21087100  1
  O  O6  1  0.43009400  0.09556900  0.78911900  1
  O  O7  1  0.93009600  0.59559900  0.78913600  1
  O  O8  1  0.72814700  0.06931800  0.76329600  1
  O  O9  1  0.22812900  0.56931400  0.76331100  1
  O  O10  1  0.27185200  0.93067700  0.23669200  1
  O  O11  1  0.77187300  0.43067800  0.23667800  1
  O  O12  1  0.53359100  0.58170200  0.69674900  1
  O  O13  1  0.03363500  0.08174200  0.69680600  1
  O  O14  1  0.46642400  0.41828700  0.30326000  1
  O  O15  1  0.96643900  0.91825100  0.30322400  1
  O  O16  1  0.87541300  0.87451600  0.57973100  1
  O  O17  1  0.37540100  0.37445600  0.57975800  1
  O  O18  1  0.12459300  0.12553300  0.42025500  1
  O  O19  1  0.62458400  0.62555700  0.42025000  1
  O  O20  1  0.62913600  0.36732900  0.86774600  1
  O  O21  1  0.12918200  0.86730100  0.86775800  1
  O  O22  1  0.37085300  0.63266100  0.13224800  1
  O  O23  1  0.87084900  0.13269100  0.13226400  1
  O  O24  1  0.48061000  0.10861100  0.39459600  1
  O  O25  1  0.98067400  0.60861100  0.39460900  1
  O  O26  1  0.51934500  0.89140400  0.60540600  1
  O  O27  1  0.01931600  0.39138500  0.60539900  1
  O  O28  1  0.78616200  0.16384700  0.36556000  1
  O  O29  1  0.28613800  0.66386900  0.36555100  1
  O  O30  1  0.21384600  0.83614200  0.63445100  1
  O  O31  1  0.71384100  0.33608000  0.63442800  1
loop_
_geom_bond_atom_site_label_1
_geom_bond_atom_site_label_2
_geom_bond_distance
_geom_bond_site_symmetry_2
Co0 O25 2.022522 1_455
Co0 O9 2.049601 1_555
Co0 O12 2.167359 1_555
Co0 O30 2.168566 1_555
Co0 O29 2.175153 1_555
Co0 O17 2.228321 1_555
Co1 O26 2.022342 1_555
Co1 O10 2.049709 1_555
Co1 O15 2.167548 1_455
Co1 O29 2.168437 1_555
Co1 O30 2.175006 1_555
Co1 O18 2.228432 1_565
Co2 O24 2.022680 1_555
Co2 O8 2.049994 1_555
Co2 O13 2.167891 1_655
Co2 O31 2.168208 1_555
Co2 O28 2.174525 1_555
Co2 O16 2.227778 1_545
Co3 O27 2.022591 1_655
Co3 O11 2.049622 1_555
Co3 O14 2.167153 1_555
Co3 O28 2.168594 1_555
Co3 O31 2.175312 1_555
Co3 O19 2.228452 1_555
O0 P2 1.542015 1_555
O0 Sr1 2.546940 1_656
O0 Sr2 2.690977 1_555
O1 P3 1.541942 1_555
O1 Sr0 2.546775 1_556
O1 Sr3 2.691358 1_455
O2 P0 1.541940 1_555
O2 Sr3 2.547157 1_454
O2 Sr0 2.690972 1_555
O3 P1 1.541958 1_555
O3 Sr2 2.546738 1_554
O3 Sr1 2.691403 1_655
O4 P0 1.561112 1_565
O4 Zn3 1.960308 1_555
O4 Sr2 2.712666 1_554
O5 P1 1.561125 1_455
O5 Zn2 1.960040 1_555
O5 Sr3 2.712541 1_454
O6 P2 1.561112 1_545
O6 Zn1 1.960418 1_555
O6 Sr0 2.712178 1_556
O7 P3 1.561155 1_655
O7 Zn0 1.960163 1_555
O7 Sr1 2.712129 1_656
O8 P2 1.543621 1_545
O8 Sr3 2.649819 1_555
O9 P3 1.543658 1_555
O9 Sr2 2.650237 1_555
O10 P0 1.543681 1_565
O10 Sr1 2.650042 1_555
O11 P1 1.543642 1_555
O11 Sr0 2.650323 1_555
O12 P6 1.586983 1_555
O12 Zn0 2.064521 1_555
O12 Sr2 2.740804 1_555
O13 P7 1.586947 1_545
O13 Zn1 2.064345 1_555
O13 Sr3 2.740129 1_455
O14 P4 1.586974 1_555
O14 Zn2 2.064706 1_555
O14 Sr0 2.740995 1_555
O15 P5 1.587011 1_565
O15 Zn3 2.064595 1_555
O15 Sr1 2.740349 1_655
O16 P7 1.577075 1_655
O16 Zn3 2.002146 1_555
O17 P6 1.576945 1_555
O17 Zn2 2.002242 1_555
O18 P5 1.576990 1_455
O18 Zn1 2.002283 1_555
O19 P4 1.576969 1_555
O19 Zn0 2.002336 1_555
O20 P6 1.521685 1_555
O20 Sr0 2.561472 1_556
O20 Sr3 2.679621 1_555
O21 P7 1.521732 1_555
O21 Sr1 2.561523 1_556
O21 Sr2 2.679336 1_555
O22 P4 1.521694 1_555
O22 Sr2 2.561669 1_554
O22 Sr1 2.679706 1_555
O23 P5 1.521699 1_555
O23 Sr3 2.561689 1_554
O23 Sr0 2.679571 1_555
O24 P0 1.588956 1_555
O24 Zn2 2.017278 1_555
O25 P1 1.588995 1_555
O25 Zn3 2.017130 1_555
O26 P2 1.588990 1_555
O26 Zn0 2.017313 1_555
O27 P3 1.588997 1_555
O27 Zn1 2.017036 1_555
O28 P5 1.566514 1_555
O28 Sr0 2.962551 1_555
O29 P4 1.566521 1_555
O29 Sr1 2.962289 1_555
O30 P7 1.566442 1_555
O30 Sr2 2.962244 1_555
O31 P6 1.566567 1_555
O31 Sr3 2.962008 1_555
