# generated using pymatgen
data_Na2CrH5C4O11
_symmetry_space_group_name_H-M   'P 1'
_cell_length_a   8.94934900
_cell_length_b   9.77470900
_cell_length_c   12.90736325
_cell_angle_alpha   76.69465188
_cell_angle_beta   90.00000000
_cell_angle_gamma   90.00000000
_symmetry_Int_Tables_number   1
_chemical_formula_structural   Na2CrH5C4O11
_chemical_formula_sum   'Na8 Cr4 H20 C16 O44'
_cell_volume   1098.79304426
_cell_formula_units_Z   4
loop_
 _symmetry_equiv_pos_site_id
 _symmetry_equiv_pos_as_xyz
  1  'x, y, z'
loop_
 _atom_site_type_symbol
 _atom_site_label
 _atom_site_symmetry_multiplicity
 _atom_site_fract_x
 _atom_site_fract_y
 _atom_site_fract_z
 _atom_site_occupancy
  Na  Na0  1  0.66603400  0.86487300  0.51201700  1
  Na  Na1  1  0.33396600  0.13512700  0.48798300  1
  Na  Na2  1  0.16603400  0.13512700  0.98798300  1
  Na  Na3  1  0.83396600  0.86487300  0.01201700  1
  Na  Na4  1  0.15020100  0.35359500  0.70937800  1
  Na  Na5  1  0.84979900  0.64640500  0.29062200  1
  Na  Na6  1  0.65020100  0.64640500  0.79062200  1
  Na  Na7  1  0.34979900  0.35359500  0.20937800  1
  Cr  Cr0  1  0.44110300  0.89658400  0.93715000  1
  Cr  Cr1  1  0.55889700  0.10341600  0.06285000  1
  Cr  Cr2  1  0.94110300  0.10341600  0.56285000  1
  Cr  Cr3  1  0.05889700  0.89658400  0.43715000  1
  H  H0  1  0.15805500  0.43993100  0.92179900  1
  H  H1  1  0.84194500  0.56006900  0.07820100  1
  H  H2  1  0.65805500  0.56006900  0.57820100  1
  H  H3  1  0.34194500  0.43993100  0.42179900  1
  H  H4  1  0.49137900  0.59571900  0.59386500  1
  H  H5  1  0.50862100  0.40428100  0.40613500  1
  H  H6  1  0.99137900  0.40428100  0.90613500  1
  H  H7  1  0.00862100  0.59571900  0.09386500  1
  H  H8  1  0.14330000  0.90611600  0.62576600  1
  H  H9  1  0.85670000  0.09388400  0.37423400  1
  H  H10  1  0.64330000  0.09388400  0.87423400  1
  H  H11  1  0.35670000  0.90611600  0.12576600  1
  H  H12  1  0.22924500  0.72747500  0.79768100  1
  H  H13  1  0.77075500  0.27252500  0.20231900  1
  H  H14  1  0.72924500  0.27252500  0.70231900  1
  H  H15  1  0.27075500  0.72747500  0.29768100  1
  H  H16  1  0.05978100  0.74139800  0.78092000  1
  H  H17  1  0.94021900  0.25860200  0.21908000  1
  H  H18  1  0.55978100  0.25860200  0.71908000  1
  H  H19  1  0.44021900  0.74139800  0.28092000  1
  C  C0  1  0.01621200  0.62564000  0.56493500  1
  C  C1  1  0.98378800  0.37436000  0.43506500  1
  C  C2  1  0.51621200  0.37436000  0.93506500  1
  C  C3  1  0.48378800  0.62564000  0.06493500  1
  C  C4  1  0.85890100  0.92654100  0.75710300  1
  C  C5  1  0.14109900  0.07345900  0.24289700  1
  C  C6  1  0.35890100  0.07345900  0.74289700  1
  C  C7  1  0.64109900  0.92654100  0.25710300  1
  C  C8  1  0.44641300  0.94965700  0.71308300  1
  C  C9  1  0.55358700  0.05034300  0.28691700  1
  C  C10  1  0.94641300  0.05034300  0.78691700  1
  C  C11  1  0.05358700  0.94965700  0.21308300  1
  C  C12  1  0.18486900  0.63630800  0.53384600  1
  C  C13  1  0.81513100  0.36369200  0.46615400  1
  C  C14  1  0.68486900  0.36369200  0.96615400  1
  C  C15  1  0.31513100  0.63630800  0.03384600  1
  O  O0  1  0.48948700  0.85238100  0.79425000  1
  O  O1  1  0.51051300  0.14761900  0.20575000  1
  O  O2  1  0.98948700  0.14761900  0.70575000  1
  O  O3  1  0.01051300  0.85238100  0.29425000  1
  O  O4  1  0.27197900  0.53848600  0.57290500  1
  O  O5  1  0.72802100  0.46151400  0.42709500  1
  O  O6  1  0.77197900  0.46151400  0.92709500  1
  O  O7  1  0.22802100  0.53848600  0.07290500  1
  O  O8  1  0.46567400  0.48208800  0.87473000  1
  O  O9  1  0.53432600  0.51791200  0.12527000  1
  O  O10  1  0.96567400  0.51791200  0.62527000  1
  O  O11  1  0.03432600  0.48208800  0.37473000  1
  O  O12  1  0.83162900  0.81810000  0.82665300  1
  O  O13  1  0.16837100  0.18190000  0.17334700  1
  O  O14  1  0.33162900  0.18190000  0.67334700  1
  O  O15  1  0.66837100  0.81810000  0.32665300  1
  O  O16  1  0.09423800  0.37676400  0.89273800  1
  O  O17  1  0.90576200  0.62323600  0.10726200  1
  O  O18  1  0.59423800  0.62323600  0.60726200  1
  O  O19  1  0.40576200  0.37676400  0.39273800  1
  O  O20  1  0.11876100  0.97778000  0.56071300  1
  O  O21  1  0.88123900  0.02222000  0.43928700  1
  O  O22  1  0.61876100  0.02222000  0.93928700  1
  O  O23  1  0.38123900  0.97778000  0.06071300  1
  O  O24  1  0.93838400  0.73585000  0.52109500  1
  O  O25  1  0.06161600  0.26415000  0.47890500  1
  O  O26  1  0.43838400  0.26415000  0.97890500  1
  O  O27  1  0.56161600  0.73585000  0.02109500  1
  O  O28  1  0.27779300  0.75040000  0.96562100  1
  O  O29  1  0.72220700  0.24960000  0.03437900  1
  O  O30  1  0.77779300  0.24960000  0.53437900  1
  O  O31  1  0.22220700  0.75040000  0.46562100  1
  O  O32  1  0.82278300  0.94661500  0.65776700  1
  O  O33  1  0.17721700  0.05338500  0.34223300  1
  O  O34  1  0.32278300  0.05338500  0.84223300  1
  O  O35  1  0.67721700  0.94661500  0.15776700  1
  O  O36  1  0.46921500  0.95041000  0.61837800  1
  O  O37  1  0.53078500  0.04959000  0.38162200  1
  O  O38  1  0.96921500  0.04959000  0.88162200  1
  O  O39  1  0.03078500  0.95041000  0.11837800  1
  O  O40  1  0.15366000  0.74838100  0.74159200  1
  O  O41  1  0.84634000  0.25161900  0.25840800  1
  O  O42  1  0.65366000  0.25161900  0.75840800  1
  O  O43  1  0.34634000  0.74838100  0.24159200  1
loop_
_geom_bond_atom_site_label_1
_geom_bond_atom_site_label_2
_geom_bond_distance
_geom_bond_site_symmetry_2
Na0 O37 2.481738 1_565
Na0 O18 2.483221 1_555
Na0 O36 2.492913 1_555
Na0 O21 2.508279 1_565
Na0 O15 2.537182 1_555
Na0 O32 2.614807 1_555
Na0 O24 2.734400 1_555
Na1 O36 2.481738 1_545
Na1 O19 2.483221 1_555
Na1 O37 2.492913 1_555
Na1 O20 2.508279 1_545
Na1 O14 2.537182 1_555
Na1 O33 2.614807 1_555
Na1 O25 2.734400 1_555
Na2 O39 2.481738 1_546
Na2 O16 2.483221 1_555
Na2 O38 2.492913 1_455
Na2 O23 2.508279 1_546
Na2 O13 2.537182 1_556
Na2 O34 2.614807 1_555
Na2 O26 2.734400 1_555
Na3 O38 2.481738 1_564
Na3 O17 2.483221 1_555
Na3 O39 2.492913 1_655
Na3 O22 2.508279 1_564
Na3 O12 2.537182 1_554
Na3 O35 2.614807 1_555
Na3 O27 2.734400 1_555
Na4 O10 2.383865 1_455
Na4 O14 2.455281 1_555
Na4 O4 2.468099 1_555
Na4 O16 2.479933 1_555
Na4 O2 2.483517 1_455
Na5 O11 2.383865 1_655
Na5 O15 2.455281 1_555
Na5 O5 2.468099 1_555
Na5 O17 2.479933 1_555
Na5 O3 2.483517 1_655
Na6 O8 2.383865 1_555
Na6 O12 2.455281 1_555
Na6 O6 2.468099 1_555
Na6 O18 2.479933 1_555
Na6 O0 2.483517 1_555
Na7 O9 2.383865 1_555
Na7 O13 2.455281 1_555
Na7 O7 2.468099 1_555
Na7 O19 2.479933 1_555
Na7 O1 2.483517 1_555
Cr0 O27 2.005511 1_556
Cr0 O23 2.010764 1_556
Cr0 O22 2.013040 1_565
Cr0 O28 2.017711 1_555
Cr0 O34 2.026577 1_565
Cr0 O0 2.035445 1_555
Cr1 O26 2.005511 1_554
Cr1 O22 2.010764 1_554
Cr1 O23 2.013040 1_545
Cr1 O29 2.017711 1_555
Cr1 O35 2.026577 1_545
Cr1 O1 2.035445 1_555
Cr2 O25 2.005511 1_655
Cr2 O21 2.010764 1_555
Cr2 O20 2.013040 1_645
Cr2 O30 2.017711 1_555
Cr2 O32 2.026577 1_545
Cr2 O2 2.035445 1_555
Cr3 O24 2.005511 1_455
Cr3 O20 2.010764 1_555
Cr3 O21 2.013040 1_465
Cr3 O31 2.017711 1_555
Cr3 O33 2.026577 1_565
Cr3 O3 2.035445 1_555
H0 O16 0.977094 1_555
H1 O17 0.977094 1_555
H2 O18 0.977094 1_555
H3 O19 0.977094 1_555
H4 O18 0.985400 1_555
H5 O19 0.985400 1_555
H6 O16 0.985400 1_655
H7 O17 0.985400 1_455
H8 O20 0.986522 1_555
H9 O21 0.986522 1_555
H10 O22 0.986522 1_555
H11 O23 0.986522 1_555
H12 O40 0.977420 1_555
H13 O41 0.977420 1_555
H14 O42 0.977420 1_555
H15 O43 0.977420 1_555
H16 O40 0.975834 1_555
H17 O41 0.975834 1_555
H18 O42 0.975834 1_555
H19 O43 0.975834 1_555
C0 O10 1.241939 1_455
C0 O24 1.298174 1_455
C1 O11 1.241939 1_655
C1 O25 1.298174 1_655
C2 O8 1.241939 1_555
C2 O26 1.298174 1_555
C3 O9 1.241939 1_555
C3 O27 1.298174 1_555
C4 O12 1.245400 1_555
C4 O32 1.292722 1_555
C5 O13 1.245400 1_555
C5 O33 1.292722 1_555
C6 O14 1.245400 1_555
C6 O34 1.292722 1_555
C7 O15 1.245400 1_555
C7 O35 1.292722 1_555
C8 O36 1.237658 1_555
C8 O0 1.300680 1_555
C9 O37 1.237658 1_555
C9 O1 1.300680 1_555
C10 O38 1.237658 1_555
C10 O2 1.300680 1_555
C11 O39 1.237658 1_555
C11 O3 1.300680 1_555
C12 O4 1.246719 1_555
C12 O31 1.295686 1_555
C13 O5 1.246719 1_555
C13 O30 1.295686 1_555
C14 O6 1.246719 1_555
C14 O29 1.295686 1_556
C15 O7 1.246719 1_555
C15 O28 1.295686 1_554
