# generated using pymatgen
data_Co2CuGe2
_symmetry_space_group_name_H-M   'P 1'
_cell_length_a   3.82672984
_cell_length_b   4.95893502
_cell_length_c   6.62213815
_cell_angle_alpha   89.99997021
_cell_angle_beta   90.00000000
_cell_angle_gamma   90.00000000
_symmetry_Int_Tables_number   1
_chemical_formula_structural   Co2CuGe2
_chemical_formula_sum   'Co4 Cu2 Ge4'
_cell_volume   125.66503517
_cell_formula_units_Z   2
loop_
 _symmetry_equiv_pos_site_id
 _symmetry_equiv_pos_as_xyz
  1  'x, y, z'
loop_
 _atom_site_type_symbol
 _atom_site_label
 _atom_site_symmetry_multiplicity
 _atom_site_fract_x
 _atom_site_fract_y
 _atom_site_fract_z
 _atom_site_occupancy
  Co  Co0  1  0.50000000  0.25000464  0.15881545  1
  Co  Co1  1  0.50000000  0.74999536  0.84118455  1
  Co  Co2  1  0.50000000  0.50000000  0.50000000  1
  Co  Co3  1  0.50000000  0.00000000  0.50000000  1
  Cu  Cu0  1  -0.00000000  0.00000000  -0.00000000  1
  Cu  Cu1  1  -0.00000000  0.50000000  -0.00000000  1
  Ge  Ge0  1  -0.00000000  0.25000028  0.37880081  1
  Ge  Ge1  1  -0.00000000  0.74999972  0.62119919  1
  Ge  Ge2  1  0.50000000  0.25000683  0.80309736  1
  Ge  Ge3  1  0.50000000  0.74999317  0.19690264  1
loop_
_geom_bond_atom_site_label_1
_geom_bond_atom_site_label_2
_geom_bond_distance
_geom_bond_site_symmetry_2
Co0 Ge2 2.355614 1_554
Co0 Ge0 2.404819 1_555
Co0 Ge0 2.404819 1_655
Co0 Ge3 2.492206 1_555
Co0 Ge3 2.492319 1_545
Co0 Cu1 2.510760 1_655
Co0 Cu1 2.510760 1_555
Co0 Cu0 2.510783 1_555
Co0 Cu0 2.510783 1_655
Co0 Co2 2.577139 1_555
Co0 Co3 2.577160 1_555
Co1 Ge3 2.355614 1_556
Co1 Ge1 2.404819 1_655
Co1 Ge1 2.404819 1_555
Co1 Ge2 2.492206 1_555
Co1 Ge2 2.492319 1_565
Co1 Cu1 2.510760 1_556
Co1 Cu1 2.510760 1_656
Co1 Cu0 2.510783 1_666
Co1 Cu0 2.510783 1_566
Co1 Co2 2.577139 1_555
Co1 Co3 2.577160 1_565
Co2 Ge2 2.359134 1_555
Co2 Ge3 2.359134 1_555
Co2 Ge0 2.417037 1_655
Co2 Ge1 2.417037 1_555
Co2 Ge1 2.417037 1_655
Co2 Ge0 2.417037 1_555
Co2 Co3 2.479468 1_565
Co2 Co3 2.479468 1_555
Co3 Ge3 2.359171 1_545
Co3 Ge2 2.359171 1_555
Co3 Ge1 2.417038 1_545
Co3 Ge1 2.417038 1_645
Co3 Ge0 2.417038 1_555
Co3 Ge0 2.417038 1_655
Cu0 Cu1 2.479468 1_555
Cu0 Cu1 2.479468 1_545
Cu0 Ge3 2.626440 1_545
Cu0 Ge3 2.626440 1_445
Cu0 Ge2 2.626440 1_454
Cu0 Ge2 2.626440 1_554
Cu0 Ge1 2.798102 1_544
Cu0 Ge0 2.798102 1_555
Cu1 Ge3 2.626408 1_555
Cu1 Ge3 2.626408 1_455
Cu1 Ge2 2.626408 1_554
Cu1 Ge2 2.626408 1_454
Cu1 Ge0 2.798100 1_555
Cu1 Ge1 2.798100 1_554
