# generated using pymatgen
data_Fe5(O4F)2
_symmetry_space_group_name_H-M   'P 1'
_cell_length_a   4.67591400
_cell_length_b   7.60658700
_cell_length_c   9.79893378
_cell_angle_alpha   70.16425894
_cell_angle_beta   90.00000000
_cell_angle_gamma   90.00000000
_symmetry_Int_Tables_number   1
_chemical_formula_structural   Fe5(O4F)2
_chemical_formula_sum   'Fe10 O16 F4'
_cell_volume   327.84769650
_cell_formula_units_Z   2
loop_
 _symmetry_equiv_pos_site_id
 _symmetry_equiv_pos_as_xyz
  1  'x, y, z'
loop_
 _atom_site_type_symbol
 _atom_site_label
 _atom_site_symmetry_multiplicity
 _atom_site_fract_x
 _atom_site_fract_y
 _atom_site_fract_z
 _atom_site_occupancy
  Fe  Fe0  1  0.53208500  0.14774800  0.54829000  1
  Fe  Fe1  1  0.47996100  0.35892700  0.94172400  1
  Fe  Fe2  1  0.49286600  0.53869000  0.35107700  1
  Fe  Fe3  1  0.51985100  0.75087700  0.74367400  1
  Fe  Fe4  1  0.46932200  0.94147800  0.13845000  1
  Fe  Fe5  1  0.03208500  0.85225200  0.45171000  1
  Fe  Fe6  1  0.01985100  0.24912300  0.25632600  1
  Fe  Fe7  1  0.97996100  0.64107300  0.05827600  1
  Fe  Fe8  1  0.96932200  0.05852200  0.86155000  1
  Fe  Fe9  1  0.99286600  0.46131000  0.64892300  1
  O  O0  1  0.81851500  0.70502100  0.61463800  1
  O  O1  1  0.80324200  0.47393200  0.23585100  1
  O  O2  1  0.79417400  0.88111300  0.03162900  1
  O  O3  1  0.82849100  0.08203500  0.42442400  1
  O  O4  1  0.79804300  0.30094000  0.82540000  1
  O  O5  1  0.69975500  0.38352200  0.53105600  1
  O  O6  1  0.69415400  0.99206300  0.72932600  1
  O  O7  1  0.68470200  0.59408500  0.92301500  1
  O  O8  1  0.31851500  0.29497900  0.38536200  1
  O  O9  1  0.29804300  0.69906000  0.17460000  1
  O  O10  1  0.29417400  0.11888700  0.96837100  1
  O  O11  1  0.30324200  0.52606800  0.76414900  1
  O  O12  1  0.32849100  0.91796500  0.57557600  1
  O  O13  1  0.19415400  0.00793700  0.27067400  1
  O  O14  1  0.18470200  0.40591500  0.07698500  1
  O  O15  1  0.19975500  0.61647800  0.46894400  1
  F  F0  1  0.69697200  0.78776800  0.32374700  1
  F  F1  1  0.68786600  0.18565200  0.12835700  1
  F  F2  1  0.19697200  0.21223200  0.67625300  1
  F  F3  1  0.18786600  0.81434800  0.87164300  1
loop_
_geom_bond_atom_site_label_1
_geom_bond_atom_site_label_2
_geom_bond_distance
_geom_bond_site_symmetry_2
Fe0 O8 1.893929 1_555
Fe0 O5 1.911560 1_555
Fe0 O6 1.923002 1_545
Fe0 O12 1.927601 1_545
Fe0 O3 2.013876 1_555
Fe1 O11 1.955918 1_555
Fe1 O10 1.957847 1_555
Fe1 O7 1.981718 1_555
Fe1 O4 2.011753 1_555
Fe1 O14 2.027816 1_556
Fe2 O8 1.947163 1_555
Fe2 O9 1.968953 1_555
Fe2 O1 2.000297 1_555
Fe2 O15 2.006563 1_555
Fe2 O5 2.006637 1_555
Fe3 O7 1.918982 1_555
Fe3 O12 1.925731 1_555
Fe3 O11 1.938420 1_555
Fe3 O6 1.968439 1_555
Fe3 O0 1.992489 1_555
Fe4 O9 1.929727 1_555
Fe4 O10 1.934694 1_564
Fe4 O2 1.984935 1_555
Fe4 O13 2.008552 1_565
Fe5 O0 1.893929 1_455
Fe5 O15 1.911560 1_555
Fe5 O13 1.923002 1_565
Fe5 O3 1.927601 1_465
Fe5 O12 2.013876 1_555
Fe6 O14 1.918982 1_555
Fe6 O3 1.925731 1_455
Fe6 O1 1.938420 1_455
Fe6 O13 1.968439 1_555
Fe6 O8 1.992489 1_555
Fe7 O1 1.955918 1_555
Fe7 O2 1.957847 1_555
Fe7 O14 1.981718 1_655
Fe7 O9 2.011753 1_655
Fe7 O7 2.027816 1_554
Fe8 O4 1.929727 1_555
Fe8 O2 1.934694 1_546
Fe8 O10 1.984935 1_655
Fe8 O6 2.008552 1_545
Fe9 O0 1.947163 1_555
Fe9 O4 1.968953 1_555
Fe9 O11 2.000297 1_655
Fe9 O5 2.006563 1_555
Fe9 O15 2.006637 1_655
F0 Fe2 2.056176 1_555
F0 Fe4 2.087157 1_555
F0 Fe5 2.164630 1_655
F1 Fe4 2.092621 1_545
F1 Fe1 2.095464 1_554
F1 Fe6 2.150839 1_655
F2 Fe9 2.056176 1_455
F2 Fe8 2.087157 1_455
F2 Fe0 2.164630 1_555
F3 Fe8 2.092621 1_465
F3 Fe7 2.095464 1_456
F3 Fe3 2.150839 1_555
