# generated using pymatgen
data_Tm5(In2Pd)2
_symmetry_space_group_name_H-M   'P 1'
_cell_length_a   3.58600400
_cell_length_b   8.06366400
_cell_length_c   18.08444100
_cell_angle_alpha   90.00000000
_cell_angle_beta   90.00000000
_cell_angle_gamma   90.00000000
_symmetry_Int_Tables_number   1
_chemical_formula_structural   Tm5(In2Pd)2
_chemical_formula_sum   'Tm10 In8 Pd4'
_cell_volume   522.93568839
_cell_formula_units_Z   2
loop_
 _symmetry_equiv_pos_site_id
 _symmetry_equiv_pos_as_xyz
  1  'x, y, z'
loop_
 _atom_site_type_symbol
 _atom_site_label
 _atom_site_symmetry_multiplicity
 _atom_site_fract_x
 _atom_site_fract_y
 _atom_site_fract_z
 _atom_site_occupancy
  Tm  Tm0  1  0.00000000  0.50000000  0.50000000  1
  Tm  Tm1  1  0.00000000  0.00000000  0.00000000  1
  Tm  Tm2  1  0.00000000  0.73869400  0.28044400  1
  Tm  Tm3  1  0.00000000  0.26130600  0.71955700  1
  Tm  Tm4  1  0.00000000  0.76130600  0.78044300  1
  Tm  Tm5  1  0.00000000  0.23869400  0.21955600  1
  Tm  Tm6  1  0.00000000  0.61187100  0.08276400  1
  Tm  Tm7  1  0.00000000  0.38812900  0.91723600  1
  Tm  Tm8  1  0.00000000  0.88812900  0.58276400  1
  Tm  Tm9  1  0.00000000  0.11187100  0.41723600  1
  In  In0  1  0.50000000  0.71312500  0.93138200  1
  In  In1  1  0.50000000  0.28687500  0.06861800  1
  In  In2  1  0.50000000  0.78687500  0.43138200  1
  In  In3  1  0.50000000  0.21312500  0.56861800  1
  In  In4  1  0.50000000  0.58300900  0.64840200  1
  In  In5  1  0.50000000  0.41699100  0.35159800  1
  In  In6  1  0.50000000  0.91699100  0.14840200  1
  In  In7  1  0.50000000  0.08300900  0.85159800  1
  Pd  Pd0  1  0.50000000  0.52366200  0.19677200  1
  Pd  Pd1  1  0.50000000  0.47633800  0.80322800  1
  Pd  Pd2  1  0.50000000  0.97633800  0.69677200  1
  Pd  Pd3  1  0.50000000  0.02366200  0.30322800  1
loop_
_geom_bond_atom_site_label_1
_geom_bond_atom_site_label_2
_geom_bond_distance
_geom_bond_site_symmetry_2
In0 Pd1 3.002821 1_555
In0 Tm1 3.178981 1_566
In0 Tm1 3.178981 1_666
In0 Tm7 3.185617 1_655
In0 Tm7 3.185617 1_555
In0 Tm4 3.288887 1_555
In0 Tm4 3.288887 1_655
In0 Tm6 3.372872 1_556
In0 Tm6 3.372872 1_656
In1 Pd0 3.002821 1_555
In1 Tm1 3.178981 1_655
In1 Tm1 3.178981 1_555
In1 Tm6 3.185617 1_555
In1 Tm6 3.185617 1_655
In1 Tm5 3.288872 1_555
In1 Tm5 3.288872 1_655
In1 Tm7 3.372872 1_654
In1 Tm7 3.372872 1_554
In2 Pd3 3.002821 1_565
In2 Tm0 3.178981 1_655
In2 Tm0 3.178981 1_555
In2 Tm9 3.185617 1_665
In2 Tm9 3.185617 1_565
In2 Tm2 3.288872 1_655
In2 Tm2 3.288872 1_555
In2 Tm8 3.372872 1_555
In2 Tm8 3.372872 1_655
In3 Pd2 3.002821 1_545
In3 Tm0 3.178981 1_555
In3 Tm0 3.178981 1_655
In3 Tm8 3.185617 1_545
In3 Tm8 3.185617 1_645
In3 Tm3 3.288887 1_655
In3 Tm3 3.288887 1_555
In3 Tm9 3.372872 1_555
In3 Tm9 3.372872 1_655
In4 Pd1 2.929086 1_555
In4 Tm8 3.267627 1_655
In4 Tm8 3.267627 1_555
In4 Pd2 3.290089 1_555
In4 Tm0 3.296286 1_555
In4 Tm0 3.296286 1_655
In4 Tm4 3.314200 1_555
In4 Tm4 3.314200 1_655
In4 Tm3 3.405890 1_655
In4 Tm3 3.405890 1_555
In5 Pd0 2.929086 1_555
In5 Tm9 3.267627 1_555
In5 Tm9 3.267627 1_655
In5 Pd3 3.290089 1_555
In5 Tm0 3.296286 1_555
In5 Tm0 3.296286 1_655
In5 Tm5 3.314213 1_655
In5 Tm5 3.314213 1_555
In5 Tm2 3.405883 1_655
In5 Tm2 3.405883 1_555
In6 Pd3 2.929086 1_565
In6 Tm6 3.267627 1_555
In6 Tm6 3.267627 1_655
In6 Pd0 3.290089 1_555
In6 Tm1 3.296286 1_665
In6 Tm1 3.296286 1_565
In6 Tm2 3.314213 1_655
In6 Tm2 3.314213 1_555
In6 Tm5 3.405883 1_565
In6 Tm5 3.405883 1_665
In7 Pd2 2.929086 1_545
In7 Tm7 3.267627 1_655
In7 Tm7 3.267627 1_555
In7 Pd1 3.290089 1_555
In7 Tm1 3.296286 1_556
In7 Tm1 3.296286 1_656
In7 Tm3 3.314200 1_555
In7 Tm3 3.314200 1_655
In7 Tm4 3.405890 1_545
In7 Tm4 3.405890 1_645
Pd0 Tm6 2.823417 1_555
Pd0 Tm6 2.823417 1_655
Pd0 Tm2 2.917376 1_555
Pd0 Tm2 2.917376 1_655
Pd0 Tm5 2.943622 1_555
Pd0 Tm5 2.943622 1_655
Pd1 Tm7 2.823417 1_655
Pd1 Tm7 2.823417 1_555
Pd1 Tm3 2.917366 1_555
Pd1 Tm3 2.917366 1_655
Pd1 Tm4 2.943625 1_555
Pd1 Tm4 2.943625 1_655
Pd2 Tm8 2.823417 1_655
Pd2 Tm8 2.823417 1_555
Pd2 Tm4 2.917366 1_655
Pd2 Tm4 2.917366 1_555
Pd2 Tm3 2.943625 1_565
Pd2 Tm3 2.943625 1_665
Pd3 Tm9 2.823417 1_655
Pd3 Tm9 2.823417 1_555
Pd3 Tm5 2.917376 1_555
Pd3 Tm5 2.917376 1_655
Pd3 Tm2 2.943622 1_645
Pd3 Tm2 2.943622 1_545
