# generated using pymatgen
data_Na3Zn3As3O16
_symmetry_space_group_name_H-M   'P 1'
_cell_length_a   9.32843459
_cell_length_b   9.32843459
_cell_length_c   9.32843503
_cell_angle_alpha   90.54591677
_cell_angle_beta   90.54591677
_cell_angle_gamma   90.54591984
_symmetry_Int_Tables_number   1
_chemical_formula_structural   Na3Zn3As3O16
_chemical_formula_sum   'Na6 Zn6 As6 O32'
_cell_volume   811.64629328
_cell_formula_units_Z   2
loop_
 _symmetry_equiv_pos_site_id
 _symmetry_equiv_pos_as_xyz
  1  'x, y, z'
loop_
 _atom_site_type_symbol
 _atom_site_label
 _atom_site_symmetry_multiplicity
 _atom_site_fract_x
 _atom_site_fract_y
 _atom_site_fract_z
 _atom_site_occupancy
  Na  Na0  1  0.32764600  0.67084400  0.33095000  1
  Na  Na1  1  0.67084400  0.33095000  0.32764600  1
  Na  Na2  1  0.33095000  0.32764600  0.67084400  1
  Na  Na3  1  0.17084400  0.82764600  0.83095000  1
  Na  Na4  1  0.83095000  0.17084400  0.82764600  1
  Na  Na5  1  0.82764600  0.83095000  0.17084400  1
  Zn  Zn0  1  0.99213400  0.75105300  0.50230200  1
  Zn  Zn1  1  0.50230200  0.99213400  0.75105300  1
  Zn  Zn2  1  0.75105300  0.50230200  0.99213400  1
  Zn  Zn3  1  0.49213400  0.00230200  0.25105300  1
  Zn  Zn4  1  0.25105300  0.49213400  0.00230200  1
  Zn  Zn5  1  0.00230200  0.25105300  0.49213400  1
  As  As0  1  0.50000300  0.74863700  0.00120100  1
  As  As1  1  0.00120100  0.50000300  0.74863700  1
  As  As2  1  0.74863700  0.00120100  0.50000300  1
  As  As3  1  0.00000300  0.50120100  0.24863700  1
  As  As4  1  0.24863700  0.00000300  0.50120100  1
  As  As5  1  0.50120100  0.24863700  0.00000300  1
  O  O0  1  0.63062100  0.65301300  0.91707300  1
  O  O1  1  0.91707300  0.63062100  0.65301300  1
  O  O2  1  0.65301300  0.91707300  0.63062100  1
  O  O3  1  0.37235300  0.64753400  0.08822200  1
  O  O4  1  0.08422600  0.62948800  0.35550300  1
  O  O5  1  0.34875100  0.91138300  0.37406900  1
  O  O6  1  0.62948800  0.35550300  0.08422600  1
  O  O7  1  0.91138300  0.37406900  0.34875100  1
  O  O8  1  0.64753400  0.08822200  0.37235300  1
  O  O9  1  0.37406900  0.34875100  0.91138300  1
  O  O10  1  0.08822200  0.37235300  0.64753400  1
  O  O11  1  0.35550300  0.08422600  0.62948800  1
  O  O12  1  0.12948800  0.58422600  0.85550300  1
  O  O13  1  0.41138300  0.84875100  0.87406900  1
  O  O14  1  0.14753400  0.87235300  0.58822200  1
  O  O15  1  0.87406900  0.41138300  0.84875100  1
  O  O16  1  0.58822200  0.14753400  0.87235300  1
  O  O17  1  0.85550300  0.12948800  0.58422600  1
  O  O18  1  0.13062100  0.41707300  0.15301300  1
  O  O19  1  0.41707300  0.15301300  0.13062100  1
  O  O20  1  0.15301300  0.13062100  0.41707300  1
  O  O21  1  0.87235300  0.58822200  0.14753400  1
  O  O22  1  0.58422600  0.85550300  0.12948800  1
  O  O23  1  0.84875100  0.87406900  0.41138300  1
  O  O24  1  0.94499100  0.94499100  0.94499100  1
  O  O25  1  0.07779800  0.92284200  0.07796300  1
  O  O26  1  0.92284200  0.07796300  0.07779800  1
  O  O27  1  0.07796300  0.07779800  0.92284200  1
  O  O28  1  0.42284200  0.57779800  0.57796300  1
  O  O29  1  0.57796300  0.42284200  0.57779800  1
  O  O30  1  0.44499100  0.44499100  0.44499100  1
  O  O31  1  0.57779800  0.57796300  0.42284200  1
loop_
_geom_bond_atom_site_label_1
_geom_bond_atom_site_label_2
_geom_bond_distance
_geom_bond_site_symmetry_2
Na0 O5 2.282170 1_555
Na0 O4 2.313525 1_555
Na0 O3 2.314839 1_555
Na0 O30 2.614053 1_555
Na0 O28 2.620177 1_555
Na0 O31 2.635417 1_555
Na1 O7 2.282170 1_555
Na1 O6 2.313525 1_555
Na1 O8 2.314839 1_555
Na1 O30 2.614053 1_555
Na1 O31 2.620177 1_555
Na1 O29 2.635417 1_555
Na2 O9 2.282170 1_555
Na2 O11 2.313525 1_555
Na2 O10 2.314839 1_555
Na2 O30 2.614053 1_555
Na2 O29 2.620177 1_555
Na2 O28 2.635417 1_555
Na3 O13 2.282170 1_555
Na3 O12 2.313525 1_555
Na3 O14 2.314839 1_555
Na3 O24 2.614053 1_455
Na3 O25 2.620177 1_556
Na3 O27 2.635417 1_565
Na4 O15 2.282170 1_555
Na4 O17 2.313525 1_555
Na4 O16 2.314839 1_555
Na4 O24 2.614053 1_545
Na4 O27 2.620177 1_655
Na4 O26 2.635417 1_556
Na5 O23 2.282170 1_555
Na5 O22 2.313525 1_555
Na5 O21 2.314839 1_555
Na5 O24 2.614053 1_554
Na5 O26 2.620177 1_565
Na5 O25 2.635417 1_655
As0 O0 1.709336 1_554
As0 O3 1.725695 1_555
As0 O13 1.726032 1_554
As0 O22 1.728475 1_555
As1 O1 1.709336 1_455
As1 O10 1.725695 1_555
As1 O15 1.726032 1_455
As1 O12 1.728475 1_555
As2 O2 1.709336 1_545
As2 O8 1.725695 1_555
As2 O23 1.726032 1_545
As2 O17 1.728475 1_555
As3 O18 1.709336 1_555
As3 O21 1.725695 1_455
As3 O7 1.726032 1_455
As3 O4 1.728475 1_555
As4 O20 1.709336 1_555
As4 O14 1.725695 1_545
As4 O5 1.726032 1_545
As4 O11 1.728475 1_555
As5 O19 1.709336 1_555
As5 O16 1.725695 1_554
As5 O9 1.726032 1_554
As5 O6 1.728475 1_555
O0 Zn2 1.939799 1_555
O1 Zn0 1.939799 1_555
O2 Zn1 1.939799 1_555
O3 Zn4 1.988354 1_555
O4 Zn0 1.977536 1_455
O5 Zn3 1.962493 1_565
O6 Zn2 1.977536 1_554
O7 Zn5 1.962493 1_655
O8 Zn3 1.988354 1_555
O9 Zn4 1.962493 1_556
O10 Zn5 1.988354 1_555
O11 Zn1 1.977536 1_545
O12 Zn4 1.977536 1_556
O13 Zn1 1.962493 1_555
O14 Zn0 1.988354 1_455
O15 Zn2 1.962493 1_555
O16 Zn1 1.988354 1_545
O17 Zn5 1.977536 1_655
O18 Zn4 1.939799 1_555
O19 Zn3 1.939799 1_555
O20 Zn5 1.939799 1_555
O21 Zn2 1.988354 1_554
O22 Zn3 1.977536 1_565
O23 Zn0 1.962493 1_555
O24 O27 1.759727 1_665
O24 O26 1.759727 1_566
O24 O25 1.759727 1_656
O28 O30 1.759727 1_555
O29 O30 1.759727 1_555
O30 O31 1.759727 1_555
