# generated using pymatgen
data_AlV2O4
_symmetry_space_group_name_H-M   'P 1'
_cell_length_a   6.01019575
_cell_length_b   8.33174678
_cell_length_c   5.95775995
_cell_angle_alpha   90.22274794
_cell_angle_beta   88.93089723
_cell_angle_gamma   90.21282331
_symmetry_Int_Tables_number   1
_chemical_formula_structural   AlV2O4
_chemical_formula_sum   'Al4 V8 O16'
_cell_volume   298.28121796
_cell_formula_units_Z   4
loop_
 _symmetry_equiv_pos_site_id
 _symmetry_equiv_pos_as_xyz
  1  'x, y, z'
loop_
 _atom_site_type_symbol
 _atom_site_label
 _atom_site_symmetry_multiplicity
 _atom_site_fract_x
 _atom_site_fract_y
 _atom_site_fract_z
 _atom_site_occupancy
  Al  Al0  1  0.25185600  0.62948000  0.99758600  1
  Al  Al1  1  0.74922600  0.12720700  0.50219500  1
  Al  Al2  1  0.74787700  0.37060200  0.00212700  1
  Al  Al3  1  0.25037800  0.87269000  0.49737800  1
  V  V0  1  0.24781000  0.24722500  0.75540800  1
  V  V1  1  0.75201400  0.75248500  0.24497000  1
  V  V2  1  0.50005200  0.99994600  0.99993200  1
  V  V3  1  0.00040700  0.49967800  0.49971000  1
  V  V4  1  0.24760400  0.25637600  0.25807300  1
  V  V5  1  0.75195400  0.74409800  0.74239900  1
  V  V6  1  0.50031600  0.50008900  0.49999600  1
  V  V7  1  0.00012700  0.00018000  0.99975900  1
  O  O0  1  0.50081100  0.24551200  0.00359900  1
  O  O1  1  0.00411900  0.74976100  0.49297200  1
  O  O2  1  0.49876900  0.75450100  0.99702800  1
  O  O3  1  0.99596600  0.24975500  0.50713600  1
  O  O4  1  0.00457400  0.75106600  0.99233800  1
  O  O5  1  0.50528800  0.25423400  0.50247400  1
  O  O6  1  0.74558900  0.49567200  0.25243500  1
  O  O7  1  0.25313900  0.99321000  0.75381900  1
  O  O8  1  0.74649900  0.49093100  0.74933800  1
  O  O9  1  0.25150200  0.99908700  0.24921500  1
  O  O10  1  0.25478800  0.50389000  0.74754000  1
  O  O11  1  0.74697700  0.00677800  0.24592200  1
  O  O12  1  0.99544200  0.24919400  0.00789600  1
  O  O13  1  0.49438700  0.74586200  0.49764700  1
  O  O14  1  0.25402000  0.50895800  0.25042000  1
  O  O15  1  0.74850800  0.00153300  0.75069100  1
loop_
_geom_bond_atom_site_label_1
_geom_bond_atom_site_label_2
_geom_bond_distance
_geom_bond_site_symmetry_2
Al0 O4 1.802551 1_555
Al0 O2 1.809871 1_555
Al0 O14 1.813865 1_556
Al0 O10 1.817007 1_555
Al1 O3 1.797969 1_555
Al1 O5 1.811364 1_555
Al1 O15 1.816591 1_555
Al1 O11 1.823973 1_555
Al2 O12 1.803232 1_555
Al2 O0 1.810899 1_555
Al2 O8 1.812636 1_554
Al2 O6 1.815825 1_555
Al3 O1 1.797296 1_555
Al3 O13 1.810794 1_555
Al3 O9 1.818437 1_555
Al3 O7 1.825291 1_555
O0 V2 2.046014 1_544
O0 V4 2.129916 1_555
O0 V0 2.140807 1_554
O1 V3 2.084199 1_555
O1 V5 2.103187 1_455
O1 V1 2.136240 1_455
O2 V2 2.044979 1_555
O2 V5 2.130309 1_555
O2 V1 2.140856 1_556
O3 V3 2.082998 1_655
O3 V4 2.099639 1_655
O3 V0 2.136217 1_655
O4 V7 2.076114 1_565
O4 V1 2.117639 1_456
O4 V5 2.146854 1_455
O5 V6 2.048845 1_555
O5 V0 2.140548 1_555
O5 V4 2.145605 1_555
O6 V6 2.066069 1_555
O6 V1 2.140526 1_555
O6 V3 2.144852 1_655
O7 V7 2.092741 1_565
O7 V2 2.106019 1_555
O7 V0 2.116732 1_565
O8 V5 2.110010 1_555
O8 V3 2.112169 1_655
O8 V6 2.117917 1_555
O9 V2 2.086751 1_554
O9 V7 2.139024 1_564
O9 V4 2.144315 1_565
O10 V6 2.066988 1_555
O10 V0 2.139402 1_555
O10 V3 2.145280 1_555
O11 V7 2.094161 1_654
O11 V2 2.105568 1_544
O11 V1 2.119018 1_545
O12 V7 2.075383 1_654
O12 V0 2.116259 1_654
O12 V4 2.145915 1_655
O13 V6 2.048268 1_555
O13 V1 2.140041 1_555
O13 V5 2.146497 1_555
O14 V4 2.105315 1_555
O14 V3 2.109679 1_555
O14 V6 2.119299 1_555
O15 V2 2.086210 1_545
O15 V7 2.138466 1_655
O15 V5 2.145428 1_545
