# generated using pymatgen
data_Ti5Fe(PO4)6
_symmetry_space_group_name_H-M   'P 1'
_cell_length_a   8.44913307
_cell_length_b   8.44913307
_cell_length_c   8.44913268
_cell_angle_alpha   62.42511885
_cell_angle_beta   62.42511885
_cell_angle_gamma   62.42511515
_symmetry_Int_Tables_number   1
_chemical_formula_structural   Ti5Fe(PO4)6
_chemical_formula_sum   'Ti5 Fe1 P6 O24'
_cell_volume   449.56532394
_cell_formula_units_Z   1
loop_
 _symmetry_equiv_pos_site_id
 _symmetry_equiv_pos_as_xyz
  1  'x, y, z'
loop_
 _atom_site_type_symbol
 _atom_site_label
 _atom_site_symmetry_multiplicity
 _atom_site_fract_x
 _atom_site_fract_y
 _atom_site_fract_z
 _atom_site_occupancy
  Ti  Ti0  1  0.99875700  0.99875700  0.99875700  1
  Ti  Ti1  1  0.49948500  0.49948500  0.49948500  1
  Ti  Ti2  1  0.14091400  0.14091400  0.14091400  1
  Ti  Ti3  1  0.35595100  0.35595100  0.35595100  1
  Ti  Ti4  1  0.64363800  0.64363800  0.64363800  1
  Fe  Fe0  1  0.85541800  0.85541800  0.85541800  1
  P  P0  1  0.54262200  0.25144100  0.95647600  1
  P  P1  1  0.95647600  0.54262200  0.25144100  1
  P  P2  1  0.25144100  0.95647600  0.54262200  1
  P  P3  1  0.75039000  0.04690300  0.45486400  1
  P  P4  1  0.04690300  0.45486400  0.75039000  1
  P  P5  1  0.45486400  0.75039000  0.04690300  1
  O  O0  1  0.33292400  0.11038400  0.48771400  1
  O  O1  1  0.48771400  0.33292400  0.11038400  1
  O  O2  1  0.90193900  0.05924500  0.25242000  1
  O  O3  1  0.11038400  0.48771400  0.33292400  1
  O  O4  1  0.82228700  0.01879900  0.60094200  1
  O  O5  1  0.59333800  0.24623400  0.43155700  1
  O  O6  1  0.05924500  0.25242000  0.90193900  1
  O  O7  1  0.24623400  0.43155700  0.59333800  1
  O  O8  1  0.38624500  0.17849000  0.99945100  1
  O  O9  1  0.43155700  0.59333800  0.24623400  1
  O  O10  1  0.74092700  0.10478400  0.94757600  1
  O  O11  1  0.99945100  0.38624500  0.17849000  1
  O  O12  1  0.01879900  0.60094200  0.82228700  1
  O  O13  1  0.25242000  0.90193900  0.05924500  1
  O  O14  1  0.55527900  0.40712100  0.75726500  1
  O  O15  1  0.60094200  0.82228700  0.01879900  1
  O  O16  1  0.75726500  0.55527900  0.40712100  1
  O  O17  1  0.94757600  0.74092700  0.10478400  1
  O  O18  1  0.40712100  0.75726500  0.55527900  1
  O  O19  1  0.17849000  0.99945100  0.38624500  1
  O  O20  1  0.88616000  0.50246500  0.67959500  1
  O  O21  1  0.10478400  0.94757600  0.74092700  1
  O  O22  1  0.50246500  0.67959500  0.88616000  1
  O  O23  1  0.67959500  0.88616000  0.50246500  1
loop_
_geom_bond_atom_site_label_1
_geom_bond_atom_site_label_2
_geom_bond_distance
_geom_bond_site_symmetry_2
Fe0 O4 2.014565 1_565
Fe0 O12 2.014565 1_655
Fe0 O15 2.014565 1_556
Fe0 O17 2.217156 1_556
Fe0 O10 2.217157 1_565
Fe0 O21 2.217157 1_655
O0 P2 1.534549 1_545
O0 Ti3 1.901802 1_555
O1 P0 1.534549 1_554
O1 Ti3 1.901802 1_555
O2 P3 1.583334 1_555
O2 Ti2 2.089861 1_655
O2 Ti0 2.127834 1_544
O3 P1 1.534549 1_455
O3 Ti3 1.901802 1_555
O4 P3 1.495991 1_555
O5 P3 1.581730 1_555
O5 Ti3 2.051069 1_555
O5 Ti1 2.163669 1_555
O6 P4 1.583334 1_555
O6 Ti2 2.089860 1_556
O6 Ti0 2.127834 1_445
O7 P4 1.581730 1_555
O7 Ti3 2.051069 1_555
O7 Ti1 2.163669 1_555
O8 P0 1.536251 1_555
O8 Ti2 1.946857 1_556
O9 P5 1.581730 1_555
O9 Ti3 2.051070 1_555
O9 Ti1 2.163669 1_555
O10 P0 1.547864 1_555
O10 Ti0 2.107574 1_545
O11 P1 1.536251 1_555
O11 Ti2 1.946857 1_655
O12 P4 1.495991 1_555
O13 P5 1.583334 1_555
O13 Ti2 2.089860 1_565
O13 Ti0 2.127834 1_454
O14 P0 1.577499 1_555
O14 Ti4 2.100941 1_555
O14 Ti1 2.147408 1_555
O15 P5 1.495991 1_555
O16 P1 1.577499 1_555
O16 Ti4 2.100941 1_555
O16 Ti1 2.147408 1_555
O17 P1 1.547864 1_555
O17 Ti0 2.107574 1_554
O18 P2 1.577499 1_555
O18 Ti4 2.100941 1_555
O18 Ti1 2.147408 1_555
O19 P2 1.536251 1_555
O19 Ti2 1.946857 1_565
O20 P4 1.545242 1_655
O20 Ti4 1.921428 1_555
O21 P2 1.547864 1_555
O21 Ti0 2.107574 1_455
O22 P5 1.545242 1_556
O22 Ti4 1.921428 1_555
O23 P3 1.545242 1_565
O23 Ti4 1.921428 1_555
