# generated using pymatgen
data_YAlPd2
_symmetry_space_group_name_H-M   'P 1'
_cell_length_a   4.35953197
_cell_length_b   4.35953197
_cell_length_c   9.10800993
_cell_angle_alpha   90.00000000
_cell_angle_beta   90.00000000
_cell_angle_gamma   120.00320345
_symmetry_Int_Tables_number   1
_chemical_formula_structural   YAlPd2
_chemical_formula_sum   'Y2 Al2 Pd4'
_cell_volume   149.90628482
_cell_formula_units_Z   2
loop_
 _symmetry_equiv_pos_site_id
 _symmetry_equiv_pos_as_xyz
  1  'x, y, z'
loop_
 _atom_site_type_symbol
 _atom_site_label
 _atom_site_symmetry_multiplicity
 _atom_site_fract_x
 _atom_site_fract_y
 _atom_site_fract_z
 _atom_site_occupancy
  Y  Y0  1  0.66666927  0.33333073  0.74999900  1
  Y  Y1  1  0.33333073  0.66666927  0.24999900  1
  Al  Al0  1  0.00000000  -0.00000000  0.50000000  1
  Al  Al1  1  0.00000000  -0.00000000  0.00000000  1
  Pd  Pd0  1  0.66666099  0.33333901  0.07780980  1
  Pd  Pd1  1  0.33333801  0.66666199  0.92219020  1
  Pd  Pd2  1  0.33333901  0.66666099  0.57780980  1
  Pd  Pd3  1  0.66666199  0.33333801  0.42219020  1
loop_
_geom_bond_atom_site_label_1
_geom_bond_atom_site_label_2
_geom_bond_distance
_geom_bond_site_symmetry_2
Al0 Pd2 2.614747 1_445
Al0 Pd2 2.614747 1_555
Al0 Pd3 2.614750 1_445
Al0 Pd3 2.614750 1_555
Al0 Pd3 2.614919 1_455
Al0 Pd2 2.614926 1_545
Al1 Pd0 2.614747 1_445
Al1 Pd0 2.614747 1_555
Al1 Pd1 2.614750 1_554
Al1 Pd1 2.614750 1_444
Al1 Pd1 2.614919 1_544
Al1 Pd0 2.614926 1_455
Pd0 Y1 2.965534 1_545
Pd0 Y1 2.965534 1_655
Pd0 Y1 2.965608 1_555
Pd0 Y0 2.985704 1_554
Pd1 Y0 2.965540 1_455
Pd1 Y0 2.965540 1_565
Pd1 Y0 2.965624 1_555
Pd1 Y1 2.985686 1_556
Pd2 Y0 2.965534 1_455
Pd2 Y0 2.965534 1_565
Pd2 Y0 2.965608 1_555
Pd2 Y1 2.985704 1_555
Pd3 Y1 2.965540 1_545
Pd3 Y1 2.965540 1_655
Pd3 Y1 2.965624 1_555
Pd3 Y0 2.985686 1_555
