# generated using pymatgen
data_Ca2Cd3(Cl5O9)2
_symmetry_space_group_name_H-M   'P 1'
_cell_length_a   7.60529500
_cell_length_b   9.64995076
_cell_length_c   11.14880913
_cell_angle_alpha   112.35055413
_cell_angle_beta   90.07130619
_cell_angle_gamma   105.38736641
_symmetry_Int_Tables_number   1
_chemical_formula_structural   Ca2Cd3(Cl5O9)2
_chemical_formula_sum   'Ca2 Cd3 Cl10 O18'
_cell_volume   724.82074054
_cell_formula_units_Z   1
loop_
 _symmetry_equiv_pos_site_id
 _symmetry_equiv_pos_as_xyz
  1  'x, y, z'
loop_
 _atom_site_type_symbol
 _atom_site_label
 _atom_site_symmetry_multiplicity
 _atom_site_fract_x
 _atom_site_fract_y
 _atom_site_fract_z
 _atom_site_occupancy
  Ca  Ca0  1  0.59530200  0.61265400  0.40010800  1
  Ca  Ca1  1  0.40469800  0.38734600  0.59989200  1
  Cd  Cd0  1  0.00000000  0.00000000  0.00000000  1
  Cd  Cd1  1  0.41469100  0.94222800  0.80965000  1
  Cd  Cd2  1  0.58530900  0.05777200  0.19035000  1
  Cl  Cl0  1  0.19699900  0.66325400  0.63473100  1
  Cl  Cl1  1  0.80300100  0.33674600  0.36526900  1
  Cl  Cl2  1  0.67034300  0.77179200  0.75063600  1
  Cl  Cl3  1  0.32965700  0.22820800  0.24936400  1
  Cl  Cl4  1  0.28216500  0.87957100  0.01151300  1
  Cl  Cl5  1  0.71783500  0.12042900  0.98848700  1
  Cl  Cl6  1  0.83042800  0.90835800  0.15573800  1
  Cl  Cl7  1  0.16957200  0.09164200  0.84426200  1
  Cl  Cl8  1  0.40646000  0.90192500  0.33314900  1
  Cl  Cl9  1  0.59354000  0.09807500  0.66685100  1
  O  O0  1  0.88695300  0.81716800  0.51973900  1
  O  O1  1  0.11304700  0.18283200  0.48026100  1
  O  O2  1  0.52446700  0.80142800  0.36675200  1
  O  O3  1  0.47553300  0.19857200  0.63324800  1
  O  O4  1  0.44892900  0.57468800  0.10377200  1
  O  O5  1  0.55107100  0.42531200  0.89622800  1
  O  O6  1  0.38085600  0.38688200  0.38705800  1
  O  O7  1  0.61914400  0.61311800  0.61294200  1
  O  O8  1  0.79257100  0.47257000  0.31330100  1
  O  O9  1  0.20742900  0.52743000  0.68669900  1
  O  O10  1  0.47276400  0.52462500  0.90199800  1
  O  O11  1  0.52723600  0.47537500  0.09800200  1
  O  O12  1  0.97580100  0.07014900  0.46105600  1
  O  O13  1  0.02419900  0.92985100  0.53894400  1
  O  O14  1  0.97767300  0.57830000  0.10434200  1
  O  O15  1  0.02232700  0.42170000  0.89565800  1
  O  O16  1  0.90897100  0.58075000  0.00554400  1
  O  O17  1  0.09102900  0.41925000  0.99445600  1
loop_
_geom_bond_atom_site_label_1
_geom_bond_atom_site_label_2
_geom_bond_distance
_geom_bond_site_symmetry_2
Ca0 O2 2.186888 1_555
Ca0 O8 2.258267 1_555
Ca0 O6 2.302264 1_555
Ca0 O7 2.377754 1_555
Ca0 O0 2.502266 1_555
Ca1 O3 2.186888 1_555
Ca1 O9 2.258267 1_555
Ca1 O7 2.302264 1_555
Ca1 O6 2.377754 1_555
Ca1 O1 2.502266 1_555
Cd0 Cl7 2.455216 1_554
Cd0 Cl6 2.455216 1_445
Cd0 Cl4 2.721829 1_545
Cd0 Cl5 2.721829 1_454
Cd1 Cl7 2.590002 1_565
Cd1 Cl4 2.676471 1_556
Cd1 Cl9 2.717952 1_565
Cd1 Cl0 2.724934 1_555
Cd1 Cl5 2.743126 1_565
Cd1 Cl2 2.792038 1_555
Cd2 Cl6 2.590002 1_545
Cd2 Cl5 2.676471 1_554
Cd2 Cl8 2.717952 1_545
Cd2 Cl1 2.724934 1_555
Cd2 Cl4 2.743126 1_545
Cd2 Cl3 2.792038 1_555
Cl0 O9 1.640886 1_555
Cl1 O8 1.640886 1_555
Cl2 O7 1.657460 1_555
Cl3 O6 1.657460 1_555
Cl8 O2 1.619779 1_555
Cl9 O3 1.619779 1_555
O0 O13 1.240080 1_655
O1 O12 1.240080 1_455
O10 O5 1.238297 1_555
O11 O4 1.238297 1_555
O12 O13 1.969844 1_645
O14 O16 1.229533 1_555
O15 O17 1.229533 1_555
