# generated using pymatgen
data_Tb2Mg
_symmetry_space_group_name_H-M   'P 1'
_cell_length_a   7.36738487
_cell_length_b   7.36738216
_cell_length_c   13.97991183
_cell_angle_alpha   105.27779058
_cell_angle_beta   105.27777391
_cell_angle_gamma   89.99999076
_symmetry_Int_Tables_number   1
_chemical_formula_structural   Tb2Mg
_chemical_formula_sum   'Tb16 Mg8'
_cell_volume   704.15295459
_cell_formula_units_Z   8
loop_
 _symmetry_equiv_pos_site_id
 _symmetry_equiv_pos_as_xyz
  1  'x, y, z'
loop_
 _atom_site_type_symbol
 _atom_site_label
 _atom_site_symmetry_multiplicity
 _atom_site_fract_x
 _atom_site_fract_y
 _atom_site_fract_z
 _atom_site_occupancy
  Tb  Tb0_0  1  0.32934763  0.32934763  0.15869625  1
  Tb  Tb0_1  1  0.32934763  0.32934763  0.65869625  1
  Tb  Tb0_2  1  0.32934763  0.82934763  0.15869625  1
  Tb  Tb0_3  1  0.32934763  0.82934763  0.65869625  1
  Tb  Tb0_4  1  0.82934763  0.32934763  0.15869625  1
  Tb  Tb0_5  1  0.82934762  0.32934763  0.65869625  1
  Tb  Tb0_6  1  0.82934763  0.82934763  0.15869625  1
  Tb  Tb0_7  1  0.82934763  0.82934763  0.65869625  1
  Tb  Tb1_0  1  0.17065237  0.17065237  0.34130375  1
  Tb  Tb1_1  1  0.17065237  0.17065238  0.84130375  1
  Tb  Tb1_2  1  0.17065237  0.67065237  0.34130375  1
  Tb  Tb1_3  1  0.17065237  0.67065237  0.84130375  1
  Tb  Tb1_4  1  0.67065238  0.17065237  0.34130375  1
  Tb  Tb1_5  1  0.67065237  0.17065237  0.84130375  1
  Tb  Tb1_6  1  0.67065238  0.67065237  0.34130375  1
  Tb  Tb1_7  1  0.67065237  0.67065237  0.84130375  1
  Mg  Mg0_0  1  0.00000000  0.00000000  0.00000000  1
  Mg  Mg0_1  1  0.00000000  0.00000000  0.50000000  1
  Mg  Mg0_2  1  0.00000000  0.50000000  0.00000000  1
  Mg  Mg0_3  1  0.00000000  0.50000000  0.50000000  1
  Mg  Mg0_4  1  0.50000000  0.00000000  0.00000000  1
  Mg  Mg0_5  1  0.50000000  0.00000000  0.50000000  1
  Mg  Mg0_6  1  0.50000000  0.50000000  0.00000000  1
  Mg  Mg0_7  1  0.50000000  0.50000000  0.50000000  1
loop_
_geom_bond_atom_site_label_1
_geom_bond_atom_site_label_2
_geom_bond_distance
_geom_bond_site_symmetry_2
Tb0_0 Tb1_0 3.520901 1_555
Tb0_0 Tb1_2 3.520908 1_555
Tb0_0 Tb1_4 3.520909 1_555
Tb0_0 Tb1_6 3.520917 1_555
Tb0_0 Tb0_2 3.683691 1_545
Tb0_0 Tb0_2 3.683691 1_555
Tb0_0 Tb0_4 3.683692 1_455
Tb0_0 Tb0_4 3.683692 1_555
Tb0_1 Tb1_1 3.520901 1_555
Tb0_1 Tb1_3 3.520908 1_555
Tb0_1 Tb1_5 3.520909 1_555
Tb0_1 Tb1_7 3.520917 1_555
Tb0_1 Tb0_3 3.683691 1_545
Tb0_1 Tb0_3 3.683691 1_555
Tb0_1 Tb0_5 3.683692 1_555
Tb0_1 Tb0_5 3.683692 1_455
Tb0_2 Tb1_2 3.520901 1_555
Tb0_2 Tb1_0 3.520908 1_565
Tb0_2 Tb1_6 3.520909 1_555
Tb0_2 Tb1_4 3.520917 1_565
Tb0_2 Tb0_6 3.683692 1_555
Tb0_2 Tb0_6 3.683692 1_455
Tb0_3 Tb1_3 3.520901 1_555
Tb0_3 Tb1_1 3.520908 1_565
Tb0_3 Tb1_7 3.520909 1_555
Tb0_3 Tb1_5 3.520917 1_565
Tb0_3 Tb0_7 3.683692 1_555
Tb0_3 Tb0_7 3.683692 1_455
Tb0_4 Tb1_4 3.520901 1_555
Tb0_4 Tb1_6 3.520908 1_555
Tb0_4 Tb1_0 3.520909 1_655
Tb0_4 Tb1_2 3.520917 1_655
Tb0_4 Tb0_6 3.683691 1_545
Tb0_4 Tb0_6 3.683691 1_555
Tb0_5 Tb1_5 3.520901 1_555
Tb0_5 Tb1_7 3.520908 1_555
Tb0_5 Tb1_1 3.520909 1_655
Tb0_5 Tb1_3 3.520917 1_655
Tb0_5 Tb0_7 3.683691 1_545
Tb0_5 Tb0_7 3.683691 1_555
Tb0_6 Tb1_6 3.520901 1_555
Tb0_6 Tb1_4 3.520908 1_565
Tb0_6 Tb1_2 3.520909 1_655
Tb0_6 Tb1_0 3.520917 1_665
Tb0_7 Tb1_7 3.520901 1_555
Tb0_7 Tb1_5 3.520908 1_565
Tb0_7 Tb1_3 3.520909 1_655
Tb0_7 Tb1_1 3.520917 1_665
Tb1_0 Tb1_2 3.683691 1_545
Tb1_0 Tb1_2 3.683691 1_555
Tb1_0 Tb1_4 3.683692 1_455
Tb1_0 Tb1_4 3.683692 1_555
Tb1_1 Tb1_3 3.683691 1_555
Tb1_1 Tb1_3 3.683691 1_545
Tb1_1 Tb1_5 3.683692 1_455
Tb1_1 Tb1_5 3.683692 1_555
Tb1_2 Tb1_6 3.683692 1_455
Tb1_2 Tb1_6 3.683692 1_555
Tb1_3 Tb1_7 3.683692 1_455
Tb1_3 Tb1_7 3.683692 1_555
Tb1_4 Tb1_6 3.683691 1_545
Tb1_4 Tb1_6 3.683691 1_555
Tb1_5 Tb1_7 3.683691 1_555
Tb1_5 Tb1_7 3.683691 1_545
Mg0_0 Tb0_0 3.320133 1_555
Mg0_0 Tb1_7 3.320133 1_444
Mg0_0 Tb0_4 3.320137 1_455
Mg0_0 Tb1_3 3.320137 1_544
Mg0_0 Tb0_2 3.320138 1_545
Mg0_0 Tb1_5 3.320138 1_454
Mg0_0 Tb0_6 3.320142 1_445
Mg0_0 Tb1_1 3.320142 1_554
Mg0_1 Tb0_1 3.320133 1_555
Mg0_1 Tb1_6 3.320133 1_445
Mg0_1 Tb0_5 3.320137 1_455
Mg0_1 Tb1_2 3.320137 1_545
Mg0_1 Tb0_3 3.320138 1_545
Mg0_1 Tb1_4 3.320138 1_455
Mg0_1 Tb0_7 3.320142 1_445
Mg0_1 Tb1_0 3.320142 1_555
Mg0_2 Tb0_2 3.320133 1_555
Mg0_2 Tb1_5 3.320133 1_454
Mg0_2 Tb0_6 3.320137 1_455
Mg0_2 Tb1_1 3.320137 1_554
Mg0_2 Tb0_0 3.320138 1_555
Mg0_2 Tb1_7 3.320138 1_454
Mg0_2 Tb0_4 3.320142 1_455
Mg0_2 Tb1_3 3.320142 1_554
Mg0_3 Tb0_3 3.320133 1_555
Mg0_3 Tb1_4 3.320133 1_455
Mg0_3 Tb0_7 3.320137 1_455
Mg0_3 Tb1_0 3.320137 1_555
Mg0_3 Tb0_1 3.320138 1_555
Mg0_3 Tb1_6 3.320138 1_455
Mg0_3 Tb0_5 3.320142 1_455
Mg0_3 Tb1_2 3.320142 1_555
Mg0_4 Tb0_4 3.320133 1_555
Mg0_4 Tb1_3 3.320133 1_544
Mg0_4 Tb0_0 3.320137 1_555
Mg0_4 Tb1_7 3.320137 1_544
Mg0_4 Tb0_6 3.320138 1_545
Mg0_4 Tb1_1 3.320138 1_554
Mg0_4 Tb0_2 3.320142 1_545
Mg0_4 Tb1_5 3.320142 1_554
Mg0_5 Tb0_5 3.320133 1_555
Mg0_5 Tb1_2 3.320133 1_545
Mg0_5 Tb0_1 3.320137 1_555
Mg0_5 Tb1_6 3.320137 1_545
Mg0_5 Tb0_7 3.320138 1_545
Mg0_5 Tb1_0 3.320138 1_555
Mg0_5 Tb0_3 3.320142 1_545
Mg0_5 Tb1_4 3.320142 1_555
Mg0_6 Tb0_6 3.320133 1_555
Mg0_6 Tb1_1 3.320133 1_554
Mg0_6 Tb0_2 3.320137 1_555
Mg0_6 Tb1_5 3.320137 1_554
Mg0_6 Tb0_4 3.320138 1_555
Mg0_6 Tb1_3 3.320138 1_554
Mg0_6 Tb0_0 3.320142 1_555
Mg0_6 Tb1_7 3.320142 1_554
Mg0_7 Tb0_7 3.320133 1_555
Mg0_7 Tb1_0 3.320133 1_555
Mg0_7 Tb0_3 3.320137 1_555
Mg0_7 Tb1_4 3.320137 1_555
Mg0_7 Tb0_5 3.320138 1_555
Mg0_7 Tb1_2 3.320138 1_555
Mg0_7 Tb0_1 3.320142 1_555
Mg0_7 Tb1_6 3.320142 1_555
