# generated using pymatgen
data_NiH8C4(NO3)2
_symmetry_space_group_name_H-M   'P 1'
_cell_length_a   7.61622730
_cell_length_b   10.49657500
_cell_length_c   9.10586559
_cell_angle_alpha   90.00000000
_cell_angle_beta   115.79448809
_cell_angle_gamma   90.00000000
_symmetry_Int_Tables_number   1
_chemical_formula_structural   NiH8C4(NO3)2
_chemical_formula_sum   'Ni2 H16 C8 N4 O12'
_cell_volume   655.42838361
_cell_formula_units_Z   2
loop_
 _symmetry_equiv_pos_site_id
 _symmetry_equiv_pos_as_xyz
  1  'x, y, z'
loop_
 _atom_site_type_symbol
 _atom_site_label
 _atom_site_symmetry_multiplicity
 _atom_site_fract_x
 _atom_site_fract_y
 _atom_site_fract_z
 _atom_site_occupancy
  Ni  Ni0  1  0.00000000  0.00000000  0.50000000  1
  Ni  Ni1  1  0.00000000  0.50000000  0.00000000  1
  H  H0  1  0.52935400  0.03411200  0.36978200  1
  H  H1  1  0.47064600  0.53411200  0.13021800  1
  H  H2  1  0.47064600  0.96588800  0.63021800  1
  H  H3  1  0.52935400  0.46588800  0.86978200  1
  H  H4  1  0.38148600  0.08478600  0.16790500  1
  H  H5  1  0.61851400  0.58478600  0.33209500  1
  H  H6  1  0.61851400  0.91521400  0.83209500  1
  H  H7  1  0.38148600  0.41521400  0.66790500  1
  H  H8  1  0.11589200  0.20993200  0.51713300  1
  H  H9  1  0.88410800  0.70993200  0.98286700  1
  H  H10  1  0.88410800  0.79006800  0.48286700  1
  H  H11  1  0.11589200  0.29006800  0.01713300  1
  H  H12  1  0.09791900  0.07350700  0.20023900  1
  H  H13  1  0.90208100  0.57350700  0.29976100  1
  H  H14  1  0.90208100  0.92649300  0.79976100  1
  H  H15  1  0.09791900  0.42649300  0.70023900  1
  C  C0  1  0.23618300  0.04568700  0.30372900  1
  C  C1  1  0.76381700  0.54568700  0.19627000  1
  C  C2  1  0.76381700  0.95431300  0.69627100  1
  C  C3  1  0.23618300  0.45431300  0.80372900  1
  C  C4  1  0.29770800  0.13681600  0.84646200  1
  C  C5  1  0.70229200  0.63681600  0.65353800  1
  C  C6  1  0.70229200  0.86318400  0.15353800  1
  C  C7  1  0.29770800  0.36318400  0.34646200  1
  N  N0  1  0.39376100  0.05204100  0.27664800  1
  N  N1  1  0.60623900  0.55204100  0.22335200  1
  N  N2  1  0.60623900  0.94795900  0.72335200  1
  N  N3  1  0.39376100  0.44795900  0.77664800  1
  O  O0  1  0.27191700  0.03638600  0.88388000  1
  O  O1  1  0.72808300  0.53638600  0.61612000  1
  O  O2  1  0.72808300  0.96361400  0.11612000  1
  O  O3  1  0.27191700  0.46361400  0.38388000  1
  O  O4  1  0.97640900  0.82784800  0.44784000  1
  O  O5  1  0.02359100  0.32784800  0.05216000  1
  O  O6  1  0.02359100  0.17215200  0.55216000  1
  O  O7  1  0.97640900  0.67215200  0.94784000  1
  O  O8  1  0.24108100  0.01165200  0.43800200  1
  O  O9  1  0.75891900  0.51165200  0.06199800  1
  O  O10  1  0.75891900  0.98834800  0.56199800  1
  O  O11  1  0.24108100  0.48834800  0.93800200  1
loop_
_geom_bond_atom_site_label_1
_geom_bond_atom_site_label_2
_geom_bond_distance
_geom_bond_site_symmetry_2
Ni0 O6 1.857115 1_555
Ni0 O4 1.857115 1_445
Ni0 O8 2.146429 1_555
Ni0 O10 2.146429 1_445
Ni1 O7 1.857115 1_454
Ni1 O5 1.857115 1_555
Ni1 O9 2.146429 1_455
Ni1 O11 2.146429 1_554
H0 N0 1.029035 1_555
H1 N1 1.029035 1_555
H2 N2 1.029035 1_555
H3 N3 1.029035 1_555
H4 N0 1.013314 1_555
H5 N1 1.013314 1_555
H6 N2 1.013314 1_555
H7 N3 1.013314 1_555
H8 O6 0.973814 1_555
H9 O7 0.973814 1_555
H10 O4 0.973814 1_555
H11 O5 0.973814 1_555
C0 H12 1.103903 1_555
C0 O8 1.258671 1_555
C0 N0 1.327848 1_555
C1 H13 1.103907 1_555
C1 O9 1.258662 1_555
C1 N1 1.327854 1_555
C2 H14 1.103903 1_555
C2 O10 1.258671 1_555
C2 N2 1.327848 1_555
C3 H15 1.103903 1_555
C3 O11 1.258671 1_555
C3 N3 1.327848 1_555
C4 O0 1.150739 1_555
C5 O1 1.150739 1_555
C6 O2 1.150739 1_555
C7 O3 1.150739 1_555
