# generated using pymatgen
data_Mn2Pb2O5
_symmetry_space_group_name_H-M   'P 1'
_cell_length_a   3.92612600
_cell_length_b   5.84423700
_cell_length_c   21.74559100
_cell_angle_alpha   90.00000000
_cell_angle_beta   90.00000000
_cell_angle_gamma   90.00000000
_symmetry_Int_Tables_number   1
_chemical_formula_structural   Mn2Pb2O5
_chemical_formula_sum   'Mn8 Pb8 O20'
_cell_volume   498.95717025
_cell_formula_units_Z   4
loop_
 _symmetry_equiv_pos_site_id
 _symmetry_equiv_pos_as_xyz
  1  'x, y, z'
loop_
 _atom_site_type_symbol
 _atom_site_label
 _atom_site_symmetry_multiplicity
 _atom_site_fract_x
 _atom_site_fract_y
 _atom_site_fract_z
 _atom_site_occupancy
  Mn  Mn0  1  0.25000000  0.44906700  0.55283800  1
  Mn  Mn1  1  0.25000000  0.94906700  0.94716200  1
  Mn  Mn2  1  0.75000000  0.55093300  0.44716200  1
  Mn  Mn3  1  0.75000000  0.05093300  0.05283800  1
  Mn  Mn4  1  0.25000000  0.96033900  0.68500800  1
  Mn  Mn5  1  0.25000000  0.46033900  0.81499200  1
  Mn  Mn6  1  0.75000000  0.03966100  0.31499200  1
  Mn  Mn7  1  0.75000000  0.53966100  0.18500800  1
  Pb  Pb0  1  0.75000000  0.94422200  0.57234200  1
  Pb  Pb1  1  0.75000000  0.44422200  0.92765800  1
  Pb  Pb2  1  0.25000000  0.05577800  0.42765800  1
  Pb  Pb3  1  0.25000000  0.55577800  0.07234200  1
  Pb  Pb4  1  0.75000000  0.91936800  0.80967200  1
  Pb  Pb5  1  0.75000000  0.41936800  0.69032800  1
  Pb  Pb6  1  0.25000000  0.08063200  0.19032800  1
  Pb  Pb7  1  0.25000000  0.58063200  0.30967200  1
  O  O0  1  0.75000000  0.98253200  0.68106100  1
  O  O1  1  0.75000000  0.48253200  0.81893900  1
  O  O2  1  0.25000000  0.01746800  0.31893900  1
  O  O3  1  0.25000000  0.51746800  0.18106100  1
  O  O4  1  0.25000000  0.73430900  0.75746300  1
  O  O5  1  0.25000000  0.23430900  0.74253700  1
  O  O6  1  0.75000000  0.26569100  0.24253700  1
  O  O7  1  0.75000000  0.76569100  0.25746300  1
  O  O8  1  0.25000000  0.19761300  0.61008800  1
  O  O9  1  0.25000000  0.69761300  0.88991200  1
  O  O10  1  0.75000000  0.80238700  0.38991200  1
  O  O11  1  0.75000000  0.30238700  0.11008800  1
  O  O12  1  0.25000000  0.72615600  0.61528600  1
  O  O13  1  0.25000000  0.22615600  0.88471400  1
  O  O14  1  0.75000000  0.27384400  0.38471400  1
  O  O15  1  0.75000000  0.77384400  0.11528600  1
  O  O16  1  0.75000000  0.42413300  0.53406900  1
  O  O17  1  0.75000000  0.92413300  0.96593100  1
  O  O18  1  0.25000000  0.57586700  0.46593100  1
  O  O19  1  0.25000000  0.07586700  0.03406900  1
loop_
_geom_bond_atom_site_label_1
_geom_bond_atom_site_label_2
_geom_bond_distance
_geom_bond_site_symmetry_2
Mn0 O8 1.925996 1_555
Mn0 O16 2.010331 1_555
Mn0 O16 2.010331 1_455
Mn0 O18 2.029942 1_555
Mn0 O12 2.113398 1_555
Mn1 O9 1.925996 1_555
Mn1 O17 2.010331 1_455
Mn1 O17 2.010331 1_555
Mn1 O19 2.029942 1_566
Mn1 O13 2.113398 1_565
Mn2 O10 1.925996 1_555
Mn2 O18 2.010331 1_655
Mn2 O18 2.010331 1_555
Mn2 O16 2.029942 1_555
Mn2 O14 2.113398 1_555
Mn3 O11 1.925996 1_555
Mn3 O19 2.010331 1_655
Mn3 O19 2.010331 1_555
Mn3 O17 2.029942 1_544
Mn3 O15 2.113398 1_545
Mn4 O0 1.969214 1_555
Mn4 O0 1.969214 1_455
Mn4 O5 2.031914 1_565
Mn4 O12 2.042504 1_555
Mn4 O4 2.056067 1_555
Mn4 O8 2.139421 1_565
Mn5 O1 1.969214 1_555
Mn5 O1 1.969214 1_455
Mn5 O4 2.031914 1_555
Mn5 O13 2.042504 1_555
Mn5 O5 2.056067 1_555
Mn5 O9 2.139421 1_555
Mn6 O2 1.969214 1_655
Mn6 O2 1.969214 1_555
Mn6 O7 2.031914 1_545
Mn6 O14 2.042504 1_555
Mn6 O6 2.056067 1_555
Mn6 O10 2.139421 1_545
Mn7 O3 1.969214 1_655
Mn7 O3 1.969214 1_555
Mn7 O6 2.031914 1_555
Mn7 O15 2.042504 1_555
Mn7 O7 2.056067 1_555
Mn7 O11 2.139421 1_555
O0 Pb0 2.374737 1_555
O0 Pb5 2.560914 1_565
O1 Pb1 2.374737 1_555
O1 Pb4 2.560914 1_555
O2 Pb2 2.374737 1_555
O2 Pb7 2.560914 1_545
O3 Pb3 2.374737 1_555
O3 Pb6 2.560914 1_555
O4 Pb4 2.512422 1_455
O4 Pb4 2.512422 1_555
O5 Pb5 2.512422 1_455
O5 Pb5 2.512422 1_555
O6 Pb6 2.512422 1_555
O6 Pb6 2.512422 1_655
O7 Pb7 2.512422 1_555
O7 Pb7 2.512422 1_655
O8 Pb0 2.592362 1_445
O8 Pb0 2.592362 1_545
O9 Pb1 2.592362 1_455
O9 Pb1 2.592362 1_555
O10 Pb2 2.592362 1_565
O10 Pb2 2.592362 1_665
O11 Pb3 2.592362 1_555
O11 Pb3 2.592362 1_655
O12 Pb0 2.519891 1_555
O12 Pb0 2.519891 1_455
O13 Pb1 2.519891 1_455
O13 Pb1 2.519891 1_555
O14 Pb2 2.519891 1_655
O14 Pb2 2.519891 1_555
O15 Pb3 2.519891 1_655
O15 Pb3 2.519891 1_555
