# generated using pymatgen
data_Er2Mn2O7
_symmetry_space_group_name_H-M   'P 1'
_cell_length_a   6.95167234
_cell_length_b   6.95166923
_cell_length_c   6.95166949
_cell_angle_alpha   59.99996604
_cell_angle_beta   59.99998258
_cell_angle_gamma   60.00001646
_symmetry_Int_Tables_number   1
_chemical_formula_structural   Er2Mn2O7
_chemical_formula_sum   'Er4 Mn4 O14'
_cell_volume   237.54855736
_cell_formula_units_Z   2
loop_
 _symmetry_equiv_pos_site_id
 _symmetry_equiv_pos_as_xyz
  1  'x, y, z'
loop_
 _atom_site_type_symbol
 _atom_site_label
 _atom_site_symmetry_multiplicity
 _atom_site_fract_x
 _atom_site_fract_y
 _atom_site_fract_z
 _atom_site_occupancy
  Er  Er0  1  0.49999916  1.00000094  0.49999970  1
  Er  Er1  1  0.99999945  0.50000126  0.49999993  1
  Er  Er2  1  0.49999882  0.49999856  1.00000125  1
  Er  Er3  1  0.49999909  0.49999992  0.49999959  1
  Mn  Mn0  1  0.99999981  0.50000098  -0.00000117  1
  Mn  Mn1  1  0.50000005  0.00000018  1.00000078  1
  Mn  Mn2  1  0.99999872  0.00000122  0.49999944  1
  Mn  Mn3  1  0.00000015  0.00000018  0.99999995  1
  O  O0  1  0.32933099  0.92066841  0.92066874  1
  O  O1  1  0.07933183  0.67066643  0.67066801  1
  O  O2  1  0.92066746  0.32933039  0.92066829  1
  O  O3  1  0.92066800  0.92066937  0.32932950  1
  O  O4  1  0.32933319  0.32933279  0.92066669  1
  O  O5  1  0.32933412  0.92066738  0.32933193  1
  O  O6  1  0.07933166  0.67067064  0.07933129  1
  O  O7  1  0.67066589  0.07933270  0.67066786  1
  O  O8  1  0.37499971  0.37499898  0.37500024  1
  O  O9  1  0.62499967  0.62499891  0.62500170  1
  O  O10  1  0.92066713  0.32933287  0.32933404  1
  O  O11  1  0.67066988  0.07933313  0.07932989  1
  O  O12  1  0.07933256  0.07933193  0.67067010  1
  O  O13  1  0.67066565  0.67066885  0.07933226  1
loop_
_geom_bond_atom_site_label_1
_geom_bond_atom_site_label_2
_geom_bond_distance
_geom_bond_site_symmetry_2
Er0 O8 2.128494 1_565
Er0 O9 2.128517 1_555
Er0 O5 2.415684 1_555
Er0 O7 2.415687 1_565
Er0 O12 2.415688 1_565
Er0 O0 2.415699 1_555
Er0 O3 2.415700 1_555
Er0 O11 2.415704 1_565
Er1 O9 2.128505 1_555
Er1 O8 2.128508 1_655
Er1 O1 2.415680 1_655
Er1 O10 2.415686 1_555
Er1 O3 2.415695 1_555
Er1 O2 2.415695 1_555
Er1 O6 2.415697 1_655
Er1 O12 2.415700 1_655
Er2 O8 2.128499 1_556
Er2 O9 2.128502 1_555
Er2 O4 2.415680 1_555
Er2 O11 2.415682 1_556
Er2 O6 2.415692 1_556
Er2 O13 2.415696 1_556
Er2 O2 2.415698 1_555
Er2 O0 2.415704 1_555
Er3 O8 2.128504 1_555
Er3 O9 2.128515 1_555
Er3 O4 2.415686 1_555
Er3 O5 2.415688 1_555
Er3 O13 2.415689 1_555
Er3 O7 2.415689 1_555
Er3 O1 2.415690 1_555
Er3 O10 2.415692 1_555
Mn0 O1 1.904889 1_654
Mn0 O4 1.904907 1_654
Mn0 O2 1.904910 1_554
Mn0 O13 1.904911 1_555
Mn0 O6 1.904911 1_655
Mn0 O10 1.904914 1_555
Mn1 O5 1.904891 1_546
Mn1 O13 1.904893 1_546
Mn1 O7 1.904900 1_555
Mn1 O4 1.904901 1_555
Mn1 O11 1.904901 1_556
Mn1 O0 1.904905 1_545
Mn2 O10 1.904893 1_555
Mn2 O3 1.904904 1_545
Mn2 O7 1.904904 1_555
Mn2 O1 1.904913 1_645
Mn2 O5 1.904916 1_645
Mn2 O12 1.904919 1_655
Mn3 O3 1.904884 1_446
Mn3 O6 1.904884 1_546
Mn3 O12 1.904884 1_555
Mn3 O2 1.904887 1_455
Mn3 O11 1.904890 1_456
Mn3 O0 1.904893 1_545
