# generated using pymatgen
data_Ca(FeS2)4
_symmetry_space_group_name_H-M   'P 1'
_cell_length_a   6.82516539
_cell_length_b   6.82516539
_cell_length_c   6.82516556
_cell_angle_alpha   60.32610773
_cell_angle_beta   60.32610773
_cell_angle_gamma   60.32611020
_symmetry_Int_Tables_number   1
_chemical_formula_structural   Ca(FeS2)4
_chemical_formula_sum   'Ca1 Fe4 S8'
_cell_volume   226.47337995
_cell_formula_units_Z   1
loop_
 _symmetry_equiv_pos_site_id
 _symmetry_equiv_pos_as_xyz
  1  'x, y, z'
loop_
 _atom_site_type_symbol
 _atom_site_label
 _atom_site_symmetry_multiplicity
 _atom_site_fract_x
 _atom_site_fract_y
 _atom_site_fract_z
 _atom_site_occupancy
  Ca  Ca0  1  0.00000000  0.00000000  0.00000000  1
  Fe  Fe0  1  0.50000000  0.50000000  0.50000000  1
  Fe  Fe1  1  0.50000000  0.50000000  0.00000000  1
  Fe  Fe2  1  0.50000000  0.00000000  0.50000000  1
  Fe  Fe3  1  0.00000000  0.50000000  0.50000000  1
  S  S0  1  0.72870200  0.29927100  0.72870200  1
  S  S1  1  0.72870200  0.72870200  0.29927100  1
  S  S2  1  0.29927100  0.72870200  0.72870200  1
  S  S3  1  0.73475400  0.73475400  0.73475400  1
  S  S4  1  0.26524600  0.26524600  0.26524600  1
  S  S5  1  0.27129800  0.27129800  0.70072900  1
  S  S6  1  0.70072900  0.27129800  0.27129800  1
  S  S7  1  0.27129800  0.70072900  0.27129800  1
loop_
_geom_bond_atom_site_label_1
_geom_bond_atom_site_label_2
_geom_bond_distance
_geom_bond_site_symmetry_2
Ca0 S5 2.633350 1_554
Ca0 S1 2.633350 1_445
Ca0 S6 2.633350 1_455
Ca0 S7 2.633350 1_545
Ca0 S0 2.633350 1_454
Ca0 S2 2.633350 1_544
Fe0 S1 2.219825 1_555
Fe0 S5 2.219825 1_555
Fe0 S2 2.219825 1_555
Fe0 S0 2.219825 1_555
Fe0 S7 2.219825 1_555
Fe0 S6 2.219825 1_555
Fe1 S3 2.282446 1_554
Fe1 S4 2.282446 1_555
Fe1 S6 2.296660 1_555
Fe1 S0 2.296660 1_554
Fe1 S7 2.296660 1_555
Fe1 S2 2.296660 1_554
Fe2 S4 2.282446 1_555
Fe2 S3 2.282446 1_545
Fe2 S2 2.296660 1_545
Fe2 S6 2.296660 1_555
Fe2 S5 2.296660 1_555
Fe2 S1 2.296660 1_545
Fe3 S4 2.282446 1_555
Fe3 S3 2.282446 1_455
Fe3 S7 2.296660 1_555
Fe3 S0 2.296660 1_455
Fe3 S5 2.296660 1_555
Fe3 S1 2.296660 1_455
