# generated using pymatgen
data_Sr2CuMoO6
_symmetry_space_group_name_H-M   'P 1'
_cell_length_a   5.77100355
_cell_length_b   5.77100355
_cell_length_c   5.77100355
_cell_angle_alpha   123.45483322
_cell_angle_beta   123.45483322
_cell_angle_gamma   84.11345704
_symmetry_Int_Tables_number   1
_chemical_formula_structural   Sr2CuMoO6
_chemical_formula_sum   'Sr2 Cu1 Mo1 O6'
_cell_volume   128.06954853
_cell_formula_units_Z   1
loop_
 _symmetry_equiv_pos_site_id
 _symmetry_equiv_pos_as_xyz
  1  'x, y, z'
loop_
 _atom_site_type_symbol
 _atom_site_label
 _atom_site_symmetry_multiplicity
 _atom_site_fract_x
 _atom_site_fract_y
 _atom_site_fract_z
 _atom_site_occupancy
  Sr  Sr0  1  0.25000000  0.75000000  0.50000000  1
  Sr  Sr1  1  0.75000000  0.25000000  0.50000000  1
  Cu  Cu0  1  0.50000000  0.50000000  0.00000000  1
  Mo  Mo0  1  0.00000000  0.00000000  0.00000000  1
  O  O0  1  0.70883600  0.79629400  0.50512900  1
  O  O1  1  0.29116400  0.20370600  0.49487100  1
  O  O2  1  0.79629400  0.29116400  0.08745800  1
  O  O3  1  0.20370600  0.70883600  0.91254200  1
  O  O4  1  0.22700200  0.22700200  0.00000000  1
  O  O5  1  0.77299800  0.77299800  0.00000000  1
loop_
_geom_bond_atom_site_label_1
_geom_bond_atom_site_label_2
_geom_bond_distance
_geom_bond_site_symmetry_2
Cu0 O1 1.981780 1_554
Cu0 O0 1.981780 1_555
Cu0 O2 1.981784 1_555
Cu0 O3 1.981784 1_554
Cu0 O4 2.339520 1_555
Cu0 O5 2.339520 1_555
Mo0 O3 1.942714 1_544
Mo0 O2 1.942714 1_455
Mo0 O1 1.942718 1_555
Mo0 O0 1.942718 1_444
Mo0 O4 1.945346 1_555
Mo0 O5 1.945346 1_445
O0 Sr1 2.670917 1_565
O0 Sr0 2.670924 1_555
O1 Sr0 2.670917 1_545
O1 Sr1 2.670924 1_555
O2 Sr1 2.670920 1_555
O2 Sr0 2.670920 1_655
O3 Sr0 2.670920 1_555
O3 Sr1 2.670920 1_455
O4 Sr1 2.740629 1_555
O4 Sr0 2.740629 1_544
O4 Sr1 2.740629 1_454
O4 Sr0 2.740629 1_555
O5 Sr1 2.740629 1_565
O5 Sr0 2.740629 1_655
O5 Sr0 2.740629 1_554
O5 Sr1 2.740629 1_554
