# generated using pymatgen
data_YMgAlGe2
_symmetry_space_group_name_H-M   'P 1'
_cell_length_a   4.31000192
_cell_length_b   4.31272130
_cell_length_c   6.88346400
_cell_angle_alpha   89.99999996
_cell_angle_beta   90.00286043
_cell_angle_gamma   120.02086811
_symmetry_Int_Tables_number   1
_chemical_formula_structural   YMgAlGe2
_chemical_formula_sum   'Y1 Mg1 Al1 Ge2'
_cell_volume   110.78352299
_cell_formula_units_Z   1
loop_
 _symmetry_equiv_pos_site_id
 _symmetry_equiv_pos_as_xyz
  1  'x, y, z'
loop_
 _atom_site_type_symbol
 _atom_site_label
 _atom_site_symmetry_multiplicity
 _atom_site_fract_x
 _atom_site_fract_y
 _atom_site_fract_z
 _atom_site_occupancy
  Y  Y0  1  0.00002600  0.00001300  0.00587400  1
  Mg  Mg0  1  0.66653400  0.33326700  0.36082700  1
  Al  Al0  1  0.33340200  0.66670100  0.62965100  1
  Ge  Ge0  1  0.33336900  0.66668500  0.24437300  1
  Ge  Ge1  1  0.66666900  0.33333500  0.75927300  1
loop_
_geom_bond_atom_site_label_1
_geom_bond_atom_site_label_2
_geom_bond_distance
_geom_bond_site_symmetry_2
Al0 Ge1 2.643299 1_455
Al0 Ge1 2.644353 1_555
Al0 Ge1 2.644357 1_565
Al0 Ge0 2.652047 1_555
Ge0 Mg0 2.614453 1_455
Ge0 Mg0 2.614983 1_565
Ge0 Mg0 2.614987 1_555
Ge0 Y0 2.980755 1_665
Ge0 Y0 2.981991 1_565
Ge0 Y0 2.981994 1_555
Ge1 Mg0 2.742689 1_555
Ge1 Y0 3.011791 1_556
Ge1 Y0 3.013075 1_666
Ge1 Y0 3.013078 1_656
