# generated using pymatgen
data_TiH42N14Cl3
_symmetry_space_group_name_H-M   'P 1'
_cell_length_a   9.98828600
_cell_length_b   9.48130900
_cell_length_c   13.39079229
_cell_angle_alpha   88.00687974
_cell_angle_beta   90.00000000
_cell_angle_gamma   90.00000000
_symmetry_Int_Tables_number   1
_chemical_formula_structural   TiH42N14Cl3
_chemical_formula_sum   'Ti2 H84 N28 Cl6'
_cell_volume   1267.36795031
_cell_formula_units_Z   2
loop_
 _symmetry_equiv_pos_site_id
 _symmetry_equiv_pos_as_xyz
  1  'x, y, z'
loop_
 _atom_site_type_symbol
 _atom_site_label
 _atom_site_symmetry_multiplicity
 _atom_site_fract_x
 _atom_site_fract_y
 _atom_site_fract_z
 _atom_site_occupancy
  Ti  Ti0  1  0.27213100  0.00000000  0.25000000  1
  Ti  Ti1  1  0.72786900  0.00000000  0.75000000  1
  H  H0  1  0.53820100  0.06480200  0.17135200  1
  H  H1  1  0.53820100  0.93519800  0.32864800  1
  H  H2  1  0.46179900  0.93519800  0.82864800  1
  H  H3  1  0.46179900  0.06480200  0.67135200  1
  H  H4  1  0.42133300  0.12348700  0.09510900  1
  H  H5  1  0.42133300  0.87651300  0.40489100  1
  H  H6  1  0.57866700  0.87651300  0.90489100  1
  H  H7  1  0.57866700  0.12348700  0.59510900  1
  H  H8  1  0.46041400  0.21472000  0.19408400  1
  H  H9  1  0.46041400  0.78528000  0.30591600  1
  H  H10  1  0.53958600  0.78528000  0.80591600  1
  H  H11  1  0.53958600  0.21472000  0.69408400  1
  H  H12  1  0.45591800  0.84650400  0.13020800  1
  H  H13  1  0.45591800  0.15349600  0.36979200  1
  H  H14  1  0.54408200  0.15349600  0.86979200  1
  H  H15  1  0.54408200  0.84650400  0.63020800  1
  H  H16  1  0.31672700  0.75350200  0.13651600  1
  H  H17  1  0.31672700  0.24649800  0.36348400  1
  H  H18  1  0.68327300  0.24649800  0.86348400  1
  H  H19  1  0.68327300  0.75350200  0.63651600  1
  H  H20  1  0.32798400  0.89862600  0.06248800  1
  H  H21  1  0.32798400  0.10137400  0.43751200  1
  H  H22  1  0.67201600  0.10137400  0.93751200  1
  H  H23  1  0.67201600  0.89862600  0.56248800  1
  H  H24  1  0.23816000  0.29723500  0.20313800  1
  H  H25  1  0.23816000  0.70276500  0.29686200  1
  H  H26  1  0.76184000  0.70276500  0.79686200  1
  H  H27  1  0.76184000  0.29723500  0.70313800  1
  H  H28  1  0.08989300  0.22089700  0.18682200  1
  H  H29  1  0.08989300  0.77910300  0.31317800  1
  H  H30  1  0.91010700  0.77910300  0.81317800  1
  H  H31  1  0.91010700  0.22089700  0.68682200  1
  H  H32  1  0.21004500  0.20284100  0.10383000  1
  H  H33  1  0.21004500  0.79715900  0.39617000  1
  H  H34  1  0.78995500  0.79715900  0.89617000  1
  H  H35  1  0.78995500  0.20284100  0.60383000  1
  H  H36  1  0.12369500  0.98699300  0.07593600  1
  H  H37  1  0.12369500  0.01300700  0.42406400  1
  H  H38  1  0.87630500  0.01300700  0.92406400  1
  H  H39  1  0.87630500  0.98699300  0.57593600  1
  H  H40  1  0.08454100  0.83779400  0.13666300  1
  H  H41  1  0.08454100  0.16220600  0.36333700  1
  H  H42  1  0.91545900  0.16220600  0.86333700  1
  H  H43  1  0.91545900  0.83779400  0.63666300  1
  H  H44  1  0.00834500  0.98755800  0.16289500  1
  H  H45  1  0.00834500  0.01244200  0.33710500  1
  H  H46  1  0.99165500  0.01244200  0.83710500  1
  H  H47  1  0.99165500  0.98755800  0.66289500  1
  H  H48  1  0.11800000  0.44762000  0.35193300  1
  H  H49  1  0.11800000  0.55238000  0.14806700  1
  H  H50  1  0.88200000  0.55238000  0.64806700  1
  H  H51  1  0.88200000  0.44762000  0.85193300  1
  H  H52  1  0.09566800  0.39885900  0.46843400  1
  H  H53  1  0.09566800  0.60114100  0.03156600  1
  H  H54  1  0.90433200  0.60114100  0.53156600  1
  H  H55  1  0.90433200  0.39885900  0.96843400  1
  H  H56  1  0.96822200  0.39840400  0.39136700  1
  H  H57  1  0.96822200  0.60159600  0.10863300  1
  H  H58  1  0.03177800  0.60159600  0.60863300  1
  H  H59  1  0.03177800  0.39840400  0.89136700  1
  H  H60  1  0.61699400  0.50283600  0.39431500  1
  H  H61  1  0.61699400  0.49716400  0.10568500  1
  H  H62  1  0.38300600  0.49716400  0.60568500  1
  H  H63  1  0.38300600  0.50283600  0.89431500  1
  H  H64  1  0.70364300  0.36834100  0.43733500  1
  H  H65  1  0.70364300  0.63165900  0.06266500  1
  H  H66  1  0.29635700  0.63165900  0.56266500  1
  H  H67  1  0.29635700  0.36834100  0.93733500  1
  H  H68  1  0.66057700  0.49299900  0.51224600  1
  H  H69  1  0.66057700  0.50700100  0.98775400  1
  H  H70  1  0.33942300  0.50700100  0.48775400  1
  H  H71  1  0.33942300  0.49299900  0.01224600  1
  H  H72  1  0.81681600  0.15502600  0.13907600  1
  H  H73  1  0.81681600  0.84497400  0.36092400  1
  H  H74  1  0.18318400  0.84497400  0.86092400  1
  H  H75  1  0.18318400  0.15502600  0.63907600  1
  H  H76  1  0.82897300  0.32673500  0.14607300  1
  H  H77  1  0.82897300  0.67326500  0.35392700  1
  H  H78  1  0.17102700  0.67326500  0.85392700  1
  H  H79  1  0.17102700  0.32673500  0.64607300  1
  H  H80  1  0.82319800  0.22609500  0.24822500  1
  H  H81  1  0.82319800  0.77390500  0.25177500  1
  H  H82  1  0.17680200  0.77390500  0.75177500  1
  H  H83  1  0.17680200  0.22609500  0.74822500  1
  N  N0  1  0.44703400  0.11454800  0.16959700  1
  N  N1  1  0.44703400  0.88545200  0.33040300  1
  N  N2  1  0.55296600  0.88545200  0.83040300  1
  N  N3  1  0.55296600  0.11454800  0.66959700  1
  N  N4  1  0.35361300  0.85436000  0.13120900  1
  N  N5  1  0.35361300  0.14564000  0.36879100  1
  N  N6  1  0.64638700  0.14564000  0.86879100  1
  N  N7  1  0.64638700  0.85436000  0.63120900  1
  N  N8  1  0.19194000  0.20729000  0.17928600  1
  N  N9  1  0.19194000  0.79271000  0.32071400  1
  N  N10  1  0.80806000  0.79271000  0.82071400  1
  N  N11  1  0.80806000  0.20729000  0.67928600  1
  N  N12  1  0.09897000  0.94525100  0.14535200  1
  N  N13  1  0.09897000  0.05474900  0.35464800  1
  N  N14  1  0.90103000  0.05474900  0.85464800  1
  N  N15  1  0.90103000  0.94525100  0.64535200  1
  N  N16  1  0.06835000  0.37581700  0.39714700  1
  N  N17  1  0.06835000  0.62418300  0.10285300  1
  N  N18  1  0.93165000  0.62418300  0.60285300  1
  N  N19  1  0.93165000  0.37581700  0.89714700  1
  N  N20  1  0.69453700  0.47580700  0.44117500  1
  N  N21  1  0.69453700  0.52419300  0.05882500  1
  N  N22  1  0.30546300  0.52419300  0.55882500  1
  N  N23  1  0.30546300  0.47580700  0.94117500  1
  N  N24  1  0.86301200  0.23303200  0.17764800  1
  N  N25  1  0.86301200  0.76696800  0.32235200  1
  N  N26  1  0.13698800  0.76696800  0.82235200  1
  N  N27  1  0.13698800  0.23303200  0.67764800  1
  Cl  Cl0  1  0.29086700  0.91207500  0.56132300  1
  Cl  Cl1  1  0.29086700  0.08792500  0.93867700  1
  Cl  Cl2  1  0.70913300  0.08792500  0.43867700  1
  Cl  Cl3  1  0.70913300  0.91207500  0.06132300  1
  Cl  Cl4  1  0.36765900  0.50000000  0.25000000  1
  Cl  Cl5  1  0.63234100  0.50000000  0.75000000  1
loop_
_geom_bond_atom_site_label_1
_geom_bond_atom_site_label_2
_geom_bond_distance
_geom_bond_site_symmetry_2
H0 N0 1.025396 1_555
H1 N1 1.025396 1_555
H2 N2 1.025396 1_555
H3 N3 1.025396 1_555
H4 N0 1.030590 1_555
H5 N1 1.030590 1_555
H6 N2 1.030590 1_555
H7 N3 1.030590 1_555
H8 N0 1.024250 1_555
H9 N1 1.024250 1_555
H10 N2 1.024250 1_555
H11 N3 1.024250 1_555
H12 N4 1.024684 1_555
H13 N5 1.024684 1_555
H14 N6 1.024684 1_555
H15 N7 1.024684 1_555
H16 N4 1.024942 1_555
H17 N5 1.024942 1_555
H18 N6 1.024942 1_555
H19 N7 1.024942 1_555
H20 N4 1.030356 1_555
H21 N5 1.030356 1_555
H22 N6 1.030356 1_555
H23 N7 1.030356 1_555
H24 N8 1.030219 1_555
H25 N9 1.030219 1_555
H26 N10 1.030219 1_555
H27 N11 1.030219 1_555
H28 N8 1.032789 1_555
H29 N9 1.032789 1_555
H30 N10 1.032789 1_555
H31 N11 1.032789 1_555
H32 N8 1.028779 1_555
H33 N9 1.028779 1_555
H34 N10 1.028779 1_555
H35 N11 1.028779 1_555
H36 N12 1.027652 1_555
H37 N13 1.027652 1_555
H38 N14 1.027652 1_555
H39 N15 1.027652 1_555
H40 N12 1.039507 1_555
H41 N13 1.039507 1_555
H42 N14 1.039507 1_555
H43 N15 1.039507 1_555
H44 N12 1.020788 1_555
H45 N13 1.020788 1_555
H46 N14 1.020788 1_555
H47 N15 1.020788 1_555
H48 N16 1.023379 1_555
H49 N17 1.023379 1_555
H50 N18 1.023379 1_555
H51 N19 1.023379 1_555
H52 N16 1.023684 1_555
H53 N17 1.023684 1_555
H54 N18 1.023684 1_555
H55 N19 1.023684 1_555
H56 N16 1.025141 1_655
H57 N17 1.025141 1_655
H58 N18 1.025141 1_455
H59 N19 1.025141 1_455
H60 N20 1.023777 1_555
H61 N21 1.023777 1_555
H62 N22 1.023777 1_555
H63 N23 1.023777 1_555
H64 N20 1.026039 1_555
H65 N21 1.026039 1_555
H66 N22 1.026039 1_555
H67 N23 1.026039 1_555
H68 N20 1.028662 1_555
H69 N21 1.028662 1_556
H70 N22 1.028662 1_555
H71 N23 1.028662 1_554
H72 N24 1.026289 1_555
H73 N25 1.026289 1_555
H74 N26 1.026289 1_555
H75 N27 1.026289 1_555
H76 N24 1.028367 1_555
H77 N25 1.028367 1_555
H78 N26 1.028367 1_555
H79 N27 1.028367 1_555
H80 N24 1.025342 1_555
H81 N25 1.025342 1_555
H82 N26 1.025342 1_555
H83 N27 1.025342 1_555
N0 Ti0 2.304201 1_555
N1 Ti0 2.304201 1_565
N2 Ti1 2.304201 1_565
N3 Ti1 2.304201 1_555
N4 Ti0 2.291785 1_565
N5 Ti0 2.291785 1_555
N6 Ti1 2.291785 1_555
N7 Ti1 2.291785 1_565
N8 Ti0 2.295969 1_555
N9 Ti0 2.295969 1_565
N10 Ti1 2.295969 1_565
N11 Ti1 2.295969 1_555
N12 Ti0 2.296781 1_565
N13 Ti0 2.296781 1_555
N14 Ti1 2.296781 1_555
N15 Ti1 2.296781 1_565
