# generated using pymatgen
data_MgV12(BO5)4
_symmetry_space_group_name_H-M   'P 1'
_cell_length_a   3.13638616
_cell_length_b   9.72192075
_cell_length_c   13.12757420
_cell_angle_alpha   92.33559091
_cell_angle_beta   90.00022595
_cell_angle_gamma   90.00010357
_symmetry_Int_Tables_number   1
_chemical_formula_structural   MgV12(BO5)4
_chemical_formula_sum   'Mg1 V12 B4 O20'
_cell_volume   399.94949900
_cell_formula_units_Z   1
loop_
 _symmetry_equiv_pos_site_id
 _symmetry_equiv_pos_as_xyz
  1  'x, y, z'
loop_
 _atom_site_type_symbol
 _atom_site_label
 _atom_site_symmetry_multiplicity
 _atom_site_fract_x
 _atom_site_fract_y
 _atom_site_fract_z
 _atom_site_occupancy
  Mg  Mg0  1  0.50001626  0.42660388  0.08975345  1
  V  V0  1  0.50000098  0.98424134  0.23386714  1
  V  V1  1  0.50000064  0.01108748  0.77617328  1
  V  V2  1  0.50000213  0.49564865  0.70865731  1
  V  V3  1  0.49999410  0.50148208  0.29577345  1
  V  V4  1  0.49999942  0.99831700  0.50419712  1
  V  V5  1  0.49999323  0.54729175  0.91969675  1
  V  V6  1  0.99999690  0.23768589  0.39808059  1
  V  V7  1  0.00000053  0.75986938  0.61055245  1
  V  V8  1  0.00000260  0.25718229  0.88996186  1
  V  V9  1  0.99999848  0.73959123  0.11840552  1
  V  V10  1  0.00000049  0.99452066  0.00448373  1
  V  V11  1  0.99999889  0.49888930  0.50300671  1
  B  B0  1  0.00000257  0.24149713  0.16113729  1
  B  B1  1  0.99999902  0.74914468  0.84789531  1
  B  B2  1  0.00000032  0.22702128  0.64088519  1
  B  B3  1  0.99999883  0.76932340  0.36677409  1
  O  O0  1  0.00001437  0.30699551  0.06639311  1
  O  O1  1  0.99999489  0.68491264  0.94368466  1
  O  O2  1  0.00000057  0.15179788  0.54846649  1
  O  O3  1  0.99999855  0.84426005  0.45935740  1
  O  O4  1  0.00000015  0.10268281  0.16123762  1
  O  O5  1  0.00000058  0.88911866  0.84858547  1
  O  O6  1  0.00000033  0.37183165  0.63895761  1
  O  O7  1  0.99999729  0.62453635  0.36719940  1
  O  O8  1  0.49999670  0.10843637  0.36924784  1
  O  O9  1  0.50000160  0.88917497  0.63971896  1
  O  O10  1  0.50000174  0.37797943  0.84211169  1
  O  O11  1  0.49999767  0.60513021  0.15509991  1
  O  O12  1  0.99998975  0.33332935  0.24623103  1
  O  O13  1  0.00000219  0.66194740  0.76032873  1
  O  O14  1  -0.00000028  0.16152596  0.73346970  1
  O  O15  1  0.00000063  0.83468607  0.27439497  1
  O  O16  1  0.49999730  0.38595596  0.42855561  1
  O  O17  1  0.50000021  0.61256191  0.57771459  1
  O  O18  1  0.50000171  0.11573224  0.92605310  1
  O  O19  1  0.49999966  0.87995316  0.08451588  1
loop_
_geom_bond_atom_site_label_1
_geom_bond_atom_site_label_2
_geom_bond_distance
_geom_bond_site_symmetry_2
Mg0 O11 1.904445 1_555
Mg0 O0 1.968847 1_655
Mg0 O0 1.968851 1_555
B0 O4 1.349596 1_555
B0 O12 1.401298 1_455
B0 O0 1.420200 1_555
B1 O5 1.360477 1_655
B1 O13 1.400231 1_655
B1 O1 1.426608 1_555
B2 O2 1.390842 1_555
B2 O14 1.394897 1_555
B2 O6 1.409093 1_555
B3 O3 1.391319 1_555
B3 O15 1.391863 1_655
B3 O7 1.407847 1_555
O0 V8 2.346805 1_554
O1 V5 2.077049 1_655
O1 V5 2.077051 1_555
O1 V9 2.333256 1_556
O2 V6 2.174638 1_455
O2 V4 2.225473 1_445
O2 V4 2.225475 1_545
O3 V7 2.178388 1_655
O3 V4 2.230931 1_655
O3 V4 2.230934 1_555
O4 V0 2.187162 1_445
O4 V0 2.187163 1_545
O4 V10 2.272424 1_545
O5 V1 2.204718 1_465
O5 V1 2.204721 1_565
O5 V10 2.251119 1_556
O6 V2 2.157695 1_555
O6 V2 2.157696 1_455
O6 V11 2.211489 1_455
O7 V3 2.162907 1_655
O7 V3 2.162913 1_555
O7 V11 2.201837 1_555
O8 V6 2.035349 1_555
O8 V6 2.035354 1_455
O8 V4 2.106921 1_545
O8 V0 2.107478 1_545
O9 V7 2.036393 1_555
O9 V7 2.036394 1_655
O9 V1 2.107254 1_565
O9 V4 2.108276 1_555
O10 V5 1.900041 1_555
O10 V8 2.071979 1_555
O10 V8 2.071983 1_655
O10 V2 2.131029 1_555
O11 V9 2.109837 1_455
O11 V9 2.109840 1_555
O11 V3 2.139475 1_555
O12 V6 2.233692 1_555
O12 V3 2.338375 1_555
O12 V3 2.338385 1_655
O13 V7 2.219186 1_555
O13 V2 2.333197 1_455
O13 V2 2.333204 1_555
O14 V8 2.220253 1_555
O14 V1 2.231449 1_455
O14 V1 2.231454 1_555
O15 V9 2.212180 1_455
O15 V0 2.217960 1_455
O15 V0 2.217961 1_555
O16 V3 2.111735 1_555
O16 V11 2.128955 1_555
O16 V11 2.128957 1_455
O16 V6 2.156410 1_455
O16 V6 2.156414 1_555
O17 V2 2.099042 1_555
O17 V11 2.134012 1_455
O17 V11 2.134014 1_555
O17 V7 2.155383 1_655
O17 V7 2.155388 1_555
O18 V8 2.151252 1_555
O18 V8 2.151255 1_655
O18 V1 2.177874 1_555
O18 V10 2.237596 1_646
O18 V10 2.237604 1_546
O19 V9 2.137458 1_555
O19 V9 2.137462 1_455
O19 V0 2.170246 1_555
O19 V10 2.213368 1_555
O19 V10 2.213375 1_655
