# generated using pymatgen
data_Ba6Mg(IrO3)6
_symmetry_space_group_name_H-M   'P 1'
_cell_length_a   5.96820337
_cell_length_b   5.77739257
_cell_length_c   15.10676577
_cell_angle_alpha   90.35839309
_cell_angle_beta   89.63580075
_cell_angle_gamma   118.52940728
_symmetry_Int_Tables_number   1
_chemical_formula_structural   Ba6Mg(IrO3)6
_chemical_formula_sum   'Ba6 Mg1 Ir6 O18'
_cell_volume   457.62811962
_cell_formula_units_Z   1
loop_
 _symmetry_equiv_pos_site_id
 _symmetry_equiv_pos_as_xyz
  1  'x, y, z'
loop_
 _atom_site_type_symbol
 _atom_site_label
 _atom_site_symmetry_multiplicity
 _atom_site_fract_x
 _atom_site_fract_y
 _atom_site_fract_z
 _atom_site_occupancy
  Ba  Ba0  1  0.99315642  0.99793770  0.75033322  1
  Ba  Ba1  1  0.11454571  0.06002035  0.27937382  1
  Ba  Ba2  1  0.30635285  0.64937270  0.89666322  1
  Ba  Ba3  1  0.35592510  0.68049724  0.59440073  1
  Ba  Ba4  1  0.58672749  0.28729407  0.05041107  1
  Ba  Ba5  1  0.71361109  0.35994336  0.41927547  1
  Mg  Mg0  1  0.56325856  0.77755809  0.18872241  1
  Ir  Ir0  1  0.96589473  0.97960800  0.98982814  1
  Ir  Ir1  1  0.02921519  0.01801825  0.50870785  1
  Ir  Ir2  1  0.10100209  0.55351452  0.14127410  1
  Ir  Ir3  1  0.37659889  0.69030054  0.35918458  1
  Ir  Ir4  1  0.64643453  0.32370223  0.83508665  1
  Ir  Ir5  1  0.68889181  0.35079211  0.65190041  1
  O  O0  1  0.14838692  0.32339944  0.42243093  1
  O  O1  1  0.66972833  0.82989935  0.06856062  1
  O  O2  1  0.91770480  0.71555403  0.59643412  1
  O  O3  1  0.28937627  0.15523608  0.89984034  1
  O  O4  1  0.15531166  0.85292286  0.06940869  1
  O  O5  1  0.15528179  0.83636199  0.42250017  1
  O  O6  1  0.76057620  0.08661554  0.90506551  1
  O  O7  1  0.91065794  0.20144014  0.59696607  1
  O  O8  1  0.66391511  0.82828755  0.45573606  1
  O  O9  1  0.14374257  0.32041893  0.05837651  1
  O  O10  1  0.39554788  0.20443308  0.55959712  1
  O  O11  1  0.84179233  0.62808590  0.92394046  1
  O  O12  1  0.52413481  0.49412327  0.74147183  1
  O  O13  1  0.55426344  0.54124568  0.28236694  1
  O  O14  1  0.51047507  0.04410599  0.73761139  1
  O  O15  1  0.95221568  0.47457470  0.75360932  1
  O  O16  1  0.56033750  0.01189357  0.28237443  1
  O  O17  1  0.08201922  0.54576274  0.26836881  1
loop_
_geom_bond_atom_site_label_1
_geom_bond_atom_site_label_2
_geom_bond_distance
_geom_bond_site_symmetry_2
Ba0 O2 2.744763 1_555
Ba0 O3 2.746431 1_665
Ba0 O7 2.755759 1_565
Ba0 O6 2.876850 1_565
Ba0 O15 2.878538 1_565
Ba0 O15 2.915604 1_555
Ba0 O12 2.922821 1_555
Ba0 O14 2.974384 1_665
Ba0 O14 3.024633 1_565
Ba0 O12 3.098377 1_665
Ba0 O11 3.233618 1_555
Ba1 O0 2.587957 1_555
Ba1 O5 2.597213 1_545
Ba1 O13 2.765725 1_555
Ba1 O16 2.804703 1_555
Ba1 O17 2.887191 1_545
Ba1 O17 2.909881 1_555
Ba1 O16 3.184262 1_455
Ba2 O6 2.684276 1_565
Ba2 O11 2.744557 1_455
Ba2 O3 2.808546 1_555
Ba2 O15 2.854677 1_455
Ba2 O9 2.964445 1_556
Ba2 O3 2.972378 1_565
Ba2 O12 3.006468 1_555
Ba2 O14 3.136190 1_565
Ba2 O4 3.154365 1_556
Ba2 O1 3.226700 1_556
Ba2 O11 3.284759 1_555
Ba2 O6 3.328765 1_455
Ba3 O8 2.640101 1_555
Ba3 O2 2.717924 1_455
Ba3 O7 2.774539 1_455
Ba3 O14 2.839351 1_565
Ba3 O12 2.862575 1_555
Ba3 O10 2.915256 1_555
Ba3 O10 2.971457 1_565
Ba3 O0 3.173730 1_555
Ba3 O5 3.176060 1_555
Ba3 O15 3.198332 1_455
Ba3 O7 3.240816 1_565
Ba3 O2 3.261274 1_555
Ba4 O4 2.614780 1_545
Ba4 O11 2.644089 1_554
Ba4 O9 2.742241 1_555
Ba4 O3 2.764367 1_554
Ba4 O6 2.886195 1_554
Ba4 O1 2.926573 1_545
Ba4 O1 2.942011 1_555
Ba4 Ir2 3.031196 1_655
Ba4 O9 3.240322 1_655
Ba5 O10 2.692165 1_555
Ba5 O13 2.698682 1_555
Ba5 O0 2.702777 1_655
Ba5 O16 2.715204 1_555
Ba5 O5 2.756124 1_655
Ba5 O8 2.908371 1_555
Ba5 O17 2.982645 1_655
Ba5 O8 2.995805 1_545
Ba5 O2 3.232556 1_555
Ba5 O7 3.244502 1_555
Ba5 O5 3.260017 1_545
Ba5 O0 3.277842 1_555
Mg0 O1 1.897111 1_555
Mg0 O13 1.954817 1_555
Mg0 O16 1.957825 1_565
Ir0 O1 1.952658 1_556
Ir0 O9 2.016939 1_666
Ir0 O4 2.019310 1_656
Ir0 O11 2.052078 1_555
Ir0 O6 2.068068 1_565
Ir0 O3 2.171983 1_665
Ir1 O7 2.021849 1_455
Ir1 O5 2.021953 1_545
Ir1 O0 2.033650 1_555
Ir1 O2 2.039535 1_445
Ir1 O10 2.071911 1_555
Ir1 O8 2.079312 1_445
Ir2 O17 1.922152 1_555
Ir2 O9 1.936464 1_555
Ir2 O4 1.938906 1_555
Ir3 O13 2.014113 1_555
Ir3 O16 2.016328 1_565
Ir3 O17 2.069886 1_555
Ir3 O5 2.100048 1_555
Ir3 O8 2.101154 1_555
Ir3 O0 2.124194 1_555
Ir4 O15 2.017585 1_555
Ir4 O14 2.041933 1_555
Ir4 O12 2.054073 1_555
Ir4 O11 2.070137 1_555
Ir4 O6 2.091988 1_555
Ir4 O3 2.109398 1_555
Ir5 O14 2.039312 1_555
Ir5 O12 2.056802 1_555
Ir5 O7 2.062277 1_555
Ir5 O2 2.065569 1_555
Ir5 O15 2.070134 1_555
Ir5 O10 2.080057 1_555
