# generated using pymatgen
data_PrYAl6
_symmetry_space_group_name_H-M   'P 1'
_cell_length_a   6.43103779
_cell_length_b   6.43103779
_cell_length_c   4.59234512
_cell_angle_alpha   90.00000000
_cell_angle_beta   90.00000000
_cell_angle_gamma   120.00000440
_symmetry_Int_Tables_number   1
_chemical_formula_structural   PrYAl6
_chemical_formula_sum   'Pr1 Y1 Al6'
_cell_volume   164.48536149
_cell_formula_units_Z   1
loop_
 _symmetry_equiv_pos_site_id
 _symmetry_equiv_pos_as_xyz
  1  'x, y, z'
loop_
 _atom_site_type_symbol
 _atom_site_label
 _atom_site_symmetry_multiplicity
 _atom_site_fract_x
 _atom_site_fract_y
 _atom_site_fract_z
 _atom_site_occupancy
  Pr  Pr0  1  0.66666700  0.33333300  0.00000000  1
  Y  Y0  1  0.33333300  0.66666700  0.50000000  1
  Al  Al0  1  0.27962642  0.13981321  0.50000000  1
  Al  Al1  1  0.86018679  0.13981321  0.50000000  1
  Al  Al2  1  0.86018679  0.72037358  0.50000000  1
  Al  Al3  1  0.71474771  0.85737386  -0.00000000  1
  Al  Al4  1  0.14262614  0.85737386  -0.00000000  1
  Al  Al5  1  0.14262614  0.28525229  0.00000000  1
loop_
_geom_bond_atom_site_label_1
_geom_bond_atom_site_label_2
_geom_bond_distance
_geom_bond_site_symmetry_2
Al0 Al2 2.697432 1_445
Al0 Al1 2.697432 1_455
Al0 Al4 2.783445 1_546
Al0 Al4 2.783445 1_545
Al0 Al5 2.783445 1_555
Al0 Al5 2.783445 1_556
Al0 Pr0 3.149448 1_555
Al0 Pr0 3.149448 1_556
Al0 Y0 3.229398 1_545
Al0 Y0 3.229404 1_555
Al1 Al2 2.697432 1_545
Al1 Al3 2.783445 1_546
Al1 Al3 2.783445 1_545
Al1 Al5 2.783445 1_656
Al1 Al5 2.783445 1_655
Al1 Pr0 3.149444 1_555
Al1 Pr0 3.149444 1_556
Al1 Y0 3.229401 1_545
Al1 Y0 3.229401 1_655
Al2 Al4 2.783445 1_656
Al2 Al4 2.783445 1_655
Al2 Al3 2.783445 1_556
Al2 Al3 2.783445 1_555
Al2 Pr0 3.149448 1_555
Al2 Pr0 3.149448 1_556
Al2 Y0 3.229398 1_655
Al2 Y0 3.229404 1_555
Al3 Al5 2.751702 1_665
Al3 Al4 2.751702 1_655
Al3 Y0 3.128086 1_555
Al3 Y0 3.128086 1_554
Al3 Pr0 3.226647 1_565
Al3 Pr0 3.226653 1_555
Al4 Al5 2.751702 1_565
Al4 Y0 3.128082 1_555
Al4 Y0 3.128082 1_554
Al4 Pr0 3.226650 1_455
Al4 Pr0 3.226650 1_565
Al5 Y0 3.128086 1_555
Al5 Y0 3.128086 1_554
Al5 Pr0 3.226647 1_455
Al5 Pr0 3.226653 1_555
