# generated using pymatgen
data_Mg2Bi
_symmetry_space_group_name_H-M   'P 1'
_cell_length_a   17.29065433
_cell_length_b   17.29065433
_cell_length_c   11.25720400
_cell_angle_alpha   90.00000000
_cell_angle_beta   90.00000000
_cell_angle_gamma   158.16572651
_symmetry_Int_Tables_number   1
_chemical_formula_structural   Mg2Bi
_chemical_formula_sum   'Mg32 Bi16'
_cell_volume   1251.71839562
_cell_formula_units_Z   16
loop_
 _symmetry_equiv_pos_site_id
 _symmetry_equiv_pos_as_xyz
  1  'x, y, z'
loop_
 _atom_site_type_symbol
 _atom_site_label
 _atom_site_symmetry_multiplicity
 _atom_site_fract_x
 _atom_site_fract_y
 _atom_site_fract_z
 _atom_site_occupancy
  Mg  Mg0_0  1  0.05756150  0.44243850  0.12500000  1
  Mg  Mg0_1  1  0.05756150  0.44243850  0.62500000  1
  Mg  Mg0_2  1  0.05756150  0.94243850  0.12500000  1
  Mg  Mg0_3  1  0.05756150  0.94243850  0.62500000  1
  Mg  Mg0_4  1  0.55756150  0.44243850  0.12500000  1
  Mg  Mg0_5  1  0.55756150  0.44243850  0.62500000  1
  Mg  Mg0_6  1  0.55756150  0.94243850  0.12500000  1
  Mg  Mg0_7  1  0.55756150  0.94243850  0.62500000  1
  Mg  Mg1_0  1  0.38663100  0.11336900  0.12500000  1
  Mg  Mg1_1  1  0.38663100  0.11336900  0.62500000  1
  Mg  Mg1_2  1  0.38663100  0.61336900  0.12500000  1
  Mg  Mg1_3  1  0.38663100  0.61336900  0.62500000  1
  Mg  Mg1_4  1  0.88663100  0.11336900  0.12500000  1
  Mg  Mg1_5  1  0.88663100  0.11336900  0.62500000  1
  Mg  Mg1_6  1  0.88663100  0.61336900  0.12500000  1
  Mg  Mg1_7  1  0.88663100  0.61336900  0.62500000  1
  Mg  Mg2_0  1  0.11336900  0.38663100  0.37500000  1
  Mg  Mg2_1  1  0.11336900  0.38663100  0.87500000  1
  Mg  Mg2_2  1  0.11336900  0.88663100  0.37500000  1
  Mg  Mg2_3  1  0.11336900  0.88663100  0.87500000  1
  Mg  Mg2_4  1  0.61336900  0.38663100  0.37500000  1
  Mg  Mg2_5  1  0.61336900  0.38663100  0.87500000  1
  Mg  Mg2_6  1  0.61336900  0.88663100  0.37500000  1
  Mg  Mg2_7  1  0.61336900  0.88663100  0.87500000  1
  Mg  Mg3_0  1  0.44243850  0.05756150  0.37500000  1
  Mg  Mg3_1  1  0.44243850  0.05756150  0.87500000  1
  Mg  Mg3_2  1  0.44243850  0.55756150  0.37500000  1
  Mg  Mg3_3  1  0.44243850  0.55756150  0.87500000  1
  Mg  Mg3_4  1  0.94243850  0.05756150  0.37500000  1
  Mg  Mg3_5  1  0.94243850  0.05756150  0.87500000  1
  Mg  Mg3_6  1  0.94243850  0.55756150  0.37500000  1
  Mg  Mg3_7  1  0.94243850  0.55756150  0.87500000  1
  Bi  Bi0_0  1  0.21836350  0.28163650  0.12500000  1
  Bi  Bi0_1  1  0.21836350  0.28163650  0.62500000  1
  Bi  Bi0_2  1  0.21836350  0.78163650  0.12500000  1
  Bi  Bi0_3  1  0.21836350  0.78163650  0.62500000  1
  Bi  Bi0_4  1  0.71836350  0.28163650  0.12500000  1
  Bi  Bi0_5  1  0.71836350  0.28163650  0.62500000  1
  Bi  Bi0_6  1  0.71836350  0.78163650  0.12500000  1
  Bi  Bi0_7  1  0.71836350  0.78163650  0.62500000  1
  Bi  Bi1_0  1  0.28163650  0.21836350  0.37500000  1
  Bi  Bi1_1  1  0.28163650  0.21836350  0.87500000  1
  Bi  Bi1_2  1  0.28163650  0.71836350  0.37500000  1
  Bi  Bi1_3  1  0.28163650  0.71836350  0.87500000  1
  Bi  Bi1_4  1  0.78163650  0.21836350  0.37500000  1
  Bi  Bi1_5  1  0.78163650  0.21836350  0.87500000  1
  Bi  Bi1_6  1  0.78163650  0.71836350  0.37500000  1
  Bi  Bi1_7  1  0.78163650  0.71836350  0.87500000  1
loop_
_geom_bond_atom_site_label_1
_geom_bond_atom_site_label_2
_geom_bond_distance
_geom_bond_site_symmetry_2
Mg0_0 Mg1_4 3.144714 1_455
Mg0_0 Mg1_2 3.144714 1_555
Mg0_0 Mg0_6 3.274662 1_445
Mg0_0 Mg0_6 3.274662 1_555
Mg0_0 Mg2_0 3.392816 1_555
Mg0_0 Mg2_1 3.392816 1_554
Mg0_1 Mg1_5 3.144714 1_455
Mg0_1 Mg1_3 3.144714 1_555
Mg0_1 Mg0_7 3.274662 1_445
Mg0_1 Mg0_7 3.274662 1_555
Mg0_1 Mg2_1 3.392816 1_555
Mg0_1 Mg2_0 3.392816 1_555
Mg0_2 Mg1_6 3.144714 1_455
Mg0_2 Mg1_0 3.144714 1_565
Mg0_2 Mg0_4 3.274662 1_455
Mg0_2 Mg0_4 3.274662 1_565
Mg0_2 Mg2_2 3.392816 1_555
Mg0_2 Mg2_3 3.392816 1_554
Mg0_3 Mg1_7 3.144714 1_455
Mg0_3 Mg1_1 3.144714 1_565
Mg0_3 Mg0_5 3.274662 1_455
Mg0_3 Mg0_5 3.274662 1_565
Mg0_3 Mg2_3 3.392816 1_555
Mg0_3 Mg2_2 3.392816 1_555
Mg0_4 Mg1_0 3.144714 1_555
Mg0_4 Mg1_6 3.144714 1_555
Mg0_4 Mg2_4 3.392816 1_555
Mg0_4 Mg2_5 3.392816 1_554
Mg0_5 Mg1_1 3.144714 1_555
Mg0_5 Mg1_7 3.144714 1_555
Mg0_5 Mg2_5 3.392816 1_555
Mg0_5 Mg2_4 3.392816 1_555
Mg0_6 Mg1_2 3.144714 1_555
Mg0_6 Mg1_4 3.144714 1_565
Mg0_6 Mg2_6 3.392816 1_555
Mg0_6 Mg2_7 3.392816 1_554
Mg0_7 Mg1_3 3.144714 1_555
Mg0_7 Mg1_5 3.144714 1_565
Mg0_7 Mg2_7 3.392816 1_555
Mg0_7 Mg2_6 3.392816 1_555
Mg1_0 Mg3_0 3.392816 1_555
Mg1_0 Mg3_1 3.392816 1_554
Mg1_1 Mg3_1 3.392816 1_555
Mg1_1 Mg3_0 3.392816 1_555
Mg1_2 Mg3_2 3.392816 1_555
Mg1_2 Mg3_3 3.392816 1_554
Mg1_3 Mg3_3 3.392816 1_555
Mg1_3 Mg3_2 3.392816 1_555
Mg1_4 Mg3_4 3.392816 1_555
Mg1_4 Mg3_5 3.392816 1_554
Mg1_5 Mg3_5 3.392816 1_555
Mg1_5 Mg3_4 3.392816 1_555
Mg1_6 Mg3_6 3.392816 1_555
Mg1_6 Mg3_7 3.392816 1_554
Mg1_7 Mg3_7 3.392816 1_555
Mg1_7 Mg3_6 3.392816 1_555
Mg2_0 Mg3_2 3.144714 1_555
Mg2_0 Mg3_4 3.144714 1_455
Mg2_1 Mg3_3 3.144714 1_555
Mg2_1 Mg3_5 3.144714 1_455
Mg2_2 Mg3_0 3.144714 1_565
Mg2_2 Mg3_6 3.144714 1_455
Mg2_3 Mg3_1 3.144714 1_565
Mg2_3 Mg3_7 3.144714 1_455
Mg2_4 Mg3_6 3.144714 1_555
Mg2_4 Mg3_0 3.144714 1_555
Mg2_5 Mg3_7 3.144714 1_555
Mg2_5 Mg3_1 3.144714 1_555
Mg2_6 Mg3_4 3.144714 1_565
Mg2_6 Mg3_2 3.144714 1_555
Mg2_7 Mg3_5 3.144714 1_565
Mg2_7 Mg3_3 3.144714 1_555
Mg3_0 Mg3_6 3.274662 1_445
Mg3_0 Mg3_6 3.274662 1_555
Mg3_1 Mg3_7 3.274662 1_445
Mg3_1 Mg3_7 3.274662 1_555
Mg3_2 Mg3_4 3.274662 1_565
Mg3_2 Mg3_4 3.274662 1_455
Mg3_3 Mg3_5 3.274662 1_565
Mg3_3 Mg3_5 3.274662 1_455
Bi0_0 Mg1_2 3.222258 1_555
Bi0_0 Mg1_4 3.222258 1_455
Bi0_0 Mg3_2 3.372842 1_555
Bi0_0 Mg3_3 3.372842 1_554
Bi0_0 Mg3_4 3.372842 1_455
Bi0_0 Mg3_5 3.372842 1_454
Bi0_0 Mg0_4 3.442998 1_555
Bi0_0 Mg0_2 3.442998 1_545
Bi0_1 Mg1_3 3.222258 1_555
Bi0_1 Mg1_5 3.222258 1_455
Bi0_1 Mg3_3 3.372842 1_555
Bi0_1 Mg3_2 3.372842 1_555
Bi0_1 Mg3_5 3.372842 1_455
Bi0_1 Mg3_4 3.372842 1_455
Bi0_1 Mg0_5 3.442998 1_555
Bi0_1 Mg0_3 3.442998 1_545
Bi0_2 Mg1_0 3.222258 1_565
Bi0_2 Mg1_6 3.222258 1_455
Bi0_2 Mg3_0 3.372842 1_565
Bi0_2 Mg3_1 3.372842 1_564
Bi0_2 Mg3_6 3.372842 1_455
Bi0_2 Mg3_7 3.372842 1_454
Bi0_2 Mg0_6 3.442998 1_555
Bi0_2 Mg0_0 3.442998 1_555
Bi0_3 Mg1_1 3.222258 1_565
Bi0_3 Mg1_7 3.222258 1_455
Bi0_3 Mg3_1 3.372842 1_565
Bi0_3 Mg3_0 3.372842 1_565
Bi0_3 Mg3_7 3.372842 1_455
Bi0_3 Mg3_6 3.372842 1_455
Bi0_3 Mg0_7 3.442998 1_555
Bi0_3 Mg0_1 3.442998 1_555
Bi0_4 Mg1_0 3.222258 1_555
Bi0_4 Mg1_6 3.222258 1_555
Bi0_4 Mg3_6 3.372842 1_555
Bi0_4 Mg3_7 3.372842 1_554
Bi0_4 Mg3_0 3.372842 1_555
Bi0_4 Mg3_1 3.372842 1_554
Bi0_4 Mg0_0 3.442998 1_655
Bi0_4 Mg0_6 3.442998 1_545
Bi0_5 Mg1_1 3.222258 1_555
Bi0_5 Mg1_7 3.222258 1_555
Bi0_5 Mg3_7 3.372842 1_555
Bi0_5 Mg3_6 3.372842 1_555
Bi0_5 Mg3_1 3.372842 1_555
Bi0_5 Mg3_0 3.372842 1_555
Bi0_5 Mg0_1 3.442998 1_655
Bi0_5 Mg0_7 3.442998 1_545
Bi0_6 Mg1_2 3.222258 1_555
Bi0_6 Mg1_4 3.222258 1_565
Bi0_6 Mg3_4 3.372842 1_565
Bi0_6 Mg3_5 3.372842 1_564
Bi0_6 Mg3_2 3.372842 1_555
Bi0_6 Mg3_3 3.372842 1_554
Bi0_6 Mg0_2 3.442998 1_655
Bi0_6 Mg0_4 3.442998 1_555
Bi0_7 Mg1_3 3.222258 1_555
Bi0_7 Mg1_5 3.222258 1_565
Bi0_7 Mg3_5 3.372842 1_565
Bi0_7 Mg3_4 3.372842 1_565
Bi0_7 Mg3_3 3.372842 1_555
Bi0_7 Mg3_2 3.372842 1_555
Bi0_7 Mg0_3 3.442998 1_655
Bi0_7 Mg0_5 3.442998 1_555
Bi1_0 Mg2_2 3.222258 1_545
Bi1_0 Mg2_4 3.222258 1_555
Bi1_0 Mg0_4 3.372842 1_555
Bi1_0 Mg0_5 3.372842 1_555
Bi1_0 Mg0_2 3.372842 1_545
Bi1_0 Mg0_3 3.372842 1_545
Bi1_0 Mg3_2 3.442998 1_555
Bi1_0 Mg3_4 3.442998 1_455
Bi1_1 Mg2_3 3.222258 1_545
Bi1_1 Mg2_5 3.222258 1_555
Bi1_1 Mg0_5 3.372842 1_555
Bi1_1 Mg0_4 3.372842 1_556
Bi1_1 Mg0_3 3.372842 1_545
Bi1_1 Mg0_2 3.372842 1_546
Bi1_1 Mg3_3 3.442998 1_555
Bi1_1 Mg3_5 3.442998 1_455
Bi1_2 Mg2_0 3.222258 1_555
Bi1_2 Mg2_6 3.222258 1_555
Bi1_2 Mg0_6 3.372842 1_555
Bi1_2 Mg0_7 3.372842 1_555
Bi1_2 Mg0_0 3.372842 1_555
Bi1_2 Mg0_1 3.372842 1_555
Bi1_2 Mg3_0 3.442998 1_565
Bi1_2 Mg3_6 3.442998 1_455
Bi1_3 Mg2_1 3.222258 1_555
Bi1_3 Mg2_7 3.222258 1_555
Bi1_3 Mg0_7 3.372842 1_555
Bi1_3 Mg0_6 3.372842 1_556
Bi1_3 Mg0_1 3.372842 1_555
Bi1_3 Mg0_0 3.372842 1_556
Bi1_3 Mg3_1 3.442998 1_565
Bi1_3 Mg3_7 3.442998 1_455
Bi1_4 Mg2_0 3.222258 1_655
Bi1_4 Mg2_6 3.222258 1_545
Bi1_4 Mg0_0 3.372842 1_655
Bi1_4 Mg0_1 3.372842 1_655
Bi1_4 Mg0_6 3.372842 1_545
Bi1_4 Mg0_7 3.372842 1_545
Bi1_4 Mg3_6 3.442998 1_555
Bi1_4 Mg3_0 3.442998 1_555
Bi1_5 Mg2_7 3.222258 1_545
Bi1_5 Mg2_1 3.222258 1_655
Bi1_5 Mg0_1 3.372842 1_655
Bi1_5 Mg0_0 3.372842 1_656
Bi1_5 Mg0_7 3.372842 1_545
Bi1_5 Mg0_6 3.372842 1_546
Bi1_5 Mg3_7 3.442998 1_555
Bi1_5 Mg3_1 3.442998 1_555
Bi1_6 Mg2_4 3.222258 1_555
Bi1_6 Mg2_2 3.222258 1_655
Bi1_6 Mg0_2 3.372842 1_655
Bi1_6 Mg0_3 3.372842 1_655
Bi1_6 Mg0_4 3.372842 1_555
Bi1_6 Mg0_5 3.372842 1_555
Bi1_6 Mg3_4 3.442998 1_565
Bi1_6 Mg3_2 3.442998 1_555
Bi1_7 Mg2_5 3.222258 1_555
Bi1_7 Mg2_3 3.222258 1_655
Bi1_7 Mg0_3 3.372842 1_655
Bi1_7 Mg0_2 3.372842 1_656
Bi1_7 Mg0_5 3.372842 1_555
Bi1_7 Mg0_4 3.372842 1_556
Bi1_7 Mg3_5 3.442998 1_565
Bi1_7 Mg3_3 3.442998 1_555
