# generated using pymatgen
data_Cr2CuO4
_symmetry_space_group_name_H-M   'P 1'
_cell_length_a   5.91927775
_cell_length_b   5.91922777
_cell_length_c   6.09446206
_cell_angle_alpha   59.01172484
_cell_angle_beta   59.01126055
_cell_angle_gamma   87.22231575
_symmetry_Int_Tables_number   1
_chemical_formula_structural   Cr2CuO4
_chemical_formula_sum   'Cr4 Cu2 O8'
_cell_volume   149.95724219
_cell_formula_units_Z   2
loop_
 _symmetry_equiv_pos_site_id
 _symmetry_equiv_pos_as_xyz
  1  'x, y, z'
loop_
 _atom_site_type_symbol
 _atom_site_label
 _atom_site_symmetry_multiplicity
 _atom_site_fract_x
 _atom_site_fract_y
 _atom_site_fract_z
 _atom_site_occupancy
  Cr  Cr0  1  0.62499200  0.87499700  0.75000300  1
  Cr  Cr1  1  0.12499800  0.37500800  0.25000100  1
  Cr  Cr2  1  0.62501900  0.37501900  0.24997800  1
  Cr  Cr3  1  0.62497700  0.37499000  0.75002300  1
  Cu  Cu0  1  0.25333000  0.74666400  0.50001100  1
  Cu  Cu1  1  0.99678400  0.00324300  0.99997800  1
  O  O0  1  0.39864800  0.15891700  0.22119200  1
  O  O1  1  0.37742200  0.62250200  0.78058700  1
  O  O2  1  0.87251100  0.12753300  0.71942300  1
  O  O3  1  0.85128900  0.59101200  0.27889700  1
  O  O4  1  0.84107800  0.60134800  0.77881100  1
  O  O5  1  0.37749400  0.62257400  0.21942000  1
  O  O6  1  0.87246400  0.12748300  0.28057600  1
  O  O7  1  0.40899400  0.14871100  0.72109900  1
loop_
_geom_bond_atom_site_label_1
_geom_bond_atom_site_label_2
_geom_bond_distance
_geom_bond_site_symmetry_2
Cr0 O7 2.006978 1_565
Cr0 O4 2.007031 1_555
Cr0 O5 2.014429 1_556
Cr0 O6 2.014482 1_565
Cr0 O2 2.014958 1_565
Cr0 O1 2.014981 1_555
Cr1 O3 2.006980 1_455
Cr1 O0 2.007056 1_555
Cr1 O1 2.014416 1_554
Cr1 O2 2.014462 1_455
Cr1 O5 2.014981 1_555
Cr1 O6 2.014995 1_455
Cr2 O7 2.024432 1_555
Cr2 O4 2.024625 1_554
Cr2 O3 2.024994 1_555
Cr2 O0 2.025281 1_555
Cr2 O6 2.029503 1_555
Cr2 O5 2.029900 1_555
Cr3 O3 2.024455 1_555
Cr3 O0 2.024628 1_556
Cr3 O7 2.025013 1_555
Cr3 O4 2.025229 1_555
Cr3 O2 2.029546 1_555
Cr3 O1 2.029844 1_555
Cu0 O1 1.987617 1_555
Cu0 O5 1.987671 1_555
Cu0 O0 2.002634 1_565
Cu0 O4 2.002635 1_455
Cu1 O2 1.988290 1_555
Cu1 O6 1.988329 1_556
Cu1 O7 2.002482 1_655
Cu1 O3 2.002584 1_546
