# generated using pymatgen
data_NaSn
_symmetry_space_group_name_H-M   'P 1'
_cell_length_a   10.42725127
_cell_length_b   10.42725148
_cell_length_c   11.40623377
_cell_angle_alpha   117.19920002
_cell_angle_beta   117.19920399
_cell_angle_gamma   90.00000151
_symmetry_Int_Tables_number   1
_chemical_formula_structural   NaSn
_chemical_formula_sum   'Na16 Sn16'
_cell_volume   946.23229697
_cell_formula_units_Z   16
loop_
 _symmetry_equiv_pos_site_id
 _symmetry_equiv_pos_as_xyz
  1  'x, y, z'
loop_
 _atom_site_type_symbol
 _atom_site_label
 _atom_site_symmetry_multiplicity
 _atom_site_fract_x
 _atom_site_fract_y
 _atom_site_fract_z
 _atom_site_occupancy
  Na  Na0  1  0.12606122  0.25000000  0.50000000  1
  Na  Na1  1  0.75000000  0.12606122  0.00000000  1
  Na  Na2  1  0.25000000  0.37393878  -0.00000000  1
  Na  Na3  1  0.37393878  0.75000000  0.50000000  1
  Na  Na4  1  0.87393878  0.75000000  0.50000000  1
  Na  Na5  1  0.25000000  0.87393878  -0.00000000  1
  Na  Na6  1  0.75000000  0.62606122  0.00000000  1
  Na  Na7  1  0.62606122  0.25000000  0.50000000  1
  Na  Na8  1  0.49666110  0.74666110  0.25000000  1
  Na  Na9  1  0.00333890  0.49666110  0.75000000  1
  Na  Na10  1  0.74666110  0.75333890  0.75000000  1
  Na  Na11  1  0.75333890  0.00333890  0.25000000  1
  Na  Na12  1  0.50333890  0.25333890  0.75000000  1
  Na  Na13  1  0.99666110  0.50333890  0.25000000  1
  Na  Na14  1  0.25333890  0.24666110  0.25000000  1
  Na  Na15  1  0.24666110  0.99666110  0.75000000  1
  Sn  Sn0  1  0.00521573  0.06037803  0.87163239  1
  Sn  Sn1  1  0.31125536  0.00521573  0.37163239  1
  Sn  Sn2  1  0.06037803  0.86641666  0.37163239  1
  Sn  Sn3  1  0.63358334  0.43962197  0.12836761  1
  Sn  Sn4  1  0.49478427  0.18874464  0.12836761  1
  Sn  Sn5  1  0.18874464  0.63358334  0.62836761  1
  Sn  Sn6  1  0.43962197  0.49478427  0.62836761  1
  Sn  Sn7  1  0.86641666  0.31125536  0.87163239  1
  Sn  Sn8  1  0.99478427  0.93962197  0.12836761  1
  Sn  Sn9  1  0.68874464  0.99478427  0.62836761  1
  Sn  Sn10  1  0.93962197  0.13358334  0.62836761  1
  Sn  Sn11  1  0.36641666  0.56037803  0.87163239  1
  Sn  Sn12  1  0.50521573  0.81125536  0.87163239  1
  Sn  Sn13  1  0.81125536  0.36641666  0.37163239  1
  Sn  Sn14  1  0.56037803  0.50521573  0.37163239  1
  Sn  Sn15  1  0.13358334  0.68874464  0.12836761  1
loop_
_geom_bond_atom_site_label_1
_geom_bond_atom_site_label_2
_geom_bond_distance
_geom_bond_site_symmetry_2
Na0 Sn6 3.399411 1_555
Na0 Sn1 3.399419 1_555
Na0 Sn13 3.409352 1_455
Na0 Sn10 3.409360 1_455
Na0 Sn2 3.512868 1_545
Na0 Sn5 3.512868 1_555
Na0 Sn8 3.531384 1_445
Na0 Sn11 3.531384 1_555
Na0 Na9 3.607657 1_555
Na0 Na11 3.607657 1_455
Na0 Na14 3.641817 1_555
Na0 Na12 3.641817 1_555
Na1 Sn3 3.399411 1_555
Na1 Sn7 3.399419 1_554
Na1 Sn12 3.409353 1_544
Na1 Sn8 3.409360 1_545
Na1 Sn0 3.512868 1_654
Na1 Sn4 3.512868 1_555
Na1 Sn9 3.531380 1_544
Na1 Sn13 3.531380 1_555
Na1 Na11 3.607656 1_555
Na1 Na10 3.607657 1_544
Na1 Na12 3.641817 1_554
Na1 Na13 3.641818 1_555
Na2 Sn0 3.399411 1_554
Na2 Sn4 3.399419 1_555
Na2 Sn15 3.409353 1_555
Na2 Sn11 3.409360 1_554
Na2 Sn3 3.512868 1_555
Na2 Sn7 3.512868 1_454
Na2 Sn14 3.531384 1_555
Na2 Sn10 3.531384 1_454
Na2 Na9 3.607657 1_554
Na2 Na8 3.607657 1_555
Na3 Sn2 3.399411 1_555
Na3 Sn5 3.399419 1_555
Na3 Sn9 3.409353 1_555
Na3 Sn14 3.409361 1_555
Na3 Sn6 3.512867 1_555
Na3 Sn1 3.512868 1_565
Na3 Sn12 3.531380 1_555
Na3 Sn15 3.531380 1_555
Na3 Na8 3.607656 1_555
Na4 Sn14 3.399411 1_555
Na4 Sn9 3.399419 1_555
Na4 Sn5 3.409352 1_655
Na4 Sn2 3.409360 1_655
Na4 Sn10 3.512868 1_565
Na4 Sn13 3.512868 1_555
Na4 Sn0 3.531384 1_665
Na4 Sn3 3.531384 1_555
Na4 Na8 3.641817 1_555
Na5 Sn11 3.399411 1_554
Na5 Sn15 3.399419 1_555
Na5 Sn4 3.409353 1_565
Na5 Sn0 3.409360 1_564
Na5 Sn8 3.512868 1_455
Na5 Sn12 3.512868 1_554
Na5 Sn1 3.531380 1_565
Na5 Sn5 3.531380 1_554
Na5 Na8 3.641817 1_555
Na5 Na9 3.641818 1_554
Na6 Sn8 3.399411 1_555
Na6 Sn12 3.399419 1_554
Na6 Sn7 3.409353 1_554
Na6 Sn3 3.409360 1_555
Na6 Sn11 3.512868 1_554
Na6 Sn15 3.512868 1_655
Na6 Sn6 3.531384 1_554
Na6 Sn2 3.531384 1_655
Na7 Sn10 3.399411 1_555
Na7 Sn13 3.399419 1_555
Na7 Sn1 3.409353 1_555
Na7 Sn6 3.409361 1_555
Na7 Sn14 3.512867 1_555
Na7 Sn9 3.512868 1_545
Na7 Sn4 3.531380 1_555
Na7 Sn7 3.531380 1_555
Na7 Na9 3.641818 1_655
Na8 Sn14 3.324905 1_555
Na8 Sn15 3.324905 1_555
Na8 Sn11 3.349848 1_554
Na8 Sn9 3.349848 1_555
Na8 Sn1 3.458821 1_565
Na8 Sn3 3.458829 1_555
Na9 Sn11 3.324905 1_555
Na9 Sn10 3.324906 1_455
Na9 Sn13 3.349848 1_455
Na9 Sn15 3.349848 1_556
Na9 Sn7 3.458821 1_455
Na9 Sn5 3.458821 1_555
Na10 Sn9 3.324905 1_555
Na10 Sn12 3.324905 1_555
Na10 Sn8 3.349848 1_556
Na10 Sn14 3.349848 1_555
Na10 Sn6 3.458829 1_555
Na10 Sn0 3.458829 1_665
Na10 Na3 3.607657 1_555
Na10 Na6 3.641817 1_556
Na10 Na4 3.641817 1_555
Na10 Na9 3.785063 1_655
Na11 Sn8 3.324905 1_545
Na11 Sn13 3.324906 1_555
Na11 Sn10 3.349848 1_555
Na11 Sn12 3.349848 1_544
Na11 Sn4 3.458821 1_555
Na11 Sn2 3.458829 1_645
Na11 Na7 3.641817 1_555
Na11 Na6 3.641818 1_545
Na11 Na8 3.785063 1_545
Na12 Sn6 3.324905 1_555
Na12 Sn7 3.324905 1_555
Na12 Sn3 3.349848 1_556
Na12 Sn1 3.349848 1_555
Na12 Sn9 3.458821 1_545
Na12 Sn11 3.458829 1_555
Na12 Na7 3.607656 1_555
Na12 Na6 3.607657 1_556
Na12 Na15 3.785063 1_545
Na13 Sn3 3.324905 1_555
Na13 Sn2 3.324906 1_655
Na13 Sn5 3.349848 1_655
Na13 Sn7 3.349848 1_554
Na13 Sn15 3.458821 1_655
Na13 Sn13 3.458821 1_555
Na13 Na6 3.607657 1_555
Na13 Na4 3.607657 1_555
Na13 Na3 3.641818 1_655
Na13 Na14 3.785063 1_655
Na14 Sn1 3.324905 1_555
Na14 Sn4 3.324905 1_555
Na14 Sn0 3.349848 1_554
Na14 Sn6 3.349848 1_555
Na14 Sn14 3.458829 1_555
Na14 Sn8 3.458829 1_445
Na14 Na7 3.607657 1_555
Na14 Na5 3.607657 1_545
Na14 Na2 3.641817 1_555
Na15 Sn0 3.324905 1_565
Na15 Sn5 3.324906 1_555
Na15 Sn2 3.349848 1_555
Na15 Sn4 3.349848 1_566
Na15 Sn12 3.458821 1_555
Na15 Sn10 3.458829 1_465
Na15 Na5 3.607656 1_556
Na15 Na4 3.607657 1_455
Na15 Na3 3.641817 1_555
Na15 Na2 3.641818 1_566
Sn0 Sn7 2.989634 1_455
Sn0 Sn10 2.991814 1_455
Sn0 Sn9 2.991822 1_445
Sn1 Sn2 2.989633 1_545
Sn1 Sn8 2.991822 1_445
Sn1 Sn15 2.991824 1_545
Sn2 Sn8 2.991814 1_455
Sn3 Sn4 2.989633 1_555
Sn5 Sn6 2.989633 1_555
Sn7 Sn9 2.991824 1_545
Sn10 Sn9 2.989633 1_545
Sn10 Sn7 2.991817 1_555
Sn11 Sn12 2.989633 1_555
Sn11 Sn6 2.991815 1_555
Sn11 Sn5 2.991817 1_555
Sn12 Sn6 2.991822 1_555
Sn12 Sn5 2.991824 1_555
Sn13 Sn14 2.989633 1_555
Sn13 Sn3 2.991817 1_555
Sn13 Sn4 2.991824 1_555
Sn14 Sn3 2.991815 1_555
Sn14 Sn4 2.991822 1_555
Sn15 Sn8 2.989634 1_455
Sn15 Sn2 2.991817 1_555
