# generated using pymatgen
data_K2TaAgS4
_symmetry_space_group_name_H-M   'P 1'
_cell_length_a   13.38673219
_cell_length_b   11.93301532
_cell_length_c   7.39871058
_cell_angle_alpha   84.17101440
_cell_angle_beta   62.47348970
_cell_angle_gamma   33.35549590
_symmetry_Int_Tables_number   1
_chemical_formula_structural   K2TaAgS4
_chemical_formula_sum   'K4 Ta2 Ag2 S8'
_cell_volume   468.03869828
_cell_formula_units_Z   2
loop_
 _symmetry_equiv_pos_site_id
 _symmetry_equiv_pos_as_xyz
  1  'x, y, z'
loop_
 _atom_site_type_symbol
 _atom_site_label
 _atom_site_symmetry_multiplicity
 _atom_site_fract_x
 _atom_site_fract_y
 _atom_site_fract_z
 _atom_site_occupancy
  K  K0  1  0.43028300  0.43028300  0.06971700  1
  K  K1  1  0.81971700  0.81971700  0.18028300  1
  K  K2  1  0.06971700  0.06971700  0.43028300  1
  K  K3  1  0.18028300  0.18028300  0.81971700  1
  Ta  Ta0  1  0.00000000  0.00000000  0.00000000  1
  Ta  Ta1  1  0.25000000  0.25000000  0.25000000  1
  Ag  Ag0  1  0.50000000  0.50000000  0.50000000  1
  Ag  Ag1  1  0.75000000  0.75000000  0.75000000  1
  S  S0  1  0.74349500  0.37204900  0.05306200  1
  S  S1  1  0.83139400  0.05306200  0.37204900  1
  S  S2  1  0.05306200  0.83139400  0.74349500  1
  S  S3  1  0.37204900  0.74349500  0.83139400  1
  S  S4  1  0.50650500  0.87795100  0.19693800  1
  S  S5  1  0.87795100  0.50650500  0.41860600  1
  S  S6  1  0.19693800  0.41860600  0.50650500  1
  S  S7  1  0.41860600  0.19693800  0.87795100  1
loop_
_geom_bond_atom_site_label_1
_geom_bond_atom_site_label_2
_geom_bond_distance
_geom_bond_site_symmetry_2
K0 S7 3.394935 1_554
K0 S6 3.394935 1_555
K0 S1 3.431574 1_465
K0 S2 3.431574 1_644
K0 S3 3.570821 1_554
K0 S0 3.570821 1_555
K1 S2 3.394935 1_654
K1 S1 3.394935 1_565
K1 S6 3.431574 1_565
K1 S7 3.431574 1_654
K1 S4 3.570821 1_555
K1 S5 3.570821 1_555
K2 S5 3.394935 1_455
K2 S4 3.394935 1_545
K2 S3 3.431574 1_544
K2 S0 3.431574 1_456
K2 S1 3.570821 1_455
K2 S2 3.570821 1_545
K3 S0 3.394935 1_456
K3 S3 3.394935 1_545
K3 S4 3.431574 1_545
K3 S5 3.431574 1_456
K3 S6 3.570821 1_555
K3 S7 3.570821 1_555
Ag0 S3 2.576692 1_555
Ag0 S0 2.576692 1_555
Ag0 S1 2.576692 1_555
Ag0 S2 2.576692 1_555
Ag1 S6 2.576692 1_655
Ag1 S7 2.576692 1_565
Ag1 S4 2.576692 1_556
Ag1 S5 2.576692 1_555
S0 Ta0 2.301378 1_655
S1 Ta0 2.301378 1_655
S2 Ta0 2.301378 1_566
S3 Ta0 2.301378 1_566
S4 Ta1 2.301378 1_565
S5 Ta1 2.301378 1_655
S6 Ta1 2.301378 1_555
S7 Ta1 2.301378 1_556
