# generated using pymatgen
data_Eu2MgS4
_symmetry_space_group_name_H-M   'P 1'
_cell_length_a   13.07040700
_cell_length_b   7.79783200
_cell_length_c   12.78294400
_cell_angle_alpha   90.00000000
_cell_angle_beta   90.00000000
_cell_angle_gamma   90.00000000
_symmetry_Int_Tables_number   1
_chemical_formula_structural   Eu2MgS4
_chemical_formula_sum   'Eu16 Mg8 S32'
_cell_volume   1302.84836405
_cell_formula_units_Z   8
loop_
 _symmetry_equiv_pos_site_id
 _symmetry_equiv_pos_as_xyz
  1  'x, y, z'
loop_
 _atom_site_type_symbol
 _atom_site_label
 _atom_site_symmetry_multiplicity
 _atom_site_fract_x
 _atom_site_fract_y
 _atom_site_fract_z
 _atom_site_occupancy
  Eu  Eu0  1  0.10870900  0.88554000  0.68461100  1
  Eu  Eu1  1  0.89129100  0.11446000  0.18461100  1
  Eu  Eu2  1  0.39129100  0.88554000  0.18461100  1
  Eu  Eu3  1  0.60870900  0.11446000  0.68461100  1
  Eu  Eu4  1  0.12590900  0.38386500  0.32523400  1
  Eu  Eu5  1  0.87409100  0.61613500  0.82523400  1
  Eu  Eu6  1  0.37409100  0.38386500  0.82523400  1
  Eu  Eu7  1  0.62590900  0.61613500  0.32523400  1
  Eu  Eu8  1  0.13517000  0.63154700  0.99331900  1
  Eu  Eu9  1  0.86483000  0.36845300  0.49331900  1
  Eu  Eu10  1  0.36483000  0.63154700  0.49331900  1
  Eu  Eu11  1  0.63517000  0.36845300  0.99331900  1
  Eu  Eu12  1  0.13627100  0.12996100  0.99207300  1
  Eu  Eu13  1  0.86372900  0.87003900  0.49207300  1
  Eu  Eu14  1  0.36372900  0.12996100  0.49207300  1
  Eu  Eu15  1  0.63627100  0.87003900  0.99207300  1
  Mg  Mg0  1  0.11064200  0.38385600  0.69239100  1
  Mg  Mg1  1  0.88935800  0.61614400  0.19239100  1
  Mg  Mg2  1  0.38935800  0.38385600  0.19239100  1
  Mg  Mg3  1  0.61064200  0.61614400  0.69239100  1
  Mg  Mg4  1  0.12530700  0.87869600  0.32035700  1
  Mg  Mg5  1  0.87469300  0.12130400  0.82035700  1
  Mg  Mg6  1  0.37469300  0.87869600  0.82035700  1
  Mg  Mg7  1  0.62530700  0.12130400  0.32035700  1
  S  S0  1  0.01044100  0.88309000  0.87992400  1
  S  S1  1  0.98955900  0.11691000  0.37992400  1
  S  S2  1  0.48955900  0.88309000  0.37992400  1
  S  S3  1  0.51044100  0.11691000  0.87992400  1
  S  S4  1  0.02591200  0.38496900  0.13061800  1
  S  S5  1  0.97408800  0.61503100  0.63061800  1
  S  S6  1  0.47408800  0.38496900  0.63061800  1
  S  S7  1  0.52591200  0.61503100  0.13061800  1
  S  S8  1  0.02159800  0.37113300  0.87024500  1
  S  S9  1  0.97840200  0.62886700  0.37024500  1
  S  S10  1  0.47840200  0.37113300  0.37024500  1
  S  S11  1  0.52159800  0.62886700  0.87024500  1
  S  S12  1  0.04379800  0.87263500  0.14076200  1
  S  S13  1  0.95620200  0.12736500  0.64076200  1
  S  S14  1  0.45620200  0.87263500  0.64076200  1
  S  S15  1  0.54379800  0.12736500  0.14076200  1
  S  S16  1  0.20834700  0.88121000  0.49634000  1
  S  S17  1  0.79165300  0.11879000  0.99634000  1
  S  S18  1  0.29165300  0.88121000  0.99634000  1
  S  S19  1  0.70834700  0.11879000  0.49634000  1
  S  S20  1  0.20938600  0.38127900  0.52400500  1
  S  S21  1  0.79061400  0.61872100  0.02400500  1
  S  S22  1  0.29061400  0.38127900  0.02400500  1
  S  S23  1  0.70938600  0.61872100  0.52400500  1
  S  S24  1  0.23153400  0.13703900  0.77171600  1
  S  S25  1  0.76846600  0.86296100  0.27171600  1
  S  S26  1  0.26846600  0.13703900  0.27171600  1
  S  S27  1  0.73153400  0.86296100  0.77171600  1
  S  S28  1  0.23518700  0.63928500  0.77540700  1
  S  S29  1  0.76481300  0.36071500  0.27540700  1
  S  S30  1  0.26481300  0.63928500  0.27540700  1
  S  S31  1  0.73518700  0.36071500  0.77540700  1
loop_
_geom_bond_atom_site_label_1
_geom_bond_atom_site_label_2
_geom_bond_distance
_geom_bond_site_symmetry_2
Eu0 S16 2.736631 1_555
Eu0 S24 2.768232 1_565
Eu0 S28 2.786982 1_555
Eu0 S13 2.800615 1_465
Eu0 S0 2.807747 1_555
Eu0 S5 2.832293 1_455
Eu1 S17 2.736631 1_554
Eu1 S25 2.768232 1_545
Eu1 S29 2.786982 1_555
Eu1 S12 2.800615 1_645
Eu1 S1 2.807747 1_555
Eu1 S4 2.832293 1_655
Eu2 S18 2.736631 1_554
Eu2 S26 2.768232 1_565
Eu2 S30 2.786982 1_555
Eu2 S15 2.800615 1_565
Eu2 S2 2.807747 1_555
Eu2 S7 2.832293 1_555
Eu3 S19 2.736631 1_555
Eu3 S27 2.768232 1_545
Eu3 S31 2.786982 1_555
Eu3 S14 2.800615 1_545
Eu3 S3 2.807747 1_555
Eu3 S6 2.832293 1_555
Eu4 S26 2.764837 1_555
Eu4 S20 2.765307 1_555
Eu4 S30 2.769260 1_555
Eu4 S9 2.774545 1_455
Eu4 S4 2.810214 1_555
Eu4 S1 2.828100 1_455
Eu5 S27 2.764837 1_555
Eu5 S21 2.765307 1_556
Eu5 S31 2.769260 1_555
Eu5 S8 2.774545 1_655
Eu5 S5 2.810214 1_555
Eu5 S0 2.828100 1_655
Eu6 S24 2.764837 1_555
Eu6 S22 2.765307 1_556
Eu6 S28 2.769260 1_555
Eu6 S11 2.774545 1_555
Eu6 S6 2.810214 1_555
Eu6 S3 2.828100 1_555
Eu7 S25 2.764837 1_555
Eu7 S23 2.765307 1_555
Eu7 S29 2.769260 1_555
Eu7 S10 2.774545 1_555
Eu7 S7 2.810214 1_555
Eu7 S2 2.828100 1_555
Eu8 S18 2.823982 1_555
Eu8 S22 2.844341 1_556
Eu8 S12 2.917678 1_556
Eu8 S0 2.933650 1_555
Eu8 S8 2.966858 1_555
Eu8 S4 2.969293 1_556
Eu8 S28 3.077646 1_555
Eu9 S19 2.823982 1_555
Eu9 S23 2.844341 1_555
Eu9 S13 2.917678 1_555
Eu9 S1 2.933650 1_555
Eu9 S9 2.966858 1_555
Eu9 S5 2.969293 1_555
Eu9 S29 3.077646 1_555
Eu10 S16 2.823982 1_555
Eu10 S20 2.844341 1_555
Eu10 S14 2.917678 1_555
Eu10 S2 2.933650 1_555
Eu10 S10 2.966858 1_555
Eu10 S6 2.969293 1_555
Eu10 S30 3.077646 1_555
Eu11 S17 2.823982 1_555
Eu11 S21 2.844341 1_556
Eu11 S15 2.917678 1_556
Eu11 S3 2.933650 1_555
Eu11 S11 2.966858 1_555
Eu11 S7 2.969293 1_556
Eu11 S31 3.077646 1_555
Eu12 S18 2.808925 1_545
Eu12 S22 2.841968 1_556
Eu12 S8 2.865038 1_555
Eu12 S0 2.909625 1_545
Eu12 S12 3.016594 1_546
Eu12 S4 3.028412 1_556
Eu12 S24 3.080229 1_555
Eu13 S19 2.808925 1_565
Eu13 S23 2.841968 1_555
Eu13 S9 2.865038 1_555
Eu13 S1 2.909625 1_565
Eu13 S13 3.016594 1_565
Eu13 S5 3.028412 1_555
Eu13 S25 3.080229 1_555
Eu14 S16 2.808925 1_545
Eu14 S20 2.841968 1_555
Eu14 S10 2.865038 1_555
Eu14 S2 2.909625 1_545
Eu14 S14 3.016594 1_545
Eu14 S6 3.028412 1_555
Eu14 S26 3.080229 1_555
Eu15 S17 2.808925 1_565
Eu15 S21 2.841968 1_556
Eu15 S11 2.865038 1_555
Eu15 S3 2.909625 1_565
Eu15 S15 3.016594 1_566
Eu15 S7 3.028412 1_556
Eu15 S27 3.080229 1_555
Mg0 S20 2.509828 1_555
Mg0 S8 2.556005 1_555
Mg0 S5 2.656821 1_455
Mg0 S24 2.688713 1_555
Mg0 S28 2.782673 1_555
Mg0 S13 2.917289 1_455
Mg1 S21 2.509828 1_555
Mg1 S9 2.556005 1_555
Mg1 S4 2.656821 1_655
Mg1 S25 2.688713 1_555
Mg1 S29 2.782673 1_555
Mg1 S12 2.917289 1_655
Mg2 S22 2.509828 1_555
Mg2 S10 2.556005 1_555
Mg2 S7 2.656821 1_555
Mg2 S26 2.688713 1_555
Mg2 S30 2.782673 1_555
Mg2 S15 2.917289 1_555
Mg3 S23 2.509828 1_555
Mg3 S11 2.556005 1_555
Mg3 S6 2.656821 1_555
Mg3 S27 2.688713 1_555
Mg3 S31 2.782673 1_555
Mg3 S14 2.917289 1_555
Mg4 S16 2.497803 1_555
Mg4 S12 2.531343 1_555
Mg4 S30 2.672118 1_555
Mg4 S1 2.679248 1_465
Mg4 S9 2.808680 1_455
Mg4 S26 2.818877 1_565
Mg5 S17 2.497803 1_555
Mg5 S13 2.531343 1_555
Mg5 S31 2.672118 1_555
Mg5 S0 2.679248 1_645
Mg5 S8 2.808680 1_655
Mg5 S27 2.818877 1_545
Mg6 S18 2.497803 1_555
Mg6 S14 2.531343 1_555
Mg6 S28 2.672118 1_555
Mg6 S3 2.679248 1_565
Mg6 S11 2.808680 1_555
Mg6 S24 2.818877 1_565
Mg7 S19 2.497803 1_555
Mg7 S15 2.531343 1_555
Mg7 S29 2.672118 1_555
Mg7 S2 2.679248 1_545
Mg7 S10 2.808680 1_555
Mg7 S25 2.818877 1_545
