# generated using pymatgen
data_Al2HgSe4
_symmetry_space_group_name_H-M   'P 1'
_cell_length_a   7.67459256
_cell_length_b   7.67459256
_cell_length_c   7.67459256
_cell_angle_alpha   60.00000000
_cell_angle_beta   60.00000000
_cell_angle_gamma   60.00000000
_symmetry_Int_Tables_number   1
_chemical_formula_structural   Al2HgSe4
_chemical_formula_sum   'Al4 Hg2 Se8'
_cell_volume   319.63254044
_cell_formula_units_Z   2
loop_
 _symmetry_equiv_pos_site_id
 _symmetry_equiv_pos_as_xyz
  1  'x, y, z'
loop_
 _atom_site_type_symbol
 _atom_site_label
 _atom_site_symmetry_multiplicity
 _atom_site_fract_x
 _atom_site_fract_y
 _atom_site_fract_z
 _atom_site_occupancy
  Al  Al0  1  -0.00000000  0.00000000  0.50000000  1
  Al  Al1  1  -0.00000000  0.50000000  0.00000000  1
  Al  Al2  1  0.50000000  0.00000000  0.00000000  1
  Al  Al3  1  -0.00000000  0.00000000  0.00000000  1
  Hg  Hg0  1  0.37500000  0.37500000  0.37500000  1
  Hg  Hg1  1  0.62500000  0.62500000  0.62500000  1
  Se  Se0  1  0.23582711  0.23582711  0.79251967  1
  Se  Se1  1  0.23582711  0.79251967  0.23582711  1
  Se  Se2  1  0.79251967  0.23582711  0.23582711  1
  Se  Se3  1  0.23582711  0.23582711  0.23582711  1
  Se  Se4  1  0.76417289  0.76417289  0.20748033  1
  Se  Se5  1  0.76417289  0.20748033  0.76417289  1
  Se  Se6  1  0.20748033  0.76417289  0.76417289  1
  Se  Se7  1  0.76417289  0.76417289  0.76417289  1
loop_
_geom_bond_atom_site_label_1
_geom_bond_atom_site_label_2
_geom_bond_distance
_geom_bond_site_symmetry_2
Al0 Se6 2.568776 1_545
Al0 Se1 2.568776 1_545
Al0 Se2 2.568776 1_455
Al0 Se5 2.568776 1_455
Al0 Se3 2.568781 1_555
Al0 Se7 2.568781 1_445
Al1 Se0 2.568776 1_554
Al1 Se6 2.568776 1_554
Al1 Se2 2.568776 1_455
Al1 Se4 2.568776 1_455
Al1 Se3 2.568781 1_555
Al1 Se7 2.568781 1_454
Al2 Se0 2.568776 1_554
Al2 Se4 2.568776 1_545
Al2 Se1 2.568776 1_545
Al2 Se5 2.568776 1_554
Al2 Se3 2.568781 1_555
Al2 Se7 2.568781 1_544
Al3 Se6 2.568781 1_544
Al3 Se2 2.568781 1_455
Al3 Se5 2.568781 1_454
Al3 Se4 2.568781 1_445
Al3 Se0 2.568781 1_554
Al3 Se1 2.568781 1_545
Hg0 Se3 2.616288 1_555
Hg0 Se2 2.616295 1_555
Hg0 Se1 2.616295 1_555
Hg0 Se0 2.616295 1_555
Hg1 Se7 2.616288 1_555
Hg1 Se6 2.616295 1_555
Hg1 Se4 2.616295 1_555
Hg1 Se5 2.616295 1_555
