# generated using pymatgen
data_KYb(BH4)4
_symmetry_space_group_name_H-M   'P 1'
_cell_length_a   8.17285157
_cell_length_b   8.17285157
_cell_length_c   9.75785700
_cell_angle_alpha   90.00000000
_cell_angle_beta   90.00000000
_cell_angle_gamma   113.06808453
_symmetry_Int_Tables_number   1
_chemical_formula_structural   KYb(BH4)4
_chemical_formula_sum   'K2 Yb2 B8 H32'
_cell_volume   599.66449280
_cell_formula_units_Z   2
loop_
 _symmetry_equiv_pos_site_id
 _symmetry_equiv_pos_as_xyz
  1  'x, y, z'
loop_
 _atom_site_type_symbol
 _atom_site_label
 _atom_site_symmetry_multiplicity
 _atom_site_fract_x
 _atom_site_fract_y
 _atom_site_fract_z
 _atom_site_occupancy
  K  K0  1  0.00000000  0.00000000  0.50000000  1
  K  K1  1  0.00000000  0.00000000  0.00000000  1
  Yb  Yb0  1  0.38137900  0.61862100  0.25000000  1
  Yb  Yb1  1  0.61862100  0.38137900  0.75000000  1
  B  B0  1  0.25260500  0.74739500  0.05403100  1
  B  B1  1  0.74739500  0.25260500  0.94596900  1
  B  B2  1  0.25260500  0.74739500  0.44596900  1
  B  B3  1  0.74739500  0.25260500  0.55403100  1
  B  B4  1  0.24667000  0.28801700  0.25000000  1
  B  B5  1  0.28801700  0.24667000  0.75000000  1
  B  B6  1  0.75333000  0.71198300  0.75000000  1
  B  B7  1  0.71198300  0.75333000  0.25000000  1
  H  H0  1  0.19236800  0.80763200  0.96293900  1
  H  H1  1  0.80763200  0.19236800  0.03706100  1
  H  H2  1  0.19236800  0.80763200  0.53706100  1
  H  H3  1  0.80763200  0.19236800  0.46293900  1
  H  H4  1  0.34213400  0.65786600  0.02430700  1
  H  H5  1  0.65786600  0.34213400  0.97569300  1
  H  H6  1  0.34213400  0.65786600  0.47569300  1
  H  H7  1  0.65786600  0.34213400  0.52430700  1
  H  H8  1  0.12620900  0.63414500  0.11533000  1
  H  H9  1  0.63414500  0.12620900  0.88467000  1
  H  H10  1  0.12620900  0.63414500  0.38467000  1
  H  H11  1  0.63414500  0.12620900  0.61533000  1
  H  H12  1  0.87379100  0.36585500  0.88467000  1
  H  H13  1  0.36585500  0.87379100  0.11533000  1
  H  H14  1  0.87379100  0.36585500  0.61533000  1
  H  H15  1  0.36585500  0.87379100  0.38467000  1
  H  H16  1  0.18669700  0.12584300  0.25000000  1
  H  H17  1  0.12584300  0.18669700  0.75000000  1
  H  H18  1  0.81330300  0.87415700  0.75000000  1
  H  H19  1  0.87415700  0.81330300  0.25000000  1
  H  H20  1  0.12927100  0.34798200  0.25000000  1
  H  H21  1  0.34798200  0.12927100  0.75000000  1
  H  H22  1  0.87072900  0.65201800  0.75000000  1
  H  H23  1  0.65201800  0.87072900  0.25000000  1
  H  H24  1  0.34227800  0.34791300  0.14857400  1
  H  H25  1  0.34791300  0.34227800  0.85142600  1
  H  H26  1  0.34227800  0.34791300  0.35142600  1
  H  H27  1  0.34791300  0.34227800  0.64857400  1
  H  H28  1  0.65772200  0.65208700  0.85142600  1
  H  H29  1  0.65208700  0.65772200  0.14857400  1
  H  H30  1  0.65772200  0.65208700  0.64857400  1
  H  H31  1  0.65208700  0.65772200  0.35142600  1
loop_
_geom_bond_atom_site_label_1
_geom_bond_atom_site_label_2
_geom_bond_distance
_geom_bond_site_symmetry_2
B0 H0 1.210265 1_554
B0 H13 1.237868 1_555
B0 H8 1.237868 1_555
B0 H4 1.254782 1_555
B1 H1 1.210265 1_556
B1 H12 1.237868 1_555
B1 H9 1.237868 1_555
B1 H5 1.254782 1_555
B2 H2 1.210265 1_555
B2 H15 1.237868 1_555
B2 H10 1.237868 1_555
B2 H6 1.254782 1_555
B3 H3 1.210265 1_555
B3 H14 1.237868 1_555
B3 H11 1.237868 1_555
B3 H7 1.254782 1_555
B4 H16 1.219792 1_555
B4 H20 1.236644 1_555
B4 H24 1.236914 1_555
B4 H26 1.236914 1_555
B5 H17 1.219792 1_555
B5 H21 1.236644 1_555
B5 H27 1.236914 1_555
B5 H25 1.236914 1_555
B6 H18 1.219792 1_555
B6 H22 1.236644 1_555
B6 H28 1.236914 1_555
B6 H30 1.236914 1_555
B7 H19 1.219792 1_555
B7 H23 1.236644 1_555
B7 H29 1.236914 1_555
B7 H31 1.236914 1_555
H0 K1 2.647904 1_566
H1 K1 2.647904 1_655
H2 K0 2.647904 1_565
H3 K0 2.647904 1_655
H4 Yb0 2.266365 1_555
H5 Yb1 2.266365 1_555
H6 Yb0 2.266365 1_555
H7 Yb1 2.266365 1_555
H8 Yb0 2.509871 1_555
H9 Yb1 2.509871 1_555
H10 Yb0 2.509871 1_555
H11 Yb1 2.509871 1_555
H12 Yb1 2.509871 1_555
H13 Yb0 2.509871 1_555
H14 Yb1 2.509871 1_555
H15 Yb0 2.509871 1_555
H16 K0 2.847314 1_555
H16 K1 2.847314 1_555
H17 K0 2.847314 1_555
H17 K1 2.847314 1_556
H18 K1 2.847314 1_666
H18 K0 2.847314 1_665
H19 K0 2.847314 1_665
H19 K1 2.847314 1_665
H20 Yb0 2.359327 1_555
H21 Yb1 2.359327 1_555
H22 Yb1 2.359327 1_555
H23 Yb0 2.359327 1_555
H24 Yb0 2.328633 1_555
H25 Yb1 2.328633 1_555
H26 Yb0 2.328633 1_555
H27 Yb1 2.328633 1_555
H28 Yb1 2.328633 1_555
H29 Yb0 2.328633 1_555
H30 Yb1 2.328633 1_555
H31 Yb0 2.328633 1_555
