# generated using pymatgen
data_AgSbO12
_symmetry_space_group_name_H-M   'P 1'
_cell_length_a   7.66624500
_cell_length_b   7.66624500
_cell_length_c   7.43582000
_cell_angle_alpha   90.00000000
_cell_angle_beta   90.00000000
_cell_angle_gamma   90.00000000
_symmetry_Int_Tables_number   1
_chemical_formula_structural   AgSbO12
_chemical_formula_sum   'Ag2 Sb2 O24'
_cell_volume   437.01290017
_cell_formula_units_Z   2
loop_
 _symmetry_equiv_pos_site_id
 _symmetry_equiv_pos_as_xyz
  1  'x, y, z'
loop_
 _atom_site_type_symbol
 _atom_site_label
 _atom_site_symmetry_multiplicity
 _atom_site_fract_x
 _atom_site_fract_y
 _atom_site_fract_z
 _atom_site_occupancy
  Ag  Ag0  1  0.00000000  0.00000000  0.00000000  1
  Ag  Ag1  1  0.50000000  0.50000000  0.50000000  1
  Sb  Sb0  1  0.00000000  0.00000000  0.50000000  1
  Sb  Sb1  1  0.50000000  0.50000000  0.00000000  1
  O  O0  1  0.62725600  0.14720300  0.99073900  1
  O  O1  1  0.37274400  0.85279700  0.99073900  1
  O  O2  1  0.64720300  0.87274400  0.49073900  1
  O  O3  1  0.87274400  0.35279700  0.50926100  1
  O  O4  1  0.35279700  0.12725600  0.49073900  1
  O  O5  1  0.12725600  0.64720300  0.50926100  1
  O  O6  1  0.85279700  0.62725600  0.00926100  1
  O  O7  1  0.14720300  0.37274400  0.00926100  1
  O  O8  1  0.28323700  0.97635000  0.05085800  1
  O  O9  1  0.71676300  0.02365000  0.05085800  1
  O  O10  1  0.47635000  0.21676300  0.55085800  1
  O  O11  1  0.21676300  0.52365000  0.44914200  1
  O  O12  1  0.52365000  0.78323700  0.55085800  1
  O  O13  1  0.78323700  0.47635000  0.44914200  1
  O  O14  1  0.02365000  0.28323700  0.94914200  1
  O  O15  1  0.97635000  0.71676300  0.94914200  1
  O  O16  1  0.17753700  0.08052600  0.66246900  1
  O  O17  1  0.82246300  0.91947400  0.66246900  1
  O  O18  1  0.58052600  0.32246300  0.16246900  1
  O  O19  1  0.32246300  0.41947400  0.83753100  1
  O  O20  1  0.41947400  0.67753700  0.16246900  1
  O  O21  1  0.67753700  0.58052600  0.83753100  1
  O  O22  1  0.91947400  0.17753700  0.33753100  1
  O  O23  1  0.08052600  0.82246300  0.33753100  1
loop_
_geom_bond_atom_site_label_1
_geom_bond_atom_site_label_2
_geom_bond_distance
_geom_bond_site_symmetry_2
Ag0 O9 2.211495 1_455
Ag0 O15 2.211495 1_444
Ag0 O14 2.211495 1_554
Ag0 O8 2.211495 1_545
Ag1 O10 2.211495 1_555
Ag1 O12 2.211495 1_555
Ag1 O11 2.211495 1_555
Ag1 O13 2.211495 1_555
O0 O9 1.252138 1_556
O0 O18 1.887901 1_556
O1 O8 1.252138 1_556
O1 O20 1.887901 1_556
O10 O4 1.252138 1_555
O11 O5 1.252138 1_555
O12 O2 1.252138 1_555
O13 O3 1.252138 1_555
O14 O7 1.252138 1_556
O15 O6 1.252138 1_556
O16 O4 1.887901 1_555
O16 Sb0 1.921722 1_555
O17 O2 1.887901 1_555
O17 Sb0 1.921722 1_665
O18 Sb1 1.921722 1_555
O19 O7 1.887901 1_556
O19 Sb1 1.921722 1_556
O20 Sb1 1.921722 1_555
O21 O6 1.887901 1_556
O21 Sb1 1.921722 1_556
O22 O3 1.887901 1_555
O22 Sb0 1.921722 1_655
O23 O5 1.887901 1_555
O23 Sb0 1.921722 1_565
