# generated using pymatgen
data_BaSrTbCeO6
_symmetry_space_group_name_H-M   'P 1'
_cell_length_a   8.77731448
_cell_length_b   8.77347800
_cell_length_c   8.77174316
_cell_angle_alpha   90.00000000
_cell_angle_beta   90.00000000
_cell_angle_gamma   90.00000000
_symmetry_Int_Tables_number   1
_chemical_formula_structural   BaSrTbCeO6
_chemical_formula_sum   'Ba4 Sr4 Tb4 Ce4 O24'
_cell_volume   675.49067357
_cell_formula_units_Z   4
loop_
 _symmetry_equiv_pos_site_id
 _symmetry_equiv_pos_as_xyz
  1  'x, y, z'
loop_
 _atom_site_type_symbol
 _atom_site_label
 _atom_site_symmetry_multiplicity
 _atom_site_fract_x
 _atom_site_fract_y
 _atom_site_fract_z
 _atom_site_occupancy
  Ba  Ba0  1  -0.00000000  0.00000000  0.00000000  1
  Ba  Ba1  1  0.50000000  0.50000000  0.50000000  1
  Ba  Ba2  1  0.50000000  0.00000000  0.50000000  1
  Ba  Ba3  1  0.50000000  0.50000000  0.00000000  1
  Sr  Sr0  1  -0.00000000  0.50000000  0.50000000  1
  Sr  Sr1  1  0.50000000  0.00000000  0.00000000  1
  Sr  Sr2  1  -0.00000000  0.50000000  0.00000000  1
  Sr  Sr3  1  -0.00000000  0.00000000  0.50000000  1
  Tb  Tb0  1  0.24658851  0.24978775  0.24887546  1
  Tb  Tb1  1  0.75341149  0.75021225  0.24887546  1
  Tb  Tb2  1  0.75341149  0.24978775  0.75112454  1
  Tb  Tb3  1  0.24658851  0.75021225  0.75112454  1
  Ce  Ce0  1  0.75326010  0.75070687  0.74962870  1
  Ce  Ce1  1  0.24673990  0.24929313  0.74962870  1
  Ce  Ce2  1  0.24673990  0.75070687  0.25037130  1
  Ce  Ce3  1  0.75326010  0.24929313  0.25037130  1
  O  O0  1  0.99745184  0.20214704  0.28994427  1
  O  O1  1  0.00254816  0.79785296  0.28994427  1
  O  O2  1  0.00254816  0.20214704  0.71005573  1
  O  O3  1  0.99745184  0.79785296  0.71005573  1
  O  O4  1  0.28688543  0.99765807  0.20369988  1
  O  O5  1  0.28688543  0.00234193  0.79630012  1
  O  O6  1  0.71311457  0.00234193  0.20369988  1
  O  O7  1  0.71311457  0.99765807  0.79630012  1
  O  O8  1  0.20332995  0.29077558  0.99713498  1
  O  O9  1  0.79667005  0.29077558  0.00286502  1
  O  O10  1  0.20332995  0.70922442  0.00286502  1
  O  O11  1  0.79667005  0.70922442  0.99713498  1
  O  O12  1  0.50269216  0.28290631  0.22279722  1
  O  O13  1  0.49730784  0.71709369  0.22279722  1
  O  O14  1  0.49730784  0.28290631  0.77720278  1
  O  O15  1  0.50269216  0.71709369  0.77720278  1
  O  O16  1  0.20988583  0.50228635  0.29189435  1
  O  O17  1  0.20988583  0.49771365  0.70810565  1
  O  O18  1  0.79011417  0.49771365  0.29189435  1
  O  O19  1  0.79011417  0.50228635  0.70810565  1
  O  O20  1  0.28130508  0.21953712  0.50223228  1
  O  O21  1  0.71869492  0.21953712  0.49776772  1
  O  O22  1  0.28130508  0.78046288  0.49776772  1
  O  O23  1  0.71869492  0.78046288  0.50223228  1
loop_
_geom_bond_atom_site_label_1
_geom_bond_atom_site_label_2
_geom_bond_distance
_geom_bond_site_symmetry_2
Ba0 O5 3.087690 1_554
Ba0 O7 3.087690 1_444
Ba0 O6 3.087690 1_455
Ba0 O4 3.087690 1_545
Ba0 O1 3.100706 1_545
Ba0 O3 3.100706 1_444
Ba0 O2 3.100706 1_554
Ba0 O0 3.100706 1_455
Ba0 O9 3.113508 1_455
Ba0 O8 3.113508 1_554
Ba0 O11 3.113508 1_444
Ba0 O10 3.113508 1_545
Ba1 O14 3.088812 1_555
Ba1 O15 3.088812 1_555
Ba1 O12 3.088812 1_555
Ba1 O13 3.088812 1_555
Ba1 O20 3.120865 1_555
Ba1 O23 3.120865 1_555
Ba1 O21 3.120865 1_555
Ba1 O22 3.120865 1_555
Ba1 O18 3.133200 1_555
Ba1 O19 3.133200 1_555
Ba1 O16 3.133200 1_555
Ba1 O17 3.133200 1_555
Ba2 O20 2.719365 1_555
Ba2 O21 2.719365 1_555
Ba2 O22 2.719365 1_545
Ba2 O23 2.719365 1_545
Ba2 O5 3.202284 1_555
Ba2 O7 3.202284 1_545
Ba2 O6 3.202284 1_555
Ba2 O4 3.202284 1_545
Ba3 O12 2.729044 1_555
Ba3 O13 2.729044 1_555
Ba3 O14 2.729044 1_554
Ba3 O15 2.729044 1_554
Ba3 O9 3.186031 1_555
Ba3 O10 3.186031 1_555
Ba3 O11 3.186031 1_554
Ba3 O8 3.186031 1_554
Ce0 O23 2.206700 1_555
Ce0 O3 2.210323 1_555
Ce0 O15 2.232141 1_555
Ce0 O7 2.232938 1_555
Ce0 O19 2.233288 1_555
Ce0 O11 2.234087 1_555
Ce1 O20 2.206700 1_555
Ce1 O2 2.210323 1_555
Ce1 O14 2.232141 1_555
Ce1 O5 2.232938 1_555
Ce1 O17 2.233288 1_555
Ce1 O8 2.234087 1_555
Ce2 O22 2.206700 1_555
Ce2 O1 2.210323 1_555
Ce2 O13 2.232141 1_555
Ce2 O4 2.232938 1_555
Ce2 O16 2.233288 1_555
Ce2 O10 2.234087 1_555
Ce3 O21 2.206700 1_555
Ce3 O0 2.210323 1_555
Ce3 O12 2.232141 1_555
Ce3 O6 2.232938 1_555
Ce3 O18 2.233288 1_555
Ce3 O9 2.234087 1_555
O0 Tb0 2.255296 1_655
O0 Sr3 2.557524 1_655
O1 Tb1 2.255296 1_455
O1 Sr3 2.557524 1_565
O2 Tb2 2.255296 1_455
O2 Sr3 2.557524 1_555
O3 Tb3 2.255296 1_655
O3 Sr3 2.557524 1_665
O4 Tb0 2.274932 1_565
O4 Sr1 2.586916 1_565
O5 Tb3 2.274932 1_545
O5 Sr1 2.586916 1_556
O6 Tb1 2.274932 1_545
O6 Sr1 2.586916 1_555
O7 Tb2 2.274932 1_565
O7 Sr1 2.586916 1_566
O8 Tb0 2.269283 1_556
O8 Sr2 2.560327 1_556
O9 Tb2 2.269283 1_554
O9 Sr2 2.560327 1_655
O10 Tb3 2.269283 1_554
O10 Sr2 2.560327 1_555
O11 Tb1 2.269283 1_556
O11 Sr2 2.560327 1_656
O12 Tb0 2.278118 1_555
O12 Sr1 3.159210 1_555
O13 Tb1 2.278118 1_555
O13 Sr1 3.159210 1_565
O14 Tb2 2.278118 1_555
O14 Sr1 3.159210 1_556
O15 Tb3 2.278118 1_555
O15 Sr1 3.159210 1_566
O16 Tb0 2.270174 1_555
O16 Sr0 2.593548 1_555
O16 Sr2 3.154361 1_555
O17 Tb3 2.270174 1_555
O17 Sr0 2.593548 1_555
O17 Sr2 3.154361 1_556
O18 Tb1 2.270174 1_555
O18 Sr0 2.593548 1_655
O18 Sr2 3.154361 1_655
O19 Tb2 2.270174 1_555
O19 Sr0 2.593548 1_655
O19 Sr2 3.154361 1_656
O20 Tb0 2.258820 1_555
O20 Sr3 3.131570 1_555
O21 Tb2 2.258820 1_555
O21 Sr3 3.131570 1_655
O22 Tb3 2.258820 1_555
O22 Sr3 3.131570 1_565
O23 Tb1 2.258820 1_555
O23 Sr3 3.131570 1_665
