# generated using pymatgen
data_Li3SbF6
_symmetry_space_group_name_H-M   'P 1'
_cell_length_a   5.07728193
_cell_length_b   6.40260757
_cell_length_c   7.36825862
_cell_angle_alpha   44.23139717
_cell_angle_beta   128.74727360
_cell_angle_gamma   121.67087147
_symmetry_Int_Tables_number   1
_chemical_formula_structural   Li3SbF6
_chemical_formula_sum   'Li3 Sb1 F6'
_cell_volume   129.01346883
_cell_formula_units_Z   1
loop_
 _symmetry_equiv_pos_site_id
 _symmetry_equiv_pos_as_xyz
  1  'x, y, z'
loop_
 _atom_site_type_symbol
 _atom_site_label
 _atom_site_symmetry_multiplicity
 _atom_site_fract_x
 _atom_site_fract_y
 _atom_site_fract_z
 _atom_site_occupancy
  Li  Li0  1  0.00000000  0.00000000  0.50000000  1
  Li  Li1  1  0.50000000  0.50000000  0.00000000  1
  Li  Li2  1  0.00000000  0.50000000  0.00000000  1
  Sb  Sb0  1  0.00000000  0.00000000  0.00000000  1
  F  F0  1  0.99027200  0.49708500  0.72204000  1
  F  F1  1  0.00972800  0.50291500  0.27796000  1
  F  F2  1  0.79274200  0.85620800  0.72357800  1
  F  F3  1  0.20725800  0.14379200  0.27642200  1
  F  F4  1  0.45292400  0.83299900  0.92354700  1
  F  F5  1  0.54707600  0.16700100  0.07645300  1
loop_
_geom_bond_atom_site_label_1
_geom_bond_atom_site_label_2
_geom_bond_distance
_geom_bond_site_symmetry_2
F0 Li2 2.030913 1_656
F0 Li1 2.064445 1_656
F0 Sb0 2.241342 1_656
F0 Li0 2.330677 1_665
F1 Li2 2.030913 1_555
F1 Li1 2.064445 1_455
F1 Sb0 2.241342 1_565
F1 Li0 2.330677 1_555
F2 Li2 1.907250 1_656
F2 Li0 1.909986 1_665
F2 Sb0 2.256150 1_666
F2 Li1 2.265415 1_556
F3 Li2 1.907250 1_555
F3 Li0 1.909986 1_555
F3 Sb0 2.256150 1_555
F3 Li1 2.265415 1_555
F4 Li1 1.888270 1_556
F4 Li2 2.214328 1_556
F4 Sb0 2.227505 1_666
F4 Li0 2.233255 1_565
F5 Li1 1.888270 1_555
F5 Li2 2.214328 1_655
F5 Sb0 2.227505 1_555
F5 Li0 2.233255 1_655
