# generated using pymatgen
data_Mg6SnMo
_symmetry_space_group_name_H-M   'P 1'
_cell_length_a   4.95635700
_cell_length_b   6.26158500
_cell_length_c   10.65445900
_cell_angle_alpha   90.00000000
_cell_angle_beta   90.00000000
_cell_angle_gamma   90.00000000
_symmetry_Int_Tables_number   1
_chemical_formula_structural   Mg6SnMo
_chemical_formula_sum   'Mg12 Sn2 Mo2'
_cell_volume   330.65741289
_cell_formula_units_Z   2
loop_
 _symmetry_equiv_pos_site_id
 _symmetry_equiv_pos_as_xyz
  1  'x, y, z'
loop_
 _atom_site_type_symbol
 _atom_site_label
 _atom_site_symmetry_multiplicity
 _atom_site_fract_x
 _atom_site_fract_y
 _atom_site_fract_z
 _atom_site_occupancy
  Mg  Mg0  1  0.00000000  0.26106400  0.08598100  1
  Mg  Mg1  1  0.00000000  0.73893600  0.08598100  1
  Mg  Mg2  1  0.00000000  0.50000000  0.83372400  1
  Mg  Mg3  1  0.50000000  0.25476300  0.91876700  1
  Mg  Mg4  1  0.50000000  0.74523700  0.91876700  1
  Mg  Mg5  1  0.50000000  0.50000000  0.66577200  1
  Mg  Mg6  1  0.00000000  0.76106400  0.58598100  1
  Mg  Mg7  1  0.00000000  0.23893600  0.58598100  1
  Mg  Mg8  1  0.00000000  0.00000000  0.33372400  1
  Mg  Mg9  1  0.50000000  0.75476300  0.41876700  1
  Mg  Mg10  1  0.50000000  0.24523700  0.41876700  1
  Mg  Mg11  1  0.50000000  0.00000000  0.16577200  1
  Sn  Sn0  1  0.00000000  0.50000000  0.32486300  1
  Sn  Sn1  1  0.00000000  0.00000000  0.82486300  1
  Mo  Mo0  1  0.50000000  0.50000000  0.16614600  1
  Mo  Mo1  1  0.50000000  0.00000000  0.66614600  1
loop_
_geom_bond_atom_site_label_1
_geom_bond_atom_site_label_2
_geom_bond_distance
_geom_bond_site_symmetry_2
Mg0 Sn0 2.952321 1_555
Mg0 Mg1 2.992236 1_555
Mg0 Mo0 3.018153 1_455
Mg0 Mo0 3.018153 1_555
Mg0 Mg3 3.052365 1_454
Mg0 Mg3 3.052365 1_554
Mg0 Mg2 3.076019 1_554
Mg0 Mg11 3.088082 1_455
Mg0 Mg11 3.088082 1_555
Mg0 Mg8 3.104751 1_555
Mg0 Sn1 3.226775 1_554
Mg0 Mg1 3.269349 1_545
Mg1 Sn0 2.952321 1_555
Mg1 Mo0 3.018153 1_455
Mg1 Mo0 3.018153 1_555
Mg1 Mg4 3.052365 1_554
Mg1 Mg4 3.052365 1_454
Mg1 Mg2 3.076019 1_554
Mg1 Mg11 3.088082 1_565
Mg1 Mg11 3.088082 1_465
Mg1 Mg8 3.104751 1_565
Mg1 Sn1 3.226775 1_564
Mg2 Mg4 3.052924 1_455
Mg2 Mg3 3.052924 1_455
Mg2 Mg3 3.052924 1_555
Mg2 Mg4 3.052924 1_555
Mg2 Mg5 3.056707 1_455
Mg2 Mg5 3.056707 1_555
Mg2 Mg6 3.104751 1_555
Mg2 Mg7 3.104751 1_555
Mg2 Sn1 3.132216 1_555
Mg2 Sn1 3.132216 1_565
Mg3 Mo0 3.050384 1_556
Mg3 Mg5 3.102231 1_555
Mg3 Sn1 3.112409 1_555
Mg3 Sn1 3.112409 1_655
Mg3 Mo1 3.128756 1_555
Mg4 Mo0 3.050384 1_556
Mg4 Mg5 3.102231 1_555
Mg4 Sn1 3.112409 1_565
Mg4 Sn1 3.112409 1_665
Mg4 Mo1 3.128756 1_565
Mg5 Mg9 3.077433 1_555
Mg5 Mg7 3.088082 1_655
Mg5 Mg6 3.088082 1_555
Mg5 Mg7 3.088082 1_555
Mg5 Mg6 3.088082 1_655
Mg5 Mo1 3.130795 1_565
Mg5 Mo1 3.130795 1_555
Mg6 Sn1 2.952321 1_565
Mg6 Mg7 2.992236 1_565
Mg6 Mo1 3.018153 1_565
Mg6 Mo1 3.018153 1_465
Mg6 Mg9 3.052365 1_555
Mg6 Mg9 3.052365 1_455
Mg6 Mg8 3.076019 1_565
Mg6 Sn0 3.226775 1_555
Mg6 Mg7 3.269349 1_555
Mg7 Sn1 2.952321 1_555
Mg7 Mo1 3.018153 1_555
Mg7 Mo1 3.018153 1_455
Mg7 Mg8 3.076019 1_555
Mg7 Sn0 3.226775 1_555
Mg8 Mg9 3.052924 1_445
Mg8 Mg9 3.052924 1_545
Mg8 Sn0 3.132216 1_555
Mg8 Sn0 3.132216 1_545
Mg9 Mo1 3.050384 1_565
Mg9 Sn0 3.112409 1_655
Mg9 Sn0 3.112409 1_555
Mg9 Mo0 3.128756 1_555
Mg10 Mo1 3.050384 1_555
Mg10 Mg7 3.052365 1_555
Mg10 Mg7 3.052365 1_655
Mg10 Mg8 3.052924 1_555
Mg10 Mg8 3.052924 1_655
Mg10 Mg5 3.077433 1_555
Mg10 Mg11 3.102231 1_555
Mg10 Sn0 3.112409 1_655
Mg10 Sn0 3.112409 1_555
Mg10 Mo0 3.128756 1_555
Mg11 Mg8 3.056707 1_655
Mg11 Mg8 3.056707 1_555
Mg11 Mg4 3.077433 1_544
Mg11 Mg3 3.077433 1_554
Mg11 Mg9 3.102231 1_545
Mg11 Mo0 3.130795 1_545
Mg11 Mo0 3.130795 1_555
Mo0 Sn0 3.000166 1_655
Mo0 Sn0 3.000166 1_555
Mo1 Sn1 3.000166 1_555
Mo1 Sn1 3.000166 1_655
