# generated using pymatgen
data_ErCo5P3
_symmetry_space_group_name_H-M   'P 1'
_cell_length_a   3.62359785
_cell_length_b   10.15781902
_cell_length_c   11.61726197
_cell_angle_alpha   90.00000000
_cell_angle_beta   90.00000000
_cell_angle_gamma   90.00000000
_symmetry_Int_Tables_number   1
_chemical_formula_structural   ErCo5P3
_chemical_formula_sum   'Er4 Co20 P12'
_cell_volume   427.60644950
_cell_formula_units_Z   4
loop_
 _symmetry_equiv_pos_site_id
 _symmetry_equiv_pos_as_xyz
  1  'x, y, z'
loop_
 _atom_site_type_symbol
 _atom_site_label
 _atom_site_symmetry_multiplicity
 _atom_site_fract_x
 _atom_site_fract_y
 _atom_site_fract_z
 _atom_site_occupancy
  Er  Er0  1  0.25000000  0.58142653  0.70163112  1
  Er  Er1  1  0.25000000  0.91857347  0.20163112  1
  Er  Er2  1  0.75000000  0.41857347  0.29836888  1
  Er  Er3  1  0.75000000  0.08142653  0.79836888  1
  Co  Co0  1  0.25000000  0.71178772  0.98940230  1
  Co  Co1  1  0.25000000  0.78821228  0.48940230  1
  Co  Co2  1  0.75000000  0.28821228  0.01059770  1
  Co  Co3  1  0.75000000  0.21178772  0.51059770  1
  Co  Co4  1  0.25000000  0.40566094  0.48690759  1
  Co  Co5  1  0.25000000  0.09433906  0.98690759  1
  Co  Co6  1  0.75000000  0.59433906  0.51309241  1
  Co  Co7  1  0.75000000  0.90566094  0.01309241  1
  Co  Co8  1  0.25000000  0.22197091  0.17525078  1
  Co  Co9  1  0.25000000  0.27802909  0.67525078  1
  Co  Co10  1  0.75000000  0.77802909  0.82474922  1
  Co  Co11  1  0.75000000  0.72197091  0.32474922  1
  Co  Co12  1  0.25000000  0.88239404  0.69886724  1
  Co  Co13  1  0.25000000  0.61760596  0.19886724  1
  Co  Co14  1  0.75000000  0.11760596  0.30113276  1
  Co  Co15  1  0.75000000  0.38239404  0.80113276  1
  Co  Co16  1  0.25000000  0.46628053  0.93292162  1
  Co  Co17  1  0.25000000  0.03371947  0.43292162  1
  Co  Co18  1  0.75000000  0.53371947  0.06707838  1
  Co  Co19  1  0.75000000  0.96628053  0.56707838  1
  P  P0  1  0.25000000  0.42028156  0.11405147  1
  P  P1  1  0.25000000  0.07971844  0.61405147  1
  P  P2  1  0.75000000  0.57971844  0.88594853  1
  P  P3  1  0.75000000  0.92028156  0.38594853  1
  P  P4  1  0.25000000  0.26965600  0.86665239  1
  P  P5  1  0.25000000  0.23034400  0.36665239  1
  P  P6  1  0.75000000  0.73034400  0.13334761  1
  P  P7  1  0.75000000  0.76965600  0.63334761  1
  P  P8  1  0.25000000  0.60133200  0.39215630  1
  P  P9  1  0.25000000  0.89866800  0.89215630  1
  P  P10  1  0.75000000  0.39866800  0.60784370  1
  P  P11  1  0.75000000  0.10133200  0.10784370  1
loop_
_geom_bond_atom_site_label_1
_geom_bond_atom_site_label_2
_geom_bond_distance
_geom_bond_site_symmetry_2
Er0 P7 2.750934 1_555
Er0 P7 2.750934 1_455
Er0 P2 2.804982 1_455
Er0 P2 2.804982 1_555
Er0 P10 2.813550 1_455
Er0 P10 2.813550 1_555
Er1 P6 2.750934 1_555
Er1 P6 2.750934 1_455
Er1 P3 2.804982 1_555
Er1 P3 2.804982 1_455
Er1 P11 2.813550 1_465
Er1 P11 2.813550 1_565
Er2 P5 2.750934 1_555
Er2 P5 2.750934 1_655
Er2 P0 2.804982 1_555
Er2 P0 2.804982 1_655
Er2 P8 2.813550 1_555
Er2 P8 2.813550 1_655
Er3 P4 2.750934 1_655
Er3 P4 2.750934 1_555
Er3 P1 2.804982 1_655
Er3 P1 2.804982 1_555
Er3 P9 2.813550 1_545
Er3 P9 2.813550 1_645
Co0 P9 2.209032 1_555
Co0 P6 2.472765 1_556
Co0 P6 2.472765 1_456
Co0 P2 2.554756 1_455
Co0 P2 2.554756 1_555
Co0 Er1 3.238957 1_556
Co1 P8 2.209032 1_555
Co1 P7 2.472765 1_555
Co1 P7 2.472765 1_455
Co1 P3 2.554756 1_555
Co1 P3 2.554756 1_455
Co1 Er0 3.238957 1_555
Co2 P11 2.209032 1_555
Co2 P4 2.472765 1_654
Co2 P4 2.472765 1_554
Co2 P0 2.554756 1_655
Co2 P0 2.554756 1_555
Co2 Er3 3.238957 1_554
Co3 P10 2.209032 1_555
Co3 P5 2.472765 1_655
Co3 P5 2.472765 1_555
Co3 P1 2.554756 1_655
Co3 P1 2.554756 1_555
Co3 Er2 3.238957 1_555
Co4 P5 2.263425 1_555
Co4 P8 2.272041 1_555
Co4 P10 2.293804 1_555
Co4 P10 2.293804 1_455
Co4 Er2 2.845567 1_455
Co4 Er2 2.845567 1_555
Co4 Er0 3.067599 1_555
Co5 P4 2.263425 1_555
Co5 P9 2.272041 1_545
Co5 P11 2.293804 1_456
Co5 P11 2.293804 1_556
Co5 Er3 2.845567 1_455
Co5 Er3 2.845567 1_555
Co5 Er1 3.067599 1_546
Co6 P7 2.263425 1_555
Co6 P10 2.272041 1_555
Co6 P8 2.293804 1_655
Co6 P8 2.293804 1_555
Co6 Er0 2.845567 1_555
Co6 Er0 2.845567 1_655
Co6 Er2 3.067599 1_555
Co7 P6 2.263425 1_555
Co7 P11 2.272041 1_565
Co7 P9 2.293804 1_654
Co7 P9 2.293804 1_554
Co7 Er1 2.845567 1_555
Co7 Er1 2.845567 1_655
Co7 Er3 3.067599 1_564
Co8 P0 2.136188 1_555
Co8 P5 2.225189 1_555
Co8 P11 2.323255 1_455
Co8 P11 2.323255 1_555
Co8 Er2 3.052308 1_455
Co8 Er2 3.052308 1_555
Co8 Er1 3.097057 1_545
Co9 P1 2.136188 1_555
Co9 P4 2.225189 1_555
Co9 P10 2.323255 1_555
Co9 P10 2.323255 1_455
Co9 Er3 3.052308 1_455
Co9 Er3 3.052308 1_555
Co9 Er0 3.097057 1_555
Co10 P2 2.136188 1_555
Co10 P7 2.225189 1_555
Co10 P9 2.323255 1_655
Co10 P9 2.323255 1_555
Co10 Er0 3.052308 1_655
Co10 Er0 3.052308 1_555
Co10 Er3 3.097057 1_565
Co11 P3 2.136188 1_555
Co11 P6 2.225189 1_555
Co11 P8 2.323255 1_555
Co11 P8 2.323255 1_655
Co11 Er1 3.052308 1_555
Co11 Er1 3.052308 1_655
Co11 Er2 3.097057 1_555
Co12 P1 2.233480 1_565
Co12 P9 2.251566 1_555
Co12 P7 2.274511 1_555
Co12 P7 2.274511 1_455
Co12 Er3 2.950631 1_465
Co12 Er3 2.950631 1_565
Co12 Er0 3.057342 1_555
Co13 P0 2.233480 1_555
Co13 P8 2.251566 1_555
Co13 P6 2.274511 1_555
Co13 P6 2.274511 1_455
Co13 Er2 2.950631 1_555
Co13 Er2 2.950631 1_455
Co13 Er1 3.057342 1_555
Co14 P3 2.233480 1_545
Co14 P11 2.251566 1_555
Co14 P5 2.274511 1_655
Co14 P5 2.274511 1_555
Co14 Er1 2.950631 1_645
Co14 Er1 2.950631 1_545
Co14 Er2 3.057342 1_555
Co15 P2 2.233480 1_555
Co15 P10 2.251566 1_555
Co15 P4 2.274511 1_555
Co15 P4 2.274511 1_655
Co15 Er0 2.950631 1_655
Co15 Er0 2.950631 1_555
Co15 Er3 3.057342 1_555
Co16 P4 2.140516 1_555
Co16 P0 2.155486 1_556
Co16 P2 2.215436 1_555
Co16 P2 2.215436 1_455
Co16 Er0 2.930496 1_555
Co17 P5 2.140516 1_555
Co17 P1 2.155486 1_555
Co17 P3 2.215436 1_445
Co17 P3 2.215436 1_545
Co17 Er1 2.930496 1_545
Co18 P6 2.140516 1_555
Co18 P2 2.155486 1_554
Co18 P0 2.215436 1_555
Co18 P0 2.215436 1_655
Co18 Er2 2.930496 1_555
Co19 P7 2.140516 1_555
Co19 P3 2.155486 1_555
Co19 P1 2.215436 1_565
Co19 P1 2.215436 1_665
Co19 Er3 2.930496 1_565
