# generated using pymatgen
data_Ba2TbBiO6
_symmetry_space_group_name_H-M   'P 1'
_cell_length_a   8.73355354
_cell_length_b   8.73355354
_cell_length_c   8.73355354
_cell_angle_alpha   90.00000000
_cell_angle_beta   90.00000000
_cell_angle_gamma   90.00000000
_symmetry_Int_Tables_number   1
_chemical_formula_structural   Ba2TbBiO6
_chemical_formula_sum   'Ba8 Tb4 Bi4 O24'
_cell_volume   666.15142453
_cell_formula_units_Z   4
loop_
 _symmetry_equiv_pos_site_id
 _symmetry_equiv_pos_as_xyz
  1  'x, y, z'
loop_
 _atom_site_type_symbol
 _atom_site_label
 _atom_site_symmetry_multiplicity
 _atom_site_fract_x
 _atom_site_fract_y
 _atom_site_fract_z
 _atom_site_occupancy
  Ba  Ba0  1  0.50000000  0.50000000  0.50000000  1
  Ba  Ba1  1  -0.00000000  -0.00000000  0.00000000  1
  Ba  Ba2  1  -0.00000000  -0.00000000  0.50000000  1
  Ba  Ba3  1  -0.00000000  0.50000000  0.00000000  1
  Ba  Ba4  1  0.50000000  -0.00000000  0.00000000  1
  Ba  Ba5  1  0.50000000  0.50000000  0.00000000  1
  Ba  Ba6  1  0.50000000  -0.00000000  0.50000000  1
  Ba  Ba7  1  -0.00000000  0.50000000  0.50000000  1
  Tb  Tb0  1  0.25000000  0.25000000  0.25000000  1
  Tb  Tb1  1  0.25000000  0.75000000  0.75000000  1
  Tb  Tb2  1  0.75000000  0.25000000  0.75000000  1
  Tb  Tb3  1  0.75000000  0.75000000  0.25000000  1
  Bi  Bi0  1  0.75000000  0.75000000  0.75000000  1
  Bi  Bi1  1  0.75000000  0.25000000  0.25000000  1
  Bi  Bi2  1  0.25000000  0.75000000  0.25000000  1
  Bi  Bi3  1  0.25000000  0.25000000  0.75000000  1
  O  O0  1  0.23007143  0.27336825  0.50659300  1
  O  O1  1  0.23007143  0.72663175  0.49340700  1
  O  O2  1  0.76992857  0.27336825  0.49340700  1
  O  O3  1  0.76992857  0.72663175  0.50659300  1
  O  O4  1  0.27336825  0.50659300  0.23007143  1
  O  O5  1  0.72663175  0.49340700  0.23007143  1
  O  O6  1  0.27336825  0.49340700  0.76992857  1
  O  O7  1  0.72663175  0.50659300  0.76992857  1
  O  O8  1  0.50659300  0.23007143  0.27336825  1
  O  O9  1  0.49340700  0.23007143  0.72663175  1
  O  O10  1  0.49340700  0.76992857  0.27336825  1
  O  O11  1  0.50659300  0.76992857  0.72663175  1
  O  O12  1  0.26992857  0.22663175  0.99340700  1
  O  O13  1  0.26992857  0.77336825  0.00659300  1
  O  O14  1  0.73007143  0.22663175  0.00659300  1
  O  O15  1  0.73007143  0.77336825  0.99340700  1
  O  O16  1  0.22663175  0.99340700  0.26992857  1
  O  O17  1  0.77336825  0.00659300  0.26992857  1
  O  O18  1  0.22663175  0.00659300  0.73007143  1
  O  O19  1  0.77336825  0.99340700  0.73007143  1
  O  O20  1  0.99340700  0.26992857  0.22663175  1
  O  O21  1  0.00659300  0.26992857  0.77336825  1
  O  O22  1  0.00659300  0.73007143  0.22663175  1
  O  O23  1  0.99340700  0.73007143  0.77336825  1
loop_
_geom_bond_atom_site_label_1
_geom_bond_atom_site_label_2
_geom_bond_distance
_geom_bond_site_symmetry_2
Ba0 O4 3.078709 1_555
Ba0 O5 3.078709 1_555
Ba0 O6 3.078709 1_555
Ba0 O7 3.078709 1_555
Ba0 O8 3.078709 1_555
Ba0 O9 3.078709 1_555
Ba0 O10 3.078709 1_555
Ba0 O2 3.078709 1_555
Ba0 O0 3.078709 1_555
Ba0 O3 3.078709 1_555
Ba0 O1 3.078709 1_555
Ba0 O11 3.078709 1_555
Ba1 O21 3.078709 1_554
Ba1 O12 3.078709 1_554
Ba1 O13 3.078709 1_545
Ba1 O20 3.078709 1_455
Ba1 O17 3.078709 1_455
Ba1 O16 3.078709 1_545
Ba1 O19 3.078709 1_444
Ba1 O14 3.078709 1_455
Ba1 O22 3.078709 1_545
Ba1 O18 3.078709 1_554
Ba1 O23 3.078709 1_444
Ba1 O15 3.078709 1_444
Ba2 O18 2.821063 1_555
Ba2 O19 2.821063 1_445
Ba2 O17 2.821063 1_455
Ba2 O16 2.821063 1_545
Ba2 O0 3.121027 1_555
Ba2 O2 3.121027 1_455
Ba2 O1 3.121027 1_545
Ba2 O3 3.121027 1_445
Ba2 O20 3.355721 1_455
Ba2 O21 3.355721 1_555
Ba2 O23 3.355721 1_445
Ba2 O22 3.355721 1_545
Ba3 O23 2.821063 1_454
Ba3 O22 2.821063 1_555
Ba3 O20 2.821063 1_455
Ba3 O21 2.821063 1_554
Ba3 O6 3.121027 1_554
Ba3 O5 3.121027 1_455
Ba3 O7 3.121027 1_454
Ba3 O4 3.121027 1_555
Ba3 O12 3.355721 1_554
Ba3 O13 3.355721 1_555
Ba3 O15 3.355721 1_454
Ba3 O14 3.355721 1_455
Ba4 O14 2.821063 1_555
Ba4 O15 2.821063 1_544
Ba4 O12 2.821063 1_554
Ba4 O13 2.821063 1_545
Ba4 O8 3.121027 1_555
Ba4 O9 3.121027 1_554
Ba4 O11 3.121027 1_544
Ba4 O10 3.121027 1_545
Ba4 O19 3.355721 1_544
Ba4 O17 3.355721 1_555
Ba4 O16 3.355721 1_545
Ba4 O18 3.355721 1_554
Ba5 O6 2.821063 1_554
Ba5 O7 2.821063 1_554
Ba5 O5 2.821063 1_555
Ba5 O4 2.821063 1_555
Ba5 O15 3.121027 1_554
Ba5 O12 3.121027 1_554
Ba5 O14 3.121027 1_555
Ba5 O13 3.121027 1_555
Ba5 O11 3.355721 1_554
Ba5 O9 3.355721 1_554
Ba5 O8 3.355721 1_555
Ba5 O10 3.355721 1_555
Ba6 O10 2.821063 1_545
Ba6 O11 2.821063 1_545
Ba6 O9 2.821063 1_555
Ba6 O8 2.821063 1_555
Ba6 O19 3.121027 1_545
Ba6 O17 3.121027 1_555
Ba6 O16 3.121027 1_545
Ba6 O18 3.121027 1_555
Ba6 O3 3.355721 1_545
Ba6 O1 3.355721 1_545
Ba6 O0 3.355721 1_555
Ba6 O2 3.355721 1_555
Ba7 O3 2.821063 1_455
Ba7 O2 2.821063 1_455
Ba7 O0 2.821063 1_555
Ba7 O1 2.821063 1_555
Ba7 O21 3.121027 1_555
Ba7 O22 3.121027 1_555
Ba7 O23 3.121027 1_455
Ba7 O20 3.121027 1_455
Ba7 O7 3.355721 1_455
Ba7 O4 3.355721 1_555
Ba7 O5 3.355721 1_455
Ba7 O6 3.355721 1_555
Bi0 O15 2.142663 1_555
Bi0 O3 2.142663 1_555
Bi0 O7 2.142663 1_555
Bi0 O19 2.142663 1_555
Bi0 O11 2.142663 1_555
Bi0 O23 2.142663 1_555
Bi1 O5 2.142663 1_555
Bi1 O14 2.142663 1_555
Bi1 O2 2.142663 1_555
Bi1 O17 2.142663 1_555
Bi1 O20 2.142663 1_555
Bi1 O8 2.142663 1_555
Bi2 O1 2.142663 1_555
Bi2 O13 2.142663 1_555
Bi2 O4 2.142663 1_555
Bi2 O10 2.142663 1_555
Bi2 O16 2.142663 1_555
Bi2 O22 2.142663 1_555
Bi3 O9 2.142663 1_555
Bi3 O21 2.142663 1_555
Bi3 O18 2.142663 1_555
Bi3 O6 2.142663 1_555
Bi3 O12 2.142663 1_555
Bi3 O0 2.142663 1_555
O0 Tb0 2.256964 1_555
O1 Tb1 2.256964 1_555
O2 Tb2 2.256964 1_555
O3 Tb3 2.256964 1_555
O4 Tb0 2.256964 1_555
O5 Tb3 2.256964 1_555
O6 Tb1 2.256964 1_555
O7 Tb2 2.256964 1_555
O8 Tb0 2.256964 1_555
O9 Tb2 2.256964 1_555
O10 Tb3 2.256964 1_555
O11 Tb1 2.256964 1_555
O12 Tb0 2.256964 1_556
O13 Tb1 2.256964 1_554
O14 Tb2 2.256964 1_554
O15 Tb3 2.256964 1_556
O16 Tb0 2.256964 1_565
O17 Tb3 2.256964 1_545
O18 Tb1 2.256964 1_545
O19 Tb2 2.256964 1_565
O20 Tb0 2.256964 1_655
O21 Tb2 2.256964 1_455
O22 Tb3 2.256964 1_455
O23 Tb1 2.256964 1_655
