# generated using pymatgen
data_Li7Mn5O12
_symmetry_space_group_name_H-M   'P 1'
_cell_length_a   4.95155527
_cell_length_b   9.72194904
_cell_length_c   4.95232209
_cell_angle_alpha   92.99098120
_cell_angle_beta   62.41481896
_cell_angle_gamma   101.31102276
_symmetry_Int_Tables_number   1
_chemical_formula_structural   Li7Mn5O12
_chemical_formula_sum   'Li7 Mn5 O12'
_cell_volume   206.98934191
_cell_formula_units_Z   1
loop_
 _symmetry_equiv_pos_site_id
 _symmetry_equiv_pos_as_xyz
  1  'x, y, z'
loop_
 _atom_site_type_symbol
 _atom_site_label
 _atom_site_symmetry_multiplicity
 _atom_site_fract_x
 _atom_site_fract_y
 _atom_site_fract_z
 _atom_site_occupancy
  Li  Li0  1  0.33333224  0.00000020  0.33333500  1
  Li  Li1  1  0.75220171  0.24268856  0.99587354  1
  Li  Li2  1  0.91446381  0.75731180  0.67079028  1
  Li  Li3  1  0.57315965  0.75450010  0.33673500  1
  Li  Li4  1  0.09350607  0.24550159  0.32993748  1
  Li  Li5  1  0.42061009  0.24635232  0.65520353  1
  Li  Li6  1  0.24605137  0.75364989  0.01146758  1
  Mn  Mn0  1  0.49993995  0.49910515  0.99966145  1
  Mn  Mn1  1  0.16671531  0.50089426  0.66701203  1
  Mn  Mn2  1  0.83333172  0.50000018  0.33333616  1
  Mn  Mn3  1  0.00136472  0.99999668  0.00119407  1
  Mn  Mn4  1  0.66530798  0.00000165  0.66546905  1
  O  O0  1  0.01721685  0.11168978  0.68665949  1
  O  O1  1  0.64946007  0.88830919  0.97999889  1
  O  O2  1  0.84230600  0.61876749  0.03083416  1
  O  O3  1  0.82435483  0.38123264  0.63583592  1
  O  O4  1  0.74012537  0.10921292  0.31905490  1
  O  O5  1  0.92655511  0.89078607  0.34760242  1
  O  O6  1  0.38407525  0.10932696  0.96281827  1
  O  O7  1  0.28260325  0.89067178  0.70383795  1
  O  O8  1  0.17765748  0.62186342  0.36282409  1
  O  O9  1  0.48900254  0.37813639  0.30384660  1
  O  O10  1  0.50991689  0.61929778  0.69636859  1
  O  O11  1  0.15674174  0.38070120  0.97030556  1
loop_
_geom_bond_atom_site_label_1
_geom_bond_atom_site_label_2
_geom_bond_distance
_geom_bond_site_symmetry_2
Li0 O5 2.055819 1_445
Li0 O4 2.055858 1_555
Li0 O7 2.057046 1_545
Li0 O6 2.057069 1_554
Li0 O0 2.150046 1_555
Li0 O1 2.150108 1_544
Li1 O0 2.068793 1_655
Li1 O4 2.084877 1_556
Li1 O6 2.087472 1_555
Li1 O9 2.093172 1_556
Li1 O11 2.134781 1_655
Li1 O3 2.143103 1_555
Li2 O1 2.068750 1_555
Li2 O5 2.084861 1_555
Li2 O7 2.087498 1_655
Li2 O8 2.093151 1_655
Li2 O10 2.134796 1_555
Li2 O2 2.143121 1_556
Li3 O5 1.997681 1_555
Li3 O8 2.075350 1_555
Li3 O1 2.094053 1_554
Li3 O2 2.103282 1_555
Li3 O10 2.136384 1_555
Li3 O7 2.280618 1_555
Li4 O4 1.997668 1_455
Li4 O9 2.075316 1_555
Li4 O0 2.094033 1_555
Li4 O3 2.103277 1_455
Li4 O11 2.136374 1_554
Li4 O6 2.280699 1_554
Li5 O6 1.997535 1_555
Li5 O9 2.073784 1_555
Li5 O11 2.101584 1_555
Li5 O0 2.106004 1_555
Li5 O3 2.128983 1_555
Li5 O4 2.282217 1_555
Li6 O7 1.997534 1_554
Li6 O8 2.073795 1_555
Li6 O10 2.101594 1_554
Li6 O1 2.106030 1_554
Li6 O2 2.128996 1_455
Li6 O5 2.282126 1_455
Mn0 O11 1.917822 1_555
Mn0 O2 1.923821 1_556
Mn0 O10 1.927604 1_555
Mn0 O9 1.933826 1_556
Mn0 O3 2.228477 1_555
Mn0 O8 2.251785 1_556
Mn1 O10 1.917835 1_555
Mn1 O3 1.923803 1_455
Mn1 O11 1.927617 1_555
Mn1 O8 1.933829 1_555
Mn1 O2 2.228462 1_456
Mn1 O9 2.251799 1_555
Mn2 O3 1.917848 1_555
Mn2 O2 1.917861 1_555
Mn2 O8 1.937002 1_655
Mn2 O9 1.937021 1_555
Mn2 O11 2.233034 1_654
Mn2 O10 2.233040 1_555
Mn3 O0 1.908268 1_564
Mn3 O1 1.908287 1_454
Mn3 O6 1.911642 1_564
Mn3 O5 1.911755 1_455
Mn3 O7 1.937910 1_554
Mn3 O4 1.938332 1_465
Mn4 O1 1.908254 1_545
Mn4 O0 1.908296 1_655
Mn4 O7 1.911628 1_545
Mn4 O4 1.911770 1_555
Mn4 O6 1.937885 1_555
Mn4 O5 1.938357 1_545
