# generated using pymatgen
data_Sr4SiP4
_symmetry_space_group_name_H-M   'P 1'
_cell_length_a   12.45999716
_cell_length_b   12.45999716
_cell_length_c   12.45999716
_cell_angle_alpha   90.00000000
_cell_angle_beta   90.00000000
_cell_angle_gamma   90.00000000
_symmetry_Int_Tables_number   1
_chemical_formula_structural   Sr4SiP4
_chemical_formula_sum   'Sr32 Si8 P32'
_cell_volume   1934.43361326
_cell_formula_units_Z   8
loop_
 _symmetry_equiv_pos_site_id
 _symmetry_equiv_pos_as_xyz
  1  'x, y, z'
loop_
 _atom_site_type_symbol
 _atom_site_label
 _atom_site_symmetry_multiplicity
 _atom_site_fract_x
 _atom_site_fract_y
 _atom_site_fract_z
 _atom_site_occupancy
  Sr  Sr0  1  0.35423326  0.35423326  0.35423326  1
  Sr  Sr1  1  0.64576674  0.64576674  0.35423326  1
  Sr  Sr2  1  0.64576674  0.35423326  0.64576674  1
  Sr  Sr3  1  0.85423326  0.85423326  0.85423326  1
  Sr  Sr4  1  0.35423326  0.64576674  0.64576674  1
  Sr  Sr5  1  0.14576674  0.14576674  0.85423326  1
  Sr  Sr6  1  0.85423326  0.14576674  0.14576674  1
  Sr  Sr7  1  0.14576674  0.85423326  0.14576674  1
  Sr  Sr8  1  0.09465866  0.13309786  0.35454054  1
  Sr  Sr9  1  0.90534134  0.86690214  0.35454054  1
  Sr  Sr10  1  0.90534134  0.13309786  0.64545946  1
  Sr  Sr11  1  0.35454054  0.09465866  0.13309786  1
  Sr  Sr12  1  0.63309786  0.59465866  0.85454054  1
  Sr  Sr13  1  0.09465866  0.86690214  0.64545946  1
  Sr  Sr14  1  0.35454054  0.90534134  0.86690214  1
  Sr  Sr15  1  0.36690214  0.40534134  0.85454054  1
  Sr  Sr16  1  0.64545946  0.90534134  0.13309786  1
  Sr  Sr17  1  0.63309786  0.40534134  0.14545946  1
  Sr  Sr18  1  0.64545946  0.09465866  0.86690214  1
  Sr  Sr19  1  0.36690214  0.59465866  0.14545946  1
  Sr  Sr20  1  0.13309786  0.35454054  0.09465866  1
  Sr  Sr21  1  0.59465866  0.85454054  0.63309786  1
  Sr  Sr22  1  0.13309786  0.64545946  0.90534134  1
  Sr  Sr23  1  0.40534134  0.14545946  0.63309786  1
  Sr  Sr24  1  0.86690214  0.64545946  0.09465866  1
  Sr  Sr25  1  0.59465866  0.14545946  0.36690214  1
  Sr  Sr26  1  0.86690214  0.35454054  0.90534134  1
  Sr  Sr27  1  0.40534134  0.85454054  0.36690214  1
  Sr  Sr28  1  0.85454054  0.63309786  0.59465866  1
  Sr  Sr29  1  0.85454054  0.36690214  0.40534134  1
  Sr  Sr30  1  0.14545946  0.36690214  0.59465866  1
  Sr  Sr31  1  0.14545946  0.63309786  0.40534134  1
  Si  Si0  1  0.25000000  -0.00000000  0.50000000  1
  Si  Si1  1  0.75000000  -0.00000000  0.50000000  1
  Si  Si2  1  0.50000000  0.25000000  -0.00000000  1
  Si  Si3  1  0.50000000  0.75000000  -0.00000000  1
  Si  Si4  1  0.00000000  0.50000000  0.25000000  1
  Si  Si5  1  0.00000000  0.50000000  0.75000000  1
  Si  Si6  1  0.00000000  -0.00000000  -0.00000000  1
  Si  Si7  1  0.50000000  0.50000000  0.50000000  1
  P  P0  1  0.10380906  0.38631367  0.34939913  1
  P  P1  1  0.89619094  0.61368633  0.34939913  1
  P  P2  1  0.89619094  0.38631367  0.65060087  1
  P  P3  1  0.34939913  0.10380906  0.38631367  1
  P  P4  1  0.88631367  0.60380906  0.84939913  1
  P  P5  1  0.10380906  0.61368633  0.65060087  1
  P  P6  1  0.34939913  0.89619094  0.61368633  1
  P  P7  1  0.11368633  0.39619094  0.84939913  1
  P  P8  1  0.65060087  0.89619094  0.38631367  1
  P  P9  1  0.88631367  0.39619094  0.15060087  1
  P  P10  1  0.65060087  0.10380906  0.61368633  1
  P  P11  1  0.11368633  0.60380906  0.15060087  1
  P  P12  1  0.38631367  0.34939913  0.10380906  1
  P  P13  1  0.60380906  0.84939913  0.88631367  1
  P  P14  1  0.38631367  0.65060087  0.89619094  1
  P  P15  1  0.39619094  0.15060087  0.88631367  1
  P  P16  1  0.61368633  0.65060087  0.10380906  1
  P  P17  1  0.60380906  0.15060087  0.11368633  1
  P  P18  1  0.61368633  0.34939913  0.89619094  1
  P  P19  1  0.39619094  0.84939913  0.11368633  1
  P  P20  1  0.84939913  0.88631367  0.60380906  1
  P  P21  1  0.84939913  0.11368633  0.39619094  1
  P  P22  1  0.15060087  0.11368633  0.60380906  1
  P  P23  1  0.15060087  0.88631367  0.39619094  1
  P  P24  1  0.10529208  0.10529208  0.10529208  1
  P  P25  1  0.89470792  0.89470792  0.10529208  1
  P  P26  1  0.89470792  0.10529208  0.89470792  1
  P  P27  1  0.60529208  0.60529208  0.60529208  1
  P  P28  1  0.10529208  0.89470792  0.89470792  1
  P  P29  1  0.39470792  0.39470792  0.60529208  1
  P  P30  1  0.60529208  0.39470792  0.39470792  1
  P  P31  1  0.39470792  0.60529208  0.39470792  1
loop_
_geom_bond_atom_site_label_1
_geom_bond_atom_site_label_2
_geom_bond_distance
_geom_bond_site_symmetry_2
Si0 Sr13 3.127544 1_545
Si0 Sr27 3.127544 1_545
Si0 Sr8 3.127544 1_555
Si0 Sr23 3.127544 1_555
Si1 Sr21 3.127544 1_545
Si1 Sr10 3.127544 1_555
Si1 Sr9 3.127544 1_545
Si1 Sr25 3.127544 1_555
Si2 Sr18 3.127544 1_554
Si2 Sr11 3.127544 1_555
Si2 Sr15 3.127544 1_554
Si2 Sr17 3.127544 1_555
Si3 Sr16 3.127544 1_555
Si3 Sr14 3.127544 1_554
Si3 Sr12 3.127544 1_554
Si3 Sr19 3.127544 1_555
Si4 Sr29 3.127544 1_455
Si4 Sr20 3.127544 1_555
Si4 Sr24 3.127544 1_455
Si4 Sr31 3.127544 1_555
Si5 Sr22 3.127544 1_555
Si5 Sr26 3.127544 1_455
Si5 Sr28 3.127544 1_455
Si5 Sr30 3.127544 1_555
Si6 Sr3 3.145843 1_444
Si6 Sr7 3.145843 1_545
Si6 Sr5 3.145843 1_554
Si6 Sr6 3.145843 1_455
Si7 Sr4 3.145843 1_555
Si7 Sr1 3.145843 1_555
Si7 Sr2 3.145843 1_555
Si7 Sr0 3.145843 1_555
P0 Si4 2.283312 1_555
P0 Sr30 3.109108 1_555
P0 Sr0 3.146360 1_555
P0 Sr8 3.157778 1_555
P0 Sr29 3.192317 1_455
P0 Sr31 3.195369 1_555
P0 Sr20 3.219410 1_555
P1 Si4 2.283312 1_655
P1 Sr28 3.109108 1_555
P1 Sr1 3.146360 1_555
P1 Sr9 3.157778 1_555
P1 Sr31 3.192317 1_655
P1 Sr29 3.195369 1_555
P1 Sr24 3.219410 1_555
P2 Si5 2.283312 1_655
P2 Sr29 3.109108 1_555
P2 Sr2 3.146360 1_555
P2 Sr10 3.157778 1_555
P2 Sr30 3.192317 1_655
P2 Sr28 3.195369 1_555
P2 Sr26 3.219410 1_555
P3 Si0 2.283312 1_555
P3 Sr25 3.109108 1_555
P3 Sr0 3.146360 1_555
P3 Sr11 3.157778 1_555
P3 Sr27 3.192317 1_545
P3 Sr23 3.195369 1_555
P3 Sr8 3.219410 1_555
P4 Si5 2.283312 1_655
P4 Sr24 3.109108 1_556
P4 Sr3 3.146360 1_555
P4 Sr12 3.157778 1_555
P4 Sr26 3.192317 1_555
P4 Sr22 3.195369 1_655
P4 Sr28 3.219410 1_555
P5 Si5 2.283312 1_555
P5 Sr31 3.109108 1_555
P5 Sr4 3.146360 1_555
P5 Sr13 3.157778 1_555
P5 Sr28 3.192317 1_455
P5 Sr30 3.195369 1_555
P5 Sr22 3.219410 1_555
P6 Si0 2.283312 1_565
P6 Sr21 3.109108 1_555
P6 Sr4 3.146360 1_555
P6 Sr14 3.157778 1_555
P6 Sr23 3.192317 1_565
P6 Sr27 3.195369 1_555
P6 Sr13 3.219410 1_555
P7 Si5 2.283312 1_555
P7 Sr20 3.109108 1_556
P7 Sr5 3.146360 1_555
P7 Sr15 3.157778 1_555
P7 Sr22 3.192317 1_555
P7 Sr26 3.195369 1_455
P7 Sr30 3.219410 1_555
P8 Si1 2.283312 1_565
P8 Sr27 3.109108 1_555
P8 Sr1 3.146360 1_555
P8 Sr16 3.157778 1_555
P8 Sr25 3.192317 1_565
P8 Sr21 3.195369 1_555
P8 Sr9 3.219410 1_555
P9 Si4 2.283312 1_655
P9 Sr26 3.109108 1_554
P9 Sr6 3.146360 1_555
P9 Sr17 3.157778 1_555
P9 Sr24 3.192317 1_555
P9 Sr20 3.195369 1_655
P9 Sr29 3.219410 1_555
P10 Si1 2.283312 1_555
P10 Sr23 3.109108 1_555
P10 Sr2 3.146360 1_555
P10 Sr18 3.157778 1_555
P10 Sr21 3.192317 1_545
P10 Sr25 3.195369 1_555
P10 Sr10 3.219410 1_555
P11 Si4 2.283312 1_555
P11 Sr22 3.109108 1_554
P11 Sr7 3.146360 1_555
P11 Sr19 3.157778 1_555
P11 Sr20 3.192317 1_555
P11 Sr24 3.195369 1_455
P11 Sr31 3.219410 1_555
P12 Si2 2.283312 1_555
P12 Sr19 3.109108 1_555
P12 Sr0 3.146360 1_555
P12 Sr20 3.157778 1_555
P12 Sr15 3.192317 1_554
P12 Sr17 3.195369 1_555
P12 Sr11 3.219410 1_555
P13 Si3 2.283312 1_556
P13 Sr18 3.109108 1_565
P13 Sr3 3.146360 1_555
P13 Sr21 3.157778 1_555
P13 Sr14 3.192317 1_555
P13 Sr16 3.195369 1_556
P13 Sr12 3.219410 1_555
P14 Si3 2.283312 1_556
P14 Sr15 3.109108 1_555
P14 Sr4 3.146360 1_555
P14 Sr22 3.157778 1_555
P14 Sr19 3.192317 1_556
P14 Sr12 3.195369 1_555
P14 Sr14 3.219410 1_555
P15 Si2 2.283312 1_556
P15 Sr14 3.109108 1_545
P15 Sr5 3.146360 1_555
P15 Sr23 3.157778 1_555
P15 Sr18 3.192317 1_555
P15 Sr11 3.195369 1_556
P15 Sr15 3.219410 1_555
P16 Si3 2.283312 1_555
P16 Sr17 3.109108 1_555
P16 Sr1 3.146360 1_555
P16 Sr24 3.157778 1_555
P16 Sr12 3.192317 1_554
P16 Sr19 3.195369 1_555
P16 Sr16 3.219410 1_555
P17 Si2 2.283312 1_555
P17 Sr16 3.109108 1_545
P17 Sr6 3.146360 1_555
P17 Sr25 3.157778 1_555
P17 Sr11 3.192317 1_555
P17 Sr18 3.195369 1_554
P17 Sr17 3.219410 1_555
P18 Si2 2.283312 1_556
P18 Sr12 3.109108 1_555
P18 Sr2 3.146360 1_555
P18 Sr26 3.157778 1_555
P18 Sr17 3.192317 1_556
P18 Sr15 3.195369 1_555
P18 Sr18 3.219410 1_555
P19 Si3 2.283312 1_555
P19 Sr11 3.109108 1_565
P19 Sr7 3.146360 1_555
P19 Sr27 3.157778 1_555
P19 Sr16 3.192317 1_555
P19 Sr14 3.195369 1_554
P19 Sr19 3.219410 1_555
P20 Si1 2.283312 1_565
P20 Sr13 3.109108 1_655
P20 Sr3 3.146360 1_555
P20 Sr28 3.157778 1_555
P20 Sr9 3.192317 1_555
P20 Sr10 3.195369 1_565
P20 Sr21 3.219410 1_555
P21 Si1 2.283312 1_555
P21 Sr8 3.109108 1_655
P21 Sr6 3.146360 1_555
P21 Sr29 3.157778 1_555
P21 Sr10 3.192317 1_555
P21 Sr9 3.195369 1_545
P21 Sr25 3.219410 1_555
P22 Si0 2.283312 1_555
P22 Sr10 3.109108 1_455
P22 Sr5 3.146360 1_555
P22 Sr30 3.157778 1_555
P22 Sr8 3.192317 1_555
P22 Sr13 3.195369 1_545
P22 Sr23 3.219410 1_555
P23 Si0 2.283312 1_565
P23 Sr9 3.109108 1_455
P23 Sr7 3.146360 1_555
P23 Sr31 3.157778 1_555
P23 Sr13 3.192317 1_555
P23 Sr8 3.195369 1_565
P23 Sr27 3.219410 1_555
P24 Si6 2.272345 1_555
P24 Sr11 3.127708 1_555
P24 Sr8 3.127708 1_555
P24 Sr20 3.127708 1_555
P24 Sr7 3.208466 1_545
P24 Sr5 3.208466 1_554
P24 Sr6 3.208466 1_455
P25 Si6 2.272345 1_665
P25 Sr24 3.127708 1_555
P25 Sr9 3.127708 1_555
P25 Sr16 3.127708 1_555
P25 Sr7 3.208466 1_655
P25 Sr3 3.208466 1_554
P25 Sr6 3.208466 1_565
P26 Si6 2.272345 1_656
P26 Sr10 3.127708 1_555
P26 Sr18 3.127708 1_555
P26 Sr26 3.127708 1_555
P26 Sr3 3.208466 1_545
P26 Sr5 3.208466 1_655
P26 Sr6 3.208466 1_556
P27 Si7 2.272345 1_555
P27 Sr28 3.127708 1_555
P27 Sr21 3.127708 1_555
P27 Sr12 3.127708 1_555
P27 Sr1 3.208466 1_555
P27 Sr2 3.208466 1_555
P27 Sr4 3.208466 1_555
P28 Si6 2.272345 1_566
P28 Sr14 3.127708 1_555
P28 Sr13 3.127708 1_555
P28 Sr22 3.127708 1_555
P28 Sr5 3.208466 1_565
P28 Sr3 3.208466 1_455
P28 Sr7 3.208466 1_556
P29 Si7 2.272345 1_555
P29 Sr23 3.127708 1_555
P29 Sr30 3.127708 1_555
P29 Sr15 3.127708 1_555
P29 Sr2 3.208466 1_555
P29 Sr0 3.208466 1_555
P29 Sr4 3.208466 1_555
P30 Si7 2.272345 1_555
P30 Sr25 3.127708 1_555
P30 Sr17 3.127708 1_555
P30 Sr29 3.127708 1_555
P30 Sr1 3.208466 1_555
P30 Sr2 3.208466 1_555
P30 Sr0 3.208466 1_555
P31 Si7 2.272345 1_555
P31 Sr19 3.127708 1_555
P31 Sr31 3.127708 1_555
P31 Sr27 3.127708 1_555
P31 Sr1 3.208466 1_555
P31 Sr0 3.208466 1_555
P31 Sr4 3.208466 1_555
