# generated using pymatgen
data_Rb2MnBi2
_symmetry_space_group_name_H-M   'P 1'
_cell_length_a   7.48230400
_cell_length_b   7.48230400
_cell_length_c   33.87182400
_cell_angle_alpha   90.00000000
_cell_angle_beta   90.00000000
_cell_angle_gamma   90.00000000
_symmetry_Int_Tables_number   1
_chemical_formula_structural   Rb2MnBi2
_chemical_formula_sum   'Rb16 Mn8 Bi16'
_cell_volume   1896.30976995
_cell_formula_units_Z   8
loop_
 _symmetry_equiv_pos_site_id
 _symmetry_equiv_pos_as_xyz
  1  'x, y, z'
loop_
 _atom_site_type_symbol
 _atom_site_label
 _atom_site_symmetry_multiplicity
 _atom_site_fract_x
 _atom_site_fract_y
 _atom_site_fract_z
 _atom_site_occupancy
  Rb  Rb0_0  1  0.25000000  0.25000000  0.31778950  1
  Rb  Rb0_1  1  0.25000000  0.25000000  0.81778950  1
  Rb  Rb0_2  1  0.25000000  0.75000000  0.31778950  1
  Rb  Rb0_3  1  0.25000000  0.75000000  0.81778950  1
  Rb  Rb0_4  1  0.75000000  0.25000000  0.31778950  1
  Rb  Rb0_5  1  0.75000000  0.25000000  0.81778950  1
  Rb  Rb0_6  1  0.75000000  0.75000000  0.31778950  1
  Rb  Rb0_7  1  0.75000000  0.75000000  0.81778950  1
  Rb  Rb1_0  1  0.25000000  0.25000000  0.18221050  1
  Rb  Rb1_1  1  0.25000000  0.25000000  0.68221050  1
  Rb  Rb1_2  1  0.25000000  0.75000000  0.18221050  1
  Rb  Rb1_3  1  0.25000000  0.75000000  0.68221050  1
  Rb  Rb1_4  1  0.75000000  0.25000000  0.18221050  1
  Rb  Rb1_5  1  0.75000000  0.25000000  0.68221050  1
  Rb  Rb1_6  1  0.75000000  0.75000000  0.18221050  1
  Rb  Rb1_7  1  0.75000000  0.75000000  0.68221050  1
  Mn  Mn0_0  1  0.25000000  0.25000000  0.00000000  1
  Mn  Mn0_1  1  0.25000000  0.25000000  0.50000000  1
  Mn  Mn0_2  1  0.25000000  0.75000000  0.00000000  1
  Mn  Mn0_3  1  0.25000000  0.75000000  0.50000000  1
  Mn  Mn0_4  1  0.75000000  0.25000000  0.00000000  1
  Mn  Mn0_5  1  0.75000000  0.25000000  0.50000000  1
  Mn  Mn0_6  1  0.75000000  0.75000000  0.00000000  1
  Mn  Mn0_7  1  0.75000000  0.75000000  0.50000000  1
  Bi  Bi0_0  1  0.25000000  0.25000000  0.07859500  1
  Bi  Bi0_1  1  0.25000000  0.25000000  0.57859500  1
  Bi  Bi0_2  1  0.25000000  0.75000000  0.07859500  1
  Bi  Bi0_3  1  0.25000000  0.75000000  0.57859500  1
  Bi  Bi0_4  1  0.75000000  0.25000000  0.07859500  1
  Bi  Bi0_5  1  0.75000000  0.25000000  0.57859500  1
  Bi  Bi0_6  1  0.75000000  0.75000000  0.07859500  1
  Bi  Bi0_7  1  0.75000000  0.75000000  0.57859500  1
  Bi  Bi1_0  1  0.25000000  0.25000000  0.42140500  1
  Bi  Bi1_1  1  0.25000000  0.25000000  0.92140500  1
  Bi  Bi1_2  1  0.25000000  0.75000000  0.42140500  1
  Bi  Bi1_3  1  0.25000000  0.75000000  0.92140500  1
  Bi  Bi1_4  1  0.75000000  0.25000000  0.42140500  1
  Bi  Bi1_5  1  0.75000000  0.25000000  0.92140500  1
  Bi  Bi1_6  1  0.75000000  0.75000000  0.42140500  1
  Bi  Bi1_7  1  0.75000000  0.75000000  0.92140500  1
loop_
_geom_bond_atom_site_label_1
_geom_bond_atom_site_label_2
_geom_bond_distance
_geom_bond_site_symmetry_2
Rb0_0 Rb0_2 3.741152 1_545
Rb0_0 Rb0_4 3.741152 1_455
Rb0_0 Rb0_2 3.741152 1_555
Rb0_0 Rb0_4 3.741152 1_555
Rb0_0 Rb1_0 4.592308 1_555
Rb0_1 Rb0_5 3.741152 1_455
Rb0_1 Rb0_3 3.741152 1_545
Rb0_1 Rb0_3 3.741152 1_555
Rb0_1 Rb0_5 3.741152 1_555
Rb0_1 Rb1_1 4.592308 1_555
Rb0_2 Rb0_6 3.741152 1_455
Rb0_2 Rb0_6 3.741152 1_555
Rb0_2 Rb1_2 4.592308 1_555
Rb0_3 Rb0_7 3.741152 1_455
Rb0_3 Rb0_7 3.741152 1_555
Rb0_3 Rb1_3 4.592308 1_555
Rb0_4 Rb0_6 3.741152 1_545
Rb0_4 Rb0_6 3.741152 1_555
Rb0_4 Rb1_4 4.592308 1_555
Rb0_5 Rb0_7 3.741152 1_545
Rb0_5 Rb0_7 3.741152 1_555
Rb0_5 Rb1_5 4.592308 1_555
Rb0_6 Rb1_6 4.592308 1_555
Rb0_7 Rb1_7 4.592308 1_555
Rb1_0 Rb1_2 3.741152 1_545
Rb1_0 Rb1_4 3.741152 1_455
Rb1_0 Rb1_4 3.741152 1_555
Rb1_0 Rb1_2 3.741152 1_555
Rb1_1 Rb1_3 3.741152 1_545
Rb1_1 Rb1_5 3.741152 1_455
Rb1_1 Rb1_3 3.741152 1_555
Rb1_1 Rb1_5 3.741152 1_555
Rb1_2 Rb1_6 3.741152 1_455
Rb1_2 Rb1_6 3.741152 1_555
Rb1_3 Rb1_7 3.741152 1_455
Rb1_3 Rb1_7 3.741152 1_555
Rb1_4 Rb1_6 3.741152 1_545
Rb1_4 Rb1_6 3.741152 1_555
Rb1_5 Rb1_7 3.741152 1_545
Rb1_5 Rb1_7 3.741152 1_555
Bi0_0 Mn0_0 2.662156 1_555
Bi0_0 Rb1_0 3.509646 1_555
Bi0_1 Mn0_1 2.662156 1_555
Bi0_1 Rb1_1 3.509646 1_555
Bi0_2 Mn0_2 2.662156 1_555
Bi0_2 Rb1_2 3.509646 1_555
Bi0_3 Mn0_3 2.662156 1_555
Bi0_3 Rb1_3 3.509646 1_555
Bi0_4 Mn0_4 2.662156 1_555
Bi0_4 Rb1_4 3.509646 1_555
Bi0_5 Mn0_5 2.662156 1_555
Bi0_5 Rb1_5 3.509646 1_555
Bi0_6 Mn0_6 2.662156 1_555
Bi0_6 Rb1_6 3.509646 1_555
Bi0_7 Mn0_7 2.662156 1_555
Bi0_7 Rb1_7 3.509646 1_555
Bi1_0 Mn0_1 2.662156 1_555
Bi1_0 Rb0_0 3.509646 1_555
Bi1_1 Mn0_0 2.662156 1_556
Bi1_1 Rb0_1 3.509646 1_555
Bi1_2 Mn0_3 2.662156 1_555
Bi1_2 Rb0_2 3.509646 1_555
Bi1_3 Mn0_2 2.662156 1_556
Bi1_3 Rb0_3 3.509646 1_555
Bi1_4 Mn0_5 2.662156 1_555
Bi1_4 Rb0_4 3.509646 1_555
Bi1_5 Mn0_4 2.662156 1_556
Bi1_5 Rb0_5 3.509646 1_555
Bi1_6 Mn0_7 2.662156 1_555
Bi1_6 Rb0_6 3.509646 1_555
Bi1_7 Mn0_6 2.662156 1_556
Bi1_7 Rb0_7 3.509646 1_555
