# generated using pymatgen
data_Mn4CdS5
_symmetry_space_group_name_H-M   'P 1'
_cell_length_a   15.29788931
_cell_length_b   15.29788931
_cell_length_c   15.29788969
_cell_angle_alpha   13.86102784
_cell_angle_beta   13.86102784
_cell_angle_gamma   13.86102809
_symmetry_Int_Tables_number   1
_chemical_formula_structural   Mn4CdS5
_chemical_formula_sum   'Mn4 Cd1 S5'
_cell_volume   178.81114900
_cell_formula_units_Z   1
loop_
 _symmetry_equiv_pos_site_id
 _symmetry_equiv_pos_as_xyz
  1  'x, y, z'
loop_
 _atom_site_type_symbol
 _atom_site_label
 _atom_site_symmetry_multiplicity
 _atom_site_fract_x
 _atom_site_fract_y
 _atom_site_fract_z
 _atom_site_occupancy
  Mn  Mn0  1  0.59789700  0.59789700  0.59789700  1
  Mn  Mn1  1  0.19952800  0.19952800  0.19952800  1
  Mn  Mn2  1  0.80047200  0.80047200  0.80047200  1
  Mn  Mn3  1  0.40210300  0.40210300  0.40210300  1
  Cd  Cd0  1  0.00000000  0.00000000  0.00000000  1
  S  S0  1  0.70389100  0.70389100  0.70389100  1
  S  S1  1  0.50000000  0.50000000  0.50000000  1
  S  S2  1  0.10098000  0.10098000  0.10098000  1
  S  S3  1  0.29610900  0.29610900  0.29610900  1
  S  S4  1  0.89902000  0.89902000  0.89902000  1
loop_
_geom_bond_atom_site_label_1
_geom_bond_atom_site_label_2
_geom_bond_distance
_geom_bond_site_symmetry_2
Mn0 S3 2.568755 1_565
Mn0 S3 2.568755 1_655
Mn0 S3 2.568755 1_556
Mn0 S4 2.585743 1_455
Mn0 S4 2.585743 1_545
Mn0 S4 2.585743 1_554
Mn1 S4 2.601668 1_454
Mn1 S4 2.601668 1_544
Mn1 S4 2.601668 1_445
Mn1 S1 2.602606 1_545
Mn1 S1 2.602606 1_455
Mn1 S1 2.602606 1_554
Mn2 S2 2.601668 1_656
Mn2 S2 2.601668 1_566
Mn2 S2 2.601668 1_665
Mn2 S1 2.602606 1_565
Mn2 S1 2.602606 1_655
Mn2 S1 2.602606 1_556
Mn3 S0 2.568755 1_545
Mn3 S0 2.568755 1_455
Mn3 S0 2.568755 1_554
Mn3 S2 2.585743 1_565
Mn3 S2 2.585743 1_655
Mn3 S2 2.585743 1_556
Cd0 S3 2.721232 1_545
Cd0 S3 2.721232 1_455
Cd0 S0 2.721232 1_454
Cd0 S0 2.721232 1_544
Cd0 S3 2.721233 1_554
Cd0 S0 2.721233 1_445
