# generated using pymatgen
data_SrLiP
_symmetry_space_group_name_H-M   'P 1'
_cell_length_a   4.37129639
_cell_length_b   4.37129644
_cell_length_c   8.04126415
_cell_angle_alpha   90.00000000
_cell_angle_beta   90.00000000
_cell_angle_gamma   119.99998416
_symmetry_Int_Tables_number   1
_chemical_formula_structural   SrLiP
_chemical_formula_sum   'Sr2 Li2 P2'
_cell_volume   133.06858620
_cell_formula_units_Z   2
loop_
 _symmetry_equiv_pos_site_id
 _symmetry_equiv_pos_as_xyz
  1  'x, y, z'
loop_
 _atom_site_type_symbol
 _atom_site_label
 _atom_site_symmetry_multiplicity
 _atom_site_fract_x
 _atom_site_fract_y
 _atom_site_fract_z
 _atom_site_occupancy
  Sr  Sr0  1  0.00000000  0.00000000  0.00000000  1
  Sr  Sr1  1  0.00000000  0.00000000  0.50000000  1
  Li  Li0  1  0.33333300  0.66666700  0.25000000  1
  Li  Li1  1  0.66666700  0.33333300  0.75000000  1
  P  P0  1  0.33333300  0.66666700  0.75000000  1
  P  P1  1  0.66666700  0.33333300  0.25000000  1
loop_
_geom_bond_atom_site_label_1
_geom_bond_atom_site_label_2
_geom_bond_distance
_geom_bond_site_symmetry_2
Li0 P1 2.523767 1_455
Li0 P1 2.523767 1_565
Li0 P1 2.523774 1_555
Li0 Sr0 3.226572 1_565
Li0 Sr1 3.226572 1_565
Li0 Sr0 3.226576 1_665
Li0 Sr1 3.226576 1_665
Li0 Sr0 3.226576 1_555
Li0 Sr1 3.226576 1_555
Li1 P0 2.523767 1_655
Li1 P0 2.523767 1_545
Li1 P0 2.523774 1_555
Li1 Sr0 3.226572 1_656
Li1 Sr1 3.226572 1_655
Li1 Sr1 3.226576 1_555
Li1 Sr0 3.226576 1_556
Li1 Sr0 3.226576 1_666
Li1 Sr1 3.226576 1_665
P0 Sr0 3.226572 1_566
P0 Sr1 3.226572 1_565
P0 Sr0 3.226576 1_666
P0 Sr1 3.226576 1_665
P0 Sr0 3.226576 1_556
P0 Sr1 3.226576 1_555
P1 Sr1 3.226572 1_655
P1 Sr0 3.226572 1_655
P1 Sr1 3.226576 1_555
P1 Sr0 3.226576 1_555
P1 Sr0 3.226576 1_665
P1 Sr1 3.226576 1_665
