# generated using pymatgen
data_La3Eu
_symmetry_space_group_name_H-M   'P 1'
_cell_length_a   7.55612371
_cell_length_b   7.55612371
_cell_length_c   5.97690400
_cell_angle_alpha   90.00000000
_cell_angle_beta   90.00000000
_cell_angle_gamma   119.99999744
_symmetry_Int_Tables_number   1
_chemical_formula_structural   La3Eu
_chemical_formula_sum   'La6 Eu2'
_cell_volume   295.53236021
_cell_formula_units_Z   2
loop_
 _symmetry_equiv_pos_site_id
 _symmetry_equiv_pos_as_xyz
  1  'x, y, z'
loop_
 _atom_site_type_symbol
 _atom_site_label
 _atom_site_symmetry_multiplicity
 _atom_site_fract_x
 _atom_site_fract_y
 _atom_site_fract_z
 _atom_site_occupancy
  La  La0  1  0.16373000  0.32746000  0.25000000  1
  La  La1  1  0.67254000  0.83627000  0.25000000  1
  La  La2  1  0.16373000  0.83627000  0.25000000  1
  La  La3  1  0.83627000  0.67254000  0.75000000  1
  La  La4  1  0.32746000  0.16373000  0.75000000  1
  La  La5  1  0.83627000  0.16373000  0.75000000  1
  Eu  Eu0  1  0.33333300  0.66666700  0.75000000  1
  Eu  Eu1  1  0.66666700  0.33333300  0.25000000  1
loop_
_geom_bond_atom_site_label_1
_geom_bond_atom_site_label_2
_geom_bond_distance
_geom_bond_site_symmetry_2
La0 La4 3.677305 1_554
La0 La4 3.677305 1_555
La0 La5 3.677305 1_454
La0 La5 3.677305 1_455
La0 La2 3.711492 1_545
La0 La1 3.711493 1_445
La0 La2 3.844631 1_555
La0 La1 3.844631 1_555
La1 La3 3.677305 1_554
La1 La3 3.677305 1_555
La1 La5 3.677305 1_565
La1 La5 3.677305 1_564
La1 La2 3.711492 1_655
La1 La2 3.844631 1_555
La2 La4 3.677305 1_564
La2 La4 3.677305 1_565
La2 La3 3.677305 1_454
La2 La3 3.677305 1_455
La3 La5 3.711492 1_565
La3 La4 3.711493 1_665
La3 La5 3.844631 1_555
La3 La4 3.844631 1_555
La4 La5 3.711492 1_455
La4 La5 3.844631 1_555
Eu0 La2 3.722619 1_556
Eu0 La2 3.722619 1_555
Eu0 La0 3.722623 1_555
Eu0 La0 3.722623 1_556
Eu0 La1 3.722623 1_556
Eu0 La1 3.722623 1_555
Eu0 La4 3.778254 1_565
Eu0 La3 3.778254 1_455
Eu0 La5 3.778258 1_565
Eu0 La5 3.778258 1_455
Eu0 La3 3.778261 1_555
Eu0 La4 3.778261 1_555
Eu1 La5 3.722619 1_555
Eu1 La5 3.722619 1_554
Eu1 La4 3.722623 1_555
Eu1 La4 3.722623 1_554
Eu1 La3 3.722623 1_554
Eu1 La3 3.722623 1_555
Eu1 La0 3.778254 1_655
Eu1 La1 3.778254 1_545
Eu1 La2 3.778258 1_655
Eu1 La2 3.778258 1_545
Eu1 La0 3.778261 1_555
Eu1 La1 3.778261 1_555
