# generated using pymatgen
data_Li9Co7O16
_symmetry_space_group_name_H-M   'P 1'
_cell_length_a   6.55625593
_cell_length_b   6.55625593
_cell_length_c   8.29431153
_cell_angle_alpha   89.39915017
_cell_angle_beta   89.39915017
_cell_angle_gamma   52.81354196
_symmetry_Int_Tables_number   1
_chemical_formula_structural   Li9Co7O16
_chemical_formula_sum   'Li9 Co7 O16'
_cell_volume   284.01570585
_cell_formula_units_Z   1
loop_
 _symmetry_equiv_pos_site_id
 _symmetry_equiv_pos_as_xyz
  1  'x, y, z'
loop_
 _atom_site_type_symbol
 _atom_site_label
 _atom_site_symmetry_multiplicity
 _atom_site_fract_x
 _atom_site_fract_y
 _atom_site_fract_z
 _atom_site_occupancy
  Li  Li0  1  0.25071100  0.25071100  0.99982400  1
  Li  Li1  1  0.87078300  0.37743300  0.24682200  1
  Li  Li2  1  0.62256700  0.12921700  0.75317800  1
  Li  Li3  1  0.00000000  0.00000000  0.50000000  1
  Li  Li4  1  0.37743300  0.87078300  0.24682200  1
  Li  Li5  1  0.74928900  0.74928900  0.00017600  1
  Li  Li6  1  0.12921700  0.62256700  0.75317800  1
  Li  Li7  1  0.50000000  0.50000000  0.50000000  1
  Li  Li8  1  0.50000000  0.50000000  0.00000000  1
  Co  Co0  1  0.00000000  0.00000000  0.00000000  1
  Co  Co1  1  0.62366000  0.13425500  0.24449900  1
  Co  Co2  1  0.24984800  0.24984800  0.49962900  1
  Co  Co3  1  0.86574500  0.37634000  0.75550100  1
  Co  Co4  1  0.13425500  0.62366000  0.24449900  1
  Co  Co5  1  0.75015200  0.75015200  0.50037100  1
  Co  Co6  1  0.37634000  0.86574500  0.75550100  1
  O  O0  1  0.88786000  0.34367500  0.99100800  1
  O  O1  1  0.48998800  0.48998800  0.25445000  1
  O  O2  1  0.24201900  0.24201900  0.74316800  1
  O  O3  1  0.61908900  0.11652300  0.49350600  1
  O  O4  1  0.99688900  0.99688900  0.23301800  1
  O  O5  1  0.34367500  0.88786000  0.99100800  1
  O  O6  1  0.74384000  0.74384000  0.74329500  1
  O  O7  1  0.11652300  0.61908900  0.49350600  1
  O  O8  1  0.65632500  0.11214000  0.00899200  1
  O  O9  1  0.25616000  0.25616000  0.25670500  1
  O  O10  1  0.00311100  0.00311100  0.76698200  1
  O  O11  1  0.38091100  0.88347700  0.50649400  1
  O  O12  1  0.75798100  0.75798100  0.25683200  1
  O  O13  1  0.11214000  0.65632500  0.00899200  1
  O  O14  1  0.51001200  0.51001200  0.74555000  1
  O  O15  1  0.88347700  0.38091100  0.50649400  1
loop_
_geom_bond_atom_site_label_1
_geom_bond_atom_site_label_2
_geom_bond_distance
_geom_bond_site_symmetry_2
Li0 O5 2.070310 1_545
Li0 O0 2.070310 1_455
Li0 O9 2.132361 1_556
Li0 O2 2.132424 1_555
Li0 O13 2.232794 1_556
Li0 O8 2.232794 1_556
Li1 O4 2.105208 1_545
Li1 O0 2.130369 1_554
Li1 O12 2.133374 1_555
Li1 O1 2.133573 1_555
Li1 O9 2.144135 1_655
Li1 O15 2.157171 1_555
Li2 O10 2.105208 1_655
Li2 O8 2.130369 1_556
Li2 O2 2.133374 1_555
Li2 O14 2.133573 1_555
Li2 O6 2.144135 1_545
Li2 O3 2.157171 1_555
Li3 O11 2.125789 1_545
Li3 O15 2.125789 1_455
Li3 O3 2.125789 1_455
Li3 O7 2.125789 1_545
Li3 O10 2.215161 1_555
Li3 O4 2.215161 1_445
Li4 O4 2.105208 1_455
Li4 O5 2.130369 1_554
Li4 O12 2.133374 1_555
Li4 O1 2.133573 1_555
Li4 O9 2.144135 1_565
Li4 O11 2.157171 1_555
Li5 O13 2.070310 1_655
Li5 O8 2.070310 1_565
Li5 O6 2.132361 1_554
Li5 O12 2.132424 1_555
Li5 O5 2.232794 1_554
Li5 O0 2.232794 1_554
Li6 O10 2.105208 1_565
Li6 O13 2.130369 1_556
Li6 O2 2.133374 1_555
Li6 O14 2.133573 1_555
Li6 O6 2.144135 1_455
Li6 O7 2.157171 1_555
Li7 O1 2.041434 1_555
Li7 O14 2.041434 1_555
Li7 O15 2.136027 1_555
Li7 O7 2.136027 1_555
Li7 O11 2.136027 1_555
Li7 O3 2.136027 1_555
Li8 O5 2.090341 1_554
Li8 O0 2.090341 1_554
Li8 O8 2.090341 1_555
Li8 O13 2.090341 1_555
Li8 O14 2.112386 1_554
Li8 O1 2.112386 1_555
Co0 O0 1.902155 1_454
Co0 O5 1.902155 1_544
Co0 O13 1.902155 1_545
Co0 O8 1.902155 1_455
Co0 O4 1.932641 1_445
Co0 O10 1.932641 1_554
Co1 O1 1.935483 1_555
Co1 O8 1.960144 1_555
Co1 O9 2.030542 1_555
Co1 O4 2.034906 1_545
Co1 O12 2.059675 1_545
Co1 O3 2.068315 1_555
Co2 O15 2.003609 1_455
Co2 O11 2.003609 1_545
Co2 O9 2.015383 1_555
Co2 O7 2.016803 1_555
Co2 O3 2.016803 1_555
Co2 O2 2.021004 1_555
Co3 O14 1.935483 1_555
Co3 O0 1.960144 1_555
Co3 O6 2.030542 1_555
Co3 O10 2.034906 1_655
Co3 O2 2.059675 1_655
Co3 O15 2.068315 1_555
Co4 O1 1.935483 1_555
Co4 O13 1.960144 1_555
Co4 O9 2.030542 1_555
Co4 O4 2.034906 1_455
Co4 O12 2.059675 1_455
Co4 O7 2.068315 1_555
Co5 O3 2.003609 1_565
Co5 O7 2.003609 1_655
Co5 O6 2.015383 1_555
Co5 O11 2.016803 1_555
Co5 O15 2.016803 1_555
Co5 O12 2.021004 1_555
Co6 O14 1.935483 1_555
Co6 O5 1.960144 1_555
Co6 O6 2.030542 1_555
Co6 O10 2.034906 1_565
Co6 O2 2.059675 1_565
Co6 O11 2.068315 1_555
