# generated using pymatgen
data_Mg(CuO2)2
_symmetry_space_group_name_H-M   'P 1'
_cell_length_a   5.90722660
_cell_length_b   5.90722660
_cell_length_c   5.90722710
_cell_angle_alpha   60.54684997
_cell_angle_beta   60.54684997
_cell_angle_gamma   60.54684861
_symmetry_Int_Tables_number   1
_chemical_formula_structural   Mg(CuO2)2
_chemical_formula_sum   'Mg2 Cu4 O8'
_cell_volume   147.56003230
_cell_formula_units_Z   2
loop_
 _symmetry_equiv_pos_site_id
 _symmetry_equiv_pos_as_xyz
  1  'x, y, z'
loop_
 _atom_site_type_symbol
 _atom_site_label
 _atom_site_symmetry_multiplicity
 _atom_site_fract_x
 _atom_site_fract_y
 _atom_site_fract_z
 _atom_site_occupancy
  Mg  Mg0  1  0.01155100  0.01155100  0.01155100  1
  Mg  Mg1  1  0.62524800  0.62524800  0.62524800  1
  Cu  Cu0  1  0.24440000  0.24440000  0.24440000  1
  Cu  Cu1  1  0.62613900  0.12287400  0.62613900  1
  Cu  Cu2  1  0.62613900  0.62613900  0.12287400  1
  Cu  Cu3  1  0.12287400  0.62613900  0.62613900  1
  O  O0  1  0.83648000  0.37677000  0.37677000  1
  O  O1  1  0.37677000  0.37677000  0.83648000  1
  O  O2  1  0.37677000  0.83648000  0.37677000  1
  O  O3  1  0.37525700  0.37525700  0.37525700  1
  O  O4  1  0.87356300  0.87356300  0.87356300  1
  O  O5  1  0.86835800  0.41809700  0.86835800  1
  O  O6  1  0.86835800  0.86835800  0.41809700  1
  O  O7  1  0.41809700  0.86835800  0.86835800  1
loop_
_geom_bond_atom_site_label_1
_geom_bond_atom_site_label_2
_geom_bond_distance
_geom_bond_site_symmetry_2
Mg0 O7 1.976525 1_544
Mg0 O5 1.976525 1_454
Mg0 O6 1.976525 1_445
Mg0 O4 1.988352 1_444
Mg1 O6 2.047925 1_555
Mg1 O7 2.047925 1_555
Mg1 O5 2.047925 1_555
Mg1 O1 2.093414 1_555
Mg1 O2 2.093414 1_555
Mg1 O0 2.093414 1_555
Cu0 O3 1.885597 1_555
Cu0 O2 1.981090 1_545
Cu0 O0 1.981090 1_455
Cu0 O1 1.981090 1_554
Cu1 O7 1.946869 1_545
Cu1 O6 1.946869 1_545
Cu1 O0 1.955315 1_555
Cu1 O1 1.955315 1_555
Cu1 O4 2.075708 1_545
Cu1 O3 2.104678 1_555
Cu2 O7 1.946869 1_554
Cu2 O5 1.946869 1_554
Cu2 O0 1.955315 1_555
Cu2 O2 1.955315 1_555
Cu2 O4 2.075708 1_554
Cu2 O3 2.104678 1_555
Cu3 O5 1.946869 1_455
Cu3 O6 1.946869 1_455
Cu3 O2 1.955315 1_555
Cu3 O1 1.955315 1_555
Cu3 O4 2.075708 1_455
Cu3 O3 2.104678 1_555
