# generated using pymatgen
data_NaY(C2O5)2
_symmetry_space_group_name_H-M   'P 1'
_cell_length_a   11.87957700
_cell_length_b   6.79751000
_cell_length_c   6.81830753
_cell_angle_alpha   78.31645153
_cell_angle_beta   90.00000000
_cell_angle_gamma   90.00000000
_symmetry_Int_Tables_number   1
_chemical_formula_structural   NaY(C2O5)2
_chemical_formula_sum   'Na2 Y2 C8 O20'
_cell_volume   539.18120495
_cell_formula_units_Z   2
loop_
 _symmetry_equiv_pos_site_id
 _symmetry_equiv_pos_as_xyz
  1  'x, y, z'
loop_
 _atom_site_type_symbol
 _atom_site_label
 _atom_site_symmetry_multiplicity
 _atom_site_fract_x
 _atom_site_fract_y
 _atom_site_fract_z
 _atom_site_occupancy
  Na  Na0  1  0.24659600  0.30878300  0.98692600  1
  Na  Na1  1  0.74659600  0.69121700  0.01307400  1
  Y  Y0  1  0.98473600  0.17050500  0.60674200  1
  Y  Y1  1  0.48473600  0.82949500  0.39325800  1
  C  C0  1  0.08449800  0.63277200  0.74464000  1
  C  C1  1  0.58449800  0.36722800  0.25536000  1
  C  C2  1  0.00773900  0.95839700  0.10306400  1
  C  C3  1  0.50773900  0.04160300  0.89693600  1
  C  C4  1  0.27520800  0.15541400  0.52526700  1
  C  C5  1  0.77520800  0.84458600  0.47473300  1
  C  C6  1  0.77826200  0.38480200  0.84135300  1
  C  C7  1  0.27826200  0.61519800  0.15864700  1
  O  O0  1  0.08185600  0.45570100  0.77263100  1
  O  O1  1  0.58185600  0.54429900  0.22736900  1
  O  O2  1  0.07376300  0.80722500  0.69199400  1
  O  O3  1  0.57376300  0.19277500  0.30800600  1
  O  O4  1  0.92437100  0.86200600  0.12928700  1
  O  O5  1  0.42437100  0.13799400  0.87071300  1
  O  O6  1  0.09545800  0.03412900  0.05621900  1
  O  O7  1  0.59545800  0.96587100  0.94378100  1
  O  O8  1  0.20314700  0.17854800  0.63810400  1
  O  O9  1  0.70314700  0.82145200  0.36189600  1
  O  O10  1  0.34869300  0.09706000  0.43765800  1
  O  O11  1  0.84869300  0.90294000  0.56234200  1
  O  O12  1  0.75947900  0.56210200  0.73346400  1
  O  O13  1  0.25947900  0.43789800  0.26653600  1
  O  O14  1  0.84014100  0.25559200  0.76631700  1
  O  O15  1  0.34014100  0.74440800  0.23368300  1
  O  O16  1  0.98147100  0.24610800  0.32455000  1
  O  O17  1  0.48147100  0.75389200  0.67545000  1
  O  O18  1  0.74148300  0.33470500  0.02204100  1
  O  O19  1  0.24148300  0.66529500  0.97795900  1
loop_
_geom_bond_atom_site_label_1
_geom_bond_atom_site_label_2
_geom_bond_distance
_geom_bond_site_symmetry_2
Na0 O13 2.259647 1_556
Na0 O19 2.412521 1_555
Na0 O0 2.524138 1_555
Na0 O6 2.564212 1_556
Na0 O5 2.609272 1_555
Na0 O8 2.749465 1_555
Na1 O12 2.259647 1_554
Na1 O18 2.412521 1_555
Na1 O1 2.524138 1_555
Na1 O7 2.564212 1_554
Na1 O4 2.609272 1_555
Na1 O9 2.749465 1_555
C0 O2 1.174284 1_555
C0 O0 1.180307 1_555
C1 O3 1.174284 1_555
C1 O1 1.180307 1_555
C2 O6 1.177425 1_565
C2 O4 1.180965 1_455
C3 O7 1.177425 1_545
C3 O5 1.180965 1_555
C4 O10 1.171412 1_555
C4 O8 1.182569 1_555
C5 O11 1.171412 1_555
C5 O9 1.182569 1_555
C6 O18 1.286365 1_556
C6 O12 1.297828 1_555
C6 O14 1.324967 1_555
C7 O19 1.286365 1_554
C7 O13 1.297828 1_555
C7 O15 1.324967 1_555
O0 Y0 2.693848 1_455
O1 Y1 2.693848 1_555
O2 Y0 2.640641 1_465
O3 Y1 2.640641 1_545
O8 Y0 2.604910 1_455
O9 Y1 2.604910 1_555
O10 Y1 2.496894 1_545
O11 Y0 2.496894 1_565
O14 Y0 2.173429 1_555
O15 Y1 2.173429 1_555
O16 Y0 1.888699 1_555
O17 Y1 1.888699 1_555
