# generated using pymatgen
data_LiTaN2
_symmetry_space_group_name_H-M   'P 1'
_cell_length_a   18.59389220
_cell_length_b   4.15914215
_cell_length_c   4.16608123
_cell_angle_alpha   89.99994134
_cell_angle_beta   90.00000124
_cell_angle_gamma   89.99995110
_symmetry_Int_Tables_number   1
_chemical_formula_structural   LiTaN2
_chemical_formula_sum   'Li8 Ta8 N16'
_cell_volume   322.18239485
_cell_formula_units_Z   8
loop_
 _symmetry_equiv_pos_site_id
 _symmetry_equiv_pos_as_xyz
  1  'x, y, z'
loop_
 _atom_site_type_symbol
 _atom_site_label
 _atom_site_symmetry_multiplicity
 _atom_site_fract_x
 _atom_site_fract_y
 _atom_site_fract_z
 _atom_site_occupancy
  Li  Li0  1  0.18717055  0.99652102  0.74452059  1
  Li  Li1  1  0.81282930  0.00348026  0.25547931  1
  Li  Li2  1  0.31283156  0.99652139  0.24451994  1
  Li  Li3  1  0.68716840  0.00347838  0.75547799  1
  Li  Li4  1  0.06258594  0.49964053  0.74975573  1
  Li  Li5  1  0.93741356  0.50035995  0.25024355  1
  Li  Li6  1  0.43741463  0.49964069  0.24975564  1
  Li  Li7  1  0.56258564  0.50035965  0.75024364  1
  Ta  Ta0  1  0.43757361  0.99154770  0.75477515  1
  Ta  Ta1  1  0.56242781  0.00845305  0.24522769  1
  Ta  Ta2  1  0.06242876  0.99154741  0.25477556  1
  Ta  Ta3  1  0.93756993  0.00845294  0.74522410  1
  Ta  Ta4  1  0.31249884  0.49494144  0.73340299  1
  Ta  Ta5  1  0.68750173  0.50505026  0.26660408  1
  Ta  Ta6  1  0.18750725  0.49494230  0.23340076  1
  Ta  Ta7  1  0.81249273  0.50506051  0.76659498  1
  N  N0  1  0.32468601  0.99972196  0.74936442  1
  N  N1  1  0.67531381  0.00027907  0.25063455  1
  N  N2  1  0.17531571  0.99972183  0.24936465  1
  N  N3  1  0.82468426  0.00027836  0.75063476  1
  N  N4  1  0.42534006  0.50099044  0.74729006  1
  N  N5  1  0.57466036  0.49900880  0.25271056  1
  N  N6  1  0.07466156  0.50099106  0.24729031  1
  N  N7  1  0.92533818  0.49900957  0.75270987  1
  N  N8  1  0.05037159  0.00125896  0.74842912  1
  N  N9  1  0.94962814  0.99874162  0.25157104  1
  N  N10  1  0.44962845  0.00125885  0.24842880  1
  N  N11  1  0.55037151  0.99874123  0.75157072  1
  N  N12  1  0.19961713  0.49895233  0.74975794  1
  N  N13  1  0.80038268  0.50104780  0.25024235  1
  N  N14  1  0.30038570  0.49895104  0.24975897  1
  N  N15  1  0.69961461  0.50104959  0.75024019  1
loop_
_geom_bond_atom_site_label_1
_geom_bond_atom_site_label_2
_geom_bond_distance
_geom_bond_site_symmetry_2
Li0 N2 2.074646 1_555
Li0 N12 2.082473 1_555
Li0 N12 2.102573 1_565
Li0 N2 2.114783 1_556
Li0 N8 2.543754 1_565
Li0 N0 2.557062 1_555
Li1 N3 2.074644 1_555
Li1 N13 2.082469 1_555
Li1 N13 2.102578 1_545
Li1 N3 2.114785 1_554
Li1 N9 2.543751 1_545
Li1 N1 2.557063 1_555
Li2 N0 2.074644 1_554
Li2 N14 2.082479 1_555
Li2 N14 2.102564 1_565
Li2 N0 2.114784 1_555
Li2 N10 2.543715 1_565
Li2 N2 2.557069 1_555
Li3 N1 2.074648 1_556
Li3 N15 2.082483 1_555
Li3 N15 2.102561 1_545
Li3 N1 2.114780 1_555
Li3 N11 2.543715 1_545
Li3 N3 2.557069 1_555
Li4 N6 2.084903 1_556
Li4 N8 2.085252 1_555
Li4 N8 2.098635 1_565
Li4 N6 2.105327 1_555
Li4 N12 2.547945 1_555
Li4 N7 2.552001 1_455
Li5 N7 2.084899 1_554
Li5 N9 2.085253 1_555
Li5 N9 2.098635 1_545
Li5 N7 2.105330 1_555
Li5 N13 2.547939 1_555
Li5 N6 2.552006 1_655
Li6 N4 2.084900 1_555
Li6 N10 2.085252 1_555
Li6 N10 2.098633 1_565
Li6 N4 2.105325 1_554
Li6 N14 2.547903 1_555
Li6 N5 2.551963 1_555
Li7 N5 2.084895 1_555
Li7 N11 2.085251 1_555
Li7 N11 2.098635 1_545
Li7 N5 2.105331 1_556
Li7 N15 2.547904 1_555
Li7 N4 2.551961 1_555
N0 Ta4 2.073183 1_565
N0 Ta0 2.099416 1_555
N0 Ta4 2.112695 1_555
N1 Ta5 2.073224 1_545
N1 Ta1 2.099386 1_555
N1 Ta5 2.112659 1_555
N2 Ta6 2.073196 1_565
N2 Ta2 2.099404 1_555
N2 Ta6 2.112700 1_555
N3 Ta7 2.073185 1_545
N3 Ta3 2.099380 1_555
N3 Ta7 2.112710 1_555
N4 Ta0 2.053175 1_555
N4 Ta4 2.099106 1_555
N4 Ta0 2.131248 1_545
N5 Ta1 2.053167 1_555
N5 Ta5 2.099109 1_555
N5 Ta1 2.131252 1_565
N6 Ta2 2.053170 1_555
N6 Ta6 2.099189 1_555
N6 Ta2 2.131250 1_545
N7 Ta3 2.053169 1_555
N7 Ta7 2.099184 1_555
N7 Ta3 2.131247 1_565
N8 Ta2 2.069178 1_545
N8 Ta3 2.097678 1_455
N8 Ta2 2.121745 1_546
N9 Ta3 2.069179 1_565
N9 Ta2 2.097658 1_655
N9 Ta3 2.121749 1_564
N10 Ta0 2.069174 1_544
N10 Ta1 2.097635 1_555
N10 Ta0 2.121740 1_545
N11 Ta1 2.069191 1_566
N11 Ta0 2.097608 1_555
N11 Ta1 2.121729 1_565
N12 Ta6 2.027506 1_556
N12 Ta4 2.100082 1_555
N12 Ta6 2.163003 1_555
N13 Ta7 2.027526 1_554
N13 Ta5 2.100069 1_555
N13 Ta7 2.162984 1_555
N14 Ta4 2.027518 1_555
N14 Ta6 2.100022 1_555
N14 Ta4 2.163004 1_554
N15 Ta5 2.027485 1_555
N15 Ta7 2.100016 1_555
N15 Ta5 2.163036 1_556
