# generated using pymatgen
data_Ca3N2
_symmetry_space_group_name_H-M   'P 1'
_cell_length_a   3.89770204
_cell_length_b   3.89770204
_cell_length_c   13.24486700
_cell_angle_alpha   90.00000000
_cell_angle_beta   90.00000000
_cell_angle_gamma   120.00000076
_symmetry_Int_Tables_number   1
_chemical_formula_structural   Ca3N2
_chemical_formula_sum   'Ca6 N4'
_cell_volume   174.25911490
_cell_formula_units_Z   2
loop_
 _symmetry_equiv_pos_site_id
 _symmetry_equiv_pos_as_xyz
  1  'x, y, z'
loop_
 _atom_site_type_symbol
 _atom_site_label
 _atom_site_symmetry_multiplicity
 _atom_site_fract_x
 _atom_site_fract_y
 _atom_site_fract_z
 _atom_site_occupancy
  Ca  Ca0  1  0.00000000  0.00000000  0.25000000  1
  Ca  Ca1  1  0.00000000  0.00000000  0.75000000  1
  Ca  Ca2  1  0.33333300  0.66666700  0.41393600  1
  Ca  Ca3  1  0.66666700  0.33333300  0.91393600  1
  Ca  Ca4  1  0.66666700  0.33333300  0.58606400  1
  Ca  Ca5  1  0.33333300  0.66666700  0.08606400  1
  N  N0  1  0.33333300  0.66666700  0.75000000  1
  N  N1  1  0.66666700  0.33333300  0.25000000  1
  N  N2  1  0.00000000  0.00000000  0.50000000  1
  N  N3  1  0.00000000  0.00000000  0.00000000  1
loop_
_geom_bond_atom_site_label_1
_geom_bond_atom_site_label_2
_geom_bond_distance
_geom_bond_site_symmetry_2
Ca0 N1 2.250337 1_455
Ca0 N1 2.250340 1_445
Ca0 N1 2.250340 1_555
Ca1 N0 2.250337 1_545
Ca1 N0 2.250340 1_445
Ca1 N0 2.250340 1_555
Ca2 N2 2.522579 1_565
Ca2 N2 2.522582 1_665
Ca2 N2 2.522582 1_555
Ca3 N3 2.522579 1_656
Ca3 N3 2.522582 1_666
Ca3 N3 2.522582 1_556
Ca4 N2 2.522579 1_655
Ca4 N2 2.522582 1_665
Ca4 N2 2.522582 1_555
Ca5 N3 2.522579 1_565
Ca5 N3 2.522582 1_665
Ca5 N3 2.522582 1_555
