# generated using pymatgen
data_BaLiYCu2O5
_symmetry_space_group_name_H-M   'P 1'
_cell_length_a   3.78389975
_cell_length_b   3.94366444
_cell_length_c   9.10472485
_cell_angle_alpha   90.01453902
_cell_angle_beta   90.05043196
_cell_angle_gamma   89.94981117
_symmetry_Int_Tables_number   1
_chemical_formula_structural   BaLiYCu2O5
_chemical_formula_sum   'Ba1 Li1 Y1 Cu2 O5'
_cell_volume   135.86451813
_cell_formula_units_Z   1
loop_
 _symmetry_equiv_pos_site_id
 _symmetry_equiv_pos_as_xyz
  1  'x, y, z'
loop_
 _atom_site_type_symbol
 _atom_site_label
 _atom_site_symmetry_multiplicity
 _atom_site_fract_x
 _atom_site_fract_y
 _atom_site_fract_z
 _atom_site_occupancy
  Ba  Ba0  1  0.99912300  0.99983900  0.06684300  1
  Li  Li0  1  0.00073800  0.49969000  0.83120800  1
  Y  Y0  1  0.00002300  0.00007000  0.47278200  1
  Cu  Cu0  1  0.50033400  0.50022000  0.64673700  1
  Cu  Cu1  1  0.49978100  0.49997700  0.28968400  1
  O  O0  1  0.00025500  0.50015700  0.62128900  1
  O  O1  1  0.50015500  0.00016200  0.61352800  1
  O  O2  1  0.99960100  0.49999000  0.30608900  1
  O  O3  1  0.49982300  0.99999000  0.29400300  1
  O  O4  1  0.50016400  0.49989900  0.94575600  1
loop_
_geom_bond_atom_site_label_1
_geom_bond_atom_site_label_2
_geom_bond_distance
_geom_bond_site_symmetry_2
Ba0 O3 2.802482 1_555
Ba0 O3 2.803601 1_655
Ba0 O2 2.938163 1_555
Ba0 O2 2.938222 1_565
Ba0 O4 2.942785 1_564
Ba0 O4 2.944309 1_554
Ba0 O4 2.948396 1_654
Ba0 O4 2.951306 1_664
Li0 O0 1.911255 1_555
Li0 O4 2.157659 1_555
Li0 O4 2.163070 1_455
Cu0 O0 1.905990 1_655
Cu0 O0 1.906179 1_555
Cu0 O1 1.994728 1_565
Cu0 O1 1.995030 1_555
Cu1 O2 1.897027 1_555
Cu1 O2 1.898647 1_455
Cu1 O3 1.972183 1_545
Cu1 O3 1.972266 1_555
O0 Y0 2.390886 1_565
O0 Y0 2.390887 1_555
O1 Y0 2.284561 1_555
O1 Y0 2.285601 1_655
O2 Y0 2.488221 1_665
O2 Y0 2.488330 1_655
O3 Y0 2.495282 1_665
O3 Y0 2.496306 1_565
