# generated using pymatgen
data_Ba2CaReO6
_symmetry_space_group_name_H-M   'P 1'
_cell_length_a   5.94978308
_cell_length_b   5.94978308
_cell_length_c   5.94978308
_cell_angle_alpha   120.09895790
_cell_angle_beta   120.09895790
_cell_angle_gamma   89.82868518
_symmetry_Int_Tables_number   1
_chemical_formula_structural   Ba2CaReO6
_chemical_formula_sum   'Ba2 Ca1 Re1 O6'
_cell_volume   148.70864455
_cell_formula_units_Z   1
loop_
 _symmetry_equiv_pos_site_id
 _symmetry_equiv_pos_as_xyz
  1  'x, y, z'
loop_
 _atom_site_type_symbol
 _atom_site_label
 _atom_site_symmetry_multiplicity
 _atom_site_fract_x
 _atom_site_fract_y
 _atom_site_fract_z
 _atom_site_occupancy
  Ba  Ba0  1  0.75000000  0.25000000  0.50000000  1
  Ba  Ba1  1  0.25000000  0.75000000  0.50000000  1
  Ca  Ca0  1  0.50000000  0.50000000  -0.00000000  1
  Re  Re0  1  -0.00000000  0.00000000  -0.00000000  1
  O  O0  1  0.75753521  0.78445136  0.54198657  1
  O  O1  1  0.78445136  0.24246479  0.02691615  1
  O  O2  1  0.21554864  0.75753521  0.97308385  1
  O  O3  1  0.24246479  0.21554864  0.45801343  1
  O  O4  1  0.22939810  0.22939810  -0.00000000  1
  O  O5  1  0.77060190  0.77060190  0.00000000  1
loop_
_geom_bond_atom_site_label_1
_geom_bond_atom_site_label_2
_geom_bond_distance
_geom_bond_site_symmetry_2
Ba0 O0 2.901531 1_545
Ba0 O2 2.901531 1_655
Ba0 O3 2.901531 1_555
Ba0 O1 2.901531 1_555
Ba0 O4 2.975510 1_555
Ba0 O5 2.975510 1_556
Ba0 O5 2.975510 1_545
Ba0 O4 2.975510 1_656
Ba0 O1 3.060860 1_556
Ba0 O2 3.060860 1_544
Ba0 O0 3.060860 1_555
Ba0 O3 3.060860 1_655
Ba1 O3 2.901531 1_565
Ba1 O2 2.901531 1_555
Ba1 O0 2.901531 1_555
Ba1 O1 2.901531 1_455
Ba1 O4 2.975510 1_555
Ba1 O5 2.975510 1_455
Ba1 O5 2.975510 1_556
Ba1 O4 2.975510 1_566
Ba1 O0 3.060860 1_455
Ba1 O1 3.060860 1_566
Ba1 O2 3.060860 1_554
Ba1 O3 3.060860 1_555
Ca0 O0 2.279603 1_555
Ca0 O3 2.279603 1_554
Ca0 O1 2.279603 1_555
Ca0 O2 2.279603 1_554
Ca0 O5 2.280317 1_555
Ca0 O4 2.280317 1_555
O0 Re0 1.927360 1_666
O1 Re0 1.927360 1_655
O2 Re0 1.927360 1_566
O3 Re0 1.927360 1_555
O4 Re0 1.933100 1_555
O5 Re0 1.933100 1_665
