# generated using pymatgen
data_MgFe4NiO8
_symmetry_space_group_name_H-M   'P 1'
_cell_length_a   5.99634971
_cell_length_b   5.99634971
_cell_length_c   5.97651383
_cell_angle_alpha   60.59596051
_cell_angle_beta   60.59596051
_cell_angle_gamma   60.46781571
_symmetry_Int_Tables_number   1
_chemical_formula_structural   MgFe4NiO8
_chemical_formula_sum   'Mg1 Fe4 Ni1 O8'
_cell_volume   153.85088115
_cell_formula_units_Z   1
loop_
 _symmetry_equiv_pos_site_id
 _symmetry_equiv_pos_as_xyz
  1  'x, y, z'
loop_
 _atom_site_type_symbol
 _atom_site_label
 _atom_site_symmetry_multiplicity
 _atom_site_fract_x
 _atom_site_fract_y
 _atom_site_fract_z
 _atom_site_occupancy
  Mg  Mg0  1  0.50000000  0.50000000  0.00000000  1
  Fe  Fe0  1  0.88253800  0.88253800  0.86805700  1
  Fe  Fe1  1  0.11746200  0.11746200  0.13194300  1
  Fe  Fe2  1  0.00000000  0.50000000  0.50000000  1
  Fe  Fe3  1  0.50000000  0.00000000  0.50000000  1
  Ni  Ni0  1  0.50000000  0.50000000  0.50000000  1
  O  O0  1  0.74659100  0.74659100  0.73987600  1
  O  O1  1  0.74910300  0.74910300  0.26817300  1
  O  O2  1  0.27114100  0.75016700  0.73999700  1
  O  O3  1  0.75016700  0.27114100  0.73999700  1
  O  O4  1  0.25340900  0.25340900  0.26012400  1
  O  O5  1  0.25089700  0.25089700  0.73182700  1
  O  O6  1  0.72885900  0.24983300  0.26000300  1
  O  O7  1  0.24983300  0.72885900  0.26000300  1
loop_
_geom_bond_atom_site_label_1
_geom_bond_atom_site_label_2
_geom_bond_distance
_geom_bond_site_symmetry_2
Mg0 O3 2.079373 1_554
Mg0 O2 2.079373 1_554
Mg0 O7 2.079373 1_555
Mg0 O6 2.079373 1_555
Mg0 O4 2.104910 1_555
Mg0 O0 2.104910 1_554
Fe0 O3 1.915092 1_565
Fe0 O2 1.915092 1_655
Fe0 O0 1.948706 1_555
Fe0 O1 1.967817 1_556
Fe1 O7 1.915092 1_545
Fe1 O6 1.915092 1_455
Fe1 O4 1.948706 1_555
Fe1 O5 1.967817 1_554
Fe2 O3 2.041769 1_455
Fe2 O7 2.041769 1_555
Fe2 O5 2.052681 1_555
Fe2 O1 2.052681 1_455
Fe2 O4 2.068354 1_555
Fe2 O0 2.068354 1_455
Fe3 O2 2.041769 1_545
Fe3 O6 2.041769 1_555
Fe3 O5 2.052681 1_555
Fe3 O1 2.052681 1_545
Fe3 O4 2.068354 1_555
Fe3 O0 2.068354 1_545
Ni0 O6 2.083605 1_555
Ni0 O3 2.083605 1_555
Ni0 O7 2.083605 1_555
Ni0 O2 2.083605 1_555
Ni0 O1 2.125371 1_555
Ni0 O5 2.125371 1_555
