# generated using pymatgen
data_LaFe5Bi4O15
_symmetry_space_group_name_H-M   'P 1'
_cell_length_a   5.63426000
_cell_length_b   5.70538938
_cell_length_c   23.25722072
_cell_angle_alpha   96.59933384
_cell_angle_beta   89.94808027
_cell_angle_gamma   119.57144535
_symmetry_Int_Tables_number   1
_chemical_formula_structural   LaFe5Bi4O15
_chemical_formula_sum   'La2 Fe10 Bi8 O30'
_cell_volume   644.57692060
_cell_formula_units_Z   2
loop_
 _symmetry_equiv_pos_site_id
 _symmetry_equiv_pos_as_xyz
  1  'x, y, z'
loop_
 _atom_site_type_symbol
 _atom_site_label
 _atom_site_symmetry_multiplicity
 _atom_site_fract_x
 _atom_site_fract_y
 _atom_site_fract_z
 _atom_site_occupancy
  La  La0  1  0.81016600  0.22002600  0.40039900  1
  La  La1  1  0.41143800  0.62060400  0.20151000  1
  Fe  Fe0  1  0.97790500  0.10133000  0.85421400  1
  Fe  Fe1  1  0.57797200  0.50155000  0.65428100  1
  Fe  Fe2  1  0.17620000  0.90071300  0.45341200  1
  Fe  Fe3  1  0.77501100  0.29715400  0.25321100  1
  Fe  Fe4  1  0.37684900  0.69736800  0.05425700  1
  Fe  Fe5  1  0.87819800  0.20068800  0.55477500  1
  Fe  Fe6  1  0.48424300  0.61362900  0.35475500  1
  Fe  Fe7  1  0.08364800  0.01469100  0.15372300  1
  Fe  Fe8  1  0.67747100  0.40138600  0.95404900  1
  Fe  Fe9  1  0.27754700  0.80127600  0.75420200  1
  Bi  Bi0  1  0.88697400  0.07659300  0.69889500  1
  Bi  Bi1  1  0.49216600  0.48076000  0.49850300  1
  Bi  Bi2  1  0.09070200  0.88274000  0.29768800  1
  Bi  Bi3  1  0.68522700  0.27855900  0.09802600  1
  Bi  Bi4  1  0.28721600  0.67674900  0.89872700  1
  Bi  Bi5  1  0.98800400  0.97669300  0.99891500  1
  Bi  Bi6  1  0.58806800  0.37644700  0.79874400  1
  Bi  Bi7  1  0.18679500  0.77605600  0.59836000  1
  O  O0  1  0.52575900  0.18985200  0.71083500  1
  O  O1  1  0.12300600  0.58593300  0.51015700  1
  O  O2  1  0.71874500  0.97862900  0.30824200  1
  O  O3  1  0.32301200  0.38412000  0.10929200  1
  O  O4  1  0.92625400  0.79052200  0.91090200  1
  O  O5  1  0.13571200  0.03050800  0.79039400  1
  O  O6  1  0.73672800  0.43091600  0.59068900  1
  O  O7  1  0.32021300  0.81229300  0.39119700  1
  O  O8  1  0.91966200  0.21248400  0.19048900  1
  O  O9  1  0.53621700  0.63105600  0.98997800  1
  O  O10  1  0.19512400  0.37206500  0.62063200  1
  O  O11  1  0.79284000  0.75097200  0.42114400  1
  O  O12  1  0.39216200  0.15174100  0.22085100  1
  O  O13  1  0.99453300  0.57223400  0.02033600  1
  O  O14  1  0.59497500  0.97153800  0.82049700  1
  O  O15  1  0.49736800  0.67136900  0.72062500  1
  O  O16  1  0.09229000  0.07068800  0.51960900  1
  O  O17  1  0.69282000  0.46685300  0.32034700  1
  O  O18  1  0.29788900  0.86839900  0.12119700  1
  O  O19  1  0.89728700  0.27151900  0.92052600  1
  O  O20  1  0.98639100  0.73111600  0.69021700  1
  O  O21  1  0.58803200  0.13359900  0.49012800  1
  O  O22  1  0.18209200  0.52617300  0.29106000  1
  O  O23  1  0.78032100  0.92420800  0.09114400  1
  O  O24  1  0.38544600  0.33069700  0.89034800  1
  O  O25  1  0.67453900  0.88935100  0.61109800  1
  O  O26  1  0.27477200  0.28755800  0.41099400  1
  O  O27  1  0.87604400  0.68755900  0.21086100  1
  O  O28  1  0.47499700  0.08921800  0.01077400  1
  O  O29  1  0.07497200  0.48981800  0.81079200  1
loop_
_geom_bond_atom_site_label_1
_geom_bond_atom_site_label_2
_geom_bond_distance
_geom_bond_site_symmetry_2
La0 O2 2.319326 1_545
La0 O21 2.405647 1_555
La0 O26 2.458745 1_655
La0 O7 2.574125 1_545
La0 O17 2.722202 1_555
La0 O11 2.728158 1_545
La0 O1 3.022003 1_655
La0 O11 3.061787 1_555
La1 O3 2.311246 1_555
La1 O22 2.421465 1_555
La1 O27 2.457759 1_555
La1 O12 2.712883 1_555
La1 O18 2.720073 1_555
La1 O2 2.946803 1_555
La1 O12 3.067337 1_565
Fe0 O5 1.836096 1_655
Fe0 O19 1.901968 1_555
Fe0 O14 2.027525 1_545
Fe0 O24 2.115682 1_655
Fe0 O4 2.234889 1_545
Fe0 O29 2.355578 1_655
Fe1 O6 1.834732 1_555
Fe1 O15 1.901360 1_555
Fe1 O10 2.026928 1_555
Fe1 O20 2.118087 1_555
Fe1 O0 2.235990 1_555
Fe1 O25 2.349821 1_555
Fe2 O7 1.800178 1_555
Fe2 O16 1.908468 1_565
Fe2 O11 1.998168 1_455
Fe2 O21 2.139738 1_565
Fe2 O1 2.251604 1_555
Fe2 O26 2.332935 1_565
Fe3 O8 1.802770 1_555
Fe3 O17 1.919263 1_555
Fe3 O12 2.000185 1_555
Fe3 O22 2.126984 1_655
Fe3 O2 2.237502 1_545
Fe3 O27 2.346761 1_555
Fe4 O9 1.840421 1_554
Fe4 O18 1.910992 1_555
Fe4 O13 2.031701 1_455
Fe4 O23 2.103126 1_555
Fe4 O3 2.216848 1_555
Fe4 O28 2.371726 1_565
Fe5 O16 1.848216 1_655
Fe5 O6 1.959183 1_555
Fe5 O21 2.081917 1_555
Fe5 O10 2.104272 1_655
Fe5 O25 2.169818 1_545
Fe5 O1 2.310782 1_655
Fe6 O17 1.881031 1_555
Fe6 O7 1.915429 1_555
Fe6 O22 2.082748 1_555
Fe6 O11 2.098374 1_555
Fe6 O26 2.225757 1_555
Fe6 O2 2.247676 1_555
Fe7 O18 1.890394 1_545
Fe7 O8 1.914208 1_455
Fe7 O23 2.065549 1_445
Fe7 O12 2.110234 1_555
Fe7 O3 2.240892 1_555
Fe7 O27 2.242780 1_445
Fe8 O19 1.860631 1_555
Fe8 O9 1.955790 1_555
Fe8 O24 2.068042 1_555
Fe8 O13 2.111629 1_556
Fe8 O28 2.178509 1_556
Fe8 O4 2.310590 1_555
Fe9 O15 1.861279 1_555
Fe9 O5 1.958301 1_565
Fe9 O20 2.070063 1_455
Fe9 O14 2.113169 1_555
Fe9 O29 2.173837 1_555
Fe9 O0 2.310684 1_565
Bi0 O25 2.232544 1_545
Bi0 O20 2.288615 1_545
Bi0 O15 2.382557 1_545
Bi0 O0 2.427424 1_555
Bi0 O10 2.641969 1_655
Bi0 O5 2.656946 1_655
Bi1 O26 2.239123 1_555
Bi1 O21 2.284708 1_555
Bi1 O16 2.418684 1_555
Bi1 O1 2.439910 1_555
Bi1 O11 2.556913 1_555
Bi1 O6 2.666178 1_555
Bi2 O27 2.222349 1_455
Bi2 O22 2.321463 1_555
Bi2 O2 2.418959 1_455
Bi2 O17 2.443047 1_455
Bi2 O12 2.546717 1_565
Bi2 O7 2.698574 1_555
Bi3 O28 2.219312 1_555
Bi3 O23 2.322628 1_545
Bi3 O3 2.402543 1_555
Bi3 O18 2.403398 1_545
Bi3 O13 2.630068 1_555
Bi3 O8 2.682188 1_555
Bi4 O29 2.234789 1_555
Bi4 O24 2.287420 1_555
Bi4 O19 2.383899 1_455
Bi4 O4 2.428458 1_455
Bi4 O14 2.639102 1_555
Bi4 O9 2.652107 1_555
Bi5 O4 2.139163 1_555
Bi5 O9 2.315965 1_555
Bi5 O23 2.420149 1_556
Bi5 O13 2.433642 1_556
Bi5 O28 2.497782 1_666
Bi6 O0 2.137473 1_555
Bi6 O5 2.318795 1_555
Bi6 O24 2.395739 1_555
Bi6 O14 2.439616 1_545
Bi6 O29 2.496225 1_655
Bi7 O1 2.149175 1_555
Bi7 O6 2.308936 1_455
Bi7 O20 2.395912 1_455
Bi7 O10 2.442217 1_555
Bi7 O25 2.502339 1_555
