# generated using pymatgen
data_Ta2Au
_symmetry_space_group_name_H-M   'P 1'
_cell_length_a   5.20052728
_cell_length_b   10.06775076
_cell_length_c   10.06775076
_cell_angle_alpha   90.00000000
_cell_angle_beta   90.00000000
_cell_angle_gamma   90.00000000
_symmetry_Int_Tables_number   1
_chemical_formula_structural   Ta2Au
_chemical_formula_sum   'Ta20 Au10'
_cell_volume   527.12339279
_cell_formula_units_Z   10
loop_
 _symmetry_equiv_pos_site_id
 _symmetry_equiv_pos_as_xyz
  1  'x, y, z'
loop_
 _atom_site_type_symbol
 _atom_site_label
 _atom_site_symmetry_multiplicity
 _atom_site_fract_x
 _atom_site_fract_y
 _atom_site_fract_z
 _atom_site_occupancy
  Ta  Ta0  1  0.50000000  0.10448156  0.89551844  1
  Ta  Ta1  1  0.50000000  0.89551844  0.10448156  1
  Ta  Ta2  1  0.00000000  0.39551844  0.39551844  1
  Ta  Ta3  1  0.00000000  0.60448156  0.60448156  1
  Ta  Ta4  1  0.50000000  0.37131792  0.96455394  1
  Ta  Ta5  1  0.50000000  0.62868208  0.03544606  1
  Ta  Ta6  1  0.00000000  0.12868208  0.46455394  1
  Ta  Ta7  1  0.00000000  0.87131792  0.53544606  1
  Ta  Ta8  1  0.50000000  0.96455394  0.37131792  1
  Ta  Ta9  1  0.50000000  0.03544606  0.62868208  1
  Ta  Ta10  1  0.00000000  0.46455394  0.12868208  1
  Ta  Ta11  1  0.00000000  0.53544606  0.87131792  1
  Ta  Ta12  1  0.24979290  0.31695364  0.68304636  1
  Ta  Ta13  1  0.24979290  0.68304636  0.31695364  1
  Ta  Ta14  1  0.74979290  0.18304636  0.18304636  1
  Ta  Ta15  1  0.74979290  0.81695364  0.81695364  1
  Ta  Ta16  1  0.75020710  0.68304636  0.31695364  1
  Ta  Ta17  1  0.75020710  0.31695364  0.68304636  1
  Ta  Ta18  1  0.25020710  0.81695364  0.81695364  1
  Ta  Ta19  1  0.25020710  0.18304636  0.18304636  1
  Au  Au0  1  0.50000000  0.50000000  0.50000000  1
  Au  Au1  1  0.00000000  0.00000000  -0.00000000  1
  Au  Au2  1  0.50000000  0.43638687  0.23282877  1
  Au  Au3  1  0.50000000  0.56361313  0.76717123  1
  Au  Au4  1  0.00000000  0.06361313  0.73282877  1
  Au  Au5  1  0.00000000  0.93638687  0.26717123  1
  Au  Au6  1  0.50000000  0.23282877  0.43638687  1
  Au  Au7  1  0.50000000  0.76717123  0.56361313  1
  Au  Au8  1  0.00000000  0.73282877  0.06361313  1
  Au  Au9  1  0.00000000  0.26717123  0.93638687  1
loop_
_geom_bond_atom_site_label_1
_geom_bond_atom_site_label_2
_geom_bond_distance
_geom_bond_site_symmetry_2
Ta0 Ta4 2.774895 1_555
Ta0 Ta9 2.774895 1_555
Ta0 Ta1 2.975206 1_546
Ta0 Ta15 3.269986 1_545
Ta0 Ta18 3.269986 1_545
Ta0 Ta19 3.269986 1_556
Ta0 Ta14 3.269986 1_556
Ta0 Ta17 3.293141 1_555
Ta0 Ta12 3.293141 1_555
Ta1 Ta5 2.774895 1_555
Ta1 Ta8 2.774895 1_555
Ta1 Ta18 3.269986 1_554
Ta1 Ta15 3.269986 1_554
Ta1 Ta14 3.269986 1_565
Ta1 Ta19 3.269986 1_565
Ta1 Ta16 3.293141 1_555
Ta1 Ta13 3.293141 1_555
Ta2 Ta6 2.774895 1_555
Ta2 Ta3 2.975206 1_555
Ta3 Ta7 2.774895 1_555
Ta10 Ta2 2.774895 1_555
Ta11 Ta3 2.774895 1_555
Ta12 Ta17 2.598110 1_455
Ta12 Ta17 2.602418 1_555
Ta12 Ta3 3.269986 1_555
Ta12 Ta2 3.269986 1_555
Ta13 Ta16 2.598110 1_455
Ta13 Ta16 2.602418 1_555
Ta13 Ta2 3.269986 1_555
Ta13 Ta3 3.269986 1_555
Ta14 Ta19 2.598110 1_555
Ta14 Ta19 2.602418 1_655
Ta14 Ta2 3.293141 1_655
Ta15 Ta18 2.598110 1_555
Ta15 Ta18 2.602418 1_655
Ta15 Ta3 3.293141 1_655
Ta16 Ta2 3.269986 1_655
Ta16 Ta3 3.269986 1_655
Ta17 Ta2 3.269986 1_655
Ta17 Ta3 3.269986 1_655
Ta18 Ta3 3.293141 1_555
Ta19 Ta2 3.293141 1_555
Au0 Au7 2.765006 1_555
Au0 Au2 2.765006 1_555
Au0 Au6 2.765006 1_555
Au0 Au3 2.765006 1_555
Au0 Ta12 2.912979 1_555
Au0 Ta13 2.912979 1_555
Au0 Ta16 2.912979 1_555
Au0 Ta17 2.912979 1_555
Au0 Ta3 2.995719 1_655
Au0 Ta2 2.995719 1_555
Au0 Ta2 2.995719 1_655
Au0 Ta3 2.995719 1_555
Au1 Au8 2.765006 1_545
Au1 Au5 2.765006 1_545
Au1 Au4 2.765006 1_554
Au1 Au9 2.765006 1_554
Au1 Ta15 2.912979 1_444
Au1 Ta18 2.912979 1_544
Au1 Ta19 2.912979 1_555
Au1 Ta14 2.912979 1_455
Au1 Ta1 2.995719 1_545
Au1 Ta0 2.995719 1_454
Au1 Ta1 2.995719 1_445
Au1 Ta0 2.995719 1_554
Au2 Ta5 2.774344 1_555
Au2 Ta4 2.779235 1_554
Au2 Ta10 2.818011 1_655
Au2 Ta10 2.818011 1_555
Au2 Au6 2.898250 1_555
Au2 Ta14 2.905881 1_555
Au2 Ta19 2.905881 1_555
Au2 Ta13 2.928699 1_555
Au2 Ta16 2.928699 1_555
Au2 Ta2 3.100555 1_555
Au2 Ta2 3.100555 1_655
Au3 Ta4 2.774344 1_555
Au3 Ta5 2.779235 1_556
Au3 Ta11 2.818011 1_555
Au3 Ta11 2.818011 1_655
Au3 Au7 2.898250 1_555
Au3 Ta18 2.905881 1_555
Au3 Ta15 2.905881 1_555
Au3 Ta17 2.928699 1_555
Au3 Ta12 2.928699 1_555
Au3 Ta3 3.100555 1_655
Au3 Ta3 3.100555 1_555
Au4 Ta7 2.774344 1_545
Au4 Ta6 2.779235 1_555
Au4 Ta9 2.818011 1_555
Au4 Ta9 2.818011 1_455
Au4 Au9 2.898250 1_555
Au4 Ta12 2.905881 1_555
Au4 Ta17 2.905881 1_455
Au4 Ta15 2.928699 1_445
Au4 Ta18 2.928699 1_545
Au4 Ta0 3.100555 1_455
Au4 Ta0 3.100555 1_555
Au5 Ta6 2.774344 1_565
Au5 Ta7 2.779235 1_555
Au5 Ta8 2.818011 1_555
Au5 Ta8 2.818011 1_455
Au5 Au8 2.898250 1_555
Au5 Ta16 2.905881 1_455
Au5 Ta13 2.905881 1_555
Au5 Ta19 2.928699 1_565
Au5 Ta14 2.928699 1_465
Au5 Ta1 3.100555 1_455
Au5 Ta1 3.100555 1_555
Au6 Ta9 2.774344 1_555
Au6 Ta8 2.779235 1_545
Au6 Ta6 2.818011 1_555
Au6 Ta6 2.818011 1_655
Au6 Ta14 2.905881 1_555
Au6 Ta19 2.905881 1_555
Au6 Ta12 2.928699 1_555
Au6 Ta17 2.928699 1_555
Au6 Ta2 3.100555 1_555
Au6 Ta2 3.100555 1_655
Au7 Ta8 2.774344 1_555
Au7 Ta9 2.779235 1_565
Au7 Ta7 2.818011 1_555
Au7 Ta7 2.818011 1_655
Au7 Ta18 2.905881 1_555
Au7 Ta15 2.905881 1_555
Au7 Ta13 2.928699 1_555
Au7 Ta16 2.928699 1_555
Au7 Ta3 3.100555 1_655
Au7 Ta3 3.100555 1_555
Au8 Ta11 2.774344 1_554
Au8 Ta10 2.779235 1_555
Au8 Ta5 2.818011 1_555
Au8 Ta5 2.818011 1_455
Au8 Ta16 2.905881 1_455
Au8 Ta13 2.905881 1_555
Au8 Ta18 2.928699 1_554
Au8 Ta15 2.928699 1_454
Au8 Ta1 3.100555 1_455
Au8 Ta1 3.100555 1_555
Au9 Ta10 2.774344 1_556
Au9 Ta11 2.779235 1_555
Au9 Ta4 2.818011 1_455
Au9 Ta4 2.818011 1_555
Au9 Ta17 2.905881 1_455
Au9 Ta12 2.905881 1_555
Au9 Ta14 2.928699 1_456
Au9 Ta19 2.928699 1_556
Au9 Ta0 3.100555 1_455
Au9 Ta0 3.100555 1_555
