# generated using pymatgen
data_CaNiO2
_symmetry_space_group_name_H-M   'P 1'
_cell_length_a   3.12961538
_cell_length_b   8.35078753
_cell_length_c   8.13612842
_cell_angle_alpha   77.48824722
_cell_angle_beta   89.77190680
_cell_angle_gamma   102.20178721
_symmetry_Int_Tables_number   1
_chemical_formula_structural   CaNiO2
_chemical_formula_sum   'Ca4 Ni4 O8'
_cell_volume   202.62026296
_cell_formula_units_Z   4
loop_
 _symmetry_equiv_pos_site_id
 _symmetry_equiv_pos_as_xyz
  1  'x, y, z'
loop_
 _atom_site_type_symbol
 _atom_site_label
 _atom_site_symmetry_multiplicity
 _atom_site_fract_x
 _atom_site_fract_y
 _atom_site_fract_z
 _atom_site_occupancy
  Ca  Ca0  1  0.26877300  0.02778600  0.32333200  1
  Ca  Ca1  1  0.72735400  0.95208300  0.70484100  1
  Ca  Ca2  1  0.09906200  0.72251700  0.11907200  1
  Ca  Ca3  1  0.89714900  0.25733100  0.90922800  1
  Ni  Ni0  1  0.41492400  0.30188500  0.55978800  1
  Ni  Ni1  1  0.94840500  0.35992000  0.24942200  1
  Ni  Ni2  1  0.04732200  0.62013400  0.77878300  1
  Ni  Ni3  1  0.58110200  0.67781500  0.46845500  1
  O  O0  1  0.14804600  0.80041200  0.56569200  1
  O  O1  1  0.46957800  0.48154900  0.69778400  1
  O  O2  1  0.52623200  0.49840200  0.33035800  1
  O  O3  1  0.84819200  0.17961500  0.46246400  1
  O  O4  1  0.31799400  0.11666300  0.78845900  1
  O  O5  1  0.40170000  0.27447200  0.11939300  1
  O  O6  1  0.67823600  0.86326100  0.23967400  1
  O  O7  1  0.59420700  0.70549000  0.90887700  1
loop_
_geom_bond_atom_site_label_1
_geom_bond_atom_site_label_2
_geom_bond_distance
_geom_bond_site_symmetry_2
Ca0 O6 2.260188 1_445
Ca0 O6 2.266173 1_545
Ca0 O5 2.306768 1_555
Ca0 O0 2.388486 1_545
Ca0 O3 2.417348 1_555
Ca0 O3 2.436585 1_455
Ca1 O4 2.260498 1_665
Ca1 O4 2.266174 1_565
Ca1 O7 2.306633 1_555
Ca1 O3 2.389341 1_565
Ca1 O0 2.416589 1_555
Ca1 O0 2.435920 1_655
Ca2 O6 2.285274 1_455
Ca2 O6 2.289761 1_555
Ca2 O7 2.339492 1_454
Ca2 O7 2.350236 1_554
Ca2 O2 2.614366 1_455
Ca2 O2 2.815489 1_555
Ca3 O4 2.285584 1_655
Ca3 O4 2.290180 1_555
Ca3 O5 2.338750 1_656
Ca3 O5 2.351034 1_556
Ca3 O1 2.614710 1_655
Ca3 O1 2.817410 1_555
Ni0 O1 2.040527 1_555
Ni0 O3 2.100326 1_455
Ni0 O3 2.105991 1_555
Ni0 O4 2.120427 1_555
Ni0 O2 2.173664 1_555
Ni1 O3 2.008774 1_555
Ni1 O5 2.093141 1_555
Ni1 O5 2.093790 1_655
Ni1 O2 2.117908 1_555
Ni1 O2 2.120525 1_655
Ni2 O0 2.008925 1_555
Ni2 O7 2.093218 1_455
Ni2 O7 2.093657 1_555
Ni2 O1 2.118960 1_555
Ni2 O1 2.120926 1_455
Ni3 O2 2.039311 1_555
Ni3 O0 2.101540 1_655
Ni3 O0 2.107077 1_555
Ni3 O6 2.122014 1_555
Ni3 O1 2.171971 1_555
