# generated using pymatgen
data_MgMn6O5F7
_symmetry_space_group_name_H-M   'P 1'
_cell_length_a   7.42614499
_cell_length_b   5.88532656
_cell_length_c   6.06059470
_cell_angle_alpha   77.48845295
_cell_angle_beta   69.67652893
_cell_angle_gamma   73.77692215
_symmetry_Int_Tables_number   1
_chemical_formula_structural   MgMn6O5F7
_chemical_formula_sum   'Mg1 Mn6 O5 F7'
_cell_volume   236.38634130
_cell_formula_units_Z   1
loop_
 _symmetry_equiv_pos_site_id
 _symmetry_equiv_pos_as_xyz
  1  'x, y, z'
loop_
 _atom_site_type_symbol
 _atom_site_label
 _atom_site_symmetry_multiplicity
 _atom_site_fract_x
 _atom_site_fract_y
 _atom_site_fract_z
 _atom_site_occupancy
  Mg  Mg0  1  0.83926200  0.66243800  0.16008000  1
  Mn  Mn0  1  0.82859900  0.67858100  0.66147900  1
  Mn  Mn1  1  0.66375900  0.28432500  0.36986900  1
  Mn  Mn2  1  0.33068200  0.69956600  0.63557000  1
  Mn  Mn3  1  0.16508400  0.29671300  0.33390300  1
  Mn  Mn4  1  0.49277600  0.01689000  0.03287800  1
  Mn  Mn5  1  0.99643300  0.05462100  0.97351500  1
  O  O0  1  0.63740700  0.57676700  0.49982700  1
  O  O1  1  0.94244700  0.28697800  0.19905700  1
  O  O2  1  0.72082200  0.03994900  0.15156900  1
  O  O3  1  0.02424600  0.77724000  0.82180200  1
  O  O4  1  0.31617500  0.95866000  0.36731500  1
  F  F0  1  0.66761700  0.03369400  0.67338800  1
  F  F1  1  0.34614300  0.38355500  0.97009500  1
  F  F2  1  0.29099600  0.95806600  0.88487400  1
  F  F3  1  0.37025400  0.38701800  0.45405400  1
  F  F4  1  0.64610200  0.63479100  0.01673000  1
  F  F5  1  0.98011400  0.31946800  0.68811600  1
  F  F6  1  0.02811800  0.67985100  0.31421300  1
loop_
_geom_bond_atom_site_label_1
_geom_bond_atom_site_label_2
_geom_bond_distance
_geom_bond_site_symmetry_2
Mg0 O1 2.116421 1_555
Mg0 O3 2.123411 1_654
Mg0 O0 2.137626 1_555
Mg0 O2 2.145348 1_565
Mn0 O0 2.242931 1_555
Mn0 O3 2.255800 1_655
Mn1 O1 1.969235 1_555
Mn1 O0 1.978122 1_555
Mn1 O2 2.023102 1_555
Mn2 O4 1.983864 1_555
Mn2 O0 2.103220 1_555
Mn2 O3 2.125923 1_555
Mn3 O4 1.998551 1_545
Mn3 O1 2.101545 1_455
Mn4 O4 2.012297 1_545
Mn4 O2 2.102555 1_555
Mn5 O3 1.970558 1_645
Mn5 O2 1.971090 1_556
Mn5 O1 2.005527 1_556
F0 Mn1 2.097077 1_555
F0 Mn0 2.100395 1_545
F0 Mn4 2.110879 1_556
F1 Mn4 2.146234 1_556
F1 Mn3 2.183347 1_556
F1 Mn2 2.447700 1_555
F2 Mn5 2.004480 1_465
F2 Mn4 2.127878 1_566
F2 Mn2 2.262830 1_555
F3 Mn1 2.000340 1_555
F3 Mn3 2.127200 1_555
F3 Mn2 2.242830 1_555
F4 Mg0 1.973879 1_555
F4 Mn0 2.113416 1_554
F4 Mn4 2.224924 1_565
F4 Mn1 2.642592 1_555
F5 Mn5 2.075574 1_555
F5 Mn0 2.099653 1_555
F5 Mn3 2.118178 1_655
F6 Mg0 1.970248 1_455
F6 Mn0 2.111423 1_455
F6 Mn3 2.195346 1_555
