# generated using pymatgen
data_La5Sn3C
_symmetry_space_group_name_H-M   'P 1'
_cell_length_a   9.55863635
_cell_length_b   9.55863635
_cell_length_c   6.87821300
_cell_angle_alpha   90.00000000
_cell_angle_beta   90.00000000
_cell_angle_gamma   120.00000239
_symmetry_Int_Tables_number   1
_chemical_formula_structural   La5Sn3C
_chemical_formula_sum   'La10 Sn6 C2'
_cell_volume   544.24960256
_cell_formula_units_Z   2
loop_
 _symmetry_equiv_pos_site_id
 _symmetry_equiv_pos_as_xyz
  1  'x, y, z'
loop_
 _atom_site_type_symbol
 _atom_site_label
 _atom_site_symmetry_multiplicity
 _atom_site_fract_x
 _atom_site_fract_y
 _atom_site_fract_z
 _atom_site_occupancy
  La  La0  1  0.66666700  0.33333300  0.50000000  1
  La  La1  1  0.33333300  0.66666700  0.50000000  1
  La  La2  1  0.33333300  0.66666700  0.00000000  1
  La  La3  1  0.66666700  0.33333300  0.00000000  1
  La  La4  1  0.78764900  0.78764900  0.25000000  1
  La  La5  1  0.21235100  0.00000000  0.25000000  1
  La  La6  1  0.00000000  0.21235100  0.25000000  1
  La  La7  1  0.21235100  0.21235100  0.75000000  1
  La  La8  1  0.78764900  0.00000000  0.75000000  1
  La  La9  1  0.00000000  0.78764900  0.75000000  1
  Sn  Sn0  1  0.41013100  0.41013100  0.25000000  1
  Sn  Sn1  1  0.58986900  0.00000000  0.25000000  1
  Sn  Sn2  1  0.00000000  0.58986900  0.25000000  1
  Sn  Sn3  1  0.58986900  0.58986900  0.75000000  1
  Sn  Sn4  1  0.41013100  0.00000000  0.75000000  1
  Sn  Sn5  1  0.00000000  0.41013100  0.75000000  1
  C  C0  1  0.00000000  0.00000000  0.50000000  1
  C  C1  1  0.00000000  0.00000000  0.00000000  1
loop_
_geom_bond_atom_site_label_1
_geom_bond_atom_site_label_2
_geom_bond_distance
_geom_bond_site_symmetry_2
La0 Sn5 3.362845 1_655
La0 Sn1 3.362845 1_555
La0 Sn4 3.362847 1_555
La0 Sn2 3.362847 1_655
La0 Sn0 3.362853 1_555
La0 Sn3 3.362853 1_555
La1 Sn4 3.362845 1_565
La1 Sn2 3.362845 1_555
La1 Sn1 3.362847 1_565
La1 Sn5 3.362847 1_555
La1 Sn3 3.362853 1_555
La1 Sn0 3.362853 1_555
La2 Sn2 3.362845 1_555
La2 Sn4 3.362845 1_564
La2 Sn1 3.362847 1_565
La2 Sn5 3.362847 1_554
La2 Sn3 3.362853 1_554
La2 Sn0 3.362853 1_555
La3 Sn1 3.362845 1_555
La3 Sn5 3.362845 1_654
La3 Sn4 3.362847 1_554
La3 Sn2 3.362847 1_655
La3 Sn0 3.362853 1_555
La3 Sn3 3.362853 1_554
La4 Sn2 3.395788 1_655
La4 Sn1 3.395788 1_565
La4 Sn0 3.608557 1_555
La4 Sn3 3.924471 1_555
La4 Sn3 3.924471 1_554
La5 Sn2 3.395787 1_545
La5 Sn0 3.395787 1_555
La5 Sn1 3.608557 1_555
La5 Sn4 3.924471 1_554
La5 Sn4 3.924471 1_555
La6 Sn1 3.395787 1_455
La6 Sn0 3.395787 1_555
La6 Sn2 3.608557 1_555
La6 Sn5 3.924471 1_555
La6 Sn5 3.924471 1_554
La7 Sn4 3.395788 1_555
La7 Sn5 3.395788 1_555
La7 Sn3 3.608557 1_555
La7 Sn0 3.924471 1_555
La7 Sn0 3.924471 1_556
La8 Sn5 3.395787 1_655
La8 Sn3 3.395787 1_545
La8 Sn4 3.608557 1_555
La8 Sn1 3.924471 1_555
La8 Sn1 3.924471 1_556
La9 Sn4 3.395787 1_565
La9 Sn3 3.395787 1_455
La9 Sn5 3.608557 1_555
La9 Sn2 3.924471 1_555
La9 Sn2 3.924471 1_556
C0 La7 2.660243 1_555
C0 La4 2.660243 1_445
C0 La8 2.660243 1_455
C0 La9 2.660243 1_545
C0 La5 2.660243 1_555
C0 La6 2.660243 1_555
C1 La7 2.660243 1_554
C1 La4 2.660243 1_445
C1 La8 2.660243 1_454
C1 La9 2.660243 1_544
C1 La5 2.660243 1_555
C1 La6 2.660243 1_555
