# generated using pymatgen
data_Ir2S3
_symmetry_space_group_name_H-M   'P 1'
_cell_length_a   6.04035176
_cell_length_b   6.17499299
_cell_length_c   8.51360774
_cell_angle_alpha   90.00000000
_cell_angle_beta   90.00000000
_cell_angle_gamma   90.00000000
_symmetry_Int_Tables_number   1
_chemical_formula_structural   Ir2S3
_chemical_formula_sum   'Ir8 S12'
_cell_volume   317.55015995
_cell_formula_units_Z   4
loop_
 _symmetry_equiv_pos_site_id
 _symmetry_equiv_pos_as_xyz
  1  'x, y, z'
loop_
 _atom_site_type_symbol
 _atom_site_label
 _atom_site_symmetry_multiplicity
 _atom_site_fract_x
 _atom_site_fract_y
 _atom_site_fract_z
 _atom_site_occupancy
  Ir  Ir0  1  0.74920613  0.52963482  0.10797451  1
  Ir  Ir1  1  0.75079387  0.02963482  0.39202549  1
  Ir  Ir2  1  0.75079387  0.47036518  0.60797451  1
  Ir  Ir3  1  0.74920613  0.97036518  0.89202549  1
  Ir  Ir4  1  0.25079387  0.47036518  0.89202549  1
  Ir  Ir5  1  0.24920613  0.97036518  0.60797451  1
  Ir  Ir6  1  0.24920613  0.52963482  0.39202549  1
  Ir  Ir7  1  0.25079387  0.02963482  0.10797451  1
  S  S0  1  0.60940142  0.89106780  0.15008206  1
  S  S1  1  0.89059858  0.39106780  0.34991794  1
  S  S2  1  0.89059858  0.10893220  0.65008206  1
  S  S3  1  0.60940142  0.60893220  0.84991794  1
  S  S4  1  0.39059858  0.10893220  0.84991794  1
  S  S5  1  0.10940142  0.60893220  0.65008206  1
  S  S6  1  0.10940142  0.89106780  0.34991794  1
  S  S7  1  0.39059858  0.39106780  0.15008206  1
  S  S8  1  0.04472453  0.75000000  0.00000000  1
  S  S9  1  0.45527547  0.25000000  0.50000000  1
  S  S10  1  0.95527547  0.25000000  0.00000000  1
  S  S11  1  0.54472453  0.75000000  0.50000000  1
loop_
_geom_bond_atom_site_label_1
_geom_bond_atom_site_label_2
_geom_bond_distance
_geom_bond_site_symmetry_2
Ir0 S10 2.318625 1_555
Ir0 S7 2.356418 1_555
Ir0 S1 2.388384 1_555
Ir0 S3 2.404095 1_554
Ir0 S0 2.413044 1_555
Ir0 S8 2.425495 1_655
Ir1 S11 2.318625 1_545
Ir1 S6 2.356418 1_645
Ir1 S0 2.388384 1_545
Ir1 S2 2.404095 1_555
Ir1 S1 2.413044 1_555
Ir1 S9 2.425495 1_555
Ir2 S11 2.318625 1_555
Ir2 S5 2.356418 1_655
Ir2 S3 2.388384 1_555
Ir2 S1 2.404095 1_555
Ir2 S2 2.413044 1_555
Ir2 S9 2.425495 1_555
Ir3 S10 2.318625 1_566
Ir3 S4 2.356418 1_565
Ir3 S2 2.388384 1_565
Ir3 S0 2.404095 1_556
Ir3 S3 2.413044 1_555
Ir3 S8 2.425495 1_656
Ir4 S8 2.318625 1_556
Ir4 S3 2.356418 1_555
Ir4 S5 2.388384 1_555
Ir4 S7 2.404095 1_556
Ir4 S4 2.413044 1_555
Ir4 S10 2.425495 1_456
Ir5 S9 2.318625 1_565
Ir5 S2 2.356418 1_465
Ir5 S4 2.388384 1_565
Ir5 S6 2.404095 1_555
Ir5 S5 2.413044 1_555
Ir5 S11 2.425495 1_555
Ir6 S9 2.318625 1_555
Ir6 S1 2.356418 1_455
Ir6 S7 2.388384 1_555
Ir6 S5 2.404095 1_555
Ir6 S6 2.413044 1_555
Ir6 S11 2.425495 1_555
Ir7 S8 2.318625 1_545
Ir7 S0 2.356418 1_545
Ir7 S6 2.388384 1_545
Ir7 S4 2.404095 1_554
Ir7 S7 2.413044 1_555
Ir7 S10 2.425495 1_455
