# generated using pymatgen
data_H7C2SN5O3
_symmetry_space_group_name_H-M   'P 1'
_cell_length_a   8.41502900
_cell_length_b   11.40120237
_cell_length_c   10.40073488
_cell_angle_alpha   117.04340506
_cell_angle_beta   90.00000000
_cell_angle_gamma   90.00000000
_symmetry_Int_Tables_number   1
_chemical_formula_structural   H7C2SN5O3
_chemical_formula_sum   'H28 C8 S4 N20 O12'
_cell_volume   888.75772467
_cell_formula_units_Z   4
loop_
 _symmetry_equiv_pos_site_id
 _symmetry_equiv_pos_as_xyz
  1  'x, y, z'
loop_
 _atom_site_type_symbol
 _atom_site_label
 _atom_site_symmetry_multiplicity
 _atom_site_fract_x
 _atom_site_fract_y
 _atom_site_fract_z
 _atom_site_occupancy
  H  H0  1  0.55349800  0.48125700  0.37400900  1
  H  H1  1  0.44650200  0.51874300  0.62599100  1
  H  H2  1  0.05349800  0.01874300  0.12599100  1
  H  H3  1  0.94650200  0.98125700  0.87400900  1
  H  H4  1  0.61179400  0.88858700  0.64206700  1
  H  H5  1  0.38820600  0.11141300  0.35793300  1
  H  H6  1  0.11179400  0.61141300  0.85793300  1
  H  H7  1  0.88820600  0.38858700  0.14206700  1
  H  H8  1  0.46921100  0.92185800  0.78564600  1
  H  H9  1  0.53078900  0.07814200  0.21435400  1
  H  H10  1  0.96921100  0.57814200  0.71435400  1
  H  H11  1  0.03078900  0.42185800  0.28564600  1
  H  H12  1  0.43891800  0.56665600  0.81222400  1
  H  H13  1  0.56108200  0.43334400  0.18777600  1
  H  H14  1  0.93891800  0.93334400  0.68777600  1
  H  H15  1  0.06108200  0.06665600  0.31222400  1
  H  H16  1  0.18614800  0.31133900  0.87531000  1
  H  H17  1  0.81385200  0.68866100  0.12469000  1
  H  H18  1  0.68614800  0.18866100  0.62469000  1
  H  H19  1  0.31385200  0.81133900  0.37531000  1
  H  H20  1  0.98354900  0.30372000  0.90468900  1
  H  H21  1  0.01645100  0.69628000  0.09531100  1
  H  H22  1  0.48354900  0.19628000  0.59531100  1
  H  H23  1  0.51645100  0.80372000  0.40468900  1
  H  H24  1  0.13878100  0.85544300  0.55211600  1
  H  H25  1  0.86121900  0.14455700  0.44788400  1
  H  H26  1  0.63878100  0.64455700  0.94788400  1
  H  H27  1  0.36121900  0.35544300  0.05211600  1
  C  C0  1  0.37821100  0.86503600  0.58715200  1
  C  C1  1  0.62178900  0.13496400  0.41284800  1
  C  C2  1  0.87821100  0.63496400  0.91284800  1
  C  C3  1  0.12178900  0.36503600  0.08715200  1
  C  C4  1  0.16219000  0.93080700  0.77327400  1
  C  C5  1  0.83781000  0.06919300  0.22672600  1
  C  C6  1  0.66219000  0.56919300  0.72672600  1
  C  C7  1  0.33781000  0.43080700  0.27327400  1
  S  S0  1  0.26834300  0.95932300  0.92219200  1
  S  S1  1  0.73165700  0.04067700  0.07780800  1
  S  S2  1  0.76834300  0.54067700  0.57780800  1
  S  S3  1  0.23165700  0.45932300  0.42219200  1
  N  N0  1  0.09657100  0.32275200  0.94636200  1
  N  N1  1  0.90342900  0.67724800  0.05363800  1
  N  N2  1  0.59657100  0.17724800  0.55363800  1
  N  N3  1  0.40342900  0.82275200  0.44636200  1
  N  N4  1  0.49815300  0.88889700  0.67825800  1
  N  N5  1  0.50184700  0.11110300  0.32174200  1
  N  N6  1  0.99815300  0.61110300  0.82174200  1
  N  N7  1  0.00184700  0.38889700  0.17825800  1
  N  N8  1  0.22317500  0.88283000  0.63352800  1
  N  N9  1  0.77682500  0.11717000  0.36647200  1
  N  N10  1  0.72317500  0.61717000  0.86647200  1
  N  N11  1  0.27682500  0.38283000  0.13352800  1
  N  N12  1  0.15933900  0.19124200  0.56898900  1
  N  N13  1  0.84066100  0.80875800  0.43101100  1
  N  N14  1  0.65933900  0.30875800  0.93101100  1
  N  N15  1  0.34066100  0.69124200  0.06898900  1
  N  N16  1  0.00594900  0.95168000  0.77854600  1
  N  N17  1  0.99405100  0.04832000  0.22145400  1
  N  N18  1  0.50594900  0.54832000  0.72145400  1
  N  N19  1  0.49405100  0.45168000  0.27854600  1
  O  O0  1  0.26414900  0.24654700  0.66487300  1
  O  O1  1  0.73585100  0.75345300  0.33512700  1
  O  O2  1  0.76414900  0.25345300  0.83512700  1
  O  O3  1  0.23585100  0.74654700  0.16487300  1
  O  O4  1  0.29722900  0.60477500  0.94311200  1
  O  O5  1  0.70277100  0.39522500  0.05688800  1
  O  O6  1  0.79722900  0.89522500  0.55688800  1
  O  O7  1  0.20277100  0.10477500  0.44311200  1
  O  O8  1  0.51410300  0.28150300  0.90460200  1
  O  O9  1  0.48589700  0.71849700  0.09539800  1
  O  O10  1  0.01410300  0.21849700  0.59539800  1
  O  O11  1  0.98589700  0.78150300  0.40460200  1
loop_
_geom_bond_atom_site_label_1
_geom_bond_atom_site_label_2
_geom_bond_distance
_geom_bond_site_symmetry_2
H0 N19 1.022412 1_555
H1 N18 1.022412 1_555
H2 N17 1.022412 1_455
H3 N16 1.022412 1_655
H4 N4 1.027124 1_555
H5 N5 1.027124 1_555
H6 N6 1.027124 1_455
H7 N7 1.027124 1_655
H8 N4 1.032647 1_555
H8 S0 2.122472 1_555
H9 N5 1.032647 1_555
H9 S1 2.122472 1_555
H10 N6 1.032647 1_555
H10 S2 2.122472 1_555
H11 N7 1.032647 1_555
H11 S3 2.122472 1_555
H12 N18 1.036188 1_555
H13 N19 1.036188 1_555
H14 N16 1.036188 1_655
H15 N17 1.036188 1_455
H16 N0 1.021668 1_555
H17 N1 1.021668 1_555
H18 N2 1.021668 1_555
H19 N3 1.021668 1_555
H20 N0 1.026637 1_655
H21 N1 1.026637 1_455
H22 N2 1.026637 1_555
H23 N3 1.026637 1_555
H24 N8 1.038464 1_555
H25 N9 1.038464 1_555
H26 N10 1.038464 1_555
H27 N11 1.038464 1_555
C0 N4 1.325219 1_555
C0 N3 1.334072 1_555
C0 N8 1.373644 1_555
C1 N5 1.325219 1_555
C1 N2 1.334072 1_555
C1 N9 1.373644 1_555
C2 N6 1.325219 1_555
C2 N1 1.334072 1_556
C2 N10 1.373644 1_555
C3 N7 1.325219 1_555
C3 N0 1.334072 1_554
C3 N11 1.373644 1_555
C4 N16 1.332817 1_555
C4 N8 1.397200 1_555
C4 S0 1.686626 1_555
C5 N17 1.332817 1_555
C5 N9 1.397200 1_555
C5 S1 1.686626 1_555
C6 N18 1.332817 1_555
C6 N10 1.397200 1_555
C6 S2 1.686626 1_555
C7 N19 1.332817 1_555
C7 N11 1.397200 1_555
C7 S3 1.686626 1_555
N12 O10 1.260190 1_555
N12 O0 1.264201 1_555
N12 O7 1.282902 1_555
N13 O11 1.260190 1_555
N13 O1 1.264201 1_555
N13 O6 1.282902 1_555
N14 O8 1.260190 1_555
N14 O2 1.264201 1_555
N14 O5 1.282902 1_556
N15 O9 1.260190 1_555
N15 O3 1.264201 1_555
N15 O4 1.282902 1_554
