# generated using pymatgen
data_Ce2ZrO6
_symmetry_space_group_name_H-M   'P 1'
_cell_length_a   6.60246532
_cell_length_b   6.60246532
_cell_length_c   7.61240368
_cell_angle_alpha   72.88452593
_cell_angle_beta   72.88452593
_cell_angle_gamma   47.96009551
_symmetry_Int_Tables_number   1
_chemical_formula_structural   Ce2ZrO6
_chemical_formula_sum   'Ce4 Zr2 O12'
_cell_volume   233.31893412
_cell_formula_units_Z   2
loop_
 _symmetry_equiv_pos_site_id
 _symmetry_equiv_pos_as_xyz
  1  'x, y, z'
loop_
 _atom_site_type_symbol
 _atom_site_label
 _atom_site_symmetry_multiplicity
 _atom_site_fract_x
 _atom_site_fract_y
 _atom_site_fract_z
 _atom_site_occupancy
  Ce  Ce0  1  0.83266500  0.16733500  0.50000000  1
  Ce  Ce1  1  0.83934300  0.16065700  0.00000000  1
  Ce  Ce2  1  0.49729300  0.83598500  0.66797800  1
  Ce  Ce3  1  0.16401500  0.50270700  0.33202200  1
  Zr  Zr0  1  0.50269600  0.83586200  0.16284600  1
  Zr  Zr1  1  0.16413800  0.49730400  0.83715400  1
  O  O0  1  0.72720400  0.59396200  0.39905500  1
  O  O1  1  0.40092400  0.23627800  0.06870700  1
  O  O2  1  0.08760100  0.88548500  0.74892200  1
  O  O3  1  0.58240200  0.40331800  0.24331500  1
  O  O4  1  0.24324600  0.08067000  0.90962600  1
  O  O5  1  0.90657000  0.74838900  0.57924700  1
  O  O6  1  0.59668200  0.41759800  0.75668500  1
  O  O7  1  0.25161100  0.09343000  0.42075300  1
  O  O8  1  0.91933000  0.75675400  0.09037400  1
  O  O9  1  0.76372200  0.59907600  0.93129300  1
  O  O10  1  0.40603800  0.27279600  0.60094500  1
  O  O11  1  0.11451500  0.91239900  0.25107800  1
loop_
_geom_bond_atom_site_label_1
_geom_bond_atom_site_label_2
_geom_bond_distance
_geom_bond_site_symmetry_2
Ce0 O10 2.328890 1_555
Ce0 O0 2.328890 1_555
Ce0 O2 2.343827 1_645
Ce0 O11 2.343827 1_645
Ce0 O6 2.374104 1_555
Ce0 O3 2.374104 1_555
Ce0 O5 2.374156 1_545
Ce0 O7 2.374156 1_655
Ce1 O4 2.260881 1_654
Ce1 O8 2.260881 1_545
Ce1 O3 2.265517 1_555
Ce1 O6 2.265517 1_554
Ce1 O11 2.419119 1_645
Ce1 O2 2.419119 1_644
Ce1 O9 2.495753 1_554
Ce1 O1 2.495753 1_555
Ce2 O4 2.260774 1_565
Ce2 O5 2.270532 1_555
Ce2 O6 2.291833 1_555
Ce2 O7 2.298594 1_565
Ce2 O2 2.399350 1_555
Ce2 O0 2.428213 1_555
Ce2 O10 2.434860 1_565
Ce2 O9 2.470577 1_555
Ce3 O8 2.260774 1_455
Ce3 O7 2.270532 1_555
Ce3 O3 2.291833 1_555
Ce3 O5 2.298594 1_455
Ce3 O11 2.399350 1_555
Ce3 O10 2.428213 1_555
Ce3 O0 2.434860 1_455
Ce3 O1 2.470577 1_555
O0 Zr0 2.165425 1_555
O1 Zr0 2.177956 1_545
O1 Zr1 2.178704 1_554
O2 Zr1 2.174207 1_555
O3 Zr0 2.440350 1_555
O4 Zr1 2.344403 1_555
O4 Zr0 2.379932 1_546
O5 Zr1 2.401763 1_655
O6 Zr1 2.440350 1_555
O7 Zr0 2.401763 1_545
O8 Zr0 2.344403 1_555
O8 Zr1 2.379932 1_654
O9 Zr1 2.177956 1_655
O9 Zr0 2.178704 1_556
O10 Zr1 2.165425 1_555
O11 Zr0 2.174207 1_555
