# generated using pymatgen
data_Na8Al12SO28
_symmetry_space_group_name_H-M   'P 1'
_cell_length_a   9.48772700
_cell_length_b   9.48772700
_cell_length_c   9.48772700
_cell_angle_alpha   90.00000000
_cell_angle_beta   90.00000000
_cell_angle_gamma   90.00000000
_symmetry_Int_Tables_number   1
_chemical_formula_structural   Na8Al12SO28
_chemical_formula_sum   'Na8 Al12 S1 O28'
_cell_volume   854.05637626
_cell_formula_units_Z   1
loop_
 _symmetry_equiv_pos_site_id
 _symmetry_equiv_pos_as_xyz
  1  'x, y, z'
loop_
 _atom_site_type_symbol
 _atom_site_label
 _atom_site_symmetry_multiplicity
 _atom_site_fract_x
 _atom_site_fract_y
 _atom_site_fract_z
 _atom_site_occupancy
  Na  Na0  1  0.79717500  0.79717500  0.79717500  1
  Na  Na1  1  0.20282500  0.20282500  0.79717500  1
  Na  Na2  1  0.20282500  0.79717500  0.20282500  1
  Na  Na3  1  0.79717500  0.20282500  0.20282500  1
  Na  Na4  1  0.23310800  0.23310800  0.23310800  1
  Na  Na5  1  0.76689200  0.76689200  0.23310800  1
  Na  Na6  1  0.76689200  0.23310800  0.76689200  1
  Na  Na7  1  0.23310800  0.76689200  0.76689200  1
  Al  Al0  1  0.25101300  0.50000000  0.00000000  1
  Al  Al1  1  0.74898700  0.50000000  0.00000000  1
  Al  Al2  1  0.00000000  0.25101300  0.50000000  1
  Al  Al3  1  0.50000000  0.25101300  0.00000000  1
  Al  Al4  1  0.00000000  0.74898700  0.50000000  1
  Al  Al5  1  0.50000000  0.74898700  0.00000000  1
  Al  Al6  1  0.50000000  0.00000000  0.25101300  1
  Al  Al7  1  0.25101300  0.00000000  0.50000000  1
  Al  Al8  1  0.50000000  0.00000000  0.74898700  1
  Al  Al9  1  0.74898700  0.00000000  0.50000000  1
  Al  Al10  1  0.00000000  0.50000000  0.25101300  1
  Al  Al11  1  0.00000000  0.50000000  0.74898700  1
  S  S0  1  0.00000000  0.00000000  0.00000000  1
  O  O0  1  0.09085100  0.09085100  0.09085100  1
  O  O1  1  0.90914900  0.90914900  0.09085100  1
  O  O2  1  0.90914900  0.09085100  0.90914900  1
  O  O3  1  0.09085100  0.90914900  0.90914900  1
  O  O4  1  0.34932800  0.34932800  0.04091300  1
  O  O5  1  0.65067200  0.65067200  0.04091300  1
  O  O6  1  0.65067200  0.34932800  0.95908700  1
  O  O7  1  0.04091300  0.34932800  0.34932800  1
  O  O8  1  0.34932800  0.65067200  0.95908700  1
  O  O9  1  0.04091300  0.65067200  0.65067200  1
  O  O10  1  0.95908700  0.65067200  0.34932800  1
  O  O11  1  0.95908700  0.34932800  0.65067200  1
  O  O12  1  0.34932800  0.04091300  0.34932800  1
  O  O13  1  0.34932800  0.95908700  0.65067200  1
  O  O14  1  0.65067200  0.95908700  0.34932800  1
  O  O15  1  0.65067200  0.04091300  0.65067200  1
  O  O16  1  0.14589300  0.14589300  0.54342600  1
  O  O17  1  0.85410700  0.85410700  0.54342600  1
  O  O18  1  0.85410700  0.14589300  0.45657400  1
  O  O19  1  0.54342600  0.14589300  0.14589300  1
  O  O20  1  0.14589300  0.85410700  0.45657400  1
  O  O21  1  0.54342600  0.85410700  0.85410700  1
  O  O22  1  0.45657400  0.85410700  0.14589300  1
  O  O23  1  0.45657400  0.14589300  0.85410700  1
  O  O24  1  0.14589300  0.54342600  0.14589300  1
  O  O25  1  0.14589300  0.45657400  0.85410700  1
  O  O26  1  0.85410700  0.45657400  0.14589300  1
  O  O27  1  0.85410700  0.54342600  0.85410700  1
loop_
_geom_bond_atom_site_label_1
_geom_bond_atom_site_label_2
_geom_bond_distance
_geom_bond_site_symmetry_2
Na0 O21 2.525787 1_555
Na0 O27 2.525787 1_555
Na0 O17 2.525787 1_555
Na1 O25 2.525787 1_555
Na1 O23 2.525787 1_555
Na1 O16 2.525787 1_555
Na2 O22 2.525787 1_555
Na2 O24 2.525787 1_555
Na2 O20 2.525787 1_555
Na3 O18 2.525787 1_555
Na3 O26 2.525787 1_555
Na3 O19 2.525787 1_555
Na4 O0 2.337741 1_555
Na4 O7 2.399346 1_555
Na4 O12 2.399346 1_555
Na4 O4 2.399346 1_555
Na5 O1 2.337741 1_555
Na5 O10 2.399346 1_555
Na5 O5 2.399346 1_555
Na5 O14 2.399346 1_555
Na6 O2 2.337741 1_555
Na6 O11 2.399346 1_555
Na6 O15 2.399346 1_555
Na6 O6 2.399346 1_555
Na7 O3 2.337741 1_555
Na7 O9 2.399346 1_555
Na7 O8 2.399346 1_555
Na7 O13 2.399346 1_555
Al0 O4 1.750525 1_555
Al0 O8 1.750525 1_554
Al0 O24 1.755122 1_555
Al0 O25 1.755122 1_554
Al1 O6 1.750525 1_554
Al1 O5 1.750525 1_555
Al1 O26 1.755122 1_555
Al1 O27 1.755122 1_554
Al2 O7 1.750525 1_555
Al2 O11 1.750525 1_455
Al2 O16 1.755122 1_555
Al2 O18 1.755122 1_455
Al3 O4 1.750525 1_555
Al3 O6 1.750525 1_554
Al3 O19 1.755122 1_555
Al3 O23 1.755122 1_554
Al4 O10 1.750525 1_455
Al4 O9 1.750525 1_555
Al4 O20 1.755122 1_555
Al4 O17 1.755122 1_455
Al5 O8 1.750525 1_554
Al5 O5 1.750525 1_555
Al5 O22 1.755122 1_555
Al5 O21 1.755122 1_554
Al6 O12 1.750525 1_555
Al6 O14 1.750525 1_545
Al6 O19 1.755122 1_555
Al6 O22 1.755122 1_545
Al7 O12 1.750525 1_555
Al7 O13 1.750525 1_545
Al7 O16 1.755122 1_555
Al7 O20 1.755122 1_545
Al8 O13 1.750525 1_545
Al8 O15 1.750525 1_555
Al8 O23 1.755122 1_555
Al8 O21 1.755122 1_545
Al9 O14 1.750525 1_545
Al9 O15 1.750525 1_555
Al9 O17 1.755122 1_545
Al9 O18 1.755122 1_555
Al10 O7 1.750525 1_555
Al10 O10 1.750525 1_455
Al10 O24 1.755122 1_555
Al10 O26 1.755122 1_455
Al11 O11 1.750525 1_455
Al11 O9 1.750525 1_555
Al11 O25 1.755122 1_555
Al11 O27 1.755122 1_455
O0 S0 1.492975 1_555
O1 S0 1.492975 1_665
O2 S0 1.492975 1_656
O3 S0 1.492975 1_566
