# generated using pymatgen
data_Cs2Tc2O5
_symmetry_space_group_name_H-M   'P 1'
_cell_length_a   3.94010700
_cell_length_b   3.94010700
_cell_length_c   9.43948800
_cell_angle_alpha   90.00000000
_cell_angle_beta   90.00000000
_cell_angle_gamma   90.00000000
_symmetry_Int_Tables_number   1
_chemical_formula_structural   Cs2Tc2O5
_chemical_formula_sum   'Cs2 Tc2 O5'
_cell_volume   146.54279502
_cell_formula_units_Z   1
loop_
 _symmetry_equiv_pos_site_id
 _symmetry_equiv_pos_as_xyz
  1  'x, y, z'
loop_
 _atom_site_type_symbol
 _atom_site_label
 _atom_site_symmetry_multiplicity
 _atom_site_fract_x
 _atom_site_fract_y
 _atom_site_fract_z
 _atom_site_occupancy
  Cs  Cs0  1  0.00000000  0.00000000  0.00000000  1
  Cs  Cs1  1  0.00000000  0.00000000  0.50000000  1
  Tc  Tc0  1  0.50000000  0.50000000  0.28150600  1
  Tc  Tc1  1  0.50000000  0.50000000  0.71849400  1
  O  O0  1  0.50000000  0.00000000  0.25970300  1
  O  O1  1  0.50000000  0.00000000  0.74029700  1
  O  O2  1  0.00000000  0.50000000  0.25970300  1
  O  O3  1  0.00000000  0.50000000  0.74029700  1
  O  O4  1  0.50000000  0.50000000  0.50000000  1
loop_
_geom_bond_atom_site_label_1
_geom_bond_atom_site_label_2
_geom_bond_distance
_geom_bond_site_symmetry_2
Cs0 O0 3.144962 1_455
Cs0 O0 3.144962 1_555
Cs0 O2 3.144962 1_555
Cs0 O2 3.144962 1_545
Cs0 O1 3.144962 1_554
Cs0 O3 3.144962 1_544
Cs0 O1 3.144962 1_454
Cs0 O3 3.144962 1_554
Cs1 O4 2.786076 1_545
Cs1 O4 2.786076 1_455
Cs1 O4 2.786076 1_555
Cs1 O4 2.786076 1_445
Cs1 O3 3.004365 1_555
Cs1 O1 3.004365 1_455
Cs1 O1 3.004365 1_555
Cs1 O3 3.004365 1_545
Cs1 O2 3.004365 1_545
Cs1 O2 3.004365 1_555
Cs1 O0 3.004365 1_555
Cs1 O0 3.004365 1_455
O0 Tc0 1.980775 1_545
O0 Tc0 1.980775 1_555
O1 Tc1 1.980775 1_555
O1 Tc1 1.980775 1_545
O2 Tc0 1.980775 1_455
O2 Tc0 1.980775 1_555
O3 Tc1 1.980775 1_555
O3 Tc1 1.980775 1_455
O4 Tc1 2.062471 1_555
O4 Tc0 2.062471 1_555
