# generated using pymatgen
data_Al2Si2H4O9
_symmetry_space_group_name_H-M   'P 1'
_cell_length_a   5.35566457
_cell_length_b   5.35566457
_cell_length_c   22.80900527
_cell_angle_alpha   61.37696597
_cell_angle_beta   118.62303403
_cell_angle_gamma   119.54877502
_symmetry_Int_Tables_number   1
_chemical_formula_structural   Al2Si2H4O9
_chemical_formula_sum   'Al4 Si4 H8 O18'
_cell_volume   473.66163669
_cell_formula_units_Z   2
loop_
 _symmetry_equiv_pos_site_id
 _symmetry_equiv_pos_as_xyz
  1  'x, y, z'
loop_
 _atom_site_type_symbol
 _atom_site_label
 _atom_site_symmetry_multiplicity
 _atom_site_fract_x
 _atom_site_fract_y
 _atom_site_fract_z
 _atom_site_occupancy
  Al  Al0  1  0.75135200  0.47862600  0.70850200  1
  Al  Al1  1  0.52137400  0.24864800  0.20850200  1
  Al  Al2  1  0.10135800  0.19628900  0.70273900  1
  Al  Al3  1  0.80371100  0.89864200  0.20273900  1
  Si  Si0  1  0.79456400  0.39217900  0.52587100  1
  Si  Si1  1  0.60782100  0.20543600  0.02587100  1
  Si  Si2  1  0.45833900  0.74658300  0.52285900  1
  Si  Si3  1  0.25341700  0.54166100  0.02285900  1
  H  H0  1  0.68941200  0.91087700  0.61299500  1
  H  H1  1  0.08912300  0.31058800  0.11299500  1
  H  H2  1  0.60405400  0.94892400  0.87902900  1
  H  H3  1  0.05107600  0.39594600  0.37902900  1
  H  H4  1  0.74357500  0.91435900  0.89076200  1
  H  H5  1  0.08564100  0.25642500  0.39076200  1
  H  H6  1  0.59945000  0.68512400  0.78681600  1
  H  H7  1  0.31487600  0.40055000  0.28681600  1
  O  O0  1  0.57996200  0.11693300  0.49031700  1
  O  O1  1  0.88306700  0.42003800  0.99031700  1
  O  O2  1  0.08996500  0.60298900  0.49817600  1
  O  O3  1  0.39701100  0.91003500  0.99817600  1
  O  O4  1  0.59809500  0.59896700  0.50329600  1
  O  O5  1  0.40103300  0.40190500  0.00329600  1
  O  O6  1  0.88762200  0.22490300  0.61056500  1
  O  O7  1  0.77509700  0.11237800  0.11056500  1
  O  O8  1  0.58657700  0.68912900  0.61018900  1
  O  O9  1  0.31087100  0.41342300  0.11018900  1
  O  O10  1  0.81195100  0.70113500  0.80067300  1
  O  O11  1  0.29886500  0.18804900  0.30067300  1
  O  O12  1  0.83338000  0.80717500  0.73016200  1
  O  O13  1  0.19282500  0.16662000  0.23016200  1
  O  O14  1  0.44881900  0.17737800  0.72827400  1
  O  O15  1  0.82262200  0.55118100  0.22827400  1
  O  O16  1  0.08134300  0.45324800  0.72297500  1
  O  O17  1  0.54675200  0.91865700  0.22297500  1
loop_
_geom_bond_atom_site_label_1
_geom_bond_atom_site_label_2
_geom_bond_distance
_geom_bond_site_symmetry_2
Al0 O14 1.690045 1_555
Al0 O16 1.698776 1_655
Al0 O12 1.842757 1_555
Al0 O8 1.934280 1_555
Al1 O15 1.690045 1_555
Al1 O17 1.698776 1_545
Al1 O13 1.842757 1_555
Al1 O9 1.934280 1_555
Al2 O14 1.703920 1_555
Al2 O16 1.708771 1_555
Al2 O6 1.820023 1_455
Al2 O12 1.858801 1_445
Al3 O15 1.703920 1_555
Al3 O17 1.708771 1_555
Al3 O7 1.820023 1_565
Al3 O13 1.858801 1_665
H0 O8 1.054397 1_555
H0 O6 1.471260 1_565
H1 O9 1.054397 1_555
H1 O7 1.471260 1_455
H2 H4 0.749411 1_555
H3 H5 0.749411 1_555
H6 O10 0.993762 1_555
H7 O11 0.993762 1_555
O0 Si2 1.639436 1_545
O0 Si0 1.653151 1_555
O1 Si3 1.639436 1_656
O1 Si1 1.653151 1_556
O2 Si2 1.629365 1_555
O2 Si0 1.639846 1_455
O3 Si3 1.629365 1_556
O3 Si1 1.639846 1_566
O4 Si2 1.620486 1_555
O4 Si0 1.637916 1_555
O5 Si3 1.620486 1_555
O5 Si1 1.637916 1_555
O6 Si0 1.625618 1_555
O7 Si1 1.625618 1_555
O8 Si2 1.686590 1_555
O9 Si3 1.686590 1_555
