# generated using pymatgen
data_Tm2InCu2
_symmetry_space_group_name_H-M   'P 1'
_cell_length_a   7.35772523
_cell_length_b   7.35772523
_cell_length_c   3.70711597
_cell_angle_alpha   90.00000000
_cell_angle_beta   90.00000000
_cell_angle_gamma   90.00000000
_symmetry_Int_Tables_number   1
_chemical_formula_structural   Tm2InCu2
_chemical_formula_sum   'Tm4 In2 Cu4'
_cell_volume   200.68887708
_cell_formula_units_Z   2
loop_
 _symmetry_equiv_pos_site_id
 _symmetry_equiv_pos_as_xyz
  1  'x, y, z'
loop_
 _atom_site_type_symbol
 _atom_site_label
 _atom_site_symmetry_multiplicity
 _atom_site_fract_x
 _atom_site_fract_y
 _atom_site_fract_z
 _atom_site_occupancy
  Tm  Tm0  1  0.67086576  0.17086576  0.50000000  1
  Tm  Tm1  1  0.32913424  0.82913424  0.50000000  1
  Tm  Tm2  1  0.17086576  0.32913424  0.50000000  1
  Tm  Tm3  1  0.82913424  0.67086576  0.50000000  1
  In  In0  1  0.50000000  0.50000000  -0.00000000  1
  In  In1  1  -0.00000000  -0.00000000  -0.00000000  1
  Cu  Cu0  1  0.12089478  0.62089478  -0.00000000  1
  Cu  Cu1  1  0.87910522  0.37910522  0.00000000  1
  Cu  Cu2  1  0.62089478  0.87910522  -0.00000000  1
  Cu  Cu3  1  0.37910522  0.12089478  0.00000000  1
loop_
_geom_bond_atom_site_label_1
_geom_bond_atom_site_label_2
_geom_bond_distance
_geom_bond_site_symmetry_2
In0 Tm1 3.298593 1_555
In0 Tm2 3.298593 1_554
In0 Tm0 3.298593 1_555
In0 Tm2 3.298593 1_555
In0 Tm0 3.298593 1_554
In0 Tm3 3.298593 1_554
In0 Tm1 3.298593 1_554
In0 Tm3 3.298593 1_555
In1 Tm1 3.298593 1_545
In1 Tm2 3.298593 1_554
In1 Tm0 3.298593 1_455
In1 Tm2 3.298593 1_555
In1 Tm3 3.298593 1_444
In1 Tm3 3.298593 1_445
In1 Tm0 3.298593 1_454
In1 Tm1 3.298593 1_544
Cu0 Cu1 2.515916 1_455
Cu0 Tm1 2.851449 1_555
Cu0 Tm1 2.851449 1_554
Cu0 Tm3 2.859922 1_454
Cu0 Tm2 2.859922 1_554
Cu0 Tm3 2.859922 1_455
Cu0 Tm2 2.859922 1_555
Cu0 In1 2.927749 1_565
Cu0 In0 2.927749 1_555
Cu1 Tm0 2.851449 1_555
Cu1 Tm0 2.851449 1_554
Cu1 Tm3 2.859922 1_555
Cu1 Tm3 2.859922 1_554
Cu1 Tm2 2.859922 1_655
Cu1 Tm2 2.859922 1_654
Cu1 In1 2.927749 1_655
Cu1 In0 2.927749 1_555
Cu2 Cu3 2.515916 1_565
Cu2 Tm3 2.851449 1_555
Cu2 Tm3 2.851449 1_554
Cu2 Tm1 2.859922 1_555
Cu2 Tm1 2.859922 1_554
Cu2 Tm0 2.859922 1_565
Cu2 Tm0 2.859922 1_564
Cu2 In1 2.927749 1_665
Cu2 In0 2.927749 1_555
Cu3 Tm2 2.851449 1_554
Cu3 Tm2 2.851449 1_555
Cu3 Tm1 2.859922 1_544
Cu3 Tm1 2.859922 1_545
Cu3 Tm0 2.859922 1_555
Cu3 Tm0 2.859922 1_554
Cu3 In1 2.927749 1_555
Cu3 In0 2.927749 1_555
