# generated using pymatgen
data_CrH8C4NO10
_symmetry_space_group_name_H-M   'P 1'
_cell_length_a   4.98775407
_cell_length_b   4.98775407
_cell_length_c   10.45754020
_cell_angle_alpha   90.16394371
_cell_angle_beta   90.16394371
_cell_angle_gamma   93.40668214
_symmetry_Int_Tables_number   1
_chemical_formula_structural   CrH8C4NO10
_chemical_formula_sum   'Cr1 H8 C4 N1 O10'
_cell_volume   259.69746329
_cell_formula_units_Z   1
loop_
 _symmetry_equiv_pos_site_id
 _symmetry_equiv_pos_as_xyz
  1  'x, y, z'
loop_
 _atom_site_type_symbol
 _atom_site_label
 _atom_site_symmetry_multiplicity
 _atom_site_fract_x
 _atom_site_fract_y
 _atom_site_fract_z
 _atom_site_occupancy
  Cr  Cr0  1  0.49976300  0.49976300  0.49989400  1
  H  H0  1  0.95350700  0.72598000  0.59789000  1
  H  H1  1  0.72598000  0.95350700  0.59789000  1
  H  H2  1  0.04760900  0.27457000  0.40127500  1
  H  H3  1  0.27457000  0.04760900  0.40127500  1
  H  H4  1  0.13372900  0.13372900  0.96172900  1
  H  H5  1  0.89864700  0.89864700  0.91598700  1
  H  H6  1  0.07936200  0.84784200  0.04737800  1
  H  H7  1  0.84784200  0.07936200  0.04737800  1
  C  C0  1  0.74110200  0.52646700  0.25524500  1
  C  C1  1  0.52646700  0.74110200  0.25524500  1
  C  C2  1  0.25908200  0.47358000  0.74478500  1
  C  C3  1  0.47358000  0.25908200  0.74478500  1
  N  N0  1  0.99093200  0.99093200  0.99364400  1
  O  O0  1  0.75448700  0.39263300  0.36318300  1
  O  O1  1  0.39263300  0.75448700  0.36318300  1
  O  O2  1  0.24492200  0.60773600  0.63708200  1
  O  O3  1  0.60773600  0.24492200  0.63708200  1
  O  O4  1  0.78273700  0.78273700  0.55797600  1
  O  O5  1  0.21637200  0.21637200  0.44264800  1
  O  O6  1  0.88357400  0.49344500  0.16125400  1
  O  O7  1  0.49344500  0.88357400  0.16125400  1
  O  O8  1  0.11671900  0.50320200  0.83897000  1
  O  O9  1  0.50320200  0.11671900  0.83897000  1
loop_
_geom_bond_atom_site_label_1
_geom_bond_atom_site_label_2
_geom_bond_distance
_geom_bond_site_symmetry_2
Cr0 O0 2.007567 1_555
Cr0 O1 2.007567 1_555
Cr0 O2 2.012777 1_555
Cr0 O3 2.012777 1_555
Cr0 O4 2.026449 1_555
Cr0 O5 2.026606 1_555
H0 O4 1.003572 1_555
H0 O2 1.651770 1_655
H1 O4 1.003572 1_555
H1 O3 1.651770 1_565
H2 O5 1.003827 1_555
H2 O0 1.656285 1_455
H3 O5 1.003827 1_555
H3 O1 1.656285 1_545
H4 N0 1.033627 1_445
H5 N0 1.026544 1_555
H6 N0 1.028568 1_454
H7 N0 1.028568 1_544
C0 O6 1.230936 1_555
C0 O0 1.316565 1_555
C1 O7 1.230936 1_555
C1 O1 1.316565 1_555
C2 O8 1.229546 1_555
C2 O2 1.315590 1_555
C3 O9 1.229546 1_555
C3 O3 1.315590 1_555
