# generated using pymatgen
data_Na3CoBAsO7
_symmetry_space_group_name_H-M   'P 1'
_cell_length_a   8.65889780
_cell_length_b   8.65078023
_cell_length_c   9.09710970
_cell_angle_alpha   89.16504021
_cell_angle_beta   89.03416201
_cell_angle_gamma   104.81637286
_symmetry_Int_Tables_number   1
_chemical_formula_structural   Na3CoBAsO7
_chemical_formula_sum   'Na12 Co4 B4 As4 O28'
_cell_volume   658.55351765
_cell_formula_units_Z   4
loop_
 _symmetry_equiv_pos_site_id
 _symmetry_equiv_pos_as_xyz
  1  'x, y, z'
loop_
 _atom_site_type_symbol
 _atom_site_label
 _atom_site_symmetry_multiplicity
 _atom_site_fract_x
 _atom_site_fract_y
 _atom_site_fract_z
 _atom_site_occupancy
  Na  Na0  1  0.50934000  0.26003700  0.08429300  1
  Na  Na1  1  0.00438300  0.75437500  0.07882000  1
  Na  Na2  1  0.49502200  0.74145600  0.91726100  1
  Na  Na3  1  0.99448000  0.24701700  0.91746000  1
  Na  Na4  1  0.12286400  0.12298600  0.24465600  1
  Na  Na5  1  0.62237300  0.62148000  0.24650000  1
  Na  Na6  1  0.37512300  0.87291900  0.24375900  1
  Na  Na7  1  0.87351400  0.37084200  0.24362500  1
  Na  Na8  1  0.62548500  0.12692700  0.75502500  1
  Na  Na9  1  0.12683500  0.62428400  0.75327200  1
  Na  Na10  1  0.87196700  0.87641200  0.75175600  1
  Na  Na11  1  0.37405900  0.37647900  0.75232500  1
  Co  Co0  1  0.26385300  0.51296800  0.33431400  1
  Co  Co1  1  0.73577100  0.48755400  0.66788300  1
  Co  Co2  1  0.76384800  0.01287700  0.33460500  1
  Co  Co3  1  0.22837000  0.98017800  0.67082700  1
  B  B0  1  0.74416000  0.99357700  0.06398300  1
  B  B1  1  0.24501600  0.49455400  0.06408500  1
  B  B2  1  0.26242600  0.01319500  0.93069600  1
  B  B3  1  0.75728200  0.50755400  0.93726600  1
  As  As0  1  0.47930800  0.22974600  0.42757200  1
  As  As1  1  0.98475900  0.73437300  0.42265900  1
  As  As2  1  0.51727200  0.76536500  0.57712800  1
  As  As3  1  0.01431700  0.26743000  0.57703900  1
  O  O0  1  0.28324300  0.03234600  0.07552400  1
  O  O1  1  0.78106400  0.53036400  0.08237800  1
  O  O2  1  0.71641500  0.96646900  0.92025600  1
  O  O3  1  0.21842000  0.46977000  0.91990800  1
  O  O4  1  0.86254500  0.11407800  0.12352100  1
  O  O5  1  0.36350300  0.61385500  0.12503900  1
  O  O6  1  0.14384000  0.89442600  0.86516600  1
  O  O7  1  0.63715700  0.39043100  0.87537400  1
  O  O8  1  0.64952300  0.89576200  0.17692600  1
  O  O9  1  0.14920700  0.39595900  0.17576700  1
  O  O10  1  0.35505800  0.10809000  0.81859400  1
  O  O11  1  0.85690200  0.60475300  0.82760200  1
  O  O12  1  0.31656400  0.06988400  0.47028500  1
  O  O13  1  0.82356400  0.57342000  0.46311800  1
  O  O14  1  0.68068900  0.92550400  0.53824800  1
  O  O15  1  0.17848600  0.42668700  0.53756400  1
  O  O16  1  0.43974700  0.68936900  0.41287600  1
  O  O17  1  0.93761900  0.19067700  0.41258800  1
  O  O18  1  0.56125700  0.31057300  0.58792600  1
  O  O19  1  0.06020500  0.80948000  0.58808900  1
  O  O20  1  0.42188100  0.36599700  0.31405200  1
  O  O21  1  0.92771900  0.87202200  0.31117700  1
  O  O22  1  0.61335100  0.16787200  0.31456600  1
  O  O23  1  0.12112300  0.67444700  0.31158900  1
  O  O24  1  0.38378800  0.82359900  0.69121600  1
  O  O25  1  0.87923300  0.33099600  0.68698700  1
  O  O26  1  0.57698100  0.62685100  0.68593400  1
  O  O27  1  0.06908600  0.13173500  0.69091900  1
loop_
_geom_bond_atom_site_label_1
_geom_bond_atom_site_label_2
_geom_bond_distance
_geom_bond_site_symmetry_2
Na0 O7 2.310312 1_554
Na0 O0 2.399272 1_555
Na0 O20 2.477887 1_555
Na0 O22 2.493440 1_555
Na1 O1 2.361169 1_455
Na1 O6 2.409924 1_554
Na1 O21 2.511063 1_455
Na1 O23 2.524035 1_555
Na1 O11 2.805033 1_454
Na1 O0 2.939310 1_565
Na2 O5 2.304744 1_556
Na2 O2 2.357868 1_555
Na2 O24 2.456719 1_555
Na2 O26 2.507068 1_555
Na3 O4 2.309692 1_556
Na3 O3 2.359119 1_655
Na3 O27 2.450221 1_655
Na3 O25 2.513249 1_555
Na4 O0 2.330384 1_555
Na4 O17 2.381907 1_455
Na4 O9 2.386982 1_555
Na4 O21 2.446596 1_445
Na4 O4 2.509687 1_455
Na4 O12 2.778454 1_555
Na5 O1 2.292957 1_555
Na5 O16 2.357235 1_555
Na5 O8 2.398279 1_555
Na5 O20 2.497648 1_555
Na5 O5 2.501940 1_555
Na5 O13 2.748324 1_555
Na6 O0 2.327669 1_565
Na6 O16 2.369294 1_555
Na6 O8 2.400364 1_555
Na6 O23 2.481510 1_555
Na6 O5 2.481527 1_555
Na6 O12 2.813536 1_565
Na6 O22 2.929391 1_565
Na7 O1 2.289655 1_555
Na7 O17 2.345475 1_555
Na7 O9 2.410005 1_655
Na7 O4 2.470404 1_555
Na7 O22 2.543469 1_555
Na7 O13 2.775917 1_555
Na8 O2 2.311741 1_545
Na8 O18 2.356684 1_555
Na8 O10 2.366541 1_555
Na8 O25 2.503136 1_555
Na8 O7 2.522636 1_555
Na8 O14 2.765500 1_545
Na9 O3 2.288481 1_555
Na9 O19 2.364196 1_555
Na9 O11 2.385428 1_455
Na9 O24 2.491830 1_555
Na9 O6 2.533279 1_555
Na9 O15 2.726139 1_555
Na9 O25 2.950175 1_455
Na10 O2 2.296224 1_555
Na10 O19 2.373761 1_655
Na10 O11 2.410146 1_555
Na10 O27 2.470330 1_665
Na10 O6 2.555292 1_655
Na10 O14 2.672124 1_555
Na11 O3 2.305324 1_555
Na11 O10 2.354068 1_555
Na11 O18 2.367474 1_555
Na11 O26 2.474468 1_555
Na11 O7 2.531166 1_555
Na11 O15 2.708572 1_555
Co0 O9 1.915005 1_555
Co0 O16 2.009712 1_555
Co0 O15 2.038083 1_555
Co0 O23 2.098738 1_555
Co0 O20 2.100227 1_555
Co0 O5 2.154463 1_555
Co1 O11 1.946695 1_555
Co1 O18 2.010672 1_555
Co1 O26 2.053065 1_555
Co1 O13 2.054921 1_555
Co1 O25 2.066024 1_555
Co1 O7 2.128492 1_555
Co2 O8 1.908207 1_545
Co2 O17 2.004297 1_555
Co2 O14 2.039031 1_545
Co2 O22 2.103270 1_555
Co2 O21 2.103623 1_545
Co2 O4 2.167303 1_555
Co3 O10 1.925371 1_565
Co3 O19 1.958827 1_555
Co3 O6 1.962661 1_555
Co3 O12 2.030354 1_565
Co3 O27 2.139611 1_565
Co3 O24 2.147924 1_555
B0 O2 1.346469 1_554
B0 O4 1.385447 1_565
B0 O8 1.426471 1_555
B1 O3 1.346257 1_554
B1 O5 1.385468 1_555
B1 O9 1.425615 1_555
B2 O0 1.339732 1_556
B2 O6 1.401534 1_545
B2 O10 1.403039 1_555
B3 O1 1.349066 1_556
B3 O7 1.386678 1_555
B3 O11 1.421950 1_555
As0 O18 1.712093 1_555
As0 O22 1.727436 1_555
As0 O20 1.727604 1_555
As0 O12 1.737370 1_555
As1 O19 1.719975 1_655
As1 O23 1.723947 1_655
As1 O21 1.724207 1_555
As1 O13 1.730932 1_555
As2 O24 1.714493 1_555
As2 O16 1.718211 1_555
As2 O26 1.726961 1_555
As2 O14 1.735735 1_555
As3 O27 1.715214 1_555
As3 O17 1.719575 1_455
As3 O25 1.725254 1_455
As3 O15 1.736226 1_555
