# generated using pymatgen
data_Mg2MnMo3S8
_symmetry_space_group_name_H-M   'P 1'
_cell_length_a   7.44935495
_cell_length_b   7.38089196
_cell_length_c   7.44909101
_cell_angle_alpha   59.69980141
_cell_angle_beta   60.00516702
_cell_angle_gamma   59.69179099
_symmetry_Int_Tables_number   1
_chemical_formula_structural   Mg2MnMo3S8
_chemical_formula_sum   'Mg2 Mn1 Mo3 S8'
_cell_volume   288.28384879
_cell_formula_units_Z   1
loop_
 _symmetry_equiv_pos_site_id
 _symmetry_equiv_pos_as_xyz
  1  'x, y, z'
loop_
 _atom_site_type_symbol
 _atom_site_label
 _atom_site_symmetry_multiplicity
 _atom_site_fract_x
 _atom_site_fract_y
 _atom_site_fract_z
 _atom_site_occupancy
  Mg  Mg0  1  0.87683700  0.86953000  0.87683900  1
  Mg  Mg1  1  0.12316100  0.13053100  0.12312400  1
  Mn  Mn0  1  0.49986300  0.99982400  0.50023300  1
  Mo  Mo0  1  0.50010100  0.50000100  0.49987900  1
  Mo  Mo1  1  0.49998600  0.49998400  0.00001200  1
  Mo  Mo2  1  0.00002500  0.50001500  0.50002600  1
  S  S0  1  0.74031500  0.73666000  0.74028600  1
  S  S1  1  0.25981000  0.26326700  0.71724400  1
  S  S2  1  0.26052700  0.71843500  0.26046800  1
  S  S3  1  0.71722500  0.26322000  0.25980800  1
  S  S4  1  0.73950600  0.28160900  0.73946300  1
  S  S5  1  0.28272300  0.73675600  0.74019800  1
  S  S6  1  0.25969100  0.26336900  0.25970400  1
  S  S7  1  0.74023500  0.73679400  0.28271600  1
loop_
_geom_bond_atom_site_label_1
_geom_bond_atom_site_label_2
_geom_bond_distance
_geom_bond_site_symmetry_2
Mg0 S5 2.465214 1_655
Mg0 S7 2.465269 1_556
Mg0 S0 2.465427 1_555
Mg0 S4 2.471870 1_565
Mg1 S1 2.465287 1_554
Mg1 S6 2.465448 1_555
Mg1 S3 2.465527 1_455
Mg1 S2 2.471972 1_545
Mn0 S5 2.521627 1_555
Mn0 S1 2.522660 1_565
Mn0 S0 2.522893 1_555
Mn0 S7 2.522963 1_555
Mn0 S6 2.524032 1_565
Mn0 S3 2.524526 1_565
Mo0 S3 2.505410 1_555
Mo0 S7 2.506143 1_555
Mo0 S5 2.506523 1_555
Mo0 S1 2.506598 1_555
Mo0 S2 2.518282 1_555
Mo0 S4 2.518327 1_555
Mo1 S6 2.506080 1_555
Mo1 S3 2.506458 1_555
Mo1 S0 2.506569 1_554
Mo1 S5 2.506678 1_554
Mo1 S2 2.517789 1_555
Mo1 S4 2.517925 1_554
Mo2 S0 2.505707 1_455
Mo2 S6 2.506005 1_555
Mo2 S1 2.506278 1_555
Mo2 S7 2.506768 1_455
Mo2 S2 2.518228 1_555
Mo2 S4 2.518252 1_455
