# generated using pymatgen
data_Pr25Ni49P33
_symmetry_space_group_name_H-M   'P 1'
_cell_length_a   3.96550034
_cell_length_b   22.12766925
_cell_length_c   22.12766925
_cell_angle_alpha   120.00000135
_cell_angle_beta   90.00000000
_cell_angle_gamma   90.00000000
_symmetry_Int_Tables_number   1
_chemical_formula_structural   Pr25Ni49P33
_chemical_formula_sum   'Pr25 Ni49 P33'
_cell_volume   1681.51195693
_cell_formula_units_Z   1
loop_
 _symmetry_equiv_pos_site_id
 _symmetry_equiv_pos_as_xyz
  1  'x, y, z'
loop_
 _atom_site_type_symbol
 _atom_site_label
 _atom_site_symmetry_multiplicity
 _atom_site_fract_x
 _atom_site_fract_y
 _atom_site_fract_z
 _atom_site_occupancy
  Pr  Pr0  1  0.50000000  0.57290585  0.60888685  1
  Pr  Pr1  1  0.50000000  0.03598101  0.42709415  1
  Pr  Pr2  1  0.50000000  0.03598101  0.60888685  1
  Pr  Pr3  1  0.50000000  0.39111315  0.96401899  1
  Pr  Pr4  1  0.50000000  0.39111315  0.42709415  1
  Pr  Pr5  1  0.50000000  0.57290585  0.96401899  1
  Pr  Pr6  1  0.00000000  0.82227064  0.64454127  1
  Pr  Pr7  1  -0.00000000  0.82227064  0.17772936  1
  Pr  Pr8  1  0.00000000  0.35545873  0.17772936  1
  Pr  Pr9  1  0.50000000  0.57441826  0.14883651  1
  Pr  Pr10  1  0.50000000  0.57441826  0.42558174  1
  Pr  Pr11  1  0.50000000  0.85116349  0.42558174  1
  Pr  Pr12  1  -0.00000000  0.00096850  0.18025251  1
  Pr  Pr13  1  0.00000000  0.17928401  0.99903150  1
  Pr  Pr14  1  0.00000000  0.17928401  0.18025251  1
  Pr  Pr15  1  0.00000000  0.81974749  0.82071599  1
  Pr  Pr16  1  -0.00000000  0.81974749  0.99903150  1
  Pr  Pr17  1  0.00000000  0.00096850  0.82071599  1
  Pr  Pr18  1  0.00000000  0.00000000  0.00000000  1
  Pr  Pr19  1  0.50000000  0.21390485  0.42780970  1
  Pr  Pr20  1  0.50000000  0.21390485  0.78609515  1
  Pr  Pr21  1  0.50000000  0.57219030  0.78609515  1
  Pr  Pr22  1  0.50000000  0.39290256  0.78580512  1
  Pr  Pr23  1  0.50000000  0.39290256  0.60709744  1
  Pr  Pr24  1  0.50000000  0.21419488  0.60709744  1
  Ni  Ni0  1  0.50000000  0.88437042  0.30382353  1
  Ni  Ni1  1  0.50000000  0.41945311  0.11562958  1
  Ni  Ni2  1  0.50000000  0.41945311  0.30382353  1
  Ni  Ni3  1  0.50000000  0.69617647  0.58054689  1
  Ni  Ni4  1  0.50000000  0.69617647  0.11562958  1
  Ni  Ni5  1  0.50000000  0.88437042  0.58054689  1
  Ni  Ni6  1  0.00000000  0.80450385  0.30386239  1
  Ni  Ni7  1  -0.00000000  0.49935854  0.19549615  1
  Ni  Ni8  1  -0.00000000  0.49935854  0.30386239  1
  Ni  Ni9  1  -0.00000000  0.69613761  0.50064146  1
  Ni  Ni10  1  0.00000000  0.69613761  0.19549615  1
  Ni  Ni11  1  -0.00000000  0.80450385  0.50064146  1
  Ni  Ni12  1  0.50000000  0.69514248  0.76066076  1
  Ni  Ni13  1  0.50000000  0.06551828  0.30485752  1
  Ni  Ni14  1  0.50000000  0.06551828  0.76066076  1
  Ni  Ni15  1  0.50000000  0.23933924  0.93448172  1
  Ni  Ni16  1  0.50000000  0.23933924  0.30485752  1
  Ni  Ni17  1  0.50000000  0.69514248  0.93448172  1
  Ni  Ni18  1  -0.00000000  0.51228359  0.02456719  1
  Ni  Ni19  1  0.00000000  0.51228359  0.48771641  1
  Ni  Ni20  1  -0.00000000  0.97543281  0.48771641  1
  Ni  Ni21  1  0.00000000  0.63116342  0.26232684  1
  Ni  Ni22  1  -0.00000000  0.63116342  0.36883658  1
  Ni  Ni23  1  0.00000000  0.73767316  0.36883658  1
  Ni  Ni24  1  0.50000000  0.06021906  0.12043811  1
  Ni  Ni25  1  0.50000000  0.06021906  0.93978094  1
  Ni  Ni26  1  0.50000000  0.87956189  0.93978094  1
  Ni  Ni27  1  0.50000000  0.70685613  0.41371225  1
  Ni  Ni28  1  0.50000000  0.70685613  0.29314387  1
  Ni  Ni29  1  0.50000000  0.58628775  0.29314387  1
  Ni  Ni30  1  -0.00000000  0.33333300  0.66666700  1
  Ni  Ni31  1  -0.00000000  0.97451438  0.30306275  1
  Ni  Ni32  1  -0.00000000  0.32854837  0.02548562  1
  Ni  Ni33  1  0.00000000  0.32854837  0.30306275  1
  Ni  Ni34  1  0.00000000  0.69693725  0.67145163  1
  Ni  Ni35  1  -0.00000000  0.69693725  0.02548562  1
  Ni  Ni36  1  -0.00000000  0.97451438  0.67145163  1
  Ni  Ni37  1  0.00000000  0.15150106  0.30300212  1
  Ni  Ni38  1  -0.00000000  0.15150106  0.84849894  1
  Ni  Ni39  1  0.00000000  0.69699788  0.84849894  1
  Ni  Ni40  1  0.50000000  0.88051035  0.76102071  1
  Ni  Ni41  1  0.50000000  0.88051035  0.11948965  1
  Ni  Ni42  1  0.50000000  0.23897929  0.11948965  1
  Ni  Ni43  1  0.00000000  0.51261767  0.66717705  1
  Ni  Ni44  1  0.00000000  0.15455938  0.48738233  1
  Ni  Ni45  1  -0.00000000  0.15455938  0.66717705  1
  Ni  Ni46  1  -0.00000000  0.33282295  0.84544062  1
  Ni  Ni47  1  0.00000000  0.33282295  0.48738233  1
  Ni  Ni48  1  0.00000000  0.51261767  0.84544062  1
  P  P0  1  0.50000000  0.76293444  0.52586888  1
  P  P1  1  0.50000000  0.76293444  0.23706556  1
  P  P2  1  0.50000000  0.47413112  0.23706556  1
  P  P3  1  -0.00000000  0.27384819  0.54769638  1
  P  P4  1  0.00000000  0.27384819  0.72615181  1
  P  P5  1  -0.00000000  0.45230362  0.72615181  1
  P  P6  1  -0.00000000  0.45226853  0.90453706  1
  P  P7  1  0.00000000  0.45226853  0.54773147  1
  P  P8  1  -0.00000000  0.09546294  0.54773147  1
  P  P9  1  0.50000000  0.11947628  0.23895256  1
  P  P10  1  0.50000000  0.11947628  0.88052372  1
  P  P11  1  0.50000000  0.76104744  0.88052372  1
  P  P12  1  -0.00000000  0.63174115  0.72707245  1
  P  P13  1  -0.00000000  0.09533130  0.36825885  1
  P  P14  1  0.00000000  0.09533130  0.72707245  1
  P  P15  1  0.00000000  0.27292755  0.90466870  1
  P  P16  1  -0.00000000  0.27292755  0.36825885  1
  P  P17  1  -0.00000000  0.63174115  0.90466870  1
  P  P18  1  -0.00000000  0.91932781  0.36945520  1
  P  P19  1  0.00000000  0.45012739  0.08067219  1
  P  P20  1  -0.00000000  0.45012739  0.36945520  1
  P  P21  1  -0.00000000  0.63054480  0.54987261  1
  P  P22  1  -0.00000000  0.63054480  0.08067219  1
  P  P23  1  0.00000000  0.91932781  0.54987261  1
  P  P24  1  0.50000000  0.94051827  0.88103653  1
  P  P25  1  0.50000000  0.94051827  0.05948173  1
  P  P26  1  0.50000000  0.11896347  0.05948173  1
  P  P27  1  0.50000000  0.94220097  0.23937542  1
  P  P28  1  0.50000000  0.29717446  0.05779903  1
  P  P29  1  0.50000000  0.29717446  0.23937542  1
  P  P30  1  0.50000000  0.76062458  0.70282554  1
  P  P31  1  0.50000000  0.76062458  0.05779903  1
  P  P32  1  0.50000000  0.94220097  0.70282554  1
loop_
_geom_bond_atom_site_label_1
_geom_bond_atom_site_label_2
_geom_bond_distance
_geom_bond_site_symmetry_2
Ni0 P1 2.330927 1_555
Ni0 P27 2.344385 1_555
Ni0 P18 2.348483 1_555
Ni0 P18 2.348483 1_655
Ni0 Pr1 3.089349 1_565
Ni0 Pr7 3.125784 1_655
Ni0 Pr7 3.125784 1_555
Ni0 Pr11 3.127054 1_555
Ni1 P2 2.330927 1_555
Ni1 P28 2.344384 1_555
Ni1 P19 2.348483 1_655
Ni1 P19 2.348483 1_555
Ni1 Pr3 3.089350 1_554
Ni1 Pr8 3.125784 1_655
Ni1 Pr8 3.125784 1_555
Ni1 Pr9 3.127054 1_555
Ni2 P2 2.330928 1_555
Ni2 P29 2.344384 1_555
Ni2 P20 2.348483 1_655
Ni2 P20 2.348483 1_555
Ni2 Pr4 3.089349 1_555
Ni2 Pr8 3.125784 1_655
Ni2 Pr8 3.125784 1_555
Ni2 Pr10 3.127054 1_555
Ni3 P0 2.330928 1_555
Ni3 P30 2.344384 1_555
Ni3 P21 2.348483 1_555
Ni3 P21 2.348483 1_655
Ni3 Pr0 3.089349 1_555
Ni3 Pr6 3.125784 1_555
Ni3 Pr6 3.125784 1_655
Ni3 Pr10 3.127054 1_555
Ni4 P1 2.330927 1_555
Ni4 P31 2.344385 1_555
Ni4 P22 2.348483 1_555
Ni4 P22 2.348483 1_655
Ni4 Pr5 3.089349 1_554
Ni4 Pr7 3.125784 1_555
Ni4 Pr7 3.125784 1_655
Ni4 Pr9 3.127054 1_555
Ni5 P0 2.330927 1_555
Ni5 P32 2.344384 1_555
Ni5 P23 2.348483 1_655
Ni5 P23 2.348483 1_555
Ni5 Pr2 3.089350 1_565
Ni5 Pr6 3.125784 1_655
Ni5 Pr6 3.125784 1_555
Ni5 Pr11 3.127054 1_555
Ni6 P18 2.207819 1_555
Ni6 P1 2.366956 1_555
Ni6 P1 2.366956 1_455
Ni6 Pr7 3.006936 1_555
Ni6 Pr11 3.077449 1_555
Ni6 Pr11 3.077449 1_455
Ni7 P19 2.207819 1_555
Ni7 P2 2.366956 1_455
Ni7 P2 2.366956 1_555
Ni7 Pr8 3.006936 1_555
Ni7 Pr9 3.077449 1_455
Ni7 Pr9 3.077449 1_555
Ni8 P20 2.207819 1_555
Ni8 P2 2.366956 1_455
Ni8 P2 2.366956 1_555
Ni8 Pr8 3.006936 1_555
Ni8 Pr10 3.077449 1_455
Ni8 Pr10 3.077449 1_555
Ni9 P21 2.207819 1_555
Ni9 P0 2.366956 1_455
Ni9 P0 2.366956 1_555
Ni9 Pr6 3.006936 1_555
Ni9 Pr10 3.077449 1_455
Ni9 Pr10 3.077449 1_555
Ni10 P22 2.207819 1_555
Ni10 P1 2.366956 1_555
Ni10 P1 2.366956 1_455
Ni10 Ni21 2.525877 1_555
Ni10 Pr7 3.006936 1_555
Ni10 Pr9 3.077449 1_455
Ni10 Pr9 3.077449 1_555
Ni11 P23 2.207819 1_555
Ni11 P0 2.366956 1_555
Ni11 P0 2.366956 1_455
Ni11 Ni23 2.525877 1_555
Ni11 Pr6 3.006936 1_555
Ni11 Pr11 3.077449 1_455
Ni11 Pr11 3.077449 1_555
Ni12 P11 2.300749 1_555
Ni12 P12 2.325766 1_555
Ni12 P12 2.325766 1_655
Ni12 P30 2.364659 1_555
Ni12 Pr21 3.041356 1_555
Ni12 Pr0 3.083996 1_555
Ni12 Pr15 3.104104 1_655
Ni12 Pr15 3.104104 1_555
Ni13 P9 2.300749 1_555
Ni13 P13 2.325766 1_555
Ni13 P13 2.325766 1_655
Ni13 P27 2.364659 1_545
Ni13 Pr19 3.041356 1_555
Ni13 Pr1 3.083995 1_555
Ni13 Pr12 3.104104 1_655
Ni13 Pr12 3.104104 1_555
Ni14 P10 2.300749 1_555
Ni14 P14 2.325766 1_655
Ni14 P14 2.325766 1_555
Ni14 P32 2.364659 1_545
Ni14 Pr20 3.041356 1_555
Ni14 Pr2 3.083996 1_555
Ni14 Pr17 3.104104 1_555
Ni14 Pr17 3.104104 1_655
Ni15 P10 2.300749 1_555
Ni15 P15 2.325766 1_655
Ni15 P15 2.325766 1_555
Ni15 P28 2.364659 1_556
Ni15 Pr20 3.041356 1_555
Ni15 Pr3 3.083996 1_555
Ni15 Pr13 3.104104 1_655
Ni15 Pr13 3.104104 1_555
Ni16 P9 2.300749 1_555
Ni16 P16 2.325766 1_655
Ni16 P16 2.325766 1_555
Ni16 P29 2.364659 1_555
Ni16 Pr19 3.041356 1_555
Ni16 Pr4 3.083996 1_555
Ni16 Pr14 3.104104 1_655
Ni16 Pr14 3.104104 1_555
Ni17 P11 2.300749 1_555
Ni17 P17 2.325766 1_555
Ni17 P17 2.325766 1_655
Ni17 P31 2.364659 1_556
Ni17 Pr21 3.041356 1_555
Ni17 Pr5 3.083995 1_555
Ni17 Pr16 3.104104 1_655
Ni17 Pr16 3.104104 1_555
Ni18 P19 2.267243 1_555
Ni18 P22 2.267243 1_555
Ni18 P6 2.300152 1_554
Ni18 Pr3 3.053359 1_454
Ni18 Pr3 3.053359 1_554
Ni18 Pr5 3.053359 1_454
Ni18 Pr5 3.053359 1_554
Ni18 Pr9 3.098759 1_555
Ni18 Pr9 3.098759 1_455
Ni19 P20 2.267243 1_555
Ni19 P21 2.267243 1_555
Ni19 P7 2.300152 1_555
Ni19 Pr4 3.053359 1_555
Ni19 Pr0 3.053359 1_455
Ni19 Pr4 3.053359 1_455
Ni19 Pr0 3.053359 1_555
Ni19 Pr10 3.098760 1_455
Ni19 Pr10 3.098760 1_555
Ni20 P23 2.267243 1_555
Ni20 P18 2.267243 1_555
Ni20 P8 2.300152 1_565
Ni20 Pr2 3.053359 1_565
Ni20 Pr2 3.053359 1_465
Ni20 Pr1 3.053359 1_565
Ni20 Pr1 3.053359 1_465
Ni20 Pr11 3.098759 1_555
Ni20 Pr11 3.098759 1_455
Ni21 Ni23 2.356812 1_555
Ni21 Ni22 2.356812 1_555
Ni21 Ni29 2.461598 1_555
Ni21 Ni29 2.461598 1_455
Ni21 Ni28 2.461599 1_555
Ni21 Ni28 2.461599 1_455
Ni21 Ni7 2.525877 1_555
Ni21 Pr9 2.942988 1_555
Ni21 Pr9 2.942988 1_455
Ni22 Ni23 2.356812 1_555
Ni22 Ni27 2.461599 1_455
Ni22 Ni27 2.461599 1_555
Ni22 Ni29 2.461599 1_555
Ni22 Ni29 2.461599 1_455
Ni22 Ni9 2.525877 1_555
Ni22 Ni8 2.525877 1_555
Ni22 Pr10 2.942988 1_455
Ni22 Pr10 2.942988 1_555
Ni23 Ni27 2.461598 1_455
Ni23 Ni27 2.461598 1_555
Ni23 Ni28 2.461599 1_455
Ni23 Ni28 2.461599 1_555
Ni23 Ni6 2.525877 1_555
Ni23 Pr11 2.942988 1_455
Ni23 Pr11 2.942988 1_555
Ni24 P9 2.271107 1_555
Ni24 P25 2.293972 1_545
Ni24 P26 2.293972 1_555
Ni24 Pr14 3.022796 1_655
Ni24 Pr14 3.022796 1_555
Ni24 Pr12 3.022796 1_655
Ni24 Pr12 3.022796 1_555
Ni24 Pr18 3.042700 1_555
Ni24 Pr18 3.042700 1_655
Ni25 P10 2.271107 1_555
Ni25 P26 2.293972 1_556
Ni25 P24 2.293972 1_545
Ni25 Pr13 3.022796 1_655
Ni25 Pr13 3.022796 1_555
Ni25 Pr17 3.022796 1_655
Ni25 Pr17 3.022796 1_555
Ni25 Pr18 3.042701 1_556
Ni25 Pr18 3.042701 1_656
Ni26 P11 2.271107 1_555
Ni26 P25 2.293972 1_556
Ni26 P24 2.293972 1_555
Ni26 Pr15 3.022796 1_655
Ni26 Pr15 3.022796 1_555
Ni26 Pr16 3.022796 1_555
Ni26 Pr16 3.022796 1_655
Ni26 Pr18 3.042700 1_666
Ni26 Pr18 3.042700 1_566
Ni27 P0 2.149271 1_555
Ni27 Pr11 3.070300 1_555
Ni27 Pr10 3.070300 1_555
Ni28 P1 2.149271 1_555
Ni28 Pr11 3.070300 1_555
Ni28 Pr9 3.070300 1_555
Ni29 P2 2.149271 1_555
Ni29 Pr9 3.070300 1_555
Ni29 Pr10 3.070300 1_555
Ni30 P4 2.279830 1_555
Ni30 P5 2.279849 1_555
Ni30 P3 2.279849 1_555
Ni30 Pr22 3.023848 1_555
Ni30 Pr24 3.023848 1_455
Ni30 Pr24 3.023848 1_555
Ni30 Pr22 3.023848 1_455
Ni30 Pr23 3.023862 1_455
Ni30 Pr23 3.023862 1_555
Ni31 P13 2.317652 1_565
Ni31 P27 2.328283 1_555
Ni31 P27 2.328283 1_455
Ni31 P18 2.333130 1_555
Ni31 Pr12 3.052577 1_565
Ni31 Pr1 3.095281 1_565
Ni31 Pr1 3.095281 1_465
Ni31 Pr7 3.114063 1_555
Ni32 P15 2.317652 1_554
Ni32 P28 2.328283 1_455
Ni32 P28 2.328283 1_555
Ni32 P19 2.333130 1_555
Ni32 Pr13 3.052577 1_554
Ni32 Pr3 3.095281 1_454
Ni32 Pr3 3.095281 1_554
Ni32 Pr8 3.114063 1_555
Ni33 P16 2.317652 1_555
Ni33 P29 2.328283 1_455
Ni33 P29 2.328283 1_555
Ni33 P20 2.333130 1_555
Ni33 Pr14 3.052577 1_555
Ni33 Pr4 3.095281 1_455
Ni33 Pr4 3.095281 1_555
Ni33 Pr8 3.114063 1_555
Ni34 P12 2.317652 1_555
Ni34 P30 2.328283 1_455
Ni34 P30 2.328283 1_555
Ni34 P21 2.333130 1_555
Ni34 Pr15 3.052577 1_555
Ni34 Pr0 3.095281 1_455
Ni34 Pr0 3.095281 1_555
Ni34 Pr6 3.114063 1_555
Ni35 P17 2.317652 1_554
Ni35 P31 2.328283 1_555
Ni35 P31 2.328283 1_455
Ni35 P22 2.333130 1_555
Ni35 Pr16 3.052577 1_554
Ni35 Pr5 3.095281 1_454
Ni35 Pr5 3.095281 1_554
Ni35 Pr7 3.114063 1_555
Ni36 P14 2.317652 1_565
Ni36 P32 2.328283 1_455
Ni36 P32 2.328283 1_555
Ni36 P23 2.333130 1_555
Ni36 Pr17 3.052577 1_565
Ni36 Pr2 3.095281 1_565
Ni36 Pr2 3.095281 1_465
Ni36 Pr6 3.114063 1_555
Ni37 P16 2.329082 1_555
Ni37 P13 2.329082 1_555
Ni37 P9 2.331906 1_555
Ni37 P9 2.331906 1_455
Ni37 Pr12 3.070066 1_555
Ni37 Pr14 3.070066 1_555
Ni37 Pr19 3.106693 1_455
Ni37 Pr19 3.106693 1_555
Ni38 P15 2.329082 1_555
Ni38 P14 2.329082 1_555
Ni38 P10 2.331906 1_555
Ni38 P10 2.331906 1_455
Ni38 Pr13 3.070066 1_555
Ni38 Pr17 3.070066 1_555
Ni38 Pr20 3.106693 1_555
Ni38 Pr20 3.106693 1_455
Ni39 P12 2.329082 1_555
Ni39 P17 2.329082 1_555
Ni39 P11 2.331906 1_455
Ni39 P11 2.331906 1_555
Ni39 Pr16 3.070066 1_555
Ni39 Pr15 3.070066 1_555
Ni39 Pr21 3.106693 1_455
Ni39 Pr21 3.106693 1_555
Ni40 P30 2.297711 1_555
Ni40 P32 2.297712 1_555
Ni40 P24 2.299878 1_555
Ni40 Pr6 2.985567 1_555
Ni40 Pr6 2.985567 1_655
Ni40 Pr15 3.043014 1_655
Ni40 Pr15 3.043014 1_555
Ni40 Pr17 3.043015 1_565
Ni40 Pr17 3.043015 1_665
Ni41 P31 2.297711 1_555
Ni41 P27 2.297711 1_555
Ni41 P25 2.299878 1_555
Ni41 Pr7 2.985567 1_555
Ni41 Pr7 2.985567 1_655
Ni41 Pr12 3.043015 1_565
Ni41 Pr12 3.043015 1_665
Ni41 Pr16 3.043015 1_654
Ni41 Pr16 3.043015 1_554
Ni42 P29 2.297711 1_555
Ni42 P28 2.297712 1_555
Ni42 P26 2.299878 1_555
Ni42 Pr8 2.985567 1_655
Ni42 Pr8 2.985567 1_555
Ni42 Pr14 3.043014 1_655
Ni42 Pr14 3.043014 1_555
Ni42 Pr13 3.043015 1_654
Ni42 Pr13 3.043015 1_554
Ni43 P12 2.282790 1_555
Ni43 P5 2.285994 1_555
Ni43 P7 2.288992 1_555
Ni43 Pr0 3.015838 1_455
Ni43 Pr0 3.015838 1_555
Ni43 Pr21 3.020667 1_555
Ni43 Pr21 3.020667 1_455
Ni43 Pr23 3.032208 1_555
Ni43 Pr23 3.032208 1_455
Ni44 P13 2.282790 1_555
Ni44 P3 2.285994 1_555
Ni44 P8 2.288992 1_555
Ni44 Pr1 3.015838 1_455
Ni44 Pr1 3.015838 1_555
Ni44 Pr19 3.020667 1_455
Ni44 Pr19 3.020667 1_555
Ni44 Pr24 3.032208 1_455
Ni44 Pr24 3.032208 1_555
Ni45 P14 2.282790 1_555
Ni45 P4 2.285994 1_555
Ni45 P8 2.288992 1_555
Ni45 Pr2 3.015838 1_555
Ni45 Pr2 3.015838 1_455
Ni45 Pr20 3.020667 1_455
Ni45 Pr20 3.020667 1_555
Ni45 Pr24 3.032208 1_555
Ni45 Pr24 3.032208 1_455
Ni46 P15 2.282790 1_555
Ni46 P4 2.285994 1_555
Ni46 P6 2.288992 1_555
Ni46 Pr3 3.015838 1_455
Ni46 Pr3 3.015838 1_555
Ni46 Pr20 3.020667 1_455
Ni46 Pr20 3.020667 1_555
Ni46 Pr22 3.032208 1_555
Ni46 Pr22 3.032208 1_455
Ni47 P16 2.282790 1_555
Ni47 P3 2.285994 1_555
Ni47 P7 2.288992 1_555
Ni47 Pr4 3.015838 1_555
Ni47 Pr4 3.015838 1_455
Ni47 Pr19 3.020667 1_455
Ni47 Pr19 3.020667 1_555
Ni47 Pr23 3.032208 1_555
Ni47 Pr23 3.032208 1_455
Ni48 P17 2.282790 1_555
Ni48 P5 2.285994 1_555
Ni48 P6 2.288992 1_555
Ni48 Pr5 3.015838 1_455
Ni48 Pr5 3.015838 1_555
Ni48 Pr21 3.020667 1_455
Ni48 Pr21 3.020667 1_555
Ni48 Pr22 3.032208 1_555
Ni48 Pr22 3.032208 1_455
P0 Pr6 3.017115 1_555
P0 Pr6 3.017115 1_655
P1 Pr7 3.017115 1_655
P1 Pr7 3.017115 1_555
P2 Pr8 3.017115 1_655
P2 Pr8 3.017115 1_555
P3 Pr23 3.022637 1_555
P3 Pr23 3.022637 1_455
P3 Pr24 3.022637 1_455
P3 Pr24 3.022637 1_555
P3 Pr19 3.034693 1_455
P3 Pr19 3.034693 1_555
P4 Pr24 3.022637 1_455
P4 Pr24 3.022637 1_555
P4 Pr22 3.022637 1_455
P4 Pr22 3.022637 1_555
P4 Pr20 3.034693 1_455
P4 Pr20 3.034693 1_555
P5 Pr23 3.022637 1_555
P5 Pr23 3.022637 1_455
P5 Pr22 3.022637 1_555
P5 Pr22 3.022637 1_455
P5 Pr21 3.034693 1_455
P5 Pr21 3.034693 1_555
P6 Pr22 3.017975 1_555
P6 Pr22 3.017975 1_455
P6 Pr3 3.045653 1_455
P6 Pr3 3.045653 1_555
P6 Pr5 3.045653 1_455
P6 Pr5 3.045653 1_555
P7 Pr23 3.017975 1_455
P7 Pr23 3.017975 1_555
P7 Pr4 3.045653 1_455
P7 Pr4 3.045653 1_555
P7 Pr0 3.045653 1_455
P7 Pr0 3.045653 1_555
P8 Pr24 3.017975 1_455
P8 Pr24 3.017975 1_555
P8 Pr2 3.045653 1_455
P8 Pr2 3.045653 1_555
P8 Pr1 3.045653 1_555
P8 Pr1 3.045653 1_455
P9 Pr12 3.014763 1_655
P9 Pr12 3.014763 1_555
P9 Pr14 3.014763 1_655
P9 Pr14 3.014763 1_555
P10 Pr13 3.014763 1_655
P10 Pr13 3.014763 1_555
P10 Pr17 3.014763 1_655
P10 Pr17 3.014763 1_555
P11 Pr16 3.014763 1_555
P11 Pr16 3.014763 1_655
P11 Pr15 3.014763 1_555
P11 Pr15 3.014763 1_655
P12 Pr0 3.010095 1_455
P12 Pr0 3.010095 1_555
P12 Pr21 3.015693 1_455
P12 Pr21 3.015693 1_555
P13 Pr1 3.010095 1_555
P13 Pr1 3.010095 1_455
P13 Pr19 3.015693 1_455
P13 Pr19 3.015693 1_555
P14 Pr2 3.010095 1_455
P14 Pr2 3.010095 1_555
P14 Pr20 3.015693 1_455
P14 Pr20 3.015693 1_555
P15 Pr3 3.010095 1_455
P15 Pr3 3.010095 1_555
P15 Pr20 3.015693 1_455
P15 Pr20 3.015693 1_555
P16 Pr4 3.010095 1_555
P16 Pr4 3.010095 1_455
P16 Pr19 3.015693 1_455
P16 Pr19 3.015693 1_555
P17 Pr5 3.010095 1_455
P17 Pr5 3.010095 1_555
P17 Pr21 3.015693 1_455
P17 Pr21 3.015693 1_555
P18 Pr1 2.988096 1_565
P18 Pr1 2.988096 1_465
P18 Pr11 3.101937 1_555
P18 Pr11 3.101937 1_455
P19 Pr3 2.988096 1_554
P19 Pr3 2.988096 1_454
P19 Pr9 3.101937 1_555
P19 Pr9 3.101937 1_455
P20 Pr4 2.988096 1_555
P20 Pr4 2.988096 1_455
P20 Pr10 3.101937 1_455
P20 Pr10 3.101937 1_555
P21 Pr0 2.988096 1_455
P21 Pr0 2.988096 1_555
P21 Pr10 3.101937 1_555
P21 Pr10 3.101937 1_455
P22 Pr5 2.988096 1_454
P22 Pr5 2.988096 1_554
P22 Pr9 3.101937 1_555
P22 Pr9 3.101937 1_455
P23 Pr2 2.988096 1_465
P23 Pr2 2.988096 1_565
P23 Pr11 3.101937 1_555
P23 Pr11 3.101937 1_455
P24 Pr18 3.021321 1_666
P24 Pr18 3.021321 1_566
P24 Pr17 3.047539 1_565
P24 Pr17 3.047539 1_665
P24 Pr15 3.047539 1_555
P24 Pr15 3.047539 1_655
P25 Pr18 3.021321 1_565
P25 Pr18 3.021321 1_665
P25 Pr16 3.047539 1_654
P25 Pr16 3.047539 1_554
P25 Pr12 3.047539 1_565
P25 Pr12 3.047539 1_665
P26 Pr18 3.021321 1_555
P26 Pr18 3.021321 1_655
P26 Pr13 3.047539 1_654
P26 Pr13 3.047539 1_554
P26 Pr14 3.047539 1_655
P26 Pr14 3.047539 1_555
P27 Pr12 3.005839 1_665
P27 Pr12 3.005839 1_565
P27 Pr7 3.035554 1_555
P27 Pr7 3.035554 1_655
P28 Pr13 3.005839 1_654
P28 Pr13 3.005839 1_554
P28 Pr8 3.035554 1_655
P28 Pr8 3.035554 1_555
P29 Pr14 3.005839 1_655
P29 Pr14 3.005839 1_555
P29 Pr8 3.035554 1_655
P29 Pr8 3.035554 1_555
P30 Pr15 3.005839 1_555
P30 Pr15 3.005839 1_655
P30 Pr6 3.035554 1_655
P30 Pr6 3.035554 1_555
P31 Pr16 3.005839 1_554
P31 Pr16 3.005839 1_654
P31 Pr7 3.035554 1_655
P31 Pr7 3.035554 1_555
P32 Pr17 3.005839 1_665
P32 Pr17 3.005839 1_565
P32 Pr6 3.035554 1_555
P32 Pr6 3.035554 1_655
