# generated using pymatgen
data_Sm23Mg4Rh7
_symmetry_space_group_name_H-M   'P 1'
_cell_length_a   9.94872680
_cell_length_b   9.94872680
_cell_length_c   22.42043019
_cell_angle_alpha   90.00000000
_cell_angle_beta   90.00000000
_cell_angle_gamma   120.00000029
_symmetry_Int_Tables_number   1
_chemical_formula_structural   Sm23Mg4Rh7
_chemical_formula_sum   'Sm46 Mg8 Rh14'
_cell_volume   1921.80616392
_cell_formula_units_Z   2
loop_
 _symmetry_equiv_pos_site_id
 _symmetry_equiv_pos_as_xyz
  1  'x, y, z'
loop_
 _atom_site_type_symbol
 _atom_site_label
 _atom_site_symmetry_multiplicity
 _atom_site_fract_x
 _atom_site_fract_y
 _atom_site_fract_z
 _atom_site_occupancy
  Sm  Sm0  1  0.20812885  0.41625770  0.71909408  1
  Sm  Sm1  1  0.20812885  0.79187115  0.71909408  1
  Sm  Sm2  1  0.79187115  0.58374230  0.21909408  1
  Sm  Sm3  1  0.58374230  0.79187115  0.71909408  1
  Sm  Sm4  1  0.79187115  0.20812885  0.21909408  1
  Sm  Sm5  1  0.41625770  0.20812885  0.21909408  1
  Sm  Sm6  1  0.79183470  0.58366940  0.94824524  1
  Sm  Sm7  1  0.79183470  0.20816530  0.94824524  1
  Sm  Sm8  1  0.20816530  0.41633060  0.44824524  1
  Sm  Sm9  1  0.41633060  0.20816530  0.94824524  1
  Sm  Sm10  1  0.20816530  0.79183470  0.44824524  1
  Sm  Sm11  1  0.58366940  0.79183470  0.44824524  1
  Sm  Sm12  1  0.21038814  0.42077629  0.99102651  1
  Sm  Sm13  1  0.21038814  0.78961186  0.99102651  1
  Sm  Sm14  1  0.78961186  0.57922371  0.49102651  1
  Sm  Sm15  1  0.57922371  0.78961186  0.99102651  1
  Sm  Sm16  1  0.78961186  0.21038814  0.49102651  1
  Sm  Sm17  1  0.42077629  0.21038814  0.49102651  1
  Sm  Sm18  1  0.87149118  0.74298236  0.63482064  1
  Sm  Sm19  1  0.87149118  0.12850882  0.63482064  1
  Sm  Sm20  1  0.12850882  0.25701764  0.13482064  1
  Sm  Sm21  1  0.25701764  0.12850882  0.63482064  1
  Sm  Sm22  1  0.12850882  0.87149118  0.13482064  1
  Sm  Sm23  1  0.74298236  0.87149118  0.13482064  1
  Sm  Sm24  1  0.45799347  0.91598693  0.85642660  1
  Sm  Sm25  1  0.45799347  0.54200653  0.85642660  1
  Sm  Sm26  1  0.54200653  0.08401307  0.35642660  1
  Sm  Sm27  1  0.08401307  0.54200653  0.85642660  1
  Sm  Sm28  1  0.54200653  0.45799347  0.35642660  1
  Sm  Sm29  1  0.91598693  0.45799347  0.35642660  1
  Sm  Sm30  1  -0.00000000  -0.00000000  -0.00002994  1
  Sm  Sm31  1  -0.00000000  -0.00000000  0.49997006  1
  Sm  Sm32  1  0.45975860  0.91951720  0.58487883  1
  Sm  Sm33  1  0.45975860  0.54024140  0.58487883  1
  Sm  Sm34  1  0.54024140  0.08048280  0.08487883  1
  Sm  Sm35  1  0.08048280  0.54024140  0.58487883  1
  Sm  Sm36  1  0.54024140  0.45975860  0.08487883  1
  Sm  Sm37  1  0.91951720  0.45975860  0.08487883  1
  Sm  Sm38  1  0.79453585  0.58907170  0.78178906  1
  Sm  Sm39  1  0.79453585  0.20546415  0.78178906  1
  Sm  Sm40  1  0.20546415  0.41092830  0.28178906  1
  Sm  Sm41  1  0.41092830  0.20546415  0.78178906  1
  Sm  Sm42  1  0.20546415  0.79453585  0.28178906  1
  Sm  Sm43  1  0.58907170  0.79453585  0.28178906  1
  Sm  Sm44  1  0.66666700  0.33333300  0.64495086  1
  Sm  Sm45  1  0.33333300  0.66666700  0.14495086  1
  Mg  Mg0  1  -0.00000000  -0.00000000  0.75032143  1
  Mg  Mg1  1  -0.00000000  -0.00000000  0.25032143  1
  Mg  Mg2  1  0.10585456  0.21170913  0.86282763  1
  Mg  Mg3  1  0.10585456  0.89414544  0.86282763  1
  Mg  Mg4  1  0.89414544  0.78829087  0.36282763  1
  Mg  Mg5  1  0.78829087  0.89414544  0.86282763  1
  Mg  Mg6  1  0.89414544  0.10585456  0.36282763  1
  Mg  Mg7  1  0.21170913  0.10585456  0.36282763  1
  Rh  Rh0  1  0.52107706  0.04215412  0.70960476  1
  Rh  Rh1  1  0.52107706  0.47892294  0.70960476  1
  Rh  Rh2  1  0.47892294  0.95784588  0.20960476  1
  Rh  Rh3  1  0.95784588  0.47892294  0.70960476  1
  Rh  Rh4  1  0.47892294  0.52107706  0.20960476  1
  Rh  Rh5  1  0.04215412  0.52107706  0.20960476  1
  Rh  Rh6  1  0.66666700  0.33333300  0.86388561  1
  Rh  Rh7  1  0.33333300  0.66666700  0.36388561  1
  Rh  Rh8  1  0.14349400  0.28698799  0.56381732  1
  Rh  Rh9  1  0.14349400  0.85650600  0.56381732  1
  Rh  Rh10  1  0.85650600  0.71301201  0.06381732  1
  Rh  Rh11  1  0.71301201  0.85650600  0.56381732  1
  Rh  Rh12  1  0.85650600  0.14349400  0.06381732  1
  Rh  Rh13  1  0.28698799  0.14349400  0.06381732  1
loop_
_geom_bond_atom_site_label_1
_geom_bond_atom_site_label_2
_geom_bond_distance
_geom_bond_site_symmetry_2
Sm0 Sm27 3.757016 1_555
Sm0 Sm25 3.757016 1_555
Sm1 Sm27 3.757016 1_555
Sm1 Sm24 3.757016 1_555
Sm2 Sm29 3.757016 1_555
Sm2 Sm28 3.757016 1_555
Sm10 Sm14 3.731722 1_455
Sm10 Sm17 3.731722 1_565
Sm10 Sm26 3.750206 1_565
Sm10 Sm29 3.750206 1_455
Sm11 Sm16 3.731722 1_565
Sm11 Sm14 3.731722 1_555
Sm11 Sm28 3.750206 1_555
Sm11 Sm26 3.750206 1_565
Sm12 Sm20 3.519147 1_556
Sm12 Sm30 3.630887 1_556
Sm12 Sm15 3.669444 1_555
Sm12 Sm13 3.669444 1_555
Sm12 Sm27 3.695781 1_555
Sm12 Sm25 3.695781 1_555
Sm12 Sm7 3.731722 1_455
Sm12 Sm9 3.731722 1_555
Sm12 Sm37 3.751592 1_456
Sm12 Sm36 3.751592 1_556
Sm12 Sm45 4.049448 1_556
Sm13 Sm22 3.519147 1_556
Sm13 Sm30 3.630886 1_566
Sm13 Sm15 3.669444 1_555
Sm13 Sm27 3.695781 1_555
Sm13 Sm24 3.695781 1_555
Sm13 Sm6 3.731722 1_455
Sm13 Sm9 3.731722 1_565
Sm13 Sm34 3.751592 1_566
Sm13 Sm37 3.751592 1_456
Sm13 Sm45 4.049444 1_556
Sm14 Sm18 3.519147 1_555
Sm14 Sm31 3.630887 1_665
Sm14 Sm17 3.669444 1_555
Sm14 Sm16 3.669444 1_555
Sm14 Sm29 3.695781 1_555
Sm14 Sm28 3.695781 1_555
Sm14 Sm35 3.751592 1_655
Sm14 Sm33 3.751592 1_555
Sm14 Sm44 4.049448 1_555
Sm15 Sm23 3.519147 1_556
Sm15 Sm30 3.630887 1_666
Sm15 Sm24 3.695781 1_555
Sm15 Sm25 3.695781 1_555
Sm15 Sm7 3.731722 1_565
Sm15 Sm6 3.731722 1_555
Sm15 Sm34 3.751592 1_566
Sm15 Sm36 3.751592 1_556
Sm15 Sm45 4.049448 1_556
Sm16 Sm19 3.519147 1_555
Sm16 Sm31 3.630886 1_655
Sm16 Sm17 3.669444 1_555
Sm16 Sm29 3.695781 1_555
Sm16 Sm26 3.695781 1_555
Sm16 Sm8 3.731722 1_655
Sm16 Sm35 3.751592 1_655
Sm16 Sm32 3.751592 1_545
Sm16 Sm44 4.049444 1_555
Sm17 Sm21 3.519147 1_555
Sm17 Sm31 3.630887 1_555
Sm17 Sm26 3.695781 1_555
Sm17 Sm28 3.695781 1_555
Sm17 Sm8 3.731722 1_555
Sm17 Sm32 3.751592 1_545
Sm17 Sm33 3.751592 1_555
Sm17 Sm44 4.049448 1_555
Sm24 Sm39 3.558374 1_565
Sm24 Sm41 3.558374 1_565
Sm24 Sm27 3.720629 1_555
Sm24 Sm25 3.720629 1_555
Sm24 Sm7 3.750206 1_565
Sm24 Sm9 3.750206 1_565
Sm24 Sm3 3.757016 1_555
Sm25 Sm41 3.558374 1_555
Sm25 Sm38 3.558374 1_555
Sm25 Sm27 3.720629 1_555
Sm25 Sm6 3.750206 1_555
Sm25 Sm9 3.750206 1_555
Sm25 Sm3 3.757016 1_555
Sm26 Sm42 3.558374 1_545
Sm26 Sm43 3.558374 1_545
Sm26 Sm29 3.720629 1_555
Sm26 Sm28 3.720629 1_555
Sm26 Sm5 3.757016 1_555
Sm26 Sm4 3.757016 1_555
Sm27 Sm39 3.558374 1_455
Sm27 Sm38 3.558374 1_455
Sm27 Sm7 3.750206 1_455
Sm27 Sm6 3.750206 1_455
Sm28 Sm40 3.558374 1_555
Sm28 Sm43 3.558374 1_555
Sm28 Sm29 3.720629 1_555
Sm28 Sm8 3.750206 1_555
Sm28 Sm5 3.757016 1_555
Sm29 Sm42 3.558374 1_655
Sm29 Sm40 3.558374 1_655
Sm29 Sm8 3.750206 1_655
Sm29 Sm4 3.757016 1_555
Mg0 Mg3 3.112855 1_545
Mg0 Mg5 3.112855 1_445
Mg0 Mg2 3.112855 1_555
Mg0 Sm21 3.407285 1_555
Mg0 Sm18 3.407285 1_445
Mg0 Sm19 3.407285 1_455
Mg0 Sm41 3.610107 1_555
Mg0 Sm38 3.610107 1_445
Mg0 Sm39 3.610107 1_455
Mg0 Sm0 3.654114 1_555
Mg0 Sm3 3.654114 1_445
Mg0 Sm1 3.654114 1_545
Mg1 Mg6 3.112855 1_455
Mg1 Mg7 3.112855 1_555
Mg1 Mg4 3.112855 1_445
Mg1 Sm23 3.407285 1_445
Mg1 Sm20 3.407285 1_555
Mg1 Sm22 3.407285 1_545
Mg1 Sm40 3.610107 1_555
Mg1 Sm43 3.610107 1_445
Mg1 Sm42 3.610107 1_545
Mg1 Sm5 3.654114 1_555
Mg1 Sm2 3.654114 1_445
Mg1 Sm4 3.654114 1_455
Mg2 Mg5 3.159354 1_445
Mg2 Mg3 3.159354 1_545
Mg2 Sm12 3.392065 1_555
Mg2 Sm27 3.402926 1_555
Mg2 Sm25 3.402926 1_555
Mg2 Sm39 3.564468 1_455
Mg2 Sm41 3.564468 1_555
Mg2 Sm30 3.575125 1_556
Mg2 Sm7 3.649478 1_455
Mg2 Sm9 3.649478 1_555
Mg2 Sm0 3.672990 1_555
Mg3 Mg5 3.159354 1_455
Mg3 Sm13 3.392065 1_555
Mg3 Sm24 3.402926 1_555
Mg3 Sm27 3.402926 1_555
Mg3 Sm41 3.564468 1_565
Mg3 Sm38 3.564468 1_455
Mg3 Sm30 3.575125 1_566
Mg3 Sm6 3.649478 1_455
Mg3 Sm9 3.649478 1_565
Mg3 Sm1 3.672990 1_555
Mg4 Mg7 3.159354 1_665
Mg4 Mg6 3.159354 1_565
Mg4 Sm14 3.392065 1_555
Mg4 Sm29 3.402926 1_555
Mg4 Sm28 3.402926 1_555
Mg4 Sm42 3.564468 1_655
Mg4 Sm43 3.564468 1_555
Mg4 Sm31 3.575125 1_665
Mg4 Sm10 3.649478 1_655
Mg4 Sm11 3.649478 1_555
Mg4 Sm2 3.672990 1_555
Mg5 Sm15 3.392065 1_555
Mg5 Sm24 3.402926 1_555
Mg5 Sm25 3.402926 1_555
Mg5 Sm39 3.564468 1_565
Mg5 Sm38 3.564468 1_555
Mg5 Sm30 3.575125 1_666
Mg5 Sm7 3.649478 1_565
Mg5 Sm6 3.649478 1_555
Mg5 Sm3 3.672990 1_555
Mg6 Mg7 3.159354 1_655
Mg6 Sm16 3.392065 1_555
Mg6 Sm29 3.402926 1_555
Mg6 Sm26 3.402926 1_555
Mg6 Sm40 3.564468 1_655
Mg6 Sm43 3.564468 1_545
Mg6 Sm31 3.575125 1_655
Mg6 Sm8 3.649478 1_655
Mg6 Sm11 3.649478 1_545
Mg6 Sm4 3.672990 1_555
Mg7 Sm17 3.392065 1_555
Mg7 Sm26 3.402926 1_555
Mg7 Sm28 3.402926 1_555
Mg7 Sm42 3.564468 1_545
Mg7 Sm40 3.564468 1_555
Mg7 Sm31 3.575125 1_555
Mg7 Sm10 3.649478 1_545
Mg7 Sm8 3.649478 1_555
Mg7 Sm5 3.672990 1_555
Rh0 Sm1 2.861186 1_545
Rh0 Sm3 2.861186 1_545
Rh0 Sm39 2.870587 1_555
Rh0 Sm41 2.870587 1_555
Rh0 Sm44 2.897429 1_555
Rh0 Sm32 2.989373 1_545
Rh0 Sm24 3.466649 1_545
Rh0 Sm19 3.564794 1_555
Rh0 Sm21 3.564794 1_555
Rh1 Sm0 2.861186 1_555
Rh1 Sm3 2.861186 1_555
Rh1 Sm41 2.870587 1_555
Rh1 Sm38 2.870587 1_555
Rh1 Sm44 2.897436 1_555
Rh1 Sm33 2.989373 1_555
Rh1 Sm25 3.466649 1_555
Rh1 Sm18 3.564794 1_555
Rh1 Sm21 3.564794 1_555
Rh2 Sm4 2.861186 1_565
Rh2 Sm5 2.861186 1_565
Rh2 Sm42 2.870587 1_555
Rh2 Sm43 2.870587 1_555
Rh2 Sm45 2.897429 1_555
Rh2 Sm34 2.989373 1_565
Rh2 Sm26 3.466649 1_565
Rh2 Sm22 3.564794 1_555
Rh2 Sm23 3.564794 1_555
Rh3 Sm1 2.861186 1_655
Rh3 Sm0 2.861186 1_655
Rh3 Sm39 2.870587 1_555
Rh3 Sm38 2.870587 1_555
Rh3 Sm44 2.897429 1_555
Rh3 Sm35 2.989373 1_655
Rh3 Sm27 3.466649 1_655
Rh3 Sm19 3.564794 1_555
Rh3 Sm18 3.564794 1_555
Rh4 Sm5 2.861186 1_555
Rh4 Sm2 2.861186 1_555
Rh4 Sm40 2.870587 1_555
Rh4 Sm43 2.870587 1_555
Rh4 Sm45 2.897436 1_555
Rh4 Sm36 2.989373 1_555
Rh4 Sm28 3.466649 1_555
Rh4 Sm20 3.564794 1_555
Rh4 Sm23 3.564794 1_555
Rh5 Sm4 2.861186 1_455
Rh5 Sm2 2.861186 1_455
Rh5 Sm42 2.870587 1_555
Rh5 Sm40 2.870587 1_555
Rh5 Sm45 2.897429 1_555
Rh5 Sm37 2.989373 1_455
Rh5 Sm29 3.466649 1_455
Rh5 Sm22 3.564794 1_555
Rh5 Sm20 3.564794 1_555
Rh6 Sm7 2.868680 1_555
Rh6 Sm6 2.868687 1_555
Rh6 Sm9 2.868687 1_555
Rh6 Sm39 2.871048 1_555
Rh6 Sm38 2.871055 1_555
Rh6 Sm41 2.871055 1_555
Rh6 Sm27 3.599678 1_655
Rh6 Sm24 3.599678 1_545
Rh6 Sm25 3.599687 1_555
Rh7 Sm10 2.868680 1_555
Rh7 Sm8 2.868687 1_555
Rh7 Sm11 2.868687 1_555
Rh7 Sm42 2.871048 1_555
Rh7 Sm43 2.871055 1_555
Rh7 Sm40 2.871055 1_555
Rh7 Sm26 3.599678 1_565
Rh7 Sm29 3.599678 1_455
Rh7 Sm28 3.599687 1_555
Rh8 Sm8 2.820651 1_555
Rh8 Sm21 2.841899 1_555
Rh8 Sm19 2.841899 1_455
Rh8 Sm31 2.857117 1_555
Rh8 Sm33 2.922934 1_555
Rh8 Sm35 2.922934 1_555
Rh8 Sm16 3.599492 1_455
Rh8 Sm17 3.599492 1_555
Rh9 Sm10 2.820651 1_555
Rh9 Sm18 2.841899 1_455
Rh9 Sm21 2.841899 1_565
Rh9 Sm31 2.857117 1_565
Rh9 Sm35 2.922934 1_555
Rh9 Sm32 2.922934 1_555
Rh9 Sm14 3.599492 1_455
Rh9 Sm17 3.599492 1_565
Rh10 Sm6 2.820651 1_554
Rh10 Sm23 2.841899 1_555
Rh10 Sm22 2.841899 1_655
Rh10 Sm30 2.857117 1_665
Rh10 Sm36 2.922934 1_555
Rh10 Sm37 2.922934 1_555
Rh10 Sm13 3.599492 1_654
Rh10 Sm15 3.599492 1_554
Rh11 Sm11 2.820651 1_555
Rh11 Sm18 2.841899 1_555
Rh11 Sm19 2.841899 1_565
Rh11 Sm31 2.857117 1_665
Rh11 Sm33 2.922934 1_555
Rh11 Sm32 2.922934 1_555
Rh11 Sm16 3.599492 1_565
Rh11 Sm14 3.599492 1_555
Rh12 Sm7 2.820651 1_554
Rh12 Sm23 2.841899 1_545
Rh12 Sm20 2.841899 1_655
Rh12 Sm30 2.857117 1_655
Rh12 Sm37 2.922934 1_555
Rh12 Sm34 2.922934 1_555
Rh12 Sm15 3.599492 1_544
Rh12 Sm12 3.599492 1_654
Rh13 Sm9 2.820651 1_554
Rh13 Sm20 2.841899 1_555
Rh13 Sm22 2.841899 1_545
Rh13 Sm30 2.857117 1_555
Rh13 Sm36 2.922934 1_555
Rh13 Sm34 2.922934 1_555
Rh13 Sm13 3.599492 1_544
Rh13 Sm12 3.599492 1_554
