# generated using pymatgen
data_RbMg6Cu
_symmetry_space_group_name_H-M   'P 1'
_cell_length_a   8.33485705
_cell_length_b   8.33485705
_cell_length_c   4.59401900
_cell_angle_alpha   90.00000000
_cell_angle_beta   90.00000000
_cell_angle_gamma   135.71220736
_symmetry_Int_Tables_number   1
_chemical_formula_structural   RbMg6Cu
_chemical_formula_sum   'Rb1 Mg6 Cu1'
_cell_volume   222.84761739
_cell_formula_units_Z   1
loop_
 _symmetry_equiv_pos_site_id
 _symmetry_equiv_pos_as_xyz
  1  'x, y, z'
loop_
 _atom_site_type_symbol
 _atom_site_label
 _atom_site_symmetry_multiplicity
 _atom_site_fract_x
 _atom_site_fract_y
 _atom_site_fract_z
 _atom_site_occupancy
  Rb  Rb0  1  0.28291600  0.71708400  0.50000000  1
  Mg  Mg0  1  0.20851400  0.30161700  0.00000000  1
  Mg  Mg1  1  0.69838300  0.79148600  0.00000000  1
  Mg  Mg2  1  0.68368000  0.31632000  0.00000000  1
  Mg  Mg3  1  0.32312800  0.16739700  0.50000000  1
  Mg  Mg4  1  0.83260300  0.67687200  0.50000000  1
  Mg  Mg5  1  0.87325700  0.12674300  0.50000000  1
  Cu  Cu0  1  0.09751700  0.90248300  0.00000000  1
loop_
_geom_bond_atom_site_label_1
_geom_bond_atom_site_label_2
_geom_bond_distance
_geom_bond_site_symmetry_2
Mg0 Mg3 2.995055 1_554
Mg0 Mg3 2.995055 1_555
Mg0 Mg5 3.062332 1_455
Mg0 Mg5 3.062332 1_454
Mg0 Mg1 3.078034 1_555
Mg0 Mg1 3.205348 1_445
Mg0 Rb0 3.818085 1_554
Mg0 Rb0 3.818085 1_555
Mg1 Mg4 2.995055 1_555
Mg1 Mg4 2.995055 1_554
Mg1 Mg5 3.062332 1_565
Mg1 Mg5 3.062332 1_564
Mg1 Rb0 3.818085 1_555
Mg1 Rb0 3.818085 1_554
Mg2 Mg4 3.241526 1_555
Mg2 Mg4 3.241526 1_554
Mg2 Mg3 3.241526 1_555
Mg2 Mg3 3.241526 1_554
Mg3 Mg4 3.082156 1_445
Mg3 Mg4 3.201226 1_555
Mg3 Mg5 3.515023 1_455
Mg3 Rb0 3.521158 1_545
Mg4 Mg5 3.515023 1_565
Mg4 Rb0 3.521158 1_655
Mg5 Rb0 3.437428 1_655
Mg5 Rb0 3.437428 1_545
Cu0 Mg1 2.741660 1_455
Cu0 Mg0 2.741660 1_565
Cu0 Mg4 2.782668 1_455
Cu0 Mg4 2.782668 1_454
Cu0 Mg3 2.782668 1_564
Cu0 Mg3 2.782668 1_565
Cu0 Rb0 3.670242 1_555
Cu0 Rb0 3.670242 1_554
