# generated using pymatgen
data_SmThB12
_symmetry_space_group_name_H-M   'P 1'
_cell_length_a   5.81109989
_cell_length_b   5.81109989
_cell_length_c   5.81109989
_cell_angle_alpha   60.00000000
_cell_angle_beta   60.00000000
_cell_angle_gamma   60.00000000
_symmetry_Int_Tables_number   1
_chemical_formula_structural   SmThB12
_chemical_formula_sum   'Sm1 Th1 B12'
_cell_volume   138.75863698
_cell_formula_units_Z   1
loop_
 _symmetry_equiv_pos_site_id
 _symmetry_equiv_pos_as_xyz
  1  'x, y, z'
loop_
 _atom_site_type_symbol
 _atom_site_label
 _atom_site_symmetry_multiplicity
 _atom_site_fract_x
 _atom_site_fract_y
 _atom_site_fract_z
 _atom_site_occupancy
  Sm  Sm0  1  0.00000000  -0.00000000  0.00000000  1
  Th  Th0  1  0.50000000  0.50000000  0.50000000  1
  B  B0  1  0.40089730  0.09910270  0.09910270  1
  B  B1  1  0.90089730  0.59910270  0.59910270  1
  B  B2  1  0.40089730  0.40089730  0.09910270  1
  B  B3  1  0.90089730  0.90089730  0.59910270  1
  B  B4  1  0.09910270  0.40089730  0.09910270  1
  B  B5  1  0.59910270  0.90089730  0.59910270  1
  B  B6  1  0.09910270  0.09910270  0.40089730  1
  B  B7  1  0.59910270  0.59910270  0.90089730  1
  B  B8  1  0.40089730  0.09910270  0.40089730  1
  B  B9  1  0.90089730  0.59910270  0.90089730  1
  B  B10  1  0.09910270  0.40089730  0.40089730  1
  B  B11  1  0.59910270  0.90089730  0.90089730  1
loop_
_geom_bond_atom_site_label_1
_geom_bond_atom_site_label_2
_geom_bond_distance
_geom_bond_site_symmetry_2
B0 B11 1.628879 1_544
B0 B8 1.753759 1_555
B0 B6 1.753759 1_555
B0 B4 1.753759 1_555
B0 B2 1.753759 1_555
B0 Sm0 3.017537 1_555
B0 Th0 3.017537 1_554
B0 Th0 3.017537 1_545
B0 Sm0 3.017537 1_655
B1 B10 1.628879 1_655
B1 B7 1.753759 1_555
B1 B9 1.753759 1_555
B1 B5 1.753759 1_555
B1 B3 1.753759 1_555
B1 Sm0 3.017537 1_656
B1 Sm0 3.017537 1_665
B1 Th0 3.017537 1_555
B1 Th0 3.017537 1_655
B2 B7 1.628879 1_554
B2 B8 1.753759 1_555
B2 B4 1.753759 1_555
B2 Th0 3.017537 1_554
B2 Sm0 3.017537 1_565
B2 Sm0 3.017537 1_655
B2 Th0 3.017537 1_555
B3 B6 1.628879 1_665
B3 B5 1.753759 1_555
B3 B9 1.753759 1_555
B3 Sm0 3.017537 1_665
B3 Sm0 3.017537 1_666
B3 Th0 3.017537 1_565
B3 Th0 3.017537 1_655
B4 B9 1.628879 1_454
B4 B6 1.753759 1_555
B4 Sm0 3.017537 1_555
B4 Th0 3.017537 1_455
B4 Th0 3.017537 1_554
B4 Sm0 3.017537 1_565
B5 B8 1.628879 1_565
B5 B7 1.753759 1_555
B5 Sm0 3.017537 1_665
B5 Sm0 3.017537 1_566
B5 Th0 3.017537 1_565
B5 Th0 3.017537 1_555
B6 B8 1.753759 1_555
B6 Sm0 3.017537 1_555
B6 Th0 3.017537 1_545
B6 Th0 3.017537 1_455
B6 Sm0 3.017537 1_556
B7 B9 1.753759 1_555
B7 Sm0 3.017537 1_656
B7 Sm0 3.017537 1_566
B7 Th0 3.017537 1_556
B7 Th0 3.017537 1_555
B8 Th0 3.017537 1_545
B8 Sm0 3.017537 1_655
B8 Sm0 3.017537 1_556
B8 Th0 3.017537 1_555
B9 Sm0 3.017537 1_656
B9 Sm0 3.017537 1_666
B9 Th0 3.017537 1_556
B9 Th0 3.017537 1_655
B10 B8 1.753759 1_555
B10 B2 1.753759 1_555
B10 B6 1.753759 1_555
B10 B4 1.753759 1_555
B10 Th0 3.017537 1_455
B10 Sm0 3.017537 1_565
B10 Sm0 3.017537 1_556
B10 Th0 3.017537 1_555
B11 B7 1.753759 1_555
B11 B5 1.753759 1_555
B11 B9 1.753759 1_555
B11 B3 1.753759 1_555
B11 Sm0 3.017537 1_566
B11 Sm0 3.017537 1_666
B11 Th0 3.017537 1_556
B11 Th0 3.017537 1_565
