# generated using pymatgen
data_KMg14Ti
_symmetry_space_group_name_H-M   'P 1'
_cell_length_a   6.51766442
_cell_length_b   6.61771187
_cell_length_c   10.38281628
_cell_angle_alpha   90.00000000
_cell_angle_beta   90.00000000
_cell_angle_gamma   120.50909862
_symmetry_Int_Tables_number   1
_chemical_formula_structural   KMg14Ti
_chemical_formula_sum   'K1 Mg14 Ti1'
_cell_volume   385.82891979
_cell_formula_units_Z   1
loop_
 _symmetry_equiv_pos_site_id
 _symmetry_equiv_pos_as_xyz
  1  'x, y, z'
loop_
 _atom_site_type_symbol
 _atom_site_label
 _atom_site_symmetry_multiplicity
 _atom_site_fract_x
 _atom_site_fract_y
 _atom_site_fract_z
 _atom_site_occupancy
  K  K0  1  0.16218885  0.83109392  0.12500000  1
  Mg  Mg0  1  0.16560915  0.33280407  0.62500000  1
  Mg  Mg1  1  0.16867869  0.83433884  0.62500000  1
  Mg  Mg2  1  0.66187473  0.33121450  0.12500000  1
  Mg  Mg3  1  0.66748032  0.33075291  0.62500000  1
  Mg  Mg4  1  0.66187473  0.83065923  0.12500000  1
  Mg  Mg5  1  0.66748032  0.83672641  0.62500000  1
  Mg  Mg6  1  0.33363824  0.17927206  0.38050248  1
  Mg  Mg7  1  0.33363824  0.17927206  0.86949752  1
  Mg  Mg8  1  0.33363824  0.65436718  0.38050248  1
  Mg  Mg9  1  0.33363824  0.65436718  0.86949752  1
  Mg  Mg10  1  0.84073954  0.17037027  0.36721327  1
  Mg  Mg11  1  0.84073954  0.17037027  0.88278673  1
  Mg  Mg12  1  0.82024767  0.66012433  0.38630184  1
  Mg  Mg13  1  0.82024767  0.66012433  0.86369816  1
  Ti  Ti0  1  0.18828585  0.34414243  0.12500000  1
loop_
_geom_bond_atom_site_label_1
_geom_bond_atom_site_label_2
_geom_bond_distance
_geom_bond_site_symmetry_2
K0 Mg2 3.258246 1_565
K0 Mg4 3.258246 1_555
K0 Mg2 3.259420 1_455
K0 Mg4 3.259420 1_455
K0 Ti0 3.312099 1_555
K0 Ti0 3.312099 1_565
K0 Mg9 3.313755 1_554
K0 Mg8 3.313755 1_555
K0 Mg6 3.313761 1_565
K0 Mg7 3.313761 1_564
K0 Mg12 3.323764 1_455
K0 Mg13 3.323764 1_454
Mg0 Mg7 3.131427 1_555
Mg0 Mg6 3.131427 1_555
Mg0 Mg8 3.131433 1_555
Mg0 Mg9 3.131433 1_555
Mg0 Mg11 3.239100 1_455
Mg0 Mg10 3.239100 1_455
Mg0 Mg5 3.239766 1_445
Mg0 Mg3 3.239766 1_455
Mg0 Mg5 3.277940 1_555
Mg0 Mg3 3.277940 1_555
Mg0 Mg1 3.308901 1_555
Mg0 Mg1 3.308901 1_545
Mg1 Mg12 3.157580 1_455
Mg1 Mg13 3.157580 1_455
Mg1 Mg8 3.212312 1_555
Mg1 Mg9 3.212312 1_555
Mg1 Mg6 3.212319 1_565
Mg1 Mg7 3.212319 1_565
Mg1 Mg3 3.243029 1_565
Mg1 Mg5 3.243029 1_555
Mg1 Mg3 3.274692 1_455
Mg1 Mg5 3.274692 1_455
Mg2 Ti0 3.130994 1_555
Mg2 Mg6 3.231284 1_555
Mg2 Mg7 3.231284 1_554
Mg2 Mg4 3.305181 1_555
Mg2 Mg4 3.312531 1_545
Mg2 Ti0 3.388340 1_655
Mg3 Mg6 3.157370 1_555
Mg3 Mg7 3.157370 1_555
Mg3 Mg5 3.269325 1_545
Mg3 Mg5 3.348387 1_555
Mg4 Ti0 3.130994 1_555
Mg4 Mg9 3.231284 1_554
Mg4 Mg8 3.231284 1_555
Mg4 Ti0 3.388339 1_665
Mg5 Mg9 3.157370 1_555
Mg5 Mg8 3.157370 1_555
Mg6 Mg8 3.144043 1_555
Mg6 Ti0 3.189818 1_555
Mg6 Mg8 3.473669 1_545
Mg7 Mg9 3.144043 1_555
Mg7 Ti0 3.189818 1_556
Mg7 Mg9 3.473669 1_545
Mg8 Ti0 3.189825 1_555
Mg9 Ti0 3.189825 1_556
Mg10 Mg2 3.174345 1_555
Mg10 Mg4 3.174352 1_545
Mg10 Ti0 3.183258 1_655
Mg10 Mg8 3.186035 1_655
Mg10 Mg6 3.186035 1_655
Mg10 Mg3 3.283682 1_555
Mg10 Mg5 3.283688 1_545
Mg10 Mg12 3.316783 1_555
Mg10 Mg12 3.316783 1_545
Mg10 Mg8 3.338262 1_545
Mg10 Mg6 3.338262 1_555
Mg11 Mg2 3.174345 1_556
Mg11 Mg4 3.174352 1_546
Mg11 Ti0 3.183258 1_656
Mg11 Mg9 3.186035 1_655
Mg11 Mg7 3.186035 1_655
Mg11 Mg3 3.283682 1_555
Mg11 Mg5 3.283688 1_545
Mg11 Mg13 3.316783 1_555
Mg11 Mg13 3.316783 1_545
Mg11 Mg9 3.338262 1_545
Mg11 Mg7 3.338262 1_555
Mg12 Mg5 3.111437 1_555
Mg12 Mg3 3.111444 1_555
Mg12 Mg6 3.152961 1_555
Mg12 Mg8 3.152961 1_555
Mg12 Mg4 3.298869 1_555
Mg12 Mg2 3.298876 1_555
Mg12 Mg6 3.366148 1_665
Mg12 Mg8 3.366148 1_655
Mg13 Mg5 3.111437 1_555
Mg13 Mg3 3.111444 1_555
Mg13 Mg7 3.152961 1_555
Mg13 Mg9 3.152961 1_555
Mg13 Mg4 3.298869 1_556
Mg13 Mg2 3.298876 1_556
Mg13 Mg7 3.366148 1_665
Mg13 Mg9 3.366148 1_655
