# generated using pymatgen
data_Sr9CaSi6
_symmetry_space_group_name_H-M   'P 1'
_cell_length_a   9.74929226
_cell_length_b   9.74929226
_cell_length_c   9.74929226
_cell_angle_alpha   131.41206755
_cell_angle_beta   131.41206755
_cell_angle_gamma   71.15920250
_symmetry_Int_Tables_number   1
_chemical_formula_structural   Sr9CaSi6
_chemical_formula_sum   'Sr9 Ca1 Si6'
_cell_volume   510.27190447
_cell_formula_units_Z   1
loop_
 _symmetry_equiv_pos_site_id
 _symmetry_equiv_pos_as_xyz
  1  'x, y, z'
loop_
 _atom_site_type_symbol
 _atom_site_label
 _atom_site_symmetry_multiplicity
 _atom_site_fract_x
 _atom_site_fract_y
 _atom_site_fract_z
 _atom_site_occupancy
  Sr  Sr0  1  0.53881100  0.04320900  0.86130300  1
  Sr  Sr1  1  0.18190600  0.67750800  0.13869700  1
  Sr  Sr2  1  0.04320900  0.18190600  0.50439800  1
  Sr  Sr3  1  0.67750800  0.53881100  0.49560200  1
  Sr  Sr4  1  0.46118900  0.95679100  0.13869700  1
  Sr  Sr5  1  0.81809400  0.32249200  0.86130300  1
  Sr  Sr6  1  0.95679100  0.81809400  0.49560200  1
  Sr  Sr7  1  0.32249200  0.46118900  0.50439800  1
  Sr  Sr8  1  0.00000000  0.00000000  0.00000000  1
  Ca  Ca0  1  0.50000000  0.50000000  0.00000000  1
  Si  Si0  1  0.24987600  0.24987600  0.00000000  1
  Si  Si1  1  0.75012400  0.75012400  0.00000000  1
  Si  Si2  1  0.88754300  0.39410400  0.28164700  1
  Si  Si3  1  0.11245700  0.60589600  0.71835300  1
  Si  Si4  1  0.39410400  0.11245700  0.50656100  1
  Si  Si5  1  0.60589600  0.88754300  0.49343900  1
loop_
_geom_bond_atom_site_label_1
_geom_bond_atom_site_label_2
_geom_bond_distance
_geom_bond_site_symmetry_2
Ca0 Si3 3.222874 1_554
Ca0 Si2 3.222874 1_555
Ca0 Si4 3.222874 1_554
Ca0 Si5 3.222874 1_555
Si0 Sr1 3.404711 1_555
Si0 Sr2 3.404711 1_554
Si0 Sr0 3.404711 1_554
Si0 Sr3 3.404711 1_555
Si0 Sr4 3.444026 1_545
Si0 Sr6 3.444026 1_444
Si0 Sr7 3.444026 1_555
Si0 Sr5 3.444026 1_454
Si1 Sr7 3.404711 1_554
Si1 Sr4 3.404711 1_555
Si1 Sr5 3.404711 1_554
Si1 Sr6 3.404711 1_555
Si1 Sr3 3.444026 1_554
Si1 Sr0 3.444026 1_564
Si1 Sr2 3.444026 1_665
Si1 Sr1 3.444026 1_655
Si2 Si3 2.478317 1_655
Si2 Sr3 3.228945 1_555
Si2 Sr6 3.228945 1_555
Si2 Sr5 3.254134 1_554
Si2 Sr0 3.254134 1_554
Si2 Sr8 3.287726 1_655
Si2 Sr7 3.294661 1_655
Si2 Sr2 3.294661 1_655
Si3 Sr2 3.228945 1_555
Si3 Sr7 3.228945 1_555
Si3 Sr1 3.254134 1_556
Si3 Sr4 3.254134 1_556
Si3 Sr8 3.287726 1_566
Si3 Sr3 3.294661 1_455
Si3 Sr6 3.294661 1_455
Si4 Si5 2.478317 1_545
Si4 Sr5 3.228945 1_555
Si4 Sr0 3.228945 1_555
Si4 Sr2 3.254134 1_555
Si4 Sr7 3.254134 1_555
Si4 Sr8 3.287726 1_555
Si4 Sr1 3.294661 1_545
Si4 Sr4 3.294661 1_545
Si5 Sr4 3.228945 1_555
Si5 Sr1 3.228945 1_555
Si5 Sr3 3.254134 1_555
Si5 Sr6 3.254134 1_555
Si5 Sr8 3.287726 1_666
Si5 Sr0 3.294661 1_565
Si5 Sr5 3.294661 1_565
