# generated using pymatgen
data_LaCoCu12
_symmetry_space_group_name_H-M   'P 1'
_cell_length_a   8.15275451
_cell_length_b   8.15275451
_cell_length_c   8.15275451
_cell_angle_alpha   60.00000000
_cell_angle_beta   60.00000000
_cell_angle_gamma   60.00000000
_symmetry_Int_Tables_number   1
_chemical_formula_structural   LaCoCu12
_chemical_formula_sum   'La2 Co2 Cu24'
_cell_volume   383.17582255
_cell_formula_units_Z   2
loop_
 _symmetry_equiv_pos_site_id
 _symmetry_equiv_pos_as_xyz
  1  'x, y, z'
loop_
 _atom_site_type_symbol
 _atom_site_label
 _atom_site_symmetry_multiplicity
 _atom_site_fract_x
 _atom_site_fract_y
 _atom_site_fract_z
 _atom_site_occupancy
  La  La0  1  0.75000000  0.75000000  0.75000000  1
  La  La1  1  0.25000000  0.25000000  0.25000000  1
  Co  Co0  1  0.00000000  0.00000000  0.00000000  1
  Co  Co1  1  0.50000000  0.50000000  0.50000000  1
  Cu  Cu0  1  0.70395200  0.93784300  0.29604800  1
  Cu  Cu1  1  0.93784300  0.70395200  0.06215700  1
  Cu  Cu2  1  0.06215700  0.29604800  0.93784300  1
  Cu  Cu3  1  0.79604800  0.56215700  0.43784300  1
  Cu  Cu4  1  0.56215700  0.79604800  0.20395200  1
  Cu  Cu5  1  0.20395200  0.56215700  0.79604800  1
  Cu  Cu6  1  0.79604800  0.43784300  0.20395200  1
  Cu  Cu7  1  0.56215700  0.43784300  0.79604800  1
  Cu  Cu8  1  0.20395200  0.79604800  0.43784300  1
  Cu  Cu9  1  0.93784300  0.06215700  0.29604800  1
  Cu  Cu10  1  0.29604800  0.93784300  0.06215700  1
  Cu  Cu11  1  0.06215700  0.70395200  0.29604800  1
  Cu  Cu12  1  0.06215700  0.93784300  0.70395200  1
  Cu  Cu13  1  0.29604800  0.70395200  0.93784300  1
  Cu  Cu14  1  0.70395200  0.06215700  0.93784300  1
  Cu  Cu15  1  0.70395200  0.29604800  0.06215700  1
  Cu  Cu16  1  0.93784300  0.29604800  0.70395200  1
  Cu  Cu17  1  0.43784300  0.79604800  0.56215700  1
  Cu  Cu18  1  0.43784300  0.20395200  0.79604800  1
  Cu  Cu19  1  0.79604800  0.20395200  0.56215700  1
  Cu  Cu20  1  0.43784300  0.56215700  0.20395200  1
  Cu  Cu21  1  0.20395200  0.43784300  0.56215700  1
  Cu  Cu22  1  0.56215700  0.20395200  0.43784300  1
  Cu  Cu23  1  0.29604800  0.06215700  0.70395200  1
loop_
_geom_bond_atom_site_label_1
_geom_bond_atom_site_label_2
_geom_bond_distance
_geom_bond_site_symmetry_2
Co0 Cu9 2.466231 1_455
Co0 Cu2 2.466231 1_554
Co0 Cu11 2.466231 1_545
Co0 Cu10 2.466231 1_545
Co0 Cu13 2.466231 1_544
Co0 Cu12 2.466231 1_544
Co0 Cu16 2.466231 1_454
Co0 Cu14 2.466231 1_454
Co0 Cu0 2.466231 1_445
Co0 Cu23 2.466231 1_554
Co0 Cu15 2.466231 1_455
Co0 Cu1 2.466231 1_445
Co1 Cu4 2.466231 1_555
Co1 Cu8 2.466231 1_555
Co1 Cu18 2.466231 1_555
Co1 Cu20 2.466231 1_555
Co1 Cu21 2.466231 1_555
Co1 Cu3 2.466231 1_555
Co1 Cu5 2.466231 1_555
Co1 Cu7 2.466231 1_555
Co1 Cu22 2.466231 1_555
Co1 Cu19 2.466231 1_555
Co1 Cu6 2.466231 1_555
Co1 Cu17 2.466231 1_555
Cu0 Cu22 2.458293 1_565
Cu0 Cu17 2.458293 1_555
Cu0 Cu3 2.511745 1_555
Cu0 Cu4 2.511745 1_555
Cu0 Cu15 2.568246 1_565
Cu0 Cu14 2.568246 1_564
Cu0 Cu11 2.568246 1_655
Cu0 Cu9 2.568246 1_565
Cu0 Cu1 2.696701 1_555
Cu0 La0 3.366011 1_555
Cu0 La1 3.366011 1_565
Cu1 Cu5 2.458293 1_654
Cu1 Cu6 2.458293 1_555
Cu1 Cu3 2.511745 1_555
Cu1 Cu4 2.511745 1_555
Cu1 Cu13 2.568246 1_654
Cu1 Cu12 2.568246 1_654
Cu1 Cu11 2.568246 1_655
Cu1 Cu14 2.568246 1_564
Cu1 La0 3.366011 1_554
Cu1 La1 3.366011 1_655
Cu2 Cu6 2.458293 1_456
Cu2 Cu5 2.458293 1_555
Cu2 Cu21 2.511745 1_555
Cu2 Cu9 2.568246 1_456
Cu2 Cu23 2.696701 1_555
Cu2 La1 3.366011 1_556
Cu2 La0 3.366011 1_455
Cu3 Cu7 2.568246 1_555
Cu3 Cu6 2.568246 1_555
Cu3 Cu4 2.696701 1_555
Cu3 La0 3.366011 1_555
Cu3 La1 3.366011 1_655
Cu4 Cu8 2.568246 1_555
Cu4 Cu6 2.568246 1_555
Cu4 La0 3.366011 1_554
Cu4 La1 3.366011 1_565
Cu5 Cu8 2.568246 1_555
Cu5 Cu7 2.568246 1_555
Cu5 La1 3.366011 1_556
Cu5 La0 3.366011 1_455
Cu6 Cu9 2.511745 1_555
Cu6 La0 3.366011 1_554
Cu6 La1 3.366011 1_655
Cu7 La0 3.366011 1_555
Cu7 La1 3.366011 1_556
Cu8 Cu9 2.458293 1_465
Cu8 La0 3.366011 1_455
Cu8 La1 3.366011 1_565
Cu9 La0 3.366011 1_545
Cu9 La1 3.366011 1_655
Cu10 Cu18 2.458293 1_564
Cu10 Cu4 2.458293 1_555
Cu10 Cu8 2.511745 1_555
Cu10 Cu20 2.511745 1_555
Cu10 Cu2 2.568246 1_564
Cu10 Cu23 2.568246 1_564
Cu10 Cu13 2.568246 1_554
Cu10 Cu9 2.568246 1_465
Cu10 Cu11 2.696701 1_555
Cu10 La0 3.366011 1_554
Cu10 La1 3.366011 1_565
Cu11 Cu3 2.458293 1_455
Cu11 Cu21 2.458293 1_555
Cu11 Cu20 2.511745 1_555
Cu11 Cu8 2.511745 1_555
Cu11 Cu13 2.568246 1_554
Cu11 Cu9 2.568246 1_465
Cu11 La1 3.366011 1_555
Cu11 La0 3.366011 1_455
Cu12 Cu19 2.458293 1_465
Cu12 Cu8 2.458293 1_555
Cu12 Cu17 2.511745 1_555
Cu12 Cu5 2.511745 1_555
Cu12 Cu16 2.568246 1_465
Cu12 Cu23 2.568246 1_565
Cu12 Cu14 2.568246 1_465
Cu12 Cu13 2.696701 1_555
Cu12 La1 3.366011 1_565
Cu12 La0 3.366011 1_455
Cu13 Cu20 2.458293 1_556
Cu13 Cu7 2.458293 1_555
Cu13 Cu5 2.511745 1_555
Cu13 Cu17 2.511745 1_555
Cu13 Cu23 2.568246 1_565
Cu13 La0 3.366011 1_555
Cu13 La1 3.366011 1_556
Cu14 Cu4 2.458293 1_546
Cu14 Cu18 2.458293 1_555
Cu14 Cu7 2.511745 1_555
Cu14 Cu19 2.511745 1_555
Cu14 Cu15 2.568246 1_556
Cu14 Cu16 2.696701 1_555
Cu14 La0 3.366011 1_545
Cu14 La1 3.366011 1_556
Cu15 Cu7 2.458293 1_554
Cu15 Cu20 2.458293 1_555
Cu15 Cu22 2.511745 1_555
Cu15 Cu6 2.511745 1_555
Cu15 Cu16 2.568246 1_554
Cu15 Cu2 2.568246 1_654
Cu15 Cu9 2.696701 1_555
Cu15 La0 3.366011 1_554
Cu15 La1 3.366011 1_555
Cu16 Cu21 2.458293 1_655
Cu16 Cu3 2.458293 1_555
Cu16 Cu7 2.511745 1_555
Cu16 Cu19 2.511745 1_555
Cu16 Cu23 2.568246 1_655
Cu16 Cu2 2.568246 1_655
Cu16 La0 3.366011 1_555
Cu16 La1 3.366011 1_655
Cu17 Cu23 2.458293 1_565
Cu17 Cu7 2.568246 1_555
Cu17 Cu4 2.568246 1_555
Cu17 Cu8 2.568246 1_555
Cu17 Cu3 2.568246 1_555
Cu17 Cu5 2.696701 1_555
Cu17 La0 3.366011 1_555
Cu17 La1 3.366011 1_565
Cu18 Cu2 2.511745 1_555
Cu18 Cu23 2.511745 1_555
Cu18 Cu7 2.568246 1_555
Cu18 Cu22 2.568246 1_555
Cu18 Cu5 2.568246 1_555
Cu18 Cu19 2.568246 1_555
Cu18 Cu21 2.696701 1_555
Cu18 La0 3.366011 1_545
Cu18 La1 3.366011 1_556
Cu19 Cu9 2.458293 1_555
Cu19 Cu3 2.568246 1_555
Cu19 Cu6 2.568246 1_555
Cu19 Cu22 2.568246 1_555
Cu19 Cu7 2.696701 1_555
Cu19 La0 3.366011 1_545
Cu19 La1 3.366011 1_655
Cu20 Cu22 2.568246 1_555
Cu20 Cu4 2.568246 1_555
Cu20 Cu21 2.568246 1_555
Cu20 Cu6 2.568246 1_555
Cu20 Cu8 2.696701 1_555
Cu20 La0 3.366011 1_554
Cu20 La1 3.366011 1_555
Cu21 Cu23 2.511745 1_555
Cu21 Cu8 2.568246 1_555
Cu21 Cu5 2.568246 1_555
Cu21 Cu22 2.568246 1_555
Cu21 La1 3.366011 1_555
Cu21 La0 3.366011 1_455
Cu22 Cu23 2.458293 1_555
Cu22 Cu9 2.511745 1_555
Cu22 Cu6 2.696701 1_555
Cu22 La0 3.366011 1_545
Cu22 La1 3.366011 1_555
Cu23 La0 3.366011 1_545
Cu23 La1 3.366011 1_555
