# generated using pymatgen
data_CsP7
_symmetry_space_group_name_H-M   'P 1'
_cell_length_a   9.25930042
_cell_length_b   9.63129834
_cell_length_c   9.72399439
_cell_angle_alpha   90.00000000
_cell_angle_beta   90.00000000
_cell_angle_gamma   90.00000000
_symmetry_Int_Tables_number   1
_chemical_formula_structural   CsP7
_chemical_formula_sum   'Cs4 P28'
_cell_volume   867.17691996
_cell_formula_units_Z   4
loop_
 _symmetry_equiv_pos_site_id
 _symmetry_equiv_pos_as_xyz
  1  'x, y, z'
loop_
 _atom_site_type_symbol
 _atom_site_label
 _atom_site_symmetry_multiplicity
 _atom_site_fract_x
 _atom_site_fract_y
 _atom_site_fract_z
 _atom_site_occupancy
  Cs  Cs0  1  0.28535883  0.74724638  0.74629452  1
  Cs  Cs1  1  0.71464117  0.25275362  0.24629452  1
  Cs  Cs2  1  0.71464117  0.24724638  0.74629452  1
  Cs  Cs3  1  0.28535883  0.75275362  0.24629452  1
  P  P0  1  0.66399514  0.86877112  0.61404733  1
  P  P1  1  0.33600486  0.13122888  0.11404733  1
  P  P2  1  0.33600486  0.36877112  0.61404733  1
  P  P3  1  0.66399514  0.63122888  0.11404733  1
  P  P4  1  0.89110672  0.68109950  0.84076810  1
  P  P5  1  0.10889328  0.31890050  0.34076810  1
  P  P6  1  0.10889328  0.18109950  0.84076810  1
  P  P7  1  0.89110672  0.81890050  0.34076810  1
  P  P8  1  0.93563761  0.83887351  0.99946229  1
  P  P9  1  0.06436239  0.16112649  0.49946229  1
  P  P10  1  0.06436239  0.33887351  0.99946229  1
  P  P11  1  0.93563761  0.66112649  0.49946229  1
  P  P12  1  0.58534393  0.81750996  -0.00085181  1
  P  P13  1  0.41465607  0.18249004  0.49914819  1
  P  P14  1  0.41465607  0.31750996  -0.00085181  1
  P  P15  1  0.58534393  0.68249004  0.49914819  1
  P  P16  1  0.75051042  0.97129457  0.99932314  1
  P  P17  1  0.24948958  0.02870543  0.49932314  1
  P  P18  1  0.24948958  0.47129457  0.99932314  1
  P  P19  1  0.75051042  0.52870543  0.49932314  1
  P  P20  1  0.89093801  0.81844642  0.65851761  1
  P  P21  1  0.10906199  0.18155358  0.15851761  1
  P  P22  1  0.10906199  0.31844642  0.65851761  1
  P  P23  1  0.89093801  0.68155358  0.15851761  1
  P  P24  1  0.66416847  0.63059528  0.88523983  1
  P  P25  1  0.33583153  0.36940472  0.38523983  1
  P  P26  1  0.33583153  0.13059528  0.88523983  1
  P  P27  1  0.66416847  0.86940472  0.38523983  1
loop_
_geom_bond_atom_site_label_1
_geom_bond_atom_site_label_2
_geom_bond_distance
_geom_bond_site_symmetry_2
Cs0 P17 3.636793 1_565
Cs0 P18 3.637015 1_555
Cs0 P15 3.725580 1_555
Cs0 P12 3.770776 1_556
Cs0 P20 3.812654 1_455
Cs0 P4 3.817846 1_455
Cs0 P2 3.893735 1_555
Cs0 P0 3.913443 1_555
Cs0 P24 3.923057 1_555
Cs0 P26 3.959273 1_565
Cs0 P11 4.115178 1_455
Cs0 P8 4.162334 1_455
Cs1 P16 3.636793 1_544
Cs1 P19 3.637015 1_555
Cs1 P14 3.725580 1_555
Cs1 P13 3.770776 1_555
Cs1 P21 3.812654 1_655
Cs1 P5 3.817846 1_655
Cs1 P3 3.893735 1_555
Cs1 P1 3.913443 1_555
Cs1 P25 3.923057 1_555
Cs1 P27 3.959273 1_545
Cs1 P10 4.115178 1_654
Cs1 P9 4.162334 1_655
Cs2 P19 3.636793 1_555
Cs2 P16 3.637015 1_545
Cs2 P13 3.725580 1_555
Cs2 P14 3.770776 1_556
Cs2 P22 3.812654 1_655
Cs2 P6 3.817846 1_655
Cs2 P0 3.893735 1_545
Cs2 P2 3.913443 1_555
Cs2 P26 3.923057 1_555
Cs2 P24 3.959273 1_555
Cs2 P9 4.115178 1_655
Cs2 P10 4.162334 1_655
Cs3 P18 3.636793 1_554
Cs3 P17 3.637015 1_565
Cs3 P12 3.725580 1_555
Cs3 P15 3.770776 1_555
Cs3 P23 3.812654 1_455
Cs3 P7 3.817846 1_455
Cs3 P1 3.893735 1_565
Cs3 P3 3.913443 1_555
Cs3 P27 3.923057 1_555
Cs3 P25 3.959273 1_555
Cs3 P8 4.115178 1_454
Cs3 P11 4.162334 1_455
P0 P20 2.199436 1_555
P0 P27 2.224932 1_555
P0 P15 2.235523 1_555
P1 P21 2.199436 1_555
P1 P26 2.224932 1_554
P1 P14 2.235523 1_555
P2 P22 2.199436 1_555
P2 P25 2.224932 1_555
P4 P8 2.204628 1_555
P5 P9 2.204628 1_555
P10 P18 2.136567 1_555
P10 P21 2.204372 1_556
P10 P6 2.204628 1_555
P11 P19 2.136567 1_555
P11 P20 2.204372 1_555
P11 P7 2.204628 1_555
P12 P16 2.128998 1_554
P12 P3 2.235523 1_555
P12 P24 2.236158 1_554
P13 P17 2.128998 1_555
P13 P2 2.235523 1_555
P13 P25 2.236158 1_555
P14 P18 2.128998 1_554
P14 P26 2.236158 1_554
P15 P19 2.128998 1_555
P15 P27 2.236158 1_555
P16 P8 2.136567 1_555
P17 P9 2.136567 1_555
P20 P4 2.211466 1_555
P21 P5 2.211466 1_555
P22 P9 2.204372 1_555
P22 P6 2.211466 1_555
P23 P3 2.199436 1_555
P23 P8 2.204372 1_554
P23 P7 2.211466 1_555
P24 P4 2.199779 1_555
P24 P3 2.224932 1_556
P25 P5 2.199779 1_555
P26 P6 2.199779 1_555
P27 P7 2.199779 1_555
