# generated using pymatgen
data_LaNi2GeP
_symmetry_space_group_name_H-M   'P 1'
_cell_length_a   5.73006553
_cell_length_b   5.73006553
_cell_length_c   5.73006553
_cell_angle_alpha   138.10130100
_cell_angle_beta   138.10130100
_cell_angle_gamma   60.74788681
_symmetry_Int_Tables_number   1
_chemical_formula_structural   LaNi2GeP
_chemical_formula_sum   'La1 Ni2 Ge1 P1'
_cell_volume   82.99958553
_cell_formula_units_Z   1
loop_
 _symmetry_equiv_pos_site_id
 _symmetry_equiv_pos_as_xyz
  1  'x, y, z'
loop_
 _atom_site_type_symbol
 _atom_site_label
 _atom_site_symmetry_multiplicity
 _atom_site_fract_x
 _atom_site_fract_y
 _atom_site_fract_z
 _atom_site_occupancy
  La  La0  1  0.00307900  0.00307900  0.00000000  1
  Ni  Ni0  1  0.74460300  0.24460300  0.50000000  1
  Ni  Ni1  1  0.24460300  0.74460300  0.50000000  1
  Ge  Ge0  1  0.37161400  0.37161400  0.00000000  1
  P  P0  1  0.63610200  0.63610200  0.00000000  1
loop_
_geom_bond_atom_site_label_1
_geom_bond_atom_site_label_2
_geom_bond_distance
_geom_bond_site_symmetry_2
La0 Ni1 3.146398 1_544
La0 Ni0 3.146398 1_555
La0 Ni1 3.146398 1_555
La0 Ni0 3.146398 1_454
La0 P0 3.181900 1_556
La0 P0 3.181900 1_444
La0 P0 3.181900 1_455
La0 P0 3.181900 1_545
La0 Ni1 3.275423 1_444
La0 Ni0 3.275423 1_455
La0 Ni1 3.275423 1_545
La0 Ni0 3.275423 1_444
Ni0 P0 2.312611 1_556
Ni0 P0 2.312611 1_545
Ni1 P0 2.312611 1_455
Ni1 P0 2.312611 1_556
Ge0 Ni0 2.402982 1_454
Ge0 Ni1 2.402982 1_544
Ge0 Ni0 2.402982 1_555
Ge0 Ni1 2.402982 1_555
Ge0 P0 2.615034 1_555
Ge0 La0 3.175564 1_655
Ge0 La0 3.175564 1_666
Ge0 La0 3.175564 1_554
Ge0 La0 3.175564 1_565
