# generated using pymatgen
data_Sm4(FeB2)3
_symmetry_space_group_name_H-M   'P 1'
_cell_length_a   5.35748242
_cell_length_b   5.35748300
_cell_length_c   8.06470229
_cell_angle_alpha   70.60029858
_cell_angle_beta   70.60029805
_cell_angle_gamma   60.00000261
_symmetry_Int_Tables_number   1
_chemical_formula_structural   Sm4(FeB2)3
_chemical_formula_sum   'Sm4 Fe3 B6'
_cell_volume   185.13505544
_cell_formula_units_Z   1
loop_
 _symmetry_equiv_pos_site_id
 _symmetry_equiv_pos_as_xyz
  1  'x, y, z'
loop_
 _atom_site_type_symbol
 _atom_site_label
 _atom_site_symmetry_multiplicity
 _atom_site_fract_x
 _atom_site_fract_y
 _atom_site_fract_z
 _atom_site_occupancy
  Sm  Sm0  1  0.74323000  0.74323000  0.77031100  1
  Sm  Sm1  1  0.25677000  0.25677000  0.22968900  1
  Sm  Sm2  1  0.58881100  0.58881100  0.23356700  1
  Sm  Sm3  1  0.41118900  0.41118900  0.76643300  1
  Fe  Fe0  1  0.00000000  0.00000000  0.00000000  1
  Fe  Fe1  1  0.88500000  0.88500000  0.34500100  1
  Fe  Fe2  1  0.11500000  0.11500000  0.65499900  1
  B  B0  1  0.50000000  0.16706900  0.50000000  1
  B  B1  1  0.83293100  0.50000000  0.50000000  1
  B  B2  1  0.16706900  0.83293200  0.50000000  1
  B  B3  1  0.16706900  0.50000000  0.50000000  1
  B  B4  1  0.83293100  0.16706900  0.50000000  1
  B  B5  1  0.50000000  0.83293100  0.50000000  1
loop_
_geom_bond_atom_site_label_1
_geom_bond_atom_site_label_2
_geom_bond_distance
_geom_bond_site_symmetry_2
Sm0 Sm3 3.093277 1_655
Sm0 Sm3 3.093278 1_565
Sm0 Sm3 3.093282 1_555
Sm0 Sm2 3.450305 1_556
Sm1 Sm2 3.093277 1_455
Sm1 Sm2 3.093278 1_545
Sm1 Sm2 3.093282 1_555
Sm1 Sm3 3.450305 1_554
Fe0 Fe1 2.569548 1_445
Fe0 Fe2 2.569548 1_554
Fe0 Sm1 3.534693 1_555
Fe0 Sm0 3.534693 1_444
Fe0 Sm0 3.534697 1_544
Fe0 Sm1 3.534697 1_455
Fe0 Sm0 3.534697 1_454
Fe0 Sm1 3.534697 1_545
Fe0 Sm3 3.548764 1_454
Fe0 Sm2 3.548764 1_545
Fe0 Sm3 3.548764 1_554
Fe0 Sm2 3.548764 1_445
Fe0 Sm3 3.548764 1_544
Fe0 Sm2 3.548764 1_455
Fe1 Sm2 3.202554 1_655
Fe1 Sm2 3.202555 1_565
Fe1 Sm2 3.202559 1_555
Fe2 Sm3 3.202554 1_455
Fe2 Sm3 3.202555 1_545
Fe2 Sm3 3.202559 1_555
B0 B4 1.783672 1_555
B0 B3 1.783672 1_555
B0 B5 1.790139 1_545
B0 Fe1 2.127376 1_545
B0 Fe2 2.127378 1_555
B0 Sm3 2.668191 1_555
B0 Sm2 2.668191 1_555
B0 Sm0 2.691887 1_545
B0 Sm1 2.691889 1_555
B1 B5 1.783672 1_555
B1 B4 1.783672 1_555
B1 B3 1.790138 1_655
B1 Fe2 2.127376 1_655
B1 Fe1 2.127378 1_555
B1 Sm2 2.668191 1_555
B1 Sm3 2.668191 1_555
B1 Sm1 2.691887 1_655
B1 Sm0 2.691889 1_555
B2 B5 1.783669 1_555
B2 B3 1.783678 1_555
B2 B4 1.790136 1_465
B2 Fe2 2.127369 1_565
B2 Fe1 2.127376 1_455
B2 Sm2 2.668193 1_555
B2 Sm3 2.668193 1_555
B2 Sm1 2.691882 1_565
B2 Sm0 2.691887 1_455
B3 Fe1 2.127376 1_455
B3 Fe2 2.127378 1_555
B3 Sm3 2.668191 1_555
B3 Sm2 2.668191 1_555
B3 Sm0 2.691887 1_455
B3 Sm1 2.691889 1_555
B4 Fe2 2.127374 1_655
B4 Fe1 2.127374 1_545
B4 Sm3 2.668191 1_555
B4 Sm2 2.668191 1_555
B4 Sm1 2.691885 1_655
B4 Sm0 2.691885 1_545
B5 Fe2 2.127376 1_565
B5 Fe1 2.127378 1_555
B5 Sm2 2.668191 1_555
B5 Sm3 2.668191 1_555
B5 Sm1 2.691887 1_565
B5 Sm0 2.691889 1_555
