# generated using pymatgen
data_FeH4Cl5O
_symmetry_space_group_name_H-M   'P 1'
_cell_length_a   6.99450200
_cell_length_b   8.69084800
_cell_length_c   18.13603900
_cell_angle_alpha   90.00000000
_cell_angle_beta   90.00000000
_cell_angle_gamma   90.00000000
_symmetry_Int_Tables_number   1
_chemical_formula_structural   FeH4Cl5O
_chemical_formula_sum   'Fe4 H16 Cl20 O4'
_cell_volume   1102.45632656
_cell_formula_units_Z   4
loop_
 _symmetry_equiv_pos_site_id
 _symmetry_equiv_pos_as_xyz
  1  'x, y, z'
loop_
 _atom_site_type_symbol
 _atom_site_label
 _atom_site_symmetry_multiplicity
 _atom_site_fract_x
 _atom_site_fract_y
 _atom_site_fract_z
 _atom_site_occupancy
  Fe  Fe0  1  0.71508900  0.75000000  0.93927600  1
  Fe  Fe1  1  0.28491100  0.25000000  0.06072400  1
  Fe  Fe2  1  0.21508900  0.25000000  0.56072400  1
  Fe  Fe3  1  0.78491100  0.75000000  0.43927600  1
  H  H0  1  0.66060800  0.01848100  0.64343300  1
  H  H1  1  0.33939200  0.98151900  0.35656700  1
  H  H2  1  0.16060800  0.98151900  0.85656700  1
  H  H3  1  0.33939200  0.51848100  0.35656700  1
  H  H4  1  0.83939200  0.01848100  0.14343300  1
  H  H5  1  0.66060800  0.48151900  0.64343300  1
  H  H6  1  0.83939200  0.48151900  0.14343300  1
  H  H7  1  0.16060800  0.51848100  0.85656700  1
  H  H8  1  0.57081500  0.34263000  0.97283600  1
  H  H9  1  0.42918500  0.65737000  0.02716400  1
  H  H10  1  0.07081500  0.65737000  0.52716400  1
  H  H11  1  0.42918500  0.84263000  0.02716400  1
  H  H12  1  0.92918500  0.34263000  0.47283600  1
  H  H13  1  0.57081500  0.15737000  0.97283600  1
  H  H14  1  0.92918500  0.15737000  0.47283600  1
  H  H15  1  0.07081500  0.84263000  0.52716400  1
  Cl  Cl0  1  0.78720300  0.75000000  0.73830200  1
  Cl  Cl1  1  0.21279700  0.25000000  0.26169800  1
  Cl  Cl2  1  0.28720300  0.25000000  0.76169800  1
  Cl  Cl3  1  0.71279700  0.75000000  0.23830200  1
  Cl  Cl4  1  0.98928900  0.75000000  0.99508900  1
  Cl  Cl5  1  0.01071100  0.25000000  0.00491100  1
  Cl  Cl6  1  0.48928900  0.25000000  0.50491100  1
  Cl  Cl7  1  0.51071100  0.75000000  0.49508900  1
  Cl  Cl8  1  0.50262200  0.75000000  0.74198400  1
  Cl  Cl9  1  0.49737800  0.25000000  0.25801600  1
  Cl  Cl10  1  0.00262200  0.25000000  0.75801600  1
  Cl  Cl11  1  0.99737800  0.75000000  0.24198400  1
  Cl  Cl12  1  0.66818600  0.98597500  0.89392800  1
  Cl  Cl13  1  0.33181400  0.01402500  0.10607200  1
  Cl  Cl14  1  0.16818600  0.01402500  0.60607200  1
  Cl  Cl15  1  0.33181400  0.48597500  0.10607200  1
  Cl  Cl16  1  0.83181400  0.98597500  0.39392800  1
  Cl  Cl17  1  0.66818600  0.51402500  0.89392800  1
  Cl  Cl18  1  0.83181400  0.51402500  0.39392800  1
  Cl  Cl19  1  0.16818600  0.48597500  0.60607200  1
  O  O0  1  0.48349300  0.75000000  0.00316500  1
  O  O1  1  0.51650700  0.25000000  0.99683500  1
  O  O2  1  0.98349300  0.25000000  0.49683500  1
  O  O3  1  0.01650700  0.75000000  0.50316500  1
loop_
_geom_bond_atom_site_label_1
_geom_bond_atom_site_label_2
_geom_bond_distance
_geom_bond_site_symmetry_2
Fe0 O0 1.991643 1_556
Fe1 O1 1.991643 1_554
Fe2 O2 1.991643 1_455
Fe3 O3 1.991643 1_655
H8 O1 0.990863 1_555
H9 O0 0.990863 1_555
H10 O3 0.990863 1_555
H11 O0 0.990863 1_555
H12 O2 0.990863 1_555
H13 O1 0.990863 1_555
H14 O2 0.990863 1_555
H15 O3 0.990863 1_555
Cl0 Cl8 1.991622 1_555
Cl1 Cl9 1.991622 1_555
Cl4 Fe0 2.168620 1_555
Cl5 Fe1 2.168620 1_555
Cl6 Fe2 2.168620 1_555
Cl7 Fe3 2.168620 1_555
Cl10 Cl2 1.991622 1_555
Cl11 Cl3 1.991622 1_555
Cl12 Fe0 2.233808 1_555
Cl13 Fe1 2.233808 1_555
Cl14 Fe2 2.233808 1_555
Cl15 Fe1 2.233808 1_555
Cl16 Fe3 2.233808 1_555
Cl17 Fe0 2.233808 1_555
Cl18 Fe3 2.233808 1_555
Cl19 Fe2 2.233808 1_555
