# generated using pymatgen
data_MnInFe
_symmetry_space_group_name_H-M   'P 1'
_cell_length_a   4.48931539
_cell_length_b   4.48931539
_cell_length_c   5.46240700
_cell_angle_alpha   90.00000000
_cell_angle_beta   90.00000000
_cell_angle_gamma   119.99999105
_symmetry_Int_Tables_number   1
_chemical_formula_structural   MnInFe
_chemical_formula_sum   'Mn2 In2 Fe2'
_cell_volume   95.33995918
_cell_formula_units_Z   2
loop_
 _symmetry_equiv_pos_site_id
 _symmetry_equiv_pos_as_xyz
  1  'x, y, z'
loop_
 _atom_site_type_symbol
 _atom_site_label
 _atom_site_symmetry_multiplicity
 _atom_site_fract_x
 _atom_site_fract_y
 _atom_site_fract_z
 _atom_site_occupancy
  Mn  Mn0  1  0.00000000  0.00000000  0.00000000  1
  Mn  Mn1  1  0.00000000  0.00000000  0.50000000  1
  In  In0  1  0.33333300  0.66666700  0.25000000  1
  In  In1  1  0.66666700  0.33333300  0.75000000  1
  Fe  Fe0  1  0.33333300  0.66666700  0.75000000  1
  Fe  Fe1  1  0.66666700  0.33333300  0.25000000  1
loop_
_geom_bond_atom_site_label_1
_geom_bond_atom_site_label_2
_geom_bond_distance
_geom_bond_site_symmetry_2
Mn0 Mn1 2.731203 1_555
Mn0 Mn1 2.731203 1_554
In0 Mn0 2.929648 1_565
In0 Mn1 2.929648 1_565
In0 Mn1 2.929652 1_665
In0 Mn0 2.929652 1_665
In0 Mn1 2.929652 1_555
In0 Mn0 2.929652 1_555
In1 Mn1 2.929648 1_655
In1 Mn0 2.929648 1_656
In1 Mn0 2.929652 1_556
In1 Mn1 2.929652 1_665
In1 Mn1 2.929652 1_555
In1 Mn0 2.929652 1_666
Fe0 In1 2.591905 1_455
Fe0 In1 2.591905 1_565
Fe0 In1 2.591913 1_555
Fe0 In0 2.731203 1_556
Fe0 In0 2.731203 1_555
Fe0 Mn0 2.929648 1_566
Fe0 Mn1 2.929648 1_565
Fe0 Mn0 2.929652 1_556
Fe0 Mn1 2.929652 1_665
Fe0 Mn1 2.929652 1_555
Fe0 Mn0 2.929652 1_666
Fe1 In0 2.591905 1_545
Fe1 In0 2.591905 1_655
Fe1 In0 2.591913 1_555
Fe1 In1 2.731203 1_554
Fe1 In1 2.731203 1_555
Fe1 Mn0 2.929648 1_655
Fe1 Mn1 2.929648 1_655
Fe1 Mn1 2.929652 1_665
Fe1 Mn0 2.929652 1_665
Fe1 Mn1 2.929652 1_555
Fe1 Mn0 2.929652 1_555
