# generated using pymatgen
data_Li2MnCoO4
_symmetry_space_group_name_H-M   'P 1'
_cell_length_a   2.97996800
_cell_length_b   6.65274763
_cell_length_c   7.79409268
_cell_angle_alpha   90.60182172
_cell_angle_beta   96.33596435
_cell_angle_gamma   102.77266484
_symmetry_Int_Tables_number   1
_chemical_formula_structural   Li2MnCoO4
_chemical_formula_sum   'Li4 Mn2 Co2 O8'
_cell_volume   149.67656067
_cell_formula_units_Z   2
loop_
 _symmetry_equiv_pos_site_id
 _symmetry_equiv_pos_as_xyz
  1  'x, y, z'
loop_
 _atom_site_type_symbol
 _atom_site_label
 _atom_site_symmetry_multiplicity
 _atom_site_fract_x
 _atom_site_fract_y
 _atom_site_fract_z
 _atom_site_occupancy
  Li  Li0  1  0.99959700  0.74967900  0.24941700  1
  Li  Li1  1  0.00040300  0.25032100  0.75058300  1
  Li  Li2  1  0.50000000  0.50000000  0.50000000  1
  Li  Li3  1  0.50000000  0.00000000  0.00000000  1
  Mn  Mn0  1  0.74339700  0.12187500  0.37227700  1
  Mn  Mn1  1  0.25660300  0.87812500  0.62772300  1
  Co  Co0  1  0.75365500  0.62876800  0.87818600  1
  Co  Co1  1  0.24634500  0.37123200  0.12181400  1
  O  O0  1  0.36977300  0.67503100  0.04984400  1
  O  O1  1  0.39375800  0.17424400  0.55851200  1
  O  O2  1  0.87617400  0.42192700  0.30246700  1
  O  O3  1  0.89869200  0.92937100  0.80728600  1
  O  O4  1  0.60624200  0.82575600  0.44148800  1
  O  O5  1  0.63022700  0.32496900  0.95015600  1
  O  O6  1  0.12382600  0.57807300  0.69753300  1
  O  O7  1  0.10130800  0.07062900  0.19271400  1
loop_
_geom_bond_atom_site_label_1
_geom_bond_atom_site_label_2
_geom_bond_distance
_geom_bond_site_symmetry_2
Li0 O0 2.118433 1_655
Li0 O4 2.122489 1_555
Li0 O7 2.146973 1_665
Li0 O4 2.178876 1_655
Li0 O2 2.181401 1_555
Li0 O0 2.261866 1_555
Li1 O5 2.118433 1_455
Li1 O1 2.122489 1_555
Li1 O3 2.146973 1_445
Li1 O1 2.178876 1_455
Li1 O6 2.181401 1_555
Li1 O5 2.261866 1_555
Li2 O2 2.125629 1_555
Li2 O6 2.125629 1_555
Li2 O4 2.180390 1_555
Li2 O1 2.180390 1_555
Li2 O6 2.240644 1_655
Li2 O2 2.240644 1_455
Li3 O3 2.124696 1_544
Li3 O7 2.124696 1_555
Li3 O5 2.157647 1_554
Li3 O0 2.157647 1_545
Li3 O7 2.169458 1_655
Li3 O3 2.169458 1_444
Mn0 O7 1.921638 1_655
Mn0 O1 1.948743 1_555
Mn0 O4 2.013437 1_545
Mn0 O2 2.039216 1_555
Mn0 O7 2.201482 1_555
Mn0 O1 2.248176 1_655
Mn1 O3 1.921638 1_455
Mn1 O4 1.948743 1_555
Mn1 O1 2.013437 1_565
Mn1 O6 2.039216 1_555
Mn1 O3 2.201482 1_555
Mn1 O4 2.248176 1_455
Co0 O0 1.917870 1_556
Co0 O6 1.952036 1_655
Co0 O3 2.045791 1_555
Co0 O5 2.067712 1_555
Co0 O0 2.110689 1_656
Co0 O6 2.178480 1_555
Co1 O5 1.917870 1_554
Co1 O2 1.952036 1_455
Co1 O7 2.045791 1_555
Co1 O0 2.067712 1_555
Co1 O5 2.110689 1_454
Co1 O2 2.178480 1_555
