# generated using pymatgen
data_CaLaTaCrO6
_symmetry_space_group_name_H-M   'P 1'
_cell_length_a   5.65486600
_cell_length_b   10.08941450
_cell_length_c   10.20122918
_cell_angle_alpha   65.56933084
_cell_angle_beta   90.00087799
_cell_angle_gamma   90.00054860
_symmetry_Int_Tables_number   1
_chemical_formula_structural   CaLaTaCrO6
_chemical_formula_sum   'Ca4 La4 Ta4 Cr4 O24'
_cell_volume   529.91084122
_cell_formula_units_Z   4
loop_
 _symmetry_equiv_pos_site_id
 _symmetry_equiv_pos_as_xyz
  1  'x, y, z'
loop_
 _atom_site_type_symbol
 _atom_site_label
 _atom_site_symmetry_multiplicity
 _atom_site_fract_x
 _atom_site_fract_y
 _atom_site_fract_z
 _atom_site_occupancy
  Ca  Ca0  1  0.45026900  0.13349600  0.61132500  1
  Ca  Ca1  1  0.45027900  0.63349200  0.11132200  1
  Ca  Ca2  1  0.04971400  0.63349700  0.61131700  1
  Ca  Ca3  1  0.04973300  0.13349700  0.11134100  1
  La  La0  1  0.95411000  0.36821500  0.38721600  1
  La  La1  1  0.95409000  0.86821500  0.88721700  1
  La  La2  1  0.54589000  0.86821800  0.38720500  1
  La  La3  1  0.54591000  0.36820700  0.88722200  1
  Ta  Ta0  1  0.00326300  0.75078600  0.25097800  1
  Ta  Ta1  1  0.00326400  0.25077800  0.75098700  1
  Ta  Ta2  1  0.49674900  0.25078600  0.25098000  1
  Ta  Ta3  1  0.49674800  0.75078700  0.75098500  1
  Cr  Cr0  1  0.99844300  0.49923800  0.00132100  1
  Cr  Cr1  1  0.50154400  0.99921700  0.00133600  1
  Cr  Cr2  1  0.99840700  0.99924500  0.50132200  1
  Cr  Cr3  1  0.50159400  0.49923300  0.50131800  1
  O  O0  1  0.45266900  0.08560300  0.19251000  1
  O  O1  1  0.45266300  0.58560100  0.69250800  1
  O  O2  1  0.04733900  0.08560200  0.69250800  1
  O  O3  1  0.04733500  0.58560000  0.19251000  1
  O  O4  1  0.20851200  0.36817500  0.58248400  1
  O  O5  1  0.20851100  0.86817300  0.08248400  1
  O  O6  1  0.29146200  0.86816200  0.58252200  1
  O  O7  1  0.29146500  0.36815500  0.08252600  1
  O  O8  1  0.21577300  0.18066100  0.38491000  1
  O  O9  1  0.21577600  0.68066000  0.88491600  1
  O  O10  1  0.28423000  0.68066000  0.38491300  1
  O  O11  1  0.28423100  0.18066000  0.88491300  1
  O  O12  1  0.71871000  0.31657100  0.61700700  1
  O  O13  1  0.71871300  0.81657400  0.11700600  1
  O  O14  1  0.78129600  0.81657500  0.61700500  1
  O  O15  1  0.78129000  0.31657900  0.11700500  1
  O  O16  1  0.70234200  0.12996800  0.41859700  1
  O  O17  1  0.70235100  0.62996900  0.91859600  1
  O  O18  1  0.79766200  0.62996700  0.41859900  1
  O  O19  1  0.79765700  0.12996500  0.91859700  1
  O  O20  1  0.95746700  0.91730000  0.30362500  1
  O  O21  1  0.95746600  0.41730600  0.80362400  1
  O  O22  1  0.54253300  0.91730100  0.80362300  1
  O  O23  1  0.54253800  0.41730100  0.30362400  1
loop_
_geom_bond_atom_site_label_1
_geom_bond_atom_site_label_2
_geom_bond_distance
_geom_bond_site_symmetry_2
Ca0 O22 2.310600 1_545
Ca0 O2 2.404163 1_555
Ca0 O12 2.409986 1_555
Ca0 O16 2.440598 1_555
Ca0 O8 2.531868 1_555
Ca0 O4 2.643046 1_555
Ca0 O6 2.951283 1_545
Ca1 O23 2.310588 1_555
Ca1 O3 2.404251 1_555
Ca1 O13 2.410023 1_555
Ca1 O17 2.440561 1_554
Ca1 O9 2.531806 1_554
Ca1 O5 2.643103 1_555
Ca1 O7 2.951290 1_555
Ca2 O21 2.310602 1_455
Ca2 O1 2.404273 1_555
Ca2 O14 2.409972 1_455
Ca2 O18 2.440418 1_455
Ca2 O10 2.531870 1_555
Ca2 O6 2.643003 1_555
Ca2 O4 2.951317 1_555
Ca3 O20 2.310553 1_445
Ca3 O0 2.404143 1_555
Ca3 O15 2.410009 1_455
Ca3 O19 2.440719 1_454
Ca3 O11 2.532021 1_554
Ca3 O7 2.642843 1_555
Ca3 O5 2.951418 1_545
La0 O3 2.330246 1_655
La0 O8 2.409915 1_655
La0 O4 2.456991 1_655
La0 O23 2.457597 1_555
La0 O12 2.555043 1_555
La0 O16 2.696477 1_555
La0 O18 2.925590 1_555
La1 O2 2.330302 1_665
La1 O9 2.409985 1_655
La1 O5 2.457038 1_656
La1 O22 2.457522 1_555
La1 O13 2.554964 1_556
La1 O17 2.696387 1_555
La1 O19 2.925530 1_565
La2 O0 2.330184 1_565
La2 O10 2.409866 1_555
La2 O6 2.457464 1_555
La2 O20 2.457605 1_555
La2 O14 2.555107 1_555
La2 O18 2.696509 1_555
La2 O16 2.925604 1_565
La3 O1 2.330361 1_555
La3 O11 2.409902 1_555
La3 O7 2.457426 1_556
La3 O21 2.457551 1_555
La3 O15 2.554913 1_556
La3 O19 2.696407 1_555
La3 O17 2.925611 1_555
Cr0 O7 2.067551 1_655
Cr0 O17 2.081986 1_554
Cr0 O9 2.114961 1_654
Cr0 O15 2.120835 1_555
Cr0 O3 2.458722 1_655
Cr0 O21 2.486632 1_554
Cr1 O5 2.067336 1_555
Cr1 O19 2.082182 1_564
Cr1 O11 2.115066 1_564
Cr1 O13 2.120756 1_555
Cr1 O0 2.458741 1_565
Cr1 O22 2.486693 1_554
Cr2 O6 2.067694 1_655
Cr2 O16 2.081826 1_565
Cr2 O8 2.115045 1_665
Cr2 O14 2.120767 1_555
Cr2 O2 2.458684 1_665
Cr2 O20 2.486701 1_555
Cr3 O4 2.067650 1_555
Cr3 O18 2.081883 1_555
Cr3 O10 2.115094 1_555
Cr3 O12 2.120743 1_555
Cr3 O1 2.458806 1_555
Cr3 O23 2.486593 1_555
O0 Ta2 2.004427 1_555
O1 Ta3 2.004505 1_555
O2 Ta1 2.004421 1_555
O3 Ta0 2.004443 1_555
O4 Ta1 2.005165 1_555
O5 Ta0 2.005085 1_555
O6 Ta3 2.004969 1_555
O7 Ta2 2.004892 1_555
O8 Ta2 2.022923 1_555
O9 Ta3 2.022912 1_555
O10 Ta0 2.022889 1_555
O11 Ta1 2.022834 1_555
O12 Ta1 2.036518 1_655
O13 Ta0 2.036454 1_655
O14 Ta3 2.036511 1_555
O15 Ta2 2.036455 1_555
O16 Ta2 2.009266 1_555
O17 Ta3 2.009262 1_555
O18 Ta0 2.009337 1_655
O19 Ta1 2.009273 1_655
O20 Ta0 1.981001 1_655
O21 Ta1 1.981075 1_655
O22 Ta3 1.980930 1_555
O23 Ta2 1.980981 1_555
