# generated using pymatgen
data_KMg14Cd
_symmetry_space_group_name_H-M   'P 1'
_cell_length_a   6.52194849
_cell_length_b   6.51423648
_cell_length_c   10.56951140
_cell_angle_alpha   90.00000000
_cell_angle_beta   90.00000000
_cell_angle_gamma   119.96089757
_symmetry_Int_Tables_number   1
_chemical_formula_structural   KMg14Cd
_chemical_formula_sum   'K1 Mg14 Cd1'
_cell_volume   389.04282919
_cell_formula_units_Z   1
loop_
 _symmetry_equiv_pos_site_id
 _symmetry_equiv_pos_as_xyz
  1  'x, y, z'
loop_
 _atom_site_type_symbol
 _atom_site_label
 _atom_site_symmetry_multiplicity
 _atom_site_fract_x
 _atom_site_fract_y
 _atom_site_fract_z
 _atom_site_occupancy
  K  K0  1  0.16682910  0.33341405  0.12500000  1
  Mg  Mg0  1  0.16672541  0.33336220  0.62500000  1
  Mg  Mg1  1  0.16641758  0.83320829  0.62500000  1
  Mg  Mg2  1  0.66386570  0.32540835  0.12500000  1
  Mg  Mg3  1  0.66636152  0.33348569  0.62500000  1
  Mg  Mg4  1  0.66386570  0.83845636  0.12500000  1
  Mg  Mg5  1  0.66636152  0.83287483  0.62500000  1
  Mg  Mg6  1  0.33716345  0.16087235  0.38562081  1
  Mg  Mg7  1  0.33716345  0.16087235  0.86437919  1
  Mg  Mg8  1  0.33716345  0.67629210  0.38562081  1
  Mg  Mg9  1  0.33716345  0.67629210  0.86437919  1
  Mg  Mg10  1  0.82379317  0.16189709  0.38752126  1
  Mg  Mg11  1  0.82379317  0.16189709  0.86247874  1
  Mg  Mg12  1  0.83444008  0.66722054  0.37039274  1
  Mg  Mg13  1  0.83444008  0.66722054  0.87960726  1
  Cd  Cd0  1  0.17445314  0.83722607  0.12500000  1
loop_
_geom_bond_atom_site_label_1
_geom_bond_atom_site_label_2
_geom_bond_distance
_geom_bond_site_symmetry_2
K0 Mg4 3.254570 1_445
K0 Mg2 3.254570 1_455
K0 Mg4 3.268004 1_555
K0 Mg2 3.268004 1_555
K0 Mg6 3.366397 1_555
K0 Mg7 3.366397 1_554
K0 Mg8 3.366403 1_555
K0 Mg9 3.366403 1_554
K0 Mg11 3.384678 1_454
K0 Mg10 3.384678 1_455
Mg0 Mg10 3.170957 1_455
Mg0 Mg11 3.170957 1_455
Mg0 Mg7 3.185476 1_555
Mg0 Mg6 3.185476 1_555
Mg0 Mg9 3.185482 1_555
Mg0 Mg8 3.185482 1_555
Mg0 Mg1 3.257119 1_545
Mg0 Mg1 3.257119 1_555
Mg0 Mg5 3.258199 1_555
Mg0 Mg3 3.258199 1_555
Mg0 Mg5 3.263749 1_445
Mg0 Mg3 3.263749 1_455
Mg1 Mg9 3.134237 1_555
Mg1 Mg8 3.134237 1_555
Mg1 Mg7 3.134243 1_565
Mg1 Mg6 3.134243 1_565
Mg1 Mg3 3.260255 1_455
Mg1 Mg5 3.260256 1_455
Mg1 Mg3 3.261694 1_565
Mg1 Mg5 3.261694 1_555
Mg1 Mg12 3.280324 1_455
Mg1 Mg13 3.280324 1_455
Mg2 Mg4 3.172120 1_545
Mg2 Mg6 3.315988 1_555
Mg2 Mg7 3.315988 1_554
Mg2 Mg4 3.342116 1_555
Mg3 Mg7 3.140734 1_555
Mg3 Mg6 3.140734 1_555
Mg3 Mg5 3.253139 1_555
Mg3 Mg5 3.261098 1_545
Mg4 Mg8 3.315988 1_555
Mg4 Mg9 3.315988 1_554
Mg5 Mg9 3.140734 1_555
Mg5 Mg8 3.140734 1_555
Mg6 Mg8 3.156670 1_545
Mg6 Mg8 3.357566 1_555
Mg7 Mg9 3.156670 1_545
Mg7 Mg9 3.357566 1_555
Mg10 Mg3 3.122538 1_555
Mg10 Mg5 3.122544 1_545
Mg10 Mg8 3.170509 1_545
Mg10 Mg6 3.170509 1_555
Mg10 Mg12 3.262700 1_555
Mg10 Mg12 3.262700 1_545
Mg10 Mg2 3.321330 1_555
Mg10 Mg4 3.321337 1_545
Mg10 Mg8 3.351573 1_655
Mg10 Mg6 3.351573 1_655
Mg11 Mg3 3.122538 1_555
Mg11 Mg5 3.122544 1_545
Mg11 Mg9 3.170509 1_545
Mg11 Mg7 3.170509 1_555
Mg11 Mg13 3.262700 1_555
Mg11 Mg13 3.262700 1_545
Mg11 Mg2 3.321330 1_556
Mg11 Mg4 3.321337 1_546
Mg11 Mg9 3.351573 1_655
Mg11 Mg7 3.351573 1_655
Mg12 Mg4 3.232419 1_555
Mg12 Mg2 3.232426 1_555
Mg12 Mg6 3.253610 1_665
Mg12 Mg8 3.253611 1_655
Mg12 Mg6 3.277080 1_555
Mg12 Mg8 3.277080 1_555
Mg12 Mg5 3.284743 1_555
Mg12 Mg3 3.284750 1_555
Mg13 Mg4 3.232419 1_556
Mg13 Mg2 3.232426 1_556
Mg13 Mg7 3.253610 1_665
Mg13 Mg9 3.253611 1_655
Mg13 Mg7 3.277080 1_555
Mg13 Mg9 3.277080 1_555
Mg13 Mg5 3.284743 1_555
Mg13 Mg3 3.284750 1_555
Cd0 Mg2 3.187928 1_565
Cd0 Mg4 3.187929 1_555
Cd0 Mg12 3.227728 1_455
Cd0 Mg13 3.227728 1_454
Cd0 K0 3.257403 1_555
Cd0 K0 3.257403 1_565
Cd0 Mg8 3.305206 1_555
Cd0 Mg9 3.305206 1_554
Cd0 Mg6 3.305213 1_565
Cd0 Mg7 3.305213 1_564
Cd0 Mg2 3.334034 1_455
Cd0 Mg4 3.334035 1_455
