# generated using pymatgen
data_Ca8Al11Fe(Si3O13)4
_symmetry_space_group_name_H-M   'P 1'
_cell_length_a   5.66940200
_cell_length_b   8.93667200
_cell_length_c   18.62735728
_cell_angle_alpha   89.33535819
_cell_angle_beta   90.00000000
_cell_angle_gamma   90.00000000
_symmetry_Int_Tables_number   1
_chemical_formula_structural   Ca8Al11Fe(Si3O13)4
_chemical_formula_sum   'Ca8 Al11 Fe1 Si12 O52'
_cell_volume   943.70247611
_cell_formula_units_Z   1
loop_
 _symmetry_equiv_pos_site_id
 _symmetry_equiv_pos_as_xyz
  1  'x, y, z'
loop_
 _atom_site_type_symbol
 _atom_site_label
 _atom_site_symmetry_multiplicity
 _atom_site_fract_x
 _atom_site_fract_y
 _atom_site_fract_z
 _atom_site_occupancy
  Ca  Ca0  1  0.50000000  0.88671100  0.28925900  1
  Ca  Ca1  1  0.50000000  0.38780100  0.79054100  1
  Ca  Ca2  1  0.00000000  0.61325200  0.21016700  1
  Ca  Ca3  1  0.00000000  0.11090900  0.71035200  1
  Ca  Ca4  1  0.50000000  0.18641100  0.42446500  1
  Ca  Ca5  1  0.50000000  0.68705900  0.92401800  1
  Ca  Ca6  1  0.00000000  0.31331900  0.07610700  1
  Ca  Ca7  1  0.00000000  0.81051200  0.57807200  1
  Al  Al0  1  0.75000400  0.00011100  0.99998400  1
  Al  Al1  1  0.74943200  0.49690600  0.50100600  1
  Al  Al2  1  0.24999600  0.00011100  0.99998400  1
  Al  Al3  1  0.25056800  0.49690600  0.50100600  1
  Al  Al4  1  0.74919600  0.25119400  0.24926700  1
  Al  Al5  1  0.75002800  0.75033100  0.75053800  1
  Al  Al6  1  0.25080400  0.25119400  0.24926700  1
  Al  Al7  1  0.24997200  0.75033100  0.75053800  1
  Al  Al8  1  0.00000000  0.17101800  0.88393300  1
  Al  Al9  1  0.50000000  0.82949700  0.11601700  1
  Al  Al10  1  0.50000000  0.32784200  0.61702600  1
  Fe  Fe0  1  0.00000000  0.67556400  0.38675200  1
  Si  Si0  1  0.50000000  0.81435300  0.47678500  1
  Si  Si1  1  0.50000000  0.31450700  0.97618800  1
  Si  Si2  1  0.00000000  0.68566900  0.02352600  1
  Si  Si3  1  0.00000000  0.18334900  0.52406900  1
  Si  Si4  1  0.50000000  0.52493100  0.34049300  1
  Si  Si5  1  0.50000000  0.02653100  0.84200200  1
  Si  Si6  1  0.00000000  0.97373200  0.15808600  1
  Si  Si7  1  0.00000000  0.47297200  0.65903000  1
  Si  Si8  1  0.00000000  0.04818200  0.36358300  1
  Si  Si9  1  0.00000000  0.54018000  0.86451000  1
  Si  Si10  1  0.50000000  0.46006900  0.13493700  1
  Si  Si11  1  0.50000000  0.95926500  0.63578600  1
  O  O0  1  0.00000000  0.87320900  0.34557000  1
  O  O1  1  0.00000000  0.36318100  0.85250100  1
  O  O2  1  0.50000000  0.63731700  0.14659300  1
  O  O3  1  0.50000000  0.13593000  0.64846300  1
  O  O4  1  0.00000000  0.48691600  0.43811300  1
  O  O5  1  0.00000000  0.99685500  0.93577200  1
  O  O6  1  0.50000000  0.00342300  0.06398700  1
  O  O7  1  0.50000000  0.50137100  0.56454700  1
  O  O8  1  0.74354900  0.71160900  0.48085900  1
  O  O9  1  0.74440700  0.21318500  0.97918600  1
  O  O10  1  0.24411500  0.78707300  0.02018800  1
  O  O11  1  0.24519600  0.28425200  0.52173800  1
  O  O12  1  0.75588500  0.78707300  0.02018800  1
  O  O13  1  0.75480400  0.28425200  0.52173800  1
  O  O14  1  0.25645100  0.71160900  0.48085900  1
  O  O15  1  0.25559300  0.21318500  0.97918600  1
  O  O16  1  0.76404900  0.12971800  0.33078500  1
  O  O17  1  0.76526300  0.62165000  0.82969300  1
  O  O18  1  0.26568000  0.37818600  0.16954700  1
  O  O19  1  0.26597300  0.87725700  0.67057100  1
  O  O20  1  0.73432000  0.37818600  0.16954700  1
  O  O21  1  0.73402700  0.87725700  0.67057100  1
  O  O22  1  0.23595100  0.12971800  0.33078500  1
  O  O23  1  0.23473700  0.62165000  0.82969300  1
  O  O24  1  0.50000000  0.36610800  0.29673900  1
  O  O25  1  0.50000000  0.86600000  0.79844000  1
  O  O26  1  0.00000000  0.13349500  0.20215100  1
  O  O27  1  0.00000000  0.63421600  0.70201900  1
  O  O28  1  0.50000000  0.92731600  0.40994400  1
  O  O29  1  0.50000000  0.42964000  0.91012200  1
  O  O30  1  0.00000000  0.57074700  0.08958000  1
  O  O31  1  0.00000000  0.06802500  0.59010600  1
  O  O32  1  0.50000000  0.46969900  0.42709400  1
  O  O33  1  0.50000000  0.96956000  0.92786600  1
  O  O34  1  0.00000000  0.03091700  0.07208700  1
  O  O35  1  0.00000000  0.52913100  0.57298500  1
  O  O36  1  0.00000000  0.08014100  0.45030100  1
  O  O37  1  0.00000000  0.58187800  0.95010800  1
  O  O38  1  0.50000000  0.41856200  0.04935500  1
  O  O39  1  0.50000000  0.91879600  0.54982000  1
  O  O40  1  0.00000000  0.36943400  0.27774300  1
  O  O41  1  0.00000000  0.86852600  0.77931500  1
  O  O42  1  0.50000000  0.13058100  0.22137000  1
  O  O43  1  0.50000000  0.63223400  0.72118500  1
  O  O44  1  0.72917700  0.63069000  0.32020000  1
  O  O45  1  0.73446800  0.13026200  0.82380500  1
  O  O46  1  0.23465000  0.86980600  0.17575400  1
  O  O47  1  0.23465000  0.36934700  0.67708900  1
  O  O48  1  0.76535000  0.86980600  0.17575400  1
  O  O49  1  0.76535000  0.36934700  0.67708900  1
  O  O50  1  0.27082300  0.63069000  0.32020000  1
  O  O51  1  0.26553200  0.13026200  0.82380500  1
loop_
_geom_bond_atom_site_label_1
_geom_bond_atom_site_label_2
_geom_bond_distance
_geom_bond_site_symmetry_2
Ca0 O28 2.281293 1_555
Ca0 O42 2.506986 1_565
Ca0 O48 2.600699 1_555
Ca0 O46 2.600699 1_555
Ca0 O50 2.687860 1_555
Ca0 O44 2.687860 1_555
Ca0 O22 2.755809 1_565
Ca0 O16 2.755809 1_565
Ca0 O0 3.024466 1_655
Ca0 O0 3.024466 1_555
Ca1 O29 2.262915 1_555
Ca1 O43 2.524928 1_555
Ca1 O47 2.600868 1_555
Ca1 O49 2.600868 1_555
Ca1 O17 2.682591 1_555
Ca1 O23 2.682591 1_555
Ca1 O45 2.723042 1_555
Ca1 O51 2.723042 1_555
Ca2 O30 2.282449 1_555
Ca2 O40 2.503707 1_555
Ca2 O50 2.567123 1_555
Ca2 O44 2.567123 1_455
Ca2 O20 2.700211 1_455
Ca2 O18 2.700211 1_555
Ca2 O48 2.720888 1_455
Ca2 O46 2.720888 1_555
Ca3 O31 2.276793 1_555
Ca3 O41 2.505517 1_545
Ca3 O45 2.602077 1_455
Ca3 O51 2.602077 1_555
Ca3 O19 2.686788 1_545
Ca3 O21 2.686788 1_445
Ca3 O49 2.730313 1_455
Ca3 O47 2.730313 1_555
Ca4 O28 2.334307 1_545
Ca4 O16 2.358659 1_555
Ca4 O22 2.358659 1_555
Ca4 O13 2.484197 1_555
Ca4 O11 2.484197 1_555
Ca4 O32 2.532693 1_555
Ca5 O29 2.317968 1_555
Ca5 O17 2.390463 1_555
Ca5 O23 2.390463 1_555
Ca5 O12 2.479853 1_556
Ca5 O10 2.479853 1_556
Ca5 O33 2.526467 1_555
Ca6 O30 2.317090 1_555
Ca6 O20 2.378595 1_455
Ca6 O18 2.378595 1_555
Ca6 O15 2.489466 1_554
Ca6 O9 2.489466 1_454
Ca6 O34 2.525713 1_555
Ca7 O31 2.314787 1_565
Ca7 O19 2.371115 1_555
Ca7 O21 2.371115 1_455
Ca7 O8 2.492251 1_455
Ca7 O14 2.492251 1_555
Ca7 O35 2.517493 1_555
Al0 O6 1.852565 1_556
Al0 O5 1.855028 1_645
Al0 O12 1.936691 1_546
Al0 O9 1.939034 1_555
Al0 O33 1.973990 1_545
Al0 O34 1.974101 1_656
Al1 O4 1.844153 1_655
Al1 O7 1.844821 1_555
Al1 O13 1.935105 1_555
Al1 O8 1.951095 1_555
Al1 O35 1.976765 1_655
Al1 O32 1.990524 1_555
Al2 O6 1.852565 1_556
Al2 O5 1.855028 1_545
Al2 O10 1.936691 1_546
Al2 O15 1.939034 1_555
Al2 O33 1.973990 1_545
Al2 O34 1.974101 1_556
Al3 O4 1.844153 1_555
Al3 O7 1.844821 1_555
Al3 O11 1.935105 1_555
Al3 O14 1.951095 1_555
Al3 O35 1.976765 1_555
Al3 O32 1.990524 1_555
Al4 O40 1.852766 1_655
Al4 O42 1.854948 1_555
Al4 O16 1.858250 1_555
Al4 O20 1.860410 1_555
Al4 O24 1.963064 1_555
Al4 O26 1.979865 1_655
Al5 O41 1.850571 1_655
Al5 O43 1.853519 1_555
Al5 O17 1.861337 1_555
Al5 O21 1.863998 1_555
Al5 O25 1.973686 1_555
Al5 O27 1.980857 1_655
Al6 O40 1.852766 1_555
Al6 O42 1.854948 1_555
Al6 O22 1.858250 1_555
Al6 O18 1.860410 1_555
Al6 O24 1.963064 1_555
Al6 O26 1.979865 1_555
Al7 O41 1.850571 1_555
Al7 O43 1.853519 1_555
Al7 O23 1.861337 1_555
Al7 O19 1.863998 1_555
Al7 O25 1.973686 1_555
Al7 O27 1.980857 1_555
Al8 O1 1.807924 1_555
Al8 O5 1.822103 1_545
Al8 O45 1.913853 1_455
Al8 O51 1.913853 1_555
Al8 O15 2.324967 1_555
Al8 O9 2.324967 1_455
Al9 O2 1.803144 1_555
Al9 O6 1.822162 1_565
Al9 O46 1.907985 1_555
Al9 O48 1.907985 1_555
Al9 O12 2.334606 1_555
Al9 O10 2.334606 1_555
Al10 O3 1.805831 1_555
Al10 O7 1.823545 1_555
Al10 O47 1.913661 1_555
Al10 O49 1.913661 1_555
Al10 O13 2.324890 1_555
Al10 O11 2.324890 1_555
Fe0 O0 1.917499 1_555
Fe0 O4 1.928757 1_555
Fe0 O50 2.016593 1_555
Fe0 O44 2.016593 1_455
Fe0 O8 2.302964 1_455
Fe0 O14 2.302964 1_555
O0 Si8 1.603072 1_565
O1 Si9 1.600088 1_555
O2 Si10 1.601312 1_555
O3 Si11 1.599066 1_545
O8 Si0 1.659446 1_555
O9 Si1 1.655852 1_555
O10 Si2 1.655053 1_555
O11 Si3 1.657264 1_555
O12 Si2 1.655053 1_655
O13 Si3 1.657264 1_655
O14 Si0 1.659446 1_555
O15 Si1 1.655852 1_555
O16 Si8 1.638081 1_655
O17 Si9 1.646458 1_655
O18 Si10 1.644673 1_555
O19 Si11 1.645089 1_555
O20 Si10 1.644673 1_555
O21 Si11 1.645089 1_555
O22 Si8 1.638081 1_555
O23 Si9 1.646458 1_555
O24 Si4 1.644886 1_555
O25 Si5 1.656371 1_565
O26 Si6 1.655111 1_545
O27 Si7 1.656636 1_555
O28 Si0 1.593788 1_555
O29 Si1 1.594909 1_555
O30 Si2 1.593539 1_555
O31 Si3 1.595583 1_555
O32 Si4 1.681489 1_555
O33 Si5 1.672861 1_565
O34 Si6 1.675818 1_545
O35 Si7 1.673964 1_555
O36 Si8 1.643641 1_555
O36 Si3 1.663811 1_555
O37 Si9 1.641634 1_555
O37 Si2 1.661341 1_556
O38 Si10 1.640938 1_555
O38 Si1 1.658808 1_554
O39 Si11 1.645739 1_555
O39 Si0 1.658754 1_555
O44 Si4 1.648044 1_555
O45 Si5 1.653473 1_555
O46 Si6 1.653350 1_555
O47 Si7 1.653266 1_555
O48 Si6 1.653350 1_655
O49 Si7 1.653266 1_655
O50 Si4 1.648044 1_555
O51 Si5 1.653473 1_555
