# generated using pymatgen
data_MgNiPO5
_symmetry_space_group_name_H-M   'P 1'
_cell_length_a   5.26653145
_cell_length_b   5.26653145
_cell_length_c   6.79846524
_cell_angle_alpha   75.84893526
_cell_angle_beta   75.84893526
_cell_angle_gamma   103.50877587
_symmetry_Int_Tables_number   1
_chemical_formula_structural   MgNiPO5
_chemical_formula_sum   'Mg2 Ni2 P2 O10'
_cell_volume   168.44316549
_cell_formula_units_Z   2
loop_
 _symmetry_equiv_pos_site_id
 _symmetry_equiv_pos_as_xyz
  1  'x, y, z'
loop_
 _atom_site_type_symbol
 _atom_site_label
 _atom_site_symmetry_multiplicity
 _atom_site_fract_x
 _atom_site_fract_y
 _atom_site_fract_z
 _atom_site_occupancy
  Mg  Mg0  1  0.33588500  0.67886500  0.23321500  1
  Mg  Mg1  1  0.67886500  0.33588500  0.73321500  1
  Ni  Ni0  1  0.99847200  0.00143800  0.49401700  1
  Ni  Ni1  1  0.00143800  0.99847200  0.99401700  1
  P  P0  1  0.66502300  0.33405300  0.24495700  1
  P  P1  1  0.33405200  0.66502300  0.74495700  1
  O  O0  1  0.65837900  0.11112000  0.12986400  1
  O  O1  1  0.87903500  0.34131100  0.36619500  1
  O  O2  1  0.34131100  0.87903500  0.86619500  1
  O  O3  1  0.11112000  0.65837900  0.62986400  1
  O  O4  1  0.61649500  0.71572400  0.58554600  1
  O  O5  1  0.28077100  0.37526900  0.90595600  1
  O  O6  1  0.37526900  0.28077100  0.40595600  1
  O  O7  1  0.71572400  0.61649500  0.08554600  1
  O  O8  1  0.90933300  0.09197600  0.74786600  1
  O  O9  1  0.09197600  0.90933300  0.24786600  1
loop_
_geom_bond_atom_site_label_1
_geom_bond_atom_site_label_2
_geom_bond_distance
_geom_bond_site_symmetry_2
Mg0 O9 1.964230 1_555
Mg0 O7 2.145635 1_555
Mg0 O6 2.221750 1_555
Mg0 O0 2.321369 1_565
Mg0 O1 2.432874 1_455
Mg0 O2 2.450090 1_554
Mg0 O3 2.630937 1_555
Mg1 O8 1.964230 1_555
Mg1 O4 2.145635 1_555
Mg1 O5 2.221750 1_555
Mg1 O3 2.321369 1_655
Mg1 O2 2.432874 1_545
Mg1 O1 2.450090 1_555
Mg1 O0 2.630937 1_556
Ni0 O9 1.839510 1_645
Ni0 O8 1.880657 1_555
Ni0 O6 2.021162 1_655
Ni0 O4 2.052854 1_545
Ni0 O1 2.094630 1_555
Ni0 O3 2.102849 1_645
Ni1 O8 1.839510 1_465
Ni1 O9 1.880657 1_556
Ni1 O5 2.021162 1_565
Ni1 O7 2.052854 1_456
Ni1 O2 2.094630 1_555
Ni1 O0 2.102849 1_466
O0 P0 1.560551 1_555
O1 P0 1.549417 1_555
O2 P1 1.549417 1_555
O3 P1 1.560546 1_555
O4 P1 1.530738 1_555
O5 P1 1.561575 1_555
O6 P0 1.561574 1_555
O7 P0 1.530734 1_555
