# generated using pymatgen
data_Ba2Si3Ge5O18
_symmetry_space_group_name_H-M   'P 1'
_cell_length_a   6.77190409
_cell_length_b   6.77190409
_cell_length_c   9.86034900
_cell_angle_alpha   90.00000000
_cell_angle_beta   90.00000000
_cell_angle_gamma   120.00000088
_symmetry_Int_Tables_number   1
_chemical_formula_structural   Ba2Si3Ge5O18
_chemical_formula_sum   'Ba2 Si3 Ge5 O18'
_cell_volume   391.60164891
_cell_formula_units_Z   1
loop_
 _symmetry_equiv_pos_site_id
 _symmetry_equiv_pos_as_xyz
  1  'x, y, z'
loop_
 _atom_site_type_symbol
 _atom_site_label
 _atom_site_symmetry_multiplicity
 _atom_site_fract_x
 _atom_site_fract_y
 _atom_site_fract_z
 _atom_site_occupancy
  Ba  Ba0  1  0.66666700  0.33333300  0.75130900  1
  Ba  Ba1  1  0.66666700  0.33333300  0.24869100  1
  Si  Si0  1  0.25158900  0.37576000  0.00000000  1
  Si  Si1  1  0.12417000  0.74841100  0.00000000  1
  Si  Si2  1  0.62424000  0.87583000  0.00000000  1
  Ge  Ge0  1  0.00000000  0.00000000  0.75829300  1
  Ge  Ge1  1  0.00000000  0.00000000  0.24170700  1
  Ge  Ge2  1  0.11876000  0.35725100  0.50000000  1
  Ge  Ge3  1  0.64274900  0.76150900  0.50000000  1
  Ge  Ge4  1  0.23849100  0.88124000  0.50000000  1
  O  O0  1  0.23598700  0.23624200  0.86278500  1
  O  O1  1  0.00025500  0.76401300  0.86278500  1
  O  O2  1  0.76375800  0.99974500  0.86278500  1
  O  O3  1  0.23598700  0.23624200  0.13721500  1
  O  O4  1  0.00025500  0.76401300  0.13721500  1
  O  O5  1  0.76375800  0.99974500  0.13721500  1
  O  O6  1  0.97463600  0.21807900  0.35169400  1
  O  O7  1  0.78192100  0.75655700  0.35169400  1
  O  O8  1  0.24344300  0.02536400  0.35169400  1
  O  O9  1  0.97463600  0.21807900  0.64830600  1
  O  O10  1  0.78192100  0.75655700  0.64830600  1
  O  O11  1  0.24344300  0.02536400  0.64830600  1
  O  O12  1  0.07724800  0.48131500  0.00000000  1
  O  O13  1  0.40406700  0.92275200  0.00000000  1
  O  O14  1  0.51868500  0.59593300  0.00000000  1
  O  O15  1  0.41786700  0.46740200  0.50000000  1
  O  O16  1  0.53259800  0.95046500  0.50000000  1
  O  O17  1  0.04953500  0.58213300  0.50000000  1
loop_
_geom_bond_atom_site_label_1
_geom_bond_atom_site_label_2
_geom_bond_distance
_geom_bond_site_symmetry_2
Ba0 O9 2.760054 1_555
Ba0 O11 2.760059 1_555
Ba0 O10 2.760060 1_555
Ba0 O2 2.868624 1_545
Ba0 O1 2.868628 1_655
Ba0 O0 2.868630 1_555
Ba1 O6 2.760054 1_555
Ba1 O8 2.760059 1_555
Ba1 O7 2.760060 1_555
Ba1 O5 2.868624 1_545
Ba1 O4 2.868628 1_655
Ba1 O3 2.868630 1_555
Ge0 O0 1.902157 1_555
Ge0 O2 1.902157 1_445
Ge0 O1 1.902157 1_545
Ge0 O10 1.907955 1_445
Ge0 O11 1.907955 1_555
Ge0 O9 1.907955 1_455
Ge1 O3 1.902157 1_555
Ge1 O5 1.902157 1_445
Ge1 O4 1.902157 1_545
Ge1 O7 1.907955 1_445
Ge1 O8 1.907955 1_555
Ge1 O6 1.907955 1_455
Ge2 O6 1.749121 1_455
Ge2 O9 1.749121 1_455
Ge2 O15 1.774333 1_555
Ge2 O17 1.803559 1_555
Ge3 O7 1.749121 1_555
Ge3 O10 1.749121 1_555
Ge3 O16 1.774333 1_555
Ge3 O15 1.803559 1_555
Ge4 O8 1.749121 1_565
Ge4 O11 1.749121 1_565
Ge4 O17 1.774333 1_555
Ge4 O16 1.803559 1_555
O0 Si0 1.623135 1_556
O1 Si1 1.623131 1_556
O2 Si2 1.623134 1_556
O3 Si0 1.623135 1_555
O4 Si1 1.623131 1_555
O5 Si2 1.623134 1_555
O12 Si0 1.657930 1_555
O12 Si1 1.672664 1_555
O13 Si1 1.657936 1_555
O13 Si2 1.672657 1_555
O14 Si2 1.657937 1_555
O14 Si0 1.672662 1_555
