# generated using pymatgen
data_Tl2Mo9S11
_symmetry_space_group_name_H-M   'P 1'
_cell_length_a   13.13929702
_cell_length_b   13.13929702
_cell_length_c   13.13929708
_cell_angle_alpha   41.96161394
_cell_angle_beta   41.96161394
_cell_angle_gamma   41.96161780
_symmetry_Int_Tables_number   1
_chemical_formula_structural   Tl2Mo9S11
_chemical_formula_sum   'Tl4 Mo18 S22'
_cell_volume   917.27698883
_cell_formula_units_Z   2
loop_
 _symmetry_equiv_pos_site_id
 _symmetry_equiv_pos_as_xyz
  1  'x, y, z'
loop_
 _atom_site_type_symbol
 _atom_site_label
 _atom_site_symmetry_multiplicity
 _atom_site_fract_x
 _atom_site_fract_y
 _atom_site_fract_z
 _atom_site_occupancy
  Tl  Tl0  1  0.44702900  0.44702900  0.44702900  1
  Tl  Tl1  1  0.94702900  0.94702900  0.94702900  1
  Tl  Tl2  1  0.55297100  0.55297100  0.55297100  1
  Tl  Tl3  1  0.05297100  0.05297100  0.05297100  1
  Mo  Mo0  1  0.25000000  0.08275300  0.41724700  1
  Mo  Mo1  1  0.41724700  0.25000000  0.08275300  1
  Mo  Mo2  1  0.08275300  0.41724700  0.25000000  1
  Mo  Mo3  1  0.91724700  0.58275300  0.75000000  1
  Mo  Mo4  1  0.75000000  0.91724700  0.58275300  1
  Mo  Mo5  1  0.58275300  0.75000000  0.91724700  1
  Mo  Mo6  1  0.14388500  0.32338100  0.47290600  1
  Mo  Mo7  1  0.47290600  0.14388500  0.32338100  1
  Mo  Mo8  1  0.32338100  0.47290600  0.14388500  1
  Mo  Mo9  1  0.97290600  0.82338100  0.64388500  1
  Mo  Mo10  1  0.64388500  0.97290600  0.82338100  1
  Mo  Mo11  1  0.82338100  0.64388500  0.97290600  1
  Mo  Mo12  1  0.85611500  0.67661900  0.52709400  1
  Mo  Mo13  1  0.52709400  0.85611500  0.67661900  1
  Mo  Mo14  1  0.67661900  0.52709400  0.85611500  1
  Mo  Mo15  1  0.02709400  0.17661900  0.35611500  1
  Mo  Mo16  1  0.35611500  0.02709400  0.17661900  1
  Mo  Mo17  1  0.17661900  0.35611500  0.02709400  1
  S  S0  1  0.94600600  0.25000000  0.55399400  1
  S  S1  1  0.55399400  0.94600600  0.25000000  1
  S  S2  1  0.25000000  0.55399400  0.94600600  1
  S  S3  1  0.05399400  0.75000000  0.44600600  1
  S  S4  1  0.44600600  0.05399400  0.75000000  1
  S  S5  1  0.75000000  0.44600600  0.05399400  1
  S  S6  1  0.28431300  0.01855500  0.62122300  1
  S  S7  1  0.62122300  0.28431300  0.01855500  1
  S  S8  1  0.01855500  0.62122300  0.28431300  1
  S  S9  1  0.12122300  0.51855500  0.78431300  1
  S  S10  1  0.78431300  0.12122300  0.51855500  1
  S  S11  1  0.51855500  0.78431300  0.12122300  1
  S  S12  1  0.71568700  0.98144500  0.37877700  1
  S  S13  1  0.37877700  0.71568700  0.98144500  1
  S  S14  1  0.98144500  0.37877700  0.71568700  1
  S  S15  1  0.87877700  0.48144500  0.21568700  1
  S  S16  1  0.21568700  0.87877700  0.48144500  1
  S  S17  1  0.48144500  0.21568700  0.87877700  1
  S  S18  1  0.36451800  0.36451800  0.36451800  1
  S  S19  1  0.86451800  0.86451800  0.86451800  1
  S  S20  1  0.63548200  0.63548200  0.63548200  1
  S  S21  1  0.13548200  0.13548200  0.13548200  1
loop_
_geom_bond_atom_site_label_1
_geom_bond_atom_site_label_2
_geom_bond_distance
_geom_bond_site_symmetry_2
Mo0 S16 2.442755 1_545
Mo0 S6 2.442755 1_555
Mo0 S1 2.481277 1_545
Mo0 S0 2.481277 1_455
Mo1 S7 2.442755 1_555
Mo1 S17 2.442755 1_554
Mo1 S1 2.481277 1_545
Mo1 S2 2.481277 1_554
Mo2 S15 2.442755 1_455
Mo2 S8 2.442755 1_555
Mo2 S0 2.481276 1_455
Mo2 S2 2.481276 1_554
Mo3 S14 2.442755 1_555
Mo3 S9 2.442755 1_655
Mo3 S3 2.481276 1_655
Mo3 S5 2.481276 1_556
Mo4 S10 2.442755 1_565
Mo4 S12 2.442755 1_555
Mo4 S4 2.481277 1_565
Mo4 S3 2.481277 1_655
Mo5 S13 2.442755 1_555
Mo5 S11 2.442755 1_556
Mo5 S4 2.481277 1_565
Mo5 S5 2.481277 1_556
Mo6 S18 2.402070 1_555
Mo6 S6 2.448078 1_555
Mo6 S8 2.495961 1_555
Mo6 S14 2.505656 1_455
Mo6 S0 2.627822 1_455
Mo7 S18 2.402070 1_555
Mo7 S7 2.448078 1_555
Mo7 S6 2.495961 1_555
Mo7 S12 2.505656 1_545
Mo7 S1 2.627822 1_545
Mo8 S18 2.402070 1_555
Mo8 S8 2.448078 1_555
Mo8 S7 2.495961 1_555
Mo8 S13 2.505655 1_554
Mo8 S2 2.627822 1_554
Mo9 S19 2.402070 1_555
Mo9 S9 2.448078 1_655
Mo9 S10 2.495961 1_565
Mo9 S16 2.505655 1_655
Mo9 S3 2.627822 1_655
Mo10 S19 2.402070 1_555
Mo10 S10 2.448078 1_565
Mo10 S11 2.495961 1_556
Mo10 S17 2.505656 1_565
Mo10 S4 2.627822 1_565
Mo11 S19 2.402070 1_555
Mo11 S11 2.448078 1_556
Mo11 S9 2.495961 1_655
Mo11 S15 2.505656 1_556
Mo11 S5 2.627822 1_556
Mo12 S20 2.402070 1_555
Mo12 S12 2.448078 1_555
Mo12 S14 2.495961 1_555
Mo12 S8 2.505656 1_655
Mo12 S3 2.627822 1_655
Mo13 S20 2.402070 1_555
Mo13 S13 2.448078 1_555
Mo13 S12 2.495961 1_555
Mo13 S6 2.505656 1_565
Mo13 S4 2.627822 1_565
Mo14 S20 2.402070 1_555
Mo14 S14 2.448078 1_555
Mo14 S13 2.495961 1_555
Mo14 S7 2.505655 1_556
Mo14 S5 2.627822 1_556
Mo15 S21 2.402070 1_555
Mo15 S15 2.448078 1_455
Mo15 S16 2.495961 1_545
Mo15 S10 2.505655 1_455
Mo15 S0 2.627822 1_455
Mo16 S21 2.402070 1_555
Mo16 S16 2.448078 1_545
Mo16 S17 2.495961 1_554
Mo16 S11 2.505656 1_545
Mo16 S1 2.627822 1_545
Mo17 S21 2.402070 1_555
Mo17 S17 2.448078 1_554
Mo17 S15 2.495961 1_455
Mo17 S9 2.505656 1_554
Mo17 S2 2.627822 1_554
S18 Tl0 2.961411 1_555
S19 Tl1 2.961411 1_555
S20 Tl2 2.961411 1_555
S21 Tl3 2.961411 1_555
