# generated using pymatgen
data_CsNbS2O9
_symmetry_space_group_name_H-M   'P 1'
_cell_length_a   5.26203400
_cell_length_b   9.18625100
_cell_length_c   18.69041900
_cell_angle_alpha   90.00000000
_cell_angle_beta   90.00000000
_cell_angle_gamma   90.00000000
_symmetry_Int_Tables_number   1
_chemical_formula_structural   CsNbS2O9
_chemical_formula_sum   'Cs4 Nb4 S8 O36'
_cell_volume   903.46429739
_cell_formula_units_Z   4
loop_
 _symmetry_equiv_pos_site_id
 _symmetry_equiv_pos_as_xyz
  1  'x, y, z'
loop_
 _atom_site_type_symbol
 _atom_site_label
 _atom_site_symmetry_multiplicity
 _atom_site_fract_x
 _atom_site_fract_y
 _atom_site_fract_z
 _atom_site_occupancy
  Cs  Cs0  1  0.25000000  0.16809100  0.07103600  1
  Cs  Cs1  1  0.25000000  0.33190900  0.57103600  1
  Cs  Cs2  1  0.75000000  0.83190900  0.92896400  1
  Cs  Cs3  1  0.75000000  0.66809100  0.42896400  1
  Nb  Nb0  1  0.25000000  0.06697100  0.31482000  1
  Nb  Nb1  1  0.25000000  0.43302900  0.81482000  1
  Nb  Nb2  1  0.75000000  0.93302900  0.68518000  1
  Nb  Nb3  1  0.75000000  0.56697100  0.18518000  1
  S  S0  1  0.25000000  0.46199900  0.29538300  1
  S  S1  1  0.25000000  0.03800100  0.79538300  1
  S  S2  1  0.75000000  0.53800100  0.70461700  1
  S  S3  1  0.75000000  0.96199900  0.20461700  1
  S  S4  1  0.75000000  0.13175200  0.42819800  1
  S  S5  1  0.75000000  0.36824800  0.92819800  1
  S  S6  1  0.25000000  0.86824800  0.57180200  1
  S  S7  1  0.25000000  0.63175200  0.07180200  1
  O  O0  1  0.98017600  0.04272100  0.23422100  1
  O  O1  1  0.51982400  0.45727900  0.73422100  1
  O  O2  1  0.48017600  0.95727900  0.76577900  1
  O  O3  1  0.01982400  0.54272100  0.26577900  1
  O  O4  1  0.01982400  0.95727900  0.76577900  1
  O  O5  1  0.48017600  0.54272100  0.26577900  1
  O  O6  1  0.51982400  0.04272100  0.23422100  1
  O  O7  1  0.98017600  0.45727900  0.73422100  1
  O  O8  1  0.97676600  0.15434600  0.37734000  1
  O  O9  1  0.52323400  0.34565400  0.87734000  1
  O  O10  1  0.47676600  0.84565400  0.62266000  1
  O  O11  1  0.02323400  0.65434600  0.12266000  1
  O  O12  1  0.02323400  0.84565400  0.62266000  1
  O  O13  1  0.47676600  0.65434600  0.12266000  1
  O  O14  1  0.52323400  0.15434600  0.37734000  1
  O  O15  1  0.97676600  0.34565400  0.87734000  1
  O  O16  1  0.25000000  0.31270600  0.26745100  1
  O  O17  1  0.25000000  0.18729400  0.76745100  1
  O  O18  1  0.75000000  0.68729400  0.73254900  1
  O  O19  1  0.75000000  0.81270600  0.23254900  1
  O  O20  1  0.75000000  0.98579300  0.45638200  1
  O  O21  1  0.75000000  0.51420700  0.95638200  1
  O  O22  1  0.25000000  0.01420700  0.54361800  1
  O  O23  1  0.25000000  0.48579300  0.04361800  1
  O  O24  1  0.75000000  0.25104200  0.47896700  1
  O  O25  1  0.75000000  0.24895800  0.97896700  1
  O  O26  1  0.25000000  0.74895800  0.52103300  1
  O  O27  1  0.25000000  0.75104200  0.02103300  1
  O  O28  1  0.25000000  0.47627000  0.37260200  1
  O  O29  1  0.25000000  0.02373000  0.87260200  1
  O  O30  1  0.75000000  0.52373000  0.62739800  1
  O  O31  1  0.75000000  0.97627000  0.12739800  1
  O  O32  1  0.75000000  0.39103000  0.15150500  1
  O  O33  1  0.75000000  0.10897000  0.65150500  1
  O  O34  1  0.25000000  0.60897000  0.84849500  1
  O  O35  1  0.25000000  0.89103000  0.34849500  1
loop_
_geom_bond_atom_site_label_1
_geom_bond_atom_site_label_2
_geom_bond_distance
_geom_bond_site_symmetry_2
Cs0 O23 2.963139 1_555
Cs0 O25 3.230368 1_554
Cs0 O25 3.230368 1_454
Cs0 O31 3.337217 1_545
Cs0 O31 3.337217 1_445
Cs0 O6 3.555944 1_555
Cs0 O0 3.555944 1_455
Cs0 O32 3.657658 1_455
Cs0 O32 3.657658 1_555
Cs1 O22 2.963139 1_555
Cs1 O24 3.230368 1_455
Cs1 O24 3.230368 1_555
Cs1 O30 3.337217 1_555
Cs1 O30 3.337217 1_455
Cs1 O1 3.555944 1_555
Cs1 O7 3.555944 1_455
Cs1 O33 3.657658 1_555
Cs1 O33 3.657658 1_455
Cs2 O21 2.963139 1_555
Cs2 O27 3.230368 1_556
Cs2 O27 3.230368 1_656
Cs2 O29 3.337217 1_565
Cs2 O29 3.337217 1_665
Cs2 O4 3.555944 1_655
Cs2 O2 3.555944 1_555
Cs2 O34 3.657658 1_655
Cs2 O34 3.657658 1_555
Cs3 O20 2.963139 1_555
Cs3 O26 3.230368 1_655
Cs3 O26 3.230368 1_555
Cs3 O28 3.337217 1_555
Cs3 O28 3.337217 1_655
Cs3 O3 3.555944 1_655
Cs3 O5 3.555944 1_555
Cs3 O35 3.657658 1_555
Cs3 O35 3.657658 1_655
Nb0 O35 1.734465 1_545
Nb0 O14 2.019126 1_555
Nb0 O8 2.019126 1_455
Nb0 O6 2.082031 1_555
Nb0 O0 2.082031 1_455
Nb0 O16 2.424792 1_555
Nb1 O34 1.734465 1_555
Nb1 O9 2.019126 1_555
Nb1 O15 2.019126 1_455
Nb1 O1 2.082031 1_555
Nb1 O7 2.082031 1_455
Nb1 O17 2.424792 1_555
Nb2 O33 1.734465 1_565
Nb2 O12 2.019126 1_655
Nb2 O10 2.019126 1_555
Nb2 O4 2.082031 1_655
Nb2 O2 2.082031 1_555
Nb2 O18 2.424792 1_555
Nb3 O32 1.734465 1_555
Nb3 O11 2.019126 1_655
Nb3 O13 2.019126 1_555
Nb3 O3 2.082031 1_655
Nb3 O5 2.082031 1_555
Nb3 O19 2.424792 1_555
O0 S3 1.524144 1_545
O1 S2 1.524144 1_555
O2 S1 1.524144 1_565
O3 S0 1.524144 1_555
O4 S1 1.524144 1_565
O5 S0 1.524144 1_555
O6 S3 1.524144 1_545
O7 S2 1.524144 1_555
O8 S4 1.539638 1_555
O9 S5 1.539638 1_555
O10 S6 1.539638 1_555
O11 S7 1.539638 1_555
O12 S6 1.539638 1_555
O13 S7 1.539638 1_555
O14 S4 1.539638 1_555
O15 S5 1.539638 1_555
O16 S0 1.467448 1_555
O17 S1 1.467448 1_555
O18 S2 1.467448 1_555
O19 S3 1.467448 1_555
O20 S4 1.440581 1_565
O21 S5 1.440581 1_555
O22 S6 1.440581 1_545
O23 S7 1.440581 1_555
O24 S4 1.449565 1_555
O25 S5 1.449565 1_555
O26 S6 1.449565 1_555
O27 S7 1.449565 1_555
O28 S0 1.449197 1_555
O29 S1 1.449197 1_555
O30 S2 1.449197 1_555
O31 S3 1.449197 1_555
