# generated using pymatgen
data_SrEuZr4O12
_symmetry_space_group_name_H-M   'P 1'
_cell_length_a   5.84257308
_cell_length_b   5.84257308
_cell_length_c   8.34962838
_cell_angle_alpha   90.00000000
_cell_angle_beta   90.00000000
_cell_angle_gamma   89.80353346
_symmetry_Int_Tables_number   1
_chemical_formula_structural   SrEuZr4O12
_chemical_formula_sum   'Sr1 Eu1 Zr4 O12'
_cell_volume   285.01840186
_cell_formula_units_Z   1
loop_
 _symmetry_equiv_pos_site_id
 _symmetry_equiv_pos_as_xyz
  1  'x, y, z'
loop_
 _atom_site_type_symbol
 _atom_site_label
 _atom_site_symmetry_multiplicity
 _atom_site_fract_x
 _atom_site_fract_y
 _atom_site_fract_z
 _atom_site_occupancy
  Sr  Sr0  1  0.01866993  0.98133007  0.50000000  1
  Eu  Eu0  1  0.49064614  0.50935386  0.00000000  1
  Zr  Zr0  1  0.50948151  0.01171754  0.25309426  1
  Zr  Zr1  1  0.50948151  0.01171754  0.74690574  1
  Zr  Zr2  1  -0.01171754  0.49051849  0.74690574  1
  Zr  Zr3  1  -0.01171754  0.49051849  0.25309426  1
  O  O0  1  0.29803597  0.30384863  0.22103662  1
  O  O1  1  0.69615137  0.70196403  0.22103662  1
  O  O2  1  0.69615137  0.70196403  0.77896338  1
  O  O3  1  0.29803597  0.30384863  0.77896338  1
  O  O4  1  0.23274700  0.76725300  0.21065658  1
  O  O5  1  0.79691221  0.20308779  0.29299845  1
  O  O6  1  0.79691221  0.20308779  0.70700155  1
  O  O7  1  0.23274700  0.76725300  0.78934342  1
  O  O8  1  0.53157625  0.05374718  0.00000000  1
  O  O9  1  0.44175545  0.97782163  0.50000000  1
  O  O10  1  0.94625282  0.46842375  0.00000000  1
  O  O11  1  0.02217837  0.55824455  0.50000000  1
loop_
_geom_bond_atom_site_label_1
_geom_bond_atom_site_label_2
_geom_bond_distance
_geom_bond_site_symmetry_2
Eu0 O2 2.474556 1_554
Eu0 O0 2.474556 1_555
Eu0 O3 2.474556 1_554
Eu0 O1 2.474556 1_555
Eu0 O8 2.671819 1_555
Eu0 O10 2.671819 1_555
Eu0 O7 2.760260 1_554
Eu0 O4 2.760260 1_555
O0 Zr0 2.120500 1_555
O0 Zr3 2.126690 1_555
O1 Zr3 2.120500 1_655
O1 Zr0 2.126690 1_565
O2 Zr2 2.120500 1_655
O2 Zr1 2.126690 1_565
O3 Zr1 2.120500 1_555
O3 Zr2 2.126690 1_555
O4 Zr3 2.189890 1_555
O4 Zr0 2.189890 1_565
O4 Sr0 2.992440 1_555
O5 Zr0 2.047972 1_555
O5 Zr3 2.047972 1_655
O5 Sr0 2.516575 1_645
O6 Zr2 2.047972 1_655
O6 Zr1 2.047972 1_555
O6 Sr0 2.516575 1_645
O7 Zr2 2.189890 1_555
O7 Zr1 2.189890 1_565
O7 Sr0 2.992440 1_555
O8 Zr0 2.131426 1_555
O8 Zr1 2.131426 1_554
O9 Zr0 2.108650 1_565
O9 Zr1 2.108650 1_565
O9 Sr0 2.471923 1_555
O10 Zr3 2.131426 1_655
O10 Zr2 2.131426 1_654
O11 Zr2 2.108650 1_555
O11 Zr3 2.108650 1_555
O11 Sr0 2.471923 1_555
