# generated using pymatgen
data_ZnCrO3
_symmetry_space_group_name_H-M   'P 1'
_cell_length_a   5.10553402
_cell_length_b   5.12704901
_cell_length_c   7.64697304
_cell_angle_alpha   90.00792296
_cell_angle_beta   90.00937750
_cell_angle_gamma   89.99868944
_symmetry_Int_Tables_number   1
_chemical_formula_structural   ZnCrO3
_chemical_formula_sum   'Zn4 Cr4 O12'
_cell_volume   200.16963281
_cell_formula_units_Z   4
loop_
 _symmetry_equiv_pos_site_id
 _symmetry_equiv_pos_as_xyz
  1  'x, y, z'
loop_
 _atom_site_type_symbol
 _atom_site_label
 _atom_site_symmetry_multiplicity
 _atom_site_fract_x
 _atom_site_fract_y
 _atom_site_fract_z
 _atom_site_occupancy
  Zn  Zn0  1  0.01431400  0.03038100  0.25001100  1
  Zn  Zn1  1  0.51408600  0.46948600  0.74996600  1
  Zn  Zn2  1  0.48571800  0.53065300  0.25001300  1
  Zn  Zn3  1  0.98598000  0.96921900  0.74998400  1
  Cr  Cr0  1  0.50010900  0.00003700  0.00008100  1
  Cr  Cr1  1  0.99977900  0.49986900  0.00021500  1
  Cr  Cr2  1  0.99982500  0.49996400  0.49986600  1
  Cr  Cr3  1  0.50010400  0.00012100  0.49985500  1
  O  O0  1  0.89451400  0.57850700  0.75003400  1
  O  O1  1  0.39457800  0.92138400  0.24996700  1
  O  O2  1  0.60557900  0.07868600  0.74997200  1
  O  O3  1  0.10547000  0.42123600  0.25003500  1
  O  O4  1  0.66797600  0.32094500  0.43944900  1
  O  O5  1  0.16796600  0.17927000  0.56019200  1
  O  O6  1  0.83203900  0.82081100  0.06049600  1
  O  O7  1  0.33205300  0.67924800  0.93984700  1
  O  O8  1  0.66794300  0.32081300  0.06058200  1
  O  O9  1  0.16797400  0.17921300  0.93977100  1
  O  O10  1  0.33199300  0.67930100  0.56013200  1
  O  O11  1  0.83199900  0.82085900  0.43953000  1
loop_
_geom_bond_atom_site_label_1
_geom_bond_atom_site_label_2
_geom_bond_distance
_geom_bond_site_symmetry_2
Cr0 O8 1.911240 1_555
Cr0 O7 1.911313 1_544
Cr0 O6 1.982308 1_545
Cr0 O9 1.982897 1_554
Cr0 O1 2.026056 1_545
Cr0 O2 2.027578 1_554
Cr1 O6 1.911385 1_555
Cr1 O9 1.911467 1_654
Cr1 O8 1.981573 1_555
Cr1 O7 1.984254 1_654
Cr1 O3 2.025606 1_655
Cr1 O0 2.027637 1_554
Cr2 O5 1.911334 1_655
Cr2 O11 1.911518 1_555
Cr2 O4 1.981443 1_555
Cr2 O10 1.983322 1_655
Cr2 O3 2.025781 1_655
Cr2 O0 2.027570 1_555
Cr3 O4 1.911541 1_555
Cr3 O10 1.911832 1_545
Cr3 O11 1.982150 1_545
Cr3 O5 1.982964 1_555
Cr3 O1 2.025878 1_545
Cr3 O2 2.027285 1_555
O0 Zn1 2.021129 1_555
O0 Zn3 2.056921 1_555
O1 Zn0 2.020266 1_565
O1 Zn2 2.056618 1_555
O2 Zn3 2.021606 1_545
O2 Zn1 2.057371 1_555
O3 Zn2 2.020809 1_555
O3 Zn0 2.057276 1_555
O4 Zn2 2.029856 1_555
O5 Zn3 2.032335 1_445
O6 Zn0 2.029763 1_665
O7 Zn1 2.031912 1_555
O8 Zn2 2.030115 1_555
O9 Zn3 2.031742 1_445
O10 Zn1 2.031934 1_555
O11 Zn0 2.030177 1_665
