# generated using pymatgen
data_Ba(OsN2)2
_symmetry_space_group_name_H-M   'P 1'
_cell_length_a   11.19183641
_cell_length_b   11.19183641
_cell_length_c   11.19183641
_cell_angle_alpha   90.00000000
_cell_angle_beta   90.00000000
_cell_angle_gamma   90.00000000
_symmetry_Int_Tables_number   1
_chemical_formula_structural   Ba(OsN2)2
_chemical_formula_sum   'Ba12 Os24 N48'
_cell_volume   1401.85811651
_cell_formula_units_Z   12
loop_
 _symmetry_equiv_pos_site_id
 _symmetry_equiv_pos_as_xyz
  1  'x, y, z'
loop_
 _atom_site_type_symbol
 _atom_site_label
 _atom_site_symmetry_multiplicity
 _atom_site_fract_x
 _atom_site_fract_y
 _atom_site_fract_z
 _atom_site_occupancy
  Ba  Ba0  1  0.50000000  0.50000000  0.00000000  1
  Ba  Ba1  1  0.50000000  -0.00000000  0.50000000  1
  Ba  Ba2  1  -0.00000000  0.50000000  0.50000000  1
  Ba  Ba3  1  -0.00000000  -0.00000000  0.00000000  1
  Ba  Ba4  1  0.13670132  0.86329868  0.36329868  1
  Ba  Ba5  1  0.86329868  0.36329868  0.13670132  1
  Ba  Ba6  1  0.36329868  0.13670132  0.86329868  1
  Ba  Ba7  1  0.63670132  0.63670132  0.63670132  1
  Ba  Ba8  1  0.86329868  0.13670132  0.63670132  1
  Ba  Ba9  1  0.13670132  0.63670132  0.86329868  1
  Ba  Ba10  1  0.63670132  0.86329868  0.13670132  1
  Ba  Ba11  1  0.36329868  0.36329868  0.36329868  1
  Os  Os0  1  0.40189069  0.68474828  0.34680339  1
  Os  Os1  1  0.59810931  0.18474828  0.15319661  1
  Os  Os2  1  0.09810931  0.31525172  0.84680339  1
  Os  Os3  1  0.90189069  0.81525172  0.65319661  1
  Os  Os4  1  0.34680339  0.40189069  0.68474828  1
  Os  Os5  1  0.15319661  0.59810931  0.18474828  1
  Os  Os6  1  0.84680339  0.09810931  0.31525172  1
  Os  Os7  1  0.65319661  0.90189069  0.81525172  1
  Os  Os8  1  0.68474828  0.34680339  0.40189069  1
  Os  Os9  1  0.18474828  0.15319661  0.59810931  1
  Os  Os10  1  0.31525172  0.84680339  0.09810931  1
  Os  Os11  1  0.81525172  0.65319661  0.90189069  1
  Os  Os12  1  0.59810931  0.31525172  0.65319661  1
  Os  Os13  1  0.40189069  0.81525172  0.84680339  1
  Os  Os14  1  0.90189069  0.68474828  0.15319661  1
  Os  Os15  1  0.09810931  0.18474828  0.34680339  1
  Os  Os16  1  0.65319661  0.59810931  0.31525172  1
  Os  Os17  1  0.84680339  0.40189069  0.81525172  1
  Os  Os18  1  0.15319661  0.90189069  0.68474828  1
  Os  Os19  1  0.34680339  0.09810931  0.18474828  1
  Os  Os20  1  0.31525172  0.65319661  0.59810931  1
  Os  Os21  1  0.81525172  0.84680339  0.40189069  1
  Os  Os22  1  0.68474828  0.15319661  0.90189069  1
  Os  Os23  1  0.18474828  0.34680339  0.09810931  1
  N  N0  1  0.38502448  0.81700768  0.25329270  1
  N  N1  1  0.61497552  0.31700768  0.24670730  1
  N  N2  1  0.11497552  0.18299232  0.75329270  1
  N  N3  1  0.88502448  0.68299232  0.74670730  1
  N  N4  1  0.25329270  0.38502448  0.81700768  1
  N  N5  1  0.24670730  0.61497552  0.31700768  1
  N  N6  1  0.75329270  0.11497552  0.18299232  1
  N  N7  1  0.74670730  0.88502448  0.68299232  1
  N  N8  1  0.81700768  0.25329270  0.38502448  1
  N  N9  1  0.31700768  0.24670730  0.61497552  1
  N  N10  1  0.18299232  0.75329270  0.11497552  1
  N  N11  1  0.68299232  0.74670730  0.88502448  1
  N  N12  1  0.61497552  0.18299232  0.74670730  1
  N  N13  1  0.38502448  0.68299232  0.75329270  1
  N  N14  1  0.88502448  0.81700768  0.24670730  1
  N  N15  1  0.11497552  0.31700768  0.25329270  1
  N  N16  1  0.74670730  0.61497552  0.18299232  1
  N  N17  1  0.75329270  0.38502448  0.68299232  1
  N  N18  1  0.24670730  0.88502448  0.81700768  1
  N  N19  1  0.25329270  0.11497552  0.31700768  1
  N  N20  1  0.18299232  0.74670730  0.61497552  1
  N  N21  1  0.68299232  0.75329270  0.38502448  1
  N  N22  1  0.81700768  0.24670730  0.88502448  1
  N  N23  1  0.31700768  0.25329270  0.11497552  1
  N  N24  1  0.44293321  0.72587627  0.50961032  1
  N  N25  1  0.55706679  0.22587627  0.99038968  1
  N  N26  1  0.05706679  0.27412373  0.00961032  1
  N  N27  1  0.94293321  0.77412373  0.49038968  1
  N  N28  1  0.50961032  0.44293321  0.72587627  1
  N  N29  1  0.99038968  0.55706679  0.22587627  1
  N  N30  1  0.00961032  0.05706679  0.27412373  1
  N  N31  1  0.49038968  0.94293321  0.77412373  1
  N  N32  1  0.72587627  0.50961032  0.44293321  1
  N  N33  1  0.22587627  0.99038968  0.55706679  1
  N  N34  1  0.27412373  0.00961032  0.05706679  1
  N  N35  1  0.77412373  0.49038968  0.94293321  1
  N  N36  1  0.55706679  0.27412373  0.49038968  1
  N  N37  1  0.44293321  0.77412373  0.00961032  1
  N  N38  1  0.94293321  0.72587627  0.99038968  1
  N  N39  1  0.05706679  0.22587627  0.50961032  1
  N  N40  1  0.49038968  0.55706679  0.27412373  1
  N  N41  1  0.00961032  0.44293321  0.77412373  1
  N  N42  1  0.99038968  0.94293321  0.72587627  1
  N  N43  1  0.50961032  0.05706679  0.22587627  1
  N  N44  1  0.27412373  0.49038968  0.55706679  1
  N  N45  1  0.77412373  0.00961032  0.44293321  1
  N  N46  1  0.72587627  0.99038968  0.94293321  1
  N  N47  1  0.22587627  0.50961032  0.05706679  1
loop_
_geom_bond_atom_site_label_1
_geom_bond_atom_site_label_2
_geom_bond_distance
_geom_bond_site_symmetry_2
Ba0 N28 3.135568 1_554
Ba0 N37 3.135568 1_555
Ba0 N25 3.135568 1_554
Ba0 N47 3.135568 1_555
Ba0 N35 3.135568 1_554
Ba0 N40 3.135568 1_555
Ba1 N24 3.135568 1_545
Ba1 N43 3.135568 1_555
Ba1 N33 3.135568 1_545
Ba1 N36 3.135568 1_555
Ba1 N31 3.135568 1_545
Ba1 N45 3.135568 1_555
Ba2 N39 3.135568 1_555
Ba2 N41 3.135568 1_555
Ba2 N29 3.135568 1_455
Ba2 N32 3.135568 1_455
Ba2 N44 3.135568 1_555
Ba2 N27 3.135568 1_455
Ba3 N26 3.135568 1_555
Ba3 N30 3.135568 1_555
Ba3 N42 3.135568 1_444
Ba3 N38 3.135568 1_444
Ba3 N46 3.135568 1_444
Ba3 N34 3.135568 1_555
Ba4 N30 2.778876 1_565
Ba4 N27 2.778876 1_455
Ba4 N33 2.778876 1_555
Ba4 N0 3.083520 1_555
Ba4 N5 3.083520 1_555
Ba4 N10 3.083520 1_555
Ba4 N19 3.147228 1_565
Ba4 N20 3.147228 1_555
Ba4 N14 3.147228 1_455
Ba5 N26 2.778876 1_655
Ba5 N35 2.778876 1_554
Ba5 N29 2.778876 1_555
Ba5 N1 3.083520 1_555
Ba5 N8 3.083520 1_555
Ba5 N6 3.083520 1_555
Ba5 N15 3.147228 1_655
Ba5 N16 3.147228 1_555
Ba5 N22 3.147228 1_554
Ba6 N34 2.778876 1_556
Ba6 N31 2.778876 1_545
Ba6 N25 2.778876 1_555
Ba6 N4 3.083520 1_555
Ba6 N9 3.083520 1_555
Ba6 N2 3.083520 1_555
Ba6 N23 3.147228 1_556
Ba6 N12 3.147228 1_555
Ba6 N18 3.147228 1_545
Ba7 N32 2.778876 1_555
Ba7 N24 2.778876 1_555
Ba7 N28 2.778876 1_555
Ba7 N7 3.083520 1_555
Ba7 N11 3.083520 1_555
Ba7 N3 3.083520 1_555
Ba7 N17 3.147228 1_555
Ba7 N13 3.147228 1_555
Ba7 N21 3.147228 1_555
Ba8 N39 2.778876 1_655
Ba8 N45 2.778876 1_555
Ba8 N42 2.778876 1_545
Ba8 N12 3.083520 1_555
Ba8 N22 3.083520 1_555
Ba8 N17 3.083520 1_555
Ba8 N2 3.147228 1_655
Ba8 N8 3.147228 1_555
Ba8 N7 3.147228 1_545
Ba9 N47 2.778876 1_556
Ba9 N41 2.778876 1_555
Ba9 N38 2.778876 1_455
Ba9 N18 3.083520 1_555
Ba9 N20 3.083520 1_555
Ba9 N13 3.083520 1_555
Ba9 N10 3.147228 1_556
Ba9 N4 3.147228 1_555
Ba9 N3 3.147228 1_455
Ba10 N43 2.778876 1_565
Ba10 N37 2.778876 1_555
Ba10 N46 2.778876 1_554
Ba10 N16 3.083520 1_555
Ba10 N14 3.083520 1_555
Ba10 N21 3.083520 1_555
Ba10 N6 3.147228 1_565
Ba10 N0 3.147228 1_555
Ba10 N11 3.147228 1_554
Ba11 N40 2.778876 1_555
Ba11 N36 2.778876 1_555
Ba11 N44 2.778876 1_555
Ba11 N15 3.083520 1_555
Ba11 N23 3.083520 1_555
Ba11 N19 3.083520 1_555
Ba11 N9 3.147228 1_555
Ba11 N5 3.147228 1_555
Ba11 N1 3.147228 1_555
N0 Os0 1.822630 1_555
N0 Os10 1.933239 1_555
N1 Os1 1.822630 1_555
N1 Os8 1.933239 1_555
N2 Os2 1.822630 1_555
N2 Os9 1.933239 1_555
N3 Os3 1.822630 1_555
N3 Os11 1.933239 1_555
N4 Os4 1.822630 1_555
N4 Os2 1.933239 1_555
N5 Os5 1.822630 1_555
N5 Os0 1.933239 1_555
N6 Os6 1.822630 1_555
N6 Os1 1.933239 1_555
N7 Os7 1.822630 1_555
N7 Os3 1.933239 1_555
N8 Os8 1.822630 1_555
N8 Os6 1.933239 1_555
N9 Os9 1.822630 1_555
N9 Os4 1.933239 1_555
N10 Os10 1.822630 1_555
N10 Os5 1.933239 1_555
N11 Os11 1.822630 1_555
N11 Os7 1.933239 1_555
N12 Os12 1.822630 1_555
N12 Os22 1.933239 1_555
N13 Os13 1.822630 1_555
N13 Os20 1.933239 1_555
N14 Os14 1.822630 1_555
N14 Os21 1.933239 1_555
N15 Os15 1.822630 1_555
N15 Os23 1.933239 1_555
N16 Os16 1.822630 1_555
N16 Os14 1.933239 1_555
N17 Os17 1.822630 1_555
N17 Os12 1.933239 1_555
N18 Os18 1.822630 1_555
N18 Os13 1.933239 1_555
N19 Os19 1.822630 1_555
N19 Os15 1.933239 1_555
N20 Os20 1.822630 1_555
N20 Os18 1.933239 1_555
N21 Os21 1.822630 1_555
N21 Os16 1.933239 1_555
N22 Os22 1.822630 1_555
N22 Os17 1.933239 1_555
N23 Os23 1.822630 1_555
N23 Os19 1.933239 1_555
N24 Os20 1.919554 1_555
N24 Os0 1.934670 1_555
N25 Os22 1.919554 1_555
N25 Os1 1.934670 1_556
N26 Os23 1.919554 1_555
N26 Os2 1.934670 1_554
N27 Os21 1.919554 1_555
N27 Os3 1.934670 1_555
N28 Os12 1.919554 1_555
N28 Os4 1.934670 1_555
N29 Os14 1.919554 1_555
N29 Os5 1.934670 1_655
N30 Os15 1.919554 1_555
N30 Os6 1.934670 1_455
N31 Os13 1.919554 1_555
N31 Os7 1.934670 1_555
N32 Os16 1.919554 1_555
N32 Os8 1.934670 1_555
N33 Os18 1.919554 1_555
N33 Os9 1.934670 1_565
N34 Os19 1.919554 1_555
N34 Os10 1.934670 1_545
N35 Os17 1.919554 1_555
N35 Os11 1.934670 1_555
N36 Os8 1.919554 1_555
N36 Os12 1.934670 1_555
N37 Os10 1.919554 1_555
N37 Os13 1.934670 1_554
N38 Os11 1.919554 1_555
N38 Os14 1.934670 1_556
N39 Os9 1.919554 1_555
N39 Os15 1.934670 1_555
N40 Os0 1.919554 1_555
N40 Os16 1.934670 1_555
N41 Os2 1.919554 1_555
N41 Os17 1.934670 1_455
N42 Os3 1.919554 1_555
N42 Os18 1.934670 1_655
N43 Os1 1.919554 1_555
N43 Os19 1.934670 1_555
N44 Os4 1.919554 1_555
N44 Os20 1.934670 1_555
N45 Os6 1.919554 1_555
N45 Os21 1.934670 1_545
N46 Os7 1.919554 1_555
N46 Os22 1.934670 1_565
N47 Os5 1.919554 1_555
N47 Os23 1.934670 1_555
