# generated using pymatgen
data_LiYbNbO3
_symmetry_space_group_name_H-M   'P 1'
_cell_length_a   3.93229033
_cell_length_b   5.29963097
_cell_length_c   3.93229033
_cell_angle_alpha   90.00000000
_cell_angle_beta   90.00000000
_cell_angle_gamma   90.00000000
_symmetry_Int_Tables_number   1
_chemical_formula_structural   LiYbNbO3
_chemical_formula_sum   'Li1 Yb1 Nb1 O3'
_cell_volume   81.94770211
_cell_formula_units_Z   1
loop_
 _symmetry_equiv_pos_site_id
 _symmetry_equiv_pos_as_xyz
  1  'x, y, z'
loop_
 _atom_site_type_symbol
 _atom_site_label
 _atom_site_symmetry_multiplicity
 _atom_site_fract_x
 _atom_site_fract_y
 _atom_site_fract_z
 _atom_site_occupancy
  Li  Li0  1  0.00000000  0.50000000  0.00000000  1
  Yb  Yb0  1  0.00000000  0.00000000  0.00000000  1
  Nb  Nb0  1  0.49999900  0.49999900  0.49999900  1
  O  O0  1  0.49999900  0.49999900  0.00000000  1
  O  O1  1  0.49999900  0.00000000  0.49999900  1
  O  O2  1  0.00000000  0.49999900  0.49999900  1
loop_
_geom_bond_atom_site_label_1
_geom_bond_atom_site_label_2
_geom_bond_distance
_geom_bond_site_symmetry_2
Li0 O2 1.966141 1_555
Li0 O0 1.966141 1_555
Li0 O2 1.966149 1_554
Li0 O0 1.966149 1_455
Li0 Yb0 2.649815 1_565
Li0 Yb0 2.649815 1_555
Nb0 O2 1.966141 1_555
Nb0 O0 1.966141 1_555
Nb0 O0 1.966149 1_556
Nb0 O2 1.966149 1_655
Nb0 O1 2.649810 1_555
Nb0 O1 2.649821 1_565
O1 Yb0 2.780544 1_555
O1 Yb0 2.780549 1_655
O1 Yb0 2.780549 1_556
O1 Yb0 2.780555 1_656
