# generated using pymatgen
data_Ba6Mg(IrO3)6
_symmetry_space_group_name_H-M   'P 1'
_cell_length_a   5.68214822
_cell_length_b   5.79994713
_cell_length_c   15.14519578
_cell_angle_alpha   93.83277258
_cell_angle_beta   89.76119679
_cell_angle_gamma   119.26771239
_symmetry_Int_Tables_number   1
_chemical_formula_structural   Ba6Mg(IrO3)6
_chemical_formula_sum   'Ba6 Mg1 Ir6 O18'
_cell_volume   434.20433135
_cell_formula_units_Z   1
loop_
 _symmetry_equiv_pos_site_id
 _symmetry_equiv_pos_as_xyz
  1  'x, y, z'
loop_
 _atom_site_type_symbol
 _atom_site_label
 _atom_site_symmetry_multiplicity
 _atom_site_fract_x
 _atom_site_fract_y
 _atom_site_fract_z
 _atom_site_occupancy
  Ba  Ba0  1  0.00442300  0.99800700  0.75538000  1
  Ba  Ba1  1  0.97384500  0.93022900  0.25668900  1
  Ba  Ba2  1  0.35024300  0.69636300  0.89241600  1
  Ba  Ba3  1  0.33673900  0.65328900  0.59432900  1
  Ba  Ba4  1  0.71866700  0.43990600  0.04334600  1
  Ba  Ba5  1  0.64704400  0.27085300  0.42749700  1
  Mg  Mg0  1  0.61768400  0.21313300  0.20351800  1
  Ir  Ir0  1  0.03456500  0.06417100  0.00505700  1
  Ir  Ir1  1  0.98976700  0.95609400  0.50203700  1
  Ir  Ir2  1  0.34534100  0.68217100  0.15777600  1
  Ir  Ir3  1  0.30898000  0.59600200  0.34893600  1
  Ir  Ir4  1  0.67469100  0.34017700  0.84004500  1
  Ir  Ir5  1  0.66971900  0.32137500  0.65391200  1
  O  O0  1  0.12950100  0.22154600  0.40050000  1
  O  O1  1  0.73045800  0.97827800  0.10684400  1
  O  O2  1  0.85363800  0.69733400  0.60158800  1
  O  O3  1  0.32506800  0.15367800  0.91021700  1
  O  O4  1  0.25549900  0.97800900  0.10592000  1
  O  O5  1  0.12145300  0.71441100  0.44319300  1
  O  O6  1  0.82648500  0.14836100  0.91198900  1
  O  O7  1  0.86449400  0.19287200  0.56637500  1
  O  O8  1  0.62275300  0.72114700  0.44041900  1
  O  O9  1  0.22643700  0.45597400  0.04463800  1
  O  O10  1  0.34695700  0.18497400  0.56725600  1
  O  O11  1  0.85650200  0.70781800  0.91259700  1
  O  O12  1  0.51818000  0.47469700  0.74920100  1
  O  O13  1  0.47559000  0.47410200  0.23840900  1
  O  O14  1  0.52355500  0.03218600  0.74230700  1
  O  O15  1  0.96930200  0.47468300  0.74973200  1
  O  O16  1  0.46891100  0.92377800  0.27780300  1
  O  O17  1  0.01558900  0.47105200  0.24204000  1
loop_
_geom_bond_atom_site_label_1
_geom_bond_atom_site_label_2
_geom_bond_distance
_geom_bond_site_symmetry_2
Ba0 O2 2.685723 1_455
Ba0 O3 2.788907 1_565
Ba0 O6 2.823847 1_465
Ba0 O14 2.843182 1_465
Ba0 O14 2.865021 1_565
Ba0 O15 2.874355 1_465
Ba0 O12 2.883628 1_565
Ba0 O11 2.888709 1_455
Ba0 O12 2.935860 1_455
Ba0 O15 2.938207 1_455
Ba1 O0 2.538474 1_665
Ba1 O4 2.733604 1_655
Ba1 O1 2.761906 1_555
Ba1 O13 2.770561 1_555
Ba1 O17 2.781432 1_655
Ba1 O16 2.851114 1_655
Ba1 O16 2.867828 1_555
Ba1 O17 3.051190 1_665
Ba1 O13 3.077657 1_665
Ba1 O8 3.351537 1_555
Ba1 O5 3.430432 1_655
Ba2 O9 2.685328 1_556
Ba2 O6 2.692506 1_565
Ba2 O3 2.720930 1_565
Ba2 O15 2.820389 1_455
Ba2 O12 2.842117 1_555
Ba2 O11 2.853262 1_455
Ba2 O11 2.861927 1_555
Ba2 O14 2.937662 1_565
Ba2 O3 3.110154 1_555
Ba2 O6 3.149074 1_455
Ba3 O7 2.713409 1_455
Ba3 O5 2.723491 1_555
Ba3 O10 2.748519 1_555
Ba3 O8 2.774039 1_555
Ba3 O2 2.822974 1_555
Ba3 O14 2.838912 1_565
Ba3 O2 2.879592 1_455
Ba3 O12 3.004442 1_555
Ba3 O15 3.023551 1_455
Ba3 O10 3.110426 1_565
Ba3 O7 3.155353 1_565
Ba4 O11 2.481467 1_554
Ba4 O6 2.783069 1_554
Ba4 O3 2.789792 1_554
Ba4 O9 2.840934 1_655
Ba4 O9 2.843592 1_555
Ba4 O4 2.902781 1_545
Ba4 O1 2.935654 1_545
Ba4 O1 3.173964 1_555
Ba4 O4 3.203652 1_655
Ba5 O7 2.617347 1_555
Ba5 O10 2.629892 1_555
Ba5 O5 2.661618 1_655
Ba5 O8 2.676218 1_555
Ba5 O16 2.762865 1_545
Ba5 O0 2.840615 1_555
Ba5 O0 2.916467 1_655
Mg0 O16 1.911594 1_545
Mg0 O17 2.068171 1_655
Mg0 O13 2.075231 1_555
Mg0 O1 2.233565 1_545
Mg0 O4 2.300359 1_545
Ir0 O9 2.028009 1_555
Ir0 O6 2.072091 1_454
Ir0 O3 2.073510 1_554
Ir0 O11 2.199217 1_444
Ir0 O1 2.202120 1_445
Ir0 O4 2.211494 1_545
Ir1 O10 2.015982 1_665
Ir1 O7 2.028118 1_565
Ir1 O8 2.035775 1_555
Ir1 O5 2.042556 1_655
Ir1 O2 2.069207 1_555
Ir1 O0 2.115823 1_665
Ir2 O9 1.989005 1_555
Ir2 O16 2.114051 1_555
Ir2 O13 2.138519 1_555
Ir2 O17 2.141126 1_555
Ir2 O1 2.195785 1_555
Ir2 O4 2.204881 1_555
Ir3 O16 2.043769 1_555
Ir3 O5 2.053463 1_555
Ir3 O8 2.060601 1_555
Ir3 O0 2.102661 1_555
Ir3 O17 2.147036 1_555
Ir3 O13 2.163622 1_555
Ir4 O12 2.030942 1_555
Ir4 O15 2.031867 1_555
Ir4 O14 2.068034 1_555
Ir4 O6 2.068097 1_555
Ir4 O3 2.069078 1_555
Ir4 O11 2.088942 1_555
Ir5 O15 2.040216 1_555
Ir5 O10 2.043136 1_555
Ir5 O12 2.044928 1_555
Ir5 O7 2.049445 1_555
Ir5 O14 2.055280 1_555
Ir5 O2 2.114438 1_555
