# generated using pymatgen
data_NbSe3
_symmetry_space_group_name_H-M   'P 1'
_cell_length_a   3.45815300
_cell_length_b   15.48074632
_cell_length_c   23.39189337
_cell_angle_alpha   119.84369647
_cell_angle_beta   90.00000000
_cell_angle_gamma   90.00000000
_symmetry_Int_Tables_number   1
_chemical_formula_structural   NbSe3
_chemical_formula_sum   'Nb6 Se18'
_cell_volume   1086.21044480
_cell_formula_units_Z   6
loop_
 _symmetry_equiv_pos_site_id
 _symmetry_equiv_pos_as_xyz
  1  'x, y, z'
loop_
 _atom_site_type_symbol
 _atom_site_label
 _atom_site_symmetry_multiplicity
 _atom_site_fract_x
 _atom_site_fract_y
 _atom_site_fract_z
 _atom_site_occupancy
  Nb  Nb0  1  0.25000000  0.72567400  0.26306100  1
  Nb  Nb1  1  0.75000000  0.27432600  0.73693900  1
  Nb  Nb2  1  0.75000000  0.27815500  0.04286200  1
  Nb  Nb3  1  0.25000000  0.72184500  0.95713800  1
  Nb  Nb4  1  0.25000000  0.33194400  0.94771600  1
  Nb  Nb5  1  0.75000000  0.66805600  0.05228400  1
  Se  Se0  1  0.75000000  0.40747200  0.16935600  1
  Se  Se1  1  0.25000000  0.59252800  0.83064400  1
  Se  Se2  1  0.75000000  0.76319900  0.35382300  1
  Se  Se3  1  0.25000000  0.23680100  0.64617700  1
  Se  Se4  1  0.75000000  0.87171900  0.29663300  1
  Se  Se5  1  0.25000000  0.12828100  0.70336700  1
  Se  Se6  1  0.25000000  0.18958600  0.07566800  1
  Se  Se7  1  0.75000000  0.81041400  0.92433200  1
  Se  Se8  1  0.25000000  0.16919200  0.94252200  1
  Se  Se9  1  0.75000000  0.83080800  0.05747800  1
  Se  Se10  1  0.25000000  0.54962500  0.17952800  1
  Se  Se11  1  0.75000000  0.45037500  0.82047200  1
  Se  Se12  1  0.75000000  0.07387100  0.79473500  1
  Se  Se13  1  0.25000000  0.92612900  0.20526500  1
  Se  Se14  1  0.75000000  0.44435000  0.03535300  1
  Se  Se15  1  0.25000000  0.55565000  0.96464700  1
  Se  Se16  1  0.75000000  0.25938600  0.84819500  1
  Se  Se17  1  0.25000000  0.74061400  0.15180500  1
loop_
_geom_bond_atom_site_label_1
_geom_bond_atom_site_label_2
_geom_bond_distance
_geom_bond_site_symmetry_2
Nb0 Se10 2.438352 1_555
Nb0 Se2 2.570446 1_455
Nb0 Se2 2.570446 1_555
Nb0 Se4 2.636460 1_455
Nb0 Se4 2.636460 1_555
Nb0 Se17 2.724977 1_555
Nb1 Se11 2.438352 1_555
Nb1 Se3 2.570446 1_555
Nb1 Se3 2.570446 1_655
Nb1 Se5 2.636460 1_555
Nb1 Se5 2.636460 1_655
Nb1 Se16 2.724977 1_555
Nb2 Se6 2.550640 1_555
Nb2 Se6 2.550640 1_655
Nb2 Se0 2.620580 1_555
Nb2 Se14 2.664591 1_555
Nb2 Se8 2.720968 1_654
Nb2 Se8 2.720968 1_554
Nb3 Se7 2.550640 1_455
Nb3 Se7 2.550640 1_555
Nb3 Se1 2.620580 1_555
Nb3 Se15 2.664591 1_555
Nb3 Se9 2.720968 1_456
Nb3 Se9 2.720968 1_556
Nb4 Se8 2.461318 1_555
Nb4 Se14 2.582605 1_556
Nb4 Se14 2.582605 1_456
Nb4 Se16 2.658640 1_555
Nb4 Se16 2.658640 1_455
Nb4 Se15 3.284065 1_555
Nb5 Se9 2.461318 1_555
Nb5 Se15 2.582605 1_554
Nb5 Se15 2.582605 1_654
Nb5 Se17 2.658640 1_655
Nb5 Se17 2.658640 1_555
Nb5 Se14 3.284065 1_555
Se12 Se16 2.497452 1_555
Se13 Se17 2.497452 1_555
