# generated using pymatgen
data_YCo3P2
_symmetry_space_group_name_H-M   'P 1'
_cell_length_a   3.68901066
_cell_length_b   10.42490742
_cell_length_c   12.11657130
_cell_angle_alpha   90.00000000
_cell_angle_beta   90.00000000
_cell_angle_gamma   90.00000000
_symmetry_Int_Tables_number   1
_chemical_formula_structural   YCo3P2
_chemical_formula_sum   'Y6 Co18 P12'
_cell_volume   465.97418702
_cell_formula_units_Z   6
loop_
 _symmetry_equiv_pos_site_id
 _symmetry_equiv_pos_as_xyz
  1  'x, y, z'
loop_
 _atom_site_type_symbol
 _atom_site_label
 _atom_site_symmetry_multiplicity
 _atom_site_fract_x
 _atom_site_fract_y
 _atom_site_fract_z
 _atom_site_occupancy
  Y  Y0  1  0.00000000  0.50000000  0.52127841  1
  Y  Y1  1  0.50000000  0.00000000  0.47872159  1
  Y  Y2  1  0.50000000  0.81736945  0.20602614  1
  Y  Y3  1  0.50000000  0.18263055  0.20602614  1
  Y  Y4  1  0.00000000  0.68263055  0.79397386  1
  Y  Y5  1  -0.00000000  0.31736945  0.79397386  1
  Co  Co0  1  0.50000000  0.50000000  0.15491948  1
  Co  Co1  1  0.00000000  0.00000000  0.84508052  1
  Co  Co2  1  0.50000000  0.50000000  0.70335735  1
  Co  Co3  1  0.00000000  0.00000000  0.29664265  1
  Co  Co4  1  -0.00000000  0.50000000  0.98696118  1
  Co  Co5  1  0.50000000  0.00000000  0.01303882  1
  Co  Co6  1  0.50000000  0.33322627  0.99513226  1
  Co  Co7  1  0.50000000  0.66677373  0.99513226  1
  Co  Co8  1  -0.00000000  0.16677373  0.00486774  1
  Co  Co9  1  0.00000000  0.83322627  0.00486774  1
  Co  Co10  1  0.50000000  0.29669018  0.43068084  1
  Co  Co11  1  0.50000000  0.70330982  0.43068084  1
  Co  Co12  1  -0.00000000  0.20330982  0.56931916  1
  Co  Co13  1  -0.00000000  0.79669018  0.56931916  1
  Co  Co14  1  0.50000000  0.88041214  0.71019595  1
  Co  Co15  1  0.50000000  0.11958786  0.71019595  1
  Co  Co16  1  0.00000000  0.61958786  0.28980405  1
  Co  Co17  1  0.00000000  0.38041214  0.28980405  1
  P  P0  1  0.50000000  0.50000000  0.88243773  1
  P  P1  1  -0.00000000  0.00000000  0.11756227  1
  P  P2  1  0.50000000  0.50000000  0.34260695  1
  P  P3  1  0.00000000  0.00000000  0.65739305  1
  P  P4  1  0.50000000  0.31007501  0.61520183  1
  P  P5  1  0.50000000  0.68992499  0.61520183  1
  P  P6  1  0.00000000  0.18992499  0.38479817  1
  P  P7  1  0.00000000  0.81007501  0.38479817  1
  P  P8  1  0.50000000  0.84654439  0.89391455  1
  P  P9  1  0.50000000  0.15345561  0.89391455  1
  P  P10  1  0.00000000  0.65345561  0.10608545  1
  P  P11  1  -0.00000000  0.34654439  0.10608545  1
loop_
_geom_bond_atom_site_label_1
_geom_bond_atom_site_label_2
_geom_bond_distance
_geom_bond_site_symmetry_2
Co0 P2 2.274129 1_555
Co0 P10 2.512279 1_555
Co0 P10 2.512279 1_655
Co0 P11 2.512279 1_655
Co0 P11 2.512279 1_555
Co1 P3 2.274129 1_555
Co1 P8 2.512279 1_545
Co1 P8 2.512279 1_445
Co1 P9 2.512279 1_555
Co1 P9 2.512279 1_455
Co2 P0 2.169840 1_555
Co2 P5 2.249696 1_555
Co2 P4 2.249696 1_555
Co2 Y5 2.869247 1_655
Co2 Y5 2.869247 1_555
Co2 Y4 2.869247 1_555
Co2 Y4 2.869247 1_655
Co2 Y0 2.875656 1_555
Co2 Y0 2.875656 1_655
Co3 P1 2.169840 1_555
Co3 P7 2.249696 1_545
Co3 P6 2.249696 1_555
Co3 Y2 2.869247 1_545
Co3 Y2 2.869247 1_445
Co3 Y3 2.869247 1_455
Co3 Y3 2.869247 1_555
Co3 Y1 2.875656 1_455
Co3 Y1 2.875656 1_555
Co4 P10 2.154663 1_556
Co4 P11 2.154663 1_556
Co4 P0 2.237440 1_555
Co4 P0 2.237440 1_455
Co4 Y5 3.015413 1_555
Co4 Y4 3.015413 1_555
Co5 P8 2.154663 1_544
Co5 P9 2.154663 1_554
Co5 P1 2.237440 1_655
Co5 P1 2.237440 1_555
Co5 Y2 3.015413 1_545
Co5 Y3 3.015413 1_555
Co6 P0 2.210711 1_555
Co6 P9 2.239712 1_555
Co6 P11 2.286660 1_556
Co6 P11 2.286660 1_656
Co6 Y3 2.999057 1_556
Co6 Y5 3.061078 1_655
Co6 Y5 3.061078 1_555
Co7 P0 2.210711 1_555
Co7 P8 2.239712 1_555
Co7 P10 2.286660 1_556
Co7 P10 2.286660 1_656
Co7 Y2 2.999057 1_556
Co7 Y4 3.061078 1_655
Co7 Y4 3.061078 1_555
Co8 P1 2.210711 1_555
Co8 P11 2.239712 1_555
Co8 P9 2.286660 1_554
Co8 P9 2.286660 1_454
Co8 Y5 2.999057 1_554
Co8 Y3 3.061078 1_455
Co8 Y3 3.061078 1_555
Co9 P1 2.210711 1_565
Co9 P10 2.239712 1_555
Co9 P8 2.286660 1_454
Co9 P8 2.286660 1_554
Co9 Y4 2.999057 1_554
Co9 Y2 3.061078 1_555
Co9 Y2 3.061078 1_455
Co10 P6 2.224877 1_655
Co10 P6 2.224877 1_555
Co10 P4 2.240112 1_555
Co10 P2 2.372981 1_555
Co10 Y3 2.970420 1_555
Co10 Y0 3.016527 1_655
Co10 Y0 3.016527 1_555
Co10 Y1 3.147265 1_555
Co11 P7 2.224877 1_655
Co11 P7 2.224877 1_555
Co11 P5 2.240112 1_555
Co11 P2 2.372981 1_555
Co11 Y2 2.970420 1_555
Co11 Y0 3.016527 1_655
Co11 Y0 3.016527 1_555
Co11 Y1 3.147265 1_565
Co12 P4 2.224877 1_555
Co12 P4 2.224877 1_455
Co12 P6 2.240112 1_555
Co12 P3 2.372981 1_555
Co12 Y5 2.970420 1_555
Co12 Y1 3.016527 1_455
Co12 Y1 3.016527 1_555
Co12 Y0 3.147265 1_555
Co13 P5 2.224877 1_555
Co13 P5 2.224877 1_455
Co13 P7 2.240112 1_555
Co13 P3 2.372981 1_565
Co13 Y4 2.970420 1_555
Co13 Y1 3.016527 1_565
Co13 Y1 3.016527 1_465
Co13 Y0 3.147265 1_555
Co14 P8 2.253865 1_555
Co14 P5 2.295268 1_555
Co14 P3 2.316414 1_665
Co14 P3 2.316414 1_565
Co14 Y4 2.946842 1_655
Co14 Y4 2.946842 1_555
Co14 Y1 3.069275 1_565
Co15 P9 2.253865 1_555
Co15 P4 2.295268 1_555
Co15 P3 2.316414 1_555
Co15 P3 2.316414 1_655
Co15 Y5 2.946842 1_655
Co15 Y5 2.946842 1_555
Co15 Y1 3.069275 1_555
Co16 P10 2.253865 1_555
Co16 P7 2.295268 1_555
Co16 P2 2.316414 1_555
Co16 P2 2.316414 1_455
Co16 Y2 2.946842 1_455
Co16 Y2 2.946842 1_555
Co16 Y0 3.069275 1_555
Co17 P11 2.253865 1_555
Co17 P6 2.295268 1_555
Co17 P2 2.316414 1_555
Co17 P2 2.316414 1_455
Co17 Y3 2.946842 1_455
Co17 Y3 2.946842 1_555
Co17 Y0 3.069275 1_555
P0 Y5 2.859368 1_655
P0 Y5 2.859368 1_555
P0 Y4 2.859368 1_655
P0 Y4 2.859368 1_555
P1 Y2 2.859368 1_545
P1 Y2 2.859368 1_445
P1 Y3 2.859368 1_455
P1 Y3 2.859368 1_555
P2 Y0 2.844104 1_655
P2 Y0 2.844104 1_555
P3 Y1 2.844104 1_555
P3 Y1 2.844104 1_455
P4 Y5 2.846048 1_555
P4 Y5 2.846048 1_655
P4 Y0 2.935561 1_655
P4 Y0 2.935561 1_555
P5 Y4 2.846048 1_555
P5 Y4 2.846048 1_655
P5 Y0 2.935561 1_655
P5 Y0 2.935561 1_555
P6 Y3 2.846048 1_455
P6 Y3 2.846048 1_555
P6 Y1 2.935561 1_455
P6 Y1 2.935561 1_555
P7 Y2 2.846048 1_455
P7 Y2 2.846048 1_555
P7 Y1 2.935561 1_565
P7 Y1 2.935561 1_465
P8 Y4 2.790793 1_655
P8 Y4 2.790793 1_555
P9 Y5 2.790793 1_655
P9 Y5 2.790793 1_555
P10 Y2 2.790793 1_455
P10 Y2 2.790793 1_555
P11 Y3 2.790793 1_455
P11 Y3 2.790793 1_555
