# generated using pymatgen
data_Ce3(SiNi)4
_symmetry_space_group_name_H-M   'P 1'
_cell_length_a   12.11718257
_cell_length_b   12.11718257
_cell_length_c   12.11718257
_cell_angle_alpha   161.08856251
_cell_angle_beta   160.75643844
_cell_angle_gamma   27.10830787
_symmetry_Int_Tables_number   1
_chemical_formula_structural   Ce3(SiNi)4
_chemical_formula_sum   'Ce3 Si4 Ni4'
_cell_volume   189.97045409
_cell_formula_units_Z   1
loop_
 _symmetry_equiv_pos_site_id
 _symmetry_equiv_pos_as_xyz
  1  'x, y, z'
loop_
 _atom_site_type_symbol
 _atom_site_label
 _atom_site_symmetry_multiplicity
 _atom_site_fract_x
 _atom_site_fract_y
 _atom_site_fract_z
 _atom_site_occupancy
  Ce  Ce0  1  0.35065500  0.85065500  0.50000000  1
  Ce  Ce1  1  0.64934500  0.14934500  0.50000000  1
  Ce  Ce2  1  0.00000000  0.00000000  0.00000000  1
  Si  Si0  1  0.19753000  0.69753000  0.50000000  1
  Si  Si1  1  0.80247000  0.30247000  0.50000000  1
  Si  Si2  1  0.44919600  0.44919600  0.00000000  1
  Si  Si3  1  0.55080400  0.55080400  0.00000000  1
  Ni  Ni0  1  0.09740100  0.59740100  0.50000000  1
  Ni  Ni1  1  0.90259900  0.40259900  0.50000000  1
  Ni  Ni2  1  0.24955000  0.24955000  0.00000000  1
  Ni  Ni3  1  0.75045000  0.75045000  0.00000000  1
loop_
_geom_bond_atom_site_label_1
_geom_bond_atom_site_label_2
_geom_bond_distance
_geom_bond_site_symmetry_2
Ce0 Si2 3.058180 1_566
Ce0 Si2 3.058180 1_555
Ce0 Si1 3.058327 1_465
Ce0 Si1 3.058327 1_454
Ce0 Si1 3.058327 1_555
Ce0 Si1 3.058327 1_566
Ce0 Ni1 3.092293 1_454
Ce0 Ni1 3.092293 1_555
Ce0 Ni1 3.092293 1_465
Ce0 Ni1 3.092293 1_566
Ce0 Ni2 3.104285 1_555
Ce0 Ni2 3.104285 1_566
Ce0 Ni3 3.110485 1_556
Ce0 Ni3 3.110485 1_455
Ce1 Si3 3.058180 1_545
Ce1 Si3 3.058180 1_556
Ce1 Si0 3.058327 1_555
Ce1 Si0 3.058327 1_656
Ce1 Si0 3.058327 1_645
Ce1 Si0 3.058327 1_544
Ce1 Ni0 3.092293 1_645
Ce1 Ni0 3.092293 1_544
Ce1 Ni0 3.092293 1_656
Ce1 Ni0 3.092293 1_555
Ce1 Ni3 3.104285 1_545
Ce1 Ni3 3.104285 1_556
Ce1 Ni2 3.110485 1_656
Ce1 Ni2 3.110485 1_555
Ce2 Ni0 3.037842 1_544
Ce2 Ni1 3.037842 1_455
Ce2 Ni0 3.037842 1_555
Ce2 Ni1 3.037842 1_444
Ce2 Si3 3.081763 1_545
Ce2 Si3 3.081763 1_455
Ce2 Si3 3.081763 1_444
Ce2 Si3 3.081763 1_556
Ce2 Si2 3.081763 1_455
Ce2 Si2 3.081763 1_545
Ce2 Si2 3.081763 1_556
Ce2 Si2 3.081763 1_444
Si2 Si3 2.393825 1_555
Ni0 Si3 2.303701 1_455
Ni0 Si3 2.303701 1_556
Ni0 Si0 2.358980 1_555
Ni1 Si2 2.303701 1_656
Ni1 Si2 2.303701 1_555
Ni1 Si1 2.358980 1_555
Ni2 Si0 2.337688 1_544
Ni2 Si0 2.337688 1_555
Ni2 Si1 2.378297 1_454
Ni2 Si1 2.378297 1_555
Ni3 Si1 2.337688 1_565
Ni3 Si1 2.337688 1_554
Ni3 Si0 2.378297 1_655
Ni3 Si0 2.378297 1_554
