# generated using pymatgen
data_Ba2YMn3O7
_symmetry_space_group_name_H-M   'P 1'
_cell_length_a   5.66979790
_cell_length_b   5.66973791
_cell_length_c   11.86608100
_cell_angle_alpha   90.00024138
_cell_angle_beta   89.99971753
_cell_angle_gamma   87.77741030
_symmetry_Int_Tables_number   1
_chemical_formula_structural   Ba2YMn3O7
_chemical_formula_sum   'Ba4 Y2 Mn6 O14'
_cell_volume   381.16325772
_cell_formula_units_Z   2
loop_
 _symmetry_equiv_pos_site_id
 _symmetry_equiv_pos_as_xyz
  1  'x, y, z'
loop_
 _atom_site_type_symbol
 _atom_site_label
 _atom_site_symmetry_multiplicity
 _atom_site_fract_x
 _atom_site_fract_y
 _atom_site_fract_z
 _atom_site_occupancy
  Ba  Ba0  1  0.50002100  0.00000300  0.81937500  1
  Ba  Ba1  1  0.99997800  0.49999400  0.81937600  1
  Ba  Ba2  1  0.50001800  0.00000400  0.18062900  1
  Ba  Ba3  1  0.99997700  0.49999400  0.18062900  1
  Y  Y0  1  0.49998600  0.99999300  0.49999300  1
  Y  Y1  1  0.99999400  0.49999300  0.49999300  1
  Mn  Mn0  1  0.99996800  0.00004200  0.00001300  1
  Mn  Mn1  1  0.49989400  0.50011300  0.99997800  1
  Mn  Mn2  1  0.00003400  0.99994500  0.65473200  1
  Mn  Mn3  1  0.50000300  0.49999300  0.65295500  1
  Mn  Mn4  1  0.50001300  0.49997900  0.34703700  1
  Mn  Mn5  1  0.00000100  0.99999700  0.34527500  1
  O  O0  1  0.76595100  0.76590000  0.00002400  1
  O  O1  1  0.23418800  0.23413700  0.00002300  1
  O  O2  1  0.25015900  0.74982600  0.61870300  1
  O  O3  1  0.74983300  0.25015100  0.61870400  1
  O  O4  1  0.74984300  0.25013700  0.38123200  1
  O  O5  1  0.25015000  0.74983200  0.38123400  1
  O  O6  1  0.25001300  0.25001700  0.62041400  1
  O  O7  1  0.74997300  0.74997700  0.62041600  1
  O  O8  1  0.74998300  0.74998900  0.37953100  1
  O  O9  1  0.24999600  0.25000400  0.37953200  1
  O  O10  1  0.00003100  0.99999200  0.83588200  1
  O  O11  1  0.49998500  0.49999700  0.83003200  1
  O  O12  1  0.49998100  0.50000000  0.17009200  1
  O  O13  1  0.00002800  0.99999600  0.16419200  1
loop_
_geom_bond_atom_site_label_1
_geom_bond_atom_site_label_2
_geom_bond_distance
_geom_bond_site_symmetry_2
Ba0 O11 2.837646 1_555
Ba0 O11 2.837730 1_545
Ba0 O10 2.841603 1_545
Ba0 O10 2.841713 1_645
Ba0 O1 2.910948 1_556
Ba0 O0 2.911174 1_546
Ba0 O7 3.071762 1_545
Ba0 O6 3.071911 1_555
Ba0 O3 3.137429 1_555
Ba0 O2 3.137649 1_545
Ba1 O11 2.837677 1_555
Ba1 O11 2.837758 1_655
Ba1 O10 2.841626 1_655
Ba1 O10 2.841627 1_645
Ba1 O0 2.910888 1_556
Ba1 O1 2.911212 1_656
Ba1 O7 3.071816 1_555
Ba1 O6 3.071875 1_655
Ba1 O3 3.137514 1_555
Ba1 O2 3.137588 1_655
Ba2 O12 2.837595 1_555
Ba2 O12 2.837655 1_545
Ba2 O13 2.841547 1_545
Ba2 O13 2.841654 1_645
Ba2 O1 2.910589 1_555
Ba2 O0 2.910781 1_545
Ba2 O8 3.071267 1_545
Ba2 O9 3.071362 1_555
Ba2 O4 3.136813 1_555
Ba2 O5 3.137047 1_545
Ba3 O12 2.837632 1_555
Ba3 O12 2.837678 1_655
Ba3 O13 2.841547 1_645
Ba3 O13 2.841594 1_655
Ba3 O0 2.910529 1_555
Ba3 O1 2.910837 1_655
Ba3 O8 3.071270 1_555
Ba3 O9 3.071349 1_655
Ba3 O4 3.136899 1_555
Ba3 O5 3.136972 1_655
Mn0 O0 1.912960 1_545
Mn0 O1 1.913597 1_655
Mn0 O10 1.947592 1_644
Mn0 O13 1.948161 1_645
Mn1 O11 2.016593 1_555
Mn1 O12 2.018587 1_556
Mn1 O1 2.172523 1_556
Mn1 O0 2.173185 1_556
Mn2 O2 2.012208 1_555
Mn2 O3 2.012838 1_465
Mn2 O7 2.083366 1_455
Mn2 O6 2.083458 1_565
Mn2 O10 2.149541 1_555
Mn3 O3 2.005630 1_555
Mn3 O2 2.005657 1_555
Mn3 O7 2.079046 1_555
Mn3 O6 2.079099 1_555
Mn3 O11 2.101210 1_555
Mn4 O4 2.005501 1_555
Mn4 O5 2.005670 1_555
Mn4 O8 2.079052 1_555
Mn4 O9 2.079102 1_555
Mn4 O12 2.099644 1_555
Mn5 O4 2.012235 1_465
Mn5 O5 2.012307 1_555
Mn5 O9 2.083121 1_565
Mn5 O8 2.083214 1_455
Mn5 O13 2.148746 1_555
O2 Y0 2.481579 1_555
O2 Y1 2.481594 1_455
O3 Y1 2.481616 1_555
O3 Y0 2.481624 1_545
O4 Y0 2.481946 1_545
O4 Y1 2.481968 1_555
O5 Y1 2.481913 1_455
O5 Y0 2.481921 1_555
O6 Y0 2.429854 1_545
O6 Y1 2.429863 1_455
O7 Y1 2.429894 1_555
O7 Y0 2.429903 1_555
O8 Y0 2.430153 1_555
O8 Y1 2.430187 1_555
O9 Y1 2.430114 1_455
O9 Y0 2.430161 1_545
