# generated using pymatgen
data_EuUO3
_symmetry_space_group_name_H-M   'P 1'
_cell_length_a   5.94366600
_cell_length_b   6.17415500
_cell_length_c   8.54896700
_cell_angle_alpha   90.00000000
_cell_angle_beta   90.00000000
_cell_angle_gamma   90.00000000
_symmetry_Int_Tables_number   1
_chemical_formula_structural   EuUO3
_chemical_formula_sum   'Eu4 U4 O12'
_cell_volume   313.72242643
_cell_formula_units_Z   4
loop_
 _symmetry_equiv_pos_site_id
 _symmetry_equiv_pos_as_xyz
  1  'x, y, z'
loop_
 _atom_site_type_symbol
 _atom_site_label
 _atom_site_symmetry_multiplicity
 _atom_site_fract_x
 _atom_site_fract_y
 _atom_site_fract_z
 _atom_site_occupancy
  Eu  Eu0  1  0.01107000  0.45128000  0.25000000  1
  Eu  Eu1  1  0.98893000  0.54872000  0.75000000  1
  Eu  Eu2  1  0.51107000  0.04872000  0.75000000  1
  Eu  Eu3  1  0.48893000  0.95128000  0.25000000  1
  U  U0  1  0.00000000  0.00000000  0.00000000  1
  U  U1  1  0.50000000  0.50000000  0.00000000  1
  U  U2  1  0.00000000  0.00000000  0.50000000  1
  U  U3  1  0.50000000  0.50000000  0.50000000  1
  O  O0  1  0.30395600  0.19419300  0.05981100  1
  O  O1  1  0.69604400  0.80580700  0.94018900  1
  O  O2  1  0.80395600  0.30580700  0.94018900  1
  O  O3  1  0.69604400  0.80580700  0.55981100  1
  O  O4  1  0.19604400  0.69419300  0.05981100  1
  O  O5  1  0.30395600  0.19419300  0.44018900  1
  O  O6  1  0.19604400  0.69419300  0.44018900  1
  O  O7  1  0.80395600  0.30580700  0.55981100  1
  O  O8  1  0.61287900  0.54744900  0.25000000  1
  O  O9  1  0.38712100  0.45255100  0.75000000  1
  O  O10  1  0.11287900  0.95255100  0.75000000  1
  O  O11  1  0.88712100  0.04744900  0.25000000  1
loop_
_geom_bond_atom_site_label_1
_geom_bond_atom_site_label_2
_geom_bond_distance
_geom_bond_site_symmetry_2
Eu0 O8 2.440059 1_455
Eu0 O6 2.470161 1_555
Eu0 O4 2.470161 1_555
Eu0 O11 2.599878 1_455
Eu0 O5 2.862440 1_555
Eu0 O0 2.862440 1_555
Eu0 O7 3.055652 1_455
Eu0 O2 3.055652 1_454
Eu1 O9 2.440059 1_655
Eu1 O2 2.470161 1_555
Eu1 O7 2.470161 1_555
Eu1 O10 2.599878 1_655
Eu1 O1 2.862440 1_555
Eu1 O3 2.862440 1_555
Eu1 O4 3.055652 1_656
Eu1 O6 3.055652 1_655
Eu2 O10 2.440059 1_545
Eu2 O1 2.470161 1_545
Eu2 O3 2.470161 1_545
Eu2 O9 2.599878 1_555
Eu2 O2 2.862440 1_555
Eu2 O7 2.862440 1_555
Eu2 O0 3.055652 1_556
Eu2 O5 3.055652 1_555
Eu3 O11 2.440059 1_565
Eu3 O5 2.470161 1_565
Eu3 O0 2.470161 1_565
Eu3 O8 2.599878 1_555
Eu3 O6 2.862440 1_555
Eu3 O4 2.862440 1_555
Eu3 O3 3.055652 1_555
Eu3 O1 3.055652 1_554
O0 U0 2.227745 1_555
O0 U1 2.276864 1_555
O1 U0 2.227745 1_666
O1 U1 2.276864 1_556
O2 U1 2.227745 1_556
O2 U0 2.276864 1_656
O3 U2 2.227745 1_665
O3 U3 2.276864 1_555
O4 U1 2.227745 1_555
O4 U0 2.276864 1_565
O5 U2 2.227745 1_555
O5 U3 2.276864 1_555
O6 U3 2.227745 1_555
O6 U2 2.276864 1_565
O7 U3 2.227745 1_555
O7 U2 2.276864 1_655
O8 U1 2.259149 1_555
O8 U3 2.259149 1_555
O9 U1 2.259149 1_556
O9 U3 2.259149 1_555
O10 U0 2.259149 1_566
O10 U2 2.259149 1_565
O11 U0 2.259149 1_655
O11 U2 2.259149 1_655
