# generated using pymatgen
data_Al3GaN4
_symmetry_space_group_name_H-M   'P 1'
_cell_length_a   4.40143853
_cell_length_b   4.40143853
_cell_length_c   4.40143853
_cell_angle_alpha   90.00000000
_cell_angle_beta   90.00000000
_cell_angle_gamma   90.00000000
_symmetry_Int_Tables_number   1
_chemical_formula_structural   Al3GaN4
_chemical_formula_sum   'Al3 Ga1 N4'
_cell_volume   85.26757714
_cell_formula_units_Z   1
loop_
 _symmetry_equiv_pos_site_id
 _symmetry_equiv_pos_as_xyz
  1  'x, y, z'
loop_
 _atom_site_type_symbol
 _atom_site_label
 _atom_site_symmetry_multiplicity
 _atom_site_fract_x
 _atom_site_fract_y
 _atom_site_fract_z
 _atom_site_occupancy
  Al  Al0  1  0.50000000  0.50000000  -0.00000000  1
  Al  Al1  1  0.50000000  0.00000000  0.50000000  1
  Al  Al2  1  -0.00000000  0.50000000  0.50000000  1
  Ga  Ga0  1  -0.00000000  0.00000000  -0.00000000  1
  N  N0  1  0.74416343  0.74416343  0.25583657  1
  N  N1  1  0.74416343  0.25583657  0.74416343  1
  N  N2  1  0.25583657  0.74416343  0.74416343  1
  N  N3  1  0.25583657  0.25583657  0.25583657  1
loop_
_geom_bond_atom_site_label_1
_geom_bond_atom_site_label_2
_geom_bond_distance
_geom_bond_site_symmetry_2
Al0 N0 1.891512 1_555
Al0 N3 1.891512 1_555
Al0 N1 1.891512 1_554
Al0 N2 1.891512 1_554
Al1 N1 1.891512 1_555
Al1 N0 1.891512 1_545
Al1 N3 1.891512 1_555
Al1 N2 1.891512 1_545
Al2 N2 1.891512 1_555
Al2 N3 1.891512 1_555
Al2 N0 1.891512 1_455
Al2 N1 1.891512 1_455
Ga0 N3 1.950374 1_555
Ga0 N1 1.950374 1_454
Ga0 N0 1.950374 1_445
Ga0 N2 1.950374 1_544
