# generated using pymatgen
data_Na3Sr3GaAs4
_symmetry_space_group_name_H-M   'P 1'
_cell_length_a   9.69215573
_cell_length_b   9.69215573
_cell_length_c   7.60142200
_cell_angle_alpha   90.00000000
_cell_angle_beta   90.00000000
_cell_angle_gamma   119.99999815
_symmetry_Int_Tables_number   1
_chemical_formula_structural   Na3Sr3GaAs4
_chemical_formula_sum   'Na6 Sr6 Ga2 As8'
_cell_volume   618.39539996
_cell_formula_units_Z   2
loop_
 _symmetry_equiv_pos_site_id
 _symmetry_equiv_pos_as_xyz
  1  'x, y, z'
loop_
 _atom_site_type_symbol
 _atom_site_label
 _atom_site_symmetry_multiplicity
 _atom_site_fract_x
 _atom_site_fract_y
 _atom_site_fract_z
 _atom_site_occupancy
  Na  Na0  1  0.13644600  0.86355400  0.16973100  1
  Na  Na1  1  0.27289200  0.13644600  0.66973100  1
  Na  Na2  1  0.86355400  0.72710800  0.66973100  1
  Na  Na3  1  0.72710800  0.86355400  0.16973100  1
  Na  Na4  1  0.86355400  0.13644600  0.66973100  1
  Na  Na5  1  0.13644600  0.27289200  0.16973100  1
  Sr  Sr0  1  0.95577700  0.47788800  0.99884700  1
  Sr  Sr1  1  0.52211200  0.04422300  0.99884700  1
  Sr  Sr2  1  0.47788800  0.95577700  0.49884700  1
  Sr  Sr3  1  0.04422300  0.52211200  0.49884700  1
  Sr  Sr4  1  0.52211200  0.47788800  0.99884700  1
  Sr  Sr5  1  0.47788800  0.52211200  0.49884700  1
  Ga  Ga0  1  0.66666700  0.33333300  0.37332200  1
  Ga  Ga1  1  0.33333300  0.66666700  0.87332200  1
  As  As0  1  0.81113000  0.18887000  0.27806600  1
  As  As1  1  0.18887000  0.37774000  0.77806600  1
  As  As2  1  0.81113000  0.62226000  0.27806600  1
  As  As3  1  0.66666700  0.33333300  0.71784700  1
  As  As4  1  0.62226000  0.81113000  0.77806600  1
  As  As5  1  0.33333300  0.66666700  0.21784700  1
  As  As6  1  0.18887000  0.81113000  0.77806600  1
  As  As7  1  0.37774000  0.18887000  0.27806600  1
loop_
_geom_bond_atom_site_label_1
_geom_bond_atom_site_label_2
_geom_bond_distance
_geom_bond_site_symmetry_2
Ga0 Sr3 3.309602 1_655
Ga0 Sr2 3.309602 1_545
Ga0 Sr5 3.309618 1_555
Ga1 Sr1 3.309602 1_565
Ga1 Sr0 3.309602 1_455
Ga1 Sr4 3.309618 1_555
As0 Ga0 2.530933 1_555
As0 Na5 2.952143 1_655
As0 Na3 2.952143 1_545
As0 Na4 3.104559 1_555
As0 Sr0 3.223339 1_554
As0 Sr1 3.223339 1_554
As0 Sr3 3.324975 1_655
As0 Sr2 3.324975 1_545
As1 Ga1 2.530941 1_555
As1 Na1 2.952143 1_555
As1 Na4 2.952143 1_455
As1 Na5 3.104559 1_556
As1 Sr5 3.223339 1_555
As1 Sr3 3.223346 1_555
As1 Sr0 3.324968 1_455
As1 Sr4 3.324977 1_555
As2 Ga0 2.530941 1_555
As2 Na3 2.952143 1_555
As2 Na0 2.952143 1_655
As2 Na2 3.104559 1_555
As2 Sr4 3.223339 1_554
As2 Sr0 3.223346 1_554
As2 Sr3 3.324968 1_655
As2 Sr5 3.324977 1_555
As3 Ga0 2.618880 1_555
As3 Sr4 3.232849 1_555
As3 Sr1 3.232849 1_555
As3 Sr0 3.232849 1_555
As3 Na4 3.325377 1_555
As3 Na2 3.325386 1_555
As3 Na1 3.325386 1_555
As3 Sr3 3.579706 1_655
As3 Sr2 3.579706 1_545
As3 Sr5 3.579721 1_555
As4 Ga1 2.530941 1_555
As4 Na2 2.952143 1_555
As4 Na4 2.952143 1_565
As4 Na3 3.104559 1_556
As4 Sr5 3.223339 1_555
As4 Sr2 3.223346 1_555
As4 Sr1 3.324968 1_565
As4 Sr4 3.324977 1_555
As5 Ga1 2.618880 1_554
As5 Sr5 3.232849 1_555
As5 Sr2 3.232849 1_555
As5 Sr3 3.232849 1_555
As5 Na0 3.325377 1_555
As5 Na3 3.325386 1_555
As5 Na5 3.325386 1_555
As5 Sr1 3.579706 1_564
As5 Sr0 3.579706 1_454
As5 Sr4 3.579721 1_554
As6 Ga1 2.530933 1_555
As6 Na1 2.952143 1_565
As6 Na2 2.952143 1_455
As6 Na0 3.104559 1_556
As6 Sr2 3.223339 1_555
As6 Sr3 3.223339 1_555
As6 Sr1 3.324975 1_565
As6 Sr0 3.324975 1_455
As7 Ga0 2.530941 1_555
As7 Na5 2.952143 1_555
As7 Na0 2.952143 1_545
As7 Na1 3.104559 1_555
As7 Sr4 3.223339 1_554
As7 Sr1 3.223346 1_554
As7 Sr2 3.324968 1_545
As7 Sr5 3.324977 1_555
