# generated using pymatgen
data_Ba3NaSi23
_symmetry_space_group_name_H-M   'P 1'
_cell_length_a   10.32748600
_cell_length_b   10.32748600
_cell_length_c   10.32748600
_cell_angle_alpha   90.00000000
_cell_angle_beta   90.00000000
_cell_angle_gamma   90.00000000
_symmetry_Int_Tables_number   1
_chemical_formula_structural   Ba3NaSi23
_chemical_formula_sum   'Ba6 Na2 Si46'
_cell_volume   1101.49833432
_cell_formula_units_Z   2
loop_
 _symmetry_equiv_pos_site_id
 _symmetry_equiv_pos_as_xyz
  1  'x, y, z'
loop_
 _atom_site_type_symbol
 _atom_site_label
 _atom_site_symmetry_multiplicity
 _atom_site_fract_x
 _atom_site_fract_y
 _atom_site_fract_z
 _atom_site_occupancy
  Ba  Ba0  1  0.25000000  0.50000000  0.00000000  1
  Ba  Ba1  1  0.00000000  0.25000000  0.50000000  1
  Ba  Ba2  1  0.00000000  0.75000000  0.50000000  1
  Ba  Ba3  1  0.50000000  0.00000000  0.75000000  1
  Ba  Ba4  1  0.50000000  0.00000000  0.25000000  1
  Ba  Ba5  1  0.75000000  0.50000000  0.00000000  1
  Na  Na0  1  0.00000000  0.00000000  0.00000000  1
  Na  Na1  1  0.50000000  0.50000000  0.50000000  1
  Si  Si0  1  0.31586500  0.68413500  0.31586500  1
  Si  Si1  1  0.50000000  0.37964000  0.19571200  1
  Si  Si2  1  0.50000000  0.62036000  0.80428800  1
  Si  Si3  1  0.37964000  0.19571200  0.50000000  1
  Si  Si4  1  0.62036000  0.19571200  0.50000000  1
  Si  Si5  1  0.19571200  0.50000000  0.37964000  1
  Si  Si6  1  0.25000000  0.00000000  0.50000000  1
  Si  Si7  1  0.75000000  0.00000000  0.50000000  1
  Si  Si8  1  0.00000000  0.50000000  0.25000000  1
  Si  Si9  1  0.00000000  0.50000000  0.75000000  1
  Si  Si10  1  0.50000000  0.75000000  0.00000000  1
  Si  Si11  1  0.50000000  0.25000000  0.00000000  1
  Si  Si12  1  0.18413500  0.18413500  0.18413500  1
  Si  Si13  1  0.68413500  0.31586500  0.68413500  1
  Si  Si14  1  0.68413500  0.68413500  0.31586500  1
  Si  Si15  1  0.31586500  0.68413500  0.68413500  1
  Si  Si16  1  0.81586500  0.81586500  0.18413500  1
  Si  Si17  1  0.18413500  0.81586500  0.81586500  1
  Si  Si18  1  0.81586500  0.18413500  0.81586500  1
  Si  Si19  1  0.31586500  0.31586500  0.31586500  1
  Si  Si20  1  0.81586500  0.81586500  0.81586500  1
  Si  Si21  1  0.81586500  0.18413500  0.18413500  1
  Si  Si22  1  0.31586500  0.31586500  0.68413500  1
  Si  Si23  1  0.68413500  0.31586500  0.31586500  1
  Si  Si24  1  0.18413500  0.18413500  0.81586500  1
  Si  Si25  1  0.18413500  0.81586500  0.18413500  1
  Si  Si26  1  0.00000000  0.69571200  0.12036000  1
  Si  Si27  1  0.68413500  0.68413500  0.68413500  1
  Si  Si28  1  0.00000000  0.30428800  0.12036000  1
  Si  Si29  1  0.50000000  0.37964000  0.80428800  1
  Si  Si30  1  0.50000000  0.62036000  0.19571200  1
  Si  Si31  1  0.62036000  0.80428800  0.50000000  1
  Si  Si32  1  0.37964000  0.80428800  0.50000000  1
  Si  Si33  1  0.19571200  0.50000000  0.62036000  1
  Si  Si34  1  0.80428800  0.50000000  0.62036000  1
  Si  Si35  1  0.12036000  0.00000000  0.30428800  1
  Si  Si36  1  0.30428800  0.12036000  0.00000000  1
  Si  Si37  1  0.69571200  0.87964000  0.00000000  1
  Si  Si38  1  0.12036000  0.00000000  0.69571200  1
  Si  Si39  1  0.69571200  0.12036000  0.00000000  1
  Si  Si40  1  0.87964000  0.00000000  0.30428800  1
  Si  Si41  1  0.87964000  0.00000000  0.69571200  1
  Si  Si42  1  0.30428800  0.87964000  0.00000000  1
  Si  Si43  1  0.00000000  0.69571200  0.87964000  1
  Si  Si44  1  0.00000000  0.30428800  0.87964000  1
  Si  Si45  1  0.80428800  0.50000000  0.37964000  1
loop_
_geom_bond_atom_site_label_1
_geom_bond_atom_site_label_2
_geom_bond_distance
_geom_bond_site_symmetry_2
Ba0 Si26 3.506630 1_555
Ba0 Si28 3.506630 1_555
Ba0 Si43 3.506630 1_554
Ba0 Si1 3.506630 1_555
Ba0 Si44 3.506630 1_554
Ba0 Si2 3.506630 1_554
Ba0 Si30 3.506630 1_555
Ba0 Si29 3.506630 1_554
Ba0 Si10 3.651318 1_555
Ba0 Si9 3.651318 1_554
Ba0 Si8 3.651318 1_555
Ba0 Si11 3.651318 1_555
Ba0 Si22 3.836694 1_554
Ba0 Si25 3.836694 1_555
Ba0 Si15 3.836694 1_554
Ba0 Si17 3.836694 1_554
Ba0 Si12 3.836694 1_555
Ba0 Si19 3.836694 1_555
Ba0 Si24 3.836694 1_554
Ba0 Si0 3.836694 1_555
Ba1 Si35 3.506630 1_555
Ba1 Si38 3.506630 1_555
Ba1 Si41 3.506630 1_455
Ba1 Si40 3.506630 1_455
Ba1 Si34 3.506630 1_455
Ba1 Si33 3.506630 1_555
Ba1 Si5 3.506630 1_555
Ba1 Si45 3.506630 1_455
Ba1 Si7 3.651318 1_455
Ba1 Si8 3.651318 1_555
Ba1 Si9 3.651318 1_555
Ba1 Si6 3.651318 1_555
Ba1 Si24 3.836694 1_555
Ba1 Si23 3.836694 1_455
Ba1 Si13 3.836694 1_455
Ba1 Si18 3.836694 1_455
Ba1 Si12 3.836694 1_555
Ba1 Si19 3.836694 1_555
Ba1 Si22 3.836694 1_555
Ba1 Si21 3.836694 1_455
Ba2 Si35 3.506630 1_565
Ba2 Si38 3.506630 1_565
Ba2 Si34 3.506630 1_455
Ba2 Si40 3.506630 1_465
Ba2 Si33 3.506630 1_555
Ba2 Si5 3.506630 1_555
Ba2 Si45 3.506630 1_455
Ba2 Si41 3.506630 1_465
Ba2 Si6 3.651318 1_565
Ba2 Si7 3.651318 1_465
Ba2 Si8 3.651318 1_555
Ba2 Si9 3.651318 1_555
Ba2 Si14 3.836694 1_455
Ba2 Si17 3.836694 1_555
Ba2 Si27 3.836694 1_455
Ba2 Si20 3.836694 1_455
Ba2 Si25 3.836694 1_555
Ba2 Si0 3.836694 1_555
Ba2 Si15 3.836694 1_555
Ba2 Si16 3.836694 1_455
Ba3 Si36 3.506630 1_556
Ba3 Si39 3.506630 1_556
Ba3 Si3 3.506630 1_555
Ba3 Si32 3.506630 1_545
Ba3 Si37 3.506630 1_546
Ba3 Si42 3.506630 1_546
Ba3 Si4 3.506630 1_555
Ba3 Si31 3.506630 1_545
Ba3 Si6 3.651318 1_555
Ba3 Si11 3.651318 1_556
Ba3 Si7 3.651318 1_555
Ba3 Si10 3.651318 1_546
Ba3 Si18 3.836694 1_555
Ba3 Si15 3.836694 1_545
Ba3 Si27 3.836694 1_545
Ba3 Si20 3.836694 1_545
Ba3 Si24 3.836694 1_555
Ba3 Si22 3.836694 1_555
Ba3 Si17 3.836694 1_545
Ba3 Si13 3.836694 1_555
Ba4 Si36 3.506630 1_555
Ba4 Si39 3.506630 1_555
Ba4 Si3 3.506630 1_555
Ba4 Si42 3.506630 1_545
Ba4 Si32 3.506630 1_545
Ba4 Si31 3.506630 1_545
Ba4 Si37 3.506630 1_545
Ba4 Si4 3.506630 1_555
Ba4 Si10 3.651318 1_545
Ba4 Si11 3.651318 1_555
Ba4 Si6 3.651318 1_555
Ba4 Si7 3.651318 1_555
Ba4 Si0 3.836694 1_545
Ba4 Si21 3.836694 1_555
Ba4 Si16 3.836694 1_545
Ba4 Si14 3.836694 1_545
Ba4 Si12 3.836694 1_555
Ba4 Si19 3.836694 1_555
Ba4 Si25 3.836694 1_545
Ba4 Si23 3.836694 1_555
Ba5 Si26 3.506630 1_655
Ba5 Si28 3.506630 1_655
Ba5 Si1 3.506630 1_555
Ba5 Si43 3.506630 1_654
Ba5 Si44 3.506630 1_654
Ba5 Si2 3.506630 1_554
Ba5 Si30 3.506630 1_555
Ba5 Si29 3.506630 1_554
Ba5 Si10 3.651318 1_555
Ba5 Si9 3.651318 1_654
Ba5 Si8 3.651318 1_655
Ba5 Si11 3.651318 1_555
Ba5 Si13 3.836694 1_554
Ba5 Si16 3.836694 1_555
Ba5 Si20 3.836694 1_554
Ba5 Si27 3.836694 1_554
Ba5 Si21 3.836694 1_555
Ba5 Si23 3.836694 1_555
Ba5 Si14 3.836694 1_555
Ba5 Si18 3.836694 1_554
Na0 Si21 3.293757 1_455
Na0 Si24 3.293757 1_554
Na0 Si25 3.293757 1_545
Na0 Si12 3.293757 1_555
Na0 Si17 3.293757 1_544
Na0 Si16 3.293757 1_445
Na0 Si18 3.293757 1_454
Na0 Si20 3.293757 1_444
Na0 Si42 3.379436 1_545
Na0 Si26 3.379436 1_545
Na0 Si44 3.379436 1_554
Na0 Si35 3.379436 1_555
Na0 Si36 3.379436 1_555
Na0 Si40 3.379436 1_455
Na0 Si39 3.379436 1_455
Na0 Si38 3.379436 1_554
Na0 Si41 3.379436 1_454
Na0 Si43 3.379436 1_544
Na0 Si37 3.379436 1_445
Na0 Si28 3.379436 1_555
Na1 Si23 3.293757 1_555
Na1 Si19 3.293757 1_555
Na1 Si22 3.293757 1_555
Na1 Si0 3.293757 1_555
Na1 Si13 3.293757 1_555
Na1 Si14 3.293757 1_555
Na1 Si15 3.293757 1_555
Na1 Si27 3.293757 1_555
Na1 Si1 3.379436 1_555
Na1 Si34 3.379436 1_555
Na1 Si33 3.379436 1_555
Na1 Si31 3.379436 1_555
Na1 Si45 3.379436 1_555
Na1 Si5 3.379436 1_555
Na1 Si30 3.379436 1_555
Na1 Si2 3.379436 1_555
Na1 Si29 3.379436 1_555
Na1 Si32 3.379436 1_555
Na1 Si4 3.379436 1_555
Na1 Si3 3.379436 1_555
Si0 Si25 2.356351 1_555
Si0 Si32 2.364288 1_555
Si0 Si30 2.364288 1_555
Si0 Si5 2.364288 1_555
Si1 Si19 2.364288 1_555
Si1 Si23 2.364288 1_555
Si1 Si11 2.424425 1_555
Si1 Si30 2.486032 1_555
Si2 Si27 2.364288 1_555
Si2 Si29 2.486032 1_555
Si3 Si6 2.424425 1_555
Si3 Si4 2.486032 1_555
Si4 Si7 2.424425 1_555
Si5 Si8 2.424425 1_555
Si10 Si42 2.424425 1_555
Si10 Si2 2.424425 1_554
Si10 Si30 2.424425 1_555
Si10 Si37 2.424425 1_555
Si11 Si36 2.424425 1_555
Si11 Si39 2.424425 1_555
Si11 Si29 2.424425 1_554
Si12 Si19 2.356351 1_555
Si12 Si36 2.364288 1_555
Si12 Si28 2.364288 1_555
Si12 Si35 2.364288 1_555
Si13 Si18 2.356351 1_555
Si13 Si29 2.364288 1_555
Si13 Si34 2.364288 1_555
Si13 Si4 2.364288 1_555
Si14 Si16 2.356351 1_555
Si14 Si45 2.364288 1_555
Si14 Si31 2.364288 1_555
Si14 Si30 2.364288 1_555
Si15 Si17 2.356351 1_555
Si15 Si2 2.364288 1_555
Si15 Si32 2.364288 1_555
Si15 Si33 2.364288 1_555
Si16 Si37 2.364288 1_555
Si16 Si26 2.364288 1_655
Si16 Si40 2.364288 1_565
Si17 Si38 2.364288 1_565
Si17 Si43 2.364288 1_555
Si17 Si42 2.364288 1_556
Si18 Si41 2.364288 1_555
Si18 Si39 2.364288 1_556
Si18 Si44 2.364288 1_655
Si19 Si5 2.364288 1_555
Si19 Si3 2.364288 1_555
Si20 Si27 2.356351 1_555
Si20 Si41 2.364288 1_565
Si20 Si37 2.364288 1_556
Si20 Si43 2.364288 1_655
Si21 Si23 2.356351 1_555
Si21 Si40 2.364288 1_555
Si21 Si39 2.364288 1_555
Si21 Si28 2.364288 1_655
Si22 Si24 2.356351 1_555
Si22 Si29 2.364288 1_555
Si22 Si33 2.364288 1_555
Si22 Si3 2.364288 1_555
Si23 Si45 2.364288 1_555
Si23 Si4 2.364288 1_555
Si24 Si38 2.364288 1_555
Si24 Si44 2.364288 1_555
Si24 Si36 2.364288 1_556
Si25 Si42 2.364288 1_555
Si25 Si26 2.364288 1_555
Si25 Si35 2.364288 1_565
Si26 Si8 2.424425 1_555
Si26 Si43 2.486032 1_554
Si27 Si34 2.364288 1_555
Si27 Si31 2.364288 1_555
Si28 Si8 2.424425 1_555
Si28 Si44 2.486032 1_554
Si31 Si7 2.424425 1_565
Si31 Si32 2.486032 1_555
Si32 Si6 2.424425 1_565
Si33 Si9 2.424425 1_555
Si33 Si5 2.486032 1_555
Si34 Si9 2.424425 1_655
Si34 Si45 2.486032 1_555
Si35 Si6 2.424425 1_555
Si35 Si40 2.486032 1_455
Si36 Si42 2.486032 1_545
Si37 Si39 2.486032 1_565
Si38 Si6 2.424425 1_555
Si38 Si41 2.486032 1_455
Si40 Si7 2.424425 1_555
Si41 Si7 2.424425 1_555
Si43 Si9 2.424425 1_555
Si44 Si9 2.424425 1_555
Si45 Si8 2.424425 1_655
