# generated using pymatgen
data_Si2P3RhO13
_symmetry_space_group_name_H-M   'P 1'
_cell_length_a   8.22077253
_cell_length_b   8.22077253
_cell_length_c   8.84205900
_cell_angle_alpha   90.00000000
_cell_angle_beta   90.00000000
_cell_angle_gamma   120.00000425
_symmetry_Int_Tables_number   1
_chemical_formula_structural   Si2P3RhO13
_chemical_formula_sum   'Si4 P6 Rh2 O26'
_cell_volume   517.49872497
_cell_formula_units_Z   2
loop_
 _symmetry_equiv_pos_site_id
 _symmetry_equiv_pos_as_xyz
  1  'x, y, z'
loop_
 _atom_site_type_symbol
 _atom_site_label
 _atom_site_symmetry_multiplicity
 _atom_site_fract_x
 _atom_site_fract_y
 _atom_site_fract_z
 _atom_site_occupancy
  Si  Si0  1  0.33333300  0.66666700  0.50281100  1
  Si  Si1  1  0.66666700  0.33333300  0.49718900  1
  Si  Si2  1  0.33333300  0.66666700  0.86770200  1
  Si  Si3  1  0.66666700  0.33333300  0.13229800  1
  P  P0  1  0.28336100  0.00000000  0.50000000  1
  P  P1  1  0.71663900  0.71663900  0.50000000  1
  P  P2  1  0.00000000  0.28336100  0.50000000  1
  P  P3  1  0.28570400  0.28570400  0.00000000  1
  P  P4  1  0.00000000  0.71429600  0.00000000  1
  P  P5  1  0.71429600  0.00000000  0.00000000  1
  Rh  Rh0  1  0.00000000  0.00000000  0.75193100  1
  Rh  Rh1  1  0.00000000  0.00000000  0.24806900  1
  O  O0  1  0.32835300  0.84811300  0.43143100  1
  O  O1  1  0.51976000  0.67164700  0.43143100  1
  O  O2  1  0.15188700  0.48024000  0.43143100  1
  O  O3  1  0.33094300  0.48005700  0.93020900  1
  O  O4  1  0.14911400  0.66905700  0.93020900  1
  O  O5  1  0.51994300  0.85088600  0.93020900  1
  O  O6  1  0.66905700  0.14911400  0.06979100  1
  O  O7  1  0.48005700  0.33094300  0.06979100  1
  O  O8  1  0.85088600  0.51994300  0.06979100  1
  O  O9  1  0.67164700  0.51976000  0.56856900  1
  O  O10  1  0.84811300  0.32835300  0.56856900  1
  O  O11  1  0.48024000  0.15188700  0.56856900  1
  O  O12  1  0.14244000  0.90165100  0.62587100  1
  O  O13  1  0.75921100  0.85756000  0.62587100  1
  O  O14  1  0.09834900  0.24078900  0.62587100  1
  O  O15  1  0.14221300  0.24229600  0.12435600  1
  O  O16  1  0.10008300  0.85778700  0.12435600  1
  O  O17  1  0.75770400  0.89991700  0.12435600  1
  O  O18  1  0.85778700  0.10008300  0.87564400  1
  O  O19  1  0.24229600  0.14221300  0.87564400  1
  O  O20  1  0.89991700  0.75770400  0.87564400  1
  O  O21  1  0.85756000  0.75921100  0.37412900  1
  O  O22  1  0.90165100  0.14244000  0.37412900  1
  O  O23  1  0.24078900  0.09834900  0.37412900  1
  O  O24  1  0.33333300  0.66666700  0.68494100  1
  O  O25  1  0.66666700  0.33333300  0.31505900  1
loop_
_geom_bond_atom_site_label_1
_geom_bond_atom_site_label_2
_geom_bond_distance
_geom_bond_site_symmetry_2
O0 P0 1.589117 1_565
O0 Si0 1.638913 1_555
O1 P1 1.589117 1_555
O1 Si0 1.638921 1_555
O2 P2 1.589117 1_555
O2 Si0 1.638917 1_555
O3 P3 1.574061 1_556
O3 Si2 1.621453 1_555
O4 P4 1.574061 1_556
O4 Si2 1.621445 1_555
O5 P5 1.574061 1_566
O5 Si2 1.621449 1_555
O6 P5 1.574061 1_555
O6 Si3 1.621445 1_555
O7 P3 1.574061 1_555
O7 Si3 1.621453 1_555
O8 P4 1.574061 1_655
O8 Si3 1.621449 1_555
O9 P1 1.589117 1_555
O9 Si1 1.638921 1_555
O10 P2 1.589117 1_655
O10 Si1 1.638913 1_555
O11 P0 1.589117 1_555
O11 Si1 1.638917 1_555
O12 P0 1.515848 1_565
O12 Rh0 2.052797 1_565
O13 P1 1.515848 1_555
O13 Rh0 2.052797 1_665
O14 P2 1.515848 1_555
O14 Rh0 2.052797 1_555
O15 P3 1.518852 1_555
O15 Rh1 2.049924 1_555
O16 P4 1.518852 1_555
O16 Rh1 2.049924 1_565
O17 P5 1.518852 1_565
O17 Rh1 2.049924 1_665
O18 P5 1.518852 1_556
O18 Rh0 2.049924 1_655
O19 P3 1.518852 1_556
O19 Rh0 2.049924 1_555
O20 P4 1.518852 1_656
O20 Rh0 2.049924 1_665
O21 P1 1.515848 1_555
O21 Rh1 2.052797 1_665
O22 P2 1.515848 1_655
O22 Rh1 2.052797 1_655
O23 P0 1.515848 1_555
O23 Rh1 2.052797 1_555
O24 Si0 1.610404 1_555
O24 Si2 1.615984 1_555
O25 Si1 1.610404 1_555
O25 Si3 1.615984 1_555
