# generated using pymatgen
data_K2Tc
_symmetry_space_group_name_H-M   'P 1'
_cell_length_a   4.94483600
_cell_length_b   9.73755388
_cell_length_c   9.73755388
_cell_angle_alpha   119.99999921
_cell_angle_beta   90.00000000
_cell_angle_gamma   90.00000000
_symmetry_Int_Tables_number   1
_chemical_formula_structural   K2Tc
_chemical_formula_sum   'K6 Tc3'
_cell_volume   406.05258098
_cell_formula_units_Z   3
loop_
 _symmetry_equiv_pos_site_id
 _symmetry_equiv_pos_as_xyz
  1  'x, y, z'
loop_
 _atom_site_type_symbol
 _atom_site_label
 _atom_site_symmetry_multiplicity
 _atom_site_fract_x
 _atom_site_fract_y
 _atom_site_fract_z
 _atom_site_occupancy
  K  K0  1  0.00000000  0.59077300  0.59077300  1
  K  K1  1  0.00000000  0.00000000  0.40922700  1
  K  K2  1  0.00000000  0.40922700  0.00000000  1
  K  K3  1  0.50000000  0.25859800  0.25859800  1
  K  K4  1  0.50000000  0.00000000  0.74140200  1
  K  K5  1  0.50000000  0.74140200  0.00000000  1
  Tc  Tc0  1  0.00000000  0.00000000  0.00000000  1
  Tc  Tc1  1  0.50000000  0.66666700  0.33333300  1
  Tc  Tc2  1  0.50000000  0.33333300  0.66666700  1
loop_
_geom_bond_atom_site_label_1
_geom_bond_atom_site_label_2
_geom_bond_distance
_geom_bond_site_symmetry_2
K0 Tc1 3.846536 1_455
K0 Tc1 3.846536 1_555
K0 Tc2 3.846536 1_455
K0 Tc2 3.846536 1_555
K0 Tc0 3.984870 1_566
K0 K3 4.071278 1_455
K0 K3 4.071278 1_555
K0 K4 4.277684 1_465
K0 K4 4.277684 1_565
K0 K5 4.277684 1_556
K0 K5 4.277684 1_456
K1 Tc1 3.846528 1_545
K1 Tc1 3.846528 1_445
K1 Tc2 3.846531 1_455
K1 Tc2 3.846531 1_555
K1 Tc0 3.984870 1_555
K1 K4 4.071278 1_455
K1 K4 4.071278 1_555
K1 K3 4.277684 1_555
K1 K3 4.277684 1_455
K1 K5 4.277684 1_545
K1 K5 4.277684 1_445
K2 Tc2 3.846528 1_554
K2 Tc2 3.846528 1_454
K2 Tc1 3.846531 1_555
K2 Tc1 3.846531 1_455
K2 Tc0 3.984870 1_555
K2 K5 4.071278 1_555
K2 K5 4.071278 1_455
K2 K3 4.277684 1_555
K2 K3 4.277684 1_455
K2 K4 4.277684 1_554
K2 K4 4.277684 1_454
K3 Tc0 3.528986 1_555
K3 Tc0 3.528986 1_655
K3 Tc1 3.664331 1_555
K3 Tc2 3.664331 1_555
K3 K4 4.361498 1_554
K3 K5 4.361498 1_545
K4 Tc0 3.528985 1_656
K4 Tc0 3.528985 1_556
K4 Tc2 3.664321 1_555
K4 Tc1 3.664328 1_545
K4 K5 4.361498 1_546
K5 Tc0 3.528985 1_565
K5 Tc0 3.528985 1_665
K5 Tc1 3.664321 1_555
K5 Tc2 3.664328 1_554
