# generated using pymatgen
data_Th6Mn23H16
_symmetry_space_group_name_H-M   'P 1'
_cell_length_a   8.88920100
_cell_length_b   8.88920100
_cell_length_c   12.82242800
_cell_angle_alpha   90.00000000
_cell_angle_beta   90.00000000
_cell_angle_gamma   90.00000000
_symmetry_Int_Tables_number   1
_chemical_formula_structural   Th6Mn23H16
_chemical_formula_sum   'Th12 Mn46 H32'
_cell_volume   1013.20126189
_cell_formula_units_Z   2
loop_
 _symmetry_equiv_pos_site_id
 _symmetry_equiv_pos_as_xyz
  1  'x, y, z'
loop_
 _atom_site_type_symbol
 _atom_site_label
 _atom_site_symmetry_multiplicity
 _atom_site_fract_x
 _atom_site_fract_y
 _atom_site_fract_z
 _atom_site_occupancy
  Th  Th0  1  0.50000000  0.50000000  0.28921700  1
  Th  Th1  1  0.00000000  0.00000000  0.78921700  1
  Th  Th2  1  0.50000000  0.50000000  0.71078300  1
  Th  Th3  1  0.00000000  0.00000000  0.21078300  1
  Th  Th4  1  0.27362000  0.72638000  0.50000000  1
  Th  Th5  1  0.72638000  0.27362000  0.50000000  1
  Th  Th6  1  0.22638000  0.22638000  0.00000000  1
  Th  Th7  1  0.77362000  0.77362000  0.00000000  1
  Th  Th8  1  0.71305300  0.71305300  0.50000000  1
  Th  Th9  1  0.28694700  0.28694700  0.50000000  1
  Th  Th10  1  0.78694700  0.21305300  0.00000000  1
  Th  Th11  1  0.21305300  0.78694700  0.00000000  1
  Mn  Mn0  1  0.50000000  0.50000000  0.00000000  1
  Mn  Mn1  1  0.00000000  0.00000000  0.50000000  1
  Mn  Mn2  1  0.00000000  0.50000000  0.50000000  1
  Mn  Mn3  1  0.50000000  0.00000000  0.00000000  1
  Mn  Mn4  1  0.50000000  0.00000000  0.50000000  1
  Mn  Mn5  1  0.00000000  0.50000000  0.00000000  1
  Mn  Mn6  1  0.24708700  0.75291300  0.74837500  1
  Mn  Mn7  1  0.75291300  0.24708700  0.74837500  1
  Mn  Mn8  1  0.25291300  0.25291300  0.24837500  1
  Mn  Mn9  1  0.74708700  0.74708700  0.24837500  1
  Mn  Mn10  1  0.75291300  0.24708700  0.25162500  1
  Mn  Mn11  1  0.24708700  0.75291300  0.25162500  1
  Mn  Mn12  1  0.74708700  0.74708700  0.75162500  1
  Mn  Mn13  1  0.25291300  0.25291300  0.75162500  1
  Mn  Mn14  1  0.13660100  0.50430800  0.31930000  1
  Mn  Mn15  1  0.86339900  0.49569200  0.31930000  1
  Mn  Mn16  1  0.36339900  0.00430800  0.81930000  1
  Mn  Mn17  1  0.63660100  0.99569200  0.81930000  1
  Mn  Mn18  1  0.86339900  0.49569200  0.68070000  1
  Mn  Mn19  1  0.13660100  0.50430800  0.68070000  1
  Mn  Mn20  1  0.63660100  0.99569200  0.18070000  1
  Mn  Mn21  1  0.36339900  0.00430800  0.18070000  1
  Mn  Mn22  1  0.50430800  0.13660100  0.31930000  1
  Mn  Mn23  1  0.49569200  0.86339900  0.31930000  1
  Mn  Mn24  1  0.00430800  0.36339900  0.81930000  1
  Mn  Mn25  1  0.99569200  0.63660100  0.81930000  1
  Mn  Mn26  1  0.49569200  0.86339900  0.68070000  1
  Mn  Mn27  1  0.50430800  0.13660100  0.68070000  1
  Mn  Mn28  1  0.99569200  0.63660100  0.18070000  1
  Mn  Mn29  1  0.00430800  0.36339900  0.18070000  1
  Mn  Mn30  1  0.24543800  0.52199600  0.13963000  1
  Mn  Mn31  1  0.75456200  0.47800400  0.13963000  1
  Mn  Mn32  1  0.25456200  0.02199600  0.63963000  1
  Mn  Mn33  1  0.74543800  0.97800400  0.63963000  1
  Mn  Mn34  1  0.75456200  0.47800400  0.86037000  1
  Mn  Mn35  1  0.24543800  0.52199600  0.86037000  1
  Mn  Mn36  1  0.74543800  0.97800400  0.36037000  1
  Mn  Mn37  1  0.25456200  0.02199600  0.36037000  1
  Mn  Mn38  1  0.52199600  0.24543800  0.13963000  1
  Mn  Mn39  1  0.47800400  0.75456200  0.13963000  1
  Mn  Mn40  1  0.02199600  0.25456200  0.63963000  1
  Mn  Mn41  1  0.97800400  0.74543800  0.63963000  1
  Mn  Mn42  1  0.47800400  0.75456200  0.86037000  1
  Mn  Mn43  1  0.52199600  0.24543800  0.86037000  1
  Mn  Mn44  1  0.97800400  0.74543800  0.36037000  1
  Mn  Mn45  1  0.02199600  0.25456200  0.36037000  1
  H  H0  1  0.99745200  0.74048900  0.50000000  1
  H  H1  1  0.00254800  0.25951100  0.50000000  1
  H  H2  1  0.50254800  0.24048900  0.00000000  1
  H  H3  1  0.49745200  0.75951100  0.00000000  1
  H  H4  1  0.74048900  0.99745200  0.50000000  1
  H  H5  1  0.25951100  0.00254800  0.50000000  1
  H  H6  1  0.24048900  0.50254800  0.00000000  1
  H  H7  1  0.75951100  0.49745200  0.00000000  1
  H  H8  1  0.14669500  0.85330500  0.35178600  1
  H  H9  1  0.85330500  0.14669500  0.35178600  1
  H  H10  1  0.35330500  0.35330500  0.85178600  1
  H  H11  1  0.64669500  0.64669500  0.85178600  1
  H  H12  1  0.85330500  0.14669500  0.64821400  1
  H  H13  1  0.14669500  0.85330500  0.64821400  1
  H  H14  1  0.64669500  0.64669500  0.14821400  1
  H  H15  1  0.35330500  0.35330500  0.14821400  1
  H  H16  1  0.28753300  0.50768700  0.39895700  1
  H  H17  1  0.71246700  0.49231300  0.39895700  1
  H  H18  1  0.21246700  0.00768700  0.89895700  1
  H  H19  1  0.78753300  0.99231300  0.89895700  1
  H  H20  1  0.71246700  0.49231300  0.60104300  1
  H  H21  1  0.28753300  0.50768700  0.60104300  1
  H  H22  1  0.78753300  0.99231300  0.10104300  1
  H  H23  1  0.21246700  0.00768700  0.10104300  1
  H  H24  1  0.50768700  0.28753300  0.39895700  1
  H  H25  1  0.49231300  0.71246700  0.39895700  1
  H  H26  1  0.00768700  0.21246700  0.89895700  1
  H  H27  1  0.99231300  0.78753300  0.89895700  1
  H  H28  1  0.49231300  0.71246700  0.60104300  1
  H  H29  1  0.50768700  0.28753300  0.60104300  1
  H  H30  1  0.99231300  0.78753300  0.10104300  1
  H  H31  1  0.00768700  0.21246700  0.10104300  1
loop_
_geom_bond_atom_site_label_1
_geom_bond_atom_site_label_2
_geom_bond_distance
_geom_bond_site_symmetry_2
H0 Mn44 1.799261 1_555
H0 Mn41 1.799261 1_555
H0 Mn2 2.137875 1_655
H0 Mn1 2.306957 1_665
H0 Th4 2.458114 1_655
H0 Th8 2.539816 1_555
H1 Mn45 1.799261 1_555
H1 Mn40 1.799261 1_555
H1 Mn2 2.137875 1_555
H1 Mn1 2.306957 1_555
H1 Th5 2.458114 1_455
H1 Th9 2.539816 1_555
H2 Mn43 1.799261 1_554
H2 Mn38 1.799261 1_555
H2 Mn3 2.137875 1_555
H2 Mn0 2.306957 1_555
H2 Th6 2.458114 1_555
H2 Th10 2.539816 1_555
H3 Mn42 1.799261 1_554
H3 Mn39 1.799261 1_555
H3 Mn3 2.137875 1_565
H3 Mn0 2.306957 1_555
H3 Th7 2.458114 1_555
H3 Th11 2.539816 1_555
H4 Mn36 1.799261 1_555
H4 Mn33 1.799261 1_555
H4 Mn4 2.137875 1_565
H4 Mn1 2.306957 1_665
H4 Th5 2.458114 1_565
H4 Th8 2.539816 1_555
H5 Mn37 1.799261 1_555
H5 Mn32 1.799261 1_555
H5 Mn4 2.137875 1_555
H5 Mn1 2.306957 1_555
H5 Th4 2.458114 1_545
H5 Th9 2.539816 1_555
H6 Mn35 1.799261 1_554
H6 Mn30 1.799261 1_555
H6 Mn5 2.137875 1_555
H6 Mn0 2.306957 1_555
H6 Th6 2.458114 1_555
H6 Th11 2.539816 1_555
H7 Mn34 1.799261 1_554
H7 Mn31 1.799261 1_555
H7 Mn5 2.137875 1_655
H7 Mn0 2.306957 1_555
H7 Th7 2.458114 1_555
H7 Th10 2.539816 1_555
H8 Mn37 1.783282 1_565
H8 Mn44 1.783282 1_455
H8 Mn11 1.800616 1_555
H8 Th4 2.481473 1_555
H8 Th3 2.582577 1_565
H9 Mn45 1.783282 1_655
H9 Mn36 1.783282 1_545
H9 Mn10 1.800616 1_555
H9 Th5 2.481473 1_555
H9 Th3 2.582577 1_655
H10 Mn43 1.783282 1_555
H10 Mn35 1.783282 1_555
H10 Mn13 1.800616 1_555
H10 Th6 2.481473 1_556
H10 Th2 2.582577 1_555
H11 Mn42 1.783282 1_555
H11 Mn34 1.783282 1_555
H11 Mn12 1.800616 1_555
H11 Th7 2.481473 1_556
H11 Th2 2.582577 1_555
H12 Mn40 1.783282 1_655
H12 Mn33 1.783282 1_545
H12 Mn7 1.800616 1_555
H12 Th5 2.481473 1_555
H12 Th1 2.582577 1_655
H13 Mn32 1.783282 1_565
H13 Mn41 1.783282 1_455
H13 Mn6 1.800616 1_555
H13 Th4 2.481473 1_555
H13 Th1 2.582577 1_565
H14 Mn39 1.783282 1_555
H14 Mn31 1.783282 1_555
H14 Mn9 1.800616 1_555
H14 Th7 2.481473 1_555
H14 Th0 2.582577 1_555
H15 Mn30 1.783282 1_555
H15 Mn38 1.783282 1_555
H15 Mn8 1.800616 1_555
H15 Th6 2.481473 1_555
H15 Th0 2.582577 1_555
H16 Mn14 1.686481 1_555
H16 Th4 2.339461 1_555
H16 Th9 2.351359 1_555
H16 Th0 2.356212 1_555
H17 Mn15 1.686481 1_555
H17 Th5 2.339461 1_555
H17 Th8 2.351359 1_555
H17 Th0 2.356212 1_555
H18 Mn16 1.686481 1_555
H18 Th6 2.339461 1_556
H18 Th11 2.351359 1_546
H18 Th1 2.356212 1_555
H19 Mn17 1.686481 1_555
H19 Th7 2.339461 1_556
H19 Th10 2.351359 1_566
H19 Th1 2.356212 1_665
H20 Mn18 1.686481 1_555
H20 Th5 2.339461 1_555
H20 Th8 2.351359 1_555
H20 Th2 2.356212 1_555
H21 Mn19 1.686481 1_555
H21 Th4 2.339461 1_555
H21 Th9 2.351359 1_555
H21 Th2 2.356212 1_555
H22 Mn20 1.686481 1_555
H22 Th7 2.339461 1_555
H22 Th10 2.351359 1_565
H22 Th3 2.356212 1_665
H23 Mn21 1.686481 1_555
H23 Th6 2.339461 1_555
H23 Th11 2.351359 1_545
H23 Th3 2.356212 1_555
H24 Mn22 1.686481 1_555
H24 Th5 2.339461 1_555
H24 Th9 2.351359 1_555
H24 Th0 2.356212 1_555
H25 Mn23 1.686481 1_555
H25 Th4 2.339461 1_555
H25 Th8 2.351359 1_555
H25 Th0 2.356212 1_555
H26 Mn24 1.686481 1_555
H26 Th6 2.339461 1_556
H26 Th10 2.351359 1_456
H26 Th1 2.356212 1_555
H27 Mn25 1.686481 1_555
H27 Th7 2.339461 1_556
H27 Th11 2.351359 1_656
H27 Th1 2.356212 1_665
H28 Mn26 1.686481 1_555
H28 Th4 2.339461 1_555
H28 Th8 2.351359 1_555
H28 Th2 2.356212 1_555
H29 Mn27 1.686481 1_555
H29 Th5 2.339461 1_555
H29 Th9 2.351359 1_555
H29 Th2 2.356212 1_555
H30 Mn28 1.686481 1_555
H30 Th7 2.339461 1_555
H30 Th11 2.351359 1_655
H30 Th3 2.356212 1_665
H31 Mn29 1.686481 1_555
H31 Th6 2.339461 1_555
H31 Th10 2.351359 1_455
H31 Th3 2.356212 1_555
