# generated using pymatgen
data_Na3CoBPO7
_symmetry_space_group_name_H-M   'P 1'
_cell_length_a   6.66243581
_cell_length_b   10.51912529
_cell_length_c   8.92437668
_cell_angle_alpha   88.21005436
_cell_angle_beta   90.06334209
_cell_angle_gamma   90.23111501
_symmetry_Int_Tables_number   1
_chemical_formula_structural   Na3CoBPO7
_chemical_formula_sum   'Na12 Co4 B4 P4 O28'
_cell_volume   625.13649595
_cell_formula_units_Z   4
loop_
 _symmetry_equiv_pos_site_id
 _symmetry_equiv_pos_as_xyz
  1  'x, y, z'
loop_
 _atom_site_type_symbol
 _atom_site_label
 _atom_site_symmetry_multiplicity
 _atom_site_fract_x
 _atom_site_fract_y
 _atom_site_fract_z
 _atom_site_occupancy
  Na  Na0  1  0.25074200  0.37841600  0.07566800  1
  Na  Na1  1  0.25301000  0.87908700  0.07574800  1
  Na  Na2  1  0.74779900  0.12144100  0.92405400  1
  Na  Na3  1  0.75139800  0.62120400  0.92388400  1
  Na  Na4  1  0.00112700  0.12308800  0.25732700  1
  Na  Na5  1  0.00346100  0.62359700  0.25859200  1
  Na  Na6  1  0.49687300  0.12366100  0.25828900  1
  Na  Na7  1  0.49754500  0.62349600  0.25783200  1
  Na  Na8  1  0.50288200  0.37461100  0.74052700  1
  Na  Na9  1  0.50351900  0.87789300  0.74257300  1
  Na  Na10  1  0.99714900  0.37740000  0.74296300  1
  Na  Na11  1  0.99777900  0.87399700  0.74081900  1
  Co  Co0  1  0.75402900  0.88531500  0.33904700  1
  Co  Co1  1  0.24438200  0.11378200  0.66076400  1
  Co  Co2  1  0.75456100  0.38622400  0.33928800  1
  Co  Co3  1  0.25591900  0.61373900  0.66086100  1
  B  B0  1  0.74737100  0.36427100  0.06640100  1
  B  B1  1  0.75007900  0.86476400  0.06594500  1
  B  B2  1  0.25106500  0.13591700  0.93362700  1
  B  B3  1  0.24791300  0.63604100  0.93369100  1
  P  P0  1  0.24982000  0.35832400  0.42350600  1
  P  P1  1  0.25188800  0.85841100  0.42340600  1
  P  P2  1  0.74921300  0.14132100  0.57657200  1
  P  P3  1  0.75120300  0.64197400  0.57683700  1
  O  O0  1  0.24797300  0.14574700  0.08345900  1
  O  O1  1  0.24970200  0.64605600  0.08357400  1
  O  O2  1  0.74883000  0.35421400  0.91657100  1
  O  O3  1  0.75189200  0.85284200  0.91646900  1
  O  O4  1  0.74326000  0.48068400  0.14009800  1
  O  O5  1  0.74529800  0.98113300  0.13859000  1
  O  O6  1  0.25626700  0.01961300  0.85980100  1
  O  O7  1  0.24323200  0.51961700  0.86005200  1
  O  O8  1  0.74875500  0.26182700  0.16941200  1
  O  O9  1  0.75201600  0.76260500  0.17022800  1
  O  O10  1  0.25028900  0.23845800  0.83075400  1
  O  O11  1  0.24971200  0.73849100  0.83077500  1
  O  O12  1  0.24786700  0.21186500  0.46719700  1
  O  O13  1  0.25184900  0.71194500  0.46697100  1
  O  O14  1  0.75085200  0.28774400  0.53244300  1
  O  O15  1  0.75336900  0.78858800  0.53403500  1
  O  O16  1  0.75033800  0.06441300  0.43267600  1
  O  O17  1  0.74960400  0.56576200  0.43229800  1
  O  O18  1  0.25036500  0.43468000  0.56779000  1
  O  O19  1  0.25030500  0.93467000  0.56781100  1
  O  O20  1  0.06274200  0.38835400  0.32359300  1
  O  O21  1  0.06486500  0.88804300  0.32348500  1
  O  O22  1  0.43430400  0.38891400  0.32268800  1
  O  O23  1  0.43642800  0.89001300  0.32278700  1
  O  O24  1  0.56471400  0.11124200  0.67752000  1
  O  O25  1  0.56331800  0.61295300  0.67643000  1
  O  O26  1  0.93622700  0.11164000  0.67662400  1
  O  O27  1  0.93489700  0.60991400  0.67765100  1
loop_
_geom_bond_atom_site_label_1
_geom_bond_atom_site_label_2
_geom_bond_distance
_geom_bond_site_symmetry_2
Na0 O7 2.394407 1_554
Na0 O0 2.446286 1_555
Na0 O22 2.525040 1_555
Na0 O20 2.548903 1_555
Na0 O10 2.673156 1_554
Na0 O1 2.818462 1_555
Na1 O6 2.391969 1_564
Na1 O1 2.450106 1_555
Na1 O23 2.525040 1_555
Na1 O21 2.547216 1_555
Na1 O11 2.677498 1_554
Na1 O0 2.808359 1_565
Na2 O5 2.380682 1_546
Na2 O2 2.447375 1_555
Na2 O24 2.519499 1_555
Na2 O26 2.546368 1_555
Na2 O8 2.679055 1_556
Na2 O3 2.828592 1_545
Na3 O4 2.394269 1_556
Na3 O3 2.435450 1_555
Na3 O27 2.522112 1_555
Na3 O25 2.541576 1_555
Na3 O9 2.692561 1_556
Na3 O2 2.811279 1_555
Na4 O0 2.269040 1_555
Na4 O8 2.349033 1_455
Na4 O16 2.357693 1_455
Na4 O5 2.516365 1_445
Na4 O21 2.561004 1_545
Na4 O12 2.678154 1_555
Na4 O20 2.897879 1_555
Na5 O1 2.272965 1_555
Na5 O9 2.347606 1_455
Na5 O17 2.360591 1_455
Na5 O4 2.541211 1_455
Na5 O20 2.556091 1_555
Na5 O13 2.673824 1_555
Na5 O21 2.886481 1_555
Na6 O0 2.283197 1_555
Na6 O8 2.338564 1_555
Na6 O16 2.367331 1_555
Na6 O5 2.500466 1_545
Na6 O23 2.537379 1_545
Na6 O12 2.686319 1_555
Na6 O22 2.898198 1_555
Na7 O1 2.275040 1_555
Na7 O9 2.353361 1_555
Na7 O17 2.357242 1_555
Na7 O4 2.482533 1_555
Na7 O22 2.550392 1_555
Na7 O13 2.675129 1_555
Na7 O23 2.910815 1_555
Na8 O2 2.274967 1_555
Na8 O10 2.333070 1_555
Na8 O18 2.355438 1_555
Na8 O7 2.565938 1_555
Na8 O25 2.584166 1_555
Na8 O14 2.671673 1_555
Na8 O24 2.875430 1_555
Na9 O3 2.277812 1_555
Na9 O11 2.353745 1_555
Na9 O19 2.362064 1_555
Na9 O6 2.480233 1_565
Na9 O24 2.536118 1_565
Na9 O15 2.691782 1_555
Na9 O25 2.895933 1_555
Na10 O2 2.275044 1_555
Na10 O10 2.353672 1_655
Na10 O18 2.364712 1_655
Na10 O7 2.468199 1_655
Na10 O27 2.532291 1_555
Na10 O14 2.683886 1_555
Na10 O26 2.902435 1_555
Na11 O3 2.274083 1_555
Na11 O11 2.332043 1_655
Na11 O19 2.357404 1_655
Na11 O6 2.552624 1_665
Na11 O26 2.581405 1_565
Na11 O15 2.636180 1_555
Na11 O27 2.880640 1_555
Co0 O15 1.988158 1_555
Co0 O9 2.014326 1_555
Co0 O5 2.026634 1_555
Co0 O21 2.075753 1_655
Co0 O16 2.084909 1_565
Co0 O23 2.121475 1_555
Co1 O12 1.984371 1_555
Co1 O6 2.008255 1_555
Co1 O10 2.036353 1_555
Co1 O26 2.058076 1_455
Co1 O19 2.082752 1_545
Co1 O24 2.139475 1_555
Co2 O14 1.983312 1_555
Co2 O4 2.010715 1_555
Co2 O8 2.033606 1_555
Co2 O20 2.058147 1_655
Co2 O17 2.086941 1_555
Co2 O22 2.138905 1_555
Co3 O13 1.987578 1_555
Co3 O7 2.009271 1_555
Co3 O11 2.036683 1_555
Co3 O25 2.052613 1_555
Co3 O18 2.082332 1_555
Co3 O27 2.144324 1_455
B0 O2 1.344657 1_554
B0 O8 1.394509 1_555
B0 O4 1.408367 1_555
B1 O3 1.343829 1_554
B1 O9 1.399542 1_555
B1 O5 1.403453 1_555
B2 O0 1.344553 1_556
B2 O10 1.394465 1_555
B2 O6 1.408112 1_555
B3 O1 1.345067 1_556
B3 O11 1.393989 1_555
B3 O7 1.408057 1_555
O12 P0 1.577351 1_555
O13 P1 1.577173 1_555
O14 P2 1.577828 1_555
O15 P3 1.577240 1_555
O16 P2 1.539039 1_555
O17 P3 1.539872 1_555
O18 P0 1.538748 1_555
O19 P1 1.539185 1_555
O20 P0 1.559317 1_555
O21 P1 1.558283 1_555
O22 P0 1.550792 1_555
O23 P1 1.552087 1_555
O24 P2 1.550547 1_555
O25 P3 1.559656 1_555
O26 P2 1.558992 1_555
O27 P3 1.550143 1_555
