# generated using pymatgen
data_GaSiC4N
_symmetry_space_group_name_H-M   'P 1'
_cell_length_a   10.01110904
_cell_length_b   10.01110904
_cell_length_c   16.69764999
_cell_angle_alpha   71.56542632
_cell_angle_beta   71.56542632
_cell_angle_gamma   58.42482083
_symmetry_Int_Tables_number   1
_chemical_formula_structural   GaSiC4N
_chemical_formula_sum   'Ga8 Si8 C32 N8'
_cell_volume   1328.86344506
_cell_formula_units_Z   8
loop_
 _symmetry_equiv_pos_site_id
 _symmetry_equiv_pos_as_xyz
  1  'x, y, z'
loop_
 _atom_site_type_symbol
 _atom_site_label
 _atom_site_symmetry_multiplicity
 _atom_site_fract_x
 _atom_site_fract_y
 _atom_site_fract_z
 _atom_site_occupancy
  Ga  Ga0  1  0.91036700  0.27042600  0.71640200  1
  Ga  Ga1  1  0.72957400  0.08963300  0.78359800  1
  Ga  Ga2  1  0.08963300  0.72957400  0.28359800  1
  Ga  Ga3  1  0.27042600  0.91036700  0.21640200  1
  Ga  Ga4  1  0.03435100  0.97505700  0.83155100  1
  Ga  Ga5  1  0.02494300  0.96564900  0.66844900  1
  Ga  Ga6  1  0.96564900  0.02494300  0.16844900  1
  Ga  Ga7  1  0.97505700  0.03435100  0.33155100  1
  Si  Si0  1  0.71958200  0.28681900  0.91503000  1
  Si  Si1  1  0.71318100  0.28041800  0.58497000  1
  Si  Si2  1  0.28041800  0.71318100  0.08497000  1
  Si  Si3  1  0.28681900  0.71958200  0.41503000  1
  Si  Si4  1  0.29285200  0.04488700  0.63467000  1
  Si  Si5  1  0.95511300  0.70714800  0.86533000  1
  Si  Si6  1  0.70714800  0.95511300  0.36533000  1
  Si  Si7  1  0.04488700  0.29285200  0.13467000  1
  C  C0  1  0.86180200  0.47616500  0.72320300  1
  C  C1  1  0.52383500  0.13819800  0.77679700  1
  C  C2  1  0.13819800  0.52383500  0.27679700  1
  C  C3  1  0.47616500  0.86180200  0.22320300  1
  C  C4  1  0.16290200  0.83967100  0.91449600  1
  C  C5  1  0.16032900  0.83709800  0.58550400  1
  C  C6  1  0.83709800  0.16032900  0.08550400  1
  C  C7  1  0.83967100  0.16290200  0.41449600  1
  C  C8  1  0.74080100  0.25993100  0.03068000  1
  C  C9  1  0.74006900  0.25919900  0.46932000  1
  C  C10  1  0.25919900  0.74006900  0.96932000  1
  C  C11  1  0.25993100  0.74080100  0.53068000  1
  C  C12  1  0.59392900  0.40654700  0.02675200  1
  C  C13  1  0.59345300  0.40607100  0.47324800  1
  C  C14  1  0.40607100  0.59345300  0.97324800  1
  C  C15  1  0.40654700  0.59392900  0.52675200  1
  C  C16  1  0.54403200  0.45870500  0.94160500  1
  C  C17  1  0.54129500  0.45596800  0.55839500  1
  C  C18  1  0.45596800  0.54129500  0.05839500  1
  C  C19  1  0.45870500  0.54403200  0.44160500  1
  C  C20  1  0.36901200  0.17153500  0.66056200  1
  C  C21  1  0.82846500  0.63098800  0.83943800  1
  C  C22  1  0.63098800  0.82846500  0.33943800  1
  C  C23  1  0.17153500  0.36901200  0.16056200  1
  C  C24  1  0.43703700  0.00970400  0.70029200  1
  C  C25  1  0.99029600  0.56296300  0.79970800  1
  C  C26  1  0.56296300  0.99029600  0.29970800  1
  C  C27  1  0.00970400  0.43703700  0.20029200  1
  C  C28  1  0.46156500  0.12022900  0.72583800  1
  C  C29  1  0.87977100  0.53843500  0.77416200  1
  C  C30  1  0.53843500  0.87977100  0.27416200  1
  C  C31  1  0.12022900  0.46156500  0.22583800  1
  N  N0  1  0.81622700  0.17482900  0.83848200  1
  N  N1  1  0.82517100  0.18377300  0.66151800  1
  N  N2  1  0.18377300  0.82517100  0.16151800  1
  N  N3  1  0.17482900  0.81622700  0.33848200  1
  N  N4  1  0.11020300  0.06753800  0.71253900  1
  N  N5  1  0.93246200  0.88979700  0.78746100  1
  N  N6  1  0.88979700  0.93246200  0.28746100  1
  N  N7  1  0.06753800  0.11020300  0.21253900  1
loop_
_geom_bond_atom_site_label_1
_geom_bond_atom_site_label_2
_geom_bond_distance
_geom_bond_site_symmetry_2
Ga0 N4 1.969227 1_655
Ga0 N1 2.022823 1_555
Ga0 N0 2.110718 1_555
Ga1 N5 1.969227 1_545
Ga1 N0 2.022823 1_555
Ga1 N1 2.110718 1_555
Ga2 N6 1.969227 1_455
Ga2 N3 2.022823 1_555
Ga2 N2 2.110718 1_555
Ga3 N7 1.969227 1_565
Ga3 N2 2.022823 1_555
Ga3 N3 2.110718 1_555
Ga4 N4 2.000285 1_565
Ga4 N5 2.023630 1_455
Ga4 N0 2.048076 1_465
Ga5 N5 2.000285 1_455
Ga5 N4 2.023630 1_565
Ga5 N1 2.048076 1_465
Ga6 N6 2.000285 1_545
Ga6 N7 2.023630 1_655
Ga6 N2 2.048076 1_645
Ga7 N7 2.000285 1_655
Ga7 N6 2.023630 1_545
Ga7 N3 2.048076 1_645
C0 C29 1.301814 1_555
C0 Ga0 1.885698 1_555
C1 C28 1.301814 1_555
C1 Ga1 1.885698 1_555
C2 C31 1.301814 1_555
C2 Ga2 1.885698 1_555
C3 C30 1.301814 1_555
C3 Ga3 1.885698 1_555
C4 Ga4 1.877449 1_555
C5 Ga5 1.877449 1_555
C6 C8 1.317505 1_555
C6 Ga6 1.877449 1_555
C7 C9 1.317505 1_555
C7 Ga7 1.877449 1_555
C8 Si0 1.928074 1_554
C9 Si1 1.928074 1_555
C10 C4 1.317505 1_555
C10 C14 1.435494 1_555
C10 Si2 1.928074 1_556
C11 C5 1.317505 1_555
C11 C15 1.435494 1_555
C11 Si3 1.928074 1_555
C12 C18 1.429889 1_555
C12 C8 1.435494 1_555
C12 C16 1.500019 1_554
C13 C19 1.429889 1_555
C13 C9 1.435494 1_555
C13 C17 1.500019 1_555
C14 C16 1.429889 1_555
C14 C18 1.500019 1_556
C15 C17 1.429889 1_555
C15 C19 1.500019 1_555
C16 Si0 1.751936 1_555
C17 Si1 1.751936 1_555
C18 Si2 1.751936 1_555
C19 Si3 1.751936 1_555
C20 C24 1.406836 1_555
C20 C28 1.447960 1_555
C20 Si4 1.985770 1_555
C21 C25 1.406836 1_555
C21 C29 1.447960 1_555
C21 Si5 1.985770 1_555
C22 C26 1.406836 1_555
C22 C30 1.447960 1_555
C22 Si6 1.985770 1_555
C23 C27 1.406836 1_555
C23 C31 1.447960 1_555
C23 Si7 1.985770 1_555
C24 C28 1.454584 1_555
C24 Si4 1.905788 1_555
C25 C29 1.454584 1_555
C25 Si5 1.905788 1_555
C26 C30 1.454584 1_555
C26 Si6 1.905788 1_555
C27 C31 1.454584 1_555
C27 Si7 1.905788 1_555
N0 Si0 1.677797 1_555
N1 Si1 1.677797 1_555
N2 Si2 1.677797 1_555
N3 Si3 1.677797 1_555
N4 Si4 1.825957 1_555
N5 Si5 1.825957 1_555
N6 Si6 1.825957 1_555
N7 Si7 1.825957 1_555
