# generated using pymatgen
data_Sm2Ge2Rh
_symmetry_space_group_name_H-M   'P 1'
_cell_length_a   5.76915297
_cell_length_b   5.76915297
_cell_length_c   10.53612705
_cell_angle_alpha   64.63357615
_cell_angle_beta   64.63357615
_cell_angle_gamma   44.24253200
_symmetry_Int_Tables_number   1
_chemical_formula_structural   Sm2Ge2Rh
_chemical_formula_sum   'Sm4 Ge4 Rh2'
_cell_volume   216.93156864
_cell_formula_units_Z   2
loop_
 _symmetry_equiv_pos_site_id
 _symmetry_equiv_pos_as_xyz
  1  'x, y, z'
loop_
 _atom_site_type_symbol
 _atom_site_label
 _atom_site_symmetry_multiplicity
 _atom_site_fract_x
 _atom_site_fract_y
 _atom_site_fract_z
 _atom_site_occupancy
  Sm  Sm0  1  0.98767219  0.98767219  0.33223146  1
  Sm  Sm1  1  0.01232781  0.01232781  0.66776854  1
  Sm  Sm2  1  0.80890016  0.80890016  0.11806463  1
  Sm  Sm3  1  0.19109984  0.19109984  0.88193537  1
  Ge  Ge0  1  0.64637970  0.64637970  0.44295979  1
  Ge  Ge1  1  0.35362030  0.35362030  0.55704021  1
  Ge  Ge2  1  0.51518809  0.51518809  0.11603526  1
  Ge  Ge3  1  0.48481191  0.48481191  0.88396474  1
  Rh  Rh0  1  0.73089444  0.73089444  0.65961636  1
  Rh  Rh1  1  0.26910556  0.26910556  0.34038364  1
loop_
_geom_bond_atom_site_label_1
_geom_bond_atom_site_label_2
_geom_bond_distance
_geom_bond_site_symmetry_2
Ge0 Rh1 2.509439 1_565
Ge0 Rh1 2.509439 1_655
Ge0 Ge1 2.785389 1_555
Ge0 Rh0 2.816766 1_555
Ge0 Sm2 3.039026 1_555
Ge0 Sm1 3.040412 1_655
Ge0 Sm1 3.040412 1_565
Ge0 Sm0 3.276136 1_555
Ge0 Sm0 3.284668 1_545
Ge0 Sm0 3.284668 1_455
Ge1 Rh0 2.509439 1_455
Ge1 Rh0 2.509439 1_545
Ge1 Rh1 2.816766 1_555
Ge1 Sm3 3.039026 1_555
Ge1 Sm0 3.040412 1_455
Ge1 Sm0 3.040412 1_545
Ge1 Sm1 3.276136 1_555
Ge1 Sm1 3.284668 1_565
Ge1 Sm1 3.284668 1_655
Ge2 Rh1 2.599157 1_555
Ge2 Ge3 2.611194 1_554
Ge2 Sm0 3.061899 1_545
Ge2 Sm0 3.061899 1_455
Ge2 Sm2 3.088455 1_545
Ge2 Sm2 3.088455 1_455
Ge2 Sm2 3.149421 1_555
Ge2 Sm3 3.170082 1_564
Ge2 Sm3 3.170082 1_654
Ge3 Rh0 2.599157 1_555
Ge3 Sm1 3.061899 1_655
Ge3 Sm1 3.061899 1_565
Ge3 Sm3 3.088455 1_565
Ge3 Sm3 3.088455 1_655
Ge3 Sm3 3.149421 1_555
Ge3 Sm2 3.170082 1_456
Ge3 Sm2 3.170082 1_546
Rh0 Sm1 3.048902 1_665
Rh0 Sm3 3.076657 1_655
Rh0 Sm3 3.076657 1_565
Rh0 Sm1 3.162200 1_655
Rh0 Sm1 3.162200 1_565
Rh0 Sm0 3.267274 1_555
Rh1 Sm0 3.048902 1_445
Rh1 Sm2 3.076657 1_545
Rh1 Sm2 3.076657 1_455
Rh1 Sm0 3.162200 1_545
Rh1 Sm0 3.162200 1_455
Rh1 Sm1 3.267274 1_555
