# generated using pymatgen
data_PrTi2O6
_symmetry_space_group_name_H-M   'P 1'
_cell_length_a   5.41121683
_cell_length_b   5.50577023
_cell_length_c   7.67607200
_cell_angle_alpha   90.01152836
_cell_angle_beta   89.99995114
_cell_angle_gamma   89.99997922
_symmetry_Int_Tables_number   1
_chemical_formula_structural   PrTi2O6
_chemical_formula_sum   'Pr2 Ti4 O12'
_cell_volume   228.69256763
_cell_formula_units_Z   2
loop_
 _symmetry_equiv_pos_site_id
 _symmetry_equiv_pos_as_xyz
  1  'x, y, z'
loop_
 _atom_site_type_symbol
 _atom_site_label
 _atom_site_symmetry_multiplicity
 _atom_site_fract_x
 _atom_site_fract_y
 _atom_site_fract_z
 _atom_site_occupancy
  Pr  Pr0  1  0.00834451  0.70604506  0.00013787  1
  Pr  Pr1  1  0.50834514  0.29395546  0.49986186  1
  Ti  Ti0  1  0.00341628  0.23271844  0.74941558  1
  Ti  Ti1  1  0.00341869  0.23266269  0.25058017  1
  Ti  Ti2  1  0.50342128  0.76733770  0.24941949  1
  Ti  Ti3  1  0.50341466  0.76728151  0.75058525  1
  O  O0  1  0.06023893  0.24545138  0.50006650  1
  O  O1  1  0.21781390  0.96768730  0.78318707  1
  O  O2  1  0.21785479  0.96772578  0.21687587  1
  O  O3  1  0.26800223  0.48306103  0.23224990  1
  O  O4  1  0.26798349  0.48303829  0.76774341  1
  O  O5  1  0.46346307  0.73843521  0.50004354  1
  O  O6  1  0.56023953  0.75454848  -0.00006637  1
  O  O7  1  0.71781386  0.03231264  0.71681395  1
  O  O8  1  0.71785496  0.03227456  0.28312288  1
  O  O9  1  0.76798307  0.51696192  0.73225741  1
  O  O10  1  0.76800268  0.51693792  0.26774897  1
  O  O11  1  0.96346291  0.26156463  -0.00004335  1
loop_
_geom_bond_atom_site_label_1
_geom_bond_atom_site_label_2
_geom_bond_distance
_geom_bond_site_symmetry_2
O0 Ti0 1.939843 1_555
O0 Ti1 1.940864 1_555
O0 Pr1 2.439462 1_555
O1 Ti0 1.882172 1_565
O1 Ti3 1.915304 1_555
O1 Pr0 2.476739 1_556
O2 Ti1 1.881746 1_565
O2 Ti2 1.915098 1_555
O2 Pr0 2.475477 1_555
O3 Ti1 1.992569 1_555
O3 Ti2 2.022338 1_555
O3 Pr0 2.580081 1_555
O3 Pr1 2.645014 1_555
O4 Ti0 1.992166 1_555
O4 Ti3 2.022272 1_555
O4 Pr0 2.581240 1_556
O4 Pr1 2.646295 1_555
O5 Ti3 1.941763 1_555
O5 Ti2 1.942482 1_555
O5 Pr1 2.459225 1_555
O6 Ti3 1.939840 1_554
O6 Ti2 1.940858 1_555
O6 Pr0 2.439455 1_655
O7 Ti3 1.882178 1_545
O7 Ti0 1.915312 1_655
O7 Pr1 2.476747 1_555
O8 Ti2 1.881738 1_545
O8 Ti1 1.915085 1_655
O8 Pr1 2.475480 1_555
O9 Ti3 1.992169 1_555
O9 Ti0 2.022279 1_655
O9 Pr1 2.581244 1_555
O9 Pr0 2.646291 1_656
O10 Ti2 1.992565 1_555
O10 Ti1 2.022320 1_655
O10 Pr1 2.580080 1_555
O10 Pr0 2.645008 1_655
O11 Ti0 1.941759 1_654
O11 Ti1 1.942476 1_655
O11 Pr0 2.459229 1_655
