# generated using pymatgen
data_NaMgAl5P4(H5O12)2
_symmetry_space_group_name_H-M   'P 1'
_cell_length_a   12.87673018
_cell_length_b   12.87673018
_cell_length_c   13.57372287
_cell_angle_alpha   69.41726565
_cell_angle_beta   69.41726565
_cell_angle_gamma   22.76469372
_symmetry_Int_Tables_number   1
_chemical_formula_structural   NaMgAl5P4(H5O12)2
_chemical_formula_sum   'Na2 Mg2 Al10 P8 H20 O48'
_cell_volume   812.96184713
_cell_formula_units_Z   2
loop_
 _symmetry_equiv_pos_site_id
 _symmetry_equiv_pos_as_xyz
  1  'x, y, z'
loop_
 _atom_site_type_symbol
 _atom_site_label
 _atom_site_symmetry_multiplicity
 _atom_site_fract_x
 _atom_site_fract_y
 _atom_site_fract_z
 _atom_site_occupancy
  Na  Na0  1  0.86626900  0.13373100  0.25000000  1
  Na  Na1  1  0.13373100  0.86626900  0.75000000  1
  Mg  Mg0  1  0.50000000  0.00000000  0.50000000  1
  Mg  Mg1  1  0.00000000  0.50000000  0.00000000  1
  Al  Al0  1  0.63936600  0.07766000  0.35369400  1
  Al  Al1  1  0.36063400  0.92234000  0.64630600  1
  Al  Al2  1  0.92234000  0.36063400  0.14630600  1
  Al  Al3  1  0.07766000  0.63936600  0.85369400  1
  Al  Al4  1  0.82601200  0.86993000  0.11096900  1
  Al  Al5  1  0.17398800  0.13007000  0.88903100  1
  Al  Al6  1  0.13007000  0.17398900  0.38903100  1
  Al  Al7  1  0.86993000  0.82601200  0.61096900  1
  Al  Al8  1  0.00000000  0.00000000  0.00000000  1
  Al  Al9  1  0.00000000  0.00000000  0.50000000  1
  P  P0  1  0.36353300  0.79794000  0.10244100  1
  P  P1  1  0.63646700  0.20206000  0.89755900  1
  P  P2  1  0.20206000  0.63646700  0.39755900  1
  P  P3  1  0.79794000  0.36353300  0.60244100  1
  P  P4  1  0.48398400  0.94680800  0.17261200  1
  P  P5  1  0.51601600  0.05319200  0.82738800  1
  P  P6  1  0.05319200  0.51601600  0.32738800  1
  P  P7  1  0.94680800  0.48398400  0.67261200  1
  H  H0  1  0.43054900  0.27871300  0.19852400  1
  H  H1  1  0.56945100  0.72128700  0.80147600  1
  H  H2  1  0.72128700  0.56945100  0.30147600  1
  H  H3  1  0.27871300  0.43054900  0.69852400  1
  H  H4  1  0.54170300  0.44638000  0.09955300  1
  H  H5  1  0.45829700  0.55362000  0.90044700  1
  H  H6  1  0.55362000  0.45829700  0.40044700  1
  H  H7  1  0.44638000  0.54170300  0.59955300  1
  H  H8  1  0.65860000  0.20996000  0.14695100  1
  H  H9  1  0.34140000  0.79004000  0.85304900  1
  H  H10  1  0.79004000  0.34140000  0.35304900  1
  H  H11  1  0.20996000  0.65860000  0.64695100  1
  H  H12  1  0.18229600  0.66676300  0.11417000  1
  H  H13  1  0.81770400  0.33323700  0.88583000  1
  H  H14  1  0.33323700  0.81770400  0.38583000  1
  H  H15  1  0.66676300  0.18229600  0.61417000  1
  H  H16  1  0.54963500  0.77147800  0.46849600  1
  H  H17  1  0.45036500  0.22852200  0.53150400  1
  H  H18  1  0.22852200  0.45036500  0.03150400  1
  H  H19  1  0.77147800  0.54963500  0.96849600  1
  O  O0  1  0.25753100  0.78297100  0.09750000  1
  O  O1  1  0.74246900  0.21702900  0.90250000  1
  O  O2  1  0.21702900  0.74246900  0.40250000  1
  O  O3  1  0.78297100  0.25753100  0.59750000  1
  O  O4  1  0.70048900  0.69389200  0.11780800  1
  O  O5  1  0.29951100  0.30610800  0.88219200  1
  O  O6  1  0.30610800  0.29951100  0.38219200  1
  O  O7  1  0.69389200  0.70048900  0.61780800  1
  O  O8  1  0.58585400  0.16290100  0.00997700  1
  O  O9  1  0.41414600  0.83709900  0.99002300  1
  O  O10  1  0.83709900  0.41414600  0.49002300  1
  O  O11  1  0.16290100  0.58585400  0.50997700  1
  O  O12  1  0.79851700  0.05156700  0.56200400  1
  O  O13  1  0.20148300  0.94843300  0.43799600  1
  O  O14  1  0.94843300  0.20148300  0.93799600  1
  O  O15  1  0.05156700  0.79851700  0.06200400  1
  O  O16  1  0.43212400  0.91594000  0.28922500  1
  O  O17  1  0.56787600  0.08406000  0.71077500  1
  O  O18  1  0.08406000  0.56787600  0.21077500  1
  O  O19  1  0.91594000  0.43212400  0.78922500  1
  O  O20  1  0.62137600  0.11970800  0.20685300  1
  O  O21  1  0.37862400  0.88029200  0.79314700  1
  O  O22  1  0.88029200  0.37862400  0.29314700  1
  O  O23  1  0.11970800  0.62137600  0.70685300  1
  O  O24  1  0.46630600  0.37163800  0.34278400  1
  O  O25  1  0.53369400  0.62836200  0.65721600  1
  O  O26  1  0.62836200  0.53369400  0.15721600  1
  O  O27  1  0.37163800  0.46630600  0.84278400  1
  O  O28  1  0.70704100  0.24851500  0.10704000  1
  O  O29  1  0.29295900  0.75148500  0.89296000  1
  O  O30  1  0.75148500  0.29295900  0.39296000  1
  O  O31  1  0.24851500  0.70704100  0.60704000  1
  O  O32  1  0.21673600  0.19964200  0.11853300  1
  O  O33  1  0.78326400  0.80035800  0.88146700  1
  O  O34  1  0.80035800  0.78326400  0.38146700  1
  O  O35  1  0.19964200  0.21673600  0.61853300  1
  O  O36  1  0.61827500  0.04184900  0.51194100  1
  O  O37  1  0.38172500  0.95815100  0.48805900  1
  O  O38  1  0.95815100  0.38172500  0.98805900  1
  O  O39  1  0.04184900  0.61827500  0.01194100  1
  O  O40  1  0.58512400  0.96851200  0.16128800  1
  O  O41  1  0.41487600  0.03148800  0.83871200  1
  O  O42  1  0.03148800  0.41487600  0.33871200  1
  O  O43  1  0.96851200  0.58512400  0.66128800  1
  O  O44  1  0.14922600  0.03408900  0.16895900  1
  O  O45  1  0.85077400  0.96591100  0.83104100  1
  O  O46  1  0.96591100  0.85077400  0.33104100  1
  O  O47  1  0.03408900  0.14922600  0.66895900  1
loop_
_geom_bond_atom_site_label_1
_geom_bond_atom_site_label_2
_geom_bond_distance
_geom_bond_site_symmetry_2
Na0 O30 2.312149 1_555
Na0 O28 2.312149 1_555
Na0 O44 2.384244 1_655
Na0 O46 2.384244 1_545
Na0 O26 2.559470 1_555
Na0 O24 2.559470 1_555
Na0 O0 2.709806 1_645
Na0 O2 2.709806 1_645
Na1 O29 2.312149 1_555
Na1 O31 2.312149 1_555
Na1 O47 2.384244 1_565
Na1 O45 2.384244 1_455
Na1 O25 2.559470 1_555
Na1 O27 2.559470 1_555
Na1 O3 2.709806 1_465
Na1 O1 2.709806 1_465
Mg0 O34 2.052231 1_545
Mg0 O35 2.052231 1_555
Mg0 O6 2.092318 1_555
Mg0 O7 2.092318 1_545
Mg0 O36 2.093970 1_555
Mg0 O37 2.093970 1_545
Mg1 O33 2.052231 1_454
Mg1 O32 2.052231 1_555
Mg1 O5 2.092318 1_554
Mg1 O4 2.092318 1_455
Mg1 O39 2.093970 1_555
Mg1 O38 2.093970 1_454
Al0 O46 1.837884 1_545
Al0 O24 1.896945 1_555
Al0 O20 1.911576 1_555
Al0 O6 1.930625 1_555
Al0 O34 1.965197 1_545
Al0 O36 2.006153 1_555
Al1 O47 1.837884 1_565
Al1 O25 1.896945 1_555
Al1 O21 1.911576 1_555
Al1 O7 1.930625 1_555
Al1 O35 1.965197 1_565
Al1 O37 2.006153 1_555
Al2 O44 1.837884 1_655
Al2 O26 1.896945 1_555
Al2 O22 1.911576 1_555
Al2 O4 1.930625 1_555
Al2 O32 1.965197 1_655
Al2 O38 2.006153 1_554
Al3 O45 1.837884 1_455
Al3 O27 1.896945 1_555
Al3 O23 1.911576 1_555
Al3 O5 1.930625 1_555
Al3 O33 1.965197 1_455
Al3 O39 2.006153 1_556
Al4 O8 1.871833 1_565
Al4 O40 1.886206 1_555
Al4 O18 1.905299 1_655
Al4 O39 1.964327 1_655
Al4 O15 1.967205 1_655
Al4 O20 1.970820 1_565
Al5 O9 1.871833 1_545
Al5 O41 1.886206 1_555
Al5 O19 1.905299 1_455
Al5 O38 1.964327 1_455
Al5 O14 1.967205 1_455
Al5 O21 1.970820 1_545
Al6 O10 1.871833 1_455
Al6 O42 1.886195 1_555
Al6 O16 1.905300 1_545
Al6 O37 1.964323 1_545
Al6 O13 1.967217 1_545
Al6 O22 1.970826 1_455
Al7 O11 1.871833 1_655
Al7 O43 1.886206 1_555
Al7 O17 1.905299 1_565
Al7 O36 1.964327 1_565
Al7 O12 1.967205 1_565
Al7 O23 1.970820 1_655
Al8 O14 1.887042 1_454
Al8 O15 1.887042 1_545
Al8 O29 1.932517 1_544
Al8 O28 1.932517 1_455
Al8 O0 1.988120 1_545
Al8 O1 1.988120 1_454
Al9 O13 1.887042 1_545
Al9 O12 1.887042 1_455
Al9 O30 1.932517 1_455
Al9 O31 1.932517 1_545
Al9 O3 1.988120 1_455
Al9 O2 1.988120 1_545
H0 O20 0.998542 1_555
H1 O21 0.998542 1_555
H2 O22 0.998542 1_555
H3 O23 0.998542 1_555
H4 O28 1.000466 1_555
H4 O0 1.707056 1_555
H5 O29 1.000466 1_555
H5 O1 1.707056 1_555
H6 O30 1.000466 1_555
H6 O2 1.707056 1_555
H7 O31 1.000466 1_555
H7 O3 1.707056 1_555
H8 O28 1.036068 1_555
H8 O20 1.526545 1_555
H9 O29 1.036068 1_555
H9 O21 1.526545 1_555
H10 O30 1.036068 1_555
H10 O22 1.526545 1_555
H11 O31 1.036068 1_555
H11 O23 1.526545 1_555
H12 O15 0.969501 1_555
H13 O14 0.969501 1_555
H14 O13 0.969501 1_555
H15 O12 0.969501 1_555
H16 O37 0.991817 1_555
H17 O36 0.991817 1_555
H18 O39 0.991817 1_555
H19 O38 0.991817 1_555
O0 P0 1.569531 1_555
O1 P1 1.569531 1_555
O2 P2 1.569531 1_555
O3 P3 1.569531 1_555
O4 P4 1.559798 1_555
O5 P5 1.559798 1_555
O6 P6 1.559798 1_555
O7 P7 1.559798 1_555
O8 P1 1.540545 1_554
O9 P0 1.540545 1_556
O10 P3 1.540545 1_555
O11 P2 1.540545 1_555
O16 P4 1.553492 1_555
O17 P5 1.553492 1_555
O18 P6 1.553492 1_555
O19 P7 1.553492 1_555
O24 P2 1.537707 1_555
O25 P3 1.537707 1_555
O26 P0 1.537707 1_555
O27 P1 1.537707 1_555
O32 P4 1.553890 1_545
O33 P5 1.553890 1_565
O34 P6 1.553890 1_655
O35 P7 1.553890 1_455
O40 P4 1.515964 1_555
O41 P5 1.515964 1_555
O42 P6 1.515964 1_555
O43 P7 1.515964 1_555
O44 P0 1.542798 1_545
O45 P1 1.542798 1_565
O46 P2 1.542798 1_655
O47 P3 1.542798 1_455
