# generated using pymatgen
data_KU3
_symmetry_space_group_name_H-M   'P 1'
_cell_length_a   4.84484197
_cell_length_b   8.28876342
_cell_length_c   14.83052200
_cell_angle_alpha   90.00000000
_cell_angle_beta   90.00000000
_cell_angle_gamma   89.94356397
_symmetry_Int_Tables_number   1
_chemical_formula_structural   KU3
_chemical_formula_sum   'K4 U12'
_cell_volume   595.56008974
_cell_formula_units_Z   4
loop_
 _symmetry_equiv_pos_site_id
 _symmetry_equiv_pos_as_xyz
  1  'x, y, z'
loop_
 _atom_site_type_symbol
 _atom_site_label
 _atom_site_symmetry_multiplicity
 _atom_site_fract_x
 _atom_site_fract_y
 _atom_site_fract_z
 _atom_site_occupancy
  K  K0  1  0.78077400  0.71270600  0.52438900  1
  K  K1  1  0.71922600  0.78729400  0.02438900  1
  K  K2  1  0.21922600  0.28729400  0.47561100  1
  K  K3  1  0.28077400  0.21270600  0.97561100  1
  U  U0  1  0.48825800  0.65611000  0.26744600  1
  U  U1  1  0.50929300  0.67369500  0.77926500  1
  U  U2  1  0.99070700  0.82630500  0.27926500  1
  U  U3  1  0.01174200  0.84389000  0.76744600  1
  U  U4  1  0.51174200  0.34389000  0.73255400  1
  U  U5  1  0.49070700  0.32630500  0.22073500  1
  U  U6  1  0.00929300  0.17369500  0.72073500  1
  U  U7  1  0.98825800  0.15611000  0.23255400  1
  U  U8  1  0.98907000  0.49570300  0.23100800  1
  U  U9  1  0.01093000  0.50429700  0.76899200  1
  U  U10  1  0.48907000  0.99570300  0.26899200  1
  U  U11  1  0.51093000  0.00429700  0.73100800  1
loop_
_geom_bond_atom_site_label_1
_geom_bond_atom_site_label_2
_geom_bond_distance
_geom_bond_site_symmetry_2
K0 U2 3.890822 1_555
K0 U3 3.928167 1_655
K0 U1 4.015388 1_555
K0 U0 4.092735 1_555
K0 U11 4.115121 1_565
K0 U9 4.169303 1_655
K0 K2 4.177867 1_655
K0 K2 4.514155 1_555
K1 U1 3.890822 1_554
K1 U0 3.928167 1_555
K1 U2 4.015388 1_555
K1 U3 4.092735 1_654
K1 U8 4.115121 1_555
K1 U10 4.169303 1_555
K1 K3 4.177867 1_564
K1 K3 4.514155 1_664
K2 U6 3.890822 1_555
K2 U7 3.928167 1_455
K2 U5 4.015388 1_555
K2 U4 4.092735 1_555
K2 U10 4.115121 1_545
K2 U8 4.169303 1_455
K3 U5 3.890822 1_556
K3 U4 3.928167 1_555
K3 U6 4.015388 1_555
K3 U7 4.092735 1_456
K3 U9 4.115121 1_555
K3 U11 4.169303 1_555
U0 U2 2.797302 1_455
U0 U8 2.813399 1_455
U0 U10 2.814906 1_555
U0 U8 2.817914 1_555
U0 U5 2.820099 1_555
U0 U2 2.820165 1_555
U1 U3 2.797302 1_555
U1 U9 2.798419 1_555
U1 U9 2.809732 1_655
U1 U4 2.820099 1_555
U1 U3 2.820165 1_655
U1 U11 2.832215 1_565
U2 U7 2.820099 1_565
U2 U8 2.832215 1_555
U3 U9 2.814906 1_555
U3 U6 2.820099 1_565
U4 U6 2.797302 1_655
U4 U9 2.813399 1_655
U4 U9 2.817914 1_555
U4 U6 2.820165 1_555
U5 U7 2.797302 1_555
U5 U8 2.798419 1_555
U5 U8 2.809732 1_455
U5 U7 2.820165 1_455
U6 U9 2.832215 1_555
U7 U8 2.814906 1_555
U10 U2 2.798419 1_455
U10 U2 2.809732 1_555
U10 U7 2.813399 1_565
U10 U7 2.817914 1_465
U10 U5 2.832215 1_565
U11 U6 2.798419 1_655
U11 U6 2.809732 1_555
U11 U3 2.813399 1_545
U11 U4 2.814906 1_555
U11 U3 2.817914 1_645
