# generated using pymatgen
data_Yb9Co13Sn38
_symmetry_space_group_name_H-M   'P 1'
_cell_length_a   9.55270727
_cell_length_b   9.57010224
_cell_length_c   28.73222534
_cell_angle_alpha   90.00000000
_cell_angle_beta   90.00000000
_cell_angle_gamma   90.00000000
_symmetry_Int_Tables_number   1
_chemical_formula_structural   Yb9Co13Sn38
_chemical_formula_sum   'Yb18 Co26 Sn76'
_cell_volume   2626.71110946
_cell_formula_units_Z   2
loop_
 _symmetry_equiv_pos_site_id
 _symmetry_equiv_pos_as_xyz
  1  'x, y, z'
loop_
 _atom_site_type_symbol
 _atom_site_label
 _atom_site_symmetry_multiplicity
 _atom_site_fract_x
 _atom_site_fract_y
 _atom_site_fract_z
 _atom_site_occupancy
  Yb  Yb0  1  -0.00000000  0.50000000  0.24938356  1
  Yb  Yb1  1  -0.00000000  0.50000000  0.58302401  1
  Yb  Yb2  1  -0.00000000  0.50000000  0.91617314  1
  Yb  Yb3  1  0.50000000  0.24948559  0.00034405  1
  Yb  Yb4  1  0.50000000  0.24952830  0.33333300  1
  Yb  Yb5  1  0.50000000  0.24948559  0.66632295  1
  Yb  Yb6  1  0.74845382  0.00000000  0.16658125  1
  Yb  Yb7  1  0.74845382  0.00000000  0.50008575  1
  Yb  Yb8  1  0.74734681  0.00000000  0.83333300  1
  Yb  Yb9  1  -0.00000000  0.50000000  0.08364199  1
  Yb  Yb10  1  -0.00000000  0.50000000  0.41728344  1
  Yb  Yb11  1  -0.00000000  0.50000000  0.75049386  1
  Yb  Yb12  1  0.50000000  0.75051441  0.00034405  1
  Yb  Yb13  1  0.50000000  0.75047170  0.33333300  1
  Yb  Yb14  1  0.50000000  0.75051441  0.66632295  1
  Yb  Yb15  1  0.25154618  0.00000000  0.16658125  1
  Yb  Yb16  1  0.25154618  0.00000000  0.50008575  1
  Yb  Yb17  1  0.25265319  0.00000000  0.83333300  1
  Co  Co0  1  0.75057550  0.25059232  0.25013169  1
  Co  Co1  1  0.75091766  0.24974645  0.58345237  1
  Co  Co2  1  0.75059618  0.25160144  0.91682262  1
  Co  Co3  1  0.24908234  0.75025355  0.08321363  1
  Co  Co4  1  0.24942450  0.74940768  0.41653531  1
  Co  Co5  1  0.24940382  0.74839856  0.74984438  1
  Co  Co6  1  0.75091766  0.75025355  0.08321363  1
  Co  Co7  1  0.75057550  0.74940768  0.41653531  1
  Co  Co8  1  0.75059618  0.74839856  0.74984438  1
  Co  Co9  1  0.24942450  0.25059232  0.25013169  1
  Co  Co10  1  0.24908234  0.24974645  0.58345237  1
  Co  Co11  1  0.24940382  0.25160144  0.91682262  1
  Co  Co12  1  0.24942450  0.74940768  0.25013169  1
  Co  Co13  1  0.24908234  0.75025355  0.58345237  1
  Co  Co14  1  0.24940382  0.74839856  0.91682262  1
  Co  Co15  1  0.75091766  0.24974645  0.08321363  1
  Co  Co16  1  0.75057550  0.25059232  0.41653531  1
  Co  Co17  1  0.75059618  0.25160144  0.74984438  1
  Co  Co18  1  0.24908234  0.24974645  0.08321363  1
  Co  Co19  1  0.24942450  0.25059232  0.41653531  1
  Co  Co20  1  0.24940382  0.25160144  0.74984438  1
  Co  Co21  1  0.75057550  0.74940768  0.25013169  1
  Co  Co22  1  0.75091766  0.75025355  0.58345237  1
  Co  Co23  1  0.75059618  0.74839856  0.91682262  1
  Co  Co24  1  0.50000000  0.50000000  0.16670067  1
  Co  Co25  1  0.50000000  0.50000000  0.49996633  1
  Sn  Sn0  1  0.78718948  0.34560168  0.16658851  1
  Sn  Sn1  1  0.78718948  0.34560168  0.50007849  1
  Sn  Sn2  1  0.80041672  0.34266659  0.83333300  1
  Sn  Sn3  1  0.65299557  0.50000000  0.26152724  1
  Sn  Sn4  1  0.65323477  0.50000000  0.59495837  1
  Sn  Sn5  1  0.65750210  0.50000000  0.93327048  1
  Sn  Sn6  1  0.50000000  0.21416353  0.21733626  1
  Sn  Sn7  1  0.50000000  0.21403569  0.55104506  1
  Sn  Sn8  1  0.50000000  0.19862613  0.88607016  1
  Sn  Sn9  1  0.21281052  0.65439832  0.16658851  1
  Sn  Sn10  1  0.21281052  0.65439832  0.50007849  1
  Sn  Sn11  1  0.19958328  0.65733341  0.83333300  1
  Sn  Sn12  1  0.34676523  0.50000000  0.07170863  1
  Sn  Sn13  1  0.34700443  0.50000000  0.40513976  1
  Sn  Sn14  1  0.34249790  0.50000000  0.73339552  1
  Sn  Sn15  1  0.50000000  0.78596431  0.11562094  1
  Sn  Sn16  1  0.50000000  0.78583647  0.44933074  1
  Sn  Sn17  1  0.50000000  0.80137387  0.78059684  1
  Sn  Sn18  1  0.78718948  0.65439832  0.16658851  1
  Sn  Sn19  1  0.78718948  0.65439832  0.50007849  1
  Sn  Sn20  1  0.80041672  0.65733341  0.83333300  1
  Sn  Sn21  1  0.65323477  0.50000000  0.07170863  1
  Sn  Sn22  1  0.65299557  0.50000000  0.40513976  1
  Sn  Sn23  1  0.65750210  0.50000000  0.73339552  1
  Sn  Sn24  1  0.21281052  0.34560168  0.16658851  1
  Sn  Sn25  1  0.21281052  0.34560168  0.50007849  1
  Sn  Sn26  1  0.19958328  0.34266659  0.83333300  1
  Sn  Sn27  1  0.34700443  0.50000000  0.26152724  1
  Sn  Sn28  1  0.34676523  0.50000000  0.59495837  1
  Sn  Sn29  1  0.34249790  0.50000000  0.93327048  1
  Sn  Sn30  1  0.50000000  0.78583647  0.21733626  1
  Sn  Sn31  1  0.50000000  0.78596431  0.55104506  1
  Sn  Sn32  1  0.50000000  0.80137387  0.88607016  1
  Sn  Sn33  1  0.50000000  0.21403569  0.11562094  1
  Sn  Sn34  1  0.50000000  0.21416353  0.44933074  1
  Sn  Sn35  1  0.50000000  0.19862613  0.78059684  1
  Sn  Sn36  1  0.30080932  0.00000000  0.28044108  1
  Sn  Sn37  1  0.30016547  0.00000000  0.61388882  1
  Sn  Sn38  1  0.29946699  0.00000000  0.94712285  1
  Sn  Sn39  1  0.15890117  0.30130355  0.00025871  1
  Sn  Sn40  1  0.15939990  0.30100466  0.33333300  1
  Sn  Sn41  1  0.15890117  0.30130355  0.66640829  1
  Sn  Sn42  1  -0.00000000  0.15816261  0.23317437  1
  Sn  Sn43  1  -0.00000000  0.15798295  0.56618384  1
  Sn  Sn44  1  -0.00000000  0.15831668  0.90003768  1
  Sn  Sn45  1  0.69983453  0.00000000  0.05277718  1
  Sn  Sn46  1  0.69919068  0.00000000  0.38622592  1
  Sn  Sn47  1  0.70053301  0.00000000  0.71954415  1
  Sn  Sn48  1  0.84109883  0.69869645  0.00025871  1
  Sn  Sn49  1  0.84060010  0.69899534  0.33333300  1
  Sn  Sn50  1  0.84109883  0.69869645  0.66640829  1
  Sn  Sn51  1  -0.00000000  0.84201705  0.10048316  1
  Sn  Sn52  1  -0.00000000  0.84183739  0.43349163  1
  Sn  Sn53  1  -0.00000000  0.84168332  0.76662932  1
  Sn  Sn54  1  0.30016547  0.00000000  0.05277718  1
  Sn  Sn55  1  0.30080932  0.00000000  0.38622592  1
  Sn  Sn56  1  0.29946699  0.00000000  0.71954415  1
  Sn  Sn57  1  0.15890117  0.69869645  0.00025871  1
  Sn  Sn58  1  0.15939990  0.69899534  0.33333300  1
  Sn  Sn59  1  0.15890117  0.69869645  0.66640829  1
  Sn  Sn60  1  0.69919068  0.00000000  0.28044108  1
  Sn  Sn61  1  0.69983453  0.00000000  0.61388882  1
  Sn  Sn62  1  0.70053301  0.00000000  0.94712285  1
  Sn  Sn63  1  0.84109883  0.30130355  0.00025871  1
  Sn  Sn64  1  0.84060010  0.30100466  0.33333300  1
  Sn  Sn65  1  0.84109883  0.30130355  0.66640829  1
  Sn  Sn66  1  -0.00000000  0.15798295  0.10048316  1
  Sn  Sn67  1  -0.00000000  0.15816261  0.43349163  1
  Sn  Sn68  1  -0.00000000  0.15831668  0.76662932  1
  Sn  Sn69  1  -0.00000000  0.84183739  0.23317437  1
  Sn  Sn70  1  -0.00000000  0.84201705  0.56618384  1
  Sn  Sn71  1  -0.00000000  0.84168332  0.90003768  1
  Sn  Sn72  1  0.50000000  0.50000000  0.83333300  1
  Sn  Sn73  1  -0.00000000  0.00000000  0.00041495  1
  Sn  Sn74  1  -0.00000000  0.00000000  0.33333300  1
  Sn  Sn75  1  -0.00000000  0.00000000  0.66625205  1
loop_
_geom_bond_atom_site_label_1
_geom_bond_atom_site_label_2
_geom_bond_distance
_geom_bond_site_symmetry_2
Co0 Sn3 2.583253 1_555
Co0 Sn64 2.585942 1_555
Co0 Sn42 2.587855 1_655
Co0 Sn0 2.590540 1_555
Co0 Sn6 2.595982 1_555
Co0 Sn60 2.598206 1_555
Co0 Yb0 3.372641 1_655
Co0 Yb4 3.382980 1_555
Co0 Yb6 3.393314 1_555
Co1 Sn65 2.581995 1_555
Co1 Sn43 2.584373 1_655
Co1 Sn1 2.588451 1_555
Co1 Sn61 2.591421 1_555
Co1 Sn4 2.591492 1_555
Co1 Sn7 2.594059 1_555
Co1 Yb1 3.376025 1_655
Co1 Yb5 3.378575 1_555
Co1 Yb7 3.383878 1_555
Co2 Sn5 2.581718 1_555
Co2 Sn44 2.589555 1_655
Co2 Sn63 2.592442 1_556
Co2 Sn2 2.596240 1_555
Co2 Sn8 2.601610 1_555
Co2 Sn62 2.604687 1_555
Co2 Yb2 3.365657 1_655
Co2 Yb3 3.389670 1_556
Co2 Yb8 3.398994 1_555
Co3 Sn57 2.581969 1_555
Co3 Sn51 2.584379 1_555
Co3 Sn9 2.588478 1_555
Co3 Sn54 2.591421 1_565
Co3 Sn12 2.591488 1_555
Co3 Sn15 2.594059 1_555
Co3 Yb9 3.376025 1_555
Co3 Yb12 3.378555 1_555
Co3 Yb15 3.383898 1_565
Co4 Sn13 2.583253 1_555
Co4 Sn58 2.585968 1_555
Co4 Sn52 2.587850 1_555
Co4 Sn10 2.590540 1_555
Co4 Sn16 2.595982 1_555
Co4 Sn55 2.598206 1_565
Co4 Yb10 3.372641 1_555
Co4 Yb13 3.383000 1_555
Co4 Yb16 3.393314 1_565
Co5 Sn14 2.581723 1_555
Co5 Sn53 2.589555 1_555
Co5 Sn59 2.592442 1_555
Co5 Sn11 2.596214 1_555
Co5 Sn17 2.601610 1_555
Co5 Sn56 2.604687 1_565
Co5 Yb11 3.365657 1_555
Co5 Yb14 3.389670 1_555
Co5 Yb17 3.398973 1_565
Co6 Sn48 2.581969 1_555
Co6 Sn51 2.584379 1_655
Co6 Sn18 2.588478 1_555
Co6 Sn45 2.591421 1_565
Co6 Sn21 2.591488 1_555
Co6 Sn15 2.594059 1_555
Co6 Yb9 3.376025 1_655
Co6 Yb12 3.378555 1_555
Co6 Yb6 3.383898 1_565
Co7 Sn22 2.583253 1_555
Co7 Sn49 2.585968 1_555
Co7 Sn52 2.587850 1_655
Co7 Sn19 2.590540 1_555
Co7 Sn16 2.595982 1_555
Co7 Sn46 2.598206 1_565
Co7 Yb10 3.372641 1_655
Co7 Yb13 3.383000 1_555
Co7 Yb7 3.393314 1_565
Co8 Sn23 2.581723 1_555
Co8 Sn53 2.589555 1_655
Co8 Sn50 2.592442 1_555
Co8 Sn20 2.596214 1_555
Co8 Sn17 2.601610 1_555
Co8 Sn47 2.604687 1_565
Co8 Yb11 3.365657 1_655
Co8 Yb14 3.389670 1_555
Co8 Yb8 3.398973 1_565
Co9 Sn27 2.583253 1_555
Co9 Sn40 2.585942 1_555
Co9 Sn42 2.587855 1_555
Co9 Sn24 2.590540 1_555
Co9 Sn6 2.595982 1_555
Co9 Sn36 2.598206 1_555
Co9 Yb0 3.372641 1_555
Co9 Yb4 3.382980 1_555
Co9 Yb15 3.393314 1_555
Co10 Sn41 2.581995 1_555
Co10 Sn43 2.584373 1_555
Co10 Sn25 2.588451 1_555
Co10 Sn37 2.591421 1_555
Co10 Sn28 2.591492 1_555
Co10 Sn7 2.594059 1_555
Co10 Yb1 3.376025 1_555
Co10 Yb5 3.378575 1_555
Co10 Yb16 3.383878 1_555
Co11 Sn29 2.581718 1_555
Co11 Sn44 2.589555 1_555
Co11 Sn39 2.592442 1_556
Co11 Sn26 2.596240 1_555
Co11 Sn8 2.601610 1_555
Co11 Sn38 2.604687 1_555
Co11 Yb2 3.365657 1_555
Co11 Yb3 3.389670 1_556
Co11 Yb17 3.398994 1_555
Co12 Sn27 2.583253 1_555
Co12 Sn58 2.585942 1_555
Co12 Sn69 2.587855 1_555
Co12 Sn9 2.590540 1_555
Co12 Sn30 2.595982 1_555
Co12 Sn36 2.598206 1_565
Co12 Yb0 3.372641 1_555
Co12 Yb13 3.382980 1_555
Co12 Yb15 3.393314 1_565
Co13 Sn59 2.581995 1_555
Co13 Sn70 2.584373 1_555
Co13 Sn10 2.588451 1_555
Co13 Sn37 2.591421 1_565
Co13 Sn28 2.591492 1_555
Co13 Sn31 2.594059 1_555
Co13 Yb1 3.376025 1_555
Co13 Yb14 3.378575 1_555
Co13 Yb16 3.383878 1_565
Co14 Sn29 2.581718 1_555
Co14 Sn71 2.589555 1_555
Co14 Sn57 2.592442 1_556
Co14 Sn11 2.596240 1_555
Co14 Sn32 2.601610 1_555
Co14 Sn38 2.604687 1_565
Co14 Yb2 3.365657 1_555
Co14 Yb12 3.389670 1_556
Co14 Yb17 3.398994 1_565
Co15 Sn63 2.581969 1_555
Co15 Sn66 2.584379 1_655
Co15 Sn0 2.588478 1_555
Co15 Sn45 2.591421 1_555
Co15 Sn21 2.591488 1_555
Co15 Sn33 2.594059 1_555
Co15 Yb9 3.376025 1_655
Co15 Yb3 3.378555 1_555
Co15 Yb6 3.383898 1_555
Co16 Sn22 2.583253 1_555
Co16 Sn64 2.585968 1_555
Co16 Sn67 2.587850 1_655
Co16 Sn1 2.590540 1_555
Co16 Sn34 2.595982 1_555
Co16 Sn46 2.598206 1_555
Co16 Yb10 3.372641 1_655
Co16 Yb4 3.383000 1_555
Co16 Yb7 3.393314 1_555
Co17 Sn23 2.581723 1_555
Co17 Sn68 2.589555 1_655
Co17 Sn65 2.592442 1_555
Co17 Sn2 2.596214 1_555
Co17 Sn35 2.601610 1_555
Co17 Sn47 2.604687 1_555
Co17 Yb11 3.365657 1_655
Co17 Yb5 3.389670 1_555
Co17 Yb8 3.398973 1_555
Co18 Sn39 2.581969 1_555
Co18 Sn66 2.584379 1_555
Co18 Sn24 2.588478 1_555
Co18 Sn54 2.591421 1_555
Co18 Sn12 2.591488 1_555
Co18 Sn33 2.594059 1_555
Co18 Yb9 3.376025 1_555
Co18 Yb3 3.378555 1_555
Co18 Yb15 3.383898 1_555
Co19 Sn13 2.583253 1_555
Co19 Sn40 2.585968 1_555
Co19 Sn67 2.587850 1_555
Co19 Sn25 2.590540 1_555
Co19 Sn34 2.595982 1_555
Co19 Sn55 2.598206 1_555
Co19 Yb10 3.372641 1_555
Co19 Yb4 3.383000 1_555
Co19 Yb16 3.393314 1_555
Co20 Sn14 2.581723 1_555
Co20 Sn68 2.589555 1_555
Co20 Sn41 2.592442 1_555
Co20 Sn26 2.596214 1_555
Co20 Sn35 2.601610 1_555
Co20 Sn56 2.604687 1_555
Co20 Yb11 3.365657 1_555
Co20 Yb5 3.389670 1_555
Co20 Yb17 3.398973 1_555
Co21 Sn3 2.583253 1_555
Co21 Sn49 2.585942 1_555
Co21 Sn69 2.587855 1_655
Co21 Sn18 2.590540 1_555
Co21 Sn30 2.595982 1_555
Co21 Sn60 2.598206 1_565
Co21 Yb0 3.372641 1_655
Co21 Yb13 3.382980 1_555
Co21 Yb6 3.393314 1_565
Co22 Sn50 2.581995 1_555
Co22 Sn70 2.584373 1_655
Co22 Sn19 2.588451 1_555
Co22 Sn61 2.591421 1_565
Co22 Sn4 2.591492 1_555
Co22 Sn31 2.594059 1_555
Co22 Yb1 3.376025 1_655
Co22 Yb14 3.378575 1_555
Co22 Yb7 3.383878 1_565
Co23 Sn5 2.581718 1_555
Co23 Sn71 2.589555 1_655
Co23 Sn48 2.592442 1_556
Co23 Sn20 2.596240 1_555
Co23 Sn32 2.601610 1_555
Co23 Sn62 2.604687 1_565
Co23 Yb2 3.365657 1_655
Co23 Yb12 3.389670 1_556
Co23 Yb8 3.398994 1_565
Co24 Sn3 3.091824 1_555
Co24 Sn27 3.091824 1_555
Co24 Sn12 3.097093 1_555
Co24 Sn21 3.097093 1_555
Co24 Sn6 3.098311 1_555
Co24 Sn30 3.098311 1_555
Co24 Sn15 3.105402 1_555
Co24 Sn33 3.105402 1_555
Co24 Sn0 3.116052 1_555
Co24 Sn9 3.116052 1_555
Co24 Sn18 3.116052 1_555
Co24 Sn24 3.116052 1_555
Co25 Sn22 3.091824 1_555
Co25 Sn13 3.091824 1_555
Co25 Sn4 3.097093 1_555
Co25 Sn28 3.097093 1_555
Co25 Sn34 3.098311 1_555
Co25 Sn16 3.098311 1_555
Co25 Sn31 3.105388 1_555
Co25 Sn7 3.105388 1_555
Co25 Sn19 3.116052 1_555
Co25 Sn1 3.116052 1_555
Co25 Sn25 3.116052 1_555
Co25 Sn10 3.116052 1_555
Sn0 Sn18 2.955215 1_555
Sn0 Yb6 3.328078 1_555
Sn0 Yb0 3.460516 1_655
Sn0 Yb9 3.463510 1_655
Sn1 Sn19 2.955215 1_555
Sn1 Yb7 3.328078 1_555
Sn1 Yb10 3.460516 1_655
Sn1 Yb1 3.463490 1_655
Sn2 Sn20 3.011394 1_555
Sn2 Sn68 3.228109 1_655
Sn2 Sn44 3.228126 1_655
Sn2 Sn72 3.240808 1_555
Sn2 Yb8 3.318309 1_555
Sn2 Yb11 3.401062 1_655
Sn2 Yb2 3.401082 1_655
Sn3 Sn49 3.330922 1_555
Sn3 Sn64 3.330922 1_555
Sn3 Yb0 3.333144 1_655
Sn3 Yb13 3.484019 1_555
Sn3 Yb4 3.484019 1_555
Sn4 Yb1 3.330247 1_655
Sn4 Yb5 3.477771 1_555
Sn4 Yb14 3.477771 1_555
Sn5 Sn63 3.224345 1_556
Sn5 Sn72 3.241732 1_555
Sn5 Yb2 3.308456 1_655
Sn5 Yb3 3.424250 1_556
Sn5 Yb12 3.424250 1_556
Sn6 Yb4 3.349985 1_555
Sn6 Yb15 3.458386 1_555
Sn6 Yb6 3.458386 1_555
Sn7 Yb5 3.329520 1_555
Sn7 Yb16 3.460141 1_555
Sn7 Yb7 3.460141 1_555
Sn8 Yb3 3.319224 1_556
Sn8 Yb17 3.390028 1_555
Sn8 Yb8 3.390028 1_555
Sn9 Yb15 3.328078 1_565
Sn9 Yb0 3.460516 1_555
Sn9 Yb9 3.463510 1_555
Sn10 Sn25 2.955215 1_555
Sn10 Yb16 3.328078 1_565
Sn10 Yb10 3.460516 1_555
Sn10 Yb1 3.463490 1_555
Sn11 Sn26 3.011394 1_555
Sn11 Sn53 3.228109 1_555
Sn11 Sn71 3.228126 1_555
Sn11 Sn72 3.240808 1_555
Sn11 Yb17 3.318309 1_565
Sn11 Yb11 3.401062 1_555
Sn11 Yb2 3.401082 1_555
Sn12 Sn21 2.927614 1_555
Sn12 Yb9 3.330244 1_555
Sn12 Yb12 3.477771 1_555
Sn12 Yb3 3.477771 1_555
Sn13 Sn22 2.923044 1_555
Sn13 Sn58 3.330939 1_555
Sn13 Sn40 3.330939 1_555
Sn13 Yb10 3.333144 1_555
Sn13 Yb4 3.484036 1_555
Sn13 Yb13 3.484036 1_555
Sn14 Sn23 3.009143 1_555
Sn14 Sn41 3.224328 1_555
Sn14 Sn59 3.224328 1_555
Sn14 Sn72 3.241732 1_555
Sn14 Yb11 3.308460 1_555
Sn14 Yb14 3.424234 1_555
Sn14 Yb5 3.424234 1_555
Sn15 Sn30 2.922508 1_555
Sn15 Yb12 3.329491 1_555
Sn15 Yb15 3.460153 1_565
Sn15 Yb6 3.460153 1_565
Sn16 Sn31 2.922479 1_555
Sn16 Yb13 3.350013 1_555
Sn16 Yb16 3.458386 1_565
Sn16 Yb7 3.458386 1_565
Sn17 Sn32 3.030483 1_555
Sn17 Sn47 3.218713 1_565
Sn17 Sn56 3.218713 1_565
Sn17 Sn72 3.257975 1_555
Sn17 Yb14 3.319224 1_555
Sn17 Yb17 3.390015 1_565
Sn17 Yb8 3.390015 1_565
Sn18 Yb6 3.328078 1_565
Sn18 Yb0 3.460516 1_655
Sn18 Yb9 3.463510 1_655
Sn19 Yb7 3.328078 1_565
Sn19 Yb10 3.460516 1_655
Sn19 Yb1 3.463490 1_655
Sn20 Sn53 3.228109 1_655
Sn20 Sn71 3.228126 1_655
Sn20 Sn72 3.240808 1_555
Sn20 Yb8 3.318309 1_565
Sn20 Yb11 3.401062 1_655
Sn20 Yb2 3.401082 1_655
Sn21 Yb9 3.330244 1_655
Sn21 Yb12 3.477771 1_555
Sn21 Yb3 3.477771 1_555
Sn22 Sn49 3.330939 1_555
Sn22 Sn64 3.330939 1_555
Sn22 Yb10 3.333144 1_655
Sn22 Yb13 3.484036 1_555
Sn22 Yb4 3.484036 1_555
Sn23 Sn65 3.224328 1_555
Sn23 Sn50 3.224328 1_555
Sn23 Sn72 3.241732 1_555
Sn23 Yb11 3.308460 1_655
Sn23 Yb14 3.424234 1_555
Sn23 Yb5 3.424234 1_555
Sn24 Sn9 2.955215 1_555
Sn24 Yb15 3.328078 1_555
Sn24 Yb0 3.460516 1_555
Sn24 Yb9 3.463510 1_555
Sn25 Yb16 3.328078 1_555
Sn25 Yb10 3.460516 1_555
Sn25 Yb1 3.463490 1_555
Sn26 Sn68 3.228109 1_555
Sn26 Sn44 3.228126 1_555
Sn26 Sn72 3.240808 1_555
Sn26 Yb17 3.318309 1_555
Sn26 Yb11 3.401062 1_555
Sn26 Yb2 3.401082 1_555
Sn27 Sn3 2.923044 1_555
Sn27 Sn58 3.330922 1_555
Sn27 Sn40 3.330922 1_555
Sn27 Yb0 3.333144 1_555
Sn27 Yb13 3.484019 1_555
Sn27 Yb4 3.484019 1_555
Sn28 Sn4 2.927614 1_555
Sn28 Yb1 3.330247 1_555
Sn28 Yb5 3.477771 1_555
Sn28 Yb14 3.477771 1_555
Sn29 Sn5 3.009143 1_555
Sn29 Sn57 3.224345 1_556
Sn29 Sn39 3.224345 1_556
Sn29 Sn72 3.241732 1_555
Sn29 Yb2 3.308456 1_555
Sn29 Yb3 3.424250 1_556
Sn29 Yb12 3.424250 1_556
Sn30 Yb13 3.349985 1_555
Sn30 Yb15 3.458386 1_565
Sn30 Yb6 3.458386 1_565
Sn31 Yb14 3.329520 1_555
Sn31 Yb16 3.460141 1_565
Sn31 Yb7 3.460141 1_565
Sn32 Sn62 3.218713 1_565
Sn32 Sn38 3.218713 1_565
Sn32 Sn72 3.257988 1_555
Sn32 Yb12 3.319224 1_556
Sn32 Yb17 3.390028 1_565
Sn32 Yb8 3.390028 1_565
Sn33 Sn6 2.922508 1_555
Sn33 Yb3 3.329491 1_555
Sn33 Yb15 3.460153 1_555
Sn33 Yb6 3.460153 1_555
Sn34 Sn7 2.922479 1_555
Sn34 Yb4 3.350013 1_555
Sn34 Yb16 3.458386 1_555
Sn34 Yb7 3.458386 1_555
Sn35 Sn8 3.030483 1_555
Sn35 Sn47 3.218713 1_555
Sn35 Sn56 3.218713 1_555
Sn35 Sn72 3.257975 1_555
Sn35 Yb5 3.319224 1_555
Sn35 Yb17 3.390015 1_555
Sn35 Yb8 3.390015 1_555
Sn36 Sn74 3.250653 1_555
Sn36 Yb15 3.305121 1_555
Sn36 Yb4 3.410686 1_555
Sn36 Yb13 3.410686 1_545
Sn37 Sn56 3.035720 1_555
Sn37 Sn75 3.238132 1_555
Sn37 Yb16 3.302636 1_555
Sn37 Yb14 3.408001 1_545
Sn37 Yb5 3.408001 1_555
Sn38 Sn54 3.035691 1_556
Sn38 Sn8 3.218713 1_555
Sn38 Sn73 3.244734 1_556
Sn38 Yb17 3.299878 1_555
Sn38 Yb3 3.421789 1_556
Sn38 Yb12 3.421789 1_546
Sn39 Sn73 3.258643 1_555
Sn39 Yb3 3.295938 1_555
Sn39 Yb9 3.414645 1_555
Sn39 Yb2 3.428833 1_554
Sn40 Sn64 3.045401 1_455
Sn40 Sn74 3.258333 1_555
Sn40 Yb4 3.290736 1_555
Sn40 Yb0 3.429779 1_555
Sn40 Yb10 3.429799 1_555
Sn41 Sn75 3.258643 1_555
Sn41 Yb5 3.295938 1_555
Sn41 Yb1 3.414665 1_555
Sn41 Yb11 3.428833 1_555
Sn42 Sn74 3.251569 1_555
Sn42 Yb0 3.304403 1_555
Sn42 Yb6 3.424356 1_455
Sn42 Yb15 3.424356 1_555
Sn43 Sn75 3.248470 1_555
Sn43 Yb1 3.308708 1_555
Sn43 Yb7 3.415668 1_455
Sn43 Yb16 3.415668 1_555
Sn44 Sn71 3.030214 1_545
Sn44 Sn73 3.257816 1_556
Sn44 Yb2 3.302646 1_555
Sn44 Yb8 3.434224 1_455
Sn44 Yb17 3.434224 1_555
Sn45 Sn62 3.035691 1_554
Sn45 Sn73 3.238119 1_655
Sn45 Yb6 3.302664 1_555
Sn45 Yb3 3.407988 1_555
Sn45 Yb12 3.407988 1_545
Sn46 Sn74 3.250667 1_655
Sn46 Yb7 3.305121 1_555
Sn46 Yb4 3.410699 1_555
Sn46 Yb13 3.410699 1_545
Sn47 Sn61 3.035720 1_555
Sn47 Sn75 3.244734 1_655
Sn47 Yb8 3.299850 1_555
Sn47 Yb5 3.421789 1_555
Sn47 Yb14 3.421789 1_545
Sn48 Sn5 3.224345 1_554
Sn48 Sn73 3.258643 1_665
Sn48 Yb12 3.295938 1_555
Sn48 Yb9 3.414645 1_655
Sn48 Yb2 3.428833 1_654
Sn49 Sn58 3.045401 1_655
Sn49 Sn74 3.258333 1_665
Sn49 Yb13 3.290736 1_555
Sn49 Yb0 3.429779 1_655
Sn49 Yb10 3.429799 1_655
Sn50 Sn75 3.258643 1_665
Sn50 Yb14 3.295938 1_555
Sn50 Yb1 3.414665 1_655
Sn50 Yb11 3.428833 1_655
Sn51 Sn73 3.248470 1_565
Sn51 Yb9 3.308712 1_555
Sn51 Yb6 3.415668 1_465
Sn51 Yb15 3.415668 1_565
Sn52 Sn74 3.251569 1_565
Sn52 Yb10 3.304399 1_555
Sn52 Yb7 3.424372 1_465
Sn52 Yb16 3.424372 1_565
Sn53 Sn68 3.030214 1_565
Sn53 Sn75 3.257816 1_565
Sn53 Yb11 3.302646 1_555
Sn53 Yb8 3.434208 1_465
Sn53 Yb17 3.434208 1_565
Sn54 Sn73 3.238119 1_555
Sn54 Yb15 3.302664 1_555
Sn54 Yb12 3.407988 1_545
Sn54 Yb3 3.407988 1_555
Sn55 Sn74 3.250667 1_555
Sn55 Yb16 3.305121 1_555
Sn55 Yb4 3.410699 1_555
Sn55 Yb13 3.410699 1_545
Sn56 Sn75 3.244734 1_555
Sn56 Yb17 3.299850 1_555
Sn56 Yb5 3.421789 1_555
Sn56 Yb14 3.421789 1_545
Sn57 Sn73 3.258643 1_565
Sn57 Yb12 3.295938 1_555
Sn57 Yb9 3.414645 1_555
Sn57 Yb2 3.428833 1_554
Sn58 Sn74 3.258333 1_565
Sn58 Yb13 3.290736 1_555
Sn58 Yb0 3.429779 1_555
Sn58 Yb10 3.429799 1_555
Sn59 Sn75 3.258643 1_565
Sn59 Yb14 3.295938 1_555
Sn59 Yb1 3.414665 1_555
Sn59 Yb11 3.428833 1_555
Sn60 Sn74 3.250653 1_655
Sn60 Yb6 3.305121 1_555
Sn60 Yb13 3.410686 1_545
Sn60 Yb4 3.410686 1_555
Sn61 Sn75 3.238132 1_655
Sn61 Yb7 3.302636 1_555
Sn61 Yb5 3.408001 1_555
Sn61 Yb14 3.408001 1_545
Sn62 Sn8 3.218713 1_555
Sn62 Sn73 3.244734 1_656
Sn62 Yb8 3.299878 1_555
Sn62 Yb3 3.421789 1_556
Sn62 Yb12 3.421789 1_546
Sn63 Sn73 3.258643 1_655
Sn63 Yb3 3.295938 1_555
Sn63 Yb9 3.414645 1_655
Sn63 Yb2 3.428833 1_654
Sn64 Sn74 3.258333 1_655
Sn64 Yb4 3.290736 1_555
Sn64 Yb0 3.429779 1_655
Sn64 Yb10 3.429799 1_655
Sn65 Sn75 3.258643 1_655
Sn65 Yb5 3.295938 1_555
Sn65 Yb1 3.414665 1_655
Sn65 Yb11 3.428833 1_655
Sn66 Sn73 3.248470 1_555
Sn66 Yb9 3.308712 1_555
Sn66 Yb6 3.415668 1_455
Sn66 Yb15 3.415668 1_555
Sn67 Sn74 3.251569 1_555
Sn67 Yb10 3.304399 1_555
Sn67 Yb7 3.424372 1_455
Sn67 Yb16 3.424372 1_555
Sn68 Sn75 3.257816 1_555
Sn68 Yb11 3.302646 1_555
Sn68 Yb17 3.434208 1_555
Sn68 Yb8 3.434208 1_455
Sn69 Sn74 3.251569 1_565
Sn69 Yb0 3.304403 1_555
Sn69 Yb6 3.424356 1_465
Sn69 Yb15 3.424356 1_565
Sn70 Sn75 3.248470 1_565
Sn70 Yb1 3.308708 1_555
Sn70 Yb7 3.415668 1_465
Sn70 Yb16 3.415668 1_565
Sn71 Sn73 3.257816 1_566
Sn71 Yb2 3.302646 1_555
Sn71 Yb8 3.434224 1_465
Sn71 Yb17 3.434224 1_565
Sn72 Sn8 3.257988 1_555
