# generated using pymatgen
data_Al5(NiO4)3
_symmetry_space_group_name_H-M   'P 1'
_cell_length_a   5.67111780
_cell_length_b   5.67111780
_cell_length_c   13.86572625
_cell_angle_alpha   88.73475388
_cell_angle_beta   88.73475388
_cell_angle_gamma   61.32763411
_symmetry_Int_Tables_number   1
_chemical_formula_structural   Al5(NiO4)3
_chemical_formula_sum   'Al10 Ni6 O24'
_cell_volume   391.13204669
_cell_formula_units_Z   2
loop_
 _symmetry_equiv_pos_site_id
 _symmetry_equiv_pos_as_xyz
  1  'x, y, z'
loop_
 _atom_site_type_symbol
 _atom_site_label
 _atom_site_symmetry_multiplicity
 _atom_site_fract_x
 _atom_site_fract_y
 _atom_site_fract_z
 _atom_site_occupancy
  Al  Al0  1  0.32520200  0.32520200  0.70889000  1
  Al  Al1  1  0.66626600  0.66626600  0.04723300  1
  Al  Al2  1  0.99388900  0.99388900  0.37534600  1
  Al  Al3  1  0.66071400  0.66071400  0.66106800  1
  Al  Al4  1  0.33928600  0.33928600  0.33893200  1
  Al  Al5  1  0.83822200  0.83822200  0.84116900  1
  Al  Al6  1  0.16177800  0.16177800  0.15883100  1
  Al  Al7  1  0.33373400  0.33373400  0.95276700  1
  Al  Al8  1  0.67479800  0.67479800  0.29111000  1
  Al  Al9  1  0.00611100  0.00611100  0.62465400  1
  Ni  Ni0  1  0.33129900  0.83296000  0.83619900  1
  Ni  Ni1  1  0.66870100  0.16704000  0.16380100  1
  Ni  Ni2  1  0.00000000  0.50000000  0.50000000  1
  Ni  Ni3  1  0.83296000  0.33129900  0.83619900  1
  Ni  Ni4  1  0.16704000  0.66870100  0.16380100  1
  Ni  Ni5  1  0.50000000  0.00000000  0.50000000  1
  O  O0  1  0.50499600  0.50499600  0.74827600  1
  O  O1  1  0.83633900  0.83633900  0.09261100  1
  O  O2  1  0.17046500  0.17046500  0.41106800  1
  O  O3  1  0.97299300  0.51693500  0.75352500  1
  O  O4  1  0.33181700  0.83987300  0.09307100  1
  O  O5  1  0.64930400  0.15715300  0.41029900  1
  O  O6  1  0.67466400  0.67466400  0.91694800  1
  O  O7  1  0.00872100  0.00872100  0.24515500  1
  O  O8  1  0.32193500  0.32193500  0.57953300  1
  O  O9  1  0.51693500  0.97299300  0.75352500  1
  O  O10  1  0.83987300  0.33181700  0.09307100  1
  O  O11  1  0.15715300  0.64930400  0.41029900  1
  O  O12  1  0.16012700  0.66818300  0.90692900  1
  O  O13  1  0.48306500  0.02700700  0.24647500  1
  O  O14  1  0.84284700  0.35069600  0.58970100  1
  O  O15  1  0.66818300  0.16012700  0.90692900  1
  O  O16  1  0.02700700  0.48306500  0.24647500  1
  O  O17  1  0.35069600  0.84284700  0.58970100  1
  O  O18  1  0.99127900  0.99127900  0.75484500  1
  O  O19  1  0.32533600  0.32533600  0.08305200  1
  O  O20  1  0.67806500  0.67806500  0.42046700  1
  O  O21  1  0.16366100  0.16366100  0.90738900  1
  O  O22  1  0.49500400  0.49500400  0.25172400  1
  O  O23  1  0.82953500  0.82953500  0.58893200  1
loop_
_geom_bond_atom_site_label_1
_geom_bond_atom_site_label_2
_geom_bond_distance
_geom_bond_site_symmetry_2
Al0 O8 1.794730 1_555
Al0 O0 1.850507 1_555
Al0 O9 1.856345 1_545
Al0 O3 1.856345 1_455
Al1 O10 1.775728 1_555
Al1 O4 1.775728 1_555
Al1 O1 1.789613 1_555
Al1 O6 1.806251 1_554
Al2 O11 1.775589 1_655
Al2 O5 1.775589 1_565
Al2 O2 1.804698 1_665
Al2 O7 1.807277 1_665
Al3 O14 1.851014 1_555
Al3 O17 1.851014 1_555
Al3 O23 1.904912 1_555
Al3 O0 1.917269 1_555
Al3 O9 2.028075 1_555
Al3 O3 2.028075 1_555
Al4 O5 1.851014 1_555
Al4 O11 1.851014 1_555
Al4 O2 1.904912 1_555
Al4 O22 1.917269 1_555
Al4 O16 2.028075 1_555
Al4 O13 2.028075 1_555
Al5 O12 1.854551 1_655
Al5 O15 1.854551 1_565
Al5 O6 1.887930 1_555
Al5 O18 1.889648 1_555
Al5 O9 2.025167 1_555
Al5 O3 2.025167 1_555
Al6 O10 1.854551 1_455
Al6 O4 1.854551 1_545
Al6 O19 1.887930 1_555
Al6 O7 1.889648 1_555
Al6 O16 2.025167 1_555
Al6 O13 2.025167 1_555
Al7 O15 1.775728 1_555
Al7 O12 1.775728 1_555
Al7 O21 1.789613 1_555
Al7 O19 1.806251 1_556
Al8 O20 1.794730 1_555
Al8 O22 1.850507 1_555
Al8 O13 1.856345 1_565
Al8 O16 1.856345 1_655
Al9 O17 1.775589 1_545
Al9 O14 1.775589 1_455
Al9 O23 1.804698 1_445
Al9 O18 1.807277 1_445
Ni0 O12 1.888211 1_555
Ni0 O21 1.929987 1_565
Ni0 O9 1.939544 1_555
Ni0 O18 2.046183 1_455
Ni0 O0 2.050581 1_555
Ni0 O6 2.055665 1_555
Ni1 O10 1.888211 1_555
Ni1 O1 1.929987 1_545
Ni1 O13 1.939544 1_555
Ni1 O7 2.046183 1_655
Ni1 O22 2.050581 1_555
Ni1 O19 2.055665 1_555
Ni2 O11 1.920123 1_555
Ni2 O14 1.920123 1_455
Ni2 O8 1.959521 1_555
Ni2 O20 1.959521 1_455
Ni2 O23 2.064730 1_455
Ni2 O2 2.064730 1_555
Ni3 O15 1.888211 1_555
Ni3 O21 1.929987 1_655
Ni3 O3 1.939544 1_555
Ni3 O18 2.046183 1_545
Ni3 O0 2.050581 1_555
Ni3 O6 2.055665 1_555
Ni4 O4 1.888211 1_555
Ni4 O1 1.929987 1_455
Ni4 O16 1.939544 1_555
Ni4 O7 2.046183 1_565
Ni4 O22 2.050581 1_555
Ni4 O19 2.055665 1_555
Ni5 O5 1.920123 1_555
Ni5 O17 1.920123 1_545
Ni5 O8 1.959521 1_555
Ni5 O20 1.959521 1_545
Ni5 O2 2.064730 1_555
Ni5 O23 2.064730 1_545
