# generated using pymatgen
data_MgVP2O7
_symmetry_space_group_name_H-M   'P 1'
_cell_length_a   6.59545391
_cell_length_b   11.13582778
_cell_length_c   7.04240947
_cell_angle_alpha   87.63958670
_cell_angle_beta   90.62148462
_cell_angle_gamma   79.53025135
_symmetry_Int_Tables_number   1
_chemical_formula_structural   MgVP2O7
_chemical_formula_sum   'Mg4 V4 P8 O28'
_cell_volume   508.10419892
_cell_formula_units_Z   4
loop_
 _symmetry_equiv_pos_site_id
 _symmetry_equiv_pos_as_xyz
  1  'x, y, z'
loop_
 _atom_site_type_symbol
 _atom_site_label
 _atom_site_symmetry_multiplicity
 _atom_site_fract_x
 _atom_site_fract_y
 _atom_site_fract_z
 _atom_site_occupancy
  Mg  Mg0  1  0.84580200  0.21756100  0.91760600  1
  Mg  Mg1  1  0.84576900  0.71755200  0.41757000  1
  Mg  Mg2  1  0.15423300  0.78244900  0.08242900  1
  Mg  Mg3  1  0.15419800  0.28244000  0.58239200  1
  V  V0  1  0.66872700  0.94078400  0.82995400  1
  V  V1  1  0.33127200  0.55921600  0.67004700  1
  V  V2  1  0.66892100  0.44073300  0.33000300  1
  V  V3  1  0.33107800  0.05926400  0.16999500  1
  P  P0  1  0.16041100  0.49362000  0.26394400  1
  P  P1  1  0.16045900  0.99363000  0.76398800  1
  P  P2  1  0.83954000  0.50637100  0.73601100  1
  P  P3  1  0.83958900  0.00638000  0.23605500  1
  P  P4  1  0.62212300  0.66632500  0.02500000  1
  P  P5  1  0.62215100  0.16630500  0.52501700  1
  P  P6  1  0.37784900  0.33369500  0.97498300  1
  P  P7  1  0.37787700  0.83367500  0.47500300  1
  O  O0  1  0.75794200  0.54208000  0.94263100  1
  O  O1  1  0.75798900  0.04206400  0.44268200  1
  O  O2  1  0.24201300  0.45793600  0.05731700  1
  O  O3  1  0.24205900  0.95792100  0.55737000  1
  O  O4  1  0.01103500  0.41110800  0.33727300  1
  O  O5  1  0.01109600  0.91112800  0.83736300  1
  O  O6  1  0.98890000  0.58887300  0.66263400  1
  O  O7  1  0.98896400  0.08889200  0.16272500  1
  O  O8  1  0.60134300  0.32536500  0.05098000  1
  O  O9  1  0.60138300  0.82534500  0.55100300  1
  O  O10  1  0.39861800  0.67465500  0.94899900  1
  O  O11  1  0.39865800  0.17463500  0.44901900  1
  O  O12  1  0.35569600  0.36520400  0.75947100  1
  O  O13  1  0.35572300  0.86523900  0.25950100  1
  O  O14  1  0.64427700  0.63476000  0.24050100  1
  O  O15  1  0.64430400  0.13479500  0.74052800  1
  O  O16  1  0.93423700  0.37031400  0.76517400  1
  O  O17  1  0.93424500  0.87031700  0.26518800  1
  O  O18  1  0.06575700  0.62968300  0.23481100  1
  O  O19  1  0.06576400  0.12968700  0.73482600  1
  O  O20  1  0.65120400  0.52976100  0.60104500  1
  O  O21  1  0.65128200  0.02982500  0.10107700  1
  O  O22  1  0.34871700  0.47017500  0.39892300  1
  O  O23  1  0.34879300  0.97023700  0.89895600  1
  O  O24  1  0.26921100  0.23135800  0.03712300  1
  O  O25  1  0.26924700  0.73132200  0.53710400  1
  O  O26  1  0.73075200  0.76867900  0.96289900  1
  O  O27  1  0.73079100  0.26864100  0.46287900  1
loop_
_geom_bond_atom_site_label_1
_geom_bond_atom_site_label_2
_geom_bond_distance
_geom_bond_site_symmetry_2
Mg0 O8 2.084528 1_556
Mg0 O19 2.085059 1_655
Mg0 O16 2.147054 1_555
Mg0 O15 2.162097 1_555
Mg0 O7 2.278957 1_556
Mg1 O9 2.084349 1_555
Mg1 O18 2.085049 1_655
Mg1 O17 2.147112 1_555
Mg1 O14 2.162195 1_555
Mg1 O6 2.278674 1_555
Mg2 O10 2.084340 1_554
Mg2 O17 2.085045 1_455
Mg2 O18 2.147121 1_555
Mg2 O13 2.162186 1_555
Mg2 O5 2.278696 1_554
Mg3 O11 2.084535 1_555
Mg3 O16 2.085064 1_455
Mg3 O19 2.147058 1_555
Mg3 O12 2.162088 1_555
Mg3 O4 2.278953 1_555
O0 P2 1.597484 1_555
O0 P4 1.637114 1_556
O1 P3 1.597471 1_555
O1 P5 1.637035 1_555
O2 P0 1.597475 1_555
O2 P6 1.637027 1_554
O3 P1 1.597475 1_555
O3 P7 1.637114 1_555
O4 P0 1.543541 1_555
O4 V2 2.219989 1_455
O5 P1 1.543502 1_555
O5 V0 2.221646 1_455
O6 P2 1.543491 1_555
O6 V1 2.221665 1_655
O7 P3 1.543538 1_555
O7 V3 2.219988 1_655
O8 P6 1.548210 1_554
O8 V2 2.471317 1_555
O9 P7 1.548292 1_555
O9 V0 2.470956 1_555
O10 P4 1.548288 1_556
O10 V1 2.470965 1_555
O11 P5 1.548207 1_555
O11 V3 2.471345 1_555
O12 P6 1.542933 1_555
O12 V1 2.202154 1_555
O13 P7 1.542968 1_555
O13 V3 2.202276 1_565
O14 P4 1.542963 1_555
O14 V2 2.202292 1_555
O15 P5 1.542928 1_555
O15 V0 2.202147 1_545
O16 P2 1.534761 1_555
O17 P3 1.534742 1_565
O18 P0 1.534739 1_555
O19 P1 1.534757 1_545
O20 P2 1.533180 1_555
O20 V1 2.140109 1_555
O20 V2 2.181425 1_555
O21 P3 1.533082 1_555
O21 V3 2.141691 1_555
O21 V0 2.182041 1_544
O22 P0 1.533081 1_555
O22 V2 2.141694 1_555
O22 V1 2.182047 1_555
O23 P1 1.533178 1_555
O23 V0 2.140122 1_555
O23 V3 2.181401 1_566
O24 P6 1.505354 1_554
O24 V3 2.067496 1_555
O25 P7 1.505397 1_555
O25 V1 2.067844 1_555
O26 P4 1.505402 1_556
O26 V0 2.067840 1_555
O27 P5 1.505349 1_555
O27 V2 2.067489 1_555
