# generated using pymatgen
data_Na5Tb4Si4O16F
_symmetry_space_group_name_H-M   'P 1'
_cell_length_a   8.73934010
_cell_length_b   8.73934010
_cell_length_c   8.73934010
_cell_angle_alpha   95.58147895
_cell_angle_beta   95.58147895
_cell_angle_gamma   143.65640804
_symmetry_Int_Tables_number   1
_chemical_formula_structural   Na5Tb4Si4O16F
_chemical_formula_sum   'Na5 Tb4 Si4 O16 F1'
_cell_volume   375.83550981
_cell_formula_units_Z   1
loop_
 _symmetry_equiv_pos_site_id
 _symmetry_equiv_pos_as_xyz
  1  'x, y, z'
loop_
 _atom_site_type_symbol
 _atom_site_label
 _atom_site_symmetry_multiplicity
 _atom_site_fract_x
 _atom_site_fract_y
 _atom_site_fract_z
 _atom_site_occupancy
  Na  Na0  1  0.11215400  0.59666900  0.69446800  1
  Na  Na1  1  0.90220100  0.41768600  0.30553200  1
  Na  Na2  1  0.40333100  0.09779900  0.51548500  1
  Na  Na3  1  0.58231400  0.88784600  0.48451500  1
  Na  Na4  1  0.00000000  0.00000000  0.00000000  1
  Tb  Tb0  1  0.70469400  0.63739800  0.29878000  1
  Tb  Tb1  1  0.33861800  0.40591300  0.70122000  1
  Tb  Tb2  1  0.36260200  0.66138200  0.06729500  1
  Tb  Tb3  1  0.59408700  0.29530600  0.93270500  1
  Si  Si0  1  0.88622500  0.74269900  0.64974700  1
  Si  Si1  1  0.09295200  0.23647800  0.35025300  1
  Si  Si2  1  0.25730100  0.90704800  0.14352600  1
  Si  Si3  1  0.76352200  0.11377500  0.85647400  1
  O  O0  1  0.90362900  0.62566300  0.50420900  1
  O  O1  1  0.12145300  0.39942000  0.49579100  1
  O  O2  1  0.37433700  0.87854700  0.27796700  1
  O  O3  1  0.60058000  0.09637100  0.72203300  1
  O  O4  1  0.18707500  0.04709300  0.76368600  1
  O  O5  1  0.28340700  0.42338900  0.23631400  1
  O  O6  1  0.95290700  0.71659300  0.13998200  1
  O  O7  1  0.57661100  0.81292500  0.86001800  1
  O  O8  1  0.70784400  0.53661200  0.75964900  1
  O  O9  1  0.77696300  0.94819500  0.24035100  1
  O  O10  1  0.46338800  0.22303700  0.17123200  1
  O  O11  1  0.05180500  0.29215600  0.82876800  1
  O  O12  1  0.70352900  0.73579300  0.56188500  1
  O  O13  1  0.17390800  0.14164300  0.43811500  1
  O  O14  1  0.26420700  0.82609200  0.96773600  1
  O  O15  1  0.85835700  0.29647100  0.03226400  1
  F  F0  1  0.50000000  0.50000000  0.00000000  1
loop_
_geom_bond_atom_site_label_1
_geom_bond_atom_site_label_2
_geom_bond_distance
_geom_bond_site_symmetry_2
Na0 O14 2.376636 1_555
Na0 O1 2.379883 1_555
Na0 O0 2.527124 1_455
Na0 O3 2.629682 1_565
Na0 O11 2.684185 1_555
Na0 O3 2.843773 1_455
Na0 O7 2.847546 1_555
Na1 O15 2.376639 1_555
Na1 O0 2.379889 1_555
Na1 O1 2.527117 1_655
Na1 O2 2.629679 1_655
Na1 O10 2.684185 1_555
Na1 O2 2.843775 1_545
Na1 O6 2.847546 1_555
Na2 O13 2.376629 1_555
Na2 O3 2.379883 1_555
Na2 O2 2.527112 1_545
Na2 O0 2.629680 1_445
Na2 O8 2.684185 1_555
Na2 O0 2.843776 1_555
Na2 O4 2.847546 1_555
Na3 O12 2.376636 1_555
Na3 O2 2.379889 1_555
Na3 O3 2.527117 1_565
Na3 O1 2.629682 1_555
Na3 O9 2.684185 1_555
Na3 O1 2.843773 1_665
Na3 O5 2.847546 1_555
Na4 O5 2.616422 1_555
Na4 O7 2.616422 1_444
Na4 O4 2.616422 1_554
Na4 O6 2.616422 1_445
Na4 O11 2.824228 1_554
Na4 O9 2.824228 1_445
Na4 O10 2.824228 1_555
Na4 O8 2.824228 1_444
O0 Si0 1.649916 1_555
O0 Tb0 2.443800 1_555
O1 Si1 1.649922 1_555
O1 Tb1 2.443811 1_555
O2 Si2 1.649916 1_555
O2 Tb2 2.443817 1_555
O3 Si3 1.649922 1_555
O3 Tb3 2.443806 1_555
O4 Si0 1.639826 1_445
O4 Tb3 2.337599 1_555
O4 Tb1 2.380923 1_555
O5 Si1 1.639826 1_555
O5 Tb2 2.337596 1_555
O5 Tb0 2.380931 1_555
O6 Si2 1.639826 1_655
O6 Tb0 2.337589 1_555
O6 Tb3 2.380927 1_554
O7 Si3 1.639826 1_565
O7 Tb1 2.337596 1_555
O7 Tb2 2.380923 1_556
O8 Si0 1.643541 1_555
O8 Tb3 2.293125 1_555
O8 Tb1 2.367722 1_555
O9 Si1 1.643541 1_665
O9 Tb2 2.293119 1_555
O9 Tb0 2.367728 1_555
O10 Si2 1.643541 1_545
O10 Tb0 2.293116 1_555
O10 Tb3 2.367722 1_554
O11 Si3 1.643541 1_455
O11 Tb1 2.293119 1_555
O11 Tb2 2.367722 1_556
O12 Si0 1.655227 1_555
O12 Tb0 2.379214 1_555
O12 Tb1 2.567416 1_555
O13 Si1 1.655235 1_555
O13 Tb1 2.379214 1_555
O13 Tb0 2.567411 1_445
O14 Si2 1.655227 1_556
O14 Tb2 2.379211 1_556
O14 Tb3 2.567410 1_565
O15 Si3 1.655224 1_554
O15 Tb3 2.379212 1_554
O15 Tb2 2.567410 1_655
F0 Tb1 2.545799 1_554
F0 Tb2 2.545799 1_555
F0 Tb0 2.545801 1_555
F0 Tb3 2.545807 1_554
F0 Na4 2.725514 1_555
F0 Na4 2.725514 1_665
