# generated using pymatgen
data_Li5Mn2CoO8
_symmetry_space_group_name_H-M   'P 1'
_cell_length_a   5.05068058
_cell_length_b   7.70856303
_cell_length_c   7.64978875
_cell_angle_alpha   83.01913338
_cell_angle_beta   108.50703484
_cell_angle_gamma   95.89130159
_symmetry_Int_Tables_number   1
_chemical_formula_structural   Li5Mn2CoO8
_chemical_formula_sum   'Li10 Mn4 Co2 O16'
_cell_volume   279.68667370
_cell_formula_units_Z   2
loop_
 _symmetry_equiv_pos_site_id
 _symmetry_equiv_pos_as_xyz
  1  'x, y, z'
loop_
 _atom_site_type_symbol
 _atom_site_label
 _atom_site_symmetry_multiplicity
 _atom_site_fract_x
 _atom_site_fract_y
 _atom_site_fract_z
 _atom_site_occupancy
  Li  Li0  1  0.00151600  0.87643100  0.37464400  1
  Li  Li1  1  0.99848700  0.37356800  0.87535600  1
  Li  Li2  1  0.50713200  0.70014100  0.43094700  1
  Li  Li3  1  0.50614200  0.19711800  0.93381600  1
  Li  Li4  1  0.49386000  0.05288200  0.31618300  1
  Li  Li5  1  0.49286800  0.54986000  0.81905300  1
  Li  Li6  1  0.50143600  0.94152400  0.68567700  1
  Li  Li7  1  0.50053800  0.43949300  0.18213300  1
  Li  Li8  1  0.49856500  0.30847500  0.56432300  1
  Li  Li9  1  0.49946100  0.81050700  0.06786500  1
  Mn  Mn0  1  0.99630000  0.50071900  0.49969300  1
  Mn  Mn1  1  0.00369900  0.74928100  0.75030800  1
  Mn  Mn2  1  0.00744800  0.00042700  0.00385700  1
  Mn  Mn3  1  0.99255200  0.24957400  0.24614300  1
  Co  Co0  1  0.00000000  0.62500000  0.12500100  1
  Co  Co1  1  0.00000000  0.12500000  0.62500000  1
  O  O0  1  0.23572600  0.95455700  0.85117800  1
  O  O1  1  0.22238300  0.46084900  0.34222600  1
  O  O2  1  0.76427300  0.29544300  0.39882200  1
  O  O3  1  0.77761600  0.78915100  0.90777400  1
  O  O4  1  0.22852200  0.70180000  0.60322200  1
  O  O5  1  0.22663000  0.20491400  0.10263600  1
  O  O6  1  0.77337000  0.04508700  0.14736400  1
  O  O7  1  0.77147500  0.54819800  0.64677800  1
  O  O8  1  0.23227100  0.85056100  0.20501900  1
  O  O9  1  0.21598900  0.34072000  0.69711700  1
  O  O10  1  0.78401100  0.90927900  0.55288300  1
  O  O11  1  0.76773000  0.39943900  0.04498100  1
  O  O12  1  0.21483800  0.10667300  0.46255500  1
  O  O13  1  0.22307400  0.60251900  0.96274800  1
  O  O14  1  0.78516200  0.14332700  0.78744500  1
  O  O15  1  0.77692500  0.64748200  0.28725200  1
loop_
_geom_bond_atom_site_label_1
_geom_bond_atom_site_label_2
_geom_bond_distance
_geom_bond_site_symmetry_2
Li0 O8 2.037776 1_555
Li0 O12 2.049567 1_565
Li0 O10 2.054741 1_455
Li0 O15 2.059810 1_455
Li0 O6 2.127706 1_465
Li0 O4 2.157805 1_555
Li1 O11 2.037786 1_556
Li1 O14 2.049566 1_555
Li1 O9 2.054729 1_655
Li1 O13 2.059816 1_655
Li1 O5 2.127692 1_656
Li1 O7 2.157811 1_555
Li2 O7 2.081326 1_555
Li2 O15 2.098284 1_555
Li2 O10 2.121166 1_555
Li2 O8 2.139827 1_555
Li2 O4 2.214080 1_555
Li2 O1 2.252018 1_555
Li3 O11 2.021686 1_556
Li3 O6 2.079266 1_556
Li3 O14 2.155503 1_555
Li3 O9 2.193816 1_555
Li3 O5 2.204107 1_556
Li3 O0 2.230717 1_545
Li4 O8 2.021686 1_545
Li4 O5 2.079271 1_555
Li4 O12 2.155517 1_555
Li4 O10 2.193820 1_545
Li4 O6 2.204092 1_555
Li4 O2 2.230711 1_555
Li5 O4 2.081320 1_555
Li5 O13 2.098288 1_555
Li5 O9 2.121178 1_555
Li5 O11 2.139834 1_556
Li5 O7 2.214070 1_555
Li5 O3 2.252010 1_555
Li6 O10 2.045780 1_555
Li6 O14 2.051350 1_565
Li6 O0 2.133356 1_555
Li6 O3 2.135107 1_555
Li6 O12 2.216055 1_565
Li6 O4 2.218370 1_555
Li7 O11 2.020002 1_555
Li7 O2 2.051720 1_555
Li7 O15 2.075372 1_555
Li7 O1 2.165489 1_555
Li7 O13 2.171515 1_554
Li7 O5 2.184762 1_555
Li8 O9 2.045785 1_555
Li8 O12 2.051347 1_555
Li8 O2 2.133346 1_555
Li8 O1 2.135116 1_555
Li8 O14 2.216048 1_555
Li8 O7 2.218355 1_555
Li9 O8 2.020005 1_555
Li9 O0 2.051712 1_554
Li9 O13 2.075362 1_554
Li9 O3 2.165477 1_554
Li9 O15 2.171519 1_555
Li9 O6 2.184773 1_565
Mn0 O7 1.919865 1_555
Mn0 O4 1.934167 1_655
Mn0 O9 1.948726 1_655
Mn0 O2 1.953140 1_555
Mn0 O15 1.953433 1_555
Mn0 O1 1.970944 1_655
Mn1 O4 1.919868 1_555
Mn1 O7 1.934186 1_455
Mn1 O10 1.948724 1_455
Mn1 O0 1.953138 1_555
Mn1 O13 1.953425 1_555
Mn1 O3 1.970938 1_455
Mn2 O5 1.918715 1_555
Mn2 O8 1.928702 1_545
Mn2 O6 1.928929 1_455
Mn2 O14 1.960925 1_454
Mn2 O0 1.964036 1_544
Mn2 O3 1.975197 1_444
Mn3 O6 1.918715 1_555
Mn3 O11 1.928695 1_555
Mn3 O5 1.928929 1_655
Mn3 O12 1.960929 1_655
Mn3 O2 1.964038 1_555
Mn3 O1 1.975189 1_655
Co0 O15 1.954516 1_455
Co0 O13 1.954523 1_554
Co0 O8 2.039185 1_555
Co0 O11 2.039187 1_455
Co0 O1 2.054213 1_555
Co0 O3 2.054223 1_454
Co1 O12 1.916179 1_555
Co1 O14 1.916179 1_455
Co1 O9 1.930840 1_555
Co1 O10 1.930846 1_445
Co1 O0 2.144333 1_545
Co1 O2 2.144335 1_455
