# generated using pymatgen
data_Th2Mn12P7
_symmetry_space_group_name_H-M   'P 1'
_cell_length_a   9.29833137
_cell_length_b   9.29833137
_cell_length_c   3.70787000
_cell_angle_alpha   90.00000000
_cell_angle_beta   90.00000000
_cell_angle_gamma   119.99999553
_symmetry_Int_Tables_number   1
_chemical_formula_structural   Th2Mn12P7
_chemical_formula_sum   'Th2 Mn12 P7'
_cell_volume   277.62923042
_cell_formula_units_Z   1
loop_
 _symmetry_equiv_pos_site_id
 _symmetry_equiv_pos_as_xyz
  1  'x, y, z'
loop_
 _atom_site_type_symbol
 _atom_site_label
 _atom_site_symmetry_multiplicity
 _atom_site_fract_x
 _atom_site_fract_y
 _atom_site_fract_z
 _atom_site_occupancy
  Th  Th0  1  0.33333300  0.66666700  0.00000000  1
  Th  Th1  1  0.00000000  0.00000000  0.50000000  1
  Mn  Mn0  1  0.04323400  0.28312700  0.00000000  1
  Mn  Mn1  1  0.71687300  0.76010700  0.00000000  1
  Mn  Mn2  1  0.23989300  0.95676600  0.00000000  1
  Mn  Mn3  1  0.54524700  0.05919600  0.00000000  1
  Mn  Mn4  1  0.94080400  0.48605100  0.00000000  1
  Mn  Mn5  1  0.51394900  0.45475300  0.00000000  1
  Mn  Mn6  1  0.62028300  0.89748300  0.50000000  1
  Mn  Mn7  1  0.10251700  0.72279900  0.50000000  1
  Mn  Mn8  1  0.27720100  0.37971700  0.50000000  1
  Mn  Mn9  1  0.78492000  0.22732600  0.50000000  1
  Mn  Mn10  1  0.77267400  0.55759400  0.50000000  1
  Mn  Mn11  1  0.44240600  0.21508000  0.50000000  1
  P  P0  1  0.77951200  0.04255700  0.00000000  1
  P  P1  1  0.95744300  0.73695500  0.00000000  1
  P  P2  1  0.26304500  0.22048800  0.00000000  1
  P  P3  1  0.38379800  0.93373800  0.50000000  1
  P  P4  1  0.06626200  0.45006000  0.50000000  1
  P  P5  1  0.54994000  0.61620200  0.50000000  1
  P  P6  1  0.66666700  0.33333300  0.00000000  1
loop_
_geom_bond_atom_site_label_1
_geom_bond_atom_site_label_2
_geom_bond_distance
_geom_bond_site_symmetry_2
Mn0 P0 2.351938 1_455
Mn0 P4 2.357940 1_555
Mn0 P4 2.357940 1_554
Mn0 P2 2.388952 1_555
Mn1 P1 2.351938 1_555
Mn1 P5 2.357941 1_555
Mn1 P5 2.357941 1_554
Mn1 P0 2.388952 1_565
Mn2 P2 2.351938 1_565
Mn2 P3 2.357940 1_554
Mn2 P3 2.357940 1_555
Mn2 P1 2.388952 1_455
Mn3 P6 2.212303 1_555
Mn3 P0 2.259607 1_555
Mn3 P3 2.302239 1_544
Mn3 P3 2.302239 1_545
Mn4 P6 2.212304 1_555
Mn4 P1 2.259607 1_555
Mn4 P4 2.302238 1_654
Mn4 P4 2.302238 1_655
Mn5 P6 2.212312 1_555
Mn5 P2 2.259607 1_555
Mn5 P5 2.302239 1_554
Mn5 P5 2.302239 1_555
Mn6 P0 2.334866 1_565
Mn6 P0 2.334866 1_566
Mn6 P5 2.357471 1_555
Mn6 P3 2.385404 1_555
Mn7 P1 2.334869 1_456
Mn7 P1 2.334869 1_455
Mn7 P3 2.357473 1_555
Mn7 P4 2.385395 1_555
Mn8 P2 2.334864 1_556
Mn8 P2 2.334864 1_555
Mn8 P4 2.357480 1_555
Mn8 P5 2.385399 1_555
Mn9 P4 2.390582 1_655
Mn9 P0 2.510953 1_555
Mn9 P0 2.510953 1_556
Mn9 P6 2.588725 1_555
Mn9 P6 2.588725 1_556
Mn10 P5 2.390581 1_555
Mn10 P1 2.510953 1_556
Mn10 P1 2.510953 1_555
Mn10 P6 2.588731 1_555
Mn10 P6 2.588731 1_556
Mn11 P3 2.390581 1_545
Mn11 P2 2.510953 1_556
Mn11 P2 2.510953 1_555
Mn11 P6 2.588731 1_555
Mn11 P6 2.588731 1_556
P0 Th1 2.933962 1_655
P0 Th1 2.933962 1_654
P1 Th1 2.933962 1_664
P1 Th1 2.933962 1_665
P2 Th1 2.933962 1_554
P2 Th1 2.933962 1_555
P3 Th0 2.942591 1_555
P3 Th0 2.942591 1_556
P4 Th0 2.942594 1_555
P4 Th0 2.942594 1_556
P5 Th0 2.942598 1_555
P5 Th0 2.942598 1_556
