# generated using pymatgen
data_CsTmBr3
_symmetry_space_group_name_H-M   'P 1'
_cell_length_a   7.91654700
_cell_length_b   7.91654700
_cell_length_c   5.62205200
_cell_angle_alpha   90.00000000
_cell_angle_beta   90.00000000
_cell_angle_gamma   90.00000000
_symmetry_Int_Tables_number   1
_chemical_formula_structural   CsTmBr3
_chemical_formula_sum   'Cs2 Tm2 Br6'
_cell_volume   352.34364855
_cell_formula_units_Z   2
loop_
 _symmetry_equiv_pos_site_id
 _symmetry_equiv_pos_as_xyz
  1  'x, y, z'
loop_
 _atom_site_type_symbol
 _atom_site_label
 _atom_site_symmetry_multiplicity
 _atom_site_fract_x
 _atom_site_fract_y
 _atom_site_fract_z
 _atom_site_occupancy
  Cs  Cs0  1  0.50000000  0.00000000  0.00000000  1
  Cs  Cs1  1  0.00000000  0.50000000  0.00000000  1
  Tm  Tm0  1  0.00000000  0.00000000  0.50000000  1
  Tm  Tm1  1  0.50000000  0.50000000  0.50000000  1
  Br  Br0  1  0.72975600  0.22975600  0.50000000  1
  Br  Br1  1  0.27024400  0.77024400  0.50000000  1
  Br  Br2  1  0.22975600  0.27024400  0.50000000  1
  Br  Br3  1  0.77024400  0.72975600  0.50000000  1
  Br  Br4  1  0.00000000  0.00000000  0.00000000  1
  Br  Br5  1  0.50000000  0.50000000  0.00000000  1
loop_
_geom_bond_atom_site_label_1
_geom_bond_atom_site_label_2
_geom_bond_distance
_geom_bond_site_symmetry_2
Br0 Tm0 2.808083 1_655
Br0 Tm1 2.808083 1_555
Br0 Cs0 3.810311 1_556
Br0 Cs0 3.810311 1_555
Br0 Cs1 4.129882 1_656
Br0 Cs1 4.129882 1_655
Br1 Tm1 2.808083 1_555
Br1 Tm0 2.808083 1_565
Br1 Cs0 3.810311 1_565
Br1 Cs0 3.810311 1_566
Br1 Cs1 4.129882 1_556
Br1 Cs1 4.129882 1_555
Br2 Tm0 2.808083 1_555
Br2 Tm1 2.808083 1_555
Br2 Cs1 3.810311 1_555
Br2 Cs1 3.810311 1_556
Br2 Cs0 4.129882 1_555
Br2 Cs0 4.129882 1_556
Br3 Tm1 2.808083 1_555
Br3 Tm0 2.808083 1_665
Br3 Cs1 3.810311 1_656
Br3 Cs1 3.810311 1_655
Br3 Cs0 4.129882 1_565
Br3 Cs0 4.129882 1_566
Br4 Tm0 2.811026 1_555
Br4 Tm0 2.811026 1_554
Br4 Cs0 3.958273 1_555
Br4 Cs1 3.958273 1_555
Br4 Cs1 3.958273 1_545
Br4 Cs0 3.958273 1_455
Br5 Tm1 2.811026 1_554
Br5 Tm1 2.811026 1_555
Br5 Cs0 3.958273 1_555
Br5 Cs1 3.958273 1_555
Br5 Cs1 3.958273 1_655
Br5 Cs0 3.958273 1_565
