# generated using pymatgen
data_FeWCl5
_symmetry_space_group_name_H-M   'P 1'
_cell_length_a   6.25223938
_cell_length_b   8.96299584
_cell_length_c   12.77970658
_cell_angle_alpha   86.83347835
_cell_angle_beta   80.88742671
_cell_angle_gamma   69.58724761
_symmetry_Int_Tables_number   1
_chemical_formula_structural   FeWCl5
_chemical_formula_sum   'Fe4 W4 Cl20'
_cell_volume   662.71668712
_cell_formula_units_Z   4
loop_
 _symmetry_equiv_pos_site_id
 _symmetry_equiv_pos_as_xyz
  1  'x, y, z'
loop_
 _atom_site_type_symbol
 _atom_site_label
 _atom_site_symmetry_multiplicity
 _atom_site_fract_x
 _atom_site_fract_y
 _atom_site_fract_z
 _atom_site_occupancy
  Fe  Fe0  1  0.94889600  0.60220900  0.25000000  1
  Fe  Fe1  1  0.05110400  0.39779100  0.75000000  1
  Fe  Fe2  1  0.33907200  0.82185700  0.25000000  1
  Fe  Fe3  1  0.66092800  0.17814300  0.75000000  1
  W  W0  1  0.56790500  0.36418900  0.25000000  1
  W  W1  1  0.43209500  0.63581100  0.75000000  1
  W  W2  1  0.72347900  0.05304200  0.25000000  1
  W  W3  1  0.27652100  0.94695800  0.75000000  1
  Cl  Cl0  1  0.23302900  0.79158400  0.61570200  1
  Cl  Cl1  1  0.47538700  0.79158400  0.88429800  1
  Cl  Cl2  1  0.76697100  0.20841600  0.38429800  1
  Cl  Cl3  1  0.52461300  0.20841600  0.11570200  1
  Cl  Cl4  1  0.09804300  0.59519800  0.85771300  1
  Cl  Cl5  1  0.80675900  0.59519800  0.64228700  1
  Cl  Cl6  1  0.90195700  0.40480200  0.14228700  1
  Cl  Cl7  1  0.19324100  0.40480200  0.35771300  1
  Cl  Cl8  1  0.90597600  0.98948700  0.85965800  1
  Cl  Cl9  1  0.60453800  0.98948700  0.64034200  1
  Cl  Cl10  1  0.09402400  0.01051300  0.14034200  1
  Cl  Cl11  1  0.39546200  0.01051300  0.35965800  1
  Cl  Cl12  1  0.42469900  0.40666500  0.64362300  1
  Cl  Cl13  1  0.66863600  0.40666500  0.85637700  1
  Cl  Cl14  1  0.57530100  0.59333500  0.35637700  1
  Cl  Cl15  1  0.33136400  0.59333500  0.14362300  1
  Cl  Cl16  1  0.03863300  0.17396700  0.64226700  1
  Cl  Cl17  1  0.28740000  0.17396700  0.85773300  1
  Cl  Cl18  1  0.96136700  0.82603300  0.35773300  1
  Cl  Cl19  1  0.71260000  0.82603300  0.14226700  1
loop_
_geom_bond_atom_site_label_1
_geom_bond_atom_site_label_2
_geom_bond_distance
_geom_bond_site_symmetry_2
Cl0 W3 2.373816 1_555
Cl0 W1 2.375662 1_555
Cl1 W3 2.373816 1_555
Cl1 W1 2.375660 1_555
Cl2 W2 2.373816 1_555
Cl2 W0 2.375662 1_555
Cl3 W2 2.373816 1_555
Cl3 W0 2.375660 1_555
Cl4 Fe1 2.422988 1_555
Cl4 W1 2.440047 1_555
Cl5 Fe1 2.422985 1_655
Cl5 W1 2.440042 1_555
Cl6 Fe0 2.422988 1_555
Cl6 W0 2.440047 1_555
Cl7 Fe0 2.422985 1_455
Cl7 W0 2.440042 1_555
Cl8 Fe3 2.404498 1_565
Cl8 W3 2.427158 1_655
Cl9 Fe3 2.404492 1_565
Cl9 W3 2.427163 1_555
Cl10 Fe2 2.404498 1_545
Cl10 W2 2.427158 1_455
Cl11 Fe2 2.404492 1_545
Cl11 W2 2.427163 1_555
Cl12 Fe1 2.534224 1_555
Cl12 Fe3 2.538304 1_555
Cl12 W1 2.542272 1_555
Cl13 Fe1 2.534219 1_655
Cl13 Fe3 2.538306 1_555
Cl13 W1 2.542270 1_555
Cl14 Fe0 2.534224 1_555
Cl14 Fe2 2.538304 1_555
Cl14 W0 2.542272 1_555
Cl15 Fe0 2.534219 1_455
Cl15 Fe2 2.538306 1_555
Cl15 W0 2.542270 1_555
Cl16 Fe1 2.524772 1_555
Cl16 Fe3 2.527419 1_455
Cl16 W3 2.544760 1_545
Cl17 Fe1 2.524775 1_555
Cl17 Fe3 2.527414 1_555
Cl17 W3 2.544760 1_545
Cl18 Fe0 2.524772 1_555
Cl18 Fe2 2.527419 1_655
Cl18 W2 2.544760 1_565
Cl19 Fe0 2.524775 1_555
Cl19 Fe2 2.527414 1_555
Cl19 W2 2.544760 1_565
