# generated using pymatgen
data_Li2TiVO4
_symmetry_space_group_name_H-M   'P 1'
_cell_length_a   4.13399195
_cell_length_b   15.11031004
_cell_length_c   5.22052690
_cell_angle_alpha   98.47520139
_cell_angle_beta   66.67250812
_cell_angle_gamma   89.99921036
_symmetry_Int_Tables_number   1
_chemical_formula_structural   Li2TiVO4
_chemical_formula_sum   'Li8 Ti4 V4 O16'
_cell_volume   295.56550701
_cell_formula_units_Z   4
loop_
 _symmetry_equiv_pos_site_id
 _symmetry_equiv_pos_as_xyz
  1  'x, y, z'
loop_
 _atom_site_type_symbol
 _atom_site_label
 _atom_site_symmetry_multiplicity
 _atom_site_fract_x
 _atom_site_fract_y
 _atom_site_fract_z
 _atom_site_occupancy
  Li  Li0  1  0.31068100  0.93745000  0.37862100  1
  Li  Li1  1  0.81085300  0.43730100  0.37828100  1
  Li  Li2  1  0.06181100  0.18673500  0.87638300  1
  Li  Li3  1  0.56128200  0.68703200  0.87743300  1
  Li  Li4  1  0.62599300  0.87547900  0.74802200  1
  Li  Li5  1  0.12595700  0.37546400  0.74809800  1
  Li  Li6  1  0.37526100  0.12482900  0.24948900  1
  Li  Li7  1  0.87544700  0.62498300  0.24910800  1
  Ti  Ti0  1  0.68655300  0.06142800  0.62683200  1
  Ti  Ti1  1  0.18648500  0.56153400  0.62698200  1
  Ti  Ti2  1  0.43946800  0.31407900  0.12110600  1
  Ti  Ti3  1  0.93920100  0.81428600  0.12166800  1
  V  V0  1  0.49778400  0.49885900  0.00437800  1
  V  V1  1  0.25011400  0.75017900  0.49970500  1
  V  V2  1  0.99830500  0.99892100  0.00340000  1
  V  V3  1  0.75009100  0.24996300  0.49979800  1
  O  O0  1  0.85741600  0.12073700  0.28525200  1
  O  O1  1  0.35748000  0.62098300  0.28511400  1
  O  O2  1  0.61321500  0.36915500  0.77359900  1
  O  O3  1  0.11330100  0.86919500  0.77342300  1
  O  O4  1  0.51612600  0.00560300  0.96774900  1
  O  O5  1  0.01592900  0.50565300  0.96809000  1
  O  O6  1  0.26701200  0.25512200  0.46593800  1
  O  O7  1  0.76701900  0.75529700  0.46591300  1
  O  O8  1  0.81308200  0.93823100  0.37383600  1
  O  O9  1  0.31289900  0.43825800  0.37420000  1
  O  O10  1  0.56595500  0.18827800  0.86810600  1
  O  O11  1  0.06604600  0.68843300  0.86792700  1
  O  O12  1  0.18421200  0.06113400  0.63161000  1
  O  O13  1  0.68401200  0.56122200  0.63200000  1
  O  O14  1  0.93550500  0.31200600  0.12897300  1
  O  O15  1  0.43550400  0.81217200  0.12896700  1
loop_
_geom_bond_atom_site_label_1
_geom_bond_atom_site_label_2
_geom_bond_distance
_geom_bond_site_symmetry_2
Li0 O12 2.058160 1_565
Li0 O8 2.067144 1_455
Li0 O8 2.067212 1_555
Li0 O15 2.070857 1_555
Li0 O3 2.296129 1_555
Li0 O4 2.364549 1_564
Li1 O13 2.062626 1_555
Li1 O9 2.067139 1_555
Li1 O9 2.067183 1_655
Li1 O14 2.070353 1_555
Li1 O2 2.297389 1_555
Li1 O5 2.363316 1_654
Li2 O12 2.064915 1_555
Li2 O10 2.067559 1_455
Li2 O10 2.067601 1_555
Li2 O14 2.076878 1_456
Li2 O0 2.337454 1_456
Li2 O6 2.364716 1_555
Li3 O11 2.067638 1_555
Li3 O11 2.067725 1_655
Li3 O13 2.068860 1_555
Li3 O15 2.073051 1_556
Li3 O1 2.332723 1_556
Li3 O7 2.368317 1_555
Li4 O3 2.073610 1_555
Li4 O3 2.073691 1_655
Li4 O4 2.076210 1_565
Li4 O7 2.082868 1_555
Li4 O8 2.159325 1_555
Li4 O15 2.193337 1_556
Li5 O2 2.073663 1_455
Li5 O2 2.073744 1_555
Li5 O5 2.077512 1_555
Li5 O6 2.084849 1_555
Li5 O9 2.158444 1_555
Li5 O14 2.194335 1_456
Li6 O4 2.070892 1_554
Li6 O6 2.072898 1_555
Li6 O0 2.075676 1_455
Li6 O0 2.075993 1_555
Li6 O10 2.196455 1_554
Li6 O12 2.201767 1_555
Li7 O5 2.070324 1_654
Li7 O7 2.073769 1_555
Li7 O1 2.075721 1_555
Li7 O1 2.076034 1_655
Li7 O11 2.195589 1_654
Li7 O13 2.205671 1_555
O0 Ti0 1.988840 1_555
O0 V3 2.055705 1_555
O0 V2 2.101262 1_545
O1 Ti1 1.991310 1_555
O1 V1 2.055386 1_555
O1 V0 2.102184 1_555
O2 Ti2 1.978069 1_556
O2 V3 2.051247 1_555
O2 V0 2.090207 1_556
O3 Ti3 1.979888 1_456
O3 V1 2.048987 1_555
O3 V2 2.089037 1_456
O4 Ti0 1.955752 1_555
O4 V2 2.077812 1_446
O4 V2 2.077865 1_546
O5 Ti1 1.957059 1_555
O5 V0 2.078218 1_456
O5 V0 2.078225 1_556
O6 Ti2 1.999735 1_555
O6 V3 2.075758 1_455
O6 V3 2.075848 1_555
O7 Ti3 1.997488 1_555
O7 V1 2.075715 1_655
O7 V1 2.075774 1_555
O8 Ti0 2.052194 1_565
O8 Ti3 2.059631 1_555
O8 V2 2.125362 1_555
O9 Ti1 2.052707 1_555
O9 Ti2 2.064472 1_555
O9 V0 2.121939 1_555
O10 Ti0 2.073643 1_555
O10 Ti2 2.084288 1_556
O10 V3 2.124702 1_555
O11 Ti1 2.073616 1_555
O11 Ti3 2.086480 1_456
O11 V1 2.124858 1_555
O12 Ti0 2.066936 1_555
O12 Ti0 2.067335 1_455
O12 V2 2.144312 1_446
O13 Ti1 2.067000 1_655
O13 Ti1 2.067300 1_555
O13 V0 2.148149 1_556
O14 Ti2 2.067549 1_555
O14 Ti2 2.067789 1_655
O14 V3 2.138673 1_555
O15 Ti3 2.067431 1_455
O15 Ti3 2.067820 1_555
O15 V1 2.137865 1_555
