# generated using pymatgen
data_Pb3Se2(BrO3)2
_symmetry_space_group_name_H-M   'P 1'
_cell_length_a   7.40336267
_cell_length_b   7.40336267
_cell_length_c   13.65386838
_cell_angle_alpha   86.76869942
_cell_angle_beta   86.76869942
_cell_angle_gamma   45.56204950
_symmetry_Int_Tables_number   1
_chemical_formula_structural   Pb3Se2(BrO3)2
_chemical_formula_sum   'Pb6 Se4 Br4 O12'
_cell_volume   533.34026183
_cell_formula_units_Z   2
loop_
 _symmetry_equiv_pos_site_id
 _symmetry_equiv_pos_as_xyz
  1  'x, y, z'
loop_
 _atom_site_type_symbol
 _atom_site_label
 _atom_site_symmetry_multiplicity
 _atom_site_fract_x
 _atom_site_fract_y
 _atom_site_fract_z
 _atom_site_occupancy
  Pb  Pb0  1  0.55416800  0.44583200  0.25000000  1
  Pb  Pb1  1  0.44583200  0.55416800  0.75000000  1
  Pb  Pb2  1  0.80648300  0.78147000  0.35320300  1
  Pb  Pb3  1  0.21853000  0.19351700  0.14679700  1
  Pb  Pb4  1  0.19351700  0.21853000  0.64679700  1
  Pb  Pb5  1  0.78147000  0.80648300  0.85320300  1
  Se  Se0  1  0.10885700  0.10383200  0.38163600  1
  Se  Se1  1  0.89616800  0.89114300  0.11836400  1
  Se  Se2  1  0.89114300  0.89616800  0.61836400  1
  Se  Se3  1  0.10383200  0.10885700  0.88163600  1
  Br  Br0  1  0.34839800  0.36744000  0.44321400  1
  Br  Br1  1  0.63256000  0.65160200  0.05678600  1
  Br  Br2  1  0.65160200  0.63256000  0.55678600  1
  Br  Br3  1  0.36744000  0.34839800  0.94321400  1
  O  O0  1  0.93263400  0.38032800  0.30495700  1
  O  O1  1  0.61967200  0.06736600  0.19504300  1
  O  O2  1  0.06736600  0.61967200  0.69504300  1
  O  O3  1  0.38032800  0.93263400  0.80495700  1
  O  O4  1  0.37696600  0.90460900  0.30323600  1
  O  O5  1  0.09539100  0.62303400  0.19676400  1
  O  O6  1  0.62303400  0.09539100  0.69676400  1
  O  O7  1  0.90460900  0.37696600  0.80323600  1
  O  O8  1  0.94292800  0.02894000  0.36503700  1
  O  O9  1  0.97106000  0.05707200  0.13496300  1
  O  O10  1  0.05707200  0.97106000  0.63496300  1
  O  O11  1  0.02894000  0.94292800  0.86503700  1
loop_
_geom_bond_atom_site_label_1
_geom_bond_atom_site_label_2
_geom_bond_distance
_geom_bond_site_symmetry_2
Br0 Pb2 3.148527 1_455
Br0 Pb0 3.198367 1_555
Br0 Pb4 3.364840 1_555
Br0 Pb2 3.370660 1_545
Br1 Pb3 3.148527 1_565
Br1 Pb0 3.198367 1_555
Br1 Pb5 3.364840 1_554
Br1 Pb3 3.370660 1_655
Br2 Pb4 3.148527 1_655
Br2 Pb1 3.198367 1_555
Br2 Pb2 3.364840 1_555
Br2 Pb4 3.370660 1_565
Br3 Pb5 3.148527 1_545
Br3 Pb1 3.198367 1_555
Br3 Pb3 3.364840 1_556
Br3 Pb5 3.370660 1_455
O0 Se0 1.777989 1_655
O0 Pb2 2.528491 1_555
O0 Pb3 2.603563 1_655
O0 Pb0 2.634829 1_555
O1 Se1 1.777989 1_545
O1 Pb3 2.528491 1_555
O1 Pb2 2.603563 1_545
O1 Pb0 2.634829 1_555
O2 Se2 1.777989 1_455
O2 Pb4 2.528491 1_555
O2 Pb5 2.603563 1_455
O2 Pb1 2.634829 1_555
O3 Se3 1.777989 1_565
O3 Pb5 2.528491 1_555
O3 Pb4 2.603563 1_565
O3 Pb1 2.634829 1_555
O4 Se0 1.760734 1_565
O4 Pb3 2.601447 1_565
O4 Pb2 2.742867 1_555
O4 Pb0 2.777952 1_555
O5 Se1 1.760734 1_455
O5 Pb2 2.601447 1_455
O5 Pb3 2.742867 1_555
O5 Pb0 2.777952 1_555
O6 Se2 1.760734 1_545
O6 Pb5 2.601447 1_545
O6 Pb4 2.742867 1_555
O6 Pb1 2.777952 1_555
O7 Se3 1.760734 1_655
O7 Pb4 2.601447 1_655
O7 Pb5 2.742867 1_555
O7 Pb1 2.777952 1_555
O8 Se0 1.693257 1_655
O8 Pb2 2.654508 1_545
O8 Pb0 2.793030 1_555
O9 Se1 1.693257 1_545
O9 Pb3 2.654508 1_655
O9 Pb0 2.793030 1_555
O10 Se2 1.693257 1_455
O10 Pb4 2.654508 1_565
O10 Pb1 2.793030 1_555
O11 Se3 1.693257 1_565
O11 Pb5 2.654508 1_455
O11 Pb1 2.793030 1_555
