# generated using pymatgen
data_BaTiSe3
_symmetry_space_group_name_H-M   'P 1'
_cell_length_a   7.10825900
_cell_length_b   7.10825900
_cell_length_c   6.05122586
_cell_angle_alpha   90.00000000
_cell_angle_beta   90.00000000
_cell_angle_gamma   119.99999999
_symmetry_Int_Tables_number   1
_chemical_formula_structural   BaTiSe3
_chemical_formula_sum   'Ba2 Ti2 Se6'
_cell_volume   264.78933076
_cell_formula_units_Z   2
loop_
 _symmetry_equiv_pos_site_id
 _symmetry_equiv_pos_as_xyz
  1  'x, y, z'
loop_
 _atom_site_type_symbol
 _atom_site_label
 _atom_site_symmetry_multiplicity
 _atom_site_fract_x
 _atom_site_fract_y
 _atom_site_fract_z
 _atom_site_occupancy
  Ba  Ba0  1  0.33333300  0.66666700  0.75000000  1
  Ba  Ba1  1  0.66666700  0.33333300  0.25000000  1
  Ti  Ti0  1  -0.00000000  -0.00000000  0.50000000  1
  Ti  Ti1  1  -0.00000000  -0.00000000  -0.00000000  1
  Se  Se0  1  0.16742457  0.83257543  0.25000000  1
  Se  Se1  1  0.16742457  0.33485114  0.25000000  1
  Se  Se2  1  0.66514886  0.83257543  0.25000000  1
  Se  Se3  1  0.83257543  0.16742457  0.75000000  1
  Se  Se4  1  0.83257543  0.66514886  0.75000000  1
  Se  Se5  1  0.33485114  0.16742457  0.75000000  1
loop_
_geom_bond_atom_site_label_1
_geom_bond_atom_site_label_2
_geom_bond_distance
_geom_bond_site_symmetry_2
Ba0 Se4 3.554131 1_455
Ba0 Se5 3.554131 1_565
Ba0 Se3 3.554142 1_455
Ba0 Se3 3.554142 1_565
Ba0 Se4 3.554152 1_555
Ba0 Se5 3.554152 1_555
Ba0 Se2 3.650575 1_555
Ba0 Se1 3.650575 1_556
Ba0 Se1 3.650575 1_555
Ba0 Se2 3.650575 1_556
Ba0 Se0 3.650578 1_556
Ba0 Se0 3.650578 1_555
Ba1 Se2 3.554131 1_545
Ba1 Se1 3.554131 1_655
Ba1 Se0 3.554142 1_545
Ba1 Se0 3.554142 1_655
Ba1 Se1 3.554152 1_555
Ba1 Se2 3.554152 1_555
Ba1 Se5 3.650575 1_554
Ba1 Se5 3.650575 1_555
Ba1 Se4 3.650575 1_555
Ba1 Se4 3.650575 1_554
Ba1 Se3 3.650578 1_554
Ba1 Se3 3.650578 1_555
Se0 Ti0 2.556869 1_565
Se0 Ti1 2.556869 1_565
Se1 Ti0 2.556879 1_555
Se1 Ti1 2.556879 1_555
Se2 Ti0 2.556879 1_665
Se2 Ti1 2.556879 1_665
Se3 Ti1 2.556869 1_656
Se3 Ti0 2.556869 1_655
Se4 Ti0 2.556879 1_665
Se4 Ti1 2.556879 1_666
Se5 Ti0 2.556879 1_555
Se5 Ti1 2.556879 1_556
