# generated using pymatgen
data_CrSiH12(OF)6
_symmetry_space_group_name_H-M   'P 1'
_cell_length_a   6.47138607
_cell_length_b   6.41837992
_cell_length_c   13.01908507
_cell_angle_alpha   98.08382448
_cell_angle_beta   97.62870060
_cell_angle_gamma   94.51162995
_symmetry_Int_Tables_number   1
_chemical_formula_structural   CrSiH12(OF)6
_chemical_formula_sum   'Cr2 Si2 H24 O12 F12'
_cell_volume   528.02983382
_cell_formula_units_Z   2
loop_
 _symmetry_equiv_pos_site_id
 _symmetry_equiv_pos_as_xyz
  1  'x, y, z'
loop_
 _atom_site_type_symbol
 _atom_site_label
 _atom_site_symmetry_multiplicity
 _atom_site_fract_x
 _atom_site_fract_y
 _atom_site_fract_z
 _atom_site_occupancy
  Cr  Cr0  1  0.99889100  0.99968600  0.49976600  1
  Cr  Cr1  1  0.00072500  0.00029500  0.00029900  1
  Si  Si0  1  0.50245000  0.49651400  0.24954500  1
  Si  Si1  1  0.49755000  0.50340200  0.75047100  1
  H  H0  1  0.17857500  0.67918900  0.38957700  1
  H  H1  1  0.17381600  0.68208100  0.88994100  1
  H  H2  1  0.21932200  0.81264500  0.15469700  1
  H  H3  1  0.21818100  0.81993900  0.65407500  1
  H  H4  1  0.33575300  0.22431000  0.40724200  1
  H  H5  1  0.33357700  0.22368000  0.90733600  1
  H  H6  1  0.66663100  0.77672400  0.09260700  1
  H  H7  1  0.66434100  0.77577200  0.59280400  1
  H  H8  1  0.78108700  0.18000600  0.34515300  1
  H  H9  1  0.78082900  0.18674400  0.84546400  1
  H  H10  1  0.82664600  0.31785400  0.11045600  1
  H  H11  1  0.82140100  0.32103300  0.61032000  1
  H  H12  1  0.06465000  0.40200800  0.10381300  1
  H  H13  1  0.05776800  0.40639000  0.60275500  1
  H  H14  1  0.21736300  0.05729700  0.19994300  1
  H  H15  1  0.21434900  0.06530000  0.69821800  1
  H  H16  1  0.57308400  0.78688100  0.47472400  1
  H  H17  1  0.57285600  0.79224900  0.97544400  1
  H  H18  1  0.42774800  0.20844900  0.02455500  1
  H  H19  1  0.42647900  0.21287200  0.52534600  1
  H  H20  1  0.78479800  0.93451600  0.30109900  1
  H  H21  1  0.78301100  0.94206200  0.80054200  1
  H  H22  1  0.94226900  0.59339000  0.39713900  1
  H  H23  1  0.93593700  0.59818400  0.89656100  1
  O  O0  1  0.06164100  0.69555300  0.43042500  1
  O  O1  1  0.05675800  0.69770500  0.93076500  1
  O  O2  1  0.14461000  0.93891300  0.14842100  1
  O  O3  1  0.14216000  0.94537300  0.64737500  1
  O  O4  1  0.32013200  0.14862200  0.46647900  1
  O  O5  1  0.31938600  0.14648100  0.96620100  1
  O  O6  1  0.68033000  0.85503800  0.03410800  1
  O  O7  1  0.67970800  0.85121100  0.53344800  1
  O  O8  1  0.85744100  0.05470100  0.35164300  1
  O  O9  1  0.85576700  0.06068900  0.85196400  1
  O  O10  1  0.94390300  0.30233000  0.06972900  1
  O  O11  1  0.93828500  0.30446000  0.56946400  1
  F  F0  1  0.32953700  0.30245100  0.27812500  1
  F  F1  1  0.32483600  0.30814000  0.77845200  1
  F  F2  1  0.31044100  0.55893700  0.15651600  1
  F  F3  1  0.30516800  0.56643100  0.65798400  1
  F  F4  1  0.42172900  0.67535100  0.34337900  1
  F  F5  1  0.41787900  0.68290200  0.84430300  1
  F  F6  1  0.58204300  0.31695300  0.15578900  1
  F  F7  1  0.57817200  0.32447900  0.65665000  1
  F  F8  1  0.69480200  0.43354400  0.34203400  1
  F  F9  1  0.68957900  0.44105400  0.84348800  1
  F  F10  1  0.67516000  0.69169700  0.22149100  1
  F  F11  1  0.67044800  0.69751300  0.72187500  1
loop_
_geom_bond_atom_site_label_1
_geom_bond_atom_site_label_2
_geom_bond_distance
_geom_bond_site_symmetry_2
Cr0 O3 2.107223 1_655
Cr0 O8 2.110713 1_565
Cr0 O0 2.125267 1_655
Cr0 O11 2.125965 1_565
Cr0 O7 2.327080 1_555
Cr0 O4 2.338031 1_665
Cr1 O10 2.101886 1_455
Cr1 O1 2.103895 1_544
Cr1 O2 2.129705 1_545
Cr1 O9 2.132248 1_454
Cr1 O5 2.320735 1_554
Cr1 O6 2.327133 1_445
H0 O0 0.984947 1_555
H1 O1 0.985011 1_555
H2 O2 0.983374 1_555
H3 O3 0.984104 1_555
H4 O4 0.979451 1_555
H5 O5 0.979587 1_555
H6 O6 0.979355 1_555
H7 O7 0.979569 1_555
H8 O8 0.984207 1_555
H9 O9 0.983372 1_555
H10 O10 0.985257 1_555
H11 O11 0.984861 1_555
H12 O10 0.982979 1_455
H13 O11 0.982559 1_455
H14 O2 0.982584 1_545
H15 O3 0.983319 1_545
H16 O7 0.978486 1_555
H17 O6 0.978652 1_556
H18 O5 0.978164 1_554
H19 O4 0.978510 1_555
H20 O8 0.983418 1_565
H21 O9 0.982926 1_565
H22 O0 0.982870 1_655
H23 O1 0.983177 1_655
F0 Si0 1.721523 1_555
F1 Si1 1.723010 1_555
F2 Si0 1.728180 1_555
F3 Si1 1.726758 1_555
F4 Si0 1.718198 1_555
F5 Si1 1.717653 1_555
F6 Si0 1.717010 1_555
F7 Si1 1.718124 1_555
F8 Si0 1.726502 1_555
F9 Si1 1.727978 1_555
F10 Si0 1.723016 1_555
F11 Si1 1.721763 1_555
