# generated using pymatgen
data_Mg2CdIr
_symmetry_space_group_name_H-M   'P 1'
_cell_length_a   11.78669963
_cell_length_b   11.78669963
_cell_length_c   11.78669963
_cell_angle_alpha   125.58993210
_cell_angle_beta   115.79106457
_cell_angle_gamma   89.02186932
_symmetry_Int_Tables_number   1
_chemical_formula_structural   Mg2CdIr
_chemical_formula_sum   'Mg2 Cd1 Ir1'
_cell_volume   1134.89344491
_cell_formula_units_Z   1
loop_
 _symmetry_equiv_pos_site_id
 _symmetry_equiv_pos_as_xyz
  1  'x, y, z'
loop_
 _atom_site_type_symbol
 _atom_site_label
 _atom_site_symmetry_multiplicity
 _atom_site_fract_x
 _atom_site_fract_y
 _atom_site_fract_z
 _atom_site_occupancy
  Mg  Mg0  1  0.00000000  0.26739000  0.26739000  1
  Mg  Mg1  1  0.00000000  0.73261000  0.73261000  1
  Cd  Cd0  1  0.00000000  0.00000000  0.00000000  1
  Ir  Ir0  1  0.00000000  0.50000000  0.50000000  1
loop_
_geom_bond_atom_site_label_1
_geom_bond_atom_site_label_2
_geom_bond_distance
_geom_bond_site_symmetry_2
Cd0 Mg1 2.881714 1_544
Cd0 Mg0 2.881714 1_555
Ir0 Mg1 2.506883 1_555
Ir0 Mg0 2.506883 1_555
