# generated using pymatgen
data_CsNaMg30O31
_symmetry_space_group_name_H-M   'P 1'
_cell_length_a   8.58652500
_cell_length_b   8.73921400
_cell_length_c   8.79965500
_cell_angle_alpha   90.00000000
_cell_angle_beta   90.00000000
_cell_angle_gamma   90.00000000
_symmetry_Int_Tables_number   1
_chemical_formula_structural   CsNaMg30O31
_chemical_formula_sum   'Cs1 Na1 Mg30 O31'
_cell_volume   660.32153090
_cell_formula_units_Z   1
loop_
 _symmetry_equiv_pos_site_id
 _symmetry_equiv_pos_as_xyz
  1  'x, y, z'
loop_
 _atom_site_type_symbol
 _atom_site_label
 _atom_site_symmetry_multiplicity
 _atom_site_fract_x
 _atom_site_fract_y
 _atom_site_fract_z
 _atom_site_occupancy
  Cs  Cs0  1  0.50000000  0.50000000  0.97485700  1
  Na  Na0  1  0.00000000  0.00000000  0.99623400  1
  Mg  Mg0  1  0.00000000  0.50000000  0.97739900  1
  Mg  Mg1  1  0.50000000  0.00000000  0.99836700  1
  Mg  Mg2  1  0.00000000  0.00000000  0.50182100  1
  Mg  Mg3  1  0.00000000  0.50000000  0.51870800  1
  Mg  Mg4  1  0.50000000  0.00000000  0.49998500  1
  Mg  Mg5  1  0.50000000  0.50000000  0.48824100  1
  Mg  Mg6  1  0.24533500  0.24391700  0.00671200  1
  Mg  Mg7  1  0.24533500  0.75608300  0.00671200  1
  Mg  Mg8  1  0.75466500  0.24391700  0.00671200  1
  Mg  Mg9  1  0.75466500  0.75608300  0.00671200  1
  Mg  Mg10  1  0.24806500  0.24449700  0.49657200  1
  Mg  Mg11  1  0.24806500  0.75550300  0.49657200  1
  Mg  Mg12  1  0.75193500  0.24449700  0.49657200  1
  Mg  Mg13  1  0.75193500  0.75550300  0.49657200  1
  Mg  Mg14  1  0.00000000  0.22641600  0.24385000  1
  Mg  Mg15  1  0.00000000  0.77358400  0.24385000  1
  Mg  Mg16  1  0.50000000  0.23914700  0.25169100  1
  Mg  Mg17  1  0.50000000  0.76085300  0.25169100  1
  Mg  Mg18  1  0.00000000  0.24530500  0.75553100  1
  Mg  Mg19  1  0.00000000  0.75469500  0.75553100  1
  Mg  Mg20  1  0.50000000  0.24329300  0.73897300  1
  Mg  Mg21  1  0.50000000  0.75670700  0.73897300  1
  Mg  Mg22  1  0.25295100  0.00000000  0.24883300  1
  Mg  Mg23  1  0.26928600  0.50000000  0.25719700  1
  Mg  Mg24  1  0.74704900  0.00000000  0.24883300  1
  Mg  Mg25  1  0.73071400  0.50000000  0.25719700  1
  Mg  Mg26  1  0.24933900  0.00000000  0.75430500  1
  Mg  Mg27  1  0.25318600  0.50000000  0.72603300  1
  Mg  Mg28  1  0.75066100  0.00000000  0.75430500  1
  Mg  Mg29  1  0.74681400  0.50000000  0.72603300  1
  O  O0  1  0.00000000  0.00000000  0.26611200  1
  O  O1  1  0.50000000  0.00000000  0.26361200  1
  O  O2  1  0.50000000  0.50000000  0.27383800  1
  O  O3  1  0.00000000  0.00000000  0.73425000  1
  O  O4  1  0.00000000  0.50000000  0.74603200  1
  O  O5  1  0.50000000  0.00000000  0.74193300  1
  O  O6  1  0.50000000  0.50000000  0.69795400  1
  O  O7  1  0.24486800  0.24797300  0.25496800  1
  O  O8  1  0.24486800  0.75202700  0.25496800  1
  O  O9  1  0.75513200  0.24797300  0.25496800  1
  O  O10  1  0.75513200  0.75202700  0.25496800  1
  O  O11  1  0.25154600  0.25720900  0.75062400  1
  O  O12  1  0.25154600  0.74279100  0.75062400  1
  O  O13  1  0.74845400  0.25720900  0.75062400  1
  O  O14  1  0.74845400  0.74279100  0.75062400  1
  O  O15  1  0.00000000  0.25779800  0.00058900  1
  O  O16  1  0.00000000  0.74220200  0.00058900  1
  O  O17  1  0.50000000  0.21786400  0.01429000  1
  O  O18  1  0.50000000  0.78213600  0.01429000  1
  O  O19  1  0.00000000  0.25741100  0.49479800  1
  O  O20  1  0.00000000  0.74258900  0.49479800  1
  O  O21  1  0.50000000  0.24455900  0.49614500  1
  O  O22  1  0.50000000  0.75544100  0.49614500  1
  O  O23  1  0.25723500  0.00000000  0.99969700  1
  O  O24  1  0.21025500  0.50000000  0.04336400  1
  O  O25  1  0.74276500  0.00000000  0.99969700  1
  O  O26  1  0.78974500  0.50000000  0.04336400  1
  O  O27  1  0.24859700  0.00000000  0.50360900  1
  O  O28  1  0.23674100  0.50000000  0.48867100  1
  O  O29  1  0.75140300  0.00000000  0.50360900  1
  O  O30  1  0.76325900  0.50000000  0.48867100  1
loop_
_geom_bond_atom_site_label_1
_geom_bond_atom_site_label_2
_geom_bond_distance
_geom_bond_site_symmetry_2
Cs0 O6 2.436651 1_555
Cs0 O18 2.489944 1_556
Cs0 O17 2.489944 1_556
Cs0 O26 2.559897 1_556
Cs0 O24 2.559897 1_556
Cs0 O2 2.630930 1_556
Na0 O23 2.208965 1_555
Na0 O25 2.208965 1_455
Na0 O15 2.253278 1_556
Na0 O16 2.253278 1_546
Na0 O3 2.305369 1_555
Na0 O0 2.374833 1_556
Mg0 O24 1.896383 1_556
Mg0 O26 1.896383 1_456
Mg0 O4 2.035950 1_555
Mg0 O16 2.126469 1_556
Mg0 O15 2.126469 1_556
Mg1 O17 1.909109 1_556
Mg1 O18 1.909109 1_546
Mg1 O23 2.084541 1_555
Mg1 O25 2.084541 1_555
Mg1 O5 2.256531 1_555
Mg1 O1 2.334064 1_556
Mg2 O3 2.045295 1_555
Mg2 O0 2.074158 1_555
Mg2 O27 2.134642 1_555
Mg2 O29 2.134642 1_455
Mg2 O19 2.250419 1_555
Mg2 O20 2.250419 1_545
Mg3 O4 2.000373 1_555
Mg3 O28 2.049894 1_555
Mg3 O30 2.049894 1_455
Mg3 O20 2.130452 1_555
Mg3 O19 2.130452 1_555
Mg4 O1 2.080001 1_555
Mg4 O5 2.129059 1_555
Mg4 O21 2.137521 1_555
Mg4 O22 2.137521 1_545
Mg4 O29 2.158914 1_555
Mg4 O27 2.158914 1_555
Mg5 O6 1.845402 1_555
Mg5 O2 1.886672 1_555
Mg5 O22 2.233437 1_555
Mg5 O21 2.233437 1_555
Mg5 O30 2.260483 1_555
Mg5 O28 2.260483 1_555
Mg6 O15 2.110753 1_555
Mg6 O23 2.134983 1_554
Mg6 O7 2.184858 1_555
Mg6 O17 2.199520 1_555
Mg6 O11 2.257108 1_554
Mg6 O24 2.281060 1_555
Mg7 O16 2.110753 1_555
Mg7 O23 2.134983 1_564
Mg7 O8 2.184858 1_555
Mg7 O18 2.199520 1_555
Mg7 O12 2.257108 1_554
Mg7 O24 2.281060 1_555
Mg8 O15 2.110753 1_655
Mg8 O25 2.134983 1_554
Mg8 O9 2.184858 1_555
Mg8 O17 2.199520 1_555
Mg8 O13 2.257108 1_554
Mg8 O26 2.281060 1_555
Mg9 O16 2.110753 1_655
Mg9 O25 2.134983 1_564
Mg9 O10 2.184858 1_555
Mg9 O18 2.199520 1_555
Mg9 O14 2.257108 1_554
Mg9 O26 2.281060 1_555
Mg10 O7 2.126426 1_555
Mg10 O19 2.133061 1_555
Mg10 O27 2.137614 1_555
Mg10 O21 2.163250 1_555
Mg10 O28 2.236093 1_555
Mg10 O11 2.238528 1_555
Mg11 O8 2.126426 1_555
Mg11 O20 2.133061 1_555
Mg11 O27 2.137614 1_565
Mg11 O22 2.163250 1_555
Mg11 O28 2.236093 1_555
Mg11 O12 2.238528 1_555
Mg12 O9 2.126426 1_555
Mg12 O19 2.133061 1_655
Mg12 O29 2.137614 1_555
Mg12 O21 2.163250 1_555
Mg12 O30 2.236093 1_555
Mg12 O13 2.238528 1_555
Mg13 O10 2.126426 1_555
Mg13 O20 2.133061 1_655
Mg13 O29 2.137614 1_565
Mg13 O22 2.163250 1_555
Mg13 O30 2.236093 1_555
Mg13 O14 2.238528 1_555
Mg14 O0 1.988372 1_555
Mg14 O7 2.113254 1_555
Mg14 O9 2.113254 1_455
Mg14 O15 2.158110 1_555
Mg14 O19 2.224807 1_555
Mg15 O0 1.988372 1_565
Mg15 O8 2.113254 1_555
Mg15 O10 2.113254 1_455
Mg15 O16 2.158110 1_555
Mg15 O20 2.224807 1_555
Mg16 O1 2.092588 1_555
Mg16 O17 2.097311 1_555
Mg16 O21 2.151631 1_555
Mg16 O9 2.192244 1_555
Mg16 O7 2.192244 1_555
Mg16 O2 2.287965 1_555
Mg17 O1 2.092588 1_565
Mg17 O18 2.097311 1_555
Mg17 O22 2.151631 1_555
Mg17 O10 2.192244 1_555
Mg17 O8 2.192244 1_555
Mg17 O2 2.287965 1_555
Mg18 O3 2.151936 1_555
Mg18 O15 2.159188 1_556
Mg18 O11 2.162841 1_555
Mg18 O13 2.162841 1_455
Mg18 O4 2.227403 1_555
Mg18 O19 2.296798 1_555
Mg19 O3 2.151936 1_565
Mg19 O16 2.159188 1_556
Mg19 O14 2.162841 1_455
Mg19 O12 2.162841 1_555
Mg19 O4 2.227403 1_555
Mg19 O20 2.296798 1_555
Mg20 O5 2.126349 1_555
Mg20 O21 2.136831 1_555
Mg20 O13 2.139278 1_555
Mg20 O11 2.139278 1_555
Mg20 O6 2.272270 1_555
Mg20 O17 2.432866 1_556
Mg21 O5 2.126349 1_565
Mg21 O22 2.136831 1_555
Mg21 O14 2.139278 1_555
Mg21 O12 2.139278 1_555
Mg21 O6 2.272270 1_555
Mg21 O18 2.432866 1_556
Mg22 O1 2.125275 1_555
Mg22 O7 2.168872 1_555
Mg22 O8 2.168872 1_545
Mg22 O0 2.177286 1_555
Mg22 O23 2.192619 1_554
Mg22 O27 2.242253 1_555
Mg23 O24 1.948730 1_555
Mg23 O2 1.986436 1_555
Mg23 O28 2.055971 1_555
Mg23 O8 2.212562 1_555
Mg23 O7 2.212562 1_555
Mg24 O1 2.125275 1_555
Mg24 O10 2.168872 1_545
Mg24 O9 2.168872 1_555
Mg24 O0 2.177286 1_655
Mg24 O25 2.192619 1_554
Mg24 O29 2.242253 1_555
Mg25 O26 1.948730 1_555
Mg25 O2 1.986436 1_555
Mg25 O30 2.055971 1_555
Mg25 O9 2.212562 1_555
Mg25 O10 2.212562 1_555
Mg26 O3 2.148217 1_555
Mg26 O5 2.155059 1_555
Mg26 O23 2.160429 1_555
Mg26 O27 2.206048 1_555
Mg26 O11 2.248118 1_555
Mg26 O12 2.248118 1_545
Mg27 O28 2.093471 1_555
Mg27 O12 2.132855 1_555
Mg27 O11 2.132855 1_555
Mg27 O6 2.133630 1_555
Mg27 O4 2.181099 1_555
Mg28 O3 2.148217 1_655
Mg28 O5 2.155059 1_555
Mg28 O25 2.160429 1_555
Mg28 O29 2.206048 1_555
Mg28 O13 2.248118 1_555
Mg28 O14 2.248118 1_545
Mg29 O30 2.093471 1_555
Mg29 O14 2.132855 1_555
Mg29 O13 2.132855 1_555
Mg29 O6 2.133630 1_555
Mg29 O4 2.181099 1_655
