# generated using pymatgen
data_Li3MnCoO5
_symmetry_space_group_name_H-M   'P 1'
_cell_length_a   7.84223401
_cell_length_b   7.84223401
_cell_length_c   5.10497715
_cell_angle_alpha   84.17382325
_cell_angle_beta   84.17382325
_cell_angle_gamma   142.99824911
_symmetry_Int_Tables_number   1
_chemical_formula_structural   Li3MnCoO5
_chemical_formula_sum   'Li6 Mn2 Co2 O10'
_cell_volume   179.02378239
_cell_formula_units_Z   2
loop_
 _symmetry_equiv_pos_site_id
 _symmetry_equiv_pos_as_xyz
  1  'x, y, z'
loop_
 _atom_site_type_symbol
 _atom_site_label
 _atom_site_symmetry_multiplicity
 _atom_site_fract_x
 _atom_site_fract_y
 _atom_site_fract_z
 _atom_site_occupancy
  Li  Li0  1  0.80208600  0.19791400  0.00000000  1
  Li  Li1  1  0.40799300  0.59200700  0.00000000  1
  Li  Li2  1  0.00000000  0.00000000  0.00000000  1
  Li  Li3  1  0.59200700  0.40799300  0.00000000  1
  Li  Li4  1  0.19791400  0.80208600  0.00000000  1
  Li  Li5  1  0.50000000  0.50000000  0.50000000  1
  Mn  Mn0  1  0.69972400  0.30027600  0.50000000  1
  Mn  Mn1  1  0.30027600  0.69972400  0.50000000  1
  Co  Co0  1  0.90587000  0.09413000  0.50000000  1
  Co  Co1  1  0.09413000  0.90587000  0.50000000  1
  O  O0  1  0.45767700  0.04712600  0.27776100  1
  O  O1  1  0.04712600  0.45767700  0.27776100  1
  O  O2  1  0.63627900  0.85507600  0.27977100  1
  O  O3  1  0.22585200  0.22585200  0.25608700  1
  O  O4  1  0.85507600  0.63627900  0.27977100  1
  O  O5  1  0.14492400  0.36372100  0.72022900  1
  O  O6  1  0.77414800  0.77414800  0.74391300  1
  O  O7  1  0.36372100  0.14492400  0.72022900  1
  O  O8  1  0.95287400  0.54232300  0.72223900  1
  O  O9  1  0.54232300  0.95287400  0.72223900  1
loop_
_geom_bond_atom_site_label_1
_geom_bond_atom_site_label_2
_geom_bond_distance
_geom_bond_site_symmetry_2
Li0 O2 2.053946 1_545
Li0 O5 2.053946 1_654
Li0 O8 2.117701 1_554
Li0 O0 2.117701 1_555
Li0 O9 2.177220 1_544
Li0 O1 2.177220 1_655
Li1 O6 2.074199 1_554
Li1 O3 2.074199 1_555
Li1 O5 2.172355 1_554
Li1 O2 2.172355 1_555
Li1 O1 2.291193 1_555
Li1 O9 2.291193 1_554
Li2 O6 1.978077 1_444
Li2 O3 1.978077 1_555
Li2 O2 2.265625 1_445
Li2 O4 2.265625 1_445
Li2 O5 2.265625 1_554
Li2 O7 2.265625 1_554
Li3 O6 2.074199 1_554
Li3 O3 2.074199 1_555
Li3 O7 2.172355 1_554
Li3 O4 2.172355 1_555
Li3 O8 2.291193 1_554
Li3 O0 2.291193 1_555
Li4 O7 2.053946 1_564
Li4 O4 2.053946 1_455
Li4 O1 2.117701 1_555
Li4 O9 2.117701 1_554
Li4 O8 2.177220 1_454
Li4 O0 2.177220 1_565
Li5 O6 2.121110 1_555
Li5 O3 2.121110 1_555
Li5 O2 2.127731 1_555
Li5 O4 2.127731 1_555
Li5 O7 2.127731 1_555
Li5 O5 2.127731 1_555
Mn0 O7 1.919503 1_555
Mn0 O4 1.919503 1_555
Mn0 O0 1.925357 1_555
Mn0 O8 1.925357 1_555
Mn0 O9 1.987456 1_545
Mn0 O1 1.987456 1_655
Mn1 O5 1.919503 1_555
Mn1 O2 1.919503 1_555
Mn1 O9 1.925357 1_555
Mn1 O1 1.925357 1_555
Mn1 O0 1.987456 1_565
Mn1 O8 1.987456 1_455
Co0 O2 1.956568 1_545
Co0 O5 1.956568 1_655
Co0 O3 1.969437 1_655
Co0 O6 1.969437 1_545
Co0 O9 2.164785 1_545
Co0 O1 2.164785 1_655
Co1 O4 1.956568 1_455
Co1 O7 1.956568 1_565
Co1 O3 1.969437 1_565
Co1 O6 1.969437 1_455
Co1 O8 2.164785 1_455
Co1 O0 2.164785 1_565
