# generated using pymatgen
data_SrMg6FeO8
_symmetry_space_group_name_H-M   'P 1'
_cell_length_a   8.70771793
_cell_length_b   4.52685895
_cell_length_c   4.52685895
_cell_angle_alpha   90.00000000
_cell_angle_beta   90.00000000
_cell_angle_gamma   90.00000000
_symmetry_Int_Tables_number   1
_chemical_formula_structural   SrMg6FeO8
_chemical_formula_sum   'Sr1 Mg6 Fe1 O8'
_cell_volume   178.44249130
_cell_formula_units_Z   1
loop_
 _symmetry_equiv_pos_site_id
 _symmetry_equiv_pos_as_xyz
  1  'x, y, z'
loop_
 _atom_site_type_symbol
 _atom_site_label
 _atom_site_symmetry_multiplicity
 _atom_site_fract_x
 _atom_site_fract_y
 _atom_site_fract_z
 _atom_site_occupancy
  Sr  Sr0  1  0.50000000  0.00000000  0.00000000  1
  Mg  Mg0  1  0.00000000  0.50000000  0.50000000  1
  Mg  Mg1  1  0.50000000  0.50000000  0.50000000  1
  Mg  Mg2  1  0.23822326  0.00000000  0.50000000  1
  Mg  Mg3  1  0.76177674  0.00000000  0.50000000  1
  Mg  Mg4  1  0.23822326  0.50000000  0.00000000  1
  Mg  Mg5  1  0.76177674  0.50000000  0.00000000  1
  Fe  Fe0  1  0.00000000  0.00000000  0.00000000  1
  O  O0  1  0.22902269  0.00000000  0.00000000  1
  O  O1  1  0.77097731  0.00000000  0.00000000  1
  O  O2  1  0.24888580  0.50000000  0.50000000  1
  O  O3  1  0.75111420  0.50000000  0.50000000  1
  O  O4  1  0.00000000  0.00000000  0.50000000  1
  O  O5  1  0.50000000  0.00000000  0.50000000  1
  O  O6  1  0.00000000  0.50000000  0.00000000  1
  O  O7  1  0.50000000  0.50000000  0.00000000  1
loop_
_geom_bond_atom_site_label_1
_geom_bond_atom_site_label_2
_geom_bond_distance
_geom_bond_site_symmetry_2
Mg0 O2 2.167227 1_555
Mg0 O3 2.167227 1_455
Mg0 O4 2.263429 1_555
Mg0 O4 2.263429 1_565
Mg0 O6 2.263429 1_556
Mg0 O6 2.263429 1_555
Mg1 O3 2.186632 1_555
Mg1 O2 2.186632 1_555
Mg1 O7 2.263429 1_555
Mg1 O7 2.263429 1_556
Mg1 O5 2.263429 1_555
Mg1 O5 2.263429 1_565
Mg2 O4 2.074381 1_555
Mg2 O0 2.264847 1_555
Mg2 O0 2.264847 1_556
Mg2 O2 2.265333 1_545
Mg2 O2 2.265333 1_555
Mg2 O5 2.279478 1_555
Mg3 O4 2.074381 1_655
Mg3 O1 2.264847 1_555
Mg3 O1 2.264847 1_556
Mg3 O3 2.265333 1_555
Mg3 O3 2.265333 1_545
Mg3 O5 2.279478 1_555
Mg4 O6 2.074381 1_555
Mg4 O0 2.264847 1_565
Mg4 O0 2.264847 1_555
Mg4 O2 2.265333 1_554
Mg4 O2 2.265333 1_555
Mg4 O7 2.279478 1_555
Mg5 O6 2.074381 1_655
Mg5 O1 2.264847 1_555
Mg5 O1 2.264847 1_565
Mg5 O3 2.265333 1_555
Mg5 O3 2.265333 1_554
Mg5 O7 2.279478 1_555
Fe0 O1 1.994265 1_455
Fe0 O0 1.994265 1_555
Fe0 O4 2.263429 1_555
Fe0 O4 2.263429 1_554
Fe0 O6 2.263429 1_545
Fe0 O6 2.263429 1_555
O0 Sr0 2.359594 1_555
O1 Sr0 2.359594 1_555
O5 Sr0 2.263429 1_555
O5 Sr0 2.263429 1_556
O7 Sr0 2.263429 1_565
O7 Sr0 2.263429 1_555
