# generated using pymatgen
data_Cs2(WO4)3
_symmetry_space_group_name_H-M   'P 1'
_cell_length_a   7.47685160
_cell_length_b   8.06432664
_cell_length_c   7.54915732
_cell_angle_alpha   61.37993976
_cell_angle_beta   119.53896029
_cell_angle_gamma   118.47756820
_symmetry_Int_Tables_number   1
_chemical_formula_structural   Cs2(WO4)3
_chemical_formula_sum   'Cs2 W3 O12'
_cell_volume   329.91980197
_cell_formula_units_Z   1
loop_
 _symmetry_equiv_pos_site_id
 _symmetry_equiv_pos_as_xyz
  1  'x, y, z'
loop_
 _atom_site_type_symbol
 _atom_site_label
 _atom_site_symmetry_multiplicity
 _atom_site_fract_x
 _atom_site_fract_y
 _atom_site_fract_z
 _atom_site_occupancy
  Cs  Cs0  1  0.09843300  0.37726000  0.37455700  1
  Cs  Cs1  1  0.84522300  0.62461900  0.62718300  1
  W  W0  1  0.48199300  0.95194200  0.01899000  1
  W  W1  1  0.49900400  0.01383500  0.49999100  1
  W  W2  1  0.01782900  0.04894300  0.99209800  1
  O  O0  1  0.21106700  0.01718400  0.28715900  1
  O  O1  1  0.61652300  0.25806800  0.93863900  1
  O  O2  1  0.21409600  0.99891300  0.93201400  1
  O  O3  1  0.63051200  0.28001700  0.41842100  1
  O  O4  1  0.09619500  0.31190100  0.87763800  1
  O  O5  1  0.56565600  0.97659200  0.29919600  1
  O  O6  1  0.79678200  0.00885700  0.71722900  1
  O  O7  1  0.40018200  0.68768800  0.11924700  1
  O  O8  1  0.78739000  0.99772300  0.07882700  1
  O  O9  1  0.43446400  0.72663700  0.56389300  1
  O  O10  1  0.89233200  0.74375600  0.03389200  1
  O  O11  1  0.41231900  0.97606800  0.72102700  1
loop_
_geom_bond_atom_site_label_1
_geom_bond_atom_site_label_2
_geom_bond_distance
_geom_bond_site_symmetry_2
Cs0 O7 3.057965 1_555
Cs0 O9 3.140080 1_555
Cs0 O10 3.298133 1_455
Cs0 O3 3.352886 1_455
Cs0 O6 3.550436 1_455
Cs0 O1 3.573791 1_454
Cs0 O4 3.583049 1_555
Cs0 O5 3.726141 1_445
Cs0 O0 3.780433 1_555
Cs0 O2 3.793963 1_545
Cs0 O8 3.794630 1_445
Cs1 O1 3.110614 1_555
Cs1 O4 3.146802 1_655
Cs1 O3 3.198473 1_555
Cs1 O9 3.305053 1_555
Cs1 O10 3.451204 1_556
O0 W2 1.935900 1_554
O0 W1 1.954540 1_555
O1 W0 2.067171 1_546
O2 W0 1.942983 1_556
O2 W2 1.979442 1_565
O3 W1 1.808792 1_555
O4 W2 1.773623 1_555
O5 W0 1.971019 1_555
O5 W1 1.989984 1_565
O6 W2 1.973152 1_655
O6 W1 2.017430 1_555
O7 W0 1.776670 1_555
O8 W2 1.934536 1_664
O8 W0 1.973093 1_555
O9 W1 1.980677 1_565
O10 W2 2.093542 1_664
O11 W1 1.920536 1_565
O11 W0 1.972530 1_556
