# generated using pymatgen
data_MnP2(HO4)2
_symmetry_space_group_name_H-M   'P 1'
_cell_length_a   15.29890300
_cell_length_b   5.15408400
_cell_length_c   7.68736949
_cell_angle_alpha   81.35864762
_cell_angle_beta   90.00000000
_cell_angle_gamma   90.00000000
_symmetry_Int_Tables_number   1
_chemical_formula_structural   MnP2(HO4)2
_chemical_formula_sum   'Mn4 P8 H8 O32'
_cell_volume   599.28211748
_cell_formula_units_Z   4
loop_
 _symmetry_equiv_pos_site_id
 _symmetry_equiv_pos_as_xyz
  1  'x, y, z'
loop_
 _atom_site_type_symbol
 _atom_site_label
 _atom_site_symmetry_multiplicity
 _atom_site_fract_x
 _atom_site_fract_y
 _atom_site_fract_z
 _atom_site_occupancy
  Mn  Mn0  1  0.00143600  0.32241700  0.20660400  1
  Mn  Mn1  1  0.50143600  0.17758300  0.79339600  1
  Mn  Mn2  1  0.99856400  0.67758300  0.79339600  1
  Mn  Mn3  1  0.49856400  0.82241700  0.20660400  1
  P  P0  1  0.39562000  0.74433100  0.61288500  1
  P  P1  1  0.89562000  0.75566900  0.38711500  1
  P  P2  1  0.60438000  0.25566900  0.38711500  1
  P  P3  1  0.10438000  0.24433100  0.61288500  1
  P  P4  1  0.37560900  0.33952200  0.13843800  1
  P  P5  1  0.87560900  0.16047800  0.86156200  1
  P  P6  1  0.62439100  0.66047800  0.86156200  1
  P  P7  1  0.12439100  0.83952200  0.13843800  1
  H  H0  1  0.25727300  0.85313900  0.59017300  1
  H  H1  1  0.75727300  0.64686100  0.40982700  1
  H  H2  1  0.74272700  0.14686100  0.40982700  1
  H  H3  1  0.24272700  0.35313900  0.59017300  1
  H  H4  1  0.25980600  0.51081200  0.99411100  1
  H  H5  1  0.75980600  0.98918800  0.00588900  1
  H  H6  1  0.74019400  0.48918800  0.00588900  1
  H  H7  1  0.24019400  0.01081200  0.99411100  1
  O  O0  1  0.42365400  0.84844800  0.42195400  1
  O  O1  1  0.92365400  0.65155200  0.57804600  1
  O  O2  1  0.57634600  0.15155200  0.57804600  1
  O  O3  1  0.07634600  0.34844800  0.42195400  1
  O  O4  1  0.43752600  0.48275700  0.67912900  1
  O  O5  1  0.93752600  0.01724300  0.32087100  1
  O  O6  1  0.56247400  0.51724300  0.32087100  1
  O  O7  1  0.06247400  0.98275700  0.67912900  1
  O  O8  1  0.40961400  0.95450900  0.73317100  1
  O  O9  1  0.90961400  0.54549100  0.26682900  1
  O  O10  1  0.59038600  0.04549100  0.26682900  1
  O  O11  1  0.09038600  0.45450900  0.73317100  1
  O  O12  1  0.29285900  0.69126300  0.61544000  1
  O  O13  1  0.79285900  0.80873700  0.38456000  1
  O  O14  1  0.70714100  0.30873700  0.38456000  1
  O  O15  1  0.20714100  0.19126300  0.61544000  1
  O  O16  1  0.43762700  0.13833500  0.06976700  1
  O  O17  1  0.93762700  0.36166500  0.93023300  1
  O  O18  1  0.56237300  0.86166500  0.93023300  1
  O  O19  1  0.06237300  0.63833500  0.06976700  1
  O  O20  1  0.41240700  0.62085500  0.10260100  1
  O  O21  1  0.91240700  0.87914500  0.89739900  1
  O  O22  1  0.58759300  0.37914500  0.89739900  1
  O  O23  1  0.08759300  0.12085500  0.10260100  1
  O  O24  1  0.35120100  0.25905500  0.33121300  1
  O  O25  1  0.85120100  0.24094500  0.66878700  1
  O  O26  1  0.64879900  0.74094500  0.66878700  1
  O  O27  1  0.14879900  0.75905500  0.33121300  1
  O  O28  1  0.29285300  0.34286400  0.00972300  1
  O  O29  1  0.79285300  0.15713600  0.99027700  1
  O  O30  1  0.70714700  0.65713600  0.99027700  1
  O  O31  1  0.20714700  0.84286400  0.00972300  1
loop_
_geom_bond_atom_site_label_1
_geom_bond_atom_site_label_2
_geom_bond_distance
_geom_bond_site_symmetry_2
Mn0 O9 1.915620 1_455
Mn0 O23 1.924956 1_555
Mn0 O5 1.945872 1_455
Mn0 O19 2.027860 1_555
Mn0 O3 2.034392 1_555
Mn0 O17 2.319167 1_454
Mn1 O8 1.915620 1_545
Mn1 O22 1.924956 1_555
Mn1 O4 1.945872 1_555
Mn1 O18 2.027860 1_545
Mn1 O2 2.034392 1_555
Mn1 O16 2.319167 1_556
Mn2 O11 1.915620 1_655
Mn2 O21 1.924956 1_555
Mn2 O7 1.945872 1_655
Mn2 O17 2.027860 1_555
Mn2 O1 2.034392 1_555
Mn2 O19 2.319167 1_656
Mn3 O10 1.915620 1_565
Mn3 O20 1.924956 1_555
Mn3 O6 1.945872 1_555
Mn3 O16 2.027860 1_565
Mn3 O0 2.034392 1_555
Mn3 O18 2.319167 1_554
H0 O12 0.990719 1_555
H1 O13 0.990719 1_555
H2 O14 0.990719 1_555
H3 O15 0.990719 1_555
H4 O28 0.994029 1_556
H5 O29 0.994029 1_564
H6 O30 0.994029 1_554
H7 O31 0.994029 1_546
O0 P0 1.545815 1_555
O1 P1 1.545815 1_555
O2 P2 1.545815 1_555
O3 P3 1.545815 1_555
O4 P0 1.510505 1_555
O5 P1 1.510505 1_545
O6 P2 1.510505 1_555
O7 P3 1.510505 1_565
O8 P0 1.541221 1_555
O9 P1 1.541221 1_555
O10 P2 1.541221 1_555
O11 P3 1.541221 1_555
O12 P0 1.595361 1_555
O13 P1 1.595361 1_555
O14 P2 1.595361 1_555
O15 P3 1.595361 1_555
O16 P4 1.555197 1_555
O17 P5 1.555197 1_555
O18 P6 1.555197 1_555
O19 P7 1.555197 1_555
O20 P4 1.541211 1_555
O21 P5 1.541211 1_565
O22 P6 1.541211 1_555
O23 P7 1.541211 1_545
O24 P4 1.524100 1_555
O25 P5 1.524100 1_555
O26 P6 1.524100 1_555
O27 P7 1.524100 1_555
O28 P4 1.605364 1_555
O29 P5 1.605364 1_555
O30 P6 1.605364 1_555
O31 P7 1.605364 1_555
