# generated using pymatgen
data_Na4Sr(Ge2O5)3
_symmetry_space_group_name_H-M   'P 1'
_cell_length_a   11.10149329
_cell_length_b   11.10149329
_cell_length_c   5.99472900
_cell_angle_alpha   90.00000000
_cell_angle_beta   90.00000000
_cell_angle_gamma   119.99999575
_symmetry_Int_Tables_number   1
_chemical_formula_structural   Na4Sr(Ge2O5)3
_chemical_formula_sum   'Na8 Sr2 Ge12 O30'
_cell_volume   639.82765364
_cell_formula_units_Z   2
loop_
 _symmetry_equiv_pos_site_id
 _symmetry_equiv_pos_as_xyz
  1  'x, y, z'
loop_
 _atom_site_type_symbol
 _atom_site_label
 _atom_site_symmetry_multiplicity
 _atom_site_fract_x
 _atom_site_fract_y
 _atom_site_fract_z
 _atom_site_occupancy
  Na  Na0  1  0.16238500  0.28611700  0.75000000  1
  Na  Na1  1  0.83761500  0.71388300  0.25000000  1
  Na  Na2  1  0.71388300  0.87626800  0.75000000  1
  Na  Na3  1  0.28611700  0.12373200  0.25000000  1
  Na  Na4  1  0.12373200  0.83761500  0.75000000  1
  Na  Na5  1  0.87626800  0.16238500  0.25000000  1
  Na  Na6  1  0.00000000  0.00000000  0.50000000  1
  Na  Na7  1  0.00000000  0.00000000  0.00000000  1
  Sr  Sr0  1  0.33333300  0.66666700  0.75000000  1
  Sr  Sr1  1  0.66666700  0.33333300  0.25000000  1
  Ge  Ge0  1  0.38785500  0.17352000  0.75000000  1
  Ge  Ge1  1  0.61214500  0.82648000  0.25000000  1
  Ge  Ge2  1  0.82648000  0.21433500  0.75000000  1
  Ge  Ge3  1  0.17352000  0.78566500  0.25000000  1
  Ge  Ge4  1  0.78566500  0.61214500  0.75000000  1
  Ge  Ge5  1  0.21433500  0.38785500  0.25000000  1
  Ge  Ge6  1  0.50000000  0.00000000  0.50000000  1
  Ge  Ge7  1  0.00000000  0.50000000  0.50000000  1
  Ge  Ge8  1  0.50000000  0.00000000  0.00000000  1
  Ge  Ge9  1  0.50000000  0.50000000  0.50000000  1
  Ge  Ge10  1  0.00000000  0.50000000  0.00000000  1
  Ge  Ge11  1  0.50000000  0.50000000  0.00000000  1
  O  O0  1  0.07882600  0.46094200  0.75000000  1
  O  O1  1  0.92117400  0.53905800  0.25000000  1
  O  O2  1  0.53905800  0.61788400  0.75000000  1
  O  O3  1  0.46094200  0.38211600  0.25000000  1
  O  O4  1  0.38211600  0.92117400  0.75000000  1
  O  O5  1  0.61788400  0.07882600  0.25000000  1
  O  O6  1  0.20621100  0.08484300  0.75000000  1
  O  O7  1  0.79378900  0.91515700  0.25000000  1
  O  O8  1  0.91515700  0.12136700  0.75000000  1
  O  O9  1  0.08484300  0.87863300  0.25000000  1
  O  O10  1  0.87863300  0.79378900  0.75000000  1
  O  O11  1  0.12136700  0.20621100  0.25000000  1
  O  O12  1  0.46686000  0.15302000  0.50426300  1
  O  O13  1  0.53314000  0.84698000  0.49573700  1
  O  O14  1  0.84698000  0.31384000  0.50426300  1
  O  O15  1  0.53314000  0.84698000  0.00426300  1
  O  O16  1  0.15302000  0.68616000  0.49573700  1
  O  O17  1  0.46686000  0.15302000  0.99573700  1
  O  O18  1  0.68616000  0.53314000  0.50426300  1
  O  O19  1  0.15302000  0.68616000  0.00426300  1
  O  O20  1  0.31384000  0.46686000  0.49573700  1
  O  O21  1  0.84698000  0.31384000  0.99573700  1
  O  O22  1  0.31384000  0.46686000  0.00426300  1
  O  O23  1  0.68616000  0.53314000  0.99573700  1
  O  O24  1  0.44603500  0.35925800  0.75000000  1
  O  O25  1  0.55396500  0.64074200  0.25000000  1
  O  O26  1  0.64074200  0.08677700  0.75000000  1
  O  O27  1  0.35925800  0.91322300  0.25000000  1
  O  O28  1  0.91322300  0.55396500  0.75000000  1
  O  O29  1  0.08677700  0.44603500  0.25000000  1
loop_
_geom_bond_atom_site_label_1
_geom_bond_atom_site_label_2
_geom_bond_distance
_geom_bond_site_symmetry_2
Na0 O22 2.408885 1_556
Na0 O20 2.408885 1_555
Na0 O8 2.420366 1_455
Na0 O6 2.513280 1_555
Na0 O0 2.535278 1_555
Na0 O24 2.831653 1_555
Na1 O18 2.408885 1_555
Na1 O23 2.408885 1_554
Na1 O9 2.420366 1_655
Na1 O7 2.513280 1_555
Na1 O1 2.535278 1_555
Na1 O25 2.831653 1_555
Na2 O15 2.408885 1_556
Na2 O13 2.408885 1_555
Na2 O10 2.420374 1_555
Na2 O8 2.513273 1_565
Na2 O2 2.535278 1_555
Na2 O26 2.831653 1_565
Na3 O17 2.408885 1_554
Na3 O12 2.408885 1_555
Na3 O11 2.420374 1_555
Na3 O9 2.513273 1_545
Na3 O3 2.535278 1_555
Na3 O27 2.831653 1_545
Na4 O19 2.408885 1_556
Na4 O16 2.408885 1_555
Na4 O6 2.420364 1_565
Na4 O10 2.513269 1_455
Na4 O4 2.535278 1_555
Na4 O28 2.831653 1_455
Na5 O14 2.408885 1_555
Na5 O21 2.408885 1_554
Na5 O7 2.420364 1_545
Na5 O11 2.513269 1_655
Na5 O5 2.535278 1_555
Na5 O29 2.831653 1_655
Na6 O8 2.493514 1_455
Na6 O9 2.493514 1_545
Na6 O11 2.493521 1_555
Na6 O10 2.493521 1_445
Na6 O6 2.493522 1_555
Na6 O7 2.493522 1_445
Na7 O8 2.493514 1_454
Na7 O9 2.493514 1_545
Na7 O11 2.493521 1_555
Na7 O10 2.493521 1_444
Na7 O6 2.493522 1_554
Na7 O7 2.493522 1_445
Ge0 O6 1.746520 1_555
Ge0 O17 1.786269 1_555
Ge0 O12 1.786269 1_555
Ge0 O24 1.826770 1_555
Ge1 O7 1.746520 1_555
Ge1 O13 1.786269 1_555
Ge1 O15 1.786269 1_555
Ge1 O25 1.826770 1_555
Ge2 O8 1.746529 1_555
Ge2 O14 1.786269 1_555
Ge2 O21 1.786269 1_555
Ge2 O26 1.826770 1_555
Ge3 O9 1.746529 1_555
Ge3 O16 1.786269 1_555
Ge3 O19 1.786269 1_555
Ge3 O27 1.826770 1_555
Ge4 O10 1.746520 1_555
Ge4 O23 1.786269 1_555
Ge4 O18 1.786269 1_555
Ge4 O28 1.826770 1_555
Ge5 O11 1.746520 1_555
Ge5 O20 1.786269 1_555
Ge5 O22 1.786269 1_555
Ge5 O29 1.826770 1_555
Ge6 O5 1.891897 1_555
Ge6 O4 1.891897 1_545
Ge6 O13 1.909643 1_545
Ge6 O12 1.909643 1_555
Ge6 O26 2.027350 1_555
Ge6 O27 2.027350 1_545
Ge7 O1 1.891897 1_455
Ge7 O0 1.891897 1_555
Ge7 O14 1.909643 1_455
Ge7 O16 1.909643 1_555
Ge7 O28 2.027350 1_455
Ge7 O29 2.027350 1_555
Ge8 O5 1.891897 1_555
Ge8 O4 1.891897 1_544
Ge8 O15 1.909643 1_545
Ge8 O17 1.909643 1_554
Ge8 O26 2.027350 1_554
Ge8 O27 2.027350 1_545
Ge9 O2 1.891897 1_555
Ge9 O3 1.891897 1_555
Ge9 O20 1.909643 1_555
Ge9 O18 1.909643 1_555
Ge9 O25 2.027350 1_555
Ge9 O24 2.027350 1_555
Ge10 O1 1.891897 1_455
Ge10 O0 1.891897 1_554
Ge10 O21 1.909643 1_454
Ge10 O19 1.909643 1_555
Ge10 O28 2.027350 1_454
Ge10 O29 2.027350 1_555
Ge11 O2 1.891897 1_554
Ge11 O3 1.891897 1_555
Ge11 O22 1.909643 1_555
Ge11 O23 1.909643 1_554
Ge11 O25 2.027350 1_555
Ge11 O24 2.027350 1_554
O0 Sr0 2.597326 1_555
O1 Sr1 2.597326 1_555
O2 Sr0 2.597333 1_555
O3 Sr1 2.597333 1_555
O4 Sr0 2.597322 1_555
O5 Sr1 2.597322 1_555
O12 Sr1 2.609658 1_555
O13 Sr0 2.609658 1_555
O14 Sr1 2.609653 1_555
O15 Sr0 2.609658 1_554
O16 Sr0 2.609653 1_555
O17 Sr1 2.609658 1_556
O18 Sr1 2.609662 1_555
O19 Sr0 2.609653 1_554
O20 Sr0 2.609662 1_555
O21 Sr1 2.609653 1_556
O22 Sr0 2.609662 1_554
O23 Sr1 2.609662 1_556
