# generated using pymatgen
data_Ca3Fe7(SiO4)6
_symmetry_space_group_name_H-M   'P 1'
_cell_length_a   10.42419710
_cell_length_b   10.42419710
_cell_length_c   10.42419710
_cell_angle_alpha   109.47122063
_cell_angle_beta   109.47122063
_cell_angle_gamma   109.47122063
_symmetry_Int_Tables_number   1
_chemical_formula_structural   Ca3Fe7(SiO4)6
_chemical_formula_sum   'Ca6 Fe14 Si12 O48'
_cell_volume   871.97885175
_cell_formula_units_Z   2
loop_
 _symmetry_equiv_pos_site_id
 _symmetry_equiv_pos_as_xyz
  1  'x, y, z'
loop_
 _atom_site_type_symbol
 _atom_site_label
 _atom_site_symmetry_multiplicity
 _atom_site_fract_x
 _atom_site_fract_y
 _atom_site_fract_z
 _atom_site_occupancy
  Ca  Ca0  1  0.12500000  0.37500000  0.75000000  1
  Ca  Ca1  1  0.37500000  0.12500000  0.25000000  1
  Ca  Ca2  1  0.37500000  0.75000000  0.12500000  1
  Ca  Ca3  1  0.12500000  0.25000000  0.37500000  1
  Ca  Ca4  1  0.75000000  0.12500000  0.37500000  1
  Ca  Ca5  1  0.25000000  0.37500000  0.12500000  1
  Fe  Fe0  1  0.99486500  0.50000000  0.00000000  1
  Fe  Fe1  1  0.00000000  0.99486500  0.50000000  1
  Fe  Fe2  1  0.50000000  0.00000000  0.99486500  1
  Fe  Fe3  1  0.50513500  0.50513500  0.50513500  1
  Fe  Fe4  1  0.50513500  0.50000000  0.00000000  1
  Fe  Fe5  1  0.50000000  0.00000000  0.50513500  1
  Fe  Fe6  1  0.00000000  0.50513500  0.50000000  1
  Fe  Fe7  1  0.99486500  0.99486500  0.99486500  1
  Fe  Fe8  1  0.87500000  0.62500000  0.25000000  1
  Fe  Fe9  1  0.62500000  0.87500000  0.75000000  1
  Fe  Fe10  1  0.62500000  0.25000000  0.87500000  1
  Fe  Fe11  1  0.87500000  0.75000000  0.62500000  1
  Fe  Fe12  1  0.25000000  0.87500000  0.62500000  1
  Fe  Fe13  1  0.75000000  0.62500000  0.87500000  1
  Si  Si0  1  0.37814100  0.62814100  0.75000000  1
  Si  Si1  1  0.12185900  0.87185900  0.25000000  1
  Si  Si2  1  0.62814100  0.75000000  0.37814100  1
  Si  Si3  1  0.87185900  0.25000000  0.12185900  1
  Si  Si4  1  0.75000000  0.37814100  0.62814100  1
  Si  Si5  1  0.25000000  0.12185900  0.87185900  1
  Si  Si6  1  0.62814100  0.37814100  0.25000000  1
  Si  Si7  1  0.87185900  0.12185900  0.75000000  1
  Si  Si8  1  0.37814100  0.25000000  0.62814100  1
  Si  Si9  1  0.12185900  0.75000000  0.87185900  1
  Si  Si10  1  0.25000000  0.62814100  0.37814100  1
  Si  Si11  1  0.75000000  0.87185900  0.12185900  1
  O  O0  1  0.08544300  0.87497700  0.39398300  1
  O  O1  1  0.98099400  0.69146000  0.10601700  1
  O  O2  1  0.51900600  0.62502300  0.71046700  1
  O  O3  1  0.41455700  0.80854000  0.78953300  1
  O  O4  1  0.87497700  0.39398300  0.08544300  1
  O  O5  1  0.69146000  0.10601700  0.98099400  1
  O  O6  1  0.62502300  0.71046700  0.51900600  1
  O  O7  1  0.80854000  0.78953300  0.41455700  1
  O  O8  1  0.39398300  0.08544300  0.87497700  1
  O  O9  1  0.10601700  0.98099400  0.69146000  1
  O  O10  1  0.71046700  0.51900600  0.62502300  1
  O  O11  1  0.78953300  0.41455700  0.80854000  1
  O  O12  1  0.91030300  0.11376500  0.60619300  1
  O  O13  1  0.00757200  0.30410900  0.89380700  1
  O  O14  1  0.49242800  0.38623500  0.29653800  1
  O  O15  1  0.58969700  0.19589100  0.20346200  1
  O  O16  1  0.11376500  0.60619300  0.91030300  1
  O  O17  1  0.30410900  0.89380700  0.00757200  1
  O  O18  1  0.38623500  0.29653800  0.49242800  1
  O  O19  1  0.19589100  0.20346200  0.58969700  1
  O  O20  1  0.60619300  0.91030300  0.11376500  1
  O  O21  1  0.89380700  0.00757200  0.30410900  1
  O  O22  1  0.29653800  0.49242800  0.38623500  1
  O  O23  1  0.20346200  0.58969700  0.19589100  1
  O  O24  1  0.58969700  0.89380700  0.38623500  1
  O  O25  1  0.49242800  0.60619300  0.19589100  1
  O  O26  1  0.00757200  0.20346200  0.11376500  1
  O  O27  1  0.91030300  0.29653800  0.30410900  1
  O  O28  1  0.38623500  0.58969700  0.89380700  1
  O  O29  1  0.19589100  0.49242800  0.60619300  1
  O  O30  1  0.11376500  0.00757200  0.20346200  1
  O  O31  1  0.30410900  0.91030300  0.29653800  1
  O  O32  1  0.89380700  0.38623500  0.58969700  1
  O  O33  1  0.60619300  0.19589100  0.49242800  1
  O  O34  1  0.20346200  0.11376500  0.00757200  1
  O  O35  1  0.29653800  0.30410900  0.91030300  1
  O  O36  1  0.41455700  0.10601700  0.62502300  1
  O  O37  1  0.51900600  0.39398300  0.80854000  1
  O  O38  1  0.98099400  0.78953300  0.87497700  1
  O  O39  1  0.08544300  0.71046700  0.69146000  1
  O  O40  1  0.62502300  0.41455700  0.10601700  1
  O  O41  1  0.80854000  0.51900600  0.39398300  1
  O  O42  1  0.87497700  0.98099400  0.78953300  1
  O  O43  1  0.69146000  0.08544300  0.71046700  1
  O  O44  1  0.10601700  0.62502300  0.41455700  1
  O  O45  1  0.39398300  0.80854000  0.51900600  1
  O  O46  1  0.78953300  0.87497700  0.98099400  1
  O  O47  1  0.71046700  0.69146000  0.08544300  1
loop_
_geom_bond_atom_site_label_1
_geom_bond_atom_site_label_2
_geom_bond_distance
_geom_bond_site_symmetry_2
Ca0 O28 2.377079 1_555
Ca0 O12 2.377079 1_455
Ca0 O13 2.377082 1_555
Ca0 O29 2.377082 1_555
Ca0 O16 2.499602 1_555
Ca0 O32 2.499602 1_455
Ca0 O19 2.499610 1_555
Ca0 O35 2.499610 1_555
Ca1 O14 2.377079 1_555
Ca1 O30 2.377079 1_555
Ca1 O31 2.377079 1_545
Ca1 O15 2.377079 1_555
Ca1 O17 2.499598 1_545
Ca1 O33 2.499598 1_555
Ca1 O34 2.499602 1_555
Ca1 O18 2.499602 1_555
Ca2 O24 2.377079 1_555
Ca2 O16 2.377079 1_554
Ca2 O17 2.377082 1_555
Ca2 O25 2.377082 1_555
Ca2 O20 2.499602 1_555
Ca2 O28 2.499602 1_554
Ca2 O23 2.499610 1_555
Ca2 O31 2.499610 1_555
Ca3 O18 2.377079 1_555
Ca3 O26 2.377079 1_555
Ca3 O27 2.377079 1_455
Ca3 O19 2.377079 1_555
Ca3 O21 2.499598 1_455
Ca3 O29 2.499598 1_555
Ca3 O30 2.499602 1_555
Ca3 O22 2.499602 1_555
Ca4 O32 2.377079 1_555
Ca4 O20 2.377079 1_545
Ca4 O21 2.377082 1_555
Ca4 O33 2.377082 1_555
Ca4 O12 2.499602 1_555
Ca4 O24 2.499602 1_545
Ca4 O15 2.499610 1_555
Ca4 O27 2.499610 1_555
Ca5 O22 2.377079 1_555
Ca5 O34 2.377079 1_555
Ca5 O35 2.377079 1_554
Ca5 O23 2.377079 1_555
Ca5 O13 2.499598 1_554
Ca5 O25 2.499598 1_555
Ca5 O26 2.499602 1_555
Ca5 O14 2.499602 1_555
Fe0 O4 2.013457 1_555
Fe0 O1 2.013457 1_555
Fe0 O11 2.013463 1_554
Fe0 O16 2.045435 1_654
Fe0 O23 2.045440 1_655
Fe0 O13 2.045444 1_654
Fe1 O0 2.013457 1_555
Fe1 O9 2.013457 1_555
Fe1 O7 2.013463 1_455
Fe1 O12 2.045435 1_465
Fe1 O19 2.045440 1_565
Fe1 O21 2.045444 1_465
Fe2 O8 2.013457 1_555
Fe2 O5 2.013457 1_555
Fe2 O3 2.013463 1_545
Fe2 O20 2.045435 1_546
Fe2 O15 2.045440 1_556
Fe2 O17 2.045444 1_546
Fe3 O10 2.013466 1_555
Fe3 O2 2.013466 1_555
Fe3 O6 2.013466 1_555
Fe3 O18 2.045435 1_555
Fe3 O14 2.045435 1_555
Fe3 O22 2.045435 1_555
Fe4 O40 2.013457 1_555
Fe4 O37 2.013457 1_554
Fe4 O47 2.013463 1_555
Fe4 O28 2.045435 1_554
Fe4 O35 2.045440 1_554
Fe4 O25 2.045444 1_555
Fe5 O36 2.013457 1_555
Fe5 O45 2.013457 1_545
Fe5 O43 2.013463 1_555
Fe5 O24 2.045435 1_545
Fe5 O31 2.045440 1_545
Fe5 O33 2.045444 1_555
Fe6 O44 2.013457 1_555
Fe6 O41 2.013457 1_455
Fe6 O39 2.013463 1_555
Fe6 O32 2.045435 1_455
Fe6 O27 2.045440 1_455
Fe6 O29 2.045444 1_555
Fe7 O46 2.013466 1_555
Fe7 O38 2.013466 1_555
Fe7 O42 2.013466 1_555
Fe7 O26 2.045435 1_666
Fe7 O34 2.045435 1_666
Fe7 O30 2.045435 1_666
Fe8 O41 2.289533 1_555
Fe8 O1 2.289533 1_555
Fe8 O0 2.289533 1_655
Fe8 O40 2.289533 1_555
Fe8 O7 2.446865 1_555
Fe8 O47 2.446865 1_555
Fe8 O44 2.446871 1_655
Fe8 O4 2.446871 1_555
Fe9 O43 2.289527 1_565
Fe9 O3 2.289527 1_555
Fe9 O2 2.289537 1_555
Fe9 O42 2.289537 1_555
Fe9 O46 2.446867 1_555
Fe9 O6 2.446867 1_555
Fe9 O5 2.446871 1_565
Fe9 O45 2.446871 1_555
Fe10 O37 2.289533 1_555
Fe10 O5 2.289533 1_555
Fe10 O4 2.289533 1_556
Fe10 O36 2.289533 1_555
Fe10 O11 2.446865 1_555
Fe10 O43 2.446865 1_555
Fe10 O40 2.446871 1_556
Fe10 O8 2.446871 1_555
Fe11 O39 2.289527 1_655
Fe11 O7 2.289527 1_555
Fe11 O6 2.289537 1_555
Fe11 O38 2.289537 1_555
Fe11 O42 2.446867 1_555
Fe11 O10 2.446867 1_555
Fe11 O9 2.446871 1_655
Fe11 O41 2.446871 1_555
Fe12 O45 2.289533 1_555
Fe12 O9 2.289533 1_555
Fe12 O8 2.289533 1_565
Fe12 O44 2.289533 1_555
Fe12 O3 2.446865 1_555
Fe12 O39 2.446865 1_555
Fe12 O36 2.446871 1_565
Fe12 O0 2.446871 1_555
Fe13 O47 2.289527 1_556
Fe13 O11 2.289527 1_555
Fe13 O10 2.289537 1_555
Fe13 O46 2.289537 1_555
Fe13 O38 2.446867 1_555
Fe13 O2 2.446867 1_555
Fe13 O1 2.446871 1_556
Fe13 O37 2.446871 1_555
O0 Si1 1.659344 1_555
O1 Si1 1.659344 1_655
O2 Si0 1.659338 1_555
O3 Si0 1.659346 1_555
O4 Si3 1.659344 1_555
O5 Si3 1.659344 1_556
O6 Si2 1.659338 1_555
O7 Si2 1.659346 1_555
O8 Si5 1.659344 1_555
O9 Si5 1.659344 1_565
O10 Si4 1.659338 1_555
O11 Si4 1.659346 1_555
O12 Si7 1.659415 1_555
O13 Si7 1.659409 1_455
O14 Si6 1.659415 1_555
O15 Si6 1.659404 1_555
O16 Si9 1.659415 1_555
O17 Si9 1.659409 1_554
O18 Si8 1.659415 1_555
O19 Si8 1.659404 1_555
O20 Si11 1.659415 1_555
O21 Si11 1.659409 1_545
O22 Si10 1.659415 1_555
O23 Si10 1.659404 1_555
O24 Si2 1.659415 1_555
O25 Si2 1.659409 1_555
O26 Si3 1.659415 1_455
O27 Si3 1.659404 1_555
O28 Si0 1.659415 1_555
O29 Si0 1.659409 1_555
O30 Si1 1.659415 1_545
O31 Si1 1.659404 1_555
O32 Si4 1.659415 1_555
O33 Si4 1.659409 1_555
O34 Si5 1.659415 1_554
O35 Si5 1.659404 1_555
O36 Si8 1.659344 1_555
O37 Si8 1.659344 1_555
O38 Si9 1.659338 1_655
O39 Si9 1.659346 1_555
O40 Si6 1.659344 1_555
O41 Si6 1.659344 1_555
O42 Si7 1.659338 1_565
O43 Si7 1.659346 1_555
O44 Si10 1.659344 1_555
O45 Si10 1.659344 1_555
O46 Si11 1.659338 1_556
O47 Si11 1.659346 1_555
