# generated using pymatgen
data_K2CeCl5
_symmetry_space_group_name_H-M   'P 1'
_cell_length_a   8.01759721
_cell_length_b   8.80508844
_cell_length_c   12.77205513
_cell_angle_alpha   90.00000000
_cell_angle_beta   90.00000000
_cell_angle_gamma   90.00000000
_symmetry_Int_Tables_number   1
_chemical_formula_structural   K2CeCl5
_chemical_formula_sum   'K8 Ce4 Cl20'
_cell_volume   901.65156580
_cell_formula_units_Z   4
loop_
 _symmetry_equiv_pos_site_id
 _symmetry_equiv_pos_as_xyz
  1  'x, y, z'
loop_
 _atom_site_type_symbol
 _atom_site_label
 _atom_site_symmetry_multiplicity
 _atom_site_fract_x
 _atom_site_fract_y
 _atom_site_fract_z
 _atom_site_occupancy
  K  K0  1  0.54196328  0.49721576  0.82712357  1
  K  K1  1  0.45803672  0.50278424  0.17287643  1
  K  K2  1  0.04196328  0.50278424  0.67287643  1
  K  K3  1  0.45803672  0.99721576  0.17287643  1
  K  K4  1  0.95803672  0.49721576  0.32712357  1
  K  K5  1  0.54196328  0.00278424  0.82712357  1
  K  K6  1  0.95803672  0.00278424  0.32712357  1
  K  K7  1  0.04196328  0.99721576  0.67287643  1
  Ce  Ce0  1  0.57811077  0.75000000  0.50589963  1
  Ce  Ce1  1  0.42188923  0.25000000  0.49410037  1
  Ce  Ce2  1  0.07811077  0.25000000  0.99410037  1
  Ce  Ce3  1  0.92188923  0.75000000  0.00589963  1
  Cl  Cl0  1  0.82675737  0.75000000  0.79388578  1
  Cl  Cl1  1  0.17324263  0.25000000  0.20611422  1
  Cl  Cl2  1  0.32675737  0.25000000  0.70611422  1
  Cl  Cl3  1  0.67324263  0.75000000  0.29388578  1
  Cl  Cl4  1  0.36383683  0.75000000  0.67773760  1
  Cl  Cl5  1  0.63616317  0.25000000  0.32226240  1
  Cl  Cl6  1  0.86383683  0.25000000  0.82226240  1
  Cl  Cl7  1  0.13616317  0.75000000  0.17773760  1
  Cl  Cl8  1  0.92902826  0.75000000  0.50892986  1
  Cl  Cl9  1  0.07097174  0.25000000  0.49107014  1
  Cl  Cl10  1  0.42902826  0.25000000  0.99107014  1
  Cl  Cl11  1  0.57097174  0.75000000  0.00892986  1
  Cl  Cl12  1  0.66291461  0.04324595  0.58207585  1
  Cl  Cl13  1  0.33708539  0.95675405  0.41792415  1
  Cl  Cl14  1  0.16291461  0.95675405  0.91792415  1
  Cl  Cl15  1  0.33708539  0.54324595  0.41792415  1
  Cl  Cl16  1  0.83708539  0.04324595  0.08207585  1
  Cl  Cl17  1  0.66291461  0.45675405  0.58207585  1
  Cl  Cl18  1  0.83708539  0.45675405  0.08207585  1
  Cl  Cl19  1  0.16291461  0.54324595  0.91792415  1
loop_
_geom_bond_atom_site_label_1
_geom_bond_atom_site_label_2
_geom_bond_distance
_geom_bond_site_symmetry_2
Ce0 Cl4 2.787150 1_555
Ce0 Cl3 2.813223 1_555
Ce0 Cl8 2.813781 1_555
Ce0 Cl12 2.841812 1_565
Ce0 Cl17 2.841812 1_555
Ce0 Cl15 2.882890 1_555
Ce0 Cl13 2.882890 1_555
Ce1 Cl5 2.787150 1_555
Ce1 Cl2 2.813223 1_555
Ce1 Cl9 2.813781 1_555
Ce1 Cl13 2.841812 1_545
Ce1 Cl15 2.841812 1_555
Ce1 Cl12 2.882890 1_555
Ce1 Cl17 2.882890 1_555
Ce2 Cl6 2.787150 1_455
Ce2 Cl1 2.813223 1_556
Ce2 Cl10 2.813781 1_555
Ce2 Cl14 2.841812 1_545
Ce2 Cl19 2.841812 1_555
Ce2 Cl18 2.882890 1_456
Ce2 Cl16 2.882890 1_456
Ce3 Cl7 2.787150 1_655
Ce3 Cl0 2.813223 1_554
Ce3 Cl11 2.813781 1_555
Ce3 Cl16 2.841812 1_565
Ce3 Cl18 2.841812 1_555
Ce3 Cl14 2.882890 1_654
Ce3 Cl19 2.882890 1_654
Cl0 K7 3.178692 1_655
Cl0 K2 3.178692 1_655
Cl0 K5 3.216846 1_565
Cl0 K0 3.216846 1_555
Cl1 K6 3.178692 1_455
Cl1 K4 3.178692 1_455
Cl1 K3 3.216846 1_545
Cl1 K1 3.216846 1_555
Cl2 K5 3.178692 1_555
Cl2 K0 3.178692 1_555
Cl2 K2 3.216846 1_555
Cl2 K7 3.216846 1_545
Cl3 K3 3.178692 1_555
Cl3 K1 3.178692 1_555
Cl3 K4 3.216846 1_555
Cl3 K6 3.216846 1_565
Cl4 K5 3.260991 1_565
Cl4 K0 3.260991 1_555
Cl4 K7 3.376669 1_555
Cl4 K2 3.376669 1_555
Cl5 K1 3.260991 1_555
Cl5 K3 3.260991 1_545
Cl5 K6 3.376669 1_555
Cl5 K4 3.376669 1_555
Cl6 K7 3.260991 1_645
Cl6 K2 3.260991 1_655
Cl6 K0 3.376669 1_555
Cl6 K5 3.376669 1_555
Cl7 K6 3.260991 1_465
Cl7 K4 3.260991 1_455
Cl7 K1 3.376669 1_555
Cl7 K3 3.376669 1_555
Cl8 K2 3.153205 1_655
Cl8 K7 3.153205 1_655
Cl8 K4 3.224917 1_555
Cl8 K6 3.224917 1_565
Cl9 K4 3.153205 1_455
Cl9 K6 3.153205 1_455
Cl9 K7 3.224917 1_545
Cl9 K2 3.224917 1_555
Cl10 K0 3.153205 1_555
Cl10 K5 3.153205 1_555
Cl10 K1 3.224917 1_556
Cl10 K3 3.224917 1_546
Cl11 K3 3.153205 1_555
Cl11 K1 3.153205 1_555
Cl11 K0 3.224917 1_554
Cl11 K5 3.224917 1_564
Cl12 K7 3.277969 1_645
Cl12 K5 3.295867 1_555
Cl13 K6 3.277969 1_465
Cl13 K3 3.295867 1_555
Cl14 K5 3.277969 1_565
Cl14 K7 3.295867 1_555
Cl15 K4 3.277969 1_455
Cl15 K1 3.295867 1_555
Cl16 K3 3.277969 1_545
Cl16 K6 3.295867 1_555
Cl17 K2 3.277969 1_655
Cl17 K0 3.295867 1_555
Cl18 K1 3.277969 1_555
Cl18 K4 3.295867 1_555
Cl19 K0 3.277969 1_555
Cl19 K2 3.295867 1_555
