# generated using pymatgen
data_MgScTiS4
_symmetry_space_group_name_H-M   'P 1'
_cell_length_a   7.52653223
_cell_length_b   7.44140172
_cell_length_c   7.45003448
_cell_angle_alpha   59.15358569
_cell_angle_beta   59.66005089
_cell_angle_gamma   59.61962657
_symmetry_Int_Tables_number   1
_chemical_formula_structural   MgScTiS4
_chemical_formula_sum   'Mg2 Sc2 Ti2 S8'
_cell_volume   291.52910561
_cell_formula_units_Z   2
loop_
 _symmetry_equiv_pos_site_id
 _symmetry_equiv_pos_as_xyz
  1  'x, y, z'
loop_
 _atom_site_type_symbol
 _atom_site_label
 _atom_site_symmetry_multiplicity
 _atom_site_fract_x
 _atom_site_fract_y
 _atom_site_fract_z
 _atom_site_occupancy
  Mg  Mg0  1  0.87622700  0.87351400  0.87401300  1
  Mg  Mg1  1  0.12377600  0.12648900  0.12599400  1
  Sc  Sc0  1  0.49998500  0.50000500  0.49995300  1
  Sc  Sc1  1  0.00000600  0.49991000  0.50004600  1
  Ti  Ti0  1  0.50000800  0.50000800  0.99999500  1
  Ti  Ti1  1  0.49999000  0.00001100  0.50002700  1
  S  S0  1  0.73192300  0.74617500  0.74590500  1
  S  S1  1  0.26398500  0.24815500  0.72393400  1
  S  S2  1  0.26376500  0.72442400  0.24803500  1
  S  S3  1  0.72401000  0.25384100  0.25410200  1
  S  S4  1  0.73620500  0.27558900  0.75196700  1
  S  S5  1  0.27599000  0.74617900  0.74589700  1
  S  S6  1  0.26807300  0.25382700  0.25410200  1
  S  S7  1  0.73606300  0.75186900  0.27603200  1
loop_
_geom_bond_atom_site_label_1
_geom_bond_atom_site_label_2
_geom_bond_distance
_geom_bond_site_symmetry_2
Mg0 S4 2.424533 1_565
Mg0 S7 2.428233 1_556
Mg0 S0 2.450321 1_555
Mg0 S5 2.450374 1_655
Mg1 S2 2.424473 1_545
Mg1 S1 2.428479 1_554
Mg1 S6 2.450271 1_555
Mg1 S3 2.450390 1_455
S0 Ti1 2.513519 1_565
S0 Ti0 2.515132 1_555
S0 Sc1 2.598626 1_655
S1 Ti1 2.489006 1_555
S1 Sc0 2.572479 1_555
S1 Sc1 2.572559 1_555
S2 Ti0 2.491354 1_554
S2 Sc0 2.574099 1_555
S2 Sc1 2.574851 1_555
S3 Ti1 2.513778 1_555
S3 Ti0 2.515217 1_554
S3 Sc0 2.598038 1_555
S4 Ti0 2.491304 1_555
S4 Sc1 2.574122 1_655
S4 Sc0 2.574634 1_555
S5 Ti1 2.513684 1_565
S5 Ti0 2.515251 1_555
S5 Sc0 2.598619 1_555
S6 Ti1 2.513676 1_555
S6 Ti0 2.515310 1_554
S6 Sc1 2.598133 1_555
S7 Ti1 2.489447 1_565
S7 Sc1 2.572993 1_655
S7 Sc0 2.573019 1_555
