# generated using pymatgen
data_Rb3TbV2O8
_symmetry_space_group_name_H-M   'P 1'
_cell_length_a   6.09396295
_cell_length_b   6.09396295
_cell_length_c   7.89025900
_cell_angle_alpha   90.00000000
_cell_angle_beta   90.00000000
_cell_angle_gamma   120.00001033
_symmetry_Int_Tables_number   1
_chemical_formula_structural   Rb3TbV2O8
_chemical_formula_sum   'Rb3 Tb1 V2 O8'
_cell_volume   253.75900626
_cell_formula_units_Z   1
loop_
 _symmetry_equiv_pos_site_id
 _symmetry_equiv_pos_as_xyz
  1  'x, y, z'
loop_
 _atom_site_type_symbol
 _atom_site_label
 _atom_site_symmetry_multiplicity
 _atom_site_fract_x
 _atom_site_fract_y
 _atom_site_fract_z
 _atom_site_occupancy
  Rb  Rb0  1  0.66666700  0.33333300  0.31301000  1
  Rb  Rb1  1  0.33333300  0.66666700  0.68699000  1
  Rb  Rb2  1  0.00000000  0.00000000  0.00000000  1
  Tb  Tb0  1  0.00000000  0.00000000  0.50000000  1
  V  V0  1  0.66666700  0.33333300  0.74945500  1
  V  V1  1  0.33333300  0.66666700  0.25054500  1
  O  O0  1  0.66666700  0.33333300  0.96246300  1
  O  O1  1  0.33333300  0.66666700  0.03753700  1
  O  O2  1  0.82412900  0.64825800  0.67129700  1
  O  O3  1  0.17587100  0.35174200  0.32870300  1
  O  O4  1  0.82412900  0.17587100  0.67129700  1
  O  O5  1  0.17587100  0.82412900  0.32870300  1
  O  O6  1  0.35174200  0.17587100  0.67129700  1
  O  O7  1  0.64825800  0.82412900  0.32870300  1
loop_
_geom_bond_atom_site_label_1
_geom_bond_atom_site_label_2
_geom_bond_distance
_geom_bond_site_symmetry_2
O0 V0 1.680688 1_555
O0 Rb0 2.765907 1_556
O0 Rb2 3.530792 1_656
O0 Rb2 3.530797 1_666
O0 Rb2 3.530797 1_556
O1 V1 1.680688 1_555
O1 Rb1 2.765907 1_554
O1 Rb2 3.530792 1_565
O1 Rb2 3.530797 1_555
O1 Rb2 3.530797 1_665
O2 V0 1.772746 1_555
O2 Tb0 2.296239 1_665
O2 Rb1 3.051041 1_655
O2 Rb1 3.051047 1_555
O2 Rb2 3.189430 1_666
O2 Rb0 3.279349 1_555
O3 V1 1.772746 1_555
O3 Tb0 2.296239 1_555
O3 Rb0 3.051041 1_455
O3 Rb0 3.051047 1_555
O3 Rb2 3.189430 1_555
O3 Rb1 3.279349 1_555
O4 V0 1.772742 1_555
O4 Tb0 2.296239 1_655
O4 Rb1 3.051043 1_545
O4 Rb1 3.051043 1_655
O4 Rb2 3.189430 1_656
O4 Rb0 3.279346 1_555
O5 V1 1.772742 1_555
O5 Tb0 2.296239 1_565
O5 Rb0 3.051043 1_455
O5 Rb0 3.051043 1_565
O5 Rb2 3.189430 1_565
O5 Rb1 3.279346 1_555
O6 V0 1.772746 1_555
O6 Tb0 2.296239 1_555
O6 Rb1 3.051041 1_545
O6 Rb1 3.051047 1_555
O6 Rb2 3.189430 1_556
O6 Rb0 3.279349 1_555
O7 V1 1.772746 1_555
O7 Tb0 2.296239 1_665
O7 Rb0 3.051041 1_565
O7 Rb0 3.051047 1_555
O7 Rb2 3.189430 1_665
O7 Rb1 3.279349 1_555
