# generated using pymatgen
data_Yb6NpO12
_symmetry_space_group_name_H-M   'P 1'
_cell_length_a   10.01600635
_cell_length_b   8.44231640
_cell_length_c   8.81476843
_cell_angle_alpha   136.05691334
_cell_angle_beta   114.00188180
_cell_angle_gamma   50.52225893
_symmetry_Int_Tables_number   1
_chemical_formula_structural   Yb6NpO12
_chemical_formula_sum   'Yb6 Np1 O12'
_cell_volume   397.42736054
_cell_formula_units_Z   1
loop_
 _symmetry_equiv_pos_site_id
 _symmetry_equiv_pos_as_xyz
  1  'x, y, z'
loop_
 _atom_site_type_symbol
 _atom_site_label
 _atom_site_symmetry_multiplicity
 _atom_site_fract_x
 _atom_site_fract_y
 _atom_site_fract_z
 _atom_site_occupancy
  Yb  Yb0  1  0.09990300  0.84140800  0.28194700  1
  Yb  Yb1  1  0.90009700  0.15859200  0.71805300  1
  Yb  Yb2  1  0.68840800  0.95017000  0.15616300  1
  Yb  Yb3  1  0.31159200  0.04983000  0.84383700  1
  Yb  Yb4  1  0.97605200  0.49500200  0.68960000  1
  Yb  Yb5  1  0.02394800  0.50499800  0.31040000  1
  Np  Np0  1  0.00000000  0.00000000  0.00000000  1
  O  O0  1  0.95494600  0.79717500  0.67564400  1
  O  O1  1  0.04505400  0.20282500  0.32435600  1
  O  O2  1  0.17398100  0.64803100  0.92668600  1
  O  O3  1  0.82601900  0.35196900  0.07331400  1
  O  O4  1  0.84964300  0.94640700  0.04721600  1
  O  O5  1  0.15035700  0.05359300  0.95278400  1
  O  O6  1  0.56831600  0.71891100  0.83972600  1
  O  O7  1  0.43168400  0.28108900  0.16027400  1
  O  O8  1  0.74961800  0.55864100  0.78718500  1
  O  O9  1  0.25038200  0.44135900  0.21281500  1
  O  O10  1  0.89463300  0.86785900  0.35526700  1
  O  O11  1  0.10536700  0.13214100  0.64473300  1
loop_
_geom_bond_atom_site_label_1
_geom_bond_atom_site_label_2
_geom_bond_distance
_geom_bond_site_symmetry_2
Np0 O2 1.962245 1_544
Np0 O3 1.962245 1_455
Np0 O1 2.047687 1_555
Np0 O0 2.047687 1_444
Np0 O4 2.072050 1_445
Np0 O5 2.072050 1_554
O0 Yb5 2.265779 1_655
O0 Yb1 2.478800 1_565
O0 Yb4 2.512503 1_555
O1 Yb4 2.265779 1_455
O1 Yb0 2.478800 1_545
O1 Yb5 2.512503 1_555
O2 Yb4 2.442297 1_455
O2 Yb0 2.451561 1_556
O3 Yb5 2.442297 1_655
O3 Yb1 2.451561 1_554
O4 Yb2 2.164208 1_555
O4 Yb4 2.423857 1_554
O4 Yb0 2.635641 1_655
O5 Yb3 2.164208 1_555
O5 Yb5 2.423857 1_556
O5 Yb1 2.635641 1_455
O6 O8 1.414335 1_555
O6 Yb3 2.283342 1_565
O6 Yb2 2.335217 1_556
O7 O9 1.414335 1_555
O7 Yb2 2.283342 1_545
O7 Yb3 2.335217 1_554
O8 Yb1 2.315213 1_555
O8 Yb2 2.333205 1_556
O8 Yb4 2.354665 1_555
O9 Yb0 2.315213 1_555
O9 Yb3 2.333205 1_554
O9 Yb5 2.354665 1_555
O10 Yb2 2.193528 1_555
O10 Yb5 2.201171 1_655
O10 Yb1 2.231388 1_565
O10 Yb0 2.232493 1_655
O11 Yb3 2.193528 1_555
O11 Yb4 2.201171 1_455
O11 Yb0 2.231388 1_545
O11 Yb1 2.232493 1_455
