# generated using pymatgen
data_Mn5(TeO6)3
_symmetry_space_group_name_H-M   'P 1'
_cell_length_a   8.42183225
_cell_length_b   8.42183225
_cell_length_c   10.42451488
_cell_angle_alpha   83.88298780
_cell_angle_beta   83.88298780
_cell_angle_gamma   61.88943512
_symmetry_Int_Tables_number   1
_chemical_formula_structural   Mn5(TeO6)3
_chemical_formula_sum   'Mn10 Te6 O36'
_cell_volume   647.11158592
_cell_formula_units_Z   2
loop_
 _symmetry_equiv_pos_site_id
 _symmetry_equiv_pos_as_xyz
  1  'x, y, z'
loop_
 _atom_site_type_symbol
 _atom_site_label
 _atom_site_symmetry_multiplicity
 _atom_site_fract_x
 _atom_site_fract_y
 _atom_site_fract_z
 _atom_site_occupancy
  Mn  Mn0  1  0.00026200  0.68324900  0.77116000  1
  Mn  Mn1  1  0.68324900  0.00026200  0.27116000  1
  Mn  Mn2  1  0.47974700  0.83106900  0.46306000  1
  Mn  Mn3  1  0.83106900  0.47974700  0.96306000  1
  Mn  Mn4  1  0.16893100  0.52025300  0.03694000  1
  Mn  Mn5  1  0.83176600  0.16823400  0.75000000  1
  Mn  Mn6  1  0.16823400  0.83176600  0.25000000  1
  Mn  Mn7  1  0.52025300  0.16893100  0.53694000  1
  Mn  Mn8  1  0.99973800  0.31675100  0.22884000  1
  Mn  Mn9  1  0.31675100  0.99973800  0.72884000  1
  Te  Te0  1  0.34576100  0.32839000  0.79053900  1
  Te  Te1  1  0.00000000  0.00000000  0.50000000  1
  Te  Te2  1  0.00000000  0.00000000  0.00000000  1
  Te  Te3  1  0.32839000  0.34576100  0.29053900  1
  Te  Te4  1  0.65423900  0.67161000  0.20946100  1
  Te  Te5  1  0.67161000  0.65423900  0.70946100  1
  O  O0  1  0.38816600  0.09046000  0.85898500  1
  O  O1  1  0.06598000  0.75349000  0.93896300  1
  O  O2  1  0.24494100  0.57743400  0.19022100  1
  O  O3  1  0.06658200  0.08395300  0.32592400  1
  O  O4  1  0.24651000  0.93402000  0.56103700  1
  O  O5  1  0.91604700  0.93341800  0.17407600  1
  O  O6  1  0.39922100  0.40302800  0.43736100  1
  O  O7  1  0.77960500  0.09289000  0.92014500  1
  O  O8  1  0.22039500  0.90711000  0.07985500  1
  O  O9  1  0.71467700  0.76444600  0.35981100  1
  O  O10  1  0.24030100  0.56487300  0.70241000  1
  O  O11  1  0.28532300  0.23555400  0.64018900  1
  O  O12  1  0.93402000  0.24651000  0.06103700  1
  O  O13  1  0.08430500  0.45231600  0.88287600  1
  O  O14  1  0.43512700  0.75969900  0.79759000  1
  O  O15  1  0.60077900  0.59697200  0.56263900  1
  O  O16  1  0.75969900  0.43512700  0.29759000  1
  O  O17  1  0.54768400  0.91569500  0.61712400  1
  O  O18  1  0.42256600  0.75505900  0.30977900  1
  O  O19  1  0.56487300  0.24030100  0.20241000  1
  O  O20  1  0.09046000  0.38816600  0.35898500  1
  O  O21  1  0.91569500  0.54768400  0.11712400  1
  O  O22  1  0.90711000  0.22039500  0.57985500  1
  O  O23  1  0.40302800  0.39922100  0.93736100  1
  O  O24  1  0.75505900  0.42256600  0.80977900  1
  O  O25  1  0.08395300  0.06658200  0.82592400  1
  O  O26  1  0.76444600  0.71467700  0.85981100  1
  O  O27  1  0.59697200  0.60077900  0.06263900  1
  O  O28  1  0.75349000  0.06598000  0.43896300  1
  O  O29  1  0.45231600  0.08430500  0.38287600  1
  O  O30  1  0.61183400  0.90954000  0.14101500  1
  O  O31  1  0.93341800  0.91604700  0.67407600  1
  O  O32  1  0.09289000  0.77960500  0.42014500  1
  O  O33  1  0.23555400  0.28532300  0.14018900  1
  O  O34  1  0.57743400  0.24494100  0.69022100  1
  O  O35  1  0.90954000  0.61183400  0.64101500  1
loop_
_geom_bond_atom_site_label_1
_geom_bond_atom_site_label_2
_geom_bond_distance
_geom_bond_site_symmetry_2
Mn0 O10 1.881109 1_555
Mn0 O35 1.901049 1_455
Mn0 O31 1.960492 1_455
Mn0 O26 2.008465 1_455
Mn0 O13 2.008864 1_555
Mn0 O1 2.109879 1_555
Mn1 O19 1.881109 1_555
Mn1 O30 1.901049 1_545
Mn1 O5 1.960492 1_545
Mn1 O9 2.008465 1_545
Mn1 O29 2.008864 1_555
Mn1 O28 2.109879 1_555
Mn2 O4 1.951815 1_555
Mn2 O18 1.966570 1_555
Mn2 O15 1.974609 1_555
Mn2 O9 2.004154 1_555
Mn2 O17 2.058818 1_555
Mn2 O29 2.120721 1_565
Mn3 O12 1.951815 1_556
Mn3 O24 1.966570 1_555
Mn3 O27 1.974609 1_556
Mn3 O26 2.004154 1_555
Mn3 O21 2.058818 1_556
Mn3 O13 2.120721 1_655
Mn4 O1 1.951815 1_554
Mn4 O2 1.966570 1_555
Mn4 O23 1.974609 1_554
Mn4 O33 2.004154 1_555
Mn4 O13 2.058818 1_554
Mn4 O21 2.120721 1_455
Mn5 O7 1.896922 1_555
Mn5 O22 1.896922 1_555
Mn5 O34 2.070822 1_555
Mn5 O24 2.070822 1_555
Mn5 O25 2.090599 1_655
Mn5 O31 2.090599 1_545
Mn6 O8 1.896922 1_555
Mn6 O32 1.896922 1_555
Mn6 O2 2.070822 1_555
Mn6 O18 2.070822 1_555
Mn6 O3 2.090599 1_565
Mn6 O5 2.090599 1_455
Mn7 O28 1.951815 1_555
Mn7 O34 1.966570 1_555
Mn7 O6 1.974609 1_555
Mn7 O11 2.004154 1_555
Mn7 O29 2.058818 1_555
Mn7 O17 2.120721 1_545
Mn8 O16 1.881109 1_555
Mn8 O20 1.901049 1_655
Mn8 O3 1.960492 1_655
Mn8 O33 2.008465 1_655
Mn8 O21 2.008864 1_555
Mn8 O12 2.109879 1_555
Mn9 O14 1.881109 1_555
Mn9 O0 1.901049 1_565
Mn9 O25 1.960492 1_565
Mn9 O11 2.008465 1_565
Mn9 O17 2.008864 1_555
Mn9 O4 2.109879 1_555
O0 Te0 1.930577 1_555
O1 Te2 2.035372 1_566
O2 Te3 1.955502 1_555
O3 Te1 1.997656 1_555
O4 Te1 2.035372 1_565
O5 Te2 1.997656 1_665
O6 Te3 1.885217 1_555
O7 Te2 1.890067 1_656
O8 Te2 1.890067 1_565
O9 Te4 2.032996 1_555
O10 Te0 1.927808 1_555
O11 Te0 2.032996 1_555
O12 Te2 2.035372 1_655
O13 Te0 2.112132 1_555
O14 Te5 1.927808 1_555
O15 Te5 1.885217 1_555
O16 Te4 1.927808 1_555
O17 Te5 2.112132 1_555
O18 Te4 1.955502 1_555
O19 Te3 1.927808 1_555
O20 Te3 1.930577 1_555
O21 Te4 2.112132 1_555
O22 Te1 1.890067 1_655
O23 Te0 1.885217 1_555
O24 Te5 1.955502 1_555
O25 Te2 1.997656 1_556
O26 Te5 2.032996 1_555
O27 Te4 1.885217 1_555
O28 Te1 2.035372 1_655
O29 Te3 2.112132 1_555
O30 Te4 1.930577 1_555
O31 Te1 1.997656 1_665
O32 Te1 1.890067 1_565
O33 Te3 2.032996 1_555
O34 Te0 1.955502 1_555
O35 Te5 1.930577 1_555
