# generated using pymatgen
data_Rb3B3O10
_symmetry_space_group_name_H-M   'P 1'
_cell_length_a   8.18809800
_cell_length_b   9.63568500
_cell_length_c   14.09096000
_cell_angle_alpha   90.00000000
_cell_angle_beta   90.00000000
_cell_angle_gamma   90.00000000
_symmetry_Int_Tables_number   1
_chemical_formula_structural   Rb3B3O10
_chemical_formula_sum   'Rb12 B12 O40'
_cell_volume   1111.74761907
_cell_formula_units_Z   4
loop_
 _symmetry_equiv_pos_site_id
 _symmetry_equiv_pos_as_xyz
  1  'x, y, z'
loop_
 _atom_site_type_symbol
 _atom_site_label
 _atom_site_symmetry_multiplicity
 _atom_site_fract_x
 _atom_site_fract_y
 _atom_site_fract_z
 _atom_site_occupancy
  Rb  Rb0  1  0.94159500  0.75619800  0.00078000  1
  Rb  Rb1  1  0.05840500  0.25619800  0.99922000  1
  Rb  Rb2  1  0.55840500  0.25619800  0.50078000  1
  Rb  Rb3  1  0.44159500  0.75619800  0.49922000  1
  Rb  Rb4  1  0.51830300  0.70978700  0.78059500  1
  Rb  Rb5  1  0.48169700  0.20978700  0.21940500  1
  Rb  Rb6  1  0.98169700  0.20978700  0.28059500  1
  Rb  Rb7  1  0.01830300  0.70978700  0.71940500  1
  Rb  Rb8  1  0.51166400  0.71135200  0.21713600  1
  Rb  Rb9  1  0.48833600  0.21135200  0.78286400  1
  Rb  Rb10  1  0.98833600  0.21135200  0.71713600  1
  Rb  Rb11  1  0.01166400  0.71135200  0.28286400  1
  B  B0  1  0.27409700  0.95451600  0.90916300  1
  B  B1  1  0.72590300  0.45451600  0.09083700  1
  B  B2  1  0.22590300  0.45451600  0.40916300  1
  B  B3  1  0.77409700  0.95451600  0.59083700  1
  B  B4  1  0.26861500  0.95634300  0.09174400  1
  B  B5  1  0.73138500  0.45634300  0.90825600  1
  B  B6  1  0.23138500  0.45634300  0.59174400  1
  B  B7  1  0.76861500  0.95634300  0.40825600  1
  B  B8  1  0.53590900  0.97456100  0.00277900  1
  B  B9  1  0.46409100  0.47456100  0.99722100  1
  B  B10  1  0.96409100  0.47456100  0.50277900  1
  B  B11  1  0.03590900  0.97456100  0.49722100  1
  O  O0  1  0.45223000  0.97270800  0.91574000  1
  O  O1  1  0.54777000  0.47270800  0.08426000  1
  O  O2  1  0.04777000  0.47270800  0.41574000  1
  O  O3  1  0.95223000  0.97270800  0.58426000  1
  O  O4  1  0.22560700  0.82560800  0.86419500  1
  O  O5  1  0.77439300  0.32560800  0.13580500  1
  O  O6  1  0.27439300  0.32560800  0.36419500  1
  O  O7  1  0.72560700  0.82560800  0.63580500  1
  O  O8  1  0.20022400  0.03834000  0.83452000  1
  O  O9  1  0.79977600  0.53834000  0.16548000  1
  O  O10  1  0.29977600  0.53834000  0.33452000  1
  O  O11  1  0.70022400  0.03834000  0.66548000  1
  O  O12  1  0.19035200  0.97320300  0.99929400  1
  O  O13  1  0.80964800  0.47320300  0.00070600  1
  O  O14  1  0.30964800  0.47320300  0.49929400  1
  O  O15  1  0.69035200  0.97320300  0.50070600  1
  O  O16  1  0.19287200  0.04586800  0.16238200  1
  O  O17  1  0.80712800  0.54586800  0.83761800  1
  O  O18  1  0.30712800  0.54586800  0.66238200  1
  O  O19  1  0.69287200  0.04586800  0.33761800  1
  O  O20  1  0.21442000  0.83084200  0.13873700  1
  O  O21  1  0.78558000  0.33084200  0.86126300  1
  O  O22  1  0.28558000  0.33084200  0.63873700  1
  O  O23  1  0.71442000  0.83084200  0.36126300  1
  O  O24  1  0.44771800  0.97076200  0.08762000  1
  O  O25  1  0.55228200  0.47076200  0.91238000  1
  O  O26  1  0.05228200  0.47076200  0.58762000  1
  O  O27  1  0.94771800  0.97076200  0.41238000  1
  O  O28  1  0.70106900  0.97762700  0.00372400  1
  O  O29  1  0.29893100  0.47762700  0.99627600  1
  O  O30  1  0.79893100  0.47762700  0.50372400  1
  O  O31  1  0.20106900  0.97762700  0.49627600  1
  O  O32  1  0.19422900  0.45566000  0.83832400  1
  O  O33  1  0.80577100  0.95566000  0.16167600  1
  O  O34  1  0.30577100  0.95566000  0.33832400  1
  O  O35  1  0.69422900  0.45566000  0.66167600  1
  O  O36  1  0.16872400  0.45562600  0.16232300  1
  O  O37  1  0.83127600  0.95562600  0.83767700  1
  O  O38  1  0.33127600  0.95562600  0.66232300  1
  O  O39  1  0.66872400  0.45562600  0.33767700  1
loop_
_geom_bond_atom_site_label_1
_geom_bond_atom_site_label_2
_geom_bond_distance
_geom_bond_site_symmetry_2
B0 O4 1.449827 1_555
B0 O12 1.454512 1_555
B0 O8 1.457576 1_565
B0 O0 1.471986 1_555
B1 O5 1.449827 1_555
B1 O13 1.454512 1_555
B1 O9 1.457576 1_555
B1 O1 1.471986 1_555
B2 O6 1.449827 1_555
B2 O14 1.454512 1_555
B2 O10 1.457576 1_555
B2 O2 1.471986 1_555
B3 O7 1.449827 1_555
B3 O15 1.454512 1_555
B3 O11 1.457576 1_565
B3 O3 1.471986 1_555
B4 O20 1.448369 1_555
B4 O16 1.455854 1_565
B4 O12 1.460856 1_554
B4 O24 1.474225 1_555
B5 O21 1.448369 1_555
B5 O17 1.455854 1_555
B5 O13 1.460856 1_556
B5 O25 1.474225 1_555
B6 O22 1.448369 1_555
B6 O18 1.455854 1_555
B6 O14 1.460856 1_555
B6 O26 1.474225 1_555
B7 O23 1.448369 1_555
B7 O19 1.455854 1_565
B7 O15 1.460856 1_555
B7 O27 1.474225 1_555
B8 O28 1.352734 1_555
B8 O24 1.397137 1_555
B8 O0 1.404988 1_554
B9 O29 1.352734 1_555
B9 O25 1.397137 1_555
B9 O1 1.404988 1_556
B10 O30 1.352734 1_555
B10 O26 1.397137 1_655
B10 O2 1.404988 1_655
B11 O31 1.352734 1_555
B11 O27 1.397137 1_455
B11 O3 1.404988 1_455
O0 Rb9 2.980066 1_565
O0 Rb4 3.215179 1_555
O1 Rb8 2.980066 1_555
O1 Rb5 3.215179 1_555
O2 Rb11 2.980066 1_555
O2 Rb6 3.215179 1_455
O3 Rb10 2.980066 1_565
O3 Rb7 3.215179 1_655
O4 Rb7 2.879111 1_555
O4 Rb4 2.894303 1_555
O4 Rb0 3.091841 1_456
O5 Rb6 2.879111 1_555
O5 Rb5 2.894303 1_555
O5 Rb1 3.091841 1_654
O6 Rb5 2.879111 1_555
O6 Rb6 2.894303 1_455
O6 Rb2 3.091841 1_555
O7 Rb4 2.879111 1_555
O7 Rb7 2.894303 1_655
O7 Rb3 3.091841 1_555
O8 Rb10 2.919788 1_455
O8 Rb9 2.978977 1_555
O8 Rb1 3.337838 1_555
O9 Rb11 2.919788 1_655
O9 Rb8 2.978977 1_555
O9 Rb0 3.337838 1_555
O10 Rb8 2.919788 1_555
O10 Rb11 2.978977 1_555
O10 Rb3 3.337838 1_555
O11 Rb9 2.919788 1_555
O11 Rb10 2.978977 1_555
O11 Rb2 3.337838 1_555
O12 Rb0 2.919149 1_456
O12 Rb1 2.933082 1_565
O13 Rb1 2.919149 1_654
O13 Rb0 2.933082 1_555
O14 Rb2 2.919149 1_555
O14 Rb3 2.933082 1_555
O15 Rb3 2.919149 1_555
O15 Rb2 2.933082 1_565
O16 Rb6 2.873894 1_455
O16 Rb5 2.955205 1_555
O16 Rb1 3.256620 1_554
O17 Rb7 2.873894 1_655
O17 Rb4 2.955205 1_555
O17 Rb0 3.256620 1_556
O18 Rb4 2.873894 1_555
O18 Rb7 2.955205 1_555
O18 Rb3 3.256620 1_555
O19 Rb5 2.873894 1_555
O19 Rb6 2.955205 1_555
O19 Rb2 3.256620 1_555
O20 Rb11 2.864676 1_555
O20 Rb8 2.910281 1_555
O20 Rb0 3.047398 1_455
O21 Rb10 2.864676 1_555
O21 Rb9 2.910281 1_555
O21 Rb1 3.047398 1_655
O22 Rb9 2.864676 1_555
O22 Rb10 2.910281 1_455
O22 Rb2 3.047398 1_555
O23 Rb8 2.864676 1_555
O23 Rb11 2.910281 1_655
O23 Rb3 3.047398 1_555
O24 Rb5 2.971593 1_565
O24 Rb8 3.138911 1_555
O25 Rb4 2.971593 1_555
O25 Rb9 3.138911 1_555
O26 Rb7 2.971593 1_555
O26 Rb10 3.138911 1_455
O27 Rb6 2.971593 1_565
O27 Rb11 3.138911 1_655
O28 Rb0 2.903927 1_555
O29 Rb1 2.903927 1_555
O30 Rb2 2.903927 1_555
O31 Rb3 2.903927 1_555
O32 Rb1 3.173462 1_555
O32 Rb7 3.298336 1_555
O32 Rb10 3.361535 1_455
O32 Rb9 3.457124 1_555
O33 Rb0 3.173462 1_555
O33 Rb6 3.298336 1_565
O33 Rb11 3.361535 1_655
O33 Rb8 3.457124 1_555
O34 Rb3 3.173462 1_555
O34 Rb5 3.298336 1_565
O34 Rb8 3.361535 1_555
O34 Rb11 3.457124 1_555
O35 Rb2 3.173462 1_555
O35 Rb4 3.298336 1_555
O35 Rb9 3.361535 1_555
O35 Rb10 3.457124 1_555
O36 Rb1 3.129006 1_554
O36 Rb11 3.257400 1_555
O36 Rb6 3.276272 1_455
O37 Rb0 3.129006 1_556
O37 Rb10 3.257400 1_565
O37 Rb7 3.276272 1_655
O38 Rb3 3.129006 1_555
O38 Rb9 3.257400 1_565
O38 Rb4 3.276272 1_555
O39 Rb2 3.129006 1_555
O39 Rb8 3.257400 1_555
O39 Rb5 3.276272 1_555
