# generated using pymatgen
data_HfCrCuS4
_symmetry_space_group_name_H-M   'P 1'
_cell_length_a   6.79997550
_cell_length_b   6.79997550
_cell_length_c   6.04093276
_cell_angle_alpha   64.45019037
_cell_angle_beta   64.45019037
_cell_angle_gamma   30.48751468
_symmetry_Int_Tables_number   1
_chemical_formula_structural   HfCrCuS4
_chemical_formula_sum   'Hf1 Cr1 Cu1 S4'
_cell_volume   126.77042779
_cell_formula_units_Z   1
loop_
 _symmetry_equiv_pos_site_id
 _symmetry_equiv_pos_as_xyz
  1  'x, y, z'
loop_
 _atom_site_type_symbol
 _atom_site_label
 _atom_site_symmetry_multiplicity
 _atom_site_fract_x
 _atom_site_fract_y
 _atom_site_fract_z
 _atom_site_occupancy
  Hf  Hf0  1  0.24386200  0.24386200  0.74447900  1
  Cr  Cr0  1  0.75631600  0.75631600  0.25734300  1
  Cu  Cu0  1  0.49950800  0.49950800  0.48418800  1
  S  S0  1  0.37551900  0.37551900  0.28778400  1
  S  S1  1  0.62034000  0.62034000  0.69921400  1
  S  S2  1  0.86879700  0.86879700  0.80876000  1
  S  S3  1  0.13565800  0.13565800  0.21823200  1
loop_
_geom_bond_atom_site_label_1
_geom_bond_atom_site_label_2
_geom_bond_distance
_geom_bond_site_symmetry_2
Hf0 S1 2.508887 1_545
Hf0 S1 2.508887 1_455
Hf0 S0 2.516872 1_555
Hf0 S3 2.563892 1_556
Hf0 S2 2.569800 1_455
Hf0 S2 2.569800 1_545
Cr0 S0 2.435977 1_655
Cr0 S0 2.435977 1_565
Cr0 S2 2.438422 1_554
Cr0 S1 2.459802 1_555
Cr0 S3 2.468471 1_565
Cr0 S3 2.468471 1_655
Cu0 S0 2.404227 1_555
Cu0 S1 2.458119 1_555
Cu0 S3 2.530458 1_565
Cu0 S3 2.530458 1_655
Cu0 S2 2.641219 1_545
Cu0 S2 2.641219 1_455
