# generated using pymatgen
data_LiFe5O5F
_symmetry_space_group_name_H-M   'P 1'
_cell_length_a   3.56673098
_cell_length_b   3.56673098
_cell_length_c   13.41339855
_cell_angle_alpha   89.95099101
_cell_angle_beta   89.95099101
_cell_angle_gamma   60.06984991
_symmetry_Int_Tables_number   1
_chemical_formula_structural   LiFe5O5F
_chemical_formula_sum   'Li1 Fe5 O5 F1'
_cell_volume   147.88196251
_cell_formula_units_Z   1
loop_
 _symmetry_equiv_pos_site_id
 _symmetry_equiv_pos_as_xyz
  1  'x, y, z'
loop_
 _atom_site_type_symbol
 _atom_site_label
 _atom_site_symmetry_multiplicity
 _atom_site_fract_x
 _atom_site_fract_y
 _atom_site_fract_z
 _atom_site_occupancy
  Li  Li0  1  0.33018300  0.33018300  0.01595900  1
  Fe  Fe0  1  0.33458700  0.33458700  0.68811300  1
  Fe  Fe1  1  0.33277700  0.33277700  0.35064100  1
  Fe  Fe2  1  0.65787700  0.65787700  0.51971400  1
  Fe  Fe3  1  0.67096300  0.67096300  0.85381800  1
  Fe  Fe4  1  0.65615900  0.65615900  0.18545800  1
  O  O0  1  0.33523800  0.33523800  0.52077400  1
  O  O1  1  0.33372600  0.33372600  0.18100000  1
  O  O2  1  0.32657400  0.32657400  0.86043200  1
  O  O3  1  0.67846900  0.67846900  0.68813100  1
  O  O4  1  0.67789600  0.67789600  0.35317400  1
  F  F0  1  0.66615000  0.66615000  0.01975400  1
loop_
_geom_bond_atom_site_label_1
_geom_bond_atom_site_label_2
_geom_bond_distance
_geom_bond_site_symmetry_2
Li0 O2 2.086287 1_554
Li0 O1 2.213890 1_555
Fe0 O3 2.028950 1_545
Fe0 O3 2.028950 1_455
Fe0 O3 2.123672 1_555
Fe0 O0 2.244584 1_555
Fe0 O2 2.311864 1_555
Fe1 O4 2.025600 1_455
Fe1 O4 2.025600 1_545
Fe1 O4 2.131616 1_555
Fe1 O1 2.275464 1_555
Fe1 O0 2.282127 1_555
Fe2 O0 1.992521 1_555
Fe2 O0 2.094527 1_565
Fe2 O0 2.094527 1_655
Fe2 O4 2.237164 1_555
Fe2 O3 2.262746 1_555
Fe3 O2 2.029445 1_655
Fe3 O2 2.029445 1_565
Fe3 O2 2.128565 1_555
Fe3 O3 2.222863 1_555
Fe4 O1 1.992169 1_555
Fe4 O1 2.095959 1_565
Fe4 O1 2.095959 1_655
Fe4 O4 2.253775 1_555
F0 Li0 2.053234 1_655
F0 Li0 2.053234 1_565
F0 Li0 2.075467 1_555
F0 Fe4 2.223449 1_555
F0 Fe3 2.225935 1_554
