# generated using pymatgen
data_Fe2CoC
_symmetry_space_group_name_H-M   'P 1'
_cell_length_a   4.47614300
_cell_length_b   4.97666800
_cell_length_c   6.70991300
_cell_angle_alpha   90.00000000
_cell_angle_beta   90.00000000
_cell_angle_gamma   90.00000000
_symmetry_Int_Tables_number   1
_chemical_formula_structural   Fe2CoC
_chemical_formula_sum   'Fe8 Co4 C4'
_cell_volume   149.47188487
_cell_formula_units_Z   4
loop_
 _symmetry_equiv_pos_site_id
 _symmetry_equiv_pos_as_xyz
  1  'x, y, z'
loop_
 _atom_site_type_symbol
 _atom_site_label
 _atom_site_symmetry_multiplicity
 _atom_site_fract_x
 _atom_site_fract_y
 _atom_site_fract_z
 _atom_site_occupancy
  Fe  Fe0  1  0.16752600  0.68042100  0.06994500  1
  Fe  Fe1  1  0.33247400  0.18042100  0.43005500  1
  Fe  Fe2  1  0.83247400  0.31957900  0.56994500  1
  Fe  Fe3  1  0.66752600  0.81957900  0.93005500  1
  Fe  Fe4  1  0.83247400  0.31957900  0.93005500  1
  Fe  Fe5  1  0.66752600  0.81957900  0.56994500  1
  Fe  Fe6  1  0.16752600  0.68042100  0.43005500  1
  Fe  Fe7  1  0.33247400  0.18042100  0.06994500  1
  Co  Co0  1  0.65857300  0.53914800  0.25000000  1
  Co  Co1  1  0.84142700  0.03914800  0.25000000  1
  Co  Co2  1  0.34142700  0.46085200  0.75000000  1
  Co  Co3  1  0.15857300  0.96085200  0.75000000  1
  C  C0  1  0.05200500  0.37759100  0.25000000  1
  C  C1  1  0.44799500  0.87759100  0.25000000  1
  C  C2  1  0.94799500  0.62240900  0.75000000  1
  C  C3  1  0.55200500  0.12240900  0.75000000  1
loop_
_geom_bond_atom_site_label_1
_geom_bond_atom_site_label_2
_geom_bond_distance
_geom_bond_site_symmetry_2
C0 Co1 1.930124 1_455
C0 Co0 1.935915 1_455
C0 Fe6 1.999580 1_555
C0 Fe0 1.999580 1_555
C0 Fe7 1.999641 1_555
C0 Fe1 1.999641 1_555
C0 Fe2 2.378596 1_455
C0 Fe4 2.378596 1_454
C1 Co0 1.930124 1_555
C1 Co1 1.935915 1_565
C1 Fe1 1.999580 1_565
C1 Fe7 1.999580 1_565
C1 Fe0 1.999641 1_555
C1 Fe6 1.999641 1_555
C1 Fe5 2.378596 1_555
C1 Fe3 2.378596 1_554
C2 Co3 1.930124 1_655
C2 Co2 1.935915 1_655
C2 Fe2 1.999580 1_555
C2 Fe4 1.999580 1_555
C2 Fe5 1.999641 1_555
C2 Fe3 1.999641 1_555
C2 Fe0 2.378596 1_656
C2 Fe6 2.378596 1_655
C3 Co2 1.930124 1_555
C3 Co3 1.935915 1_545
C3 Fe3 1.999580 1_545
C3 Fe5 1.999580 1_545
C3 Fe4 1.999641 1_555
C3 Fe2 1.999641 1_555
C3 Fe7 2.378596 1_556
C3 Fe1 2.378596 1_555
