# generated using pymatgen
data_Li3FeIrO5
_symmetry_space_group_name_H-M   'P 1'
_cell_length_a   5.18168200
_cell_length_b   5.98694538
_cell_length_c   6.68295165
_cell_angle_alpha   103.85439340
_cell_angle_beta   97.44273865
_cell_angle_gamma   106.94260210
_symmetry_Int_Tables_number   1
_chemical_formula_structural   Li3FeIrO5
_chemical_formula_sum   'Li6 Fe2 Ir2 O10'
_cell_volume   188.06722271
_cell_formula_units_Z   2
loop_
 _symmetry_equiv_pos_site_id
 _symmetry_equiv_pos_as_xyz
  1  'x, y, z'
loop_
 _atom_site_type_symbol
 _atom_site_label
 _atom_site_symmetry_multiplicity
 _atom_site_fract_x
 _atom_site_fract_y
 _atom_site_fract_z
 _atom_site_occupancy
  Li  Li0  1  0.38549500  0.29867600  0.30889600  1
  Li  Li1  1  0.19201700  0.90030300  0.89906100  1
  Li  Li2  1  0.00000000  0.50000000  0.50000000  1
  Li  Li3  1  0.80798300  0.09969700  0.10093900  1
  Li  Li4  1  0.61450500  0.70132400  0.69110400  1
  Li  Li5  1  0.00000000  0.00000000  0.50000000  1
  Fe  Fe0  1  0.19501100  0.38793300  0.88680800  1
  Fe  Fe1  1  0.80498900  0.61206700  0.11319200  1
  Ir  Ir0  1  0.59571100  0.19090500  0.69070400  1
  Ir  Ir1  1  0.40428900  0.80909500  0.30929600  1
  O  O0  1  0.10126500  0.93819800  0.19899200  1
  O  O1  1  0.89058800  0.53157100  0.80505200  1
  O  O2  1  0.69523200  0.14814200  0.40127100  1
  O  O3  1  0.49339900  0.74009400  0.01573500  1
  O  O4  1  0.30545100  0.34749700  0.61069000  1
  O  O5  1  0.50660100  0.25990600  0.98426500  1
  O  O6  1  0.30476800  0.85185800  0.59872900  1
  O  O7  1  0.10941200  0.46842900  0.19494800  1
  O  O8  1  0.89873500  0.06180200  0.80100800  1
  O  O9  1  0.69454900  0.65250300  0.38931000  1
loop_
_geom_bond_atom_site_label_1
_geom_bond_atom_site_label_2
_geom_bond_distance
_geom_bond_site_symmetry_2
Li0 O4 2.080937 1_555
Li0 O0 2.115261 1_545
Li0 O7 2.143616 1_555
Li0 O9 2.143692 1_555
Li0 O2 2.149889 1_555
Li0 O5 2.313182 1_554
Li1 O0 2.092585 1_556
Li1 O8 2.139057 1_465
Li1 O6 2.139554 1_555
Li1 O5 2.177958 1_565
Li1 O1 2.186235 1_455
Li1 O3 2.209634 1_556
Li2 O6 2.119515 1_555
Li2 O2 2.119515 1_455
Li2 O1 2.165774 1_455
Li2 O7 2.165774 1_555
Li2 O9 2.179059 1_455
Li2 O4 2.179059 1_555
Li3 O8 2.092585 1_554
Li3 O0 2.139057 1_645
Li3 O2 2.139554 1_555
Li3 O3 2.177958 1_545
Li3 O7 2.186235 1_655
Li3 O5 2.209634 1_554
Li4 O9 2.080937 1_555
Li4 O8 2.115261 1_565
Li4 O1 2.143616 1_555
Li4 O4 2.143692 1_555
Li4 O6 2.149889 1_555
Li4 O3 2.313182 1_556
Li5 O4 2.102630 1_555
Li5 O9 2.102630 1_445
Li5 O8 2.118731 1_455
Li5 O0 2.118731 1_545
Li5 O6 2.131315 1_545
Li5 O2 2.131315 1_455
Fe0 O4 1.982812 1_555
Fe0 O8 1.996682 1_455
Fe0 O5 2.075194 1_555
Fe0 O1 2.078136 1_455
Fe0 O3 2.112612 1_556
Fe0 O7 2.134379 1_556
Fe1 O9 1.982812 1_555
Fe1 O0 1.996682 1_655
Fe1 O3 2.075194 1_555
Fe1 O7 2.078136 1_655
Fe1 O5 2.112612 1_554
Fe1 O1 2.134379 1_554
Ir0 O6 2.037098 1_545
Ir0 O2 2.042320 1_555
Ir0 O5 2.047059 1_555
Ir0 O1 2.052602 1_555
Ir0 O4 2.068941 1_555
Ir0 O8 2.070415 1_555
Ir1 O2 2.037098 1_565
Ir1 O6 2.042320 1_555
Ir1 O3 2.047059 1_555
Ir1 O7 2.052602 1_555
Ir1 O9 2.068941 1_555
Ir1 O0 2.070415 1_555
