# generated using pymatgen
data_VH16C7O6
_symmetry_space_group_name_H-M   'P 1'
_cell_length_a   7.53911400
_cell_length_b   12.62047004
_cell_length_c   15.38439152
_cell_angle_alpha   71.85174779
_cell_angle_beta   75.81670241
_cell_angle_gamma   72.62130508
_symmetry_Int_Tables_number   1
_chemical_formula_structural   VH16C7O6
_chemical_formula_sum   'V4 H64 C28 O24'
_cell_volume   1308.69154118
_cell_formula_units_Z   4
loop_
 _symmetry_equiv_pos_site_id
 _symmetry_equiv_pos_as_xyz
  1  'x, y, z'
loop_
 _atom_site_type_symbol
 _atom_site_label
 _atom_site_symmetry_multiplicity
 _atom_site_fract_x
 _atom_site_fract_y
 _atom_site_fract_z
 _atom_site_occupancy
  V  V0  1  0.03471200  0.98735400  0.18107600  1
  V  V1  1  0.20314200  0.51264600  0.31892400  1
  V  V2  1  0.96528800  0.01264600  0.81892400  1
  V  V3  1  0.79685800  0.48735400  0.68107600  1
  H  H0  1  0.48424900  0.89011200  0.10031200  1
  H  H1  1  0.47467300  0.60988800  0.39968800  1
  H  H2  1  0.51575100  0.10988800  0.89968800  1
  H  H3  1  0.52532700  0.39011200  0.60031200  1
  H  H4  1  0.52066600  0.74433900  0.16558800  1
  H  H5  1  0.43059300  0.75566100  0.33441200  1
  H  H6  1  0.47933400  0.25566100  0.83441200  1
  H  H7  1  0.56940700  0.24433900  0.66558800  1
  H  H8  1  0.43130100  0.83368700  0.96612500  1
  H  H9  1  0.23111400  0.66631300  0.53387500  1
  H  H10  1  0.56869900  0.16631300  0.03387500  1
  H  H11  1  0.76888600  0.33368700  0.46612500  1
  H  H12  1  0.65735300  0.76134400  0.99651600  1
  H  H13  1  0.41521300  0.73865600  0.50348400  1
  H  H14  1  0.34264700  0.23865600  0.00348400  1
  H  H15  1  0.58478700  0.26134400  0.49651600  1
  H  H16  1  0.47310300  0.68730500  0.03151700  1
  H  H17  1  0.19192500  0.81269500  0.46848300  1
  H  H18  1  0.52689700  0.31269500  0.96848300  1
  H  H19  1  0.80807500  0.18730500  0.53151700  1
  H  H20  1  0.39434000  0.11404200  0.21445500  1
  H  H21  1  0.72283600  0.38595800  0.28554500  1
  H  H22  1  0.60566000  0.88595800  0.78554500  1
  H  H23  1  0.27716400  0.61404200  0.71445500  1
  H  H24  1  0.15834000  0.18876500  0.19808200  1
  H  H25  1  0.54518700  0.31123500  0.30191800  1
  H  H26  1  0.84166000  0.81123500  0.80191800  1
  H  H27  1  0.45481300  0.68876500  0.69808200  1
  H  H28  1  0.26763400  0.01729200  0.38012300  1
  H  H29  1  0.66504900  0.48270800  0.11987700  1
  H  H30  1  0.73236600  0.98270800  0.61987700  1
  H  H31  1  0.33495100  0.51729200  0.88012300  1
  H  H32  1  0.21383500  0.17012100  0.35742100  1
  H  H33  1  0.74137700  0.32987900  0.14257900  1
  H  H34  1  0.78616500  0.82987900  0.64257900  1
  H  H35  1  0.25862300  0.67012100  0.85742100  1
  H  H36  1  0.03624300  0.10081000  0.36248500  1
  H  H37  1  0.49953800  0.39919000  0.13751500  1
  H  H38  1  0.96375700  0.89919000  0.63751500  1
  H  H39  1  0.50046200  0.60081000  0.86248500  1
  H  H40  1  0.67331600  0.93535100  0.28096100  1
  H  H41  1  0.88962800  0.56464900  0.21903900  1
  H  H42  1  0.32668400  0.06464900  0.71903900  1
  H  H43  1  0.11037200  0.43535100  0.78096100  1
  H  H44  1  0.75317300  0.79078300  0.34431500  1
  H  H45  1  0.88827100  0.70921700  0.15568500  1
  H  H46  1  0.24682700  0.20921700  0.65568500  1
  H  H47  1  0.11172900  0.29078300  0.84431500  1
  H  H48  1  0.74727900  0.00481600  0.40269400  1
  H  H49  1  0.15478900  0.49518400  0.09730600  1
  H  H50  1  0.25272100  0.99518400  0.59730600  1
  H  H51  1  0.84521100  0.50481600  0.90269400  1
  H  H52  1  0.58108100  0.91842900  0.45085700  1
  H  H53  1  0.95036700  0.58157100  0.04914300  1
  H  H54  1  0.41891900  0.08157100  0.54914300  1
  H  H55  1  0.04963300  0.41842900  0.95085700  1
  H  H56  1  0.81974700  0.85929200  0.46701100  1
  H  H57  1  0.14605000  0.64070800  0.03298900  1
  H  H58  1  0.18025300  0.14070800  0.53298900  1
  H  H59  1  0.85395000  0.35929200  0.96701100  1
  H  H60  1  0.20876600  0.75473100  0.16872700  1
  H  H61  1  0.13222400  0.74526900  0.33127300  1
  H  H62  1  0.79123400  0.24526900  0.83127300  1
  H  H63  1  0.86777600  0.25473100  0.66872700  1
  C  C0  1  0.07380100  0.03536700  0.98085000  1
  C  C1  1  0.09001800  0.46463300  0.51915000  1
  C  C2  1  0.92619900  0.96463300  0.01915000  1
  C  C3  1  0.90998200  0.53536700  0.48085000  1
  C  C4  1  0.44820200  0.80865700  0.11028600  1
  C  C5  1  0.36714600  0.69134300  0.38971400  1
  C  C6  1  0.55179800  0.19134300  0.88971400  1
  C  C7  1  0.63285400  0.30865700  0.61028600  1
  C  C8  1  0.50513600  0.77028600  0.02101100  1
  C  C9  1  0.29643300  0.72971400  0.47898900  1
  C  C10  1  0.49486400  0.22971400  0.97898900  1
  C  C11  1  0.70356700  0.27028600  0.52101100  1
  C  C12  1  0.24554100  0.10973600  0.23703000  1
  C  C13  1  0.59230800  0.39026400  0.26297000  1
  C  C14  1  0.75445900  0.89026400  0.76297000  1
  C  C15  1  0.40769200  0.60973600  0.73703000  1
  C  C16  1  0.18715000  0.09833300  0.34071100  1
  C  C17  1  0.62619400  0.40166700  0.15928900  1
  C  C18  1  0.81285000  0.90166700  0.65928900  1
  C  C19  1  0.37380600  0.59833300  0.84071100  1
  C  C20  1  0.77006600  0.87880300  0.32897800  1
  C  C21  1  0.97784700  0.62119700  0.17102200  1
  C  C22  1  0.22993400  0.12119700  0.67102200  1
  C  C23  1  0.02215300  0.37880300  0.82897800  1
  C  C24  1  0.72807200  0.91765000  0.41752900  1
  C  C25  1  0.06325200  0.58235000  0.08247100  1
  C  C26  1  0.27192800  0.08235000  0.58247100  1
  C  C27  1  0.93674800  0.41765000  0.91752900  1
  O  O0  1  0.24681200  0.82871100  0.14256000  1
  O  O1  1  0.21808300  0.67128900  0.35744000  1
  O  O2  1  0.75318800  0.17128900  0.85744000  1
  O  O3  1  0.78191700  0.32871100  0.64256000  1
  O  O4  1  0.22908000  0.01284500  0.21308600  1
  O  O5  1  0.45501000  0.48715500  0.28691400  1
  O  O6  1  0.77092000  0.98715500  0.78691400  1
  O  O7  1  0.54499000  0.51284500  0.71308600  1
  O  O8  1  0.96121000  0.87675900  0.28338600  1
  O  O9  1  0.12135500  0.62324100  0.21661400  1
  O  O10  1  0.03879000  0.12324100  0.71661400  1
  O  O11  1  0.87864500  0.37675900  0.78338600  1
  O  O12  1  0.86773000  0.10051100  0.19338800  1
  O  O13  1  0.16162900  0.39948900  0.30661200  1
  O  O14  1  0.13227000  0.89948900  0.80661200  1
  O  O15  1  0.83837100  0.60051100  0.69338800  1
  O  O16  1  0.13753000  0.05806800  0.04016100  1
  O  O17  1  0.23575800  0.44193200  0.45983900  1
  O  O18  1  0.86247000  0.94193200  0.95983900  1
  O  O19  1  0.76424200  0.55806800  0.54016100  1
  O  O20  1  0.88116800  0.93522300  0.10639800  1
  O  O21  1  0.92278900  0.56477700  0.39360200  1
  O  O22  1  0.11883200  0.06477700  0.89360200  1
  O  O23  1  0.07721100  0.43522300  0.60639800  1
loop_
_geom_bond_atom_site_label_1
_geom_bond_atom_site_label_2
_geom_bond_distance
_geom_bond_site_symmetry_2
H60 O0 0.992627 1_555
H61 O1 0.992627 1_555
H62 O2 0.992627 1_555
H63 O3 0.992627 1_555
C0 O22 1.263441 1_555
C0 O16 1.267056 1_556
C1 O23 1.263441 1_555
C1 O17 1.267052 1_555
C2 O20 1.263441 1_555
C2 O18 1.267056 1_554
C3 O21 1.263441 1_555
C3 O19 1.267052 1_555
C4 H0 1.096528 1_555
C4 H4 1.101746 1_555
C4 O0 1.447455 1_555
C5 H1 1.096524 1_555
C5 H5 1.101743 1_555
C5 O1 1.447462 1_555
C6 H2 1.096528 1_555
C6 H6 1.101746 1_555
C6 O2 1.447455 1_555
C7 H3 1.096524 1_555
C7 H7 1.101743 1_555
C7 O3 1.447462 1_555
C8 H8 1.098392 1_554
C8 H16 1.098958 1_555
C8 H12 1.099496 1_554
C9 H9 1.098389 1_555
C9 H17 1.098958 1_555
C9 H13 1.099496 1_555
C10 H10 1.098392 1_556
C10 H18 1.098958 1_555
C10 H14 1.099496 1_556
C11 H11 1.098389 1_555
C11 H19 1.098958 1_555
C11 H15 1.099496 1_555
C12 H24 1.102295 1_555
C12 H20 1.102619 1_555
C12 O4 1.428291 1_555
C13 H25 1.102299 1_555
C13 H21 1.102605 1_555
C13 O5 1.428297 1_555
C14 H26 1.102295 1_555
C14 H22 1.102619 1_555
C14 O6 1.428291 1_555
C15 H27 1.102299 1_555
C15 H23 1.102605 1_555
C15 O7 1.428297 1_555
C16 H28 1.097785 1_555
C16 H36 1.098215 1_555
C16 H32 1.098504 1_555
C17 H29 1.097785 1_555
C17 H37 1.098215 1_555
C17 H33 1.098504 1_555
C18 H30 1.097785 1_555
C18 H38 1.098215 1_555
C18 H34 1.098504 1_555
C19 H31 1.097785 1_555
C19 H39 1.098215 1_555
C19 H35 1.098504 1_555
C20 H40 1.100781 1_555
C20 H44 1.101089 1_555
C20 O8 1.436321 1_555
C21 H41 1.100781 1_555
C21 H45 1.101089 1_555
C21 O9 1.436321 1_655
C22 H42 1.100781 1_555
C22 H46 1.101089 1_555
C22 O10 1.436321 1_555
C23 H43 1.100781 1_555
C23 H47 1.101089 1_555
C23 O11 1.436321 1_455
C24 H56 1.097320 1_555
C24 H48 1.098081 1_565
C24 H52 1.099656 1_555
C25 H57 1.097315 1_555
C25 H49 1.098078 1_555
C25 H53 1.099663 1_455
C26 H58 1.097320 1_555
C26 H50 1.098081 1_545
C26 H54 1.099656 1_555
C27 H59 1.097315 1_555
C27 H51 1.098078 1_555
C27 H55 1.099663 1_655
O0 V0 2.297581 1_555
O1 V1 2.297581 1_555
O2 V2 2.297581 1_555
O3 V3 2.297581 1_555
O4 V0 1.796450 1_545
O5 V1 1.796443 1_555
O6 V2 1.796450 1_565
O7 V3 1.796443 1_555
O8 V0 1.843549 1_655
O9 V1 1.843549 1_555
O10 V2 1.843549 1_455
O11 V3 1.843549 1_555
O12 V0 1.624142 1_645
O13 V1 1.624142 1_555
O14 V2 1.624142 1_465
O15 V3 1.624142 1_555
O16 V0 2.116975 1_545
O17 V1 2.116973 1_555
O18 V2 2.116975 1_565
O19 V3 2.116973 1_555
O20 V0 2.161094 1_655
O21 V1 2.161094 1_655
O22 V2 2.161094 1_455
O23 V3 2.161094 1_455
