# generated using pymatgen
data_SmSiPt
_symmetry_space_group_name_H-M   'P 1'
_cell_length_a   7.77773468
_cell_length_b   7.77773468
_cell_length_c   7.77773468
_cell_angle_alpha   148.96048378
_cell_angle_beta   148.96048378
_cell_angle_gamma   44.46947526
_symmetry_Int_Tables_number   1
_chemical_formula_structural   SmSiPt
_chemical_formula_sum   'Sm2 Si2 Pt2'
_cell_volume   124.72085830
_cell_formula_units_Z   2
loop_
 _symmetry_equiv_pos_site_id
 _symmetry_equiv_pos_as_xyz
  1  'x, y, z'
loop_
 _atom_site_type_symbol
 _atom_site_label
 _atom_site_symmetry_multiplicity
 _atom_site_fract_x
 _atom_site_fract_y
 _atom_site_fract_z
 _atom_site_occupancy
  Sm  Sm0  1  0.75232139  0.25232139  0.50000000  1
  Sm  Sm1  1  0.00232139  0.00232139  -0.00000000  1
  Si  Si0  1  0.33254564  0.83254564  0.50000000  1
  Si  Si1  1  0.58254564  0.58254564  0.00000000  1
  Pt  Pt0  1  0.16513297  0.66513297  0.50000000  1
  Pt  Pt1  1  0.41513297  0.41513297  -0.00000000  1
loop_
_geom_bond_atom_site_label_1
_geom_bond_atom_site_label_2
_geom_bond_distance
_geom_bond_site_symmetry_2
Si0 Sm0 3.161682 1_465
Si0 Sm0 3.161682 1_555
Si0 Sm0 3.161682 1_454
Si0 Sm0 3.161682 1_566
Si0 Sm1 3.210428 1_565
Si0 Sm1 3.210428 1_666
Si1 Sm1 3.161682 1_565
Si1 Sm1 3.161682 1_666
Si1 Sm1 3.161682 1_554
Si1 Sm1 3.161682 1_655
Si1 Sm0 3.210428 1_554
Si1 Sm0 3.210428 1_565
Pt0 Si1 2.396882 1_455
Pt0 Si1 2.396882 1_556
Pt0 Si0 2.410539 1_555
Pt0 Sm1 3.134747 1_566
Pt0 Sm1 3.134747 1_555
Pt0 Sm0 3.199680 1_555
Pt0 Sm0 3.199680 1_454
Pt0 Sm0 3.199680 1_566
Pt0 Sm0 3.199680 1_465
Pt1 Si0 2.396882 1_544
Pt1 Si0 2.396882 1_555
Pt1 Si1 2.410539 1_555
Pt1 Sm0 3.134747 1_555
Pt1 Sm0 3.134747 1_454
Pt1 Sm1 3.199680 1_554
Pt1 Sm1 3.199680 1_666
Pt1 Sm1 3.199680 1_565
Pt1 Sm1 3.199680 1_655
