# generated using pymatgen
data_Co3PtF6
_symmetry_space_group_name_H-M   'P 1'
_cell_length_a   5.47693100
_cell_length_b   6.59703883
_cell_length_c   12.14651446
_cell_angle_alpha   86.63333713
_cell_angle_beta   85.99189737
_cell_angle_gamma   109.84394713
_symmetry_Int_Tables_number   1
_chemical_formula_structural   Co3PtF6
_chemical_formula_sum   'Co3 Pt1 F6'
_cell_volume   410.20953309
_cell_formula_units_Z   1
loop_
 _symmetry_equiv_pos_site_id
 _symmetry_equiv_pos_as_xyz
  1  'x, y, z'
loop_
 _atom_site_type_symbol
 _atom_site_label
 _atom_site_symmetry_multiplicity
 _atom_site_fract_x
 _atom_site_fract_y
 _atom_site_fract_z
 _atom_site_occupancy
  Co  Co0  1  0.00000000  0.00000000  0.50000000  1
  Co  Co1  1  0.50000000  0.50000000  0.00000000  1
  Co  Co2  1  0.00000000  0.50000000  0.00000000  1
  Pt  Pt0  1  0.00000000  0.00000000  0.00000000  1
  F  F0  1  0.95856200  0.26210400  0.91725600  1
  F  F1  1  0.04143800  0.73789600  0.08274400  1
  F  F2  1  0.93166000  0.96312800  0.64335100  1
  F  F3  1  0.06834000  0.03687200  0.35664900  1
  F  F4  1  0.66725800  0.79085800  0.94874100  1
  F  F5  1  0.33274200  0.20914200  0.05125900  1
loop_
_geom_bond_atom_site_label_1
_geom_bond_atom_site_label_2
_geom_bond_distance
_geom_bond_site_symmetry_2
Co0 F2 1.740238 1_445
Co0 F3 1.740238 1_555
Co1 F5 1.869548 1_555
Co1 F4 1.869548 1_554
Co2 F1 1.870831 1_555
Co2 F0 1.870831 1_454
F0 Pt0 2.036089 1_656
F1 Pt0 2.036089 1_565
F4 Pt0 2.040802 1_666
F5 Pt0 2.040802 1_555
