# generated using pymatgen
data_Tm3Si11Pt23
_symmetry_space_group_name_H-M   'P 1'
_cell_length_a   12.02242607
_cell_length_b   12.02242607
_cell_length_c   12.02242607
_cell_angle_alpha   60.00000000
_cell_angle_beta   60.00000000
_cell_angle_gamma   60.00000000
_symmetry_Int_Tables_number   1
_chemical_formula_structural   Tm3Si11Pt23
_chemical_formula_sum   'Tm6 Si22 Pt46'
_cell_volume   1228.74382267
_cell_formula_units_Z   2
loop_
 _symmetry_equiv_pos_site_id
 _symmetry_equiv_pos_as_xyz
  1  'x, y, z'
loop_
 _atom_site_type_symbol
 _atom_site_label
 _atom_site_symmetry_multiplicity
 _atom_site_fract_x
 _atom_site_fract_y
 _atom_site_fract_z
 _atom_site_occupancy
  Tm  Tm0  1  0.00000000  0.00000000  0.50000000  1
  Tm  Tm1  1  0.50000000  0.00000000  0.50000000  1
  Tm  Tm2  1  0.00000000  0.50000000  0.50000000  1
  Tm  Tm3  1  0.50000000  0.50000000  0.00000000  1
  Tm  Tm4  1  0.00000000  0.50000000  0.00000000  1
  Tm  Tm5  1  0.50000000  0.00000000  0.00000000  1
  Si  Si0  1  0.82771300  0.82771300  0.17228700  1
  Si  Si1  1  0.17228700  0.82771300  0.17228700  1
  Si  Si2  1  0.82771300  0.17228700  0.17228700  1
  Si  Si3  1  0.17228700  0.17228700  0.82771300  1
  Si  Si4  1  0.82771300  0.17228700  0.82771300  1
  Si  Si5  1  0.17228700  0.82771300  0.82771300  1
  Si  Si6  1  0.83483100  0.83483100  0.49550800  1
  Si  Si7  1  0.83483100  0.49550800  0.83483100  1
  Si  Si8  1  0.49550800  0.83483100  0.83483100  1
  Si  Si9  1  0.83483100  0.83483100  0.83483100  1
  Si  Si10  1  0.16516900  0.16516900  0.50449200  1
  Si  Si11  1  0.16516900  0.50449200  0.16516900  1
  Si  Si12  1  0.50449200  0.16516900  0.16516900  1
  Si  Si13  1  0.16516900  0.16516900  0.16516900  1
  Si  Si14  1  0.60654000  0.60654000  0.18037900  1
  Si  Si15  1  0.60654000  0.18037900  0.60654000  1
  Si  Si16  1  0.18037900  0.60654000  0.60654000  1
  Si  Si17  1  0.60654000  0.60654000  0.60654000  1
  Si  Si18  1  0.39346000  0.39346000  0.81962100  1
  Si  Si19  1  0.39346000  0.81962100  0.39346000  1
  Si  Si20  1  0.81962100  0.39346000  0.39346000  1
  Si  Si21  1  0.39346000  0.39346000  0.39346000  1
  Pt  Pt0  1  0.91729100  0.91729100  0.24812800  1
  Pt  Pt1  1  0.91729100  0.24812800  0.91729100  1
  Pt  Pt2  1  0.24812800  0.91729100  0.91729100  1
  Pt  Pt3  1  0.91729100  0.91729100  0.91729100  1
  Pt  Pt4  1  0.08270900  0.08270900  0.75187200  1
  Pt  Pt5  1  0.08270900  0.75187200  0.08270900  1
  Pt  Pt6  1  0.75187200  0.08270900  0.08270900  1
  Pt  Pt7  1  0.08270900  0.08270900  0.08270900  1
  Pt  Pt8  1  0.69193900  0.69193900  0.92418300  1
  Pt  Pt9  1  0.69193900  0.92418300  0.69193900  1
  Pt  Pt10  1  0.92418300  0.69193900  0.69193900  1
  Pt  Pt11  1  0.69193900  0.69193900  0.69193900  1
  Pt  Pt12  1  0.30806100  0.30806100  0.07581700  1
  Pt  Pt13  1  0.30806100  0.07581700  0.30806100  1
  Pt  Pt14  1  0.07581700  0.30806100  0.30806100  1
  Pt  Pt15  1  0.30806100  0.30806100  0.30806100  1
  Pt  Pt16  1  0.62502700  0.62502700  0.37497300  1
  Pt  Pt17  1  0.37497300  0.62502700  0.37497300  1
  Pt  Pt18  1  0.62502700  0.37497300  0.37497300  1
  Pt  Pt19  1  0.37497300  0.37497300  0.62502700  1
  Pt  Pt20  1  0.62502700  0.37497300  0.62502700  1
  Pt  Pt21  1  0.37497300  0.62502700  0.62502700  1
  Pt  Pt22  1  0.74784800  0.08215100  0.42215400  1
  Pt  Pt23  1  0.74784800  0.74784800  0.42215400  1
  Pt  Pt24  1  0.08215100  0.74784800  0.42215400  1
  Pt  Pt25  1  0.74784800  0.42215400  0.08215100  1
  Pt  Pt26  1  0.08215100  0.42215400  0.74784800  1
  Pt  Pt27  1  0.74784800  0.42215400  0.74784800  1
  Pt  Pt28  1  0.42215400  0.74784800  0.74784800  1
  Pt  Pt29  1  0.42215400  0.08215100  0.74784800  1
  Pt  Pt30  1  0.42215400  0.74784800  0.08215100  1
  Pt  Pt31  1  0.08215100  0.74784800  0.74784800  1
  Pt  Pt32  1  0.74784800  0.74784800  0.08215100  1
  Pt  Pt33  1  0.74784800  0.08215100  0.74784800  1
  Pt  Pt34  1  0.25215200  0.91784900  0.57784600  1
  Pt  Pt35  1  0.25215200  0.25215200  0.57784600  1
  Pt  Pt36  1  0.91784900  0.25215200  0.57784600  1
  Pt  Pt37  1  0.25215200  0.57784600  0.91784900  1
  Pt  Pt38  1  0.91784900  0.57784600  0.25215200  1
  Pt  Pt39  1  0.25215200  0.57784600  0.25215200  1
  Pt  Pt40  1  0.57784600  0.25215200  0.25215200  1
  Pt  Pt41  1  0.57784600  0.91784900  0.25215200  1
  Pt  Pt42  1  0.57784600  0.25215200  0.91784900  1
  Pt  Pt43  1  0.91784900  0.25215200  0.25215200  1
  Pt  Pt44  1  0.25215200  0.25215200  0.91784900  1
  Pt  Pt45  1  0.25215200  0.91784900  0.25215200  1
loop_
_geom_bond_atom_site_label_1
_geom_bond_atom_site_label_2
_geom_bond_distance
_geom_bond_site_symmetry_2
Pt0 Si6 2.428349 1_555
Pt0 Si2 2.504925 1_565
Pt0 Si1 2.504925 1_655
Pt0 Si0 2.504935 1_555
Pt1 Si7 2.428349 1_555
Pt1 Si3 2.504925 1_655
Pt1 Si2 2.504925 1_556
Pt1 Si4 2.504935 1_555
Pt2 Si8 2.428349 1_555
Pt2 Si1 2.504925 1_556
Pt2 Si3 2.504925 1_565
Pt2 Si5 2.504935 1_555
Pt3 Si9 2.428349 1_555
Pt3 Si4 2.504925 1_565
Pt3 Si0 2.504925 1_556
Pt3 Si5 2.504925 1_655
Pt4 Si10 2.428349 1_555
Pt4 Si5 2.504925 1_545
Pt4 Si4 2.504925 1_455
Pt4 Si3 2.504935 1_555
Pt5 Si11 2.428349 1_555
Pt5 Si0 2.504925 1_455
Pt5 Si5 2.504925 1_554
Pt5 Si1 2.504935 1_555
Pt6 Si12 2.428349 1_555
Pt6 Si0 2.504925 1_545
Pt6 Si4 2.504925 1_554
Pt6 Si2 2.504935 1_555
Pt7 Si13 2.428349 1_555
Pt7 Si1 2.504925 1_545
Pt7 Si3 2.504925 1_554
Pt7 Si2 2.504925 1_455
Pt8 Si8 2.513304 1_555
Pt8 Si7 2.513304 1_555
Pt8 Si9 2.513313 1_555
Pt8 Si14 2.514889 1_556
Pt9 Si6 2.513304 1_555
Pt9 Si8 2.513304 1_555
Pt9 Si9 2.513313 1_555
Pt9 Si15 2.514889 1_565
Pt10 Si7 2.513304 1_555
Pt10 Si6 2.513304 1_555
Pt10 Si9 2.513313 1_555
Pt10 Si16 2.514889 1_655
Pt11 Si7 2.513310 1_555
Pt11 Si6 2.513310 1_555
Pt11 Si8 2.513310 1_555
Pt11 Si17 2.514899 1_555
Pt12 Si12 2.513304 1_555
Pt12 Si11 2.513304 1_555
Pt12 Si13 2.513313 1_555
Pt12 Si18 2.514889 1_554
Pt13 Si12 2.513304 1_555
Pt13 Si10 2.513304 1_555
Pt13 Si13 2.513313 1_555
Pt13 Si19 2.514889 1_545
Pt14 Si11 2.513304 1_555
Pt14 Si10 2.513304 1_555
Pt14 Si13 2.513313 1_555
Pt14 Si20 2.514889 1_455
Pt15 Si10 2.513310 1_555
Pt15 Si11 2.513310 1_555
Pt15 Si12 2.513310 1_555
Pt15 Si21 2.514899 1_555
Pt16 Si17 2.580950 1_555
Pt16 Si20 2.580955 1_555
Pt16 Si19 2.580955 1_555
Pt16 Si14 2.580962 1_555
Pt17 Si21 2.580950 1_555
Pt17 Si14 2.580955 1_555
Pt17 Si16 2.580955 1_555
Pt17 Si19 2.580962 1_555
Pt18 Si21 2.580950 1_555
Pt18 Si15 2.580955 1_555
Pt18 Si14 2.580955 1_555
Pt18 Si20 2.580962 1_555
Pt19 Si21 2.580950 1_555
Pt19 Si15 2.580955 1_555
Pt19 Si16 2.580955 1_555
Pt19 Si18 2.580962 1_555
Pt20 Si17 2.580950 1_555
Pt20 Si18 2.580955 1_555
Pt20 Si20 2.580955 1_555
Pt20 Si15 2.580962 1_555
Pt21 Si17 2.580950 1_555
Pt21 Si18 2.580955 1_555
Pt21 Si19 2.580955 1_555
Pt21 Si16 2.580962 1_555
Pt22 Si6 2.429602 1_545
Pt22 Si2 2.453798 1_555
Pt22 Si15 2.457730 1_555
Pt22 Tm0 3.155945 1_655
Pt22 Tm1 3.155956 1_555
Pt23 Si6 2.429602 1_555
Pt23 Si0 2.453798 1_555
Pt23 Si17 2.457744 1_555
Pt23 Tm2 3.155948 1_655
Pt23 Tm1 3.155948 1_565
Pt24 Si6 2.429602 1_455
Pt24 Si1 2.453798 1_555
Pt24 Si16 2.457730 1_555
Pt24 Tm0 3.155945 1_565
Pt24 Tm2 3.155956 1_555
Pt25 Si7 2.429602 1_554
Pt25 Si2 2.453798 1_555
Pt25 Si14 2.457730 1_555
Pt25 Tm4 3.155945 1_655
Pt25 Tm3 3.155956 1_555
Pt26 Si7 2.429602 1_455
Pt26 Si3 2.453798 1_555
Pt26 Si16 2.457730 1_555
Pt26 Tm4 3.155945 1_556
Pt26 Tm2 3.155956 1_555
Pt27 Si7 2.429602 1_555
Pt27 Si4 2.453798 1_555
Pt27 Si17 2.457744 1_555
Pt27 Tm3 3.155948 1_556
Pt27 Tm2 3.155948 1_655
Pt28 Si8 2.429602 1_555
Pt28 Si5 2.453798 1_555
Pt28 Si17 2.457744 1_555
Pt28 Tm3 3.155948 1_556
Pt28 Tm1 3.155948 1_565
Pt29 Si8 2.429602 1_545
Pt29 Si3 2.453798 1_555
Pt29 Si15 2.457730 1_555
Pt29 Tm5 3.155945 1_556
Pt29 Tm1 3.155956 1_555
Pt30 Si8 2.429602 1_554
Pt30 Si1 2.453798 1_555
Pt30 Si14 2.457730 1_555
Pt30 Tm5 3.155945 1_565
Pt30 Tm3 3.155956 1_555
Pt31 Si9 2.429602 1_455
Pt31 Si5 2.453788 1_555
Pt31 Si16 2.457749 1_555
Pt31 Tm0 3.155952 1_565
Pt31 Tm4 3.155952 1_556
Pt32 Si9 2.429602 1_554
Pt32 Si0 2.453788 1_555
Pt32 Si14 2.457749 1_555
Pt32 Tm4 3.155952 1_655
Pt32 Tm5 3.155952 1_565
Pt33 Si9 2.429602 1_545
Pt33 Si4 2.453788 1_555
Pt33 Si15 2.457749 1_555
Pt33 Tm5 3.155952 1_556
Pt33 Tm0 3.155952 1_655
Pt34 Si10 2.429602 1_565
Pt34 Si5 2.453798 1_555
Pt34 Si19 2.457730 1_555
Pt34 Tm0 3.155945 1_565
Pt34 Tm1 3.155956 1_565
Pt35 Si10 2.429602 1_555
Pt35 Si3 2.453798 1_555
Pt35 Si21 2.457744 1_555
Pt35 Tm2 3.155948 1_555
Pt35 Tm1 3.155948 1_555
Pt36 Si10 2.429602 1_655
Pt36 Si4 2.453798 1_555
Pt36 Si20 2.457730 1_555
Pt36 Tm0 3.155945 1_655
Pt36 Tm2 3.155956 1_655
Pt37 Si11 2.429602 1_556
Pt37 Si5 2.453798 1_555
Pt37 Si18 2.457730 1_555
Pt37 Tm4 3.155945 1_556
Pt37 Tm3 3.155956 1_556
Pt38 Si11 2.429602 1_655
Pt38 Si0 2.453798 1_555
Pt38 Si20 2.457730 1_555
Pt38 Tm4 3.155945 1_655
Pt38 Tm2 3.155956 1_655
Pt39 Si11 2.429602 1_555
Pt39 Si1 2.453798 1_555
Pt39 Si21 2.457744 1_555
Pt39 Tm2 3.155948 1_555
Pt39 Tm3 3.155948 1_555
Pt40 Si12 2.429602 1_555
Pt40 Si2 2.453798 1_555
Pt40 Si21 2.457744 1_555
Pt40 Tm1 3.155948 1_555
Pt40 Tm3 3.155948 1_555
Pt41 Si12 2.429602 1_565
Pt41 Si0 2.453798 1_555
Pt41 Si19 2.457730 1_555
Pt41 Tm5 3.155945 1_565
Pt41 Tm1 3.155956 1_565
Pt42 Si12 2.429602 1_556
Pt42 Si4 2.453798 1_555
Pt42 Si18 2.457730 1_555
Pt42 Tm5 3.155945 1_556
Pt42 Tm3 3.155956 1_556
Pt43 Si13 2.429602 1_655
Pt43 Si2 2.453788 1_555
Pt43 Si20 2.457749 1_555
Pt43 Tm0 3.155952 1_655
Pt43 Tm4 3.155952 1_655
Pt44 Si13 2.429602 1_556
Pt44 Si3 2.453788 1_555
Pt44 Si18 2.457749 1_555
Pt44 Tm4 3.155952 1_556
Pt44 Tm5 3.155952 1_556
Pt45 Si13 2.429602 1_565
Pt45 Si1 2.453788 1_555
Pt45 Si19 2.457749 1_555
Pt45 Tm0 3.155952 1_565
Pt45 Tm5 3.155952 1_565
