# generated using pymatgen
data_Er3Co6Sn5
_symmetry_space_group_name_H-M   'P 1'
_cell_length_a   4.31305800
_cell_length_b   8.09040464
_cell_length_c   8.09040464
_cell_angle_alpha   72.77490991
_cell_angle_beta   74.54069308
_cell_angle_gamma   74.54069308
_symmetry_Int_Tables_number   1
_chemical_formula_structural   Er3Co6Sn5
_chemical_formula_sum   'Er3 Co6 Sn5'
_cell_volume   254.43721351
_cell_formula_units_Z   1
loop_
 _symmetry_equiv_pos_site_id
 _symmetry_equiv_pos_as_xyz
  1  'x, y, z'
loop_
 _atom_site_type_symbol
 _atom_site_label
 _atom_site_symmetry_multiplicity
 _atom_site_fract_x
 _atom_site_fract_y
 _atom_site_fract_z
 _atom_site_occupancy
  Er  Er0  1  0.00000000  0.00000000  0.00000000  1
  Er  Er1  1  0.68293200  0.31706800  0.31706800  1
  Er  Er2  1  0.31706800  0.68293200  0.68293200  1
  Co  Co0  1  0.50000000  0.30422400  0.69577600  1
  Co  Co1  1  0.50000000  0.69577600  0.30422400  1
  Co  Co2  1  0.89200900  0.83467700  0.38130500  1
  Co  Co3  1  0.10799100  0.16532300  0.61869500  1
  Co  Co4  1  0.89200900  0.38130500  0.83467700  1
  Co  Co5  1  0.10799100  0.61869500  0.16532300  1
  Sn  Sn0  1  0.67678900  0.98093000  0.66549200  1
  Sn  Sn1  1  0.32321100  0.01907000  0.33450800  1
  Sn  Sn2  1  0.67678900  0.66549200  0.98093000  1
  Sn  Sn3  1  0.32321100  0.33450800  0.01907000  1
  Sn  Sn4  1  0.00000000  0.50000000  0.50000000  1
loop_
_geom_bond_atom_site_label_1
_geom_bond_atom_site_label_2
_geom_bond_distance
_geom_bond_site_symmetry_2
Er0 Sn1 3.415317 1_555
Er0 Sn3 3.415317 1_455
Er0 Sn1 3.415317 1_455
Er0 Sn2 3.415317 1_544
Er0 Sn2 3.415317 1_444
Er0 Sn3 3.415317 1_555
Er0 Sn0 3.415317 1_444
Er0 Sn0 3.415317 1_544
Er1 Sn4 3.115466 1_655
Er1 Sn4 3.115466 1_555
Er1 Sn1 3.148897 1_555
Er1 Sn3 3.148897 1_555
Er1 Sn3 3.148897 1_655
Er1 Sn1 3.148897 1_655
Er1 Sn2 3.286473 1_554
Er1 Sn0 3.286473 1_545
Er2 Sn4 3.115466 1_655
Er2 Sn4 3.115466 1_555
Er2 Sn0 3.148897 1_555
Er2 Sn0 3.148897 1_455
Er2 Sn2 3.148897 1_455
Er2 Sn2 3.148897 1_555
Er2 Sn1 3.286473 1_565
Er2 Sn3 3.286473 1_556
Co0 Co4 2.549602 1_455
Co0 Co3 2.549602 1_655
Co0 Co3 2.549602 1_555
Co0 Co4 2.549602 1_555
Co0 Sn3 2.588323 1_556
Co0 Sn0 2.588323 1_545
Co0 Sn4 2.860475 1_555
Co0 Sn4 2.860475 1_655
Co0 Er1 2.930394 1_555
Co0 Er2 2.930394 1_555
Co1 Co5 2.549602 1_555
Co1 Co5 2.549602 1_655
Co1 Co2 2.549602 1_455
Co1 Co2 2.549602 1_555
Co1 Sn1 2.588323 1_565
Co1 Sn2 2.588323 1_554
Co1 Sn4 2.860475 1_555
Co1 Sn4 2.860475 1_655
Co1 Er1 2.930394 1_555
Co1 Er2 2.930394 1_555
Co2 Sn4 2.548874 1_655
Co2 Sn1 2.568445 1_665
Co2 Sn1 2.568445 1_565
Co2 Co5 2.654668 1_655
Co2 Sn0 2.726885 1_555
Co2 Er0 2.940237 1_665
Co2 Er2 3.199063 1_555
Co2 Er2 3.199063 1_655
Co3 Sn4 2.548874 1_555
Co3 Sn0 2.568445 1_545
Co3 Sn0 2.568445 1_445
Co3 Co4 2.654668 1_455
Co3 Sn1 2.726885 1_555
Co3 Er0 2.940237 1_556
Co3 Er1 3.199063 1_455
Co3 Er1 3.199063 1_555
Co4 Sn4 2.548874 1_655
Co4 Sn3 2.568445 1_656
Co4 Sn3 2.568445 1_556
Co4 Sn2 2.726885 1_555
Co4 Er0 2.940237 1_656
Co4 Er2 3.199063 1_555
Co4 Er2 3.199063 1_655
Co5 Sn4 2.548874 1_555
Co5 Sn2 2.568445 1_454
Co5 Sn2 2.568445 1_554
Co5 Sn3 2.726885 1_555
Co5 Er0 2.940237 1_565
Co5 Er1 3.199063 1_455
Co5 Er1 3.199063 1_555
Sn0 Sn2 3.027935 1_555
Sn1 Sn3 3.027935 1_555
