# generated using pymatgen
data_Tb9Al5S21
_symmetry_space_group_name_H-M   'P 1'
_cell_length_a   11.41564171
_cell_length_b   11.41564165
_cell_length_c   11.41564134
_cell_angle_alpha   94.14178904
_cell_angle_beta   94.14178844
_cell_angle_gamma   94.14178514
_symmetry_Int_Tables_number   1
_chemical_formula_structural   Tb9Al5S21
_chemical_formula_sum   'Tb18 Al10 S42'
_cell_volume   1475.39942814
_cell_formula_units_Z   2
loop_
 _symmetry_equiv_pos_site_id
 _symmetry_equiv_pos_as_xyz
  1  'x, y, z'
loop_
 _atom_site_type_symbol
 _atom_site_label
 _atom_site_symmetry_multiplicity
 _atom_site_fract_x
 _atom_site_fract_y
 _atom_site_fract_z
 _atom_site_occupancy
  Tb  Tb0  1  0.11456667  0.88232572  0.73738602  1
  Tb  Tb1  1  0.45358930  0.22510047  0.06907754  1
  Tb  Tb2  1  0.76615664  0.55224977  0.39650980  1
  Tb  Tb3  1  0.39650980  0.76615664  0.55224977  1
  Tb  Tb4  1  0.73738602  0.11456667  0.88232572  1
  Tb  Tb5  1  0.06907754  0.45358930  0.22510047  1
  Tb  Tb6  1  0.22510047  0.06907754  0.45358930  1
  Tb  Tb7  1  0.55224977  0.39650980  0.76615664  1
  Tb  Tb8  1  0.88232572  0.73738602  0.11456667  1
  Tb  Tb9  1  0.20859049  0.43258447  0.58584700  1
  Tb  Tb10  1  0.54635540  0.77395792  0.93050470  1
  Tb  Tb11  1  0.87513962  0.09838694  0.24553064  1
  Tb  Tb12  1  0.93050470  0.54635540  0.77395792  1
  Tb  Tb13  1  0.24553064  0.87513962  0.09838694  1
  Tb  Tb14  1  0.58584700  0.20859049  0.43258447  1
  Tb  Tb15  1  0.09838694  0.24553064  0.87513962  1
  Tb  Tb16  1  0.43258447  0.58584700  0.20859049  1
  Tb  Tb17  1  0.77395792  0.93050470  0.54635540  1
  Al  Al0  1  0.72038936  0.38753986  0.04728671  1
  Al  Al1  1  0.04728671  0.72038936  0.38753986  1
  Al  Al2  1  0.38753986  0.04728671  0.72038936  1
  Al  Al3  1  0.88306588  0.22412479  0.54798698  1
  Al  Al4  1  0.22412479  0.54798698  0.88306588  1
  Al  Al5  1  0.54798698  0.88306588  0.22412479  1
  Al  Al6  1  0.86015914  0.86015914  0.86015914  1
  Al  Al7  1  0.17652430  0.17652430  0.17652430  1
  Al  Al8  1  0.67764602  0.67764602  0.67764602  1
  Al  Al9  1  0.35872026  0.35872026  0.35872026  1
  S  S0  1  0.83929352  0.50867914  0.17156010  1
  S  S1  1  0.17156010  0.83929352  0.50867914  1
  S  S2  1  0.50867914  0.17156010  0.83929352  1
  S  S3  1  0.67260035  0.00753758  0.33917098  1
  S  S4  1  0.00753758  0.33917098  0.67260035  1
  S  S5  1  0.33917098  0.67260035  0.00753758  1
  S  S6  1  0.54053313  0.44759322  0.00753795  1
  S  S7  1  0.86880846  0.78384169  0.35320625  1
  S  S8  1  0.20507713  0.10673467  0.69096288  1
  S  S9  1  0.69096288  0.20507713  0.10673467  1
  S  S10  1  0.00753795  0.54053313  0.44759322  1
  S  S11  1  0.35320625  0.86880846  0.78384169  1
  S  S12  1  0.78384169  0.35320625  0.86880846  1
  S  S13  1  0.10673467  0.69096288  0.20507713  1
  S  S14  1  0.44759322  0.00753795  0.54053313  1
  S  S15  1  0.96307014  0.06308016  0.47750701  1
  S  S16  1  0.29785972  0.38376541  0.81323837  1
  S  S17  1  0.62839511  0.71851693  0.15911269  1
  S  S18  1  0.81323837  0.29785972  0.38376541  1
  S  S19  1  0.15911269  0.62839511  0.71851693  1
  S  S20  1  0.47750701  0.96307014  0.06308016  1
  S  S21  1  0.71851693  0.15911269  0.62839511  1
  S  S22  1  0.06308016  0.47750701  0.96307014  1
  S  S23  1  0.38376541  0.81323837  0.29785972  1
  S  S24  1  0.55503999  0.41360416  0.31174995  1
  S  S25  1  0.89359826  0.76329466  0.66689522  1
  S  S26  1  0.23817511  0.10244379  0.99958634  1
  S  S27  1  0.99958634  0.23817511  0.10244379  1
  S  S28  1  0.31174995  0.55503999  0.41360416  1
  S  S29  1  0.66689522  0.89359826  0.76329466  1
  S  S30  1  0.76329466  0.66689522  0.89359826  1
  S  S31  1  0.10244379  0.99958634  0.23817511  1
  S  S32  1  0.41360416  0.31174995  0.55503999  1
  S  S33  1  0.15414598  0.28478510  0.38055594  1
  S  S34  1  0.49060445  0.62257146  0.72910970  1
  S  S35  1  0.79862235  0.94345810  0.04212742  1
  S  S36  1  0.72910970  0.49060445  0.62257146  1
  S  S37  1  0.04212742  0.79862235  0.94345810  1
  S  S38  1  0.38055594  0.15414598  0.28478510  1
  S  S39  1  0.94345810  0.04212742  0.79862235  1
  S  S40  1  0.28478510  0.38055594  0.15414598  1
  S  S41  1  0.62257146  0.72910970  0.49060445  1
loop_
_geom_bond_atom_site_label_1
_geom_bond_atom_site_label_2
_geom_bond_distance
_geom_bond_site_symmetry_2
Al0 S0 2.221422 1_555
Al0 S12 2.228972 1_554
Al0 S6 2.237202 1_555
Al0 S9 2.246782 1_555
Al1 S1 2.221422 1_555
Al1 S7 2.228972 1_455
Al1 S10 2.237202 1_555
Al1 S13 2.246782 1_555
Al2 S2 2.221422 1_555
Al2 S11 2.228972 1_545
Al2 S14 2.237202 1_555
Al2 S8 2.246782 1_555
Al3 S4 2.221725 1_655
Al3 S18 2.228767 1_555
Al3 S15 2.235238 1_555
Al3 S21 2.251211 1_555
Al4 S5 2.221725 1_556
Al4 S16 2.228767 1_555
Al4 S22 2.235238 1_555
Al4 S19 2.251211 1_555
Al5 S3 2.221725 1_565
Al5 S23 2.228767 1_555
Al5 S20 2.235238 1_555
Al5 S17 2.251211 1_555
Al6 S35 2.394738 1_556
Al6 S37 2.394738 1_655
Al6 S39 2.394738 1_565
Al6 S25 2.462952 1_555
Al6 S29 2.462952 1_555
Al6 S30 2.462952 1_555
Al7 S26 2.309738 1_554
Al7 S27 2.309738 1_455
Al7 S31 2.309738 1_545
Al7 S33 2.594866 1_555
Al7 S38 2.594866 1_555
Al7 S40 2.594866 1_555
Al8 S41 2.310875 1_555
Al8 S36 2.310875 1_555
Al8 S34 2.310875 1_555
Al8 S30 2.600243 1_555
Al8 S29 2.600243 1_555
Al8 S25 2.600243 1_555
Al9 S32 2.392056 1_555
Al9 S28 2.392056 1_555
Al9 S24 2.392056 1_555
Al9 S40 2.461321 1_555
Al9 S38 2.461321 1_555
Al9 S33 2.461321 1_555
S0 Tb8 2.754516 1_555
S0 Tb5 2.777068 1_655
S0 Tb2 2.779206 1_555
S1 Tb0 2.754516 1_555
S1 Tb6 2.777068 1_565
S1 Tb3 2.779206 1_555
S2 Tb4 2.754516 1_555
S2 Tb1 2.777068 1_556
S2 Tb7 2.779206 1_555
S3 Tb14 2.740983 1_555
S3 Tb11 2.781174 1_555
S3 Tb17 2.785339 1_545
S4 Tb9 2.740983 1_555
S4 Tb15 2.781174 1_555
S4 Tb12 2.785339 1_455
S5 Tb16 2.740983 1_555
S5 Tb13 2.781174 1_555
S5 Tb10 2.785339 1_554
S6 Tb7 2.789847 1_554
S6 Tb1 2.814964 1_555
S6 Tb16 3.073010 1_555
S7 Tb8 2.755050 1_555
S7 Tb2 2.903797 1_555
S7 Tb17 2.985078 1_555
S8 Tb6 2.741406 1_555
S8 Tb0 2.793556 1_545
S8 Tb15 2.929465 1_555
S9 Tb1 2.741406 1_555
S9 Tb4 2.793556 1_554
S9 Tb11 2.929465 1_555
S10 Tb2 2.789848 1_455
S10 Tb5 2.814963 1_555
S10 Tb9 3.073010 1_555
S11 Tb0 2.755050 1_555
S11 Tb3 2.903797 1_555
S11 Tb10 2.985078 1_555
S12 Tb4 2.755050 1_555
S12 Tb7 2.903797 1_555
S12 Tb12 2.985078 1_555
S13 Tb5 2.741406 1_555
S13 Tb8 2.793556 1_455
S13 Tb13 2.929465 1_555
S14 Tb3 2.789848 1_545
S14 Tb6 2.814963 1_555
S14 Tb14 3.073010 1_555
S15 Tb17 2.741119 1_545
S15 Tb11 2.830445 1_555
S15 Tb6 3.019581 1_655
S16 Tb9 2.827763 1_555
S16 Tb15 2.837116 1_555
S16 Tb7 2.986491 1_555
S17 Tb16 2.725120 1_555
S17 Tb10 2.838905 1_554
S17 Tb8 2.974304 1_555
S18 Tb14 2.827763 1_555
S18 Tb11 2.837116 1_555
S18 Tb2 2.986491 1_555
S19 Tb9 2.725119 1_555
S19 Tb12 2.838905 1_455
S19 Tb0 2.974304 1_555
S20 Tb10 2.741119 1_554
S20 Tb13 2.830445 1_555
S20 Tb1 3.019581 1_565
S21 Tb14 2.725119 1_555
S21 Tb17 2.838905 1_545
S21 Tb4 2.974304 1_555
S22 Tb12 2.741119 1_455
S22 Tb15 2.830445 1_555
S22 Tb5 3.019581 1_556
S23 Tb16 2.827763 1_555
S23 Tb13 2.837116 1_555
S23 Tb3 2.986491 1_555
S24 Tb16 2.775045 1_555
S24 Tb14 2.831762 1_555
S24 Tb2 2.853149 1_555
S24 Tb1 3.458568 1_555
S25 Tb17 2.808361 1_555
S25 Tb0 2.812585 1_655
S25 Tb12 2.884069 1_555
S26 Tb15 2.759898 1_555
S26 Tb1 2.774418 1_556
S26 Tb13 2.907369 1_546
S27 Tb11 2.759898 1_555
S27 Tb5 2.774418 1_655
S27 Tb15 2.907369 1_654
S28 Tb9 2.775045 1_555
S28 Tb16 2.831762 1_555
S28 Tb3 2.853149 1_555
S28 Tb5 3.458568 1_555
S29 Tb10 2.808361 1_555
S29 Tb4 2.812584 1_565
S29 Tb17 2.884069 1_555
S30 Tb12 2.808361 1_555
S30 Tb8 2.812584 1_556
S30 Tb10 2.884069 1_555
S31 Tb13 2.759898 1_555
S31 Tb6 2.774418 1_565
S31 Tb11 2.907369 1_465
S32 Tb14 2.775045 1_555
S32 Tb9 2.831762 1_555
S32 Tb7 2.853149 1_555
S32 Tb6 3.458568 1_555
S33 Tb9 2.791434 1_555
S33 Tb6 2.811034 1_555
S33 Tb5 2.884625 1_555
S34 Tb7 2.776827 1_555
S34 Tb10 2.780849 1_555
S34 Tb3 2.887185 1_555
S35 Tb8 2.760874 1_555
S35 Tb4 2.856521 1_564
S35 Tb11 2.858884 1_565
S35 Tb10 3.459739 1_554
S36 Tb2 2.776827 1_555
S36 Tb12 2.780849 1_555
S36 Tb7 2.887185 1_555
S37 Tb0 2.760874 1_555
S37 Tb8 2.856521 1_456
S37 Tb13 2.858884 1_556
S37 Tb12 3.459739 1_455
S38 Tb14 2.791434 1_555
S38 Tb1 2.811034 1_555
S38 Tb6 2.884625 1_555
S39 Tb4 2.760874 1_555
S39 Tb0 2.856521 1_645
S39 Tb15 2.858884 1_655
S39 Tb17 3.459739 1_545
S40 Tb16 2.791434 1_555
S40 Tb5 2.811034 1_555
S40 Tb1 2.884625 1_555
S41 Tb3 2.776827 1_555
S41 Tb17 2.780849 1_555
S41 Tb2 2.887185 1_555
