# generated using pymatgen
data_USiPt
_symmetry_space_group_name_H-M   'P 1'
_cell_length_a   4.30408000
_cell_length_b   5.63792742
_cell_length_c   5.47728389
_cell_angle_alpha   94.16589135
_cell_angle_beta   113.13523910
_cell_angle_gamma   67.56050169
_symmetry_Int_Tables_number   1
_chemical_formula_structural   USiPt
_chemical_formula_sum   'U2 Si2 Pt2'
_cell_volume   112.50056053
_cell_formula_units_Z   2
loop_
 _symmetry_equiv_pos_site_id
 _symmetry_equiv_pos_as_xyz
  1  'x, y, z'
loop_
 _atom_site_type_symbol
 _atom_site_label
 _atom_site_symmetry_multiplicity
 _atom_site_fract_x
 _atom_site_fract_y
 _atom_site_fract_z
 _atom_site_occupancy
  U  U0  1  0.76872500  0.67706400  0.21451400  1
  U  U1  1  0.23127500  0.32293600  0.78548600  1
  Si  Si0  1  0.06348200  0.08905700  0.21602200  1
  Si  Si1  1  0.93651800  0.91094300  0.78397800  1
  Pt  Pt0  1  0.54961300  0.27106100  0.37028700  1
  Pt  Pt1  1  0.45038700  0.72893900  0.62971300  1
loop_
_geom_bond_atom_site_label_1
_geom_bond_atom_site_label_2
_geom_bond_distance
_geom_bond_site_symmetry_2
Si0 Si1 2.442233 1_444
Si0 U0 3.040317 1_445
Si0 U0 3.040320 1_545
Si0 U0 3.063447 1_455
Si0 U1 3.215310 1_454
Si0 U1 3.215313 1_554
Si0 U1 3.216902 1_555
Si1 U1 3.040317 1_665
Si1 U1 3.040320 1_565
Si1 U1 3.063447 1_655
Si1 U0 3.215310 1_656
Si1 U0 3.215313 1_556
Si1 U0 3.216902 1_555
Pt0 Si0 2.503720 1_655
Pt0 Si0 2.503724 1_555
Pt0 Si1 2.674285 1_545
Pt0 Pt1 2.822732 1_555
Pt0 U1 2.933311 1_554
Pt0 U1 3.029958 1_555
Pt0 U1 3.029958 1_655
Pt0 U0 3.069364 1_555
Pt0 U0 3.069364 1_455
Pt0 U0 3.261695 1_545
Pt1 Si1 2.503720 1_455
Pt1 Si1 2.503724 1_555
Pt1 Si0 2.674285 1_565
Pt1 U0 2.933311 1_556
Pt1 U0 3.029958 1_455
Pt1 U0 3.029958 1_555
Pt1 U1 3.069364 1_555
Pt1 U1 3.069364 1_655
Pt1 U1 3.261695 1_565
