# generated using pymatgen
data_TiB2Mo
_symmetry_space_group_name_H-M   'P 1'
_cell_length_a   4.50161449
_cell_length_b   4.50161449
_cell_length_c   3.07636519
_cell_angle_alpha   90.00000000
_cell_angle_beta   90.00000000
_cell_angle_gamma   138.75482453
_symmetry_Int_Tables_number   1
_chemical_formula_structural   TiB2Mo
_chemical_formula_sum   'Ti1 B2 Mo1'
_cell_volume   41.10039922
_cell_formula_units_Z   1
loop_
 _symmetry_equiv_pos_site_id
 _symmetry_equiv_pos_as_xyz
  1  'x, y, z'
loop_
 _atom_site_type_symbol
 _atom_site_label
 _atom_site_symmetry_multiplicity
 _atom_site_fract_x
 _atom_site_fract_y
 _atom_site_fract_z
 _atom_site_occupancy
  Ti  Ti0  1  0.85270073  0.14729927  0.00000000  1
  B  B0  1  0.44125463  0.55874537  0.50000000  1
  B  B1  1  0.56006372  0.43993628  -0.00000000  1
  Mo  Mo0  1  0.14598092  0.85401908  0.50000000  1
loop_
_geom_bond_atom_site_label_1
_geom_bond_atom_site_label_2
_geom_bond_distance
_geom_bond_site_symmetry_2
B0 B1 1.835280 1_555
B0 B1 1.835280 1_556
B0 Ti0 2.331664 1_566
B0 Ti0 2.331664 1_565
B0 Ti0 2.331664 1_456
B0 Ti0 2.331664 1_455
B0 Mo0 2.343030 1_545
B0 Mo0 2.343030 1_655
B0 Mo0 2.488067 1_555
B1 Mo0 2.324649 1_545
B1 Mo0 2.324649 1_654
B1 Mo0 2.324649 1_655
B1 Mo0 2.324649 1_544
B1 Ti0 2.359436 1_565
B1 Ti0 2.359436 1_455
B1 Ti0 2.465850 1_555
Mo0 Ti0 2.813189 1_565
Mo0 Ti0 2.813189 1_566
Mo0 Ti0 2.813189 1_455
Mo0 Ti0 2.813189 1_456
