# generated using pymatgen
data_Eu2CoSi3
_symmetry_space_group_name_H-M   'P 1'
_cell_length_a   4.00737094
_cell_length_b   4.00678301
_cell_length_c   8.77420100
_cell_angle_alpha   90.00000000
_cell_angle_beta   90.00000000
_cell_angle_gamma   59.99502264
_symmetry_Int_Tables_number   1
_chemical_formula_structural   Eu2CoSi3
_chemical_formula_sum   'Eu2 Co1 Si3'
_cell_volume   122.00336105
_cell_formula_units_Z   1
loop_
 _symmetry_equiv_pos_site_id
 _symmetry_equiv_pos_as_xyz
  1  'x, y, z'
loop_
 _atom_site_type_symbol
 _atom_site_label
 _atom_site_symmetry_multiplicity
 _atom_site_fract_x
 _atom_site_fract_y
 _atom_site_fract_z
 _atom_site_occupancy
  Eu  Eu0  1  0.99997400  0.99998700  0.01022400  1
  Eu  Eu1  1  0.99997400  0.99998700  0.48977600  1
  Co  Co0  1  0.66660900  0.66671800  0.25000000  1
  Si  Si0  1  0.66654600  0.66676800  0.75000000  1
  Si  Si1  1  0.33329200  0.33331000  0.25000000  1
  Si  Si2  1  0.33340500  0.33323000  0.75000000  1
loop_
_geom_bond_atom_site_label_1
_geom_bond_atom_site_label_2
_geom_bond_distance
_geom_bond_site_symmetry_2
Eu0 Si1 3.126855 1_655
Eu0 Si1 3.127017 1_665
Eu0 Si1 3.127119 1_565
Eu0 Si2 3.250257 1_564
Eu0 Si0 3.250264 1_654
Eu0 Si0 3.250452 1_554
Eu0 Si2 3.250479 1_654
Eu0 Si2 3.250519 1_664
Eu0 Si0 3.250539 1_564
Eu1 Si1 3.126855 1_655
Eu1 Si1 3.127017 1_665
Eu1 Si1 3.127119 1_565
Eu1 Si2 3.250257 1_565
Eu1 Si0 3.250264 1_655
Eu1 Si0 3.250452 1_555
Eu1 Si2 3.250479 1_655
Eu1 Si2 3.250519 1_665
Eu1 Si0 3.250539 1_565
Co0 Si1 2.312942 1_565
Co0 Si1 2.313597 1_655
Co0 Si1 2.313747 1_555
Co0 Eu0 3.126993 1_545
Co0 Eu1 3.126993 1_545
Co0 Eu0 3.126998 1_455
Co0 Eu1 3.126998 1_455
Co0 Eu1 3.126999 1_555
Co0 Eu0 3.126999 1_555
Si0 Si2 2.312491 1_565
Si0 Si2 2.313588 1_555
Si0 Si2 2.314208 1_655
