# generated using pymatgen
data_CeMg14Fe
_symmetry_space_group_name_H-M   'P 1'
_cell_length_a   6.42838773
_cell_length_b   6.42838773
_cell_length_c   10.28484600
_cell_angle_alpha   90.00000000
_cell_angle_beta   90.00000000
_cell_angle_gamma   119.99999721
_symmetry_Int_Tables_number   1
_chemical_formula_structural   CeMg14Fe
_chemical_formula_sum   'Ce1 Mg14 Fe1'
_cell_volume   368.07181595
_cell_formula_units_Z   1
loop_
 _symmetry_equiv_pos_site_id
 _symmetry_equiv_pos_as_xyz
  1  'x, y, z'
loop_
 _atom_site_type_symbol
 _atom_site_label
 _atom_site_symmetry_multiplicity
 _atom_site_fract_x
 _atom_site_fract_y
 _atom_site_fract_z
 _atom_site_occupancy
  Ce  Ce0  1  0.66666700  0.33333300  0.50000000  1
  Mg  Mg0  1  0.65846200  0.82923100  0.00000000  1
  Mg  Mg1  1  0.68342300  0.84171100  0.50000000  1
  Mg  Mg2  1  0.17076900  0.34153800  0.00000000  1
  Mg  Mg3  1  0.15828900  0.31657700  0.50000000  1
  Mg  Mg4  1  0.17076900  0.82923100  0.00000000  1
  Mg  Mg5  1  0.15828900  0.84171100  0.50000000  1
  Mg  Mg6  1  0.82938400  0.17061600  0.22881000  1
  Mg  Mg7  1  0.82938400  0.17061600  0.77119000  1
  Mg  Mg8  1  0.82938400  0.65876800  0.22881000  1
  Mg  Mg9  1  0.82938400  0.65876800  0.77119000  1
  Mg  Mg10  1  0.34123200  0.17061600  0.22881000  1
  Mg  Mg11  1  0.34123200  0.17061600  0.77119000  1
  Mg  Mg12  1  0.33333300  0.66666700  0.26427800  1
  Mg  Mg13  1  0.33333300  0.66666700  0.73572200  1
  Fe  Fe0  1  0.66666700  0.33333300  0.00000000  1
loop_
_geom_bond_atom_site_label_1
_geom_bond_atom_site_label_2
_geom_bond_distance
_geom_bond_site_symmetry_2
Ce0 Mg3 3.215547 1_655
Ce0 Mg1 3.215547 1_545
Ce0 Mg1 3.215547 1_555
Ce0 Mg3 3.215547 1_555
Ce0 Mg5 3.215547 1_655
Ce0 Mg5 3.215547 1_545
Ce0 Mg6 3.325920 1_555
Ce0 Mg7 3.325920 1_555
Ce0 Mg10 3.325923 1_555
Ce0 Mg8 3.325923 1_555
Ce0 Mg9 3.325923 1_555
Ce0 Mg11 3.325923 1_555
Mg0 Mg9 3.024890 1_554
Mg0 Mg8 3.024890 1_555
Mg0 Mg6 3.024891 1_565
Mg0 Mg7 3.024891 1_564
Mg0 Mg4 3.135080 1_555
Mg0 Mg2 3.135080 1_555
Mg0 Mg13 3.265592 1_554
Mg0 Mg12 3.265592 1_555
Mg0 Mg4 3.293308 1_655
Mg0 Mg2 3.293308 1_665
Mg1 Mg5 3.052623 1_655
Mg1 Mg3 3.052623 1_665
Mg1 Mg12 3.110652 1_555
Mg1 Mg13 3.110652 1_555
Mg1 Mg8 3.338599 1_555
Mg1 Mg9 3.338599 1_555
Mg1 Mg6 3.338602 1_565
Mg1 Mg7 3.338602 1_565
Mg1 Mg5 3.375765 1_555
Mg1 Mg3 3.375765 1_555
Mg2 Mg7 3.024891 1_454
Mg2 Mg6 3.024891 1_455
Mg2 Mg4 3.135080 1_555
Mg2 Mg4 3.293308 1_545
Mg3 Mg5 3.052623 1_545
Mg3 Mg6 3.338602 1_455
Mg3 Mg7 3.338602 1_455
Mg3 Mg5 3.375765 1_555
Mg4 Mg9 3.024891 1_454
Mg4 Mg8 3.024891 1_455
Mg5 Mg8 3.338602 1_455
Mg5 Mg9 3.338602 1_455
Mg6 Mg8 3.138030 1_555
Mg6 Mg8 3.290357 1_545
Mg7 Mg9 3.138030 1_555
Mg7 Mg9 3.290357 1_545
Mg10 Mg2 3.024890 1_555
Mg10 Mg4 3.024891 1_545
Mg10 Mg6 3.138030 1_555
Mg10 Mg8 3.138030 1_555
Mg10 Mg12 3.235123 1_545
Mg10 Mg12 3.235130 1_555
Mg10 Mg6 3.290357 1_455
Mg10 Mg8 3.290358 1_445
Mg10 Mg3 3.338599 1_555
Mg10 Mg5 3.338602 1_545
Mg11 Mg2 3.024890 1_556
Mg11 Mg4 3.024891 1_546
Mg11 Mg7 3.138030 1_555
Mg11 Mg9 3.138030 1_555
Mg11 Mg13 3.235123 1_545
Mg11 Mg13 3.235130 1_555
Mg11 Mg7 3.290357 1_455
Mg11 Mg9 3.290358 1_445
Mg11 Mg3 3.338599 1_555
Mg11 Mg5 3.338602 1_545
Mg12 Mg5 3.110645 1_555
Mg12 Mg3 3.110652 1_555
Mg12 Mg8 3.235123 1_455
Mg12 Mg6 3.235126 1_565
Mg12 Mg6 3.235126 1_455
Mg12 Mg8 3.235130 1_555
Mg12 Mg4 3.265589 1_555
Mg12 Mg2 3.265592 1_555
Mg13 Mg5 3.110645 1_555
Mg13 Mg3 3.110652 1_555
Mg13 Mg9 3.235123 1_455
Mg13 Mg7 3.235126 1_565
Mg13 Mg7 3.235126 1_455
Mg13 Mg9 3.235130 1_555
Mg13 Mg4 3.265589 1_556
Mg13 Mg2 3.265592 1_556
Fe0 Mg7 2.969900 1_554
Fe0 Mg6 2.969900 1_555
Fe0 Mg9 2.969903 1_554
Fe0 Mg11 2.969903 1_554
Fe0 Mg10 2.969903 1_555
Fe0 Mg8 2.969903 1_555
Fe0 Mg2 3.214515 1_655
Fe0 Mg0 3.214515 1_545
Fe0 Mg4 3.214518 1_655
Fe0 Mg4 3.214518 1_545
Fe0 Mg0 3.214522 1_555
Fe0 Mg2 3.214522 1_555
