# generated using pymatgen
data_Tl2Fe3Se4
_symmetry_space_group_name_H-M   'P 1'
_cell_length_a   5.51334410
_cell_length_b   5.52673105
_cell_length_c   7.45716074
_cell_angle_alpha   90.00000000
_cell_angle_beta   68.30486433
_cell_angle_gamma   90.00000000
_symmetry_Int_Tables_number   1
_chemical_formula_structural   Tl2Fe3Se4
_chemical_formula_sum   'Tl2 Fe3 Se4'
_cell_volume   211.12968003
_cell_formula_units_Z   1
loop_
 _symmetry_equiv_pos_site_id
 _symmetry_equiv_pos_as_xyz
  1  'x, y, z'
loop_
 _atom_site_type_symbol
 _atom_site_label
 _atom_site_symmetry_multiplicity
 _atom_site_fract_x
 _atom_site_fract_y
 _atom_site_fract_z
 _atom_site_occupancy
  Tl  Tl0  1  0.50000000  0.49346300  0.00000000  1
  Tl  Tl1  1  0.00000000  0.00653700  0.00000000  1
  Fe  Fe0  1  0.50000000  0.25000000  0.50000000  1
  Fe  Fe1  1  0.50000000  0.75000000  0.50000000  1
  Fe  Fe2  1  0.00000000  0.25000000  0.50000000  1
  Se  Se0  1  0.34916400  0.99963600  0.30354200  1
  Se  Se1  1  0.84729400  0.50036400  0.30354200  1
  Se  Se2  1  0.15270600  0.50036400  0.69645800  1
  Se  Se3  1  0.65083600  0.99963600  0.69645800  1
loop_
_geom_bond_atom_site_label_1
_geom_bond_atom_site_label_2
_geom_bond_distance
_geom_bond_site_symmetry_2
Fe0 Se1 2.377650 1_555
Fe0 Se2 2.377650 1_555
Fe0 Se0 2.377650 1_545
Fe0 Se3 2.377650 1_545
Fe1 Se1 2.375310 1_555
Fe1 Se2 2.375310 1_555
Fe1 Se3 2.375311 1_555
Fe1 Se0 2.375311 1_555
Fe2 Se3 2.383619 1_445
Fe2 Se0 2.383619 1_545
Fe2 Se2 2.383619 1_555
Fe2 Se1 2.383619 1_455
