# generated using pymatgen
data_Mg6FeSb
_symmetry_space_group_name_H-M   'P 1'
_cell_length_a   4.84879600
_cell_length_b   6.26721100
_cell_length_c   10.52863000
_cell_angle_alpha   90.00000000
_cell_angle_beta   90.00000000
_cell_angle_gamma   90.00000000
_symmetry_Int_Tables_number   1
_chemical_formula_structural   Mg6FeSb
_chemical_formula_sum   'Mg12 Fe2 Sb2'
_cell_volume   319.94851078
_cell_formula_units_Z   2
loop_
 _symmetry_equiv_pos_site_id
 _symmetry_equiv_pos_as_xyz
  1  'x, y, z'
loop_
 _atom_site_type_symbol
 _atom_site_label
 _atom_site_symmetry_multiplicity
 _atom_site_fract_x
 _atom_site_fract_y
 _atom_site_fract_z
 _atom_site_occupancy
  Mg  Mg0  1  0.00000000  0.74220700  0.58162600  1
  Mg  Mg1  1  0.00000000  0.25779300  0.58162600  1
  Mg  Mg2  1  0.00000000  0.00000000  0.33606700  1
  Mg  Mg3  1  0.50000000  0.73629900  0.41183800  1
  Mg  Mg4  1  0.50000000  0.26370100  0.41183800  1
  Mg  Mg5  1  0.50000000  0.00000000  0.16953000  1
  Mg  Mg6  1  0.00000000  0.24220700  0.08162600  1
  Mg  Mg7  1  0.00000000  0.75779300  0.08162600  1
  Mg  Mg8  1  0.00000000  0.50000000  0.83606700  1
  Mg  Mg9  1  0.50000000  0.23629900  0.91183800  1
  Mg  Mg10  1  0.50000000  0.76370100  0.91183800  1
  Mg  Mg11  1  0.50000000  0.50000000  0.66953000  1
  Fe  Fe0  1  0.00000000  0.00000000  0.83163800  1
  Fe  Fe1  1  0.00000000  0.50000000  0.33163800  1
  Sb  Sb0  1  0.50000000  0.00000000  0.67583800  1
  Sb  Sb1  1  0.50000000  0.50000000  0.17583800  1
loop_
_geom_bond_atom_site_label_1
_geom_bond_atom_site_label_2
_geom_bond_distance
_geom_bond_site_symmetry_2
Mg0 Mg11 3.006407 1_455
Mg0 Mg11 3.006407 1_555
Mg0 Mg3 3.012427 1_555
Mg0 Mg3 3.012427 1_455
Mg0 Mg1 3.035925 1_555
Mg0 Mg2 3.048704 1_565
Mg0 Sb0 3.077648 1_565
Mg0 Sb0 3.077648 1_465
Mg0 Mg8 3.079090 1_555
Mg0 Mg1 3.231286 1_565
Mg1 Mg11 3.006407 1_455
Mg1 Mg11 3.006407 1_555
Mg1 Mg4 3.012427 1_555
Mg1 Mg4 3.012427 1_455
Mg1 Mg2 3.048704 1_555
Mg1 Sb0 3.077648 1_455
Mg1 Sb0 3.077648 1_555
Mg1 Mg8 3.079090 1_555
Mg2 Mg5 2.992013 1_455
Mg2 Mg5 2.992013 1_555
Mg2 Mg3 3.040633 1_545
Mg2 Mg3 3.040633 1_445
Mg2 Mg4 3.040633 1_455
Mg2 Mg4 3.040633 1_555
Mg2 Mg7 3.079090 1_545
Mg2 Mg6 3.079090 1_555
Mg3 Sb1 2.892609 1_555
Mg3 Mg5 3.039703 1_565
Mg3 Sb0 3.233769 1_565
Mg4 Sb1 2.892609 1_555
Mg4 Mg5 3.039703 1_555
Mg4 Sb0 3.233769 1_555
Mg5 Mg7 3.006407 1_645
Mg5 Mg7 3.006407 1_545
Mg5 Mg6 3.006407 1_655
Mg5 Mg6 3.006407 1_555
Mg5 Mg9 3.091006 1_554
Mg5 Sb1 3.134309 1_555
Mg5 Sb1 3.134309 1_545
Mg6 Mg9 3.012427 1_554
Mg6 Mg9 3.012427 1_454
Mg6 Mg7 3.035925 1_545
Mg6 Mg8 3.048704 1_554
Mg6 Sb1 3.077648 1_455
Mg6 Sb1 3.077648 1_555
Mg6 Mg7 3.231286 1_555
Mg7 Mg8 3.048704 1_554
Mg7 Sb1 3.077648 1_455
Mg7 Sb1 3.077648 1_555
Mg8 Mg9 3.040633 1_455
Mg8 Mg9 3.040633 1_555
Mg9 Sb0 2.892609 1_555
Mg9 Sb1 3.233769 1_556
Mg10 Sb0 2.892609 1_565
Mg10 Mg7 3.012427 1_556
Mg10 Mg7 3.012427 1_656
Mg10 Mg11 3.039703 1_555
Mg10 Mg8 3.040633 1_555
Mg10 Mg8 3.040633 1_655
Mg10 Mg5 3.091006 1_566
Mg10 Sb1 3.233769 1_556
Mg11 Mg8 2.992013 1_655
Mg11 Mg8 2.992013 1_555
Mg11 Mg9 3.039703 1_555
Mg11 Mg4 3.091006 1_555
Mg11 Mg3 3.091006 1_555
Mg11 Sb0 3.134309 1_565
Mg11 Sb0 3.134309 1_555
Fe0 Sb0 2.927198 1_455
Fe0 Sb0 2.927198 1_555
Fe0 Mg9 2.963761 1_455
Fe0 Mg10 2.963761 1_445
Fe0 Mg10 2.963761 1_545
Fe0 Mg9 2.963761 1_555
Fe0 Mg6 3.038387 1_556
Fe0 Mg7 3.038387 1_546
Fe0 Mg0 3.088563 1_545
Fe0 Mg1 3.088563 1_555
Fe0 Mg8 3.133952 1_555
Fe0 Mg8 3.133952 1_545
Fe1 Sb1 2.927198 1_455
Fe1 Sb1 2.927198 1_555
Fe1 Mg3 2.963761 1_555
Fe1 Mg4 2.963761 1_455
Fe1 Mg3 2.963761 1_455
Fe1 Mg4 2.963761 1_555
Fe1 Mg0 3.038387 1_555
Fe1 Mg1 3.038387 1_555
Fe1 Mg6 3.088563 1_555
Fe1 Mg7 3.088563 1_555
Fe1 Mg2 3.133952 1_565
Fe1 Mg2 3.133952 1_555
