# generated using pymatgen
data_HoFeGe2
_symmetry_space_group_name_H-M   'P 1'
_cell_length_a   8.54319756
_cell_length_b   8.54319756
_cell_length_c   4.20524300
_cell_angle_alpha   90.00000000
_cell_angle_beta   90.00000000
_cell_angle_gamma   152.07688924
_symmetry_Int_Tables_number   1
_chemical_formula_structural   HoFeGe2
_chemical_formula_sum   'Ho2 Fe2 Ge4'
_cell_volume   143.72866856
_cell_formula_units_Z   2
loop_
 _symmetry_equiv_pos_site_id
 _symmetry_equiv_pos_as_xyz
  1  'x, y, z'
loop_
 _atom_site_type_symbol
 _atom_site_label
 _atom_site_symmetry_multiplicity
 _atom_site_fract_x
 _atom_site_fract_y
 _atom_site_fract_z
 _atom_site_occupancy
  Ho  Ho0  1  0.89170600  0.10829400  0.25000000  1
  Ho  Ho1  1  0.10829400  0.89170600  0.75000000  1
  Fe  Fe0  1  0.68103800  0.31896200  0.25000000  1
  Fe  Fe1  1  0.31896200  0.68103800  0.75000000  1
  Ge  Ge0  1  0.54486600  0.45513400  0.25000000  1
  Ge  Ge1  1  0.45513400  0.54486600  0.75000000  1
  Ge  Ge2  1  0.25165600  0.74834400  0.25000000  1
  Ge  Ge3  1  0.74834400  0.25165600  0.75000000  1
loop_
_geom_bond_atom_site_label_1
_geom_bond_atom_site_label_2
_geom_bond_distance
_geom_bond_site_symmetry_2
Fe0 Ge0 2.257953 1_555
Fe0 Ge2 2.370611 1_545
Fe0 Ge2 2.370611 1_655
Fe0 Ge3 2.380456 1_555
Fe0 Ge3 2.380456 1_554
Fe0 Ho1 3.181920 1_544
Fe0 Ho1 3.181920 1_655
Fe0 Ho1 3.181920 1_545
Fe0 Ho1 3.181920 1_654
Fe1 Ge1 2.257953 1_555
Fe1 Ge3 2.370611 1_455
Fe1 Ge3 2.370611 1_565
Fe1 Ge2 2.380456 1_555
Fe1 Ge2 2.380456 1_556
Fe1 Ho0 3.181920 1_566
Fe1 Ho0 3.181920 1_456
Fe1 Ho0 3.181920 1_455
Fe1 Ho0 3.181920 1_565
Ge0 Ge1 2.575824 1_555
Ge0 Ge1 2.575824 1_554
Ge0 Ho1 3.126630 1_655
Ge0 Ho1 3.126630 1_654
Ge0 Ho1 3.126630 1_545
Ge0 Ho1 3.126630 1_544
Ge0 Ho0 3.270845 1_565
Ge0 Ho0 3.270845 1_455
Ge1 Ho0 3.126630 1_565
Ge1 Ho0 3.126630 1_566
Ge1 Ho0 3.126630 1_455
Ge1 Ho0 3.126630 1_456
Ge1 Ho1 3.270845 1_655
Ge1 Ho1 3.270845 1_545
Ge2 Ho0 3.105080 1_455
Ge2 Ho0 3.105080 1_565
Ge2 Ho1 3.173638 1_554
Ge2 Ho1 3.173638 1_555
Ge3 Ho1 3.105080 1_545
Ge3 Ho1 3.105080 1_655
Ge3 Ho0 3.173638 1_556
Ge3 Ho0 3.173638 1_555
