# generated using pymatgen
data_Tm2Fe17H3
_symmetry_space_group_name_H-M   'P 1'
_cell_length_a   8.48826018
_cell_length_b   8.48826018
_cell_length_c   8.25324900
_cell_angle_alpha   90.00000000
_cell_angle_beta   90.00000000
_cell_angle_gamma   120.00000139
_symmetry_Int_Tables_number   1
_chemical_formula_structural   Tm2Fe17H3
_chemical_formula_sum   'Tm4 Fe34 H6'
_cell_volume   514.98305513
_cell_formula_units_Z   2
loop_
 _symmetry_equiv_pos_site_id
 _symmetry_equiv_pos_as_xyz
  1  'x, y, z'
loop_
 _atom_site_type_symbol
 _atom_site_label
 _atom_site_symmetry_multiplicity
 _atom_site_fract_x
 _atom_site_fract_y
 _atom_site_fract_z
 _atom_site_occupancy
  Tm  Tm0  1  0.33333300  0.66666700  0.25000000  1
  Tm  Tm1  1  0.66666700  0.33333300  0.75000000  1
  Tm  Tm2  1  0.00000000  0.00000000  0.25000000  1
  Tm  Tm3  1  0.00000000  0.00000000  0.75000000  1
  Fe  Fe0  1  0.37565100  0.04709200  0.25000000  1
  Fe  Fe1  1  0.62434900  0.95290800  0.75000000  1
  Fe  Fe2  1  0.95290800  0.32855900  0.25000000  1
  Fe  Fe3  1  0.04709200  0.37565100  0.75000000  1
  Fe  Fe4  1  0.04709200  0.67144100  0.75000000  1
  Fe  Fe5  1  0.95290800  0.62434900  0.25000000  1
  Fe  Fe6  1  0.67144100  0.62434900  0.25000000  1
  Fe  Fe7  1  0.32855900  0.95290800  0.75000000  1
  Fe  Fe8  1  0.32855900  0.37565100  0.75000000  1
  Fe  Fe9  1  0.67144100  0.04709200  0.25000000  1
  Fe  Fe10  1  0.62434900  0.67144100  0.75000000  1
  Fe  Fe11  1  0.37565100  0.32855900  0.25000000  1
  Fe  Fe12  1  0.33333300  0.66666700  0.60441900  1
  Fe  Fe13  1  0.66666700  0.33333300  0.39558100  1
  Fe  Fe14  1  0.66666700  0.33333300  0.10441900  1
  Fe  Fe15  1  0.33333300  0.66666700  0.89558100  1
  Fe  Fe16  1  0.16649300  0.33298700  0.01730100  1
  Fe  Fe17  1  0.83350700  0.66701300  0.98269900  1
  Fe  Fe18  1  0.66701300  0.83350700  0.01730100  1
  Fe  Fe19  1  0.83350700  0.66701300  0.51730100  1
  Fe  Fe20  1  0.33298700  0.16649300  0.98269900  1
  Fe  Fe21  1  0.16649300  0.33298700  0.48269900  1
  Fe  Fe22  1  0.16649300  0.83350700  0.01730100  1
  Fe  Fe23  1  0.33298700  0.16649300  0.51730100  1
  Fe  Fe24  1  0.83350700  0.16649300  0.98269900  1
  Fe  Fe25  1  0.66701300  0.83350700  0.48269900  1
  Fe  Fe26  1  0.83350700  0.16649300  0.51730100  1
  Fe  Fe27  1  0.16649300  0.83350700  0.48269900  1
  Fe  Fe28  1  0.50000000  0.00000000  0.00000000  1
  Fe  Fe29  1  0.00000000  0.50000000  0.00000000  1
  Fe  Fe30  1  0.50000000  0.00000000  0.50000000  1
  Fe  Fe31  1  0.50000000  0.50000000  0.00000000  1
  Fe  Fe32  1  0.00000000  0.50000000  0.50000000  1
  Fe  Fe33  1  0.50000000  0.50000000  0.50000000  1
  H  H0  1  0.16467100  0.32934200  0.25000000  1
  H  H1  1  0.83532900  0.67065800  0.75000000  1
  H  H2  1  0.67065800  0.83532900  0.25000000  1
  H  H3  1  0.32934200  0.16467100  0.75000000  1
  H  H4  1  0.16467100  0.83532900  0.25000000  1
  H  H5  1  0.83532900  0.16467100  0.75000000  1
loop_
_geom_bond_atom_site_label_1
_geom_bond_atom_site_label_2
_geom_bond_distance
_geom_bond_site_symmetry_2
Fe0 H4 1.794185 1_545
Fe0 Fe30 2.439888 1_555
Fe0 Fe28 2.439888 1_555
Fe0 Fe13 2.728946 1_555
Fe0 Fe14 2.728946 1_555
Fe1 H5 1.794185 1_565
Fe1 Fe28 2.439888 1_566
Fe1 Fe30 2.439888 1_565
Fe1 Fe15 2.728946 1_555
Fe1 Fe12 2.728946 1_555
Fe2 H0 1.794186 1_655
Fe2 Fe32 2.439888 1_655
Fe2 Fe29 2.439888 1_655
Fe3 H5 1.794185 1_455
Fe3 Fe32 2.439888 1_555
Fe4 H1 1.794186 1_455
Fe5 H4 1.794185 1_655
Fe6 H2 1.794186 1_555
Fe7 H3 1.794186 1_565
Fe8 H3 1.794186 1_555
Fe9 H2 1.794186 1_545
Fe10 H1 1.794186 1_555
Fe10 Fe33 2.439888 1_555
Fe10 Fe31 2.439888 1_556
Fe10 Fe15 2.728950 1_555
Fe10 Fe12 2.728950 1_555
Fe11 H0 1.794186 1_555
Fe11 Fe33 2.439888 1_555
Fe11 Fe31 2.439888 1_555
Fe11 Fe13 2.728950 1_555
Fe11 Fe14 2.728950 1_555
Fe12 Fe15 2.403032 1_555
Fe12 Fe32 2.597478 1_555
Fe12 Fe30 2.597478 1_565
Fe12 Fe33 2.597485 1_555
Fe12 Fe21 2.650642 1_555
Fe12 Fe25 2.650642 1_555
Fe12 Fe27 2.650642 1_555
Fe12 Fe7 2.728942 1_555
Fe12 Fe4 2.728942 1_555
Fe12 Fe3 2.728946 1_555
Fe12 Fe8 2.728950 1_555
Fe12 Tm0 2.925108 1_555
Fe13 Fe14 2.403032 1_555
Fe13 Fe32 2.597478 1_655
Fe13 Fe30 2.597478 1_555
Fe13 Fe33 2.597485 1_555
Fe13 Fe19 2.650642 1_555
Fe13 Fe23 2.650642 1_555
Fe13 Fe26 2.650642 1_555
Fe13 Fe2 2.728942 1_555
Fe13 Fe9 2.728942 1_555
Fe13 Fe5 2.728946 1_555
Fe13 Fe6 2.728950 1_555
Fe13 Tm1 2.925108 1_555
Fe14 Fe29 2.597478 1_655
Fe14 Fe28 2.597478 1_555
Fe14 Fe31 2.597485 1_555
Fe14 Fe17 2.650642 1_554
Fe14 Fe20 2.650642 1_554
Fe14 Fe24 2.650642 1_554
Fe14 Fe2 2.728942 1_555
Fe14 Fe9 2.728942 1_555
Fe14 Fe5 2.728946 1_555
Fe14 Fe6 2.728950 1_555
Fe14 Tm1 2.925108 1_554
Fe15 Fe29 2.597478 1_556
Fe15 Fe28 2.597478 1_566
Fe15 Fe31 2.597485 1_556
Fe15 Fe18 2.650642 1_556
Fe15 Fe16 2.650642 1_556
Fe15 Fe22 2.650642 1_556
Fe15 Fe7 2.728942 1_555
Fe15 Fe4 2.728942 1_555
Fe15 Fe3 2.728946 1_555
Fe15 Fe8 2.728950 1_555
Fe15 Tm0 2.925108 1_556
Fe16 H0 1.920710 1_555
Fe16 Fe29 2.455775 1_555
Fe16 Fe31 2.455782 1_555
Fe17 H1 1.920710 1_555
Fe17 Fe29 2.455775 1_656
Fe17 Fe31 2.455782 1_556
Fe18 H2 1.920710 1_555
Fe18 Fe28 2.455775 1_565
Fe18 Fe31 2.455782 1_555
Fe19 H1 1.920710 1_555
Fe19 Fe32 2.455775 1_655
Fe19 Fe33 2.455782 1_555
Fe20 H3 1.920710 1_555
Fe20 Fe28 2.455775 1_556
Fe20 Fe31 2.455782 1_556
Fe21 H0 1.920710 1_555
Fe21 Fe32 2.455775 1_555
Fe21 Fe33 2.455782 1_555
Fe22 H4 1.920710 1_555
Fe22 Fe28 2.455782 1_565
Fe22 Fe29 2.455782 1_555
Fe23 H3 1.920710 1_555
Fe23 Fe30 2.455775 1_555
Fe23 Fe33 2.455782 1_555
Fe24 H5 1.920710 1_555
Fe24 Fe28 2.455782 1_556
Fe24 Fe29 2.455782 1_656
Fe25 H2 1.920710 1_555
Fe25 Fe30 2.455775 1_565
Fe25 Fe33 2.455782 1_555
Fe26 H5 1.920710 1_555
Fe26 Fe32 2.455782 1_655
Fe26 Fe30 2.455782 1_555
Fe27 H4 1.920710 1_555
Fe27 Fe32 2.455782 1_555
Fe27 Fe30 2.455782 1_565
Fe28 Fe7 2.439888 1_544
Fe28 Fe9 2.439888 1_555
Fe28 Tm0 3.203351 1_545
Fe28 Tm1 3.203351 1_554
Fe29 Fe4 2.439888 1_554
Fe29 Fe5 2.439888 1_455
Fe29 Fe3 2.439888 1_554
Fe29 Tm0 3.203351 1_555
Fe29 Tm1 3.203351 1_454
Fe30 Fe7 2.439888 1_545
Fe30 Fe9 2.439888 1_555
Fe30 Tm1 3.203351 1_555
Fe30 Tm0 3.203351 1_545
Fe31 Fe6 2.439888 1_555
Fe31 Fe8 2.439888 1_554
Fe31 Tm0 3.203357 1_555
Fe31 Tm1 3.203357 1_554
Fe32 Fe4 2.439888 1_555
Fe32 Fe5 2.439888 1_455
Fe32 Tm0 3.203351 1_555
Fe32 Tm1 3.203351 1_455
Fe33 Fe6 2.439888 1_555
Fe33 Fe8 2.439888 1_555
Fe33 Tm1 3.203357 1_555
Fe33 Tm0 3.203357 1_555
H0 Tm2 2.421009 1_555
H0 Tm0 2.479693 1_555
H1 Tm3 2.421009 1_665
H1 Tm1 2.479693 1_555
H2 Tm2 2.421009 1_665
H2 Tm0 2.479693 1_555
H3 Tm3 2.421009 1_555
H3 Tm1 2.479693 1_555
H4 Tm2 2.421009 1_565
H4 Tm0 2.479685 1_555
H5 Tm3 2.421009 1_655
H5 Tm1 2.479685 1_555
