# generated using pymatgen
data_Sm2Fe15Si2
_symmetry_space_group_name_H-M   'P 1'
_cell_length_a   6.42615897
_cell_length_b   6.39439002
_cell_length_c   6.39439019
_cell_angle_alpha   82.70331266
_cell_angle_beta   82.73925034
_cell_angle_gamma   82.73925763
_symmetry_Int_Tables_number   1
_chemical_formula_structural   Sm2Fe15Si2
_chemical_formula_sum   'Sm2 Fe15 Si2'
_cell_volume   256.90595778
_cell_formula_units_Z   1
loop_
 _symmetry_equiv_pos_site_id
 _symmetry_equiv_pos_as_xyz
  1  'x, y, z'
loop_
 _atom_site_type_symbol
 _atom_site_label
 _atom_site_symmetry_multiplicity
 _atom_site_fract_x
 _atom_site_fract_y
 _atom_site_fract_z
 _atom_site_occupancy
  Sm  Sm0  1  0.66217500  0.66104300  0.66104300  1
  Sm  Sm1  1  0.34261800  0.34313000  0.34313000  1
  Fe  Fe0  1  0.00236700  0.49597400  0.00219500  1
  Fe  Fe1  1  0.49665200  0.00187600  0.00187600  1
  Fe  Fe2  1  0.00236700  0.00219500  0.49597400  1
  Fe  Fe3  1  0.90374900  0.90399800  0.90399800  1
  Fe  Fe4  1  0.09642300  0.09313400  0.09313400  1
  Fe  Fe5  1  0.70476600  0.00005200  0.29521800  1
  Fe  Fe6  1  0.00066500  0.29369500  0.70415600  1
  Fe  Fe7  1  0.29342100  0.70346200  0.99832300  1
  Fe  Fe8  1  0.00066500  0.70415600  0.29369500  1
  Fe  Fe9  1  0.70476600  0.29521800  0.00005200  1
  Fe  Fe10  1  0.29342100  0.99832300  0.70346200  1
  Fe  Fe11  1  0.84298300  0.34084500  0.34084500  1
  Fe  Fe12  1  0.65912700  0.66110900  0.15874400  1
  Fe  Fe13  1  0.65912700  0.15874400  0.66110900  1
  Fe  Fe14  1  0.15583900  0.65907500  0.65907500  1
  Si  Si0  1  0.33943500  0.33847400  0.84549700  1
  Si  Si1  1  0.33943500  0.84549700  0.33847400  1
loop_
_geom_bond_atom_site_label_1
_geom_bond_atom_site_label_2
_geom_bond_distance
_geom_bond_site_symmetry_2
Fe0 Fe7 2.422055 1_554
Fe0 Si0 2.422058 1_554
Fe0 Fe8 2.422400 1_555
Fe0 Fe11 2.423383 1_455
Fe0 Fe9 2.436626 1_455
Fe0 Fe6 2.437236 1_554
Fe0 Fe14 2.450711 1_554
Fe0 Fe12 2.470610 1_455
Fe0 Fe4 2.579460 1_555
Fe0 Fe3 2.620994 1_454
Fe0 Sm1 3.257642 1_555
Fe0 Sm0 3.269454 1_454
Fe1 Si1 2.410846 1_545
Fe1 Si0 2.410847 1_554
Fe1 Fe9 2.435510 1_555
Fe1 Fe5 2.435510 1_555
Fe1 Fe13 2.445152 1_554
Fe1 Fe12 2.445153 1_545
Fe1 Fe7 2.448613 1_544
Fe1 Fe10 2.448613 1_544
Fe1 Fe4 2.573646 1_555
Fe1 Fe3 2.626598 1_544
Fe1 Sm1 3.258925 1_555
Fe1 Sm0 3.265844 1_544
Fe2 Si1 2.422058 1_545
Fe2 Fe6 2.422400 1_555
Fe2 Fe5 2.436626 1_455
Fe2 Fe8 2.437236 1_545
Fe2 Fe4 2.579460 1_555
Fe2 Fe3 2.620994 1_445
Fe2 Sm1 3.257642 1_555
Fe2 Sm0 3.269454 1_445
Fe3 Fe4 2.363667 1_666
Fe3 Fe6 2.759080 1_665
Fe3 Fe8 2.759080 1_656
Fe3 Fe7 2.766270 1_655
Fe3 Fe5 2.766513 1_566
Fe3 Fe9 2.766513 1_566
Fe3 Sm0 3.011518 1_555
Fe4 Si0 2.602009 1_554
Fe4 Si1 2.602009 1_545
Fe4 Fe7 2.751580 1_544
Fe4 Fe8 2.754462 1_545
Fe4 Fe6 2.754462 1_554
Fe4 Fe5 2.778453 1_455
Fe4 Fe9 2.778453 1_455
Fe4 Sm1 3.088938 1_555
Fe5 Fe9 2.493939 1_555
Fe5 Fe8 2.507252 1_645
Fe5 Si1 2.630149 1_545
Fe5 Sm0 2.991007 1_545
Fe5 Sm1 3.003744 1_555
Fe6 Fe9 2.507252 1_456
Fe6 Si0 2.521655 1_555
Fe6 Sm1 2.994326 1_555
Fe6 Sm0 3.003443 1_455
Fe7 Fe8 2.491674 1_556
Fe7 Si1 2.524962 1_556
Fe7 Si0 2.611751 1_555
Fe7 Sm1 2.995288 1_556
Fe7 Sm0 3.005757 1_555
Fe8 Si1 2.521655 1_555
Fe8 Sm1 2.994326 1_555
Fe8 Sm0 3.003442 1_455
Fe9 Si0 2.630150 1_554
Fe9 Sm0 2.991007 1_554
Fe9 Sm1 3.003743 1_555
Fe10 Fe2 2.422055 1_565
Fe10 Fe7 2.491362 1_555
Fe10 Fe6 2.491674 1_565
Fe10 Fe14 2.504525 1_555
Fe10 Si0 2.524962 1_565
Fe10 Si1 2.611751 1_555
Fe10 Fe13 2.650737 1_565
Fe10 Fe4 2.751580 1_566
Fe10 Fe3 2.766269 1_455
Fe10 Sm1 2.995288 1_565
Fe10 Sm0 3.005757 1_555
Fe11 Fe2 2.423384 1_655
Fe11 Fe13 2.464973 1_555
Fe11 Fe12 2.464973 1_555
Fe11 Fe5 2.517743 1_555
Fe11 Fe9 2.517743 1_555
Fe11 Fe8 2.618125 1_655
Fe11 Fe6 2.618125 1_655
Fe11 Fe4 2.646414 1_655
Fe11 Sm0 3.097821 1_555
Fe11 Sm1 3.211805 1_555
Fe11 Sm1 3.214500 1_655
Fe12 Si1 2.463051 1_555
Fe12 Fe5 2.500140 1_565
Fe12 Fe8 2.515797 1_655
Fe12 Fe3 2.619926 1_554
Fe12 Fe9 2.635159 1_555
Fe12 Fe7 2.650737 1_554
Fe12 Sm1 3.080826 1_555
Fe12 Sm0 3.180132 1_554
Fe12 Sm0 3.214376 1_555
Fe13 Si0 2.463051 1_555
Fe13 Fe2 2.470610 1_655
Fe13 Fe9 2.500140 1_556
Fe13 Fe6 2.515797 1_655
Fe13 Fe3 2.619927 1_545
Fe13 Fe5 2.635159 1_555
Fe13 Sm1 3.080827 1_555
Fe13 Sm0 3.180132 1_545
Fe13 Sm0 3.214376 1_555
Fe14 Fe2 2.450711 1_565
Fe14 Si1 2.477707 1_555
Fe14 Si0 2.477707 1_555
Fe14 Fe7 2.504525 1_555
Fe14 Fe3 2.621124 1_455
Fe14 Fe6 2.623222 1_555
Fe14 Fe8 2.623222 1_555
Fe14 Sm1 3.068317 1_555
Fe14 Sm0 3.169237 1_455
Fe14 Sm0 3.257030 1_555
Si0 Sm0 3.129218 1_555
Si0 Sm1 3.188648 1_556
Si0 Sm1 3.206185 1_555
Si1 Sm0 3.129218 1_555
Si1 Sm1 3.188648 1_565
Si1 Sm1 3.206185 1_555
