# generated using pymatgen
data_InAu3
_symmetry_space_group_name_H-M   'P 1'
_cell_length_a   6.32117960
_cell_length_b   6.32117960
_cell_length_c   18.11515000
_cell_angle_alpha   90.00000000
_cell_angle_beta   90.00000000
_cell_angle_gamma   119.99999581
_symmetry_Int_Tables_number   1
_chemical_formula_structural   InAu3
_chemical_formula_sum   'In8 Au24'
_cell_volume   626.85752586
_cell_formula_units_Z   8
loop_
 _symmetry_equiv_pos_site_id
 _symmetry_equiv_pos_as_xyz
  1  'x, y, z'
loop_
 _atom_site_type_symbol
 _atom_site_label
 _atom_site_symmetry_multiplicity
 _atom_site_fract_x
 _atom_site_fract_y
 _atom_site_fract_z
 _atom_site_occupancy
  In  In0_0  1  0.33333350  0.16666650  0.00000000  1
  In  In0_1  1  0.33333350  0.16666650  0.50000000  1
  In  In0_2  1  0.33333350  0.66666650  0.00000000  1
  In  In0_3  1  0.33333350  0.66666650  0.50000000  1
  In  In0_4  1  0.83333350  0.16666650  0.00000000  1
  In  In0_5  1  0.83333350  0.16666650  0.50000000  1
  In  In0_6  1  0.83333350  0.66666650  0.00000000  1
  In  In0_7  1  0.83333350  0.66666650  0.50000000  1
  Au  Au0_0  1  0.33333350  0.16666650  0.25000000  1
  Au  Au0_1  1  0.33333350  0.16666650  0.75000000  1
  Au  Au0_2  1  0.33333350  0.66666650  0.25000000  1
  Au  Au0_3  1  0.33333350  0.66666650  0.75000000  1
  Au  Au0_4  1  0.83333350  0.16666650  0.25000000  1
  Au  Au0_5  1  0.83333350  0.16666650  0.75000000  1
  Au  Au0_6  1  0.83333350  0.66666650  0.25000000  1
  Au  Au0_7  1  0.83333350  0.66666650  0.75000000  1
  Au  Au1_0  1  0.16666650  0.33333350  0.12419750  1
  Au  Au1_1  1  0.16666650  0.33333350  0.62419750  1
  Au  Au1_2  1  0.16666650  0.83333350  0.12419750  1
  Au  Au1_3  1  0.16666650  0.83333350  0.62419750  1
  Au  Au1_4  1  0.66666650  0.33333350  0.12419750  1
  Au  Au1_5  1  0.66666650  0.33333350  0.62419750  1
  Au  Au1_6  1  0.66666650  0.83333350  0.12419750  1
  Au  Au1_7  1  0.66666650  0.83333350  0.62419750  1
  Au  Au2_0  1  0.16666650  0.33333350  0.37580250  1
  Au  Au2_1  1  0.16666650  0.33333350  0.87580250  1
  Au  Au2_2  1  0.16666650  0.83333350  0.37580250  1
  Au  Au2_3  1  0.16666650  0.83333350  0.87580250  1
  Au  Au2_4  1  0.66666650  0.33333350  0.37580250  1
  Au  Au2_5  1  0.66666650  0.33333350  0.87580250  1
  Au  Au2_6  1  0.66666650  0.83333350  0.37580250  1
  Au  Au2_7  1  0.66666650  0.83333350  0.87580250  1
loop_
_geom_bond_atom_site_label_1
_geom_bond_atom_site_label_2
_geom_bond_distance
_geom_bond_site_symmetry_2
Au0_0 Au2_2 2.919469 1_545
Au0_0 Au1_4 2.919469 1_555
Au0_0 Au1_2 2.919469 1_545
Au0_0 Au2_4 2.919469 1_555
Au0_0 Au1_0 2.919472 1_555
Au0_0 Au2_0 2.919472 1_555
Au0_0 Au0_4 3.160590 1_455
Au0_0 Au0_2 3.160590 1_555
Au0_0 Au0_2 3.160590 1_545
Au0_0 Au0_4 3.160590 1_555
Au0_0 Au0_6 3.160590 1_555
Au0_0 Au0_6 3.160590 1_445
Au0_1 Au2_3 2.919469 1_545
Au0_1 Au1_5 2.919469 1_555
Au0_1 Au2_5 2.919469 1_555
Au0_1 Au1_3 2.919469 1_545
Au0_1 Au1_1 2.919472 1_555
Au0_1 Au2_1 2.919472 1_555
Au0_1 Au0_3 3.160590 1_555
Au0_1 Au0_5 3.160590 1_455
Au0_1 Au0_5 3.160590 1_555
Au0_1 Au0_3 3.160590 1_545
Au0_1 Au0_7 3.160590 1_555
Au0_1 Au0_7 3.160590 1_445
Au0_2 Au1_6 2.919469 1_555
Au0_2 Au2_0 2.919469 1_555
Au0_2 Au2_6 2.919469 1_555
Au0_2 Au1_0 2.919469 1_555
Au0_2 Au1_2 2.919472 1_555
Au0_2 Au2_2 2.919472 1_555
Au0_2 Au0_6 3.160590 1_555
Au0_2 Au0_6 3.160590 1_455
Au0_2 Au0_4 3.160590 1_565
Au0_2 Au0_4 3.160590 1_455
Au0_3 Au1_7 2.919469 1_555
Au0_3 Au1_1 2.919469 1_555
Au0_3 Au2_7 2.919469 1_555
Au0_3 Au2_1 2.919469 1_555
Au0_3 Au2_3 2.919472 1_555
Au0_3 Au1_3 2.919472 1_555
Au0_3 Au0_7 3.160590 1_555
Au0_3 Au0_7 3.160590 1_455
Au0_3 Au0_5 3.160590 1_565
Au0_3 Au0_5 3.160590 1_455
Au0_4 Au1_6 2.919469 1_545
Au0_4 Au1_0 2.919469 1_655
Au0_4 Au2_6 2.919469 1_545
Au0_4 Au2_0 2.919469 1_655
Au0_4 Au2_4 2.919472 1_555
Au0_4 Au1_4 2.919472 1_555
Au0_4 Au0_6 3.160590 1_555
Au0_4 Au0_6 3.160590 1_545
Au0_5 Au2_1 2.919469 1_655
Au0_5 Au1_7 2.919469 1_545
Au0_5 Au2_7 2.919469 1_545
Au0_5 Au1_1 2.919469 1_655
Au0_5 Au1_5 2.919472 1_555
Au0_5 Au2_5 2.919472 1_555
Au0_5 Au0_7 3.160590 1_555
Au0_5 Au0_7 3.160590 1_545
Au0_6 Au1_4 2.919469 1_555
Au0_6 Au2_4 2.919469 1_555
Au0_6 Au1_2 2.919469 1_655
Au0_6 Au2_2 2.919469 1_655
Au0_6 Au2_6 2.919472 1_555
Au0_6 Au1_6 2.919472 1_555
Au0_7 Au2_5 2.919469 1_555
Au0_7 Au2_3 2.919469 1_655
Au0_7 Au1_5 2.919469 1_555
Au0_7 Au1_3 2.919469 1_655
Au0_7 Au2_7 2.919472 1_555
Au0_7 Au1_7 2.919472 1_555
Au1_0 In0_2 2.896830 1_555
Au1_0 In0_4 2.896830 1_455
Au1_0 In0_0 2.896833 1_555
Au1_1 In0_3 2.896830 1_555
Au1_1 In0_5 2.896830 1_455
Au1_1 In0_1 2.896833 1_555
Au1_2 In0_6 2.896830 1_455
Au1_2 In0_0 2.896830 1_565
Au1_2 In0_2 2.896833 1_555
Au1_3 In0_7 2.896830 1_455
Au1_3 In0_1 2.896830 1_565
Au1_3 In0_3 2.896833 1_555
Au1_4 In0_0 2.896830 1_555
Au1_4 In0_6 2.896830 1_555
Au1_4 In0_4 2.896833 1_555
Au1_5 In0_1 2.896830 1_555
Au1_5 In0_7 2.896830 1_555
Au1_5 In0_5 2.896833 1_555
Au1_6 In0_4 2.896830 1_565
Au1_6 In0_2 2.896830 1_555
Au1_6 In0_6 2.896833 1_555
Au1_7 In0_5 2.896830 1_565
Au1_7 In0_3 2.896830 1_555
Au1_7 In0_7 2.896833 1_555
Au2_0 In0_5 2.896830 1_455
Au2_0 In0_3 2.896830 1_555
Au2_0 In0_1 2.896833 1_555
Au2_1 In0_2 2.896830 1_556
Au2_1 In0_4 2.896830 1_456
Au2_1 In0_0 2.896833 1_556
Au2_2 In0_7 2.896830 1_455
Au2_2 In0_1 2.896830 1_565
Au2_2 In0_3 2.896833 1_555
Au2_3 In0_6 2.896830 1_456
Au2_3 In0_0 2.896830 1_566
Au2_3 In0_2 2.896833 1_556
Au2_4 In0_1 2.896830 1_555
Au2_4 In0_7 2.896830 1_555
Au2_4 In0_5 2.896833 1_555
Au2_5 In0_0 2.896830 1_556
Au2_5 In0_6 2.896830 1_556
Au2_5 In0_4 2.896833 1_556
Au2_6 In0_5 2.896830 1_565
Au2_6 In0_3 2.896830 1_555
Au2_6 In0_7 2.896833 1_555
Au2_7 In0_4 2.896830 1_566
Au2_7 In0_2 2.896830 1_556
Au2_7 In0_6 2.896833 1_556
