# generated using pymatgen
data_CaSmCrO4
_symmetry_space_group_name_H-M   'P 1'
_cell_length_a   6.49279236
_cell_length_b   6.49279236
_cell_length_c   5.63009400
_cell_angle_alpha   90.00000000
_cell_angle_beta   90.00000000
_cell_angle_gamma   130.64005683
_symmetry_Int_Tables_number   1
_chemical_formula_structural   CaSmCrO4
_chemical_formula_sum   'Ca2 Sm2 Cr2 O8'
_cell_volume   180.10063348
_cell_formula_units_Z   2
loop_
 _symmetry_equiv_pos_site_id
 _symmetry_equiv_pos_as_xyz
  1  'x, y, z'
loop_
 _atom_site_type_symbol
 _atom_site_label
 _atom_site_symmetry_multiplicity
 _atom_site_fract_x
 _atom_site_fract_y
 _atom_site_fract_z
 _atom_site_occupancy
  Ca  Ca0  1  0.89656500  0.10343500  0.51809200  1
  Ca  Ca1  1  0.10343500  0.89656500  0.01809200  1
  Sm  Sm0  1  0.61160400  0.38839600  0.48044000  1
  Sm  Sm1  1  0.38839600  0.61160400  0.98044000  1
  Cr  Cr0  1  0.24968800  0.75031200  0.49796900  1
  Cr  Cr1  1  0.75031200  0.24968800  0.99796900  1
  O  O0  1  0.52273100  0.97823200  0.24922600  1
  O  O1  1  0.47726900  0.02176800  0.74922600  1
  O  O2  1  0.97823200  0.52273100  0.74922600  1
  O  O3  1  0.02176800  0.47726900  0.24922600  1
  O  O4  1  0.08209500  0.91790500  0.43725400  1
  O  O5  1  0.42490600  0.57509400  0.56779300  1
  O  O6  1  0.91790500  0.08209500  0.93725400  1
  O  O7  1  0.57509400  0.42490600  0.06779300  1
loop_
_geom_bond_atom_site_label_1
_geom_bond_atom_site_label_2
_geom_bond_distance
_geom_bond_site_symmetry_2
Ca0 O4 2.235954 1_645
Ca0 O6 2.373317 1_555
Ca0 O3 2.504686 1_655
Ca0 O0 2.504686 1_545
Ca0 O2 2.739645 1_555
Ca0 O1 2.739645 1_555
Ca0 O5 2.745903 1_655
Ca0 O5 2.745903 1_545
Ca1 O6 2.235954 1_464
Ca1 O4 2.373317 1_555
Ca1 O2 2.504686 1_454
Ca1 O1 2.504686 1_564
Ca1 O0 2.739645 1_555
Ca1 O3 2.739645 1_555
Ca1 O7 2.745903 1_455
Ca1 O7 2.745903 1_565
Cr0 O0 1.968926 1_555
Cr0 O3 1.968926 1_555
Cr0 O1 1.974460 1_565
Cr0 O2 1.974460 1_455
Cr0 O4 2.006825 1_555
Cr0 O5 2.104511 1_555
Cr1 O2 1.968926 1_555
Cr1 O1 1.968926 1_555
Cr1 O3 1.974460 1_656
Cr1 O0 1.974460 1_546
Cr1 O6 2.006825 1_555
Cr1 O7 2.104511 1_556
O0 Sm1 2.452092 1_554
O0 Sm0 2.667951 1_565
O1 Sm0 2.452092 1_555
O1 Sm1 2.667951 1_545
O2 Sm0 2.452092 1_555
O2 Sm1 2.667951 1_655
O3 Sm1 2.452092 1_554
O3 Sm0 2.667951 1_455
O4 Sm0 2.744123 1_455
O4 Sm0 2.744123 1_565
O5 Sm0 2.257156 1_555
O5 Sm1 2.362845 1_555
O6 Sm1 2.744123 1_545
O6 Sm1 2.744123 1_655
O7 Sm1 2.257156 1_554
O7 Sm0 2.362845 1_555
