# generated using pymatgen
data_MgMn2O4
_symmetry_space_group_name_H-M   'P 1'
_cell_length_a   5.69171300
_cell_length_b   11.27092500
_cell_length_c   15.80929617
_cell_angle_alpha   47.32689058
_cell_angle_beta   90.00000000
_cell_angle_gamma   90.00000000
_symmetry_Int_Tables_number   1
_chemical_formula_structural   MgMn2O4
_chemical_formula_sum   'Mg8 Mn16 O32'
_cell_volume   745.65847541
_cell_formula_units_Z   8
loop_
 _symmetry_equiv_pos_site_id
 _symmetry_equiv_pos_as_xyz
  1  'x, y, z'
loop_
 _atom_site_type_symbol
 _atom_site_label
 _atom_site_symmetry_multiplicity
 _atom_site_fract_x
 _atom_site_fract_y
 _atom_site_fract_z
 _atom_site_occupancy
  Mg  Mg0  1  0.11362000  0.38831700  0.17414200  1
  Mg  Mg1  1  0.38896900  0.74534300  0.07530100  1
  Mg  Mg2  1  0.38896900  0.25465700  0.42469900  1
  Mg  Mg3  1  0.11362000  0.61168300  0.32585800  1
  Mg  Mg4  1  0.61103100  0.74534300  0.57530100  1
  Mg  Mg5  1  0.88638000  0.38831700  0.67414200  1
  Mg  Mg6  1  0.88638000  0.61168300  0.82585800  1
  Mg  Mg7  1  0.61103100  0.25465700  0.92469900  1
  Mn  Mn0  1  0.87721200  0.72975200  0.93685600  1
  Mn  Mn1  1  0.38063400  0.69289700  0.93187300  1
  Mn  Mn2  1  0.87286900  0.91368300  0.14056000  1
  Mn  Mn3  1  0.37935200  0.91712400  0.14996000  1
  Mn  Mn4  1  0.37935200  0.08287600  0.35004000  1
  Mn  Mn5  1  0.87286900  0.08631700  0.35944000  1
  Mn  Mn6  1  0.38063400  0.30710300  0.56812700  1
  Mn  Mn7  1  0.87721200  0.27024800  0.56314400  1
  Mn  Mn8  1  0.12278800  0.72975200  0.43685600  1
  Mn  Mn9  1  0.61936600  0.69289700  0.43187300  1
  Mn  Mn10  1  0.12713100  0.91368300  0.64056000  1
  Mn  Mn11  1  0.62064800  0.91712400  0.64996000  1
  Mn  Mn12  1  0.12713100  0.08631700  0.85944000  1
  Mn  Mn13  1  0.62064800  0.08287600  0.85004000  1
  Mn  Mn14  1  0.12278800  0.27024800  0.06314400  1
  Mn  Mn15  1  0.61936600  0.30710300  0.06812700  1
  O  O0  1  0.11332800  0.26776000  0.65890500  1
  O  O1  1  0.64565200  0.26602700  0.66014100  1
  O  O2  1  0.11833000  0.95276100  0.38200900  1
  O  O3  1  0.63240100  0.93186200  0.40005000  1
  O  O4  1  0.11833000  0.04723900  0.11799100  1
  O  O5  1  0.63240100  0.06813800  0.09995000  1
  O  O6  1  0.11332800  0.73224000  0.84109500  1
  O  O7  1  0.64565200  0.73397300  0.83985900  1
  O  O8  1  0.35434800  0.26602700  0.16014100  1
  O  O9  1  0.88667200  0.26776000  0.15890500  1
  O  O10  1  0.36759900  0.93186200  0.90005000  1
  O  O11  1  0.88167000  0.95276100  0.88200900  1
  O  O12  1  0.88167000  0.04723900  0.61799100  1
  O  O13  1  0.36759900  0.06813800  0.59995000  1
  O  O14  1  0.88667200  0.73224000  0.34109500  1
  O  O15  1  0.35434800  0.73397300  0.33985900  1
  O  O16  1  0.85088200  0.62175900  0.55207400  1
  O  O17  1  0.38511100  0.63749300  0.54065400  1
  O  O18  1  0.38646800  0.80711900  0.63780200  1
  O  O19  1  0.85817400  0.78033100  0.65605000  1
  O  O20  1  0.38511100  0.36250700  0.95934600  1
  O  O21  1  0.85088200  0.37824100  0.94792600  1
  O  O22  1  0.85817400  0.21966900  0.84395000  1
  O  O23  1  0.38646800  0.19288100  0.86219800  1
  O  O24  1  0.14911800  0.62175900  0.05207400  1
  O  O25  1  0.61488900  0.63749300  0.04065400  1
  O  O26  1  0.14182600  0.78033100  0.15605000  1
  O  O27  1  0.61353200  0.80711900  0.13780200  1
  O  O28  1  0.14911800  0.37824100  0.44792600  1
  O  O29  1  0.61488900  0.36250700  0.45934600  1
  O  O30  1  0.14182600  0.21966900  0.34395000  1
  O  O31  1  0.61353200  0.19288100  0.36219800  1
loop_
_geom_bond_atom_site_label_1
_geom_bond_atom_site_label_2
_geom_bond_distance
_geom_bond_site_symmetry_2
Mg0 O24 1.950501 1_555
Mg0 O30 1.981948 1_555
Mg0 O9 2.004145 1_455
Mg0 O8 2.059046 1_555
Mg1 O27 2.006850 1_555
Mg1 O10 2.052949 1_554
Mg1 O25 2.081756 1_555
Mg1 O26 2.108634 1_555
Mg1 O24 2.152225 1_555
Mg2 O31 2.006850 1_555
Mg2 O13 2.052949 1_555
Mg2 O29 2.081756 1_555
Mg2 O30 2.108634 1_555
Mg2 O28 2.152225 1_555
Mg3 O28 1.950501 1_555
Mg3 O26 1.981948 1_555
Mg3 O14 2.004145 1_455
Mg3 O15 2.059046 1_555
Mg4 O18 2.006850 1_555
Mg4 O3 2.052949 1_555
Mg4 O17 2.081756 1_555
Mg4 O19 2.108634 1_555
Mg4 O16 2.152225 1_555
Mg5 O16 1.950501 1_555
Mg5 O22 1.981948 1_555
Mg5 O0 2.004145 1_655
Mg5 O1 2.059046 1_555
Mg6 O21 1.950501 1_555
Mg6 O19 1.981948 1_555
Mg6 O6 2.004145 1_655
Mg6 O7 2.059046 1_555
Mg7 O23 2.006850 1_555
Mg7 O5 2.052949 1_556
Mg7 O20 2.081756 1_555
Mg7 O22 2.108634 1_555
Mg7 O21 2.152225 1_555
Mn0 O25 1.920972 1_556
Mn0 O7 1.997974 1_555
Mn0 O6 2.010286 1_655
Mn0 O11 2.028727 1_555
Mn0 O24 2.046696 1_656
Mn1 O25 1.915565 1_556
Mn1 O7 1.921651 1_555
Mn1 O6 1.925693 1_555
Mn1 O24 1.981133 1_556
Mn1 O10 2.382409 1_555
Mn2 O4 1.901843 1_665
Mn2 O27 1.922047 1_555
Mn2 O5 1.949588 1_565
Mn2 O26 2.040453 1_655
Mn2 O14 2.334556 1_555
Mn3 O4 1.899611 1_565
Mn3 O27 1.916726 1_555
Mn3 O5 1.942233 1_565
Mn3 O26 2.003210 1_555
Mn3 O15 2.212072 1_555
Mn4 O2 1.899611 1_545
Mn4 O31 1.916726 1_555
Mn4 O3 1.942233 1_545
Mn4 O30 2.003210 1_555
Mn4 O8 2.212072 1_555
Mn5 O2 1.901843 1_645
Mn5 O31 1.922047 1_555
Mn5 O3 1.949588 1_545
Mn5 O30 2.040453 1_655
Mn5 O9 2.334556 1_555
Mn6 O29 1.915565 1_555
Mn6 O1 1.921651 1_555
Mn6 O0 1.925693 1_555
Mn6 O28 1.981133 1_555
Mn6 O13 2.382409 1_555
Mn7 O29 1.920972 1_555
Mn7 O1 1.997974 1_555
Mn7 O0 2.010286 1_655
Mn7 O12 2.028727 1_555
Mn7 O28 2.046696 1_655
Mn8 O17 1.920972 1_555
Mn8 O15 1.997974 1_555
Mn8 O14 2.010286 1_455
Mn8 O2 2.028727 1_555
Mn8 O16 2.046696 1_455
Mn9 O17 1.915565 1_555
Mn9 O15 1.921651 1_555
Mn9 O14 1.925693 1_555
Mn9 O16 1.981133 1_555
Mn9 O3 2.382409 1_555
Mn10 O12 1.901843 1_465
Mn10 O18 1.922047 1_555
Mn10 O13 1.949588 1_565
Mn10 O19 2.040453 1_455
Mn10 O6 2.334556 1_555
Mn11 O12 1.899611 1_565
Mn11 O18 1.916726 1_555
Mn11 O13 1.942233 1_565
Mn11 O19 2.003210 1_555
Mn11 O7 2.212072 1_555
Mn12 O11 1.901843 1_445
Mn12 O23 1.922047 1_555
Mn12 O10 1.949588 1_545
Mn12 O22 2.040453 1_455
Mn12 O0 2.334556 1_555
Mn13 O11 1.899611 1_545
Mn13 O23 1.916726 1_555
Mn13 O10 1.942233 1_545
Mn13 O22 2.003210 1_555
Mn13 O1 2.212072 1_555
Mn14 O20 1.920972 1_554
Mn14 O8 1.997974 1_555
Mn14 O9 2.010286 1_455
Mn14 O4 2.028727 1_555
Mn14 O21 2.046696 1_454
Mn15 O20 1.915565 1_554
Mn15 O8 1.921651 1_555
Mn15 O9 1.925693 1_555
Mn15 O21 1.981133 1_554
Mn15 O5 2.382409 1_555
