# generated using pymatgen
data_Na3Sc2(PO4)3
_symmetry_space_group_name_H-M   'P 1'
_cell_length_a   8.99336607
_cell_length_b   8.99336607
_cell_length_c   9.18382204
_cell_angle_alpha   61.65718875
_cell_angle_beta   61.65718875
_cell_angle_gamma   59.99730704
_symmetry_Int_Tables_number   1
_chemical_formula_structural   Na3Sc2(PO4)3
_chemical_formula_sum   'Na6 Sc4 P6 O24'
_cell_volume   537.99671587
_cell_formula_units_Z   2
loop_
 _symmetry_equiv_pos_site_id
 _symmetry_equiv_pos_as_xyz
  1  'x, y, z'
loop_
 _atom_site_type_symbol
 _atom_site_label
 _atom_site_symmetry_multiplicity
 _atom_site_fract_x
 _atom_site_fract_y
 _atom_site_fract_z
 _atom_site_occupancy
  Na  Na0  1  0.89333100  0.10713900  0.74964100  1
  Na  Na1  1  0.10713900  0.89333100  0.24964100  1
  Na  Na2  1  0.19878100  0.44073600  0.58807900  1
  Na  Na3  1  0.44073600  0.19878100  0.08807900  1
  Na  Na4  1  0.84083800  0.54158600  0.44214700  1
  Na  Na5  1  0.54158600  0.84083800  0.94214700  1
  Sc  Sc0  1  0.84746100  0.35459800  0.94675700  1
  Sc  Sc1  1  0.35459800  0.84746100  0.44675700  1
  Sc  Sc2  1  0.15167800  0.64977600  0.05159400  1
  Sc  Sc3  1  0.64977600  0.15167800  0.55159400  1
  P  P0  1  0.96907300  0.74896800  0.73857800  1
  P  P1  1  0.74896800  0.96907300  0.23857800  1
  P  P2  1  0.54594600  0.45502600  0.74806000  1
  P  P3  1  0.45502600  0.54594600  0.24806000  1
  P  P4  1  0.03175100  0.25189300  0.26121800  1
  P  P5  1  0.25189300  0.03175100  0.76121800  1
  O  O0  1  0.01553700  0.75026600  0.87954700  1
  O  O1  1  0.75026600  0.01553700  0.37954700  1
  O  O2  1  0.93932800  0.57284800  0.78974700  1
  O  O3  1  0.57284800  0.93932800  0.28974700  1
  O  O4  1  0.27353000  0.56671200  0.24550600  1
  O  O5  1  0.56671200  0.27353000  0.74550600  1
  O  O6  1  0.51596000  0.61102100  0.58002000  1
  O  O7  1  0.61102100  0.51596000  0.08002000  1
  O  O8  1  0.98192600  0.25274000  0.12130600  1
  O  O9  1  0.25274000  0.98192600  0.62130600  1
  O  O10  1  0.20748000  0.08375600  0.27964900  1
  O  O11  1  0.08375600  0.20748000  0.77964900  1
  O  O12  1  0.72774000  0.42844400  0.75562200  1
  O  O13  1  0.42844400  0.72774000  0.25562200  1
  O  O14  1  0.87663900  0.23894900  0.43777100  1
  O  O15  1  0.23894900  0.87663900  0.93777100  1
  O  O16  1  0.79241200  0.91466600  0.72011100  1
  O  O17  1  0.91466600  0.79241200  0.22011100  1
  O  O18  1  0.06949500  0.42388400  0.20805300  1
  O  O19  1  0.42388400  0.06949500  0.70805300  1
  O  O20  1  0.12563200  0.76303700  0.56306900  1
  O  O21  1  0.76303700  0.12563200  0.06306900  1
  O  O22  1  0.49452600  0.38749400  0.41162500  1
  O  O23  1  0.38749400  0.49452600  0.91162500  1
loop_
_geom_bond_atom_site_label_1
_geom_bond_atom_site_label_2
_geom_bond_distance
_geom_bond_site_symmetry_2
Na0 O11 2.460274 1_655
Na0 O16 2.478747 1_545
Na0 O12 2.517951 1_555
Na0 O5 2.554421 1_555
Na0 O14 2.576372 1_555
Na0 O21 2.596802 1_556
Na0 O0 2.648345 1_645
Na0 O9 2.666040 1_645
Na1 O10 2.460274 1_565
Na1 O17 2.478747 1_455
Na1 O13 2.517951 1_555
Na1 O4 2.554421 1_555
Na1 O15 2.576372 1_554
Na1 O20 2.596802 1_555
Na1 O1 2.648345 1_465
Na1 O8 2.666040 1_465
Na2 O22 2.302222 1_555
Na2 O2 2.345195 1_455
Na2 O11 2.346038 1_555
Na2 O20 2.547857 1_555
Na2 O4 2.646276 1_555
Na2 O19 2.885274 1_555
Na3 O23 2.302222 1_554
Na3 O3 2.345195 1_545
Na3 O10 2.346038 1_555
Na3 O21 2.547857 1_555
Na3 O5 2.646276 1_554
Na3 O18 2.885274 1_555
Na4 O17 2.352078 1_555
Na4 O18 2.399452 1_655
Na4 O12 2.414808 1_555
Na4 O6 2.437879 1_555
Na4 O14 2.593887 1_555
Na5 O16 2.352078 1_555
Na5 O19 2.399452 1_565
Na5 O13 2.414808 1_556
Na5 O7 2.437879 1_556
Na5 O15 2.593887 1_555
O0 P0 1.543929 1_455
O0 Sc2 2.046164 1_556
O1 P1 1.543929 1_545
O1 Sc3 2.046164 1_555
O2 P0 1.548813 1_555
O2 Sc0 2.101839 1_555
O3 P1 1.548813 1_555
O3 Sc1 2.101839 1_555
O4 P3 1.557894 1_555
O4 Sc2 2.168303 1_555
O5 P2 1.557894 1_555
O5 Sc3 2.168303 1_555
O6 P2 1.543897 1_555
O6 Sc1 2.062684 1_555
O7 P3 1.543897 1_555
O7 Sc0 2.062684 1_554
O8 P4 1.544624 1_655
O8 Sc0 2.051757 1_554
O9 P5 1.544624 1_565
O9 Sc1 2.051757 1_555
O10 P4 1.560075 1_555
O10 Sc1 2.154360 1_545
O11 P5 1.560075 1_555
O11 Sc0 2.154360 1_455
O12 P2 1.560821 1_555
O12 Sc0 2.157335 1_555
O13 P3 1.560821 1_555
O13 Sc1 2.157335 1_555
O14 P4 1.556959 1_655
O14 Sc3 2.160744 1_555
O15 P5 1.556959 1_565
O15 Sc2 2.160744 1_556
O16 P0 1.556193 1_555
O16 Sc3 2.145319 1_565
O17 P1 1.556193 1_555
O17 Sc2 2.145319 1_655
O18 P4 1.548155 1_555
O18 Sc2 2.111789 1_555
O19 P5 1.548155 1_555
O19 Sc3 2.111789 1_555
O20 P0 1.557619 1_455
O20 Sc1 2.159331 1_555
O21 P1 1.557619 1_545
O21 Sc0 2.159331 1_554
O22 P3 1.543133 1_555
O22 Sc3 2.062489 1_555
O23 P2 1.543133 1_555
O23 Sc2 2.062489 1_556
