# generated using pymatgen
data_Rb2W2O5
_symmetry_space_group_name_H-M   'P 1'
_cell_length_a   9.24820081
_cell_length_b   9.24820081
_cell_length_c   9.24820081
_cell_angle_alpha   142.03592668
_cell_angle_beta   141.97174086
_cell_angle_gamma   54.82304206
_symmetry_Int_Tables_number   1
_chemical_formula_structural   Rb2W2O5
_chemical_formula_sum   'Rb4 W4 O10'
_cell_volume   297.65161871
_cell_formula_units_Z   2
loop_
 _symmetry_equiv_pos_site_id
 _symmetry_equiv_pos_as_xyz
  1  'x, y, z'
loop_
 _atom_site_type_symbol
 _atom_site_label
 _atom_site_symmetry_multiplicity
 _atom_site_fract_x
 _atom_site_fract_y
 _atom_site_fract_z
 _atom_site_occupancy
  Rb  Rb0  1  0.90625000  0.38662600  0.51600400  1
  Rb  Rb1  1  0.09375000  0.60975400  0.48037500  1
  Rb  Rb2  1  0.37062200  0.88662600  0.48037500  1
  Rb  Rb3  1  0.62937800  0.10975400  0.51600400  1
  W  W0  1  0.00000000  0.01152000  0.01152000  1
  W  W1  1  0.50000000  0.51152000  0.01152000  1
  W  W2  1  0.68736100  0.70807500  0.89543500  1
  W  W3  1  0.31263900  0.20807500  0.02071400  1
  O  O0  1  0.25656900  0.26279700  0.50848800  1
  O  O1  1  0.74343100  0.25191900  0.00622800  1
  O  O2  1  0.25430900  0.76279700  0.00622800  1
  O  O3  1  0.74569100  0.75191900  0.50848800  1
  O  O4  1  0.88366700  0.87580700  0.02899600  1
  O  O5  1  0.11633300  0.14532900  0.99214000  1
  O  O6  1  0.34681100  0.37580700  0.99214000  1
  O  O7  1  0.65318900  0.64532900  0.02899600  1
  O  O8  1  0.58000600  0.41217400  0.49218000  1
  O  O9  1  0.41999400  0.91217400  0.83216800  1
loop_
_geom_bond_atom_site_label_1
_geom_bond_atom_site_label_2
_geom_bond_distance
_geom_bond_site_symmetry_2
O0 W0 2.117967 1_555
O0 W1 2.143688 1_556
O0 Rb1 2.786132 1_555
O0 Rb0 2.786943 1_455
O0 Rb3 2.837321 1_555
O0 Rb2 2.839148 1_545
O1 W0 2.117967 1_655
O1 W1 2.143688 1_555
O1 Rb0 2.786127 1_555
O1 Rb1 2.786946 1_655
O1 Rb2 2.837320 1_544
O1 Rb3 2.839153 1_554
O2 W1 2.117967 1_555
O2 W0 2.143688 1_565
O2 Rb3 2.786127 1_565
O2 Rb2 2.786935 1_555
O2 Rb1 2.837330 1_554
O2 Rb0 2.839153 1_454
O3 W1 2.117967 1_555
O3 W0 2.143688 1_666
O3 Rb2 2.786122 1_555
O3 Rb3 2.786943 1_565
O3 Rb0 2.837321 1_555
O3 Rb1 2.839159 1_655
O4 W2 1.979581 1_554
O4 W0 2.215524 1_665
O4 Rb2 2.821494 1_655
O4 Rb0 2.958332 1_565
O4 Rb0 3.106092 1_554
O4 Rb2 3.254702 1_554
O5 W3 1.979587 1_556
O5 W0 2.215524 1_556
O5 Rb3 2.821495 1_455
O5 Rb1 2.958328 1_556
O5 Rb1 3.106094 1_545
O5 Rb3 3.254698 1_556
O6 W3 1.979587 1_556
O6 W1 2.215524 1_556
O6 Rb0 2.821495 1_455
O6 Rb2 2.958330 1_556
O6 Rb2 3.106096 1_545
O6 Rb0 3.254698 1_556
O7 W2 1.979597 1_554
O7 W1 2.215524 1_555
O7 Rb1 2.821491 1_655
O7 Rb3 2.958332 1_565
O7 Rb3 3.106092 1_554
O7 Rb1 3.254700 1_554
O8 W2 1.894146 1_555
O8 W3 2.025775 1_555
O8 Rb0 2.724170 1_555
O8 Rb3 2.724170 1_555
O9 W3 1.894150 1_566
O9 W2 2.025774 1_555
O9 Rb1 2.724165 1_555
O9 Rb2 2.724179 1_555
