# generated using pymatgen
data_Er6Al7Cu16
_symmetry_space_group_name_H-M   'P 1'
_cell_length_a   8.64775754
_cell_length_b   8.64775754
_cell_length_c   8.64775754
_cell_angle_alpha   60.00000000
_cell_angle_beta   60.00000000
_cell_angle_gamma   60.00000000
_symmetry_Int_Tables_number   1
_chemical_formula_structural   Er6Al7Cu16
_chemical_formula_sum   'Er6 Al7 Cu16'
_cell_volume   457.29401396
_cell_formula_units_Z   1
loop_
 _symmetry_equiv_pos_site_id
 _symmetry_equiv_pos_as_xyz
  1  'x, y, z'
loop_
 _atom_site_type_symbol
 _atom_site_label
 _atom_site_symmetry_multiplicity
 _atom_site_fract_x
 _atom_site_fract_y
 _atom_site_fract_z
 _atom_site_occupancy
  Er  Er0  1  0.71264000  0.71264000  0.28736000  1
  Er  Er1  1  0.28736000  0.71264000  0.28736000  1
  Er  Er2  1  0.71264000  0.28736000  0.28736000  1
  Er  Er3  1  0.28736000  0.28736000  0.71264000  1
  Er  Er4  1  0.71264000  0.28736000  0.71264000  1
  Er  Er5  1  0.28736000  0.71264000  0.71264000  1
  Al  Al0  1  0.00000000  0.00000000  0.00000000  1
  Al  Al1  1  0.00000000  0.00000000  0.50000000  1
  Al  Al2  1  0.50000000  0.00000000  0.50000000  1
  Al  Al3  1  0.00000000  0.50000000  0.50000000  1
  Al  Al4  1  0.50000000  0.50000000  0.00000000  1
  Al  Al5  1  0.00000000  0.50000000  0.00000000  1
  Al  Al6  1  0.50000000  0.00000000  0.00000000  1
  Cu  Cu0  1  0.87785000  0.87785000  0.36644900  1
  Cu  Cu1  1  0.87785000  0.36644900  0.87785000  1
  Cu  Cu2  1  0.36644900  0.87785000  0.87785000  1
  Cu  Cu3  1  0.87785000  0.87785000  0.87785000  1
  Cu  Cu4  1  0.12215000  0.12215000  0.63355100  1
  Cu  Cu5  1  0.12215000  0.63355100  0.12215000  1
  Cu  Cu6  1  0.63355100  0.12215000  0.12215000  1
  Cu  Cu7  1  0.12215000  0.12215000  0.12215000  1
  Cu  Cu8  1  0.67262900  0.67262900  0.98211200  1
  Cu  Cu9  1  0.67262900  0.98211200  0.67262900  1
  Cu  Cu10  1  0.98211200  0.67262900  0.67262900  1
  Cu  Cu11  1  0.67262900  0.67262900  0.67262900  1
  Cu  Cu12  1  0.32737100  0.32737100  0.01788800  1
  Cu  Cu13  1  0.32737100  0.01788800  0.32737100  1
  Cu  Cu14  1  0.01788800  0.32737100  0.32737100  1
  Cu  Cu15  1  0.32737100  0.32737100  0.32737100  1
loop_
_geom_bond_atom_site_label_1
_geom_bond_atom_site_label_2
_geom_bond_distance
_geom_bond_site_symmetry_2
Er0 Er2 3.677718 1_555
Er0 Er1 3.677718 1_555
Er0 Er5 3.677718 1_555
Er0 Er4 3.677718 1_555
Er1 Er2 3.677718 1_555
Er1 Er5 3.677718 1_555
Er1 Er3 3.677718 1_555
Er2 Er4 3.677718 1_555
Er2 Er3 3.677718 1_555
Er3 Er4 3.677718 1_555
Er3 Er5 3.677718 1_555
Er4 Er5 3.677718 1_555
Al0 Cu2 2.587447 1_544
Al0 Cu0 2.587447 1_445
Al0 Cu1 2.587447 1_454
Al0 Cu6 2.587447 1_455
Al0 Cu4 2.587447 1_554
Al0 Cu5 2.587447 1_545
Al0 Cu3 2.587454 1_444
Al0 Cu7 2.587454 1_555
Al1 Cu13 2.499588 1_555
Al1 Cu14 2.499588 1_555
Al1 Cu9 2.499588 1_445
Al1 Cu10 2.499588 1_445
Al1 Cu3 2.668555 1_445
Al1 Cu7 2.668555 1_555
Al1 Cu4 2.668562 1_555
Al1 Cu0 2.668562 1_445
Al1 Er1 3.091395 1_545
Al1 Er2 3.091395 1_455
Al1 Er5 3.091395 1_545
Al1 Er4 3.091395 1_455
Al2 Cu9 2.499581 1_545
Al2 Cu13 2.499581 1_555
Al2 Cu11 2.499585 1_545
Al2 Cu15 2.499585 1_555
Al2 Cu2 2.668555 1_545
Al2 Cu6 2.668555 1_555
Al2 Cu0 2.668555 1_545
Al2 Cu4 2.668555 1_555
Al2 Er0 3.091395 1_545
Al2 Er5 3.091395 1_545
Al2 Er2 3.091395 1_555
Al2 Er3 3.091395 1_555
Al3 Cu10 2.499581 1_455
Al3 Cu14 2.499581 1_555
Al3 Cu11 2.499585 1_455
Al3 Cu15 2.499585 1_555
Al3 Cu5 2.668555 1_555
Al3 Cu0 2.668555 1_455
Al3 Cu4 2.668555 1_555
Al3 Cu1 2.668555 1_455
Al3 Er4 3.091395 1_455
Al3 Er0 3.091395 1_455
Al3 Er1 3.091395 1_555
Al3 Er3 3.091395 1_555
Al4 Cu8 2.499581 1_554
Al4 Cu12 2.499581 1_555
Al4 Cu11 2.499585 1_554
Al4 Cu15 2.499585 1_555
Al4 Cu1 2.668555 1_554
Al4 Cu2 2.668555 1_554
Al4 Cu5 2.668555 1_555
Al4 Cu6 2.668555 1_555
Al4 Er5 3.091395 1_554
Al4 Er4 3.091395 1_554
Al4 Er1 3.091395 1_555
Al4 Er2 3.091395 1_555
Al5 Cu12 2.499588 1_555
Al5 Cu14 2.499588 1_555
Al5 Cu8 2.499588 1_454
Al5 Cu10 2.499588 1_454
Al5 Cu7 2.668555 1_555
Al5 Cu3 2.668555 1_454
Al5 Cu5 2.668562 1_555
Al5 Cu1 2.668562 1_454
Al5 Er2 3.091395 1_455
Al5 Er3 3.091395 1_554
Al5 Er5 3.091395 1_554
Al5 Er0 3.091395 1_455
Al6 Cu12 2.499588 1_555
Al6 Cu13 2.499588 1_555
Al6 Cu8 2.499588 1_544
Al6 Cu9 2.499588 1_544
Al6 Cu7 2.668555 1_555
Al6 Cu3 2.668555 1_544
Al6 Cu6 2.668562 1_555
Al6 Cu2 2.668562 1_544
Al6 Er1 3.091395 1_545
Al6 Er3 3.091395 1_554
Al6 Er0 3.091395 1_545
Al6 Er4 3.091395 1_554
Cu0 Cu10 2.657326 1_555
Cu0 Cu9 2.657326 1_555
Cu0 Cu11 2.657326 1_555
Cu0 Er0 2.923283 1_555
Cu0 Er1 2.923291 1_655
Cu0 Er2 2.923291 1_565
Cu0 Cu5 2.987722 1_655
Cu0 Cu6 2.987722 1_565
Cu0 Cu7 2.987734 1_665
Cu1 Cu10 2.657326 1_555
Cu1 Cu8 2.657326 1_555
Cu1 Cu11 2.657326 1_555
Cu1 Er4 2.923283 1_555
Cu1 Er3 2.923291 1_655
Cu1 Er2 2.923291 1_556
Cu1 Cu4 2.987722 1_655
Cu1 Cu6 2.987722 1_556
Cu1 Cu7 2.987734 1_656
Cu2 Cu9 2.657326 1_555
Cu2 Cu8 2.657326 1_555
Cu2 Er5 2.923283 1_555
Cu2 Er3 2.923291 1_565
Cu2 Er1 2.923291 1_556
Cu2 Cu4 2.987722 1_565
Cu2 Cu5 2.987722 1_556
Cu2 Cu7 2.987734 1_566
Cu3 Cu9 2.657326 1_555
Cu3 Cu8 2.657326 1_555
Cu3 Er5 2.923290 1_655
Cu3 Er0 2.923290 1_556
Cu3 Er4 2.923290 1_565
Cu3 Cu6 2.987734 1_566
Cu3 Cu4 2.987734 1_665
Cu3 Cu5 2.987734 1_656
Cu4 Er3 2.923283 1_555
Cu4 Er4 2.923291 1_455
Cu4 Er5 2.923291 1_545
Cu5 Er1 2.923283 1_555
Cu5 Er5 2.923291 1_554
Cu5 Er0 2.923291 1_455
Cu6 Er2 2.923283 1_555
Cu6 Er0 2.923291 1_545
Cu6 Er4 2.923291 1_554
Cu7 Er3 2.923290 1_554
Cu7 Er2 2.923290 1_455
Cu7 Er1 2.923290 1_545
Cu8 Cu9 2.676334 1_555
Cu8 Er2 3.025543 1_556
Cu8 Er1 3.025543 1_556
Cu8 Er0 3.025548 1_556
Cu9 Er2 3.025543 1_565
Cu9 Er3 3.025543 1_565
Cu9 Er4 3.025548 1_565
Cu10 Cu3 2.657326 1_555
Cu10 Cu8 2.676334 1_555
Cu10 Cu11 2.676334 1_555
Cu10 Cu9 2.676334 1_555
Cu10 Er1 3.025543 1_655
Cu10 Er3 3.025543 1_655
Cu10 Er5 3.025548 1_655
Cu11 Cu2 2.657326 1_555
Cu11 Cu8 2.676334 1_555
Cu11 Cu9 2.676334 1_555
Cu11 Er5 3.025539 1_555
Cu11 Er4 3.025539 1_555
Cu11 Er0 3.025539 1_555
Cu12 Cu7 2.657326 1_555
Cu12 Cu6 2.657326 1_555
Cu12 Cu5 2.657326 1_555
Cu12 Cu13 2.676334 1_555
Cu12 Cu15 2.676334 1_555
Cu12 Cu14 2.676334 1_555
Cu12 Er4 3.025543 1_554
Cu12 Er5 3.025543 1_554
Cu12 Er3 3.025548 1_554
Cu13 Cu7 2.657326 1_555
Cu13 Cu6 2.657326 1_555
Cu13 Cu4 2.657326 1_555
Cu13 Cu15 2.676334 1_555
Cu13 Cu14 2.676334 1_555
Cu13 Er0 3.025543 1_545
Cu13 Er5 3.025543 1_545
Cu13 Er1 3.025548 1_545
Cu14 Cu7 2.657326 1_555
Cu14 Cu4 2.657326 1_555
Cu14 Cu5 2.657326 1_555
Cu14 Cu15 2.676334 1_555
Cu14 Er0 3.025543 1_455
Cu14 Er4 3.025543 1_455
Cu14 Er2 3.025548 1_455
Cu15 Cu6 2.657326 1_555
Cu15 Cu4 2.657326 1_555
Cu15 Cu5 2.657326 1_555
Cu15 Er1 3.025539 1_555
Cu15 Er2 3.025539 1_555
Cu15 Er3 3.025539 1_555
