# generated using pymatgen
data_Mg30CdCoO32
_symmetry_space_group_name_H-M   'P 1'
_cell_length_a   8.55178700
_cell_length_b   8.55178700
_cell_length_c   8.57818300
_cell_angle_alpha   90.00000000
_cell_angle_beta   90.00000000
_cell_angle_gamma   90.00000000
_symmetry_Int_Tables_number   1
_chemical_formula_structural   Mg30CdCoO32
_chemical_formula_sum   'Mg30 Cd1 Co1 O32'
_cell_volume   627.34877969
_cell_formula_units_Z   1
loop_
 _symmetry_equiv_pos_site_id
 _symmetry_equiv_pos_as_xyz
  1  'x, y, z'
loop_
 _atom_site_type_symbol
 _atom_site_label
 _atom_site_symmetry_multiplicity
 _atom_site_fract_x
 _atom_site_fract_y
 _atom_site_fract_z
 _atom_site_occupancy
  Mg  Mg0  1  0.00000000  0.50000000  0.00000000  1
  Mg  Mg1  1  0.00000000  0.50000000  0.50000000  1
  Mg  Mg2  1  0.50000000  0.00000000  0.00000000  1
  Mg  Mg3  1  0.50000000  0.00000000  0.50000000  1
  Mg  Mg4  1  0.50000000  0.50000000  0.00000000  1
  Mg  Mg5  1  0.50000000  0.50000000  0.50000000  1
  Mg  Mg6  1  0.00000000  0.25131200  0.24786400  1
  Mg  Mg7  1  0.00000000  0.25131200  0.75213600  1
  Mg  Mg8  1  0.00000000  0.74868800  0.24786400  1
  Mg  Mg9  1  0.00000000  0.74868800  0.75213600  1
  Mg  Mg10  1  0.50000000  0.24971200  0.25016600  1
  Mg  Mg11  1  0.50000000  0.24971200  0.74983400  1
  Mg  Mg12  1  0.50000000  0.75028800  0.25016600  1
  Mg  Mg13  1  0.50000000  0.75028800  0.74983400  1
  Mg  Mg14  1  0.25131200  0.00000000  0.24786400  1
  Mg  Mg15  1  0.25131200  0.00000000  0.75213600  1
  Mg  Mg16  1  0.24971200  0.50000000  0.25016600  1
  Mg  Mg17  1  0.24971200  0.50000000  0.74983400  1
  Mg  Mg18  1  0.74868800  0.00000000  0.24786400  1
  Mg  Mg19  1  0.74868800  0.00000000  0.75213600  1
  Mg  Mg20  1  0.75028800  0.50000000  0.25016600  1
  Mg  Mg21  1  0.75028800  0.50000000  0.74983400  1
  Mg  Mg22  1  0.25014100  0.25014100  0.00000000  1
  Mg  Mg23  1  0.25203300  0.25203300  0.50000000  1
  Mg  Mg24  1  0.25014100  0.74985900  0.00000000  1
  Mg  Mg25  1  0.25203300  0.74796700  0.50000000  1
  Mg  Mg26  1  0.74985900  0.25014100  0.00000000  1
  Mg  Mg27  1  0.74796700  0.25203300  0.50000000  1
  Mg  Mg28  1  0.74985900  0.74985900  0.00000000  1
  Mg  Mg29  1  0.74796700  0.74796700  0.50000000  1
  Cd  Cd0  1  0.00000000  0.00000000  0.50000000  1
  Co  Co0  1  0.00000000  0.00000000  0.00000000  1
  O  O0  1  0.25225300  0.00000000  0.00000000  1
  O  O1  1  0.26427500  0.00000000  0.50000000  1
  O  O2  1  0.25005700  0.50000000  0.00000000  1
  O  O3  1  0.25205500  0.50000000  0.50000000  1
  O  O4  1  0.74774700  0.00000000  0.00000000  1
  O  O5  1  0.73572500  0.00000000  0.50000000  1
  O  O6  1  0.74994300  0.50000000  0.00000000  1
  O  O7  1  0.74794500  0.50000000  0.50000000  1
  O  O8  1  0.24941800  0.24941800  0.25006500  1
  O  O9  1  0.24941800  0.24941800  0.74993500  1
  O  O10  1  0.24941800  0.75058200  0.25006500  1
  O  O11  1  0.24941800  0.75058200  0.74993500  1
  O  O12  1  0.75058200  0.24941800  0.25006500  1
  O  O13  1  0.75058200  0.24941800  0.74993500  1
  O  O14  1  0.75058200  0.75058200  0.25006500  1
  O  O15  1  0.75058200  0.75058200  0.74993500  1
  O  O16  1  0.00000000  0.00000000  0.24116900  1
  O  O17  1  0.00000000  0.00000000  0.75883100  1
  O  O18  1  0.00000000  0.50000000  0.24767900  1
  O  O19  1  0.00000000  0.50000000  0.75232100  1
  O  O20  1  0.50000000  0.00000000  0.24767900  1
  O  O21  1  0.50000000  0.00000000  0.75232100  1
  O  O22  1  0.50000000  0.50000000  0.24958600  1
  O  O23  1  0.50000000  0.50000000  0.75041400  1
  O  O24  1  0.00000000  0.25225300  0.00000000  1
  O  O25  1  0.00000000  0.26427500  0.50000000  1
  O  O26  1  0.00000000  0.74774700  0.00000000  1
  O  O27  1  0.00000000  0.73572500  0.50000000  1
  O  O28  1  0.50000000  0.25005700  0.00000000  1
  O  O29  1  0.50000000  0.25205500  0.50000000  1
  O  O30  1  0.50000000  0.74994300  0.00000000  1
  O  O31  1  0.50000000  0.74794500  0.50000000  1
loop_
_geom_bond_atom_site_label_1
_geom_bond_atom_site_label_2
_geom_bond_distance
_geom_bond_site_symmetry_2
Mg0 O24 2.118680 1_555
Mg0 O26 2.118680 1_555
Mg0 O19 2.124636 1_554
Mg0 O18 2.124636 1_555
Mg0 O2 2.138434 1_555
Mg0 O6 2.138434 1_455
Mg1 O27 2.015870 1_555
Mg1 O25 2.015870 1_555
Mg1 O3 2.155521 1_555
Mg1 O7 2.155521 1_455
Mg1 O18 2.164456 1_555
Mg1 O19 2.164456 1_555
Mg2 O0 2.118680 1_555
Mg2 O4 2.118680 1_555
Mg2 O21 2.124636 1_554
Mg2 O20 2.124636 1_555
Mg2 O30 2.138434 1_545
Mg2 O28 2.138434 1_555
Mg3 O5 2.015870 1_555
Mg3 O1 2.015870 1_555
Mg3 O29 2.155521 1_555
Mg3 O31 2.155521 1_545
Mg3 O21 2.164456 1_555
Mg3 O20 2.164456 1_555
Mg4 O28 2.137459 1_555
Mg4 O6 2.137459 1_555
Mg4 O30 2.137459 1_555
Mg4 O2 2.137459 1_555
Mg4 O23 2.140994 1_554
Mg4 O22 2.140994 1_555
Mg5 O7 2.120373 1_555
Mg5 O31 2.120373 1_555
Mg5 O29 2.120373 1_555
Mg5 O3 2.120373 1_555
Mg5 O23 2.148097 1_555
Mg5 O22 2.148097 1_555
Mg6 O24 2.126238 1_555
Mg6 O18 2.126727 1_555
Mg6 O8 2.133115 1_555
Mg6 O12 2.133115 1_455
Mg6 O16 2.149934 1_555
Mg6 O25 2.165708 1_555
Mg7 O24 2.126238 1_556
Mg7 O19 2.126727 1_555
Mg7 O9 2.133115 1_555
Mg7 O13 2.133115 1_455
Mg7 O17 2.149934 1_555
Mg7 O25 2.165708 1_555
Mg8 O26 2.126238 1_555
Mg8 O18 2.126727 1_555
Mg8 O10 2.133115 1_555
Mg8 O14 2.133115 1_455
Mg8 O16 2.149934 1_565
Mg8 O27 2.165708 1_555
Mg9 O26 2.126238 1_556
Mg9 O19 2.126727 1_555
Mg9 O11 2.133115 1_555
Mg9 O15 2.133115 1_455
Mg9 O17 2.149934 1_565
Mg9 O27 2.165708 1_555
Mg10 O20 2.135590 1_555
Mg10 O22 2.140415 1_555
Mg10 O12 2.142926 1_555
Mg10 O8 2.142926 1_555
Mg10 O29 2.143215 1_555
Mg10 O28 2.145972 1_555
Mg11 O21 2.135590 1_555
Mg11 O23 2.140415 1_555
Mg11 O13 2.142926 1_555
Mg11 O9 2.142926 1_555
Mg11 O29 2.143215 1_555
Mg11 O28 2.145972 1_556
Mg12 O20 2.135590 1_565
Mg12 O22 2.140415 1_555
Mg12 O10 2.142926 1_555
Mg12 O14 2.142926 1_555
Mg12 O31 2.143215 1_555
Mg12 O30 2.145972 1_555
Mg13 O21 2.135590 1_565
Mg13 O23 2.140415 1_555
Mg13 O11 2.142926 1_555
Mg13 O15 2.142926 1_555
Mg13 O31 2.143215 1_555
Mg13 O30 2.145972 1_556
Mg14 O0 2.126238 1_555
Mg14 O20 2.126727 1_555
Mg14 O8 2.133115 1_555
Mg14 O10 2.133115 1_545
Mg14 O16 2.149934 1_555
Mg14 O1 2.165708 1_555
Mg15 O0 2.126238 1_556
Mg15 O21 2.126727 1_555
Mg15 O9 2.133115 1_555
Mg15 O11 2.133115 1_545
Mg15 O17 2.149934 1_555
Mg15 O1 2.165708 1_555
Mg16 O18 2.135590 1_555
Mg16 O22 2.140415 1_555
Mg16 O10 2.142926 1_555
Mg16 O8 2.142926 1_555
Mg16 O3 2.143215 1_555
Mg16 O2 2.145972 1_555
Mg17 O19 2.135590 1_555
Mg17 O23 2.140415 1_555
Mg17 O9 2.142926 1_555
Mg17 O11 2.142926 1_555
Mg17 O3 2.143215 1_555
Mg17 O2 2.145972 1_556
Mg18 O4 2.126238 1_555
Mg18 O20 2.126727 1_555
Mg18 O12 2.133115 1_555
Mg18 O14 2.133115 1_545
Mg18 O16 2.149934 1_655
Mg18 O5 2.165708 1_555
Mg19 O4 2.126238 1_556
Mg19 O21 2.126727 1_555
Mg19 O13 2.133115 1_555
Mg19 O15 2.133115 1_545
Mg19 O17 2.149934 1_655
Mg19 O5 2.165708 1_555
Mg20 O18 2.135590 1_655
Mg20 O22 2.140415 1_555
Mg20 O12 2.142926 1_555
Mg20 O14 2.142926 1_555
Mg20 O7 2.143215 1_555
Mg20 O6 2.145972 1_555
Mg21 O19 2.135590 1_655
Mg21 O23 2.140415 1_555
Mg21 O15 2.142926 1_555
Mg21 O13 2.142926 1_555
Mg21 O7 2.143215 1_555
Mg21 O6 2.145972 1_556
Mg22 O2 2.136741 1_555
Mg22 O28 2.136741 1_555
Mg22 O24 2.139229 1_555
Mg22 O0 2.139229 1_555
Mg22 O8 2.145121 1_555
Mg22 O9 2.145121 1_554
Mg23 O3 2.120561 1_555
Mg23 O29 2.120561 1_555
Mg23 O8 2.144221 1_555
Mg23 O9 2.144221 1_555
Mg23 O25 2.157874 1_555
Mg23 O1 2.157874 1_555
Mg24 O30 2.136741 1_555
Mg24 O2 2.136741 1_555
Mg24 O0 2.139229 1_565
Mg24 O26 2.139229 1_555
Mg24 O11 2.145121 1_554
Mg24 O10 2.145121 1_555
Mg25 O31 2.120561 1_555
Mg25 O3 2.120561 1_555
Mg25 O10 2.144221 1_555
Mg25 O11 2.144221 1_555
Mg25 O1 2.157874 1_565
Mg25 O27 2.157874 1_555
Mg26 O6 2.136741 1_555
Mg26 O28 2.136741 1_555
Mg26 O24 2.139229 1_655
Mg26 O4 2.139229 1_555
Mg26 O13 2.145121 1_554
Mg26 O12 2.145121 1_555
Mg27 O7 2.120561 1_555
Mg27 O29 2.120561 1_555
Mg27 O13 2.144221 1_555
Mg27 O12 2.144221 1_555
Mg27 O25 2.157874 1_655
Mg27 O5 2.157874 1_555
Mg28 O6 2.136741 1_555
Mg28 O30 2.136741 1_555
Mg28 O4 2.139229 1_565
Mg28 O26 2.139229 1_655
Mg28 O14 2.145121 1_555
Mg28 O15 2.145121 1_554
Mg29 O31 2.120561 1_555
Mg29 O7 2.120561 1_555
Mg29 O14 2.144221 1_555
Mg29 O15 2.144221 1_555
Mg29 O5 2.157874 1_565
Mg29 O27 2.157874 1_655
Cd0 O16 2.220300 1_555
Cd0 O17 2.220300 1_555
Cd0 O25 2.260024 1_555
Cd0 O1 2.260024 1_555
Cd0 O27 2.260024 1_545
Cd0 O5 2.260024 1_455
Co0 O17 2.068792 1_554
Co0 O16 2.068792 1_555
Co0 O4 2.157214 1_455
Co0 O26 2.157214 1_545
Co0 O24 2.157214 1_555
Co0 O0 2.157214 1_555
