# generated using pymatgen
data_Dy3CrS6
_symmetry_space_group_name_H-M   'P 1'
_cell_length_a   3.76271041
_cell_length_b   13.29057708
_cell_length_c   15.93240204
_cell_angle_alpha   90.00000000
_cell_angle_beta   90.00000000
_cell_angle_gamma   90.00000000
_symmetry_Int_Tables_number   1
_chemical_formula_structural   Dy3CrS6
_chemical_formula_sum   'Dy12 Cr4 S24'
_cell_volume   796.75700489
_cell_formula_units_Z   4
loop_
 _symmetry_equiv_pos_site_id
 _symmetry_equiv_pos_as_xyz
  1  'x, y, z'
loop_
 _atom_site_type_symbol
 _atom_site_label
 _atom_site_symmetry_multiplicity
 _atom_site_fract_x
 _atom_site_fract_y
 _atom_site_fract_z
 _atom_site_occupancy
  Dy  Dy0  1  0.00000000  0.54933095  0.27905110  1
  Dy  Dy1  1  -0.00000000  0.45066905  0.72094890  1
  Dy  Dy2  1  0.50000000  0.95066905  0.77905110  1
  Dy  Dy3  1  0.50000000  0.04933095  0.22094890  1
  Dy  Dy4  1  -0.00000000  0.75659256  0.09866544  1
  Dy  Dy5  1  0.00000000  0.24340744  0.90133456  1
  Dy  Dy6  1  0.50000000  0.74340744  0.59866544  1
  Dy  Dy7  1  0.50000000  0.25659256  0.40133456  1
  Dy  Dy8  1  0.00000000  0.31828552  0.14747553  1
  Dy  Dy9  1  0.00000000  0.68171448  0.85252447  1
  Dy  Dy10  1  0.50000000  0.18171448  0.64747553  1
  Dy  Dy11  1  0.50000000  0.81828552  0.35252447  1
  Cr  Cr0  1  -0.00000000  -0.00000000  0.50000000  1
  Cr  Cr1  1  0.50000000  0.50000000  0.00000000  1
  Cr  Cr2  1  -0.00000000  -0.00000000  0.00000000  1
  Cr  Cr3  1  0.50000000  0.50000000  0.50000000  1
  S  S0  1  -0.00000000  0.11969566  0.10853555  1
  S  S1  1  -0.00000000  0.88030434  0.89146445  1
  S  S2  1  0.50000000  0.38030434  0.60853555  1
  S  S3  1  0.50000000  0.61969566  0.39146445  1
  S  S4  1  0.00000000  0.18835311  0.28980650  1
  S  S5  1  0.00000000  0.81164689  0.71019350  1
  S  S6  1  0.50000000  0.31164689  0.78980650  1
  S  S7  1  0.50000000  0.68835311  0.21019350  1
  S  S8  1  0.00000000  0.18037570  0.51998005  1
  S  S9  1  -0.00000000  0.81962430  0.48001995  1
  S  S10  1  0.50000000  0.31962430  0.01998005  1
  S  S11  1  0.50000000  0.68037570  0.98001995  1
  S  S12  1  -0.00000000  0.52131594  0.09776003  1
  S  S13  1  0.00000000  0.47868406  0.90223997  1
  S  S14  1  0.50000000  0.97868406  0.59776003  1
  S  S15  1  0.50000000  0.02131594  0.40223997  1
  S  S16  1  0.00000000  0.10380728  0.75281235  1
  S  S17  1  -0.00000000  0.89619272  0.24718765  1
  S  S18  1  0.50000000  0.39619272  0.25281235  1
  S  S19  1  0.50000000  0.60380728  0.74718765  1
  S  S20  1  0.00000000  0.41722883  0.42477444  1
  S  S21  1  -0.00000000  0.58277117  0.57522556  1
  S  S22  1  0.50000000  0.08277117  0.92477444  1
  S  S23  1  0.50000000  0.91722883  0.07522556  1
loop_
_geom_bond_atom_site_label_1
_geom_bond_atom_site_label_2
_geom_bond_distance
_geom_bond_site_symmetry_2
Dy0 S3 2.760762 1_455
Dy0 S3 2.760762 1_555
Dy0 S18 2.802978 1_455
Dy0 S18 2.802978 1_555
Dy0 S7 2.856045 1_455
Dy0 S7 2.856045 1_555
Dy0 S20 2.910829 1_555
Dy0 S12 2.912302 1_555
Dy1 S2 2.760762 1_455
Dy1 S2 2.760762 1_555
Dy1 S19 2.802978 1_555
Dy1 S19 2.802978 1_455
Dy1 S6 2.856045 1_555
Dy1 S6 2.856045 1_455
Dy1 S21 2.910829 1_555
Dy1 S13 2.912302 1_555
Dy2 S1 2.760762 1_555
Dy2 S1 2.760762 1_655
Dy2 S16 2.802978 1_565
Dy2 S16 2.802978 1_665
Dy2 S5 2.856045 1_555
Dy2 S5 2.856045 1_655
Dy2 S22 2.910829 1_565
Dy2 S14 2.912302 1_555
Dy3 S0 2.760762 1_555
Dy3 S0 2.760762 1_655
Dy3 S17 2.802978 1_645
Dy3 S17 2.802978 1_545
Dy3 S4 2.856045 1_655
Dy3 S4 2.856045 1_555
Dy3 S23 2.910829 1_545
Dy3 S15 2.912302 1_555
Dy4 S7 2.742161 1_455
Dy4 S7 2.742161 1_555
Dy4 S11 2.852869 1_454
Dy4 S11 2.852869 1_554
Dy4 S23 2.870012 1_455
Dy4 S23 2.870012 1_555
Dy4 S17 3.006964 1_555
Dy4 S12 3.126995 1_555
Dy5 S6 2.742161 1_455
Dy5 S6 2.742161 1_555
Dy5 S10 2.852869 1_556
Dy5 S10 2.852869 1_456
Dy5 S22 2.870012 1_555
Dy5 S22 2.870012 1_455
Dy5 S16 3.006964 1_555
Dy5 S13 3.126995 1_555
Dy6 S5 2.742161 1_655
Dy6 S5 2.742161 1_555
Dy6 S9 2.852869 1_555
Dy6 S9 2.852869 1_655
Dy6 S21 2.870012 1_555
Dy6 S21 2.870012 1_655
Dy6 S19 3.006964 1_555
Dy6 S14 3.126995 1_555
Dy7 S4 2.742161 1_555
Dy7 S4 2.742161 1_655
Dy7 S8 2.852869 1_655
Dy7 S8 2.852869 1_555
Dy7 S20 2.870012 1_655
Dy7 S20 2.870012 1_555
Dy7 S18 3.006964 1_555
Dy7 S15 3.126995 1_555
Dy8 S0 2.711310 1_555
Dy8 S18 2.725473 1_555
Dy8 S18 2.725473 1_455
Dy8 S10 2.768760 1_555
Dy8 S10 2.768760 1_455
Dy8 S12 2.812244 1_555
Dy8 S4 2.850342 1_555
Dy9 S1 2.711310 1_555
Dy9 S19 2.725473 1_555
Dy9 S19 2.725473 1_455
Dy9 S11 2.768760 1_455
Dy9 S11 2.768760 1_555
Dy9 S13 2.812244 1_555
Dy9 S5 2.850342 1_555
Dy10 S2 2.711310 1_555
Dy10 S16 2.725473 1_655
Dy10 S16 2.725473 1_555
Dy10 S8 2.768760 1_655
Dy10 S8 2.768760 1_555
Dy10 S14 2.812244 1_545
Dy10 S6 2.850342 1_555
Dy11 S3 2.711310 1_555
Dy11 S17 2.725473 1_555
Dy11 S17 2.725473 1_655
Dy11 S9 2.768760 1_555
Dy11 S9 2.768760 1_655
Dy11 S15 2.812244 1_565
Dy11 S7 2.850342 1_555
Cr0 S9 2.418340 1_545
Cr0 S8 2.418340 1_555
Cr0 S15 2.458806 1_555
Cr0 S14 2.458806 1_445
Cr0 S15 2.458806 1_455
Cr0 S14 2.458806 1_545
Cr1 S11 2.418340 1_554
Cr1 S10 2.418340 1_555
Cr1 S13 2.458806 1_554
Cr1 S12 2.458806 1_555
Cr1 S12 2.458806 1_655
Cr1 S13 2.458806 1_654
Cr2 S1 2.349674 1_544
Cr2 S0 2.349674 1_555
Cr2 S22 2.487192 1_554
Cr2 S23 2.487192 1_445
Cr2 S23 2.487192 1_545
Cr2 S22 2.487192 1_454
Cr3 S3 2.349674 1_555
Cr3 S2 2.349674 1_555
Cr3 S21 2.487192 1_655
Cr3 S20 2.487192 1_555
Cr3 S20 2.487192 1_655
Cr3 S21 2.487192 1_555
