# generated using pymatgen
data_Ce2MnSb2O
_symmetry_space_group_name_H-M   'P 1'
_cell_length_a   3.25536900
_cell_length_b   3.25536900
_cell_length_c   16.16388300
_cell_angle_alpha   90.00000000
_cell_angle_beta   90.00000000
_cell_angle_gamma   90.00000000
_symmetry_Int_Tables_number   1
_chemical_formula_structural   Ce2MnSb2O
_chemical_formula_sum   'Ce2 Mn1 Sb2 O1'
_cell_volume   171.29557540
_cell_formula_units_Z   1
loop_
 _symmetry_equiv_pos_site_id
 _symmetry_equiv_pos_as_xyz
  1  'x, y, z'
loop_
 _atom_site_type_symbol
 _atom_site_label
 _atom_site_symmetry_multiplicity
 _atom_site_fract_x
 _atom_site_fract_y
 _atom_site_fract_z
 _atom_site_occupancy
  Ce  Ce0  1  0.50000000  0.50000000  0.62732400  1
  Ce  Ce1  1  0.50000000  0.50000000  0.37267600  1
  Mn  Mn0  1  0.50000000  0.50000000  0.00000000  1
  Sb  Sb0  1  0.50000000  0.50000000  0.17037200  1
  Sb  Sb1  1  0.50000000  0.50000000  0.82962800  1
  O  O0  1  0.50000000  0.50000000  0.50000000  1
loop_
_geom_bond_atom_site_label_1
_geom_bond_atom_site_label_2
_geom_bond_distance
_geom_bond_site_symmetry_2
Ce0 O0 2.058050 1_555
Ce0 Sb1 3.270018 1_555
Ce1 O0 2.058050 1_555
Ce1 Sb0 3.270018 1_555
Mn0 Sb1 2.753873 1_554
Mn0 Sb0 2.753873 1_555
