# generated using pymatgen
data_BaHgAs2O7
_symmetry_space_group_name_H-M   'P 1'
_cell_length_a   5.94699600
_cell_length_b   7.62598166
_cell_length_c   7.97607331
_cell_angle_alpha   101.61846343
_cell_angle_beta   90.95418678
_cell_angle_gamma   96.90320637
_symmetry_Int_Tables_number   1
_chemical_formula_structural   BaHgAs2O7
_chemical_formula_sum   'Ba2 Hg2 As4 O14'
_cell_volume   351.43745031
_cell_formula_units_Z   2
loop_
 _symmetry_equiv_pos_site_id
 _symmetry_equiv_pos_as_xyz
  1  'x, y, z'
loop_
 _atom_site_type_symbol
 _atom_site_label
 _atom_site_symmetry_multiplicity
 _atom_site_fract_x
 _atom_site_fract_y
 _atom_site_fract_z
 _atom_site_occupancy
  Ba  Ba0  1  0.70463200  0.27314400  0.93258500  1
  Ba  Ba1  1  0.29536800  0.72685600  0.06741500  1
  Hg  Hg0  1  0.30611100  0.83286700  0.59902300  1
  Hg  Hg1  1  0.69388900  0.16713300  0.40097700  1
  As  As0  1  0.80798300  0.77107300  0.80847500  1
  As  As1  1  0.19201700  0.22892700  0.19152500  1
  As  As2  1  0.78521500  0.66749000  0.39333600  1
  As  As3  1  0.21478500  0.33251000  0.60666400  1
  O  O0  1  0.94725200  0.22962000  0.63132900  1
  O  O1  1  0.05274800  0.77038000  0.36867100  1
  O  O2  1  0.78268900  0.64035800  0.95721800  1
  O  O3  1  0.21731100  0.35964200  0.04278200  1
  O  O4  1  0.78058900  0.61647500  0.60477600  1
  O  O5  1  0.21941100  0.38352500  0.39522400  1
  O  O6  1  0.59157200  0.90334700  0.81864700  1
  O  O7  1  0.40842800  0.09665300  0.18135300  1
  O  O8  1  0.58409200  0.81184300  0.38239200  1
  O  O9  1  0.41590800  0.18815700  0.61760800  1
  O  O10  1  0.28226500  0.53906500  0.73214300  1
  O  O11  1  0.71773500  0.46093500  0.26785700  1
  O  O12  1  0.06968800  0.89734100  0.82693400  1
  O  O13  1  0.93031200  0.10265900  0.17306600  1
loop_
_geom_bond_atom_site_label_1
_geom_bond_atom_site_label_2
_geom_bond_distance
_geom_bond_site_symmetry_2
Ba0 O2 2.749365 1_555
Ba0 O11 2.762565 1_556
Ba0 O6 2.778904 1_545
Ba0 O0 2.806244 1_555
Ba0 O13 2.916989 1_556
Ba0 O9 2.934760 1_555
Ba0 O7 3.077927 1_556
Ba0 O3 3.114034 1_656
Ba0 O3 3.149200 1_556
Ba1 O3 2.749365 1_555
Ba1 O10 2.762565 1_554
Ba1 O7 2.778904 1_565
Ba1 O1 2.806244 1_555
Ba1 O12 2.916989 1_554
Ba1 O8 2.934760 1_555
Ba1 O6 3.077927 1_554
Ba1 O2 3.114034 1_454
Ba1 O2 3.149200 1_554
Hg0 O1 2.292511 1_555
Hg0 O12 2.326891 1_555
Hg0 O6 2.354106 1_555
Hg0 O8 2.406533 1_555
Hg0 O10 2.655991 1_555
Hg0 O9 2.683113 1_565
Hg1 O0 2.292511 1_555
Hg1 O13 2.326891 1_555
Hg1 O7 2.354106 1_555
Hg1 O9 2.406533 1_555
Hg1 O11 2.655991 1_555
Hg1 O8 2.683113 1_545
As0 O2 1.694123 1_555
As0 O12 1.716436 1_655
As0 O6 1.721348 1_555
As0 O4 1.797132 1_555
As1 O3 1.694123 1_555
As1 O13 1.716436 1_455
As1 O7 1.721348 1_555
As1 O5 1.797132 1_555
As2 O11 1.686295 1_555
As2 O1 1.719943 1_655
As2 O8 1.732568 1_555
As2 O4 1.805409 1_555
As3 O10 1.686295 1_555
As3 O0 1.719943 1_455
As3 O9 1.732568 1_555
As3 O5 1.805409 1_555
