# generated using pymatgen
data_TiCrCuS4
_symmetry_space_group_name_H-M   'P 1'
_cell_length_a   5.90622100
_cell_length_b   7.00352091
_cell_length_c   12.65023046
_cell_angle_alpha   106.03526131
_cell_angle_beta   93.09277236
_cell_angle_gamma   89.78152596
_symmetry_Int_Tables_number   1
_chemical_formula_structural   TiCrCuS4
_chemical_formula_sum   'Ti4 Cr4 Cu4 S16'
_cell_volume   502.14304334
_cell_formula_units_Z   4
loop_
 _symmetry_equiv_pos_site_id
 _symmetry_equiv_pos_as_xyz
  1  'x, y, z'
loop_
 _atom_site_type_symbol
 _atom_site_label
 _atom_site_symmetry_multiplicity
 _atom_site_fract_x
 _atom_site_fract_y
 _atom_site_fract_z
 _atom_site_occupancy
  Ti  Ti0  1  0.04000400  0.23084700  0.74334700  1
  Ti  Ti1  1  0.52702000  0.53016400  0.75140900  1
  Ti  Ti2  1  0.45923100  0.49740700  0.25887800  1
  Ti  Ti3  1  0.50555500  0.98581600  0.24161700  1
  Cr  Cr0  1  0.02145700  0.74112200  0.74664500  1
  Cr  Cr1  1  0.98087800  0.24523800  0.25179200  1
  Cr  Cr2  1  0.98606900  0.74093800  0.25187000  1
  Cr  Cr3  1  0.52308200  0.00009700  0.74696900  1
  Cu  Cu0  1  0.34984100  0.02550800  0.02382500  1
  Cu  Cu1  1  0.58701000  0.02743100  0.49594300  1
  Cu  Cu2  1  0.06892500  0.50258800  0.50016300  1
  Cu  Cu3  1  0.88864900  0.50678500  0.00749200  1
  S  S0  1  0.85158100  0.44051300  0.63290300  1
  S  S1  1  0.83252100  0.55125100  0.35988200  1
  S  S2  1  0.20770600  0.04433900  0.86080400  1
  S  S3  1  0.13084200  0.94060300  0.14347500  1
  S  S4  1  0.19269100  0.55639700  0.86115600  1
  S  S5  1  0.12904600  0.43151100  0.13585000  1
  S  S6  1  0.83925100  0.94208300  0.63201300  1
  S  S7  1  0.84070600  0.04639600  0.36553600  1
  S  S8  1  0.70604500  0.81670800  0.86312700  1
  S  S9  1  0.63527500  0.20029900  0.13667900  1
  S  S10  1  0.36013300  0.19401400  0.63287200  1
  S  S11  1  0.33536500  0.81002900  0.36642800  1
  S  S12  1  0.33702200  0.69275400  0.63094000  1
  S  S13  1  0.32112200  0.30934000  0.37008700  1
  S  S14  1  0.70426200  0.30742200  0.85481500  1
  S  S15  1  0.63870900  0.68240100  0.13348400  1
loop_
_geom_bond_atom_site_label_1
_geom_bond_atom_site_label_2
_geom_bond_distance
_geom_bond_site_symmetry_2
Cr0 S4 2.379548 1_555
Cr0 S0 2.386662 1_455
Cr0 S12 2.397191 1_555
Cr0 S8 2.404084 1_455
Cr0 S2 2.440771 1_565
Cr0 S6 2.487854 1_455
Cr1 S3 2.390695 1_645
Cr1 S1 2.393036 1_555
Cr1 S13 2.406343 1_655
Cr1 S9 2.411862 1_555
Cr1 S5 2.413127 1_655
Cr1 S7 2.437100 1_555
Cr2 S1 2.366433 1_555
Cr2 S3 2.400361 1_655
Cr2 S7 2.408524 1_565
Cr2 S11 2.426506 1_655
Cr2 S5 2.434350 1_655
Cr2 S15 2.440409 1_555
Cr3 S2 2.382820 1_555
Cr3 S6 2.393262 1_545
Cr3 S10 2.403545 1_555
Cr3 S8 2.416045 1_545
Cr3 S14 2.424206 1_555
Cr3 S12 2.468555 1_545
Cu0 S2 2.222074 1_554
Cu0 S3 2.243203 1_545
Cu0 S9 2.273601 1_555
Cu1 S10 2.297655 1_555
Cu1 S7 2.318088 1_555
Cu1 S11 2.363880 1_545
Cu1 S6 2.413424 1_545
Cu2 S1 2.297383 1_455
Cu2 S0 2.301452 1_455
Cu2 S12 2.352474 1_555
Cu2 S13 2.403506 1_555
Cu3 S5 2.269115 1_655
Cu3 S14 2.271696 1_554
Cu3 S15 2.321473 1_555
Cu3 S4 2.736987 1_654
S0 Ti1 2.469237 1_555
S0 Ti0 2.509949 1_655
S1 Ti2 2.464104 1_555
S2 Ti0 2.408026 1_555
S3 Ti3 2.455868 1_555
S4 Ti1 2.452032 1_555
S4 Ti0 2.495219 1_555
S5 Ti2 2.391816 1_555
S6 Ti0 2.396652 1_665
S7 Ti3 2.420712 1_545
S8 Ti1 2.330388 1_555
S9 Ti3 2.413669 1_545
S9 Ti2 2.486035 1_555
S10 Ti0 2.382611 1_555
S10 Ti1 2.582719 1_555
S11 Ti2 2.372653 1_555
S11 Ti3 2.504699 1_555
S12 Ti1 2.375455 1_555
S13 Ti2 2.352669 1_555
S13 Ti3 2.664493 1_545
S14 Ti0 2.466570 1_655
S14 Ti1 2.491521 1_555
S15 Ti3 2.345770 1_555
S15 Ti2 2.577950 1_555
