# generated using pymatgen
data_Y11Cd45
_symmetry_space_group_name_H-M   'P 1'
_cell_length_a   15.40422930
_cell_length_b   15.40422930
_cell_length_c   15.40422930
_cell_angle_alpha   60.00000000
_cell_angle_beta   60.00000000
_cell_angle_gamma   60.00000000
_symmetry_Int_Tables_number   1
_chemical_formula_structural   Y11Cd45
_chemical_formula_sum   'Y22 Cd90'
_cell_volume   2584.66895603
_cell_formula_units_Z   2
loop_
 _symmetry_equiv_pos_site_id
 _symmetry_equiv_pos_as_xyz
  1  'x, y, z'
loop_
 _atom_site_type_symbol
 _atom_site_label
 _atom_site_symmetry_multiplicity
 _atom_site_fract_x
 _atom_site_fract_y
 _atom_site_fract_z
 _atom_site_occupancy
  Y  Y0  1  0.00000000  0.00000000  0.00000000  1
  Y  Y1  1  0.01358700  0.33316500  0.63966100  1
  Y  Y2  1  0.01358700  0.01358700  0.63966100  1
  Y  Y3  1  0.33316500  0.01358700  0.63966100  1
  Y  Y4  1  0.01358700  0.63966100  0.33316500  1
  Y  Y5  1  0.33316500  0.63966100  0.01358700  1
  Y  Y6  1  0.01358700  0.63966100  0.01358700  1
  Y  Y7  1  0.63966100  0.01358700  0.01358700  1
  Y  Y8  1  0.63966100  0.33316500  0.01358700  1
  Y  Y9  1  0.63966100  0.01358700  0.33316500  1
  Y  Y10  1  0.33316500  0.01358700  0.01358700  1
  Y  Y11  1  0.01358700  0.01358700  0.33316500  1
  Y  Y12  1  0.01358700  0.33316500  0.01358700  1
  Y  Y13  1  0.25000000  0.25000000  0.25000000  1
  Y  Y14  1  0.40665500  0.40665500  0.78003600  1
  Y  Y15  1  0.40665500  0.78003600  0.40665500  1
  Y  Y16  1  0.78003600  0.40665500  0.40665500  1
  Y  Y17  1  0.40665500  0.40665500  0.40665500  1
  Y  Y18  1  0.66200400  0.66200400  0.01398800  1
  Y  Y19  1  0.66200400  0.01398800  0.66200400  1
  Y  Y20  1  0.01398800  0.66200400  0.66200400  1
  Y  Y21  1  0.66200400  0.66200400  0.66200400  1
  Cd  Cd0  1  0.08346600  0.08346600  0.74960200  1
  Cd  Cd1  1  0.08346600  0.74960200  0.08346600  1
  Cd  Cd2  1  0.74960200  0.08346600  0.08346600  1
  Cd  Cd3  1  0.08346600  0.08346600  0.08346600  1
  Cd  Cd4  1  0.91339200  0.91339200  0.25982500  1
  Cd  Cd5  1  0.91339200  0.25982500  0.91339200  1
  Cd  Cd6  1  0.25982500  0.91339200  0.91339200  1
  Cd  Cd7  1  0.91339200  0.91339200  0.91339200  1
  Cd  Cd8  1  0.15626300  0.15626300  0.84373700  1
  Cd  Cd9  1  0.84373700  0.15626300  0.84373700  1
  Cd  Cd10  1  0.15626300  0.84373700  0.84373700  1
  Cd  Cd11  1  0.84373700  0.84373700  0.15626300  1
  Cd  Cd12  1  0.15626300  0.84373700  0.15626300  1
  Cd  Cd13  1  0.84373700  0.15626300  0.15626300  1
  Cd  Cd14  1  0.39092100  0.20030900  0.01784900  1
  Cd  Cd15  1  0.39092100  0.39092100  0.01784900  1
  Cd  Cd16  1  0.20030900  0.39092100  0.01784900  1
  Cd  Cd17  1  0.39092100  0.01784900  0.20030900  1
  Cd  Cd18  1  0.20030900  0.01784900  0.39092100  1
  Cd  Cd19  1  0.39092100  0.01784900  0.39092100  1
  Cd  Cd20  1  0.01784900  0.39092100  0.39092100  1
  Cd  Cd21  1  0.01784900  0.20030900  0.39092100  1
  Cd  Cd22  1  0.01784900  0.39092100  0.20030900  1
  Cd  Cd23  1  0.20030900  0.39092100  0.39092100  1
  Cd  Cd24  1  0.39092100  0.39092100  0.20030900  1
  Cd  Cd25  1  0.39092100  0.20030900  0.39092100  1
  Cd  Cd26  1  0.16320600  0.16320600  0.51038200  1
  Cd  Cd27  1  0.16320600  0.51038200  0.16320600  1
  Cd  Cd28  1  0.51038200  0.16320600  0.16320600  1
  Cd  Cd29  1  0.16320600  0.16320600  0.16320600  1
  Cd  Cd30  1  0.26331300  0.61097600  0.86239800  1
  Cd  Cd31  1  0.26331300  0.26331300  0.86239800  1
  Cd  Cd32  1  0.61097600  0.26331300  0.86239800  1
  Cd  Cd33  1  0.26331300  0.86239800  0.61097600  1
  Cd  Cd34  1  0.61097600  0.86239800  0.26331300  1
  Cd  Cd35  1  0.26331300  0.86239800  0.26331300  1
  Cd  Cd36  1  0.86239800  0.26331300  0.26331300  1
  Cd  Cd37  1  0.86239800  0.61097600  0.26331300  1
  Cd  Cd38  1  0.86239800  0.26331300  0.61097600  1
  Cd  Cd39  1  0.61097600  0.26331300  0.26331300  1
  Cd  Cd40  1  0.26331300  0.26331300  0.61097600  1
  Cd  Cd41  1  0.26331300  0.61097600  0.26331300  1
  Cd  Cd42  1  0.50000000  0.50000000  0.50000000  1
  Cd  Cd43  1  0.64071300  0.44938500  0.26918900  1
  Cd  Cd44  1  0.64071300  0.64071300  0.26918900  1
  Cd  Cd45  1  0.44938500  0.64071300  0.26918900  1
  Cd  Cd46  1  0.64071300  0.26918900  0.44938500  1
  Cd  Cd47  1  0.44938500  0.26918900  0.64071300  1
  Cd  Cd48  1  0.64071300  0.26918900  0.64071300  1
  Cd  Cd49  1  0.26918900  0.64071300  0.64071300  1
  Cd  Cd50  1  0.26918900  0.44938500  0.64071300  1
  Cd  Cd51  1  0.26918900  0.64071300  0.44938500  1
  Cd  Cd52  1  0.44938500  0.64071300  0.64071300  1
  Cd  Cd53  1  0.64071300  0.64071300  0.44938500  1
  Cd  Cd54  1  0.64071300  0.44938500  0.64071300  1
  Cd  Cd55  1  0.51259000  0.83348100  0.14133800  1
  Cd  Cd56  1  0.51259000  0.51259000  0.14133800  1
  Cd  Cd57  1  0.83348100  0.51259000  0.14133800  1
  Cd  Cd58  1  0.51259000  0.14133800  0.83348100  1
  Cd  Cd59  1  0.83348100  0.14133800  0.51259000  1
  Cd  Cd60  1  0.51259000  0.14133800  0.51259000  1
  Cd  Cd61  1  0.14133800  0.51259000  0.51259000  1
  Cd  Cd62  1  0.14133800  0.83348100  0.51259000  1
  Cd  Cd63  1  0.14133800  0.51259000  0.83348100  1
  Cd  Cd64  1  0.83348100  0.51259000  0.51259000  1
  Cd  Cd65  1  0.51259000  0.51259000  0.83348100  1
  Cd  Cd66  1  0.51259000  0.83348100  0.51259000  1
  Cd  Cd67  1  0.75000000  0.75000000  0.75000000  1
  Cd  Cd68  1  0.83021100  0.83021100  0.50936800  1
  Cd  Cd69  1  0.83021100  0.50936800  0.83021100  1
  Cd  Cd70  1  0.50936800  0.83021100  0.83021100  1
  Cd  Cd71  1  0.83021100  0.83021100  0.83021100  1
  Cd  Cd72  1  0.91212400  0.91212400  0.58787600  1
  Cd  Cd73  1  0.58787600  0.91212400  0.58787600  1
  Cd  Cd74  1  0.91212400  0.58787600  0.58787600  1
  Cd  Cd75  1  0.58787600  0.58787600  0.91212400  1
  Cd  Cd76  1  0.91212400  0.58787600  0.91212400  1
  Cd  Cd77  1  0.58787600  0.91212400  0.91212400  1
  Cd  Cd78  1  0.76408200  0.06746300  0.40437400  1
  Cd  Cd79  1  0.76408200  0.76408200  0.40437400  1
  Cd  Cd80  1  0.06746300  0.76408200  0.40437400  1
  Cd  Cd81  1  0.76408200  0.40437400  0.06746300  1
  Cd  Cd82  1  0.06746300  0.40437400  0.76408200  1
  Cd  Cd83  1  0.76408200  0.40437400  0.76408200  1
  Cd  Cd84  1  0.40437400  0.76408200  0.76408200  1
  Cd  Cd85  1  0.40437400  0.06746300  0.76408200  1
  Cd  Cd86  1  0.40437400  0.76408200  0.06746300  1
  Cd  Cd87  1  0.06746300  0.76408200  0.76408200  1
  Cd  Cd88  1  0.76408200  0.76408200  0.06746300  1
  Cd  Cd89  1  0.76408200  0.06746300  0.76408200  1
loop_
_geom_bond_atom_site_label_1
_geom_bond_atom_site_label_2
_geom_bond_distance
_geom_bond_site_symmetry_2
Cd0 Cd26 3.008790 1_555
Cd0 Cd8 3.021158 1_555
Cd0 Cd10 3.021158 1_545
Cd0 Cd9 3.021158 1_455
Cd0 Y0 3.149381 1_556
Cd0 Y1 3.160735 1_555
Cd0 Y3 3.160735 1_555
Cd0 Y2 3.160735 1_555
Cd1 Cd27 3.008790 1_555
Cd1 Cd12 3.021158 1_555
Cd1 Cd10 3.021158 1_554
Cd1 Cd11 3.021158 1_455
Cd1 Y0 3.149381 1_565
Cd1 Y4 3.160735 1_555
Cd1 Y5 3.160735 1_555
Cd1 Y6 3.160735 1_555
Cd2 Cd28 3.008790 1_555
Cd2 Cd9 3.021158 1_554
Cd2 Y0 3.149381 1_655
Cd2 Y8 3.160735 1_555
Cd2 Y9 3.160735 1_555
Cd2 Y7 3.160735 1_555
Cd3 Cd8 3.021158 1_554
Cd3 Y0 3.149381 1_555
Cd3 Y11 3.160735 1_555
Cd3 Y12 3.160735 1_555
Cd3 Y10 3.160735 1_555
Cd4 Cd68 3.138627 1_555
Cd4 Cd78 3.253526 1_565
Cd4 Cd80 3.253526 1_655
Cd4 Cd79 3.253526 1_555
Cd4 Y0 3.267949 1_665
Cd4 Y11 3.451114 1_665
Cd4 Y4 3.451127 1_655
Cd4 Y9 3.451127 1_565
Cd5 Cd8 3.069559 1_655
Cd5 Cd9 3.069571 1_555
Cd5 Cd69 3.138627 1_555
Cd5 Cd82 3.253526 1_655
Cd5 Cd81 3.253526 1_556
Cd5 Cd83 3.253526 1_555
Cd5 Y0 3.267949 1_656
Cd5 Y12 3.451114 1_656
Cd5 Y1 3.451127 1_655
Cd5 Y8 3.451127 1_556
Cd6 Cd8 3.069559 1_565
Cd6 Cd70 3.138627 1_555
Cd6 Cd86 3.253526 1_556
Cd6 Cd85 3.253526 1_565
Cd6 Cd84 3.253526 1_555
Cd6 Y0 3.267949 1_566
Cd6 Y10 3.451114 1_566
Cd6 Y5 3.451127 1_556
Cd6 Y3 3.451127 1_565
Cd7 Cd9 3.069558 1_565
Cd7 Cd71 3.138627 1_555
Cd7 Cd89 3.253526 1_565
Cd7 Cd88 3.253526 1_556
Cd7 Cd87 3.253526 1_655
Cd7 Y0 3.267937 1_666
Cd7 Y7 3.451126 1_566
Cd7 Y6 3.451126 1_656
Cd7 Y2 3.451126 1_665
Cd8 Cd85 3.121676 1_555
Cd8 Cd82 3.121676 1_555
Cd8 Y0 3.404169 1_556
Cd8 Y1 3.806852 1_555
Cd8 Y3 3.806852 1_555
Cd8 Y12 3.806852 1_556
Cd8 Y10 3.806852 1_556
Cd9 Y0 3.404169 1_656
Cd9 Y7 3.806852 1_556
Cd9 Y2 3.806852 1_655
Cd9 Y1 3.806852 1_655
Cd9 Y8 3.806852 1_556
Cd10 Cd33 3.031256 1_555
Cd10 Cd30 3.031256 1_555
Cd10 Cd7 3.069558 1_455
Cd10 Cd6 3.069571 1_555
Cd10 Cd87 3.121663 1_555
Cd10 Cd84 3.121676 1_555
Cd10 Y0 3.404169 1_566
Cd10 Y2 3.806852 1_565
Cd10 Y6 3.806852 1_556
Cd10 Y5 3.806852 1_556
Cd10 Y3 3.806852 1_565
Cd11 Cd2 3.021158 1_565
Cd11 Cd34 3.031256 1_555
Cd11 Cd37 3.031256 1_555
Cd11 Cd7 3.069558 1_554
Cd11 Cd4 3.069571 1_555
Cd11 Cd88 3.121663 1_555
Cd11 Cd79 3.121676 1_555
Cd11 Y0 3.404169 1_665
Cd11 Y7 3.806852 1_565
Cd11 Y6 3.806852 1_655
Cd11 Y9 3.806852 1_565
Cd11 Y4 3.806852 1_655
Cd12 Cd3 3.021158 1_565
Cd12 Cd41 3.031256 1_555
Cd12 Cd35 3.031256 1_555
Cd12 Cd6 3.069559 1_554
Cd12 Cd4 3.069559 1_455
Cd12 Cd80 3.121676 1_555
Cd12 Cd86 3.121676 1_555
Cd12 Y0 3.404169 1_565
Cd12 Y5 3.806852 1_555
Cd12 Y4 3.806852 1_555
Cd12 Y11 3.806852 1_565
Cd12 Y10 3.806852 1_565
Cd13 Cd2 3.021158 1_555
Cd13 Cd3 3.021158 1_655
Cd13 Cd39 3.031256 1_555
Cd13 Cd36 3.031256 1_555
Cd13 Cd5 3.069559 1_554
Cd13 Cd4 3.069559 1_545
Cd13 Cd78 3.121676 1_555
Cd13 Cd81 3.121676 1_555
Cd13 Y0 3.404169 1_655
Cd13 Y9 3.806852 1_555
Cd13 Y8 3.806852 1_555
Cd13 Y11 3.806852 1_655
Cd13 Y12 3.806852 1_655
Cd14 Cd17 2.810656 1_555
Cd14 Cd58 2.821037 1_554
Cd14 Cd15 2.936231 1_555
Cd14 Cd16 2.936231 1_555
Cd14 Cd29 3.242770 1_555
Cd14 Cd28 3.242770 1_555
Cd14 Cd31 3.318933 1_554
Cd14 Cd32 3.318933 1_554
Cd14 Y13 3.376316 1_555
Cd14 Y14 3.438091 1_554
Cd14 Y10 3.446051 1_555
Cd14 Y7 3.446051 1_555
Cd15 Cd24 2.810656 1_555
Cd15 Cd65 2.821029 1_554
Cd15 Cd16 2.936231 1_555
Cd15 Cd27 3.242770 1_555
Cd15 Cd28 3.242770 1_555
Cd15 Cd30 3.318933 1_554
Cd15 Cd32 3.318933 1_554
Cd15 Y13 3.376316 1_555
Cd15 Y14 3.438085 1_554
Cd15 Y8 3.446051 1_555
Cd15 Y5 3.446051 1_555
Cd16 Cd22 2.810656 1_555
Cd16 Cd63 2.821037 1_554
Cd16 Cd29 3.242770 1_555
Cd16 Cd27 3.242770 1_555
Cd16 Cd30 3.318933 1_554
Cd16 Cd31 3.318933 1_554
Cd16 Y13 3.376316 1_555
Cd16 Y14 3.438091 1_554
Cd16 Y12 3.446051 1_555
Cd16 Y6 3.446051 1_555
Cd17 Cd55 2.821037 1_545
Cd17 Cd18 2.936231 1_555
Cd17 Cd19 2.936231 1_555
Cd17 Cd29 3.242770 1_555
Cd17 Cd28 3.242770 1_555
Cd17 Cd35 3.318933 1_545
Cd17 Cd34 3.318933 1_545
Cd17 Y13 3.376316 1_555
Cd17 Y15 3.438091 1_545
Cd17 Y10 3.446051 1_555
Cd17 Y7 3.446051 1_555
Cd18 Cd21 2.810656 1_555
Cd18 Cd62 2.821037 1_545
Cd18 Cd19 2.936231 1_555
Cd18 Cd29 3.242770 1_555
Cd18 Cd26 3.242770 1_555
Cd18 Cd33 3.318933 1_545
Cd18 Cd35 3.318933 1_545
Cd18 Y13 3.376316 1_555
Cd18 Y15 3.438091 1_545
Cd18 Y11 3.446051 1_555
Cd18 Y2 3.446051 1_555
Cd19 Cd25 2.810656 1_555
Cd19 Cd66 2.821029 1_545
Cd19 Cd26 3.242770 1_555
Cd19 Cd28 3.242770 1_555
Cd19 Cd33 3.318933 1_545
Cd19 Cd34 3.318933 1_545
Cd19 Y13 3.376316 1_555
Cd19 Y15 3.438085 1_545
Cd19 Y3 3.446051 1_555
Cd19 Y9 3.446051 1_555
Cd20 Cd23 2.810656 1_555
Cd20 Cd64 2.821029 1_455
Cd20 Cd21 2.936231 1_555
Cd20 Cd22 2.936231 1_555
Cd20 Cd26 3.242770 1_555
Cd20 Cd27 3.242770 1_555
Cd20 Cd38 3.318933 1_455
Cd20 Cd37 3.318933 1_455
Cd20 Y13 3.376316 1_555
Cd20 Y16 3.438085 1_455
Cd20 Y4 3.446051 1_555
Cd20 Y1 3.446051 1_555
Cd21 Cd59 2.821037 1_455
Cd21 Cd22 2.936231 1_555
Cd21 Cd29 3.242770 1_555
Cd21 Cd26 3.242770 1_555
Cd21 Cd38 3.318933 1_455
Cd21 Cd36 3.318933 1_455
Cd21 Y13 3.376316 1_555
Cd21 Y16 3.438091 1_455
Cd21 Y11 3.446051 1_555
Cd21 Y2 3.446051 1_555
Cd22 Cd57 2.821037 1_455
Cd22 Cd29 3.242770 1_555
Cd22 Cd27 3.242770 1_555
Cd22 Cd37 3.318933 1_455
Cd22 Cd36 3.318933 1_455
Cd22 Y13 3.376316 1_555
Cd22 Y16 3.438091 1_455
Cd22 Y12 3.446051 1_555
Cd22 Y6 3.446051 1_555
Cd23 Cd61 2.821024 1_555
Cd23 Cd24 2.936231 1_555
Cd23 Cd25 2.936231 1_555
Cd23 Cd26 3.242770 1_555
Cd23 Cd27 3.242770 1_555
Cd23 Cd40 3.318933 1_555
Cd23 Cd41 3.318933 1_555
Cd23 Y13 3.376316 1_555
Cd23 Y17 3.438100 1_555
Cd23 Y4 3.446051 1_555
Cd23 Y1 3.446051 1_555
Cd24 Cd56 2.821024 1_555
Cd24 Cd25 2.936231 1_555
Cd24 Cd27 3.242770 1_555
Cd24 Cd28 3.242770 1_555
Cd24 Cd39 3.318933 1_555
Cd24 Cd41 3.318933 1_555
Cd24 Y13 3.376316 1_555
Cd24 Y17 3.438100 1_555
Cd24 Y8 3.446051 1_555
Cd24 Y5 3.446051 1_555
Cd25 Cd60 2.821024 1_555
Cd25 Cd26 3.242770 1_555
Cd25 Cd28 3.242770 1_555
Cd25 Cd39 3.318933 1_555
Cd25 Cd40 3.318933 1_555
Cd25 Y13 3.376316 1_555
Cd25 Y17 3.438100 1_555
Cd25 Y9 3.446051 1_555
Cd25 Y3 3.446051 1_555
Cd26 Y1 3.274455 1_555
Cd26 Y3 3.274455 1_555
Cd26 Y2 3.274455 1_555
Cd26 Y13 3.274955 1_555
Cd27 Y4 3.274455 1_555
Cd27 Y5 3.274455 1_555
Cd27 Y6 3.274455 1_555
Cd27 Y13 3.274955 1_555
Cd28 Y8 3.274455 1_555
Cd28 Y9 3.274455 1_555
Cd28 Y7 3.274455 1_555
Cd28 Y13 3.274955 1_555
Cd29 Cd3 3.008790 1_555
Cd29 Y11 3.274455 1_555
Cd29 Y12 3.274455 1_555
Cd29 Y10 3.274455 1_555
Cd29 Y13 3.274955 1_555
Cd30 Cd49 3.169789 1_555
Cd30 Cd52 3.169789 1_555
Cd30 Cd65 3.222627 1_555
Cd30 Cd63 3.222641 1_555
Cd30 Y14 3.260900 1_555
Cd30 Y6 3.284450 1_556
Cd30 Y5 3.284450 1_556
Cd30 Cd87 3.292375 1_555
Cd30 Cd84 3.292387 1_555
Cd31 Cd8 3.031256 1_555
Cd31 Cd50 3.169789 1_555
Cd31 Cd47 3.169789 1_555
Cd31 Cd63 3.222628 1_555
Cd31 Cd58 3.222628 1_555
Cd31 Y14 3.260913 1_555
Cd31 Y10 3.284450 1_556
Cd31 Y12 3.284450 1_556
Cd31 Cd85 3.292374 1_555
Cd31 Cd82 3.292374 1_555
Cd32 Cd9 3.031256 1_555
Cd32 Cd48 3.169789 1_555
Cd32 Cd54 3.169789 1_555
Cd32 Cd65 3.222627 1_555
Cd32 Cd58 3.222641 1_555
Cd32 Y14 3.260900 1_555
Cd32 Y7 3.284450 1_556
Cd32 Y8 3.284450 1_556
Cd32 Cd89 3.292375 1_555
Cd32 Cd83 3.292387 1_555
Cd33 Cd49 3.169789 1_555
Cd33 Cd52 3.169789 1_555
Cd33 Cd66 3.222627 1_555
Cd33 Cd62 3.222641 1_555
Cd33 Y15 3.260900 1_555
Cd33 Y2 3.284450 1_565
Cd33 Y3 3.284450 1_565
Cd33 Cd87 3.292375 1_555
Cd33 Cd84 3.292387 1_555
Cd34 Cd44 3.169789 1_555
Cd34 Cd53 3.169789 1_555
Cd34 Cd66 3.222627 1_555
Cd34 Cd55 3.222641 1_555
Cd34 Y15 3.260900 1_555
Cd34 Y7 3.284450 1_565
Cd34 Y9 3.284450 1_565
Cd34 Cd88 3.292375 1_555
Cd34 Cd79 3.292387 1_555
Cd35 Cd45 3.169789 1_555
Cd35 Cd51 3.169789 1_555
Cd35 Cd55 3.222628 1_555
Cd35 Cd62 3.222628 1_555
Cd35 Y15 3.260913 1_555
Cd35 Y10 3.284450 1_565
Cd35 Y11 3.284450 1_565
Cd35 Cd86 3.292374 1_555
Cd35 Cd80 3.292374 1_555
Cd36 Cd46 3.169789 1_555
Cd36 Cd43 3.169789 1_555
Cd36 Cd57 3.222628 1_555
Cd36 Cd59 3.222628 1_555
Cd36 Y16 3.260913 1_555
Cd36 Y12 3.284450 1_655
Cd36 Y11 3.284450 1_655
Cd36 Cd81 3.292374 1_555
Cd36 Cd78 3.292374 1_555
Cd37 Cd44 3.169789 1_555
Cd37 Cd53 3.169789 1_555
Cd37 Cd64 3.222627 1_555
Cd37 Cd57 3.222641 1_555
Cd37 Y16 3.260900 1_555
Cd37 Y6 3.284450 1_655
Cd37 Y4 3.284450 1_655
Cd37 Cd88 3.292375 1_555
Cd37 Cd79 3.292387 1_555
Cd38 Cd9 3.031256 1_555
Cd38 Cd48 3.169789 1_555
Cd38 Cd54 3.169789 1_555
Cd38 Cd64 3.222627 1_555
Cd38 Cd59 3.222641 1_555
Cd38 Y16 3.260900 1_555
Cd38 Y2 3.284450 1_655
Cd38 Y1 3.284450 1_655
Cd38 Cd89 3.292375 1_555
Cd38 Cd83 3.292387 1_555
Cd39 Cd43 3.169789 1_555
Cd39 Cd46 3.169789 1_555
Cd39 Cd56 3.222631 1_555
Cd39 Cd60 3.222631 1_555
Cd39 Y17 3.260908 1_555
Cd39 Y8 3.284450 1_555
Cd39 Y9 3.284450 1_555
Cd39 Cd78 3.292383 1_555
Cd39 Cd81 3.292383 1_555
Cd40 Cd8 3.031256 1_555
Cd40 Cd50 3.169789 1_555
Cd40 Cd47 3.169789 1_555
Cd40 Cd60 3.222631 1_555
Cd40 Cd61 3.222631 1_555
Cd40 Y17 3.260908 1_555
Cd40 Y1 3.284450 1_555
Cd40 Y3 3.284450 1_555
Cd40 Cd85 3.292383 1_555
Cd40 Cd82 3.292383 1_555
Cd41 Cd45 3.169789 1_555
Cd41 Cd51 3.169789 1_555
Cd41 Cd56 3.222631 1_555
Cd41 Cd61 3.222631 1_555
Cd41 Y17 3.260908 1_555
Cd41 Y5 3.284450 1_555
Cd41 Y4 3.284450 1_555
Cd41 Cd80 3.292383 1_555
Cd41 Cd86 3.292383 1_555
Cd42 Cd53 3.364967 1_555
Cd42 Cd54 3.364967 1_555
Cd42 Cd48 3.364967 1_555
Cd42 Cd49 3.364967 1_555
Cd42 Cd52 3.364967 1_555
Cd42 Cd44 3.364967 1_555
Cd42 Cd43 3.364967 1_555
Cd42 Cd46 3.364967 1_555
Cd42 Cd50 3.364967 1_555
Cd42 Cd47 3.364967 1_555
Cd42 Cd51 3.364967 1_555
Cd42 Cd45 3.364967 1_555
Cd42 Y17 3.522140 1_555
Cd42 Y14 3.522153 1_555
Cd42 Y15 3.522153 1_555
Cd42 Y16 3.522153 1_555
Cd43 Cd46 2.775781 1_555
Cd43 Cd81 2.946176 1_555
Cd43 Cd45 2.947260 1_555
Cd43 Cd44 2.947260 1_555
Cd43 Cd57 2.961370 1_555
Cd43 Cd56 2.961383 1_555
Cd43 Y17 3.355799 1_555
Cd43 Y16 3.355812 1_555
Cd43 Y18 3.632933 1_555
Cd44 Cd53 2.775781 1_555
Cd44 Cd88 2.946183 1_555
Cd44 Cd45 2.947260 1_555
Cd44 Cd55 2.961378 1_555
Cd44 Cd57 2.961378 1_555
Cd44 Y15 3.355805 1_555
Cd44 Y16 3.355805 1_555
Cd44 Y18 3.632933 1_555
Cd45 Cd51 2.775781 1_555
Cd45 Cd86 2.946176 1_555
Cd45 Cd55 2.961370 1_555
Cd45 Cd56 2.961383 1_555
Cd45 Y17 3.355799 1_555
Cd45 Y15 3.355812 1_555
Cd45 Y18 3.632933 1_555
Cd46 Cd78 2.946176 1_555
Cd46 Cd48 2.947260 1_555
Cd46 Cd47 2.947260 1_555
Cd46 Cd59 2.961370 1_555
Cd46 Cd60 2.961383 1_555
Cd46 Y17 3.355799 1_555
Cd46 Y16 3.355812 1_555
Cd46 Y19 3.632933 1_555
Cd47 Cd50 2.775781 1_555
Cd47 Cd85 2.946176 1_555
Cd47 Cd48 2.947260 1_555
Cd47 Cd58 2.961370 1_555
Cd47 Cd60 2.961383 1_555
Cd47 Y17 3.355799 1_555
Cd47 Y14 3.355812 1_555
Cd47 Y19 3.632933 1_555
Cd48 Cd54 2.775781 1_555
Cd48 Cd89 2.946183 1_555
Cd48 Cd58 2.961378 1_555
Cd48 Cd59 2.961378 1_555
Cd48 Y14 3.355805 1_555
Cd48 Y16 3.355805 1_555
Cd48 Y19 3.632933 1_555
Cd49 Cd52 2.775781 1_555
Cd49 Cd87 2.946183 1_555
Cd49 Cd51 2.947260 1_555
Cd49 Cd50 2.947260 1_555
Cd49 Cd63 2.961378 1_555
Cd49 Cd62 2.961378 1_555
Cd49 Y14 3.355805 1_555
Cd49 Y15 3.355805 1_555
Cd49 Y20 3.632933 1_555
Cd50 Cd82 2.946176 1_555
Cd50 Cd51 2.947260 1_555
Cd50 Cd63 2.961370 1_555
Cd50 Cd61 2.961383 1_555
Cd50 Y17 3.355799 1_555
Cd50 Y14 3.355812 1_555
Cd50 Y20 3.632933 1_555
Cd51 Cd80 2.946176 1_555
Cd51 Cd62 2.961370 1_555
Cd51 Cd61 2.961383 1_555
Cd51 Y17 3.355799 1_555
Cd51 Y15 3.355812 1_555
Cd51 Y20 3.632933 1_555
Cd52 Cd84 2.946189 1_555
Cd52 Cd53 2.947260 1_555
Cd52 Cd54 2.947260 1_555
Cd52 Cd65 2.961370 1_555
Cd52 Cd66 2.961370 1_555
Cd52 Y14 3.355799 1_555
Cd52 Y15 3.355799 1_555
Cd52 Y21 3.632933 1_555
Cd53 Cd79 2.946189 1_555
Cd53 Cd54 2.947260 1_555
Cd53 Cd64 2.961370 1_555
Cd53 Cd66 2.961370 1_555
Cd53 Y16 3.355799 1_555
Cd53 Y15 3.355799 1_555
Cd53 Y21 3.632933 1_555
Cd54 Cd83 2.946189 1_555
Cd54 Cd64 2.961370 1_555
Cd54 Cd65 2.961370 1_555
Cd54 Y16 3.355799 1_555
Cd54 Y14 3.355799 1_555
Cd54 Y21 3.632933 1_555
Cd55 Cd77 2.883094 1_554
Cd55 Cd86 3.179988 1_555
Cd55 Cd88 3.180015 1_555
Cd55 Y18 3.272650 1_555
Cd55 Y15 3.369521 1_555
Cd55 Y10 3.394153 1_565
Cd55 Y7 3.394164 1_565
Cd56 Cd75 2.883094 1_554
Cd56 Cd86 3.180012 1_555
Cd56 Cd81 3.180012 1_555
Cd56 Y18 3.272661 1_555
Cd56 Y17 3.369517 1_555
Cd56 Y8 3.394152 1_555
Cd56 Y5 3.394152 1_555
Cd57 Cd76 2.883094 1_554
Cd57 Cd81 3.179988 1_555
Cd57 Cd88 3.180015 1_555
Cd57 Y18 3.272650 1_555
Cd57 Y16 3.369521 1_555
Cd57 Y12 3.394153 1_655
Cd57 Y6 3.394164 1_655
Cd58 Cd77 2.883094 1_545
Cd58 Cd85 3.179988 1_555
Cd58 Cd89 3.180015 1_555
Cd58 Y19 3.272650 1_555
Cd58 Y14 3.369521 1_555
Cd58 Y10 3.394153 1_556
Cd58 Y7 3.394164 1_556
Cd59 Cd72 2.883094 1_545
Cd59 Cd78 3.179988 1_555
Cd59 Cd89 3.180015 1_555
Cd59 Y19 3.272650 1_555
Cd59 Y16 3.369521 1_555
Cd59 Y11 3.394153 1_655
Cd59 Y2 3.394164 1_655
Cd60 Cd73 2.883094 1_545
Cd60 Cd78 3.180012 1_555
Cd60 Cd85 3.180012 1_555
Cd60 Y19 3.272661 1_555
Cd60 Y17 3.369517 1_555
Cd60 Y9 3.394152 1_555
Cd60 Y3 3.394152 1_555
Cd61 Cd74 2.883094 1_455
Cd61 Cd82 3.180012 1_555
Cd61 Cd80 3.180012 1_555
Cd61 Y20 3.272661 1_555
Cd61 Y17 3.369517 1_555
Cd61 Y1 3.394152 1_555
Cd61 Y4 3.394152 1_555
Cd62 Cd72 2.883094 1_455
Cd62 Cd80 3.179988 1_555
Cd62 Cd87 3.180015 1_555
Cd62 Y20 3.272650 1_555
Cd62 Y15 3.369521 1_555
Cd62 Y11 3.394153 1_565
Cd62 Y2 3.394164 1_565
Cd63 Cd76 2.883094 1_455
Cd63 Cd82 3.179988 1_555
Cd63 Cd87 3.180015 1_555
Cd63 Y20 3.272650 1_555
Cd63 Y14 3.369521 1_555
Cd63 Y12 3.394153 1_556
Cd63 Y6 3.394164 1_556
Cd64 Cd74 2.883106 1_555
Cd64 Cd83 3.180012 1_555
Cd64 Cd79 3.180012 1_555
Cd64 Y21 3.272660 1_555
Cd64 Y16 3.369495 1_555
Cd64 Y4 3.394162 1_655
Cd64 Y1 3.394162 1_655
Cd65 Cd75 2.883106 1_555
Cd65 Cd83 3.180012 1_555
Cd65 Cd84 3.180012 1_555
Cd65 Y21 3.272660 1_555
Cd65 Y14 3.369495 1_555
Cd65 Y8 3.394162 1_556
Cd65 Y5 3.394162 1_556
Cd66 Cd73 2.883106 1_555
Cd66 Cd84 3.180012 1_555
Cd66 Cd79 3.180012 1_555
Cd66 Y21 3.272660 1_555
Cd66 Y15 3.369495 1_555
Cd66 Y3 3.394162 1_565
Cd66 Y9 3.394162 1_565
Cd67 Cd69 3.026549 1_555
Cd67 Cd70 3.026549 1_555
Cd67 Cd68 3.026549 1_555
Cd67 Cd71 3.026562 1_555
Cd67 Y18 3.320309 1_556
Cd67 Y20 3.320309 1_655
Cd67 Y19 3.320309 1_565
Cd67 Y21 3.320309 1_555
Cd68 Cd79 3.003989 1_555
Cd68 Cd78 3.003989 1_565
Cd68 Cd80 3.003989 1_655
Cd68 Cd72 3.048106 1_555
Cd68 Cd73 3.048119 1_555
Cd68 Cd74 3.048119 1_555
Cd68 Y19 3.672198 1_565
Cd68 Y20 3.672198 1_655
Cd68 Y21 3.672209 1_555
Cd69 Cd83 3.003989 1_555
Cd69 Cd82 3.003989 1_655
Cd69 Cd81 3.003989 1_556
Cd69 Cd76 3.048106 1_555
Cd69 Cd74 3.048119 1_555
Cd69 Cd75 3.048119 1_555
Cd69 Y18 3.672198 1_556
Cd69 Y20 3.672198 1_655
Cd69 Y21 3.672209 1_555
Cd70 Cd84 3.003989 1_555
Cd70 Cd85 3.003989 1_565
Cd70 Cd86 3.003989 1_556
Cd70 Cd77 3.048106 1_555
Cd70 Cd73 3.048119 1_555
Cd70 Cd75 3.048119 1_555
Cd70 Y18 3.672198 1_556
Cd70 Y19 3.672198 1_565
Cd70 Y21 3.672209 1_555
Cd71 Cd89 3.003989 1_565
Cd71 Cd88 3.003989 1_556
Cd71 Cd87 3.003989 1_655
Cd71 Cd72 3.048119 1_555
Cd71 Cd76 3.048119 1_555
Cd71 Cd77 3.048119 1_555
Cd71 Y18 3.672208 1_556
Cd71 Y19 3.672208 1_565
Cd71 Y20 3.672208 1_655
Cd72 Y20 3.155541 1_655
Cd72 Y19 3.155541 1_565
Cd72 Y11 3.233950 1_665
Cd72 Y2 3.233950 1_665
Cd73 Y19 3.155541 1_565
Cd73 Y21 3.155541 1_555
Cd73 Y3 3.233950 1_565
Cd73 Y9 3.233950 1_565
Cd74 Y20 3.155541 1_655
Cd74 Y21 3.155541 1_555
Cd74 Y4 3.233950 1_655
Cd74 Y1 3.233950 1_655
Cd75 Y18 3.155541 1_556
Cd75 Y21 3.155541 1_555
Cd75 Y5 3.233950 1_556
Cd75 Y8 3.233950 1_556
Cd76 Y20 3.155541 1_655
Cd76 Y18 3.155541 1_556
Cd76 Y12 3.233950 1_656
Cd76 Y6 3.233950 1_656
Cd77 Y18 3.155541 1_556
Cd77 Y19 3.155541 1_565
Cd77 Y10 3.233950 1_566
Cd77 Y7 3.233950 1_566
Cd78 Y11 3.188832 1_655
Cd78 Y9 3.188846 1_555
Cd78 Y19 3.269045 1_555
Cd79 Y4 3.188835 1_655
Cd79 Y9 3.188835 1_565
Cd79 Y21 3.269047 1_555
Cd80 Y11 3.188832 1_565
Cd80 Y4 3.188846 1_555
Cd80 Y20 3.269045 1_555
Cd81 Y12 3.188832 1_655
Cd81 Y8 3.188846 1_555
Cd81 Y18 3.269045 1_555
Cd82 Y12 3.188832 1_556
Cd82 Y1 3.188846 1_555
Cd82 Y20 3.269045 1_555
Cd83 Cd9 3.121676 1_555
Cd83 Y1 3.188835 1_655
Cd83 Y8 3.188835 1_556
Cd83 Y21 3.269047 1_555
Cd84 Y3 3.188835 1_565
Cd84 Y5 3.188835 1_556
Cd84 Y21 3.269047 1_555
Cd85 Y10 3.188832 1_556
Cd85 Y3 3.188846 1_555
Cd85 Y19 3.269045 1_555
Cd86 Y10 3.188832 1_565
Cd86 Y5 3.188846 1_555
Cd86 Y18 3.269045 1_555
Cd87 Y6 3.188834 1_556
Cd87 Y2 3.188834 1_565
Cd87 Y20 3.269058 1_555
Cd88 Y6 3.188834 1_655
Cd88 Y7 3.188834 1_565
Cd88 Y18 3.269058 1_555
Cd89 Cd9 3.121663 1_555
Cd89 Y2 3.188834 1_655
Cd89 Y7 3.188834 1_556
Cd89 Y19 3.269058 1_555
