# generated using pymatgen
data_Dy3AlFeS7
_symmetry_space_group_name_H-M   'P 1'
_cell_length_a   9.56377516
_cell_length_b   9.56377516
_cell_length_c   6.01903500
_cell_angle_alpha   90.00000000
_cell_angle_beta   90.00000000
_cell_angle_gamma   119.99999418
_symmetry_Int_Tables_number   1
_chemical_formula_structural   Dy3AlFeS7
_chemical_formula_sum   'Dy6 Al2 Fe2 S14'
_cell_volume   476.77803645
_cell_formula_units_Z   2
loop_
 _symmetry_equiv_pos_site_id
 _symmetry_equiv_pos_as_xyz
  1  'x, y, z'
loop_
 _atom_site_type_symbol
 _atom_site_label
 _atom_site_symmetry_multiplicity
 _atom_site_fract_x
 _atom_site_fract_y
 _atom_site_fract_z
 _atom_site_occupancy
  Dy  Dy0  1  0.77230200  0.14374200  0.23355500  1
  Dy  Dy1  1  0.37144000  0.22769800  0.23355500  1
  Dy  Dy2  1  0.85625800  0.62856000  0.23355500  1
  Dy  Dy3  1  0.22769800  0.85625800  0.73355500  1
  Dy  Dy4  1  0.62856000  0.77230200  0.73355500  1
  Dy  Dy5  1  0.14374200  0.37144000  0.73355500  1
  Al  Al0  1  0.66666700  0.33333300  0.66294100  1
  Al  Al1  1  0.33333300  0.66666700  0.16294100  1
  Fe  Fe0  1  0.00000000  0.00000000  0.04841800  1
  Fe  Fe1  1  0.00000000  0.00000000  0.54841800  1
  S  S0  1  0.86809900  0.08803900  0.80569200  1
  S  S1  1  0.21994000  0.13190100  0.80569200  1
  S  S2  1  0.91196100  0.78006000  0.80569200  1
  S  S3  1  0.13190100  0.91196100  0.30569200  1
  S  S4  1  0.78006000  0.86809900  0.30569200  1
  S  S5  1  0.08803900  0.21994000  0.30569200  1
  S  S6  1  0.90957100  0.42356100  0.50740300  1
  S  S7  1  0.51398900  0.09042900  0.50740300  1
  S  S8  1  0.57643900  0.48601100  0.50740300  1
  S  S9  1  0.09042900  0.57643900  0.00740300  1
  S  S10  1  0.48601100  0.90957100  0.00740300  1
  S  S11  1  0.42356100  0.51398900  0.00740300  1
  S  S12  1  0.66666700  0.33333300  0.03239300  1
  S  S13  1  0.33333300  0.66666700  0.53239300  1
loop_
_geom_bond_atom_site_label_1
_geom_bond_atom_site_label_2
_geom_bond_distance
_geom_bond_site_symmetry_2
Dy0 S4 2.709079 1_545
Dy0 S12 2.757938 1_555
Dy0 S5 2.763561 1_655
Dy0 S7 2.796491 1_555
Dy0 S6 2.844077 1_555
Dy0 S10 2.869380 1_545
Dy0 S0 2.871159 1_554
Dy1 S5 2.709079 1_555
Dy1 S12 2.757947 1_555
Dy1 S3 2.763561 1_545
Dy1 S8 2.796489 1_555
Dy1 S7 2.844070 1_555
Dy1 S11 2.869377 1_555
Dy1 S1 2.871159 1_554
Dy2 S3 2.709079 1_655
Dy2 S12 2.757945 1_555
Dy2 S4 2.763561 1_555
Dy2 S6 2.796483 1_555
Dy2 S8 2.844076 1_555
Dy2 S9 2.869385 1_655
Dy2 S2 2.871159 1_554
Dy3 S1 2.709079 1_565
Dy3 S13 2.757938 1_555
Dy3 S2 2.763561 1_455
Dy3 S10 2.796491 1_556
Dy3 S9 2.844077 1_556
Dy3 S7 2.869380 1_565
Dy3 S3 2.871159 1_555
Dy4 S2 2.709079 1_555
Dy4 S13 2.757947 1_555
Dy4 S0 2.763561 1_565
Dy4 S11 2.796489 1_556
Dy4 S10 2.844070 1_556
Dy4 S8 2.869377 1_555
Dy4 S4 2.871159 1_555
Dy5 S0 2.709079 1_455
Dy5 S13 2.757945 1_555
Dy5 S1 2.763561 1_555
Dy5 S9 2.796483 1_556
Dy5 S11 2.844076 1_556
Dy5 S6 2.869385 1_455
Dy5 S5 2.871159 1_555
Al0 S12 2.223745 1_556
Al0 S6 2.239006 1_555
Al0 S7 2.239008 1_555
Al0 S8 2.239022 1_555
Al1 S13 2.223745 1_555
Al1 S9 2.239006 1_555
Al1 S10 2.239008 1_555
Al1 S11 2.239022 1_555
Fe0 S0 2.344534 1_454
Fe0 S2 2.344534 1_444
Fe0 S1 2.344534 1_554
Fe0 S3 2.400077 1_545
Fe0 S5 2.400077 1_555
Fe0 S4 2.400077 1_445
Fe1 S3 2.344534 1_545
Fe1 S5 2.344534 1_555
Fe1 S4 2.344534 1_445
Fe1 S0 2.400077 1_455
Fe1 S2 2.400077 1_445
Fe1 S1 2.400077 1_555
