# generated using pymatgen
data_NaNi2H3(SO5)2
_symmetry_space_group_name_H-M   'P 1'
_cell_length_a   5.26744345
_cell_length_b   5.26747521
_cell_length_c   7.26956667
_cell_angle_alpha   69.94016186
_cell_angle_beta   69.94030491
_cell_angle_gamma   71.21797147
_symmetry_Int_Tables_number   1
_chemical_formula_structural   NaNi2H3(SO5)2
_chemical_formula_sum   'Na1 Ni2 H3 S2 O10'
_cell_volume   173.13493264
_cell_formula_units_Z   1
loop_
 _symmetry_equiv_pos_site_id
 _symmetry_equiv_pos_as_xyz
  1  'x, y, z'
loop_
 _atom_site_type_symbol
 _atom_site_label
 _atom_site_symmetry_multiplicity
 _atom_site_fract_x
 _atom_site_fract_y
 _atom_site_fract_z
 _atom_site_occupancy
  Na  Na0  1  0.49701889  0.49701974  0.50088588  1
  Ni  Ni0  1  0.99654181  0.49683629  0.00147400  1
  Ni  Ni1  1  0.49683692  0.99654177  0.00147445  1
  H  H0  1  0.30376002  0.30375945  0.23754434  1
  H  H1  1  0.68817599  0.68817769  0.76753837  1
  H  H2  1  0.49453242  0.49453426  0.00399514  1
  S  S0  1  0.90540210  0.90540015  0.29497264  1
  S  S1  1  0.08855085  0.08855272  0.70836020  1
  O  O0  1  0.34309032  0.34308866  0.08994572  1
  O  O1  1  0.64963739  0.64964058  0.91484557  1
  O  O2  1  0.21172264  0.81533203  0.25130438  1
  O  O3  1  0.81533595  0.21171906  0.25130278  1
  O  O4  1  0.78235366  0.17872521  0.75204727  1
  O  O5  1  0.17871977  0.78235675  0.75204842  1
  O  O6  1  0.77612216  0.77612291  0.50249586  1
  O  O7  1  0.21789784  0.21789580  0.50076916  1
  O  O8  1  0.81113635  0.81113514  0.15877687  1
  O  O9  1  0.18316292  0.18316277  0.84421994  1
loop_
_geom_bond_atom_site_label_1
_geom_bond_atom_site_label_2
_geom_bond_distance
_geom_bond_site_symmetry_2
Na0 O7 2.391039 1_555
Na0 O6 2.395477 1_555
Na0 O2 2.553923 1_555
Na0 O3 2.553960 1_555
Na0 O4 2.561933 1_555
Na0 O5 2.561960 1_555
Na0 O8 2.788843 1_555
Na0 O9 2.791866 1_555
Ni0 O1 1.969278 1_554
Ni0 O0 1.974284 1_655
Ni0 O3 2.080331 1_555
Ni0 O5 2.082190 1_654
Ni0 O9 2.117097 1_654
Ni0 O8 2.119852 1_555
Ni1 O1 1.969276 1_554
Ni1 O0 1.974287 1_565
Ni1 O2 2.080332 1_555
Ni1 O4 2.082194 1_564
Ni1 O9 2.117090 1_564
Ni1 O8 2.119841 1_555
H0 O0 0.979683 1_555
H0 O7 1.736386 1_555
H1 O1 0.978491 1_555
H1 O6 1.747894 1_555
H2 O0 1.178582 1_555
H2 O1 1.207643 1_554
O2 S0 1.479300 1_455
O3 S0 1.479298 1_545
O4 S1 1.478723 1_655
O5 S1 1.478724 1_565
O6 S0 1.446533 1_555
O7 S1 1.447073 1_555
O8 S0 1.518759 1_555
O9 S1 1.519010 1_555
