# generated using pymatgen
data_Cu9Se5
_symmetry_space_group_name_H-M   'P 1'
_cell_length_a   7.14552634
_cell_length_b   7.14552634
_cell_length_c   9.08589507
_cell_angle_alpha   50.63361018
_cell_angle_beta   50.63361018
_cell_angle_gamma   48.40513689
_symmetry_Int_Tables_number   1
_chemical_formula_structural   Cu9Se5
_chemical_formula_sum   'Cu9 Se5'
_cell_volume   249.31885361
_cell_formula_units_Z   1
loop_
 _symmetry_equiv_pos_site_id
 _symmetry_equiv_pos_as_xyz
  1  'x, y, z'
loop_
 _atom_site_type_symbol
 _atom_site_label
 _atom_site_symmetry_multiplicity
 _atom_site_fract_x
 _atom_site_fract_y
 _atom_site_fract_z
 _atom_site_occupancy
  Cu  Cu0  1  0.47214100  0.14450300  0.29109000  1
  Cu  Cu1  1  0.85549700  0.52785900  0.70891000  1
  Cu  Cu2  1  0.26576100  0.94643100  0.08507800  1
  Cu  Cu3  1  0.06239300  0.61166200  0.32594100  1
  Cu  Cu4  1  0.38833800  0.93760700  0.67405900  1
  Cu  Cu5  1  0.64036900  0.35963100  0.50000000  1
  Cu  Cu6  1  0.05356900  0.73423900  0.91492200  1
  Cu  Cu7  1  0.86671300  0.39958600  0.13072700  1
  Cu  Cu8  1  0.60041400  0.13328700  0.86927300  1
  Se  Se0  1  0.99425600  0.20871200  0.59301000  1
  Se  Se1  1  0.41477900  0.58522100  0.00000000  1
  Se  Se2  1  0.79128800  0.00574400  0.40699000  1
  Se  Se3  1  0.19436500  0.41788100  0.78808400  1
  Se  Se4  1  0.58211900  0.80563500  0.21191600  1
loop_
_geom_bond_atom_site_label_1
_geom_bond_atom_site_label_2
_geom_bond_distance
_geom_bond_site_symmetry_2
Cu0 Se4 2.442182 1_545
Cu0 Se2 2.452007 1_555
Cu0 Se1 2.485143 1_555
Cu0 Se0 2.651345 1_455
Cu1 Se3 2.442182 1_655
Cu1 Se0 2.452007 1_555
Cu1 Se1 2.485143 1_556
Cu1 Se2 2.651345 1_565
Cu2 Se1 2.496185 1_555
Cu2 Se4 2.502946 1_555
Cu2 Cu8 2.513097 1_564
Cu2 Cu3 2.561907 1_555
Cu2 Cu7 2.594623 1_465
Cu2 Se3 2.612137 1_564
Cu2 Se2 2.704493 1_465
Cu3 Se1 2.401011 1_555
Cu3 Se2 2.408865 1_465
Cu3 Se0 2.432080 1_455
Cu4 Se1 2.401011 1_556
Cu4 Se0 2.408865 1_465
Cu4 Se2 2.432080 1_565
Cu4 Cu6 2.561907 1_555
Cu5 Se0 2.491109 1_555
Cu5 Se2 2.491109 1_555
Cu5 Se4 2.493979 1_555
Cu5 Se3 2.493979 1_555
Cu6 Se1 2.496185 1_556
Cu6 Se3 2.502946 1_555
Cu6 Cu7 2.513097 1_456
Cu6 Cu8 2.594623 1_465
Cu6 Se4 2.612137 1_456
Cu6 Se0 2.704493 1_465
Cu7 Se3 2.415469 1_654
Cu7 Se2 2.418159 1_555
Cu7 Se4 2.464979 1_555
Cu8 Se4 2.415469 1_546
Cu8 Se0 2.418159 1_555
Cu8 Se3 2.464979 1_555
