# generated using pymatgen
data_NdY3Zr4O14
_symmetry_space_group_name_H-M   'P 1'
_cell_length_a   7.42006520
_cell_length_b   7.42006520
_cell_length_c   7.42006467
_cell_angle_alpha   60.57082940
_cell_angle_beta   60.57082940
_cell_angle_gamma   60.57083107
_symmetry_Int_Tables_number   1
_chemical_formula_structural   NdY3Zr4O14
_chemical_formula_sum   'Nd1 Y3 Zr4 O14'
_cell_volume   292.59873192
_cell_formula_units_Z   1
loop_
 _symmetry_equiv_pos_site_id
 _symmetry_equiv_pos_as_xyz
  1  'x, y, z'
loop_
 _atom_site_type_symbol
 _atom_site_label
 _atom_site_symmetry_multiplicity
 _atom_site_fract_x
 _atom_site_fract_y
 _atom_site_fract_z
 _atom_site_occupancy
  Nd  Nd0  1  0.50000000  0.50000000  0.50000000  1
  Y  Y0  1  0.00000000  0.50000000  0.50000000  1
  Y  Y1  1  0.50000000  0.50000000  0.00000000  1
  Y  Y2  1  0.50000000  0.00000000  0.50000000  1
  Zr  Zr0  1  0.00000000  0.00000000  0.00000000  1
  Zr  Zr1  1  0.50000000  0.00000000  0.00000000  1
  Zr  Zr2  1  0.00000000  0.00000000  0.50000000  1
  Zr  Zr3  1  0.00000000  0.50000000  0.00000000  1
  O  O0  1  0.12268700  0.12268700  0.12268700  1
  O  O1  1  0.87731300  0.87731300  0.87731300  1
  O  O2  1  0.88275700  0.37034500  0.37034500  1
  O  O3  1  0.37703500  0.87131800  0.87131800  1
  O  O4  1  0.37034500  0.37034500  0.88275700  1
  O  O5  1  0.87131800  0.87131800  0.37703500  1
  O  O6  1  0.87131800  0.37703500  0.87131800  1
  O  O7  1  0.37034500  0.88275700  0.37034500  1
  O  O8  1  0.11724300  0.62965500  0.62965500  1
  O  O9  1  0.62296500  0.12868200  0.12868200  1
  O  O10  1  0.62965500  0.62965500  0.11724300  1
  O  O11  1  0.12868200  0.12868200  0.62296500  1
  O  O12  1  0.12868200  0.62296500  0.12868200  1
  O  O13  1  0.62965500  0.11724300  0.62965500  1
loop_
_geom_bond_atom_site_label_1
_geom_bond_atom_site_label_2
_geom_bond_distance
_geom_bond_site_symmetry_2
Nd0 O4 2.335944 1_555
Nd0 O10 2.335944 1_555
Nd0 O8 2.335944 1_555
Nd0 O2 2.335944 1_555
Nd0 O13 2.335944 1_555
Nd0 O7 2.335944 1_555
O0 Zr0 2.220214 1_555
O0 Zr2 2.302377 1_555
O0 Zr3 2.302377 1_555
O0 Zr1 2.302377 1_555
O1 Zr0 2.220214 1_666
O1 Zr2 2.302377 1_665
O1 Zr1 2.302377 1_566
O1 Zr3 2.302377 1_656
O2 Zr3 2.260317 1_655
O2 Zr2 2.260318 1_655
O2 Y0 2.272072 1_655
O3 Y2 2.266244 1_565
O3 Y1 2.266244 1_556
O3 Zr1 2.294350 1_566
O3 Zr0 2.301297 1_566
O4 Zr1 2.260318 1_556
O4 Zr3 2.260318 1_556
O4 Y1 2.272072 1_556
O5 Y0 2.266244 1_655
O5 Y2 2.266244 1_565
O5 Zr2 2.294350 1_665
O5 Zr0 2.301297 1_665
O6 Y0 2.266244 1_655
O6 Y1 2.266244 1_556
O6 Zr3 2.294350 1_656
O6 Zr0 2.301297 1_656
O7 Zr1 2.260317 1_565
O7 Zr2 2.260318 1_565
O7 Y2 2.272072 1_565
O8 Zr3 2.260317 1_556
O8 Zr2 2.260318 1_565
O8 Y0 2.272072 1_555
O9 Y2 2.266244 1_555
O9 Y1 2.266244 1_555
O9 Zr1 2.294350 1_555
O9 Zr0 2.301297 1_655
O10 Zr1 2.260318 1_565
O10 Zr3 2.260318 1_655
O10 Y1 2.272072 1_555
O11 Y0 2.266244 1_555
O11 Y2 2.266244 1_555
O11 Zr2 2.294350 1_555
O11 Zr0 2.301297 1_556
O12 Y0 2.266244 1_555
O12 Y1 2.266244 1_555
O12 Zr3 2.294350 1_555
O12 Zr0 2.301297 1_565
O13 Zr1 2.260317 1_556
O13 Zr2 2.260318 1_655
O13 Y2 2.272072 1_555
