# generated using pymatgen
data_Pr2CdRh2
_symmetry_space_group_name_H-M   'P 1'
_cell_length_a   7.58295062
_cell_length_b   7.58295062
_cell_length_c   3.97547700
_cell_angle_alpha   90.00000000
_cell_angle_beta   90.00000000
_cell_angle_gamma   90.00000000
_symmetry_Int_Tables_number   1
_chemical_formula_structural   Pr2CdRh2
_chemical_formula_sum   'Pr4 Cd2 Rh4'
_cell_volume   228.59445996
_cell_formula_units_Z   2
loop_
 _symmetry_equiv_pos_site_id
 _symmetry_equiv_pos_as_xyz
  1  'x, y, z'
loop_
 _atom_site_type_symbol
 _atom_site_label
 _atom_site_symmetry_multiplicity
 _atom_site_fract_x
 _atom_site_fract_y
 _atom_site_fract_z
 _atom_site_occupancy
  Pr  Pr0  1  0.67133399  0.17133399  0.50000000  1
  Pr  Pr1  1  0.32866601  0.82866601  0.50000000  1
  Pr  Pr2  1  0.17133399  0.32866601  0.50000000  1
  Pr  Pr3  1  0.82866601  0.67133399  0.50000000  1
  Cd  Cd0  1  -0.00000000  0.00000000  -0.00000000  1
  Cd  Cd1  1  0.50000000  0.50000000  -0.00000000  1
  Rh  Rh0  1  0.13021154  0.63021154  -0.00000000  1
  Rh  Rh1  1  0.86978846  0.36978846  0.00000000  1
  Rh  Rh2  1  0.63021154  0.86978846  -0.00000000  1
  Rh  Rh3  1  0.36978846  0.13021154  0.00000000  1
loop_
_geom_bond_atom_site_label_1
_geom_bond_atom_site_label_2
_geom_bond_distance
_geom_bond_site_symmetry_2
Pr0 Rh1 2.912108 1_555
Pr0 Rh1 2.912108 1_556
Pr0 Rh2 3.045801 1_546
Pr0 Rh3 3.045801 1_556
Pr0 Rh2 3.045801 1_545
Pr0 Rh3 3.045801 1_555
Pr1 Rh0 2.912108 1_556
Pr1 Rh0 2.912108 1_555
Pr1 Rh3 3.045801 1_566
Pr1 Rh3 3.045801 1_565
Pr1 Rh2 3.045801 1_556
Pr1 Rh2 3.045801 1_555
Pr2 Rh3 2.912108 1_555
Pr2 Rh3 2.912108 1_556
Pr2 Rh1 3.045801 1_455
Pr2 Rh0 3.045801 1_556
Pr2 Rh1 3.045801 1_456
Pr2 Rh0 3.045801 1_555
Pr3 Rh2 2.912108 1_556
Pr3 Rh2 2.912108 1_555
Pr3 Rh1 3.045801 1_556
Pr3 Rh0 3.045801 1_655
Pr3 Rh0 3.045801 1_656
Pr3 Rh1 3.045801 1_555
Cd0 Rh1 2.972851 1_455
Cd0 Rh3 2.972851 1_555
Cd0 Rh0 2.972851 1_545
Cd0 Rh2 2.972851 1_445
Cd0 Pr3 3.442444 1_445
Cd0 Pr0 3.442444 1_455
Cd0 Pr2 3.442444 1_554
Cd0 Pr3 3.442444 1_444
Cd0 Pr0 3.442444 1_454
Cd0 Pr2 3.442444 1_555
Cd0 Pr1 3.442444 1_545
Cd0 Pr1 3.442444 1_544
Cd1 Rh0 2.972851 1_555
Cd1 Rh1 2.972851 1_555
Cd1 Rh3 2.972851 1_555
Cd1 Rh2 2.972851 1_555
Cd1 Pr3 3.442444 1_554
Cd1 Pr1 3.442444 1_555
Cd1 Pr2 3.442444 1_554
Cd1 Pr3 3.442444 1_555
Cd1 Pr1 3.442444 1_554
Cd1 Pr0 3.442444 1_555
Cd1 Pr0 3.442444 1_554
Cd1 Pr2 3.442444 1_555
Rh0 Rh1 2.792754 1_455
Rh2 Rh3 2.792754 1_565
