# generated using pymatgen
data_PuB7IO14
_symmetry_space_group_name_H-M   'P 1'
_cell_length_a   16.96406800
_cell_length_b   8.18097700
_cell_length_c   12.73098343
_cell_angle_alpha   50.90600926
_cell_angle_beta   90.00000000
_cell_angle_gamma   90.00000000
_symmetry_Int_Tables_number   1
_chemical_formula_structural   PuB7IO14
_chemical_formula_sum   'Pu4 B28 I4 O56'
_cell_volume   1371.26640040
_cell_formula_units_Z   4
loop_
 _symmetry_equiv_pos_site_id
 _symmetry_equiv_pos_as_xyz
  1  'x, y, z'
loop_
 _atom_site_type_symbol
 _atom_site_label
 _atom_site_symmetry_multiplicity
 _atom_site_fract_x
 _atom_site_fract_y
 _atom_site_fract_z
 _atom_site_occupancy
  Pu  Pu0  1  0.83909700  0.50596800  0.71274500  1
  Pu  Pu1  1  0.66090300  0.50596800  0.21274500  1
  Pu  Pu2  1  0.16090300  0.49403200  0.28725500  1
  Pu  Pu3  1  0.33909700  0.49403200  0.78725500  1
  B  B0  1  0.91838200  0.14758000  0.20139300  1
  B  B1  1  0.58161800  0.14758000  0.70139300  1
  B  B2  1  0.08161800  0.85242000  0.79860700  1
  B  B3  1  0.41838200  0.85242000  0.29860700  1
  B  B4  1  0.80649400  0.96011700  0.34834700  1
  B  B5  1  0.69350600  0.96011700  0.84834700  1
  B  B6  1  0.19350600  0.03988300  0.65165300  1
  B  B7  1  0.30649400  0.03988300  0.15165300  1
  B  B8  1  0.79146900  0.86798700  0.73114200  1
  B  B9  1  0.70853100  0.86798700  0.23114200  1
  B  B10  1  0.20853100  0.13201300  0.26885800  1
  B  B11  1  0.29146900  0.13201300  0.76885800  1
  B  B12  1  0.78836900  0.22413100  0.09047500  1
  B  B13  1  0.71163100  0.22413100  0.59047500  1
  B  B14  1  0.21163100  0.77586900  0.90952500  1
  B  B15  1  0.28836900  0.77586900  0.40952500  1
  B  B16  1  0.75992500  0.58907000  0.45848700  1
  B  B17  1  0.74007500  0.58907000  0.95848700  1
  B  B18  1  0.24007500  0.41093000  0.54151300  1
  B  B19  1  0.25992500  0.41093000  0.04151300  1
  B  B20  1  0.93121200  0.78368300  0.78347700  1
  B  B21  1  0.56878800  0.78368300  0.28347600  1
  B  B22  1  0.06878800  0.21631700  0.21652300  1
  B  B23  1  0.43121200  0.21631700  0.71652300  1
  B  B24  1  0.73320700  0.07094400  0.98350900  1
  B  B25  1  0.76679300  0.07094400  0.48350900  1
  B  B26  1  0.26679300  0.92905600  0.01649100  1
  B  B27  1  0.23320700  0.92905600  0.51649100  1
  I  I0  1  0.61081300  0.61021200  0.71251400  1
  I  I1  1  0.88918700  0.61021200  0.21251400  1
  I  I2  1  0.38918700  0.38978800  0.28748600  1
  I  I3  1  0.11081300  0.38978800  0.78748600  1
  O  O0  1  0.86778500  0.90118200  0.76527500  1
  O  O1  1  0.63221500  0.90118200  0.26527500  1
  O  O2  1  0.13221500  0.09881800  0.23472500  1
  O  O3  1  0.36778500  0.09881800  0.73472500  1
  O  O4  1  0.78415800  0.74212800  0.46546900  1
  O  O5  1  0.71584200  0.74212800  0.96546900  1
  O  O6  1  0.21584200  0.25787200  0.53453100  1
  O  O7  1  0.28415800  0.25787200  0.03453100  1
  O  O8  1  0.76921800  0.22719400  0.97695700  1
  O  O9  1  0.73078200  0.22719400  0.47695700  1
  O  O10  1  0.23078200  0.77280600  0.02304300  1
  O  O11  1  0.26921800  0.77280600  0.52304300  1
  O  O12  1  0.73267200  0.01129000  0.72092600  1
  O  O13  1  0.76732800  0.01129000  0.22092600  1
  O  O14  1  0.26732800  0.98871000  0.27907400  1
  O  O15  1  0.23267200  0.98871000  0.77907400  1
  O  O16  1  0.79479800  0.88973400  0.60673800  1
  O  O17  1  0.70520200  0.88973400  0.10673800  1
  O  O18  1  0.20520200  0.11026600  0.39326200  1
  O  O19  1  0.29479800  0.11026600  0.89326200  1
  O  O20  1  0.99735400  0.19389000  0.18211600  1
  O  O21  1  0.50264600  0.19389000  0.68211600  1
  O  O22  1  0.00264600  0.80611000  0.81788400  1
  O  O23  1  0.49735400  0.80611000  0.31788400  1
  O  O24  1  0.87019500  0.26683500  0.09049100  1
  O  O25  1  0.62980500  0.26683500  0.59049100  1
  O  O26  1  0.12980500  0.73316500  0.90950900  1
  O  O27  1  0.37019500  0.73316500  0.40950900  1
  O  O28  1  0.89013700  0.98499000  0.32719400  1
  O  O29  1  0.60986300  0.98499000  0.82719400  1
  O  O30  1  0.10986300  0.01501000  0.67280600  1
  O  O31  1  0.39013700  0.01501000  0.17280600  1
  O  O32  1  0.76151200  0.38883400  0.57777500  1
  O  O33  1  0.73848800  0.38883400  0.07777500  1
  O  O34  1  0.23848800  0.61116600  0.42222500  1
  O  O35  1  0.26151200  0.61116600  0.92222500  1
  O  O36  1  0.91710300  0.62577800  0.77182800  1
  O  O37  1  0.58289700  0.62577800  0.27182800  1
  O  O38  1  0.08289700  0.37422200  0.22817200  1
  O  O39  1  0.41710300  0.37422200  0.72817200  1
  O  O40  1  0.76432800  0.64651200  0.83531600  1
  O  O41  1  0.73567200  0.64651200  0.33531600  1
  O  O42  1  0.23567200  0.35348800  0.16468400  1
  O  O43  1  0.26432800  0.35348800  0.66468400  1
  O  O44  1  0.88644900  0.24940500  0.82575900  1
  O  O45  1  0.61355100  0.24940500  0.32575900  1
  O  O46  1  0.11355100  0.75059500  0.17424100  1
  O  O47  1  0.38644900  0.75059500  0.67424100  1
  O  O48  1  0.72672600  0.10510800  0.86552800  1
  O  O49  1  0.77327400  0.10510800  0.36552800  1
  O  O50  1  0.27327400  0.89489200  0.13447200  1
  O  O51  1  0.22672600  0.89489200  0.63447200  1
  O  O52  1  0.91483000  0.57902100  0.58789800  1
  O  O53  1  0.58517000  0.57902100  0.08789800  1
  O  O54  1  0.08517000  0.42097900  0.41210200  1
  O  O55  1  0.41483000  0.42097900  0.91210200  1
loop_
_geom_bond_atom_site_label_1
_geom_bond_atom_site_label_2
_geom_bond_distance
_geom_bond_site_symmetry_2
B0 O24 1.369760 1_555
B0 O28 1.370095 1_545
B0 O20 1.371591 1_555
B1 O25 1.369760 1_555
B1 O29 1.370095 1_545
B1 O21 1.371591 1_555
B2 O26 1.369760 1_555
B2 O30 1.370095 1_565
B2 O22 1.371591 1_555
B3 O27 1.369760 1_555
B3 O31 1.370095 1_565
B3 O23 1.371591 1_555
B4 O28 1.434631 1_555
B4 O49 1.449013 1_565
B4 O4 1.481081 1_555
B4 O13 1.546520 1_565
B5 O29 1.434631 1_555
B5 O48 1.449013 1_565
B5 O5 1.481081 1_555
B5 O12 1.546520 1_565
B6 O30 1.434631 1_555
B6 O51 1.449013 1_545
B6 O6 1.481081 1_555
B6 O15 1.546520 1_545
B7 O31 1.434631 1_555
B7 O50 1.449013 1_545
B7 O7 1.481081 1_555
B7 O14 1.546520 1_545
B8 O0 1.444811 1_555
B8 O16 1.479137 1_555
B8 O12 1.481188 1_565
B8 O40 1.491037 1_555
B9 O1 1.444811 1_555
B9 O17 1.479137 1_555
B9 O13 1.481188 1_565
B9 O41 1.491037 1_555
B10 O2 1.444811 1_555
B10 O18 1.479137 1_555
B10 O14 1.481188 1_545
B10 O42 1.491037 1_555
B11 O3 1.444811 1_555
B11 O19 1.479137 1_555
B11 O15 1.481188 1_545
B11 O43 1.491037 1_555
B12 O24 1.431422 1_555
B12 O8 1.465978 1_554
B12 O13 1.506780 1_555
B12 O33 1.510954 1_555
B13 O25 1.431422 1_555
B13 O9 1.465978 1_555
B13 O12 1.506780 1_555
B13 O32 1.510954 1_555
B14 O26 1.431422 1_555
B14 O10 1.465978 1_556
B14 O15 1.506780 1_555
B14 O35 1.510954 1_555
B15 O27 1.431422 1_555
B15 O11 1.465978 1_555
B15 O14 1.506780 1_555
B15 O34 1.510954 1_555
B16 O32 1.361240 1_555
B16 O4 1.373020 1_555
B16 O41 1.385513 1_555
B17 O33 1.361240 1_556
B17 O5 1.373020 1_555
B17 O40 1.385513 1_555
B18 O34 1.361240 1_555
B18 O6 1.373020 1_555
B18 O43 1.385513 1_555
B19 O35 1.361240 1_554
B19 O7 1.373020 1_555
B19 O42 1.385513 1_555
B20 O22 1.339919 1_655
B20 O0 1.361805 1_555
B20 O36 1.410564 1_555
B21 O23 1.339925 1_555
B21 O1 1.361809 1_555
B21 O37 1.410556 1_555
B22 O20 1.339919 1_455
B22 O2 1.361805 1_555
B22 O38 1.410564 1_555
B23 O21 1.339919 1_555
B23 O3 1.361805 1_555
B23 O39 1.410564 1_555
B24 O48 1.347886 1_555
B24 O8 1.371009 1_555
B24 O17 1.396941 1_546
B25 O49 1.347886 1_555
B25 O9 1.371009 1_555
B25 O16 1.396941 1_545
B26 O50 1.347886 1_555
B26 O10 1.371009 1_555
B26 O19 1.396941 1_564
B27 O51 1.347886 1_555
B27 O11 1.371009 1_555
B27 O18 1.396941 1_565
O36 Pu0 2.051207 1_555
O37 Pu1 2.051207 1_555
O38 Pu2 2.051207 1_555
O39 Pu3 2.051207 1_555
O44 Pu0 1.819948 1_555
O45 Pu1 1.819948 1_555
O46 Pu2 1.819948 1_555
O47 Pu3 1.819948 1_555
O52 Pu0 1.826469 1_555
O53 Pu1 1.826469 1_555
O54 Pu2 1.826469 1_555
O55 Pu3 1.826469 1_555
