# generated using pymatgen
data_CeRhO3
_symmetry_space_group_name_H-M   'P 1'
_cell_length_a   5.42012800
_cell_length_b   6.01737000
_cell_length_c   7.72623000
_cell_angle_alpha   90.00000000
_cell_angle_beta   90.00000000
_cell_angle_gamma   90.00000000
_symmetry_Int_Tables_number   1
_chemical_formula_structural   CeRhO3
_chemical_formula_sum   'Ce4 Rh4 O12'
_cell_volume   251.99033954
_cell_formula_units_Z   4
loop_
 _symmetry_equiv_pos_site_id
 _symmetry_equiv_pos_as_xyz
  1  'x, y, z'
loop_
 _atom_site_type_symbol
 _atom_site_label
 _atom_site_symmetry_multiplicity
 _atom_site_fract_x
 _atom_site_fract_y
 _atom_site_fract_z
 _atom_site_occupancy
  Ce  Ce0  1  0.03145700  0.41298800  0.25000000  1
  Ce  Ce1  1  0.96854300  0.58701200  0.75000000  1
  Ce  Ce2  1  0.53145700  0.08701200  0.75000000  1
  Ce  Ce3  1  0.46854300  0.91298800  0.25000000  1
  Rh  Rh0  1  0.00000000  0.00000000  0.00000000  1
  Rh  Rh1  1  0.50000000  0.50000000  0.00000000  1
  Rh  Rh2  1  0.00000000  0.00000000  0.50000000  1
  Rh  Rh3  1  0.50000000  0.50000000  0.50000000  1
  O  O0  1  0.32443000  0.18981600  0.06401300  1
  O  O1  1  0.67557000  0.81018400  0.93598700  1
  O  O2  1  0.82443000  0.31018400  0.93598700  1
  O  O3  1  0.67557000  0.81018400  0.56401300  1
  O  O4  1  0.17557000  0.68981600  0.06401300  1
  O  O5  1  0.32443000  0.18981600  0.43598700  1
  O  O6  1  0.17557000  0.68981600  0.43598700  1
  O  O7  1  0.82443000  0.31018400  0.56401300  1
  O  O8  1  0.63770100  0.55208400  0.25000000  1
  O  O9  1  0.36229900  0.44791600  0.75000000  1
  O  O10  1  0.13770100  0.94791600  0.75000000  1
  O  O11  1  0.86229900  0.05208400  0.25000000  1
loop_
_geom_bond_atom_site_label_1
_geom_bond_atom_site_label_2
_geom_bond_distance
_geom_bond_site_symmetry_2
Ce0 O8 2.292466 1_455
Ce0 O4 2.334492 1_555
Ce0 O6 2.334492 1_555
Ce0 O11 2.357303 1_455
Ce0 O5 2.527825 1_555
Ce0 O0 2.527825 1_555
Ce0 O2 2.743712 1_454
Ce0 O7 2.743712 1_455
Ce1 O9 2.292466 1_655
Ce1 O7 2.334492 1_555
Ce1 O2 2.334492 1_555
Ce1 O10 2.357303 1_655
Ce1 O3 2.527825 1_555
Ce1 O1 2.527825 1_555
Ce1 O6 2.743712 1_655
Ce1 O4 2.743712 1_656
Ce2 O10 2.292466 1_545
Ce2 O3 2.334492 1_545
Ce2 O1 2.334492 1_545
Ce2 O9 2.357303 1_555
Ce2 O2 2.527825 1_555
Ce2 O7 2.527825 1_555
Ce2 O5 2.743712 1_555
Ce2 O0 2.743712 1_556
Ce3 O11 2.292466 1_565
Ce3 O0 2.334492 1_565
Ce3 O5 2.334492 1_565
Ce3 O8 2.357303 1_555
Ce3 O4 2.527825 1_555
Ce3 O6 2.527825 1_555
Ce3 O1 2.743712 1_554
Ce3 O3 2.743712 1_555
O0 Rh1 2.152665 1_555
O0 Rh0 2.154383 1_555
O1 Rh1 2.152665 1_556
O1 Rh0 2.154383 1_666
O2 Rh0 2.152665 1_656
O2 Rh1 2.154383 1_556
O3 Rh3 2.152665 1_555
O3 Rh2 2.154383 1_665
O4 Rh0 2.152665 1_565
O4 Rh1 2.154383 1_555
O5 Rh3 2.152665 1_555
O5 Rh2 2.154383 1_555
O6 Rh2 2.152665 1_565
O6 Rh3 2.154383 1_555
O7 Rh2 2.152665 1_655
O7 Rh3 2.154383 1_555
O8 Rh3 2.094323 1_555
O8 Rh1 2.094323 1_555
O9 Rh3 2.094323 1_555
O9 Rh1 2.094323 1_556
O10 Rh0 2.094323 1_566
O10 Rh2 2.094323 1_565
O11 Rh0 2.094323 1_655
O11 Rh2 2.094323 1_655
