# generated using pymatgen
data_La5Er5Ge6
_symmetry_space_group_name_H-M   'P 1'
_cell_length_a   8.76167117
_cell_length_b   8.76167117
_cell_length_c   6.53928700
_cell_angle_alpha   90.00000000
_cell_angle_beta   90.00000000
_cell_angle_gamma   119.48625109
_symmetry_Int_Tables_number   1
_chemical_formula_structural   La5Er5Ge6
_chemical_formula_sum   'La5 Er5 Ge6'
_cell_volume   436.97844967
_cell_formula_units_Z   1
loop_
 _symmetry_equiv_pos_site_id
 _symmetry_equiv_pos_as_xyz
  1  'x, y, z'
loop_
 _atom_site_type_symbol
 _atom_site_label
 _atom_site_symmetry_multiplicity
 _atom_site_fract_x
 _atom_site_fract_y
 _atom_site_fract_z
 _atom_site_occupancy
  La  La0  1  0.99937300  0.74969200  0.00000000  1
  La  La1  1  0.74969200  0.99937300  0.00000000  1
  La  La2  1  0.74741600  0.74741600  0.50000000  1
  La  La3  1  0.00157100  0.24921700  0.50000000  1
  La  La4  1  0.24921700  0.00157100  0.50000000  1
  Er  Er0  1  0.66459400  0.33328100  0.24939200  1
  Er  Er1  1  0.33328100  0.66459400  0.24939200  1
  Er  Er2  1  0.33328100  0.66459400  0.75060700  1
  Er  Er3  1  0.66459400  0.33328100  0.75060800  1
  Er  Er4  1  0.25518600  0.25518600  0.00000000  1
  Ge  Ge0  1  0.59889500  0.59889500  0.00000000  1
  Ge  Ge1  1  0.00731800  0.39260400  0.00000000  1
  Ge  Ge2  1  0.39260400  0.00731800  0.00000000  1
  Ge  Ge3  1  0.39549600  0.39549600  0.50000000  1
  Ge  Ge4  1  0.00114600  0.60627200  0.50000000  1
  Ge  Ge5  1  0.60627200  0.00114600  0.50000000  1
loop_
_geom_bond_atom_site_label_1
_geom_bond_atom_site_label_2
_geom_bond_distance
_geom_bond_site_symmetry_2
Er0 Ge0 3.118612 1_555
Er0 Ge2 3.129746 1_555
Er0 Ge3 3.131611 1_555
Er0 Ge5 3.154573 1_555
Er0 Ge4 3.187260 1_655
Er0 Ge1 3.226509 1_655
Er1 Ge0 3.118612 1_555
Er1 Ge1 3.129746 1_555
Er1 Ge3 3.131611 1_555
Er1 Ge4 3.154573 1_555
Er1 Ge5 3.187260 1_565
Er1 Ge2 3.226509 1_565
Er2 Ge0 3.118616 1_556
Er2 Ge1 3.129750 1_556
Er2 Ge3 3.131608 1_555
Er2 Ge4 3.154570 1_555
Er2 Ge5 3.187256 1_565
Er2 Ge2 3.226512 1_566
Er3 Ge0 3.118612 1_556
Er3 Ge2 3.129746 1_556
Er3 Ge3 3.131611 1_555
Er3 Ge5 3.154573 1_555
Er3 Ge4 3.187260 1_655
Er3 Ge1 3.226509 1_656
Er4 Ge2 2.956378 1_555
Er4 Ge1 2.956378 1_555
Er4 Ge0 3.034820 1_555
Er4 Ge3 3.496484 1_554
Er4 Ge3 3.496484 1_555
Ge0 La1 3.081217 1_555
Ge0 La0 3.081217 1_555
Ge0 La2 3.522825 1_554
Ge0 La2 3.522825 1_555
Ge1 La1 3.051184 1_445
Ge1 La0 3.163532 1_455
Ge1 La3 3.494159 1_554
Ge1 La3 3.494159 1_555
Ge2 La0 3.051184 1_445
Ge2 La1 3.163532 1_545
Ge2 La4 3.494159 1_555
Ge2 La4 3.494159 1_554
Ge3 La3 3.033218 1_555
Ge3 La4 3.033218 1_555
Ge3 La2 3.107320 1_555
Ge4 La2 3.029504 1_455
Ge4 La4 3.051090 1_565
Ge4 La3 3.130233 1_555
Ge4 La0 3.505577 1_455
Ge4 La0 3.505577 1_456
Ge5 La2 3.029504 1_545
Ge5 La3 3.051090 1_655
Ge5 La4 3.130233 1_555
Ge5 La1 3.505577 1_545
Ge5 La1 3.505577 1_546
