# generated using pymatgen
data_SrPb2Br6O5
_symmetry_space_group_name_H-M   'P 1'
_cell_length_a   9.89018092
_cell_length_b   9.89018092
_cell_length_c   8.78812291
_cell_angle_alpha   69.90082823
_cell_angle_beta   69.90082823
_cell_angle_gamma   80.06366447
_symmetry_Int_Tables_number   1
_chemical_formula_structural   SrPb2Br6O5
_chemical_formula_sum   'Sr2 Pb4 Br12 O10'
_cell_volume   756.65494137
_cell_formula_units_Z   2
loop_
 _symmetry_equiv_pos_site_id
 _symmetry_equiv_pos_as_xyz
  1  'x, y, z'
loop_
 _atom_site_type_symbol
 _atom_site_label
 _atom_site_symmetry_multiplicity
 _atom_site_fract_x
 _atom_site_fract_y
 _atom_site_fract_z
 _atom_site_occupancy
  Sr  Sr0  1  0.87332200  0.12667800  0.25000000  1
  Sr  Sr1  1  0.12667800  0.87332200  0.75000000  1
  Pb  Pb0  1  0.64562400  0.65500400  0.00159700  1
  Pb  Pb1  1  0.35437600  0.34499600  0.99840300  1
  Pb  Pb2  1  0.34499600  0.35437600  0.49840300  1
  Pb  Pb3  1  0.65500400  0.64562400  0.50159700  1
  Br  Br0  1  0.31036600  0.06568300  0.90194900  1
  Br  Br1  1  0.68963400  0.93431700  0.09805100  1
  Br  Br2  1  0.93431700  0.68963400  0.59805100  1
  Br  Br3  1  0.06568300  0.31036600  0.40194900  1
  Br  Br4  1  0.29125700  0.59786800  0.10511700  1
  Br  Br5  1  0.70874300  0.40213200  0.89488300  1
  Br  Br6  1  0.40213200  0.70874300  0.39488300  1
  Br  Br7  1  0.59786800  0.29125700  0.60511700  1
  Br  Br8  1  0.45754400  0.15100200  0.30335100  1
  Br  Br9  1  0.54245600  0.84899800  0.69664900  1
  Br  Br10  1  0.84899800  0.54245600  0.19664900  1
  Br  Br11  1  0.15100200  0.45754400  0.80335100  1
  O  O0  1  0.93602900  0.01687700  0.54621400  1
  O  O1  1  0.06397100  0.98312300  0.45378600  1
  O  O2  1  0.98312300  0.06397100  0.95378600  1
  O  O3  1  0.01687700  0.93602900  0.04621400  1
  O  O4  1  0.74363200  0.88459900  0.28812700  1
  O  O5  1  0.25636800  0.11540100  0.71187300  1
  O  O6  1  0.11540100  0.25636800  0.21187300  1
  O  O7  1  0.88459900  0.74363200  0.78812700  1
  O  O8  1  0.67481400  0.32518600  0.25000000  1
  O  O9  1  0.32518600  0.67481400  0.75000000  1
loop_
_geom_bond_atom_site_label_1
_geom_bond_atom_site_label_2
_geom_bond_distance
_geom_bond_site_symmetry_2
Br0 O5 1.809763 1_555
Br1 O4 1.809763 1_555
Br2 O7 1.809763 1_555
Br3 O6 1.809763 1_555
Br4 Pb1 2.862653 1_554
Br5 Pb0 2.862653 1_556
Br6 Pb3 2.862653 1_555
Br7 Pb2 2.862653 1_555
Br8 Pb2 2.916964 1_555
Br8 Pb1 3.094204 1_554
Br9 Pb3 2.916964 1_555
Br9 Pb0 3.094204 1_556
Br10 Pb0 2.916964 1_555
Br10 Pb3 3.094204 1_555
Br11 Pb1 2.916964 1_555
Br11 Pb2 3.094204 1_555
O0 O1 1.306353 1_645
O0 Sr0 2.697154 1_555
O0 Sr1 2.903072 1_645
O1 Sr1 2.697154 1_555
O1 Sr0 2.903072 1_465
O2 O3 1.306353 1_646
O2 Sr0 2.697154 1_556
O2 Sr1 2.903072 1_645
O3 Sr1 2.697154 1_554
O3 Sr0 2.903072 1_465
O4 Pb3 2.532043 1_555
O4 Sr0 2.775386 1_565
O5 Pb2 2.532043 1_555
O5 Sr1 2.775386 1_545
O6 Pb1 2.532043 1_554
O6 Sr0 2.775386 1_455
O7 Pb0 2.532043 1_556
O7 Sr1 2.775386 1_655
O8 Sr0 2.525615 1_555
O9 Sr1 2.525615 1_555
