# generated using pymatgen
data_SrSn(PO4)2
_symmetry_space_group_name_H-M   'P 1'
_cell_length_a   5.69344499
_cell_length_b   7.04855782
_cell_length_c   9.28743014
_cell_angle_alpha   110.70439776
_cell_angle_beta   100.56013408
_cell_angle_gamma   98.08234405
_symmetry_Int_Tables_number   1
_chemical_formula_structural   SrSn(PO4)2
_chemical_formula_sum   'Sr2 Sn2 P4 O16'
_cell_volume   334.07599957
_cell_formula_units_Z   2
loop_
 _symmetry_equiv_pos_site_id
 _symmetry_equiv_pos_as_xyz
  1  'x, y, z'
loop_
 _atom_site_type_symbol
 _atom_site_label
 _atom_site_symmetry_multiplicity
 _atom_site_fract_x
 _atom_site_fract_y
 _atom_site_fract_z
 _atom_site_occupancy
  Sr  Sr0  1  0.24361000  0.76320100  0.03065300  1
  Sr  Sr1  1  0.75639000  0.23679900  0.96934700  1
  Sn  Sn0  1  0.67204600  0.82406000  0.54945800  1
  Sn  Sn1  1  0.32795400  0.17594000  0.45054200  1
  P  P0  1  0.39309700  0.43036900  0.22771500  1
  P  P1  1  0.60690300  0.56963100  0.77228500  1
  P  P2  1  0.83935300  0.03387200  0.30180900  1
  P  P3  1  0.16064700  0.96612800  0.69819100  1
  O  O0  1  0.82584000  0.56167000  0.89050100  1
  O  O1  1  0.63386200  0.47485300  0.18701300  1
  O  O2  1  0.65320400  0.79008100  0.75657900  1
  O  O3  1  0.95628100  0.09752100  0.69720400  1
  O  O4  1  0.36613800  0.52514700  0.81298700  1
  O  O5  1  0.01297400  0.74599600  0.57384800  1
  O  O6  1  0.98702600  0.25400400  0.42615200  1
  O  O7  1  0.28421500  0.99144700  0.86422300  1
  O  O8  1  0.34679600  0.20991900  0.24342100  1
  O  O9  1  0.71578500  0.00855300  0.13577700  1
  O  O10  1  0.17416000  0.43833000  0.10949900  1
  O  O11  1  0.39803500  0.59192600  0.39991100  1
  O  O12  1  0.60196500  0.40807400  0.60008900  1
  O  O13  1  0.62133900  0.96323200  0.37734200  1
  O  O14  1  0.04371900  0.90247900  0.30279600  1
  O  O15  1  0.37866100  0.03676800  0.62265800  1
loop_
_geom_bond_atom_site_label_1
_geom_bond_atom_site_label_2
_geom_bond_distance
_geom_bond_site_symmetry_2
O0 P1 1.524455 1_555
O0 Sr0 2.444858 1_656
O0 Sr1 2.640698 1_555
O1 P0 1.507692 1_555
O1 Sr1 2.415861 1_554
O2 P1 1.601379 1_555
O2 Sn0 2.040434 1_555
O2 Sr1 2.969705 1_565
O3 P3 1.586426 1_645
O3 Sn0 2.157724 1_545
O3 Sr1 2.874239 1_555
O4 P1 1.507692 1_555
O4 Sr0 2.415861 1_556
O5 P3 1.567899 1_555
O5 Sn0 2.085441 1_455
O6 P2 1.567899 1_555
O6 Sn1 2.085441 1_655
O7 P3 1.508997 1_555
O7 Sr0 2.610682 1_556
O7 Sr1 2.776280 1_565
O8 P0 1.601379 1_555
O8 Sn1 2.040434 1_555
O8 Sr0 2.969705 1_545
O9 P2 1.508997 1_555
O9 Sr1 2.610682 1_554
O9 Sr0 2.776280 1_545
O10 P0 1.524455 1_555
O10 Sr1 2.444858 1_454
O10 Sr0 2.640698 1_555
O11 P0 1.594350 1_555
O11 Sn0 1.980197 1_555
O12 P1 1.594350 1_555
O12 Sn1 1.980197 1_555
O13 P2 1.634957 1_565
O13 Sn0 2.149453 1_555
O13 Sn1 2.428970 1_565
O13 Sr0 3.221736 1_555
O14 P2 1.586426 1_465
O14 Sn1 2.157724 1_565
O14 Sr0 2.874239 1_555
O15 P3 1.634957 1_545
O15 Sn1 2.149453 1_555
O15 Sn0 2.428970 1_545
O15 Sr1 3.221736 1_555
