# generated using pymatgen
data_Li2NbV(PO5)2
_symmetry_space_group_name_H-M   'P 1'
_cell_length_a   6.43196600
_cell_length_b   10.95804000
_cell_length_c   12.77963800
_cell_angle_alpha   90.00000000
_cell_angle_beta   90.00000000
_cell_angle_gamma   90.00000000
_symmetry_Int_Tables_number   1
_chemical_formula_structural   Li2NbV(PO5)2
_chemical_formula_sum   'Li8 Nb4 V4 P8 O40'
_cell_volume   900.73113184
_cell_formula_units_Z   4
loop_
 _symmetry_equiv_pos_site_id
 _symmetry_equiv_pos_as_xyz
  1  'x, y, z'
loop_
 _atom_site_type_symbol
 _atom_site_label
 _atom_site_symmetry_multiplicity
 _atom_site_fract_x
 _atom_site_fract_y
 _atom_site_fract_z
 _atom_site_occupancy
  Li  Li0  1  0.75352300  0.31310900  0.81813500  1
  Li  Li1  1  0.24647700  0.81310900  0.18186500  1
  Li  Li2  1  0.25352300  0.81310900  0.68186500  1
  Li  Li3  1  0.74647700  0.31310900  0.31813500  1
  Li  Li4  1  0.67559300  0.10444400  0.61295800  1
  Li  Li5  1  0.32440600  0.60444400  0.38704200  1
  Li  Li6  1  0.17559400  0.60444400  0.88704200  1
  Li  Li7  1  0.82440700  0.10444400  0.11295800  1
  Nb  Nb0  1  0.99756700  0.99958600  0.86384100  1
  Nb  Nb1  1  0.00243300  0.49958600  0.13615900  1
  Nb  Nb2  1  0.49756700  0.49958600  0.63615900  1
  Nb  Nb3  1  0.50243300  0.99958600  0.36384100  1
  V  V0  1  0.24703800  0.24691500  0.74578800  1
  V  V1  1  0.75296200  0.74691500  0.25421200  1
  V  V2  1  0.74703800  0.74691500  0.75421200  1
  V  V3  1  0.25296200  0.24691500  0.24578800  1
  P  P0  1  0.99799200  0.49986800  0.68760500  1
  P  P1  1  0.00200800  0.99986800  0.31239500  1
  P  P2  1  0.49799200  0.99986800  0.81239500  1
  P  P3  1  0.50200800  0.49986800  0.18760500  1
  P  P4  1  0.14514600  0.25518800  0.99642500  1
  P  P5  1  0.85485400  0.75518800  0.00357500  1
  P  P6  1  0.64514600  0.75518800  0.50357500  1
  P  P7  1  0.35485400  0.25518800  0.49642500  1
  O  O0  1  0.48873700  0.37034900  0.73182900  1
  O  O1  1  0.51126300  0.87034900  0.26817100  1
  O  O2  1  0.98873700  0.87034900  0.76817100  1
  O  O3  1  0.01126300  0.37034900  0.23182900  1
  O  O4  1  0.01436000  0.37503900  0.00488300  1
  O  O5  1  0.98564000  0.87503900  0.99511700  1
  O  O6  1  0.51436000  0.87503900  0.49511700  1
  O  O7  1  0.48564000  0.37503900  0.50488300  1
  O  O8  1  0.28603600  0.23796600  0.09272200  1
  O  O9  1  0.71396400  0.73796600  0.90727800  1
  O  O10  1  0.78603600  0.73796600  0.40727800  1
  O  O11  1  0.21396400  0.23796600  0.59272200  1
  O  O12  1  0.01248500  0.38267300  0.75458900  1
  O  O13  1  0.98751500  0.88267300  0.24541100  1
  O  O14  1  0.51248500  0.88267300  0.74541100  1
  O  O15  1  0.48751500  0.38267300  0.25458900  1
  O  O16  1  0.50954600  0.62705900  0.73321600  1
  O  O17  1  0.49045400  0.12705900  0.26678400  1
  O  O18  1  0.00954600  0.12705900  0.76678400  1
  O  O19  1  0.99045400  0.62705900  0.23321600  1
  O  O20  1  0.98737400  0.61199300  0.76176000  1
  O  O21  1  0.01262600  0.11199300  0.23824000  1
  O  O22  1  0.48737400  0.11199300  0.73824000  1
  O  O23  1  0.51262600  0.61199300  0.26176000  1
  O  O24  1  0.80626300  0.49293500  0.61509200  1
  O  O25  1  0.19373700  0.99293500  0.38490800  1
  O  O26  1  0.30626300  0.99293500  0.88490800  1
  O  O27  1  0.69373700  0.49293500  0.11509200  1
  O  O28  1  0.28628900  0.25972500  0.89940300  1
  O  O29  1  0.71371100  0.75972500  0.10059700  1
  O  O30  1  0.78628900  0.75972500  0.60059700  1
  O  O31  1  0.21371100  0.25972500  0.39940300  1
  O  O32  1  0.18659600  0.51267000  0.61381700  1
  O  O33  1  0.81340400  0.01267000  0.38618300  1
  O  O34  1  0.68659600  0.01267000  0.88618300  1
  O  O35  1  0.31340400  0.51267000  0.11381700  1
  O  O36  1  0.98675500  0.14588200  0.98877900  1
  O  O37  1  0.01324500  0.64588200  0.01122100  1
  O  O38  1  0.48675500  0.64588200  0.51122100  1
  O  O39  1  0.51324500  0.14588200  0.48877900  1
loop_
_geom_bond_atom_site_label_1
_geom_bond_atom_site_label_2
_geom_bond_distance
_geom_bond_site_symmetry_2
Li0 O12 2.003725 1_655
Li0 O0 2.123789 1_555
Li1 O13 2.003725 1_455
Li1 O1 2.123789 1_555
Li2 O14 2.003725 1_555
Li2 O2 2.123789 1_455
Li3 O15 2.003725 1_555
Li3 O3 2.123789 1_655
Li4 O39 1.953209 1_555
Li4 O22 2.008937 1_555
Li5 O38 1.953213 1_555
Li5 O23 2.008941 1_555
Li6 O37 1.953213 1_556
Li6 O20 2.008941 1_455
Li7 O36 1.953209 1_554
Li7 O21 2.008937 1_655
Nb0 O18 1.869656 1_665
Nb0 O2 1.871797 1_555
Nb0 O26 2.005017 1_655
Nb0 O34 2.025512 1_565
Nb0 O5 2.164043 1_555
Nb0 O36 2.263659 1_565
Nb1 O19 1.869656 1_455
Nb1 O3 1.871797 1_555
Nb1 O27 2.005017 1_455
Nb1 O35 2.025512 1_555
Nb1 O4 2.164043 1_555
Nb1 O37 2.263659 1_555
Nb2 O16 1.869656 1_555
Nb2 O0 1.871797 1_555
Nb2 O24 2.005017 1_555
Nb2 O32 2.025512 1_555
Nb2 O7 2.164043 1_555
Nb2 O38 2.263659 1_555
Nb3 O17 1.869656 1_565
Nb3 O1 1.871797 1_555
Nb3 O25 2.005017 1_555
Nb3 O33 2.025512 1_565
Nb3 O6 2.164043 1_555
Nb3 O39 2.263659 1_565
O0 V0 2.068361 1_555
O1 V1 2.068361 1_555
O2 V2 2.068361 1_555
O3 V3 2.068361 1_555
O4 P4 1.563381 1_554
O5 P5 1.563381 1_556
O6 P6 1.563381 1_555
O7 P7 1.563381 1_555
O8 P4 1.539899 1_554
O8 V3 1.970104 1_555
O9 P5 1.539899 1_556
O9 V2 1.970104 1_555
O10 P6 1.539899 1_555
O10 V1 1.970104 1_555
O11 P7 1.539899 1_555
O11 V0 1.970104 1_555
O12 P0 1.546195 1_455
O12 V0 2.121724 1_555
O13 P1 1.546195 1_655
O13 V1 2.121724 1_555
O14 P2 1.546195 1_555
O14 V2 2.121724 1_555
O15 P3 1.546195 1_555
O15 V3 2.121724 1_555
O16 V2 2.032329 1_555
O17 V3 2.032329 1_555
O18 V0 2.032329 1_555
O19 V1 2.032329 1_555
O20 P0 1.553184 1_555
O20 V2 2.141217 1_555
O21 P1 1.553184 1_545
O21 V3 2.141217 1_555
O22 P2 1.553184 1_545
O22 V0 2.141217 1_555
O23 P3 1.553184 1_555
O23 V1 2.141217 1_555
O24 P0 1.544440 1_555
O25 P1 1.544440 1_555
O26 P2 1.544440 1_555
O27 P3 1.544440 1_555
O28 P4 1.537527 1_555
O28 V0 1.984282 1_555
O29 P5 1.537527 1_555
O29 V1 1.984282 1_555
O30 P6 1.537527 1_555
O30 V2 1.984282 1_555
O31 P7 1.537527 1_555
O31 V3 1.984282 1_555
O32 P0 1.542886 1_455
O33 P1 1.542886 1_645
O34 P2 1.542886 1_545
O35 P3 1.542886 1_555
O36 P4 1.575470 1_655
O37 P5 1.575470 1_455
O38 P6 1.575470 1_555
O39 P7 1.575470 1_555
