# generated using pymatgen
data_U6Cu2Se13
_symmetry_space_group_name_H-M   'P 1'
_cell_length_a   8.48896948
_cell_length_b   8.48896948
_cell_length_c   14.97085881
_cell_angle_alpha   98.63212013
_cell_angle_beta   98.63212013
_cell_angle_gamma   100.87068635
_symmetry_Int_Tables_number   1
_chemical_formula_structural   U6Cu2Se13
_chemical_formula_sum   'U12 Cu4 Se26'
_cell_volume   1029.64551213
_cell_formula_units_Z   2
loop_
 _symmetry_equiv_pos_site_id
 _symmetry_equiv_pos_as_xyz
  1  'x, y, z'
loop_
 _atom_site_type_symbol
 _atom_site_label
 _atom_site_symmetry_multiplicity
 _atom_site_fract_x
 _atom_site_fract_y
 _atom_site_fract_z
 _atom_site_occupancy
  U  U0  1  0.01176500  0.66759700  0.88802600  1
  U  U1  1  0.33240300  0.98823500  0.61197400  1
  U  U2  1  0.98823500  0.33240300  0.11197400  1
  U  U3  1  0.66759700  0.01176500  0.38802600  1
  U  U4  1  0.15635900  0.49505900  0.64526300  1
  U  U5  1  0.50494100  0.84364100  0.85473700  1
  U  U6  1  0.84364100  0.50494100  0.35473700  1
  U  U7  1  0.49505900  0.15635900  0.14526300  1
  U  U8  1  0.83851700  0.82199900  0.64189000  1
  U  U9  1  0.17800100  0.16148300  0.85811000  1
  U  U10  1  0.16148300  0.17800100  0.35811000  1
  U  U11  1  0.82199900  0.83851700  0.14189000  1
  Cu  Cu0  1  0.68281500  0.39152400  0.87071700  1
  Cu  Cu1  1  0.60847600  0.31718500  0.62928300  1
  Cu  Cu2  1  0.31718500  0.60847600  0.12928300  1
  Cu  Cu3  1  0.39152400  0.68281500  0.37071700  1
  Se  Se0  1  0.68640900  0.65054700  0.95207700  1
  Se  Se1  1  0.34945300  0.31359100  0.54792300  1
  Se  Se2  1  0.31359100  0.34945300  0.04792300  1
  Se  Se3  1  0.65054700  0.68640900  0.45207700  1
  Se  Se4  1  0.06822300  0.14496800  0.66757700  1
  Se  Se5  1  0.85503200  0.93177700  0.83242300  1
  Se  Se6  1  0.93177700  0.85503200  0.33242300  1
  Se  Se7  1  0.14496800  0.06822300  0.16757700  1
  Se  Se8  1  0.27878400  0.51292900  0.83713800  1
  Se  Se9  1  0.48707100  0.72121600  0.66286200  1
  Se  Se10  1  0.72121600  0.48707100  0.16286200  1
  Se  Se11  1  0.51292900  0.27878400  0.33713800  1
  Se  Se12  1  0.84277400  0.51193100  0.70195200  1
  Se  Se13  1  0.48806900  0.15722600  0.79804800  1
  Se  Se14  1  0.15722600  0.48806900  0.29804800  1
  Se  Se15  1  0.51193100  0.84277400  0.20195200  1
  Se  Se16  1  0.93803200  0.32993600  0.91567000  1
  Se  Se17  1  0.67006400  0.06196800  0.58433000  1
  Se  Se18  1  0.06196800  0.67006400  0.08433000  1
  Se  Se19  1  0.32993600  0.93803200  0.41567000  1
  Se  Se20  1  0.06179900  0.71073800  0.52400300  1
  Se  Se21  1  0.28926200  0.93820100  0.97599700  1
  Se  Se22  1  0.93820100  0.28926200  0.47599700  1
  Se  Se23  1  0.71073800  0.06179900  0.02400300  1
  Se  Se24  1  0.17102900  0.82897100  0.75000000  1
  Se  Se25  1  0.82897100  0.17102900  0.25000000  1
loop_
_geom_bond_atom_site_label_1
_geom_bond_atom_site_label_2
_geom_bond_distance
_geom_bond_site_symmetry_2
Cu0 Se13 2.332998 1_555
Cu0 Se0 2.340727 1_555
Cu0 Se16 2.348463 1_555
Cu1 Se12 2.332998 1_555
Cu1 Se1 2.340727 1_555
Cu1 Se17 2.348463 1_555
Cu2 Se15 2.332998 1_555
Cu2 Se2 2.340727 1_555
Cu2 Se18 2.348463 1_555
Cu3 Se14 2.332998 1_555
Cu3 Se3 2.340727 1_555
Cu3 Se19 2.348463 1_555
Se0 U5 2.859924 1_555
Se0 U11 2.985022 1_556
Se0 U0 3.042139 1_655
Se1 U4 2.859924 1_555
Se1 U10 2.985022 1_555
Se1 U1 3.042139 1_545
Se2 U7 2.859924 1_555
Se2 U9 2.985022 1_554
Se2 U2 3.042139 1_455
Se3 U6 2.859924 1_555
Se3 U8 2.985022 1_555
Se3 U3 3.042139 1_565
Se4 U9 2.838533 1_555
Se4 U1 2.974199 1_545
Se4 U8 2.984786 1_445
Se4 U4 3.006325 1_555
Se5 U8 2.838533 1_555
Se5 U0 2.974199 1_655
Se5 U9 2.984786 1_665
Se5 U5 3.006325 1_555
Se6 U11 2.838533 1_555
Se6 U3 2.974199 1_565
Se6 U10 2.984786 1_665
Se6 U6 3.006325 1_555
Se7 U10 2.838533 1_555
Se7 U2 2.974199 1_455
Se7 U11 2.984786 1_445
Se7 U7 3.006325 1_555
Se8 U4 2.875435 1_555
Se8 U0 2.963606 1_555
Se8 U9 3.021648 1_555
Se8 U5 3.038076 1_555
Se9 U5 2.875435 1_555
Se9 U1 2.963606 1_555
Se9 U8 3.021648 1_555
Se9 U4 3.038076 1_555
Se10 U6 2.875435 1_555
Se10 U2 2.963606 1_555
Se10 U11 3.021648 1_555
Se10 U7 3.038076 1_555
Se11 U7 2.875435 1_555
Se11 U3 2.963606 1_555
Se11 U10 3.021648 1_555
Se11 U6 3.038076 1_555
Se12 U8 2.911128 1_555
Se12 U0 2.923118 1_655
Se12 U4 2.934720 1_655
Se13 U9 2.911128 1_555
Se13 U1 2.923118 1_545
Se13 U5 2.934720 1_545
Se14 U10 2.911128 1_555
Se14 U2 2.923118 1_455
Se14 U6 2.934720 1_455
Se15 U11 2.911128 1_555
Se15 U3 2.923118 1_565
Se15 U7 2.934720 1_565
Se16 U9 2.862336 1_655
Se16 U2 2.901902 1_556
Se16 U0 2.921711 1_655
Se17 U8 2.862336 1_545
Se17 U3 2.901902 1_555
Se17 U1 2.921711 1_545
Se18 U11 2.862336 1_455
Se18 U0 2.901902 1_554
Se18 U2 2.921711 1_455
Se19 U10 2.862336 1_565
Se19 U1 2.901902 1_555
Se19 U3 2.921711 1_565
Se20 U4 2.899433 1_555
Se20 U1 2.946191 1_555
Se20 U8 2.962859 1_455
Se20 U6 2.990853 1_455
Se21 U5 2.899433 1_555
Se21 U0 2.946191 1_555
Se21 U9 2.962859 1_565
Se21 U7 2.990853 1_566
Se22 U6 2.899433 1_555
Se22 U3 2.946191 1_555
Se22 U10 2.962859 1_655
Se22 U4 2.990853 1_655
Se23 U7 2.899433 1_555
Se23 U2 2.946191 1_555
Se23 U11 2.962859 1_545
Se23 U5 2.990853 1_544
Se24 U0 2.994014 1_555
Se24 U1 2.994014 1_555
Se24 U4 2.997162 1_555
Se24 U5 2.997162 1_555
Se24 U9 3.021167 1_565
Se24 U8 3.021167 1_455
Se25 U2 2.994014 1_555
Se25 U3 2.994014 1_555
Se25 U6 2.997162 1_555
Se25 U7 2.997162 1_555
Se25 U11 3.021167 1_545
Se25 U10 3.021167 1_655
