# generated using pymatgen
data_MgTi2Zn2(PO5)2
_symmetry_space_group_name_H-M   'P 1'
_cell_length_a   6.43722818
_cell_length_b   6.56268362
_cell_length_c   8.94800011
_cell_angle_alpha   86.77589763
_cell_angle_beta   37.55398179
_cell_angle_gamma   99.27953307
_symmetry_Int_Tables_number   1
_chemical_formula_structural   MgTi2Zn2(PO5)2
_chemical_formula_sum   'Mg1 Ti2 Zn2 P2 O10'
_cell_volume   216.47825948
_cell_formula_units_Z   1
loop_
 _symmetry_equiv_pos_site_id
 _symmetry_equiv_pos_as_xyz
  1  'x, y, z'
loop_
 _atom_site_type_symbol
 _atom_site_label
 _atom_site_symmetry_multiplicity
 _atom_site_fract_x
 _atom_site_fract_y
 _atom_site_fract_z
 _atom_site_occupancy
  Mg  Mg0  1  0.05483300  0.67290400  0.62563000  1
  Ti  Ti0  1  0.57654500  0.47618500  0.51079100  1
  Ti  Ti1  1  0.67214800  0.02675900  0.47608800  1
  Zn  Zn0  1  0.41129500  0.22500700  0.27364800  1
  Zn  Zn1  1  0.14797100  0.80943400  0.97144700  1
  P  P0  1  0.60437700  0.26241700  0.82446300  1
  P  P1  1  0.40970500  0.72648600  0.15983700  1
  O  O0  1  0.82004100  0.15126300  0.60352000  1
  O  O1  1  0.60195100  0.46868000  0.73085400  1
  O  O2  1  0.29592400  0.89204700  0.31554500  1
  O  O3  1  0.39798700  0.54224100  0.28785200  1
  O  O4  1  0.11361600  0.62575300  0.20932000  1
  O  O5  1  0.77108700  0.82882100  0.87380600  1
  O  O6  1  0.80887700  0.34546600  0.85540600  1
  O  O7  1  0.21679000  0.11235000  0.09085200  1
  O  O8  1  0.49683800  0.74056800  0.50497500  1
  O  O9  1  0.55432200  0.22856100  0.41183500  1
loop_
_geom_bond_atom_site_label_1
_geom_bond_atom_site_label_2
_geom_bond_distance
_geom_bond_site_symmetry_2
Mg0 O5 1.934356 1_455
Mg0 O8 2.031369 1_555
Mg0 O2 2.044319 1_555
Mg0 O6 2.143844 1_455
Mg0 O3 2.250878 1_555
Mg0 O1 2.329715 1_455
O0 P0 1.582725 1_555
O0 Ti1 2.109336 1_555
O0 Zn0 2.205751 1_655
O1 P0 1.560192 1_555
O1 Ti0 2.099743 1_555
O2 P1 1.570702 1_555
O2 Zn0 2.099965 1_565
O3 P1 1.567681 1_555
O3 Zn0 2.104245 1_555
O4 P1 1.577501 1_555
O4 Ti0 2.003367 1_455
O4 Zn1 2.216196 1_554
O5 P1 1.508554 1_556
O6 P0 1.571673 1_555
O6 Zn0 2.238069 1_556
O7 P0 1.546145 1_554
O7 Ti1 2.115367 1_455
O7 Zn1 2.448488 1_544
O8 Ti0 1.896233 1_555
O8 Ti1 1.915004 1_565
O9 Ti1 1.894596 1_555
O9 Ti0 1.932124 1_555
O9 Zn0 2.044147 1_555
