# generated using pymatgen
data_YbZnGa3
_symmetry_space_group_name_H-M   'P 1'
_cell_length_a   4.12961882
_cell_length_b   4.12961882
_cell_length_c   6.01834619
_cell_angle_alpha   69.93501654
_cell_angle_beta   69.93501654
_cell_angle_gamma   90.00000000
_symmetry_Int_Tables_number   1
_chemical_formula_structural   YbZnGa3
_chemical_formula_sum   'Yb1 Zn1 Ga3'
_cell_volume   89.74490797
_cell_formula_units_Z   1
loop_
 _symmetry_equiv_pos_site_id
 _symmetry_equiv_pos_as_xyz
  1  'x, y, z'
loop_
 _atom_site_type_symbol
 _atom_site_label
 _atom_site_symmetry_multiplicity
 _atom_site_fract_x
 _atom_site_fract_y
 _atom_site_fract_z
 _atom_site_occupancy
  Yb  Yb0  1  0.00120206  0.00120206  0.99759588  1
  Zn  Zn0  1  0.38602563  0.38602563  0.22794773  1
  Ga  Ga0  1  0.60795506  0.60795506  0.78408988  1
  Ga  Ga1  1  0.75240863  0.25240863  0.49518275  1
  Ga  Ga2  1  0.25240863  0.75240863  0.49518275  1
loop_
_geom_bond_atom_site_label_1
_geom_bond_atom_site_label_2
_geom_bond_distance
_geom_bond_site_symmetry_2
Yb0 Zn0 3.161698 1_556
Yb0 Zn0 3.161701 1_546
Yb0 Zn0 3.161701 1_456
Yb0 Zn0 3.161704 1_446
Ga0 Zn0 2.335790 1_556
Ga0 Ga1 2.564166 1_555
Ga0 Ga2 2.564166 1_555
Ga0 Ga1 2.564167 1_565
Ga0 Ga2 2.564167 1_655
Ga0 Yb0 3.128783 1_665
Ga0 Yb0 3.128783 1_655
Ga0 Yb0 3.128783 1_565
Ga0 Yb0 3.128783 1_555
Ga1 Zn0 2.498231 1_655
Ga1 Zn0 2.498234 1_555
Ga1 Yb0 3.334693 1_654
Ga1 Yb0 3.334693 1_664
Ga1 Yb0 3.354673 1_655
Ga1 Yb0 3.354674 1_555
Ga2 Zn0 2.498231 1_565
Ga2 Zn0 2.498234 1_555
Ga2 Yb0 3.334693 1_564
Ga2 Yb0 3.334693 1_664
Ga2 Yb0 3.354673 1_565
Ga2 Yb0 3.354674 1_555
