# generated using pymatgen
data_Li9Mn2Co5O16
_symmetry_space_group_name_H-M   'P 1'
_cell_length_a   7.78583987
_cell_length_b   7.78583987
_cell_length_c   12.90237785
_cell_angle_alpha   87.70856351
_cell_angle_beta   87.70856351
_cell_angle_gamma   21.60810740
_symmetry_Int_Tables_number   1
_chemical_formula_structural   Li9Mn2Co5O16
_chemical_formula_sum   'Li9 Mn2 Co5 O16'
_cell_volume   287.78661088
_cell_formula_units_Z   1
loop_
 _symmetry_equiv_pos_site_id
 _symmetry_equiv_pos_as_xyz
  1  'x, y, z'
loop_
 _atom_site_type_symbol
 _atom_site_label
 _atom_site_symmetry_multiplicity
 _atom_site_fract_x
 _atom_site_fract_y
 _atom_site_fract_z
 _atom_site_occupancy
  Li  Li0  1  0.56181000  0.56181000  0.81092800  1
  Li  Li1  1  0.43819000  0.43819000  0.18907200  1
  Li  Li2  1  0.31843700  0.31843700  0.55919500  1
  Li  Li3  1  0.18738200  0.18738200  0.93774000  1
  Li  Li4  1  0.06344000  0.06344000  0.32121500  1
  Li  Li5  1  0.93656000  0.93656000  0.67878500  1
  Li  Li6  1  0.81261800  0.81261800  0.06226000  1
  Li  Li7  1  0.68156300  0.68156300  0.44080500  1
  Li  Li8  1  0.50000000  0.50000000  0.50000000  1
  Mn  Mn0  1  0.12106000  0.12106000  0.61882600  1
  Mn  Mn1  1  0.87894000  0.87894000  0.38117400  1
  Co  Co0  1  0.00000000  0.00000000  0.00000000  1
  Co  Co1  1  0.74960000  0.74960000  0.74921700  1
  Co  Co2  1  0.62509700  0.62509700  0.12584900  1
  Co  Co3  1  0.37490300  0.37490300  0.87415100  1
  Co  Co4  1  0.25040000  0.25040000  0.25078300  1
  O  O0  1  0.54093000  0.54093000  0.65399800  1
  O  O1  1  0.41199800  0.41199800  0.02716600  1
  O  O2  1  0.29220900  0.29220900  0.40040400  1
  O  O3  1  0.16105300  0.16105300  0.77099000  1
  O  O4  1  0.03795800  0.03795800  0.15184600  1
  O  O5  1  0.90204700  0.90204700  0.51921900  1
  O  O6  1  0.78605000  0.78605000  0.90049700  1
  O  O7  1  0.66255100  0.66255100  0.27796500  1
  O  O8  1  0.58800200  0.58800200  0.97283400  1
  O  O9  1  0.45907000  0.45907000  0.34600200  1
  O  O10  1  0.33744900  0.33744900  0.72203500  1
  O  O11  1  0.21395000  0.21395000  0.09950300  1
  O  O12  1  0.09795300  0.09795300  0.48078100  1
  O  O13  1  0.96204200  0.96204200  0.84815400  1
  O  O14  1  0.83894700  0.83894700  0.22901000  1
  O  O15  1  0.70779100  0.70779100  0.59959600  1
loop_
_geom_bond_atom_site_label_1
_geom_bond_atom_site_label_2
_geom_bond_distance
_geom_bond_site_symmetry_2
Li0 O0 2.062604 1_555
Li0 O8 2.142997 1_555
Li0 O13 2.151693 1_545
Li0 O13 2.151693 1_455
Li0 O3 2.153175 1_565
Li0 O3 2.153175 1_655
Li1 O9 2.062604 1_555
Li1 O1 2.142997 1_555
Li1 O4 2.151693 1_565
Li1 O4 2.151693 1_655
Li1 O14 2.153175 1_545
Li1 O14 2.153175 1_455
Li2 O5 1.994461 1_545
Li2 O5 1.994461 1_455
Li2 O2 2.103653 1_555
Li2 O10 2.132745 1_555
Li2 O15 2.279070 1_455
Li2 O15 2.279070 1_545
Li3 O6 2.139989 1_545
Li3 O6 2.139989 1_455
Li3 O8 2.142352 1_455
Li3 O8 2.142352 1_545
Li3 O11 2.142496 1_556
Li3 O3 2.204892 1_555
Li4 O12 2.146097 1_555
Li4 O7 2.161184 1_455
Li4 O7 2.161184 1_545
Li4 O9 2.176985 1_455
Li4 O9 2.176985 1_545
Li4 O4 2.235314 1_555
Li5 O5 2.146097 1_555
Li5 O10 2.161184 1_655
Li5 O10 2.161184 1_565
Li5 O0 2.176985 1_655
Li5 O0 2.176985 1_565
Li5 O13 2.235314 1_555
Li6 O11 2.139989 1_655
Li6 O11 2.139989 1_565
Li6 O1 2.142352 1_565
Li6 O1 2.142352 1_655
Li6 O6 2.142496 1_554
Li6 O14 2.204892 1_555
Li7 O12 1.994461 1_565
Li7 O12 1.994461 1_655
Li7 O15 2.103653 1_555
Li7 O7 2.132745 1_555
Li7 O2 2.279070 1_565
Li7 O2 2.279070 1_655
Li8 O5 2.099058 1_455
Li8 O12 2.099058 1_655
Li8 O5 2.099058 1_545
Li8 O12 2.099058 1_565
Li8 O0 2.107401 1_555
Li8 O9 2.107401 1_555
Mn0 O12 1.829894 1_555
Mn0 O0 1.947532 1_545
Mn0 O0 1.947532 1_455
Mn0 O15 1.981081 1_455
Mn0 O15 1.981081 1_545
Mn0 O3 2.080007 1_555
Mn1 O5 1.829894 1_555
Mn1 O9 1.947532 1_565
Mn1 O9 1.947532 1_655
Mn1 O2 1.981081 1_655
Mn1 O2 1.981081 1_565
Mn1 O14 2.080007 1_555
Co0 O1 2.006570 1_455
Co0 O8 2.006570 1_544
Co0 O1 2.006570 1_545
Co0 O8 2.006570 1_454
Co0 O4 2.065927 1_555
Co0 O13 2.065927 1_444
Co1 O3 2.003080 1_565
Co1 O3 2.003080 1_655
Co1 O10 2.005048 1_655
Co1 O10 2.005048 1_565
Co1 O6 2.051641 1_555
Co1 O15 2.058193 1_555
Co2 O4 1.995652 1_655
Co2 O4 1.995652 1_565
Co2 O11 2.013710 1_565
Co2 O11 2.013710 1_655
Co2 O7 2.066823 1_555
Co2 O8 2.076251 1_554
Co3 O13 1.995652 1_545
Co3 O13 1.995652 1_455
Co3 O6 2.013710 1_545
Co3 O6 2.013710 1_455
Co3 O10 2.066823 1_555
Co3 O1 2.076251 1_556
Co4 O14 2.003080 1_545
Co4 O14 2.003080 1_455
Co4 O7 2.005048 1_545
Co4 O7 2.005048 1_455
Co4 O11 2.051641 1_555
Co4 O2 2.058193 1_555
