# generated using pymatgen
data_CaMg6VO8
_symmetry_space_group_name_H-M   'P 1'
_cell_length_a   8.74517513
_cell_length_b   4.38532420
_cell_length_c   4.38532420
_cell_angle_alpha   90.00000000
_cell_angle_beta   90.00000000
_cell_angle_gamma   90.00000000
_symmetry_Int_Tables_number   1
_chemical_formula_structural   CaMg6VO8
_chemical_formula_sum   'Ca1 Mg6 V1 O8'
_cell_volume   168.17906056
_cell_formula_units_Z   1
loop_
 _symmetry_equiv_pos_site_id
 _symmetry_equiv_pos_as_xyz
  1  'x, y, z'
loop_
 _atom_site_type_symbol
 _atom_site_label
 _atom_site_symmetry_multiplicity
 _atom_site_fract_x
 _atom_site_fract_y
 _atom_site_fract_z
 _atom_site_occupancy
  Ca  Ca0  1  0.00000000  0.00000000  0.00000000  1
  Mg  Mg0  1  0.00000000  0.50000000  0.50000000  1
  Mg  Mg1  1  0.50000000  0.50000000  0.50000000  1
  Mg  Mg2  1  0.25546292  0.00000000  0.50000000  1
  Mg  Mg3  1  0.74453708  0.00000000  0.50000000  1
  Mg  Mg4  1  0.25546292  0.50000000  0.00000000  1
  Mg  Mg5  1  0.74453708  0.50000000  0.00000000  1
  V  V0  1  0.50000000  0.00000000  0.00000000  1
  O  O0  1  0.25870466  0.00000000  0.00000000  1
  O  O1  1  0.74129534  0.00000000  0.00000000  1
  O  O2  1  0.25145689  0.50000000  0.50000000  1
  O  O3  1  0.74854311  0.50000000  0.50000000  1
  O  O4  1  0.00000000  0.00000000  0.50000000  1
  O  O5  1  0.50000000  0.00000000  0.50000000  1
  O  O6  1  0.00000000  0.50000000  0.00000000  1
  O  O7  1  0.50000000  0.50000000  0.00000000  1
loop_
_geom_bond_atom_site_label_1
_geom_bond_atom_site_label_2
_geom_bond_distance
_geom_bond_site_symmetry_2
Ca0 O6 2.192662 1_555
Ca0 O4 2.192662 1_555
Ca0 O4 2.192662 1_554
Ca0 O6 2.192662 1_545
Ca0 O0 2.262418 1_555
Ca0 O1 2.262418 1_455
Mg0 O6 2.192662 1_556
Mg0 O6 2.192662 1_555
Mg0 O4 2.192662 1_555
Mg0 O4 2.192662 1_565
Mg0 O3 2.199035 1_455
Mg0 O2 2.199035 1_555
Mg1 O2 2.173553 1_555
Mg1 O3 2.173553 1_555
Mg1 O5 2.192662 1_555
Mg1 O5 2.192662 1_565
Mg1 O7 2.192662 1_555
Mg1 O7 2.192662 1_556
Mg2 O5 2.138520 1_555
Mg2 O0 2.192845 1_555
Mg2 O0 2.192845 1_556
Mg2 O2 2.192942 1_555
Mg2 O2 2.192942 1_545
Mg2 O4 2.234068 1_555
Mg3 O5 2.138520 1_555
Mg3 O1 2.192845 1_555
Mg3 O1 2.192845 1_556
Mg3 O3 2.192942 1_555
Mg3 O3 2.192942 1_545
Mg3 O4 2.234068 1_655
Mg4 O7 2.138520 1_555
Mg4 O0 2.192845 1_555
Mg4 O0 2.192845 1_565
Mg4 O2 2.192942 1_555
Mg4 O2 2.192942 1_554
Mg4 O6 2.234068 1_555
Mg5 O7 2.138520 1_555
Mg5 O1 2.192845 1_555
Mg5 O1 2.192845 1_565
Mg5 O3 2.192942 1_555
Mg5 O3 2.192942 1_554
Mg5 O6 2.234068 1_655
O0 V0 2.110170 1_555
O1 V0 2.110170 1_555
O5 V0 2.192662 1_556
O5 V0 2.192662 1_555
O7 V0 2.192662 1_555
O7 V0 2.192662 1_565
