# generated using pymatgen
data_Pr2Ga5Au3
_symmetry_space_group_name_H-M   'P 1'
_cell_length_a   4.38099490
_cell_length_b   4.38099490
_cell_length_c   10.54148147
_cell_angle_alpha   90.00000000
_cell_angle_beta   90.00000000
_cell_angle_gamma   90.00000000
_symmetry_Int_Tables_number   1
_chemical_formula_structural   Pr2Ga5Au3
_chemical_formula_sum   'Pr2 Ga5 Au3'
_cell_volume   202.32387997
_cell_formula_units_Z   1
loop_
 _symmetry_equiv_pos_site_id
 _symmetry_equiv_pos_as_xyz
  1  'x, y, z'
loop_
 _atom_site_type_symbol
 _atom_site_label
 _atom_site_symmetry_multiplicity
 _atom_site_fract_x
 _atom_site_fract_y
 _atom_site_fract_z
 _atom_site_occupancy
  Pr  Pr0  1  0.00000000  0.50000000  0.25132392  1
  Pr  Pr1  1  0.50000000  0.00000000  0.74867608  1
  Ga  Ga0  1  0.50000000  0.50000000  -0.00000000  1
  Ga  Ga1  1  -0.00000000  0.00000000  -0.00000000  1
  Ga  Ga2  1  0.00000000  0.50000000  0.63495691  1
  Ga  Ga3  1  0.50000000  0.00000000  0.36504309  1
  Ga  Ga4  1  -0.00000000  0.00000000  0.50000000  1
  Au  Au0  1  -0.00000000  0.50000000  0.87130408  1
  Au  Au1  1  0.50000000  -0.00000000  0.12869592  1
  Au  Au2  1  0.50000000  0.50000000  0.50000000  1
loop_
_geom_bond_atom_site_label_1
_geom_bond_atom_site_label_2
_geom_bond_distance
_geom_bond_site_symmetry_2
Ga0 Pr0 3.437617 1_655
Ga0 Pr0 3.437617 1_555
Ga0 Pr1 3.437617 1_564
Ga0 Pr1 3.437617 1_554
Ga1 Pr0 3.437617 1_545
Ga1 Pr0 3.437617 1_555
Ga1 Pr1 3.437617 1_554
Ga1 Pr1 3.437617 1_454
Ga2 Ga4 2.611934 1_555
Ga2 Ga4 2.611934 1_565
Ga2 Pr1 3.321687 1_565
Ga2 Pr1 3.321687 1_555
Ga2 Pr1 3.321687 1_465
Ga2 Pr1 3.321687 1_455
Ga3 Ga4 2.611934 1_655
Ga3 Ga4 2.611934 1_555
Ga3 Pr0 3.321687 1_545
Ga3 Pr0 3.321687 1_655
Ga3 Pr0 3.321687 1_645
Ga3 Pr0 3.321687 1_555
Ga4 Pr0 3.416152 1_555
Ga4 Pr1 3.416152 1_455
Ga4 Pr0 3.416152 1_545
Ga4 Pr1 3.416152 1_555
Au0 Ga2 2.491449 1_555
Au0 Ga1 2.576580 1_566
Au0 Ga0 2.576580 1_556
Au0 Ga1 2.576580 1_556
Au0 Ga0 2.576580 1_456
Au0 Pr1 3.356722 1_465
Au0 Pr1 3.356722 1_555
Au0 Pr1 3.356722 1_455
Au0 Pr1 3.356722 1_565
Au1 Ga3 2.491449 1_555
Au1 Ga0 2.576580 1_545
Au1 Ga1 2.576580 1_655
Au1 Ga0 2.576580 1_555
Au1 Ga1 2.576580 1_555
Au1 Pr0 3.356722 1_645
Au1 Pr0 3.356722 1_555
Au1 Pr0 3.356722 1_655
Au1 Pr0 3.356722 1_545
Au2 Ga2 2.611934 1_655
Au2 Ga2 2.611934 1_555
Au2 Ga3 2.611934 1_565
Au2 Ga3 2.611934 1_555
Au2 Pr0 3.416152 1_555
Au2 Pr0 3.416152 1_655
Au2 Pr1 3.416152 1_565
Au2 Pr1 3.416152 1_555
