# generated using pymatgen
data_Mg14NbB
_symmetry_space_group_name_H-M   'P 1'
_cell_length_a   6.23015711
_cell_length_b   6.09913182
_cell_length_c   10.02955509
_cell_angle_alpha   90.00000000
_cell_angle_beta   90.00000000
_cell_angle_gamma   119.30671595
_symmetry_Int_Tables_number   1
_chemical_formula_structural   Mg14NbB
_chemical_formula_sum   'Mg14 Nb1 B1'
_cell_volume   332.33118815
_cell_formula_units_Z   1
loop_
 _symmetry_equiv_pos_site_id
 _symmetry_equiv_pos_as_xyz
  1  'x, y, z'
loop_
 _atom_site_type_symbol
 _atom_site_label
 _atom_site_symmetry_multiplicity
 _atom_site_fract_x
 _atom_site_fract_y
 _atom_site_fract_z
 _atom_site_occupancy
  Mg  Mg0  1  0.16856633  0.33428267  0.62500000  1
  Mg  Mg1  1  0.16572620  0.83286260  0.62500000  1
  Mg  Mg2  1  0.66304591  0.32672725  0.12500000  1
  Mg  Mg3  1  0.66292308  0.33348398  0.62500000  1
  Mg  Mg4  1  0.66304591  0.83631766  0.12500000  1
  Mg  Mg5  1  0.66292308  0.82943810  0.62500000  1
  Mg  Mg6  1  0.32810230  0.16042473  0.35889464  1
  Mg  Mg7  1  0.32810230  0.16042473  0.89110536  1
  Mg  Mg8  1  0.32810230  0.66767857  0.35889464  1
  Mg  Mg9  1  0.32810230  0.66767857  0.89110536  1
  Mg  Mg10  1  0.84125512  0.17062806  0.37338984  1
  Mg  Mg11  1  0.84125512  0.17062806  0.87661016  1
  Mg  Mg12  1  0.84810861  0.67405481  0.36096003  1
  Mg  Mg13  1  0.84810861  0.67405481  0.88903997  1
  Nb  Nb0  1  0.15344205  0.32672053  0.12500000  1
  B  B0  1  0.16919078  0.83459489  0.12500000  1
loop_
_geom_bond_atom_site_label_1
_geom_bond_atom_site_label_2
_geom_bond_distance
_geom_bond_site_symmetry_2
Mg0 Mg1 3.049605 1_555
Mg0 Mg1 3.049605 1_545
Mg0 Mg5 3.082307 1_555
Mg0 Mg3 3.082308 1_555
Mg0 Mg10 3.087113 1_455
Mg0 Mg11 3.087113 1_455
Mg0 Mg5 3.147855 1_445
Mg0 Mg3 3.147855 1_455
Mg0 Mg6 3.204251 1_555
Mg0 Mg7 3.204251 1_555
Mg0 Mg8 3.204257 1_555
Mg0 Mg9 3.204257 1_555
Mg1 Mg3 3.107891 1_565
Mg1 Mg5 3.107892 1_555
Mg1 Mg3 3.122372 1_455
Mg1 Mg5 3.122372 1_455
Mg1 Mg13 3.160772 1_455
Mg1 Mg12 3.160772 1_455
Mg1 Mg8 3.187364 1_555
Mg1 Mg9 3.187364 1_555
Mg1 Mg6 3.187370 1_565
Mg1 Mg7 3.187370 1_565
Mg2 Mg7 2.968891 1_554
Mg2 Mg6 2.968891 1_555
Mg2 Mg4 2.991073 1_545
Mg2 Nb0 3.055265 1_655
Mg2 Mg4 3.108059 1_555
Mg2 Nb0 3.174892 1_555
Mg3 Mg5 3.024890 1_555
Mg3 Mg5 3.074242 1_545
Mg3 Mg6 3.230029 1_555
Mg3 Mg7 3.230029 1_555
Mg4 Mg9 2.968891 1_554
Mg4 Mg8 2.968891 1_555
Mg4 Nb0 3.055265 1_665
Mg4 Nb0 3.174892 1_555
Mg5 Mg8 3.230030 1_555
Mg5 Mg9 3.230030 1_555
Mg6 Nb0 2.965862 1_555
Mg6 Mg8 3.005324 1_545
Mg6 Mg8 3.093808 1_555
Mg7 Nb0 2.965862 1_556
Mg7 Mg9 3.005324 1_545
Mg7 Mg9 3.093808 1_555
Mg8 Nb0 2.965869 1_555
Mg9 Nb0 2.965869 1_556
Mg10 Nb0 3.013773 1_655
Mg10 Mg12 3.052340 1_545
Mg10 Mg12 3.052340 1_555
Mg10 Mg2 3.062718 1_555
Mg10 Mg4 3.062723 1_545
Mg10 Mg8 3.067523 1_655
Mg10 Mg6 3.067523 1_655
Mg10 Mg3 3.109600 1_555
Mg10 Mg5 3.109606 1_545
Mg10 Mg8 3.170361 1_545
Mg10 Mg6 3.170361 1_555
Mg11 Nb0 3.013773 1_656
Mg11 Mg13 3.052340 1_545
Mg11 Mg13 3.052340 1_555
Mg11 Mg2 3.062718 1_556
Mg11 Mg4 3.062723 1_546
Mg11 Mg9 3.067523 1_655
Mg11 Mg7 3.067523 1_655
Mg11 Mg3 3.109600 1_555
Mg11 Mg5 3.109606 1_545
Mg11 Mg9 3.170361 1_545
Mg11 Mg7 3.170361 1_555
Mg12 Mg4 3.004413 1_555
Mg12 Mg2 3.004419 1_555
Mg12 Mg6 3.009734 1_665
Mg12 Mg8 3.009734 1_655
Mg12 Mg5 3.211328 1_555
Mg12 Mg3 3.211334 1_555
Mg12 Mg6 3.220930 1_555
Mg12 Mg8 3.220930 1_555
Mg13 Mg4 3.004413 1_556
Mg13 Mg2 3.004419 1_556
Mg13 Mg7 3.009734 1_665
Mg13 Mg9 3.009734 1_655
Mg13 Mg5 3.211328 1_555
Mg13 Mg3 3.211334 1_555
Mg13 Mg7 3.220930 1_555
Mg13 Mg9 3.220930 1_555
B0 Mg9 2.916568 1_554
B0 Mg8 2.916568 1_555
B0 Mg7 2.916574 1_564
B0 Mg6 2.916574 1_565
B0 Mg12 2.939981 1_455
B0 Mg13 2.939981 1_454
B0 Nb0 3.050766 1_555
B0 Nb0 3.050766 1_565
B0 Mg2 3.071665 1_565
B0 Mg4 3.071666 1_555
