# generated using pymatgen
data_Hf2V3Ru
_symmetry_space_group_name_H-M   'P 1'
_cell_length_a   5.21955304
_cell_length_b   5.21956206
_cell_length_c   8.18409031
_cell_angle_alpha   90.00000000
_cell_angle_beta   90.00000000
_cell_angle_gamma   120.00005794
_symmetry_Int_Tables_number   1
_chemical_formula_structural   Hf2V3Ru
_chemical_formula_sum   'Hf4 V6 Ru2'
_cell_volume   193.09373013
_cell_formula_units_Z   2
loop_
 _symmetry_equiv_pos_site_id
 _symmetry_equiv_pos_as_xyz
  1  'x, y, z'
loop_
 _atom_site_type_symbol
 _atom_site_label
 _atom_site_symmetry_multiplicity
 _atom_site_fract_x
 _atom_site_fract_y
 _atom_site_fract_z
 _atom_site_occupancy
  Hf  Hf0  1  0.33333530  0.66666815  0.43941170  1
  Hf  Hf1  1  0.66666470  0.33333185  0.56058830  1
  Hf  Hf2  1  0.66666470  0.33333185  0.93941070  1
  Hf  Hf3  1  0.33333530  0.66666815  0.06058930  1
  V  V0  1  0.83005715  0.16994005  0.25000100  1
  V  V1  1  0.83005715  0.66011609  0.25000100  1
  V  V2  1  0.33988201  0.16994050  0.25000100  1
  V  V3  1  0.16994285  0.83005995  0.74999900  1
  V  V4  1  0.16994285  0.33988391  0.74999900  1
  V  V5  1  0.66011799  0.83005950  0.74999900  1
  Ru  Ru0  1  0.00000000  0.00000000  0.50000000  1
  Ru  Ru1  1  -0.00000000  -0.00000000  -0.00000000  1
loop_
_geom_bond_atom_site_label_1
_geom_bond_atom_site_label_2
_geom_bond_distance
_geom_bond_site_symmetry_2
Hf0 V5 2.939911 1_555
Hf0 V4 2.939916 1_555
Hf0 V3 2.939916 1_555
Hf0 V0 3.035573 1_565
Hf0 V1 3.035578 1_555
Hf0 V2 3.035586 1_565
Hf0 V2 3.035595 1_555
Hf0 V1 3.035597 1_455
Hf0 V0 3.035601 1_455
Hf0 Ru0 3.054023 1_665
Hf0 Ru0 3.054039 1_565
Hf0 Ru0 3.054044 1_555
Hf0 Hf3 3.100317 1_555
Hf0 Hf1 3.172490 1_565
Hf0 Hf1 3.172499 1_555
Hf0 Hf1 3.172515 1_455
Hf1 V2 2.939911 1_555
Hf1 V1 2.939916 1_555
Hf1 V0 2.939916 1_555
Hf1 V3 3.035573 1_545
Hf1 V4 3.035578 1_555
Hf1 V5 3.035586 1_545
Hf1 V5 3.035595 1_555
Hf1 V4 3.035597 1_655
Hf1 V3 3.035601 1_655
Hf1 Ru0 3.054023 1_555
Hf1 Ru0 3.054039 1_655
Hf1 Ru0 3.054044 1_665
Hf1 Hf2 3.100317 1_555
Hf2 V2 2.939933 1_556
Hf2 V1 2.939938 1_556
Hf2 V0 2.939938 1_556
Hf2 V3 3.035577 1_545
Hf2 V4 3.035582 1_555
Hf2 V5 3.035590 1_545
Hf2 V5 3.035599 1_555
Hf2 V4 3.035601 1_655
Hf2 V3 3.035605 1_655
Hf2 Ru1 3.054025 1_556
Hf2 Ru1 3.054041 1_656
Hf2 Ru1 3.054045 1_666
Hf2 Hf3 3.172495 1_546
Hf2 Hf3 3.172504 1_556
Hf2 Hf3 3.172520 1_656
Hf3 V5 2.939933 1_554
Hf3 V4 2.939938 1_554
Hf3 V3 2.939938 1_554
Hf3 V0 3.035577 1_565
Hf3 V1 3.035582 1_555
Hf3 V2 3.035590 1_565
Hf3 V2 3.035599 1_555
Hf3 V1 3.035601 1_455
Hf3 V0 3.035605 1_455
Hf3 Ru1 3.054025 1_665
Hf3 Ru1 3.054041 1_565
Hf3 Ru1 3.054045 1_555
V0 V2 2.558496 1_555
V0 V1 2.558504 1_555
V0 V2 2.661057 1_655
V0 V1 2.661058 1_545
V1 V2 2.558496 1_555
V1 V2 2.661057 1_665
V3 V5 2.558496 1_555
V3 V4 2.558504 1_555
V3 V5 2.661057 1_455
V3 V4 2.661058 1_565
V4 V5 2.558496 1_555
V4 V5 2.661057 1_445
Ru0 V5 2.558626 1_445
Ru0 V2 2.558626 1_555
Ru0 V3 2.558630 1_545
Ru0 V0 2.558630 1_455
Ru0 V4 2.558632 1_555
Ru0 V1 2.558632 1_445
Ru1 V5 2.558639 1_444
Ru1 V2 2.558639 1_555
Ru1 V0 2.558643 1_455
Ru1 V3 2.558643 1_544
Ru1 V1 2.558645 1_445
Ru1 V4 2.558645 1_554
