# generated using pymatgen
data_La3Mn2Sb3O14
_symmetry_space_group_name_H-M   'P 1'
_cell_length_a   7.63489145
_cell_length_b   12.76079484
_cell_length_c   7.63495400
_cell_angle_alpha   72.59198466
_cell_angle_beta   59.99918271
_cell_angle_gamma   72.59164770
_symmetry_Int_Tables_number   1
_chemical_formula_structural   La3Mn2Sb3O14
_chemical_formula_sum   'La6 Mn4 Sb6 O28'
_cell_volume   604.52994265
_cell_formula_units_Z   2
loop_
 _symmetry_equiv_pos_site_id
 _symmetry_equiv_pos_as_xyz
  1  'x, y, z'
loop_
 _atom_site_type_symbol
 _atom_site_label
 _atom_site_symmetry_multiplicity
 _atom_site_fract_x
 _atom_site_fract_y
 _atom_site_fract_z
 _atom_site_occupancy
  La  La0  1  0.99999200  0.00000500  0.50000500  1
  La  La1  1  0.50000200  0.50000700  0.99999400  1
  La  La2  1  0.50000100  0.99999500  0.00000300  1
  La  La3  1  0.00000600  0.50000300  0.49999100  1
  La  La4  1  0.49999000  0.99999000  0.50000300  1
  La  La5  1  0.00000700  0.50000200  0.99999300  1
  Mn  Mn0  1  0.49999900  0.50000000  0.50000200  1
  Mn  Mn1  1  0.00000000  0.99999900  0.00000000  1
  Mn  Mn2  1  0.25000000  0.25000700  0.25000100  1
  Mn  Mn3  1  0.75000200  0.74999400  0.75000100  1
  Sb  Sb0  1  0.74999800  0.75000700  0.24999500  1
  Sb  Sb1  1  0.25000400  0.24999100  0.75000300  1
  Sb  Sb2  1  0.24999400  0.75000800  0.74999900  1
  Sb  Sb3  1  0.75000400  0.24999200  0.25000000  1
  Sb  Sb4  1  0.24999800  0.75000900  0.24999800  1
  Sb  Sb5  1  0.75000200  0.24999200  0.75000600  1
  O  O0  1  0.19261200  0.42217800  0.19260700  1
  O  O1  1  0.69260400  0.92218100  0.69260700  1
  O  O2  1  0.30739600  0.07781600  0.30739500  1
  O  O3  1  0.80738800  0.57782500  0.80739000  1
  O  O4  1  0.03999300  0.27819800  0.03998800  1
  O  O5  1  0.53996800  0.77820900  0.53997700  1
  O  O6  1  0.64180500  0.27819700  0.03999300  1
  O  O7  1  0.14183400  0.77820900  0.53997200  1
  O  O8  1  0.03999700  0.27819500  0.64180600  1
  O  O9  1  0.53996900  0.77820800  0.14183900  1
  O  O10  1  0.46002800  0.22179000  0.46003000  1
  O  O11  1  0.96000900  0.72180300  0.96000900  1
  O  O12  1  0.85816700  0.22179100  0.46002700  1
  O  O13  1  0.35819200  0.72180300  0.96001000  1
  O  O14  1  0.46002700  0.22179000  0.85816800  1
  O  O15  1  0.96000600  0.72180600  0.35819200  1
  O  O16  1  0.32331500  0.58662900  0.32331700  1
  O  O17  1  0.82330900  0.08663100  0.82331000  1
  O  O18  1  0.76673400  0.58663100  0.32332100  1
  O  O19  1  0.26674200  0.08663500  0.82331600  1
  O  O20  1  0.32332600  0.58663100  0.76672600  1
  O  O21  1  0.82332000  0.08663200  0.26674400  1
  O  O22  1  0.17669400  0.91336800  0.17669100  1
  O  O23  1  0.67668500  0.41337200  0.67668400  1
  O  O24  1  0.73326000  0.91336400  0.17668300  1
  O  O25  1  0.23326800  0.41337000  0.67667700  1
  O  O26  1  0.17667900  0.91336500  0.73325900  1
  O  O27  1  0.67667600  0.41337300  0.23326900  1
loop_
_geom_bond_atom_site_label_1
_geom_bond_atom_site_label_2
_geom_bond_distance
_geom_bond_site_symmetry_2
La0 O1 2.392916 1_545
La0 O2 2.392926 1_655
La0 O17 2.558373 1_555
La0 O21 2.558380 1_555
La0 O26 2.558432 1_645
La0 O22 2.558497 1_645
La0 O12 2.693590 1_555
La0 O7 2.693723 1_645
La1 O3 2.392864 1_555
La1 O0 2.392962 1_556
La1 O20 2.558444 1_555
La1 O16 2.558456 1_556
La1 O23 2.558469 1_555
La1 O27 2.558486 1_556
La1 O13 2.693687 1_555
La1 O6 2.693840 1_556
La2 O1 2.392904 1_554
La2 O2 2.392927 1_565
La2 O22 2.558381 1_555
La2 O24 2.558411 1_555
La2 O17 2.558449 1_564
La2 O19 2.558459 1_564
La2 O9 2.693619 1_555
La2 O14 2.693709 1_564
La3 O0 2.392905 1_555
La3 O3 2.392976 1_455
La3 O16 2.558396 1_555
La3 O18 2.558434 1_455
La3 O25 2.558466 1_555
La3 O23 2.558495 1_455
La3 O15 2.693761 1_455
La3 O8 2.693836 1_555
La4 O2 2.392854 1_565
La4 O1 2.392941 1_555
La4 O26 2.558391 1_555
La4 O24 2.558461 1_555
La4 O19 2.558531 1_565
La4 O21 2.558612 1_565
La4 O5 2.693556 1_555
La4 O10 2.693813 1_565
La5 O0 2.392957 1_556
La5 O3 2.392974 1_455
La5 O20 2.558469 1_555
La5 O25 2.558472 1_555
La5 O18 2.558528 1_456
La5 O27 2.558544 1_456
La5 O11 2.693774 1_455
La5 O4 2.693813 1_556
Mn0 O20 2.212781 1_555
Mn0 O27 2.212803 1_555
Mn0 O25 2.212811 1_555
Mn0 O23 2.212839 1_555
Mn0 O18 2.212842 1_555
Mn0 O16 2.212847 1_555
Mn1 O24 2.212902 1_455
Mn1 O26 2.212903 1_554
Mn1 O21 2.212913 1_465
Mn1 O19 2.212921 1_564
Mn1 O17 2.212922 1_464
Mn1 O22 2.212944 1_555
Mn2 O0 2.061776 1_555
Mn2 O2 2.062015 1_555
Mn2 O6 2.674127 1_555
Mn2 O8 2.674137 1_555
Mn2 O4 2.674318 1_555
Mn2 O12 2.674407 1_455
Mn2 O14 2.674428 1_554
Mn2 O10 2.674486 1_555
Mn3 O3 2.061752 1_555
Mn3 O1 2.061968 1_555
Mn3 O15 2.674163 1_555
Mn3 O13 2.674164 1_555
Mn3 O11 2.674285 1_555
Mn3 O7 2.674397 1_655
Mn3 O9 2.674450 1_556
Mn3 O5 2.674498 1_555
O4 Sb1 2.045436 1_554
O4 Sb3 2.045449 1_455
O5 Sb2 2.045362 1_555
O5 Sb0 2.045429 1_555
O6 Sb5 2.045434 1_554
O6 Sb3 2.045532 1_555
O7 Sb4 2.045366 1_555
O7 Sb2 2.045463 1_555
O8 Sb5 2.045462 1_455
O8 Sb1 2.045515 1_555
O9 Sb4 2.045331 1_555
O9 Sb0 2.045446 1_555
O10 Sb1 2.045366 1_555
O10 Sb3 2.045388 1_555
O11 Sb2 2.045420 1_655
O11 Sb0 2.045431 1_556
O12 Sb5 2.045405 1_555
O12 Sb3 2.045480 1_555
O13 Sb4 2.045451 1_556
O13 Sb2 2.045555 1_555
O14 Sb5 2.045370 1_555
O14 Sb1 2.045454 1_555
O15 Sb4 2.045450 1_655
O15 Sb0 2.045529 1_555
O16 Sb4 1.972326 1_555
O17 Sb5 1.972090 1_555
O18 Sb0 1.972294 1_555
O19 Sb1 1.972049 1_555
O20 Sb2 1.972311 1_555
O21 Sb3 1.972090 1_555
O22 Sb4 1.972067 1_555
O23 Sb5 1.972328 1_555
O24 Sb0 1.972061 1_555
O25 Sb1 1.972330 1_555
O26 Sb2 1.972057 1_555
O27 Sb3 1.972356 1_555
