# generated using pymatgen
data_Mg14CrCo
_symmetry_space_group_name_H-M   'P 1'
_cell_length_a   6.22940239
_cell_length_b   6.17541983
_cell_length_c   9.78569111
_cell_angle_alpha   90.00000000
_cell_angle_beta   90.00000000
_cell_angle_gamma   119.71375531
_symmetry_Int_Tables_number   1
_chemical_formula_structural   Mg14CrCo
_chemical_formula_sum   'Mg14 Cr1 Co1'
_cell_volume   326.94934435
_cell_formula_units_Z   1
loop_
 _symmetry_equiv_pos_site_id
 _symmetry_equiv_pos_as_xyz
  1  'x, y, z'
loop_
 _atom_site_type_symbol
 _atom_site_label
 _atom_site_symmetry_multiplicity
 _atom_site_fract_x
 _atom_site_fract_y
 _atom_site_fract_z
 _atom_site_occupancy
  Mg  Mg0  1  0.16883450  0.33441675  0.62500000  1
  Mg  Mg1  1  0.17006364  0.83503132  0.62500000  1
  Mg  Mg2  1  0.67135143  0.33878682  0.12500000  1
  Mg  Mg3  1  0.66377067  0.33099640  0.62500000  1
  Mg  Mg4  1  0.67135143  0.83256362  0.12500000  1
  Mg  Mg5  1  0.66377067  0.83277327  0.62500000  1
  Mg  Mg6  1  0.32284121  0.16170368  0.35317280  1
  Mg  Mg7  1  0.32284121  0.16170368  0.89682720  1
  Mg  Mg8  1  0.32284121  0.66113853  0.35317280  1
  Mg  Mg9  1  0.32284121  0.66113853  0.89682720  1
  Mg  Mg10  1  0.84771039  0.17385570  0.36384194  1
  Mg  Mg11  1  0.84771039  0.17385570  0.88615806  1
  Mg  Mg12  1  0.84545550  0.67272825  0.36968022  1
  Mg  Mg13  1  0.84545550  0.67272825  0.88031978  1
  Cr  Cr0  1  0.15381981  0.82690940  0.12500000  1
  Co  Co0  1  0.15934122  0.32967011  0.12500000  1
loop_
_geom_bond_atom_site_label_1
_geom_bond_atom_site_label_2
_geom_bond_distance
_geom_bond_site_symmetry_2
Mg0 Mg1 3.087717 1_555
Mg0 Mg1 3.087717 1_545
Mg0 Mg11 3.090251 1_455
Mg0 Mg10 3.090251 1_455
Mg0 Mg5 3.093680 1_555
Mg0 Mg3 3.093680 1_555
Mg0 Mg5 3.135830 1_445
Mg0 Mg3 3.135830 1_455
Mg0 Mg7 3.185599 1_555
Mg0 Mg6 3.185599 1_555
Mg0 Mg9 3.185604 1_555
Mg0 Mg8 3.185604 1_555
Mg1 Mg12 3.053974 1_455
Mg1 Mg13 3.053974 1_455
Mg1 Mg3 3.082435 1_565
Mg1 Mg5 3.082435 1_555
Mg1 Mg3 3.147014 1_455
Mg1 Mg5 3.147014 1_455
Mg1 Mg9 3.185557 1_555
Mg1 Mg8 3.185557 1_555
Mg1 Mg7 3.185563 1_565
Mg1 Mg6 3.185563 1_565
Mg2 Mg6 2.922521 1_555
Mg2 Mg7 2.922521 1_554
Mg2 Mg4 3.049279 1_555
Mg2 Mg4 3.126141 1_545
Mg3 Mg5 3.076737 1_545
Mg3 Mg5 3.098683 1_555
Mg3 Mg7 3.236982 1_555
Mg3 Mg6 3.236982 1_555
Mg4 Mg8 2.922521 1_555
Mg4 Mg9 2.922521 1_554
Mg5 Mg9 3.236982 1_555
Mg5 Mg8 3.236982 1_555
Mg10 Mg2 2.969216 1_555
Mg10 Mg4 2.969223 1_545
Mg10 Mg12 3.088262 1_555
Mg10 Mg12 3.088263 1_545
Mg10 Mg3 3.144532 1_555
Mg10 Mg5 3.144538 1_545
Mg11 Mg2 2.969216 1_556
Mg11 Mg4 2.969223 1_546
Mg11 Mg13 3.088262 1_555
Mg11 Mg13 3.088263 1_545
Mg11 Mg3 3.144532 1_555
Mg11 Mg5 3.144538 1_545
Mg12 Mg4 2.990782 1_555
Mg12 Mg2 2.990788 1_555
Mg12 Mg6 3.014276 1_665
Mg12 Mg8 3.014277 1_655
Mg12 Mg5 3.099851 1_555
Mg12 Mg3 3.099857 1_555
Mg12 Mg6 3.224747 1_555
Mg12 Mg8 3.224747 1_555
Mg13 Mg4 2.990782 1_556
Mg13 Mg2 2.990788 1_556
Mg13 Mg7 3.014276 1_665
Mg13 Mg9 3.014277 1_655
Mg13 Mg5 3.099851 1_555
Mg13 Mg3 3.099857 1_555
Mg13 Mg7 3.224747 1_555
Mg13 Mg9 3.224747 1_555
Cr0 Mg8 2.865418 1_555
Cr0 Mg9 2.865418 1_554
Cr0 Mg6 2.865424 1_565
Cr0 Mg7 2.865424 1_564
Cr0 Mg13 2.918282 1_454
Cr0 Mg12 2.918282 1_455
Cr0 Mg2 3.022949 1_455
Cr0 Mg4 3.022949 1_455
Cr0 Mg2 3.206749 1_565
Cr0 Mg4 3.206749 1_555
Co0 Mg6 2.854137 1_555
Co0 Mg7 2.854137 1_554
Co0 Mg8 2.854144 1_555
Co0 Mg9 2.854144 1_554
Co0 Mg11 2.881896 1_454
Co0 Mg10 2.881896 1_455
Co0 Mg4 3.068180 1_445
Co0 Mg2 3.068180 1_455
Co0 Cr0 3.087854 1_555
Co0 Cr0 3.087854 1_545
Co0 Mg4 3.161990 1_555
Co0 Mg2 3.161990 1_555
