# generated using pymatgen
data_KLiYbF5
_symmetry_space_group_name_H-M   'P 1'
_cell_length_a   6.51643613
_cell_length_b   6.26804168
_cell_length_c   11.93272900
_cell_angle_alpha   90.00000000
_cell_angle_beta   90.00000000
_cell_angle_gamma   110.86329785
_symmetry_Int_Tables_number   1
_chemical_formula_structural   KLiYbF5
_chemical_formula_sum   'K4 Li4 Yb4 F20'
_cell_volume   455.43863603
_cell_formula_units_Z   4
loop_
 _symmetry_equiv_pos_site_id
 _symmetry_equiv_pos_as_xyz
  1  'x, y, z'
loop_
 _atom_site_type_symbol
 _atom_site_label
 _atom_site_symmetry_multiplicity
 _atom_site_fract_x
 _atom_site_fract_y
 _atom_site_fract_z
 _atom_site_occupancy
  K  K0  1  0.94657100  0.95028300  0.34416500  1
  K  K1  1  0.05342900  0.04971700  0.65583500  1
  K  K2  1  0.05342900  0.54971700  0.84416500  1
  K  K3  1  0.94657100  0.45028300  0.15583500  1
  Li  Li0  1  0.56368600  0.96014200  0.74715200  1
  Li  Li1  1  0.43631400  0.03985800  0.25284800  1
  Li  Li2  1  0.43631400  0.53985800  0.24715200  1
  Li  Li3  1  0.56368600  0.46014200  0.75284800  1
  Yb  Yb0  1  0.65561100  0.80276100  0.99329000  1
  Yb  Yb1  1  0.34438900  0.19723900  0.00671000  1
  Yb  Yb2  1  0.34438900  0.69723900  0.49329000  1
  Yb  Yb3  1  0.65561100  0.30276100  0.50671000  1
  F  F0  1  0.72396800  0.76977000  0.80021800  1
  F  F1  1  0.27603200  0.23023000  0.19978200  1
  F  F2  1  0.27603200  0.73023000  0.30021800  1
  F  F3  1  0.72396800  0.26977000  0.69978200  1
  F  F4  1  0.68498800  0.95130400  0.52767600  1
  F  F5  1  0.31501200  0.04869600  0.47232400  1
  F  F6  1  0.31501200  0.54869600  0.02767600  1
  F  F7  1  0.68498800  0.45130400  0.97232400  1
  F  F8  1  0.96070800  0.64018200  0.50808400  1
  F  F9  1  0.03929200  0.35981800  0.49191600  1
  F  F10  1  0.03929200  0.85981800  0.00808400  1
  F  F11  1  0.96070800  0.14018200  0.99191600  1
  F  F12  1  0.44693100  0.96263800  0.89228100  1
  F  F13  1  0.55306900  0.03736200  0.10771900  1
  F  F14  1  0.55306900  0.53736200  0.39228100  1
  F  F15  1  0.44693100  0.46263800  0.60771900  1
  F  F16  1  0.30257900  0.79027500  0.67297900  1
  F  F17  1  0.69742100  0.20972500  0.32702100  1
  F  F18  1  0.69742100  0.70972500  0.17297900  1
  F  F19  1  0.30257900  0.29027500  0.82702100  1
loop_
_geom_bond_atom_site_label_1
_geom_bond_atom_site_label_2
_geom_bond_distance
_geom_bond_site_symmetry_2
F0 Li3 1.932135 1_555
F0 Li0 1.950251 1_555
F0 Yb0 2.369522 1_555
F0 K1 2.823700 1_665
F0 K2 2.982605 1_655
F1 Li2 1.932135 1_555
F1 Li1 1.950251 1_555
F1 Yb1 2.369522 1_555
F1 K0 2.823700 1_445
F1 K3 2.982605 1_455
F2 Li1 1.932135 1_565
F2 Li2 1.950251 1_555
F2 Yb2 2.369522 1_555
F2 K3 2.823700 1_455
F2 K0 2.982605 1_455
F3 Li0 1.932135 1_545
F3 Li3 1.950251 1_555
F3 Yb3 2.369522 1_555
F3 K2 2.823700 1_655
F3 K1 2.982605 1_655
F4 Yb2 2.261187 1_555
F4 Yb3 2.291854 1_565
F4 K1 2.725574 1_665
F4 K0 2.776437 1_555
F5 Yb3 2.261187 1_555
F5 Yb2 2.291854 1_545
F5 K0 2.725574 1_445
F5 K1 2.776437 1_555
F6 Yb0 2.261187 1_554
F6 Yb1 2.291854 1_555
F6 K3 2.725574 1_455
F6 K2 2.776437 1_554
F7 Yb1 2.261187 1_556
F7 Yb0 2.291854 1_555
F7 K2 2.725574 1_655
F7 K3 2.776437 1_556
F8 Yb3 2.330460 1_555
F8 Yb2 2.402776 1_655
F8 K0 2.782093 1_555
F8 K1 2.993017 1_665
F9 Yb2 2.330460 1_555
F9 Yb3 2.402776 1_455
F9 K1 2.782093 1_555
F9 K0 2.993017 1_445
F10 Yb1 2.330460 1_565
F10 Yb0 2.402776 1_454
F10 K2 2.782093 1_554
F10 K3 2.993017 1_455
F11 Yb0 2.330460 1_545
F11 Yb1 2.402776 1_656
F11 K3 2.782093 1_556
F11 K2 2.993017 1_655
F12 Li0 1.893848 1_555
F12 Yb1 2.274461 1_566
F12 Yb0 2.297139 1_555
F12 K2 2.979349 1_555
F13 Li1 1.893848 1_555
F13 Yb0 2.274461 1_544
F13 Yb1 2.297139 1_555
F13 K3 2.979349 1_555
F14 Li2 1.893848 1_555
F14 Yb3 2.274461 1_555
F14 Yb2 2.297139 1_555
F14 K0 2.979349 1_555
F15 Li3 1.893848 1_555
F15 Yb2 2.274461 1_555
F15 Yb3 2.297139 1_555
F15 K1 2.979349 1_555
F16 Li0 1.876621 1_555
F16 Yb2 2.263841 1_555
F16 K1 2.683826 1_565
F16 K2 2.708968 1_555
F17 Li1 1.876621 1_555
F17 Yb3 2.263841 1_555
F17 K0 2.683826 1_545
F17 K3 2.708968 1_555
F18 Li2 1.876621 1_555
F18 Yb0 2.263841 1_554
F18 K3 2.683826 1_555
F18 K0 2.708968 1_555
F19 Li3 1.876621 1_555
F19 Yb1 2.263841 1_556
F19 K2 2.683826 1_555
F19 K1 2.708968 1_555
