# generated using pymatgen
data_Pr(TiAl10)2
_symmetry_space_group_name_H-M   'P 1'
_cell_length_a   10.33422996
_cell_length_b   10.33422548
_cell_length_c   10.33421866
_cell_angle_alpha   59.99988289
_cell_angle_beta   59.99989061
_cell_angle_gamma   59.99991007
_symmetry_Int_Tables_number   1
_chemical_formula_structural   Pr(TiAl10)2
_chemical_formula_sum   'Pr2 Ti4 Al40'
_cell_volume   780.40072544
_cell_formula_units_Z   2
loop_
 _symmetry_equiv_pos_site_id
 _symmetry_equiv_pos_as_xyz
  1  'x, y, z'
loop_
 _atom_site_type_symbol
 _atom_site_label
 _atom_site_symmetry_multiplicity
 _atom_site_fract_x
 _atom_site_fract_y
 _atom_site_fract_z
 _atom_site_occupancy
  Pr  Pr0  1  0.50001486  0.50000504  0.49998920  1
  Pr  Pr1  1  0.75001367  0.75000474  0.74998451  1
  Ti  Ti0  1  0.62499256  0.12498301  0.12502005  1
  Ti  Ti1  1  0.12498472  0.62497694  0.12501874  1
  Ti  Ti2  1  0.12499584  0.12501317  0.62495590  1
  Ti  Ti3  1  0.12498942  0.12499849  0.12503388  1
  Al  Al0  1  0.86192068  0.86191852  0.13808096  1
  Al  Al1  1  0.13807628  0.13808034  0.86191969  1
  Al  Al2  1  0.86192113  0.13807849  0.86191840  1
  Al  Al3  1  0.13807488  0.86192029  0.13808355  1
  Al  Al4  1  0.13807527  0.86192521  0.86191774  1
  Al  Al5  1  0.86192009  0.13807795  0.13808286  1
  Al  Al6  1  0.38812199  0.38812109  0.11188088  1
  Al  Al7  1  0.11187385  0.11187880  0.38812963  1
  Al  Al8  1  0.38811867  0.11187648  0.38812665  1
  Al  Al9  1  0.11187233  0.38812402  0.11188386  1
  Al  Al10  1  0.11187223  0.38812280  0.38812612  1
  Al  Al11  1  0.38812383  0.11187553  0.11188231  1
  Al  Al12  1  0.56919841  0.29898591  0.29898866  1
  Al  Al13  1  0.29898803  0.56920159  0.83282270  1
  Al  Al14  1  0.29898729  0.83283066  0.56919403  1
  Al  Al15  1  0.83282998  0.29898688  0.29899174  1
  Al  Al16  1  0.29898506  0.29898844  0.56919402  1
  Al  Al17  1  0.56919971  0.83282510  0.29899051  1
  Al  Al18  1  0.83282974  0.56919764  0.29898992  1
  Al  Al19  1  0.29898809  0.29899061  0.83282549  1
  Al  Al20  1  0.29898313  0.56919826  0.29899011  1
  Al  Al21  1  0.83283459  0.29898716  0.56919465  1
  Al  Al22  1  0.56920376  0.29898852  0.83282310  1
  Al  Al23  1  0.29898644  0.83282742  0.29899300  1
  Al  Al24  1  0.68071843  0.95104566  0.95104566  1
  Al  Al25  1  0.95104711  0.68071255  0.41718840  1
  Al  Al26  1  0.95104876  0.41718995  0.68070750  1
  Al  Al27  1  0.41719462  0.95104608  0.95104726  1
  Al  Al28  1  0.95104813  0.95105024  0.68071064  1
  Al  Al29  1  0.68071577  0.41718980  0.95104595  1
  Al  Al30  1  0.41719289  0.68071390  0.95104561  1
  Al  Al31  1  0.95104706  0.95104918  0.41719335  1
  Al  Al32  1  0.95104445  0.68071712  0.95104642  1
  Al  Al33  1  0.41719284  0.95104834  0.68070844  1
  Al  Al34  1  0.68071580  0.95104619  0.41719007  1
  Al  Al35  1  0.95104594  0.41719297  0.95104853  1
  Al  Al36  1  0.12500461  0.62500365  0.62499499  1
  Al  Al37  1  0.62500460  0.12500704  0.62499392  1
  Al  Al38  1  0.62500059  0.62499859  0.12500887  1
  Al  Al39  1  0.62500184  0.62499865  0.62499255  1
loop_
_geom_bond_atom_site_label_1
_geom_bond_atom_site_label_2
_geom_bond_distance
_geom_bond_site_symmetry_2
Al0 Ti0 2.590565 1_565
Al0 Ti1 2.590625 1_655
Al0 Al18 2.717655 1_555
Al0 Al17 2.717666 1_555
Al0 Al3 2.853864 1_655
Al0 Al4 2.853883 1_654
Al0 Al5 2.853901 1_565
Al0 Al2 2.853907 1_564
Al0 Al25 2.864455 1_555
Al0 Al34 2.864477 1_555
Al0 Al32 2.864487 1_554
Al0 Al24 2.864489 1_554
Al1 Ti3 2.590929 1_556
Al1 Ti2 2.590999 1_555
Al1 Al16 2.717696 1_555
Al1 Al19 2.717734 1_555
Al1 Al4 2.853865 1_545
Al1 Al2 2.853867 1_455
Al1 Al5 2.853891 1_456
Al1 Al3 2.853914 1_546
Al1 Al26 2.864492 1_455
Al1 Al35 2.864514 1_455
Al1 Al33 2.864536 1_545
Al1 Al27 2.864558 1_545
Al2 Ti0 2.590777 1_556
Al2 Ti2 2.590781 1_655
Al2 Al22 2.717642 1_555
Al2 Al21 2.717662 1_555
Al2 Al4 2.853831 1_645
Al2 Al5 2.853936 1_556
Al2 Al24 2.864472 1_545
Al2 Al28 2.864475 1_545
Al2 Al29 2.864497 1_555
Al2 Al26 2.864497 1_555
Al3 Ti3 2.590715 1_565
Al3 Ti1 2.590831 1_555
Al3 Al5 2.853857 1_465
Al3 Al4 2.853930 1_554
Al3 Al31 2.864488 1_455
Al3 Al30 2.864547 1_554
Al4 Ti2 2.590852 1_565
Al4 Ti1 2.590863 1_556
Al5 Ti3 2.590655 1_655
Al5 Ti0 2.590685 1_555
Al6 Ti1 2.590646 1_555
Al6 Ti0 2.590719 1_555
Al6 Al8 2.854774 1_555
Al6 Al9 2.854797 1_555
Al7 Ti2 2.590200 1_555
Al7 Ti3 2.590432 1_555
Al7 Al8 2.854750 1_555
Al7 Al9 2.854777 1_555
Al8 Ti2 2.590440 1_555
Al8 Ti0 2.590553 1_555
Al9 Ti1 2.590425 1_555
Al9 Ti3 2.590594 1_555
Al10 Ti2 2.590366 1_555
Al10 Ti1 2.590465 1_555
Al10 Al26 2.716321 1_455
Al10 Al25 2.716380 1_455
Al10 Al9 2.854741 1_555
Al10 Al7 2.854741 1_555
Al10 Al8 2.854789 1_555
Al10 Al6 2.854799 1_555
Al10 Al21 2.863914 1_455
Al10 Al18 2.863958 1_455
Al10 Al16 2.863985 1_555
Al10 Al20 2.864028 1_555
Al11 Ti0 2.590577 1_555
Al11 Ti3 2.590652 1_555
Al11 Al27 2.716449 1_544
Al11 Al24 2.716458 1_544
Al11 Al8 2.854748 1_555
Al11 Al6 2.854767 1_555
Al11 Al7 2.854811 1_555
Al11 Al9 2.854826 1_555
Al11 Al17 2.864011 1_545
Al11 Al23 2.864012 1_545
Al11 Al19 2.864078 1_554
Al11 Al22 2.864087 1_554
Al12 Al5 2.717666 1_555
Al12 Al15 2.724450 1_555
Al12 Al16 2.792399 1_555
Al12 Al20 2.792447 1_555
Al12 Ti0 2.820909 1_555
Al12 Al6 2.864011 1_555
Al12 Al8 2.864044 1_555
Al12 Al34 2.936134 1_545
Al12 Al29 2.936157 1_554
Al12 Al37 3.124768 1_555
Al12 Al38 3.124819 1_555
Al12 Pr0 3.238227 1_555
Al13 Al4 2.717695 1_555
Al13 Al14 2.724394 1_555
Al13 Al19 2.792406 1_555
Al13 Al22 2.792453 1_555
Al13 Ti1 2.820988 1_556
Al13 Al6 2.864080 1_556
Al13 Al9 2.864096 1_556
Al13 Al30 2.936144 1_555
Al13 Al32 2.936169 1_455
Al13 Al36 3.124787 1_555
Al13 Al39 3.124806 1_555
Al13 Pr0 3.238257 1_555
Al14 Al4 2.717692 1_555
Al14 Al23 2.792338 1_555
Al14 Al17 2.792385 1_555
Al14 Ti2 2.820812 1_565
Al14 Al8 2.863962 1_565
Al14 Al7 2.863973 1_565
Al14 Al33 2.936123 1_555
Al14 Al28 2.936131 1_455
Al14 Al36 3.124780 1_555
Al14 Al39 3.124820 1_555
Al14 Pr0 3.238227 1_555
Al15 Al5 2.717716 1_555
Al15 Al21 2.792361 1_555
Al15 Al18 2.792408 1_555
Al15 Ti3 2.820716 1_655
Al15 Al9 2.863962 1_655
Al15 Al7 2.863979 1_655
Al15 Al31 2.936117 1_545
Al15 Al35 2.936161 1_554
Al15 Al37 3.124724 1_555
Al15 Al38 3.124800 1_555
Al15 Pr0 3.238114 1_555
Al16 Al19 2.724452 1_555
Al16 Al20 2.792373 1_555
Al16 Ti2 2.820993 1_555
Al16 Al8 2.863975 1_555
Al16 Al26 2.936107 1_455
Al16 Al33 2.936138 1_545
Al16 Al36 3.124837 1_555
Al16 Al37 3.124872 1_555
Al16 Pr0 3.238371 1_555
Al17 Al18 2.724396 1_555
Al17 Al23 2.792421 1_555
Al17 Ti0 2.820729 1_565
Al17 Al8 2.864034 1_565
Al17 Al34 2.936115 1_555
Al17 Al24 2.936175 1_554
Al17 Al39 3.124721 1_555
Al17 Al38 3.124766 1_555
Al17 Pr0 3.238088 1_555
Al18 Al21 2.792380 1_555
Al18 Ti1 2.820645 1_655
Al18 Al9 2.863962 1_655
Al18 Al25 2.936065 1_555
Al18 Al32 2.936164 1_554
Al18 Al39 3.124722 1_555
Al18 Al38 3.124785 1_555
Al18 Pr0 3.238078 1_555
Al19 Al22 2.792448 1_555
Al19 Ti3 2.821126 1_556
Al19 Al9 2.864079 1_556
Al19 Al35 2.936157 1_455
Al19 Al27 2.936175 1_545
Al19 Al36 3.124813 1_555
Al19 Al37 3.124835 1_555
Al19 Pr0 3.238318 1_555
Al20 Al3 2.717671 1_555
Al20 Al23 2.724435 1_555
Al20 Ti1 2.820964 1_555
Al20 Al6 2.864016 1_555
Al20 Al25 2.936105 1_455
Al20 Al30 2.936173 1_554
Al20 Al36 3.124762 1_555
Al20 Al38 3.124855 1_555
Al20 Pr0 3.238284 1_555
Al21 Al22 2.724403 1_555
Al21 Ti2 2.820623 1_655
Al21 Al7 2.863918 1_655
Al21 Al26 2.936057 1_555
Al21 Al28 2.936111 1_545
Al21 Al39 3.124791 1_555
Al21 Al37 3.124793 1_555
Al21 Pr0 3.238179 1_555
Al22 Ti0 2.821054 1_556
Al22 Al6 2.864069 1_556
Al22 Al29 2.936111 1_555
Al22 Al24 2.936161 1_545
Al22 Al39 3.124778 1_555
Al22 Al37 3.124789 1_555
Al22 Pr0 3.238226 1_555
Al23 Al3 2.717731 1_555
Al23 Ti3 2.820810 1_565
Al23 Al7 2.864037 1_565
Al23 Al31 2.936133 1_455
Al23 Al27 2.936183 1_554
Al23 Al36 3.124724 1_555
Al23 Al38 3.124814 1_555
Al23 Pr0 3.238185 1_555
Al24 Al27 2.723305 1_555
Al24 Al32 2.793620 1_555
Al24 Al28 2.793671 1_555
Al24 Ti0 2.820687 1_566
Al24 Al38 3.124763 1_556
Al24 Al37 3.124786 1_565
Al24 Pr1 3.238467 1_555
Al25 Al26 2.723278 1_555
Al25 Al34 2.793674 1_555
Al25 Al31 2.793745 1_555
Al25 Ti1 2.820582 1_655
Al25 Al3 2.864453 1_655
Al25 Al39 3.124734 1_555
Al25 Al36 3.124803 1_655
Al25 Pr1 3.238354 1_555
Al26 Al29 2.793705 1_555
Al26 Al35 2.793764 1_555
Al26 Ti2 2.820717 1_655
Al26 Al39 3.124755 1_555
Al26 Al36 3.124838 1_655
Al26 Pr1 3.238453 1_555
Al27 Al30 2.793691 1_555
Al27 Al33 2.793738 1_555
Al27 Ti3 2.820889 1_566
Al27 Al3 2.864561 1_556
Al27 Al38 3.124776 1_556
Al27 Al37 3.124817 1_565
Al27 Pr1 3.238525 1_555
Al28 Al7 2.716340 1_665
Al28 Al31 2.723256 1_555
Al28 Al32 2.793691 1_555
Al28 Ti2 2.820550 1_665
Al28 Al4 2.864467 1_655
Al28 Al37 3.124731 1_565
Al28 Al36 3.124753 1_655
Al28 Pr1 3.238367 1_555
Al29 Al6 2.716440 1_556
Al29 Al30 2.723308 1_555
Al29 Al35 2.793684 1_555
Al29 Ti0 2.820857 1_556
Al29 Al5 2.864509 1_556
Al29 Al39 3.124803 1_555
Al29 Al38 3.124840 1_556
Al29 Pr1 3.238547 1_555
Al30 Al6 2.716438 1_556
Al30 Al33 2.793705 1_555
Al30 Ti1 2.820931 1_556
Al30 Al4 2.864553 1_555
Al30 Al39 3.124806 1_555
Al30 Al38 3.124833 1_556
Al30 Pr1 3.238568 1_555
Al31 Al7 2.716415 1_665
Al31 Al34 2.793698 1_555
Al31 Ti3 2.820476 1_665
Al31 Al5 2.864484 1_565
Al31 Al37 3.124714 1_565
Al31 Al36 3.124731 1_655
Al31 Pr1 3.238285 1_555
Al32 Al9 2.716445 1_656
Al32 Al35 2.723299 1_555
Al32 Ti1 2.820631 1_656
Al32 Al4 2.864496 1_655
Al32 Al38 3.124738 1_556
Al32 Al36 3.124783 1_655
Al32 Pr1 3.238418 1_555
Al33 Al8 2.716351 1_565
Al33 Al34 2.723277 1_555
Al33 Ti2 2.820900 1_565
Al33 Al4 2.864528 1_555
Al33 Al39 3.124782 1_555
Al33 Al37 3.124836 1_565
Al33 Pr1 3.238503 1_555
Al34 Al8 2.716451 1_565
Al34 Ti0 2.820532 1_565
Al34 Al5 2.864465 1_565
Al34 Al39 3.124751 1_555
Al34 Al37 3.124795 1_565
Al34 Pr1 3.238365 1_555
Al35 Al9 2.716435 1_656
Al35 Ti3 2.820796 1_656
Al35 Al5 2.864519 1_556
Al35 Al38 3.124760 1_556
Al35 Al36 3.124812 1_655
Al35 Pr1 3.238458 1_555
Al36 Pr1 3.164119 1_455
Al36 Pr0 3.164281 1_555
Al37 Pr0 3.164176 1_555
Al37 Pr1 3.164213 1_545
Al38 Pr0 3.164025 1_555
Al38 Pr1 3.164396 1_554
Al39 Pr0 3.164064 1_555
Al39 Pr1 3.164283 1_555
