# generated using pymatgen
data_Zn2Mo2O5
_symmetry_space_group_name_H-M   'P 1'
_cell_length_a   3.38614000
_cell_length_b   5.17007600
_cell_length_c   14.91899400
_cell_angle_alpha   90.00000000
_cell_angle_beta   90.00000000
_cell_angle_gamma   90.00000000
_symmetry_Int_Tables_number   1
_chemical_formula_structural   Zn2Mo2O5
_chemical_formula_sum   'Zn4 Mo4 O10'
_cell_volume   261.18087747
_cell_formula_units_Z   2
loop_
 _symmetry_equiv_pos_site_id
 _symmetry_equiv_pos_as_xyz
  1  'x, y, z'
loop_
 _atom_site_type_symbol
 _atom_site_label
 _atom_site_symmetry_multiplicity
 _atom_site_fract_x
 _atom_site_fract_y
 _atom_site_fract_z
 _atom_site_occupancy
  Zn  Zn0  1  0.50000000  0.98556600  0.81382800  1
  Zn  Zn1  1  0.50000000  0.51865400  0.19645800  1
  Zn  Zn2  1  0.50000000  0.48134600  0.69645800  1
  Zn  Zn3  1  0.50000000  0.01443400  0.31382800  1
  Mo  Mo0  1  0.00000000  0.98681400  0.59659700  1
  Mo  Mo1  1  0.00000000  0.50916300  0.40729000  1
  Mo  Mo2  1  0.00000000  0.01318600  0.09659700  1
  Mo  Mo3  1  0.00000000  0.49083700  0.90729000  1
  O  O0  1  0.00000000  0.19819000  0.49817800  1
  O  O1  1  0.00000000  0.85584200  0.33772500  1
  O  O2  1  0.00000000  0.37703900  0.14896200  1
  O  O3  1  0.00000000  0.14415800  0.83772500  1
  O  O4  1  0.50000000  0.91868100  0.17322700  1
  O  O5  1  0.50000000  0.60175100  0.82775200  1
  O  O6  1  0.00000000  0.62296100  0.64896200  1
  O  O7  1  0.50000000  0.08131900  0.67322700  1
  O  O8  1  0.00000000  0.80181000  0.99817800  1
  O  O9  1  0.50000000  0.39824900  0.32775200  1
loop_
_geom_bond_atom_site_label_1
_geom_bond_atom_site_label_2
_geom_bond_distance
_geom_bond_site_symmetry_2
Mo0 O0 1.830360 1_565
Mo0 O6 2.036920 1_555
Mo0 O7 2.100528 1_465
Mo0 O7 2.100528 1_565
Mo1 O1 2.071148 1_555
Mo1 O0 2.103210 1_555
Mo1 O9 2.145553 1_555
Mo1 O9 2.145553 1_455
Mo2 O8 1.830360 1_544
Mo2 O2 2.036920 1_555
Mo2 O4 2.100528 1_545
Mo2 O4 2.100528 1_445
Mo3 O3 2.071148 1_555
Mo3 O8 2.103210 1_555
Mo3 O5 2.145553 1_455
Mo3 O5 2.145553 1_555
O1 Zn3 1.914649 1_465
O1 Zn3 1.914649 1_565
O2 Zn1 1.976018 1_555
O2 Zn1 1.976018 1_455
O3 Zn0 1.914649 1_545
O3 Zn0 1.914649 1_445
O4 Zn1 2.097009 1_555
O4 Zn3 2.155251 1_565
O5 Zn0 1.995196 1_555
O5 Zn2 2.055312 1_555
O6 Zn2 1.976018 1_455
O6 Zn2 1.976018 1_555
O7 Zn2 2.097009 1_555
O7 Zn0 2.155251 1_545
O9 Zn3 1.995196 1_555
O9 Zn1 2.055312 1_555
