# generated using pymatgen
data_Mg7Si4
_symmetry_space_group_name_H-M   'P 1'
_cell_length_a   5.27026600
_cell_length_b   6.10218830
_cell_length_c   14.17669465
_cell_angle_alpha   96.39052134
_cell_angle_beta   94.41254066
_cell_angle_gamma   100.99763342
_symmetry_Int_Tables_number   1
_chemical_formula_structural   Mg7Si4
_chemical_formula_sum   'Mg14 Si8'
_cell_volume   442.51293704
_cell_formula_units_Z   2
loop_
 _symmetry_equiv_pos_site_id
 _symmetry_equiv_pos_as_xyz
  1  'x, y, z'
loop_
 _atom_site_type_symbol
 _atom_site_label
 _atom_site_symmetry_multiplicity
 _atom_site_fract_x
 _atom_site_fract_y
 _atom_site_fract_z
 _atom_site_occupancy
  Mg  Mg0  1  0.43373400  0.28207200  0.10106400  1
  Mg  Mg1  1  0.76661000  0.07083500  0.35673600  1
  Mg  Mg2  1  0.18537100  0.48999800  0.47784300  1
  Mg  Mg3  1  0.30619400  0.22534900  0.30106500  1
  Mg  Mg4  1  0.48745300  0.80123500  0.13637100  1
  Mg  Mg5  1  0.20361400  0.74831800  0.69188500  1
  Mg  Mg6  1  0.15770400  0.24201900  0.68169800  1
  Mg  Mg7  1  0.19611400  0.97858600  0.48009800  1
  Mg  Mg8  1  0.95609800  0.45285900  0.03407400  1
  Mg  Mg9  1  0.95502600  0.93160200  0.01386300  1
  Mg  Mg10  1  0.47367300  0.51688700  0.91436400  1
  Mg  Mg11  1  0.43733200  0.00560600  0.89757000  1
  Mg  Mg12  1  0.69682200  0.82396800  0.57126000  1
  Mg  Mg13  1  0.67697500  0.32123400  0.55085900  1
  Si  Si0  1  0.99363900  0.61603000  0.85955800  1
  Si  Si1  1  0.89531700  0.19513800  0.17991300  1
  Si  Si2  1  0.32654100  0.75463800  0.31602200  1
  Si  Si3  1  0.63592900  0.12098800  0.72815500  1
  Si  Si4  1  0.98963000  0.19866200  0.86336200  1
  Si  Si5  1  0.89923000  0.60132000  0.22929700  1
  Si  Si6  1  0.68402600  0.57933900  0.38499100  1
  Si  Si7  1  0.64654700  0.53966700  0.72632400  1
loop_
_geom_bond_atom_site_label_1
_geom_bond_atom_site_label_2
_geom_bond_distance
_geom_bond_site_symmetry_2
Mg0 Si1 2.766721 1_555
Mg0 Mg3 3.005630 1_555
Mg0 Mg8 3.015794 1_555
Mg0 Mg8 3.029538 1_455
Mg0 Mg9 3.056148 1_445
Mg0 Mg4 3.092256 1_545
Mg0 Si1 3.103009 1_455
Mg0 Mg4 3.106461 1_555
Mg0 Si5 3.133766 1_555
Mg0 Mg10 3.149264 1_554
Mg0 Mg11 3.179022 1_554
Mg1 Si2 2.697010 1_545
Mg1 Si1 2.794273 1_555
Mg1 Si6 3.023459 1_545
Mg1 Si6 3.200599 1_555
Mg2 Si2 3.008844 1_555
Mg2 Si6 3.013634 1_555
Mg2 Si6 3.030751 1_455
Mg3 Si1 2.622578 1_455
Mg3 Si6 2.732957 1_555
Mg3 Si2 2.925159 1_545
Mg3 Si2 3.193761 1_555
Mg4 Si2 2.772738 1_555
Mg4 Si1 2.876359 1_565
Mg4 Si5 2.976792 1_555
Mg5 Si0 2.831557 1_455
Mg5 Si3 2.865251 1_565
Mg5 Si7 2.899274 1_555
Mg5 Si7 3.067845 1_455
Mg6 Si3 2.809727 1_555
Mg6 Si4 2.810798 1_455
Mg6 Si7 2.836324 1_555
Mg6 Si3 2.855384 1_455
Mg7 Si2 2.765388 1_555
Mg8 Si1 2.735692 1_555
Mg8 Si4 2.762080 1_554
Mg8 Si0 2.774901 1_554
Mg8 Si5 2.871121 1_555
Mg9 Si1 2.773267 1_565
Mg9 Si0 2.795575 1_554
Mg9 Si4 2.821666 1_564
Mg10 Si0 2.785007 1_455
Mg10 Si0 2.877321 1_555
Mg10 Si4 2.883574 1_455
Mg10 Si7 2.892010 1_555
Mg11 Si3 2.800301 1_555
Mg11 Si4 2.863904 1_455
Mg11 Si0 2.968129 1_445
Mg11 Si4 3.021854 1_555
Mg12 Si3 2.787415 1_565
Mg12 Si6 2.874505 1_555
Mg12 Si7 2.945446 1_555
Mg13 Si7 2.719367 1_555
Mg13 Si3 2.919586 1_555
Mg13 Si6 2.971018 1_555
Si0 Si7 2.465396 1_555
Si0 Si4 2.549522 1_555
Si1 Si5 2.495197 1_555
Si2 Si5 2.443892 1_455
Si2 Si6 2.523529 1_555
Si3 Si4 2.506879 1_555
Si3 Si7 2.547851 1_555
Si5 Si6 2.563061 1_555
