# generated using pymatgen
data_KSrPrWO6
_symmetry_space_group_name_H-M   'P 1'
_cell_length_a   8.52683299
_cell_length_b   8.54509090
_cell_length_c   8.52652117
_cell_angle_alpha   90.00000000
_cell_angle_beta   90.00000000
_cell_angle_gamma   90.00000000
_symmetry_Int_Tables_number   1
_chemical_formula_structural   KSrPrWO6
_chemical_formula_sum   'K4 Sr4 Pr4 W4 O24'
_cell_volume   621.26418582
_cell_formula_units_Z   4
loop_
 _symmetry_equiv_pos_site_id
 _symmetry_equiv_pos_as_xyz
  1  'x, y, z'
loop_
 _atom_site_type_symbol
 _atom_site_label
 _atom_site_symmetry_multiplicity
 _atom_site_fract_x
 _atom_site_fract_y
 _atom_site_fract_z
 _atom_site_occupancy
  K  K0  1  0.50000000  -0.00000000  0.50000000  1
  K  K1  1  0.50000000  0.50000000  0.00000000  1
  K  K2  1  -0.00000000  0.50000000  0.00000000  1
  K  K3  1  -0.00000000  0.00000000  0.50000000  1
  Sr  Sr0  1  -0.00000000  0.50000000  0.50000000  1
  Sr  Sr1  1  0.50000000  -0.00000000  0.00000000  1
  Sr  Sr2  1  -0.00000000  -0.00000000  0.00000000  1
  Sr  Sr3  1  0.50000000  0.50000000  0.50000000  1
  Pr  Pr0  1  0.75000000  0.75000000  0.75000000  1
  Pr  Pr1  1  0.25000000  0.25000000  0.75000000  1
  Pr  Pr2  1  0.25000000  0.75000000  0.25000000  1
  Pr  Pr3  1  0.75000000  0.25000000  0.25000000  1
  W  W0  1  0.25000000  0.25000000  0.25000000  1
  W  W1  1  0.75000000  0.75000000  0.25000000  1
  W  W2  1  0.75000000  0.25000000  0.75000000  1
  W  W3  1  0.25000000  0.75000000  0.75000000  1
  O  O0  1  0.02439794  0.21975100  0.27500003  1
  O  O1  1  0.97560206  0.78024900  0.27500003  1
  O  O2  1  0.97560206  0.21975100  0.72499997  1
  O  O3  1  0.02439794  0.78024900  0.72499997  1
  O  O4  1  0.27740540  0.02344502  0.20908765  1
  O  O5  1  0.27740540  0.97655498  0.79091235  1
  O  O6  1  0.72259460  0.97655498  0.20908765  1
  O  O7  1  0.72259460  0.02344502  0.79091235  1
  O  O8  1  0.21819940  0.27003763  0.02459478  1
  O  O9  1  0.78180060  0.27003763  0.97540522  1
  O  O10  1  0.21819940  0.72996237  0.97540522  1
  O  O11  1  0.78180060  0.72996237  0.02459478  1
  O  O12  1  0.47560206  0.28024900  0.22499997  1
  O  O13  1  0.52439794  0.71975100  0.22499997  1
  O  O14  1  0.52439794  0.28024900  0.77500003  1
  O  O15  1  0.47560206  0.71975100  0.77500003  1
  O  O16  1  0.22259460  0.47655498  0.29091235  1
  O  O17  1  0.22259460  0.52344502  0.70908765  1
  O  O18  1  0.77740540  0.52344502  0.29091235  1
  O  O19  1  0.77740540  0.47655498  0.70908765  1
  O  O20  1  0.28180060  0.22996237  0.47540522  1
  O  O21  1  0.71819940  0.22996237  0.52459478  1
  O  O22  1  0.28180060  0.77003763  0.52459478  1
  O  O23  1  0.71819940  0.77003763  0.47540522  1
loop_
_geom_bond_atom_site_label_1
_geom_bond_atom_site_label_2
_geom_bond_distance
_geom_bond_site_symmetry_2
K0 O23 2.714230 1_545
K0 O21 2.714230 1_555
K0 O20 2.714230 1_555
K0 O22 2.714230 1_545
K0 O7 3.129756 1_555
K0 O6 3.129756 1_545
K0 O4 3.129756 1_555
K0 O5 3.129756 1_545
K1 O15 2.692564 1_554
K1 O13 2.692564 1_555
K1 O14 2.692564 1_554
K1 O12 2.692564 1_555
K1 O11 3.111136 1_555
K1 O9 3.111136 1_554
K1 O10 3.111136 1_554
K1 O8 3.111136 1_555
K2 O10 2.714230 1_554
K2 O8 2.714230 1_555
K2 O9 2.714230 1_454
K2 O11 2.714230 1_455
K2 O17 3.129756 1_554
K2 O16 3.129756 1_555
K2 O19 3.129756 1_454
K2 O18 3.129756 1_455
K3 O0 2.692564 1_555
K3 O3 2.692564 1_545
K3 O1 2.692564 1_445
K3 O2 2.692564 1_455
K3 O20 3.111136 1_555
K3 O22 3.111136 1_545
K3 O23 3.111136 1_445
K3 O21 3.111136 1_455
O0 W0 1.952629 1_555
O0 Pr3 2.363611 1_455
O0 Sr2 3.011219 1_555
O0 Sr0 3.075490 1_555
O1 W1 1.952629 1_555
O1 Pr2 2.363611 1_655
O1 Sr2 3.011219 1_665
O1 Sr0 3.075490 1_655
O2 W2 1.952629 1_555
O2 Pr1 2.363611 1_655
O2 Sr2 3.011219 1_656
O2 Sr0 3.075490 1_655
O3 W3 1.952629 1_555
O3 Pr0 2.363611 1_455
O3 Sr2 3.011219 1_566
O3 Sr0 3.075490 1_555
O4 W0 1.980942 1_555
O4 Pr2 2.374038 1_545
O4 Sr1 2.611701 1_555
O4 Sr2 2.968761 1_555
O5 W3 1.980942 1_555
O5 Pr1 2.374038 1_565
O5 Sr1 2.611701 1_566
O5 Sr2 2.968761 1_566
O6 W1 1.980942 1_555
O6 Pr3 2.374038 1_565
O6 Sr1 2.611701 1_565
O6 Sr2 2.968761 1_665
O7 W2 1.980942 1_555
O7 Pr0 2.374038 1_545
O7 Sr1 2.611701 1_556
O7 Sr2 2.968761 1_656
O8 W0 1.948494 1_555
O8 Pr1 2.363199 1_554
O8 Sr2 2.971559 1_555
O9 W2 1.948494 1_555
O9 Pr3 2.363199 1_556
O9 Sr2 2.971559 1_656
O10 W3 1.948494 1_555
O10 Pr2 2.363199 1_556
O10 Sr2 2.971559 1_566
O11 W1 1.948494 1_555
O11 Pr0 2.363199 1_554
O11 Sr2 2.971559 1_665
O12 W0 1.952629 1_555
O12 Pr3 2.363611 1_555
O12 Sr3 3.011219 1_555
O12 Sr1 3.075490 1_555
O13 W1 1.952629 1_555
O13 Pr2 2.363611 1_555
O13 Sr3 3.011219 1_555
O13 Sr1 3.075490 1_565
O14 W2 1.952629 1_555
O14 Pr1 2.363611 1_555
O14 Sr3 3.011219 1_555
O14 Sr1 3.075490 1_556
O15 W3 1.952629 1_555
O15 Pr0 2.363611 1_555
O15 Sr3 3.011219 1_555
O15 Sr1 3.075490 1_566
O16 W0 1.980942 1_555
O16 Pr2 2.374038 1_555
O16 Sr0 2.611701 1_555
O16 Sr3 2.968761 1_555
O17 W3 1.980942 1_555
O17 Pr1 2.374038 1_555
O17 Sr0 2.611701 1_555
O17 Sr3 2.968761 1_555
O18 W1 1.980942 1_555
O18 Pr3 2.374038 1_555
O18 Sr0 2.611701 1_655
O18 Sr3 2.968761 1_555
O19 W2 1.980942 1_555
O19 Pr0 2.374038 1_555
O19 Sr0 2.611701 1_655
O19 Sr3 2.968761 1_555
O20 W0 1.948494 1_555
O20 Pr1 2.363199 1_555
O20 Sr3 2.971559 1_555
O21 W2 1.948494 1_555
O21 Pr3 2.363199 1_555
O21 Sr3 2.971559 1_555
O22 W3 1.948494 1_555
O22 Pr2 2.363199 1_555
O22 Sr3 2.971559 1_555
O23 W1 1.948494 1_555
O23 Pr0 2.363199 1_555
O23 Sr3 2.971559 1_555
