# generated using pymatgen
data_Te2Mo(WSe2)3
_symmetry_space_group_name_H-M   'P 1'
_cell_length_a   3.38097951
_cell_length_b   3.38097951
_cell_length_c   38.64300300
_cell_angle_alpha   90.00000000
_cell_angle_beta   90.00000000
_cell_angle_gamma   119.99999035
_symmetry_Int_Tables_number   1
_chemical_formula_structural   Te2Mo(WSe2)3
_chemical_formula_sum   'Te2 Mo1 W3 Se6'
_cell_volume   382.54860211
_cell_formula_units_Z   1
loop_
 _symmetry_equiv_pos_site_id
 _symmetry_equiv_pos_as_xyz
  1  'x, y, z'
loop_
 _atom_site_type_symbol
 _atom_site_label
 _atom_site_symmetry_multiplicity
 _atom_site_fract_x
 _atom_site_fract_y
 _atom_site_fract_z
 _atom_site_occupancy
  Te  Te0  1  0.33333300  0.66666700  0.42074900  1
  Te  Te1  1  0.33333300  0.66666700  0.51856900  1
  Mo  Mo0  1  0.00000000  0.00000000  0.09391600  1
  W  W0  1  0.00000000  0.00000000  0.46966900  1
  W  W1  1  0.33333300  0.66666700  0.28177700  1
  W  W2  1  0.33333300  0.66666700  0.65756000  1
  Se  Se0  1  0.00000000  0.00000000  0.32477300  1
  Se  Se1  1  0.00000000  0.00000000  0.70053500  1
  Se  Se2  1  0.33333300  0.66666700  0.05107800  1
  Se  Se3  1  0.33333300  0.66666700  0.13677800  1
  Se  Se4  1  0.00000000  0.00000000  0.23878900  1
  Se  Se5  1  0.00000000  0.00000000  0.61455600  1
loop_
_geom_bond_atom_site_label_1
_geom_bond_atom_site_label_2
_geom_bond_distance
_geom_bond_site_symmetry_2
Te0 W0 2.717352 1_565
Te0 W0 2.717355 1_555
Te0 W0 2.717355 1_665
Te1 W0 2.716815 1_565
Te1 W0 2.716817 1_555
Te1 W0 2.716817 1_665
Mo0 Se2 2.559423 1_545
Mo0 Se2 2.559425 1_445
Mo0 Se2 2.559425 1_555
Mo0 Se3 2.560023 1_545
Mo0 Se3 2.560025 1_555
Mo0 Se3 2.560025 1_445
Se0 W1 2.563376 1_545
Se0 W1 2.563379 1_445
Se0 W1 2.563379 1_555
Se1 W2 2.562850 1_545
Se1 W2 2.562853 1_555
Se1 W2 2.562853 1_445
Se4 W1 2.563176 1_545
Se4 W1 2.563178 1_445
Se4 W1 2.563178 1_555
Se5 W2 2.563576 1_545
Se5 W2 2.563579 1_445
Se5 W2 2.563579 1_555
