# generated using pymatgen
data_Zr(MnAl)6
_symmetry_space_group_name_H-M   'P 1'
_cell_length_a   5.05260700
_cell_length_b   6.49629214
_cell_length_c   6.49629214
_cell_angle_alpha   97.74902210
_cell_angle_beta   112.88506618
_cell_angle_gamma   67.11493382
_symmetry_Int_Tables_number   1
_chemical_formula_structural   Zr(MnAl)6
_chemical_formula_sum   'Zr1 Mn6 Al6'
_cell_volume   180.94861177
_cell_formula_units_Z   1
loop_
 _symmetry_equiv_pos_site_id
 _symmetry_equiv_pos_as_xyz
  1  'x, y, z'
loop_
 _atom_site_type_symbol
 _atom_site_label
 _atom_site_symmetry_multiplicity
 _atom_site_fract_x
 _atom_site_fract_y
 _atom_site_fract_z
 _atom_site_occupancy
  Zr  Zr0  1  0.00000000  0.00000000  0.00000000  1
  Mn  Mn0  1  0.50000000  0.00000000  0.50000000  1
  Mn  Mn1  1  0.00000000  0.00000000  0.50000000  1
  Mn  Mn2  1  0.50000000  0.50000000  0.00000000  1
  Mn  Mn3  1  0.00000000  0.50000000  0.00000000  1
  Mn  Mn4  1  0.50000000  0.75998500  0.75998500  1
  Mn  Mn5  1  0.50000000  0.24001500  0.24001500  1
  Al  Al0  1  0.65616700  0.34383300  0.65616700  1
  Al  Al1  1  0.34383300  0.65616700  0.34383300  1
  Al  Al2  1  0.00000000  0.33820500  0.33820500  1
  Al  Al3  1  0.00000000  0.66179500  0.66179500  1
  Al  Al4  1  0.68825400  0.81174600  0.18825400  1
  Al  Al5  1  0.31174600  0.18825400  0.81174600  1
loop_
_geom_bond_atom_site_label_1
_geom_bond_atom_site_label_2
_geom_bond_distance
_geom_bond_site_symmetry_2
Mn0 Mn5 2.448221 1_555
Mn0 Mn4 2.448221 1_545
Mn0 Mn1 2.526304 1_555
Mn0 Mn1 2.526304 1_655
Mn0 Zr0 3.248146 1_656
Mn0 Zr0 3.248146 1_555
Mn1 Mn5 2.448221 1_455
Mn1 Mn4 2.448221 1_545
Mn1 Zr0 3.248146 1_555
Mn1 Zr0 3.248146 1_556
Mn2 Mn5 2.448221 1_555
Mn2 Mn4 2.448221 1_554
Mn2 Mn3 2.526304 1_555
Mn2 Mn3 2.526304 1_655
Mn2 Zr0 3.248146 1_655
Mn2 Zr0 3.248146 1_565
Mn3 Mn5 2.448221 1_555
Mn3 Mn4 2.448221 1_454
Mn3 Zr0 3.248146 1_555
Mn3 Zr0 3.248146 1_565
Al0 Mn5 2.578602 1_555
Al0 Mn4 2.578602 1_555
Al0 Mn0 2.603473 1_555
Al0 Mn2 2.603473 1_556
Al0 Mn1 2.603473 1_655
Al0 Mn3 2.603473 1_656
Al0 Al1 2.617934 1_555
Al0 Al5 2.843013 1_555
Al0 Al5 2.843014 1_655
Al0 Zr0 2.881954 1_656
Al1 Mn4 2.578602 1_555
Al1 Mn5 2.578602 1_555
Al1 Mn0 2.603473 1_565
Al1 Mn2 2.603473 1_555
Al1 Mn3 2.603473 1_555
Al1 Mn1 2.603473 1_565
Al1 Al4 2.843013 1_555
Al1 Al4 2.843014 1_455
Al1 Zr0 2.881954 1_565
Al2 Mn1 2.560202 1_555
Al2 Mn3 2.560202 1_555
Al2 Mn0 2.560202 1_555
Al2 Mn2 2.560202 1_455
Al2 Mn5 2.662000 1_555
Al2 Mn5 2.662000 1_455
Al2 Al3 2.765192 1_555
Al2 Zr0 2.890083 1_555
Al3 Mn1 2.560202 1_565
Al3 Mn3 2.560202 1_556
Al3 Mn0 2.560202 1_465
Al3 Mn2 2.560202 1_556
Al3 Mn4 2.662000 1_555
Al3 Mn4 2.662000 1_455
Al3 Zr0 2.890083 1_566
Al4 Mn0 2.535222 1_565
Al4 Mn2 2.535222 1_555
Al4 Mn1 2.535222 1_665
Al4 Mn3 2.535222 1_655
Al4 Mn4 2.587755 1_554
Al4 Mn5 2.587755 1_565
Al4 Zr0 2.978594 1_665
Al4 Zr0 2.978595 1_565
Al5 Mn0 2.535222 1_555
Al5 Mn2 2.535222 1_556
Al5 Mn3 2.535222 1_556
Al5 Mn1 2.535222 1_555
Al5 Mn4 2.587755 1_545
Al5 Mn5 2.587755 1_556
Al5 Zr0 2.978594 1_556
Al5 Zr0 2.978595 1_656
