# generated using pymatgen
data_MgMn8(OF)8
_symmetry_space_group_name_H-M   'P 1'
_cell_length_a   4.82632979
_cell_length_b   4.95208439
_cell_length_c   12.50605456
_cell_angle_alpha   89.85259858
_cell_angle_beta   88.63379651
_cell_angle_gamma   88.97635303
_symmetry_Int_Tables_number   1
_chemical_formula_structural   MgMn8(OF)8
_chemical_formula_sum   'Mg1 Mn8 O8 F8'
_cell_volume   298.76626523
_cell_formula_units_Z   1
loop_
 _symmetry_equiv_pos_site_id
 _symmetry_equiv_pos_as_xyz
  1  'x, y, z'
loop_
 _atom_site_type_symbol
 _atom_site_label
 _atom_site_symmetry_multiplicity
 _atom_site_fract_x
 _atom_site_fract_y
 _atom_site_fract_z
 _atom_site_occupancy
  Mg  Mg0  1  0.50479000  0.01233400  0.37540100  1
  Mn  Mn0  1  0.97628100  0.94856100  0.99500600  1
  Mn  Mn1  1  0.03464300  0.01437700  0.23576800  1
  Mn  Mn2  1  0.98018200  0.94119200  0.51155800  1
  Mn  Mn3  1  0.05790300  0.02282900  0.75417300  1
  Mn  Mn4  1  0.48634600  0.53522300  0.62811500  1
  Mn  Mn5  1  0.53178100  0.44424900  0.11644000  1
  Mn  Mn6  1  0.44615300  0.51996100  0.37219400  1
  Mn  Mn7  1  0.48623400  0.52048700  0.87206400  1
  O  O0  1  0.16267600  0.80829700  0.36557500  1
  O  O1  1  0.19702700  0.81526400  0.63606300  1
  O  O2  1  0.18643300  0.79733500  0.87601600  1
  O  O3  1  0.35479800  0.27607800  0.25549900  1
  O  O4  1  0.33317500  0.33655900  0.74822800  1
  O  O5  1  0.67784000  0.66797700  0.99693300  1
  O  O6  1  0.62161800  0.72237400  0.48769200  1
  O  O7  1  0.83215500  0.17056900  0.11686900  1
  F  F0  1  0.20526200  0.73446300  0.12453800  1
  F  F1  1  0.29933000  0.24616000  0.99470000  1
  F  F2  1  0.31791000  0.24948300  0.48976700  1
  F  F3  1  0.67927700  0.76472200  0.26000700  1
  F  F4  1  0.70813500  0.74550400  0.74856700  1
  F  F5  1  0.81337500  0.24655800  0.37824800  1
  F  F6  1  0.80434600  0.24207800  0.61820000  1
  F  F7  1  0.81621700  0.21736700  0.86529900  1
loop_
_geom_bond_atom_site_label_1
_geom_bond_atom_site_label_2
_geom_bond_distance
_geom_bond_site_symmetry_2
Mg0 O0 1.957617 1_545
Mg0 O6 2.085741 1_545
Mg0 O3 2.118090 1_555
Mn0 O2 1.926294 1_655
Mn0 O7 1.986440 1_566
Mn0 O5 2.018808 1_555
Mn1 O7 1.949549 1_455
Mn1 O0 2.018769 1_545
Mn1 O3 2.054106 1_555
Mn2 O1 1.989480 1_655
Mn2 O6 2.085996 1_555
Mn2 O0 2.109678 1_655
Mn3 O1 1.903955 1_545
Mn3 O2 1.991283 1_545
Mn3 O4 2.062221 1_555
Mn4 O4 1.932929 1_555
Mn4 O1 1.951345 1_555
Mn4 O6 2.080328 1_555
Mn5 O7 1.966877 1_555
Mn5 O5 1.981734 1_554
Mn5 O3 2.096354 1_555
Mn6 O3 1.960005 1_555
Mn6 O0 1.962775 1_555
Mn6 O6 1.975947 1_555
Mn7 O4 1.964593 1_555
Mn7 O2 1.975273 1_555
Mn7 O5 1.981450 1_555
F0 Mn1 2.109279 1_565
F0 Mn5 2.114554 1_555
F0 Mn0 2.237023 1_454
F1 Mn5 2.160398 1_556
F1 Mn0 2.164398 1_445
F1 Mn7 2.231259 1_555
F2 Mg0 2.036571 1_555
F2 Mn6 2.077319 1_555
F2 Mn2 2.264393 1_445
F2 Mn4 2.403626 1_555
F3 Mg0 2.051732 1_565
F3 Mn1 2.147328 1_665
F3 Mn6 2.160605 1_555
F3 Mn5 2.522893 1_555
F4 Mn4 2.150383 1_555
F4 Mn7 2.174606 1_555
F4 Mn3 2.197637 1_665
F5 Mg0 1.905047 1_555
F5 Mn6 2.213622 1_555
F5 Mn1 2.348062 1_655
F5 Mn2 2.392050 1_545
F6 Mn4 2.095357 1_555
F6 Mn2 2.151763 1_545
F6 Mn3 2.368608 1_655
F7 Mn3 2.027199 1_655
F7 Mn7 2.169238 1_555
F7 Mn0 2.238735 1_545
