# generated using pymatgen
data_Li6Zn3(PS4)4
_symmetry_space_group_name_H-M   'P 1'
_cell_length_a   9.27157437
_cell_length_b   11.61793576
_cell_length_c   23.19768495
_cell_angle_alpha   89.93788996
_cell_angle_beta   90.02803478
_cell_angle_gamma   90.06945622
_symmetry_Int_Tables_number   1
_chemical_formula_structural   Li6Zn3(PS4)4
_chemical_formula_sum   'Li24 Zn12 P16 S64'
_cell_volume   2498.77111549
_cell_formula_units_Z   4
loop_
 _symmetry_equiv_pos_site_id
 _symmetry_equiv_pos_as_xyz
  1  'x, y, z'
loop_
 _atom_site_type_symbol
 _atom_site_label
 _atom_site_symmetry_multiplicity
 _atom_site_fract_x
 _atom_site_fract_y
 _atom_site_fract_z
 _atom_site_occupancy
  Li  Li0  1  0.74825420  0.99907016  0.87026608  1
  Li  Li1  1  0.25020842  0.75444070  0.75338062  1
  Li  Li2  1  0.24609330  0.74036939  0.99607163  1
  Li  Li3  1  0.25265016  0.25695464  0.99171814  1
  Li  Li4  1  0.50275646  0.49814067  0.25136737  1
  Li  Li5  1  0.50034675  0.99995047  0.25093768  1
  Li  Li6  1  0.49977814  0.49932612  0.50035014  1
  Li  Li7  1  0.50429051  0.00072170  0.49925878  1
  Li  Li8  1  0.00211356  0.74894519  0.37535915  1
  Li  Li9  1  0.00119477  0.24942398  0.37566985  1
  Li  Li10  1  0.50364562  0.49651974  0.74993642  1
  Li  Li11  1  0.50036032  0.00179198  0.74885290  1
  Li  Li12  1  0.99796017  0.75136895  0.62309408  1
  Li  Li13  1  0.00382187  0.25049710  0.62472800  1
  Li  Li14  1  0.51530829  0.50190817  0.99814237  1
  Li  Li15  1  0.50122329  0.00128137  0.00225181  1
  Li  Li16  1  0.98546418  0.74845992  0.87428262  1
  Li  Li17  1  0.99725472  0.25552042  0.87309707  1
  Li  Li18  1  0.99783196  0.74811724  0.12630537  1
  Li  Li19  1  0.99640170  0.24842490  0.12787139  1
  Li  Li20  1  0.49970960  0.25126237  0.87259225  1
  Li  Li21  1  0.50815372  0.74677531  0.87590814  1
  Li  Li22  1  0.00044620  0.00270659  0.74749092  1
  Li  Li23  1  0.98466152  0.49943631  0.00002754  1
  Zn  Zn0  1  0.50660050  0.24989574  0.12489296  1
  Zn  Zn1  1  0.50722807  0.74919753  0.12670101  1
  Zn  Zn2  1  0.49940776  0.25095343  0.37589329  1
  Zn  Zn3  1  0.49886424  0.75036595  0.37535895  1
  Zn  Zn4  1  0.00080065  0.49999061  0.25001759  1
  Zn  Zn5  1  0.99920840  0.00089304  0.25127639  1
  Zn  Zn6  1  0.49993426  0.24895441  0.62596577  1
  Zn  Zn7  1  0.50667020  0.75238065  0.62396837  1
  Zn  Zn8  1  0.99939944  0.50034840  0.50049675  1
  Zn  Zn9  1  0.00007711  0.00065227  0.50015043  1
  Zn  Zn10  1  0.99220998  0.49829454  0.75073629  1
  Zn  Zn11  1  0.99353173  0.99775840  0.00031284  1
  P  P0  1  0.75003129  0.24930365  0.25065605  1
  P  P1  1  0.75069831  0.74966733  0.25070657  1
  P  P2  1  0.75006072  0.25056331  0.49996106  1
  P  P3  1  0.75062929  0.74964539  0.49933343  1
  P  P4  1  0.24986266  0.49976950  0.37504806  1
  P  P5  1  0.25008464  0.99991171  0.37491482  1
  P  P6  1  0.75284209  0.24551330  0.74661964  1
  P  P7  1  0.74703112  0.74607030  0.75097971  1
  P  P8  1  0.24752961  0.50077196  0.62568271  1
  P  P9  1  0.25418843  0.99395048  0.62389192  1
  P  P10  1  0.74796686  0.24992590  0.00293581  1
  P  P11  1  0.75155530  0.75891319  0.99935233  1
  P  P12  1  0.25136946  0.49778418  0.87518742  1
  P  P13  1  0.24625188  0.00197962  0.87656170  1
  P  P14  1  0.25159353  0.50422477  0.12464833  1
  P  P15  1  0.24967626  0.00103728  0.12485555  1
  S  S0  1  0.87339795  0.34987932  0.05362160  1
  S  S1  1  0.86641057  0.86392614  0.05540954  1
  S  S2  1  0.86668401  0.36032245  0.30205964  1
  S  S3  1  0.86689527  0.86005571  0.30262300  1
  S  S4  1  0.37225763  0.60930236  0.17748140  1
  S  S5  1  0.36585801  0.11078573  0.17626004  1
  S  S6  1  0.86498315  0.36141218  0.55207555  1
  S  S7  1  0.86289341  0.86210513  0.55131638  1
  S  S8  1  0.36445036  0.61103447  0.42705193  1
  S  S9  1  0.36463257  0.11084736  0.42706894  1
  S  S10  1  0.85872352  0.36000708  0.80114041  1
  S  S11  1  0.86920048  0.85738344  0.80055120  1
  S  S12  1  0.37074033  0.61210866  0.67682710  1
  S  S13  1  0.36441350  0.10761957  0.67617108  1
  S  S14  1  0.36880483  0.60662643  0.92776159  1
  S  S15  1  0.37243885  0.10465161  0.92867191  1
  S  S16  1  0.63492625  0.64633150  0.30614239  1
  S  S17  1  0.63421107  0.14636273  0.30633354  1
  S  S18  1  0.63761815  0.64472963  0.55502997  1
  S  S19  1  0.63359941  0.14721505  0.55497255  1
  S  S20  1  0.13420726  0.89640685  0.43018188  1
  S  S21  1  0.13496221  0.39636766  0.43081137  1
  S  S22  1  0.62868737  0.64304456  0.80249496  1
  S  S23  1  0.63274917  0.14448515  0.80219245  1
  S  S24  1  0.13460855  0.89173941  0.67798544  1
  S  S25  1  0.13503348  0.39763338  0.68163765  1
  S  S26  1  0.63305731  0.65288470  0.05416212  1
  S  S27  1  0.63328847  0.14053642  0.05727440  1
  S  S28  1  0.12568976  0.89106371  0.93131020  1
  S  S29  1  0.12286501  0.39867660  0.92821924  1
  S  S30  1  0.13238688  0.89837091  0.17954729  1
  S  S31  1  0.13761976  0.39827759  0.17964948  1
  S  S32  1  0.86207912  0.13647596  0.19865278  1
  S  S33  1  0.86280686  0.63772268  0.19825537  1
  S  S34  1  0.86436916  0.13896698  0.44786761  1
  S  S35  1  0.86587852  0.63858142  0.44746961  1
  S  S36  1  0.36373270  0.38806882  0.32300313  1
  S  S37  1  0.36372309  0.88829929  0.32267378  1
  S  S38  1  0.86992400  0.14311291  0.69470839  1
  S  S39  1  0.87215018  0.64296218  0.69785096  1
  S  S40  1  0.36447428  0.39074631  0.57426797  1
  S  S41  1  0.37180136  0.88752832  0.57047076  1
  S  S42  1  0.86817931  0.13914378  0.94844834  1
  S  S43  1  0.86460483  0.64930975  0.94948143  1
  S  S44  1  0.36566412  0.39563037  0.82258238  1
  S  S45  1  0.37093145  0.89496692  0.82620953  1
  S  S46  1  0.37306468  0.39258709  0.07252146  1
  S  S47  1  0.36800036  0.88821225  0.07364630  1
  S  S48  1  0.63662904  0.35412854  0.19490828  1
  S  S49  1  0.63783543  0.85579110  0.19524420  1
  S  S50  1  0.63649849  0.35540204  0.44392664  1
  S  S51  1  0.63637716  0.85380914  0.44341279  1
  S  S52  1  0.13615556  0.60408960  0.31898999  1
  S  S53  1  0.13692119  0.10500757  0.31894972  1
  S  S54  1  0.63023106  0.35275535  0.69457239  1
  S  S55  1  0.63518242  0.85381130  0.69480741  1
  S  S56  1  0.13558955  0.60533573  0.56940449  1
  S  S57  1  0.13734811  0.09989460  0.56943981  1
  S  S58  1  0.63156845  0.34805440  0.94819034  1
  S  S59  1  0.62731975  0.86217671  0.94738377  1
  S  S60  1  0.12431398  0.60519180  0.82189206  1
  S  S61  1  0.12078034  0.10038989  0.82587606  1
  S  S62  1  0.13024409  0.60411295  0.07075055  1
  S  S63  1  0.13209256  0.10540555  0.06904335  1
loop_
_geom_bond_atom_site_label_1
_geom_bond_atom_site_label_2
_geom_bond_distance
_geom_bond_site_symmetry_2
Li0 S23 2.547875 1_565
Li0 S11 2.567987 1_555
Li0 S59 2.641678 1_555
Li0 S42 2.678430 1_565
Li1 S24 2.597771 1_555
Li1 S45 2.602357 1_555
Li1 S60 2.624102 1_555
Li1 S12 2.673900 1_555
Li2 S14 2.496243 1_555
Li2 S28 2.562360 1_555
Li2 S62 2.579251 1_556
Li2 S47 2.732426 1_556
Li3 S29 2.515273 1_555
Li3 S15 2.552526 1_555
Li3 S46 2.691305 1_556
Li3 S63 2.749063 1_556
Li4 S36 2.460042 1_555
Li4 S4 2.463031 1_555
Li4 S48 2.463065 1_555
Li4 S16 2.465457 1_555
Li5 S37 2.459644 1_555
Li5 S17 2.466428 1_565
Li5 S49 2.471975 1_555
Li5 S5 2.492168 1_565
Li6 S18 2.468551 1_555
Li6 S40 2.469592 1_555
Li6 S50 2.475374 1_555
Li6 S8 2.479289 1_555
Li7 S41 2.441444 1_545
Li7 S19 2.450035 1_555
Li7 S51 2.470372 1_545
Li7 S9 2.472901 1_555
Li8 S35 2.455856 1_455
Li8 S20 2.459771 1_555
Li8 S3 2.466219 1_455
Li8 S52 2.469427 1_555
Li9 S34 2.460616 1_455
Li9 S21 2.467173 1_555
Li9 S2 2.475525 1_455
Li9 S53 2.478192 1_555
Li10 S22 2.393074 1_555
Li10 S54 2.414025 1_555
Li10 S44 2.417572 1_555
Li10 S12 2.489005 1_555
Li11 S23 2.404998 1_555
Li11 S13 2.437278 1_555
Li11 S55 2.470130 1_545
Li11 S45 2.488815 1_545
Li12 S24 2.425706 1_655
Li12 S39 2.438843 1_555
Li12 S7 2.448072 1_555
Li12 S56 2.463603 1_655
Li13 S38 2.393083 1_455
Li13 S25 2.478551 1_555
Li13 S6 2.480964 1_455
Li13 S57 2.500136 1_555
Li14 S58 2.389573 1_555
Li14 S26 2.440528 1_556
Li14 S14 2.447103 1_555
Li14 S46 2.514539 1_556
Li15 S59 2.368370 1_544
Li15 S27 2.396680 1_555
Li15 S15 2.403848 1_554
Li15 S47 2.446960 1_545
Li16 S43 2.370666 1_555
Li16 S11 2.384460 1_555
Li16 S60 2.432271 1_655
Li16 S28 2.486580 1_655
Li17 S29 2.399170 1_655
Li17 S61 2.402163 1_655
Li17 S10 2.430412 1_555
Li17 S42 2.511701 1_555
Li18 S62 2.445050 1_655
Li18 S33 2.447756 1_555
Li18 S1 2.448868 1_555
Li18 S30 2.475263 1_655
Li19 S0 2.377728 1_555
Li19 S32 2.435584 1_555
Li19 S31 2.487066 1_655
Li19 S63 2.493515 1_655
Li20 S44 2.388109 1_555
Li20 S23 2.395315 1_555
Li20 S58 2.415257 1_555
Li20 S15 2.444973 1_555
Li21 S22 2.368773 1_555
Li21 S14 2.399892 1_555
Li21 S59 2.401434 1_555
Li21 S45 2.431374 1_555
Li22 S38 2.371415 1_455
Li22 S24 2.412348 1_545
Li22 S11 2.416260 1_445
Li22 S61 2.416306 1_555
Li23 S0 2.370896 1_555
Li23 S43 2.375867 1_554
Li23 S29 2.407705 1_654
Li23 S62 2.447580 1_655
P0 S17 2.060714 1_555
P0 S2 2.062518 1_555
P0 S48 2.063834 1_555
P0 S32 2.064156 1_555
P1 S16 2.059639 1_555
P1 S3 2.062661 1_555
P1 S33 2.064047 1_555
P1 S49 2.066116 1_555
P2 S19 2.056940 1_555
P2 S6 2.062559 1_555
P2 S34 2.067004 1_555
P2 S50 2.068851 1_555
P3 S7 2.059981 1_555
P3 S18 2.061008 1_555
P3 S35 2.064512 1_555
P3 S51 2.065861 1_555
P4 S21 2.060647 1_555
P4 S8 2.062481 1_555
P4 S36 2.065022 1_555
P4 S52 2.066340 1_555
P5 S20 2.058852 1_555
P5 S9 2.061940 1_565
P5 S37 2.065947 1_555
P5 S53 2.067723 1_565
P6 S38 2.012806 1_555
P6 S23 2.067444 1_555
P6 S54 2.073943 1_555
P6 S10 2.081338 1_555
P7 S22 2.014871 1_555
P7 S11 2.067903 1_555
P7 S39 2.075482 1_555
P7 S55 2.082905 1_555
P8 S25 2.050243 1_555
P8 S40 2.059143 1_555
P8 S56 2.062915 1_555
P8 S12 2.093840 1_555
P9 S24 2.051557 1_555
P9 S13 2.063529 1_565
P9 S41 2.064326 1_555
P9 S57 2.069450 1_565
P10 S58 2.018837 1_554
P10 S0 2.020342 1_555
P10 S27 2.080657 1_555
P10 S42 2.122451 1_554
P11 S43 2.016453 1_555
P11 S59 2.053847 1_555
P11 S1 2.076641 1_556
P11 S26 2.082252 1_556
P12 S44 2.007013 1_555
P12 S29 2.062468 1_555
P12 S14 2.066556 1_555
P12 S60 2.114743 1_555
P13 S61 2.010461 1_555
P13 S15 2.061866 1_555
P13 S45 2.062595 1_545
P13 S28 2.125406 1_545
P14 S62 2.043160 1_555
P14 S4 2.059759 1_555
P14 S31 2.062623 1_555
P14 S46 2.102639 1_555
P15 S5 2.051041 1_555
P15 S30 2.051791 1_545
P15 S63 2.081699 1_555
P15 S47 2.083514 1_545
S1 Zn11 2.330881 1_555
S2 Zn4 2.372558 1_655
S3 Zn5 2.365017 1_565
S4 Zn1 2.363803 1_555
S5 Zn0 2.393099 1_555
S6 Zn8 2.362764 1_555
S7 Zn9 2.368511 1_665
S8 Zn3 2.367226 1_555
S9 Zn2 2.369107 1_555
S10 Zn10 2.339365 1_555
S12 Zn7 2.395811 1_555
S13 Zn6 2.371430 1_555
S16 Zn3 2.374936 1_555
S17 Zn2 2.377462 1_555
S18 Zn7 2.367620 1_555
S19 Zn6 2.378011 1_555
S20 Zn9 2.378594 1_565
S21 Zn8 2.379541 1_455
S25 Zn10 2.387561 1_455
S26 Zn1 2.335351 1_555
S27 Zn0 2.337553 1_555
S28 Zn11 2.368561 1_456
S30 Zn5 2.392065 1_465
S31 Zn4 2.383289 1_555
S32 Zn5 2.363703 1_555
S33 Zn4 2.374566 1_655
S34 Zn9 2.373927 1_655
S35 Zn8 2.371478 1_555
S36 Zn2 2.371597 1_555
S37 Zn3 2.372926 1_555
S39 Zn10 2.359615 1_555
S40 Zn6 2.393439 1_555
S41 Zn7 2.359681 1_555
S42 Zn11 2.344229 1_546
S46 Zn0 2.399209 1_555
S47 Zn1 2.405967 1_555
S48 Zn0 2.357256 1_555
S49 Zn1 2.350953 1_555
S50 Zn2 2.361631 1_555
S51 Zn3 2.358079 1_555
S52 Zn4 2.365617 1_555
S53 Zn5 2.357173 1_455
S54 Zn6 2.333536 1_555
S55 Zn7 2.346844 1_555
S56 Zn8 2.374001 1_455
S57 Zn9 2.351859 1_555
S60 Zn10 2.401242 1_455
S63 Zn11 2.398956 1_445
