# generated using pymatgen
data_Li4MnCo2O7
_symmetry_space_group_name_H-M   'P 1'
_cell_length_a   5.13790847
_cell_length_b   5.13790847
_cell_length_c   17.38875871
_cell_angle_alpha   85.42770708
_cell_angle_beta   85.42770708
_cell_angle_gamma   33.40980207
_symmetry_Int_Tables_number   1
_chemical_formula_structural   Li4MnCo2O7
_chemical_formula_sum   'Li8 Mn2 Co4 O14'
_cell_volume   251.87592306
_cell_formula_units_Z   2
loop_
 _symmetry_equiv_pos_site_id
 _symmetry_equiv_pos_as_xyz
  1  'x, y, z'
loop_
 _atom_site_type_symbol
 _atom_site_label
 _atom_site_symmetry_multiplicity
 _atom_site_fract_x
 _atom_site_fract_y
 _atom_site_fract_z
 _atom_site_occupancy
  Li  Li0  1  0.28434200  0.28434200  0.43660400  1
  Li  Li1  1  0.71565800  0.71565800  0.56339600  1
  Li  Li2  1  0.13906300  0.13906300  0.71604300  1
  Li  Li3  1  0.57174100  0.57174100  0.85749700  1
  Li  Li4  1  0.00000000  0.00000000  0.00000000  1
  Li  Li5  1  0.42825900  0.42825900  0.14250300  1
  Li  Li6  1  0.86093700  0.86093700  0.28395700  1
  Li  Li7  1  0.00000000  0.00000000  0.50000000  1
  Mn  Mn0  1  0.57302800  0.57302800  0.36075900  1
  Mn  Mn1  1  0.42697200  0.42697200  0.63924100  1
  Co  Co0  1  0.86077300  0.86077300  0.78779100  1
  Co  Co1  1  0.28502800  0.28502800  0.92902400  1
  Co  Co2  1  0.71497200  0.71497200  0.07097600  1
  Co  Co3  1  0.13922700  0.13922700  0.21220900  1
  O  O0  1  0.19817400  0.19817400  0.31944600  1
  O  O1  1  0.64332400  0.64332400  0.45412400  1
  O  O2  1  0.05091500  0.05091500  0.61385400  1
  O  O3  1  0.48985400  0.48985400  0.74844700  1
  O  O4  1  0.92097000  0.92097000  0.89121100  1
  O  O5  1  0.34936700  0.34936700  0.03245100  1
  O  O6  1  0.77726400  0.77726400  0.17497600  1
  O  O7  1  0.35667600  0.35667600  0.54587600  1
  O  O8  1  0.80182600  0.80182600  0.68055400  1
  O  O9  1  0.22273600  0.22273600  0.82502400  1
  O  O10  1  0.65063300  0.65063300  0.96754900  1
  O  O11  1  0.07903000  0.07903000  0.10878900  1
  O  O12  1  0.51014600  0.51014600  0.25155300  1
  O  O13  1  0.94908500  0.94908500  0.38614600  1
loop_
_geom_bond_atom_site_label_1
_geom_bond_atom_site_label_2
_geom_bond_distance
_geom_bond_site_symmetry_2
Li0 O1 2.032203 1_545
Li0 O1 2.032203 1_455
Li0 O7 2.083844 1_555
Li0 O0 2.270936 1_555
Li0 O13 2.311524 1_455
Li0 O13 2.311524 1_545
Li1 O7 2.032203 1_655
Li1 O7 2.032203 1_565
Li1 O1 2.083844 1_555
Li1 O8 2.270936 1_555
Li1 O2 2.311524 1_655
Li1 O2 2.311524 1_565
Li2 O2 2.041275 1_555
Li2 O3 2.125430 1_545
Li2 O3 2.125430 1_455
Li2 O9 2.128182 1_555
Li2 O8 2.227907 1_545
Li2 O8 2.227907 1_455
Li3 O3 2.121245 1_555
Li3 O10 2.124233 1_555
Li3 O9 2.137475 1_655
Li3 O9 2.137475 1_565
Li3 O4 2.140552 1_545
Li3 O4 2.140552 1_455
Li4 O11 2.104399 1_555
Li4 O4 2.104399 1_444
Li4 O5 2.134999 1_545
Li4 O5 2.134999 1_455
Li4 O10 2.134999 1_454
Li4 O10 2.134999 1_544
Li5 O12 2.121245 1_555
Li5 O5 2.124233 1_555
Li5 O6 2.137475 1_545
Li5 O6 2.137475 1_455
Li5 O11 2.140552 1_655
Li5 O11 2.140552 1_565
Li6 O13 2.041275 1_555
Li6 O12 2.125430 1_565
Li6 O12 2.125430 1_655
Li6 O6 2.128182 1_555
Li6 O0 2.227907 1_565
Li6 O0 2.227907 1_655
Li7 O2 2.082255 1_555
Li7 O13 2.082255 1_445
Li7 O7 2.149416 1_545
Li7 O7 2.149416 1_455
Li7 O1 2.149416 1_455
Li7 O1 2.149416 1_545
Mn0 O1 1.816977 1_555
Mn0 O13 1.942783 1_455
Mn0 O13 1.942783 1_545
Mn0 O0 2.016675 1_565
Mn0 O0 2.016675 1_655
Mn0 O12 2.045654 1_555
Mn1 O7 1.816977 1_555
Mn1 O2 1.942783 1_565
Mn1 O2 1.942783 1_655
Mn1 O8 2.016675 1_545
Mn1 O8 2.016675 1_455
Mn1 O3 2.045654 1_555
Co0 O4 1.939696 1_555
Co0 O8 1.998462 1_555
Co0 O3 2.029402 1_655
Co0 O3 2.029402 1_565
Co0 O9 2.073547 1_565
Co0 O9 2.073547 1_655
Co1 O5 1.955771 1_556
Co1 O9 1.957257 1_555
Co1 O10 2.057181 1_545
Co1 O10 2.057181 1_455
Co1 O4 2.063282 1_455
Co1 O4 2.063282 1_545
Co2 O10 1.955771 1_554
Co2 O6 1.957257 1_555
Co2 O5 2.057181 1_565
Co2 O5 2.057181 1_655
Co2 O11 2.063282 1_565
Co2 O11 2.063282 1_655
Co3 O11 1.939696 1_555
Co3 O0 1.998462 1_555
Co3 O12 2.029402 1_455
Co3 O12 2.029402 1_545
Co3 O6 2.073547 1_545
Co3 O6 2.073547 1_455
