# generated using pymatgen
data_Co2H22C(N2O3)4
_symmetry_space_group_name_H-M   'P 1'
_cell_length_a   7.91370200
_cell_length_b   9.97887557
_cell_length_c   11.05843471
_cell_angle_alpha   103.90551118
_cell_angle_beta   108.99797651
_cell_angle_gamma   91.76212269
_symmetry_Int_Tables_number   1
_chemical_formula_structural   Co2H22C(N2O3)4
_chemical_formula_sum   'Co4 H44 C2 N16 O24'
_cell_volume   795.84578352
_cell_formula_units_Z   2
loop_
 _symmetry_equiv_pos_site_id
 _symmetry_equiv_pos_as_xyz
  1  'x, y, z'
loop_
 _atom_site_type_symbol
 _atom_site_label
 _atom_site_symmetry_multiplicity
 _atom_site_fract_x
 _atom_site_fract_y
 _atom_site_fract_z
 _atom_site_occupancy
  Co  Co0  1  0.23800100  0.85426500  0.13916600  1
  Co  Co1  1  0.76199900  0.14573500  0.86083400  1
  Co  Co2  1  0.17844300  0.78089600  0.35514200  1
  Co  Co3  1  0.82155700  0.21910400  0.64485800  1
  H  H0  1  0.01030600  0.66826500  0.11865400  1
  H  H1  1  0.98969400  0.33173500  0.88134600  1
  H  H2  1  0.29871000  0.00690700  0.35851600  1
  H  H3  1  0.70129000  0.99309300  0.64148400  1
  H  H4  1  0.48274400  0.69712900  0.19133100  1
  H  H5  1  0.51725600  0.30287100  0.80866900  1
  H  H6  1  0.43208800  0.70081300  0.03651400  1
  H  H7  1  0.56791200  0.29918700  0.96348600  1
  H  H8  1  0.56708500  0.83157400  0.15557000  1
  H  H9  1  0.43291500  0.16842600  0.84443000  1
  H  H10  1  0.20199600  0.76261400  0.89195500  1
  H  H11  1  0.79800400  0.23738600  0.10804500  1
  H  H12  1  0.02536300  0.70399300  0.92475300  1
  H  H13  1  0.97463700  0.29600700  0.07524700  1
  H  H14  1  0.05078600  0.86673300  0.91758000  1
  H  H15  1  0.94921400  0.13326700  0.08242000  1
  H  H16  1  0.48097700  0.02817700  0.14435200  1
  H  H17  1  0.51902300  0.97182300  0.85564800  1
  H  H18  1  0.29220700  0.03224000  0.02348100  1
  H  H19  1  0.70779300  0.96776000  0.97651900  1
  H  H20  1  0.31848400  0.10904700  0.18196100  1
  H  H21  1  0.68151600  0.89095300  0.81803900  1
  H  H22  1  0.37132500  0.58615000  0.34269500  1
  H  H23  1  0.62867500  0.41385000  0.65730500  1
  H  H24  1  0.50091800  0.73184300  0.43899700  1
  H  H25  1  0.49908200  0.26815700  0.56100300  1
  H  H26  1  0.37901100  0.64292600  0.49723200  1
  H  H27  1  0.62098900  0.35707400  0.50276800  1
  H  H28  1  0.89032300  0.64169700  0.30214600  1
  H  H29  1  0.10967700  0.35830300  0.69785400  1
  H  H30  1  0.04795800  0.54016400  0.34952200  1
  H  H31  1  0.95204200  0.45983600  0.65047800  1
  H  H32  1  0.99942500  0.66031100  0.46116100  1
  H  H33  1  0.00057500  0.33968900  0.53883900  1
  H  H34  1  0.14116800  0.95621900  0.54599400  1
  H  H35  1  0.85883200  0.04378100  0.45400600  1
  H  H36  1  0.23309100  0.82761000  0.60401400  1
  H  H37  1  0.76690900  0.17239000  0.39598600  1
  H  H38  1  0.35660300  0.94313000  0.57257700  1
  H  H39  1  0.64339700  0.05687000  0.42742300  1
  H  H40  1  0.68091100  0.57808300  0.94756900  1
  H  H41  1  0.31908900  0.42191700  0.05243100  1
  H  H42  1  0.82465000  0.48243100  0.92315800  1
  H  H43  1  0.17535000  0.51756900  0.07684200  1
  C  C0  1  0.91649700  0.92787400  0.20063600  1
  C  C1  1  0.08350300  0.07212600  0.79936400  1
  N  N0  1  0.45289500  0.76221100  0.13030200  1
  N  N1  1  0.54710500  0.23778900  0.86969800  1
  N  N2  1  0.11928200  0.78760800  0.94722100  1
  N  N3  1  0.88071800  0.21239200  0.05277900  1
  N  N4  1  0.34387800  0.02333200  0.11983500  1
  N  N5  1  0.65612200  0.97666800  0.88016500  1
  N  N6  1  0.37844600  0.67470000  0.41478600  1
  N  N7  1  0.62155400  0.32530000  0.58521400  1
  N  N8  1  0.01446500  0.63983400  0.36916500  1
  N  N9  1  0.98553500  0.36016600  0.63083500  1
  N  N10  1  0.23226800  0.88631800  0.53917700  1
  N  N11  1  0.76773200  0.11368200  0.46082300  1
  N  N12  1  0.37665300  0.59913500  0.74364000  1
  N  N13  1  0.62334700  0.40086500  0.25636000  1
  N  N14  1  0.81726000  0.73428400  0.62628800  1
  N  N15  1  0.18274000  0.26571600  0.37371200  1
  O  O0  1  0.14082800  0.68867500  0.17073000  1
  O  O1  1  0.85917200  0.31132500  0.82927000  1
  O  O2  1  0.33957600  0.91540100  0.33072100  1
  O  O3  1  0.66042400  0.08459900  0.66927900  1
  O  O4  1  0.02483200  0.94624200  0.13606700  1
  O  O5  1  0.97516800  0.05375800  0.86393300  1
  O  O6  1  0.96743000  0.87660700  0.30338100  1
  O  O7  1  0.03257000  0.12339300  0.69661900  1
  O  O8  1  0.75777700  0.96317000  0.16154000  1
  O  O9  1  0.24222300  0.03683000  0.83846000  1
  O  O10  1  0.36405700  0.72777700  0.78127000  1
  O  O11  1  0.63594300  0.27222300  0.21873000  1
  O  O12  1  0.42436700  0.52929500  0.83046000  1
  O  O13  1  0.57563300  0.47070500  0.16954000  1
  O  O14  1  0.34141400  0.53913400  0.62278900  1
  O  O15  1  0.65858600  0.46086600  0.37721100  1
  O  O16  1  0.95321400  0.67070500  0.62349400  1
  O  O17  1  0.04678600  0.32929500  0.37650600  1
  O  O18  1  0.77152900  0.82141000  0.55689500  1
  O  O19  1  0.22847100  0.17859000  0.44310500  1
  O  O20  1  0.72823500  0.71141800  0.69705200  1
  O  O21  1  0.27176500  0.28858200  0.30294800  1
  O  O22  1  0.81105500  0.57233300  0.97926300  1
  O  O23  1  0.18894500  0.42766700  0.02073700  1
loop_
_geom_bond_atom_site_label_1
_geom_bond_atom_site_label_2
_geom_bond_distance
_geom_bond_site_symmetry_2
Co0 O2 1.935357 1_555
Co0 O4 1.939614 1_555
Co0 N4 1.948606 1_565
Co0 N2 1.953249 1_554
Co0 O0 1.953831 1_555
Co0 N0 1.976567 1_555
Co1 O3 1.935357 1_555
Co1 O5 1.939614 1_555
Co1 N5 1.948606 1_545
Co1 N3 1.953249 1_556
Co1 O1 1.953831 1_555
Co1 N1 1.976567 1_555
Co2 O6 1.940852 1_455
Co2 O0 1.944266 1_555
Co2 O2 1.947730 1_555
Co2 N10 1.951648 1_555
Co2 N8 1.952703 1_555
Co2 N6 1.955146 1_555
Co3 O7 1.940852 1_655
Co3 O1 1.944266 1_555
Co3 O3 1.947730 1_555
Co3 N11 1.951648 1_555
Co3 N9 1.952703 1_555
Co3 N7 1.955146 1_555
H0 O0 0.991684 1_555
H1 O1 0.991684 1_555
H2 O2 0.990376 1_545
H3 O3 0.990376 1_565
H4 N0 1.024380 1_555
H5 N1 1.024380 1_555
H6 N0 1.027306 1_555
H7 N1 1.027306 1_555
H8 N0 1.038246 1_555
H9 N1 1.038246 1_555
H10 N2 1.030252 1_555
H11 N3 1.030252 1_555
H12 N2 1.025832 1_555
H13 N3 1.025832 1_555
H14 N2 1.029436 1_555
H15 N3 1.029436 1_555
H16 N4 1.025642 1_555
H17 N5 1.025642 1_555
H18 N4 1.036599 1_555
H19 N5 1.036599 1_555
H20 N4 1.030534 1_555
H21 N5 1.030534 1_555
H22 N6 1.024026 1_555
H23 N7 1.024026 1_555
H24 N6 1.029506 1_555
H25 N7 1.029506 1_555
H26 N6 1.033523 1_555
H27 N7 1.033523 1_555
H28 N8 1.023948 1_655
H29 N9 1.023948 1_455
H30 N8 1.027868 1_555
H31 N9 1.027868 1_555
H32 N8 1.035036 1_655
H33 N9 1.035036 1_455
H34 N10 1.026170 1_555
H35 N11 1.026170 1_555
H36 N10 1.027823 1_555
H37 N11 1.027823 1_555
H38 N10 1.026846 1_555
H39 N11 1.026846 1_555
H40 O22 0.982421 1_555
H41 O23 0.982421 1_555
H42 O22 0.991567 1_555
H43 O23 0.991567 1_555
C0 O8 1.278868 1_555
C0 O6 1.307298 1_555
C0 O4 1.315391 1_655
C1 O9 1.278868 1_555
C1 O7 1.307298 1_555
C1 O5 1.315391 1_455
N12 O14 1.258878 1_555
N12 O10 1.268509 1_555
N12 O12 1.285231 1_555
N13 O15 1.258878 1_555
N13 O11 1.268509 1_555
N13 O13 1.285231 1_555
N14 O20 1.263193 1_555
N14 O16 1.270920 1_555
N14 O18 1.278649 1_555
N15 O21 1.263193 1_555
N15 O17 1.270920 1_555
N15 O19 1.278649 1_555
