# generated using pymatgen
data_Y2OsPd
_symmetry_space_group_name_H-M   'P 1'
_cell_length_a   11.50138395
_cell_length_b   11.50138395
_cell_length_c   11.50138395
_cell_angle_alpha   127.95772701
_cell_angle_beta   117.48417792
_cell_angle_gamma   85.60778459
_symmetry_Int_Tables_number   1
_chemical_formula_structural   Y2OsPd
_chemical_formula_sum   'Y2 Os1 Pd1'
_cell_volume   1016.40278273
_cell_formula_units_Z   1
loop_
 _symmetry_equiv_pos_site_id
 _symmetry_equiv_pos_as_xyz
  1  'x, y, z'
loop_
 _atom_site_type_symbol
 _atom_site_label
 _atom_site_symmetry_multiplicity
 _atom_site_fract_x
 _atom_site_fract_y
 _atom_site_fract_z
 _atom_site_occupancy
  Y  Y0  1  0.00000000  0.26258900  0.26258900  1
  Y  Y1  1  0.00000000  0.73741100  0.73741100  1
  Os  Os0  1  0.00000000  0.50000000  0.50000000  1
  Pd  Pd0  1  0.00000000  0.00000000  0.00000000  1
loop_
_geom_bond_atom_site_label_1
_geom_bond_atom_site_label_2
_geom_bond_distance
_geom_bond_site_symmetry_2
Os0 Y0 2.395804 1_555
Os0 Y1 2.395804 1_555
Pd0 Y1 2.649884 1_544
Pd0 Y0 2.649884 1_555
