# generated using pymatgen
data_Al5FeNi
_symmetry_space_group_name_H-M   'P 1'
_cell_length_a   7.69871419
_cell_length_b   7.69871419
_cell_length_c   7.66770200
_cell_angle_alpha   90.00000000
_cell_angle_beta   90.00000000
_cell_angle_gamma   120.00842317
_symmetry_Int_Tables_number   1
_chemical_formula_structural   Al5FeNi
_chemical_formula_sum   'Al20 Fe4 Ni4'
_cell_volume   393.54589241
_cell_formula_units_Z   4
loop_
 _symmetry_equiv_pos_site_id
 _symmetry_equiv_pos_as_xyz
  1  'x, y, z'
loop_
 _atom_site_type_symbol
 _atom_site_label
 _atom_site_symmetry_multiplicity
 _atom_site_fract_x
 _atom_site_fract_y
 _atom_site_fract_z
 _atom_site_occupancy
  Al  Al0  1  0.60947300  0.80214600  0.31096900  1
  Al  Al1  1  0.19785400  0.39052700  0.31096900  1
  Al  Al2  1  0.19267900  0.80732100  0.31420200  1
  Al  Al3  1  0.39352800  0.19647700  0.19684700  1
  Al  Al4  1  0.80352300  0.60647200  0.19684700  1
  Al  Al5  1  0.80385500  0.19614500  0.19163000  1
  Al  Al6  1  0.39352800  0.19647700  0.80315300  1
  Al  Al7  1  0.80352300  0.60647200  0.80315300  1
  Al  Al8  1  0.80385500  0.19614500  0.80837000  1
  Al  Al9  1  0.60947300  0.80214600  0.68903100  1
  Al  Al10  1  0.19785400  0.39052700  0.68903100  1
  Al  Al11  1  0.19267900  0.80732100  0.68579800  1
  Al  Al12  1  0.00058900  0.99941100  0.25393500  1
  Al  Al13  1  0.00058900  0.99941100  0.74606500  1
  Al  Al14  1  0.94034500  0.47188200  0.50000000  1
  Al  Al15  1  0.52811800  0.05965500  0.50000000  1
  Al  Al16  1  0.53297800  0.46702200  0.50000000  1
  Al  Al17  1  0.05991300  0.52978700  0.00000000  1
  Al  Al18  1  0.47021300  0.94008700  0.00000000  1
  Al  Al19  1  0.46978900  0.53021100  0.00000000  1
  Fe  Fe0  1  0.33233200  0.66766800  0.50000000  1
  Fe  Fe1  1  0.66505400  0.33494600  0.00000000  1
  Fe  Fe2  1  0.25407300  0.12915800  0.50000000  1
  Fe  Fe3  1  0.87084200  0.74592700  0.50000000  1
  Ni  Ni0  1  0.87302500  0.12697500  0.50000000  1
  Ni  Ni1  1  0.74894000  0.87622500  0.00000000  1
  Ni  Ni2  1  0.12377500  0.25106000  0.00000000  1
  Ni  Ni3  1  0.12746800  0.87253200  0.00000000  1
loop_
_geom_bond_atom_site_label_1
_geom_bond_atom_site_label_2
_geom_bond_distance
_geom_bond_site_symmetry_2
Al0 Fe0 2.348525 1_555
Al0 Ni1 2.559504 1_555
Al0 Al12 2.643909 1_655
Al0 Fe3 2.684825 1_555
Al0 Ni0 2.719595 1_565
Al1 Fe0 2.348525 1_555
Al1 Ni2 2.559504 1_555
Al1 Al12 2.643909 1_545
Al1 Fe2 2.684825 1_555
Al1 Ni0 2.719595 1_455
Al2 Fe0 2.344725 1_555
Al2 Ni3 2.561343 1_555
Al2 Fe3 2.687146 1_455
Al2 Fe2 2.687146 1_565
Al3 Fe1 2.356985 1_555
Al3 Fe2 2.503586 1_555
Al3 Ni3 2.753889 1_545
Al3 Ni2 2.764158 1_555
Al4 Fe1 2.356985 1_555
Al4 Fe3 2.503586 1_555
Al4 Ni3 2.753889 1_655
Al4 Ni1 2.764158 1_555
Al5 Fe1 2.363253 1_555
Al5 Ni0 2.538034 1_555
Al5 Ni1 2.713383 1_545
Al5 Ni2 2.713383 1_655
Al6 Fe1 2.356985 1_556
Al6 Fe2 2.503586 1_555
Al6 Ni3 2.753889 1_546
Al6 Ni2 2.764158 1_556
Al7 Fe1 2.356985 1_556
Al7 Fe3 2.503586 1_555
Al7 Ni3 2.753889 1_656
Al7 Ni1 2.764158 1_556
Al8 Fe1 2.363253 1_556
Al8 Ni0 2.538034 1_555
Al8 Ni2 2.713383 1_656
Al8 Ni1 2.713383 1_546
Al9 Fe0 2.348525 1_555
Al9 Ni1 2.559504 1_556
Al9 Fe3 2.684825 1_555
Al9 Ni0 2.719595 1_565
Al10 Fe0 2.348525 1_555
Al10 Ni2 2.559504 1_556
Al10 Al13 2.643909 1_545
Al10 Fe2 2.684825 1_555
Al10 Ni0 2.719595 1_455
Al11 Fe0 2.344725 1_555
Al11 Ni3 2.561343 1_556
Al11 Al13 2.602894 1_555
Al11 Fe3 2.687146 1_455
Al11 Fe2 2.687146 1_565
Al12 Fe3 2.533011 1_455
Al12 Fe2 2.533011 1_565
Al12 Ni0 2.540378 1_465
Al12 Ni1 2.570252 1_455
Al12 Ni2 2.570252 1_565
Al12 Ni3 2.579511 1_555
Al12 Al2 2.602894 1_555
Al12 Al4 2.655937 1_455
Al12 Al3 2.655937 1_565
Al12 Al5 2.666617 1_465
Al13 Fe3 2.533011 1_455
Al13 Fe2 2.533011 1_565
Al13 Ni0 2.540378 1_465
Al13 Ni1 2.570252 1_456
Al13 Ni2 2.570252 1_566
Al13 Ni3 2.579511 1_556
Al13 Al9 2.643909 1_455
Al13 Al6 2.655937 1_565
Al13 Al7 2.655937 1_455
Al13 Al8 2.666617 1_465
Al14 Fe3 2.422137 1_555
Al14 Ni0 2.437805 1_555
Al14 Fe0 2.613267 1_655
Al15 Fe2 2.422137 1_555
Al15 Ni0 2.437805 1_555
Al15 Fe0 2.613267 1_545
Al16 Fe3 2.406192 1_555
Al16 Fe2 2.406192 1_555
Al16 Fe0 2.675640 1_555
Al17 Ni3 2.420848 1_555
Al17 Ni2 2.429328 1_555
Al17 Fe1 2.632491 1_455
Al18 Ni3 2.420848 1_555
Al18 Ni1 2.429328 1_555
Al18 Fe1 2.632491 1_565
Al19 Ni1 2.447128 1_555
Al19 Ni2 2.447128 1_555
Al19 Fe1 2.603884 1_555
