# generated using pymatgen
data_YCo3Se2ClO8
_symmetry_space_group_name_H-M   'P 1'
_cell_length_a   6.40497300
_cell_length_b   7.23154900
_cell_length_c   9.65993600
_cell_angle_alpha   90.00000000
_cell_angle_beta   90.00000000
_cell_angle_gamma   90.00000000
_symmetry_Int_Tables_number   1
_chemical_formula_structural   YCo3Se2ClO8
_chemical_formula_sum   'Y2 Co6 Se4 Cl2 O16'
_cell_volume   447.42771872
_cell_formula_units_Z   2
loop_
 _symmetry_equiv_pos_site_id
 _symmetry_equiv_pos_as_xyz
  1  'x, y, z'
loop_
 _atom_site_type_symbol
 _atom_site_label
 _atom_site_symmetry_multiplicity
 _atom_site_fract_x
 _atom_site_fract_y
 _atom_site_fract_z
 _atom_site_occupancy
  Y  Y0  1  0.00000000  0.73739600  0.00000000  1
  Y  Y1  1  0.50000000  0.26260400  0.50000000  1
  Co  Co0  1  0.25000000  0.00000000  0.75000000  1
  Co  Co1  1  0.25000000  0.00000000  0.25000000  1
  Co  Co2  1  0.75000000  0.00000000  0.75000000  1
  Co  Co3  1  0.50000000  0.79391200  0.50000000  1
  Co  Co4  1  0.00000000  0.20608800  0.00000000  1
  Co  Co5  1  0.75000000  0.00000000  0.25000000  1
  Se  Se0  1  0.50000000  0.58954200  0.81105000  1
  Se  Se1  1  0.00000000  0.41045800  0.68895000  1
  Se  Se2  1  0.50000000  0.58954200  0.18895000  1
  Se  Se3  1  0.00000000  0.41045800  0.31105000  1
  Cl  Cl0  1  0.00000000  0.86092000  0.50000000  1
  Cl  Cl1  1  0.50000000  0.13908000  0.00000000  1
  O  O0  1  0.00000000  0.99977700  0.86378700  1
  O  O1  1  0.00000000  0.42439300  0.86888900  1
  O  O2  1  0.50000000  0.57560700  0.36888900  1
  O  O3  1  0.28915300  0.73633500  0.83881700  1
  O  O4  1  0.21084700  0.26366500  0.33881700  1
  O  O5  1  0.78915300  0.26366500  0.33881700  1
  O  O6  1  0.50000000  0.00022300  0.63621300  1
  O  O7  1  0.71084700  0.73633500  0.83881700  1
  O  O8  1  0.71084700  0.73633500  0.16118300  1
  O  O9  1  0.78915300  0.26366500  0.66118300  1
  O  O10  1  0.00000000  0.99977700  0.13621300  1
  O  O11  1  0.50000000  0.00022300  0.36378700  1
  O  O12  1  0.21084700  0.26366500  0.66118300  1
  O  O13  1  0.28915300  0.73633500  0.16118300  1
  O  O14  1  0.50000000  0.57560700  0.63111100  1
  O  O15  1  0.00000000  0.42439300  0.13111100  1
loop_
_geom_bond_atom_site_label_1
_geom_bond_atom_site_label_2
_geom_bond_distance
_geom_bond_site_symmetry_2
Co0 O6 1.942207 1_555
Co0 O0 1.942207 1_545
Co0 O3 2.105831 1_545
Co0 O12 2.105831 1_555
Co1 O11 1.942207 1_555
Co1 O10 1.942207 1_545
Co1 O4 2.105831 1_555
Co1 O13 2.105831 1_545
Co2 O6 1.942207 1_555
Co2 O0 1.942207 1_645
Co2 O9 2.105831 1_555
Co2 O7 2.105831 1_545
Co3 O11 1.989287 1_565
Co3 O6 1.989287 1_565
Co3 O2 2.023938 1_555
Co3 O14 2.023938 1_555
Co4 O10 1.989287 1_545
Co4 O0 1.989287 1_544
Co4 O1 2.023938 1_554
Co4 O15 2.023938 1_555
Co5 O11 1.942207 1_555
Co5 O10 1.942207 1_645
Co5 O5 2.105831 1_555
Co5 O8 2.105831 1_545
Cl0 Co0 3.067196 1_565
Cl0 Co2 3.067196 1_465
Cl0 Co1 3.067196 1_565
Cl0 Co5 3.067196 1_465
Cl1 Co1 3.067196 1_555
Cl1 Co5 3.067196 1_555
Cl1 Co2 3.067196 1_554
Cl1 Co0 3.067196 1_554
O0 Y0 2.309017 1_556
O1 Se1 1.741118 1_555
O1 Y0 2.593742 1_556
O2 Se2 1.741118 1_555
O2 Y1 2.593742 1_555
O3 Se0 1.738558 1_555
O3 Y0 2.419572 1_556
O4 Se3 1.738558 1_555
O4 Y1 2.419572 1_555
O5 Se3 1.738558 1_655
O5 Y1 2.419572 1_555
O6 Y1 2.309017 1_555
O7 Se0 1.738558 1_555
O7 Y0 2.419572 1_656
O8 Se2 1.738558 1_555
O8 Y0 2.419572 1_655
O9 Se1 1.738558 1_655
O9 Y1 2.419572 1_555
O10 Y0 2.309017 1_555
O11 Y1 2.309017 1_555
O12 Se1 1.738558 1_555
O12 Y1 2.419572 1_555
O13 Se2 1.738558 1_555
O13 Y0 2.419572 1_555
O14 Se0 1.741118 1_555
O14 Y1 2.593742 1_555
O15 Se3 1.741118 1_555
O15 Y0 2.593742 1_555
