# generated using pymatgen
data_Mg6ZrW
_symmetry_space_group_name_H-M   'P 1'
_cell_length_a   4.94200900
_cell_length_b   6.07906400
_cell_length_c   11.14853100
_cell_angle_alpha   90.00000000
_cell_angle_beta   90.00000000
_cell_angle_gamma   90.00000000
_symmetry_Int_Tables_number   1
_chemical_formula_structural   Mg6ZrW
_chemical_formula_sum   'Mg12 Zr2 W2'
_cell_volume   334.93296449
_cell_formula_units_Z   2
loop_
 _symmetry_equiv_pos_site_id
 _symmetry_equiv_pos_as_xyz
  1  'x, y, z'
loop_
 _atom_site_type_symbol
 _atom_site_label
 _atom_site_symmetry_multiplicity
 _atom_site_fract_x
 _atom_site_fract_y
 _atom_site_fract_z
 _atom_site_occupancy
  Mg  Mg0  1  0.00000000  0.25627000  0.07083900  1
  Mg  Mg1  1  0.00000000  0.74373000  0.07083900  1
  Mg  Mg2  1  0.00000000  0.00000000  0.32856300  1
  Mg  Mg3  1  0.50000000  0.74680400  0.42774100  1
  Mg  Mg4  1  0.50000000  0.25319600  0.42774100  1
  Mg  Mg5  1  0.50000000  0.00000000  0.17533600  1
  Mg  Mg6  1  0.00000000  0.75627000  0.57083900  1
  Mg  Mg7  1  0.00000000  0.24373000  0.57083900  1
  Mg  Mg8  1  0.00000000  0.50000000  0.82856300  1
  Mg  Mg9  1  0.50000000  0.24680400  0.92774100  1
  Mg  Mg10  1  0.50000000  0.75319600  0.92774100  1
  Mg  Mg11  1  0.50000000  0.50000000  0.67533600  1
  Zr  Zr0  1  0.00000000  0.50000000  0.30049300  1
  Zr  Zr1  1  0.00000000  0.00000000  0.80049300  1
  W  W0  1  0.50000000  0.50000000  0.19844700  1
  W  W1  1  0.50000000  0.00000000  0.69844700  1
loop_
_geom_bond_atom_site_label_1
_geom_bond_atom_site_label_2
_geom_bond_distance
_geom_bond_site_symmetry_2
Mg0 Mg9 2.941812 1_554
Mg0 Mg9 2.941812 1_454
Mg0 Zr0 2.958116 1_555
Mg0 Mg1 2.963301 1_555
Mg0 Mg8 3.080715 1_554
Mg0 Mg1 3.115763 1_545
Mg0 Mg5 3.144846 1_555
Mg0 Mg5 3.144846 1_455
Mg0 W0 3.213263 1_455
Mg0 W0 3.213263 1_555
Mg0 Mg2 3.268413 1_555
Mg0 Zr1 3.392780 1_554
Mg1 Mg10 2.941812 1_454
Mg1 Mg10 2.941812 1_554
Mg1 Zr0 2.958116 1_555
Mg1 Mg8 3.080715 1_554
Mg1 Mg5 3.144846 1_465
Mg1 Mg5 3.144846 1_565
Mg1 W0 3.213263 1_455
Mg1 W0 3.213263 1_555
Mg1 Mg2 3.268413 1_565
Mg1 Zr1 3.392780 1_564
Mg2 Mg5 3.003998 1_555
Mg2 Mg5 3.003998 1_455
Mg2 Zr0 3.055599 1_545
Mg2 Zr0 3.055599 1_555
Mg2 Mg6 3.080715 1_545
Mg2 Mg7 3.080715 1_555
Mg2 Mg3 3.114086 1_545
Mg2 Mg3 3.114086 1_445
Mg2 Mg4 3.114086 1_555
Mg2 Mg4 3.114086 1_455
Mg3 Mg6 2.941812 1_555
Mg3 Mg6 2.941812 1_655
Mg3 W0 2.964058 1_555
Mg3 W1 3.387815 1_565
Mg4 Mg7 2.941812 1_655
Mg4 Mg7 2.941812 1_555
Mg4 W0 2.964058 1_555
Mg4 W1 3.387815 1_555
Mg5 W0 3.050433 1_555
Mg5 W0 3.050433 1_545
Mg6 Zr1 2.958116 1_565
Mg6 Mg7 2.963301 1_565
Mg6 Mg7 3.115763 1_555
Mg6 W1 3.213263 1_565
Mg6 W1 3.213263 1_465
Mg6 Mg8 3.268413 1_555
Mg6 Zr0 3.392780 1_555
Mg7 Zr1 2.958116 1_555
Mg7 W1 3.213263 1_455
Mg7 W1 3.213263 1_555
Mg7 Mg8 3.268413 1_555
Mg7 Zr0 3.392780 1_555
Mg8 Zr1 3.055599 1_565
Mg8 Zr1 3.055599 1_555
Mg8 Mg9 3.114086 1_555
Mg8 Mg9 3.114086 1_455
Mg9 W1 2.964058 1_555
Mg9 W0 3.387815 1_556
Mg10 W1 2.964058 1_565
Mg10 Mg8 3.114086 1_555
Mg10 Mg8 3.114086 1_655
Mg10 W0 3.387815 1_556
Mg11 Mg8 3.003998 1_655
Mg11 Mg8 3.003998 1_555
Mg11 W1 3.050433 1_565
Mg11 W1 3.050433 1_555
Mg11 Mg7 3.144846 1_555
Mg11 Mg6 3.144846 1_655
Mg11 Mg7 3.144846 1_655
Mg11 Mg6 3.144846 1_555
W0 Zr0 2.720320 1_555
W0 Zr0 2.720320 1_655
W1 Zr1 2.720320 1_555
W1 Zr1 2.720320 1_655
