# generated using pymatgen
data_Mg14BMo
_symmetry_space_group_name_H-M   'P 1'
_cell_length_a   6.18763339
_cell_length_b   6.18763292
_cell_length_c   9.74268386
_cell_angle_alpha   90.00000000
_cell_angle_beta   90.00000000
_cell_angle_gamma   120.00000248
_symmetry_Int_Tables_number   1
_chemical_formula_structural   Mg14BMo
_chemical_formula_sum   'Mg14 B1 Mo1'
_cell_volume   323.04152113
_cell_formula_units_Z   1
loop_
 _symmetry_equiv_pos_site_id
 _symmetry_equiv_pos_as_xyz
  1  'x, y, z'
loop_
 _atom_site_type_symbol
 _atom_site_label
 _atom_site_symmetry_multiplicity
 _atom_site_fract_x
 _atom_site_fract_y
 _atom_site_fract_z
 _atom_site_occupancy
  Mg  Mg0  1  0.17054432  0.83527166  0.12500000  1
  Mg  Mg1  1  0.16520029  0.83259964  0.62500000  1
  Mg  Mg2  1  0.66472834  0.32945568  0.12500000  1
  Mg  Mg3  1  0.66740036  0.33479971  0.62500000  1
  Mg  Mg4  1  0.66472834  0.83527166  0.12500000  1
  Mg  Mg5  1  0.66740036  0.83259964  0.62500000  1
  Mg  Mg6  1  0.32300658  0.17699342  0.37817477  1
  Mg  Mg7  1  0.32300658  0.17699342  0.87182523  1
  Mg  Mg8  1  0.32300658  0.64601416  0.37817477  1
  Mg  Mg9  1  0.32300658  0.64601416  0.87182523  1
  Mg  Mg10  1  0.85398584  0.17699342  0.37817477  1
  Mg  Mg11  1  0.85398584  0.17699342  0.87182523  1
  Mg  Mg12  1  0.83333300  0.66666700  0.37143614  1
  Mg  Mg13  1  0.83333300  0.66666700  0.87856386  1
  B  B0  1  0.16666700  0.33333300  0.62500000  1
  Mo  Mo0  1  0.16666700  0.33333300  0.12500000  1
loop_
_geom_bond_atom_site_label_1
_geom_bond_atom_site_label_2
_geom_bond_distance
_geom_bond_site_symmetry_2
Mg0 Mg13 3.004962 1_454
Mg0 Mg12 3.004962 1_455
Mg0 Mg2 3.057829 1_565
Mg0 Mg4 3.057830 1_555
Mg0 Mg8 3.074120 1_555
Mg0 Mg9 3.074120 1_554
Mg0 Mg7 3.074127 1_564
Mg0 Mg6 3.074127 1_565
Mg0 Mo0 3.093886 1_555
Mg0 Mo0 3.093886 1_565
Mg0 Mg2 3.129804 1_455
Mg0 Mg4 3.129804 1_455
Mg1 Mg8 3.032569 1_555
Mg1 Mg9 3.032569 1_555
Mg1 Mg6 3.032576 1_565
Mg1 Mg7 3.032576 1_565
Mg1 Mg12 3.043912 1_455
Mg1 Mg13 3.043912 1_455
Mg2 Mg4 3.057829 1_545
Mg2 Mg7 3.074127 1_554
Mg2 Mg6 3.074127 1_555
Mg2 Mo0 3.093886 1_555
Mg2 Mo0 3.093886 1_655
Mg2 Mg4 3.129804 1_555
Mg3 Mg7 3.032576 1_555
Mg3 Mg6 3.032576 1_555
Mg4 Mg9 3.074126 1_554
Mg4 Mg8 3.074126 1_555
Mg4 Mo0 3.093886 1_555
Mg4 Mo0 3.093886 1_665
Mg5 Mg9 3.032576 1_555
Mg5 Mg8 3.032576 1_555
Mg6 Mg8 2.902128 1_555
Mg6 Mo0 2.981870 1_555
Mg6 Mg8 3.285505 1_545
Mg7 Mg9 2.902128 1_555
Mg7 Mo0 2.981870 1_556
Mg7 Mg9 3.285505 1_545
Mg8 Mo0 2.981876 1_555
Mg9 Mo0 2.981876 1_556
Mg10 Mg8 2.902128 1_655
Mg10 Mg6 2.902128 1_655
Mg10 Mo0 2.981876 1_655
Mg10 Mg3 3.032570 1_555
Mg10 Mg5 3.032576 1_545
Mg10 Mg2 3.074120 1_555
Mg10 Mg4 3.074126 1_545
Mg10 Mg12 3.096491 1_545
Mg10 Mg12 3.096491 1_555
Mg10 Mg8 3.285505 1_545
Mg10 Mg6 3.285505 1_555
Mg11 Mg9 2.902128 1_655
Mg11 Mg7 2.902128 1_655
Mg11 Mo0 2.981876 1_656
Mg11 Mg3 3.032570 1_555
Mg11 Mg5 3.032576 1_545
Mg11 Mg2 3.074120 1_556
Mg11 Mg4 3.074126 1_546
Mg11 Mg13 3.096491 1_545
Mg11 Mg13 3.096491 1_555
Mg11 Mg9 3.285505 1_545
Mg11 Mg7 3.285505 1_555
Mg12 Mg4 3.004955 1_555
Mg12 Mg2 3.004962 1_555
Mg12 Mg5 3.043906 1_555
Mg12 Mg3 3.043912 1_555
Mg12 Mg6 3.096491 1_665
Mg12 Mg6 3.096491 1_555
Mg12 Mg8 3.096492 1_655
Mg12 Mg8 3.096492 1_555
Mg13 Mg4 3.004955 1_556
Mg13 Mg2 3.004962 1_556
Mg13 Mg5 3.043906 1_555
Mg13 Mg3 3.043912 1_555
Mg13 Mg7 3.096491 1_665
Mg13 Mg7 3.096491 1_555
Mg13 Mg9 3.096492 1_655
Mg13 Mg9 3.096492 1_555
B0 Mg6 2.930904 1_555
B0 Mg7 2.930904 1_555
B0 Mg9 2.930911 1_555
B0 Mg8 2.930911 1_555
B0 Mg10 2.930911 1_455
B0 Mg11 2.930911 1_455
