# generated using pymatgen
data_TlInHg2
_symmetry_space_group_name_H-M   'P 1'
_cell_length_a   12.46144636
_cell_length_b   12.46144636
_cell_length_c   12.46144636
_cell_angle_alpha   120.95336705
_cell_angle_beta   119.46403082
_cell_angle_gamma   89.64377106
_symmetry_Int_Tables_number   1
_chemical_formula_structural   TlInHg2
_chemical_formula_sum   'Tl1 In1 Hg2'
_cell_volume   1363.69328022
_cell_formula_units_Z   1
loop_
 _symmetry_equiv_pos_site_id
 _symmetry_equiv_pos_as_xyz
  1  'x, y, z'
loop_
 _atom_site_type_symbol
 _atom_site_label
 _atom_site_symmetry_multiplicity
 _atom_site_fract_x
 _atom_site_fract_y
 _atom_site_fract_z
 _atom_site_occupancy
  Tl  Tl0  1  0.00000000  0.50000000  0.50000000  1
  In  In0  1  0.00000000  0.00000000  0.00000000  1
  Hg  Hg0  1  0.00000000  0.24643600  0.24643600  1
  Hg  Hg1  1  0.00000000  0.75356400  0.75356400  1
loop_
_geom_bond_atom_site_label_1
_geom_bond_atom_site_label_2
_geom_bond_distance
_geom_bond_site_symmetry_2
Hg0 In0 3.026590 1_555
Hg0 Tl0 3.114133 1_555
Hg1 In0 3.026590 1_566
Hg1 Tl0 3.114133 1_555
