# generated using pymatgen
data_Dy2Al3Fe
_symmetry_space_group_name_H-M   'P 1'
_cell_length_a   5.40118869
_cell_length_b   5.40118869
_cell_length_c   5.40118910
_cell_angle_alpha   61.48289370
_cell_angle_beta   61.48289370
_cell_angle_gamma   61.48290624
_symmetry_Int_Tables_number   1
_chemical_formula_structural   Dy2Al3Fe
_chemical_formula_sum   'Dy2 Al3 Fe1'
_cell_volume   115.12664066
_cell_formula_units_Z   1
loop_
 _symmetry_equiv_pos_site_id
 _symmetry_equiv_pos_as_xyz
  1  'x, y, z'
loop_
 _atom_site_type_symbol
 _atom_site_label
 _atom_site_symmetry_multiplicity
 _atom_site_fract_x
 _atom_site_fract_y
 _atom_site_fract_z
 _atom_site_occupancy
  Dy  Dy0  1  0.62582901  0.62582901  0.62582901  1
  Dy  Dy1  1  0.37417099  0.37417099  0.37417099  1
  Al  Al0  1  0.00000000  0.50000000  0.00000000  1
  Al  Al1  1  0.50000000  0.00000000  0.00000000  1
  Al  Al2  1  0.00000000  0.00000000  0.50000000  1
  Fe  Fe0  1  0.00000000  0.00000000  0.00000000  1
loop_
_geom_bond_atom_site_label_1
_geom_bond_atom_site_label_2
_geom_bond_distance
_geom_bond_site_symmetry_2
Dy0 Fe0 3.232449 1_665
Dy0 Fe0 3.232450 1_656
Dy0 Fe0 3.232450 1_566
Dy0 Dy1 3.291672 1_555
Dy0 Dy1 3.362245 1_556
Dy0 Dy1 3.362245 1_565
Dy0 Dy1 3.362245 1_655
Dy1 Fe0 3.232449 1_556
Dy1 Fe0 3.232450 1_565
Dy1 Fe0 3.232450 1_655
Al0 Fe0 2.700594 1_555
Al0 Fe0 2.700594 1_565
Al0 Al2 2.760898 1_564
Al0 Al2 2.760898 1_555
Al0 Al1 2.760898 1_555
Al0 Al1 2.760898 1_465
Al0 Dy1 3.147608 1_555
Al0 Dy0 3.147608 1_454
Al0 Dy1 3.214239 1_455
Al0 Dy0 3.214239 1_554
Al0 Dy0 3.214239 1_455
Al0 Dy1 3.214239 1_554
Al1 Fe0 2.700594 1_555
Al1 Fe0 2.700594 1_655
Al1 Al2 2.760898 1_654
Al1 Al2 2.760898 1_555
Al1 Dy1 3.147608 1_555
Al1 Dy0 3.147608 1_544
Al1 Dy1 3.214239 1_545
Al1 Dy0 3.214239 1_554
Al1 Dy1 3.214239 1_554
Al1 Dy0 3.214239 1_545
Al2 Fe0 2.700595 1_556
Al2 Fe0 2.700595 1_555
Al2 Dy1 3.147607 1_555
Al2 Dy0 3.147607 1_445
Al2 Dy0 3.214239 1_455
Al2 Dy0 3.214239 1_545
Al2 Dy1 3.214239 1_455
Al2 Dy1 3.214239 1_545
