# generated using pymatgen
data_Ti10CuSn6
_symmetry_space_group_name_H-M   'P 1'
_cell_length_a   8.15994418
_cell_length_b   8.15994418
_cell_length_c   5.50324500
_cell_angle_alpha   90.00000000
_cell_angle_beta   90.00000000
_cell_angle_gamma   120.00000142
_symmetry_Int_Tables_number   1
_chemical_formula_structural   Ti10CuSn6
_chemical_formula_sum   'Ti10 Cu1 Sn6'
_cell_volume   317.33929195
_cell_formula_units_Z   1
loop_
 _symmetry_equiv_pos_site_id
 _symmetry_equiv_pos_as_xyz
  1  'x, y, z'
loop_
 _atom_site_type_symbol
 _atom_site_label
 _atom_site_symmetry_multiplicity
 _atom_site_fract_x
 _atom_site_fract_y
 _atom_site_fract_z
 _atom_site_occupancy
  Ti  Ti0  1  0.66666700  0.33333300  0.50000000  1
  Ti  Ti1  1  0.33333300  0.66666700  0.50000000  1
  Ti  Ti2  1  0.33333300  0.66666700  0.00000000  1
  Ti  Ti3  1  0.66666700  0.33333300  0.00000000  1
  Ti  Ti4  1  0.73770000  0.73770000  0.24048900  1
  Ti  Ti5  1  0.26230000  0.00000000  0.24048900  1
  Ti  Ti6  1  0.00000000  0.26230000  0.24048900  1
  Ti  Ti7  1  0.26230000  0.26230000  0.75951100  1
  Ti  Ti8  1  0.73770000  0.00000000  0.75951100  1
  Ti  Ti9  1  0.00000000  0.73770000  0.75951100  1
  Cu  Cu0  1  0.00000000  0.00000000  0.50000000  1
  Sn  Sn0  1  0.38558100  0.38558100  0.25474000  1
  Sn  Sn1  1  0.61441900  0.00000000  0.25474000  1
  Sn  Sn2  1  0.00000000  0.61441900  0.25474000  1
  Sn  Sn3  1  0.61441900  0.61441900  0.74526000  1
  Sn  Sn4  1  0.38558100  0.00000000  0.74526000  1
  Sn  Sn5  1  0.00000000  0.38558100  0.74526000  1
loop_
_geom_bond_atom_site_label_1
_geom_bond_atom_site_label_2
_geom_bond_distance
_geom_bond_site_symmetry_2
Ti0 Ti3 2.751622 1_556
Ti0 Ti3 2.751622 1_555
Ti1 Ti2 2.751622 1_556
Ti1 Ti2 2.751622 1_555
Cu0 Ti7 2.573078 1_555
Cu0 Ti4 2.573078 1_445
Cu0 Ti9 2.573078 1_545
Cu0 Ti8 2.573078 1_455
Cu0 Ti5 2.573078 1_555
Cu0 Ti6 2.573078 1_555
Sn0 Ti5 2.784305 1_555
Sn0 Ti6 2.784305 1_555
Sn0 Ti1 2.870926 1_555
Sn0 Ti0 2.870926 1_555
Sn0 Ti4 2.874341 1_555
Sn0 Ti2 2.895819 1_555
Sn0 Ti3 2.895819 1_555
Sn0 Ti7 2.905097 1_554
Sn0 Ti7 2.954416 1_555
Sn1 Ti6 2.784305 1_655
Sn1 Ti4 2.784305 1_545
Sn1 Ti0 2.870918 1_555
Sn1 Ti1 2.870921 1_545
Sn1 Ti5 2.874342 1_555
Sn1 Ti3 2.895812 1_555
Sn1 Ti2 2.895815 1_545
Sn1 Ti8 2.905097 1_554
Sn1 Ti8 2.954416 1_555
Sn2 Ti5 2.784305 1_565
Sn2 Ti4 2.784305 1_455
Sn2 Ti1 2.870918 1_555
Sn2 Ti0 2.870921 1_455
Sn2 Ti6 2.874342 1_555
Sn2 Ti2 2.895812 1_555
Sn2 Ti3 2.895815 1_455
Sn2 Ti9 2.905097 1_554
Sn2 Ti9 2.954416 1_555
Sn3 Ti9 2.784305 1_655
Sn3 Ti8 2.784305 1_565
Sn3 Ti0 2.870926 1_555
Sn3 Ti1 2.870926 1_555
Sn3 Ti7 2.874341 1_555
Sn3 Ti3 2.895819 1_556
Sn3 Ti2 2.895819 1_556
Sn3 Ti4 2.905097 1_556
Sn3 Ti4 2.954416 1_555
Sn4 Ti9 2.784305 1_545
Sn4 Ti7 2.784305 1_555
Sn4 Ti1 2.870918 1_545
Sn4 Ti0 2.870921 1_555
Sn4 Ti8 2.874342 1_555
Sn4 Ti2 2.895812 1_546
Sn4 Ti3 2.895815 1_556
Sn4 Ti5 2.905097 1_556
Sn4 Ti5 2.954416 1_555
Sn5 Ti8 2.784305 1_455
Sn5 Ti7 2.784305 1_555
Sn5 Ti0 2.870918 1_455
Sn5 Ti1 2.870921 1_555
Sn5 Ti9 2.874342 1_555
Sn5 Ti3 2.895812 1_456
Sn5 Ti2 2.895815 1_556
Sn5 Ti6 2.905097 1_556
Sn5 Ti6 2.954416 1_555
