# generated using pymatgen
data_Y3Ni7B2
_symmetry_space_group_name_H-M   'P 1'
_cell_length_a   5.07858800
_cell_length_b   5.07858781
_cell_length_c   14.25662700
_cell_angle_alpha   90.00000000
_cell_angle_beta   90.00000000
_cell_angle_gamma   120.00000126
_symmetry_Int_Tables_number   1
_chemical_formula_structural   Y3Ni7B2
_chemical_formula_sum   'Y6 Ni14 B4'
_cell_volume   318.44421312
_cell_formula_units_Z   2
loop_
 _symmetry_equiv_pos_site_id
 _symmetry_equiv_pos_as_xyz
  1  'x, y, z'
loop_
 _atom_site_type_symbol
 _atom_site_label
 _atom_site_symmetry_multiplicity
 _atom_site_fract_x
 _atom_site_fract_y
 _atom_site_fract_z
 _atom_site_occupancy
  Y  Y0  1  0.33333300  0.66666700  0.96917800  1
  Y  Y1  1  0.66666700  0.33333300  0.03082200  1
  Y  Y2  1  0.66666700  0.33333300  0.46917800  1
  Y  Y3  1  0.33333300  0.66666700  0.53082200  1
  Y  Y4  1  0.33333300  0.66666700  0.75000000  1
  Y  Y5  1  0.66666700  0.33333300  0.25000000  1
  Ni  Ni0  1  0.16558100  0.83441900  0.34965000  1
  Ni  Ni1  1  0.16558100  0.33116200  0.34965000  1
  Ni  Ni2  1  0.66883800  0.83441900  0.34965000  1
  Ni  Ni3  1  0.83441900  0.16558100  0.65035000  1
  Ni  Ni4  1  0.83441900  0.66883800  0.65035000  1
  Ni  Ni5  1  0.33116200  0.16558100  0.65035000  1
  Ni  Ni6  1  0.83441900  0.16558100  0.84965000  1
  Ni  Ni7  1  0.83441900  0.66883800  0.84965000  1
  Ni  Ni8  1  0.33116200  0.16558100  0.84965000  1
  Ni  Ni9  1  0.16558100  0.83441900  0.15035000  1
  Ni  Ni10  1  0.16558100  0.33116200  0.15035000  1
  Ni  Ni11  1  0.66883800  0.83441900  0.15035000  1
  Ni  Ni12  1  0.00000000  0.00000000  0.50000000  1
  Ni  Ni13  1  0.00000000  0.00000000  0.00000000  1
  B  B0  1  0.33333300  0.66666700  0.25000000  1
  B  B1  1  0.66666700  0.33333300  0.75000000  1
  B  B2  1  0.00000000  0.00000000  0.25000000  1
  B  B3  1  0.00000000  0.00000000  0.75000000  1
loop_
_geom_bond_atom_site_label_1
_geom_bond_atom_site_label_2
_geom_bond_distance
_geom_bond_site_symmetry_2
Y0 Y4 3.124739 1_555
Y1 Y5 3.124739 1_555
Y2 Y5 3.124739 1_555
Y3 Y4 3.124739 1_555
Ni0 Ni12 2.591515 1_565
Ni0 Y5 2.909711 1_455
Ni0 Y5 2.909711 1_565
Ni0 Y3 2.974694 1_555
Ni0 Y2 3.058095 1_455
Ni0 Y2 3.058095 1_565
Ni1 Ni12 2.591515 1_555
Ni1 Y5 2.909709 1_455
Ni1 Y5 2.909713 1_555
Ni1 Y3 2.974696 1_555
Ni1 Y2 3.058093 1_455
Ni1 Y2 3.058097 1_555
Ni2 Y5 2.909708 1_565
Ni2 Y5 2.909713 1_555
Ni2 Y3 2.974696 1_555
Ni2 Y2 3.058093 1_565
Ni2 Y2 3.058097 1_555
Ni3 Y4 2.909711 1_655
Ni3 Y4 2.909711 1_545
Ni3 Y2 2.974694 1_555
Ni3 Y3 3.058095 1_655
Ni3 Y3 3.058095 1_545
Ni4 Y4 2.909709 1_655
Ni4 Y4 2.909713 1_555
Ni4 Y2 2.974696 1_555
Ni4 Y3 3.058093 1_655
Ni4 Y3 3.058097 1_555
Ni5 Y4 2.909708 1_545
Ni5 Y4 2.909713 1_555
Ni5 Y2 2.974696 1_555
Ni5 Y3 3.058093 1_545
Ni5 Y3 3.058097 1_555
Ni6 Y4 2.909711 1_655
Ni6 Y4 2.909711 1_545
Ni6 Y1 2.974694 1_556
Ni6 Y0 3.058095 1_655
Ni6 Y0 3.058095 1_545
Ni7 Y4 2.909709 1_655
Ni7 Y4 2.909713 1_555
Ni7 Y1 2.974696 1_556
Ni7 Y0 3.058093 1_655
Ni7 Y0 3.058097 1_555
Ni8 Y4 2.909708 1_545
Ni8 Y4 2.909713 1_555
Ni8 Y1 2.974696 1_556
Ni8 Y0 3.058093 1_545
Ni8 Y0 3.058097 1_555
Ni9 Y5 2.909711 1_455
Ni9 Y5 2.909711 1_565
Ni9 Y0 2.974694 1_554
Ni9 Y1 3.058095 1_455
Ni9 Y1 3.058095 1_565
Ni10 Ni13 2.591515 1_555
Ni10 Y5 2.909709 1_455
Ni10 Y5 2.909713 1_555
Ni10 Y0 2.974696 1_554
Ni10 Y1 3.058093 1_455
Ni10 Y1 3.058097 1_555
Ni11 Ni13 2.591515 1_665
Ni11 Y5 2.909708 1_565
Ni11 Y5 2.909713 1_555
Ni11 Y0 2.974696 1_554
Ni11 Y1 3.058093 1_565
Ni11 Y1 3.058097 1_555
Ni12 Ni4 2.591515 1_445
Ni12 Ni2 2.591515 1_445
Ni12 Ni3 2.591515 1_455
Ni12 Ni5 2.591515 1_555
Ni12 Y2 2.964865 1_455
Ni12 Y3 2.964865 1_545
Ni12 Y2 2.964869 1_445
Ni12 Y3 2.964869 1_555
Ni12 Y3 2.964869 1_445
Ni12 Y2 2.964869 1_555
Ni13 Ni7 2.591515 1_444
Ni13 Ni6 2.591515 1_454
Ni13 Ni9 2.591515 1_545
Ni13 Ni8 2.591515 1_554
Ni13 Y0 2.964865 1_544
Ni13 Y1 2.964865 1_455
Ni13 Y0 2.964869 1_554
Ni13 Y1 2.964869 1_445
Ni13 Y1 2.964869 1_555
Ni13 Y0 2.964869 1_444
B0 Ni9 2.048349 1_555
B0 Ni0 2.048349 1_555
B0 Ni10 2.048352 1_555
B0 Ni1 2.048352 1_555
B0 Ni11 2.048352 1_555
B0 Ni2 2.048352 1_555
B0 Y5 2.932121 1_565
B0 Y5 2.932121 1_455
B0 Y5 2.932130 1_555
B1 Ni6 2.048349 1_555
B1 Ni3 2.048349 1_555
B1 Ni7 2.048352 1_555
B1 Ni4 2.048352 1_555
B1 Ni5 2.048352 1_555
B1 Ni8 2.048352 1_555
B1 Y4 2.932121 1_545
B1 Y4 2.932121 1_655
B1 Y4 2.932130 1_555
B2 Ni10 2.034635 1_555
B2 Ni1 2.034635 1_555
B2 Ni11 2.034635 1_445
B2 Ni9 2.034635 1_545
B2 Ni2 2.034635 1_445
B2 Ni0 2.034635 1_545
B2 Y5 2.932121 1_455
B2 Y5 2.932125 1_445
B2 Y5 2.932126 1_555
B3 Ni7 2.034635 1_445
B3 Ni4 2.034635 1_445
B3 Ni3 2.034635 1_455
B3 Ni5 2.034635 1_555
B3 Ni8 2.034635 1_555
B3 Ni6 2.034635 1_455
B3 Y4 2.932121 1_545
B3 Y4 2.932125 1_555
B3 Y4 2.932126 1_445
