# generated using pymatgen
data_Na4BrN3
_symmetry_space_group_name_H-M   'P 1'
_cell_length_a   6.74322700
_cell_length_b   8.54589200
_cell_length_c   12.13249700
_cell_angle_alpha   90.00000000
_cell_angle_beta   90.00000000
_cell_angle_gamma   90.00000000
_symmetry_Int_Tables_number   1
_chemical_formula_structural   Na4BrN3
_chemical_formula_sum   'Na16 Br4 N12'
_cell_volume   699.15806608
_cell_formula_units_Z   4
loop_
 _symmetry_equiv_pos_site_id
 _symmetry_equiv_pos_as_xyz
  1  'x, y, z'
loop_
 _atom_site_type_symbol
 _atom_site_label
 _atom_site_symmetry_multiplicity
 _atom_site_fract_x
 _atom_site_fract_y
 _atom_site_fract_z
 _atom_site_occupancy
  Na  Na0  1  0.50000000  0.17670400  0.50000000  1
  Na  Na1  1  0.00000000  0.32329600  0.00000000  1
  Na  Na2  1  0.50000000  0.82329600  0.50000000  1
  Na  Na3  1  0.00000000  0.67670400  0.00000000  1
  Na  Na4  1  0.30215800  0.00000000  0.89008200  1
  Na  Na5  1  0.69784200  0.00000000  0.10991800  1
  Na  Na6  1  0.80215800  0.50000000  0.60991800  1
  Na  Na7  1  0.19784200  0.50000000  0.39008200  1
  Na  Na8  1  0.07850700  0.24396800  0.72336300  1
  Na  Na9  1  0.92149300  0.24396800  0.27663700  1
  Na  Na10  1  0.57850700  0.25603200  0.77663700  1
  Na  Na11  1  0.42149300  0.25603200  0.22336300  1
  Na  Na12  1  0.92149300  0.75603200  0.27663700  1
  Na  Na13  1  0.07850700  0.75603200  0.72336300  1
  Na  Na14  1  0.42149300  0.74396800  0.22336300  1
  Na  Na15  1  0.57850700  0.74396800  0.77663700  1
  Br  Br0  1  0.31655100  0.50000000  0.61853300  1
  Br  Br1  1  0.68344900  0.50000000  0.38146700  1
  Br  Br2  1  0.81655100  0.00000000  0.88146700  1
  Br  Br3  1  0.18344900  0.00000000  0.11853300  1
  N  N0  1  0.34799800  0.00000000  0.68672600  1
  N  N1  1  0.65200200  0.00000000  0.31327400  1
  N  N2  1  0.84799800  0.50000000  0.81327400  1
  N  N3  1  0.15200200  0.50000000  0.18672600  1
  N  N4  1  0.28100100  0.27147400  0.88239900  1
  N  N5  1  0.71899900  0.27147400  0.11760100  1
  N  N6  1  0.78100100  0.22852600  0.61760100  1
  N  N7  1  0.21899900  0.22852600  0.38239900  1
  N  N8  1  0.71899900  0.72852600  0.11760100  1
  N  N9  1  0.28100100  0.72852600  0.88239900  1
  N  N10  1  0.21899900  0.77147400  0.38239900  1
  N  N11  1  0.78100100  0.77147400  0.61760100  1
loop_
_geom_bond_atom_site_label_1
_geom_bond_atom_site_label_2
_geom_bond_distance
_geom_bond_site_symmetry_2
Br0 Na7 2.884959 1_555
Br0 Na13 2.996942 1_555
Br0 Na8 2.996942 1_555
Br0 Na6 3.276226 1_555
Br0 Na10 3.338661 1_555
Br0 Na15 3.338661 1_555
Br0 Na2 3.351381 1_555
Br0 Na0 3.351381 1_555
Br0 Na6 3.470243 1_455
Br1 Na6 2.884959 1_555
Br1 Na9 2.996942 1_555
Br1 Na12 2.996942 1_555
Br1 Na7 3.276226 1_555
Br1 Na14 3.338661 1_555
Br1 Na11 3.338661 1_555
Br1 Na2 3.351381 1_555
Br1 Na0 3.351381 1_555
Br1 Na7 3.470243 1_655
Br2 Na5 2.884959 1_556
Br2 Na10 2.996942 1_555
Br2 Na15 2.996942 1_545
Br2 Na4 3.276226 1_655
Br2 Na13 3.338661 1_645
Br2 Na8 3.338661 1_655
Br2 Na1 3.351381 1_656
Br2 Na3 3.351381 1_646
Br2 Na4 3.470243 1_555
Br3 Na4 2.884959 1_554
Br3 Na11 2.996942 1_555
Br3 Na14 2.996942 1_545
Br3 Na5 3.276226 1_455
Br3 Na12 3.338661 1_445
Br3 Na9 3.338661 1_455
Br3 Na1 3.351381 1_555
Br3 Na3 3.351381 1_545
Br3 Na5 3.470243 1_555
N0 Na4 2.486504 1_555
N0 Na8 2.801222 1_555
N0 Na13 2.801222 1_545
N0 Na15 2.897147 1_545
N0 Na10 2.897147 1_555
N0 Na0 2.909166 1_555
N0 Na2 2.909166 1_545
N1 Na5 2.486504 1_555
N1 Na9 2.801222 1_555
N1 Na12 2.801222 1_545
N1 Na11 2.897147 1_555
N1 Na14 2.897147 1_545
N1 Na0 2.909166 1_555
N1 Na2 2.909166 1_545
N2 Na6 2.486504 1_555
N2 Na15 2.801222 1_555
N2 Na10 2.801222 1_555
N2 Na8 2.897147 1_655
N2 Na13 2.897147 1_655
N2 Na3 2.909166 1_656
N2 Na1 2.909166 1_656
N3 Na7 2.486504 1_555
N3 Na14 2.801222 1_555
N3 Na11 2.801222 1_555
N3 Na9 2.897147 1_455
N3 Na12 2.897147 1_455
N3 Na3 2.909166 1_555
N3 Na1 2.909166 1_555
N4 Na4 2.326238 1_555
N4 Na8 2.375443 1_555
N4 Na10 2.385068 1_555
N4 Na1 2.412953 1_556
N5 Na5 2.326238 1_555
N5 Na9 2.375443 1_555
N5 Na11 2.385068 1_555
N5 Na1 2.412953 1_655
N6 Na6 2.326238 1_555
N6 Na10 2.375443 1_555
N6 Na8 2.385068 1_655
N6 Na0 2.412953 1_555
N7 Na7 2.326238 1_555
N7 Na11 2.375443 1_555
N7 Na9 2.385068 1_455
N7 Na0 2.412953 1_555
N8 Na5 2.326238 1_565
N8 Na12 2.375443 1_555
N8 Na14 2.385068 1_555
N8 Na3 2.412953 1_655
N9 Na4 2.326238 1_565
N9 Na13 2.375443 1_555
N9 Na15 2.385068 1_555
N9 Na3 2.412953 1_556
N10 Na7 2.326238 1_555
N10 Na14 2.375443 1_555
N10 Na12 2.385068 1_455
N10 Na2 2.412953 1_555
N11 Na6 2.326238 1_555
N11 Na15 2.375443 1_555
N11 Na13 2.385068 1_655
N11 Na2 2.412953 1_555
