# generated using pymatgen
data_SiO2
_symmetry_space_group_name_H-M   'P 1'
_cell_length_a   14.18631780
_cell_length_b   18.60718528
_cell_length_c   7.52759404
_cell_angle_alpha   90.00001817
_cell_angle_beta   99.76723490
_cell_angle_gamma   90.00001659
_symmetry_Int_Tables_number   1
_chemical_formula_structural   SiO2
_chemical_formula_sum   'Si32 O64'
_cell_volume   1958.23775967
_cell_formula_units_Z   32
loop_
 _symmetry_equiv_pos_site_id
 _symmetry_equiv_pos_as_xyz
  1  'x, y, z'
loop_
 _atom_site_type_symbol
 _atom_site_label
 _atom_site_symmetry_multiplicity
 _atom_site_fract_x
 _atom_site_fract_y
 _atom_site_fract_z
 _atom_site_occupancy
  Si  Si0  1  0.40759791  0.84315329  0.05308310  1
  Si  Si1  1  0.90759553  0.34315316  0.05308395  1
  Si  Si2  1  0.60947597  0.84316597  0.93550770  1
  Si  Si3  1  0.10947401  0.34316573  0.93551461  1
  Si  Si4  1  0.60947620  0.15683391  0.93550745  1
  Si  Si5  1  0.10947420  0.65683412  0.93551471  1
  Si  Si6  1  0.40759812  0.15684683  0.05308289  1
  Si  Si7  1  0.90759565  0.65684691  0.05308378  1
  Si  Si8  1  0.40064148  0.75275484  0.41632273  1
  Si  Si9  1  0.90064198  0.25275559  0.41632519  1
  Si  Si10  1  0.61643696  0.75277300  0.57229132  1
  Si  Si11  1  0.11643763  0.25277153  0.57229850  1
  Si  Si12  1  0.61643699  0.24722692  0.57229140  1
  Si  Si13  1  0.11643775  0.74722840  0.57229952  1
  Si  Si14  1  0.40064147  0.24724536  0.41632260  1
  Si  Si15  1  0.90064171  0.74724438  0.41632475  1
  Si  Si16  1  0.29312766  0.84546395  0.67286684  1
  Si  Si17  1  0.79312527  0.34546394  0.67286499  1
  Si  Si18  1  0.72394444  0.84546606  0.31571001  1
  Si  Si19  1  0.22394339  0.34546716  0.31571971  1
  Si  Si20  1  0.72394425  0.15453415  0.31570973  1
  Si  Si21  1  0.22394340  0.65453285  0.31571991  1
  Si  Si22  1  0.29312759  0.15453607  0.67286658  1
  Si  Si23  1  0.79312488  0.65453595  0.67286495  1
  Si  Si24  1  0.65711848  0.00000010  0.40012448  1
  Si  Si25  1  0.15711128  0.49999991  0.40013473  1
  Si  Si26  1  0.35994233  -0.00000002  0.58843189  1
  Si  Si27  1  0.85993670  0.49999997  0.58843941  1
  Si  Si28  1  0.58281132  -0.00000003  0.77267129  1
  Si  Si29  1  0.08279854  0.49999990  0.77268807  1
  Si  Si30  1  0.43424287  -0.00000000  0.21585140  1
  Si  Si31  1  0.93424214  0.50000003  0.21585120  1
  O  O0  1  0.64573208  0.00000009  0.61126895  1
  O  O1  1  0.14570917  0.50000013  0.61127038  1
  O  O2  1  0.37134574  0.99999989  0.37730231  1
  O  O3  1  0.87135409  0.50000013  0.37731708  1
  O  O4  1  0.71810978  0.93102422  0.35269537  1
  O  O5  1  0.21810670  0.43102428  0.35271769  1
  O  O6  1  0.29897049  0.93102053  0.63589849  1
  O  O7  1  0.79896039  0.43102061  0.63589087  1
  O  O8  1  0.29897056  0.06897949  0.63589834  1
  O  O9  1  0.79896040  0.56897926  0.63589139  1
  O  O10  1  0.71810954  0.06897604  0.35269575  1
  O  O11  1  0.21810653  0.56897584  0.35271771  1
  O  O12  1  0.54927763  0.99999975  0.28462937  1
  O  O13  1  0.04927721  0.49999964  0.28461142  1
  O  O14  1  0.46778625  0.00000010  0.70390124  1
  O  O15  1  0.96777230  0.49999976  0.70393815  1
  O  O16  1  0.61062986  0.07113647  0.89415048  1
  O  O17  1  0.11062396  0.57113614  0.89416320  1
  O  O18  1  0.40639900  0.07115104  0.09446349  1
  O  O19  1  0.90639329  0.57115102  0.09446396  1
  O  O20  1  0.40639868  0.92884916  0.09446263  1
  O  O21  1  0.90639253  0.42884911  0.09446426  1
  O  O22  1  0.61062952  0.92886336  0.89415004  1
  O  O23  1  0.11062414  0.42886372  0.89416276  1
  O  O24  1  0.33217104  0.68222925  0.38803669  1
  O  O25  1  0.83217082  0.18223051  0.38803545  1
  O  O26  1  0.68488890  0.68223634  0.60060033  1
  O  O27  1  0.18488981  0.18223473  0.60060665  1
  O  O28  1  0.68488942  0.31776333  0.60059929  1
  O  O29  1  0.18488964  0.81776528  0.60060676  1
  O  O30  1  0.33217109  0.31777085  0.38803596  1
  O  O31  1  0.83217119  0.81776969  0.38803468  1
  O  O32  1  0.39294796  0.79611449  0.22728196  1
  O  O33  1  0.89294679  0.29611494  0.22728388  1
  O  O34  1  0.62417736  0.79613685  0.76132730  1
  O  O35  1  0.12417910  0.29613711  0.76133401  1
  O  O36  1  0.62417800  0.20386285  0.76132713  1
  O  O37  1  0.12417963  0.70386268  0.76133407  1
  O  O38  1  0.39294861  0.20388584  0.22728173  1
  O  O39  1  0.89294713  0.70388509  0.22728381  1
  O  O40  1  0.36928256  0.80613481  0.56644817  1
  O  O41  1  0.86928378  0.30613671  0.56645074  1
  O  O42  1  0.64775641  0.80613665  0.42207645  1
  O  O43  1  0.14775679  0.30613379  0.42208174  1
  O  O44  1  0.64775578  0.19386350  0.42207532  1
  O  O45  1  0.14775647  0.69386629  0.42208130  1
  O  O46  1  0.36928228  0.19386530  0.56644746  1
  O  O47  1  0.86928288  0.69386360  0.56644996  1
  O  O48  1  0.50853468  0.72566028  0.49435647  1
  O  O49  1  0.00853451  0.22566020  0.49436284  1
  O  O50  1  0.50853467  0.27433975  0.49435782  1
  O  O51  1  0.00853426  0.77433955  0.49436402  1
  O  O52  1  0.32026316  0.82735417  0.88733418  1
  O  O53  1  0.82026201  0.32735403  0.88733215  1
  O  O54  1  0.69682214  0.82736919  0.10123955  1
  O  O55  1  0.19682107  0.32737221  0.10124764  1
  O  O56  1  0.69682220  0.17263100  0.10123930  1
  O  O57  1  0.19682133  0.67262771  0.10124776  1
  O  O58  1  0.32026323  0.17264573  0.88733415  1
  O  O59  1  0.82026194  0.67264582  0.88733222  1
  O  O60  1  0.50853507  0.82025678  0.99427707  1
  O  O61  1  0.00853297  0.32025444  0.99428200  1
  O  O62  1  0.50853513  0.17974318  0.99427630  1
  O  O63  1  0.00853318  0.67974575  0.99428197  1
loop_
_geom_bond_atom_site_label_1
_geom_bond_atom_site_label_2
_geom_bond_distance
_geom_bond_site_symmetry_2
O0 Si24 1.624631 1_555
O0 Si28 1.625078 1_555
O1 Si25 1.624624 1_555
O1 Si29 1.625078 1_555
O2 Si26 1.624583 1_565
O2 Si30 1.625158 1_565
O3 Si27 1.624582 1_555
O3 Si31 1.625166 1_555
O4 Si18 1.620690 1_555
O4 Si24 1.621160 1_565
O5 Si19 1.620690 1_555
O5 Si25 1.621162 1_555
O6 Si16 1.620647 1_555
O6 Si26 1.621143 1_565
O7 Si17 1.620648 1_555
O7 Si27 1.621142 1_555
O8 Si22 1.620647 1_555
O8 Si26 1.621143 1_555
O9 Si23 1.620648 1_555
O9 Si27 1.621143 1_555
O10 Si20 1.620690 1_555
O10 Si24 1.621158 1_555
O11 Si21 1.620688 1_555
O11 Si25 1.621165 1_555
O12 Si30 1.626205 1_565
O12 Si24 1.626365 1_565
O13 Si31 1.626189 1_455
O13 Si25 1.626363 1_555
O14 Si28 1.626065 1_555
O14 Si26 1.626329 1_555
O15 Si29 1.626059 1_655
O15 Si27 1.626312 1_555
O16 Si28 1.619123 1_555
O16 Si4 1.625308 1_555
O17 Si29 1.619117 1_555
O17 Si5 1.625308 1_555
O18 Si30 1.619039 1_555
O18 Si6 1.625340 1_555
O19 Si31 1.619046 1_555
O19 Si7 1.625343 1_555
O20 Si30 1.619039 1_565
O20 Si0 1.625340 1_555
O21 Si31 1.619044 1_555
O21 Si1 1.625345 1_555
O22 Si28 1.619123 1_565
O22 Si2 1.625308 1_555
O23 Si29 1.619116 1_555
O23 Si3 1.625309 1_555
O24 Si21 1.623469 1_555
O24 Si8 1.625041 1_555
O25 Si20 1.623467 1_555
O25 Si9 1.625040 1_555
O26 Si23 1.623529 1_555
O26 Si10 1.625062 1_555
O27 Si22 1.623536 1_555
O27 Si11 1.625065 1_555
O28 Si17 1.623530 1_555
O28 Si12 1.625061 1_555
O29 Si16 1.623539 1_555
O29 Si13 1.625064 1_555
O30 Si19 1.623469 1_555
O30 Si14 1.625039 1_555
O31 Si18 1.623468 1_555
O31 Si15 1.625038 1_555
O32 Si0 1.619025 1_555
O32 Si8 1.623310 1_555
O33 Si1 1.619021 1_555
O33 Si9 1.623309 1_555
O34 Si2 1.619006 1_555
O34 Si10 1.623264 1_555
O35 Si3 1.619016 1_555
O35 Si11 1.623275 1_555
O36 Si4 1.619005 1_555
O36 Si12 1.623264 1_555
O37 Si5 1.619017 1_555
O37 Si13 1.623270 1_555
O38 Si6 1.619025 1_555
O38 Si14 1.623310 1_555
O39 Si7 1.619020 1_555
O39 Si15 1.623306 1_555
O40 Si8 1.622380 1_555
O40 Si16 1.624215 1_555
O41 Si9 1.622390 1_555
O41 Si17 1.624217 1_555
O42 Si10 1.622475 1_555
O42 Si18 1.624331 1_555
O43 Si11 1.622468 1_555
O43 Si19 1.624329 1_555
O44 Si12 1.622475 1_555
O44 Si20 1.624331 1_555
O45 Si13 1.622472 1_555
O45 Si21 1.624330 1_555
O46 Si14 1.622380 1_555
O46 Si22 1.624215 1_555
O47 Si15 1.622388 1_555
O47 Si23 1.624219 1_555
O48 Si8 1.623860 1_555
O48 Si10 1.623928 1_555
O49 Si9 1.623863 1_455
O49 Si11 1.623932 1_555
O50 Si14 1.623861 1_555
O50 Si12 1.623928 1_555
O51 Si15 1.623864 1_455
O51 Si13 1.623936 1_555
O52 Si0 1.629013 1_556
O52 Si16 1.630104 1_555
O53 Si1 1.629015 1_556
O53 Si17 1.630104 1_555
O54 Si2 1.629025 1_554
O54 Si18 1.630064 1_555
O55 Si3 1.629028 1_554
O55 Si19 1.630068 1_555
O56 Si4 1.629025 1_554
O56 Si20 1.630063 1_555
O57 Si5 1.629029 1_554
O57 Si21 1.630068 1_555
O58 Si6 1.629013 1_556
O58 Si22 1.630105 1_555
O59 Si7 1.629016 1_556
O59 Si23 1.630105 1_555
O60 Si2 1.625708 1_555
O60 Si0 1.625714 1_556
O61 Si3 1.625714 1_555
O61 Si1 1.625715 1_456
O62 Si4 1.625709 1_555
O62 Si6 1.625713 1_556
O63 Si5 1.625715 1_555
O63 Si7 1.625716 1_456
