# generated using pymatgen
data_NaAlH2
_symmetry_space_group_name_H-M   'P 1'
_cell_length_a   6.54011100
_cell_length_b   6.54011100
_cell_length_c   6.78622504
_cell_angle_alpha   118.80738194
_cell_angle_beta   118.80738194
_cell_angle_gamma   90.00000000
_symmetry_Int_Tables_number   1
_chemical_formula_structural   NaAlH2
_chemical_formula_sum   'Na4 Al4 H8'
_cell_volume   212.43326046
_cell_formula_units_Z   4
loop_
 _symmetry_equiv_pos_site_id
 _symmetry_equiv_pos_as_xyz
  1  'x, y, z'
loop_
 _atom_site_type_symbol
 _atom_site_label
 _atom_site_symmetry_multiplicity
 _atom_site_fract_x
 _atom_site_fract_y
 _atom_site_fract_z
 _atom_site_occupancy
  Na  Na0  1  0.62500000  0.87500000  0.25000000  1
  Na  Na1  1  0.62500000  0.37500000  0.25000000  1
  Na  Na2  1  0.62500000  0.37500000  0.75000000  1
  Na  Na3  1  0.12500000  0.37500000  0.75000000  1
  Al  Al0  1  0.12500000  0.37500000  0.25000000  1
  Al  Al1  1  0.12500000  0.87500000  0.25000000  1
  Al  Al2  1  0.12500000  0.87500000  0.75000000  1
  Al  Al3  1  0.62500000  0.87500000  0.75000000  1
  H  H0  1  0.20208200  0.80749900  0.00437700  1
  H  H1  1  0.80229500  0.19687800  0.00437700  1
  H  H2  1  0.44687800  0.95208200  0.50437700  1
  H  H3  1  0.04791800  0.94250100  0.49562300  1
  H  H4  1  0.05749900  0.55229500  0.50437700  1
  H  H5  1  0.44770500  0.55312200  0.49562300  1
  H  H6  1  0.80312200  0.79791800  0.99562300  1
  H  H7  1  0.19250100  0.19770500  0.99562300  1
loop_
_geom_bond_atom_site_label_1
_geom_bond_atom_site_label_2
_geom_bond_distance
_geom_bond_site_symmetry_2
Al0 H7 1.823392 1_554
Al0 H4 1.823392 1_555
Al0 H5 1.824305 1_555
Al0 H1 1.824305 1_455
Al1 H2 1.823392 1_555
Al1 H6 1.823392 1_454
Al1 H0 1.824305 1_555
Al1 H3 1.824305 1_555
Al2 H3 1.823392 1_555
Al2 H0 1.823392 1_556
Al2 H4 1.824305 1_555
Al2 H7 1.824305 1_565
Al3 H1 1.823392 1_566
Al3 H5 1.823392 1_555
Al3 H6 1.824305 1_555
Al3 H2 1.824305 1_555
H0 Na0 2.339081 1_555
H0 Na3 2.385489 1_554
H1 Na1 2.339080 1_555
H1 Na2 2.385489 1_554
H2 Na2 2.339081 1_565
H2 Na0 2.385489 1_555
H3 Na0 2.339081 1_455
H3 Na3 2.385489 1_565
H4 Na3 2.339080 1_555
H4 Na1 2.385489 1_455
H5 Na1 2.339080 1_555
H5 Na2 2.385489 1_555
H6 Na2 2.339081 1_555
H6 Na0 2.385489 1_556
H7 Na3 2.339080 1_555
H7 Na1 2.385489 1_556
