# generated using pymatgen
data_ZnNi3O7
_symmetry_space_group_name_H-M   'P 1'
_cell_length_a   5.27804700
_cell_length_b   10.09439200
_cell_length_c   10.27090400
_cell_angle_alpha   90.00000000
_cell_angle_beta   90.00000000
_cell_angle_gamma   90.00000000
_symmetry_Int_Tables_number   1
_chemical_formula_structural   ZnNi3O7
_chemical_formula_sum   'Zn4 Ni12 O28'
_cell_volume   547.22016041
_cell_formula_units_Z   4
loop_
 _symmetry_equiv_pos_site_id
 _symmetry_equiv_pos_as_xyz
  1  'x, y, z'
loop_
 _atom_site_type_symbol
 _atom_site_label
 _atom_site_symmetry_multiplicity
 _atom_site_fract_x
 _atom_site_fract_y
 _atom_site_fract_z
 _atom_site_occupancy
  Zn  Zn0  1  0.64345500  0.75000000  0.08011500  1
  Zn  Zn1  1  0.14345500  0.25000000  0.41988500  1
  Zn  Zn2  1  0.35654500  0.25000000  0.91988500  1
  Zn  Zn3  1  0.85654500  0.75000000  0.58011500  1
  Ni  Ni0  1  0.29400700  0.02503100  0.69505100  1
  Ni  Ni1  1  0.79400700  0.97496900  0.80494900  1
  Ni  Ni2  1  0.70599300  0.52503100  0.30494900  1
  Ni  Ni3  1  0.20599300  0.47496900  0.19505100  1
  Ni  Ni4  1  0.30991900  0.75000000  0.75663700  1
  Ni  Ni5  1  0.80991900  0.25000000  0.74336300  1
  Ni  Ni6  1  0.69008100  0.25000000  0.24336300  1
  Ni  Ni7  1  0.19008100  0.75000000  0.25663700  1
  Ni  Ni8  1  0.79400700  0.52503100  0.80494900  1
  Ni  Ni9  1  0.29400700  0.47496900  0.69505100  1
  Ni  Ni10  1  0.20599300  0.02503100  0.19505100  1
  Ni  Ni11  1  0.70599300  0.97496900  0.30494900  1
  O  O0  1  0.94365300  0.12327000  0.28695400  1
  O  O1  1  0.44365300  0.87673000  0.21304600  1
  O  O2  1  0.05634700  0.62327000  0.71304600  1
  O  O3  1  0.55634700  0.37673000  0.78695400  1
  O  O4  1  0.05634700  0.87673000  0.71304600  1
  O  O5  1  0.55634700  0.12327000  0.78695400  1
  O  O6  1  0.94365300  0.37673000  0.28695400  1
  O  O7  1  0.44365300  0.62327000  0.21304600  1
  O  O8  1  0.45869900  0.12024200  0.29407100  1
  O  O9  1  0.95869900  0.87975800  0.20592900  1
  O  O10  1  0.54130100  0.62024200  0.70592900  1
  O  O11  1  0.04130100  0.37975800  0.79407100  1
  O  O12  1  0.54130100  0.87975800  0.70592900  1
  O  O13  1  0.04130100  0.12024200  0.79407100  1
  O  O14  1  0.45869900  0.37975800  0.29407100  1
  O  O15  1  0.95869900  0.62024200  0.20592900  1
  O  O16  1  0.14421400  0.75000000  0.44096900  1
  O  O17  1  0.64421400  0.25000000  0.05903100  1
  O  O18  1  0.85578600  0.25000000  0.55903100  1
  O  O19  1  0.35578600  0.75000000  0.94096900  1
  O  O20  1  0.25052600  0.39950000  0.03487000  1
  O  O21  1  0.75052600  0.60050000  0.46513000  1
  O  O22  1  0.74947400  0.89950000  0.96513000  1
  O  O23  1  0.24947400  0.10050000  0.53487000  1
  O  O24  1  0.74947400  0.60050000  0.96513000  1
  O  O25  1  0.24947400  0.39950000  0.53487000  1
  O  O26  1  0.25052600  0.10050000  0.03487000  1
  O  O27  1  0.75052600  0.89950000  0.46513000  1
loop_
_geom_bond_atom_site_label_1
_geom_bond_atom_site_label_2
_geom_bond_distance
_geom_bond_site_symmetry_2
Ni0 O23 1.828196 1_555
Ni0 O13 1.933146 1_555
Ni0 O5 1.947211 1_555
Ni0 O4 1.961802 1_545
Ni0 O12 1.966357 1_545
Ni1 O22 1.828196 1_555
Ni1 O12 1.933146 1_555
Ni1 O4 1.947211 1_655
Ni1 O5 1.961802 1_565
Ni1 O13 1.966357 1_665
Ni2 O21 1.828196 1_555
Ni2 O15 1.933146 1_555
Ni2 O7 1.947211 1_555
Ni2 O6 1.961802 1_555
Ni2 O14 1.966357 1_555
Ni3 O20 1.828196 1_555
Ni3 O14 1.933146 1_555
Ni3 O6 1.947211 1_455
Ni3 O7 1.961802 1_555
Ni3 O15 1.966357 1_455
Ni4 O10 1.865031 1_555
Ni4 O12 1.865031 1_555
Ni4 O2 1.904780 1_555
Ni4 O4 1.904780 1_555
Ni4 O19 1.908671 1_555
Ni5 O13 1.865031 1_655
Ni5 O11 1.865031 1_655
Ni5 O5 1.904780 1_555
Ni5 O3 1.904780 1_555
Ni5 O18 1.908671 1_555
Ni6 O8 1.865031 1_555
Ni6 O14 1.865031 1_555
Ni6 O6 1.904780 1_555
Ni6 O0 1.904780 1_555
Ni6 O17 1.908671 1_555
Ni7 O15 1.865031 1_455
Ni7 O9 1.865031 1_455
Ni7 O7 1.904780 1_555
Ni7 O1 1.904780 1_555
Ni7 O16 1.908671 1_555
Ni8 O24 1.828196 1_555
Ni8 O10 1.933146 1_555
Ni8 O2 1.947211 1_655
Ni8 O3 1.961802 1_555
Ni8 O11 1.966357 1_655
Ni9 O25 1.828196 1_555
Ni9 O11 1.933146 1_555
Ni9 O3 1.947211 1_555
Ni9 O2 1.961802 1_555
Ni9 O10 1.966357 1_555
Ni10 O26 1.828196 1_555
Ni10 O8 1.933146 1_555
Ni10 O0 1.947211 1_455
Ni10 O1 1.961802 1_545
Ni10 O9 1.966357 1_445
Ni11 O27 1.828196 1_555
Ni11 O9 1.933146 1_555
Ni11 O1 1.947211 1_555
Ni11 O0 1.961802 1_565
Ni11 O8 1.966357 1_565
O0 Zn1 2.147725 1_655
O1 Zn0 2.147725 1_555
O2 Zn3 2.147725 1_455
O3 Zn2 2.147725 1_555
O4 Zn3 2.147725 1_455
O5 Zn2 2.147725 1_555
O6 Zn1 2.147725 1_655
O7 Zn0 2.147725 1_555
O8 Zn1 2.480718 1_555
O9 Zn0 2.480718 1_555
O10 Zn3 2.480718 1_555
O11 Zn2 2.480718 1_555
O12 Zn3 2.480718 1_555
O13 Zn2 2.480718 1_555
O14 Zn1 2.480718 1_555
O15 Zn0 2.480718 1_555
O16 Zn3 2.085141 1_455
O17 Zn2 2.085141 1_554
O18 Zn1 2.085141 1_655
O19 Zn0 2.085141 1_556
O20 Zn2 1.996322 1_554
O21 Zn3 1.996322 1_555
O22 Zn0 1.996322 1_556
O23 Zn1 1.996322 1_555
O24 Zn0 1.996322 1_556
O25 Zn1 1.996322 1_555
O26 Zn2 1.996322 1_554
O27 Zn3 1.996322 1_555
