# generated using pymatgen
data_Ba(SiRh)2
_symmetry_space_group_name_H-M   'P 1'
_cell_length_a   6.73467809
_cell_length_b   7.70161063
_cell_length_c   7.92542150
_cell_angle_alpha   91.29289371
_cell_angle_beta   90.00000000
_cell_angle_gamma   90.00000000
_symmetry_Int_Tables_number   1
_chemical_formula_structural   Ba(SiRh)2
_chemical_formula_sum   'Ba4 Si8 Rh8'
_cell_volume   410.97006596
_cell_formula_units_Z   4
loop_
 _symmetry_equiv_pos_site_id
 _symmetry_equiv_pos_as_xyz
  1  'x, y, z'
loop_
 _atom_site_type_symbol
 _atom_site_label
 _atom_site_symmetry_multiplicity
 _atom_site_fract_x
 _atom_site_fract_y
 _atom_site_fract_z
 _atom_site_occupancy
  Ba  Ba0  1  0.61616624  0.99628888  0.23650319  1
  Ba  Ba1  1  0.11616624  0.50371112  0.76349681  1
  Ba  Ba2  1  0.38383376  0.00371112  0.76349681  1
  Ba  Ba3  1  0.88383376  0.49628888  0.23650319  1
  Si  Si0  1  0.57861422  0.62685708  0.92488115  1
  Si  Si1  1  0.07861422  0.87314292  0.07511885  1
  Si  Si2  1  0.42138578  0.37314292  0.07511885  1
  Si  Si3  1  0.92138578  0.12685708  0.92488115  1
  Si  Si4  1  0.34983278  0.68461627  0.43519061  1
  Si  Si5  1  0.84983278  0.81538373  0.56480939  1
  Si  Si6  1  0.65016722  0.31538373  0.56480939  1
  Si  Si7  1  0.15016722  0.18461627  0.43519061  1
  Rh  Rh0  1  0.89641000  0.11395975  0.62110772  1
  Rh  Rh1  1  0.39641000  0.38604025  0.37889228  1
  Rh  Rh2  1  0.10359000  0.88604025  0.37889228  1
  Rh  Rh3  1  0.60359000  0.61395975  0.62110772  1
  Rh  Rh4  1  0.16764714  0.17148321  0.13850767  1
  Rh  Rh5  1  0.66764714  0.32851679  0.86149233  1
  Rh  Rh6  1  0.83235286  0.82851679  0.86149233  1
  Rh  Rh7  1  0.33235286  0.67148321  0.13850767  1
loop_
_geom_bond_atom_site_label_1
_geom_bond_atom_site_label_2
_geom_bond_distance
_geom_bond_site_symmetry_2
Ba0 Rh7 3.229021 1_555
Ba0 Si5 3.369188 1_555
Ba0 Si3 3.383516 1_564
Ba0 Rh4 3.405180 1_565
Ba0 Si4 3.410172 1_555
Ba0 Si2 3.456598 1_565
Ba0 Si1 3.490047 1_655
Ba0 Rh1 3.510168 1_565
Ba0 Rh6 3.528390 1_554
Ba0 Si6 3.545930 1_565
Ba0 Rh2 3.579586 1_655
Ba0 Rh0 3.681029 1_565
Ba0 Si0 3.733862 1_554
Ba0 Rh2 3.735538 1_555
Ba0 Si7 3.785439 1_565
Ba1 Rh6 3.229021 1_455
Ba1 Si4 3.369188 1_555
Ba1 Si2 3.383516 1_556
Ba1 Rh5 3.405180 1_455
Ba1 Si5 3.410172 1_455
Ba1 Si3 3.456598 1_455
Ba1 Si0 3.490047 1_555
Ba1 Rh0 3.510168 1_455
Ba1 Rh7 3.528390 1_556
Ba1 Si7 3.545930 1_555
Ba1 Rh3 3.579586 1_555
Ba1 Rh1 3.681029 1_555
Ba1 Si1 3.733862 1_556
Ba1 Rh3 3.735538 1_455
Ba1 Si6 3.785439 1_455
Ba2 Rh5 3.229021 1_555
Ba2 Si7 3.369188 1_555
Ba2 Si1 3.383516 1_546
Ba2 Rh6 3.405180 1_545
Ba2 Si6 3.410172 1_555
Ba2 Si0 3.456598 1_545
Ba2 Si3 3.490047 1_455
Ba2 Rh3 3.510168 1_545
Ba2 Rh4 3.528390 1_556
Ba2 Si4 3.545930 1_545
Ba2 Rh0 3.579586 1_455
Ba2 Rh2 3.681029 1_545
Ba2 Si2 3.733862 1_556
Ba2 Rh0 3.735538 1_555
Ba2 Si5 3.785439 1_545
Ba3 Rh4 3.229021 1_655
Ba3 Si6 3.369188 1_555
Ba3 Si0 3.383516 1_554
Ba3 Rh7 3.405180 1_655
Ba3 Si7 3.410172 1_655
Ba3 Si1 3.456598 1_655
Ba3 Si2 3.490047 1_555
Ba3 Rh2 3.510168 1_655
Ba3 Rh5 3.528390 1_554
Ba3 Si5 3.545930 1_555
Ba3 Rh1 3.579586 1_555
Ba3 Rh3 3.681029 1_555
Ba3 Si3 3.733862 1_554
Ba3 Rh1 3.735538 1_655
Ba3 Si4 3.785439 1_655
Rh0 Si6 2.320990 1_555
Rh0 Si7 2.328951 1_655
Rh0 Si5 2.353498 1_545
Rh0 Si3 2.413209 1_555
Rh1 Si7 2.320990 1_555
Rh1 Si6 2.328951 1_555
Rh1 Si4 2.353498 1_555
Rh1 Si2 2.413209 1_555
Rh2 Si4 2.320990 1_555
Rh2 Si5 2.328951 1_455
Rh2 Si7 2.353498 1_565
Rh2 Si1 2.413209 1_555
Rh3 Si5 2.320990 1_555
Rh3 Si4 2.328951 1_555
Rh3 Si6 2.353498 1_555
Rh3 Si0 2.413209 1_555
Rh4 Si7 2.354176 1_555
Rh4 Si2 2.370632 1_555
Rh4 Si3 2.389347 1_454
Rh4 Si1 2.416455 1_545
Rh5 Si6 2.354176 1_555
Rh5 Si3 2.370632 1_555
Rh5 Si2 2.389347 1_556
Rh5 Si0 2.416455 1_555
Rh6 Si5 2.354176 1_555
Rh6 Si0 2.370632 1_555
Rh6 Si1 2.389347 1_656
Rh6 Si3 2.416455 1_565
Rh7 Si4 2.354176 1_555
Rh7 Si1 2.370632 1_555
Rh7 Si0 2.389347 1_554
Rh7 Si2 2.416455 1_555
