# generated using pymatgen
data_Ho11(Ni10C)6
_symmetry_space_group_name_H-M   'P 1'
_cell_length_a   10.77325383
_cell_length_b   10.77325383
_cell_length_c   10.77325383
_cell_angle_alpha   109.47122063
_cell_angle_beta   109.47122063
_cell_angle_gamma   109.47122063
_symmetry_Int_Tables_number   1
_chemical_formula_structural   Ho11(Ni10C)6
_chemical_formula_sum   'Ho11 Ni60 C6'
_cell_volume   962.54000087
_cell_formula_units_Z   1
loop_
 _symmetry_equiv_pos_site_id
 _symmetry_equiv_pos_as_xyz
  1  'x, y, z'
loop_
 _atom_site_type_symbol
 _atom_site_label
 _atom_site_symmetry_multiplicity
 _atom_site_fract_x
 _atom_site_fract_y
 _atom_site_fract_z
 _atom_site_occupancy
  Ho  Ho0  1  0.00000000  0.00000000  0.33735300  1
  Ho  Ho1  1  0.00000000  0.33735300  0.00000000  1
  Ho  Ho2  1  0.33735300  0.00000000  0.00000000  1
  Ho  Ho3  1  0.66264700  0.66264700  0.66264700  1
  Ho  Ho4  1  0.00000000  0.00000000  0.66264700  1
  Ho  Ho5  1  0.00000000  0.66264700  0.00000000  1
  Ho  Ho6  1  0.66264700  0.00000000  0.00000000  1
  Ho  Ho7  1  0.33735300  0.33735300  0.33735300  1
  Ho  Ho8  1  0.50000000  0.50000000  0.00000000  1
  Ho  Ho9  1  0.50000000  0.00000000  0.50000000  1
  Ho  Ho10  1  0.00000000  0.50000000  0.50000000  1
  Ni  Ni0  1  0.00000000  0.76695700  0.41875400  1
  Ni  Ni1  1  0.23304300  0.23304300  0.65179700  1
  Ni  Ni2  1  0.76695700  0.00000000  0.41875400  1
  Ni  Ni3  1  0.00000000  0.41875400  0.76695700  1
  Ni  Ni4  1  0.76695700  0.41875400  0.00000000  1
  Ni  Ni5  1  0.23304300  0.65179700  0.23304300  1
  Ni  Ni6  1  0.65179700  0.23304300  0.23304300  1
  Ni  Ni7  1  0.41875400  0.76695700  0.00000000  1
  Ni  Ni8  1  0.41875400  0.00000000  0.76695700  1
  Ni  Ni9  1  0.34820300  0.58124600  0.58124600  1
  Ni  Ni10  1  0.58124600  0.58124600  0.34820300  1
  Ni  Ni11  1  0.58124600  0.34820300  0.58124600  1
  Ni  Ni12  1  0.00000000  0.23304300  0.58124600  1
  Ni  Ni13  1  0.76695700  0.76695700  0.34820300  1
  Ni  Ni14  1  0.23304300  0.00000000  0.58124600  1
  Ni  Ni15  1  0.00000000  0.58124600  0.23304300  1
  Ni  Ni16  1  0.23304300  0.58124600  0.00000000  1
  Ni  Ni17  1  0.76695700  0.34820300  0.76695700  1
  Ni  Ni18  1  0.34820300  0.76695700  0.76695700  1
  Ni  Ni19  1  0.58124600  0.23304300  0.00000000  1
  Ni  Ni20  1  0.58124600  0.00000000  0.23304300  1
  Ni  Ni21  1  0.65179700  0.41875400  0.41875400  1
  Ni  Ni22  1  0.41875400  0.41875400  0.65179700  1
  Ni  Ni23  1  0.41875400  0.65179700  0.41875400  1
  Ni  Ni24  1  0.14803400  0.31965800  0.46769300  1
  Ni  Ni25  1  0.68034200  0.82837600  0.14803400  1
  Ni  Ni26  1  0.17162400  0.85196600  0.31965800  1
  Ni  Ni27  1  0.85196600  0.17162400  0.31965800  1
  Ni  Ni28  1  0.31965800  0.14803400  0.46769300  1
  Ni  Ni29  1  0.82837600  0.68034200  0.14803400  1
  Ni  Ni30  1  0.85196600  0.31965800  0.17162400  1
  Ni  Ni31  1  0.31965800  0.46769300  0.14803400  1
  Ni  Ni32  1  0.82837600  0.14803400  0.68034200  1
  Ni  Ni33  1  0.14803400  0.46769300  0.31965800  1
  Ni  Ni34  1  0.68034200  0.14803400  0.82837600  1
  Ni  Ni35  1  0.17162400  0.31965800  0.85196600  1
  Ni  Ni36  1  0.14803400  0.68034200  0.82837600  1
  Ni  Ni37  1  0.31965800  0.17162400  0.85196600  1
  Ni  Ni38  1  0.46769300  0.14803400  0.31965800  1
  Ni  Ni39  1  0.14803400  0.82837600  0.68034200  1
  Ni  Ni40  1  0.31965800  0.85196600  0.17162400  1
  Ni  Ni41  1  0.46769300  0.31965800  0.14803400  1
  Ni  Ni42  1  0.85196600  0.68034200  0.53230700  1
  Ni  Ni43  1  0.68034200  0.53230700  0.85196600  1
  Ni  Ni44  1  0.53230700  0.85196600  0.68034200  1
  Ni  Ni45  1  0.85196600  0.53230700  0.68034200  1
  Ni  Ni46  1  0.68034200  0.85196600  0.53230700  1
  Ni  Ni47  1  0.53230700  0.68034200  0.85196600  1
  Ni  Ni48  1  0.85696000  0.85696000  0.00000000  1
  Ni  Ni49  1  0.14304000  0.00000000  0.14304000  1
  Ni  Ni50  1  0.00000000  0.14304000  0.14304000  1
  Ni  Ni51  1  0.14304000  0.14304000  0.00000000  1
  Ni  Ni52  1  0.85696000  0.00000000  0.85696000  1
  Ni  Ni53  1  0.00000000  0.85696000  0.85696000  1
  Ni  Ni54  1  0.75000000  0.25000000  0.50000000  1
  Ni  Ni55  1  0.75000000  0.50000000  0.25000000  1
  Ni  Ni56  1  0.50000000  0.25000000  0.75000000  1
  Ni  Ni57  1  0.25000000  0.50000000  0.75000000  1
  Ni  Ni58  1  0.25000000  0.75000000  0.50000000  1
  Ni  Ni59  1  0.50000000  0.75000000  0.25000000  1
  C  C0  1  0.70955800  0.70955800  0.00000000  1
  C  C1  1  0.29044200  0.00000000  0.29044200  1
  C  C2  1  0.00000000  0.29044200  0.29044200  1
  C  C3  1  0.29044200  0.29044200  0.00000000  1
  C  C4  1  0.70955800  0.00000000  0.70955800  1
  C  C5  1  0.00000000  0.70955800  0.70955800  1
loop_
_geom_bond_atom_site_label_1
_geom_bond_atom_site_label_2
_geom_bond_distance
_geom_bond_site_symmetry_2
Ho0 Ni24 2.827803 1_555
Ho0 Ni28 2.827803 1_555
Ho0 Ni29 2.827804 1_445
Ho0 Ni26 2.827804 1_545
Ho0 Ni27 2.827804 1_455
Ho0 Ni25 2.827804 1_445
Ho0 Ni1 2.922349 1_555
Ho0 Ni0 2.922349 1_545
Ho0 Ni2 2.922349 1_455
Ho0 Ni13 2.968049 1_445
Ho0 Ni12 2.968049 1_555
Ho0 Ni14 2.968049 1_555
Ho0 Ni49 2.984554 1_555
Ho0 Ni48 2.984554 1_445
Ho0 Ni50 2.984554 1_555
Ho1 Ni33 2.827803 1_555
Ho1 Ni31 2.827803 1_555
Ho1 Ni30 2.827804 1_455
Ho1 Ni32 2.827804 1_454
Ho1 Ni35 2.827804 1_554
Ho1 Ni34 2.827804 1_454
Ho1 Ni3 2.922349 1_554
Ho1 Ni5 2.922349 1_555
Ho1 Ni4 2.922349 1_455
Ho1 Ni17 2.968049 1_454
Ho1 Ni15 2.968049 1_555
Ho1 Ni16 2.968049 1_555
Ho1 Ni50 2.984554 1_555
Ho1 Ni52 2.984554 1_454
Ho1 Ni51 2.984554 1_555
Ho2 Ni38 2.827803 1_555
Ho2 Ni41 2.827803 1_555
Ho2 Ni39 2.827804 1_544
Ho2 Ni37 2.827804 1_554
Ho2 Ni36 2.827804 1_544
Ho2 Ni40 2.827804 1_545
Ho2 Ni6 2.922349 1_555
Ho2 Ni8 2.922349 1_554
Ho2 Ni7 2.922349 1_545
Ho2 Ni19 2.968049 1_555
Ho2 Ni18 2.968049 1_544
Ho2 Ni20 2.968049 1_555
Ho2 Ni49 2.984554 1_555
Ho2 Ni51 2.984554 1_555
Ho2 Ni53 2.984554 1_544
Ho3 Ni42 2.827812 1_555
Ho3 Ni45 2.827812 1_555
Ho3 Ni43 2.827812 1_555
Ho3 Ni46 2.827812 1_555
Ho3 Ni44 2.827812 1_555
Ho3 Ni47 2.827812 1_555
Ho3 Ni10 2.922349 1_555
Ho3 Ni11 2.922349 1_555
Ho3 Ni9 2.922349 1_555
Ho3 Ni21 2.968049 1_555
Ho3 Ni22 2.968049 1_555
Ho3 Ni23 2.968049 1_555
Ho3 Ni52 2.984554 1_565
Ho3 Ni48 2.984554 1_556
Ho3 Ni53 2.984554 1_655
Ho4 Ni42 2.827803 1_445
Ho4 Ni46 2.827803 1_445
Ho4 Ni35 2.827804 1_555
Ho4 Ni37 2.827804 1_555
Ho4 Ni39 2.827804 1_545
Ho4 Ni32 2.827804 1_455
Ho4 Ni14 2.922349 1_555
Ho4 Ni12 2.922349 1_555
Ho4 Ni13 2.922349 1_445
Ho4 Ni0 2.968049 1_545
Ho4 Ni2 2.968049 1_455
Ho4 Ni1 2.968049 1_555
Ho4 Ni53 2.984554 1_545
Ho4 Ni52 2.984554 1_455
Ho4 Ni51 2.984554 1_556
Ho5 Ni43 2.827803 1_454
Ho5 Ni45 2.827803 1_454
Ho5 Ni36 2.827804 1_554
Ho5 Ni40 2.827804 1_555
Ho5 Ni26 2.827804 1_555
Ho5 Ni29 2.827804 1_455
Ho5 Ni16 2.922349 1_555
Ho5 Ni15 2.922349 1_555
Ho5 Ni17 2.922349 1_454
Ho5 Ni4 2.968049 1_455
Ho5 Ni3 2.968049 1_554
Ho5 Ni5 2.968049 1_555
Ho5 Ni53 2.984554 1_554
Ho5 Ni49 2.984554 1_565
Ho5 Ni48 2.984554 1_455
Ho6 Ni47 2.827803 1_544
Ho6 Ni44 2.827803 1_544
Ho6 Ni25 2.827804 1_545
Ho6 Ni34 2.827804 1_554
Ho6 Ni30 2.827804 1_555
Ho6 Ni27 2.827804 1_555
Ho6 Ni19 2.922349 1_555
Ho6 Ni20 2.922349 1_555
Ho6 Ni18 2.922349 1_544
Ho6 Ni7 2.968049 1_545
Ho6 Ni6 2.968049 1_555
Ho6 Ni8 2.968049 1_554
Ho6 Ni50 2.984554 1_655
Ho6 Ni48 2.984554 1_545
Ho6 Ni52 2.984554 1_554
Ho7 Ni33 2.827812 1_555
Ho7 Ni24 2.827812 1_555
Ho7 Ni28 2.827812 1_555
Ho7 Ni31 2.827812 1_555
Ho7 Ni38 2.827812 1_555
Ho7 Ni41 2.827812 1_555
Ho7 Ni21 2.922349 1_555
Ho7 Ni22 2.922349 1_555
Ho7 Ni23 2.922349 1_555
Ho7 Ni11 2.968049 1_555
Ho7 Ni10 2.968049 1_555
Ho7 Ni9 2.968049 1_555
Ho7 Ni49 2.984554 1_555
Ho7 Ni51 2.984554 1_555
Ho7 Ni50 2.984554 1_555
Ho8 Ni55 3.109971 1_555
Ho8 Ni56 3.109971 1_554
Ho8 Ni57 3.109971 1_554
Ho8 Ni59 3.109971 1_555
Ho8 Ni13 3.273481 1_555
Ho8 Ni10 3.273481 1_555
Ho8 Ni7 3.273481 1_555
Ho8 Ni4 3.273481 1_555
Ho8 Ni16 3.273481 1_555
Ho8 Ni22 3.273481 1_554
Ho8 Ni1 3.273481 1_554
Ho8 Ni19 3.273481 1_555
Ho9 Ni54 3.109971 1_555
Ho9 Ni56 3.109971 1_555
Ho9 Ni58 3.109971 1_545
Ho9 Ni59 3.109971 1_545
Ho9 Ni11 3.273481 1_555
Ho9 Ni8 3.273481 1_555
Ho9 Ni17 3.273481 1_555
Ho9 Ni2 3.273481 1_555
Ho9 Ni20 3.273481 1_555
Ho9 Ni14 3.273481 1_555
Ho9 Ni5 3.273481 1_545
Ho9 Ni23 3.273481 1_545
Ho10 Ni57 3.109971 1_555
Ho10 Ni54 3.109971 1_455
Ho10 Ni55 3.109971 1_455
Ho10 Ni58 3.109971 1_555
Ho10 Ni9 3.273481 1_555
Ho10 Ni0 3.273481 1_555
Ho10 Ni3 3.273481 1_555
Ho10 Ni18 3.273481 1_555
Ho10 Ni6 3.273481 1_455
Ho10 Ni15 3.273481 1_555
Ho10 Ni12 3.273481 1_555
Ho10 Ni21 3.273481 1_455
Ni0 Ni15 2.310223 1_555
Ni0 Ni14 2.368292 1_565
Ni0 Ni13 2.368292 1_455
Ni0 Ni42 2.445456 1_455
Ni0 Ni39 2.445465 1_555
Ni0 Ni29 2.497192 1_455
Ni0 Ni26 2.497192 1_555
Ni0 Ni55 2.629912 1_455
Ni0 Ni58 2.629912 1_555
Ni1 Ni22 2.310223 1_555
Ni1 Ni12 2.368292 1_555
Ni1 Ni14 2.368292 1_555
Ni1 Ni35 2.445465 1_555
Ni1 Ni37 2.445465 1_555
Ni1 Ni24 2.497183 1_555
Ni1 Ni28 2.497183 1_555
Ni1 Ni56 2.629912 1_555
Ni1 Ni57 2.629912 1_555
Ni2 Ni20 2.310223 1_555
Ni2 Ni46 2.445456 1_545
Ni2 Ni32 2.445465 1_555
Ni2 Ni27 2.497192 1_555
Ni2 Ni25 2.497192 1_545
Ni2 Ni54 2.629912 1_555
Ni2 Ni59 2.629912 1_545
Ni3 Ni45 2.445456 1_455
Ni3 Ni36 2.445465 1_555
Ni3 Ni32 2.497192 1_455
Ni3 Ni35 2.497192 1_555
Ni3 Ni54 2.629912 1_455
Ni3 Ni57 2.629912 1_555
Ni4 Ni43 2.445456 1_554
Ni4 Ni55 2.629912 1_555
Ni4 Ni56 2.629912 1_554
Ni5 Ni59 2.629912 1_555
Ni5 Ni58 2.629912 1_555
Ni10 Ni13 2.310223 1_555
Ni10 Ni23 2.368292 1_555
Ni10 Ni21 2.368292 1_555
Ni10 Ni41 2.445467 1_555
Ni10 Ni31 2.445467 1_555
Ni10 Ni42 2.497189 1_555
Ni10 Ni46 2.497189 1_555
Ni10 Ni55 2.629912 1_555
Ni10 Ni59 2.629912 1_555
Ni11 Ni17 2.310223 1_555
Ni11 Ni22 2.368292 1_555
Ni11 Ni21 2.368292 1_555
Ni11 Ni28 2.445467 1_555
Ni11 Ni38 2.445467 1_555
Ni11 Ni45 2.497189 1_555
Ni11 Ni43 2.497189 1_555
Ni11 Ni54 2.629912 1_555
Ni11 Ni56 2.629912 1_555
Ni12 Ni3 2.310223 1_555
Ni12 Ni2 2.368292 1_455
Ni12 Ni24 2.445456 1_555
Ni12 Ni27 2.445465 1_455
Ni12 Ni35 2.497192 1_555
Ni12 Ni32 2.497192 1_455
Ni12 Ni54 2.629912 1_455
Ni12 Ni57 2.629912 1_555
Ni13 Ni2 2.368292 1_565
Ni13 Ni29 2.445465 1_555
Ni13 Ni25 2.445465 1_555
Ni13 Ni46 2.497183 1_555
Ni13 Ni42 2.497183 1_555
Ni13 Ni55 2.629912 1_555
Ni13 Ni59 2.629912 1_555
Ni14 Ni8 2.310223 1_555
Ni14 Ni28 2.445456 1_555
Ni14 Ni26 2.445465 1_545
Ni14 Ni39 2.497192 1_545
Ni14 Ni37 2.497192 1_555
Ni14 Ni56 2.629912 1_555
Ni14 Ni58 2.629912 1_545
Ni15 Ni5 2.368292 1_555
Ni15 Ni4 2.368292 1_455
Ni15 Ni33 2.445456 1_555
Ni15 Ni30 2.445465 1_455
Ni15 Ni29 2.497192 1_455
Ni15 Ni26 2.497192 1_555
Ni15 Ni55 2.629912 1_455
Ni15 Ni58 2.629912 1_555
Ni16 Ni7 2.310223 1_555
Ni16 Ni5 2.368292 1_555
Ni16 Ni3 2.368292 1_554
Ni16 Ni31 2.445456 1_555
Ni16 Ni35 2.445465 1_554
Ni16 Ni36 2.497192 1_554
Ni16 Ni40 2.497192 1_555
Ni16 Ni57 2.629912 1_554
Ni16 Ni59 2.629912 1_555
Ni17 Ni3 2.368292 1_655
Ni17 Ni4 2.368292 1_556
Ni17 Ni32 2.445465 1_555
Ni17 Ni34 2.445465 1_555
Ni17 Ni45 2.497183 1_555
Ni17 Ni43 2.497183 1_555
Ni17 Ni54 2.629912 1_555
Ni17 Ni56 2.629912 1_555
Ni18 Ni9 2.310223 1_555
Ni18 Ni8 2.368292 1_565
Ni18 Ni7 2.368292 1_556
Ni18 Ni36 2.445465 1_555
Ni18 Ni39 2.445465 1_555
Ni18 Ni44 2.497183 1_555
Ni18 Ni47 2.497183 1_555
Ni18 Ni58 2.629912 1_555
Ni18 Ni57 2.629912 1_555
Ni19 Ni4 2.310223 1_555
Ni19 Ni6 2.368292 1_555
Ni19 Ni8 2.368292 1_554
Ni19 Ni41 2.445456 1_555
Ni19 Ni37 2.445465 1_554
Ni19 Ni30 2.497192 1_555
Ni19 Ni34 2.497192 1_554
Ni19 Ni56 2.629912 1_554
Ni19 Ni55 2.629912 1_555
Ni20 Ni6 2.368292 1_555
Ni20 Ni7 2.368292 1_545
Ni20 Ni38 2.445456 1_555
Ni20 Ni40 2.445465 1_545
Ni20 Ni25 2.497192 1_545
Ni20 Ni27 2.497192 1_555
Ni20 Ni54 2.629912 1_555
Ni20 Ni59 2.629912 1_545
Ni21 Ni6 2.310223 1_555
Ni21 Ni42 2.445467 1_555
Ni21 Ni45 2.445467 1_555
Ni21 Ni38 2.497189 1_555
Ni21 Ni41 2.497189 1_555
Ni21 Ni54 2.629912 1_555
Ni21 Ni55 2.629912 1_555
Ni22 Ni9 2.368292 1_555
Ni22 Ni43 2.445467 1_555
Ni22 Ni47 2.445467 1_555
Ni22 Ni28 2.497189 1_555
Ni22 Ni24 2.497189 1_555
Ni22 Ni57 2.629912 1_555
Ni22 Ni56 2.629912 1_555
Ni23 Ni5 2.310223 1_555
Ni23 Ni9 2.368292 1_555
Ni23 Ni44 2.445467 1_555
Ni23 Ni46 2.445467 1_555
Ni23 Ni31 2.497189 1_555
Ni23 Ni33 2.497189 1_555
Ni23 Ni58 2.629912 1_555
Ni23 Ni59 2.629912 1_555
Ni24 Ni9 2.445467 1_555
Ni24 Ni57 2.577189 1_555
Ni25 Ni7 2.445465 1_555
Ni25 Ni59 2.577197 1_555
Ni26 Ni5 2.445465 1_555
Ni26 Ni58 2.577197 1_555
Ni27 Ni6 2.445465 1_555
Ni27 Ni54 2.577197 1_555
Ni28 Ni56 2.577189 1_555
Ni29 Ni4 2.445465 1_555
Ni29 Ni55 2.577197 1_555
Ni30 Ni6 2.445465 1_555
Ni30 Ni4 2.497192 1_555
Ni30 Ni55 2.577197 1_555
Ni31 Ni5 2.497183 1_555
Ni31 Ni59 2.577189 1_555
Ni32 Ni54 2.577197 1_555
Ni33 Ni9 2.445467 1_555
Ni33 Ni5 2.497183 1_555
Ni33 Ni58 2.577189 1_555
Ni34 Ni8 2.445465 1_555
Ni34 Ni4 2.497192 1_556
Ni34 Ni56 2.577197 1_555
Ni35 Ni57 2.577197 1_555
Ni36 Ni7 2.497192 1_556
Ni36 Ni57 2.577197 1_555
Ni37 Ni8 2.497192 1_555
Ni37 Ni56 2.577197 1_555
Ni38 Ni6 2.497183 1_555
Ni38 Ni54 2.577189 1_555
Ni39 Ni8 2.497192 1_565
Ni39 Ni58 2.577197 1_555
Ni40 Ni5 2.445465 1_555
Ni40 Ni7 2.497192 1_555
Ni40 Ni59 2.577197 1_555
Ni41 Ni6 2.497183 1_555
Ni41 Ni55 2.577189 1_555
Ni42 Ni55 2.577189 1_555
Ni43 Ni56 2.577189 1_555
Ni44 Ni8 2.445456 1_565
Ni44 Ni9 2.497189 1_555
Ni44 Ni58 2.577189 1_555
Ni45 Ni54 2.577189 1_555
Ni46 Ni59 2.577189 1_555
Ni47 Ni7 2.445456 1_556
Ni47 Ni9 2.497189 1_555
Ni47 Ni57 2.577189 1_555
Ni54 Ni6 2.629912 1_555
Ni55 Ni6 2.629912 1_555
Ni56 Ni8 2.629912 1_555
Ni57 Ni9 2.629912 1_555
Ni57 Ni7 2.629912 1_556
Ni58 Ni8 2.629912 1_565
Ni58 Ni9 2.629912 1_555
Ni59 Ni7 2.629912 1_555
C0 Ni48 1.833663 1_555
C0 Ni25 1.877048 1_555
C0 Ni29 1.877048 1_555
C0 Ni47 1.877055 1_554
C0 Ni43 1.877055 1_554
C0 Ho8 2.606877 1_555
C1 Ni49 1.833663 1_555
C1 Ni26 1.877048 1_545
C1 Ni40 1.877048 1_545
C1 Ni28 1.877055 1_555
C1 Ni38 1.877055 1_555
C1 Ho9 2.606877 1_555
C2 Ni50 1.833663 1_555
C2 Ni27 1.877048 1_455
C2 Ni30 1.877048 1_455
C2 Ni33 1.877055 1_555
C2 Ni24 1.877055 1_555
C2 Ho10 2.606877 1_555
C3 Ni51 1.833663 1_555
C3 Ni35 1.877048 1_554
C3 Ni37 1.877048 1_554
C3 Ni41 1.877055 1_555
C3 Ni31 1.877055 1_555
C3 Ho8 2.606877 1_555
C4 Ni52 1.833663 1_555
C4 Ni32 1.877048 1_555
C4 Ni34 1.877048 1_555
C4 Ni44 1.877055 1_545
C4 Ni46 1.877055 1_545
C4 Ho9 2.606877 1_555
C5 Ni53 1.833663 1_555
C5 Ni39 1.877048 1_555
C5 Ni36 1.877048 1_555
C5 Ni42 1.877055 1_455
C5 Ni45 1.877055 1_455
C5 Ho10 2.606877 1_555
