# generated using pymatgen
data_CdH14C8(NO3)2
_symmetry_space_group_name_H-M   'P 1'
_cell_length_a   16.21396700
_cell_length_b   8.14120100
_cell_length_c   10.62876200
_cell_angle_alpha   90.00000000
_cell_angle_beta   90.00000000
_cell_angle_gamma   90.00000000
_symmetry_Int_Tables_number   1
_chemical_formula_structural   CdH14C8(NO3)2
_chemical_formula_sum   'Cd4 H56 C32 N8 O24'
_cell_volume   1403.00895965
_cell_formula_units_Z   4
loop_
 _symmetry_equiv_pos_site_id
 _symmetry_equiv_pos_as_xyz
  1  'x, y, z'
loop_
 _atom_site_type_symbol
 _atom_site_label
 _atom_site_symmetry_multiplicity
 _atom_site_fract_x
 _atom_site_fract_y
 _atom_site_fract_z
 _atom_site_occupancy
  Cd  Cd0  1  0.50000000  0.83329600  0.75000000  1
  Cd  Cd1  1  0.00000000  0.66670400  0.25000000  1
  Cd  Cd2  1  0.50000000  0.16670400  0.25000000  1
  Cd  Cd3  1  0.00000000  0.33329600  0.75000000  1
  H  H0  1  0.41802900  0.51667300  0.62201800  1
  H  H1  1  0.08197100  0.98332700  0.12201800  1
  H  H2  1  0.91802900  0.98332700  0.37798200  1
  H  H3  1  0.58197100  0.51667300  0.87798200  1
  H  H4  1  0.58197100  0.48332700  0.37798200  1
  H  H5  1  0.91802900  0.01667300  0.87798200  1
  H  H6  1  0.08197100  0.01667300  0.62201800  1
  H  H7  1  0.41802900  0.48332700  0.12201800  1
  H  H8  1  0.35802200  0.30667400  0.54848800  1
  H  H9  1  0.14197800  0.19332600  0.04848800  1
  H  H10  1  0.85802200  0.19332600  0.45151200  1
  H  H11  1  0.64197800  0.30667400  0.95151200  1
  H  H12  1  0.64197800  0.69332600  0.45151200  1
  H  H13  1  0.85802200  0.80667400  0.95151200  1
  H  H14  1  0.14197800  0.80667400  0.54848800  1
  H  H15  1  0.35802200  0.69332600  0.04848800  1
  H  H16  1  0.33533300  0.15381400  0.66528600  1
  H  H17  1  0.16466700  0.34618600  0.16528600  1
  H  H18  1  0.83533300  0.34618600  0.33471400  1
  H  H19  1  0.66466700  0.15381400  0.83471400  1
  H  H20  1  0.66466700  0.84618600  0.33471400  1
  H  H21  1  0.83533300  0.65381400  0.83471400  1
  H  H22  1  0.16466700  0.65381400  0.66528600  1
  H  H23  1  0.33533300  0.84618600  0.16528600  1
  H  H24  1  0.25443300  0.27970700  0.60283400  1
  H  H25  1  0.24556700  0.22029300  0.10283400  1
  H  H26  1  0.75443300  0.22029300  0.39716600  1
  H  H27  1  0.74556700  0.27970700  0.89716600  1
  H  H28  1  0.74556700  0.72029300  0.39716600  1
  H  H29  1  0.75443300  0.77970700  0.89716600  1
  H  H30  1  0.24556700  0.77970700  0.60283400  1
  H  H31  1  0.25443300  0.72029300  0.10283400  1
  H  H32  1  0.29929300  0.47047600  0.91109000  1
  H  H33  1  0.20070700  0.02952400  0.41109000  1
  H  H34  1  0.79929300  0.02952400  0.08891000  1
  H  H35  1  0.70070700  0.47047600  0.58891000  1
  H  H36  1  0.70070700  0.52952400  0.08891000  1
  H  H37  1  0.79929300  0.97047600  0.58891000  1
  H  H38  1  0.20070700  0.97047600  0.91109000  1
  H  H39  1  0.29929300  0.52952400  0.41109000  1
  H  H40  1  0.22258700  0.35763500  0.82525200  1
  H  H41  1  0.27741300  0.14236500  0.32525200  1
  H  H42  1  0.72258700  0.14236500  0.17474800  1
  H  H43  1  0.77741300  0.35763500  0.67474800  1
  H  H44  1  0.77741300  0.64236500  0.17474800  1
  H  H45  1  0.72258700  0.85763500  0.67474800  1
  H  H46  1  0.27741300  0.85763500  0.82525200  1
  H  H47  1  0.22258700  0.64236500  0.32525200  1
  H  H48  1  0.31034800  0.25278200  0.88963400  1
  H  H49  1  0.18965200  0.24721800  0.38963400  1
  H  H50  1  0.81034800  0.24721800  0.11036600  1
  H  H51  1  0.68965200  0.25278200  0.61036600  1
  H  H52  1  0.68965200  0.74721800  0.11036600  1
  H  H53  1  0.81034800  0.75278200  0.61036600  1
  H  H54  1  0.18965200  0.75278200  0.88963400  1
  H  H55  1  0.31034800  0.74721800  0.38963400  1
  C  C0  1  0.45896000  0.95297900  0.48223800  1
  C  C1  1  0.04104000  0.54702100  0.98223800  1
  C  C2  1  0.95896000  0.54702100  0.51776200  1
  C  C3  1  0.54104000  0.95297900  0.01776200  1
  C  C4  1  0.54104000  0.04702100  0.51776200  1
  C  C5  1  0.95896000  0.45297900  0.01776200  1
  C  C6  1  0.04104000  0.45297900  0.48223800  1
  C  C7  1  0.45896000  0.04702100  0.98223800  1
  C  C8  1  0.38865700  0.51664800  0.71574800  1
  C  C9  1  0.11134300  0.98335200  0.21574800  1
  C  C10  1  0.88865700  0.98335200  0.28425200  1
  C  C11  1  0.61134300  0.51664800  0.78425200  1
  C  C12  1  0.61134300  0.48335200  0.28425200  1
  C  C13  1  0.88865700  0.01664800  0.78425200  1
  C  C14  1  0.11134300  0.01664800  0.71574800  1
  C  C15  1  0.38865700  0.48335200  0.21574800  1
  C  C16  1  0.31976100  0.27712400  0.63054900  1
  C  C17  1  0.18023900  0.22287600  0.13054900  1
  C  C18  1  0.81976100  0.22287600  0.36945100  1
  C  C19  1  0.68023900  0.27712400  0.86945100  1
  C  C20  1  0.68023900  0.72287600  0.36945100  1
  C  C21  1  0.81976100  0.77712400  0.86945100  1
  C  C22  1  0.18023900  0.77712400  0.63054900  1
  C  C23  1  0.31976100  0.72287600  0.13054900  1
  C  C24  1  0.28867700  0.36793200  0.84660400  1
  C  C25  1  0.21132300  0.13206800  0.34660400  1
  C  C26  1  0.78867700  0.13206800  0.15339600  1
  C  C27  1  0.71132300  0.36793200  0.65339600  1
  C  C28  1  0.71132300  0.63206800  0.15339600  1
  C  C29  1  0.78867700  0.86793200  0.65339600  1
  C  C30  1  0.21132300  0.86793200  0.84660400  1
  C  C31  1  0.28867700  0.63206800  0.34660400  1
  N  N0  1  0.33388400  0.39608300  0.73027600  1
  N  N1  1  0.16611600  0.10391700  0.23027600  1
  N  N2  1  0.83388400  0.10391700  0.26972400  1
  N  N3  1  0.66611600  0.39608300  0.76972400  1
  N  N4  1  0.66611600  0.60391700  0.26972400  1
  N  N5  1  0.83388400  0.89608300  0.76972400  1
  N  N6  1  0.16611600  0.89608300  0.73027600  1
  N  N7  1  0.33388400  0.60391700  0.23027600  1
  O  O0  1  0.42893000  0.85498400  0.56301000  1
  O  O1  1  0.07107000  0.64501600  0.06301000  1
  O  O2  1  0.92893000  0.64501600  0.43699000  1
  O  O3  1  0.57107000  0.85498400  0.93699000  1
  O  O4  1  0.57107000  0.14501600  0.43699000  1
  O  O5  1  0.92893000  0.35498400  0.93699000  1
  O  O6  1  0.07107000  0.35498400  0.56301000  1
  O  O7  1  0.42893000  0.14501600  0.06301000  1
  O  O8  1  0.57261700  0.01915400  0.62484700  1
  O  O9  1  0.92738300  0.48084600  0.12484700  1
  O  O10  1  0.07261700  0.48084600  0.37515300  1
  O  O11  1  0.42738300  0.01915400  0.87515300  1
  O  O12  1  0.42738300  0.98084600  0.37515300  1
  O  O13  1  0.07261700  0.51915400  0.87515300  1
  O  O14  1  0.92738300  0.51915400  0.62484700  1
  O  O15  1  0.57261700  0.98084600  0.12484700  1
  O  O16  1  0.40610500  0.62194000  0.79872400  1
  O  O17  1  0.09389500  0.87806000  0.29872400  1
  O  O18  1  0.90610500  0.87806000  0.20127600  1
  O  O19  1  0.59389500  0.62194000  0.70127600  1
  O  O20  1  0.59389500  0.37806000  0.20127600  1
  O  O21  1  0.90610500  0.12194000  0.70127600  1
  O  O22  1  0.09389500  0.12194000  0.79872400  1
  O  O23  1  0.40610500  0.37806000  0.29872400  1
loop_
_geom_bond_atom_site_label_1
_geom_bond_atom_site_label_2
_geom_bond_distance
_geom_bond_site_symmetry_2
Cd0 O3 2.304144 1_555
Cd0 O0 2.304144 1_555
Cd0 O11 2.333512 1_565
Cd0 O8 2.333512 1_565
Cd0 O19 2.355145 1_555
Cd0 O16 2.355145 1_555
Cd1 O1 2.304144 1_555
Cd1 O2 2.304144 1_455
Cd1 O10 2.333512 1_555
Cd1 O9 2.333512 1_455
Cd1 O18 2.355145 1_455
Cd1 O17 2.355145 1_555
Cd2 O4 2.304144 1_555
Cd2 O7 2.304144 1_555
Cd2 O12 2.333512 1_545
Cd2 O15 2.333512 1_545
Cd2 O20 2.355145 1_555
Cd2 O23 2.355145 1_555
Cd3 O5 2.304144 1_455
Cd3 O6 2.304144 1_555
Cd3 O13 2.333512 1_555
Cd3 O14 2.333512 1_455
Cd3 O21 2.355145 1_455
Cd3 O22 2.355145 1_555
C0 O12 1.268487 1_555
C0 O0 1.269090 1_555
C1 O13 1.268487 1_555
C1 O1 1.269090 1_556
C2 O14 1.268487 1_555
C2 O2 1.269090 1_555
C3 O15 1.268487 1_555
C3 O3 1.269090 1_554
C4 O8 1.268487 1_555
C4 O4 1.269090 1_555
C5 O9 1.268487 1_555
C5 O5 1.269090 1_554
C6 O10 1.268487 1_555
C6 O6 1.269090 1_555
C7 O11 1.268487 1_555
C7 O7 1.269090 1_556
C8 H0 1.104212 1_555
C8 O16 1.261996 1_555
C8 N0 1.332656 1_555
C9 H1 1.104212 1_555
C9 O17 1.261996 1_555
C9 N1 1.332656 1_565
C10 H2 1.104212 1_555
C10 O18 1.261996 1_555
C10 N2 1.332656 1_565
C11 H3 1.104212 1_555
C11 O19 1.261996 1_555
C11 N3 1.332656 1_555
C12 H4 1.104212 1_555
C12 O20 1.261996 1_555
C12 N4 1.332656 1_555
C13 H5 1.104212 1_555
C13 O21 1.261996 1_555
C13 N5 1.332656 1_545
C14 H6 1.104212 1_555
C14 O22 1.261996 1_555
C14 N6 1.332656 1_545
C15 H7 1.104212 1_555
C15 O23 1.261996 1_555
C15 N7 1.332656 1_555
C16 H8 1.097028 1_555
C16 H16 1.099028 1_555
C16 H24 1.099626 1_555
C16 N0 1.453931 1_555
C17 H9 1.097028 1_555
C17 H17 1.099028 1_555
C17 H25 1.099626 1_555
C17 N1 1.453931 1_555
C18 H10 1.097028 1_555
C18 H18 1.099028 1_555
C18 H26 1.099626 1_555
C18 N2 1.453931 1_555
C19 H11 1.097028 1_555
C19 H19 1.099028 1_555
C19 H27 1.099626 1_555
C19 N3 1.453931 1_555
C20 H12 1.097028 1_555
C20 H20 1.099028 1_555
C20 H28 1.099626 1_555
C20 N4 1.453931 1_555
C21 H13 1.097028 1_555
C21 H21 1.099028 1_555
C21 H29 1.099626 1_555
C21 N5 1.453931 1_555
C22 H14 1.097028 1_555
C22 H22 1.099028 1_555
C22 H30 1.099626 1_555
C22 N6 1.453931 1_555
C23 H15 1.097028 1_555
C23 H23 1.099028 1_555
C23 H31 1.099626 1_555
C23 N7 1.453931 1_555
C24 H32 1.093779 1_555
C24 H40 1.098553 1_555
C24 H48 1.100667 1_555
C24 N0 1.455518 1_555
C25 H33 1.093779 1_555
C25 H41 1.098553 1_555
C25 H49 1.100667 1_555
C25 N1 1.455518 1_555
C26 H34 1.093779 1_555
C26 H42 1.098553 1_555
C26 H50 1.100667 1_555
C26 N2 1.455518 1_555
C27 H35 1.093779 1_555
C27 H43 1.098553 1_555
C27 H51 1.100667 1_555
C27 N3 1.455518 1_555
C28 H36 1.093779 1_555
C28 H44 1.098553 1_555
C28 H52 1.100667 1_555
C28 N4 1.455518 1_555
C29 H37 1.093779 1_555
C29 H45 1.098553 1_555
C29 H53 1.100667 1_555
C29 N5 1.455518 1_555
C30 H38 1.093779 1_555
C30 H46 1.098553 1_555
C30 H54 1.100667 1_555
C30 N6 1.455518 1_555
C31 H39 1.093779 1_555
C31 H47 1.098553 1_555
C31 H55 1.100667 1_555
C31 N7 1.455518 1_555
