# generated using pymatgen
data_RbMoAsO6
_symmetry_space_group_name_H-M   'P 1'
_cell_length_a   10.60014331
_cell_length_b   10.05071143
_cell_length_c   8.68008911
_cell_angle_alpha   68.48242634
_cell_angle_beta   61.89491690
_cell_angle_gamma   49.62265676
_symmetry_Int_Tables_number   1
_chemical_formula_structural   RbMoAsO6
_chemical_formula_sum   'Rb4 Mo4 As4 O24'
_cell_volume   618.79699082
_cell_formula_units_Z   4
loop_
 _symmetry_equiv_pos_site_id
 _symmetry_equiv_pos_as_xyz
  1  'x, y, z'
loop_
 _atom_site_type_symbol
 _atom_site_label
 _atom_site_symmetry_multiplicity
 _atom_site_fract_x
 _atom_site_fract_y
 _atom_site_fract_z
 _atom_site_occupancy
  Rb  Rb0  1  0.79794100  0.20205900  0.20205900  1
  Rb  Rb1  1  0.45205900  0.04794100  0.04794100  1
  Rb  Rb2  1  0.20205900  0.79794100  0.79794100  1
  Rb  Rb3  1  0.04794100  0.45205900  0.45205900  1
  Mo  Mo0  1  0.72122000  0.27878000  0.72122000  1
  Mo  Mo1  1  0.27878000  0.72122000  0.27878000  1
  Mo  Mo2  1  0.52878000  0.97122000  0.52878000  1
  Mo  Mo3  1  0.97122000  0.52878000  0.97122000  1
  As  As0  1  0.62942600  0.62942600  0.37057400  1
  As  As1  1  0.37057400  0.37057400  0.62942600  1
  As  As2  1  0.87942600  0.87942600  0.62057400  1
  As  As3  1  0.62057400  0.62057400  0.87942600  1
  O  O0  1  0.68222400  0.17317900  0.92807600  1
  O  O1  1  0.21652000  0.92807600  0.17317900  1
  O  O2  1  0.92807600  0.21652000  0.68222400  1
  O  O3  1  0.17317900  0.68222400  0.21652000  1
  O  O4  1  0.56777600  0.07682100  0.32192400  1
  O  O5  1  0.03348000  0.32192400  0.07682100  1
  O  O6  1  0.32192400  0.03348000  0.56777600  1
  O  O7  1  0.07682100  0.56777600  0.03348000  1
  O  O8  1  0.78614000  0.10768500  0.58539200  1
  O  O9  1  0.52078200  0.58539200  0.10768500  1
  O  O10  1  0.58539200  0.52078200  0.78614000  1
  O  O11  1  0.10768500  0.78614000  0.52078200  1
  O  O12  1  0.84301200  0.80899300  0.83950800  1
  O  O13  1  0.50848700  0.83950800  0.80899300  1
  O  O14  1  0.83950800  0.50848700  0.84301200  1
  O  O15  1  0.80899300  0.84301200  0.50848700  1
  O  O16  1  0.40698800  0.44100700  0.41049200  1
  O  O17  1  0.74151300  0.41049200  0.44100700  1
  O  O18  1  0.41049200  0.74151300  0.40698800  1
  O  O19  1  0.44100700  0.40698800  0.74151300  1
  O  O20  1  0.14231500  0.46386000  0.72921800  1
  O  O21  1  0.66460800  0.72921800  0.46386000  1
  O  O22  1  0.72921800  0.66460800  0.14231500  1
  O  O23  1  0.46386000  0.14231500  0.66460800  1
loop_
_geom_bond_atom_site_label_1
_geom_bond_atom_site_label_2
_geom_bond_distance
_geom_bond_site_symmetry_2
Mo0 O2 1.729867 1_555
Mo0 O0 1.729870 1_555
Mo0 O10 2.002573 1_555
Mo0 O8 2.002581 1_555
Mo0 O17 2.286630 1_555
Mo0 O19 2.286630 1_555
Mo1 O1 1.729869 1_555
Mo1 O3 1.729877 1_555
Mo1 O11 2.002575 1_555
Mo1 O9 2.002576 1_555
Mo1 O18 2.286630 1_555
Mo1 O16 2.286630 1_555
Mo2 O6 1.729867 1_565
Mo2 O4 1.729870 1_565
Mo2 O21 2.002573 1_555
Mo2 O23 2.002581 1_565
Mo2 O15 2.286630 1_555
Mo2 O13 2.286630 1_555
Mo3 O5 1.729869 1_656
Mo3 O7 1.729877 1_656
Mo3 O20 2.002575 1_655
Mo3 O22 2.002576 1_556
Mo3 O12 2.286630 1_555
Mo3 O14 2.286630 1_555
As0 O18 1.713932 1_555
As0 O17 1.713932 1_555
As0 O22 1.779214 1_555
As0 O21 1.779220 1_555
As1 O16 1.713932 1_555
As1 O19 1.713932 1_555
As1 O23 1.779212 1_555
As1 O20 1.779212 1_555
As2 O15 1.713932 1_555
As2 O12 1.713932 1_555
As2 O8 1.779212 1_565
As2 O11 1.779212 1_655
As3 O13 1.713932 1_555
As3 O14 1.713932 1_555
As3 O9 1.779214 1_556
As3 O10 1.779220 1_555
O0 Rb1 3.040725 1_556
O0 Rb0 3.310714 1_556
O1 Rb1 3.040735 1_565
O1 Rb0 3.310705 1_465
O2 Rb3 3.040733 1_655
O2 Rb2 3.310708 1_645
O3 Rb3 3.040727 1_555
O3 Rb2 3.310705 1_554
O4 Rb0 3.040725 1_555
O4 Rb1 3.310714 1_555
O5 Rb0 3.040735 1_455
O5 Rb1 3.310705 1_555
O6 Rb2 3.040733 1_545
O6 Rb3 3.310708 1_555
O7 Rb2 3.040727 1_554
O7 Rb3 3.310705 1_555
O8 Rb0 3.071327 1_555
O9 Rb0 3.071330 1_555
O10 Rb2 3.071328 1_555
O11 Rb2 3.071335 1_555
O12 Rb1 3.072985 1_566
O13 Rb1 3.072985 1_566
O14 Rb3 3.072985 1_655
O15 Rb3 3.072985 1_655
O16 Rb0 3.072985 1_555
O17 Rb0 3.072985 1_555
O18 Rb2 3.072985 1_555
O19 Rb2 3.072985 1_555
O20 Rb3 3.071335 1_555
O21 Rb3 3.071328 1_655
O22 Rb1 3.071330 1_565
O23 Rb1 3.071327 1_556
