# generated using pymatgen
data_HoAlPd
_symmetry_space_group_name_H-M   'P 1'
_cell_length_a   4.42178148
_cell_length_b   6.86808117
_cell_length_c   7.69342342
_cell_angle_alpha   90.00000000
_cell_angle_beta   90.00000000
_cell_angle_gamma   90.00000000
_symmetry_Int_Tables_number   1
_chemical_formula_structural   HoAlPd
_chemical_formula_sum   'Ho4 Al4 Pd4'
_cell_volume   233.64276156
_cell_formula_units_Z   4
loop_
 _symmetry_equiv_pos_site_id
 _symmetry_equiv_pos_as_xyz
  1  'x, y, z'
loop_
 _atom_site_type_symbol
 _atom_site_label
 _atom_site_symmetry_multiplicity
 _atom_site_fract_x
 _atom_site_fract_y
 _atom_site_fract_z
 _atom_site_occupancy
  Ho  Ho0  1  0.75000000  0.46827167  0.81969501  1
  Ho  Ho1  1  0.75000000  0.96827167  0.68030499  1
  Ho  Ho2  1  0.25000000  0.53172833  0.18030499  1
  Ho  Ho3  1  0.25000000  0.03172833  0.31969501  1
  Al  Al0  1  0.75000000  0.35567826  0.43739752  1
  Al  Al1  1  0.75000000  0.85567826  0.06260248  1
  Al  Al2  1  0.25000000  0.64432174  0.56260248  1
  Al  Al3  1  0.25000000  0.14432174  0.93739752  1
  Pd  Pd0  1  0.75000000  0.22715387  0.11781451  1
  Pd  Pd1  1  0.75000000  0.72715387  0.38218549  1
  Pd  Pd2  1  0.25000000  0.77284613  0.88218549  1
  Pd  Pd3  1  0.25000000  0.27284613  0.61781451  1
loop_
_geom_bond_atom_site_label_1
_geom_bond_atom_site_label_2
_geom_bond_distance
_geom_bond_site_symmetry_2
Ho0 Pd0 2.828923 1_556
Ho0 Pd3 3.016922 1_555
Ho0 Pd3 3.016922 1_655
Ho0 Pd2 3.081392 1_655
Ho0 Pd2 3.081392 1_555
Ho0 Ho2 3.574194 1_556
Ho0 Ho2 3.574194 1_656
Ho0 Ho1 3.597589 1_545
Ho0 Ho1 3.597589 1_555
Ho1 Pd1 2.828923 1_555
Ho1 Pd2 3.016922 1_655
Ho1 Pd2 3.016922 1_555
Ho1 Pd3 3.081392 1_565
Ho1 Pd3 3.081392 1_665
Ho1 Ho3 3.574194 1_565
Ho1 Ho3 3.574194 1_665
Ho2 Pd2 2.828923 1_554
Ho2 Pd1 3.016922 1_555
Ho2 Pd1 3.016922 1_455
Ho2 Pd0 3.081392 1_555
Ho2 Pd0 3.081392 1_455
Ho2 Ho3 3.597589 1_555
Ho2 Ho3 3.597589 1_565
Ho3 Pd3 2.828923 1_555
Ho3 Pd0 3.016922 1_555
Ho3 Pd0 3.016922 1_455
Ho3 Pd1 3.081392 1_445
Ho3 Pd1 3.081392 1_545
Al0 Pd1 2.586443 1_555
Al0 Pd0 2.612342 1_555
Al0 Pd3 2.671759 1_555
Al0 Pd3 2.671759 1_655
Al0 Ho0 3.041137 1_555
Al0 Ho2 3.203467 1_555
Al0 Ho2 3.203467 1_655
Al0 Ho1 3.251448 1_545
Al0 Ho3 3.264702 1_555
Al0 Ho3 3.264702 1_655
Al1 Pd0 2.586443 1_565
Al1 Pd1 2.612342 1_555
Al1 Pd2 2.671759 1_654
Al1 Pd2 2.671759 1_554
Al1 Ho1 3.041137 1_554
Al1 Ho3 3.203467 1_565
Al1 Ho3 3.203467 1_665
Al1 Ho0 3.251448 1_554
Al1 Ho2 3.264702 1_555
Al1 Ho2 3.264702 1_655
Al2 Pd3 2.586443 1_555
Al2 Pd2 2.612342 1_555
Al2 Pd1 2.671759 1_455
Al2 Pd1 2.671759 1_555
Al2 Ho2 3.041137 1_555
Al2 Ho0 3.203467 1_555
Al2 Ho0 3.203467 1_455
Al2 Ho3 3.251448 1_565
Al2 Ho1 3.264702 1_555
Al2 Ho1 3.264702 1_455
Al3 Pd2 2.586443 1_545
Al3 Pd3 2.612342 1_555
Al3 Pd0 2.671759 1_556
Al3 Pd0 2.671759 1_456
Al3 Ho3 3.041137 1_556
Al3 Ho1 3.203467 1_445
Al3 Ho1 3.203467 1_545
Al3 Ho2 3.251448 1_556
Al3 Ho0 3.264702 1_455
Al3 Ho0 3.264702 1_555
