# generated using pymatgen
data_LuAgGe
_symmetry_space_group_name_H-M   'P 1'
_cell_length_a   7.01081334
_cell_length_b   7.01081334
_cell_length_c   4.13243374
_cell_angle_alpha   90.00000000
_cell_angle_beta   90.00000000
_cell_angle_gamma   119.99999902
_symmetry_Int_Tables_number   1
_chemical_formula_structural   LuAgGe
_chemical_formula_sum   'Lu3 Ag3 Ge3'
_cell_volume   175.90303913
_cell_formula_units_Z   3
loop_
 _symmetry_equiv_pos_site_id
 _symmetry_equiv_pos_as_xyz
  1  'x, y, z'
loop_
 _atom_site_type_symbol
 _atom_site_label
 _atom_site_symmetry_multiplicity
 _atom_site_fract_x
 _atom_site_fract_y
 _atom_site_fract_z
 _atom_site_occupancy
  Lu  Lu0  1  0.58320444  0.00000000  -0.00000000  1
  Lu  Lu1  1  0.00000000  0.58320444  0.00000000  1
  Lu  Lu2  1  0.41679556  0.41679556  0.00000000  1
  Ag  Ag0  1  0.25224447  0.00000000  0.50000000  1
  Ag  Ag1  1  0.00000000  0.25224447  0.50000000  1
  Ag  Ag2  1  0.74775553  0.74775553  0.50000000  1
  Ge  Ge0  1  0.33333300  0.66666700  0.50000000  1
  Ge  Ge1  1  0.66666700  0.33333300  0.50000000  1
  Ge  Ge2  1  -0.00000000  -0.00000000  -0.00000000  1
loop_
_geom_bond_atom_site_label_1
_geom_bond_atom_site_label_2
_geom_bond_distance
_geom_bond_site_symmetry_2
Ag0 Ge0 2.667020 1_545
Ag0 Ge1 2.667025 1_555
Ag0 Ge2 2.719674 1_555
Ag0 Ge2 2.719674 1_556
Ag0 Ag1 3.063026 1_555
Ag0 Ag2 3.063026 1_445
Ag0 Lu0 3.106934 1_556
Ag0 Lu0 3.106934 1_555
Ag0 Lu2 3.281409 1_556
Ag0 Lu2 3.281409 1_555
Ag0 Lu1 3.281409 1_546
Ag0 Lu1 3.281409 1_545
Ag1 Ge1 2.667020 1_455
Ag1 Ge0 2.667025 1_555
Ag1 Ge2 2.719674 1_555
Ag1 Ge2 2.719674 1_556
Ag1 Ag2 3.063026 1_445
Ag1 Lu1 3.106934 1_556
Ag1 Lu1 3.106934 1_555
Ag1 Lu2 3.281409 1_556
Ag1 Lu2 3.281409 1_555
Ag1 Lu0 3.281409 1_456
Ag1 Lu0 3.281409 1_455
Ag2 Ge1 2.667027 1_555
Ag2 Ge0 2.667027 1_555
Ag2 Ge2 2.719674 1_665
Ag2 Ge2 2.719674 1_666
Ag2 Lu2 3.106934 1_556
Ag2 Lu2 3.106934 1_555
Ag2 Lu0 3.281409 1_566
Ag2 Lu0 3.281409 1_565
Ag2 Lu1 3.281409 1_655
Ag2 Lu1 3.281409 1_656
Ge0 Lu1 2.950504 1_556
Ge0 Lu1 2.950504 1_555
Ge0 Lu0 2.950505 1_566
Ge0 Lu0 2.950505 1_565
Ge0 Lu2 2.950509 1_556
Ge0 Lu2 2.950509 1_555
Ge1 Lu0 2.950504 1_556
Ge1 Lu0 2.950504 1_555
Ge1 Lu1 2.950505 1_655
Ge1 Lu1 2.950505 1_656
Ge1 Lu2 2.950509 1_556
Ge1 Lu2 2.950509 1_555
Ge2 Lu1 2.922076 1_545
Ge2 Lu0 2.922076 1_455
Ge2 Lu2 2.922076 1_555
