# generated using pymatgen
data_CaWO2
_symmetry_space_group_name_H-M   'P 1'
_cell_length_a   3.15978600
_cell_length_b   8.35275928
_cell_length_c   8.52295961
_cell_angle_alpha   87.63434705
_cell_angle_beta   79.58001701
_cell_angle_gamma   79.37402703
_symmetry_Int_Tables_number   1
_chemical_formula_structural   CaWO2
_chemical_formula_sum   'Ca4 W4 O8'
_cell_volume   217.43508678
_cell_formula_units_Z   4
loop_
 _symmetry_equiv_pos_site_id
 _symmetry_equiv_pos_as_xyz
  1  'x, y, z'
loop_
 _atom_site_type_symbol
 _atom_site_label
 _atom_site_symmetry_multiplicity
 _atom_site_fract_x
 _atom_site_fract_y
 _atom_site_fract_z
 _atom_site_occupancy
  Ca  Ca0  1  0.65086000  0.69827500  0.02733700  1
  Ca  Ca1  1  0.39088800  0.27520400  0.95521400  1
  Ca  Ca2  1  0.66679600  0.94922700  0.69502800  1
  Ca  Ca3  1  0.37584200  0.02692900  0.28410600  1
  W  W0  1  0.66216000  0.37795800  0.31703900  1
  W  W1  1  0.02731600  0.64773000  0.37745900  1
  W  W2  1  0.00171400  0.32275400  0.60565300  1
  W  W3  1  0.36150900  0.59428700  0.66307400  1
  O  O0  1  0.88214700  0.47872000  0.81900100  1
  O  O1  1  0.74450900  0.16075600  0.46861300  1
  O  O2  1  0.33089000  0.80234300  0.50378600  1
  O  O3  1  0.17943000  0.49490800  0.16355600  1
  O  O4  1  0.84304600  0.19667000  0.14010800  1
  O  O5  1  0.01094500  0.83086500  0.20317600  1
  O  O6  1  0.19775600  0.77797000  0.83683400  1
  O  O7  1  0.02875000  0.13978500  0.77935300  1
loop_
_geom_bond_atom_site_label_1
_geom_bond_atom_site_label_2
_geom_bond_distance
_geom_bond_site_symmetry_2
Ca0 O6 2.320708 1_654
Ca0 O6 2.351450 1_554
Ca0 O5 2.403339 1_555
Ca0 O5 2.446560 1_655
Ca0 O0 2.520971 1_554
Ca0 O3 2.552480 1_655
Ca0 O3 2.568494 1_555
Ca1 O4 2.292786 1_456
Ca1 O4 2.310469 1_556
Ca1 O7 2.407221 1_655
Ca1 O7 2.464361 1_555
Ca1 O0 2.515146 1_455
Ca1 O3 2.520888 1_556
Ca1 O0 2.608722 1_555
Ca2 O7 2.328337 1_665
Ca2 O7 2.345520 1_565
Ca2 O6 2.386356 1_555
Ca2 O6 2.455073 1_655
Ca2 O2 2.558061 1_655
Ca2 O2 2.561182 1_555
Ca2 O1 2.571582 1_565
Ca3 O5 2.358909 1_545
Ca3 O5 2.359127 1_645
Ca3 O4 2.380894 1_555
Ca3 O1 2.426924 1_455
Ca3 O4 2.464572 1_455
Ca3 O1 2.523375 1_555
Ca3 O2 2.599410 1_545
O0 W3 2.167346 1_655
O0 W2 2.216269 1_655
O0 W3 2.345972 1_555
O1 W2 2.176018 1_655
O1 W0 2.186795 1_555
O1 W2 2.582927 1_555
O2 W3 2.159463 1_555
O2 W1 2.166199 1_555
O2 W1 2.424707 1_655
O3 W1 2.198400 1_555
O3 W0 2.246521 1_455
O3 W0 2.249181 1_555
O4 W0 2.109785 1_555
O5 W1 2.088079 1_555
O6 W3 2.105354 1_555
O7 W2 2.084586 1_555
