# generated using pymatgen
data_Ag3Mo3AsO13
_symmetry_space_group_name_H-M   'P 1'
_cell_length_a   8.18517700
_cell_length_b   8.36960222
_cell_length_c   9.86523929
_cell_angle_alpha   113.87092200
_cell_angle_beta   99.02782971
_cell_angle_gamma   105.65107442
_symmetry_Int_Tables_number   1
_chemical_formula_structural   Ag3Mo3AsO13
_chemical_formula_sum   'Ag6 Mo6 As2 O26'
_cell_volume   567.28750838
_cell_formula_units_Z   2
loop_
 _symmetry_equiv_pos_site_id
 _symmetry_equiv_pos_as_xyz
  1  'x, y, z'
loop_
 _atom_site_type_symbol
 _atom_site_label
 _atom_site_symmetry_multiplicity
 _atom_site_fract_x
 _atom_site_fract_y
 _atom_site_fract_z
 _atom_site_occupancy
  Ag  Ag0  1  0.39146900  0.23407700  0.41994100  1
  Ag  Ag1  1  0.60853100  0.76592300  0.58005900  1
  Ag  Ag2  1  0.08965800  0.79075300  0.55829900  1
  Ag  Ag3  1  0.91034200  0.20924700  0.44170100  1
  Ag  Ag4  1  0.25641200  0.49448700  0.03525200  1
  Ag  Ag5  1  0.74358800  0.50551300  0.96474800  1
  Mo  Mo0  1  0.30198200  0.33297900  0.75595900  1
  Mo  Mo1  1  0.69801800  0.66702100  0.24404100  1
  Mo  Mo2  1  0.11666100  0.71105000  0.23233300  1
  Mo  Mo3  1  0.88333900  0.28895000  0.76766700  1
  Mo  Mo4  1  0.48695100  0.06855000  0.14170900  1
  Mo  Mo5  1  0.51304900  0.93145000  0.85829100  1
  As  As0  1  0.94684000  0.10803100  0.16865500  1
  As  As1  1  0.05316000  0.89196900  0.83134500  1
  O  O0  1  0.21798600  0.54536000  0.24288600  1
  O  O1  1  0.78201400  0.45464000  0.75711400  1
  O  O2  1  0.46146100  0.52531100  0.73676900  1
  O  O3  1  0.53853900  0.47468900  0.26323100  1
  O  O4  1  0.40936100  0.28543000  0.03077000  1
  O  O5  1  0.59063900  0.71457000  0.96923000  1
  O  O6  1  0.08085800  0.11476900  0.34581400  1
  O  O7  1  0.91914200  0.88523100  0.65418600  1
  O  O8  1  0.91464600  0.89001600  0.17673400  1
  O  O9  1  0.08535400  0.10998400  0.82326600  1
  O  O10  1  0.74800700  0.18478800  0.13055100  1
  O  O11  1  0.25199300  0.81521200  0.86944900  1
  O  O12  1  0.03010700  0.25031900  0.01800300  1
  O  O13  1  0.96989300  0.74968100  0.98199700  1
  O  O14  1  0.44156500  0.13138000  0.87692500  1
  O  O15  1  0.55843500  0.86862000  0.12307500  1
  O  O16  1  0.26240700  0.92951900  0.13684200  1
  O  O17  1  0.73759300  0.07048100  0.86315800  1
  O  O18  1  0.55803000  0.03512100  0.34075800  1
  O  O19  1  0.44197000  0.96487900  0.65924200  1
  O  O20  1  0.76497500  0.68693700  0.42442200  1
  O  O21  1  0.23502500  0.31306300  0.57557800  1
  O  O22  1  0.11294000  0.43972700  0.74755400  1
  O  O23  1  0.88706000  0.56027300  0.25244600  1
  O  O24  1  0.21013900  0.71929900  0.42021200  1
  O  O25  1  0.78986100  0.28070100  0.57978800  1
loop_
_geom_bond_atom_site_label_1
_geom_bond_atom_site_label_2
_geom_bond_distance
_geom_bond_site_symmetry_2
Ag0 O21 2.164824 1_555
Ag0 O6 2.334832 1_555
Ag0 O18 2.397509 1_555
Ag0 O16 2.696821 1_545
Ag1 O20 2.164824 1_555
Ag1 O7 2.334832 1_555
Ag1 O19 2.397509 1_555
Ag1 O17 2.696821 1_565
Ag2 O24 1.807306 1_555
Ag2 O7 1.967866 1_455
Ag2 O19 2.662353 1_555
Ag3 O25 1.807306 1_555
Ag3 O6 1.967866 1_655
Ag3 O18 2.662353 1_555
Ag4 O0 2.011106 1_555
Ag4 O12 2.283325 1_555
Ag4 O4 2.401549 1_555
Ag5 O1 2.011106 1_555
Ag5 O13 2.283325 1_555
Ag5 O5 2.401549 1_555
Mo0 O21 1.702746 1_555
Mo0 O2 1.876571 1_555
Mo0 O22 1.991226 1_555
Mo1 O20 1.702746 1_555
Mo1 O3 1.876571 1_555
Mo1 O23 1.991226 1_555
Mo2 O0 1.825402 1_555
Mo2 O24 1.856993 1_555
Mo2 O23 2.050318 1_455
Mo2 O16 2.494768 1_555
Mo3 O1 1.825402 1_555
Mo3 O25 1.856993 1_555
Mo3 O22 2.050318 1_655
Mo3 O17 2.494768 1_555
Mo4 O15 1.867955 1_545
Mo4 O16 1.872830 1_545
Mo4 O18 2.108723 1_555
Mo4 O10 2.136190 1_555
Mo4 O4 2.628278 1_555
Mo5 O14 1.867955 1_565
Mo5 O17 1.872830 1_565
Mo5 O19 2.108723 1_555
Mo5 O11 2.136190 1_555
Mo5 O5 2.628278 1_555
As0 O8 1.808363 1_545
As0 O6 1.883136 1_655
As0 O10 1.941726 1_555
As0 O12 2.324660 1_655
As1 O9 1.808363 1_565
As1 O7 1.883136 1_455
As1 O11 1.941726 1_555
As1 O13 2.324660 1_455
O14 O4 1.661469 1_556
O15 O5 1.661469 1_554
