# generated using pymatgen
data_Nd5Ge4
_symmetry_space_group_name_H-M   'P 1'
_cell_length_a   7.94699638
_cell_length_b   8.03119926
_cell_length_c   15.20428941
_cell_angle_alpha   90.00000000
_cell_angle_beta   90.00000000
_cell_angle_gamma   90.00000000
_symmetry_Int_Tables_number   1
_chemical_formula_structural   Nd5Ge4
_chemical_formula_sum   'Nd20 Ge16'
_cell_volume   970.39722091
_cell_formula_units_Z   4
loop_
 _symmetry_equiv_pos_site_id
 _symmetry_equiv_pos_as_xyz
  1  'x, y, z'
loop_
 _atom_site_type_symbol
 _atom_site_label
 _atom_site_symmetry_multiplicity
 _atom_site_fract_x
 _atom_site_fract_y
 _atom_site_fract_z
 _atom_site_occupancy
  Nd  Nd0  1  0.39156730  0.16161049  0.88717501  1
  Nd  Nd1  1  0.89156730  0.33838951  0.61282499  1
  Nd  Nd2  1  0.10843270  0.66161049  0.11282499  1
  Nd  Nd3  1  0.60843270  0.83838951  0.38717501  1
  Nd  Nd4  1  0.39156730  0.16161049  0.61282499  1
  Nd  Nd5  1  0.89156730  0.33838951  0.88717501  1
  Nd  Nd6  1  0.10843270  0.66161049  0.38717501  1
  Nd  Nd7  1  0.60843270  0.83838951  0.11282499  1
  Nd  Nd8  1  0.03961995  0.82490362  0.60487593  1
  Nd  Nd9  1  0.53961895  0.67509638  0.89512407  1
  Nd  Nd10  1  0.46038105  0.32490362  0.39512507  1
  Nd  Nd11  1  0.96038005  0.17509638  0.10487493  1
  Nd  Nd12  1  0.96038005  0.17509638  0.39512507  1
  Nd  Nd13  1  0.46038105  0.32490362  0.10487493  1
  Nd  Nd14  1  0.53961895  0.67509638  0.60487593  1
  Nd  Nd15  1  0.03961995  0.82490362  0.89512407  1
  Nd  Nd16  1  0.27706741  0.99880906  0.25000000  1
  Nd  Nd17  1  0.77706741  0.50119094  0.25000000  1
  Nd  Nd18  1  0.22293259  0.49880906  0.75000000  1
  Nd  Nd19  1  0.72293259  0.00119094  0.75000000  1
  Ge  Ge0  1  0.76875409  0.52394393  0.45340077  1
  Ge  Ge1  1  0.26875409  0.97605607  0.04659923  1
  Ge  Ge2  1  0.73124591  0.02394393  0.54659923  1
  Ge  Ge3  1  0.23124591  0.47605607  0.95340077  1
  Ge  Ge4  1  0.23124591  0.47605607  0.54659923  1
  Ge  Ge5  1  0.73124591  0.02394393  0.95340077  1
  Ge  Ge6  1  0.26875409  0.97605607  0.45340077  1
  Ge  Ge7  1  0.76875409  0.52394393  0.04659923  1
  Ge  Ge8  1  0.89909247  0.88929034  0.25000000  1
  Ge  Ge9  1  0.39909247  0.61070866  0.25000000  1
  Ge  Ge10  1  0.60090753  0.38929134  0.75000000  1
  Ge  Ge11  1  0.10090753  0.11070966  0.75000000  1
  Ge  Ge12  1  0.16344218  0.37222558  0.25000000  1
  Ge  Ge13  1  0.66344218  0.12777442  0.25000000  1
  Ge  Ge14  1  0.33655782  0.87222558  0.75000000  1
  Ge  Ge15  1  0.83655782  0.62777442  0.75000000  1
loop_
_geom_bond_atom_site_label_1
_geom_bond_atom_site_label_2
_geom_bond_distance
_geom_bond_site_symmetry_2
Ge0 Nd3 3.002443 1_555
Ge0 Nd1 3.008120 1_555
Ge0 Nd10 3.057124 1_555
Ge0 Nd6 3.085966 1_655
Ge0 Nd17 3.098663 1_555
Ge0 Nd14 3.177041 1_555
Ge0 Nd12 3.309602 1_555
Ge1 Nd2 3.002443 1_555
Ge1 Nd0 3.008120 1_564
Ge1 Nd11 3.057130 1_465
Ge1 Nd7 3.085966 1_555
Ge1 Nd16 3.098663 1_555
Ge1 Nd15 3.177036 1_554
Ge1 Nd13 3.309606 1_565
Ge2 Nd1 3.002443 1_555
Ge2 Nd3 3.008120 1_545
Ge2 Nd8 3.057135 1_645
Ge2 Nd4 3.085966 1_555
Ge2 Nd19 3.098663 1_555
Ge2 Nd12 3.177025 1_555
Ge2 Nd14 3.309610 1_545
Ge3 Nd0 3.002443 1_555
Ge3 Nd2 3.008120 1_556
Ge3 Nd9 3.057128 1_555
Ge3 Nd5 3.085966 1_455
Ge3 Nd18 3.098663 1_555
Ge3 Nd13 3.177030 1_556
Ge3 Nd15 3.309606 1_555
Ge4 Nd4 3.002443 1_555
Ge4 Nd6 3.008120 1_555
Ge4 Nd14 3.057128 1_555
Ge4 Nd1 3.085966 1_455
Ge4 Nd18 3.098663 1_555
Ge4 Nd10 3.177030 1_555
Ge4 Nd8 3.309606 1_555
Ge5 Nd5 3.002443 1_555
Ge5 Nd7 3.008120 1_546
Ge5 Nd15 3.057135 1_645
Ge5 Nd0 3.085966 1_555
Ge5 Nd19 3.098663 1_555
Ge5 Nd11 3.177025 1_556
Ge5 Nd9 3.309610 1_545
Ge6 Nd6 3.002443 1_555
Ge6 Nd4 3.008120 1_565
Ge6 Nd12 3.057130 1_465
Ge6 Nd3 3.085966 1_555
Ge6 Nd16 3.098663 1_555
Ge6 Nd8 3.177036 1_555
Ge6 Nd10 3.309606 1_565
Ge7 Nd7 3.002443 1_555
Ge7 Nd5 3.008120 1_554
Ge7 Nd13 3.057124 1_555
Ge7 Nd2 3.085966 1_655
Ge7 Nd17 3.098663 1_555
Ge7 Nd9 3.177041 1_554
Ge7 Nd11 3.309602 1_555
Ge8 Nd16 3.129895 1_655
Ge8 Nd7 3.138878 1_555
Ge8 Nd3 3.138878 1_555
Ge8 Nd11 3.220973 1_565
Ge8 Nd12 3.220973 1_565
Ge8 Nd2 3.234370 1_655
Ge8 Nd6 3.234370 1_655
Ge8 Nd17 3.264272 1_555
Ge9 Nd17 3.129893 1_555
Ge9 Nd6 3.138879 1_555
Ge9 Nd2 3.138879 1_555
Ge9 Nd13 3.220969 1_555
Ge9 Nd10 3.220969 1_555
Ge9 Nd3 3.234374 1_555
Ge9 Nd7 3.234374 1_555
Ge9 Nd16 3.264279 1_555
Ge10 Ge15 2.678702 1_555
Ge10 Nd18 3.129893 1_555
Ge10 Nd1 3.138879 1_555
Ge10 Nd5 3.138879 1_555
Ge10 Nd9 3.220958 1_555
Ge10 Nd14 3.220958 1_555
Ge10 Nd0 3.234374 1_555
Ge10 Nd4 3.234374 1_555
Ge10 Nd19 3.264279 1_555
Ge11 Ge14 2.678708 1_545
Ge11 Nd19 3.129895 1_455
Ge11 Nd4 3.138878 1_555
Ge11 Nd0 3.138878 1_555
Ge11 Nd8 3.220963 1_545
Ge11 Nd15 3.220963 1_545
Ge11 Nd5 3.234370 1_455
Ge11 Nd1 3.234370 1_455
Ge11 Nd18 3.264272 1_555
Ge12 Ge9 2.678702 1_555
Ge12 Nd16 3.131975 1_545
Ge12 Nd2 3.153176 1_555
Ge12 Nd6 3.153176 1_555
Ge12 Nd11 3.159012 1_455
Ge12 Nd12 3.159012 1_455
Ge12 Nd17 3.240503 1_455
Ge12 Nd13 3.252954 1_555
Ge12 Nd10 3.252954 1_555
Ge13 Ge8 2.678708 1_545
Ge13 Nd17 3.131975 1_555
Ge13 Nd7 3.153176 1_545
Ge13 Nd3 3.153176 1_545
Ge13 Nd13 3.159008 1_555
Ge13 Nd10 3.159008 1_555
Ge13 Nd16 3.240503 1_545
Ge13 Nd11 3.252948 1_555
Ge13 Nd12 3.252948 1_555
Ge14 Nd18 3.131975 1_555
Ge14 Nd0 3.153176 1_565
Ge14 Nd4 3.153176 1_565
Ge14 Nd14 3.158997 1_555
Ge14 Nd9 3.158997 1_555
Ge14 Nd19 3.240503 1_565
Ge14 Nd8 3.252938 1_555
Ge14 Nd15 3.252938 1_555
Ge15 Nd19 3.131975 1_565
Ge15 Nd1 3.153176 1_555
Ge15 Nd5 3.153176 1_555
Ge15 Nd8 3.159001 1_655
Ge15 Nd15 3.159001 1_655
Ge15 Nd18 3.240503 1_655
Ge15 Nd14 3.252944 1_555
Ge15 Nd9 3.252944 1_555
