# generated using pymatgen
data_K3AsSe4
_symmetry_space_group_name_H-M   'P 1'
_cell_length_a   9.48981742
_cell_length_b   9.90913182
_cell_length_c   10.98814487
_cell_angle_alpha   90.00000000
_cell_angle_beta   90.00000000
_cell_angle_gamma   90.00000000
_symmetry_Int_Tables_number   1
_chemical_formula_structural   K3AsSe4
_chemical_formula_sum   'K12 As4 Se16'
_cell_volume   1033.27956214
_cell_formula_units_Z   4
loop_
 _symmetry_equiv_pos_site_id
 _symmetry_equiv_pos_as_xyz
  1  'x, y, z'
loop_
 _atom_site_type_symbol
 _atom_site_label
 _atom_site_symmetry_multiplicity
 _atom_site_fract_x
 _atom_site_fract_y
 _atom_site_fract_z
 _atom_site_occupancy
  K  K0  1  0.64024215  0.41911331  0.75000000  1
  K  K1  1  0.14024215  0.08088669  0.75000000  1
  K  K2  1  0.35975785  0.58088669  0.25000000  1
  K  K3  1  0.85975785  0.91911331  0.25000000  1
  K  K4  1  0.56819464  0.19475004  0.04523360  1
  K  K5  1  0.06819464  0.30524996  0.45476640  1
  K  K6  1  0.43180536  0.80524996  0.54523360  1
  K  K7  1  0.93180536  0.69475004  0.95476640  1
  K  K8  1  0.43180536  0.80524996  0.95476640  1
  K  K9  1  0.93180536  0.69475004  0.54523360  1
  K  K10  1  0.56819464  0.19475004  0.45476640  1
  K  K11  1  0.06819464  0.30524996  0.04523360  1
  As  As0  1  0.72236986  0.97616105  0.75000000  1
  As  As1  1  0.22236986  0.52383895  0.75000000  1
  As  As2  1  0.27763014  0.02383895  0.25000000  1
  As  As3  1  0.77763014  0.47616105  0.25000000  1
  Se  Se0  1  0.84980647  0.02880348  0.57540052  1
  Se  Se1  1  0.34980647  0.47119652  0.92459948  1
  Se  Se2  1  0.15019353  0.97119652  0.07540052  1
  Se  Se3  1  0.65019353  0.52880348  0.42459948  1
  Se  Se4  1  0.15019353  0.97119652  0.42459948  1
  Se  Se5  1  0.65019353  0.52880348  0.07540052  1
  Se  Se6  1  0.84980647  0.02880348  0.92459948  1
  Se  Se7  1  0.34980647  0.47119652  0.57540052  1
  Se  Se8  1  0.67581766  0.74634252  0.75000000  1
  Se  Se9  1  0.17581766  0.75365748  0.75000000  1
  Se  Se10  1  0.32418234  0.25365748  0.25000000  1
  Se  Se11  1  0.82418234  0.24634252  0.25000000  1
  Se  Se12  1  0.50853648  0.09433126  0.75000000  1
  Se  Se13  1  0.00853648  0.40566874  0.75000000  1
  Se  Se14  1  0.49146352  0.90566874  0.25000000  1
  Se  Se15  1  0.99146352  0.59433126  0.25000000  1
loop_
_geom_bond_atom_site_label_1
_geom_bond_atom_site_label_2
_geom_bond_distance
_geom_bond_site_symmetry_2
K0 Se8 3.260085 1_555
K0 Se7 3.397592 1_555
K0 Se1 3.397592 1_555
K0 Se12 3.452487 1_555
K0 Se13 3.497584 1_655
K0 Se3 3.738300 1_555
K0 Se5 3.738300 1_556
K1 Se9 3.260085 1_545
K1 Se6 3.397592 1_455
K1 Se0 3.397592 1_455
K1 Se13 3.452487 1_555
K1 Se12 3.497584 1_555
K1 Se4 3.738300 1_545
K1 Se2 3.738300 1_546
K2 Se10 3.260085 1_555
K2 Se5 3.397592 1_555
K2 Se3 3.397592 1_555
K2 Se14 3.452487 1_555
K2 Se15 3.497584 1_455
K2 Se1 3.738300 1_554
K2 Se7 3.738300 1_555
K3 Se11 3.260085 1_565
K3 Se2 3.397592 1_655
K3 Se4 3.397592 1_655
K3 Se15 3.452487 1_555
K3 Se14 3.497584 1_555
K3 Se6 3.738300 1_564
K3 Se0 3.738300 1_565
K4 Se10 3.281066 1_555
K4 Se11 3.350412 1_555
K4 Se6 3.406323 1_554
K4 Se5 3.416532 1_555
K4 Se12 3.440154 1_554
K4 Se1 3.681873 1_554
K4 Se14 3.714613 1_545
K5 Se11 3.281066 1_455
K5 Se10 3.350412 1_555
K5 Se7 3.406323 1_555
K5 Se4 3.416532 1_545
K5 Se13 3.440154 1_555
K5 Se0 3.681873 1_455
K5 Se15 3.714613 1_455
K6 Se8 3.281066 1_555
K6 Se9 3.350412 1_555
K6 Se4 3.406323 1_555
K6 Se7 3.416532 1_555
K6 Se14 3.440154 1_555
K6 Se3 3.681873 1_555
K6 Se12 3.714613 1_565
K7 Se9 3.281066 1_655
K7 Se8 3.350412 1_555
K7 Se5 3.406323 1_556
K7 Se6 3.416532 1_565
K7 Se15 3.440154 1_556
K7 Se2 3.681873 1_656
K7 Se13 3.714613 1_655
K8 Se8 3.281066 1_555
K8 Se9 3.350412 1_555
K8 Se2 3.406323 1_556
K8 Se1 3.416532 1_555
K8 Se14 3.440154 1_556
K8 Se5 3.681873 1_556
K8 Se12 3.714613 1_565
K9 Se9 3.281066 1_655
K9 Se8 3.350412 1_555
K9 Se3 3.406323 1_555
K9 Se0 3.416532 1_565
K9 Se15 3.440154 1_555
K9 Se4 3.681873 1_655
K9 Se13 3.714613 1_655
K10 Se10 3.281066 1_555
K10 Se11 3.350412 1_555
K10 Se0 3.406323 1_555
K10 Se3 3.416532 1_555
K10 Se12 3.440154 1_555
K10 Se7 3.681873 1_555
K10 Se14 3.714613 1_545
K11 Se11 3.281066 1_455
K11 Se10 3.350412 1_555
K11 Se1 3.406323 1_554
K11 Se2 3.416532 1_545
K11 Se13 3.440154 1_554
K11 Se6 3.681873 1_454
K11 Se15 3.714613 1_455
As0 Se8 2.319756 1_555
As0 Se0 2.327095 1_565
As0 Se6 2.327095 1_565
As0 Se12 2.342855 1_565
As1 Se9 2.319756 1_555
As1 Se1 2.327095 1_555
As1 Se7 2.327095 1_555
As1 Se13 2.342855 1_555
As2 Se10 2.319756 1_555
As2 Se2 2.327095 1_545
As2 Se4 2.327095 1_545
As2 Se14 2.342855 1_545
As3 Se11 2.319756 1_555
As3 Se5 2.327095 1_555
As3 Se3 2.327095 1_555
As3 Se15 2.342855 1_555
