# generated using pymatgen
data_CeSe2
_symmetry_space_group_name_H-M   'P 1'
_cell_length_a   16.99880616
_cell_length_b   16.99880332
_cell_length_c   21.09706679
_cell_angle_alpha   113.75632857
_cell_angle_beta   113.75780154
_cell_angle_gamma   90.00000000
_symmetry_Int_Tables_number   1
_chemical_formula_structural   CeSe2
_chemical_formula_sum   'Ce16 Se32'
_cell_volume   5010.05005710
_cell_formula_units_Z   16
loop_
 _symmetry_equiv_pos_site_id
 _symmetry_equiv_pos_as_xyz
  1  'x, y, z'
loop_
 _atom_site_type_symbol
 _atom_site_label
 _atom_site_symmetry_multiplicity
 _atom_site_fract_x
 _atom_site_fract_y
 _atom_site_fract_z
 _atom_site_occupancy
  Ce  Ce0  1  0.51914689  0.32591285  0.35607382  1
  Ce  Ce1  1  0.83692848  0.03016145  0.35607457  1
  Ce  Ce2  1  0.41307152  0.71983855  0.14392543  1
  Ce  Ce3  1  0.73085311  0.42408715  0.14392618  1
  Ce  Ce4  1  0.83692694  0.32591285  0.35607382  1
  Ce  Ce5  1  0.51914609  0.03016145  0.35607457  1
  Ce  Ce6  1  0.73085391  0.71983855  0.14392543  1
  Ce  Ce7  1  0.41307306  0.42408715  0.14392618  1
  Ce  Ce8  1  0.96983840  0.16306742  0.64392069  1
  Ce  Ce9  1  0.67408217  0.48085602  0.64392124  1
  Ce  Ce10  1  0.57591783  0.26914398  0.85607876  1
  Ce  Ce11  1  0.28016160  0.58693258  0.85607931  1
  Ce  Ce12  1  0.67408229  0.16306742  0.64392069  1
  Ce  Ce13  1  0.96983907  0.48085602  0.64392124  1
  Ce  Ce14  1  0.28016093  0.26914398  0.85607876  1
  Ce  Ce15  1  0.57591771  0.58693258  0.85607931  1
  Se  Se0  1  0.55251521  0.44751283  0.50001739  1
  Se  Se1  1  0.94748712  0.05248794  0.49998594  1
  Se  Se2  1  0.30251288  0.69751206  0.00001406  1
  Se  Se3  1  0.69748479  0.30248717  -0.00001739  1
  Se  Se4  1  0.94750218  0.44751283  0.50001739  1
  Se  Se5  1  0.55249882  0.05248794  0.49998594  1
  Se  Se6  1  0.69750118  0.69751206  0.00001406  1
  Se  Se7  1  0.30249782  0.30248717  -0.00001739  1
  Se  Se8  1  0.57668157  0.43305945  0.15336313  1
  Se  Se9  1  0.57668192  0.72028078  0.15336383  1
  Se  Se10  1  0.67331808  0.02971922  0.34663617  1
  Se  Se11  1  0.67331843  0.31694055  0.34663687  1
  Se  Se12  1  0.27970749  0.42331781  0.84663572  1
  Se  Se13  1  0.56692823  0.42331781  0.84663572  1
  Se  Se14  1  0.68307177  0.32668219  0.65336428  1
  Se  Se15  1  0.97029251  0.32668219  0.65336428  1
  Se  Se16  1  0.79912642  0.58487382  0.16976534  1
  Se  Se17  1  0.37063892  0.58487382  0.16976534  1
  Se  Se18  1  0.87936108  0.16512618  0.33023466  1
  Se  Se19  1  0.45087358  0.16512618  0.33023466  1
  Se  Se20  1  0.41512236  0.62935077  0.83024472  1
  Se  Se21  1  0.41511095  0.20084693  0.83022189  1
  Se  Se22  1  0.83488905  0.54915307  0.66977811  1
  Se  Se23  1  0.83487764  0.12064923  0.66975528  1
  Se  Se24  1  0.40717453  0.37500000  0.25000000  1
  Se  Se25  1  0.84282673  0.87500000  0.25000000  1
  Se  Se26  1  0.40717327  0.87500000  0.25000000  1
  Se  Se27  1  0.84282547  0.37500000  0.25000000  1
  Se  Se28  1  0.12500573  0.15717724  0.75001007  1
  Se  Se29  1  0.62499566  0.59282276  0.74998993  1
  Se  Se30  1  0.62500434  0.15717724  0.75001007  1
  Se  Se31  1  0.12499427  0.59282276  0.74998993  1
loop_
_geom_bond_atom_site_label_1
_geom_bond_atom_site_label_2
_geom_bond_distance
_geom_bond_site_symmetry_2
Ce0 Se11 2.706858 1_555
Ce0 Se0 2.714976 1_555
Ce0 Se24 2.720212 1_555
Ce0 Se19 2.721058 1_555
Ce1 Se10 2.706890 1_555
Ce1 Se1 2.714422 1_555
Ce1 Se25 2.720289 1_545
Ce1 Se18 2.721306 1_555
Ce2 Se9 2.706890 1_555
Ce2 Se2 2.714422 1_555
Ce2 Se26 2.720289 1_555
Ce2 Se17 2.721306 1_555
Ce3 Se8 2.706858 1_555
Ce3 Se3 2.714976 1_555
Ce3 Se27 2.720212 1_555
Ce3 Se16 2.721058 1_555
Ce4 Se11 2.706858 1_555
Ce4 Se4 2.714976 1_555
Ce4 Se27 2.720212 1_555
Ce4 Se18 2.721058 1_555
Ce5 Se10 2.706890 1_555
Ce5 Se5 2.714422 1_555
Ce5 Se26 2.720289 1_545
Ce5 Se19 2.721306 1_555
Ce6 Se9 2.706890 1_555
Ce6 Se6 2.714422 1_555
Ce6 Se25 2.720289 1_555
Ce6 Se16 2.721306 1_555
Ce7 Se8 2.706858 1_555
Ce7 Se7 2.714976 1_555
Ce7 Se24 2.720212 1_555
Ce7 Se17 2.721058 1_555
Ce8 Se15 2.706926 1_555
Ce8 Se1 2.714803 1_555
Ce8 Se28 2.720389 1_655
Ce8 Se23 2.721094 1_555
Ce9 Se14 2.706956 1_555
Ce9 Se0 2.714256 1_555
Ce9 Se29 2.720151 1_555
Ce9 Se22 2.721367 1_555
Ce10 Se13 2.706956 1_555
Ce10 Se3 2.714256 1_556
Ce10 Se30 2.720151 1_555
Ce10 Se21 2.721367 1_555
Ce11 Se12 2.706926 1_555
Ce11 Se2 2.714803 1_556
Ce11 Se31 2.720389 1_555
Ce11 Se20 2.721094 1_555
Ce12 Se14 2.706926 1_555
Ce12 Se5 2.714803 1_555
Ce12 Se30 2.720389 1_555
Ce12 Se23 2.721094 1_555
Ce13 Se15 2.706956 1_555
Ce13 Se4 2.714256 1_555
Ce13 Se31 2.720151 1_655
Ce13 Se22 2.721368 1_555
Ce14 Se12 2.706956 1_555
Ce14 Se7 2.714256 1_556
Ce14 Se28 2.720151 1_555
Ce14 Se21 2.721368 1_555
Ce15 Se13 2.706926 1_555
Ce15 Se6 2.714803 1_556
Ce15 Se29 2.720389 1_555
Ce15 Se20 2.721094 1_555
