# generated using pymatgen
data_Zn3FeS4
_symmetry_space_group_name_H-M   'P 1'
_cell_length_a   12.76113067
_cell_length_b   12.76113067
_cell_length_c   12.76113058
_cell_angle_alpha   17.28370955
_cell_angle_beta   17.28370955
_cell_angle_gamma   17.28371150
_symmetry_Int_Tables_number   1
_chemical_formula_structural   Zn3FeS4
_chemical_formula_sum   'Zn3 Fe1 S4'
_cell_volume   160.06403371
_cell_formula_units_Z   1
loop_
 _symmetry_equiv_pos_site_id
 _symmetry_equiv_pos_as_xyz
  1  'x, y, z'
loop_
 _atom_site_type_symbol
 _atom_site_label
 _atom_site_symmetry_multiplicity
 _atom_site_fract_x
 _atom_site_fract_y
 _atom_site_fract_z
 _atom_site_occupancy
  Zn  Zn0  1  0.00003800  0.00003800  0.00003800  1
  Zn  Zn1  1  0.75005500  0.75005500  0.75005500  1
  Zn  Zn2  1  0.50007700  0.50007700  0.50007700  1
  Fe  Fe0  1  0.25011500  0.25011500  0.25011500  1
  S  S0  1  0.06248100  0.06248100  0.06248100  1
  S  S1  1  0.81246300  0.81246300  0.81246300  1
  S  S2  1  0.56275400  0.56275400  0.56275400  1
  S  S3  1  0.31201800  0.31201800  0.31201800  1
loop_
_geom_bond_atom_site_label_1
_geom_bond_atom_site_label_2
_geom_bond_distance
_geom_bond_site_symmetry_2
Fe0 S3 2.333914 1_555
Fe0 S2 2.347542 1_554
Fe0 S2 2.347542 1_455
Fe0 S2 2.347542 1_545
S0 Zn1 2.350223 1_445
S0 Zn1 2.350223 1_454
S0 Zn1 2.350223 1_544
S0 Zn0 2.354274 1_555
S1 Zn2 2.350729 1_556
S1 Zn2 2.350729 1_655
S1 Zn2 2.350729 1_565
S1 Zn1 2.352954 1_555
S2 Zn2 2.363096 1_555
S3 Zn0 2.355916 1_556
S3 Zn0 2.355916 1_655
S3 Zn0 2.355916 1_565
