# generated using pymatgen
data_Li6V3P8O29
_symmetry_space_group_name_H-M   'P 1'
_cell_length_a   9.84938562
_cell_length_b   9.78688125
_cell_length_c   13.99158206
_cell_angle_alpha   90.37360963
_cell_angle_beta   90.40984050
_cell_angle_gamma   59.89936884
_symmetry_Int_Tables_number   1
_chemical_formula_structural   Li6V3P8O29
_chemical_formula_sum   'Li12 V6 P16 O58'
_cell_volume   1166.79894647
_cell_formula_units_Z   2
loop_
 _symmetry_equiv_pos_site_id
 _symmetry_equiv_pos_as_xyz
  1  'x, y, z'
loop_
 _atom_site_type_symbol
 _atom_site_label
 _atom_site_symmetry_multiplicity
 _atom_site_fract_x
 _atom_site_fract_y
 _atom_site_fract_z
 _atom_site_occupancy
  Li  Li0  1  0.90772756  0.77408371  0.05544705  1
  Li  Li1  1  0.67254650  0.66551882  0.39128515  1
  Li  Li2  1  0.77303994  0.31795866  0.05647078  1
  Li  Li3  1  0.31666955  0.91082105  0.05578973  1
  Li  Li4  1  0.66386415  0.23494232  0.44518509  1
  Li  Li5  1  0.32788449  0.76601530  0.56734250  1
  Li  Li6  1  0.67186293  0.09695991  0.93306047  1
  Li  Li7  1  0.23081440  0.67308537  0.93580155  1
  Li  Li8  1  0.09731701  0.66927870  0.44431688  1
  Li  Li9  1  0.23032403  0.09930781  0.44739079  1
  Li  Li10  1  0.09674906  0.23302979  0.93325168  1
  Li  Li11  1  0.96210019  0.01900772  0.51822797  1
  V  V0  1  0.56997087  0.42984980  0.24949808  1
  V  V1  1  0.43460916  0.56456152  0.75111295  1
  V  V2  1  0.56784690  0.99558094  0.74656500  1
  V  V3  1  0.43394027  0.00374981  0.25202669  1
  V  V4  1  0.00333697  0.56531828  0.24942413  1
  V  V5  1  0.99736232  0.43344863  0.74508650  1
  P  P0  1  0.91394181  0.76960759  0.84012167  1
  P  P1  1  0.77784875  0.91330407  0.33955637  1
  P  P2  1  0.91337952  0.31061524  0.34083683  1
  P  P3  1  0.66606525  0.66815355  0.13008469  1
  P  P4  1  0.66294796  0.66562948  0.62901474  1
  P  P5  1  0.77073980  0.31932783  0.83980094  1
  P  P6  1  0.68542513  0.22498086  0.65711466  1
  P  P7  1  0.32057373  0.91126873  0.84263497  1
  P  P8  1  0.67949728  0.08601115  0.15438344  1
  P  P9  1  0.31897075  0.77236028  0.34421340  1
  P  P10  1  0.23304309  0.68068070  0.15929216  1
  P  P11  1  0.33661357  0.33377262  0.37332720  1
  P  P12  1  0.33260072  0.33221508  0.87020670  1
  P  P13  1  0.08733512  0.68763860  0.65652712  1
  P  P14  1  0.22699557  0.08605831  0.65965524  1
  P  P15  1  0.08518188  0.23056463  0.15530476  1
  O  O0  1  0.01362602  0.78028029  0.56672931  1
  O  O1  1  0.92164273  0.74100936  0.34008547  1
  O  O2  1  0.75230591  0.00150357  0.06274772  1
  O  O3  1  0.74925029  0.91594485  0.84206534  1
  O  O4  1  0.90641028  0.61801172  0.82132890  1
  O  O5  1  0.81479671  0.67295331  0.16877389  1
  O  O6  1  0.89845518  0.47552283  0.33172066  1
  O  O7  1  0.99892506  0.24906093  0.06343304  1
  O  O8  1  0.91762889  0.33707041  0.84153595  1
  O  O9  1  0.66792584  0.81150822  0.67324595  1
  O  O10  1  0.62781098  0.89889742  0.33298036  1
  O  O11  1  0.80557561  0.51609310  0.67016594  1
  O  O12  1  0.65569978  0.67531061  0.02400013  1
  O  O13  1  0.65701364  0.67254581  0.52144313  1
  O  O14  1  0.67349147  0.51367153  0.16941789  1
  O  O15  1  0.47900010  0.89978307  0.82633858  1
  O  O16  1  0.51663398  0.81658947  0.17647760  1
  O  O17  1  0.74287141  0.33737314  0.34064393  1
  O  O18  1  0.79431695  0.20898151  0.74920010  1
  O  O19  1  0.77425501  0.21148578  0.56715226  1
  O  O20  1  0.75673424  0.24258136  0.92954163  1
  O  O21  1  0.62078671  0.48097000  0.82287004  1
  O  O22  1  0.50703427  0.67796796  0.66604662  1
  O  O23  1  0.67034616  0.24909683  0.15957636  1
  O  O24  1  0.48434104  0.62714872  0.32821610  1
  O  O25  1  0.33295265  0.92222808  0.34539395  1
  O  O26  1  0.79666861  0.98505499  0.24043185  1
  O  O27  1  0.78741815  0.00799592  0.42033582  1
  O  O28  1  0.21817469  0.00095226  0.57068665  1
  O  O29  1  0.65842550  0.08520509  0.66608764  1
  O  O30  1  0.53238988  0.38334496  0.66739899  1
  O  O31  1  0.33621887  0.74591161  0.84417726  1
  O  O32  1  0.49039376  0.32350874  0.33422870  1
  O  O33  1  0.38350789  0.52000538  0.17895642  1
  O  O34  1  0.24516028  0.75636924  0.06950117  1
  O  O35  1  0.23636854  0.76177533  0.43146801  1
  O  O36  1  0.21299139  0.79028728  0.25058761  1
  O  O37  1  0.25643124  0.66225618  0.66388533  1
  O  O38  1  0.48575833  0.18378422  0.83093398  1
  O  O39  1  0.51863533  0.10310103  0.17462911  1
  O  O40  1  0.32722718  0.48643022  0.83008839  1
  O  O41  1  0.33223964  0.33719291  0.97740382  1
  O  O42  1  0.33725808  0.32422966  0.47948895  1
  O  O43  1  0.19121594  0.48651043  0.33324045  1
  O  O44  1  0.38023338  0.08900424  0.66716199  1
  O  O45  1  0.33004338  0.18523009  0.32883996  1
  O  O46  1  0.08470020  0.66416198  0.15942310  1
  O  O47  1  0.00029495  0.79389278  0.74969248  1
  O  O48  1  0.00454987  0.75637952  0.93041612  1
  O  O49  1  0.08836056  0.53198059  0.66616821  1
  O  O50  1  0.18615166  0.32646748  0.83019978  1
  O  O51  1  0.09656513  0.38041870  0.17978609  1
  O  O52  1  0.24871355  0.08245586  0.15836869  1
  O  O53  1  0.23865199  0.00381969  0.93137272  1
  O  O54  1  0.20856298  0.99736648  0.75113411  1
  O  O55  1  0.08369046  0.25435999  0.66421429  1
  O  O56  1  0.00769546  0.20830032  0.42171299  1
  O  O57  1  0.98654897  0.21598412  0.24153562  1
loop_
_geom_bond_atom_site_label_1
_geom_bond_atom_site_label_2
_geom_bond_distance
_geom_bond_site_symmetry_2
Li0 O48 1.963150 1_654
Li0 O2 1.972164 1_565
Li0 O46 2.101259 1_655
Li0 O5 2.298155 1_555
Li1 O13 1.826581 1_555
Li1 O6 2.226968 1_555
Li1 O24 2.241974 1_555
Li1 O10 2.255265 1_555
Li2 O20 1.954901 1_554
Li2 O7 1.976622 1_555
Li2 O23 2.067775 1_555
Li2 O14 2.286153 1_555
Li3 O53 1.936295 1_564
Li3 O34 1.972668 1_555
Li3 O52 2.045510 1_565
Li3 O16 2.394120 1_555
Li4 O27 1.954461 1_555
Li4 O19 1.968572 1_555
Li4 O17 2.137259 1_555
Li4 O32 2.138878 1_555
Li5 O28 1.990933 1_565
Li5 O37 2.024707 1_555
Li5 O22 2.053979 1_555
Li5 O35 2.107214 1_555
Li6 O20 1.982125 1_555
Li6 O3 1.992595 1_545
Li6 O2 2.012993 1_556
Li6 O38 2.130689 1_555
Li7 O48 1.952663 1_555
Li7 O31 2.000598 1_555
Li7 O34 2.067751 1_556
Li7 O40 2.161350 1_555
Li8 O0 1.972527 1_555
Li8 O35 1.994180 1_555
Li8 O1 2.091028 1_455
Li8 O43 2.189798 1_555
Li9 O56 1.929431 1_555
Li9 O28 2.014209 1_555
Li9 O25 2.071981 1_545
Li9 O45 2.300665 1_555
Li10 O53 1.959909 1_555
Li10 O8 1.994695 1_455
Li10 O7 2.034789 1_456
Li10 O50 2.129234 1_555
Li11 O19 1.986371 1_555
Li11 O27 2.235644 1_555
Li11 O0 2.236794 1_645
Li11 O56 2.516569 1_655
Li11 O28 2.541553 1_655
O0 P13 1.506407 1_555
O1 P1 1.566477 1_555
O1 V4 1.952305 1_655
O2 P8 1.498856 1_555
O3 P0 1.533960 1_555
O3 V2 2.041536 1_555
O4 P0 1.543012 1_555
O4 V5 1.889092 1_555
O5 P3 1.580682 1_555
O5 V4 1.963383 1_655
O6 P2 1.551485 1_555
O6 V4 2.026357 1_655
O7 P15 1.496674 1_655
O8 P5 1.541203 1_555
O8 V5 2.025415 1_555
O9 P4 1.575428 1_555
O9 V2 1.865100 1_555
O10 P1 1.555333 1_555
O10 V3 2.000241 1_565
O11 P4 1.544032 1_555
O11 V5 1.942040 1_555
O12 P3 1.486763 1_555
O13 P4 1.506458 1_555
O14 P3 1.579051 1_555
O14 V0 1.958396 1_555
O15 P7 1.525877 1_555
O15 V2 1.934211 1_555
O16 P3 1.598345 1_555
O16 V3 1.904351 1_565
O17 P2 1.564539 1_555
O17 V0 1.945137 1_555
O18 P5 1.600611 1_555
O18 P6 1.627653 1_555
O19 P6 1.504984 1_555
O20 P5 1.509459 1_555
O21 P5 1.548035 1_555
O21 V1 1.876036 1_555
O22 P4 1.570300 1_555
O22 V1 1.995206 1_555
O23 P8 1.554098 1_555
O23 V0 1.980977 1_555
O24 P9 1.549848 1_555
O24 V0 2.001240 1_555
O25 P9 1.540394 1_555
O25 V3 2.039770 1_565
O26 P1 1.611808 1_555
O26 P8 1.615396 1_565
O27 P1 1.489154 1_545
O28 P14 1.519335 1_555
O29 P6 1.524935 1_555
O29 V2 1.909280 1_545
O30 P6 1.533547 1_555
O30 V1 1.928910 1_555
O31 P7 1.547087 1_555
O31 V1 2.011824 1_555
O32 P11 1.569081 1_555
O32 V0 1.987589 1_555
O33 P10 1.551469 1_555
O33 V0 1.866980 1_555
O34 P10 1.498083 1_555
O35 P9 1.504483 1_555
O36 P10 1.610780 1_555
O36 P9 1.623618 1_555
O37 P13 1.558546 1_555
O37 V1 1.945517 1_555
O38 P12 1.578357 1_555
O38 V2 1.982775 1_545
O39 P8 1.535744 1_555
O39 V3 1.911614 1_555
O40 P12 1.589441 1_555
O40 V1 1.939915 1_555
O41 P12 1.500302 1_555
O42 P11 1.488680 1_555
O43 P11 1.565938 1_555
O43 V4 1.985859 1_555
O44 P14 1.526822 1_555
O44 V2 1.942701 1_545
O45 P11 1.608432 1_555
O45 V3 1.877402 1_555
O46 P10 1.548510 1_555
O46 V4 1.992900 1_555
O47 P0 1.613324 1_455
O47 P13 1.618527 1_555
O48 P0 1.509768 1_455
O49 P13 1.525219 1_555
O49 V5 1.961488 1_455
O50 P12 1.570520 1_555
O50 V5 2.000944 1_455
O51 P15 1.561620 1_555
O51 V4 1.841262 1_555
O52 P15 1.534686 1_555
O52 V3 2.051409 1_555
O53 P7 1.509838 1_545
O54 P14 1.612614 1_565
O54 P7 1.620985 1_555
O55 P14 1.541869 1_555
O55 V5 1.889028 1_455
O56 P2 1.487561 1_455
O57 P15 1.605566 1_655
O57 P2 1.623440 1_555
