# generated using pymatgen
data_Ho11(In3Si2)2
_symmetry_space_group_name_H-M   'P 1'
_cell_length_a   11.41714094
_cell_length_b   11.41714094
_cell_length_c   11.41714094
_cell_angle_alpha   119.88185008
_cell_angle_beta   119.88185008
_cell_angle_gamma   90.20476377
_symmetry_Int_Tables_number   1
_chemical_formula_structural   Ho11(In3Si2)2
_chemical_formula_sum   'Ho22 In12 Si8'
_cell_volume   1054.21446646
_cell_formula_units_Z   2
loop_
 _symmetry_equiv_pos_site_id
 _symmetry_equiv_pos_as_xyz
  1  'x, y, z'
loop_
 _atom_site_type_symbol
 _atom_site_label
 _atom_site_symmetry_multiplicity
 _atom_site_fract_x
 _atom_site_fract_y
 _atom_site_fract_z
 _atom_site_occupancy
  Ho  Ho0  1  0.68380300  0.93479400  0.25099100  1
  Ho  Ho1  1  0.68380300  0.43281100  0.74900900  1
  Ho  Ho2  1  0.93479400  0.68380300  0.25099100  1
  Ho  Ho3  1  0.43281100  0.68380300  0.74900900  1
  Ho  Ho4  1  0.31619700  0.06520600  0.74900900  1
  Ho  Ho5  1  0.31619700  0.56718900  0.25099100  1
  Ho  Ho6  1  0.06520600  0.31619700  0.74900900  1
  Ho  Ho7  1  0.56718900  0.31619700  0.25099100  1
  Ho  Ho8  1  0.89856800  0.24560500  0.34703700  1
  Ho  Ho9  1  0.89856800  0.55153100  0.65296300  1
  Ho  Ho10  1  0.24560500  0.89856800  0.34703700  1
  Ho  Ho11  1  0.55153100  0.89856800  0.65296300  1
  Ho  Ho12  1  0.10143200  0.75439500  0.65296300  1
  Ho  Ho13  1  0.10143200  0.44846900  0.34703700  1
  Ho  Ho14  1  0.75439500  0.10143200  0.65296300  1
  Ho  Ho15  1  0.44846900  0.10143200  0.34703700  1
  Ho  Ho16  1  0.33197100  0.33197100  0.66394200  1
  Ho  Ho17  1  0.66802900  0.66802900  0.33605800  1
  Ho  Ho18  1  0.33197100  0.66802900  0.00000000  1
  Ho  Ho19  1  0.66802900  0.33197100  0.00000000  1
  Ho  Ho20  1  0.82836500  0.82836500  0.00000000  1
  Ho  Ho21  1  0.17163500  0.17163500  0.00000000  1
  In  In0  1  0.03390300  0.03390300  0.41068800  1
  In  In1  1  0.62321500  0.62321500  0.58931200  1
  In  In2  1  0.03390300  0.62321500  0.00000000  1
  In  In3  1  0.62321500  0.03390300  0.00000000  1
  In  In4  1  0.96609700  0.96609700  0.58931200  1
  In  In5  1  0.37678500  0.37678500  0.41068800  1
  In  In6  1  0.96609700  0.37678500  0.00000000  1
  In  In7  1  0.37678500  0.96609700  0.00000000  1
  In  In8  1  0.12870900  0.12870900  0.25741800  1
  In  In9  1  0.87129100  0.87129100  0.74258200  1
  In  In10  1  0.12870900  0.87129100  0.00000000  1
  In  In11  1  0.87129100  0.12870900  0.00000000  1
  Si  Si0  1  0.15246200  0.50000000  0.65246200  1
  Si  Si1  1  0.84753800  0.50000000  0.34753800  1
  Si  Si2  1  0.50000000  0.84753800  0.34753800  1
  Si  Si3  1  0.50000000  0.15246200  0.65246200  1
  Si  Si4  1  0.61662300  0.61662300  0.00000000  1
  Si  Si5  1  0.38337700  0.38337700  0.00000000  1
  Si  Si6  1  0.75000000  0.25000000  0.50000000  1
  Si  Si7  1  0.25000000  0.75000000  0.50000000  1
loop_
_geom_bond_atom_site_label_1
_geom_bond_atom_site_label_2
_geom_bond_distance
_geom_bond_site_symmetry_2
Ho0 Si6 3.041331 1_565
Ho0 Si4 3.068125 1_555
Ho0 Si2 3.161543 1_555
Ho0 In3 3.351408 1_565
Ho0 In0 3.351408 1_665
Ho0 In7 3.412760 1_555
Ho0 In4 3.412760 1_555
Ho1 Si6 3.041328 1_555
Ho1 Si4 3.068128 1_556
Ho1 Si3 3.161534 1_555
Ho1 In2 3.351410 1_656
Ho1 In1 3.351418 1_555
Ho1 In6 3.412753 1_556
Ho1 In5 3.412764 1_555
Ho2 Si7 3.041331 1_655
Ho2 Si4 3.068125 1_555
Ho2 Si1 3.161543 1_555
Ho2 In2 3.351408 1_655
Ho2 In0 3.351408 1_665
Ho2 In6 3.412760 1_555
Ho2 In4 3.412760 1_555
Ho3 Si7 3.041328 1_555
Ho3 Si4 3.068128 1_556
Ho3 Si0 3.161534 1_555
Ho3 In3 3.351410 1_566
Ho3 In1 3.351418 1_555
Ho3 In7 3.412753 1_556
Ho3 In5 3.412764 1_555
Ho4 Si7 3.041331 1_545
Ho4 Si5 3.068125 1_556
Ho4 Si3 3.161543 1_555
Ho4 In4 3.351408 1_445
Ho4 In7 3.351408 1_546
Ho4 In0 3.412760 1_555
Ho4 In3 3.412760 1_556
Ho5 Si7 3.041328 1_555
Ho5 Si5 3.068128 1_555
Ho5 Si2 3.161534 1_555
Ho5 In6 3.351410 1_455
Ho5 In5 3.351418 1_555
Ho5 In2 3.412753 1_555
Ho5 In1 3.412764 1_555
Ho6 Si6 3.041331 1_455
Ho6 Si5 3.068125 1_556
Ho6 Si0 3.161543 1_555
Ho6 In4 3.351408 1_445
Ho6 In6 3.351408 1_456
Ho6 In0 3.412760 1_555
Ho6 In2 3.412760 1_556
Ho7 Si6 3.041328 1_555
Ho7 Si5 3.068128 1_555
Ho7 Si1 3.161534 1_555
Ho7 In7 3.351410 1_545
Ho7 In5 3.351418 1_555
Ho7 In3 3.412753 1_555
Ho7 In1 3.412764 1_555
Ho8 Si1 2.962135 1_555
Ho8 Si0 2.962135 1_655
Ho8 Si6 2.965567 1_555
Ho8 In3 3.068493 1_555
Ho8 In0 3.068493 1_655
Ho8 In11 3.327975 1_555
Ho8 In8 3.327975 1_655
Ho9 Si0 2.962135 1_655
Ho9 Si1 2.962135 1_555
Ho9 Si6 2.965567 1_555
Ho9 In1 3.068493 1_555
Ho9 In2 3.068493 1_656
Ho9 In9 3.327975 1_555
Ho9 In10 3.327975 1_656
Ho10 Si2 2.962135 1_555
Ho10 Si3 2.962135 1_565
Ho10 Si7 2.965567 1_555
Ho10 In2 3.068493 1_555
Ho10 In0 3.068493 1_565
Ho10 In10 3.327975 1_555
Ho10 In8 3.327975 1_565
Ho11 Si3 2.962135 1_565
Ho11 Si2 2.962135 1_555
Ho11 Si7 2.965567 1_555
Ho11 In1 3.068493 1_555
Ho11 In3 3.068493 1_566
Ho11 In9 3.327975 1_555
Ho11 In11 3.327975 1_566
Ho12 Si0 2.962135 1_555
Ho12 Si1 2.962135 1_455
Ho12 Si7 2.965567 1_555
Ho12 In7 3.068493 1_556
Ho12 In4 3.068493 1_455
Ho12 In10 3.327975 1_556
Ho12 In9 3.327975 1_455
Ho13 Si1 2.962135 1_455
Ho13 Si0 2.962135 1_555
Ho13 Si7 2.965567 1_555
Ho13 In5 3.068493 1_555
Ho13 In6 3.068493 1_455
Ho13 In8 3.327975 1_555
Ho13 In11 3.327975 1_455
Ho14 Si3 2.962135 1_555
Ho14 Si2 2.962135 1_545
Ho14 Si6 2.965567 1_555
Ho14 In6 3.068493 1_556
Ho14 In4 3.068493 1_545
Ho14 In11 3.327975 1_556
Ho14 In9 3.327975 1_545
Ho15 Si2 2.962135 1_545
Ho15 Si3 2.962135 1_555
Ho15 Si6 2.965567 1_555
Ho15 In5 3.068493 1_555
Ho15 In7 3.068493 1_545
Ho15 In8 3.327975 1_555
Ho15 In10 3.327975 1_545
Ho16 Si0 2.812264 1_555
Ho16 Si3 2.812264 1_555
Ho16 In8 3.287783 1_555
Ho16 Si4 3.304546 1_556
Ho16 Si5 3.304546 1_556
Ho16 In0 3.439523 1_555
Ho16 In5 3.439523 1_555
Ho17 Si1 2.812264 1_555
Ho17 Si2 2.812264 1_555
Ho17 In9 3.287783 1_555
Ho17 Si4 3.304546 1_555
Ho17 Si5 3.304546 1_555
Ho17 In4 3.439523 1_555
Ho17 In1 3.439523 1_555
Ho18 Si2 2.812264 1_555
Ho18 Si0 2.812264 1_554
Ho18 In10 3.287783 1_555
Ho18 Si4 3.304546 1_555
Ho18 Si5 3.304546 1_555
Ho18 In2 3.439523 1_555
Ho18 In7 3.439523 1_555
Ho19 Si1 2.812264 1_555
Ho19 Si3 2.812264 1_554
Ho19 In11 3.287783 1_555
Ho19 Si4 3.304546 1_555
Ho19 Si5 3.304546 1_555
Ho19 In3 3.439523 1_555
Ho19 In6 3.439523 1_555
Ho20 In2 3.321462 1_655
Ho20 In3 3.321462 1_565
Ho20 In0 3.321462 1_665
Ho20 In1 3.321462 1_554
Ho20 Si4 3.412730 1_555
Ho20 In9 3.462181 1_554
Ho20 In10 3.462181 1_655
Ho20 In11 3.462181 1_565
Ho20 In8 3.462181 1_665
Ho21 In7 3.321462 1_545
Ho21 In5 3.321462 1_555
Ho21 In6 3.321462 1_455
Ho21 In4 3.321462 1_444
Ho21 Si5 3.412730 1_555
Ho21 In8 3.462181 1_555
Ho21 In11 3.462181 1_455
Ho21 In10 3.462181 1_545
Ho21 In9 3.462181 1_444
In0 In4 2.915419 1_445
In0 In8 3.028487 1_555
In1 In5 2.915419 1_555
In1 In9 3.028487 1_555
In2 In6 2.915419 1_455
In3 In7 2.915419 1_545
In4 In9 3.028487 1_555
In5 In8 3.028487 1_555
In10 In9 2.944225 1_454
In10 In8 2.944225 1_565
In10 In2 3.028487 1_555
In10 In7 3.028487 1_555
In11 In9 2.944225 1_544
In11 In8 2.944225 1_655
In11 In3 3.028487 1_555
In11 In6 3.028487 1_555
