# generated using pymatgen
data_RbPO3
_symmetry_space_group_name_H-M   'P 1'
_cell_length_a   18.85795400
_cell_length_b   7.53471800
_cell_length_c   9.14706901
_cell_angle_alpha   84.37676580
_cell_angle_beta   90.00000000
_cell_angle_gamma   90.00000000
_symmetry_Int_Tables_number   1
_chemical_formula_structural   RbPO3
_chemical_formula_sum   'Rb12 P12 O36'
_cell_volume   1293.44674022
_cell_formula_units_Z   12
loop_
 _symmetry_equiv_pos_site_id
 _symmetry_equiv_pos_as_xyz
  1  'x, y, z'
loop_
 _atom_site_type_symbol
 _atom_site_label
 _atom_site_symmetry_multiplicity
 _atom_site_fract_x
 _atom_site_fract_y
 _atom_site_fract_z
 _atom_site_occupancy
  Rb  Rb0  1  0.96550500  0.82233500  0.37383800  1
  Rb  Rb1  1  0.46550500  0.17766500  0.12616200  1
  Rb  Rb2  1  0.03449500  0.17766500  0.62616200  1
  Rb  Rb3  1  0.53449500  0.82233500  0.87383800  1
  Rb  Rb4  1  0.87317100  0.00140100  0.92816000  1
  Rb  Rb5  1  0.37317100  0.99859900  0.57184000  1
  Rb  Rb6  1  0.12682900  0.99859900  0.07184000  1
  Rb  Rb7  1  0.62682900  0.00140100  0.42816000  1
  Rb  Rb8  1  0.17777100  0.62163900  0.48596900  1
  Rb  Rb9  1  0.67777100  0.37836100  0.01403100  1
  Rb  Rb10  1  0.82222900  0.37836100  0.51403100  1
  Rb  Rb11  1  0.32222900  0.62163900  0.98596900  1
  P  P0  1  0.08476900  0.47682500  0.16689300  1
  P  P1  1  0.58476900  0.52317500  0.33310700  1
  P  P2  1  0.91523100  0.52317500  0.83310700  1
  P  P3  1  0.41523100  0.47682500  0.66689300  1
  P  P4  1  0.11036600  0.51106200  0.91913100  1
  P  P5  1  0.61036600  0.48893800  0.58086900  1
  P  P6  1  0.88963400  0.48893800  0.08086900  1
  P  P7  1  0.38963400  0.51106200  0.41913100  1
  P  P8  1  0.02186000  0.67903700  0.79559600  1
  P  P9  1  0.52186000  0.32096300  0.70440400  1
  P  P10  1  0.97814000  0.32096300  0.20440400  1
  P  P11  1  0.47814000  0.67903700  0.29559600  1
  O  O0  1  0.13912800  0.34538800  0.23001100  1
  O  O1  1  0.63912800  0.65461200  0.26998900  1
  O  O2  1  0.86087200  0.65461200  0.76998900  1
  O  O3  1  0.36087200  0.34538800  0.73001100  1
  O  O4  1  0.07784600  0.65897700  0.22007800  1
  O  O5  1  0.57784600  0.34102300  0.27992200  1
  O  O6  1  0.92215400  0.34102300  0.77992200  1
  O  O7  1  0.42215400  0.65897700  0.72007800  1
  O  O8  1  0.17331000  0.63468800  0.90652900  1
  O  O9  1  0.67331000  0.36531200  0.59347100  1
  O  O10  1  0.82669000  0.36531200  0.09347100  1
  O  O11  1  0.32669000  0.63468800  0.40652900  1
  O  O12  1  0.11045200  0.32903100  0.86560400  1
  O  O13  1  0.61045200  0.67096900  0.63439600  1
  O  O14  1  0.88954800  0.67096900  0.13439600  1
  O  O15  1  0.38954800  0.32903100  0.36560400  1
  O  O16  1  0.01626400  0.85922300  0.85236800  1
  O  O17  1  0.51626400  0.14077700  0.64763200  1
  O  O18  1  0.98373600  0.14077700  0.14763200  1
  O  O19  1  0.48373600  0.85922300  0.35236800  1
  O  O20  1  0.03869800  0.65773400  0.63727500  1
  O  O21  1  0.53869800  0.34226600  0.86272500  1
  O  O22  1  0.96130200  0.34226600  0.36272500  1
  O  O23  1  0.46130200  0.65773400  0.13727500  1
  O  O24  1  0.78795300  0.83514200  0.34823800  1
  O  O25  1  0.28795300  0.16485800  0.15176200  1
  O  O26  1  0.21204700  0.16485800  0.65176200  1
  O  O27  1  0.71204700  0.83514200  0.84823800  1
  O  O28  1  0.88121900  0.03349800  0.57164500  1
  O  O29  1  0.38121900  0.96650200  0.92835500  1
  O  O30  1  0.11878100  0.96650200  0.42835500  1
  O  O31  1  0.61878100  0.03349800  0.07164500  1
  O  O32  1  0.20832900  0.00103400  0.63625200  1
  O  O33  1  0.70832900  0.99896600  0.86374800  1
  O  O34  1  0.79167100  0.99896600  0.36374800  1
  O  O35  1  0.29167100  0.00103400  0.13625200  1
loop_
_geom_bond_atom_site_label_1
_geom_bond_atom_site_label_2
_geom_bond_distance
_geom_bond_site_symmetry_2
O0 P0 1.500960 1_555
O0 Rb6 3.116959 1_545
O0 Rb8 3.361567 1_555
O1 P1 1.500960 1_555
O1 Rb7 3.116959 1_565
O1 Rb9 3.361567 1_555
O2 P2 1.500960 1_555
O2 Rb4 3.116959 1_565
O2 Rb10 3.361567 1_555
O3 P3 1.500960 1_555
O3 Rb5 3.116959 1_545
O3 Rb11 3.361567 1_555
O4 P0 1.506061 1_555
O4 Rb0 2.884529 1_455
O4 Rb6 2.925766 1_555
O4 Rb8 3.067763 1_555
O5 P1 1.506061 1_555
O5 Rb1 2.884529 1_555
O5 Rb7 2.925766 1_555
O5 Rb9 3.067763 1_555
O6 P2 1.506061 1_555
O6 Rb2 2.884529 1_655
O6 Rb4 2.925766 1_555
O6 Rb10 3.067763 1_555
O7 P3 1.506061 1_555
O7 Rb3 2.884529 1_555
O7 Rb5 2.925766 1_555
O7 Rb11 3.067763 1_555
O8 P4 1.506277 1_555
O8 Rb11 2.900046 1_555
O8 Rb6 3.374272 1_556
O9 P5 1.506277 1_555
O9 Rb10 2.900046 1_555
O9 Rb7 3.374272 1_555
O10 P6 1.506277 1_555
O10 Rb9 2.900046 1_555
O10 Rb4 3.374272 1_554
O11 P7 1.506277 1_555
O11 Rb8 2.900046 1_555
O11 Rb5 3.374272 1_555
O12 P4 1.500828 1_555
O12 Rb2 2.939211 1_555
O12 Rb6 2.988700 1_546
O13 P5 1.500828 1_555
O13 Rb3 2.939211 1_555
O13 Rb7 2.988700 1_565
O14 P6 1.500828 1_555
O14 Rb0 2.939211 1_555
O14 Rb4 2.988700 1_564
O15 P7 1.500828 1_555
O15 Rb1 2.939211 1_555
O15 Rb5 2.988700 1_545
O16 P8 1.504057 1_555
O16 Rb4 3.009216 1_465
O16 Rb2 3.030432 1_565
O16 Rb6 3.145393 1_556
O17 P9 1.504057 1_555
O17 Rb5 3.009216 1_545
O17 Rb3 3.030432 1_545
O17 Rb7 3.145393 1_555
O18 P10 1.504057 1_555
O18 Rb6 3.009216 1_645
O18 Rb0 3.030432 1_545
O18 Rb4 3.145393 1_554
O19 P11 1.504057 1_555
O19 Rb7 3.009216 1_565
O19 Rb1 3.030432 1_565
O19 Rb5 3.145393 1_555
O20 P8 1.506436 1_555
O20 Rb0 2.943495 1_455
O20 Rb8 2.990218 1_555
O21 P9 1.506436 1_555
O21 Rb1 2.943495 1_556
O21 Rb9 2.990218 1_556
O22 P10 1.506436 1_555
O22 Rb2 2.943495 1_655
O22 Rb10 2.990218 1_555
O23 P11 1.506436 1_555
O23 Rb3 2.943495 1_554
O23 Rb11 2.990218 1_554
O24 O34 1.258184 1_555
O24 Rb0 3.357173 1_555
O25 O35 1.258184 1_555
O25 Rb1 3.357173 1_555
O26 O32 1.258184 1_555
O26 Rb2 3.357173 1_555
O27 O33 1.258184 1_555
O27 Rb3 3.357173 1_555
O28 Rb10 2.828213 1_555
O28 Rb0 2.982577 1_545
O28 Rb2 3.144775 1_655
O28 Rb4 3.249850 1_555
O29 Rb11 2.828213 1_555
O29 Rb1 2.982577 1_566
O29 Rb3 3.144775 1_555
O29 Rb5 3.249850 1_555
O30 Rb8 2.828213 1_555
O30 Rb2 2.982577 1_565
O30 Rb0 3.144775 1_455
O30 Rb6 3.249850 1_555
O31 Rb9 2.828213 1_555
O31 Rb3 2.982577 1_544
O31 Rb1 3.144775 1_555
O31 Rb7 3.249850 1_555
O32 Rb5 3.164313 1_545
O32 Rb8 3.341201 1_545
O33 Rb4 3.164313 1_565
O33 Rb9 3.341201 1_566
O34 Rb7 3.164313 1_565
O34 Rb10 3.341201 1_565
O35 Rb6 3.164313 1_545
O35 Rb11 3.341201 1_544
