# generated using pymatgen
data_CaH2
_symmetry_space_group_name_H-M   'P 1'
_cell_length_a   3.78750200
_cell_length_b   5.36071200
_cell_length_c   6.68301900
_cell_angle_alpha   90.00000000
_cell_angle_beta   90.00000000
_cell_angle_gamma   90.00000000
_symmetry_Int_Tables_number   1
_chemical_formula_structural   CaH2
_chemical_formula_sum   'Ca4 H8'
_cell_volume   135.69006247
_cell_formula_units_Z   4
loop_
 _symmetry_equiv_pos_site_id
 _symmetry_equiv_pos_as_xyz
  1  'x, y, z'
loop_
 _atom_site_type_symbol
 _atom_site_label
 _atom_site_symmetry_multiplicity
 _atom_site_fract_x
 _atom_site_fract_y
 _atom_site_fract_z
 _atom_site_occupancy
  Ca  Ca0  1  0.25000000  0.74846000  0.58931000  1
  Ca  Ca1  1  0.25000000  0.24846000  0.91069000  1
  Ca  Ca2  1  0.75000000  0.25154000  0.41069000  1
  Ca  Ca3  1  0.75000000  0.75154000  0.08931000  1
  H  H0  1  0.25000000  0.76005700  0.91924200  1
  H  H1  1  0.25000000  0.26005700  0.58075800  1
  H  H2  1  0.75000000  0.23994300  0.08075800  1
  H  H3  1  0.75000000  0.73994300  0.41924200  1
  H  H4  1  0.25000000  0.99821900  0.25552200  1
  H  H5  1  0.25000000  0.49821900  0.24447800  1
  H  H6  1  0.75000000  0.00178100  0.74447800  1
  H  H7  1  0.75000000  0.50178100  0.75552200  1
loop_
_geom_bond_atom_site_label_1
_geom_bond_atom_site_label_2
_geom_bond_distance
_geom_bond_site_symmetry_2
Ca0 H0 2.205818 1_555
Ca0 H3 2.209109 1_555
Ca0 H3 2.209109 1_455
Ca0 H6 2.550638 1_565
Ca0 H6 2.550638 1_465
Ca0 H7 2.562975 1_455
Ca0 H7 2.562975 1_555
Ca0 H4 2.601671 1_555
Ca0 H1 2.618812 1_555
Ca0 H5 2.666524 1_555
Ca0 H1 2.743120 1_565
Ca1 H1 2.205818 1_555
Ca1 H2 2.209109 1_556
Ca1 H2 2.209109 1_456
Ca1 H7 2.550638 1_455
Ca1 H7 2.550638 1_555
Ca1 H6 2.562975 1_555
Ca1 H6 2.562975 1_455
Ca1 H5 2.601671 1_556
Ca1 H0 2.618812 1_545
Ca1 H4 2.666524 1_546
Ca1 H0 2.743120 1_555
Ca2 H2 2.205818 1_555
Ca2 H1 2.209109 1_655
Ca2 H1 2.209109 1_555
Ca2 H4 2.550638 1_545
Ca2 H4 2.550638 1_645
Ca2 H5 2.562975 1_555
Ca2 H5 2.562975 1_655
Ca2 H6 2.601671 1_555
Ca2 H3 2.618812 1_555
Ca2 H7 2.666524 1_555
Ca2 H3 2.743120 1_545
Ca3 H3 2.205818 1_555
Ca3 H0 2.209109 1_554
Ca3 H0 2.209109 1_654
Ca3 H5 2.550638 1_555
Ca3 H5 2.550638 1_655
Ca3 H4 2.562975 1_655
Ca3 H4 2.562975 1_555
Ca3 H7 2.601671 1_554
Ca3 H2 2.618812 1_565
Ca3 H6 2.666524 1_564
Ca3 H2 2.743120 1_555
