# generated using pymatgen
data_Zn3Ag
_symmetry_space_group_name_H-M   'P 1'
_cell_length_a   5.69401816
_cell_length_b   5.69401816
_cell_length_c   17.11682486
_cell_angle_alpha   90.00000000
_cell_angle_beta   90.00000000
_cell_angle_gamma   119.99999949
_symmetry_Int_Tables_number   1
_chemical_formula_structural   Zn3Ag
_chemical_formula_sum   'Zn24 Ag8'
_cell_volume   480.60859815
_cell_formula_units_Z   8
loop_
 _symmetry_equiv_pos_site_id
 _symmetry_equiv_pos_as_xyz
  1  'x, y, z'
loop_
 _atom_site_type_symbol
 _atom_site_label
 _atom_site_symmetry_multiplicity
 _atom_site_fract_x
 _atom_site_fract_y
 _atom_site_fract_z
 _atom_site_occupancy
  Zn  Zn0_0  1  0.33333350  0.16666650  0.25000000  1
  Zn  Zn0_1  1  0.33333350  0.16666650  0.75000000  1
  Zn  Zn0_2  1  0.33333350  0.66666650  0.25000000  1
  Zn  Zn0_3  1  0.33333350  0.66666650  0.75000000  1
  Zn  Zn0_4  1  0.83333350  0.16666650  0.25000000  1
  Zn  Zn0_5  1  0.83333350  0.16666650  0.75000000  1
  Zn  Zn0_6  1  0.83333350  0.66666650  0.25000000  1
  Zn  Zn0_7  1  0.83333350  0.66666650  0.75000000  1
  Zn  Zn1_0  1  0.16666650  0.33333350  0.12839812  1
  Zn  Zn1_1  1  0.16666650  0.33333350  0.62839812  1
  Zn  Zn1_2  1  0.16666650  0.83333350  0.12839812  1
  Zn  Zn1_3  1  0.16666650  0.83333350  0.62839812  1
  Zn  Zn1_4  1  0.66666650  0.33333350  0.12839812  1
  Zn  Zn1_5  1  0.66666650  0.33333350  0.62839812  1
  Zn  Zn1_6  1  0.66666650  0.83333350  0.12839812  1
  Zn  Zn1_7  1  0.66666650  0.83333350  0.62839812  1
  Zn  Zn2_0  1  0.16666650  0.33333350  0.37160188  1
  Zn  Zn2_1  1  0.16666650  0.33333350  0.87160188  1
  Zn  Zn2_2  1  0.16666650  0.83333350  0.37160188  1
  Zn  Zn2_3  1  0.16666650  0.83333350  0.87160188  1
  Zn  Zn2_4  1  0.66666650  0.33333350  0.37160188  1
  Zn  Zn2_5  1  0.66666650  0.33333350  0.87160188  1
  Zn  Zn2_6  1  0.66666650  0.83333350  0.37160188  1
  Zn  Zn2_7  1  0.66666650  0.83333350  0.87160188  1
  Ag  Ag0_0  1  0.33333350  0.16666650  0.00000000  1
  Ag  Ag0_1  1  0.33333350  0.16666650  0.50000000  1
  Ag  Ag0_2  1  0.33333350  0.66666650  0.00000000  1
  Ag  Ag0_3  1  0.33333350  0.66666650  0.50000000  1
  Ag  Ag0_4  1  0.83333350  0.16666650  0.00000000  1
  Ag  Ag0_5  1  0.83333350  0.16666650  0.50000000  1
  Ag  Ag0_6  1  0.83333350  0.66666650  0.00000000  1
  Ag  Ag0_7  1  0.83333350  0.66666650  0.50000000  1
loop_
_geom_bond_atom_site_label_1
_geom_bond_atom_site_label_2
_geom_bond_distance
_geom_bond_site_symmetry_2
Zn0_0 Zn2_2 2.652207 1_545
Zn0_0 Zn1_2 2.652207 1_545
Zn0_0 Zn1_4 2.652207 1_555
Zn0_0 Zn2_4 2.652207 1_555
Zn0_0 Zn1_0 2.652210 1_555
Zn0_0 Zn2_0 2.652210 1_555
Zn0_0 Zn0_4 2.847009 1_455
Zn0_0 Zn0_2 2.847009 1_545
Zn0_0 Zn0_2 2.847009 1_555
Zn0_0 Zn0_4 2.847009 1_555
Zn0_0 Zn0_6 2.847009 1_555
Zn0_0 Zn0_6 2.847009 1_445
Zn0_1 Zn1_3 2.652207 1_545
Zn0_1 Zn2_3 2.652207 1_545
Zn0_1 Zn2_5 2.652207 1_555
Zn0_1 Zn1_5 2.652207 1_555
Zn0_1 Zn2_1 2.652210 1_555
Zn0_1 Zn1_1 2.652210 1_555
Zn0_1 Zn0_3 2.847009 1_545
Zn0_1 Zn0_5 2.847009 1_455
Zn0_1 Zn0_5 2.847009 1_555
Zn0_1 Zn0_3 2.847009 1_555
Zn0_1 Zn0_7 2.847009 1_445
Zn0_1 Zn0_7 2.847009 1_555
Zn0_2 Zn1_0 2.652207 1_555
Zn0_2 Zn2_0 2.652207 1_555
Zn0_2 Zn2_6 2.652207 1_555
Zn0_2 Zn1_6 2.652207 1_555
Zn0_2 Zn2_2 2.652210 1_555
Zn0_2 Zn1_2 2.652210 1_555
Zn0_2 Zn0_6 2.847009 1_555
Zn0_2 Zn0_6 2.847009 1_455
Zn0_2 Zn0_4 2.847009 1_455
Zn0_2 Zn0_4 2.847009 1_565
Zn0_3 Zn2_1 2.652207 1_555
Zn0_3 Zn1_1 2.652207 1_555
Zn0_3 Zn1_7 2.652207 1_555
Zn0_3 Zn2_7 2.652207 1_555
Zn0_3 Zn2_3 2.652210 1_555
Zn0_3 Zn1_3 2.652210 1_555
Zn0_3 Zn0_7 2.847009 1_555
Zn0_3 Zn0_7 2.847009 1_455
Zn0_3 Zn0_5 2.847009 1_565
Zn0_3 Zn0_5 2.847009 1_455
Zn0_4 Zn1_0 2.652207 1_655
Zn0_4 Zn2_0 2.652207 1_655
Zn0_4 Zn1_6 2.652207 1_545
Zn0_4 Zn2_6 2.652207 1_545
Zn0_4 Zn1_4 2.652210 1_555
Zn0_4 Zn2_4 2.652210 1_555
Zn0_4 Zn0_6 2.847009 1_545
Zn0_4 Zn0_6 2.847009 1_555
Zn0_5 Zn2_7 2.652207 1_545
Zn0_5 Zn1_7 2.652207 1_545
Zn0_5 Zn2_1 2.652207 1_655
Zn0_5 Zn1_1 2.652207 1_655
Zn0_5 Zn1_5 2.652210 1_555
Zn0_5 Zn2_5 2.652210 1_555
Zn0_5 Zn0_7 2.847009 1_545
Zn0_5 Zn0_7 2.847009 1_555
Zn0_6 Zn1_2 2.652207 1_655
Zn0_6 Zn1_4 2.652207 1_555
Zn0_6 Zn2_2 2.652207 1_655
Zn0_6 Zn2_4 2.652207 1_555
Zn0_6 Zn2_6 2.652210 1_555
Zn0_6 Zn1_6 2.652210 1_555
Zn0_7 Zn2_3 2.652207 1_655
Zn0_7 Zn2_5 2.652207 1_555
Zn0_7 Zn1_3 2.652207 1_655
Zn0_7 Zn1_5 2.652207 1_555
Zn0_7 Zn1_7 2.652210 1_555
Zn0_7 Zn2_7 2.652210 1_555
Zn1_0 Zn1_2 2.847009 1_545
Zn1_0 Zn1_4 2.847009 1_455
Zn1_0 Zn1_4 2.847009 1_555
Zn1_0 Zn1_2 2.847009 1_555
Zn1_0 Zn1_6 2.847009 1_555
Zn1_0 Zn1_6 2.847009 1_445
Zn1_1 Zn1_5 2.847009 1_455
Zn1_1 Zn1_3 2.847009 1_545
Zn1_1 Zn1_3 2.847009 1_555
Zn1_1 Zn1_5 2.847009 1_555
Zn1_1 Zn1_7 2.847009 1_555
Zn1_1 Zn1_7 2.847009 1_445
Zn1_2 Zn1_6 2.847009 1_455
Zn1_2 Zn1_6 2.847009 1_555
Zn1_2 Zn1_4 2.847009 1_565
Zn1_2 Zn1_4 2.847009 1_455
Zn1_3 Zn1_7 2.847009 1_455
Zn1_3 Zn1_7 2.847009 1_555
Zn1_3 Zn1_5 2.847009 1_565
Zn1_3 Zn1_5 2.847009 1_455
Zn1_4 Zn1_6 2.847009 1_555
Zn1_4 Zn1_6 2.847009 1_545
Zn1_5 Zn1_7 2.847009 1_555
Zn1_5 Zn1_7 2.847009 1_545
Zn2_0 Zn2_4 2.847009 1_455
Zn2_0 Zn2_2 2.847009 1_545
Zn2_0 Zn2_2 2.847009 1_555
Zn2_0 Zn2_4 2.847009 1_555
Zn2_0 Zn2_6 2.847009 1_555
Zn2_0 Zn2_6 2.847009 1_445
Zn2_1 Zn2_5 2.847009 1_455
Zn2_1 Zn2_3 2.847009 1_545
Zn2_1 Zn2_5 2.847009 1_555
Zn2_1 Zn2_3 2.847009 1_555
Zn2_1 Zn2_7 2.847009 1_555
Zn2_1 Zn2_7 2.847009 1_445
Zn2_2 Zn2_6 2.847009 1_455
Zn2_2 Zn2_6 2.847009 1_555
Zn2_2 Zn2_4 2.847009 1_565
Zn2_2 Zn2_4 2.847009 1_455
Zn2_3 Zn2_7 2.847009 1_455
Zn2_3 Zn2_7 2.847009 1_555
Zn2_3 Zn2_5 2.847009 1_565
Zn2_3 Zn2_5 2.847009 1_455
Zn2_4 Zn2_6 2.847009 1_555
Zn2_4 Zn2_6 2.847009 1_545
Zn2_5 Zn2_7 2.847009 1_555
Zn2_5 Zn2_7 2.847009 1_545
Ag0_0 Zn1_4 2.744449 1_555
Ag0_0 Zn1_2 2.744449 1_545
Ag0_0 Zn2_3 2.744449 1_544
Ag0_0 Zn2_5 2.744449 1_554
Ag0_0 Zn1_0 2.744452 1_555
Ag0_0 Zn2_1 2.744452 1_554
Ag0_0 Ag0_4 2.847009 1_455
Ag0_0 Ag0_2 2.847009 1_545
Ag0_0 Ag0_2 2.847009 1_555
Ag0_0 Ag0_4 2.847009 1_555
Ag0_0 Ag0_6 2.847009 1_555
Ag0_0 Ag0_6 2.847009 1_445
Ag0_1 Zn2_2 2.744449 1_545
Ag0_1 Zn2_4 2.744449 1_555
Ag0_1 Zn1_3 2.744449 1_545
Ag0_1 Zn1_5 2.744449 1_555
Ag0_1 Zn2_0 2.744452 1_555
Ag0_1 Zn1_1 2.744452 1_555
Ag0_1 Ag0_3 2.847009 1_545
Ag0_1 Ag0_5 2.847009 1_455
Ag0_1 Ag0_5 2.847009 1_555
Ag0_1 Ag0_3 2.847009 1_555
Ag0_1 Ag0_7 2.847009 1_555
Ag0_1 Ag0_7 2.847009 1_445
Ag0_2 Zn1_0 2.744449 1_555
Ag0_2 Zn1_6 2.744449 1_555
Ag0_2 Zn2_1 2.744449 1_554
Ag0_2 Zn2_7 2.744449 1_554
Ag0_2 Zn1_2 2.744452 1_555
Ag0_2 Zn2_3 2.744452 1_554
Ag0_2 Ag0_6 2.847009 1_555
Ag0_2 Ag0_6 2.847009 1_455
Ag0_2 Ag0_4 2.847009 1_455
Ag0_2 Ag0_4 2.847009 1_565
Ag0_3 Zn2_0 2.744449 1_555
Ag0_3 Zn2_6 2.744449 1_555
Ag0_3 Zn1_1 2.744449 1_555
Ag0_3 Zn1_7 2.744449 1_555
Ag0_3 Zn2_2 2.744452 1_555
Ag0_3 Zn1_3 2.744452 1_555
Ag0_3 Ag0_7 2.847009 1_555
Ag0_3 Ag0_7 2.847009 1_455
Ag0_3 Ag0_5 2.847009 1_565
Ag0_3 Ag0_5 2.847009 1_455
Ag0_4 Zn1_6 2.744449 1_545
Ag0_4 Zn1_0 2.744449 1_655
Ag0_4 Zn2_1 2.744449 1_654
Ag0_4 Zn2_7 2.744449 1_544
Ag0_4 Zn1_4 2.744452 1_555
Ag0_4 Zn2_5 2.744452 1_554
Ag0_4 Ag0_6 2.847009 1_545
Ag0_4 Ag0_6 2.847009 1_555
Ag0_5 Zn2_6 2.744449 1_545
Ag0_5 Zn2_0 2.744449 1_655
Ag0_5 Zn1_1 2.744449 1_655
Ag0_5 Zn1_7 2.744449 1_545
Ag0_5 Zn2_4 2.744452 1_555
Ag0_5 Zn1_5 2.744452 1_555
Ag0_5 Ag0_7 2.847009 1_545
Ag0_5 Ag0_7 2.847009 1_555
Ag0_6 Zn1_4 2.744449 1_555
Ag0_6 Zn1_2 2.744449 1_655
Ag0_6 Zn2_3 2.744449 1_654
Ag0_6 Zn2_5 2.744449 1_554
Ag0_6 Zn1_6 2.744452 1_555
Ag0_6 Zn2_7 2.744452 1_554
Ag0_7 Zn2_2 2.744449 1_655
Ag0_7 Zn2_4 2.744449 1_555
Ag0_7 Zn1_3 2.744449 1_655
Ag0_7 Zn1_5 2.744449 1_555
Ag0_7 Zn2_6 2.744452 1_555
Ag0_7 Zn1_7 2.744452 1_555
