# generated using pymatgen
data_BaEu3
_symmetry_space_group_name_H-M   'P 1'
_cell_length_a   5.92905500
_cell_length_b   5.92905500
_cell_length_c   5.92905500
_cell_angle_alpha   90.00000000
_cell_angle_beta   90.00000000
_cell_angle_gamma   90.00000000
_symmetry_Int_Tables_number   1
_chemical_formula_structural   BaEu3
_chemical_formula_sum   'Ba1 Eu3'
_cell_volume   208.42818039
_cell_formula_units_Z   1
loop_
 _symmetry_equiv_pos_site_id
 _symmetry_equiv_pos_as_xyz
  1  'x, y, z'
loop_
 _atom_site_type_symbol
 _atom_site_label
 _atom_site_symmetry_multiplicity
 _atom_site_fract_x
 _atom_site_fract_y
 _atom_site_fract_z
 _atom_site_occupancy
  Ba  Ba0  1  0.00000000  0.00000000  0.00000000  1
  Eu  Eu0  1  0.00000000  0.50000000  0.50000000  1
  Eu  Eu1  1  0.50000000  0.00000000  0.50000000  1
  Eu  Eu2  1  0.50000000  0.50000000  0.00000000  1
loop_
_geom_bond_atom_site_label_1
_geom_bond_atom_site_label_2
_geom_bond_distance
_geom_bond_site_symmetry_2
Ba0 Eu1 4.192475 1_554
Ba0 Eu1 4.192475 1_454
Ba0 Eu0 4.192475 1_554
Ba0 Eu2 4.192475 1_545
Ba0 Eu2 4.192475 1_555
Ba0 Eu0 4.192475 1_544
Ba0 Eu1 4.192475 1_455
Ba0 Eu0 4.192475 1_555
Ba0 Eu2 4.192475 1_455
Ba0 Eu0 4.192475 1_545
Ba0 Eu1 4.192475 1_555
Ba0 Eu2 4.192475 1_445
Eu0 Eu2 4.192475 1_456
Eu0 Eu2 4.192475 1_555
Eu0 Eu1 4.192475 1_565
Eu0 Eu2 4.192475 1_556
Eu0 Eu1 4.192475 1_455
Eu0 Eu2 4.192475 1_455
Eu0 Eu1 4.192475 1_555
Eu0 Eu1 4.192475 1_465
Eu1 Eu2 4.192475 1_545
Eu1 Eu2 4.192475 1_555
Eu1 Eu2 4.192475 1_556
Eu1 Eu2 4.192475 1_546
