# generated using pymatgen
data_Li3VO4
_symmetry_space_group_name_H-M   'P 1'
_cell_length_a   4.91454927
_cell_length_b   5.41504417
_cell_length_c   6.28071933
_cell_angle_alpha   90.00000000
_cell_angle_beta   90.00000000
_cell_angle_gamma   90.00000000
_symmetry_Int_Tables_number   1
_chemical_formula_structural   Li3VO4
_chemical_formula_sum   'Li6 V2 O8'
_cell_volume   167.14565179
_cell_formula_units_Z   2
loop_
 _symmetry_equiv_pos_site_id
 _symmetry_equiv_pos_as_xyz
  1  'x, y, z'
loop_
 _atom_site_type_symbol
 _atom_site_label
 _atom_site_symmetry_multiplicity
 _atom_site_fract_x
 _atom_site_fract_y
 _atom_site_fract_z
 _atom_site_occupancy
  Li  Li0  1  0.00990772  0.66752214  0.75294126  1
  Li  Li1  1  0.50990772  0.33247786  0.74705874  1
  Li  Li2  1  0.50990772  0.33247786  0.25294126  1
  Li  Li3  1  0.00990772  0.66752214  0.24705874  1
  Li  Li4  1  0.01162805  0.16595634  0.50000000  1
  Li  Li5  1  0.51162805  0.83404366  -0.00000000  1
  V  V0  1  0.00100965  0.16940659  -0.00000000  1
  V  V1  1  0.50100965  0.83059341  0.50000000  1
  O  O0  1  0.11110106  0.32017693  0.77388089  1
  O  O1  1  0.65136420  0.17236774  -0.00000000  1
  O  O2  1  0.11110106  0.32017693  0.22611911  1
  O  O3  1  0.61110106  0.67982307  0.72611911  1
  O  O4  1  0.61110106  0.67982307  0.27388089  1
  O  O5  1  0.60977654  0.13306736  0.50000000  1
  O  O6  1  0.10977654  0.86693264  -0.00000000  1
  O  O7  1  0.15136420  0.82763226  0.50000000  1
loop_
_geom_bond_atom_site_label_1
_geom_bond_atom_site_label_2
_geom_bond_distance
_geom_bond_site_symmetry_2
Li0 O7 1.938765 1_555
Li0 O0 1.949966 1_555
Li0 O6 1.953124 1_556
Li0 O3 1.968309 1_455
Li1 O1 1.938765 1_556
Li1 O3 1.949966 1_555
Li1 O5 1.953124 1_555
Li1 O0 1.968309 1_555
Li2 O1 1.938765 1_555
Li2 O4 1.949966 1_555
Li2 O5 1.953124 1_555
Li2 O2 1.968309 1_555
Li3 O7 1.938765 1_555
Li3 O2 1.949966 1_555
Li3 O6 1.953124 1_555
Li3 O4 1.968309 1_455
Li4 O7 1.956523 1_545
Li4 O2 1.973672 1_555
Li4 O0 1.973672 1_555
Li4 O5 1.982933 1_455
Li5 O1 1.956523 1_565
Li5 O4 1.973672 1_555
Li5 O3 1.973672 1_554
Li5 O6 1.982933 1_555
O0 V0 1.725176 1_556
O1 V0 1.718425 1_655
O2 V0 1.725176 1_555
O3 V1 1.725176 1_555
O4 V1 1.725176 1_555
O5 V1 1.722928 1_545
O6 V0 1.722928 1_565
O7 V1 1.718425 1_555
