# generated using pymatgen
data_KHfMg14
_symmetry_space_group_name_H-M   'P 1'
_cell_length_a   6.59413304
_cell_length_b   6.59413247
_cell_length_c   10.29142067
_cell_angle_alpha   90.00000000
_cell_angle_beta   90.00000000
_cell_angle_gamma   120.00000286
_symmetry_Int_Tables_number   1
_chemical_formula_structural   KHfMg14
_chemical_formula_sum   'K1 Hf1 Mg14'
_cell_volume   387.54427203
_cell_formula_units_Z   1
loop_
 _symmetry_equiv_pos_site_id
 _symmetry_equiv_pos_as_xyz
  1  'x, y, z'
loop_
 _atom_site_type_symbol
 _atom_site_label
 _atom_site_symmetry_multiplicity
 _atom_site_fract_x
 _atom_site_fract_y
 _atom_site_fract_z
 _atom_site_occupancy
  K  K0  1  0.16666700  0.33333300  0.12500000  1
  Hf  Hf0  1  0.16666700  0.33333300  0.62500000  1
  Mg  Mg0  1  0.17374788  0.83687344  0.12500000  1
  Mg  Mg1  1  0.16908274  0.83454087  0.62500000  1
  Mg  Mg2  1  0.66312656  0.32625212  0.12500000  1
  Mg  Mg3  1  0.66545913  0.33091726  0.62500000  1
  Mg  Mg4  1  0.66312656  0.83687344  0.12500000  1
  Mg  Mg5  1  0.66545913  0.83454087  0.62500000  1
  Mg  Mg6  1  0.33533577  0.16466423  0.38637672  1
  Mg  Mg7  1  0.33533577  0.16466423  0.86362328  1
  Mg  Mg8  1  0.33533577  0.67067254  0.38637672  1
  Mg  Mg9  1  0.33533577  0.67067254  0.86362328  1
  Mg  Mg10  1  0.82932746  0.16466423  0.38637672  1
  Mg  Mg11  1  0.82932746  0.16466423  0.86362328  1
  Mg  Mg12  1  0.83333300  0.66666700  0.37377170  1
  Mg  Mg13  1  0.83333300  0.66666700  0.87622830  1
loop_
_geom_bond_atom_site_label_1
_geom_bond_atom_site_label_2
_geom_bond_distance
_geom_bond_site_symmetry_2
K0 Mg0 3.297314 1_555
K0 Mg4 3.297314 1_555
K0 Mg4 3.297314 1_445
K0 Mg0 3.297314 1_545
K0 Mg2 3.297314 1_455
K0 Mg2 3.297314 1_555
K0 Mg6 3.308609 1_555
K0 Mg7 3.308609 1_554
K0 Mg8 3.308616 1_555
K0 Mg9 3.308616 1_554
K0 Mg11 3.308616 1_454
K0 Mg10 3.308616 1_455
Hf0 Mg7 3.121209 1_555
Hf0 Mg6 3.121209 1_555
Hf0 Mg8 3.121216 1_555
Hf0 Mg9 3.121216 1_555
Hf0 Mg11 3.121216 1_455
Hf0 Mg10 3.121216 1_455
Hf0 Mg5 3.297095 1_555
Hf0 Mg1 3.297095 1_555
Hf0 Mg5 3.297095 1_445
Hf0 Mg1 3.297095 1_545
Hf0 Mg3 3.297095 1_455
Hf0 Mg3 3.297095 1_555
Mg0 Mg12 3.214630 1_455
Mg0 Mg13 3.214630 1_454
Mg0 Mg2 3.227028 1_565
Mg0 Mg4 3.227028 1_555
Mg0 Mg8 3.277194 1_555
Mg0 Mg9 3.277194 1_554
Mg0 Mg6 3.277201 1_565
Mg0 Mg7 3.277201 1_564
Mg0 Mg2 3.367105 1_455
Mg0 Mg4 3.367105 1_455
Mg1 Mg8 3.095954 1_555
Mg1 Mg9 3.095954 1_555
Mg1 Mg6 3.095961 1_565
Mg1 Mg7 3.095961 1_565
Mg1 Mg13 3.218861 1_455
Mg1 Mg12 3.218861 1_455
Mg1 Mg3 3.273172 1_565
Mg1 Mg5 3.273172 1_555
Mg1 Mg3 3.320961 1_455
Mg1 Mg5 3.320961 1_455
Mg2 Mg4 3.227028 1_545
Mg2 Mg6 3.277201 1_555
Mg2 Mg7 3.277201 1_554
Mg2 Mg4 3.367105 1_555
Mg3 Mg6 3.095961 1_555
Mg3 Mg7 3.095961 1_555
Mg3 Mg5 3.273172 1_545
Mg3 Mg5 3.320961 1_555
Mg4 Mg9 3.277201 1_554
Mg4 Mg8 3.277201 1_555
Mg5 Mg8 3.095961 1_555
Mg5 Mg9 3.095961 1_555
Mg6 Mg8 3.257447 1_545
Mg6 Mg8 3.336686 1_555
Mg7 Mg9 3.257447 1_545
Mg7 Mg9 3.336686 1_555
Mg10 Mg3 3.095954 1_555
Mg10 Mg5 3.095961 1_545
Mg10 Mg8 3.257447 1_545
Mg10 Mg6 3.257447 1_555
Mg10 Mg2 3.277194 1_555
Mg10 Mg4 3.277201 1_545
Mg10 Mg12 3.299697 1_555
Mg10 Mg12 3.299697 1_545
Mg10 Mg8 3.336686 1_655
Mg10 Mg6 3.336686 1_655
Mg11 Mg3 3.095954 1_555
Mg11 Mg5 3.095961 1_545
Mg11 Mg9 3.257447 1_545
Mg11 Mg7 3.257447 1_555
Mg11 Mg2 3.277194 1_556
Mg11 Mg4 3.277201 1_546
Mg11 Mg13 3.299697 1_555
Mg11 Mg13 3.299697 1_545
Mg11 Mg9 3.336686 1_655
Mg11 Mg7 3.336686 1_655
Mg12 Mg4 3.214623 1_555
Mg12 Mg2 3.214629 1_555
Mg12 Mg5 3.218854 1_555
Mg12 Mg3 3.218861 1_555
Mg12 Mg6 3.299697 1_555
Mg12 Mg6 3.299697 1_665
Mg12 Mg8 3.299697 1_655
Mg12 Mg8 3.299697 1_555
Mg13 Mg4 3.214623 1_556
Mg13 Mg2 3.214629 1_556
Mg13 Mg5 3.218854 1_555
Mg13 Mg3 3.218861 1_555
Mg13 Mg7 3.299697 1_555
Mg13 Mg7 3.299697 1_665
Mg13 Mg9 3.299697 1_655
Mg13 Mg9 3.299697 1_555
