# generated using pymatgen
data_Hf2Sb2Pb4O13
_symmetry_space_group_name_H-M   'P 1'
_cell_length_a   7.60716094
_cell_length_b   7.60716094
_cell_length_c   7.60716094
_cell_angle_alpha   120.10889949
_cell_angle_beta   119.85280030
_cell_angle_gamma   90.03331516
_symmetry_Int_Tables_number   1
_chemical_formula_structural   Hf2Sb2Pb4O13
_chemical_formula_sum   'Hf2 Sb2 Pb4 O13'
_cell_volume   311.36924654
_cell_formula_units_Z   1
loop_
 _symmetry_equiv_pos_site_id
 _symmetry_equiv_pos_as_xyz
  1  'x, y, z'
loop_
 _atom_site_type_symbol
 _atom_site_label
 _atom_site_symmetry_multiplicity
 _atom_site_fract_x
 _atom_site_fract_y
 _atom_site_fract_z
 _atom_site_occupancy
  Hf  Hf0  1  0.74957000  0.00037200  0.74919800  1
  Hf  Hf1  1  0.25117400  0.00037200  0.25080200  1
  Sb  Sb0  1  0.74978400  0.00039900  0.25061500  1
  Sb  Sb1  1  0.74978400  0.49916900  0.74938500  1
  Pb  Pb0  1  0.24932100  0.50014200  0.74917800  1
  Pb  Pb1  1  0.75096400  0.50014200  0.25082200  1
  Pb  Pb2  1  0.24941000  0.49885800  0.24944700  1
  Pb  Pb3  1  0.24941000  0.99996300  0.75055300  1
  O  O0  1  0.07742500  0.07742500  0.00000000  1
  O  O1  1  0.67994100  0.67994100  0.00000000  1
  O  O2  1  0.68233600  0.07569800  0.01183900  1
  O  O3  1  0.06385900  0.67049700  0.98816100  1
  O  O4  1  0.06385900  0.07569800  0.39336200  1
  O  O5  1  0.68233600  0.67049700  0.60663800  1
  O  O6  1  0.42577000  0.92577000  0.50000000  1
  O  O7  1  0.81811100  0.31811100  0.50000000  1
  O  O8  1  0.81452500  0.92601900  0.48820400  1
  O  O9  1  0.43781500  0.32632100  0.51179600  1
  O  O10  1  0.43781500  0.92601900  0.11149400  1
  O  O11  1  0.81452500  0.32632100  0.88850600  1
  O  O12  1  0.37726500  0.37726500  0.00000000  1
loop_
_geom_bond_atom_site_label_1
_geom_bond_atom_site_label_2
_geom_bond_distance
_geom_bond_site_symmetry_2
Hf0 O6 2.062377 1_545
Hf0 O0 2.083990 1_656
Hf0 O11 2.087176 1_555
Hf0 O8 2.087176 1_545
Hf0 O2 2.109689 1_556
Hf0 O5 2.109689 1_545
Hf1 O6 2.062377 1_545
Hf1 O0 2.083990 1_555
Hf1 O9 2.087176 1_555
Hf1 O10 2.087176 1_545
Hf1 O4 2.109689 1_555
Hf1 O3 2.109689 1_544
O0 Pb3 2.647711 1_544
O0 Pb2 2.647718 1_555
O1 Sb0 2.046194 1_565
O1 Sb1 2.046194 1_554
O1 Pb0 2.719589 1_554
O1 Pb1 2.719596 1_555
O2 Sb0 2.001776 1_555
O2 Pb1 2.677083 1_555
O2 Pb3 2.731443 1_544
O3 Sb1 2.001776 1_455
O3 Pb0 2.677089 1_555
O3 Pb2 2.731437 1_556
O4 Sb0 2.001776 1_455
O4 Pb0 2.677083 1_555
O4 Pb3 2.731443 1_545
O5 Sb1 2.001776 1_555
O5 Pb1 2.677083 1_555
O5 Pb2 2.731443 1_555
O6 Pb2 2.686730 1_555
O6 Pb3 2.686737 1_555
O7 Sb1 2.031553 1_555
O7 Sb0 2.031553 1_555
O7 Pb1 2.727973 1_555
O7 Pb0 2.727979 1_655
O8 Sb0 1.992360 1_565
O8 Pb1 2.692556 1_555
O8 Pb3 2.746340 1_655
O9 Sb1 1.992360 1_555
O9 Pb0 2.692550 1_555
O9 Pb2 2.746347 1_555
O10 Sb0 1.992360 1_565
O10 Pb0 2.692556 1_554
O10 Pb3 2.746340 1_554
O11 Sb1 1.992360 1_555
O11 Pb1 2.692556 1_556
O11 Pb2 2.746340 1_656
O12 Pb0 2.324505 1_554
O12 Pb1 2.324505 1_555
O12 Pb2 2.340904 1_555
O12 Pb3 2.340904 1_544
