# generated using pymatgen
data_H12PdC4(NO5)2
_symmetry_space_group_name_H-M   'P 1'
_cell_length_a   6.55779005
_cell_length_b   7.57455317
_cell_length_c   14.09911500
_cell_angle_alpha   90.00000000
_cell_angle_beta   90.00000000
_cell_angle_gamma   116.19825309
_symmetry_Int_Tables_number   1
_chemical_formula_structural   H12PdC4(NO5)2
_chemical_formula_sum   'H24 Pd2 C8 N4 O20'
_cell_volume   628.39166130
_cell_formula_units_Z   2
loop_
 _symmetry_equiv_pos_site_id
 _symmetry_equiv_pos_as_xyz
  1  'x, y, z'
loop_
 _atom_site_type_symbol
 _atom_site_label
 _atom_site_symmetry_multiplicity
 _atom_site_fract_x
 _atom_site_fract_y
 _atom_site_fract_z
 _atom_site_occupancy
  H  H0  1  0.04618500  0.87310700  0.32849400  1
  H  H1  1  0.95381500  0.12689300  0.67150600  1
  H  H2  1  0.45381500  0.12689300  0.82849400  1
  H  H3  1  0.54618500  0.87310700  0.17150600  1
  H  H4  1  0.12558500  0.59797200  0.10653500  1
  H  H5  1  0.87441400  0.40202800  0.89346500  1
  H  H6  1  0.37441400  0.40202800  0.60653500  1
  H  H7  1  0.62558600  0.59797200  0.39346500  1
  H  H8  1  0.48440300  0.02201200  0.73682600  1
  H  H9  1  0.51559700  0.97798800  0.26317400  1
  H  H10  1  0.01559700  0.97798800  0.23682600  1
  H  H11  1  0.98440300  0.02201200  0.76317400  1
  H  H12  1  0.00752100  0.32774400  0.80875000  1
  H  H13  1  0.99247900  0.67225600  0.19125000  1
  H  H14  1  0.49247900  0.67225600  0.30875000  1
  H  H15  1  0.50752100  0.32774400  0.69125000  1
  H  H16  1  0.33861700  0.48382200  0.38419800  1
  H  H17  1  0.66138300  0.51617800  0.61580200  1
  H  H18  1  0.16138300  0.51617800  0.88419800  1
  H  H19  1  0.83861700  0.48382200  0.11580200  1
  H  H20  1  0.49645600  0.45439100  0.29730400  1
  H  H21  1  0.50354400  0.54560900  0.70269600  1
  H  H22  1  0.00354400  0.54560900  0.79730400  1
  H  H23  1  0.99645600  0.45439100  0.20269600  1
  Pd  Pd0  1  0.00000000  0.00000000  0.00000000  1
  Pd  Pd1  1  0.50000000  0.00000000  0.50000000  1
  C  C0  1  0.46800500  0.25291400  0.01139300  1
  C  C1  1  0.53199500  0.74708600  0.98860700  1
  C  C2  1  0.03199500  0.74708600  0.51139300  1
  C  C3  1  0.96800500  0.25291400  0.48860700  1
  C  C4  1  0.36715600  0.25897300  0.11000000  1
  C  C5  1  0.63284400  0.74102700  0.89000000  1
  C  C6  1  0.13284400  0.74102700  0.61000000  1
  C  C7  1  0.86715600  0.25897300  0.39000000  1
  N  N0  1  0.48970300  0.55264800  0.34683800  1
  N  N1  1  0.51029700  0.44735200  0.65316200  1
  N  N2  1  0.01029700  0.44735200  0.84683800  1
  N  N3  1  0.98970300  0.55264800  0.15316200  1
  O  O0  1  0.04493500  0.14823500  0.72960400  1
  O  O1  1  0.95506500  0.85176500  0.27039600  1
  O  O2  1  0.45506500  0.85176500  0.22960400  1
  O  O3  1  0.54493500  0.14823500  0.77039600  1
  O  O4  1  0.17442700  0.86154500  0.44862300  1
  O  O5  1  0.82557300  0.13845500  0.55137700  1
  O  O6  1  0.32557300  0.13845500  0.94862300  1
  O  O7  1  0.67442700  0.86154500  0.05137700  1
  O  O8  1  0.17515800  0.35438000  0.50257600  1
  O  O9  1  0.82484200  0.64562000  0.49742400  1
  O  O10  1  0.32484200  0.64562000  0.00257600  1
  O  O11  1  0.67515800  0.35438000  0.99742400  1
  O  O12  1  0.49477600  0.35969200  0.17423900  1
  O  O13  1  0.50522400  0.64030800  0.82576100  1
  O  O14  1  0.00522400  0.64030800  0.67423900  1
  O  O15  1  0.99477600  0.35969200  0.32576100  1
  O  O16  1  0.14865100  0.15338300  0.11875900  1
  O  O17  1  0.85134900  0.84661700  0.88124100  1
  O  O18  1  0.35134900  0.84661700  0.61875900  1
  O  O19  1  0.64865100  0.15338300  0.38124100  1
loop_
_geom_bond_atom_site_label_1
_geom_bond_atom_site_label_2
_geom_bond_distance
_geom_bond_site_symmetry_2
H0 O1 0.984316 1_455
H1 O0 0.984316 1_655
H2 O3 0.984316 1_555
H3 O2 0.984316 1_555
H4 N3 1.036319 1_455
H5 N2 1.036323 1_655
H6 N1 1.036323 1_555
H7 N0 1.036323 1_555
H8 O3 0.980095 1_555
H9 O2 0.980095 1_555
H10 O1 0.980095 1_455
H11 O0 0.980095 1_655
H12 N2 1.046394 1_555
H13 N3 1.046394 1_555
H14 N0 1.046394 1_555
H15 N1 1.046394 1_555
H16 N0 1.036743 1_555
H17 N1 1.036743 1_555
H18 N2 1.036743 1_555
H19 N3 1.036743 1_555
H20 N0 1.035721 1_555
H21 N1 1.035721 1_555
H22 N2 1.035721 1_555
H23 N3 1.035721 1_555
C0 O11 1.246211 1_554
C0 O6 1.300882 1_554
C1 O10 1.246211 1_556
C1 O7 1.300882 1_556
C2 O9 1.246211 1_455
C2 O4 1.300882 1_555
C3 O8 1.246211 1_655
C3 O5 1.300882 1_555
C4 O12 1.240564 1_555
C4 O16 1.302404 1_555
C5 O13 1.240564 1_555
C5 O17 1.302404 1_555
C6 O14 1.240564 1_555
C6 O18 1.302404 1_555
C7 O15 1.240564 1_555
C7 O19 1.302404 1_555
O4 Pd1 2.050836 1_565
O5 Pd1 2.050836 1_555
O6 Pd0 2.050836 1_556
O7 Pd0 2.050836 1_665
O16 Pd0 2.025755 1_555
O17 Pd0 2.025755 1_666
O18 Pd1 2.025755 1_565
O19 Pd1 2.025755 1_555
