# generated using pymatgen
data_Ca4Mn3SbO12
_symmetry_space_group_name_H-M   'P 1'
_cell_length_a   5.41025988
_cell_length_b   5.50341389
_cell_length_c   7.71371350
_cell_angle_alpha   90.13415322
_cell_angle_beta   89.93801744
_cell_angle_gamma   89.98574124
_symmetry_Int_Tables_number   1
_chemical_formula_structural   Ca4Mn3SbO12
_chemical_formula_sum   'Ca4 Mn3 Sb1 O12'
_cell_volume   229.67427227
_cell_formula_units_Z   1
loop_
 _symmetry_equiv_pos_site_id
 _symmetry_equiv_pos_as_xyz
  1  'x, y, z'
loop_
 _atom_site_type_symbol
 _atom_site_label
 _atom_site_symmetry_multiplicity
 _atom_site_fract_x
 _atom_site_fract_y
 _atom_site_fract_z
 _atom_site_occupancy
  Ca  Ca0  1  0.99290700  0.95852100  0.73314900  1
  Ca  Ca1  1  0.00709500  0.04146600  0.26685100  1
  Ca  Ca2  1  0.51137500  0.44925800  0.73393600  1
  Ca  Ca3  1  0.48861700  0.55074800  0.26606300  1
  Mn  Mn0  1  0.50000900  0.00000600  0.50000500  1
  Mn  Mn1  1  0.49999700  0.00000400  0.99999900  1
  Mn  Mn2  1  0.00000500  0.50000200  0.49999800  1
  Sb  Sb0  1  0.00000300  0.50001200  0.00000000  1
  O  O0  1  0.71135800  0.71020300  0.53853700  1
  O  O1  1  0.30159200  0.29676800  0.04699600  1
  O  O2  1  0.28863900  0.28979100  0.46146400  1
  O  O3  1  0.69840400  0.70322900  0.95300300  1
  O  O4  1  0.08487600  0.52334100  0.74845700  1
  O  O5  1  0.91511800  0.47664900  0.25154100  1
  O  O6  1  0.79079300  0.21207100  0.53843300  1
  O  O7  1  0.20218500  0.79913900  0.04732900  1
  O  O8  1  0.20920700  0.78792600  0.46157000  1
  O  O9  1  0.79781900  0.20086300  0.95266800  1
  O  O10  1  0.42045900  0.02308600  0.75198500  1
  O  O11  1  0.57954200  0.97691500  0.24801600  1
loop_
_geom_bond_atom_site_label_1
_geom_bond_atom_site_label_2
_geom_bond_distance
_geom_bond_site_symmetry_2
Ca0 O6 2.326241 1_565
Ca0 O10 2.344996 1_665
Ca0 O9 2.396863 1_565
Ca0 O4 2.449141 1_655
Ca0 O0 2.537284 1_555
Ca0 O8 2.573787 1_655
Ca0 O3 2.719404 1_555
Ca0 O7 2.817817 1_656
Ca1 O8 2.326218 1_545
Ca1 O11 2.344989 1_445
Ca1 O7 2.396839 1_545
Ca1 O5 2.449167 1_455
Ca1 O2 2.537293 1_555
Ca1 O6 2.573831 1_455
Ca1 O1 2.719418 1_555
Ca1 O9 2.817858 1_454
Ca2 O4 2.345624 1_555
Ca2 O0 2.347803 1_555
Ca2 O10 2.400873 1_555
Ca2 O3 2.413776 1_555
Ca2 O6 2.499662 1_555
Ca2 O2 2.576273 1_555
Ca2 O9 2.670692 1_555
Ca2 O1 2.797860 1_556
Ca3 O5 2.345650 1_555
Ca3 O2 2.347840 1_555
Ca3 O11 2.400855 1_555
Ca3 O1 2.413795 1_555
Ca3 O8 2.499629 1_555
Ca3 O0 2.576276 1_555
Ca3 O7 2.670653 1_555
Ca3 O3 2.797854 1_554
Mn0 O6 1.981227 1_555
Mn0 O8 1.981361 1_545
Mn0 O2 1.985343 1_555
Mn0 O0 1.985346 1_545
Mn0 O10 1.994078 1_555
Mn0 O11 1.994130 1_545
Mn1 O10 1.965755 1_555
Mn1 O11 1.965788 1_546
Mn1 O1 1.986596 1_556
Mn1 O3 1.986650 1_545
Mn1 O7 1.988189 1_546
Mn1 O9 1.988216 1_555
Mn2 O2 1.965134 1_555
Mn2 O0 1.965163 1_455
Mn2 O8 1.970313 1_555
Mn2 O6 1.970383 1_455
Mn2 O4 1.975158 1_555
Mn2 O5 1.975169 1_455
O1 Sb0 2.011758 1_555
O3 Sb0 2.011721 1_656
O4 Sb0 1.997870 1_556
O5 Sb0 1.997883 1_655
O7 Sb0 2.009675 1_555
O9 Sb0 2.009784 1_656
