# generated using pymatgen
data_CrSiMo
_symmetry_space_group_name_H-M   'P 1'
_cell_length_a   4.88769619
_cell_length_b   4.88769619
_cell_length_c   7.62266800
_cell_angle_alpha   90.00000000
_cell_angle_beta   90.00000000
_cell_angle_gamma   120.70940230
_symmetry_Int_Tables_number   1
_chemical_formula_structural   CrSiMo
_chemical_formula_sum   'Cr4 Si4 Mo4'
_cell_volume   156.56581066
_cell_formula_units_Z   4
loop_
 _symmetry_equiv_pos_site_id
 _symmetry_equiv_pos_as_xyz
  1  'x, y, z'
loop_
 _atom_site_type_symbol
 _atom_site_label
 _atom_site_symmetry_multiplicity
 _atom_site_fract_x
 _atom_site_fract_y
 _atom_site_fract_z
 _atom_site_occupancy
  Cr  Cr0  1  0.00474600  0.99525400  0.24747900  1
  Cr  Cr1  1  0.00474600  0.99525400  0.75252100  1
  Cr  Cr2  1  0.82367500  0.66335700  0.00000000  1
  Cr  Cr3  1  0.33664300  0.17632500  0.00000000  1
  Si  Si0  1  0.82570700  0.17429300  0.00000000  1
  Si  Si1  1  0.16906500  0.33541700  0.50000000  1
  Si  Si2  1  0.66458300  0.83093500  0.50000000  1
  Si  Si3  1  0.16932800  0.83067200  0.50000000  1
  Mo  Mo0  1  0.33472100  0.66527900  0.19184900  1
  Mo  Mo1  1  0.66625600  0.33374400  0.32310000  1
  Mo  Mo2  1  0.66625600  0.33374400  0.67690000  1
  Mo  Mo3  1  0.33472100  0.66527900  0.80815100  1
loop_
_geom_bond_atom_site_label_1
_geom_bond_atom_site_label_2
_geom_bond_distance
_geom_bond_site_symmetry_2
Cr0 Cr2 2.346733 1_455
Cr0 Cr3 2.346733 1_565
Cr0 Si3 2.379141 1_555
Cr0 Si2 2.398051 1_455
Cr0 Si1 2.398051 1_565
Cr0 Si0 2.423303 1_465
Cr0 Mo0 2.835303 1_555
Cr0 Mo1 2.838993 1_565
Cr0 Mo1 2.838993 1_455
Cr0 Mo0 2.848014 1_455
Cr0 Mo0 2.848014 1_565
Cr0 Mo1 2.932958 1_465
Cr1 Cr3 2.346733 1_566
Cr1 Cr2 2.346733 1_456
Cr1 Si3 2.379141 1_555
Cr1 Si2 2.398051 1_455
Cr1 Si1 2.398051 1_565
Cr1 Si0 2.423303 1_466
Cr1 Mo3 2.835303 1_555
Cr1 Mo2 2.838993 1_565
Cr1 Mo2 2.838993 1_455
Cr1 Mo3 2.848014 1_455
Cr1 Mo3 2.848014 1_565
Cr1 Mo2 2.932958 1_465
Cr2 Cr3 2.354894 1_555
Cr2 Si0 2.395483 1_555
Cr2 Cr3 2.480300 1_665
Cr2 Si0 2.492243 1_565
Cr2 Mo0 2.805897 1_555
Cr2 Mo3 2.805897 1_554
Cr2 Mo1 2.826167 1_555
Cr2 Mo2 2.826167 1_554
Cr2 Mo0 2.890317 1_655
Cr2 Mo3 2.890317 1_654
Cr3 Si0 2.395483 1_555
Cr3 Si0 2.492243 1_455
Cr3 Mo0 2.805897 1_555
Cr3 Mo3 2.805897 1_554
Cr3 Mo2 2.826167 1_554
Cr3 Mo1 2.826167 1_555
Cr3 Mo0 2.890317 1_545
Cr3 Mo3 2.890317 1_544
Si1 Si2 2.395926 1_555
Si1 Si3 2.420000 1_555
Si1 Si2 2.439268 1_445
Si1 Si3 2.467697 1_545
Si2 Si3 2.420000 1_555
Si2 Si3 2.467697 1_655
Mo0 Si1 2.727481 1_555
Mo0 Si2 2.727481 1_555
Mo0 Si3 2.737140 1_555
Mo0 Si0 2.826527 1_565
Mo0 Si0 2.826527 1_455
Mo0 Mo3 2.924802 1_554
Mo0 Mo1 2.982318 1_565
Mo0 Mo1 2.982318 1_455
Mo0 Mo1 2.989076 1_555
Mo1 Mo2 2.696900 1_555
Mo1 Si3 2.768352 1_545
Mo1 Si3 2.768352 1_655
Mo1 Si1 2.782832 1_555
Mo1 Si2 2.782832 1_555
Mo1 Si2 2.799562 1_545
Mo1 Si1 2.799562 1_655
Mo1 Si0 2.810859 1_555
Mo2 Si3 2.768352 1_545
Mo2 Si3 2.768352 1_655
Mo2 Si1 2.782832 1_555
Mo2 Si2 2.782832 1_555
Mo2 Si1 2.799562 1_655
Mo2 Si2 2.799562 1_545
Mo2 Si0 2.810859 1_556
Mo2 Mo3 2.982318 1_655
Mo2 Mo3 2.982318 1_545
Mo2 Mo3 2.989076 1_555
Mo3 Si2 2.727481 1_555
Mo3 Si1 2.727481 1_555
Mo3 Si3 2.737140 1_555
Mo3 Si0 2.826527 1_456
Mo3 Si0 2.826527 1_566
