# generated using pymatgen
data_Tb(BC)2
_symmetry_space_group_name_H-M   'P 1'
_cell_length_a   3.60435932
_cell_length_b   5.33703050
_cell_length_c   5.33703050
_cell_angle_alpha   90.00000000
_cell_angle_beta   90.00000000
_cell_angle_gamma   90.00000000
_symmetry_Int_Tables_number   1
_chemical_formula_structural   Tb(BC)2
_chemical_formula_sum   'Tb2 B4 C4'
_cell_volume   102.66619082
_cell_formula_units_Z   2
loop_
 _symmetry_equiv_pos_site_id
 _symmetry_equiv_pos_as_xyz
  1  'x, y, z'
loop_
 _atom_site_type_symbol
 _atom_site_label
 _atom_site_symmetry_multiplicity
 _atom_site_fract_x
 _atom_site_fract_y
 _atom_site_fract_z
 _atom_site_occupancy
  Tb  Tb0  1  -0.00000000  0.50000000  0.50000000  1
  Tb  Tb1  1  0.00000000  -0.00000000  -0.00000000  1
  B  B0  1  0.50000000  0.63650753  0.13650753  1
  B  B1  1  0.50000000  0.86349247  0.63650753  1
  B  B2  1  0.50000000  0.36349247  0.86349247  1
  B  B3  1  0.50000000  0.13650753  0.36349247  1
  C  C0  1  0.50000000  0.66214462  0.83785538  1
  C  C1  1  0.50000000  0.83785538  0.33785538  1
  C  C2  1  0.50000000  0.16214462  0.66214462  1
  C  C3  1  0.50000000  0.33785538  0.16214462  1
loop_
_geom_bond_atom_site_label_1
_geom_bond_atom_site_label_2
_geom_bond_distance
_geom_bond_site_symmetry_2
B0 C1 1.519713 1_555
B0 C0 1.599778 1_554
B0 C3 1.599778 1_555
B0 Tb0 2.746291 1_655
B0 Tb1 2.746291 1_565
B0 Tb1 2.746291 1_665
B0 Tb0 2.746291 1_555
B1 C0 1.519713 1_555
B1 C2 1.599778 1_565
B1 C1 1.599778 1_555
B1 Tb1 2.746291 1_566
B1 Tb1 2.746291 1_666
B1 Tb0 2.746291 1_555
B1 Tb0 2.746291 1_655
B2 C2 1.519713 1_555
B2 C0 1.599778 1_555
B2 C3 1.599778 1_556
B2 Tb1 2.746291 1_656
B2 Tb1 2.746291 1_556
B2 Tb0 2.746291 1_555
B2 Tb0 2.746291 1_655
B3 C3 1.519713 1_555
B3 C2 1.599778 1_555
B3 C1 1.599778 1_545
B3 Tb0 2.746291 1_655
B3 Tb0 2.746291 1_555
B3 Tb1 2.746291 1_555
B3 Tb1 2.746291 1_655
C0 Tb0 2.692220 1_655
C0 Tb1 2.692220 1_566
C0 Tb0 2.692220 1_555
C0 Tb1 2.692220 1_666
C1 Tb1 2.692220 1_565
C1 Tb1 2.692220 1_665
C1 Tb0 2.692220 1_655
C1 Tb0 2.692220 1_555
C2 Tb0 2.692220 1_655
C2 Tb0 2.692220 1_555
C2 Tb1 2.692220 1_656
C2 Tb1 2.692220 1_556
C3 Tb0 2.692220 1_655
C3 Tb0 2.692220 1_555
C3 Tb1 2.692220 1_555
C3 Tb1 2.692220 1_655
