# generated using pymatgen
data_Np(Mo3Se4)2
_symmetry_space_group_name_H-M   'P 1'
_cell_length_a   6.78099759
_cell_length_b   6.78099759
_cell_length_c   6.78099783
_cell_angle_alpha   89.06422056
_cell_angle_beta   89.06422056
_cell_angle_gamma   89.06422457
_symmetry_Int_Tables_number   1
_chemical_formula_structural   Np(Mo3Se4)2
_chemical_formula_sum   'Np1 Mo6 Se8'
_cell_volume   311.67994143
_cell_formula_units_Z   1
loop_
 _symmetry_equiv_pos_site_id
 _symmetry_equiv_pos_as_xyz
  1  'x, y, z'
loop_
 _atom_site_type_symbol
 _atom_site_label
 _atom_site_symmetry_multiplicity
 _atom_site_fract_x
 _atom_site_fract_y
 _atom_site_fract_z
 _atom_site_occupancy
  Np  Np0  1  0.00000000  0.00000000  0.00000000  1
  Mo  Mo0  1  0.76611700  0.57574600  0.43970300  1
  Mo  Mo1  1  0.43970300  0.76611700  0.57574600  1
  Mo  Mo2  1  0.57574600  0.43970300  0.76611700  1
  Mo  Mo3  1  0.23388300  0.42425400  0.56029700  1
  Mo  Mo4  1  0.56029700  0.23388300  0.42425400  1
  Mo  Mo5  1  0.42425400  0.56029700  0.23388300  1
  Se  Se0  1  0.76111000  0.76111000  0.76111000  1
  Se  Se1  1  0.23889000  0.23889000  0.23889000  1
  Se  Se2  1  0.24197500  0.63033800  0.87868000  1
  Se  Se3  1  0.87868000  0.24197500  0.63033800  1
  Se  Se4  1  0.63033800  0.87868000  0.24197500  1
  Se  Se5  1  0.75802500  0.36966200  0.12132000  1
  Se  Se6  1  0.12132000  0.75802500  0.36966200  1
  Se  Se7  1  0.36966200  0.12132000  0.75802500  1
loop_
_geom_bond_atom_site_label_1
_geom_bond_atom_site_label_2
_geom_bond_distance
_geom_bond_site_symmetry_2
Np0 Se0 2.851226 1_444
Np0 Se1 2.851226 1_555
Np0 Se4 3.088927 1_445
Np0 Se7 3.088927 1_554
Np0 Se5 3.088927 1_455
Np0 Se2 3.088927 1_544
Np0 Se6 3.088927 1_545
Np0 Se3 3.088927 1_454
Mo0 Se0 2.533140 1_555
Mo0 Se5 2.592662 1_555
Mo0 Se4 2.598797 1_555
Mo0 Se3 2.693777 1_555
Mo0 Se6 2.756004 1_655
Mo1 Se0 2.533140 1_555
Mo1 Se6 2.592662 1_555
Mo1 Se2 2.598797 1_555
Mo1 Se4 2.693777 1_555
Mo1 Se7 2.756004 1_565
Mo2 Se0 2.533140 1_555
Mo2 Se7 2.592662 1_555
Mo2 Se3 2.598797 1_555
Mo2 Se2 2.693778 1_555
Mo2 Se5 2.756004 1_556
Mo3 Se1 2.533140 1_555
Mo3 Se2 2.592662 1_555
Mo3 Se7 2.598797 1_555
Mo3 Se6 2.693777 1_555
Mo3 Se3 2.756004 1_455
Mo4 Se1 2.533140 1_555
Mo4 Se3 2.592662 1_555
Mo4 Se5 2.598797 1_555
Mo4 Se7 2.693777 1_555
Mo4 Se4 2.756004 1_545
Mo5 Se1 2.533140 1_555
Mo5 Se4 2.592662 1_555
Mo5 Se6 2.598797 1_555
Mo5 Se5 2.693778 1_555
Mo5 Se2 2.756004 1_554
