# generated using pymatgen
data_Fe5(OF4)2
_symmetry_space_group_name_H-M   'P 1'
_cell_length_a   4.76520600
_cell_length_b   5.71096733
_cell_length_c   13.74132848
_cell_angle_alpha   100.10824867
_cell_angle_beta   90.36145628
_cell_angle_gamma   90.54285137
_symmetry_Int_Tables_number   1
_chemical_formula_structural   Fe5(OF4)2
_chemical_formula_sum   'Fe10 O4 F16'
_cell_volume   368.12246934
_cell_formula_units_Z   2
loop_
 _symmetry_equiv_pos_site_id
 _symmetry_equiv_pos_as_xyz
  1  'x, y, z'
loop_
 _atom_site_type_symbol
 _atom_site_label
 _atom_site_symmetry_multiplicity
 _atom_site_fract_x
 _atom_site_fract_y
 _atom_site_fract_z
 _atom_site_occupancy
  Fe  Fe0  1  0.50000000  0.50000000  0.00000000  1
  Fe  Fe1  1  0.51883100  0.29409500  0.40152600  1
  Fe  Fe2  1  0.51853700  0.90100700  0.20649100  1
  Fe  Fe3  1  0.48116900  0.70590500  0.59847400  1
  Fe  Fe4  1  0.48146300  0.09899300  0.79350900  1
  Fe  Fe5  1  0.97728700  0.81298400  0.39295200  1
  Fe  Fe6  1  0.96534200  0.60411300  0.81400900  1
  Fe  Fe7  1  0.03465800  0.39588700  0.18599100  1
  Fe  Fe8  1  0.02271300  0.18701600  0.60704800  1
  Fe  Fe9  1  0.00000000  0.00000000  0.00000000  1
  O  O0  1  0.21173800  0.29780100  0.04656100  1
  O  O1  1  0.29179800  0.01866300  0.65773400  1
  O  O2  1  0.70820200  0.98133700  0.34226600  1
  O  O3  1  0.78826200  0.70219900  0.95343900  1
  F  F0  1  0.19483300  0.72724600  0.26389500  1
  F  F1  1  0.19490600  0.93096700  0.86832100  1
  F  F2  1  0.18722200  0.50864000  0.65890900  1
  F  F3  1  0.18997400  0.12081900  0.46432400  1
  F  F4  1  0.29433200  0.80668100  0.06409300  1
  F  F5  1  0.28848000  0.62471400  0.45460700  1
  F  F6  1  0.31094600  0.43802800  0.86116500  1
  F  F7  1  0.30133300  0.22389400  0.26192200  1
  F  F8  1  0.69866700  0.77610600  0.73807800  1
  F  F9  1  0.68905400  0.56197200  0.13883500  1
  F  F10  1  0.70566800  0.19331900  0.93590700  1
  F  F11  1  0.71152000  0.37528600  0.54539300  1
  F  F12  1  0.80509400  0.06903300  0.13167900  1
  F  F13  1  0.81002600  0.87918100  0.53567600  1
  F  F14  1  0.81277800  0.49136000  0.34109100  1
  F  F15  1  0.80516700  0.27275400  0.73610500  1
loop_
_geom_bond_atom_site_label_1
_geom_bond_atom_site_label_2
_geom_bond_distance
_geom_bond_site_symmetry_2
Fe0 O0 1.967240 1_555
Fe0 O3 1.967240 1_554
Fe1 O2 2.048661 1_545
Fe2 O2 2.044180 1_555
Fe3 O1 2.048661 1_565
Fe4 O1 2.044180 1_555
Fe5 O2 1.816813 1_555
Fe6 O3 2.085504 1_555
Fe7 O0 2.085504 1_555
Fe8 O1 1.816813 1_555
Fe9 O0 1.974147 1_555
Fe9 O3 1.974147 1_444
F0 Fe5 2.046316 1_455
F0 Fe2 2.060929 1_555
F0 Fe7 2.135624 1_555
F1 Fe9 2.017391 1_566
F1 Fe4 2.044843 1_565
F1 Fe6 2.167958 1_455
F2 Fe8 2.000590 1_555
F2 Fe3 2.057672 1_555
F2 Fe6 2.364104 1_455
F3 Fe8 2.095169 1_555
F3 Fe5 2.104331 1_445
F3 Fe1 2.113536 1_555
F4 Fe0 2.075016 1_555
F4 Fe9 2.077690 1_565
F4 Fe2 2.202992 1_555
F5 Fe5 2.099274 1_455
F5 Fe3 2.147927 1_555
F5 Fe1 2.206350 1_555
F6 Fe6 2.064854 1_455
F6 Fe0 2.076470 1_556
F6 Fe4 2.163556 1_555
F7 Fe7 2.008726 1_555
F7 Fe2 2.145894 1_545
F7 Fe1 2.147563 1_555
F8 Fe6 2.008726 1_555
F8 Fe4 2.145894 1_565
F8 Fe3 2.147563 1_555
F9 Fe7 2.064854 1_655
F9 Fe0 2.076470 1_555
F9 Fe2 2.163556 1_555
F10 Fe0 2.075016 1_556
F10 Fe9 2.077690 1_656
F10 Fe4 2.202992 1_555
F11 Fe8 2.099274 1_655
F11 Fe1 2.147927 1_555
F11 Fe3 2.206350 1_555
F12 Fe9 2.017391 1_655
F12 Fe2 2.044843 1_545
F12 Fe7 2.167958 1_655
F13 Fe5 2.095169 1_555
F13 Fe8 2.104331 1_665
F13 Fe3 2.113536 1_555
F14 Fe5 2.000590 1_555
F14 Fe1 2.057672 1_555
F14 Fe7 2.364104 1_655
F15 Fe8 2.046316 1_655
F15 Fe4 2.060929 1_555
F15 Fe6 2.135624 1_555
