# generated using pymatgen
data_KBe2B3O7
_symmetry_space_group_name_H-M   'P 1'
_cell_length_a   13.41525300
_cell_length_b   7.57093600
_cell_length_c   9.43330728
_cell_angle_alpha   68.56722096
_cell_angle_beta   90.00000000
_cell_angle_gamma   90.00000000
_symmetry_Int_Tables_number   1
_chemical_formula_structural   KBe2B3O7
_chemical_formula_sum   'K6 Be12 B18 O42'
_cell_volume   891.84768338
_cell_formula_units_Z   6
loop_
 _symmetry_equiv_pos_site_id
 _symmetry_equiv_pos_as_xyz
  1  'x, y, z'
loop_
 _atom_site_type_symbol
 _atom_site_label
 _atom_site_symmetry_multiplicity
 _atom_site_fract_x
 _atom_site_fract_y
 _atom_site_fract_z
 _atom_site_occupancy
  K  K0  1  0.44166300  0.37005800  0.23319700  1
  K  K1  1  0.94166300  0.62994200  0.76680300  1
  K  K2  1  0.08872600  0.37911700  0.23376600  1
  K  K3  1  0.58872600  0.62088300  0.76623400  1
  K  K4  1  0.51712700  0.00190000  0.99451900  1
  K  K5  1  0.01712700  0.99810000  0.00548100  1
  Be  Be0  1  0.60398100  0.97501600  0.41413200  1
  Be  Be1  1  0.10398100  0.02498400  0.58586800  1
  Be  Be2  1  0.43699800  0.02989000  0.57635300  1
  Be  Be3  1  0.93699800  0.97011000  0.42364700  1
  Be  Be4  1  0.43622100  0.39609100  0.58372700  1
  Be  Be5  1  0.93622100  0.60390900  0.41627300  1
  Be  Be6  1  0.60447500  0.59882000  0.42351700  1
  Be  Be7  1  0.10447500  0.40118000  0.57648300  1
  Be  Be8  1  0.77188000  0.39869000  0.59092300  1
  Be  Be9  1  0.27188000  0.60131000  0.40907700  1
  Be  Be10  1  0.76937600  0.02654300  0.59011200  1
  Be  Be11  1  0.26937600  0.97345700  0.40988800  1
  B  B0  1  0.60425000  0.23550400  0.53576100  1
  B  B1  1  0.10425000  0.76449600  0.46423900  1
  B  B2  1  0.27114700  0.23598900  0.52557200  1
  B  B3  1  0.77114700  0.76401100  0.47442800  1
  B  B4  1  0.43546400  0.76730200  0.46050800  1
  B  B5  1  0.93546400  0.23269800  0.53949200  1
  B  B6  1  0.35574500  0.34579700  0.84784200  1
  B  B7  1  0.85574500  0.65420300  0.15215800  1
  B  B8  1  0.26236100  0.19130000  0.08703000  1
  B  B9  1  0.76236100  0.80870000  0.91297000  1
  B  B10  1  0.17663900  0.35640300  0.84249400  1
  B  B11  1  0.67663900  0.64359700  0.15750600  1
  B  B12  1  0.77122300  0.30983500  0.91273600  1
  B  B13  1  0.27122300  0.69016500  0.08726400  1
  B  B14  1  0.67702500  0.15459300  0.14968700  1
  B  B15  1  0.17702500  0.84540700  0.85031300  1
  B  B16  1  0.85859200  0.15559500  0.15716800  1
  B  B17  1  0.35859200  0.84440500  0.84283200  1
  O  O0  1  0.48768800  0.91865400  0.47405200  1
  O  O1  1  0.98768800  0.08134600  0.52594800  1
  O  O2  1  0.65487400  0.08652700  0.51814400  1
  O  O3  1  0.15487400  0.91347300  0.48185600  1
  O  O4  1  0.83469700  0.22119900  0.56915200  1
  O  O5  1  0.33469700  0.77880100  0.43084800  1
  O  O6  1  0.65406400  0.39499400  0.53651200  1
  O  O7  1  0.15406400  0.60500600  0.46348800  1
  O  O8  1  0.48790200  0.60126000  0.48372000  1
  O  O9  1  0.98790200  0.39874000  0.51628000  1
  O  O10  1  0.50093800  0.22844600  0.54805600  1
  O  O11  1  0.00093800  0.77155400  0.45194400  1
  O  O12  1  0.32268400  0.39782500  0.51620300  1
  O  O13  1  0.82268400  0.60217500  0.48379700  1
  O  O14  1  0.32432100  0.09285400  0.50202500  1
  O  O15  1  0.82432100  0.90714600  0.49797500  1
  O  O16  1  0.16829800  0.22706400  0.54682100  1
  O  O17  1  0.66829800  0.77293600  0.45317900  1
  O  O18  1  0.25922200  0.11130700  0.23623500  1
  O  O19  1  0.75922200  0.88869300  0.76376500  1
  O  O20  1  0.35379600  0.23301200  0.00570900  1
  O  O21  1  0.85379600  0.76698800  0.99429100  1
  O  O22  1  0.17327800  0.24486600  0.00034200  1
  O  O23  1  0.67327800  0.75513400  0.99965800  1
  O  O24  1  0.43805900  0.35589900  0.76526400  1
  O  O25  1  0.93805900  0.64410100  0.23473600  1
  O  O26  1  0.26784600  0.43879500  0.78487200  1
  O  O27  1  0.76784600  0.56120500  0.21512800  1
  O  O28  1  0.09636400  0.37529600  0.75429700  1
  O  O29  1  0.59636400  0.62470400  0.24570300  1
  O  O30  1  0.77430800  0.39639100  0.76300200  1
  O  O31  1  0.27430800  0.60360900  0.23699800  1
  O  O32  1  0.86064700  0.27047100  0.00022400  1
  O  O33  1  0.36064700  0.72952900  0.99977600  1
  O  O34  1  0.67877400  0.26612900  0.99217800  1
  O  O35  1  0.17877400  0.73387100  0.00782200  1
  O  O36  1  0.94062600  0.10793900  0.24344900  1
  O  O37  1  0.44062600  0.89206100  0.75655100  1
  O  O38  1  0.76697400  0.08260600  0.21654400  1
  O  O39  1  0.26697400  0.91739400  0.78345600  1
  O  O40  1  0.59332700  0.10799700  0.23227600  1
  O  O41  1  0.09332700  0.89200300  0.76772400  1
loop_
_geom_bond_atom_site_label_1
_geom_bond_atom_site_label_2
_geom_bond_distance
_geom_bond_site_symmetry_2
K0 O40 2.844074 1_555
K0 O29 2.864273 1_555
K0 O31 2.866124 1_555
K0 O10 2.876879 1_555
K0 O20 2.949306 1_555
K0 O33 3.009478 1_554
K0 O14 3.069850 1_555
K0 O18 3.128521 1_555
K0 O12 3.182640 1_555
K1 O41 2.844074 1_655
K1 O28 2.864273 1_655
K1 O30 2.866124 1_555
K1 O11 2.876879 1_655
K1 O21 2.949306 1_555
K1 O32 3.009478 1_556
K1 O15 3.069850 1_555
K1 O19 3.128521 1_555
K1 O13 3.182640 1_555
K2 O36 2.834389 1_455
K2 O25 2.850200 1_455
K2 O16 2.949796 1_555
K2 O22 2.967145 1_555
K2 O35 3.005359 1_555
K2 O31 3.020885 1_555
K2 O9 3.040286 1_455
K2 O18 3.050996 1_555
K2 O1 3.158383 1_455
K2 O7 3.331300 1_555
K3 O37 2.834389 1_555
K3 O24 2.850200 1_555
K3 O17 2.949796 1_555
K3 O23 2.967145 1_555
K3 O34 3.005359 1_555
K3 O30 3.020885 1_555
K3 O8 3.040286 1_555
K3 O19 3.050996 1_555
K3 O0 3.158383 1_555
K3 O6 3.331300 1_555
K4 O23 2.795483 1_545
K4 O20 2.829970 1_556
K4 O40 2.834982 1_556
K4 O37 2.854521 1_545
K4 O33 2.930310 1_545
K4 O34 2.944926 1_555
K4 O24 2.957900 1_555
K4 O29 3.155066 1_546
K5 O22 2.795483 1_565
K5 O21 2.829970 1_454
K5 O41 2.834982 1_554
K5 O36 2.854521 1_465
K5 O32 2.930310 1_465
K5 O35 2.944926 1_555
K5 O25 2.957900 1_455
K5 O28 3.155066 1_564
Be0 O40 1.647656 1_565
Be0 O2 1.657397 1_565
Be0 O0 1.661092 1_555
Be0 O17 1.676009 1_555
Be1 O41 1.647656 1_545
Be1 O3 1.657397 1_545
Be1 O1 1.661092 1_455
Be1 O16 1.676009 1_555
Be2 O37 1.638432 1_545
Be2 O0 1.642226 1_545
Be2 O14 1.661174 1_555
Be2 O10 1.665396 1_555
Be3 O36 1.638432 1_565
Be3 O1 1.642226 1_565
Be3 O15 1.661174 1_555
Be3 O11 1.665396 1_655
Be4 O24 1.626349 1_555
Be4 O8 1.646981 1_555
Be4 O12 1.649156 1_555
Be4 O10 1.670347 1_555
Be5 O25 1.626349 1_555
Be5 O9 1.646981 1_555
Be5 O13 1.649156 1_555
Be5 O11 1.670347 1_655
Be6 O29 1.619753 1_555
Be6 O6 1.660709 1_555
Be6 O8 1.666187 1_555
Be6 O17 1.678883 1_555
Be7 O28 1.619753 1_555
Be7 O7 1.660709 1_555
Be7 O9 1.666187 1_455
Be7 O16 1.678883 1_555
Be8 O30 1.617323 1_555
Be8 O13 1.649644 1_555
Be8 O4 1.661248 1_555
Be8 O6 1.665176 1_555
Be9 O31 1.617323 1_555
Be9 O12 1.649644 1_555
Be9 O5 1.661248 1_555
Be9 O7 1.665176 1_555
Be10 O19 1.594296 1_545
Be10 O15 1.640139 1_545
Be10 O4 1.663104 1_555
Be10 O2 1.673721 1_555
Be11 O18 1.594296 1_565
Be11 O14 1.640139 1_565
Be11 O5 1.663104 1_555
Be11 O3 1.673721 1_555
B0 O2 1.377670 1_555
B0 O6 1.382357 1_555
B0 O10 1.390199 1_555
B1 O3 1.377670 1_555
B1 O7 1.382357 1_555
B1 O11 1.390199 1_555
B2 O12 1.381274 1_555
B2 O14 1.381465 1_555
B2 O16 1.392316 1_555
B3 O13 1.381274 1_555
B3 O15 1.381465 1_555
B3 O17 1.392316 1_555
B4 O5 1.376759 1_555
B4 O8 1.386338 1_555
B4 O0 1.388232 1_555
B5 O4 1.376759 1_555
B5 O9 1.386338 1_555
B5 O1 1.388232 1_555
B6 O24 1.337356 1_555
B6 O26 1.390473 1_555
B6 O20 1.420643 1_556
B7 O25 1.337356 1_555
B7 O27 1.390473 1_555
B7 O21 1.420643 1_554
B8 O18 1.314017 1_555
B8 O20 1.419778 1_555
B8 O22 1.420921 1_555
B9 O19 1.314017 1_555
B9 O21 1.419778 1_555
B9 O23 1.420921 1_555
B10 O28 1.336199 1_555
B10 O26 1.390642 1_555
B10 O22 1.418940 1_556
B11 O29 1.336199 1_555
B11 O27 1.390642 1_555
B11 O23 1.418940 1_554
B12 O30 1.322802 1_555
B12 O34 1.424090 1_555
B12 O32 1.424548 1_556
B13 O31 1.322802 1_555
B13 O35 1.424090 1_555
B13 O33 1.424548 1_554
B14 O40 1.338400 1_555
B14 O38 1.378292 1_555
B14 O34 1.415755 1_554
B15 O41 1.338400 1_555
B15 O39 1.378292 1_555
B15 O35 1.415755 1_556
B16 O36 1.337586 1_555
B16 O38 1.379682 1_555
B16 O32 1.417052 1_555
B17 O37 1.337586 1_555
B17 O39 1.379682 1_555
B17 O33 1.417052 1_555
