# generated using pymatgen
data_Na6Te(W3O23)2
_symmetry_space_group_name_H-M   'P 1'
_cell_length_a   9.50452800
_cell_length_b   9.77594829
_cell_length_c   11.23383522
_cell_angle_alpha   81.20178657
_cell_angle_beta   84.17504242
_cell_angle_gamma   69.68281417
_symmetry_Int_Tables_number   1
_chemical_formula_structural   Na6Te(W3O23)2
_chemical_formula_sum   'Na6 Te1 W6 O46'
_cell_volume   966.02308775
_cell_formula_units_Z   1
loop_
 _symmetry_equiv_pos_site_id
 _symmetry_equiv_pos_as_xyz
  1  'x, y, z'
loop_
 _atom_site_type_symbol
 _atom_site_label
 _atom_site_symmetry_multiplicity
 _atom_site_fract_x
 _atom_site_fract_y
 _atom_site_fract_z
 _atom_site_occupancy
  Na  Na0  1  0.14560500  0.57103700  0.91788300  1
  Na  Na1  1  0.85439500  0.42896300  0.08211700  1
  Na  Na2  1  0.30898900  0.05644800  0.20489300  1
  Na  Na3  1  0.69101100  0.94355200  0.79510700  1
  Na  Na4  1  0.70277900  0.46418300  0.42034500  1
  Na  Na5  1  0.29722100  0.53581700  0.57965500  1
  Te  Te0  1  0.00000000  0.00000000  0.00000000  1
  W  W0  1  0.02279900  0.81860600  0.28546700  1
  W  W1  1  0.97720100  0.18139400  0.71453300  1
  W  W2  1  0.30500400  0.71524400  0.07431800  1
  W  W3  1  0.69499600  0.28475600  0.92568200  1
  W  W4  1  0.28646500  0.89487800  0.78568800  1
  W  W5  1  0.71353500  0.10512200  0.21431200  1
  O  O0  1  0.04985800  0.79478500  0.07207200  1
  O  O1  1  0.95014200  0.20521500  0.92792800  1
  O  O2  1  0.97123400  0.04767000  0.16571700  1
  O  O3  1  0.02876600  0.95233000  0.83428300  1
  O  O4  1  0.22117900  0.95661400  0.98882300  1
  O  O5  1  0.77882100  0.04338600  0.01117700  1
  O  O6  1  0.80577500  0.89679000  0.26727800  1
  O  O7  1  0.19422500  0.10321000  0.73272200  1
  O  O8  1  0.23294900  0.80217600  0.22361900  1
  O  O9  1  0.76705100  0.19782400  0.77638100  1
  O  O10  1  0.04179500  0.63165600  0.32840000  1
  O  O11  1  0.95820500  0.36834400  0.67160000  1
  O  O12  1  0.03812100  0.88163500  0.41993500  1
  O  O13  1  0.96187900  0.11836500  0.58006500  1
  O  O14  1  0.49934300  0.70110800  0.08577000  1
  O  O15  1  0.50065700  0.29889200  0.91423000  1
  O  O16  1  0.29722100  0.53648000  0.11171800  1
  O  O17  1  0.70277900  0.46352000  0.88828200  1
  O  O18  1  0.47347400  0.89391400  0.78928200  1
  O  O19  1  0.52652600  0.10608600  0.21071800  1
  O  O20  1  0.29739100  0.71566000  0.90056800  1
  O  O21  1  0.70260900  0.28434000  0.09943200  1
  O  O22  1  0.28491300  0.81294300  0.65640900  1
  O  O23  1  0.71508700  0.18705700  0.34359100  1
  O  O24  1  0.01226200  0.23471200  0.35156300  1
  O  O25  1  0.98773800  0.76528800  0.64843700  1
  O  O26  1  0.30618500  0.15761900  0.98611400  1
  O  O27  1  0.69381500  0.84238100  0.01388600  1
  O  O28  1  0.45215700  0.63635700  0.44385900  1
  O  O29  1  0.54784300  0.36364300  0.55614100  1
  O  O30  1  0.04455600  0.62961300  0.65962200  1
  O  O31  1  0.95544400  0.37038700  0.34037800  1
  O  O32  1  0.86755200  0.67813800  0.91350600  1
  O  O33  1  0.13244800  0.32186200  0.08649400  1
  O  O34  1  0.80266900  0.72141500  0.01945800  1
  O  O35  1  0.19733100  0.27858500  0.98054200  1
  O  O36  1  0.58677100  0.23246900  0.61775100  1
  O  O37  1  0.41322900  0.76753100  0.38224900  1
  O  O38  1  0.71137800  0.72570900  0.60887200  1
  O  O39  1  0.28862200  0.27429100  0.39112800  1
  O  O40  1  0.35392300  0.45058900  0.79066000  1
  O  O41  1  0.64607700  0.54941100  0.20934000  1
  O  O42  1  0.33548800  0.37829600  0.38147200  1
  O  O43  1  0.66451200  0.62170400  0.61852800  1
  O  O44  1  0.48074300  0.19896600  0.68139800  1
  O  O45  1  0.51925700  0.80103400  0.31860200  1
loop_
_geom_bond_atom_site_label_1
_geom_bond_atom_site_label_2
_geom_bond_distance
_geom_bond_site_symmetry_2
Na0 O20 2.322352 1_555
Na0 O40 2.381343 1_555
Na0 O32 2.484345 1_455
Na0 O16 2.646903 1_556
Na0 O35 2.718377 1_555
Na0 O0 2.840722 1_556
Na0 O33 2.879086 1_556
Na0 O30 3.056646 1_555
Na1 O21 2.322352 1_555
Na1 O41 2.381343 1_555
Na1 O33 2.484345 1_655
Na1 O17 2.646903 1_554
Na1 O34 2.718377 1_555
Na1 O1 2.840722 1_554
Na1 O32 2.879086 1_554
Na1 O31 3.056646 1_555
Na2 O19 2.290979 1_555
Na2 O26 2.504141 1_554
Na2 O33 2.773234 1_555
Na2 O8 2.793254 1_545
Na2 O45 2.817354 1_545
Na3 O18 2.290979 1_555
Na3 O27 2.504141 1_556
Na3 O32 2.773234 1_555
Na3 O9 2.793254 1_565
Na3 O44 2.817354 1_565
Na4 O29 2.356310 1_555
Na4 O31 2.387417 1_555
Na4 O28 2.408526 1_555
Na4 O41 2.438591 1_555
Na4 O43 2.820597 1_555
Na4 O23 2.927590 1_555
Na5 O28 2.356310 1_555
Na5 O30 2.387417 1_555
Na5 O29 2.408526 1_555
Na5 O40 2.438591 1_555
Na5 O42 2.820597 1_555
Na5 O22 2.927590 1_555
O0 Te0 1.955918 1_565
O0 W2 2.276630 1_555
O0 W0 2.423055 1_555
O1 Te0 1.955918 1_656
O1 W3 2.276630 1_555
O1 W1 2.423055 1_555
O2 Te0 1.957351 1_655
O2 W5 2.340869 1_555
O2 W0 2.348318 1_645
O3 Te0 1.957351 1_566
O3 W4 2.340869 1_555
O3 W1 2.348318 1_465
O4 Te0 1.989586 1_566
O4 W2 2.298162 1_556
O4 W4 2.414657 1_555
O5 Te0 1.989586 1_655
O5 W3 2.298162 1_554
O5 W5 2.414657 1_555
O6 W5 1.940567 1_565
O6 W0 1.955419 1_655
O7 W4 1.940567 1_545
O7 W1 1.955419 1_455
O8 W2 1.950139 1_555
O8 W0 2.006916 1_555
O9 W3 1.950139 1_555
O9 W1 2.006916 1_555
O10 W0 1.767560 1_555
O11 W1 1.767560 1_555
O12 W0 1.753413 1_555
O13 W1 1.753413 1_555
O14 W2 1.820155 1_555
O15 W3 1.820155 1_555
O16 W2 1.759236 1_555
O17 W3 1.759236 1_555
O18 W4 1.778708 1_555
O19 W5 1.778708 1_555
O20 W2 1.959877 1_556
O20 W4 1.988732 1_555
O21 W3 1.959877 1_554
O21 W5 1.988732 1_555
O22 W4 1.766180 1_555
O23 W5 1.766180 1_555
O24 O31 1.237747 1_455
O25 O30 1.237747 1_655
O26 O35 1.270293 1_555
O27 O34 1.270293 1_555
O28 O37 1.308179 1_555
O29 O36 1.308179 1_555
O32 O34 1.341587 1_556
O33 O35 1.341587 1_554
O36 O44 1.282717 1_555
O37 O45 1.282717 1_555
O38 O43 1.230821 1_555
O39 O42 1.230821 1_555
