# generated using pymatgen
data_Ba8CuSi16
_symmetry_space_group_name_H-M   'P 1'
_cell_length_a   8.42489466
_cell_length_b   7.03655519
_cell_length_c   12.32113326
_cell_angle_alpha   93.63067685
_cell_angle_beta   86.20976613
_cell_angle_gamma   93.66467129
_symmetry_Int_Tables_number   1
_chemical_formula_structural   Ba8CuSi16
_chemical_formula_sum   'Ba8 Cu1 Si16'
_cell_volume   726.05427090
_cell_formula_units_Z   1
loop_
 _symmetry_equiv_pos_site_id
 _symmetry_equiv_pos_as_xyz
  1  'x, y, z'
loop_
 _atom_site_type_symbol
 _atom_site_label
 _atom_site_symmetry_multiplicity
 _atom_site_fract_x
 _atom_site_fract_y
 _atom_site_fract_z
 _atom_site_occupancy
  Ba  Ba0  1  0.99165500  0.23250000  0.70489200  1
  Ba  Ba1  1  0.49297300  0.72746700  0.20765700  1
  Ba  Ba2  1  0.99474900  0.74421000  0.29685600  1
  Ba  Ba3  1  0.46884100  0.33845600  0.78087100  1
  Ba  Ba4  1  0.81107400  0.23501900  0.07422900  1
  Ba  Ba5  1  0.67077300  0.77030800  0.58419700  1
  Ba  Ba6  1  0.20977200  0.73681300  0.92694400  1
  Ba  Ba7  1  0.31926000  0.27895100  0.42696200  1
  Cu  Cu0  1  0.03551200  0.25212600  0.26835000  1
  Si  Si0  1  0.42761300  0.24629000  0.07890400  1
  Si  Si1  1  0.06425800  0.76837500  0.57530700  1
  Si  Si2  1  0.60869400  0.75609100  0.92831600  1
  Si  Si3  1  0.92364400  0.28357100  0.43938100  1
  Si  Si4  1  0.18594700  0.22176100  0.97609600  1
  Si  Si5  1  0.32004500  0.77468600  0.46847300  1
  Si  Si6  1  0.83088100  0.73092800  0.04143900  1
  Si  Si7  1  0.66838900  0.25015600  0.52113200  1
  Si  Si8  1  0.19460200  0.06003900  0.14226400  1
  Si  Si9  1  0.30099900  0.94848500  0.64198400  1
  Si  Si10  1  0.81698500  0.54333000  0.86895200  1
  Si  Si11  1  0.70131500  0.40134300  0.35457300  1
  Si  Si12  1  0.89214900  0.87698300  0.86678100  1
  Si  Si13  1  0.67682600  0.03729000  0.82813500  1
  Si  Si14  1  0.19395000  0.42614100  0.13820500  1
  Si  Si15  1  0.28319500  0.60868000  0.63399800  1
loop_
_geom_bond_atom_site_label_1
_geom_bond_atom_site_label_2
_geom_bond_distance
_geom_bond_site_symmetry_2
Ba0 Si10 3.239379 1_555
Ba0 Si13 3.239411 1_555
Ba0 Si12 3.329012 1_545
Ba0 Si3 3.403310 1_555
Ba0 Si9 3.404339 1_645
Ba0 Si15 3.602862 1_655
Ba0 Si1 3.613164 1_645
Ba0 Si7 3.667860 1_555
Ba0 Si4 3.823865 1_655
Ba1 Si14 3.308606 1_555
Ba1 Si6 3.394998 1_555
Ba1 Si5 3.444928 1_555
Ba1 Si2 3.529321 1_554
Ba1 Si11 3.617290 1_555
Ba1 Si0 3.671587 1_555
Ba1 Si8 3.701757 1_565
Ba2 Si8 3.321995 1_665
Ba2 Si14 3.337528 1_655
Ba2 Si11 3.414721 1_555
Ba2 Cu0 3.494678 1_655
Ba2 Si1 3.510194 1_655
Ba2 Si6 3.512712 1_555
Ba2 Si5 3.558308 1_655
Ba2 Cu0 3.605656 1_665
Ba3 Si13 2.943857 1_555
Ba3 Si15 3.244489 1_555
Ba3 Si4 3.373808 1_555
Ba3 Si10 3.397222 1_555
Ba3 Si9 3.418611 1_545
Ba3 Si2 3.533959 1_555
Ba3 Si7 3.553106 1_555
Ba3 Si0 3.758960 1_556
Ba4 Cu0 3.137337 1_655
Ba4 Si0 3.233276 1_555
Ba4 Si4 3.311164 1_654
Ba4 Si10 3.430821 1_554
Ba4 Si13 3.482374 1_554
Ba4 Si6 3.530271 1_555
Ba4 Si14 3.533040 1_655
Ba4 Si12 3.538411 1_544
Ba4 Si6 3.557807 1_545
Ba4 Si11 3.655142 1_555
Ba4 Si8 3.695487 1_655
Ba5 Si1 3.310504 1_655
Ba5 Si5 3.367392 1_555
Ba5 Si15 3.417739 1_555
Ba5 Si13 3.443596 1_565
Ba5 Si9 3.446298 1_555
Ba5 Si7 3.513943 1_565
Ba5 Si7 3.692266 1_555
Ba5 Si11 3.724256 1_555
Ba6 Si12 3.061895 1_455
Ba6 Si2 3.356056 1_555
Ba6 Si8 3.384625 1_566
Ba6 Si6 3.402436 1_456
Ba6 Si4 3.443985 1_565
Ba6 Si14 3.494232 1_556
Ba6 Si10 3.595596 1_455
Ba6 Si15 3.686118 1_555
Ba6 Si4 3.702800 1_555
Ba6 Si9 3.910971 1_555
Ba7 Cu0 3.175342 1_555
Ba7 Si7 3.255174 1_555
Ba7 Si3 3.328560 1_455
Ba7 Si15 3.349731 1_555
Ba7 Si11 3.355753 1_555
Ba7 Si5 3.493019 1_555
Ba7 Si5 3.617358 1_545
Ba7 Si9 3.623585 1_545
Ba7 Si8 3.921270 1_555
Cu0 Si3 2.254539 1_455
Cu0 Si14 2.368364 1_555
Cu0 Si8 2.393146 1_555
Si0 Si8 2.403921 1_555
Si0 Si14 2.453969 1_555
Si0 Si4 2.459277 1_554
Si1 Si15 2.394184 1_555
Si1 Si5 2.449232 1_555
Si1 Si9 2.453741 1_555
Si2 Si6 2.428296 1_556
Si3 Si7 2.318077 1_555
Si4 Si8 2.411941 1_556
Si5 Si9 2.395906 1_555
Si10 Si12 2.393615 1_555
Si10 Si2 2.425532 1_555
Si10 Si6 2.435299 1_556
Si11 Si7 2.362989 1_555
Si11 Si3 2.419505 1_555
Si12 Si13 2.287752 1_565
Si12 Si6 2.453391 1_556
Si12 Si2 2.565932 1_555
Si13 Si2 2.416339 1_545
Si14 Si4 2.388274 1_554
Si14 Si8 2.580110 1_555
Si15 Si9 2.382360 1_555
Si15 Si5 2.406636 1_555
