# generated using pymatgen
data_U(GeIr)2
_symmetry_space_group_name_H-M   'P 1'
_cell_length_a   4.20461600
_cell_length_b   4.20461600
_cell_length_c   10.17376900
_cell_angle_alpha   90.00000000
_cell_angle_beta   90.00000000
_cell_angle_gamma   90.00000000
_symmetry_Int_Tables_number   1
_chemical_formula_structural   U(GeIr)2
_chemical_formula_sum   'U2 Ge4 Ir4'
_cell_volume   179.85998373
_cell_formula_units_Z   2
loop_
 _symmetry_equiv_pos_site_id
 _symmetry_equiv_pos_as_xyz
  1  'x, y, z'
loop_
 _atom_site_type_symbol
 _atom_site_label
 _atom_site_symmetry_multiplicity
 _atom_site_fract_x
 _atom_site_fract_y
 _atom_site_fract_z
 _atom_site_occupancy
  U  U0  1  0.00000000  0.50000000  0.25709100  1
  U  U1  1  0.50000000  0.00000000  0.74290900  1
  Ge  Ge0  1  0.00000000  0.00000000  0.50000000  1
  Ge  Ge1  1  0.50000000  0.50000000  0.50000000  1
  Ge  Ge2  1  0.00000000  0.50000000  0.86740700  1
  Ge  Ge3  1  0.50000000  0.00000000  0.13259300  1
  Ir  Ir0  1  0.00000000  0.00000000  0.00000000  1
  Ir  Ir1  1  0.50000000  0.50000000  0.00000000  1
  Ir  Ir2  1  0.00000000  0.50000000  0.63119300  1
  Ir  Ir3  1  0.50000000  0.00000000  0.36880700  1
loop_
_geom_bond_atom_site_label_1
_geom_bond_atom_site_label_2
_geom_bond_distance
_geom_bond_site_symmetry_2
Ge0 Ir2 2.490220 1_555
Ge0 Ir2 2.490220 1_545
Ge0 Ir3 2.490220 1_555
Ge0 Ir3 2.490220 1_455
Ge0 U0 3.244537 1_545
Ge0 U0 3.244537 1_555
Ge0 U1 3.244537 1_455
Ge0 U1 3.244537 1_555
Ge1 Ir2 2.490220 1_555
Ge1 Ir3 2.490220 1_565
Ge1 Ir2 2.490220 1_655
Ge1 Ir3 2.490220 1_555
Ge1 U0 3.244537 1_555
Ge1 U1 3.244537 1_555
Ge1 U0 3.244537 1_655
Ge1 U1 3.244537 1_565
Ge2 Ir2 2.403187 1_555
Ge2 Ir0 2.497883 1_556
Ge2 Ir0 2.497883 1_566
Ge2 Ir1 2.497883 1_456
Ge2 Ir1 2.497883 1_556
Ge2 U1 3.231673 1_565
Ge2 U1 3.231673 1_465
Ge2 U1 3.231673 1_555
Ge2 U1 3.231673 1_455
Ge3 Ir3 2.403187 1_555
Ge3 Ir1 2.497883 1_545
Ge3 Ir1 2.497883 1_555
Ge3 Ir0 2.497883 1_655
Ge3 Ir0 2.497883 1_555
Ge3 U0 3.231673 1_545
Ge3 U0 3.231673 1_555
Ge3 U0 3.231673 1_655
Ge3 U0 3.231673 1_645
Ir0 U1 3.355739 1_454
Ir0 U1 3.355739 1_554
Ir0 U0 3.355739 1_545
Ir0 U0 3.355739 1_555
Ir1 U1 3.355739 1_564
Ir1 U1 3.355739 1_554
Ir1 U0 3.355739 1_555
Ir1 U0 3.355739 1_655
Ir2 U1 3.182954 1_465
Ir2 U1 3.182954 1_455
Ir2 U1 3.182954 1_555
Ir2 U1 3.182954 1_565
Ir3 U0 3.182954 1_655
Ir3 U0 3.182954 1_555
Ir3 U0 3.182954 1_645
Ir3 U0 3.182954 1_545
