# generated using pymatgen
data_RbVCuF6
_symmetry_space_group_name_H-M   'P 1'
_cell_length_a   6.97103000
_cell_length_b   7.66737300
_cell_length_c   10.45175700
_cell_angle_alpha   90.00000000
_cell_angle_beta   90.00000000
_cell_angle_gamma   90.00000000
_symmetry_Int_Tables_number   1
_chemical_formula_structural   RbVCuF6
_chemical_formula_sum   'Rb4 V4 Cu4 F24'
_cell_volume   558.64105203
_cell_formula_units_Z   4
loop_
 _symmetry_equiv_pos_site_id
 _symmetry_equiv_pos_as_xyz
  1  'x, y, z'
loop_
 _atom_site_type_symbol
 _atom_site_label
 _atom_site_symmetry_multiplicity
 _atom_site_fract_x
 _atom_site_fract_y
 _atom_site_fract_z
 _atom_site_occupancy
  Rb  Rb0  1  0.01048100  0.25000000  0.62433100  1
  Rb  Rb1  1  0.98951900  0.75000000  0.37566900  1
  Rb  Rb2  1  0.48951900  0.75000000  0.12433100  1
  Rb  Rb3  1  0.51048100  0.25000000  0.87566900  1
  V  V0  1  0.00000000  0.00000000  0.00000000  1
  V  V1  1  0.50000000  0.00000000  0.50000000  1
  V  V2  1  0.00000000  0.50000000  0.00000000  1
  V  V3  1  0.50000000  0.50000000  0.50000000  1
  Cu  Cu0  1  0.20938000  0.25000000  0.25631400  1
  Cu  Cu1  1  0.79062000  0.75000000  0.74368600  1
  Cu  Cu2  1  0.29062000  0.75000000  0.75631400  1
  Cu  Cu3  1  0.70938000  0.25000000  0.24368600  1
  F  F0  1  0.26973600  0.05021100  0.40327500  1
  F  F1  1  0.73026400  0.94978900  0.59672500  1
  F  F2  1  0.23026400  0.94978900  0.90327500  1
  F  F3  1  0.73026400  0.55021100  0.59672500  1
  F  F4  1  0.76973600  0.05021100  0.09672500  1
  F  F5  1  0.26973600  0.44978900  0.40327500  1
  F  F6  1  0.76973600  0.44978900  0.09672500  1
  F  F7  1  0.23026400  0.55021100  0.90327500  1
  F  F8  1  0.57044200  0.25000000  0.51455700  1
  F  F9  1  0.42955800  0.75000000  0.48544300  1
  F  F10  1  0.92955800  0.75000000  0.01455700  1
  F  F11  1  0.07044200  0.25000000  0.98544300  1
  F  F12  1  0.14797400  0.50892500  0.15610200  1
  F  F13  1  0.85202600  0.49107500  0.84389800  1
  F  F14  1  0.35202600  0.49107500  0.65610200  1
  F  F15  1  0.85202600  0.00892500  0.84389800  1
  F  F16  1  0.64797400  0.50892500  0.34389800  1
  F  F17  1  0.14797400  0.99107500  0.15610200  1
  F  F18  1  0.64797400  0.99107500  0.34389800  1
  F  F19  1  0.35202600  0.00892500  0.65610200  1
  F  F20  1  0.45379800  0.25000000  0.17539000  1
  F  F21  1  0.54620200  0.75000000  0.82461000  1
  F  F22  1  0.04620200  0.75000000  0.67539000  1
  F  F23  1  0.95379800  0.25000000  0.32461000  1
loop_
_geom_bond_atom_site_label_1
_geom_bond_atom_site_label_2
_geom_bond_distance
_geom_bond_site_symmetry_2
Cu0 F20 1.902226 1_555
Cu0 F23 1.919343 1_455
Cu0 F0 2.209730 1_555
Cu0 F5 2.209730 1_555
Cu0 F17 2.285078 1_545
Cu0 F12 2.285078 1_555
Cu1 F21 1.902226 1_555
Cu1 F22 1.919343 1_655
Cu1 F3 2.209730 1_555
Cu1 F1 2.209730 1_555
Cu1 F13 2.285078 1_555
Cu1 F15 2.285078 1_565
Cu2 F22 1.902226 1_555
Cu2 F21 1.919343 1_555
Cu2 F7 2.209730 1_555
Cu2 F2 2.209730 1_555
Cu2 F14 2.285078 1_555
Cu2 F19 2.285078 1_565
Cu3 F23 1.902226 1_555
Cu3 F20 1.919343 1_555
Cu3 F6 2.209730 1_555
Cu3 F4 2.209730 1_555
Cu3 F18 2.285078 1_545
Cu3 F16 2.285078 1_555
F0 V1 1.935671 1_555
F0 Rb1 3.032729 1_445
F0 Rb0 3.309212 1_555
F1 V1 1.935671 1_565
F1 Rb0 3.032729 1_665
F1 Rb1 3.309212 1_555
F2 V0 1.935671 1_566
F2 Rb3 3.032729 1_565
F2 Rb2 3.309212 1_556
F3 V3 1.935671 1_555
F3 Rb0 3.032729 1_655
F3 Rb1 3.309212 1_555
F4 V0 1.935671 1_655
F4 Rb2 3.032729 1_545
F4 Rb3 3.309212 1_554
F5 V3 1.935671 1_555
F5 Rb1 3.032729 1_455
F5 Rb0 3.309212 1_555
F6 V2 1.935671 1_655
F6 Rb2 3.032729 1_555
F6 Rb3 3.309212 1_554
F7 V2 1.935671 1_556
F7 Rb3 3.032729 1_555
F7 Rb2 3.309212 1_556
F8 V3 1.984583 1_555
F8 V1 1.984583 1_555
F8 Rb0 3.275069 1_655
F9 V1 1.984583 1_565
F9 V3 1.984583 1_555
F9 Rb1 3.275069 1_455
F10 V0 1.984583 1_665
F10 V2 1.984583 1_655
F10 Rb2 3.275069 1_555
F11 V0 1.984583 1_556
F11 V2 1.984583 1_556
F11 Rb3 3.275069 1_555
F12 V2 1.931492 1_555
F12 Rb2 3.032437 1_555
F12 Rb1 3.146926 1_455
F13 V2 1.931492 1_656
F13 Rb3 3.032437 1_555
F13 Rb0 3.146926 1_655
F14 V3 1.931492 1_555
F14 Rb0 3.032437 1_555
F14 Rb3 3.146926 1_555
F15 V0 1.931492 1_656
F15 Rb3 3.032437 1_555
F15 Rb0 3.146926 1_655
F16 V3 1.931492 1_555
F16 Rb1 3.032437 1_555
F16 Rb2 3.146926 1_555
F17 V0 1.931492 1_565
F17 Rb2 3.032437 1_555
F17 Rb1 3.146926 1_455
F18 V1 1.931492 1_565
F18 Rb1 3.032437 1_555
F18 Rb2 3.146926 1_555
F19 V1 1.931492 1_555
F19 Rb0 3.032437 1_555
F19 Rb3 3.146926 1_555
F20 Rb3 3.157434 1_554
F21 Rb2 3.157434 1_556
F22 Rb1 3.157434 1_455
F23 Rb0 3.157434 1_655
