# generated using pymatgen
data_Rb2ZrO3
_symmetry_space_group_name_H-M   'P 1'
_cell_length_a   5.90051502
_cell_length_b   7.36606275
_cell_length_c   10.79378477
_cell_angle_alpha   90.00000000
_cell_angle_beta   90.00000000
_cell_angle_gamma   90.00000000
_symmetry_Int_Tables_number   1
_chemical_formula_structural   Rb2ZrO3
_chemical_formula_sum   'Rb8 Zr4 O12'
_cell_volume   469.13635402
_cell_formula_units_Z   4
loop_
 _symmetry_equiv_pos_site_id
 _symmetry_equiv_pos_as_xyz
  1  'x, y, z'
loop_
 _atom_site_type_symbol
 _atom_site_label
 _atom_site_symmetry_multiplicity
 _atom_site_fract_x
 _atom_site_fract_y
 _atom_site_fract_z
 _atom_site_occupancy
  Rb  Rb0  1  0.24242561  0.60829834  0.08701575  1
  Rb  Rb1  1  0.24242561  0.60829834  0.41298425  1
  Rb  Rb2  1  0.25757439  0.10829834  0.58701575  1
  Rb  Rb3  1  0.25757439  0.10829834  0.91298425  1
  Rb  Rb4  1  0.74242561  0.89170166  0.08701575  1
  Rb  Rb5  1  0.74242561  0.89170166  0.41298425  1
  Rb  Rb6  1  0.75757439  0.39170166  0.58701575  1
  Rb  Rb7  1  0.75757439  0.39170166  0.91298425  1
  Zr  Zr0  1  0.23459207  0.66220577  0.75000000  1
  Zr  Zr1  1  0.26540793  0.16220577  0.25000000  1
  Zr  Zr2  1  0.73459207  0.83779423  0.75000000  1
  Zr  Zr3  1  0.76540793  0.33779423  0.25000000  1
  O  O0  1  0.00916230  0.24071480  0.12578869  1
  O  O1  1  0.00916230  0.24071480  0.37421131  1
  O  O2  1  0.20337803  0.40356697  0.75000000  1
  O  O3  1  0.29662197  0.90356697  0.25000000  1
  O  O4  1  0.49083770  0.74071480  0.87421131  1
  O  O5  1  0.49083770  0.74071480  0.62578869  1
  O  O6  1  0.50916230  0.25928520  0.12578869  1
  O  O7  1  0.50916230  0.25928520  0.37421131  1
  O  O8  1  0.70337803  0.09643303  0.75000000  1
  O  O9  1  0.79662197  0.59643303  0.25000000  1
  O  O10  1  0.99083770  0.75928520  0.62578869  1
  O  O11  1  0.99083770  0.75928520  0.87421131  1
loop_
_geom_bond_atom_site_label_1
_geom_bond_atom_site_label_2
_geom_bond_distance
_geom_bond_site_symmetry_2
O0 Zr3 2.092248 1_455
O0 Zr1 2.101910 1_555
O0 Rb3 2.894112 1_554
O0 Rb7 2.952410 1_454
O0 Rb4 3.043278 1_445
O0 Rb0 3.066086 1_555
O1 Zr3 2.092248 1_455
O1 Zr1 2.101910 1_555
O1 Rb2 2.894112 1_555
O1 Rb6 2.952410 1_455
O1 Rb5 3.043278 1_445
O1 Rb1 3.066086 1_555
O2 Zr0 1.914032 1_555
O2 Rb2 2.815598 1_555
O2 Rb3 2.815598 1_555
O2 Rb7 3.165732 1_455
O2 Rb6 3.165732 1_455
O3 Zr1 1.914032 1_565
O3 Rb0 2.815598 1_555
O3 Rb1 2.815598 1_555
O3 Rb5 3.165732 1_555
O3 Rb4 3.165732 1_555
O4 Zr2 2.092248 1_555
O4 Zr0 2.101910 1_555
O4 Rb0 2.894112 1_556
O4 Rb4 2.952410 1_556
O4 Rb7 3.043278 1_555
O4 Rb3 3.066086 1_565
O5 Zr2 2.092248 1_555
O5 Zr0 2.101910 1_555
O5 Rb1 2.894112 1_555
O5 Rb5 2.952410 1_555
O5 Rb6 3.043278 1_555
O5 Rb2 3.066086 1_565
O6 Zr1 2.092248 1_555
O6 Zr3 2.101910 1_555
O6 Rb7 2.894112 1_554
O6 Rb3 2.952410 1_554
O6 Rb0 3.043278 1_555
O6 Rb4 3.066086 1_545
O7 Zr1 2.092248 1_555
O7 Zr3 2.101910 1_555
O7 Rb6 2.894112 1_555
O7 Rb2 2.952410 1_555
O7 Rb1 3.043278 1_555
O7 Rb5 3.066086 1_545
O8 Zr2 1.914032 1_545
O8 Rb6 2.815598 1_555
O8 Rb7 2.815598 1_555
O8 Rb2 3.165732 1_555
O8 Rb3 3.165732 1_555
O9 Zr3 1.914032 1_555
O9 Rb4 2.815598 1_555
O9 Rb5 2.815598 1_555
O9 Rb1 3.165732 1_655
O9 Rb0 3.165732 1_655
O10 Zr0 2.092248 1_655
O10 Zr2 2.101910 1_555
O10 Rb5 2.894112 1_555
O10 Rb1 2.952410 1_655
O10 Rb2 3.043278 1_665
O10 Rb6 3.066086 1_555
O11 Zr0 2.092248 1_655
O11 Zr2 2.101910 1_555
O11 Rb4 2.894112 1_556
O11 Rb0 2.952410 1_656
O11 Rb3 3.043278 1_665
O11 Rb7 3.066086 1_555
