# generated using pymatgen
data_NdDy(NiO3)4
_symmetry_space_group_name_H-M   'P 1'
_cell_length_a   5.27455227
_cell_length_b   5.27455227
_cell_length_c   7.65059061
_cell_angle_alpha   90.00000000
_cell_angle_beta   90.00000000
_cell_angle_gamma   92.96734627
_symmetry_Int_Tables_number   1
_chemical_formula_structural   NdDy(NiO3)4
_chemical_formula_sum   'Nd1 Dy1 Ni4 O12'
_cell_volume   212.56094483
_cell_formula_units_Z   1
loop_
 _symmetry_equiv_pos_site_id
 _symmetry_equiv_pos_as_xyz
  1  'x, y, z'
loop_
 _atom_site_type_symbol
 _atom_site_label
 _atom_site_symmetry_multiplicity
 _atom_site_fract_x
 _atom_site_fract_y
 _atom_site_fract_z
 _atom_site_occupancy
  Nd  Nd0  1  0.97272831  0.02727169  -0.00000000  1
  Dy  Dy0  1  0.52198410  0.47801590  0.50000000  1
  Ni  Ni0  1  0.49924849  0.99428625  0.25510825  1
  Ni  Ni1  1  0.49924849  0.99428625  0.74489175  1
  Ni  Ni2  1  0.00571375  0.50075151  0.74489175  1
  Ni  Ni3  1  0.00571375  0.50075151  0.25510825  1
  O  O0  1  0.21309566  0.21087654  0.25069057  1
  O  O1  1  0.78912346  0.78690434  0.25069057  1
  O  O2  1  0.78912346  0.78690434  0.74930943  1
  O  O3  1  0.21309566  0.21087654  0.74930943  1
  O  O4  1  0.30027371  0.69972629  0.30332681  1
  O  O5  1  0.70920915  0.29079085  0.20469595  1
  O  O6  1  0.70920915  0.29079085  0.79530405  1
  O  O7  1  0.30027371  0.69972629  0.69667319  1
  O  O8  1  0.44570921  0.96254504  -0.00000000  1
  O  O9  1  0.54060610  0.05791115  0.50000000  1
  O  O10  1  0.03745496  0.55429079  -0.00000000  1
  O  O11  1  0.94208885  0.45939390  0.50000000  1
loop_
_geom_bond_atom_site_label_1
_geom_bond_atom_site_label_2
_geom_bond_distance
_geom_bond_site_symmetry_2
Nd0 O2 2.469129 1_544
Nd0 O3 2.469129 1_654
Nd0 O1 2.469129 1_545
Nd0 O0 2.469129 1_655
Nd0 O8 2.535464 1_645
Nd0 O10 2.535464 1_645
Nd0 O5 2.552727 1_555
Nd0 O6 2.552727 1_554
Nd0 O8 2.783079 1_545
Nd0 O10 2.783079 1_655
Dy0 O11 2.223114 1_555
Dy0 O9 2.223114 1_555
Dy0 O7 2.267313 1_555
Dy0 O4 2.267313 1_555
Dy0 O6 2.674996 1_555
Dy0 O5 2.674996 1_555
Ni0 O4 1.866178 1_555
Ni0 O5 1.908337 1_565
Ni0 O9 1.913865 1_565
Ni0 O1 1.925751 1_555
Ni0 O0 1.939807 1_565
Ni0 O8 1.977910 1_555
Ni1 O7 1.866178 1_555
Ni1 O6 1.908337 1_565
Ni1 O9 1.913865 1_565
Ni1 O2 1.925751 1_555
Ni1 O3 1.939807 1_565
Ni1 O8 1.977910 1_556
Ni2 O7 1.866178 1_555
Ni2 O6 1.908337 1_455
Ni2 O11 1.913865 1_455
Ni2 O3 1.925751 1_555
Ni2 O2 1.939807 1_455
Ni2 O10 1.977910 1_556
Ni3 O4 1.866178 1_555
Ni3 O5 1.908337 1_455
Ni3 O11 1.913865 1_455
Ni3 O0 1.925751 1_555
Ni3 O1 1.939807 1_455
Ni3 O10 1.977910 1_555
