# generated using pymatgen
data_Yb3Zr
_symmetry_space_group_name_H-M   'P 1'
_cell_length_a   7.28434491
_cell_length_b   7.28434491
_cell_length_c   5.80487700
_cell_angle_alpha   90.00000000
_cell_angle_beta   90.00000000
_cell_angle_gamma   120.00000823
_symmetry_Int_Tables_number   1
_chemical_formula_structural   Yb3Zr
_chemical_formula_sum   'Yb6 Zr2'
_cell_volume   266.75011759
_cell_formula_units_Z   2
loop_
 _symmetry_equiv_pos_site_id
 _symmetry_equiv_pos_as_xyz
  1  'x, y, z'
loop_
 _atom_site_type_symbol
 _atom_site_label
 _atom_site_symmetry_multiplicity
 _atom_site_fract_x
 _atom_site_fract_y
 _atom_site_fract_z
 _atom_site_occupancy
  Yb  Yb0  1  0.17392300  0.34784500  0.25000000  1
  Yb  Yb1  1  0.65215500  0.82607700  0.25000000  1
  Yb  Yb2  1  0.17392300  0.82607700  0.25000000  1
  Yb  Yb3  1  0.82607700  0.65215500  0.75000000  1
  Yb  Yb4  1  0.34784500  0.17392300  0.75000000  1
  Yb  Yb5  1  0.82607700  0.17392300  0.75000000  1
  Zr  Zr0  1  0.33333300  0.66666700  0.75000000  1
  Zr  Zr1  1  0.66666700  0.33333300  0.25000000  1
loop_
_geom_bond_atom_site_label_1
_geom_bond_atom_site_label_2
_geom_bond_distance
_geom_bond_site_symmetry_2
Yb0 Yb1 3.483606 1_555
Yb0 Yb2 3.483607 1_555
Yb0 Zr0 3.531195 1_555
Yb0 Zr0 3.531195 1_554
Yb0 Yb4 3.638587 1_555
Yb0 Yb4 3.638587 1_554
Yb0 Yb5 3.638595 1_454
Yb0 Yb5 3.638595 1_455
Yb0 Zr1 3.643323 1_455
Yb0 Zr1 3.643323 1_555
Yb0 Yb1 3.800738 1_445
Yb0 Yb2 3.800738 1_545
Yb1 Yb2 3.483607 1_555
Yb1 Zr0 3.531195 1_554
Yb1 Zr0 3.531195 1_555
Yb1 Yb3 3.638587 1_554
Yb1 Yb3 3.638587 1_555
Yb1 Yb5 3.638595 1_565
Yb1 Yb5 3.638595 1_564
Yb1 Zr1 3.643323 1_565
Yb1 Zr1 3.643323 1_555
Yb1 Yb2 3.800738 1_655
Yb2 Zr0 3.531188 1_554
Yb2 Zr0 3.531188 1_555
Yb2 Yb4 3.638595 1_564
Yb2 Yb3 3.638595 1_455
Yb2 Yb4 3.638595 1_565
Yb2 Yb3 3.638595 1_454
Yb2 Zr1 3.643322 1_455
Yb2 Zr1 3.643322 1_565
Yb3 Yb4 3.483606 1_555
Yb3 Yb5 3.483607 1_555
Yb3 Zr1 3.531195 1_555
Yb3 Zr1 3.531195 1_556
Yb3 Zr0 3.643323 1_655
Yb3 Zr0 3.643323 1_555
Yb3 Yb4 3.800738 1_665
Yb3 Yb5 3.800738 1_565
Yb4 Yb5 3.483607 1_555
Yb4 Zr1 3.531195 1_555
Yb4 Zr1 3.531195 1_556
Yb4 Zr0 3.643323 1_545
Yb4 Zr0 3.643323 1_555
Yb4 Yb5 3.800738 1_455
Yb5 Zr1 3.531188 1_555
Yb5 Zr1 3.531188 1_556
Yb5 Zr0 3.643322 1_545
Yb5 Zr0 3.643322 1_655
