# generated using pymatgen
data_Mn2InCuTe4
_symmetry_space_group_name_H-M   'P 1'
_cell_length_a   7.15561124
_cell_length_b   7.15561124
_cell_length_c   7.15561124
_cell_angle_alpha   131.69466579
_cell_angle_beta   131.69466579
_cell_angle_gamma   70.71169867
_symmetry_Int_Tables_number   1
_chemical_formula_structural   Mn2InCuTe4
_chemical_formula_sum   'Mn2 In1 Cu1 Te4'
_cell_volume   200.11045906
_cell_formula_units_Z   1
loop_
 _symmetry_equiv_pos_site_id
 _symmetry_equiv_pos_as_xyz
  1  'x, y, z'
loop_
 _atom_site_type_symbol
 _atom_site_label
 _atom_site_symmetry_multiplicity
 _atom_site_fract_x
 _atom_site_fract_y
 _atom_site_fract_z
 _atom_site_occupancy
  Mn  Mn0  1  0.25000000  0.75000000  0.50000000  1
  Mn  Mn1  1  0.75000000  0.25000000  0.50000000  1
  In  In0  1  0.50000000  0.50000000  0.00000000  1
  Cu  Cu0  1  0.00000000  0.00000000  0.00000000  1
  Te  Te0  1  0.00000000  0.50000000  0.50000000  1
  Te  Te1  1  0.23472100  0.23472100  0.00000000  1
  Te  Te2  1  0.50000000  0.00000000  0.50000000  1
  Te  Te3  1  0.76527900  0.76527900  0.00000000  1
loop_
_geom_bond_atom_site_label_1
_geom_bond_atom_site_label_2
_geom_bond_distance
_geom_bond_site_symmetry_2
Mn0 Te0 2.917965 1_555
Mn0 Te2 2.917965 1_565
Mn0 Te1 2.933283 1_566
Mn0 Te3 2.933283 1_455
Mn0 Te3 2.933283 1_556
Mn0 Te1 2.933283 1_555
Mn1 Te0 2.917965 1_655
Mn1 Te2 2.917965 1_555
Mn1 Te1 2.933283 1_656
Mn1 Te3 2.933283 1_556
Mn1 Te3 2.933283 1_545
Mn1 Te1 2.933283 1_555
In0 Te0 2.927857 1_554
In0 Te2 2.927857 1_554
In0 Te2 2.927857 1_565
In0 Te0 2.927857 1_655
In0 Te1 3.096299 1_555
In0 Te3 3.096299 1_555
Cu0 Te3 2.739631 1_445
Cu0 Te1 2.739631 1_555
Cu0 Te2 2.927857 1_555
Cu0 Te2 2.927857 1_454
Cu0 Te0 2.927857 1_544
Cu0 Te0 2.927857 1_555
