# generated using pymatgen
data_Er5(In2Pd)2
_symmetry_space_group_name_H-M   'P 1'
_cell_length_a   3.60442900
_cell_length_b   8.09625900
_cell_length_c   18.21083500
_cell_angle_alpha   90.00000000
_cell_angle_beta   90.00000000
_cell_angle_gamma   90.00000000
_symmetry_Int_Tables_number   1
_chemical_formula_structural   Er5(In2Pd)2
_chemical_formula_sum   'Er10 In8 Pd4'
_cell_volume   531.43570251
_cell_formula_units_Z   2
loop_
 _symmetry_equiv_pos_site_id
 _symmetry_equiv_pos_as_xyz
  1  'x, y, z'
loop_
 _atom_site_type_symbol
 _atom_site_label
 _atom_site_symmetry_multiplicity
 _atom_site_fract_x
 _atom_site_fract_y
 _atom_site_fract_z
 _atom_site_occupancy
  Er  Er0  1  0.00000000  0.50000000  0.50000000  1
  Er  Er1  1  0.00000000  0.00000000  0.00000000  1
  Er  Er2  1  0.00000000  0.73993000  0.27992300  1
  Er  Er3  1  0.00000000  0.26007000  0.72007700  1
  Er  Er4  1  0.00000000  0.76007000  0.77992300  1
  Er  Er5  1  0.00000000  0.23993000  0.22007700  1
  Er  Er6  1  0.00000000  0.61184100  0.08220500  1
  Er  Er7  1  0.00000000  0.38815900  0.91779500  1
  Er  Er8  1  0.00000000  0.88815900  0.58220500  1
  Er  Er9  1  0.00000000  0.11184100  0.41779500  1
  In  In0  1  0.50000000  0.71422800  0.93074200  1
  In  In1  1  0.50000000  0.28577200  0.06925800  1
  In  In2  1  0.50000000  0.78577200  0.43074200  1
  In  In3  1  0.50000000  0.21422800  0.56925800  1
  In  In4  1  0.50000000  0.58223100  0.64888500  1
  In  In5  1  0.50000000  0.41776900  0.35111500  1
  In  In6  1  0.50000000  0.91776900  0.14888500  1
  In  In7  1  0.50000000  0.08223100  0.85111500  1
  Pd  Pd0  1  0.50000000  0.52454300  0.19615200  1
  Pd  Pd1  1  0.50000000  0.47545700  0.80384800  1
  Pd  Pd2  1  0.50000000  0.97545700  0.69615200  1
  Pd  Pd3  1  0.50000000  0.02454300  0.30384800  1
loop_
_geom_bond_atom_site_label_1
_geom_bond_atom_site_label_2
_geom_bond_distance
_geom_bond_site_symmetry_2
Er0 In2 3.192468 1_455
Er0 In2 3.192468 1_555
Er0 In3 3.192468 1_555
Er0 In3 3.192468 1_455
Er0 In5 3.323022 1_555
Er0 In5 3.323022 1_455
Er0 In4 3.323022 1_555
Er0 In4 3.323022 1_455
Er1 In1 3.192468 1_555
Er1 In0 3.192468 1_544
Er1 In0 3.192468 1_444
Er1 In1 3.192468 1_455
Er1 In6 3.323022 1_445
Er1 In6 3.323022 1_545
Er1 In7 3.323022 1_554
Er1 In7 3.323022 1_454
Er2 Pd0 2.935334 1_455
Er2 Pd0 2.935334 1_555
Er2 Pd3 2.957635 1_465
Er2 Pd3 2.957635 1_565
Er2 In2 3.305936 1_455
Er2 In2 3.305936 1_555
Er2 In6 3.318971 1_455
Er2 In6 3.318971 1_555
Er2 In5 3.425204 1_555
Er2 In5 3.425204 1_455
Er3 Pd1 2.935334 1_455
Er3 Pd1 2.935334 1_555
Er3 Pd2 2.957635 1_445
Er3 Pd2 2.957635 1_545
Er3 In3 3.305936 1_455
Er3 In3 3.305936 1_555
Er3 In7 3.318971 1_455
Er3 In7 3.318971 1_555
Er3 In4 3.425204 1_455
Er3 In4 3.425204 1_555
Er4 Pd2 2.935334 1_455
Er4 Pd2 2.935334 1_555
Er4 Pd1 2.957635 1_455
Er4 Pd1 2.957635 1_555
Er4 In0 3.305936 1_455
Er4 In0 3.305936 1_555
Er4 In4 3.318971 1_455
Er4 In4 3.318971 1_555
Er4 In7 3.425204 1_465
Er4 In7 3.425204 1_565
Er5 Pd3 2.935334 1_555
Er5 Pd3 2.935334 1_455
Er5 Pd0 2.957635 1_455
Er5 Pd0 2.957635 1_555
Er5 In1 3.305936 1_455
Er5 In1 3.305936 1_555
Er5 In5 3.318971 1_455
Er5 In5 3.318971 1_555
Er5 In6 3.425204 1_545
Er5 In6 3.425204 1_445
Er6 Pd0 2.837858 1_455
Er6 Pd0 2.837858 1_555
Er6 In1 3.205128 1_555
Er6 In1 3.205128 1_455
Er6 In6 3.295056 1_455
Er6 In6 3.295056 1_555
Er6 In0 3.397525 1_554
Er6 In0 3.397525 1_454
Er7 Pd1 2.837858 1_455
Er7 Pd1 2.837858 1_555
Er7 In0 3.205128 1_555
Er7 In0 3.205128 1_455
Er7 In7 3.295056 1_455
Er7 In7 3.295056 1_555
Er7 In1 3.397525 1_456
Er7 In1 3.397525 1_556
Er8 Pd2 2.837858 1_555
Er8 Pd2 2.837858 1_455
Er8 In3 3.205128 1_465
Er8 In3 3.205128 1_565
Er8 In4 3.295056 1_455
Er8 In4 3.295056 1_555
Er8 In2 3.397525 1_455
Er8 In2 3.397525 1_555
Er9 Pd3 2.837858 1_455
Er9 Pd3 2.837858 1_555
Er9 In2 3.205128 1_445
Er9 In2 3.205128 1_545
Er9 In5 3.295056 1_555
Er9 In5 3.295056 1_455
Er9 In3 3.397525 1_455
Er9 In3 3.397525 1_555
In0 Pd1 3.012820 1_555
In0 In7 3.313582 1_565
In1 Pd0 3.012820 1_555
In1 In6 3.313582 1_545
In2 Pd3 3.012820 1_565
In2 In5 3.313582 1_555
In3 Pd2 3.012820 1_545
In3 In4 3.313582 1_555
In4 Pd1 2.951444 1_555
In4 Pd2 3.297971 1_555
In5 Pd0 2.951444 1_555
In5 Pd3 3.297971 1_555
In6 Pd3 2.951444 1_565
In6 Pd0 3.297971 1_555
In7 Pd2 2.951444 1_545
In7 Pd1 3.297971 1_555
