# generated using pymatgen
data_BaPrDySnO6
_symmetry_space_group_name_H-M   'P 1'
_cell_length_a   6.00817160
_cell_length_b   6.00817160
_cell_length_c   6.00817160
_cell_angle_alpha   60.00000000
_cell_angle_beta   60.00000000
_cell_angle_gamma   60.00000000
_symmetry_Int_Tables_number   1
_chemical_formula_structural   BaPrDySnO6
_chemical_formula_sum   'Ba1 Pr1 Dy1 Sn1 O6'
_cell_volume   153.35995986
_cell_formula_units_Z   1
loop_
 _symmetry_equiv_pos_site_id
 _symmetry_equiv_pos_as_xyz
  1  'x, y, z'
loop_
 _atom_site_type_symbol
 _atom_site_label
 _atom_site_symmetry_multiplicity
 _atom_site_fract_x
 _atom_site_fract_y
 _atom_site_fract_z
 _atom_site_occupancy
  Ba  Ba0  1  0.75000000  0.75000000  0.75000000  1
  Pr  Pr0  1  0.25000000  0.25000000  0.25000000  1
  Dy  Dy0  1  0.00000000  0.00000000  0.00000000  1
  Sn  Sn0  1  0.50000000  0.50000000  0.50000000  1
  O  O0  1  0.74199511  0.25800489  0.25800489  1
  O  O1  1  0.25800489  0.74199511  0.74199511  1
  O  O2  1  0.74199511  0.25800489  0.74199511  1
  O  O3  1  0.25800489  0.74199511  0.25800489  1
  O  O4  1  0.74199511  0.74199511  0.25800489  1
  O  O5  1  0.25800489  0.25800489  0.74199511  1
loop_
_geom_bond_atom_site_label_1
_geom_bond_atom_site_label_2
_geom_bond_distance
_geom_bond_site_symmetry_2
Ba0 O1 3.004856 1_555
Ba0 O2 3.004856 1_555
Ba0 O4 3.004856 1_555
Ba0 O3 3.004856 1_556
Ba0 O0 3.004856 1_556
Ba0 O0 3.004856 1_565
Ba0 O3 3.004856 1_655
Ba0 O5 3.004856 1_565
Ba0 O5 3.004856 1_655
Ba0 O2 3.004856 1_565
Ba0 O4 3.004856 1_556
Ba0 O1 3.004856 1_655
Dy0 O4 2.192226 1_445
Dy0 O2 2.192226 1_454
Dy0 O1 2.192226 1_544
Dy0 O5 2.192226 1_554
Dy0 O0 2.192226 1_455
Dy0 O3 2.192226 1_545
O0 Sn0 2.056193 1_555
O0 Pr0 3.004856 1_655
O0 Pr0 3.004856 1_555
O1 Sn0 2.056193 1_555
O1 Pr0 3.004856 1_565
O1 Pr0 3.004856 1_556
O2 Sn0 2.056193 1_555
O2 Pr0 3.004856 1_556
O2 Pr0 3.004856 1_655
O3 Sn0 2.056193 1_555
O3 Pr0 3.004856 1_565
O3 Pr0 3.004856 1_555
O4 Sn0 2.056193 1_555
O4 Pr0 3.004856 1_565
O4 Pr0 3.004856 1_655
O5 Sn0 2.056193 1_555
O5 Pr0 3.004856 1_556
O5 Pr0 3.004856 1_555
