# generated using pymatgen
data_Li4Zn(PS4)2
_symmetry_space_group_name_H-M   'P 1'
_cell_length_a   6.40667500
_cell_length_b   7.93091043
_cell_length_c   18.44270297
_cell_angle_alpha   89.86814292
_cell_angle_beta   89.81907533
_cell_angle_gamma   89.64710206
_symmetry_Int_Tables_number   1
_chemical_formula_structural   Li4Zn(PS4)2
_chemical_formula_sum   'Li12 Zn3 P6 S24'
_cell_volume   937.06297114
_cell_formula_units_Z   3
loop_
 _symmetry_equiv_pos_site_id
 _symmetry_equiv_pos_as_xyz
  1  'x, y, z'
loop_
 _atom_site_type_symbol
 _atom_site_label
 _atom_site_symmetry_multiplicity
 _atom_site_fract_x
 _atom_site_fract_y
 _atom_site_fract_z
 _atom_site_occupancy
  Li  Li0  1  0.68810700  0.76199400  0.33123200  1
  Li  Li1  1  0.69502400  0.76668300  0.99854600  1
  Li  Li2  1  0.31444900  0.74378800  0.50052300  1
  Li  Li3  1  0.31045500  0.73315700  0.83691500  1
  Li  Li4  1  0.68488500  0.24192600  0.32996200  1
  Li  Li5  1  0.30965400  0.26545000  0.16209300  1
  Li  Li6  1  0.31513300  0.24731300  0.50009400  1
  Li  Li7  1  0.31991700  0.25054200  0.83453400  1
  Li  Li8  1  0.85027900  0.00805600  0.49950700  1
  Li  Li9  1  0.84831800  0.01722500  0.82345800  1
  Li  Li10  1  0.14067500  0.49230400  0.33082700  1
  Li  Li11  1  0.14143700  0.45684000  0.66338300  1
  Zn  Zn0  1  0.69495200  0.74114300  0.66712500  1
  Zn  Zn1  1  0.30247000  0.75730600  0.16474700  1
  Zn  Zn2  1  0.69990800  0.25959500  0.00050300  1
  P  P0  1  0.16841900  0.00379500  0.33006200  1
  P  P1  1  0.18623900  0.98498900  0.66892200  1
  P  P2  1  0.20067300  0.00496300  0.00143100  1
  P  P3  1  0.81054300  0.51387000  0.16511800  1
  P  P4  1  0.81637700  0.50449500  0.50034700  1
  P  P5  1  0.82016700  0.48993300  0.83131400  1
  S  S0  1  0.32049200  0.78221300  0.29386300  1
  S  S1  1  0.33064800  0.76147600  0.63296000  1
  S  S2  1  0.32474700  0.78675100  0.96660100  1
  S  S3  1  0.66321400  0.73054800  0.12999400  1
  S  S4  1  0.67639100  0.72202300  0.46354500  1
  S  S5  1  0.67826400  0.71709600  0.79655300  1
  S  S6  1  0.32234700  0.21542900  0.29389800  1
  S  S7  1  0.33583100  0.18873300  0.62950800  1
  S  S8  1  0.33937000  0.22643200  0.96733500  1
  S  S9  1  0.68659700  0.28989600  0.12856600  1
  S  S10  1  0.67457200  0.29153400  0.46078900  1
  S  S11  1  0.67170700  0.29039900  0.78886300  1
  S  S12  1  0.17672300  0.00860800  0.11322600  1
  S  S13  1  0.19516500  0.99644200  0.44177700  1
  S  S14  1  0.20090200  0.98846100  0.78039400  1
  S  S15  1  0.79084700  0.50264100  0.27646700  1
  S  S16  1  0.78798700  0.48301800  0.61260400  1
  S  S17  1  0.81852800  0.50618400  0.94369500  1
  S  S18  1  0.87639500  0.00198900  0.29071200  1
  S  S19  1  0.87628300  0.98826700  0.63519800  1
  S  S20  1  0.89144800  0.01895700  0.96043300  1
  S  S21  1  0.11308000  0.51997200  0.12548500  1
  S  S22  1  0.12290900  0.49896000  0.46650400  1
  S  S23  1  0.12356300  0.49238700  0.79521100  1
loop_
_geom_bond_atom_site_label_1
_geom_bond_atom_site_label_2
_geom_bond_distance
_geom_bond_site_symmetry_2
Li0 S18 2.377501 1_565
Li0 S15 2.381792 1_555
Li0 S0 2.460223 1_555
Li0 S4 2.460960 1_555
Li1 S17 2.429439 1_555
Li1 S3 2.448486 1_556
Li1 S2 2.450249 1_555
Li1 S20 2.469761 1_565
Li2 S22 2.389466 1_555
Li2 S13 2.397780 1_555
Li2 S4 2.420238 1_555
Li2 S1 2.449407 1_555
Li3 S14 2.378320 1_555
Li3 S23 2.390033 1_555
Li3 S2 2.432306 1_555
Li3 S5 2.471593 1_555
Li4 S18 2.371172 1_555
Li4 S15 2.390252 1_555
Li4 S6 2.428522 1_555
Li4 S10 2.446185 1_555
Li5 S12 2.391972 1_555
Li5 S6 2.463613 1_555
Li5 S21 2.466652 1_555
Li5 S9 2.499539 1_555
Li6 S13 2.395839 1_545
Li6 S22 2.419180 1_555
Li6 S7 2.434361 1_555
Li6 S10 2.439186 1_555
Li7 S23 2.399377 1_555
Li7 S11 2.425815 1_555
Li7 S14 2.435690 1_545
Li7 S8 2.459716 1_555
Li8 S13 2.450992 1_645
Li8 S19 2.513054 1_545
Li8 S10 2.607330 1_555
Li8 S4 2.621030 1_545
Li9 S14 2.401784 1_645
Li9 S11 2.519751 1_555
Li9 S20 2.542201 1_555
Li9 S5 2.672038 1_545
Li10 S15 2.458963 1_455
Li10 S22 2.505142 1_555
Li10 S6 2.571146 1_555
Li10 S0 2.664372 1_555
Li11 S23 2.450436 1_555
Li11 S16 2.460596 1_455
Li11 S7 2.535990 1_555
Li11 S1 2.765334 1_555
P0 S18 2.009006 1_455
P0 S6 2.060495 1_555
P0 S13 2.068638 1_545
P0 S0 2.112675 1_545
P1 S7 2.016734 1_565
P1 S14 2.058542 1_555
P1 S19 2.082775 1_455
P1 S1 2.102262 1_555
P2 S2 2.006112 1_544
P2 S12 2.067276 1_555
P2 S8 2.068994 1_554
P2 S20 2.124892 1_454
P3 S15 2.058808 1_555
P3 S3 2.059706 1_555
P3 S9 2.065568 1_555
P3 S21 2.070144 1_655
P4 S4 2.054433 1_555
P4 S10 2.058887 1_555
P4 S22 2.059012 1_655
P4 S16 2.084397 1_555
P5 S11 2.012664 1_555
P5 S23 2.052840 1_655
P5 S17 2.076898 1_555
P5 S5 2.112224 1_555
S0 Zn1 2.393089 1_555
S1 Zn0 2.423769 1_555
S3 Zn1 2.404698 1_555
S5 Zn0 2.396273 1_555
S8 Zn2 2.407471 1_556
S9 Zn2 2.375782 1_555
S12 Zn1 2.345310 1_545
S16 Zn0 2.355393 1_555
S17 Zn2 2.346000 1_556
S19 Zn0 2.357121 1_555
S20 Zn2 2.380375 1_556
S21 Zn1 2.362091 1_555
