# generated using pymatgen
data_YClO2
_symmetry_space_group_name_H-M   'P 1'
_cell_length_a   3.59620800
_cell_length_b   6.27805100
_cell_length_c   11.89600100
_cell_angle_alpha   90.00000000
_cell_angle_beta   90.00000000
_cell_angle_gamma   90.00000000
_symmetry_Int_Tables_number   1
_chemical_formula_structural   YClO2
_chemical_formula_sum   'Y4 Cl4 O8'
_cell_volume   268.57812291
_cell_formula_units_Z   4
loop_
 _symmetry_equiv_pos_site_id
 _symmetry_equiv_pos_as_xyz
  1  'x, y, z'
loop_
 _atom_site_type_symbol
 _atom_site_label
 _atom_site_symmetry_multiplicity
 _atom_site_fract_x
 _atom_site_fract_y
 _atom_site_fract_z
 _atom_site_occupancy
  Y  Y0  1  0.25000000  0.75229700  0.08141600  1
  Y  Y1  1  0.75000000  0.24770300  0.91858400  1
  Y  Y2  1  0.75000000  0.25229700  0.41858400  1
  Y  Y3  1  0.25000000  0.74770300  0.58141600  1
  Cl  Cl0  1  0.25000000  0.09614700  0.26058700  1
  Cl  Cl1  1  0.75000000  0.90385300  0.73941300  1
  Cl  Cl2  1  0.75000000  0.59614700  0.23941300  1
  Cl  Cl3  1  0.25000000  0.40385300  0.76058700  1
  O  O0  1  0.25000000  0.40332900  0.02863300  1
  O  O1  1  0.75000000  0.59667100  0.97136700  1
  O  O2  1  0.75000000  0.90332900  0.47136700  1
  O  O3  1  0.25000000  0.09667100  0.52863300  1
  O  O4  1  0.25000000  0.50921900  0.43567300  1
  O  O5  1  0.75000000  0.49078100  0.56432700  1
  O  O6  1  0.75000000  0.00921900  0.06432700  1
  O  O7  1  0.25000000  0.99078100  0.93567300  1
loop_
_geom_bond_atom_site_label_1
_geom_bond_atom_site_label_2
_geom_bond_distance
_geom_bond_site_symmetry_2
Cl0 Y2 2.779720 1_555
Cl0 Y2 2.779720 1_455
Cl0 Y0 3.033639 1_545
Cl1 Y3 2.779720 1_555
Cl1 Y3 2.779720 1_655
Cl1 Y1 3.033639 1_565
Cl2 Y0 2.779720 1_655
Cl2 Y0 2.779720 1_555
Cl2 Y2 3.033639 1_555
Cl3 Y1 2.779720 1_555
Cl3 Y1 2.779720 1_455
Cl3 Y3 3.033639 1_555
O0 Y0 2.279044 1_555
O0 Y1 2.429324 1_454
O0 Y1 2.429324 1_554
O1 Y1 2.279044 1_555
O1 Y0 2.429324 1_556
O1 Y0 2.429324 1_656
O2 Y2 2.279044 1_565
O2 Y3 2.429324 1_655
O2 Y3 2.429324 1_555
O3 Y3 2.279044 1_545
O3 Y2 2.429324 1_555
O3 Y2 2.429324 1_455
O4 Y3 2.290758 1_555
O4 Y2 2.424082 1_555
O4 Y2 2.424082 1_455
O5 Y2 2.290758 1_555
O5 Y3 2.424082 1_555
O5 Y3 2.424082 1_655
O6 Y1 2.290758 1_554
O6 Y0 2.424082 1_645
O6 Y0 2.424082 1_545
O7 Y0 2.290758 1_556
O7 Y1 2.424082 1_465
O7 Y1 2.424082 1_565
