# generated using pymatgen
data_Nd(Ni2B)6
_symmetry_space_group_name_H-M   'P 1'
_cell_length_a   6.06687854
_cell_length_b   6.06687854
_cell_length_c   11.04665600
_cell_angle_alpha   90.00000000
_cell_angle_beta   90.00000000
_cell_angle_gamma   104.87423316
_symmetry_Int_Tables_number   1
_chemical_formula_structural   Nd(Ni2B)6
_chemical_formula_sum   'Nd2 Ni24 B12'
_cell_volume   392.97011465
_cell_formula_units_Z   2
loop_
 _symmetry_equiv_pos_site_id
 _symmetry_equiv_pos_as_xyz
  1  'x, y, z'
loop_
 _atom_site_type_symbol
 _atom_site_label
 _atom_site_symmetry_multiplicity
 _atom_site_fract_x
 _atom_site_fract_y
 _atom_site_fract_z
 _atom_site_occupancy
  Nd  Nd0  1  0.83529800  0.83529800  0.49843700  1
  Nd  Nd1  1  0.16470200  0.16470200  0.99843700  1
  Ni  Ni0  1  0.56611700  0.56611700  0.91832100  1
  Ni  Ni1  1  0.43388300  0.43388300  0.41832100  1
  Ni  Ni2  1  0.77882400  0.77882400  0.09961600  1
  Ni  Ni3  1  0.22117600  0.22117600  0.59961600  1
  Ni  Ni4  1  0.54173100  0.80445500  0.73463600  1
  Ni  Ni5  1  0.80445500  0.54173100  0.73463600  1
  Ni  Ni6  1  0.45826900  0.19554500  0.23463600  1
  Ni  Ni7  1  0.19554500  0.45826900  0.23463600  1
  Ni  Ni8  1  0.14565200  0.88101400  0.75566500  1
  Ni  Ni9  1  0.88101400  0.14565200  0.75566500  1
  Ni  Ni10  1  0.85434800  0.11898600  0.25566500  1
  Ni  Ni11  1  0.11898600  0.85434800  0.25566500  1
  Ni  Ni12  1  0.65994300  0.27306800  0.56781400  1
  Ni  Ni13  1  0.27306800  0.65994300  0.56781400  1
  Ni  Ni14  1  0.34005700  0.72693200  0.06781400  1
  Ni  Ni15  1  0.72693200  0.34005700  0.06781400  1
  Ni  Ni16  1  0.62897400  0.99440000  0.93682500  1
  Ni  Ni17  1  0.99440000  0.62897400  0.93682500  1
  Ni  Ni18  1  0.37102600  0.00560000  0.43682500  1
  Ni  Ni19  1  0.00560000  0.37102600  0.43682500  1
  Ni  Ni20  1  0.47414500  0.21204900  0.77495600  1
  Ni  Ni21  1  0.21204900  0.47414500  0.77495600  1
  Ni  Ni22  1  0.52585500  0.78795100  0.27495600  1
  Ni  Ni23  1  0.78795100  0.52585500  0.27495600  1
  B  B0  1  0.83556400  0.83556400  0.83549500  1
  B  B1  1  0.16443600  0.16443600  0.33549500  1
  B  B2  1  0.48857400  0.48857400  0.65478100  1
  B  B3  1  0.51142600  0.51142600  0.15478100  1
  B  B4  1  0.32411300  0.75277100  0.88569600  1
  B  B5  1  0.75277100  0.32411300  0.88569600  1
  B  B6  1  0.67588700  0.24722900  0.38569600  1
  B  B7  1  0.24722900  0.67588700  0.38569600  1
  B  B8  1  0.40107100  0.98800200  0.62258200  1
  B  B9  1  0.98800200  0.40107100  0.62258200  1
  B  B10  1  0.59892900  0.01199800  0.12258200  1
  B  B11  1  0.01199800  0.59892900  0.12258200  1
loop_
_geom_bond_atom_site_label_1
_geom_bond_atom_site_label_2
_geom_bond_distance
_geom_bond_site_symmetry_2
Nd0 Ni3 3.065413 1_665
Nd0 Ni22 3.069964 1_555
Nd0 Ni23 3.069964 1_555
Nd0 Ni1 3.098401 1_555
Nd0 Ni5 3.137511 1_555
Nd0 Ni4 3.137511 1_555
Nd0 Ni10 3.172629 1_565
Nd0 Ni11 3.172629 1_655
Nd0 Ni12 3.197425 1_565
Nd0 Ni13 3.197425 1_655
Nd0 Ni19 3.220321 1_665
Nd0 Ni18 3.220321 1_665
Nd0 Ni18 3.310365 1_565
Nd0 Ni19 3.310365 1_655
Nd0 Ni9 3.380566 1_565
Nd0 Ni8 3.380566 1_655
Nd0 Ni12 3.389826 1_555
Nd0 Ni13 3.389826 1_555
Nd1 Ni2 3.065413 1_446
Nd1 Ni21 3.069964 1_555
Nd1 Ni20 3.069964 1_555
Nd1 Ni0 3.098401 1_555
Nd1 Ni7 3.137511 1_556
Nd1 Ni6 3.137511 1_556
Nd1 Ni8 3.172629 1_545
Nd1 Ni9 3.172629 1_455
Nd1 Ni15 3.197425 1_456
Nd1 Ni14 3.197425 1_546
Nd1 Ni16 3.220321 1_445
Nd1 Ni17 3.220321 1_445
Nd1 Ni16 3.310365 1_545
Nd1 Ni17 3.310365 1_455
Nd1 Ni10 3.380566 1_456
Nd1 Ni11 3.380566 1_546
Nd1 Ni15 3.389826 1_556
Nd1 Ni14 3.389826 1_556
B0 Ni9 2.031390 1_565
B0 Ni8 2.031390 1_655
B0 Ni4 2.069316 1_555
B0 Ni5 2.069316 1_555
B0 Ni16 2.091061 1_555
B0 Ni17 2.091061 1_555
B0 Ni0 2.193106 1_555
B0 Nd1 3.027790 1_665
B1 Ni11 2.031390 1_545
B1 Ni10 2.031390 1_455
B1 Ni6 2.069316 1_555
B1 Ni7 2.069316 1_555
B1 Ni18 2.091061 1_555
B1 Ni19 2.091061 1_555
B1 Ni1 2.193106 1_555
B1 Nd0 3.027790 1_445
B2 Ni5 2.058518 1_555
B2 Ni4 2.058518 1_555
B2 Ni3 2.069721 1_555
B2 Ni13 2.100274 1_555
B2 Ni12 2.100274 1_555
B2 Ni21 2.123463 1_555
B2 Ni20 2.123463 1_555
B2 Nd0 3.092054 1_555
B3 Ni6 2.058518 1_555
B3 Ni7 2.058518 1_555
B3 Ni2 2.069721 1_555
B3 Ni14 2.100274 1_555
B3 Ni15 2.100274 1_555
B3 Ni22 2.123463 1_555
B3 Ni23 2.123463 1_555
B3 Nd1 3.092054 1_554
B4 Ni14 2.022136 1_556
B4 Ni17 2.028078 1_455
B4 Ni21 2.055750 1_555
B4 Ni8 2.067201 1_555
B4 Ni4 2.100824 1_555
B4 Ni0 2.102724 1_555
B4 Ni16 2.120574 1_555
B4 Nd1 3.157995 1_565
B5 Ni15 2.022136 1_556
B5 Ni16 2.028078 1_545
B5 Ni20 2.055750 1_555
B5 Ni9 2.067201 1_555
B5 Ni5 2.100824 1_555
B5 Ni0 2.102724 1_555
B5 Ni17 2.120574 1_555
B5 Nd1 3.157995 1_655
B6 Ni12 2.022136 1_555
B6 Ni19 2.028078 1_655
B6 Ni23 2.055750 1_555
B6 Ni10 2.067201 1_555
B6 Ni6 2.100824 1_555
B6 Ni1 2.102724 1_555
B6 Ni18 2.120574 1_555
B6 Nd0 3.157995 1_545
B7 Ni13 2.022136 1_555
B7 Ni18 2.028078 1_565
B7 Ni22 2.055750 1_555
B7 Ni11 2.067201 1_555
B7 Ni7 2.100824 1_555
B7 Ni1 2.102724 1_555
B7 Ni19 2.120574 1_555
B7 Nd0 3.157995 1_455
B8 Ni4 1.997077 1_555
B8 Ni3 2.012305 1_565
B8 Ni13 2.033927 1_555
B8 Ni18 2.065259 1_565
B8 Ni12 2.104564 1_565
B8 Ni8 2.113630 1_555
B8 Ni20 2.137291 1_565
B8 Nd0 3.306367 1_555
B9 Ni5 1.997077 1_555
B9 Ni3 2.012305 1_655
B9 Ni12 2.033927 1_555
B9 Ni19 2.065259 1_655
B9 Ni13 2.104564 1_655
B9 Ni9 2.113630 1_555
B9 Ni21 2.137291 1_655
B9 Nd0 3.306367 1_555
B10 Ni6 1.997077 1_555
B10 Ni2 2.012305 1_545
B10 Ni15 2.033927 1_555
B10 Ni16 2.065259 1_544
B10 Ni14 2.104564 1_545
B10 Ni10 2.113630 1_555
B10 Ni22 2.137291 1_545
B10 Nd1 3.306367 1_554
B11 Ni7 1.997077 1_555
B11 Ni2 2.012305 1_455
B11 Ni14 2.033927 1_555
B11 Ni17 2.065259 1_454
B11 Ni15 2.104564 1_455
B11 Ni11 2.113630 1_555
B11 Ni23 2.137291 1_455
B11 Nd1 3.306367 1_554
