# generated using pymatgen
data_Ca2Mo2O5
_symmetry_space_group_name_H-M   'P 1'
_cell_length_a   3.96422900
_cell_length_b   5.53176200
_cell_length_c   10.98114800
_cell_angle_alpha   90.00000000
_cell_angle_beta   90.00000000
_cell_angle_gamma   90.00000000
_symmetry_Int_Tables_number   1
_chemical_formula_structural   Ca2Mo2O5
_chemical_formula_sum   'Ca4 Mo4 O10'
_cell_volume   240.80747602
_cell_formula_units_Z   2
loop_
 _symmetry_equiv_pos_site_id
 _symmetry_equiv_pos_as_xyz
  1  'x, y, z'
loop_
 _atom_site_type_symbol
 _atom_site_label
 _atom_site_symmetry_multiplicity
 _atom_site_fract_x
 _atom_site_fract_y
 _atom_site_fract_z
 _atom_site_occupancy
  Ca  Ca0  1  0.50000000  0.64839000  0.35069400  1
  Ca  Ca1  1  0.50000000  0.35161000  0.64930600  1
  Ca  Ca2  1  0.50000000  0.14839000  0.14930600  1
  Ca  Ca3  1  0.50000000  0.85161000  0.85069400  1
  Mo  Mo0  1  0.00000000  0.66363400  0.09685200  1
  Mo  Mo1  1  0.00000000  0.33636600  0.90314800  1
  Mo  Mo2  1  0.00000000  0.83636600  0.59685200  1
  Mo  Mo3  1  0.00000000  0.16363400  0.40314800  1
  O  O0  1  0.00000000  0.00000000  0.00000000  1
  O  O1  1  0.00000000  0.61602800  0.78995300  1
  O  O2  1  0.00000000  0.11602800  0.71004700  1
  O  O3  1  0.00000000  0.88397200  0.28995300  1
  O  O4  1  0.50000000  0.78101100  0.61457800  1
  O  O5  1  0.50000000  0.21898900  0.38542200  1
  O  O6  1  0.00000000  0.38397200  0.21004700  1
  O  O7  1  0.50000000  0.71898900  0.11457800  1
  O  O8  1  0.00000000  0.50000000  0.50000000  1
  O  O9  1  0.50000000  0.28101100  0.88542200  1
loop_
_geom_bond_atom_site_label_1
_geom_bond_atom_site_label_2
_geom_bond_distance
_geom_bond_site_symmetry_2
Ca0 O5 2.405762 1_555
Ca0 O3 2.464135 1_555
Ca0 O3 2.464135 1_655
Ca0 O7 2.622072 1_555
Ca0 O8 2.700132 1_555
Ca0 O8 2.700132 1_655
Ca0 O6 2.907514 1_555
Ca0 O6 2.907514 1_655
Ca0 O4 2.989174 1_555
Ca1 O4 2.405762 1_555
Ca1 O2 2.464135 1_655
Ca1 O2 2.464135 1_555
Ca1 O9 2.622072 1_555
Ca1 O8 2.700132 1_655
Ca1 O8 2.700132 1_555
Ca1 O1 2.907514 1_555
Ca1 O1 2.907514 1_655
Ca1 O5 2.989174 1_555
Ca2 O7 2.405762 1_545
Ca2 O6 2.464135 1_655
Ca2 O6 2.464135 1_555
Ca2 O5 2.622072 1_555
Ca2 O0 2.700132 1_555
Ca2 O0 2.700132 1_655
Ca2 O3 2.907514 1_645
Ca2 O3 2.907514 1_545
Ca2 O9 2.989174 1_554
Ca3 O9 2.405762 1_565
Ca3 O1 2.464135 1_655
Ca3 O1 2.464135 1_555
Ca3 O4 2.622072 1_555
Ca3 O0 2.700132 1_566
Ca3 O0 2.700132 1_666
Ca3 O2 2.907514 1_565
Ca3 O2 2.907514 1_665
Ca3 O7 2.989174 1_556
Mo0 O6 1.984530 1_555
Mo0 O7 2.015051 1_555
Mo0 O7 2.015051 1_455
Mo0 O0 2.143204 1_565
Mo0 O3 2.445815 1_555
Mo1 O1 1.984530 1_555
Mo1 O9 2.015051 1_555
Mo1 O9 2.015051 1_455
Mo1 O0 2.143204 1_556
Mo1 O2 2.445815 1_555
Mo2 O2 1.984530 1_565
Mo2 O4 2.015051 1_455
Mo2 O4 2.015051 1_555
Mo2 O8 2.143204 1_555
Mo2 O1 2.445815 1_555
Mo3 O3 1.984530 1_545
Mo3 O5 2.015051 1_555
Mo3 O5 2.015051 1_455
Mo3 O8 2.143204 1_555
Mo3 O6 2.445815 1_555
