# generated using pymatgen
data_CaV2O4
_symmetry_space_group_name_H-M   'P 1'
_cell_length_a   6.27281376
_cell_length_b   6.27281376
_cell_length_c   15.63099900
_cell_angle_alpha   90.00000000
_cell_angle_beta   90.00000000
_cell_angle_gamma   119.99999747
_symmetry_Int_Tables_number   1
_chemical_formula_structural   CaV2O4
_chemical_formula_sum   'Ca6 V12 O24'
_cell_volume   532.65028668
_cell_formula_units_Z   6
loop_
 _symmetry_equiv_pos_site_id
 _symmetry_equiv_pos_as_xyz
  1  'x, y, z'
loop_
 _atom_site_type_symbol
 _atom_site_label
 _atom_site_symmetry_multiplicity
 _atom_site_fract_x
 _atom_site_fract_y
 _atom_site_fract_z
 _atom_site_occupancy
  Ca  Ca0  1  0.66666700  0.33333300  0.04595800  1
  Ca  Ca1  1  0.00000000  0.00000000  0.37793000  1
  Ca  Ca2  1  0.33333300  0.66666700  0.33627300  1
  Ca  Ca3  1  0.33333300  0.66666700  0.71089800  1
  Ca  Ca4  1  0.00000000  0.00000000  0.99671500  1
  Ca  Ca5  1  0.00000000  0.00000000  0.62257500  1
  V  V0  1  0.16256000  0.32512000  0.16667100  1
  V  V1  1  0.16256000  0.83744000  0.16667100  1
  V  V2  1  0.49773500  0.99547100  0.50278300  1
  V  V3  1  0.67488000  0.83744000  0.16667100  1
  V  V4  1  0.49773500  0.50226500  0.50278300  1
  V  V5  1  0.66666700  0.33333300  0.66437100  1
  V  V6  1  0.66666700  0.33333300  0.28744300  1
  V  V7  1  0.82953700  0.65907300  0.83101500  1
  V  V8  1  0.00452900  0.50226500  0.50278300  1
  V  V9  1  0.82953700  0.17046300  0.83101500  1
  V  V10  1  0.34092700  0.17046300  0.83101500  1
  V  V11  1  0.33333300  0.66666700  0.95562100  1
  O  O0  1  0.85236800  0.70473700  0.09920200  1
  O  O1  1  0.00000000  0.00000000  0.23671800  1
  O  O2  1  0.85236800  0.14763200  0.09920200  1
  O  O3  1  0.29526300  0.14763200  0.09920200  1
  O  O4  1  0.18211400  0.36422700  0.43808500  1
  O  O5  1  0.00968400  0.50484200  0.23789100  1
  O  O6  1  0.33333300  0.66666700  0.57222500  1
  O  O7  1  0.49515800  0.50484200  0.23789100  1
  O  O8  1  0.33333300  0.66666700  0.08246300  1
  O  O9  1  0.18211400  0.81788600  0.43808500  1
  O  O10  1  0.63577300  0.81788600  0.43808500  1
  O  O11  1  0.49515800  0.99031600  0.23789100  1
  O  O12  1  0.52549800  0.05099500  0.75423300  1
  O  O13  1  0.38569900  0.19284900  0.57776300  1
  O  O14  1  0.80715100  0.19284900  0.57776300  1
  O  O15  1  0.66666700  0.33333300  0.89797400  1
  O  O16  1  0.66666700  0.33333300  0.41271600  1
  O  O17  1  0.52549800  0.47450200  0.75423300  1
  O  O18  1  0.94900500  0.47450200  0.75423300  1
  O  O19  1  0.80715100  0.61430100  0.57776300  1
  O  O20  1  0.66591800  0.83295900  0.90365600  1
  O  O21  1  0.16704100  0.83295900  0.90365600  1
  O  O22  1  0.00000000  0.00000000  0.76977600  1
  O  O23  1  0.16704100  0.33408200  0.90365600  1
loop_
_geom_bond_atom_site_label_1
_geom_bond_atom_site_label_2
_geom_bond_distance
_geom_bond_site_symmetry_2
Ca0 O2 2.182522 1_555
Ca0 O0 2.182532 1_555
Ca0 O3 2.182532 1_555
Ca0 O15 2.313138 1_554
Ca1 O10 2.190689 1_445
Ca1 O4 2.190689 1_555
Ca1 O9 2.190694 1_545
Ca1 O1 2.207285 1_555
Ca2 O9 2.287351 1_555
Ca2 O10 2.287359 1_555
Ca2 O4 2.287359 1_555
Ca2 O5 2.335832 1_555
Ca2 O11 2.335832 1_555
Ca2 O7 2.335836 1_555
Ca3 O6 2.167598 1_555
Ca3 O12 2.194963 1_565
Ca3 O18 2.194963 1_455
Ca3 O17 2.194973 1_555
Ca4 O3 2.266961 1_556
Ca4 O0 2.266961 1_446
Ca4 O2 2.266964 1_456
Ca4 O21 2.325863 1_545
Ca4 O23 2.325863 1_555
Ca4 O20 2.325863 1_445
Ca5 O14 2.209254 1_455
Ca5 O19 2.209259 1_445
Ca5 O13 2.209259 1_555
Ca5 O22 2.300899 1_555
O0 V3 1.992848 1_555
O0 V1 1.992853 1_655
O1 V1 2.078036 1_545
O1 V3 2.078036 1_445
O1 V0 2.078036 1_555
O2 V0 1.992853 1_655
O2 V3 1.992853 1_545
O3 V0 1.992848 1_555
O3 V1 1.992853 1_545
O4 V4 1.994467 1_555
O4 V8 1.994477 1_555
O5 V6 2.017975 1_455
O5 V0 2.123901 1_555
O5 V1 2.123901 1_555
O6 V4 2.090145 1_555
O6 V2 2.090145 1_555
O6 V8 2.090145 1_555
O7 V6 2.017980 1_555
O7 V3 2.123901 1_555
O7 V0 2.123901 1_555
O8 V11 1.982667 1_554
O8 V1 2.274887 1_555
O8 V0 2.274891 1_555
O8 V3 2.274891 1_555
O9 V2 1.994468 1_555
O9 V8 1.994468 1_555
O10 V4 1.994467 1_555
O10 V2 1.994477 1_555
O11 V6 2.017975 1_565
O11 V3 2.123901 1_555
O11 V1 2.123901 1_555
O12 V10 2.051859 1_555
O12 V9 2.051859 1_555
O12 V5 2.079776 1_555
O13 V5 2.040194 1_555
O13 V2 2.066535 1_545
O13 V4 2.066545 1_555
O14 V5 2.040194 1_555
O14 V2 2.066543 1_545
O14 V8 2.066543 1_655
O15 V9 2.055912 1_555
O15 V7 2.055912 1_555
O15 V10 2.055912 1_555
O16 V6 1.958142 1_555
O16 V2 2.313163 1_545
O16 V8 2.313163 1_655
O16 V4 2.313172 1_555
O17 V7 2.051859 1_555
O17 V10 2.051859 1_555
O17 V5 2.079776 1_555
O18 V7 2.051859 1_555
O18 V9 2.051859 1_555
O18 V5 2.079776 1_555
O19 V5 2.040194 1_555
O19 V8 2.066535 1_655
O19 V4 2.066545 1_555
O20 V11 1.980930 1_555
O20 V9 2.156819 1_565
O20 V7 2.156824 1_555
O21 V11 1.980925 1_555
O21 V7 2.156820 1_455
O21 V10 2.156820 1_565
O22 V9 2.084797 1_455
O22 V10 2.084802 1_555
O22 V7 2.084802 1_445
O23 V11 1.980930 1_555
O23 V9 2.156819 1_455
O23 V10 2.156824 1_555
