# generated using pymatgen
data_Be2BH3O5
_symmetry_space_group_name_H-M   'P 1'
_cell_length_a   4.46097912
_cell_length_b   4.46097912
_cell_length_c   10.80684447
_cell_angle_alpha   88.23950569
_cell_angle_beta   88.23950569
_cell_angle_gamma   59.50847802
_symmetry_Int_Tables_number   1
_chemical_formula_structural   Be2BH3O5
_chemical_formula_sum   'Be4 B2 H6 O10'
_cell_volume   185.20189590
_cell_formula_units_Z   2
loop_
 _symmetry_equiv_pos_site_id
 _symmetry_equiv_pos_as_xyz
  1  'x, y, z'
loop_
 _atom_site_type_symbol
 _atom_site_label
 _atom_site_symmetry_multiplicity
 _atom_site_fract_x
 _atom_site_fract_y
 _atom_site_fract_z
 _atom_site_occupancy
  Be  Be0  1  0.33097300  0.32881100  0.80516600  1
  Be  Be1  1  0.32881100  0.33097300  0.30516600  1
  Be  Be2  1  0.66945000  0.67016700  0.70126400  1
  Be  Be3  1  0.67016700  0.66945000  0.20126400  1
  B  B0  1  0.00017900  0.99971700  0.75103800  1
  B  B1  1  0.99971700  0.00017900  0.25103800  1
  H  H0  1  0.43340800  0.43220300  0.98983300  1
  H  H1  1  0.43220300  0.43340800  0.48983300  1
  H  H2  1  0.54129100  0.92579400  0.50785000  1
  H  H3  1  0.92459500  0.54339000  0.50774300  1
  H  H4  1  0.54339000  0.92459500  0.00774300  1
  H  H5  1  0.92579400  0.54129100  0.00785000  1
  O  O0  1  0.32137800  0.31298800  0.95536700  1
  O  O1  1  0.31298800  0.32137800  0.45536700  1
  O  O2  1  0.99981500  0.69177500  0.75116000  1
  O  O3  1  0.68902400  0.31193100  0.75067400  1
  O  O4  1  0.30861400  0.99995900  0.75075200  1
  O  O5  1  0.99995900  0.30861400  0.25075200  1
  O  O6  1  0.69177500  0.99981500  0.25116000  1
  O  O7  1  0.31193100  0.68902400  0.25067400  1
  O  O8  1  0.67668200  0.67936700  0.54666200  1
  O  O9  1  0.67936700  0.67668200  0.04666200  1
loop_
_geom_bond_atom_site_label_1
_geom_bond_atom_site_label_2
_geom_bond_distance
_geom_bond_site_symmetry_2
Be0 O0 1.622759 1_555
Be0 O2 1.646878 1_455
Be0 O4 1.647100 1_545
Be0 O3 1.651231 1_555
Be1 O1 1.622759 1_555
Be1 O6 1.646878 1_545
Be1 O5 1.647100 1_455
Be1 O7 1.651231 1_555
Be2 O4 1.622869 1_555
Be2 O3 1.629551 1_555
Be2 O2 1.633455 1_555
Be2 O8 1.669725 1_555
Be3 O5 1.622869 1_555
Be3 O7 1.629551 1_555
Be3 O6 1.633455 1_555
Be3 O9 1.669725 1_555
B0 O2 1.374508 1_455
B0 O4 1.376379 1_555
B0 O3 1.380087 1_465
B1 O6 1.374508 1_545
B1 O5 1.376379 1_555
B1 O7 1.380087 1_645
H0 O0 0.982168 1_555
H1 O1 0.982168 1_555
H2 O8 1.030837 1_555
H2 O1 1.619621 1_565
H3 O8 1.036457 1_555
H3 O1 1.592479 1_655
H4 O9 1.036457 1_555
H4 O0 1.592479 1_564
H5 O9 1.030837 1_555
H5 O0 1.619621 1_654
