# generated using pymatgen
data_ZnS
_symmetry_space_group_name_H-M   'P 1'
_cell_length_a   13.85608393
_cell_length_b   12.39063854
_cell_length_c   14.19757190
_cell_angle_alpha   86.20415468
_cell_angle_beta   91.94030661
_cell_angle_gamma   93.88442514
_symmetry_Int_Tables_number   1
_chemical_formula_structural   ZnS
_chemical_formula_sum   'Zn50 S50'
_cell_volume   2425.52932751
_cell_formula_units_Z   50
loop_
 _symmetry_equiv_pos_site_id
 _symmetry_equiv_pos_as_xyz
  1  'x, y, z'
loop_
 _atom_site_type_symbol
 _atom_site_label
 _atom_site_symmetry_multiplicity
 _atom_site_fract_x
 _atom_site_fract_y
 _atom_site_fract_z
 _atom_site_occupancy
  Zn  Zn0  1  0.56278415  0.94452440  0.55380255  1
  Zn  Zn1  1  0.38554455  0.54031024  0.93475294  1
  Zn  Zn2  1  0.85248209  0.25548311  0.79588607  1
  Zn  Zn3  1  0.64047324  0.35395371  0.94054083  1
  Zn  Zn4  1  0.01771264  0.09444897  0.42720474  1
  Zn  Zn5  1  0.57784289  0.21010915  0.46393063  1
  Zn  Zn6  1  0.85009009  0.82608396  0.52473658  1
  Zn  Zn7  1  0.62421731  0.86802739  0.11001326  1
  Zn  Zn8  1  0.42460542  0.26554352  0.63452657  1
  Zn  Zn9  1  0.76054095  0.03299464  0.94991507  1
  Zn  Zn10  1  0.66400694  0.41765527  0.63643563  1
  Zn  Zn11  1  0.62954602  0.08700210  0.04143771  1
  Zn  Zn12  1  0.82231741  0.50853302  0.11780683  1
  Zn  Zn13  1  0.95773538  0.97252567  0.74218815  1
  Zn  Zn14  1  0.44124090  0.48892508  0.77920346  1
  Zn  Zn15  1  0.62775420  0.59754423  0.24585141  1
  Zn  Zn16  1  0.04093573  0.86327365  0.55315604  1
  Zn  Zn17  1  0.14190135  0.84431470  0.06536319  1
  Zn  Zn18  1  0.08362779  0.15942738  0.13535915  1
  Zn  Zn19  1  0.35049333  0.83091441  0.46618423  1
  Zn  Zn20  1  0.03243846  0.20449834  0.91119956  1
  Zn  Zn21  1  0.62415042  0.16355005  0.75499661  1
  Zn  Zn22  1  0.70364517  0.41675412  0.40172373  1
  Zn  Zn23  1  0.73277393  0.91177682  0.72627633  1
  Zn  Zn24  1  0.32512980  0.98675813  0.90891929  1
  Zn  Zn25  1  0.14236310  0.66691174  0.90920978  1
  Zn  Zn26  1  0.81262818  0.63462089  0.55144558  1
  Zn  Zn27  1  0.39973202  0.55082626  0.20881222  1
  Zn  Zn28  1  0.79306873  0.07703473  0.43545048  1
  Zn  Zn29  1  0.38991712  0.28136491  0.92661194  1
  Zn  Zn30  1  0.12889142  0.96813666  0.25897540  1
  Zn  Zn31  1  0.01963906  0.57145142  0.54599947  1
  Zn  Zn32  1  0.16862208  0.52189151  0.39493503  1
  Zn  Zn33  1  0.19331615  0.29940317  0.05593889  1
  Zn  Zn34  1  0.07232645  0.50383161  0.12856945  1
  Zn  Zn35  1  0.35475566  0.96623783  0.07496089  1
  Zn  Zn36  1  0.55148460  0.01691816  0.30340080  1
  Zn  Zn37  1  0.89461380  0.54352266  0.88220167  1
  Zn  Zn38  1  0.24924049  0.04286639  0.62103192  1
  Zn  Zn39  1  0.15416965  0.30682580  0.23598354  1
  Zn  Zn40  1  0.48545931  0.53433912  0.45627609  1
  Zn  Zn41  1  0.59493335  0.59385496  0.02548973  1
  Zn  Zn42  1  0.20561980  0.29441132  0.65352751  1
  Zn  Zn43  1  0.94773794  0.53470770  0.30066482  1
  Zn  Zn44  1  0.96775821  0.21187318  0.58636225  1
  Zn  Zn45  1  0.28512856  0.79898813  0.70500411  1
  Zn  Zn46  1  0.85392681  0.85999784  0.25717634  1
  Zn  Zn47  1  0.95394619  0.69724222  0.96584101  1
  Zn  Zn48  1  0.13417782  0.52819239  0.71017199  1
  Zn  Zn49  1  0.94471733  0.78785049  0.69447105  1
  S  S0  1  0.51587700  0.99187186  0.14661948  1
  S  S1  1  0.16072784  0.13111794  0.98363793  1
  S  S2  1  0.54253006  0.37523255  0.39732615  1
  S  S3  1  0.95209132  0.36243464  0.95626508  1
  S  S4  1  0.09032775  0.32895694  0.76578398  1
  S  S5  1  0.90052211  0.09284396  0.85734802  1
  S  S6  1  0.08825408  0.44442426  0.97601157  1
  S  S7  1  0.73069229  0.50193033  0.97871170  1
  S  S8  1  0.73677771  0.95709042  0.56777094  1
  S  S9  1  0.97517075  0.60280648  0.69703690  1
  S  S10  1  0.75607258  0.74388814  0.80170938  1
  S  S11  1  0.42196126  0.69785643  0.64711537  1
  S  S12  1  0.34064002  0.38286567  0.03576985  1
  S  S13  1  0.75322317  0.78684245  0.93692041  1
  S  S14  1  0.04297320  0.64262280  0.39604338  1
  S  S15  1  0.66662807  0.14504469  0.34656095  1
  S  S16  1  0.60211449  0.77199213  0.96971148  1
  S  S17  1  0.35077644  0.66029573  0.06328914  1
  S  S18  1  0.36250655  0.65011840  0.51706293  1
  S  S19  1  0.64752901  0.00078093  0.82382249  1
  S  S20  1  0.77754465  0.50439652  0.27562813  1
  S  S21  1  0.70655390  0.32852115  0.78153000  1
  S  S22  1  0.06034086  0.06825325  0.62022459  1
  S  S23  1  -0.00003206  0.38293641  0.23878528  1
  S  S24  1  0.25710637  0.45875881  0.28221298  1
  S  S25  1  0.21852081  0.86966353  0.55573632  1
  S  S26  1  0.49591372  0.65137372  0.32227201  1
  S  S27  1  0.79066268  0.44721356  0.54048664  1
  S  S28  1  0.53956730  0.20665467  0.93901547  1
  S  S29  1  0.95818044  0.34185709  0.68966421  1
  S  S30  1  0.24358612  0.63371543  0.79381217  1
  S  S31  1  0.06884123  0.83229511  0.91867491  1
  S  S32  1  0.50688521  0.45026130  0.62653822  1
  S  S33  1  0.93997197  0.05442658  0.13727019  1
  S  S34  1  0.89529626  0.94166167  0.39206286  1
  S  S35  1  0.14983741  0.45511765  0.55768775  1
  S  S36  1  0.45416693  0.97324010  0.42751983  1
  S  S37  1  0.72004071  0.77039709  0.20589131  1
  S  S38  1  0.34360073  0.31013652  0.77085404  1
  S  S39  1  0.15293250  0.11182100  0.34370463  1
  S  S40  1  0.53918872  0.48267649  0.14250524  1
  S  S41  1  0.20048010  0.65049190  0.06752973  1
  S  S42  1  0.24732681  0.89109131  0.18502801  1
  S  S43  1  0.33481335  0.96741874  0.75359437  1
  S  S44  1  0.55631436  0.77181003  0.63002920  1
  S  S45  1  0.95296347  0.63489121  0.12609600  1
  S  S46  1  0.28679450  0.20906655  0.54750519  1
  S  S47  1  0.90645076  0.22392549  0.44019046  1
  S  S48  1  0.54218483  0.13820984  0.61243814  1
  S  S49  1  0.99348174  0.90043536  0.16821251  1
loop_
_geom_bond_atom_site_label_1
_geom_bond_atom_site_label_2
_geom_bond_distance
_geom_bond_site_symmetry_2
Zn37 Zn47 2.394784 1_555
S0 Zn36 2.300169 1_565
S0 Zn7 2.312766 1_555
S0 Zn11 2.403069 1_565
S0 Zn35 2.431656 1_555
S1 Zn20 2.239554 1_555
S1 Zn33 2.393728 1_556
S1 Zn18 2.492186 1_556
S2 Zn22 2.256437 1_555
S2 Zn5 2.273281 1_555
S2 Zn40 2.384712 1_555
S3 S6 2.100579 1_655
S3 Zn20 2.446953 1_655
S3 Zn37 2.578295 1_555
S3 Zn2 2.963896 1_555
S4 Zn42 2.372909 1_555
S4 Zn48 2.580312 1_555
S4 Zn20 2.609003 1_555
S5 Zn2 2.274898 1_555
S5 Zn20 2.354220 1_655
S5 Zn9 2.426485 1_555
S5 Zn13 2.468769 1_545
S6 Zn34 2.355284 1_556
S6 Zn33 2.570671 1_556
S6 Zn25 2.912609 1_555
S7 Zn3 2.234581 1_555
S7 Zn12 2.314286 1_556
S7 Zn41 2.398321 1_556
S7 Zn37 2.694544 1_555
S8 Zn23 2.284628 1_555
S8 Zn0 2.407637 1_555
S8 Zn28 2.432870 1_565
S8 Zn6 2.452538 1_555
S9 Zn31 2.315405 1_655
S9 Zn49 2.356981 1_555
S9 Zn48 2.443152 1_655
S9 Zn37 2.920358 1_555
S10 S13 2.028106 1_555
S10 Zn23 2.313270 1_555
S11 S44 2.033254 1_555
S11 S18 2.100814 1_555
S11 Zn45 2.530646 1_555
S12 Zn29 2.212641 1_554
S12 Zn33 2.243403 1_555
S12 Zn1 2.403194 1_554
S13 S16 2.153359 1_555
S14 Zn31 2.274709 1_555
S14 Zn43 2.289678 1_455
S14 Zn32 2.372131 1_555
S15 Zn36 2.271720 1_555
S15 Zn28 2.298197 1_555
S15 Zn5 2.321897 1_555
S16 Zn41 2.291955 1_556
S16 Zn7 2.387622 1_556
S17 S41 2.080508 1_555
S17 Zn27 2.495460 1_555
S17 Zn1 2.507670 1_554
S18 Zn19 2.322935 1_555
S18 Zn40 2.509951 1_555
S19 Zn21 2.221140 1_555
S19 Zn23 2.240274 1_545
S19 Zn9 2.374092 1_555
S20 Zn22 2.269105 1_555
S20 Zn12 2.341528 1_555
S20 Zn43 2.381069 1_555
S20 Zn15 2.453382 1_555
S21 Zn2 2.268171 1_555
S21 Zn21 2.319598 1_555
S21 Zn10 2.348534 1_555
S21 Zn3 2.511481 1_555
S22 Zn44 2.279874 1_455
S22 Zn13 2.468367 1_445
S22 Zn38 2.656869 1_555
S22 Zn16 2.764069 1_545
S22 Zn4 2.786161 1_555
S23 Zn43 2.297437 1_455
S23 Zn34 2.300025 1_555
S23 Zn39 2.395802 1_555
S24 Zn32 2.259401 1_555
S24 Zn39 2.396980 1_555
S24 Zn27 2.443250 1_555
S25 Zn19 2.355443 1_555
S25 Zn38 2.399840 1_565
S25 Zn45 2.416853 1_555
S25 Zn16 2.455649 1_555
S26 Zn15 2.313947 1_555
S26 Zn40 2.316983 1_555
S26 Zn27 2.412150 1_555
S27 Zn10 2.253541 1_555
S27 Zn22 2.313747 1_555
S27 Zn26 2.336204 1_555
S28 Zn3 2.223479 1_555
S28 Zn29 2.324087 1_555
S28 Zn11 2.389389 1_556
S29 S4 2.104519 1_655
S29 Zn44 2.262191 1_555
S29 Zn2 2.299605 1_555
S30 Zn25 2.267947 1_555
S30 Zn48 2.287566 1_555
S30 Zn45 2.379557 1_555
S31 Zn17 2.293939 1_556
S31 Zn47 2.312140 1_455
S31 Zn25 2.362980 1_555
S32 Zn10 2.239115 1_555
S32 Zn14 2.466740 1_555
S32 Zn8 2.484342 1_555
S32 Zn40 2.583931 1_555
S33 S49 2.107607 1_545
S33 Zn18 2.302962 1_655
S34 Zn46 2.263528 1_555
S34 Zn6 2.364852 1_555
S34 Zn28 2.391064 1_565
S34 Zn4 2.518470 1_665
S35 Zn31 2.379129 1_555
S35 Zn32 2.418680 1_555
S35 Zn48 2.423157 1_555
S35 Zn42 2.488485 1_555
S36 Zn19 2.248743 1_555
S36 Zn36 2.269859 1_565
S36 Zn0 2.326271 1_555
S37 Zn46 2.222785 1_555
S37 Zn7 2.226304 1_555
S37 Zn15 2.461975 1_555
S38 Zn29 2.293401 1_555
S38 Zn8 2.384127 1_555
S38 Zn42 2.498961 1_555
S38 Zn14 2.523852 1_555
S39 Zn30 2.214439 1_545
S39 Zn4 2.241465 1_555
S39 Zn39 2.772069 1_555
S40 Zn41 2.212252 1_555
S40 Zn15 2.366956 1_555
S40 Zn27 2.404716 1_555
S41 Zn25 2.362489 1_554
S41 Zn34 2.581652 1_555
S41 Zn17 2.584573 1_555
S42 Zn30 2.273378 1_555
S42 Zn17 2.281196 1_555
S42 Zn35 2.302563 1_555
S43 Zn24 2.243402 1_555
S43 Zn45 2.295446 1_555
S43 Zn38 2.363919 1_565
S44 Zn0 2.330873 1_555
S45 Zn12 2.316912 1_555
S45 Zn47 2.354074 1_554
S45 Zn34 2.392933 1_655
S45 Zn43 2.698428 1_555
S46 Zn42 2.266211 1_555
S46 Zn38 2.282167 1_555
S46 Zn8 2.331539 1_555
S47 Zn44 2.215288 1_555
S47 Zn4 2.319044 1_655
S47 Zn28 2.325289 1_555
S48 Zn5 2.290312 1_555
S48 Zn21 2.316275 1_555
S48 Zn8 2.385427 1_555
S48 Zn0 2.628188 1_545
S49 Zn46 2.352841 1_555
S49 Zn30 2.377115 1_655
S49 Zn17 2.715981 1_655
