# generated using pymatgen
data_La2MgNi2
_symmetry_space_group_name_H-M   'P 1'
_cell_length_a   7.65299600
_cell_length_b   10.98043000
_cell_length_c   10.99046198
_cell_angle_alpha   88.23793285
_cell_angle_beta   90.00000000
_cell_angle_gamma   90.00000000
_symmetry_Int_Tables_number   1
_chemical_formula_structural   La2MgNi2
_chemical_formula_sum   'La16 Mg8 Ni16'
_cell_volume   923.12682654
_cell_formula_units_Z   8
loop_
 _symmetry_equiv_pos_site_id
 _symmetry_equiv_pos_as_xyz
  1  'x, y, z'
loop_
 _atom_site_type_symbol
 _atom_site_label
 _atom_site_symmetry_multiplicity
 _atom_site_fract_x
 _atom_site_fract_y
 _atom_site_fract_z
 _atom_site_occupancy
  La  La0  1  0.82620300  0.83392100  0.17377200  1
  La  La1  1  0.32620300  0.16607900  0.32622800  1
  La  La2  1  0.17379700  0.16607900  0.82622800  1
  La  La3  1  0.67379700  0.83392100  0.67377200  1
  La  La4  1  0.82035200  0.58584300  0.91848600  1
  La  La5  1  0.32035200  0.41415700  0.58151400  1
  La  La6  1  0.17964800  0.41415700  0.08151400  1
  La  La7  1  0.67964800  0.58584300  0.41848600  1
  La  La8  1  0.32625400  0.91122100  0.09446300  1
  La  La9  1  0.82625400  0.08877900  0.40553700  1
  La  La10  1  0.67374600  0.08877900  0.90553700  1
  La  La11  1  0.17374600  0.91122100  0.59446300  1
  La  La12  1  0.17633900  0.66658600  0.34259500  1
  La  La13  1  0.67633900  0.33341400  0.15740500  1
  La  La14  1  0.82366100  0.33341400  0.65740500  1
  La  La15  1  0.32366100  0.66658600  0.84259500  1
  Mg  Mg0  1  0.99716300  0.87356500  0.88740300  1
  Mg  Mg1  1  0.49716300  0.12643500  0.61259700  1
  Mg  Mg2  1  0.00283700  0.12643500  0.11259700  1
  Mg  Mg3  1  0.50283700  0.87356500  0.38740300  1
  Mg  Mg4  1  0.99914200  0.62088100  0.63285000  1
  Mg  Mg5  1  0.49914200  0.37911900  0.86715000  1
  Mg  Mg6  1  0.00085800  0.37911900  0.36715000  1
  Mg  Mg7  1  0.50085800  0.62088100  0.13285000  1
  Ni  Ni0  1  0.63075000  0.82120900  0.94440100  1
  Ni  Ni1  1  0.13075000  0.17879100  0.55559900  1
  Ni  Ni2  1  0.36925000  0.17879100  0.05559900  1
  Ni  Ni3  1  0.86925000  0.82120900  0.44440100  1
  Ni  Ni4  1  0.87176400  0.32095400  0.92597000  1
  Ni  Ni5  1  0.37176400  0.67904600  0.57403000  1
  Ni  Ni6  1  0.12823600  0.67904600  0.07403000  1
  Ni  Ni7  1  0.62823600  0.32095400  0.42597000  1
  Ni  Ni8  1  0.86335900  0.06781200  0.66748200  1
  Ni  Ni9  1  0.36335900  0.93218800  0.83251800  1
  Ni  Ni10  1  0.13664100  0.93218800  0.33251800  1
  Ni  Ni11  1  0.63664100  0.06781200  0.16748200  1
  Ni  Ni12  1  0.62376600  0.56230300  0.68589000  1
  Ni  Ni13  1  0.12376600  0.43769700  0.81411000  1
  Ni  Ni14  1  0.37623400  0.43769700  0.31411000  1
  Ni  Ni15  1  0.87623400  0.56230300  0.18589000  1
loop_
_geom_bond_atom_site_label_1
_geom_bond_atom_site_label_2
_geom_bond_distance
_geom_bond_site_symmetry_2
La0 Ni0 2.938273 1_554
La0 Ni11 2.948595 1_565
La0 Ni3 2.991516 1_555
La0 Ni15 3.005847 1_555
La0 Ni6 3.090498 1_655
La0 Ni10 3.157266 1_655
La0 Mg0 3.423844 1_554
La0 Mg3 3.448076 1_555
La0 Mg7 3.455226 1_555
La0 Mg2 3.530302 1_665
La1 Ni1 2.938273 1_555
La1 Ni10 2.948595 1_545
La1 Ni2 2.991516 1_555
La1 Ni14 3.005847 1_555
La1 Ni7 3.090498 1_555
La1 Ni11 3.157266 1_555
La1 Mg1 3.423844 1_555
La1 Mg2 3.448076 1_555
La1 Mg6 3.455226 1_555
La1 Mg3 3.530302 1_545
La2 Ni2 2.938273 1_556
La2 Ni9 2.948595 1_545
La2 Ni1 2.991516 1_555
La2 Ni13 3.005847 1_555
La2 Ni4 3.090498 1_455
La2 Ni8 3.157266 1_455
La2 Mg2 3.423844 1_556
La2 Mg1 3.448076 1_555
La2 Mg5 3.455226 1_555
La2 Mg0 3.530302 1_445
La3 Ni3 2.938273 1_555
La3 Ni8 2.948595 1_565
La3 Ni0 2.991516 1_555
La3 Ni12 3.005847 1_555
La3 Ni5 3.090498 1_555
La3 Ni9 3.157266 1_555
La3 Mg3 3.423844 1_555
La3 Mg0 3.448076 1_555
La3 Mg4 3.455226 1_555
La3 Mg1 3.530302 1_565
La4 Ni4 2.933732 1_555
La4 Ni15 2.973228 1_556
La4 Ni12 2.984249 1_555
La4 Ni0 2.985144 1_555
La4 Ni13 3.077121 1_655
La4 Ni6 3.103094 1_656
La4 Mg5 3.404770 1_555
La4 Mg7 3.425311 1_556
La4 Mg4 3.435252 1_555
La4 Mg0 3.444205 1_555
La5 Ni5 2.933732 1_555
La5 Ni14 2.973228 1_555
La5 Ni13 2.984249 1_555
La5 Ni1 2.985144 1_555
La5 Ni12 3.077121 1_555
La5 Ni7 3.103094 1_555
La5 Mg4 3.404770 1_455
La5 Mg6 3.425311 1_555
La5 Mg5 3.435252 1_555
La5 Mg1 3.444205 1_555
La6 Ni6 2.933732 1_555
La6 Ni13 2.973228 1_554
La6 Ni14 2.984249 1_555
La6 Ni2 2.985144 1_555
La6 Ni15 3.077121 1_455
La6 Ni4 3.103094 1_454
La6 Mg7 3.404770 1_555
La6 Mg5 3.425311 1_554
La6 Mg6 3.435252 1_555
La6 Mg2 3.444205 1_555
La7 Ni7 2.933732 1_555
La7 Ni12 2.973228 1_555
La7 Ni15 2.984249 1_555
La7 Ni3 2.985144 1_555
La7 Ni14 3.077121 1_555
La7 Ni5 3.103094 1_555
La7 Mg6 3.404770 1_655
La7 Mg4 3.425311 1_555
La7 Mg7 3.435252 1_555
La7 Mg3 3.444205 1_555
La8 Ni9 2.894983 1_554
La8 Ni2 2.974152 1_565
La8 Ni6 2.980187 1_555
La8 Ni10 3.006820 1_555
La8 Ni0 3.037677 1_554
La8 Ni11 3.054149 1_565
La8 Mg0 3.427912 1_454
La8 Mg2 3.432097 1_565
La8 Mg7 3.470524 1_555
La8 Mg3 3.504401 1_555
La9 Ni8 2.894983 1_555
La9 Ni3 2.974152 1_545
La9 Ni7 2.980187 1_555
La9 Ni11 3.006820 1_555
La9 Ni1 3.037677 1_655
La9 Ni10 3.054149 1_645
La9 Mg1 3.427912 1_555
La9 Mg3 3.432097 1_545
La9 Mg6 3.470524 1_655
La9 Mg2 3.504401 1_655
La10 Ni11 2.894983 1_556
La10 Ni0 2.974152 1_545
La10 Ni4 2.980187 1_555
La10 Ni8 3.006820 1_555
La10 Ni2 3.037677 1_556
La10 Ni9 3.054149 1_545
La10 Mg2 3.427912 1_656
La10 Mg0 3.432097 1_545
La10 Mg5 3.470524 1_555
La10 Mg1 3.504401 1_555
La11 Ni10 2.894983 1_555
La11 Ni1 2.974152 1_565
La11 Ni5 2.980187 1_555
La11 Ni9 3.006820 1_555
La11 Ni3 3.037677 1_455
La11 Ni8 3.054149 1_465
La11 Mg3 3.427912 1_555
La11 Mg1 3.432097 1_565
La11 Mg4 3.470524 1_455
La11 Mg0 3.504401 1_455
La12 Ni10 2.930910 1_555
La12 Ni5 2.957480 1_555
La12 Ni14 2.967043 1_555
La12 Ni6 2.973493 1_555
La12 Ni15 3.110224 1_455
La12 Ni3 3.126432 1_455
La12 Mg3 3.423454 1_555
La12 Mg6 3.433298 1_555
La12 Mg7 3.435828 1_555
La12 Mg4 3.488369 1_455
La13 Ni11 2.930910 1_555
La13 Ni4 2.957480 1_554
La13 Ni15 2.967043 1_555
La13 Ni7 2.973493 1_555
La13 Ni14 3.110224 1_555
La13 Ni2 3.126432 1_555
La13 Mg2 3.423454 1_655
La13 Mg7 3.433298 1_555
La13 Mg6 3.435828 1_655
La13 Mg5 3.488369 1_554
La14 Ni8 2.930910 1_555
La14 Ni7 2.957480 1_555
La14 Ni12 2.967043 1_555
La14 Ni4 2.973493 1_555
La14 Ni13 3.110224 1_655
La14 Ni1 3.126432 1_655
La14 Mg1 3.423454 1_555
La14 Mg4 3.433298 1_555
La14 Mg5 3.435828 1_555
La14 Mg6 3.488369 1_655
La15 Ni9 2.930910 1_555
La15 Ni6 2.957480 1_556
La15 Ni13 2.967043 1_555
La15 Ni5 2.973493 1_555
La15 Ni12 3.110224 1_555
La15 Ni0 3.126432 1_555
La15 Mg0 3.423454 1_455
La15 Mg5 3.433298 1_555
La15 Mg4 3.435828 1_455
La15 Mg7 3.488369 1_556
Mg0 Ni0 2.926443 1_555
Mg0 Ni9 2.933995 1_655
Mg0 Ni6 3.083172 1_656
Mg0 Ni8 3.335104 1_565
Mg1 Ni1 2.926443 1_555
Mg1 Ni8 2.933995 1_555
Mg1 Ni7 3.083172 1_555
Mg1 Ni9 3.335104 1_545
Mg2 Ni2 2.926443 1_555
Mg2 Ni11 2.933995 1_455
Mg2 Ni4 3.083172 1_454
Mg2 Ni10 3.335104 1_545
Mg3 Ni3 2.926443 1_555
Mg3 Ni10 2.933995 1_555
Mg3 Ni5 3.083172 1_555
Mg3 Ni11 3.335104 1_565
Mg4 Ni13 2.945790 1_655
Mg4 Ni5 2.988725 1_655
Mg4 Ni12 2.997194 1_555
Mg4 Ni3 3.136278 1_555
Mg5 Ni12 2.945790 1_555
Mg5 Ni4 2.988725 1_555
Mg5 Ni13 2.997194 1_555
Mg5 Ni2 3.136278 1_556
Mg6 Ni15 2.945790 1_455
Mg6 Ni7 2.988725 1_455
Mg6 Ni14 2.997194 1_555
Mg6 Ni1 3.136278 1_555
Mg7 Ni14 2.945790 1_555
Mg7 Ni6 2.988725 1_555
Mg7 Ni15 2.997194 1_555
Mg7 Ni0 3.136278 1_554
Ni0 Ni9 2.663151 1_555
Ni1 Ni8 2.663151 1_455
Ni10 Ni3 2.663151 1_455
Ni11 Ni2 2.663151 1_555
Ni12 Ni5 2.603288 1_555
Ni13 Ni4 2.603288 1_455
Ni14 Ni7 2.603288 1_555
Ni15 Ni6 2.603288 1_655
