# generated using pymatgen
data_Ca3B5W8Cl2O13
_symmetry_space_group_name_H-M   'P 1'
_cell_length_a   9.03315800
_cell_length_b   8.66344000
_cell_length_c   16.31657526
_cell_angle_alpha   63.65474013
_cell_angle_beta   90.00000000
_cell_angle_gamma   90.00000000
_symmetry_Int_Tables_number   1
_chemical_formula_structural   Ca3B5W8Cl2O13
_chemical_formula_sum   'Ca6 B10 W16 Cl4 O26'
_cell_volume   1144.28178831
_cell_formula_units_Z   2
loop_
 _symmetry_equiv_pos_site_id
 _symmetry_equiv_pos_as_xyz
  1  'x, y, z'
loop_
 _atom_site_type_symbol
 _atom_site_label
 _atom_site_symmetry_multiplicity
 _atom_site_fract_x
 _atom_site_fract_y
 _atom_site_fract_z
 _atom_site_occupancy
  Ca  Ca0  1  0.87298000  0.06376500  0.98919200  1
  Ca  Ca1  1  0.12702000  0.06376500  0.48919200  1
  Ca  Ca2  1  0.95624800  0.26521300  0.59825600  1
  Ca  Ca3  1  0.04375200  0.26521300  0.09825600  1
  Ca  Ca4  1  0.04111800  0.77924400  0.73105500  1
  Ca  Ca5  1  0.95888200  0.77924400  0.23105500  1
  B  B0  1  0.04106400  0.43668500  0.91276300  1
  B  B1  1  0.95893600  0.43668500  0.41276300  1
  B  B2  1  0.01675800  0.59151300  0.62394500  1
  B  B3  1  0.98324200  0.59151300  0.12394500  1
  B  B4  1  0.01996900  0.01570200  0.33499100  1
  B  B5  1  0.98003100  0.01570200  0.83499100  1
  B  B6  1  0.03472200  0.34092200  0.78408800  1
  B  B7  1  0.96527800  0.34092200  0.28408800  1
  B  B8  1  0.99744400  0.69231900  0.94870900  1
  B  B9  1  0.00255600  0.69231900  0.44870900  1
  W  W0  1  0.67402900  0.03149500  0.75216400  1
  W  W1  1  0.32597100  0.03149500  0.25216400  1
  W  W2  1  0.50366300  0.97681900  0.62034100  1
  W  W3  1  0.49633700  0.97681900  0.12034100  1
  W  W4  1  0.61361700  0.28244300  0.50356200  1
  W  W5  1  0.38638300  0.28244300  0.00356200  1
  W  W6  1  0.37227600  0.70672800  0.61106800  1
  W  W7  1  0.62772400  0.70672800  0.11106800  1
  W  W8  1  0.60422200  0.81498800  0.30567400  1
  W  W9  1  0.39577800  0.81498800  0.80567400  1
  W  W10  1  0.34313900  0.17374600  0.68374700  1
  W  W11  1  0.65686100  0.17374600  0.18374700  1
  W  W12  1  0.50459400  0.00384900  0.93722200  1
  W  W13  1  0.49540600  0.00384900  0.43722200  1
  W  W14  1  0.77215100  0.87771600  0.58504300  1
  W  W15  1  0.22784900  0.87771600  0.08504300  1
  Cl  Cl0  1  0.53245700  0.56612000  0.91671400  1
  Cl  Cl1  1  0.46754300  0.56612000  0.41671400  1
  Cl  Cl2  1  0.43613000  0.40319700  0.72670900  1
  Cl  Cl3  1  0.56387000  0.40319700  0.22670900  1
  O  O0  1  0.81239400  0.39269500  0.46327600  1
  O  O1  1  0.18760600  0.39269500  0.96327600  1
  O  O2  1  0.92655100  0.32645700  0.96458700  1
  O  O3  1  0.07344900  0.32645700  0.46458700  1
  O  O4  1  0.99798600  0.57745600  0.03816000  1
  O  O5  1  0.00201400  0.57745600  0.53816000  1
  O  O6  1  0.78585000  0.97379000  0.26263200  1
  O  O7  1  0.21415000  0.97379000  0.76263200  1
  O  O8  1  0.01237400  0.63224200  0.88548400  1
  O  O9  1  0.98762600  0.63224200  0.38548400  1
  O  O10  1  0.87761100  0.65480500  0.64767600  1
  O  O11  1  0.12238900  0.65480500  0.14767600  1
  O  O12  1  0.05196200  0.00194100  0.09379700  1
  O  O13  1  0.94803800  0.00194100  0.59379700  1
  O  O14  1  0.03228800  0.39623800  0.69139000  1
  O  O15  1  0.96771200  0.39623800  0.19139000  1
  O  O16  1  0.85843700  0.69491100  0.12555300  1
  O  O17  1  0.14156300  0.69491100  0.62555300  1
  O  O18  1  0.91263700  0.01603200  0.76066800  1
  O  O19  1  0.08736300  0.01603200  0.26066800  1
  O  O20  1  0.06112500  0.45464600  0.81812800  1
  O  O21  1  0.93887500  0.45464600  0.31812800  1
  O  O22  1  0.01367200  0.16508400  0.84457600  1
  O  O23  1  0.98632800  0.16508400  0.34457600  1
  O  O24  1  0.98862300  0.87163700  0.92173100  1
  O  O25  1  0.01137700  0.87163700  0.42173100  1
loop_
_geom_bond_atom_site_label_1
_geom_bond_atom_site_label_2
_geom_bond_distance
_geom_bond_site_symmetry_2
Ca0 O2 2.182603 1_555
Ca0 O12 2.236649 1_656
Ca0 O22 2.472895 1_655
Ca0 O24 2.588343 1_545
Ca0 W12 3.528836 1_555
Ca0 W3 3.910423 1_546
Ca1 O3 2.182603 1_555
Ca1 O13 2.236649 1_455
Ca1 O23 2.472895 1_455
Ca1 O25 2.588343 1_545
Ca1 W13 3.528836 1_555
Ca1 W2 3.910423 1_545
Ca2 O3 2.265416 1_655
Ca2 O13 2.315235 1_555
Ca2 O0 2.366445 1_555
Ca2 O14 2.366559 1_655
Ca2 O5 2.468948 1_655
Ca2 O18 2.600097 1_555
Ca3 O2 2.265416 1_454
Ca3 O12 2.315235 1_555
Ca3 O1 2.366445 1_554
Ca3 O15 2.366559 1_455
Ca3 O4 2.468948 1_455
Ca3 O19 2.600097 1_555
Ca4 O8 2.278222 1_555
Ca4 O17 2.331665 1_555
Ca4 O13 2.368530 1_465
Ca4 O7 2.513951 1_555
Ca4 O20 2.532428 1_555
Ca4 O10 2.548789 1_455
Ca4 O18 2.582328 1_465
Ca5 O9 2.278222 1_555
Ca5 O16 2.331665 1_555
Ca5 O12 2.368530 1_665
Ca5 O6 2.513951 1_555
Ca5 O21 2.532428 1_555
Ca5 O11 2.548789 1_655
Ca5 O19 2.582328 1_665
B0 O2 1.407220 1_455
B0 O20 1.492682 1_555
B0 O1 1.515928 1_555
B0 O8 1.570441 1_555
B1 O3 1.407220 1_655
B1 O21 1.492682 1_555
B1 O0 1.515928 1_555
B1 O9 1.570441 1_555
B2 O17 1.447400 1_555
B2 O5 1.463923 1_555
B2 O10 1.489606 1_455
B2 O14 1.562164 1_555
B3 O16 1.447400 1_555
B3 O4 1.463923 1_555
B3 O11 1.489606 1_655
B3 O15 1.562164 1_555
B4 O19 1.355794 1_555
B4 O23 1.404031 1_455
B4 O25 1.413872 1_545
B5 O18 1.355794 1_555
B5 O22 1.404031 1_655
B5 O24 1.413872 1_545
B6 O20 1.349726 1_555
B6 O14 1.369126 1_555
B6 O22 1.412952 1_555
B7 O21 1.349726 1_555
B7 O15 1.369126 1_555
B7 O23 1.412952 1_555
B8 O8 1.352726 1_655
B8 O4 1.353299 1_556
B8 O24 1.416533 1_555
B9 O9 1.352726 1_455
B9 O5 1.353299 1_555
B9 O25 1.416533 1_555
W0 W2 2.850153 1_545
W0 W12 3.297798 1_555
W1 W3 2.850153 1_545
W1 W13 3.297798 1_555
W2 W4 2.673940 1_565
W2 W6 2.687177 1_555
W2 W9 2.880448 1_555
W3 W5 2.673940 1_565
W3 W7 2.687177 1_555
W3 W8 2.880448 1_555
W10 W2 2.765896 1_545
W11 W3 2.765896 1_545
W12 W3 2.892541 1_546
W12 W7 3.070602 1_546
W12 W5 3.233589 1_556
W12 W15 3.304791 1_546
W12 W9 3.371562 1_545
W13 W2 2.892541 1_545
W13 W6 3.070602 1_545
W13 W4 3.233589 1_555
W13 W14 3.304791 1_545
W13 W8 3.371562 1_545
W14 W2 2.718418 1_555
W15 W3 2.718418 1_555
Cl0 W9 2.447123 1_555
Cl0 W5 2.588059 1_556
Cl1 W8 2.447123 1_555
Cl1 W4 2.588059 1_555
Cl2 W10 2.526907 1_555
Cl2 W6 2.530620 1_555
Cl3 W11 2.526907 1_555
Cl3 W7 2.530620 1_555
O0 W4 2.002818 1_555
O1 W5 2.002818 1_556
O6 W11 2.009040 1_565
O6 W8 2.054318 1_555
O7 W10 2.009040 1_565
O7 W9 2.054318 1_555
O10 W14 1.982344 1_555
O11 W15 1.982344 1_555
O12 W15 1.959442 1_545
O13 W14 1.959442 1_545
O16 W7 2.094803 1_555
O17 W6 2.094803 1_555
O18 W0 2.160181 1_555
O19 W1 2.160181 1_555
