# generated using pymatgen
data_UMo
_symmetry_space_group_name_H-M   'P 1'
_cell_length_a   10.30286820
_cell_length_b   6.04016000
_cell_length_c   19.97512050
_cell_angle_alpha   90.00000000
_cell_angle_beta   90.05365595
_cell_angle_gamma   90.00000000
_symmetry_Int_Tables_number   1
_chemical_formula_structural   UMo
_chemical_formula_sum   'U32 Mo32'
_cell_volume   1243.07062753
_cell_formula_units_Z   32
loop_
 _symmetry_equiv_pos_site_id
 _symmetry_equiv_pos_as_xyz
  1  'x, y, z'
loop_
 _atom_site_type_symbol
 _atom_site_label
 _atom_site_symmetry_multiplicity
 _atom_site_fract_x
 _atom_site_fract_y
 _atom_site_fract_z
 _atom_site_occupancy
  U  U0_0  1  0.12508300  0.21155100  0.17075050  1
  U  U0_1  1  0.12508300  0.21155100  0.67075050  1
  U  U0_2  1  0.12508300  0.71155100  0.17075050  1
  U  U0_3  1  0.12508300  0.71155100  0.67075050  1
  U  U0_4  1  0.62508300  0.21155100  0.17075050  1
  U  U0_5  1  0.62508300  0.21155100  0.67075050  1
  U  U0_6  1  0.62508300  0.71155100  0.17075050  1
  U  U0_7  1  0.62508300  0.71155100  0.67075050  1
  U  U1_0  1  0.37491700  0.46155100  0.07924950  1
  U  U1_1  1  0.37491700  0.46155100  0.57924950  1
  U  U1_2  1  0.37491700  0.96155100  0.07924950  1
  U  U1_3  1  0.37491700  0.96155100  0.57924950  1
  U  U1_4  1  0.87491700  0.46155100  0.07924950  1
  U  U1_5  1  0.87491700  0.46155100  0.57924950  1
  U  U1_6  1  0.87491700  0.96155100  0.07924950  1
  U  U1_7  1  0.87491700  0.96155100  0.57924950  1
  U  U2_0  1  0.37491700  0.28844900  0.32924950  1
  U  U2_1  1  0.37491700  0.28844900  0.82924950  1
  U  U2_2  1  0.37491700  0.78844900  0.32924950  1
  U  U2_3  1  0.37491700  0.78844900  0.82924950  1
  U  U2_4  1  0.87491700  0.28844900  0.32924950  1
  U  U2_5  1  0.87491700  0.28844900  0.82924950  1
  U  U2_6  1  0.87491700  0.78844900  0.32924950  1
  U  U2_7  1  0.87491700  0.78844900  0.82924950  1
  U  U3_0  1  0.12508300  0.03844900  0.42075050  1
  U  U3_1  1  0.12508300  0.03844900  0.92075050  1
  U  U3_2  1  0.12508300  0.53844900  0.42075050  1
  U  U3_3  1  0.12508300  0.53844900  0.92075050  1
  U  U3_4  1  0.62508300  0.03844900  0.42075050  1
  U  U3_5  1  0.62508300  0.03844900  0.92075050  1
  U  U3_6  1  0.62508300  0.53844900  0.42075050  1
  U  U3_7  1  0.62508300  0.53844900  0.92075050  1
  Mo  Mo0_0  1  0.37509200  0.19780250  0.45147550  1
  Mo  Mo0_1  1  0.37509200  0.19780250  0.95147550  1
  Mo  Mo0_2  1  0.37509200  0.69780250  0.45147550  1
  Mo  Mo0_3  1  0.37509200  0.69780250  0.95147550  1
  Mo  Mo0_4  1  0.87509200  0.19780250  0.45147550  1
  Mo  Mo0_5  1  0.87509200  0.19780250  0.95147550  1
  Mo  Mo0_6  1  0.87509200  0.69780250  0.45147550  1
  Mo  Mo0_7  1  0.87509200  0.69780250  0.95147550  1
  Mo  Mo1_0  1  0.12490800  0.44780250  0.29852450  1
  Mo  Mo1_1  1  0.12490800  0.44780250  0.79852450  1
  Mo  Mo1_2  1  0.12490800  0.94780250  0.29852450  1
  Mo  Mo1_3  1  0.12490800  0.94780250  0.79852450  1
  Mo  Mo1_4  1  0.62490800  0.44780250  0.29852450  1
  Mo  Mo1_5  1  0.62490800  0.44780250  0.79852450  1
  Mo  Mo1_6  1  0.62490800  0.94780250  0.29852450  1
  Mo  Mo1_7  1  0.62490800  0.94780250  0.79852450  1
  Mo  Mo2_0  1  0.12490800  0.30219750  0.04852450  1
  Mo  Mo2_1  1  0.12490800  0.30219750  0.54852450  1
  Mo  Mo2_2  1  0.12490800  0.80219750  0.04852450  1
  Mo  Mo2_3  1  0.12490800  0.80219750  0.54852450  1
  Mo  Mo2_4  1  0.62490800  0.30219750  0.04852450  1
  Mo  Mo2_5  1  0.62490800  0.30219750  0.54852450  1
  Mo  Mo2_6  1  0.62490800  0.80219750  0.04852450  1
  Mo  Mo2_7  1  0.62490800  0.80219750  0.54852450  1
  Mo  Mo3_0  1  0.37509200  0.05219750  0.20147550  1
  Mo  Mo3_1  1  0.37509200  0.05219750  0.70147550  1
  Mo  Mo3_2  1  0.37509200  0.55219750  0.20147550  1
  Mo  Mo3_3  1  0.37509200  0.55219750  0.70147550  1
  Mo  Mo3_4  1  0.87509200  0.05219750  0.20147550  1
  Mo  Mo3_5  1  0.87509200  0.05219750  0.70147550  1
  Mo  Mo3_6  1  0.87509200  0.55219750  0.20147550  1
  Mo  Mo3_7  1  0.87509200  0.55219750  0.70147550  1
loop_
_geom_bond_atom_site_label_1
_geom_bond_atom_site_label_2
_geom_bond_distance
_geom_bond_site_symmetry_2
U0_0 U0_2 3.020080 1_555
U0_0 U0_2 3.020080 1_545
U0_1 U0_3 3.020080 1_555
U0_1 U0_3 3.020080 1_545
U0_4 U0_6 3.020080 1_555
U0_4 U0_6 3.020080 1_545
U0_5 U0_7 3.020080 1_555
U0_5 U0_7 3.020080 1_545
U1_0 U1_2 3.020080 1_555
U1_0 U1_2 3.020080 1_545
U1_1 U1_3 3.020080 1_555
U1_1 U1_3 3.020080 1_545
U1_4 U1_6 3.020080 1_555
U1_4 U1_6 3.020080 1_545
U1_5 U1_7 3.020080 1_555
U1_5 U1_7 3.020080 1_545
U2_0 U2_2 3.020080 1_555
U2_0 U2_2 3.020080 1_545
U2_1 U2_3 3.020080 1_555
U2_1 U2_3 3.020080 1_545
U2_4 U2_6 3.020080 1_555
U2_4 U2_6 3.020080 1_545
U2_5 U2_7 3.020080 1_555
U2_5 U2_7 3.020080 1_545
U3_0 U3_2 3.020080 1_555
U3_0 U3_2 3.020080 1_545
U3_1 U3_3 3.020080 1_555
U3_1 U3_3 3.020080 1_545
U3_4 U3_6 3.020080 1_555
U3_4 U3_6 3.020080 1_545
U3_5 U3_7 3.020080 1_555
U3_5 U3_7 3.020080 1_545
Mo0_0 U2_0 2.502118 1_555
Mo0_0 U3_0 2.816905 1_555
Mo0_0 U3_4 2.817786 1_555
Mo0_0 U1_3 2.924136 1_545
Mo0_0 U1_1 3.008682 1_555
Mo0_0 Mo0_2 3.020080 1_545
Mo0_0 Mo0_2 3.020080 1_555
Mo0_1 U2_1 2.502118 1_555
Mo0_1 U3_1 2.816905 1_555
Mo0_1 U3_5 2.817786 1_555
Mo0_1 U1_2 2.924136 1_546
Mo0_1 U1_0 3.008682 1_556
Mo0_1 Mo0_3 3.020080 1_545
Mo0_1 Mo0_3 3.020080 1_555
Mo0_2 U2_2 2.502118 1_555
Mo0_2 U3_2 2.816905 1_555
Mo0_2 U3_6 2.817786 1_555
Mo0_2 U1_1 2.924136 1_555
Mo0_2 U1_3 3.008682 1_555
Mo0_3 U2_3 2.502118 1_555
Mo0_3 U3_3 2.816905 1_555
Mo0_3 U3_7 2.817786 1_555
Mo0_3 U1_0 2.924136 1_556
Mo0_3 U1_2 3.008682 1_556
Mo0_4 U2_4 2.502118 1_555
Mo0_4 U3_4 2.816905 1_555
Mo0_4 U3_0 2.817786 1_655
Mo0_4 U1_7 2.924136 1_545
Mo0_4 U1_5 3.008682 1_555
Mo0_4 Mo0_6 3.020080 1_545
Mo0_4 Mo0_6 3.020080 1_555
Mo0_5 U2_5 2.502118 1_555
Mo0_5 U3_5 2.816905 1_555
Mo0_5 U3_1 2.817786 1_655
Mo0_5 U1_6 2.924136 1_546
Mo0_5 U1_4 3.008682 1_556
Mo0_5 Mo0_7 3.020080 1_545
Mo0_5 Mo0_7 3.020080 1_555
Mo0_6 U2_6 2.502118 1_555
Mo0_6 U3_6 2.816905 1_555
Mo0_6 U3_2 2.817786 1_655
Mo0_6 U1_5 2.924136 1_555
Mo0_6 U1_7 3.008682 1_555
Mo0_7 U2_7 2.502118 1_555
Mo0_7 U3_7 2.816905 1_555
Mo0_7 U3_3 2.817786 1_655
Mo0_7 U1_4 2.924136 1_556
Mo0_7 U1_6 3.008682 1_556
Mo1_0 U3_2 2.502118 1_555
Mo1_0 U2_0 2.816905 1_555
Mo1_0 U2_4 2.817786 1_455
Mo1_0 U0_0 2.924136 1_555
Mo1_0 U0_2 3.008682 1_555
Mo1_0 Mo1_2 3.020080 1_555
Mo1_0 Mo1_2 3.020080 1_545
Mo1_1 U3_3 2.502118 1_555
Mo1_1 U2_1 2.816905 1_555
Mo1_1 U2_5 2.817786 1_455
Mo1_1 U0_1 2.924136 1_555
Mo1_1 U0_3 3.008682 1_555
Mo1_1 Mo1_3 3.020080 1_545
Mo1_1 Mo1_3 3.020080 1_555
Mo1_2 U3_0 2.502118 1_565
Mo1_2 U2_2 2.816905 1_555
Mo1_2 U2_6 2.817786 1_455
Mo1_2 U0_2 2.924136 1_555
Mo1_2 U0_0 3.008682 1_565
Mo1_3 U3_1 2.502118 1_565
Mo1_3 U2_3 2.816905 1_555
Mo1_3 U2_7 2.817786 1_455
Mo1_3 U0_3 2.924136 1_555
Mo1_3 U0_1 3.008682 1_565
Mo1_4 U3_6 2.502118 1_555
Mo1_4 U2_4 2.816905 1_555
Mo1_4 U2_0 2.817786 1_555
Mo1_4 U0_4 2.924136 1_555
Mo1_4 U0_6 3.008682 1_555
Mo1_4 Mo1_6 3.020080 1_545
Mo1_4 Mo1_6 3.020080 1_555
Mo1_5 U3_7 2.502118 1_555
Mo1_5 U2_5 2.816905 1_555
Mo1_5 U2_1 2.817786 1_555
Mo1_5 U0_5 2.924136 1_555
Mo1_5 U0_7 3.008682 1_555
Mo1_5 Mo1_7 3.020080 1_545
Mo1_5 Mo1_7 3.020080 1_555
Mo1_6 U3_4 2.502118 1_565
Mo1_6 U2_6 2.816905 1_555
Mo1_6 U2_2 2.817786 1_555
Mo1_6 U0_6 2.924136 1_555
Mo1_6 U0_4 3.008682 1_565
Mo1_7 U3_5 2.502118 1_565
Mo1_7 U2_7 2.816905 1_555
Mo1_7 U2_3 2.817786 1_555
Mo1_7 U0_7 2.924136 1_555
Mo1_7 U0_5 3.008682 1_565
Mo2_0 U0_0 2.502118 1_555
Mo2_0 U1_0 2.816905 1_555
Mo2_0 U1_4 2.817786 1_455
Mo2_0 U3_3 2.924136 1_554
Mo2_0 U3_1 3.008682 1_554
Mo2_0 Mo2_2 3.020080 1_545
Mo2_0 Mo2_2 3.020080 1_555
Mo2_1 U0_1 2.502118 1_555
Mo2_1 U1_1 2.816905 1_555
Mo2_1 U1_5 2.817786 1_455
Mo2_1 U3_2 2.924136 1_555
Mo2_1 U3_0 3.008682 1_555
Mo2_1 Mo2_3 3.020080 1_545
Mo2_1 Mo2_3 3.020080 1_555
Mo2_2 U0_2 2.502118 1_555
Mo2_2 U1_2 2.816905 1_555
Mo2_2 U1_6 2.817786 1_455
Mo2_2 U3_1 2.924136 1_564
Mo2_2 U3_3 3.008682 1_554
Mo2_3 U0_3 2.502118 1_555
Mo2_3 U1_3 2.816905 1_555
Mo2_3 U1_7 2.817786 1_455
Mo2_3 U3_0 2.924136 1_565
Mo2_3 U3_2 3.008682 1_555
Mo2_4 U0_4 2.502118 1_555
Mo2_4 U1_4 2.816905 1_555
Mo2_4 U1_0 2.817786 1_555
Mo2_4 U3_7 2.924136 1_554
Mo2_4 U3_5 3.008682 1_554
Mo2_4 Mo2_6 3.020080 1_555
Mo2_4 Mo2_6 3.020080 1_545
Mo2_5 U0_5 2.502118 1_555
Mo2_5 U1_5 2.816905 1_555
Mo2_5 U1_1 2.817786 1_555
Mo2_5 U3_6 2.924136 1_555
Mo2_5 U3_4 3.008682 1_555
Mo2_5 Mo2_7 3.020080 1_555
Mo2_5 Mo2_7 3.020080 1_545
Mo2_6 U0_6 2.502118 1_555
Mo2_6 U1_6 2.816905 1_555
Mo2_6 U1_2 2.817786 1_555
Mo2_6 U3_5 2.924136 1_564
Mo2_6 U3_7 3.008682 1_554
Mo2_7 U0_7 2.502118 1_555
Mo2_7 U1_7 2.816905 1_555
Mo2_7 U1_3 2.817786 1_555
Mo2_7 U3_4 2.924136 1_565
Mo2_7 U3_6 3.008682 1_555
Mo3_0 U1_2 2.502118 1_545
Mo3_0 U0_0 2.816905 1_555
Mo3_0 U0_4 2.817786 1_555
Mo3_0 U2_0 2.924136 1_555
Mo3_0 U2_2 3.008682 1_545
Mo3_0 Mo3_2 3.020080 1_555
Mo3_0 Mo3_2 3.020080 1_545
Mo3_1 U1_3 2.502118 1_545
Mo3_1 U0_1 2.816905 1_555
Mo3_1 U0_5 2.817786 1_555
Mo3_1 U2_1 2.924136 1_555
Mo3_1 U2_3 3.008682 1_545
Mo3_1 Mo3_3 3.020080 1_545
Mo3_1 Mo3_3 3.020080 1_555
Mo3_2 U1_0 2.502118 1_555
Mo3_2 U0_2 2.816905 1_555
Mo3_2 U0_6 2.817786 1_555
Mo3_2 U2_2 2.924136 1_555
Mo3_2 U2_0 3.008682 1_555
Mo3_3 U1_1 2.502118 1_555
Mo3_3 U0_3 2.816905 1_555
Mo3_3 U0_7 2.817786 1_555
Mo3_3 U2_3 2.924136 1_555
Mo3_3 U2_1 3.008682 1_555
Mo3_4 U1_6 2.502118 1_545
Mo3_4 U0_4 2.816905 1_555
Mo3_4 U0_0 2.817786 1_655
Mo3_4 U2_4 2.924136 1_555
Mo3_4 U2_6 3.008682 1_545
Mo3_4 Mo3_6 3.020080 1_545
Mo3_4 Mo3_6 3.020080 1_555
Mo3_5 U1_7 2.502118 1_545
Mo3_5 U0_5 2.816905 1_555
Mo3_5 U0_1 2.817786 1_655
Mo3_5 U2_5 2.924136 1_555
Mo3_5 U2_7 3.008682 1_545
Mo3_5 Mo3_7 3.020080 1_555
Mo3_5 Mo3_7 3.020080 1_545
Mo3_6 U1_4 2.502118 1_555
Mo3_6 U0_6 2.816905 1_555
Mo3_6 U0_2 2.817786 1_655
Mo3_6 U2_6 2.924136 1_555
Mo3_6 U2_4 3.008682 1_555
Mo3_7 U1_5 2.502118 1_555
Mo3_7 U0_7 2.816905 1_555
Mo3_7 U0_3 2.817786 1_655
Mo3_7 U2_7 2.924136 1_555
Mo3_7 U2_5 3.008682 1_555
