# generated using pymatgen
data_LuZn2
_symmetry_space_group_name_H-M   'P 1'
_cell_length_a   4.36661548
_cell_length_b   5.50466197
_cell_length_c   5.50466197
_cell_angle_alpha   76.35170746
_cell_angle_beta   66.63239414
_cell_angle_gamma   66.63239414
_symmetry_Int_Tables_number   1
_chemical_formula_structural   LuZn2
_chemical_formula_sum   'Lu2 Zn4'
_cell_volume   111.01255031
_cell_formula_units_Z   2
loop_
 _symmetry_equiv_pos_site_id
 _symmetry_equiv_pos_as_xyz
  1  'x, y, z'
loop_
 _atom_site_type_symbol
 _atom_site_label
 _atom_site_symmetry_multiplicity
 _atom_site_fract_x
 _atom_site_fract_y
 _atom_site_fract_z
 _atom_site_occupancy
  Lu  Lu0  1  0.47271143  0.27728857  0.77728857  1
  Lu  Lu1  1  0.52728857  0.72271143  0.22271143  1
  Zn  Zn0  1  0.83397579  0.12560653  0.20643989  1
  Zn  Zn1  1  0.16602421  0.87439347  0.79356011  1
  Zn  Zn2  1  0.83397579  0.70643989  0.62560653  1
  Zn  Zn3  1  0.16602421  0.29356011  0.37439347  1
loop_
_geom_bond_atom_site_label_1
_geom_bond_atom_site_label_2
_geom_bond_distance
_geom_bond_site_symmetry_2
Lu0 Zn1 2.981140 1_545
Lu0 Zn3 2.981140 1_555
Lu0 Zn3 2.981146 1_655
Lu0 Zn1 2.981146 1_645
Lu0 Zn3 3.026050 1_556
Lu0 Zn1 3.026050 1_555
Lu0 Zn2 3.053039 1_545
Lu0 Zn0 3.053039 1_555
Lu0 Zn0 3.121978 1_556
Lu0 Zn2 3.121978 1_555
Lu0 Zn0 3.121984 1_456
Lu0 Zn2 3.121984 1_455
Lu0 Lu1 3.426660 1_546
Lu0 Lu1 3.426660 1_555
Lu1 Zn2 2.981140 1_555
Lu1 Zn0 2.981140 1_565
Lu1 Zn2 2.981146 1_455
Lu1 Zn0 2.981146 1_465
Lu1 Zn2 3.026050 1_554
Lu1 Zn0 3.026050 1_555
Lu1 Zn1 3.053039 1_555
Lu1 Zn3 3.053039 1_565
Lu1 Zn3 3.121978 1_555
Lu1 Zn1 3.121978 1_554
Lu1 Zn1 3.121984 1_654
Lu1 Zn3 3.121984 1_655
Zn0 Zn3 2.518296 1_555
Zn0 Zn3 2.518311 1_655
Zn0 Zn1 2.541385 1_644
Zn0 Zn2 2.852266 1_545
Zn1 Zn2 2.518296 1_555
Zn1 Zn2 2.518311 1_455
Zn1 Zn3 2.852266 1_565
Zn2 Zn3 2.541385 1_655
