# generated using pymatgen
data_Ce2CoSi3
_symmetry_space_group_name_H-M   'P 1'
_cell_length_a   4.05404529
_cell_length_b   4.05404529
_cell_length_c   8.11965700
_cell_angle_alpha   90.00000000
_cell_angle_beta   90.00000000
_cell_angle_gamma   119.99998835
_symmetry_Int_Tables_number   1
_chemical_formula_structural   Ce2CoSi3
_chemical_formula_sum   'Ce2 Co1 Si3'
_cell_volume   115.57011829
_cell_formula_units_Z   1
loop_
 _symmetry_equiv_pos_site_id
 _symmetry_equiv_pos_as_xyz
  1  'x, y, z'
loop_
 _atom_site_type_symbol
 _atom_site_label
 _atom_site_symmetry_multiplicity
 _atom_site_fract_x
 _atom_site_fract_y
 _atom_site_fract_z
 _atom_site_occupancy
  Ce  Ce0  1  0.66666700  0.33333300  0.23765100  1
  Ce  Ce1  1  0.66666700  0.33333300  0.76234900  1
  Co  Co0  1  0.00000000  0.00000000  0.00000000  1
  Si  Si0  1  0.00000000  0.00000000  0.50000000  1
  Si  Si1  1  0.33333300  0.66666700  0.00000000  1
  Si  Si2  1  0.33333300  0.66666700  0.50000000  1
loop_
_geom_bond_atom_site_label_1
_geom_bond_atom_site_label_2
_geom_bond_distance
_geom_bond_site_symmetry_2
Ce0 Co0 3.033471 1_655
Ce0 Si1 3.033471 1_545
Ce0 Si1 3.033471 1_655
Ce0 Co0 3.033474 1_665
Ce0 Co0 3.033474 1_555
Ce0 Si1 3.033476 1_555
Ce0 Si0 3.164822 1_655
Ce0 Si2 3.164823 1_545
Ce0 Si2 3.164823 1_655
Ce0 Si0 3.164825 1_665
Ce0 Si0 3.164825 1_555
Ce0 Si2 3.164827 1_555
Ce1 Co0 3.033471 1_656
Ce1 Si1 3.033471 1_546
Ce1 Si1 3.033471 1_656
Ce1 Co0 3.033474 1_666
Ce1 Co0 3.033474 1_556
Ce1 Si1 3.033476 1_556
Ce1 Si0 3.164822 1_655
Ce1 Si2 3.164823 1_545
Ce1 Si2 3.164823 1_655
Ce1 Si0 3.164825 1_665
Ce1 Si0 3.164825 1_555
Ce1 Si2 3.164827 1_555
Co0 Si1 2.340602 1_545
Co0 Si1 2.340606 1_555
Co0 Si1 2.340606 1_445
Si0 Si2 2.340602 1_545
Si0 Si2 2.340606 1_555
Si0 Si2 2.340606 1_445
