# generated using pymatgen
data_Ba3Sr(Cu2O5)2
_symmetry_space_group_name_H-M   'P 1'
_cell_length_a   11.29391226
_cell_length_b   11.22454960
_cell_length_c   18.59220691
_cell_angle_alpha   107.58008044
_cell_angle_beta   107.72758871
_cell_angle_gamma   89.96288131
_symmetry_Int_Tables_number   1
_chemical_formula_structural   Ba3Sr(Cu2O5)2
_chemical_formula_sum   'Ba24 Sr8 Cu32 O80'
_cell_volume   2129.29708424
_cell_formula_units_Z   8
loop_
 _symmetry_equiv_pos_site_id
 _symmetry_equiv_pos_as_xyz
  1  'x, y, z'
loop_
 _atom_site_type_symbol
 _atom_site_label
 _atom_site_symmetry_multiplicity
 _atom_site_fract_x
 _atom_site_fract_y
 _atom_site_fract_z
 _atom_site_occupancy
  Ba  Ba0  1  0.30716700  0.05680700  0.11291800  1
  Ba  Ba1  1  0.30710300  0.05957500  0.61652100  1
  Ba  Ba2  1  0.30707000  0.55477600  0.11214800  1
  Ba  Ba3  1  0.80721400  0.05760800  0.11522000  1
  Ba  Ba4  1  0.80607000  0.55558100  0.11314600  1
  Ba  Ba5  1  0.80842900  0.55572400  0.61365700  1
  Ba  Ba6  1  0.19248700  0.44297600  0.38769000  1
  Ba  Ba7  1  0.19338400  0.94688600  0.38916300  1
  Ba  Ba8  1  0.19329300  0.94242800  0.88366900  1
  Ba  Ba9  1  0.69607800  0.44293200  0.38815000  1
  Ba  Ba10  1  0.69220500  0.44169700  0.88402300  1
  Ba  Ba11  1  0.69576700  0.94598600  0.38835300  1
  Ba  Ba12  1  0.69168300  0.94307000  0.88559100  1
  Ba  Ba13  1  0.05721000  0.30701600  0.11251200  1
  Ba  Ba14  1  0.05801100  0.80548400  0.11290300  1
  Ba  Ba15  1  0.55571800  0.30775400  0.11289700  1
  Ba  Ba16  1  0.55576000  0.80571200  0.11275600  1
  Ba  Ba17  1  0.55754500  0.80716400  0.61433800  1
  Ba  Ba18  1  0.44428700  0.19385500  0.38823700  1
  Ba  Ba19  1  0.44417500  0.69354500  0.38786900  1
  Ba  Ba20  1  0.44217200  0.69214500  0.88446800  1
  Ba  Ba21  1  0.94305500  0.19282100  0.88390700  1
  Ba  Ba22  1  0.94387100  0.69411100  0.38807200  1
  Ba  Ba23  1  0.94410900  0.69290600  0.88524100  1
  Sr  Sr0  1  0.30575900  0.55511000  0.60811400  1
  Sr  Sr1  1  0.80902600  0.05832000  0.60846800  1
  Sr  Sr2  1  0.19915700  0.44133500  0.88951800  1
  Sr  Sr3  1  0.05728300  0.30267500  0.60923100  1
  Sr  Sr4  1  0.05709400  0.79961700  0.60768800  1
  Sr  Sr5  1  0.55623300  0.30068800  0.60750800  1
  Sr  Sr6  1  0.44838100  0.19925100  0.89162400  1
  Sr  Sr7  1  0.95054100  0.19966100  0.39544100  1
  Cu  Cu0  1  0.00093900  0.99989700  0.99922900  1
  Cu  Cu1  1  0.00413900  0.00383500  0.50600000  1
  Cu  Cu2  1  0.00058100  0.49815100  0.99669900  1
  Cu  Cu3  1  0.00539200  0.50200300  0.50598000  1
  Cu  Cu4  1  0.49958200  0.99920500  0.99702700  1
  Cu  Cu5  1  0.50477700  0.00314100  0.50532900  1
  Cu  Cu6  1  0.49872700  0.49745100  0.99541900  1
  Cu  Cu7  1  0.50399600  0.50219500  0.50630700  1
  Cu  Cu8  1  0.24967200  0.24774200  0.99516100  1
  Cu  Cu9  1  0.25444000  0.25380500  0.50636900  1
  Cu  Cu10  1  0.24983400  0.74741800  0.99656200  1
  Cu  Cu11  1  0.25325700  0.75200800  0.50483600  1
  Cu  Cu12  1  0.74943800  0.24833800  0.99671800  1
  Cu  Cu13  1  0.75568900  0.25203400  0.50541000  1
  Cu  Cu14  1  0.75096100  0.74950600  0.99915800  1
  Cu  Cu15  1  0.75565300  0.75398700  0.50645100  1
  Cu  Cu16  1  0.11316200  0.09914900  0.25268800  1
  Cu  Cu17  1  0.11203600  0.09756400  0.74585500  1
  Cu  Cu18  1  0.11527200  0.59798300  0.25076900  1
  Cu  Cu19  1  0.11564600  0.59043100  0.74848900  1
  Cu  Cu20  1  0.61803500  0.09886500  0.25118000  1
  Cu  Cu21  1  0.61290900  0.09937400  0.75067900  1
  Cu  Cu22  1  0.61639100  0.59866600  0.25067100  1
  Cu  Cu23  1  0.60804700  0.58798400  0.74539000  1
  Cu  Cu24  1  0.36582600  0.40158500  0.25046500  1
  Cu  Cu25  1  0.35806000  0.40300800  0.74745700  1
  Cu  Cu26  1  0.36497300  0.90314900  0.25052700  1
  Cu  Cu27  1  0.35964100  0.90486500  0.74900800  1
  Cu  Cu28  1  0.86601700  0.39877900  0.25126900  1
  Cu  Cu29  1  0.86390300  0.39912400  0.74696000  1
  Cu  Cu30  1  0.86663900  0.90707900  0.25282300  1
  Cu  Cu31  1  0.86519100  0.90621400  0.74669700  1
  O  O0  1  0.12060400  0.13006800  0.49947200  1
  O  O1  1  0.12397700  0.12445900  0.99617300  1
  O  O2  1  0.12720500  0.62544700  0.50338000  1
  O  O3  1  0.12526200  0.61906200  0.99341100  1
  O  O4  1  0.62868500  0.12738400  0.50398500  1
  O  O5  1  0.61962900  0.12570000  0.99466200  1
  O  O6  1  0.62486600  0.62535400  0.49948000  1
  O  O7  1  0.62261000  0.62333700  0.99651400  1
  O  O8  1  0.12701800  0.37516500  0.99695100  1
  O  O9  1  0.12858000  0.37755500  0.50812800  1
  O  O10  1  0.12570400  0.87469300  0.00100200  1
  O  O11  1  0.12583000  0.87592800  0.50719700  1
  O  O12  1  0.62143700  0.37203700  0.99817200  1
  O  O13  1  0.62644000  0.37387600  0.50628200  1
  O  O14  1  0.62568400  0.87543900  0.00141200  1
  O  O15  1  0.63272700  0.88197800  0.50724100  1
  O  O16  1  0.37841700  0.12853000  0.50231500  1
  O  O17  1  0.37462700  0.12471400  0.99274600  1
  O  O18  1  0.37238500  0.62239900  0.50115800  1
  O  O19  1  0.36923500  0.61735600  0.99282900  1
  O  O20  1  0.87832700  0.12708800  0.50032200  1
  O  O21  1  0.87328700  0.12318700  0.99747900  1
  O  O22  1  0.87937100  0.62641000  0.50143000  1
  O  O23  1  0.87377900  0.62288300  0.99697900  1
  O  O24  1  0.37296200  0.37313600  0.99549900  1
  O  O25  1  0.37909300  0.38032700  0.50965400  1
  O  O26  1  0.37500000  0.87607500  0.00073300  1
  O  O27  1  0.37685400  0.87872500  0.50438800  1
  O  O28  1  0.87527800  0.37624700  0.00031200  1
  O  O29  1  0.88382200  0.37333400  0.50506600  1
  O  O30  1  0.87560400  0.87685900  0.00184500  1
  O  O31  1  0.88124800  0.88235100  0.51029200  1
  O  O32  1  0.07125200  0.08277900  0.14612900  1
  O  O33  1  0.06744100  0.09277600  0.64074000  1
  O  O34  1  0.07298300  0.58237900  0.14451700  1
  O  O35  1  0.08253600  0.58744600  0.64457800  1
  O  O36  1  0.57209700  0.08414700  0.14484900  1
  O  O37  1  0.57872100  0.09117300  0.64569500  1
  O  O38  1  0.57198400  0.58161900  0.14417800  1
  O  O39  1  0.56657000  0.58012300  0.64007200  1
  O  O40  1  0.42900600  0.41614900  0.35666500  1
  O  O41  1  0.42293900  0.41073300  0.85331700  1
  O  O42  1  0.42930900  0.91835400  0.35663700  1
  O  O43  1  0.42481400  0.91885300  0.85507300  1
  O  O44  1  0.92921900  0.40693300  0.35649500  1
  O  O45  1  0.93300400  0.41844400  0.85365600  1
  O  O46  1  0.92919500  0.91862200  0.35859100  1
  O  O47  1  0.92837300  0.91873900  0.85249500  1
  O  O48  1  0.32224600  0.31169800  0.14394200  1
  O  O49  1  0.32200100  0.31105200  0.64109500  1
  O  O50  1  0.32211800  0.81092600  0.14442200  1
  O  O51  1  0.32030000  0.80419000  0.64411400  1
  O  O52  1  0.82161500  0.31168600  0.14429400  1
  O  O53  1  0.82730700  0.30201400  0.64155500  1
  O  O54  1  0.82573100  0.81432400  0.14669100  1
  O  O55  1  0.82926400  0.80984800  0.64183800  1
  O  O56  1  0.17710700  0.19117200  0.35931300  1
  O  O57  1  0.18447600  0.19042800  0.85158900  1
  O  O58  1  0.17822500  0.69020000  0.35680900  1
  O  O59  1  0.17882500  0.68463000  0.85435600  1
  O  O60  1  0.68855200  0.18830700  0.35743000  1
  O  O61  1  0.67540500  0.18935100  0.85776500  1
  O  O62  1  0.67981300  0.69055600  0.35667100  1
  O  O63  1  0.67516500  0.68161400  0.85099100  1
  O  O64  1  0.46655900  0.03858700  0.25132400  1
  O  O65  1  0.46129000  0.04789100  0.75687900  1
  O  O66  1  0.46583400  0.53665400  0.25049200  1
  O  O67  1  0.44950200  0.54129200  0.74248600  1
  O  O68  1  0.96208400  0.05289800  0.26013100  1
  O  O69  1  0.95493100  0.04609300  0.74200700  1
  O  O70  1  0.96561400  0.53526500  0.25153300  1
  O  O71  1  0.96135200  0.53744400  0.74779600  1
  O  O72  1  0.21534800  0.46327900  0.25091700  1
  O  O73  1  0.20006400  0.44165600  0.74918000  1
  O  O74  1  0.21374300  0.96442700  0.25105900  1
  O  O75  1  0.19992600  0.95126100  0.73876700  1
  O  O76  1  0.71641400  0.46360200  0.25122800  1
  O  O77  1  0.70462300  0.44774100  0.73987000  1
  O  O78  1  0.71216300  0.95947800  0.24902200  1
  O  O79  1  0.71325100  0.96431000  0.74961900  1
loop_
_geom_bond_atom_site_label_1
_geom_bond_atom_site_label_2
_geom_bond_distance
_geom_bond_site_symmetry_2
Ba0 O64 2.720398 1_555
Ba0 O26 2.732722 1_545
Ba0 O48 2.736999 1_555
Ba0 O10 2.747252 1_545
Ba0 O1 2.797721 1_554
Ba0 O36 2.865074 1_555
Ba0 O17 2.866974 1_554
Ba0 O32 2.908167 1_555
Ba0 O50 2.984015 1_545
Ba1 O65 2.701573 1_555
Ba1 O49 2.716529 1_555
Ba1 O11 2.740847 1_545
Ba1 O27 2.743954 1_545
Ba1 O16 2.791302 1_555
Ba1 O0 2.836377 1_555
Ba1 O33 2.882279 1_555
Ba1 O37 2.949959 1_555
Ba1 O51 3.056784 1_545
Ba2 O66 2.716473 1_555
Ba2 O8 2.744339 1_554
Ba2 O50 2.748070 1_555
Ba2 O24 2.779205 1_554
Ba2 O19 2.792509 1_554
Ba2 O3 2.794662 1_554
Ba2 O38 2.864388 1_555
Ba2 O34 2.881467 1_555
Ba2 O48 2.955531 1_555
Ba3 O52 2.732739 1_555
Ba3 O68 2.745367 1_555
Ba3 O30 2.749915 1_545
Ba3 O14 2.758903 1_545
Ba3 O21 2.803494 1_554
Ba3 O32 2.856911 1_655
Ba3 O36 2.869485 1_555
Ba3 O5 2.870098 1_554
Ba3 O54 2.955173 1_545
Ba4 O70 2.729335 1_555
Ba4 O28 2.740330 1_555
Ba4 O54 2.774059 1_555
Ba4 O12 2.791555 1_554
Ba4 O23 2.795056 1_554
Ba4 O7 2.798518 1_554
Ba4 O38 2.869446 1_555
Ba4 O34 2.888303 1_655
Ba4 O52 2.959030 1_555
Ba5 O71 2.632547 1_555
Ba5 O13 2.724219 1_555
Ba5 O55 2.736643 1_555
Ba5 O29 2.745943 1_555
Ba5 O22 2.764795 1_555
Ba5 O6 2.781210 1_555
Ba5 O39 2.917568 1_555
Ba5 O35 2.972348 1_655
Ba5 O53 3.041134 1_555
Ba6 O72 2.708316 1_555
Ba6 O56 2.709433 1_555
Ba6 O18 2.731854 1_555
Ba6 O2 2.769047 1_555
Ba6 O9 2.837677 1_555
Ba6 O25 2.851149 1_555
Ba6 O44 2.854883 1_455
Ba6 O40 2.896759 1_555
Ba6 O58 2.993599 1_555
Ba7 O74 2.710994 1_555
Ba7 O58 2.753790 1_555
Ba7 O0 2.754370 1_565
Ba7 O16 2.772541 1_565
Ba7 O27 2.784431 1_555
Ba7 O11 2.847560 1_555
Ba7 O46 2.861092 1_455
Ba7 O42 2.903632 1_555
Ba7 O56 2.952428 1_565
Ba8 O17 2.731838 1_565
Ba8 O75 2.749109 1_555
Ba8 O1 2.752492 1_565
Ba8 O59 2.773221 1_555
Ba8 O26 2.785749 1_556
Ba8 O10 2.817151 1_556
Ba8 O43 2.819657 1_555
Ba8 O47 2.865392 1_455
Ba8 O57 3.013469 1_565
Ba9 O76 2.701849 1_555
Ba9 O60 2.736158 1_555
Ba9 O6 2.752325 1_555
Ba9 O22 2.773569 1_555
Ba9 O29 2.836919 1_555
Ba9 O13 2.850333 1_555
Ba9 O44 2.870786 1_555
Ba9 O40 2.889748 1_555
Ba9 O62 3.003040 1_555
Ba10 O61 2.721432 1_555
Ba10 O77 2.747013 1_555
Ba10 O23 2.748540 1_555
Ba10 O7 2.751721 1_555
Ba10 O28 2.779287 1_556
Ba10 O12 2.791137 1_555
Ba10 O41 2.918740 1_555
Ba10 O63 2.931321 1_555
Ba10 O45 2.937350 1_555
Ba11 O78 2.701279 1_555
Ba11 O62 2.741436 1_555
Ba11 O20 2.748136 1_565
Ba11 O4 2.772589 1_565
Ba11 O15 2.797726 1_555
Ba11 O31 2.849968 1_555
Ba11 O46 2.852252 1_555
Ba11 O42 2.882740 1_555
Ba11 O60 2.941275 1_565
Ba12 O79 2.691880 1_555
Ba12 O5 2.732833 1_565
Ba12 O21 2.736422 1_565
Ba12 O14 2.781106 1_556
Ba12 O30 2.788007 1_556
Ba12 O63 2.801507 1_555
Ba12 O43 2.889022 1_555
Ba12 O47 2.915170 1_555
Ba12 O61 2.957813 1_565
Ba13 O72 2.714164 1_555
Ba13 O28 2.746680 1_455
Ba13 O32 2.764108 1_555
Ba13 O1 2.785663 1_554
Ba13 O21 2.789413 1_454
Ba13 O8 2.801440 1_554
Ba13 O48 2.867140 1_555
Ba13 O52 2.893146 1_455
Ba13 O34 2.960434 1_555
Ba14 O74 2.712704 1_555
Ba14 O10 2.731686 1_555
Ba14 O34 2.733760 1_555
Ba14 O30 2.748814 1_455
Ba14 O23 2.789535 1_454
Ba14 O3 2.847520 1_554
Ba14 O50 2.856288 1_555
Ba14 O54 2.872635 1_455
Ba14 O32 2.979021 1_565
Ba15 O76 2.722557 1_555
Ba15 O12 2.741477 1_554
Ba15 O36 2.742231 1_555
Ba15 O5 2.789248 1_554
Ba15 O24 2.790170 1_554
Ba15 O17 2.800884 1_554
Ba15 O48 2.863416 1_555
Ba15 O52 2.877132 1_555
Ba15 O38 2.945715 1_555
Ba16 O78 2.674858 1_555
Ba16 O14 2.738017 1_555
Ba16 O38 2.742938 1_555
Ba16 O26 2.744367 1_555
Ba16 O7 2.783967 1_554
Ba16 O19 2.859526 1_554
Ba16 O50 2.870193 1_555
Ba16 O54 2.914793 1_555
Ba16 O36 2.994133 1_565
Ba17 O79 2.675880 1_555
Ba17 O15 2.726081 1_555
Ba17 O27 2.727233 1_555
Ba17 O39 2.727697 1_555
Ba17 O6 2.767151 1_555
Ba17 O18 2.791358 1_555
Ba17 O51 2.898536 1_555
Ba17 O55 2.952115 1_555
Ba17 O37 3.058269 1_565
Ba18 O64 2.699958 1_555
Ba18 O40 2.724449 1_555
Ba18 O16 2.736895 1_555
Ba18 O13 2.776483 1_555
Ba18 O4 2.786316 1_555
Ba18 O25 2.859187 1_555
Ba18 O56 2.897858 1_555
Ba18 O42 2.962976 1_545
Ba18 O60 2.980419 1_555
Ba19 O66 2.710634 1_555
Ba19 O6 2.726712 1_555
Ba19 O42 2.749186 1_555
Ba19 O18 2.790789 1_555
Ba19 O27 2.805794 1_555
Ba19 O15 2.868099 1_555
Ba19 O58 2.878777 1_555
Ba19 O62 2.889315 1_555
Ba19 O40 2.984909 1_555
Ba20 O67 2.697240 1_555
Ba20 O7 2.733789 1_555
Ba20 O19 2.734111 1_555
Ba20 O43 2.754414 1_555
Ba20 O26 2.794857 1_556
Ba20 O14 2.795501 1_556
Ba20 O59 2.850314 1_555
Ba20 O63 2.877187 1_555
Ba20 O41 3.029738 1_555
Ba21 O69 2.698368 1_555
Ba21 O1 2.736574 1_655
Ba21 O45 2.750279 1_555
Ba21 O8 2.769619 1_655
Ba21 O21 2.775149 1_555
Ba21 O28 2.797126 1_556
Ba21 O61 2.910182 1_555
Ba21 O47 2.947786 1_545
Ba21 O57 2.963764 1_655
Ba22 O70 2.707118 1_555
Ba22 O22 2.730045 1_555
Ba22 O46 2.730752 1_555
Ba22 O2 2.787480 1_655
Ba22 O11 2.792245 1_655
Ba22 O62 2.856926 1_555
Ba22 O31 2.864365 1_555
Ba22 O58 2.875153 1_655
Ba22 O44 3.092085 1_555
Ba23 O71 2.687370 1_555
Ba23 O3 2.723321 1_655
Ba23 O23 2.748920 1_555
Ba23 O10 2.768833 1_656
Ba23 O47 2.773737 1_555
Ba23 O30 2.806634 1_556
Ba23 O59 2.873998 1_655
Ba23 O63 2.901964 1_555
Ba23 O45 2.951978 1_555
Cu0 O10 1.989666 1_556
Cu0 O1 1.996892 1_565
Cu0 O21 1.997671 1_465
Cu0 O30 1.999598 1_456
Cu0 O47 2.466217 1_455
Cu0 O32 2.469978 1_566
Cu1 O31 1.981851 1_445
Cu1 O20 1.984545 1_455
Cu1 O11 1.987141 1_545
Cu1 O0 1.988973 1_555
Cu1 O33 2.276592 1_555
Cu1 O46 2.479381 1_445
Cu2 O3 1.983309 1_555
Cu2 O8 1.985465 1_555
Cu2 O28 1.998852 1_456
Cu2 O23 2.002154 1_455
Cu2 O45 2.404843 1_455
Cu2 O34 2.485621 1_556
Cu3 O9 1.971253 1_555
Cu3 O2 1.974421 1_555
Cu3 O29 1.986157 1_455
Cu3 O22 1.994564 1_455
Cu3 O35 2.336660 1_555
Cu3 O44 2.521243 1_455
Cu4 O5 1.983082 1_565
Cu4 O14 1.989980 1_556
Cu4 O17 1.994826 1_565
Cu4 O26 2.003416 1_556
Cu4 O43 2.387036 1_555
Cu4 O36 2.486064 1_566
Cu5 O15 1.983539 1_545
Cu5 O4 1.987125 1_555
Cu5 O27 2.002579 1_545
Cu5 O16 2.004237 1_555
Cu5 O37 2.366539 1_555
Cu5 O42 2.500305 1_545
Cu6 O12 1.975534 1_555
Cu6 O7 1.980507 1_555
Cu6 O19 1.986516 1_555
Cu6 O24 1.992403 1_555
Cu6 O41 2.393880 1_555
Cu6 O38 2.501112 1_556
Cu7 O25 1.993076 1_555
Cu7 O13 1.996064 1_555
Cu7 O6 2.001149 1_555
Cu7 O18 2.006930 1_555
Cu7 O39 2.250782 1_555
Cu7 O40 2.516645 1_555
Cu8 O17 1.974633 1_555
Cu8 O24 1.977825 1_555
Cu8 O8 1.990583 1_555
Cu8 O1 1.991235 1_555
Cu8 O57 2.418188 1_555
Cu8 O48 2.501863 1_556
Cu9 O25 1.974931 1_555
Cu9 O16 1.985238 1_555
Cu9 O9 1.987293 1_555
Cu9 O0 2.001822 1_555
Cu9 O49 2.265792 1_555
Cu9 O56 2.473418 1_555
Cu10 O19 1.986905 1_555
Cu10 O26 1.989479 1_556
Cu10 O3 1.989972 1_555
Cu10 O10 2.002431 1_556
Cu10 O59 2.390408 1_555
Cu10 O50 2.486388 1_556
Cu11 O18 1.981081 1_555
Cu11 O27 1.997111 1_555
Cu11 O2 2.000356 1_555
Cu11 O11 2.001700 1_555
Cu11 O51 2.347797 1_555
Cu11 O58 2.490148 1_555
Cu12 O21 1.981778 1_555
Cu12 O28 1.993113 1_556
Cu12 O5 1.995589 1_555
Cu12 O12 2.004232 1_555
Cu12 O61 2.337445 1_555
Cu12 O52 2.481629 1_556
Cu13 O20 1.972658 1_555
Cu13 O29 1.990337 1_555
Cu13 O4 1.993184 1_555
Cu13 O13 1.999971 1_555
Cu13 O53 2.296099 1_555
Cu13 O60 2.489491 1_555
Cu14 O23 1.985602 1_555
Cu14 O30 1.985998 1_556
Cu14 O14 1.999859 1_556
Cu14 O7 2.006619 1_555
Cu14 O54 2.480114 1_556
Cu14 O63 2.489743 1_555
Cu15 O31 1.992967 1_555
Cu15 O15 1.997163 1_555
Cu15 O22 2.001936 1_555
Cu15 O6 2.014062 1_555
Cu15 O55 2.278858 1_555
Cu15 O62 2.519103 1_555
Cu16 O68 1.840741 1_455
Cu16 O32 1.841729 1_555
Cu16 O56 1.846762 1_555
Cu16 O74 1.889205 1_545
Cu17 O69 1.840164 1_455
Cu17 O57 1.845045 1_555
Cu17 O33 1.847454 1_555
Cu17 O75 1.909518 1_545
Cu18 O70 1.837077 1_455
Cu18 O34 1.837866 1_555
Cu18 O58 1.838039 1_555
Cu18 O72 1.887325 1_555
Cu19 O71 1.836719 1_455
Cu19 O59 1.841146 1_555
Cu19 O35 1.842361 1_555
Cu19 O73 1.923868 1_555
Cu20 O36 1.839271 1_555
Cu20 O60 1.841035 1_555
Cu20 O64 1.841157 1_555
Cu20 O78 1.888246 1_545
Cu21 O37 1.843897 1_555
Cu21 O61 1.847323 1_555
Cu21 O65 1.855039 1_555
Cu21 O79 1.891120 1_545
Cu22 O66 1.836431 1_555
Cu22 O62 1.836909 1_555
Cu22 O38 1.837078 1_555
Cu22 O76 1.890691 1_555
Cu23 O63 1.839054 1_555
Cu23 O39 1.843488 1_555
Cu23 O67 1.846365 1_555
Cu23 O77 1.909595 1_555
Cu24 O72 1.836169 1_555
Cu24 O40 1.838932 1_555
Cu24 O48 1.839166 1_555
Cu24 O66 1.890944 1_555
Cu25 O73 1.843552 1_555
Cu25 O49 1.849016 1_555
Cu25 O41 1.853878 1_555
Cu25 O67 1.905571 1_555
Cu26 O42 1.836549 1_555
Cu26 O50 1.839314 1_555
Cu26 O74 1.842563 1_555
Cu26 O64 1.898927 1_565
Cu27 O43 1.839654 1_555
Cu27 O75 1.846809 1_555
Cu27 O51 1.849164 1_555
Cu27 O65 1.916985 1_565
Cu28 O52 1.838913 1_555
Cu28 O76 1.839057 1_555
Cu28 O44 1.840331 1_555
Cu28 O70 1.899111 1_555
Cu29 O45 1.840862 1_555
Cu29 O53 1.848344 1_555
Cu29 O77 1.857139 1_555
Cu29 O71 1.897167 1_555
Cu30 O78 1.828491 1_555
Cu30 O46 1.839305 1_555
Cu30 O54 1.842680 1_555
Cu30 O68 1.907392 1_565
Cu31 O47 1.837503 1_555
Cu31 O55 1.838586 1_555
Cu31 O79 1.845740 1_555
Cu31 O69 1.907498 1_565
O0 Sr7 2.586236 1_455
O0 Sr3 2.632111 1_555
O2 Sr4 2.617782 1_555
O2 Sr0 2.648943 1_555
O3 Sr2 2.656887 1_555
O4 Sr5 2.617915 1_555
O4 Sr1 2.649731 1_555
O5 Sr6 2.605583 1_555
O8 Sr2 2.663287 1_555
O9 Sr3 2.601001 1_555
O9 Sr0 2.633187 1_555
O9 Sr7 2.707823 1_455
O11 Sr4 2.584167 1_555
O12 Sr6 2.613787 1_555
O13 Sr5 2.586333 1_555
O15 Sr1 2.626241 1_565
O16 Sr5 2.631038 1_555
O17 Sr6 2.614060 1_555
O18 Sr0 2.628734 1_555
O19 Sr2 2.597739 1_555
O20 Sr7 2.657070 1_555
O20 Sr1 2.673554 1_555
O20 Sr3 2.677971 1_655
O22 Sr4 2.642261 1_655
O24 Sr2 2.622111 1_555
O24 Sr6 2.643364 1_555
O25 Sr0 2.576365 1_555
O25 Sr5 2.622019 1_555
O29 Sr3 2.613985 1_655
O29 Sr7 2.656189 1_555
O31 Sr1 2.573925 1_565
O31 Sr4 2.628488 1_655
O33 Sr3 2.588370 1_555
O33 Sr1 2.796819 1_455
O33 Sr4 3.155067 1_545
O35 Sr4 2.662787 1_555
O35 Sr0 2.799662 1_555
O35 Sr3 3.057526 1_555
O37 Sr5 2.645212 1_555
O37 Sr1 2.884679 1_555
O39 Sr0 2.818290 1_555
O39 Sr5 3.004717 1_555
O41 Sr6 2.668418 1_555
O41 Sr2 2.802455 1_555
O43 Sr6 3.006215 1_565
O44 Sr7 2.627888 1_555
O45 Sr2 2.867587 1_655
O46 Sr7 3.012217 1_565
O49 Sr3 2.861158 1_555
O49 Sr5 2.891940 1_555
O49 Sr0 2.976536 1_555
O51 Sr0 2.663601 1_555
O51 Sr4 2.837428 1_555
O53 Sr1 2.609624 1_555
O53 Sr3 2.839127 1_655
O53 Sr5 2.930496 1_555
O55 Sr4 2.826234 1_655
O55 Sr1 3.028810 1_565
O56 Sr7 2.831169 1_455
O57 Sr2 2.680693 1_555
O57 Sr6 2.837633 1_555
O59 Sr2 2.987308 1_555
O60 Sr7 2.818388 1_555
O61 Sr6 2.814780 1_555
O65 Sr6 2.614338 1_555
O67 Sr0 2.581623 1_555
O68 Sr7 2.599145 1_555
O69 Sr1 2.571474 1_555
O73 Sr3 2.607726 1_555
O73 Sr2 2.613420 1_555
O75 Sr4 2.557794 1_555
O77 Sr5 2.574380 1_555
