# generated using pymatgen
data_ZnFeO2
_symmetry_space_group_name_H-M   'P 1'
_cell_length_a   7.96882009
_cell_length_b   7.96882009
_cell_length_c   9.79652213
_cell_angle_alpha   53.20252783
_cell_angle_beta   53.20252783
_cell_angle_gamma   21.58214057
_symmetry_Int_Tables_number   1
_chemical_formula_structural   ZnFeO2
_chemical_formula_sum   'Zn4 Fe4 O8'
_cell_volume   181.36539385
_cell_formula_units_Z   4
loop_
 _symmetry_equiv_pos_site_id
 _symmetry_equiv_pos_as_xyz
  1  'x, y, z'
loop_
 _atom_site_type_symbol
 _atom_site_label
 _atom_site_symmetry_multiplicity
 _atom_site_fract_x
 _atom_site_fract_y
 _atom_site_fract_z
 _atom_site_occupancy
  Zn  Zn0  1  0.68606700  0.68606700  0.29471000  1
  Zn  Zn1  1  0.31393300  0.31393300  0.70529000  1
  Zn  Zn2  1  0.98651100  0.98651100  0.39259300  1
  Zn  Zn3  1  0.01348900  0.01348900  0.60740700  1
  Fe  Fe0  1  0.37305100  0.37305100  0.95193000  1
  Fe  Fe1  1  0.84519700  0.84519700  0.32271600  1
  Fe  Fe2  1  0.15480300  0.15480300  0.67728400  1
  Fe  Fe3  1  0.62694900  0.62694900  0.04807000  1
  O  O0  1  0.14432200  0.14432200  0.90101600  1
  O  O1  1  0.52662600  0.52662600  0.74669600  1
  O  O2  1  0.47337400  0.47337400  0.25330400  1
  O  O3  1  0.85567800  0.85567800  0.09898400  1
  O  O4  1  0.83607700  0.83607700  0.84261100  1
  O  O5  1  0.20667000  0.20667000  0.42270800  1
  O  O6  1  0.16392300  0.16392300  0.15738900  1
  O  O7  1  0.79333000  0.79333000  0.57729200  1
loop_
_geom_bond_atom_site_label_1
_geom_bond_atom_site_label_2
_geom_bond_distance
_geom_bond_site_symmetry_2
Fe0 O3 1.974216 1_546
Fe0 O3 1.974216 1_456
Fe0 O1 1.981886 1_555
Fe0 O4 2.112831 1_545
Fe0 O4 2.112831 1_455
Fe0 O6 2.595004 1_556
Fe1 O3 2.095778 1_555
Fe1 O7 2.099872 1_555
Fe1 O2 2.247485 1_565
Fe1 O2 2.247485 1_655
Fe1 O5 2.301786 1_565
Fe1 O5 2.301786 1_655
Fe2 O0 2.095778 1_555
Fe2 O5 2.099872 1_555
Fe2 O1 2.247485 1_455
Fe2 O1 2.247485 1_545
Fe2 O7 2.301786 1_455
Fe2 O7 2.301786 1_545
Fe3 O0 1.974216 1_564
Fe3 O0 1.974216 1_654
Fe3 O2 1.981886 1_555
Fe3 O6 2.112831 1_565
Fe3 O6 2.112831 1_655
Fe3 O4 2.595004 1_554
O0 Zn1 2.125636 1_555
O1 Zn3 2.114848 1_565
O1 Zn3 2.114848 1_655
O2 Zn2 2.114848 1_455
O2 Zn2 2.114848 1_545
O3 Zn0 2.125636 1_555
O4 Zn1 2.173645 1_655
O4 Zn1 2.173645 1_565
O4 Zn3 2.284498 1_665
O5 Zn0 2.096589 1_455
O5 Zn0 2.096589 1_545
O5 Zn3 2.397327 1_555
O6 Zn0 2.173645 1_545
O6 Zn0 2.173645 1_455
O6 Zn2 2.284498 1_445
O7 Zn1 2.096589 1_655
O7 Zn1 2.096589 1_565
O7 Zn2 2.397327 1_555
