# generated using pymatgen
data_Ni4Te3N2
_symmetry_space_group_name_H-M   'P 1'
_cell_length_a   6.26122700
_cell_length_b   10.56783200
_cell_length_c   8.88780300
_cell_angle_alpha   90.00000000
_cell_angle_beta   90.00000000
_cell_angle_gamma   90.00000000
_symmetry_Int_Tables_number   1
_chemical_formula_structural   Ni4Te3N2
_chemical_formula_sum   'Ni16 Te12 N8'
_cell_volume   588.08454979
_cell_formula_units_Z   4
loop_
 _symmetry_equiv_pos_site_id
 _symmetry_equiv_pos_as_xyz
  1  'x, y, z'
loop_
 _atom_site_type_symbol
 _atom_site_label
 _atom_site_symmetry_multiplicity
 _atom_site_fract_x
 _atom_site_fract_y
 _atom_site_fract_z
 _atom_site_occupancy
  Ni  Ni0  1  0.47685800  0.25000000  0.85220600  1
  Ni  Ni1  1  0.97685800  0.25000000  0.64779400  1
  Ni  Ni2  1  0.52314200  0.75000000  0.14779400  1
  Ni  Ni3  1  0.02314200  0.75000000  0.35220600  1
  Ni  Ni4  1  0.79277600  0.25000000  0.41437800  1
  Ni  Ni5  1  0.29277600  0.25000000  0.08562200  1
  Ni  Ni6  1  0.20722400  0.75000000  0.58562200  1
  Ni  Ni7  1  0.70722400  0.75000000  0.91437800  1
  Ni  Ni8  1  0.69201400  0.45886500  0.06402000  1
  Ni  Ni9  1  0.19201400  0.04113500  0.43598000  1
  Ni  Ni10  1  0.30798600  0.95886500  0.93598000  1
  Ni  Ni11  1  0.80798600  0.54113500  0.56402000  1
  Ni  Ni12  1  0.30798600  0.54113500  0.93598000  1
  Ni  Ni13  1  0.80798600  0.95886500  0.56402000  1
  Ni  Ni14  1  0.69201400  0.04113500  0.06402000  1
  Ni  Ni15  1  0.19201400  0.45886500  0.43598000  1
  Te  Te0  1  0.88489000  0.25000000  0.14423200  1
  Te  Te1  1  0.38489000  0.25000000  0.35576800  1
  Te  Te2  1  0.11511000  0.75000000  0.85576800  1
  Te  Te3  1  0.61511000  0.75000000  0.64423200  1
  Te  Te4  1  0.55584600  0.56039200  0.32217900  1
  Te  Te5  1  0.05584600  0.93960800  0.17782100  1
  Te  Te6  1  0.44415400  0.06039200  0.67782100  1
  Te  Te7  1  0.94415400  0.43960800  0.82217900  1
  Te  Te8  1  0.44415400  0.43960800  0.67782100  1
  Te  Te9  1  0.94415400  0.06039200  0.82217900  1
  Te  Te10  1  0.55584600  0.93960800  0.32217900  1
  Te  Te11  1  0.05584600  0.56039200  0.17782100  1
  N  N0  1  0.56365700  0.61817400  0.00541500  1
  N  N1  1  0.06365700  0.88182600  0.49458500  1
  N  N2  1  0.43634300  0.11817500  0.99458500  1
  N  N3  1  0.93634300  0.38182500  0.50541500  1
  N  N4  1  0.43634300  0.38182500  0.99458500  1
  N  N5  1  0.93634300  0.11817500  0.50541500  1
  N  N6  1  0.56365700  0.88182600  0.00541500  1
  N  N7  1  0.06365700  0.61817400  0.49458500  1
loop_
_geom_bond_atom_site_label_1
_geom_bond_atom_site_label_2
_geom_bond_distance
_geom_bond_site_symmetry_2
Ni0 Te8 2.541479 1_555
Ni0 Te6 2.541479 1_555
Ni1 Te7 2.541479 1_555
Ni1 Te9 2.541479 1_555
Ni2 Te4 2.541479 1_555
Ni2 Te10 2.541479 1_555
Ni3 Te11 2.541479 1_555
Ni3 Te5 2.541479 1_555
Ni4 Te0 2.469303 1_555
Ni4 Te1 2.606451 1_555
Ni5 Te1 2.469303 1_555
Ni5 Te0 2.606451 1_455
Ni6 Te2 2.469303 1_555
Ni6 Te3 2.606451 1_555
Ni7 Te3 2.469303 1_555
Ni7 Te2 2.606451 1_655
Ni8 Te0 2.615069 1_555
Ni8 Te4 2.672569 1_555
Ni8 Te7 2.674658 1_554
Ni8 Te11 2.713598 1_655
Ni9 Te1 2.615069 1_555
Ni9 Te5 2.672569 1_545
Ni9 Te6 2.674658 1_555
Ni9 Te10 2.713598 1_545
Ni10 Te2 2.615069 1_555
Ni10 Te6 2.672569 1_565
Ni10 Te5 2.674658 1_556
Ni10 Te9 2.713598 1_465
Ni11 Te3 2.615069 1_555
Ni11 Te7 2.672569 1_555
Ni11 Te4 2.674658 1_555
Ni11 Te8 2.713598 1_555
Ni12 Te2 2.615069 1_555
Ni12 Te8 2.672569 1_555
Ni12 Te11 2.674658 1_556
Ni12 Te7 2.713598 1_455
Ni13 Te3 2.615069 1_555
Ni13 Te9 2.672569 1_565
Ni13 Te10 2.674658 1_555
Ni13 Te6 2.713598 1_565
Ni14 Te0 2.615069 1_555
Ni14 Te10 2.672569 1_545
Ni14 Te9 2.674658 1_554
Ni14 Te5 2.713598 1_645
Ni15 Te1 2.615069 1_555
Ni15 Te11 2.672569 1_555
Ni15 Te8 2.674658 1_555
Ni15 Te4 2.713598 1_555
N0 Ni7 1.844851 1_554
N0 Ni12 1.899017 1_554
N0 Ni2 1.899065 1_555
N0 Ni8 1.936889 1_555
N1 Ni6 1.844851 1_555
N1 Ni13 1.899017 1_455
N1 Ni3 1.899065 1_555
N1 Ni9 1.936889 1_565
N2 Ni5 1.844843 1_556
N2 Ni14 1.899021 1_556
N2 Ni0 1.899058 1_555
N2 Ni10 1.936898 1_545
N3 Ni4 1.844843 1_555
N3 Ni15 1.899021 1_655
N3 Ni1 1.899058 1_555
N3 Ni11 1.936898 1_555
N4 Ni5 1.844843 1_556
N4 Ni8 1.899021 1_556
N4 Ni0 1.899058 1_555
N4 Ni12 1.936898 1_555
N5 Ni4 1.844843 1_555
N5 Ni9 1.899021 1_655
N5 Ni1 1.899058 1_555
N5 Ni13 1.936898 1_545
N6 Ni7 1.844851 1_554
N6 Ni10 1.899017 1_554
N6 Ni2 1.899065 1_555
N6 Ni14 1.936889 1_565
N7 Ni6 1.844851 1_555
N7 Ni11 1.899017 1_455
N7 Ni3 1.899065 1_555
N7 Ni15 1.936889 1_555
