# generated using pymatgen
data_Li7Mn2(CoO4)3
_symmetry_space_group_name_H-M   'P 1'
_cell_length_a   5.07781100
_cell_length_b   5.85513170
_cell_length_c   7.64376369
_cell_angle_alpha   79.75735376
_cell_angle_beta   77.70069761
_cell_angle_gamma   74.10457157
_symmetry_Int_Tables_number   1
_chemical_formula_structural   Li7Mn2(CoO4)3
_chemical_formula_sum   'Li7 Mn2 Co3 O12'
_cell_volume   211.81933761
_cell_formula_units_Z   1
loop_
 _symmetry_equiv_pos_site_id
 _symmetry_equiv_pos_as_xyz
  1  'x, y, z'
loop_
 _atom_site_type_symbol
 _atom_site_label
 _atom_site_symmetry_multiplicity
 _atom_site_fract_x
 _atom_site_fract_y
 _atom_site_fract_z
 _atom_site_occupancy
  Li  Li0  1  0.50115100  0.82899900  0.16564500  1
  Li  Li1  1  0.50396500  0.34200600  0.16262800  1
  Li  Li2  1  0.49403000  0.50703500  0.49864400  1
  Li  Li3  1  0.49930900  0.99895000  0.49753800  1
  Li  Li4  1  0.50224000  0.16423800  0.83766300  1
  Li  Li5  1  0.50031400  0.65968300  0.83976300  1
  Li  Li6  1  0.99868400  0.50188700  0.99944700  1
  Mn  Mn0  1  0.00119200  0.99703300  0.99807900  1
  Mn  Mn1  1  0.00109600  0.82469800  0.66891700  1
  Co  Co0  1  0.99274000  0.66321400  0.32605600  1
  Co  Co1  1  0.00698600  0.17410200  0.32455800  1
  Co  Co2  1  0.00126300  0.33298000  0.66758300  1
  O  O0  1  0.22541500  0.15775000  0.09104300  1
  O  O1  1  0.23122000  0.69035100  0.08468700  1
  O  O2  1  0.21924000  0.83533900  0.42640300  1
  O  O3  1  0.22535200  0.34097900  0.42851500  1
  O  O4  1  0.22025600  0.51164800  0.73842900  1
  O  O5  1  0.23378400  0.98009600  0.76078200  1
  O  O6  1  0.76080300  0.50243900  0.26325400  1
  O  O7  1  0.76611500  0.00267600  0.23414900  1
  O  O8  1  0.79159700  0.15023300  0.58408400  1
  O  O9  1  0.76142700  0.68284200  0.58742100  1
  O  O10  1  0.77820200  0.84138000  0.90764400  1
  O  O11  1  0.78361700  0.30944300  0.90706800  1
loop_
_geom_bond_atom_site_label_1
_geom_bond_atom_site_label_2
_geom_bond_distance
_geom_bond_site_symmetry_2
Li0 O1 2.017472 1_555
Li0 O7 2.087446 1_565
Li0 O0 2.112873 1_565
Li0 O6 2.117028 1_555
Li0 O10 2.167161 1_554
Li0 O2 2.192011 1_555
Li1 O7 2.119750 1_555
Li1 O6 2.128438 1_555
Li1 O11 2.161271 1_554
Li1 O1 2.192052 1_555
Li1 O0 2.199870 1_555
Li1 O3 2.215271 1_555
Li2 O6 2.007970 1_555
Li2 O4 2.050411 1_555
Li2 O3 2.077861 1_555
Li2 O2 2.104404 1_555
Li2 O9 2.184090 1_555
Li2 O8 2.297855 1_555
Li3 O9 2.063292 1_555
Li3 O2 2.120556 1_555
Li3 O3 2.152897 1_565
Li3 O5 2.173847 1_555
Li3 O7 2.174342 1_565
Li3 O8 2.184459 1_565
Li4 O11 2.048027 1_555
Li4 O10 2.081341 1_545
Li4 O0 2.138144 1_556
Li4 O8 2.167894 1_555
Li4 O5 2.176632 1_545
Li4 O4 2.254296 1_555
Li5 O5 2.066456 1_555
Li5 O1 2.073532 1_556
Li5 O9 2.100642 1_555
Li5 O10 2.173164 1_555
Li5 O4 2.181006 1_555
Li5 O11 2.205373 1_555
Li6 O11 2.060680 1_555
Li6 O4 2.070773 1_655
Li6 O10 2.077671 1_555
Li6 O1 2.081730 1_656
Li6 O0 2.108733 1_656
Li6 O6 2.118424 1_556
Mn0 O10 1.926998 1_455
Mn0 O7 1.940098 1_466
Mn0 O5 1.944708 1_555
Mn0 O1 1.945449 1_556
Mn0 O11 1.954081 1_465
Mn0 O0 1.963711 1_566
Mn1 O9 1.902544 1_455
Mn1 O4 1.915381 1_555
Mn1 O10 1.934754 1_455
Mn1 O2 1.946553 1_555
Mn1 O5 1.971439 1_555
Mn1 O8 1.982127 1_465
Co0 O6 1.874171 1_555
Co0 O1 1.986169 1_655
Co0 O2 2.052434 1_655
Co0 O3 2.053324 1_655
Co0 O7 2.088846 1_565
Co0 O9 2.095723 1_555
Co1 O0 1.893281 1_555
Co1 O3 2.015084 1_555
Co1 O6 2.022595 1_455
Co1 O8 2.052264 1_455
Co1 O7 2.064036 1_455
Co1 O2 2.083085 1_545
Co2 O4 1.928580 1_555
Co2 O11 1.929549 1_455
Co2 O3 1.936275 1_555
Co2 O8 1.960131 1_455
Co2 O9 2.135390 1_455
Co2 O5 2.160843 1_545
