# generated using pymatgen
data_HoCu4Ni
_symmetry_space_group_name_H-M   'P 1'
_cell_length_a   4.90899793
_cell_length_b   4.90899793
_cell_length_c   4.02566800
_cell_angle_alpha   90.00000000
_cell_angle_beta   90.00000000
_cell_angle_gamma   120.00000393
_symmetry_Int_Tables_number   1
_chemical_formula_structural   HoCu4Ni
_chemical_formula_sum   'Ho1 Cu4 Ni1'
_cell_volume   84.01450407
_cell_formula_units_Z   1
loop_
 _symmetry_equiv_pos_site_id
 _symmetry_equiv_pos_as_xyz
  1  'x, y, z'
loop_
 _atom_site_type_symbol
 _atom_site_label
 _atom_site_symmetry_multiplicity
 _atom_site_fract_x
 _atom_site_fract_y
 _atom_site_fract_z
 _atom_site_occupancy
  Ho  Ho0  1  -0.00000000  -0.00000000  0.00000000  1
  Cu  Cu0  1  0.66666700  0.33333300  0.00000000  1
  Cu  Cu1  1  0.49895035  0.99790170  0.50000000  1
  Cu  Cu2  1  0.00209830  0.50104965  0.50000000  1
  Cu  Cu3  1  0.49895035  0.50104965  0.50000000  1
  Ni  Ni0  1  0.33333300  0.66666700  0.00000000  1
loop_
_geom_bond_atom_site_label_1
_geom_bond_atom_site_label_2
_geom_bond_distance
_geom_bond_site_symmetry_2
Ho0 Ni0 2.834208 1_545
Ho0 Ni0 2.834213 1_445
Ho0 Ni0 2.834213 1_555
Cu0 Cu1 2.466789 1_545
Cu0 Cu1 2.466789 1_544
Cu0 Cu2 2.466789 1_654
Cu0 Cu2 2.466789 1_655
Cu0 Cu3 2.466794 1_555
Cu0 Cu3 2.466794 1_554
Cu0 Ni0 2.834208 1_655
Cu0 Ni0 2.834208 1_545
Cu0 Ho0 2.834208 1_655
Cu0 Ho0 2.834213 1_665
Cu0 Ho0 2.834213 1_555
Cu0 Ni0 2.834217 1_555
Cu1 Cu2 2.439046 1_555
Cu1 Cu3 2.439046 1_555
Cu1 Ni0 2.456518 1_556
Cu1 Ni0 2.456518 1_555
Cu1 Cu2 2.469952 1_665
Cu1 Cu3 2.469952 1_565
Cu1 Ho0 3.174293 1_565
Cu1 Ho0 3.174293 1_566
Cu1 Ho0 3.174296 1_666
Cu1 Ho0 3.174296 1_665
Cu2 Cu3 2.439046 1_555
Cu2 Ni0 2.456518 1_556
Cu2 Ni0 2.456518 1_555
Cu2 Cu3 2.469952 1_455
Cu2 Ho0 3.174293 1_565
Cu2 Ho0 3.174293 1_566
Cu2 Ho0 3.174296 1_555
Cu2 Ho0 3.174296 1_556
Cu3 Ni0 2.456518 1_555
Cu3 Ni0 2.456518 1_556
Cu3 Ho0 3.174294 1_555
Cu3 Ho0 3.174294 1_666
Cu3 Ho0 3.174294 1_556
Cu3 Ho0 3.174294 1_665
