# generated using pymatgen
data_HfMg14C
_symmetry_space_group_name_H-M   'P 1'
_cell_length_a   6.49790029
_cell_length_b   5.81487259
_cell_length_c   10.15362280
_cell_angle_alpha   90.00000000
_cell_angle_beta   90.00000000
_cell_angle_gamma   116.57971603
_symmetry_Int_Tables_number   1
_chemical_formula_structural   HfMg14C
_chemical_formula_sum   'Hf1 Mg14 C1'
_cell_volume   343.10233061
_cell_formula_units_Z   1
loop_
 _symmetry_equiv_pos_site_id
 _symmetry_equiv_pos_as_xyz
  1  'x, y, z'
loop_
 _atom_site_type_symbol
 _atom_site_label
 _atom_site_symmetry_multiplicity
 _atom_site_fract_x
 _atom_site_fract_y
 _atom_site_fract_z
 _atom_site_occupancy
  Hf  Hf0  1  0.09930979  0.79965439  0.12500000  1
  Mg  Mg0  1  0.13434447  0.31717173  0.62500000  1
  Mg  Mg1  1  0.15405440  0.82702670  0.62500000  1
  Mg  Mg2  1  0.57796952  0.30335539  0.12500000  1
  Mg  Mg3  1  0.64912972  0.32214711  0.62500000  1
  Mg  Mg4  1  0.57796952  0.77461313  0.12500000  1
  Mg  Mg5  1  0.64912972  0.82698161  0.62500000  1
  Mg  Mg6  1  0.33752151  0.16409439  0.37344412  1
  Mg  Mg7  1  0.33752151  0.16409439  0.87655588  1
  Mg  Mg8  1  0.33752151  0.67342812  0.37344412  1
  Mg  Mg9  1  0.33752151  0.67342812  0.87655588  1
  Mg  Mg10  1  0.93948357  0.21974229  0.27177206  1
  Mg  Mg11  1  0.93948357  0.21974229  0.97822794  1
  Mg  Mg12  1  0.83512733  0.66756417  0.37627061  1
  Mg  Mg13  1  0.83512733  0.66756417  0.87372939  1
  C  C0  1  0.25878503  0.37939202  0.12500000  1
loop_
_geom_bond_atom_site_label_1
_geom_bond_atom_site_label_2
_geom_bond_distance
_geom_bond_site_symmetry_2
Hf0 Mg13 2.977587 1_454
Hf0 Mg12 2.977587 1_455
Hf0 Mg9 3.211684 1_554
Hf0 Mg8 3.211684 1_555
Hf0 Mg7 3.211689 1_564
Hf0 Mg6 3.211689 1_565
Mg0 Mg1 2.909691 1_545
Mg0 Mg1 2.909692 1_555
Mg0 Mg5 3.165928 1_445
Mg0 Mg3 3.165928 1_455
Mg0 Mg6 3.179765 1_555
Mg0 Mg7 3.179765 1_555
Mg0 Mg8 3.179771 1_555
Mg0 Mg9 3.179771 1_555
Mg0 Mg5 3.332178 1_555
Mg0 Mg3 3.332179 1_555
Mg1 Mg8 3.113802 1_555
Mg1 Mg9 3.113802 1_555
Mg1 Mg6 3.113807 1_565
Mg1 Mg7 3.113807 1_565
Mg1 Mg12 3.132574 1_455
Mg1 Mg13 3.132574 1_455
Mg1 Mg3 3.217067 1_565
Mg1 Mg5 3.217067 1_555
Mg1 Mg3 3.280833 1_455
Mg1 Mg5 3.280833 1_455
Mg2 Mg7 2.885862 1_554
Mg2 Mg6 2.885862 1_555
Mg3 Mg5 2.879324 1_545
Mg3 Mg5 2.935548 1_555
Mg3 Mg6 3.130996 1_555
Mg3 Mg7 3.130996 1_555
Mg4 Mg9 2.885862 1_554
Mg4 Mg8 2.885862 1_555
Mg5 Mg8 3.130996 1_555
Mg5 Mg9 3.130996 1_555
Mg6 Mg8 2.853162 1_545
Mg6 Mg8 2.961711 1_555
Mg7 Mg9 2.853162 1_545
Mg7 Mg9 2.961711 1_555
Mg10 Mg8 2.934093 1_655
Mg10 Mg6 2.934094 1_655
Mg10 Mg12 3.153846 1_545
Mg10 Mg12 3.153846 1_555
Mg11 Mg9 2.934093 1_655
Mg11 Mg7 2.934094 1_655
Mg11 Mg13 3.153846 1_545
Mg11 Mg13 3.153846 1_555
Mg12 Mg5 3.114607 1_555
Mg12 Mg3 3.114612 1_555
Mg12 Mg6 3.248920 1_555
Mg12 Mg8 3.248920 1_555
Mg12 Mg6 3.249520 1_665
Mg12 Mg8 3.249520 1_655
Mg12 Mg4 3.258781 1_555
Mg12 Mg2 3.258785 1_555
Mg13 Mg5 3.114607 1_555
Mg13 Mg3 3.114612 1_555
Mg13 Mg7 3.248920 1_555
Mg13 Mg9 3.248920 1_555
Mg13 Mg7 3.249520 1_665
Mg13 Mg9 3.249520 1_655
Mg13 Mg4 3.258781 1_556
Mg13 Mg2 3.258785 1_556
C0 Mg4 2.306016 1_555
C0 Mg2 2.306017 1_555
C0 Mg11 2.379878 1_454
C0 Mg10 2.379878 1_455
C0 Mg7 2.960712 1_554
C0 Mg6 2.960712 1_555
C0 Mg9 2.960718 1_554
C0 Mg8 2.960718 1_555
C0 Hf0 3.051561 1_545
C0 Hf0 3.051561 1_555
