# generated using pymatgen
data_La2ZnRhO6
_symmetry_space_group_name_H-M   'P 1'
_cell_length_a   5.79491000
_cell_length_b   5.59195600
_cell_length_c   9.72287992
_cell_angle_alpha   54.85081251
_cell_angle_beta   90.00000000
_cell_angle_gamma   90.00000000
_symmetry_Int_Tables_number   1
_chemical_formula_structural   La2ZnRhO6
_chemical_formula_sum   'La4 Zn2 Rh2 O12'
_cell_volume   257.61780531
_cell_formula_units_Z   2
loop_
 _symmetry_equiv_pos_site_id
 _symmetry_equiv_pos_as_xyz
  1  'x, y, z'
loop_
 _atom_site_type_symbol
 _atom_site_label
 _atom_site_symmetry_multiplicity
 _atom_site_fract_x
 _atom_site_fract_y
 _atom_site_fract_z
 _atom_site_occupancy
  La  La0  1  0.94275800  0.73561000  0.25078900  1
  La  La1  1  0.44275800  0.26439000  0.24921100  1
  La  La2  1  0.05724200  0.26439000  0.74921100  1
  La  La3  1  0.55724200  0.73561000  0.75078900  1
  Zn  Zn0  1  0.00000000  0.50000000  0.00000000  1
  Zn  Zn1  1  0.50000000  0.50000000  0.50000000  1
  Rh  Rh0  1  0.50000000  0.00000000  0.00000000  1
  Rh  Rh1  1  0.00000000  0.00000000  0.50000000  1
  O  O0  1  0.52785700  0.84776800  0.24621700  1
  O  O1  1  0.02785700  0.15223200  0.25378300  1
  O  O2  1  0.47214300  0.15223200  0.75378300  1
  O  O3  1  0.97214300  0.84776800  0.74621700  1
  O  O4  1  0.80175700  0.65527700  0.54947800  1
  O  O5  1  0.30175700  0.34472300  0.95052200  1
  O  O6  1  0.19824300  0.34472300  0.45052200  1
  O  O7  1  0.69824300  0.65527700  0.04947800  1
  O  O8  1  0.20865200  0.75636000  0.05076700  1
  O  O9  1  0.70865200  0.24364000  0.44923300  1
  O  O10  1  0.79134800  0.24364000  0.94923300  1
  O  O11  1  0.29134800  0.75636000  0.55076700  1
loop_
_geom_bond_atom_site_label_1
_geom_bond_atom_site_label_2
_geom_bond_distance
_geom_bond_site_symmetry_2
La0 O1 2.397869 1_665
La0 O6 2.419395 1_655
La0 O8 2.431050 1_655
La0 O0 2.478701 1_555
La0 O9 2.649497 1_555
La0 O7 2.655755 1_555
La0 O4 2.793065 1_555
La0 O10 2.801140 1_564
La1 O0 2.397869 1_545
La1 O7 2.419395 1_555
La1 O9 2.431050 1_555
La1 O1 2.478701 1_555
La1 O8 2.649497 1_555
La1 O6 2.655755 1_555
La1 O5 2.793065 1_554
La1 O11 2.801140 1_545
La2 O3 2.397869 1_445
La2 O4 2.419395 1_455
La2 O10 2.431050 1_455
La2 O2 2.478701 1_555
La2 O11 2.649497 1_555
La2 O5 2.655755 1_555
La2 O6 2.793065 1_555
La2 O8 2.801140 1_546
La3 O2 2.397869 1_565
La3 O5 2.419395 1_555
La3 O11 2.431050 1_555
La3 O3 2.478701 1_555
La3 O10 2.649497 1_555
La3 O4 2.655755 1_555
La3 O7 2.793065 1_556
La3 O9 2.801140 1_565
O0 Rh0 2.033519 1_565
O0 Zn1 2.090781 1_555
O1 Rh1 2.033519 1_555
O1 Zn0 2.090781 1_555
O2 Rh0 2.033519 1_556
O2 Zn1 2.090781 1_555
O3 Rh1 2.033519 1_665
O3 Zn0 2.090781 1_656
O4 Rh1 2.049230 1_665
O4 Zn1 2.127000 1_555
O5 Rh0 2.049230 1_556
O5 Zn0 2.127000 1_556
O6 Rh1 2.049230 1_555
O6 Zn1 2.127000 1_555
O7 Rh0 2.049230 1_565
O7 Zn0 2.127000 1_655
O8 Rh0 2.043526 1_565
O8 Zn0 2.139027 1_555
O9 Rh1 2.043526 1_655
O9 Zn1 2.139027 1_555
O10 Rh0 2.043526 1_556
O10 Zn0 2.139027 1_656
O11 Rh1 2.043526 1_565
O11 Zn1 2.139027 1_555
