# generated using pymatgen
data_CeAgS2O9
_symmetry_space_group_name_H-M   'P 1'
_cell_length_a   6.98215113
_cell_length_b   6.98215113
_cell_length_c   13.41097200
_cell_angle_alpha   90.00000000
_cell_angle_beta   90.00000000
_cell_angle_gamma   119.99999175
_symmetry_Int_Tables_number   1
_chemical_formula_structural   CeAgS2O9
_chemical_formula_sum   'Ce3 Ag3 S6 O27'
_cell_volume   566.19941126
_cell_formula_units_Z   3
loop_
 _symmetry_equiv_pos_site_id
 _symmetry_equiv_pos_as_xyz
  1  'x, y, z'
loop_
 _atom_site_type_symbol
 _atom_site_label
 _atom_site_symmetry_multiplicity
 _atom_site_fract_x
 _atom_site_fract_y
 _atom_site_fract_z
 _atom_site_occupancy
  Ce  Ce0  1  0.60067500  0.60067500  0.00000000  1
  Ce  Ce1  1  0.00000000  0.39932500  0.66666700  1
  Ce  Ce2  1  0.39932500  0.00000000  0.33333300  1
  Ag  Ag0  1  0.46784300  0.00000000  0.83333300  1
  Ag  Ag1  1  0.53215700  0.53215700  0.50000000  1
  Ag  Ag2  1  0.00000000  0.46784300  0.16666700  1
  S  S0  1  0.02449300  0.45516600  0.90753000  1
  S  S1  1  0.43067200  0.97550700  0.57419700  1
  S  S2  1  0.54483400  0.56932800  0.24086400  1
  S  S3  1  0.97550700  0.43067200  0.42580300  1
  S  S4  1  0.45516600  0.02449300  0.09247000  1
  S  S5  1  0.56932800  0.54483400  0.75913600  1
  O  O0  1  0.18825500  0.42321500  0.96336300  1
  O  O1  1  0.23496100  0.81174500  0.63002900  1
  O  O2  1  0.57678500  0.76503900  0.29669600  1
  O  O3  1  0.81174500  0.23496100  0.36997100  1
  O  O4  1  0.42321500  0.18825500  0.03663700  1
  O  O5  1  0.76503900  0.57678500  0.70330400  1
  O  O6  1  0.88585500  0.49072300  0.98103500  1
  O  O7  1  0.60486800  0.11414500  0.64770200  1
  O  O8  1  0.50927700  0.39513200  0.31436800  1
  O  O9  1  0.11414500  0.60486800  0.35229800  1
  O  O10  1  0.49072300  0.88585500  0.01896500  1
  O  O11  1  0.39513200  0.50927700  0.68563200  1
  O  O12  1  0.13583600  0.64292800  0.83346200  1
  O  O13  1  0.50709200  0.86416400  0.50012900  1
  O  O14  1  0.35707200  0.49290800  0.16679500  1
  O  O15  1  0.86416400  0.50709200  0.49987100  1
  O  O16  1  0.64292800  0.13583600  0.16653800  1
  O  O17  1  0.49290800  0.35707200  0.83320500  1
  O  O18  1  0.87874300  0.25943900  0.84309700  1
  O  O19  1  0.38069600  0.12125700  0.50976300  1
  O  O20  1  0.74056100  0.61930400  0.17643000  1
  O  O21  1  0.12125700  0.38069600  0.49023700  1
  O  O22  1  0.25943900  0.87874300  0.15690300  1
  O  O23  1  0.61930400  0.74056100  0.82357000  1
  O  O24  1  0.86435400  0.86435400  0.00000000  1
  O  O25  1  0.00000000  0.13564600  0.66666700  1
  O  O26  1  0.13564600  0.00000000  0.33333300  1
loop_
_geom_bond_atom_site_label_1
_geom_bond_atom_site_label_2
_geom_bond_distance
_geom_bond_site_symmetry_2
Ce0 O24 1.841047 1_555
Ce0 O10 2.479402 1_555
Ce0 O6 2.479402 1_554
Ce0 O23 2.538159 1_554
Ce0 O20 2.538159 1_555
Ce0 O4 2.549645 1_555
Ce0 O0 2.549645 1_554
Ce0 O14 2.680107 1_555
Ce0 O17 2.680107 1_554
Ce1 O25 1.841047 1_555
Ce1 O11 2.479402 1_555
Ce1 O7 2.479403 1_455
Ce1 O21 2.538159 1_555
Ce1 O18 2.538159 1_455
Ce1 O1 2.549648 1_555
Ce1 O5 2.549651 1_455
Ce1 O12 2.680107 1_555
Ce1 O15 2.680118 1_455
Ce2 O26 1.841047 1_555
Ce2 O8 2.479402 1_555
Ce2 O9 2.479403 1_545
Ce2 O19 2.538159 1_555
Ce2 O22 2.538159 1_545
Ce2 O3 2.549648 1_555
Ce2 O2 2.549651 1_545
Ce2 O16 2.680107 1_555
Ce2 O13 2.680118 1_545
Ag0 O17 2.410397 1_555
Ag0 O12 2.410397 1_545
Ag0 O23 2.516439 1_545
Ag0 O18 2.516440 1_555
Ag0 O7 2.643025 1_555
Ag0 O10 2.643038 1_546
Ag1 O13 2.410397 1_555
Ag1 O15 2.410397 1_555
Ag1 O21 2.516439 1_555
Ag1 O19 2.516439 1_555
Ag1 O11 2.643038 1_555
Ag1 O8 2.643038 1_555
Ag2 O14 2.410397 1_555
Ag2 O16 2.410397 1_455
Ag2 O20 2.516439 1_455
Ag2 O22 2.516440 1_555
Ag2 O9 2.643025 1_555
Ag2 O6 2.643038 1_454
O0 S0 1.474076 1_555
O1 S1 1.474062 1_555
O2 S2 1.474057 1_555
O3 S3 1.474062 1_555
O4 S4 1.474076 1_555
O5 S5 1.474057 1_555
O6 S0 1.486846 1_655
O7 S1 1.486849 1_545
O8 S2 1.486842 1_555
O9 S3 1.486849 1_455
O10 S4 1.486846 1_565
O11 S5 1.486842 1_555
O12 S0 1.513461 1_555
O13 S1 1.513465 1_555
O14 S2 1.513469 1_555
O15 S3 1.513465 1_555
O16 S4 1.513461 1_555
O17 S5 1.513469 1_555
O18 S0 1.503051 1_655
O19 S1 1.503055 1_545
O20 S2 1.503060 1_555
O21 S3 1.503055 1_455
O22 S4 1.503051 1_565
O23 S5 1.503060 1_555
