# generated using pymatgen
data_LiFe3P3O13
_symmetry_space_group_name_H-M   'P 1'
_cell_length_a   6.35790000
_cell_length_b   7.56996000
_cell_length_c   10.50118635
_cell_angle_alpha   80.55148054
_cell_angle_beta   90.00000000
_cell_angle_gamma   90.00000000
_symmetry_Int_Tables_number   1
_chemical_formula_structural   LiFe3P3O13
_chemical_formula_sum   'Li2 Fe6 P6 O26'
_cell_volume   498.55543544
_cell_formula_units_Z   2
loop_
 _symmetry_equiv_pos_site_id
 _symmetry_equiv_pos_as_xyz
  1  'x, y, z'
loop_
 _atom_site_type_symbol
 _atom_site_label
 _atom_site_symmetry_multiplicity
 _atom_site_fract_x
 _atom_site_fract_y
 _atom_site_fract_z
 _atom_site_occupancy
  Li  Li0  1  0.75000000  0.37908200  0.13546800  1
  Li  Li1  1  0.25000000  0.62091800  0.86453200  1
  Fe  Fe0  1  0.25000000  0.63836600  0.19650100  1
  Fe  Fe1  1  0.75000000  0.36163400  0.80349900  1
  Fe  Fe2  1  0.25000000  0.22061500  0.44479000  1
  Fe  Fe3  1  0.50000000  0.00000000  0.00000000  1
  Fe  Fe4  1  0.75000000  0.77938500  0.55521000  1
  Fe  Fe5  1  0.00000000  0.00000000  0.00000000  1
  P  P0  1  0.25000000  0.78129400  0.48283300  1
  P  P1  1  0.75000000  0.21870600  0.51716700  1
  P  P2  1  0.25000000  0.26817000  0.76675700  1
  P  P3  1  0.75000000  0.73183000  0.23324300  1
  P  P4  1  0.75000000  0.69413700  0.87975800  1
  P  P5  1  0.25000000  0.30586300  0.12024200  1
  O  O0  1  0.75000000  0.65094600  0.73933700  1
  O  O1  1  0.55473600  0.25929200  0.43068600  1
  O  O2  1  0.25000000  0.21781900  0.63181800  1
  O  O3  1  0.54586400  0.79517100  0.90363200  1
  O  O4  1  0.75000000  0.34375600  0.61883100  1
  O  O5  1  0.75000000  0.12472900  0.91029700  1
  O  O6  1  0.25000000  0.65624400  0.38116900  1
  O  O7  1  0.04586400  0.20482900  0.09636800  1
  O  O8  1  0.25000000  0.97910000  0.41499000  1
  O  O9  1  0.75000000  0.02090000  0.58501000  1
  O  O10  1  0.06002100  0.38344500  0.79329900  1
  O  O11  1  0.25000000  0.87527100  0.08970300  1
  O  O12  1  0.56002100  0.61655500  0.20670100  1
  O  O13  1  0.75000000  0.50120800  0.95772100  1
  O  O14  1  0.75000000  0.78218100  0.36818200  1
  O  O15  1  0.45413600  0.20482900  0.09636800  1
  O  O16  1  0.94526400  0.25929200  0.43068600  1
  O  O17  1  0.44526400  0.74070800  0.56931400  1
  O  O18  1  0.43997900  0.38344500  0.79329900  1
  O  O19  1  0.25000000  0.34905400  0.26066300  1
  O  O20  1  0.75000000  0.90822400  0.12876100  1
  O  O21  1  0.25000000  0.09177600  0.87123900  1
  O  O22  1  0.93997900  0.61655500  0.20670100  1
  O  O23  1  0.95413600  0.79517100  0.90363200  1
  O  O24  1  0.05473600  0.74070800  0.56931400  1
  O  O25  1  0.25000000  0.49879200  0.04227900  1
loop_
_geom_bond_atom_site_label_1
_geom_bond_atom_site_label_2
_geom_bond_distance
_geom_bond_site_symmetry_2
Li0 O13 1.942202 1_554
Li0 O7 2.371676 1_655
Li0 O15 2.371676 1_555
Li0 O12 2.385703 1_555
Li0 O22 2.385703 1_555
Li1 O25 1.942202 1_556
Li1 O23 2.371676 1_455
Li1 O3 2.371676 1_555
Li1 O10 2.385703 1_555
Li1 O18 2.385703 1_555
Fe0 O11 1.952838 1_555
Fe0 O6 1.965988 1_555
Fe0 O12 1.979418 1_555
Fe0 O22 1.979418 1_455
Fe0 O25 2.073877 1_555
Fe0 O19 2.183105 1_555
Fe1 O5 1.952838 1_555
Fe1 O4 1.965988 1_555
Fe1 O18 1.979418 1_555
Fe1 O10 1.979418 1_655
Fe1 O13 2.073877 1_555
Fe1 O0 2.183105 1_555
Fe2 O8 1.904810 1_545
Fe2 O2 1.960652 1_555
Fe2 O16 1.961442 1_455
Fe2 O1 1.961442 1_555
Fe2 O19 2.016610 1_555
Fe3 O11 2.003312 1_545
Fe3 O5 2.003312 1_554
Fe3 O15 2.007114 1_555
Fe3 O3 2.007114 1_544
Fe3 O20 2.128136 1_545
Fe3 O21 2.128136 1_554
Fe4 O9 1.904810 1_565
Fe4 O14 1.960652 1_555
Fe4 O24 1.961442 1_655
Fe4 O17 1.961442 1_555
Fe4 O0 2.016610 1_555
Fe5 O11 2.003312 1_545
Fe5 O5 2.003312 1_454
Fe5 O7 2.007114 1_555
Fe5 O23 2.007114 1_444
Fe5 O20 2.128136 1_445
Fe5 O21 2.128136 1_554
O0 P4 1.561921 1_555
O1 P1 1.539082 1_555
O2 P2 1.526615 1_555
O3 P4 1.547658 1_555
O4 P1 1.538719 1_555
O6 P0 1.538719 1_555
O7 P5 1.547658 1_555
O8 P0 1.549021 1_555
O9 P1 1.549021 1_555
O10 P2 1.542065 1_555
O12 P3 1.542065 1_555
O13 P4 1.552631 1_555
O14 P3 1.526615 1_555
O15 P5 1.547658 1_555
O16 P1 1.539082 1_555
O17 P0 1.539082 1_555
O18 P2 1.542065 1_555
O19 P5 1.561921 1_555
O20 P3 1.582976 1_555
O21 P2 1.582976 1_555
O22 P3 1.542065 1_555
O23 P4 1.547658 1_555
O24 P0 1.539082 1_555
O25 P5 1.552631 1_555
