# generated using pymatgen
data_CaZr4(PbO4)3
_symmetry_space_group_name_H-M   'P 1'
_cell_length_a   8.35541542
_cell_length_b   8.35178654
_cell_length_c   8.37983340
_cell_angle_alpha   90.73189043
_cell_angle_beta   89.25369219
_cell_angle_gamma   90.78793756
_symmetry_Int_Tables_number   1
_chemical_formula_structural   CaZr4(PbO4)3
_chemical_formula_sum   'Ca2 Zr8 Pb6 O24'
_cell_volume   584.61566389
_cell_formula_units_Z   2
loop_
 _symmetry_equiv_pos_site_id
 _symmetry_equiv_pos_as_xyz
  1  'x, y, z'
loop_
 _atom_site_type_symbol
 _atom_site_label
 _atom_site_symmetry_multiplicity
 _atom_site_fract_x
 _atom_site_fract_y
 _atom_site_fract_z
 _atom_site_occupancy
  Ca  Ca0  1  0.53011100  0.47211500  0.02387500  1
  Ca  Ca1  1  0.02915600  0.47183700  0.52580500  1
  Zr  Zr0  1  0.75153900  0.25228800  0.75041500  1
  Zr  Zr1  1  0.24913800  0.74731200  0.24746000  1
  Zr  Zr2  1  0.74474100  0.74860300  0.24699800  1
  Zr  Zr3  1  0.25027800  0.25493900  0.25143300  1
  Zr  Zr4  1  0.24624800  0.74963800  0.74795200  1
  Zr  Zr5  1  0.74942900  0.25273900  0.25303600  1
  Zr  Zr6  1  0.25009000  0.25372100  0.75456800  1
  Zr  Zr7  1  0.75070500  0.74721900  0.74680800  1
  Pb  Pb0  1  0.51311600  0.98282800  0.52513400  1
  Pb  Pb1  1  0.51844400  0.98508500  0.01793200  1
  Pb  Pb2  1  0.01312900  0.48539100  0.01888900  1
  Pb  Pb3  1  0.02210500  0.98272800  0.51359000  1
  Pb  Pb4  1  0.51604300  0.48328600  0.52082900  1
  Pb  Pb5  1  0.01362100  0.98154200  0.02304000  1
  O  O0  1  0.70333900  0.73366800  0.48954900  1
  O  O1  1  0.49368400  0.30355400  0.26293100  1
  O  O2  1  0.26417000  0.50781500  0.69905100  1
  O  O3  1  0.99267300  0.23672300  0.20030700  1
  O  O4  1  0.20115200  0.00863500  0.76078100  1
  O  O5  1  0.76460700  0.79655600  0.98870600  1
  O  O6  1  0.20193400  0.24002800  0.49388200  1
  O  O7  1  0.49074600  0.79794800  0.75683200  1
  O  O8  1  0.76246900  0.50660500  0.19573000  1
  O  O9  1  0.99100600  0.71768200  0.68937000  1
  O  O10  1  0.69693700  0.00735800  0.25820300  1
  O  O11  1  0.27902400  0.31470100  0.99435700  1
  O  O12  1  0.76539800  0.00793600  0.70284200  1
  O  O13  1  0.70122500  0.23781500  0.99235000  1
  O  O14  1  0.99423700  0.30382800  0.76394200  1
  O  O15  1  0.18527100  0.50948200  0.27975600  1
  O  O16  1  0.26165300  0.79959000  0.48962900  1
  O  O17  1  0.48894500  0.71776700  0.18797900  1
  O  O18  1  0.26401900  0.00951900  0.20571400  1
  O  O19  1  0.19941300  0.73798600  0.99071500  1
  O  O20  1  0.98913500  0.79895200  0.25769500  1
  O  O21  1  0.68742800  0.50791500  0.77776300  1
  O  O22  1  0.77810800  0.31320200  0.49325200  1
  O  O23  1  0.49353300  0.23546700  0.69890000  1
loop_
_geom_bond_atom_site_label_1
_geom_bond_atom_site_label_2
_geom_bond_distance
_geom_bond_site_symmetry_2
Ca0 O8 2.443969 1_555
Ca0 O13 2.448872 1_554
Ca0 O21 2.450490 1_554
Ca0 O11 2.473920 1_554
Ca0 O1 2.476264 1_555
Ca0 O17 2.480644 1_555
Ca1 O6 2.440775 1_555
Ca1 O15 2.446787 1_555
Ca1 O14 2.466039 1_455
Ca1 O2 2.469960 1_555
Ca1 O9 2.476049 1_455
Ca1 O22 2.481722 1_455
O0 Zr2 2.062379 1_555
O0 Zr7 2.198094 1_555
O0 Pb4 2.608428 1_555
O0 Pb0 2.647287 1_555
O1 Zr3 2.071643 1_555
O1 Zr5 2.184621 1_555
O1 Pb4 2.622712 1_555
O2 Zr4 2.062747 1_555
O2 Zr6 2.179604 1_555
O2 Pb4 2.573621 1_555
O3 Zr5 2.079994 1_555
O3 Zr3 2.202920 1_655
O3 Pb5 2.588812 1_645
O3 Pb2 2.591852 1_655
O4 Zr6 2.082998 1_555
O4 Zr4 2.201795 1_545
O4 Pb3 2.576047 1_545
O4 Pb5 2.692480 1_546
O5 Zr7 2.067789 1_555
O5 Zr2 2.209915 1_556
O5 Pb5 2.591232 1_656
O5 Pb1 2.614517 1_556
O6 Zr3 2.071257 1_555
O6 Zr6 2.227619 1_555
O6 Pb3 2.610853 1_545
O7 Zr4 2.078995 1_555
O7 Zr7 2.219026 1_555
O7 Pb0 2.499617 1_555
O7 Pb1 2.683173 1_556
O8 Zr2 2.067804 1_555
O8 Zr5 2.180864 1_555
O8 Pb2 2.556646 1_655
O9 Zr7 2.075875 1_555
O9 Zr4 2.206513 1_655
O9 Pb3 2.682319 1_655
O10 Zr5 2.090743 1_555
O10 Zr2 2.203666 1_545
O10 Pb1 2.524630 1_545
O10 Pb0 2.705173 1_545
O11 Zr6 2.082932 1_555
O11 Zr3 2.226727 1_556
O11 Pb2 2.660453 1_556
O12 Zr0 2.078849 1_555
O12 Zr7 2.214515 1_545
O12 Pb0 2.601259 1_545
O12 Pb3 2.659934 1_645
O13 Zr0 2.069843 1_555
O13 Zr5 2.228094 1_556
O13 Pb1 2.597683 1_546
O14 Zr0 2.071477 1_555
O14 Zr6 2.184193 1_655
O14 Pb2 2.609217 1_656
O15 Zr1 2.069840 1_555
O15 Zr3 2.210490 1_555
O15 Pb2 2.636408 1_555
O16 Zr1 2.073983 1_555
O16 Zr4 2.211536 1_555
O16 Pb3 2.540030 1_555
O16 Pb0 2.600247 1_555
O17 Zr1 2.075700 1_555
O17 Zr2 2.210891 1_555
O17 Pb1 2.670710 1_555
O18 Zr3 2.084821 1_555
O18 Zr1 2.223608 1_545
O18 Pb5 2.614563 1_545
O18 Pb1 2.636954 1_545
O19 Zr4 2.069857 1_555
O19 Zr1 2.196740 1_556
O19 Pb5 2.585095 1_556
O19 Pb2 2.615666 1_556
O20 Zr2 2.082034 1_555
O20 Zr1 2.220991 1_655
O20 Pb5 2.508285 1_655
O20 Pb3 2.636214 1_655
O21 Zr7 2.078916 1_555
O21 Zr0 2.216574 1_555
O21 Pb4 2.605667 1_555
O22 Zr5 2.085123 1_555
O22 Zr0 2.228114 1_555
O22 Pb4 2.632458 1_555
O23 Zr6 2.088128 1_555
O23 Zr0 2.206287 1_555
O23 Pb0 2.554199 1_545
O23 Pb4 2.570355 1_555
