# generated using pymatgen
data_ScZnMo3O8
_symmetry_space_group_name_H-M   'P 1'
_cell_length_a   6.31806047
_cell_length_b   6.31806047
_cell_length_c   9.61882200
_cell_angle_alpha   90.00000000
_cell_angle_beta   90.00000000
_cell_angle_gamma   120.00000487
_symmetry_Int_Tables_number   1
_chemical_formula_structural   ScZnMo3O8
_chemical_formula_sum   'Sc2 Zn2 Mo6 O16'
_cell_volume   332.52174750
_cell_formula_units_Z   2
loop_
 _symmetry_equiv_pos_site_id
 _symmetry_equiv_pos_as_xyz
  1  'x, y, z'
loop_
 _atom_site_type_symbol
 _atom_site_label
 _atom_site_symmetry_multiplicity
 _atom_site_fract_x
 _atom_site_fract_y
 _atom_site_fract_z
 _atom_site_occupancy
  Sc  Sc0  1  0.66666700  0.33333300  0.03178900  1
  Sc  Sc1  1  0.33333300  0.66666700  0.53178900  1
  Zn  Zn0  1  0.66666700  0.33333300  0.41998700  1
  Zn  Zn1  1  0.33333300  0.66666700  0.91998700  1
  Mo  Mo0  1  0.32907300  0.16453600  0.74549100  1
  Mo  Mo1  1  0.16453600  0.83546400  0.24549100  1
  Mo  Mo2  1  0.83546400  0.67092700  0.74549100  1
  Mo  Mo3  1  0.16453600  0.32907300  0.24549100  1
  Mo  Mo4  1  0.67092700  0.83546400  0.24549100  1
  Mo  Mo5  1  0.83546400  0.16453600  0.74549100  1
  O  O0  1  0.83004000  0.16996000  0.14735600  1
  O  O1  1  0.66008100  0.83004000  0.64735600  1
  O  O2  1  0.16996000  0.33991900  0.64735600  1
  O  O3  1  0.83004000  0.66008100  0.14735600  1
  O  O4  1  0.33991900  0.16996000  0.14735600  1
  O  O5  1  0.16996000  0.83004000  0.64735600  1
  O  O6  1  0.51784100  0.48215900  0.87630000  1
  O  O7  1  0.03568300  0.51784100  0.37630000  1
  O  O8  1  0.48215900  0.96431700  0.37630000  1
  O  O9  1  0.51784100  0.03568300  0.87630000  1
  O  O10  1  0.00000000  0.00000000  0.35499500  1
  O  O11  1  0.00000000  0.00000000  0.85499500  1
  O  O12  1  0.33333300  0.66666700  0.12898900  1
  O  O13  1  0.66666700  0.33333300  0.62898900  1
  O  O14  1  0.48215900  0.51784100  0.37630000  1
  O  O15  1  0.96431700  0.48215900  0.87630000  1
loop_
_geom_bond_atom_site_label_1
_geom_bond_atom_site_label_2
_geom_bond_distance
_geom_bond_site_symmetry_2
Mo0 O5 2.059953 1_545
Mo0 O2 2.059953 1_555
Mo0 O11 2.086011 1_555
Mo0 O9 2.153890 1_555
Mo0 O6 2.153899 1_555
Mo0 O13 2.160519 1_555
Mo1 O3 2.059953 1_455
Mo1 O4 2.059953 1_565
Mo1 O10 2.086006 1_565
Mo1 O8 2.153900 1_555
Mo1 O7 2.153900 1_555
Mo1 O12 2.160519 1_555
Mo2 O5 2.059953 1_655
Mo2 O1 2.059953 1_555
Mo2 O11 2.086011 1_665
Mo2 O15 2.153890 1_555
Mo2 O6 2.153899 1_555
Mo2 O13 2.160519 1_555
Mo3 O0 2.059953 1_455
Mo3 O4 2.059953 1_555
Mo3 O10 2.086011 1_555
Mo3 O7 2.153890 1_555
Mo3 O14 2.153899 1_555
Mo3 O12 2.160519 1_555
Mo4 O0 2.059953 1_565
Mo4 O3 2.059953 1_555
Mo4 O10 2.086011 1_665
Mo4 O8 2.153890 1_555
Mo4 O14 2.153899 1_555
Mo4 O12 2.160519 1_555
Mo5 O1 2.059953 1_545
Mo5 O2 2.059953 1_655
Mo5 O11 2.086006 1_655
Mo5 O15 2.153900 1_555
Mo5 O9 2.153900 1_555
Mo5 O13 2.160519 1_555
O0 Sc0 2.105234 1_555
O1 Sc1 2.105243 1_555
O2 Sc1 2.105243 1_555
O3 Sc0 2.105243 1_555
O4 Sc0 2.105243 1_555
O5 Sc1 2.105234 1_555
O6 Zn1 2.062373 1_555
O6 Sc0 2.211182 1_556
O7 Zn0 2.062373 1_455
O7 Sc1 2.211174 1_555
O8 Zn0 2.062373 1_565
O8 Sc1 2.211174 1_555
O9 Zn1 2.062373 1_545
O9 Sc0 2.211174 1_556
O12 Zn1 2.010353 1_554
O13 Zn0 2.010353 1_555
O14 Zn0 2.062373 1_555
O14 Sc1 2.211182 1_555
O15 Zn1 2.062373 1_655
O15 Sc0 2.211174 1_556
