# generated using pymatgen
data_K2ZrO3
_symmetry_space_group_name_H-M   'P 1'
_cell_length_a   5.88428414
_cell_length_b   6.96122699
_cell_length_c   10.45314175
_cell_angle_alpha   90.00000000
_cell_angle_beta   90.00000000
_cell_angle_gamma   90.00000000
_symmetry_Int_Tables_number   1
_chemical_formula_structural   K2ZrO3
_chemical_formula_sum   'K8 Zr4 O12'
_cell_volume   428.17989448
_cell_formula_units_Z   4
loop_
 _symmetry_equiv_pos_site_id
 _symmetry_equiv_pos_as_xyz
  1  'x, y, z'
loop_
 _atom_site_type_symbol
 _atom_site_label
 _atom_site_symmetry_multiplicity
 _atom_site_fract_x
 _atom_site_fract_y
 _atom_site_fract_z
 _atom_site_occupancy
  K  K0  1  0.23429875  0.61377497  0.91428190  1
  K  K1  1  0.23429875  0.61377497  0.58571810  1
  K  K2  1  0.76570125  0.38622503  0.08571810  1
  K  K3  1  0.26570125  0.11377497  0.41428190  1
  K  K4  1  0.26570125  0.11377497  0.08571810  1
  K  K5  1  0.76570125  0.38622503  0.41428190  1
  K  K6  1  0.73429875  0.88622503  0.58571810  1
  K  K7  1  0.73429875  0.88622503  0.91428190  1
  Zr  Zr0  1  0.27860487  0.15849894  0.75000000  1
  Zr  Zr1  1  0.77860487  0.34150106  0.75000000  1
  Zr  Zr2  1  0.22139513  0.65849894  0.25000000  1
  Zr  Zr3  1  0.72139513  0.84150106  0.25000000  1
  O  O0  1  0.98375150  0.77030081  0.37867850  1
  O  O1  1  0.48375150  0.72969919  0.12132150  1
  O  O2  1  0.51624850  0.27030081  0.62132150  1
  O  O3  1  0.01624850  0.22969919  0.87867850  1
  O  O4  1  0.01624850  0.22969919  0.62132150  1
  O  O5  1  0.51624850  0.27030081  0.87867850  1
  O  O6  1  0.48375150  0.72969919  0.37867850  1
  O  O7  1  0.98375150  0.77030081  0.12132150  1
  O  O8  1  0.15707976  0.38969568  0.25000000  1
  O  O9  1  0.84292024  0.61030432  0.75000000  1
  O  O10  1  0.34292024  0.88969568  0.75000000  1
  O  O11  1  0.65707976  0.11030432  0.25000000  1
loop_
_geom_bond_atom_site_label_1
_geom_bond_atom_site_label_2
_geom_bond_distance
_geom_bond_site_symmetry_2
K0 O10 2.654578 1_555
K0 O1 2.736717 1_556
K0 O7 2.836303 1_456
K0 O9 2.872856 1_455
K0 O5 2.933925 1_555
K0 O3 2.988833 1_555
K1 O10 2.654578 1_555
K1 O6 2.736717 1_555
K1 O0 2.836303 1_455
K1 O9 2.872856 1_455
K1 O2 2.933925 1_555
K1 O4 2.988833 1_555
K2 O11 2.654578 1_555
K2 O5 2.736717 1_554
K2 O3 2.836303 1_654
K2 O8 2.872856 1_655
K2 O1 2.933925 1_555
K2 O7 2.988833 1_555
K3 O8 2.654578 1_555
K3 O4 2.736717 1_555
K3 O2 2.836303 1_555
K3 O11 2.872856 1_555
K3 O0 2.933925 1_445
K3 O6 2.988833 1_545
K4 O8 2.654578 1_555
K4 O3 2.736717 1_554
K4 O5 2.836303 1_554
K4 O11 2.872856 1_555
K4 O7 2.933925 1_445
K4 O1 2.988833 1_545
K5 O11 2.654578 1_555
K5 O2 2.736717 1_555
K5 O4 2.836303 1_655
K5 O8 2.872856 1_655
K5 O6 2.933925 1_555
K5 O0 2.988833 1_555
K6 O9 2.654578 1_555
K6 O0 2.736717 1_555
K6 O6 2.836303 1_555
K6 O10 2.872856 1_555
K6 O4 2.933925 1_665
K6 O2 2.988833 1_565
K7 O9 2.654578 1_555
K7 O7 2.736717 1_556
K7 O1 2.836303 1_556
K7 O10 2.872856 1_555
K7 O3 2.933925 1_665
K7 O5 2.988833 1_565
O0 Zr2 2.090554 1_655
O0 Zr3 2.106702 1_555
O1 Zr3 2.090554 1_555
O1 Zr2 2.106702 1_555
O2 Zr0 2.090554 1_555
O2 Zr1 2.106702 1_555
O3 Zr1 2.090554 1_455
O3 Zr0 2.106702 1_555
O4 Zr1 2.090554 1_455
O4 Zr0 2.106702 1_555
O5 Zr0 2.090554 1_555
O5 Zr1 2.106702 1_555
O6 Zr3 2.090554 1_555
O6 Zr2 2.106702 1_555
O7 Zr2 2.090554 1_655
O7 Zr3 2.106702 1_555
O8 Zr2 1.909088 1_555
O9 Zr1 1.909088 1_555
O10 Zr0 1.909088 1_565
O11 Zr3 1.909088 1_545
