# generated using pymatgen
data_TbPrFe4
_symmetry_space_group_name_H-M   'P 1'
_cell_length_a   5.23809996
_cell_length_b   5.23809996
_cell_length_c   5.23809996
_cell_angle_alpha   60.00000000
_cell_angle_beta   60.00000000
_cell_angle_gamma   60.00000000
_symmetry_Int_Tables_number   1
_chemical_formula_structural   TbPrFe4
_chemical_formula_sum   'Tb1 Pr1 Fe4'
_cell_volume   101.62635453
_cell_formula_units_Z   1
loop_
 _symmetry_equiv_pos_site_id
 _symmetry_equiv_pos_as_xyz
  1  'x, y, z'
loop_
 _atom_site_type_symbol
 _atom_site_label
 _atom_site_symmetry_multiplicity
 _atom_site_fract_x
 _atom_site_fract_y
 _atom_site_fract_z
 _atom_site_occupancy
  Tb  Tb0  1  0.00000000  0.00000000  0.00000000  1
  Pr  Pr0  1  0.25000000  0.25000000  0.25000000  1
  Fe  Fe0  1  0.62506400  0.62506400  0.12480700  1
  Fe  Fe1  1  0.62506400  0.12480700  0.62506400  1
  Fe  Fe2  1  0.12480700  0.62506400  0.62506400  1
  Fe  Fe3  1  0.62506400  0.62506400  0.62506400  1
loop_
_geom_bond_atom_site_label_1
_geom_bond_atom_site_label_2
_geom_bond_distance
_geom_bond_site_symmetry_2
Pr0 Tb0 3.207668 1_655
Pr0 Tb0 3.207668 1_555
Pr0 Tb0 3.207668 1_565
Pr0 Tb0 3.207668 1_556
Fe0 Fe3 2.617704 1_554
Fe0 Fe2 2.617704 1_654
Fe0 Fe1 2.617704 1_564
Fe0 Fe3 2.620396 1_555
Fe0 Fe2 2.620396 1_555
Fe0 Fe1 2.620396 1_555
Fe0 Tb0 3.070963 1_655
Fe0 Tb0 3.070963 1_565
Fe0 Tb0 3.070968 1_665
Fe0 Pr0 3.071249 1_555
Fe0 Pr0 3.071254 1_565
Fe0 Pr0 3.071254 1_655
Fe1 Fe3 2.617704 1_545
Fe1 Fe2 2.617704 1_645
Fe1 Fe3 2.620396 1_555
Fe1 Fe2 2.620396 1_555
Fe1 Tb0 3.070963 1_655
Fe1 Tb0 3.070963 1_556
Fe1 Tb0 3.070968 1_656
Fe1 Pr0 3.071249 1_555
Fe1 Pr0 3.071254 1_655
Fe1 Pr0 3.071254 1_556
Fe2 Fe3 2.617704 1_455
Fe2 Fe3 2.620396 1_555
Fe2 Tb0 3.070963 1_556
Fe2 Tb0 3.070963 1_565
Fe2 Tb0 3.070968 1_566
Fe2 Pr0 3.071249 1_555
Fe2 Pr0 3.071254 1_565
Fe2 Pr0 3.071254 1_556
Fe3 Tb0 3.070965 1_566
Fe3 Tb0 3.070965 1_665
Fe3 Tb0 3.070965 1_656
Fe3 Pr0 3.071251 1_655
Fe3 Pr0 3.071251 1_565
Fe3 Pr0 3.071251 1_556
