# generated using pymatgen
data_Ta5Ge3
_symmetry_space_group_name_H-M   'P 1'
_cell_length_a   6.63483552
_cell_length_b   6.63483633
_cell_length_c   7.62310695
_cell_angle_alpha   115.79658048
_cell_angle_beta   115.79670204
_cell_angle_gamma   90.00000666
_symmetry_Int_Tables_number   1
_chemical_formula_structural   Ta5Ge3
_chemical_formula_sum   'Ta10 Ge6'
_cell_volume   264.49773547
_cell_formula_units_Z   2
loop_
 _symmetry_equiv_pos_site_id
 _symmetry_equiv_pos_as_xyz
  1  'x, y, z'
loop_
 _atom_site_type_symbol
 _atom_site_label
 _atom_site_symmetry_multiplicity
 _atom_site_fract_x
 _atom_site_fract_y
 _atom_site_fract_z
 _atom_site_occupancy
  Ta  Ta0  1  0.18541608  0.00705449  0.69247296  1
  Ta  Ta1  1  0.00705688  0.50705449  0.69247296  1
  Ta  Ta2  1  0.68546222  0.18545972  0.69244352  1
  Ta  Ta3  1  0.99294312  0.49294551  0.30752704  1
  Ta  Ta4  1  0.50698030  0.68545972  0.69244352  1
  Ta  Ta5  1  0.81458392  0.99294551  0.30752704  1
  Ta  Ta6  1  0.49301970  0.31454028  0.30755648  1
  Ta  Ta7  1  0.31453778  0.81454028  0.30755648  1
  Ta  Ta8  1  0.50000000  0.50000000  0.00000000  1
  Ta  Ta9  1  -0.00000000  -0.00000000  0.00000000  1
  Ge  Ge0  1  0.63589881  0.13589887  0.99995670  1
  Ge  Ge1  1  0.86405789  0.63589887  0.99995670  1
  Ge  Ge2  1  0.13594211  0.36410113  0.00004330  1
  Ge  Ge3  1  0.36410119  0.86410113  0.00004330  1
  Ge  Ge4  1  0.74998829  0.75000000  0.50000000  1
  Ge  Ge5  1  0.25001171  0.25000000  0.50000000  1
loop_
_geom_bond_atom_site_label_1
_geom_bond_atom_site_label_2
_geom_bond_distance
_geom_bond_site_symmetry_2
Ge0 Ge3 2.550704 1_546
Ge0 Ta8 2.578454 1_556
Ge0 Ta9 2.578454 1_656
Ge0 Ta3 2.655676 1_556
Ge0 Ta2 2.655827 1_555
Ge0 Ta4 2.704779 1_545
Ge0 Ta0 2.704960 1_555
Ge0 Ta6 2.705116 1_556
Ge0 Ta5 2.705303 1_546
Ge1 Ge2 2.550704 1_656
Ge1 Ta9 2.578453 1_666
Ge1 Ta8 2.578454 1_556
Ge1 Ta5 2.655677 1_556
Ge1 Ta4 2.655830 1_555
Ge1 Ta2 2.704780 1_555
Ge1 Ta1 2.704961 1_655
Ge1 Ta7 2.705120 1_656
Ge1 Ta3 2.705303 1_556
Ge2 Ta9 2.578453 1_555
Ge2 Ta8 2.578454 1_555
Ge2 Ta0 2.655677 1_554
Ge2 Ta6 2.655830 1_555
Ge2 Ta7 2.704780 1_555
Ge2 Ta3 2.704961 1_455
Ge2 Ta2 2.705120 1_454
Ge2 Ta1 2.705303 1_554
Ge3 Ta8 2.578454 1_555
Ge3 Ta9 2.578454 1_565
Ge3 Ta1 2.655676 1_554
Ge3 Ta7 2.655827 1_555
Ge3 Ta6 2.704779 1_565
Ge3 Ta5 2.704960 1_555
Ge3 Ta4 2.705116 1_554
Ge3 Ta0 2.705303 1_564
Ge4 Ta5 2.745990 1_555
Ge4 Ta1 2.745990 1_655
Ge4 Ta7 2.745990 1_555
Ge4 Ta4 2.745995 1_555
Ge4 Ta6 2.746004 1_555
Ge4 Ta0 2.746007 1_665
Ge4 Ta2 2.746007 1_565
Ge4 Ta3 2.746007 1_555
Ge4 Ta9 3.004219 1_666
Ge4 Ta8 3.004219 1_555
Ge5 Ta0 2.745990 1_555
Ge5 Ta3 2.745990 1_455
Ge5 Ta2 2.745990 1_555
Ge5 Ta6 2.745995 1_555
Ge5 Ta4 2.746004 1_555
Ge5 Ta5 2.746007 1_445
Ge5 Ta7 2.746007 1_545
Ge5 Ta1 2.746007 1_555
Ge5 Ta9 3.004219 1_555
Ge5 Ta8 3.004219 1_556
