# generated using pymatgen
data_Ca3LaTi2Cr2O12
_symmetry_space_group_name_H-M   'P 1'
_cell_length_a   7.70983212
_cell_length_b   9.43374181
_cell_length_c   7.78115004
_cell_angle_alpha   113.99670764
_cell_angle_beta   90.59647671
_cell_angle_gamma   113.82227583
_symmetry_Int_Tables_number   1
_chemical_formula_structural   Ca3LaTi2Cr2O12
_chemical_formula_sum   'Ca6 La2 Ti4 Cr4 O24'
_cell_volume   462.53287078
_cell_formula_units_Z   2
loop_
 _symmetry_equiv_pos_site_id
 _symmetry_equiv_pos_as_xyz
  1  'x, y, z'
loop_
 _atom_site_type_symbol
 _atom_site_label
 _atom_site_symmetry_multiplicity
 _atom_site_fract_x
 _atom_site_fract_y
 _atom_site_fract_z
 _atom_site_occupancy
  Ca  Ca0  1  0.10050300  0.24756800  0.63777600  1
  Ca  Ca1  1  0.60103900  0.24778100  0.13759000  1
  Ca  Ca2  1  0.10697900  0.24735900  0.14832700  1
  Ca  Ca3  1  0.60718600  0.24739200  0.64878500  1
  Ca  Ca4  1  0.40064800  0.75295100  0.86189800  1
  Ca  Ca5  1  0.90111300  0.75313700  0.36177200  1
  La  La0  1  0.38862400  0.75233400  0.35612600  1
  La  La1  1  0.88877700  0.75233100  0.85647900  1
  Ti  Ti0  1  0.99601200  0.49351500  0.49722800  1
  Ti  Ti1  1  0.49597400  0.49348100  0.99720800  1
  Ti  Ti2  1  0.25430200  0.00915700  0.25404600  1
  Ti  Ti3  1  0.75377600  0.00857000  0.75368300  1
  Cr  Cr0  1  0.25113800  0.00199400  0.75085600  1
  Cr  Cr1  1  0.99761100  0.49727300  0.99855400  1
  Cr  Cr2  1  0.75122300  0.00201900  0.25078400  1
  Cr  Cr3  1  0.49766300  0.49731200  0.49858900  1
  O  O0  1  0.26632800  0.54296200  0.98552800  1
  O  O1  1  0.76648800  0.54340600  0.48569600  1
  O  O2  1  0.77226700  0.96773700  0.98097900  1
  O  O3  1  0.27220000  0.96775400  0.48101800  1
  O  O4  1  0.02585500  0.04175000  0.30843500  1
  O  O5  1  0.52579800  0.04190400  0.80845700  1
  O  O6  1  0.94098200  0.46046300  0.72821400  1
  O  O7  1  0.44099200  0.46054400  0.22835700  1
  O  O8  1  0.23417300  0.45671300  0.51238700  1
  O  O9  1  0.73420900  0.45692300  0.01234500  1
  O  O10  1  0.72686700  0.03568700  0.52111400  1
  O  O11  1  0.22690800  0.03573000  0.02118300  1
  O  O12  1  0.47395000  0.95594500  0.19081500  1
  O  O13  1  0.97391700  0.95612400  0.69083000  1
  O  O14  1  0.55276600  0.53704300  0.76846200  1
  O  O15  1  0.05267300  0.53691700  0.26851100  1
  O  O16  1  0.92906400  0.25562300  0.90350700  1
  O  O17  1  0.42968900  0.25558000  0.40348500  1
  O  O18  1  0.34573500  0.25429200  0.83117000  1
  O  O19  1  0.84581100  0.25428600  0.33112000  1
  O  O20  1  0.57775500  0.74427300  0.59990100  1
  O  O21  1  0.07821700  0.74412700  0.09979700  1
  O  O22  1  0.15734900  0.74502600  0.66452700  1
  O  O23  1  0.65743400  0.74501700  0.16446100  1
loop_
_geom_bond_atom_site_label_1
_geom_bond_atom_site_label_2
_geom_bond_distance
_geom_bond_site_symmetry_2
Ca0 O18 2.368440 1_555
Ca0 O4 2.384924 1_555
Ca0 O8 2.418877 1_555
Ca0 O16 2.457322 1_455
Ca0 O6 2.627789 1_455
Ca0 O10 2.633638 1_455
Ca0 O13 2.728763 1_445
Ca0 O0 2.763842 1_555
Ca1 O19 2.367470 1_555
Ca1 O5 2.383433 1_554
Ca1 O9 2.417640 1_555
Ca1 O17 2.458233 1_555
Ca1 O7 2.629804 1_555
Ca1 O11 2.636865 1_555
Ca1 O12 2.732750 1_545
Ca1 O1 2.766190 1_555
Ca2 O16 2.381040 1_454
Ca2 O11 2.392333 1_555
Ca2 O7 2.414196 1_555
Ca2 O19 2.484365 1_455
Ca2 O4 2.589840 1_555
Ca2 O8 2.591153 1_555
Ca2 O2 2.636409 1_444
Ca2 O15 2.714007 1_555
Ca3 O17 2.381765 1_555
Ca3 O10 2.391855 1_555
Ca3 O6 2.413093 1_555
Ca3 O18 2.484332 1_555
Ca3 O5 2.586087 1_555
Ca3 O9 2.588322 1_556
Ca3 O3 2.637926 1_545
Ca3 O14 2.715570 1_555
Ca4 O22 2.369840 1_555
Ca4 O12 2.376148 1_556
Ca4 O0 2.415721 1_555
Ca4 O20 2.457591 1_555
Ca4 O14 2.606845 1_555
Ca4 O2 2.627000 1_555
Ca4 O5 2.709271 1_565
Ca4 O8 2.775165 1_555
Ca5 O23 2.370795 1_555
Ca5 O13 2.377332 1_555
Ca5 O1 2.415679 1_555
Ca5 O21 2.457190 1_655
Ca5 O15 2.606091 1_655
Ca5 O3 2.623557 1_655
Ca5 O4 2.706000 1_665
Ca5 O9 2.774852 1_555
La0 O3 2.401120 1_555
La0 O20 2.424745 1_555
La0 O15 2.426462 1_555
La0 O23 2.572998 1_555
La0 O12 2.604496 1_555
La0 O0 2.629097 1_554
La0 O10 2.664975 1_565
La0 O7 2.721918 1_555
La1 O2 2.401293 1_555
La1 O21 2.424187 1_656
La1 O14 2.426224 1_555
La1 O22 2.572766 1_655
La1 O13 2.608085 1_555
La1 O1 2.629556 1_555
La1 O11 2.664524 1_666
La1 O6 2.721723 1_555
Cr0 O18 1.991444 1_555
Cr0 O5 2.006425 1_555
Cr0 O3 2.009246 1_545
Cr0 O13 2.010294 1_445
Cr0 O11 2.018023 1_556
Cr0 O22 2.024867 1_545
Cr1 O16 1.915844 1_555
Cr1 O9 1.921929 1_556
Cr1 O21 1.938681 1_656
Cr1 O0 1.951106 1_655
Cr1 O15 1.986632 1_656
Cr1 O6 2.000104 1_555
Cr2 O19 1.991153 1_555
Cr2 O4 2.006824 1_655
Cr2 O2 2.008881 1_544
Cr2 O12 2.010032 1_545
Cr2 O10 2.018355 1_555
Cr2 O23 2.025169 1_545
Cr3 O17 1.917439 1_555
Cr3 O8 1.922118 1_555
Cr3 O20 1.940224 1_555
Cr3 O1 1.951047 1_555
Cr3 O14 1.985763 1_555
Cr3 O7 1.999462 1_555
O0 Ti1 2.014874 1_555
O1 Ti0 2.016152 1_555
O2 Ti3 1.972306 1_565
O3 Ti2 1.972373 1_565
O4 Ti2 1.929489 1_555
O5 Ti3 1.929515 1_555
O6 Ti0 1.967863 1_555
O7 Ti1 1.968567 1_554
O8 Ti0 2.012404 1_455
O9 Ti1 2.011645 1_554
O10 Ti3 1.948056 1_555
O11 Ti2 1.948033 1_555
O12 Ti2 1.965961 1_565
O13 Ti3 1.965565 1_565
O14 Ti1 1.998621 1_555
O15 Ti0 1.997531 1_455
O16 Ti3 1.957096 1_555
O17 Ti2 1.952963 1_555
O18 Ti1 1.894402 1_555
O19 Ti0 1.894722 1_555
O20 Ti3 2.072760 1_565
O21 Ti2 2.078004 1_565
O22 Ti0 1.985307 1_455
O23 Ti1 1.985538 1_554
