# generated using pymatgen
data_Lu3In
_symmetry_space_group_name_H-M   'P 1'
_cell_length_a   6.68226896
_cell_length_b   6.68226896
_cell_length_c   5.48166292
_cell_angle_alpha   90.00000000
_cell_angle_beta   90.00000000
_cell_angle_gamma   119.99996078
_symmetry_Int_Tables_number   1
_chemical_formula_structural   Lu3In
_chemical_formula_sum   'Lu6 In2'
_cell_volume   211.97811861
_cell_formula_units_Z   2
loop_
 _symmetry_equiv_pos_site_id
 _symmetry_equiv_pos_as_xyz
  1  'x, y, z'
loop_
 _atom_site_type_symbol
 _atom_site_label
 _atom_site_symmetry_multiplicity
 _atom_site_fract_x
 _atom_site_fract_y
 _atom_site_fract_z
 _atom_site_occupancy
  Lu  Lu0  1  0.83062174  0.16937826  0.75000000  1
  Lu  Lu1  1  0.33875851  0.16937826  0.75000000  1
  Lu  Lu2  1  0.83062174  0.66124149  0.75000000  1
  Lu  Lu3  1  0.16937826  0.83062174  0.25000000  1
  Lu  Lu4  1  0.66124149  0.83062174  0.25000000  1
  Lu  Lu5  1  0.16937826  0.33875851  0.25000000  1
  In  In0  1  0.66666700  0.33333300  0.25000000  1
  In  In1  1  0.33333300  0.66666700  0.75000000  1
loop_
_geom_bond_atom_site_label_1
_geom_bond_atom_site_label_2
_geom_bond_distance
_geom_bond_site_symmetry_2
Lu0 Lu2 3.286762 1_555
Lu0 Lu1 3.286762 1_555
Lu0 Lu5 3.369760 1_656
Lu0 Lu5 3.369760 1_655
Lu0 Lu4 3.369760 1_546
Lu0 Lu4 3.369760 1_545
Lu0 Lu1 3.395507 1_655
Lu0 Lu2 3.395507 1_545
Lu1 Lu2 3.286764 1_555
Lu1 Lu3 3.369760 1_545
Lu1 Lu3 3.369760 1_546
Lu1 Lu5 3.369773 1_556
Lu1 Lu5 3.369773 1_555
Lu1 Lu2 3.395509 1_445
Lu2 Lu3 3.369760 1_655
Lu2 Lu3 3.369760 1_656
Lu2 Lu4 3.369773 1_555
Lu2 Lu4 3.369773 1_556
Lu3 Lu5 3.286762 1_555
Lu3 Lu4 3.286762 1_555
Lu3 Lu5 3.395507 1_565
Lu3 Lu4 3.395507 1_455
Lu4 Lu5 3.286764 1_555
Lu4 Lu5 3.395509 1_665
In0 Lu1 3.333630 1_554
In0 Lu2 3.333630 1_555
In0 Lu2 3.333630 1_554
In0 Lu1 3.333630 1_555
In0 Lu0 3.333633 1_554
In0 Lu0 3.333633 1_555
In0 Lu5 3.341272 1_655
In0 Lu4 3.341272 1_545
In0 Lu3 3.341284 1_655
In0 Lu3 3.341284 1_545
In0 Lu5 3.341292 1_555
In0 Lu4 3.341292 1_555
In1 Lu5 3.333630 1_556
In1 Lu5 3.333630 1_555
In1 Lu4 3.333630 1_555
In1 Lu4 3.333630 1_556
In1 Lu3 3.333633 1_555
In1 Lu3 3.333633 1_556
In1 Lu1 3.341272 1_565
In1 Lu2 3.341272 1_455
In1 Lu0 3.341284 1_565
In1 Lu0 3.341284 1_455
In1 Lu1 3.341292 1_555
In1 Lu2 3.341292 1_555
