# generated using pymatgen
data_Na5Ca7Zr2Ti2Si8(O5F)6
_symmetry_space_group_name_H-M   'P 1'
_cell_length_a   7.30110700
_cell_length_b   10.21571942
_cell_length_c   11.52559445
_cell_angle_alpha   111.88051527
_cell_angle_beta   89.98078143
_cell_angle_gamma   100.72605710
_symmetry_Int_Tables_number   1
_chemical_formula_structural   Na5Ca7Zr2Ti2Si8(O5F)6
_chemical_formula_sum   'Na5 Ca7 Zr2 Ti2 Si8 O30 F6'
_cell_volume   781.53536290
_cell_formula_units_Z   1
loop_
 _symmetry_equiv_pos_site_id
 _symmetry_equiv_pos_as_xyz
  1  'x, y, z'
loop_
 _atom_site_type_symbol
 _atom_site_label
 _atom_site_symmetry_multiplicity
 _atom_site_fract_x
 _atom_site_fract_y
 _atom_site_fract_z
 _atom_site_occupancy
  Na  Na0  1  0.08940400  0.36029000  0.29152500  1
  Na  Na1  1  0.91059600  0.63971000  0.70847500  1
  Na  Na2  1  0.24858200  0.99932600  0.74546200  1
  Na  Na3  1  0.75141800  0.00067400  0.25453800  1
  Na  Na4  1  0.00000000  0.00000000  0.50000000  1
  Ca  Ca0  1  0.08704900  0.36697200  0.78747100  1
  Ca  Ca1  1  0.91295100  0.63302800  0.21252900  1
  Ca  Ca2  1  0.26576300  0.01263100  0.25775100  1
  Ca  Ca3  1  0.73423700  0.98736900  0.74224900  1
  Ca  Ca4  1  0.40765100  0.62657000  0.20954200  1
  Ca  Ca5  1  0.59234900  0.37343000  0.79045800  1
  Ca  Ca6  1  0.00000000  0.00000000  0.00000000  1
  Zr  Zr0  1  0.58747800  0.34819300  0.27798100  1
  Zr  Zr1  1  0.41252200  0.65180700  0.72201900  1
  Ti  Ti0  1  0.50000000  0.00000000  0.50000000  1
  Ti  Ti1  1  0.50000000  0.00000000  0.00000000  1
  Si  Si0  1  0.29129000  0.29080300  0.50872500  1
  Si  Si1  1  0.70871000  0.70919700  0.49127500  1
  Si  Si2  1  0.29373300  0.27833800  0.00879100  1
  Si  Si3  1  0.70626700  0.72166200  0.99120900  1
  Si  Si4  1  0.84915400  0.28479000  0.01262100  1
  Si  Si5  1  0.15084600  0.71521000  0.98737900  1
  Si  Si6  1  0.15749400  0.71206300  0.48867300  1
  Si  Si7  1  0.84250600  0.28793700  0.51132700  1
  O  O0  1  0.06117900  0.26323100  0.49190200  1
  O  O1  1  0.93882100  0.73676900  0.50809800  1
  O  O2  1  0.35877700  0.40668700  0.65191400  1
  O  O3  1  0.64122300  0.59331300  0.34808600  1
  O  O4  1  0.66175800  0.65522300  0.09683300  1
  O  O5  1  0.33824200  0.34477700  0.90316700  1
  O  O6  1  0.80372000  0.37844900  0.15565500  1
  O  O7  1  0.19628000  0.62155100  0.84434500  1
  O  O8  1  0.32946400  0.12872800  0.47919400  1
  O  O9  1  0.67053600  0.87127200  0.52080600  1
  O  O10  1  0.27022300  0.88343000  0.03923300  1
  O  O11  1  0.72977700  0.11657000  0.96076700  1
  O  O12  1  0.16447200  0.64231900  0.08822000  1
  O  O13  1  0.83552800  0.35768100  0.91178000  1
  O  O14  1  0.20970500  0.64925600  0.59411600  1
  O  O15  1  0.79029500  0.35074400  0.40588400  1
  O  O16  1  0.37320900  0.33931000  0.39555100  1
  O  O17  1  0.62679100  0.66069000  0.60444900  1
  O  O18  1  0.39191700  0.37608100  0.15034800  1
  O  O19  1  0.60808300  0.62391900  0.84965200  1
  O  O20  1  0.71978300  0.12268400  0.47244200  1
  O  O21  1  0.28021700  0.87731600  0.52755800  1
  O  O22  1  0.52676200  0.12956900  0.17937800  1
  O  O23  1  0.47323800  0.87043100  0.82062200  1
  O  O24  1  0.16597400  0.61225500  0.34255000  1
  O  O25  1  0.83402600  0.38774500  0.65745000  1
  O  O26  1  0.32291500  0.11068100  0.96374100  1
  O  O27  1  0.67708500  0.88931900  0.03625900  1
  O  O28  1  0.06371000  0.25545000  0.02681100  1
  O  O29  1  0.93629000  0.74455000  0.97318900  1
  F  F0  1  0.00903300  0.12020300  0.70828000  1
  F  F1  1  0.99096700  0.87979700  0.29172000  1
  F  F2  1  0.53673200  0.11614000  0.69165500  1
  F  F3  1  0.46326800  0.88386000  0.30834500  1
  F  F4  1  0.03827100  0.10827200  0.20694500  1
  F  F5  1  0.96172900  0.89172800  0.79305500  1
loop_
_geom_bond_atom_site_label_1
_geom_bond_atom_site_label_2
_geom_bond_distance
_geom_bond_site_symmetry_2
Na0 O24 2.370697 1_555
Na0 O16 2.476996 1_555
Na0 O15 2.555481 1_455
Na0 O6 2.683292 1_455
Na0 O18 2.759078 1_555
Na0 O28 2.825040 1_555
Na0 O0 2.826589 1_555
Na1 O25 2.370697 1_555
Na1 O17 2.476996 1_555
Na1 O14 2.555481 1_655
Na1 O7 2.683292 1_655
Na1 O19 2.759078 1_555
Na1 O29 2.825040 1_555
Na1 O1 2.826589 1_555
Na2 O26 2.357084 1_565
Na2 O21 2.384950 1_555
Na2 O23 2.613370 1_555
Na3 O27 2.357084 1_545
Na3 O20 2.384950 1_555
Na3 O22 2.613370 1_555
Na4 O8 2.574928 1_555
Na4 O9 2.574928 1_445
Na4 O21 2.666256 1_545
Na4 O20 2.666256 1_455
Na4 O1 2.679440 1_445
Na4 O0 2.679440 1_555
Ca0 F0 2.294222 1_555
Ca0 O13 2.338536 1_455
Ca0 O5 2.361107 1_555
Ca0 O7 2.405631 1_555
Ca0 O25 2.467438 1_455
Ca0 O2 2.590813 1_555
Ca1 F1 2.294222 1_555
Ca1 O12 2.338536 1_655
Ca1 O4 2.361107 1_555
Ca1 O6 2.405631 1_555
Ca1 O24 2.467438 1_655
Ca1 O3 2.590813 1_555
Ca2 F4 2.255520 1_555
Ca2 F1 2.324235 1_445
Ca2 F3 2.329878 1_545
Ca2 O10 2.371607 1_545
Ca2 O8 2.382495 1_555
Ca2 O22 2.414551 1_555
Ca3 F5 2.255520 1_555
Ca3 F0 2.324235 1_665
Ca3 F2 2.329878 1_565
Ca3 O11 2.371607 1_565
Ca3 O9 2.382495 1_555
Ca3 O23 2.414551 1_555
Ca4 O4 2.301051 1_555
Ca4 O12 2.325755 1_555
Ca4 O24 2.356732 1_555
Ca4 O18 2.369843 1_555
Ca4 F3 2.396308 1_555
Ca4 O3 2.489017 1_555
Ca5 O5 2.301051 1_555
Ca5 O13 2.325755 1_555
Ca5 O25 2.356732 1_555
Ca5 O19 2.369843 1_555
Ca5 F2 2.396308 1_555
Ca5 O2 2.489017 1_555
Ca6 F4 2.215750 1_555
Ca6 F5 2.215750 1_444
Ca6 O29 2.463557 1_444
Ca6 O28 2.463557 1_555
Ca6 O26 2.524048 1_554
Ca6 O27 2.524048 1_445
Ca6 O10 2.606052 1_545
Ca6 O11 2.606052 1_454
O0 Si0 1.650127 1_555
O0 Si7 1.664466 1_455
O1 Si1 1.650127 1_555
O1 Si6 1.664466 1_655
O2 Si0 1.641673 1_555
O2 Zr1 2.281152 1_555
O3 Si1 1.641673 1_555
O3 Zr0 2.281152 1_555
O4 Si3 1.606787 1_554
O5 Si2 1.606787 1_556
O6 Si4 1.638700 1_555
O6 Zr0 2.172002 1_555
O7 Si5 1.638700 1_555
O7 Zr1 2.172002 1_555
O8 Si0 1.639081 1_555
O8 Ti0 2.044959 1_555
O9 Si1 1.639081 1_555
O9 Ti0 2.044959 1_565
O10 Si5 1.657517 1_554
O10 Ti1 2.023420 1_565
O11 Si4 1.657517 1_556
O11 Ti1 2.023420 1_556
O12 Si5 1.608701 1_554
O13 Si4 1.608701 1_556
O14 Si6 1.645133 1_555
O14 Zr1 2.079669 1_555
O15 Si7 1.645133 1_555
O15 Zr0 2.079669 1_555
O16 Si0 1.635744 1_555
O16 Zr0 2.080666 1_555
O17 Si1 1.635744 1_555
O17 Zr1 2.080666 1_555
O18 Si2 1.641005 1_555
O18 Zr0 2.179216 1_555
O19 Si3 1.641005 1_555
O19 Zr1 2.179216 1_555
O20 Si7 1.651347 1_555
O20 Ti0 1.947911 1_555
O21 Si6 1.651347 1_555
O21 Ti0 1.947911 1_565
O22 Ti1 1.982129 1_555
O22 Zr0 2.053322 1_555
O23 Ti1 1.982129 1_566
O23 Zr1 2.053322 1_555
O24 Si6 1.619676 1_555
O25 Si7 1.619676 1_555
O26 Si2 1.649661 1_556
O26 Ti1 2.005352 1_556
O27 Si3 1.649661 1_554
O27 Ti1 2.005352 1_565
O28 Si4 1.667925 1_455
O28 Si2 1.675727 1_555
O29 Si5 1.667925 1_655
O29 Si3 1.675727 1_555
F0 Na4 2.246715 1_555
F0 Na2 2.442587 1_545
F1 Na4 2.246715 1_665
F1 Na3 2.442587 1_565
F2 Ti0 2.070642 1_555
F2 Na2 2.418866 1_545
F3 Ti0 2.070642 1_565
F3 Na3 2.418866 1_565
F4 Na3 2.342462 1_455
F4 Na0 2.343033 1_555
F5 Na2 2.342462 1_655
F5 Na1 2.343033 1_555
