# generated using pymatgen
data_Y16Se16F15
_symmetry_space_group_name_H-M   'P 1'
_cell_length_a   4.13585800
_cell_length_b   10.02284800
_cell_length_c   25.68284839
_cell_angle_alpha   82.34826488
_cell_angle_beta   90.00000000
_cell_angle_gamma   90.00000000
_symmetry_Int_Tables_number   1
_chemical_formula_structural   Y16Se16F15
_chemical_formula_sum   'Y16 Se16 F15'
_cell_volume   1055.15327258
_cell_formula_units_Z   1
loop_
 _symmetry_equiv_pos_site_id
 _symmetry_equiv_pos_as_xyz
  1  'x, y, z'
loop_
 _atom_site_type_symbol
 _atom_site_label
 _atom_site_symmetry_multiplicity
 _atom_site_fract_x
 _atom_site_fract_y
 _atom_site_fract_z
 _atom_site_occupancy
  Y  Y0  1  0.50000000  0.40010000  0.55890000  1
  Y  Y1  1  0.00000000  0.59976800  0.44132500  1
  Y  Y2  1  0.50000000  0.31653200  0.80761200  1
  Y  Y3  1  0.00000000  0.68395700  0.19207600  1
  Y  Y4  1  0.50000000  0.06264900  0.06216900  1
  Y  Y5  1  0.00000000  0.94305800  0.93947300  1
  Y  Y6  1  0.50000000  0.98433500  0.31627300  1
  Y  Y7  1  0.00000000  0.01520800  0.68402000  1
  Y  Y8  1  0.50000000  0.89849700  0.56602200  1
  Y  Y9  1  0.00000000  0.10142500  0.43420300  1
  Y  Y10  1  0.50000000  0.81945000  0.81924300  1
  Y  Y11  1  0.00000000  0.18085200  0.18161400  1
  Y  Y12  1  0.50000000  0.56779300  0.06248500  1
  Y  Y13  1  0.00000000  0.43085100  0.93782300  1
  Y  Y14  1  0.50000000  0.48242800  0.30893000  1
  Y  Y15  1  0.00000000  0.51819200  0.69111700  1
  Se  Se0  1  0.50000000  0.54015800  0.86658500  1
  Se  Se1  1  0.00000000  0.45880400  0.13398500  1
  Se  Se2  1  0.50000000  0.62611200  0.61580800  1
  Se  Se3  1  0.00000000  0.37386700  0.38407500  1
  Se  Se4  1  0.50000000  0.33243600  0.00983200  1
  Se  Se5  1  0.00000000  0.67110900  0.99091900  1
  Se  Se6  1  0.50000000  0.79691600  0.11757700  1
  Se  Se7  1  0.00000000  0.20350600  0.88185100  1
  Se  Se8  1  0.50000000  0.16189500  0.50870800  1
  Se  Se9  1  0.00000000  0.83807200  0.49120900  1
  Se  Se10  1  0.50000000  0.70934300  0.36562000  1
  Se  Se11  1  0.00000000  0.29072100  0.63428300  1
  Se  Se12  1  0.50000000  0.24601600  0.25651700  1
  Se  Se13  1  0.00000000  0.75387200  0.74334400  1
  Se  Se14  1  0.50000000  0.07864400  0.75823400  1
  Se  Se15  1  0.00000000  0.92175200  0.24169900  1
  F  F0  1  0.50000000  0.15045000  0.14546200  1
  F  F1  1  0.00000000  0.84964100  0.85407600  1
  F  F2  1  0.50000000  0.98193700  0.64801400  1
  F  F3  1  0.00000000  0.01811000  0.35189200  1
  F  F4  1  0.50000000  0.45823800  0.72665100  1
  F  F5  1  0.00000000  0.54181900  0.27329000  1
  F  F6  1  0.50000000  0.90018200  0.90025700  1
  F  F7  1  0.00000000  0.09779200  0.09866900  1
  F  F8  1  0.50000000  0.62383900  0.22742300  1
  F  F9  1  0.00000000  0.37637700  0.77248100  1
  F  F10  1  0.50000000  0.55162300  0.47968500  1
  F  F11  1  0.00000000  0.44841700  0.52020400  1
  F  F12  1  0.50000000  0.06915500  0.39780400  1
  F  F13  1  0.00000000  0.93085800  0.60208500  1
  F  F14  1  0.50000000  0.98924800  0.98347300  1
loop_
_geom_bond_atom_site_label_1
_geom_bond_atom_site_label_2
_geom_bond_distance
_geom_bond_site_symmetry_2
Se0 Y2 2.867363 1_555
Se0 Y13 2.879275 1_655
Se0 Y13 2.879275 1_555
Se0 Y10 2.899665 1_555
Se1 Y3 2.866194 1_555
Se1 Y12 2.882276 1_455
Se1 Y12 2.882276 1_555
Se1 Y11 2.889620 1_555
Se2 Y0 2.854708 1_555
Se2 Y8 2.856331 1_555
Se2 Y15 2.937709 1_655
Se2 Y15 2.937709 1_555
Se3 Y1 2.859184 1_555
Se3 Y9 2.859669 1_555
Se3 Y14 2.936956 1_555
Se3 Y14 2.936956 1_455
Se4 Y4 2.854935 1_555
Se4 Y13 2.860730 1_554
Se4 Y13 2.860730 1_654
Se4 Y12 2.871025 1_555
Se5 Y5 2.866387 1_555
Se5 Y12 2.867070 1_456
Se5 Y12 2.867070 1_556
Se5 Y13 2.921102 1_555
Se6 Y4 2.847704 1_565
Se6 Y12 2.853252 1_555
Se6 Y3 2.939755 1_655
Se6 Y3 2.939755 1_555
Se7 Y5 2.824123 1_545
Se7 Y13 2.851488 1_555
Se7 Y2 2.935958 1_455
Se7 Y2 2.935958 1_555
Se8 Y8 2.846308 1_545
Se8 Y0 2.860318 1_555
Se8 Y9 2.934960 1_655
Se8 Y9 2.934960 1_555
Se9 Y9 2.842816 1_565
Se9 Y1 2.856770 1_555
Se9 Y8 2.940208 1_555
Se9 Y8 2.940208 1_455
Se10 Y14 2.859063 1_555
Se10 Y6 2.876222 1_555
Se10 Y1 2.948596 1_555
Se10 Y1 2.948596 1_655
Se11 Y15 2.866148 1_555
Se11 Y7 2.884065 1_555
Se11 Y0 2.943000 1_455
Se11 Y0 2.943000 1_555
Se12 Y6 2.856994 1_545
Se12 Y14 2.876816 1_555
Se12 Y11 2.956046 1_555
Se12 Y11 2.956046 1_655
Se13 Y7 2.849475 1_565
Se13 Y15 2.867557 1_555
Se13 Y10 2.974781 1_455
Se13 Y10 2.974781 1_555
Se14 Y2 2.845774 1_555
Se14 Y10 2.849564 1_545
Se14 Y7 2.938749 1_555
Se14 Y7 2.938749 1_655
Se15 Y11 2.838683 1_565
Se15 Y3 2.848450 1_555
Se15 Y6 2.942445 1_555
Se15 Y6 2.942445 1_455
F0 Y11 2.303608 1_655
F0 Y11 2.303608 1_555
F0 Y4 2.419077 1_555
F1 Y10 2.289174 1_555
F1 Y10 2.289174 1_455
F1 Y5 2.496762 1_555
F2 Y7 2.307551 1_665
F2 Y7 2.307551 1_565
F2 Y8 2.367009 1_555
F3 Y6 2.304398 1_445
F3 Y6 2.304398 1_545
F3 Y9 2.374096 1_555
F4 Y15 2.307433 1_655
F4 Y15 2.307433 1_555
F4 Y2 2.356760 1_555
F5 Y14 2.307253 1_555
F5 Y14 2.307253 1_455
F5 Y3 2.364072 1_555
F6 Y10 2.330726 1_555
F6 Y5 2.364461 1_655
F6 Y5 2.364461 1_555
F7 Y4 2.316699 1_455
F7 Y4 2.316699 1_555
F7 Y11 2.388168 1_555
F8 Y3 2.306047 1_655
F8 Y3 2.306047 1_555
F8 Y14 2.366597 1_555
F9 Y2 2.303491 1_455
F9 Y2 2.303491 1_555
F9 Y15 2.365597 1_555
F10 Y1 2.313696 1_555
F10 Y1 2.313696 1_655
F10 Y0 2.371219 1_555
F11 Y0 2.317406 1_455
F11 Y0 2.317406 1_555
F11 Y1 2.363647 1_555
F12 Y9 2.309842 1_655
F12 Y9 2.309842 1_555
F12 Y6 2.362501 1_545
F13 Y8 2.306378 1_455
F13 Y8 2.306378 1_555
F13 Y7 2.369957 1_565
F14 Y4 2.241027 1_566
F14 Y5 2.430428 1_555
F14 Y5 2.430428 1_655
