# generated using pymatgen
data_Li4MnCo3O8
_symmetry_space_group_name_H-M   'P 1'
_cell_length_a   2.84330400
_cell_length_b   5.27904400
_cell_length_c   9.80454799
_cell_angle_alpha   83.95945616
_cell_angle_beta   90.00000000
_cell_angle_gamma   90.00000000
_symmetry_Int_Tables_number   1
_chemical_formula_structural   Li4MnCo3O8
_chemical_formula_sum   'Li4 Mn1 Co3 O8'
_cell_volume   146.34843858
_cell_formula_units_Z   1
loop_
 _symmetry_equiv_pos_site_id
 _symmetry_equiv_pos_as_xyz
  1  'x, y, z'
loop_
 _atom_site_type_symbol
 _atom_site_label
 _atom_site_symmetry_multiplicity
 _atom_site_fract_x
 _atom_site_fract_y
 _atom_site_fract_z
 _atom_site_occupancy
  Li  Li0  1  0.50000000  0.75201200  0.75046400  1
  Li  Li1  1  0.00000000  0.00000000  0.50000000  1
  Li  Li2  1  0.50000000  0.24798800  0.24953600  1
  Li  Li3  1  0.00000000  0.50000000  0.00000000  1
  Mn  Mn0  1  0.50000000  0.50000000  0.50000000  1
  Co  Co0  1  0.00000000  0.24326300  0.75264100  1
  Co  Co1  1  0.00000000  0.75673700  0.24735900  1
  Co  Co2  1  0.50000000  0.00000000  0.00000000  1
  O  O0  1  0.50000000  0.35751400  0.86541200  1
  O  O1  1  0.00000000  0.61769400  0.61551400  1
  O  O2  1  0.50000000  0.86711800  0.35981200  1
  O  O3  1  0.00000000  0.11561800  0.11673900  1
  O  O4  1  0.50000000  0.13288200  0.64018800  1
  O  O5  1  0.00000000  0.38230600  0.38448600  1
  O  O6  1  0.50000000  0.64248600  0.13458800  1
  O  O7  1  0.00000000  0.88438200  0.88326100  1
loop_
_geom_bond_atom_site_label_1
_geom_bond_atom_site_label_2
_geom_bond_distance
_geom_bond_site_symmetry_2
Li0 O7 2.096694 1_555
Li0 O7 2.096694 1_655
Li0 O1 2.114707 1_555
Li0 O1 2.114707 1_655
Li0 O4 2.180392 1_565
Li0 O0 2.261258 1_555
Li1 O4 2.145997 1_555
Li1 O2 2.145997 1_545
Li1 O4 2.145997 1_455
Li1 O2 2.145997 1_445
Li1 O5 2.207895 1_555
Li1 O1 2.207895 1_545
Li2 O3 2.096694 1_555
Li2 O3 2.096694 1_655
Li2 O5 2.114707 1_655
Li2 O5 2.114707 1_555
Li2 O2 2.180392 1_545
Li2 O6 2.261258 1_555
Li3 O6 2.130038 1_455
Li3 O6 2.130038 1_555
Li3 O0 2.130038 1_554
Li3 O0 2.130038 1_454
Li3 O3 2.222333 1_555
Li3 O7 2.222333 1_554
Mn0 O5 1.959061 1_655
Mn0 O5 1.959061 1_555
Mn0 O1 1.959061 1_555
Mn0 O1 1.959061 1_655
Mn0 O4 2.254891 1_555
Mn0 O2 2.254891 1_555
Co0 O4 1.926519 1_555
Co0 O4 1.926519 1_455
Co0 O0 1.935904 1_555
Co0 O0 1.935904 1_455
Co0 O7 2.172276 1_545
Co0 O1 2.270546 1_555
Co1 O2 1.926519 1_455
Co1 O2 1.926519 1_555
Co1 O6 1.935904 1_555
Co1 O6 1.935904 1_455
Co1 O3 2.172276 1_565
Co1 O5 2.270546 1_555
Co2 O3 1.962320 1_555
Co2 O3 1.962320 1_655
Co2 O7 1.962320 1_544
Co2 O7 1.962320 1_644
Co2 O0 2.186125 1_554
Co2 O6 2.186125 1_545
