# generated using pymatgen
data_SrCa(GeO3)4
_symmetry_space_group_name_H-M   'P 1'
_cell_length_a   5.34456429
_cell_length_b   5.34456429
_cell_length_c   7.55328975
_cell_angle_alpha   90.00000000
_cell_angle_beta   90.00000000
_cell_angle_gamma   90.00000000
_symmetry_Int_Tables_number   1
_chemical_formula_structural   SrCa(GeO3)4
_chemical_formula_sum   'Sr1 Ca1 Ge4 O12'
_cell_volume   215.75494387
_cell_formula_units_Z   1
loop_
 _symmetry_equiv_pos_site_id
 _symmetry_equiv_pos_as_xyz
  1  'x, y, z'
loop_
 _atom_site_type_symbol
 _atom_site_label
 _atom_site_symmetry_multiplicity
 _atom_site_fract_x
 _atom_site_fract_y
 _atom_site_fract_z
 _atom_site_occupancy
  Sr  Sr0  1  0.00000000  0.00000000  0.00000000  1
  Ca  Ca0  1  0.50000000  0.50000000  0.50000000  1
  Ge  Ge0  1  0.00000000  0.50000000  0.74935198  1
  Ge  Ge1  1  0.00000000  0.50000000  0.25064802  1
  Ge  Ge2  1  0.50000000  -0.00000000  0.74935198  1
  Ge  Ge3  1  0.50000000  0.00000000  0.25064802  1
  O  O0  1  0.25190948  0.25190948  0.74781954  1
  O  O1  1  0.25190948  0.25190948  0.25218046  1
  O  O2  1  0.74809052  0.74809052  0.25218046  1
  O  O3  1  0.74809052  0.74809052  0.74781954  1
  O  O4  1  0.74809052  0.25190948  0.74781954  1
  O  O5  1  0.74809052  0.25190948  0.25218046  1
  O  O6  1  0.25190948  0.74809052  0.25218046  1
  O  O7  1  0.25190948  0.74809052  0.74781954  1
  O  O8  1  0.00000000  0.50000000  0.50000000  1
  O  O9  1  0.00000000  0.50000000  -0.00000000  1
  O  O10  1  0.50000000  -0.00000000  0.50000000  1
  O  O11  1  0.50000000  -0.00000000  -0.00000000  1
loop_
_geom_bond_atom_site_label_1
_geom_bond_atom_site_label_2
_geom_bond_distance
_geom_bond_site_symmetry_2
Ca0 O1 2.649537 1_555
Ca0 O5 2.649537 1_555
Ca0 O2 2.649537 1_555
Ca0 O6 2.649537 1_555
Ca0 O3 2.649537 1_555
Ca0 O4 2.649537 1_555
Ca0 O7 2.649537 1_555
Ca0 O0 2.649537 1_555
Ca0 O10 2.672282 1_555
Ca0 O10 2.672282 1_565
Ca0 O8 2.672282 1_555
Ca0 O8 2.672282 1_655
Ge0 O8 1.883428 1_555
Ge0 O4 1.889679 1_455
Ge0 O7 1.889679 1_555
Ge0 O0 1.889679 1_555
Ge0 O3 1.889679 1_455
Ge0 O9 1.893217 1_556
Ge1 O8 1.883428 1_555
Ge1 O6 1.889679 1_555
Ge1 O1 1.889679 1_555
Ge1 O2 1.889679 1_455
Ge1 O5 1.889679 1_455
Ge1 O9 1.893217 1_555
Ge2 O10 1.883428 1_555
Ge2 O4 1.889679 1_555
Ge2 O0 1.889679 1_555
Ge2 O3 1.889679 1_545
Ge2 O7 1.889679 1_545
Ge2 O11 1.893217 1_556
Ge3 O10 1.883428 1_555
Ge3 O2 1.889679 1_545
Ge3 O1 1.889679 1_555
Ge3 O6 1.889679 1_545
Ge3 O5 1.889679 1_555
Ge3 O11 1.893217 1_555
O0 Sr0 2.693238 1_556
O1 Sr0 2.693238 1_555
O2 Sr0 2.693238 1_665
O3 Sr0 2.693238 1_666
O4 Sr0 2.693238 1_656
O5 Sr0 2.693238 1_655
O6 Sr0 2.693238 1_565
O7 Sr0 2.693238 1_566
O9 Sr0 2.672282 1_555
O9 Sr0 2.672282 1_565
O11 Sr0 2.672282 1_655
O11 Sr0 2.672282 1_555
