# generated using pymatgen
data_SmSiPd
_symmetry_space_group_name_H-M   'P 1'
_cell_length_a   4.32602600
_cell_length_b   7.16770400
_cell_length_c   7.67363400
_cell_angle_alpha   90.00000000
_cell_angle_beta   90.00000000
_cell_angle_gamma   90.00000000
_symmetry_Int_Tables_number   1
_chemical_formula_structural   SmSiPd
_chemical_formula_sum   'Sm4 Si4 Pd4'
_cell_volume   237.94154043
_cell_formula_units_Z   4
loop_
 _symmetry_equiv_pos_site_id
 _symmetry_equiv_pos_as_xyz
  1  'x, y, z'
loop_
 _atom_site_type_symbol
 _atom_site_label
 _atom_site_symmetry_multiplicity
 _atom_site_fract_x
 _atom_site_fract_y
 _atom_site_fract_z
 _atom_site_occupancy
  Sm  Sm0  1  0.25000000  0.00292300  0.30705400  1
  Sm  Sm1  1  0.25000000  0.50292300  0.19294600  1
  Sm  Sm2  1  0.75000000  0.99707700  0.69294600  1
  Sm  Sm3  1  0.75000000  0.49707700  0.80705400  1
  Si  Si0  1  0.25000000  0.29543600  0.60138600  1
  Si  Si1  1  0.25000000  0.79543600  0.89861400  1
  Si  Si2  1  0.75000000  0.70456400  0.39861400  1
  Si  Si3  1  0.75000000  0.20456400  0.10138600  1
  Pd  Pd0  1  0.25000000  0.16645700  0.92756300  1
  Pd  Pd1  1  0.25000000  0.66645700  0.57243700  1
  Pd  Pd2  1  0.75000000  0.83354300  0.07243700  1
  Pd  Pd3  1  0.75000000  0.33354300  0.42756300  1
loop_
_geom_bond_atom_site_label_1
_geom_bond_atom_site_label_2
_geom_bond_distance
_geom_bond_site_symmetry_2
Si0 Sm3 3.042747 1_455
Si0 Sm3 3.042747 1_555
Si0 Sm0 3.081750 1_555
Si0 Sm2 3.121804 1_445
Si0 Sm2 3.121804 1_545
Si1 Sm2 3.042747 1_455
Si1 Sm2 3.042747 1_555
Si1 Sm1 3.081750 1_556
Si1 Sm3 3.121804 1_455
Si1 Sm3 3.121804 1_555
Si2 Sm1 3.042747 1_555
Si2 Sm1 3.042747 1_655
Si2 Sm2 3.081750 1_555
Si2 Sm0 3.121804 1_565
Si2 Sm0 3.121804 1_665
Si3 Sm0 3.042747 1_655
Si3 Sm0 3.042747 1_555
Si3 Sm3 3.081750 1_554
Si3 Sm1 3.121804 1_655
Si3 Sm1 3.121804 1_555
Pd0 Si3 2.555855 1_556
Pd0 Si3 2.555855 1_456
Pd0 Si0 2.668238 1_555
Pd0 Si1 2.668631 1_545
Pd0 Sm2 3.064946 1_445
Pd0 Sm2 3.064946 1_545
Pd0 Sm0 3.139132 1_556
Pd0 Sm1 3.156482 1_556
Pd0 Sm3 3.339111 1_455
Pd0 Sm3 3.339111 1_555
Pd1 Si2 2.555855 1_555
Pd1 Si2 2.555855 1_455
Pd1 Si1 2.668238 1_555
Pd1 Si0 2.668631 1_555
Pd1 Sm3 3.064946 1_555
Pd1 Sm3 3.064946 1_455
Pd1 Sm1 3.139132 1_555
Pd1 Sm0 3.156482 1_565
Pd1 Sm2 3.339111 1_555
Pd1 Sm2 3.339111 1_455
Pd2 Si1 2.555855 1_654
Pd2 Si1 2.555855 1_554
Pd2 Si2 2.668238 1_555
Pd2 Si3 2.668631 1_565
Pd2 Sm0 3.064946 1_565
Pd2 Sm0 3.064946 1_665
Pd2 Sm2 3.139132 1_554
Pd2 Sm3 3.156482 1_554
Pd2 Sm1 3.339111 1_655
Pd2 Sm1 3.339111 1_555
Pd3 Si0 2.555855 1_655
Pd3 Si0 2.555855 1_555
Pd3 Si3 2.668238 1_555
Pd3 Si2 2.668631 1_555
Pd3 Sm1 3.064946 1_655
Pd3 Sm1 3.064946 1_555
Pd3 Sm3 3.139132 1_555
Pd3 Sm2 3.156482 1_545
Pd3 Sm0 3.339111 1_655
Pd3 Sm0 3.339111 1_555
