# generated using pymatgen
data_Rb2Si(S2O7)3
_symmetry_space_group_name_H-M   'P 1'
_cell_length_a   9.77712198
_cell_length_b   9.77712198
_cell_length_c   11.51372500
_cell_angle_alpha   90.00000000
_cell_angle_beta   90.00000000
_cell_angle_gamma   119.99999984
_symmetry_Int_Tables_number   1
_chemical_formula_structural   Rb2Si(S2O7)3
_chemical_formula_sum   'Rb4 Si2 S12 O42'
_cell_volume   953.16601967
_cell_formula_units_Z   2
loop_
 _symmetry_equiv_pos_site_id
 _symmetry_equiv_pos_as_xyz
  1  'x, y, z'
loop_
 _atom_site_type_symbol
 _atom_site_label
 _atom_site_symmetry_multiplicity
 _atom_site_fract_x
 _atom_site_fract_y
 _atom_site_fract_z
 _atom_site_occupancy
  Rb  Rb0  1  0.33333300  0.66666700  0.56503700  1
  Rb  Rb1  1  0.66666700  0.33333300  0.43496300  1
  Rb  Rb2  1  0.33333300  0.66666700  0.12114400  1
  Rb  Rb3  1  0.66666700  0.33333300  0.87885600  1
  Si  Si0  1  0.00000000  0.00000000  0.76204800  1
  Si  Si1  1  0.00000000  0.00000000  0.23795200  1
  S  S0  1  0.67039400  0.75756500  0.33792200  1
  S  S1  1  0.08717100  0.32960600  0.33792200  1
  S  S2  1  0.24243500  0.91282900  0.33792200  1
  S  S3  1  0.32960600  0.24243500  0.66207800  1
  S  S4  1  0.91282900  0.67039400  0.66207800  1
  S  S5  1  0.75756500  0.08717100  0.66207800  1
  S  S6  1  0.66006000  0.86013300  0.84859600  1
  S  S7  1  0.20007300  0.33994000  0.84859600  1
  S  S8  1  0.13986700  0.79992700  0.84859600  1
  S  S9  1  0.33994000  0.13986700  0.15140400  1
  S  S10  1  0.79992700  0.66006000  0.15140400  1
  S  S11  1  0.86013300  0.20007300  0.15140400  1
  O  O0  1  0.67597900  0.02384500  0.79240000  1
  O  O1  1  0.34786600  0.32402100  0.79240000  1
  O  O2  1  0.97615500  0.65213400  0.79240000  1
  O  O3  1  0.32402100  0.97615500  0.20760000  1
  O  O4  1  0.65213400  0.67597900  0.20760000  1
  O  O5  1  0.02384500  0.34786600  0.20760000  1
  O  O6  1  0.83273200  0.90419700  0.33233300  1
  O  O7  1  0.07146500  0.16726800  0.33233300  1
  O  O8  1  0.09580300  0.92853500  0.33233300  1
  O  O9  1  0.16726800  0.09580300  0.66766700  1
  O  O10  1  0.92853500  0.83273200  0.66766700  1
  O  O11  1  0.90419700  0.07146500  0.66766700  1
  O  O12  1  0.83248200  0.90191700  0.85614900  1
  O  O13  1  0.06943500  0.16751800  0.85614900  1
  O  O14  1  0.09808300  0.93056500  0.85614900  1
  O  O15  1  0.16751800  0.09808300  0.14385100  1
  O  O16  1  0.93056500  0.83248200  0.14385100  1
  O  O17  1  0.90191700  0.06943500  0.14385100  1
  O  O18  1  0.54731000  0.79663000  0.33487200  1
  O  O19  1  0.24932000  0.45269000  0.33487200  1
  O  O20  1  0.20337000  0.75068000  0.33487200  1
  O  O21  1  0.45269000  0.20337000  0.66512800  1
  O  O22  1  0.75068000  0.54731000  0.66512800  1
  O  O23  1  0.79663000  0.24932000  0.66512800  1
  O  O24  1  0.60054800  0.85673500  0.96272700  1
  O  O25  1  0.25618700  0.39945200  0.96272700  1
  O  O26  1  0.14326500  0.74381300  0.96272700  1
  O  O27  1  0.39945200  0.14326500  0.03727300  1
  O  O28  1  0.74381300  0.60054800  0.03727300  1
  O  O29  1  0.85673500  0.25618700  0.03727300  1
  O  O30  1  0.57103600  0.73293900  0.76936700  1
  O  O31  1  0.16190300  0.42896400  0.76936700  1
  O  O32  1  0.26706100  0.83809700  0.76936700  1
  O  O33  1  0.42896400  0.26706100  0.23063300  1
  O  O34  1  0.83809700  0.57103600  0.23063300  1
  O  O35  1  0.73293900  0.16190300  0.23063300  1
  O  O36  1  0.66524600  0.65038300  0.42494100  1
  O  O37  1  0.98513700  0.33475400  0.42494100  1
  O  O38  1  0.34961700  0.01486300  0.42494100  1
  O  O39  1  0.33475400  0.34961700  0.57505900  1
  O  O40  1  0.01486300  0.66524600  0.57505900  1
  O  O41  1  0.65038300  0.98513700  0.57505900  1
loop_
_geom_bond_atom_site_label_1
_geom_bond_atom_site_label_2
_geom_bond_distance
_geom_bond_site_symmetry_2
O0 S6 1.660049 1_545
O0 S5 1.666501 1_555
O0 Rb3 3.229666 1_555
O1 S7 1.660049 1_555
O1 S3 1.666501 1_555
O1 Rb3 3.229676 1_555
O2 S8 1.660049 1_655
O2 S4 1.666501 1_555
O2 Rb3 3.229671 1_555
O3 S9 1.660049 1_565
O3 S2 1.666501 1_555
O3 Rb2 3.229666 1_555
O4 S10 1.660049 1_555
O4 S0 1.666501 1_555
O4 Rb2 3.229676 1_555
O5 S11 1.660049 1_455
O5 S1 1.666501 1_555
O5 Rb2 3.229671 1_555
O6 S0 1.517627 1_555
O6 Si1 1.789112 1_665
O7 S1 1.517627 1_555
O7 Si1 1.789112 1_555
O8 S2 1.517627 1_555
O8 Si1 1.789112 1_565
O9 S3 1.517627 1_555
O9 Si0 1.789112 1_555
O10 S4 1.517627 1_555
O10 Si0 1.789112 1_665
O11 S5 1.517627 1_555
O11 Si0 1.789112 1_655
O12 S6 1.525666 1_555
O12 Si0 1.790358 1_665
O13 S7 1.525666 1_555
O13 Si0 1.790358 1_555
O14 S8 1.525666 1_555
O14 Si0 1.790358 1_565
O15 S9 1.525666 1_555
O15 Si1 1.790358 1_555
O16 S10 1.525666 1_555
O16 Si1 1.790358 1_665
O17 S11 1.525666 1_555
O17 Si1 1.790358 1_655
O18 S0 1.433505 1_555
O18 Rb2 3.064085 1_555
O18 Rb0 3.218051 1_555
O19 S1 1.433505 1_555
O19 Rb2 3.064086 1_555
O19 Rb0 3.218052 1_555
O20 S2 1.433505 1_555
O20 Rb2 3.064080 1_555
O20 Rb0 3.218047 1_555
O21 S3 1.433505 1_555
O21 Rb3 3.064085 1_555
O21 Rb1 3.218051 1_555
O22 S4 1.433505 1_555
O22 Rb3 3.064086 1_555
O22 Rb1 3.218052 1_555
O23 S5 1.433505 1_555
O23 Rb3 3.064080 1_555
O23 Rb1 3.218047 1_555
O24 S6 1.430775 1_555
O24 Rb2 2.958180 1_556
O25 S7 1.430775 1_555
O25 Rb2 2.958182 1_556
O26 S8 1.430775 1_555
O26 Rb2 2.958174 1_556
O27 S9 1.430775 1_555
O27 Rb3 2.958180 1_554
O28 S10 1.430775 1_555
O28 Rb3 2.958182 1_554
O29 S11 1.430775 1_555
O29 Rb3 2.958174 1_554
O30 S6 1.433122 1_555
O30 Rb0 3.138456 1_555
O31 S7 1.433122 1_555
O31 Rb0 3.138455 1_555
O32 S8 1.433122 1_555
O32 Rb0 3.138450 1_555
O33 S9 1.433122 1_555
O33 Rb1 3.138456 1_555
O34 S10 1.433122 1_555
O34 Rb1 3.138455 1_555
O35 S11 1.433122 1_555
O35 Rb1 3.138450 1_555
O36 S0 1.432403 1_555
O36 Rb1 3.108949 1_555
O37 S1 1.432403 1_655
O37 Rb1 3.108939 1_555
O38 S2 1.432403 1_545
O38 Rb1 3.108944 1_555
O39 S3 1.432403 1_555
O39 Rb0 3.108949 1_555
O40 S4 1.432403 1_455
O40 Rb0 3.108939 1_555
O41 S5 1.432403 1_565
O41 Rb0 3.108944 1_555
