# generated using pymatgen
data_Ba4Ge20Pt3
_symmetry_space_group_name_H-M   'P 1'
_cell_length_a   10.89578597
_cell_length_b   10.89578597
_cell_length_c   10.89578597
_cell_angle_alpha   90.00000000
_cell_angle_beta   90.00000000
_cell_angle_gamma   90.00000000
_symmetry_Int_Tables_number   1
_chemical_formula_structural   Ba4Ge20Pt3
_chemical_formula_sum   'Ba8 Ge40 Pt6'
_cell_volume   1293.52757390
_cell_formula_units_Z   2
loop_
 _symmetry_equiv_pos_site_id
 _symmetry_equiv_pos_as_xyz
  1  'x, y, z'
loop_
 _atom_site_type_symbol
 _atom_site_label
 _atom_site_symmetry_multiplicity
 _atom_site_fract_x
 _atom_site_fract_y
 _atom_site_fract_z
 _atom_site_occupancy
  Ba  Ba0  1  0.50000000  0.50000000  0.50000000  1
  Ba  Ba1  1  -0.00000000  -0.00000000  0.00000000  1
  Ba  Ba2  1  -0.00000000  0.25000000  0.50000000  1
  Ba  Ba3  1  0.75000000  0.50000000  0.00000000  1
  Ba  Ba4  1  0.50000000  -0.00000000  0.75000000  1
  Ba  Ba5  1  -0.00000000  0.75000000  0.50000000  1
  Ba  Ba6  1  0.25000000  0.50000000  0.00000000  1
  Ba  Ba7  1  0.50000000  -0.00000000  0.25000000  1
  Ge  Ge0  1  0.68326551  0.31673449  0.68326551  1
  Ge  Ge1  1  0.31673449  0.68326551  0.31673449  1
  Ge  Ge2  1  0.68326551  0.68326551  0.31673449  1
  Ge  Ge3  1  0.31673449  0.31673449  0.68326551  1
  Ge  Ge4  1  0.31673449  0.68326551  0.68326551  1
  Ge  Ge5  1  0.68326551  0.31673449  0.31673449  1
  Ge  Ge6  1  0.31673449  0.31673449  0.31673449  1
  Ge  Ge7  1  0.68326551  0.68326551  0.68326551  1
  Ge  Ge8  1  0.18326551  0.18326551  0.81673449  1
  Ge  Ge9  1  0.81673449  0.81673449  0.18326551  1
  Ge  Ge10  1  0.18326551  0.81673449  0.18326551  1
  Ge  Ge11  1  0.81673449  0.18326551  0.81673449  1
  Ge  Ge12  1  0.81673449  0.18326551  0.18326551  1
  Ge  Ge13  1  0.18326551  0.81673449  0.81673449  1
  Ge  Ge14  1  0.81673449  0.81673449  0.81673449  1
  Ge  Ge15  1  0.18326551  0.18326551  0.18326551  1
  Ge  Ge16  1  0.62001480  0.18448675  0.50000000  1
  Ge  Ge17  1  0.81551325  0.50000000  0.62001480  1
  Ge  Ge18  1  0.50000000  0.37998520  0.81551325  1
  Ge  Ge19  1  0.37998520  0.81551325  0.50000000  1
  Ge  Ge20  1  0.18448675  0.50000000  0.37998520  1
  Ge  Ge21  1  0.50000000  0.62001480  0.18448675  1
  Ge  Ge22  1  0.62001480  0.81551325  0.50000000  1
  Ge  Ge23  1  0.81551325  0.50000000  0.37998520  1
  Ge  Ge24  1  0.37998520  0.18448675  0.50000000  1
  Ge  Ge25  1  0.18448675  0.50000000  0.62001480  1
  Ge  Ge26  1  0.50000000  0.62001480  0.81551325  1
  Ge  Ge27  1  0.50000000  0.37998520  0.18448675  1
  Ge  Ge28  1  0.12001480  0.00000000  0.68448675  1
  Ge  Ge29  1  0.31551325  0.12001480  0.00000000  1
  Ge  Ge30  1  -0.00000000  0.31551325  0.87998520  1
  Ge  Ge31  1  0.87998520  -0.00000000  0.31551325  1
  Ge  Ge32  1  0.68448675  0.87998520  0.00000000  1
  Ge  Ge33  1  0.00000000  0.68448675  0.12001480  1
  Ge  Ge34  1  0.12001480  0.00000000  0.31551325  1
  Ge  Ge35  1  0.31551325  0.87998520  -0.00000000  1
  Ge  Ge36  1  0.87998520  -0.00000000  0.68448675  1
  Ge  Ge37  1  0.68448675  0.12001480  -0.00000000  1
  Ge  Ge38  1  -0.00000000  0.31551325  0.12001480  1
  Ge  Ge39  1  0.00000000  0.68448675  0.87998520  1
  Pt  Pt0  1  -0.00000000  0.50000000  0.75000000  1
  Pt  Pt1  1  0.50000000  0.25000000  0.00000000  1
  Pt  Pt2  1  0.75000000  -0.00000000  0.50000000  1
  Pt  Pt3  1  -0.00000000  0.50000000  0.25000000  1
  Pt  Pt4  1  0.50000000  0.75000000  0.00000000  1
  Pt  Pt5  1  0.25000000  -0.00000000  0.50000000  1
loop_
_geom_bond_atom_site_label_1
_geom_bond_atom_site_label_2
_geom_bond_distance
_geom_bond_site_symmetry_2
Ba0 Ge2 3.458597 1_555
Ba0 Ge3 3.458597 1_555
Ba0 Ge0 3.458597 1_555
Ba0 Ge5 3.458597 1_555
Ba0 Ge4 3.458597 1_555
Ba0 Ge7 3.458597 1_555
Ba0 Ge1 3.458597 1_555
Ba0 Ge6 3.458597 1_555
Ba0 Ge22 3.678069 1_555
Ba0 Ge16 3.678069 1_555
Ba0 Ge26 3.678069 1_555
Ba0 Ge21 3.678069 1_555
Ba0 Ge25 3.678069 1_555
Ba0 Ge17 3.678069 1_555
Ba0 Ge27 3.678069 1_555
Ba0 Ge23 3.678069 1_555
Ba0 Ge24 3.678069 1_555
Ba0 Ge20 3.678069 1_555
Ba0 Ge19 3.678069 1_555
Ba0 Ge18 3.678069 1_555
Ba1 Ge15 3.458597 1_555
Ba1 Ge8 3.458597 1_554
Ba1 Ge13 3.458597 1_544
Ba1 Ge11 3.458597 1_454
Ba1 Ge10 3.458597 1_545
Ba1 Ge12 3.458597 1_455
Ba1 Ge9 3.458597 1_445
Ba1 Ge14 3.458597 1_444
Ba1 Ge33 3.678069 1_545
Ba1 Ge37 3.678069 1_455
Ba1 Ge28 3.678069 1_554
Ba1 Ge29 3.678069 1_555
Ba1 Ge38 3.678069 1_555
Ba1 Ge34 3.678069 1_555
Ba1 Ge36 3.678069 1_454
Ba1 Ge32 3.678069 1_445
Ba1 Ge39 3.678069 1_544
Ba1 Ge35 3.678069 1_545
Ba1 Ge30 3.678069 1_554
Ba1 Ge31 3.678069 1_455
Ba2 Ge34 3.629113 1_555
Ba2 Ge28 3.629113 1_555
Ba2 Ge25 3.629113 1_555
Ba2 Ge17 3.629113 1_455
Ba2 Ge31 3.629113 1_455
Ba2 Ge23 3.629113 1_455
Ba2 Ge20 3.629113 1_555
Ba2 Ge36 3.629113 1_455
Ba2 Pt2 3.852242 1_455
Ba2 Pt5 3.852242 1_555
Ba2 Pt3 3.852242 1_555
Ba2 Pt0 3.852242 1_555
Ba3 Ge38 3.629113 1_655
Ba3 Ge33 3.629113 1_655
Ba3 Ge21 3.629113 1_555
Ba3 Ge26 3.629113 1_554
Ba3 Ge27 3.629113 1_555
Ba3 Ge30 3.629113 1_654
Ba3 Ge18 3.629113 1_554
Ba3 Ge39 3.629113 1_654
Ba3 Pt0 3.852242 1_654
Ba3 Pt3 3.852242 1_655
Ba3 Pt4 3.852242 1_555
Ba3 Pt1 3.852242 1_555
Ba4 Ge29 3.629113 1_556
Ba4 Ge37 3.629113 1_556
Ba4 Ge16 3.629113 1_555
Ba4 Ge22 3.629113 1_545
Ba4 Ge35 3.629113 1_546
Ba4 Ge24 3.629113 1_555
Ba4 Ge19 3.629113 1_545
Ba4 Ge32 3.629113 1_546
Ba4 Pt4 3.852242 1_546
Ba4 Pt5 3.852242 1_555
Ba4 Pt2 3.852242 1_555
Ba4 Pt1 3.852242 1_556
Ba5 Ge34 3.629113 1_565
Ba5 Ge28 3.629113 1_565
Ba5 Ge25 3.629113 1_555
Ba5 Ge17 3.629113 1_455
Ba5 Ge31 3.629113 1_465
Ba5 Ge23 3.629113 1_455
Ba5 Ge20 3.629113 1_555
Ba5 Ge36 3.629113 1_465
Ba5 Pt3 3.852242 1_555
Ba5 Pt0 3.852242 1_555
Ba5 Pt2 3.852242 1_465
Ba5 Pt5 3.852242 1_565
Ba6 Ge38 3.629113 1_555
Ba6 Ge33 3.629113 1_555
Ba6 Ge21 3.629113 1_555
Ba6 Ge26 3.629113 1_554
Ba6 Ge30 3.629113 1_554
Ba6 Ge27 3.629113 1_555
Ba6 Ge18 3.629113 1_554
Ba6 Ge39 3.629113 1_554
Ba6 Pt0 3.852242 1_554
Ba6 Pt3 3.852242 1_555
Ba6 Pt4 3.852242 1_555
Ba6 Pt1 3.852242 1_555
Ba7 Ge29 3.629113 1_555
Ba7 Ge37 3.629113 1_555
Ba7 Ge16 3.629113 1_555
Ba7 Ge22 3.629113 1_545
Ba7 Ge35 3.629113 1_545
Ba7 Ge24 3.629113 1_555
Ba7 Ge19 3.629113 1_545
Ba7 Ge32 3.629113 1_545
Ba7 Pt5 3.852242 1_555
Ba7 Pt2 3.852242 1_555
Ba7 Pt1 3.852242 1_555
Ba7 Pt4 3.852242 1_545
Ge0 Ge11 2.518834 1_555
Ge0 Ge18 2.557062 1_555
Ge0 Ge17 2.557062 1_555
Ge0 Ge16 2.557062 1_555
Ge1 Ge10 2.518834 1_555
Ge1 Ge19 2.557062 1_555
Ge1 Ge20 2.557062 1_555
Ge1 Ge21 2.557062 1_555
Ge2 Ge9 2.518834 1_555
Ge2 Ge23 2.557062 1_555
Ge2 Ge22 2.557062 1_555
Ge2 Ge21 2.557062 1_555
Ge3 Ge8 2.518834 1_555
Ge10 Ge35 2.557062 1_555
Ge10 Ge33 2.557062 1_555
Ge10 Ge34 2.557062 1_565
Ge11 Ge36 2.557062 1_555
Ge11 Ge30 2.557062 1_655
Ge11 Ge37 2.557062 1_556
Ge12 Ge5 2.518834 1_555
Ge12 Ge31 2.557062 1_555
Ge12 Ge37 2.557062 1_555
Ge12 Ge38 2.557062 1_655
Ge13 Ge4 2.518834 1_555
Ge13 Ge39 2.557062 1_555
Ge13 Ge35 2.557062 1_556
Ge13 Ge28 2.557062 1_565
Ge14 Ge7 2.518834 1_555
Ge14 Ge39 2.557062 1_655
Ge14 Ge36 2.557062 1_565
Ge14 Ge32 2.557062 1_556
Ge15 Ge6 2.518834 1_555
Ge15 Ge34 2.557062 1_555
Ge15 Ge29 2.557062 1_555
Ge15 Ge38 2.557062 1_555
Ge16 Pt2 2.458962 1_555
Ge16 Ge5 2.557062 1_555
Ge17 Pt0 2.458962 1_655
Ge17 Ge7 2.557062 1_555
Ge18 Pt1 2.458962 1_556
Ge18 Ge3 2.557062 1_555
Ge19 Pt5 2.458962 1_565
Ge19 Ge4 2.557062 1_555
Ge20 Pt3 2.458962 1_555
Ge20 Ge6 2.557062 1_555
Ge21 Pt4 2.458962 1_555
Ge22 Pt2 2.458962 1_565
Ge22 Ge7 2.557062 1_555
Ge23 Pt3 2.458962 1_655
Ge23 Ge5 2.557062 1_555
Ge24 Pt5 2.458962 1_555
Ge24 Ge6 2.557062 1_555
Ge24 Ge3 2.557062 1_555
Ge25 Pt0 2.458962 1_555
Ge25 Ge4 2.557062 1_555
Ge25 Ge3 2.557062 1_555
Ge26 Pt4 2.458962 1_556
Ge26 Ge4 2.557062 1_555
Ge26 Ge7 2.557062 1_555
Ge27 Pt1 2.458962 1_555
Ge27 Ge6 2.557062 1_555
Ge27 Ge5 2.557062 1_555
Ge28 Pt5 2.458962 1_555
Ge28 Ge8 2.557062 1_555
Ge29 Pt1 2.458962 1_555
Ge29 Ge8 2.557062 1_554
Ge30 Pt0 2.458962 1_555
Ge30 Ge8 2.557062 1_555
Ge31 Pt2 2.458962 1_555
Ge31 Ge9 2.557062 1_545
Ge32 Pt4 2.458962 1_555
Ge32 Ge9 2.557062 1_555
Ge33 Pt3 2.458962 1_555
Ge33 Ge9 2.557062 1_455
Ge34 Pt5 2.458962 1_555
Ge35 Pt4 2.458962 1_555
Ge36 Pt2 2.458962 1_555
Ge37 Pt1 2.458962 1_555
Ge38 Pt3 2.458962 1_555
Ge39 Pt0 2.458962 1_555
