# generated using pymatgen
data_TaN2
_symmetry_space_group_name_H-M   'P 1'
_cell_length_a   5.12884500
_cell_length_b   5.12884500
_cell_length_c   5.12884500
_cell_angle_alpha   90.00000000
_cell_angle_beta   90.00000000
_cell_angle_gamma   90.00000000
_symmetry_Int_Tables_number   1
_chemical_formula_structural   TaN2
_chemical_formula_sum   'Ta4 N8'
_cell_volume   134.91452947
_cell_formula_units_Z   4
loop_
 _symmetry_equiv_pos_site_id
 _symmetry_equiv_pos_as_xyz
  1  'x, y, z'
loop_
 _atom_site_type_symbol
 _atom_site_label
 _atom_site_symmetry_multiplicity
 _atom_site_fract_x
 _atom_site_fract_y
 _atom_site_fract_z
 _atom_site_occupancy
  Ta  Ta0  1  0.50000000  0.50000000  0.00000000  1
  Ta  Ta1  1  0.50000000  0.00000000  0.50000000  1
  Ta  Ta2  1  0.00000000  0.50000000  0.50000000  1
  Ta  Ta3  1  0.00000000  0.00000000  0.00000000  1
  N  N0  1  0.14383000  0.85617000  0.35617000  1
  N  N1  1  0.85617000  0.35617000  0.14383000  1
  N  N2  1  0.35617000  0.14383000  0.85617000  1
  N  N3  1  0.64383000  0.64383000  0.64383000  1
  N  N4  1  0.85617000  0.14383000  0.64383000  1
  N  N5  1  0.14383000  0.64383000  0.85617000  1
  N  N6  1  0.64383000  0.85617000  0.14383000  1
  N  N7  1  0.35617000  0.35617000  0.35617000  1
loop_
_geom_bond_atom_site_label_1
_geom_bond_atom_site_label_2
_geom_bond_distance
_geom_bond_site_symmetry_2
N0 Ta1 2.103647 1_565
N0 Ta3 2.103647 1_565
N0 Ta2 2.103647 1_555
N1 Ta2 2.103647 1_655
N1 Ta3 2.103647 1_655
N1 Ta0 2.103647 1_555
N2 Ta0 2.103647 1_556
N2 Ta3 2.103647 1_556
N2 Ta1 2.103647 1_555
N3 Ta1 2.103647 1_565
N3 Ta0 2.103647 1_556
N3 Ta2 2.103647 1_655
N4 Ta3 2.103647 1_656
N4 Ta2 2.103647 1_655
N4 Ta1 2.103647 1_555
N5 Ta3 2.103647 1_566
N5 Ta0 2.103647 1_556
N5 Ta2 2.103647 1_555
N6 Ta1 2.103647 1_565
N6 Ta3 2.103647 1_665
N6 Ta0 2.103647 1_555
N7 Ta2 2.103647 1_555
N7 Ta1 2.103647 1_555
N7 Ta0 2.103647 1_555
