# generated using pymatgen
data_LaCd(BO2)5
_symmetry_space_group_name_H-M   'P 1'
_cell_length_a   7.98793600
_cell_length_b   8.88334400
_cell_length_c   13.04211253
_cell_angle_alpha   48.09202163
_cell_angle_beta   90.00000000
_cell_angle_gamma   90.00000000
_symmetry_Int_Tables_number   1
_chemical_formula_structural   LaCd(BO2)5
_chemical_formula_sum   'La4 Cd4 B20 O40'
_cell_volume   688.74663052
_cell_formula_units_Z   4
loop_
 _symmetry_equiv_pos_site_id
 _symmetry_equiv_pos_as_xyz
  1  'x, y, z'
loop_
 _atom_site_type_symbol
 _atom_site_label
 _atom_site_symmetry_multiplicity
 _atom_site_fract_x
 _atom_site_fract_y
 _atom_site_fract_z
 _atom_site_occupancy
  La  La0  1  0.17736000  0.95786600  0.23500800  1
  La  La1  1  0.67736000  0.04213400  0.26499200  1
  La  La2  1  0.82264000  0.04213400  0.76499200  1
  La  La3  1  0.32264000  0.95786600  0.73500800  1
  Cd  Cd0  1  0.40897400  0.48541700  0.12404800  1
  Cd  Cd1  1  0.90897400  0.51458300  0.37595200  1
  Cd  Cd2  1  0.59102600  0.51458300  0.87595200  1
  Cd  Cd3  1  0.09102600  0.48541700  0.62404800  1
  B  B0  1  0.57841500  0.66117100  0.25480400  1
  B  B1  1  0.17385600  0.52534400  0.90725300  1
  B  B2  1  0.67385600  0.47465600  0.59274700  1
  B  B3  1  0.82614400  0.47465600  0.09274700  1
  B  B4  1  0.32614400  0.52534400  0.40725300  1
  B  B5  1  0.89522300  0.85407800  0.49728900  1
  B  B6  1  0.39522300  0.14592200  0.00271100  1
  B  B7  1  0.10477700  0.14592200  0.50271100  1
  B  B8  1  0.60477700  0.85407800  0.99728900  1
  B  B9  1  0.07841500  0.33882900  0.24519600  1
  B  B10  1  0.42158500  0.33882900  0.74519600  1
  B  B11  1  0.92158500  0.66117100  0.75480400  1
  B  B12  1  0.32682100  0.08421300  0.40037700  1
  B  B13  1  0.82682100  0.91578700  0.09962300  1
  B  B14  1  0.67317900  0.91578700  0.59962300  1
  B  B15  1  0.17317900  0.08421300  0.90037700  1
  B  B16  1  0.52960400  0.27547000  0.44247700  1
  B  B17  1  0.02960400  0.72453000  0.05752300  1
  B  B18  1  0.47039600  0.72453000  0.55752300  1
  B  B19  1  0.97039600  0.27547000  0.94247700  1
  O  O0  1  0.21291900  0.19621700  0.27539700  1
  O  O1  1  0.67114000  0.42053200  0.07837100  1
  O  O2  1  0.17114000  0.57946800  0.42162900  1
  O  O3  1  0.32886000  0.57946800  0.92162900  1
  O  O4  1  0.82886000  0.42053200  0.57837100  1
  O  O5  1  0.44449200  0.12315600  0.11245000  1
  O  O6  1  0.94449200  0.87684400  0.38755000  1
  O  O7  1  0.55550800  0.87684400  0.88755000  1
  O  O8  1  0.71291900  0.80378300  0.22460300  1
  O  O9  1  0.05550800  0.12315600  0.61245000  1
  O  O10  1  0.28708100  0.19621700  0.77539700  1
  O  O11  1  0.78708100  0.80378300  0.72460300  1
  O  O12  1  0.53477500  0.70794100  0.12526000  1
  O  O13  1  0.03477500  0.29205900  0.37474000  1
  O  O14  1  0.46522500  0.29205900  0.87474000  1
  O  O15  1  0.96522500  0.70794100  0.62526000  1
  O  O16  1  0.42477700  0.68758800  0.30430900  1
  O  O17  1  0.92477700  0.31241200  0.19569100  1
  O  O18  1  0.57522300  0.31241200  0.69569100  1
  O  O19  1  0.07522300  0.68758800  0.80430900  1
  O  O20  1  0.64029600  0.45168400  0.35706300  1
  O  O21  1  0.14029600  0.54831600  0.14293700  1
  O  O22  1  0.35970400  0.54831600  0.64293700  1
  O  O23  1  0.85970400  0.45168400  0.85706300  1
  O  O24  1  0.46805900  0.22315500  0.36124500  1
  O  O25  1  0.96805900  0.77684500  0.13875500  1
  O  O26  1  0.53194100  0.77684500  0.63875500  1
  O  O27  1  0.03194100  0.22315500  0.86124500  1
  O  O28  1  0.39058500  0.90517000  0.42417400  1
  O  O29  1  0.89058500  0.09483000  0.07582600  1
  O  O30  1  0.60941500  0.09483000  0.57582600  1
  O  O31  1  0.11956300  0.32871400  0.98567100  1
  O  O32  1  0.23220700  0.02383300  0.51994200  1
  O  O33  1  0.73220700  0.97616700  0.98005800  1
  O  O34  1  0.76779300  0.97616700  0.48005800  1
  O  O35  1  0.26779300  0.02383300  0.01994200  1
  O  O36  1  0.38043700  0.32871400  0.48567100  1
  O  O37  1  0.88043700  0.67128600  0.01432900  1
  O  O38  1  0.61956300  0.67128600  0.51432900  1
  O  O39  1  0.10941500  0.90517000  0.92417400  1
loop_
_geom_bond_atom_site_label_1
_geom_bond_atom_site_label_2
_geom_bond_distance
_geom_bond_site_symmetry_2
La0 O6 2.454236 1_455
La0 O5 2.475656 1_565
La0 O2 2.509245 1_555
La0 O0 2.516204 1_565
La0 O35 2.556756 1_565
La0 O31 2.707339 1_564
La0 O16 2.754742 1_555
La0 O29 2.768314 1_465
La0 O28 2.768396 1_555
La0 O25 3.107036 1_455
La1 O5 2.454236 1_555
La1 O6 2.475656 1_545
La1 O1 2.509245 1_555
La1 O8 2.516204 1_545
La1 O34 2.556756 1_545
La1 O38 2.707339 1_545
La1 O17 2.754742 1_555
La1 O28 2.768314 1_545
La1 O29 2.768396 1_555
La1 O24 3.107036 1_555
La2 O9 2.454236 1_655
La2 O7 2.475656 1_545
La2 O4 2.509245 1_555
La2 O11 2.516204 1_545
La2 O33 2.556756 1_545
La2 O37 2.707339 1_546
La2 O18 2.754742 1_555
La2 O39 2.768314 1_645
La2 O30 2.768396 1_555
La2 O27 3.107036 1_655
La3 O7 2.454236 1_555
La3 O9 2.475656 1_565
La3 O3 2.509245 1_555
La3 O10 2.516204 1_565
La3 O32 2.556756 1_565
La3 O36 2.707339 1_565
La3 O19 2.754742 1_555
La3 O30 2.768314 1_565
La3 O39 2.768396 1_555
La3 O26 3.107036 1_555
Cd0 O12 2.226963 1_555
Cd0 O3 2.265068 1_554
Cd0 O21 2.272197 1_555
Cd0 O1 2.351882 1_555
Cd0 O24 2.364878 1_555
Cd0 O0 2.484885 1_555
Cd1 O13 2.226963 1_655
Cd1 O4 2.265068 1_555
Cd1 O20 2.272197 1_555
Cd1 O2 2.351882 1_655
Cd1 O25 2.364878 1_555
Cd1 O8 2.484885 1_555
Cd2 O14 2.226963 1_555
Cd2 O1 2.265068 1_556
Cd2 O23 2.272197 1_555
Cd2 O3 2.351882 1_555
Cd2 O26 2.364878 1_555
Cd2 O11 2.484885 1_555
Cd3 O15 2.226963 1_455
Cd3 O2 2.265068 1_555
Cd3 O22 2.272197 1_555
Cd3 O4 2.351882 1_455
Cd3 O27 2.364878 1_555
Cd3 O10 2.484885 1_555
B0 O20 1.473310 1_555
B0 O16 1.476646 1_555
B0 O12 1.486915 1_555
B0 O8 1.499287 1_555
B1 O31 1.377927 1_555
B1 O19 1.384054 1_555
B1 O3 1.385567 1_555
B2 O38 1.377927 1_555
B2 O18 1.384054 1_555
B2 O4 1.385567 1_555
B3 O37 1.377927 1_555
B3 O17 1.384054 1_555
B3 O1 1.385567 1_555
B4 O36 1.377927 1_555
B4 O16 1.384054 1_555
B4 O2 1.385567 1_555
B5 O6 1.362914 1_555
B5 O15 1.374461 1_555
B5 O34 1.391870 1_555
B6 O5 1.362914 1_555
B6 O14 1.374461 1_554
B6 O35 1.391870 1_555
B7 O9 1.362914 1_555
B7 O13 1.374461 1_555
B7 O32 1.391870 1_555
B8 O7 1.362914 1_555
B8 O12 1.374461 1_556
B8 O33 1.391870 1_555
B9 O21 1.473310 1_555
B9 O17 1.476646 1_455
B9 O13 1.486915 1_555
B9 O0 1.499287 1_555
B10 O22 1.473310 1_555
B10 O18 1.476646 1_555
B10 O14 1.486915 1_555
B10 O10 1.499287 1_555
B11 O23 1.473310 1_555
B11 O19 1.476646 1_655
B11 O15 1.486915 1_555
B11 O11 1.499287 1_555
B12 O32 1.474182 1_555
B12 O24 1.488364 1_555
B12 O28 1.491984 1_545
B12 O0 1.519264 1_555
B13 O33 1.474182 1_554
B13 O25 1.488364 1_555
B13 O29 1.491984 1_565
B13 O8 1.519264 1_555
B14 O34 1.474182 1_555
B14 O26 1.488364 1_555
B14 O30 1.491984 1_565
B14 O11 1.519264 1_555
B15 O35 1.474182 1_556
B15 O27 1.488364 1_555
B15 O39 1.491984 1_545
B15 O10 1.519264 1_555
B16 O20 1.464125 1_555
B16 O24 1.495925 1_555
B16 O30 1.509293 1_555
B16 O36 1.522095 1_555
B17 O21 1.464125 1_555
B17 O25 1.495925 1_455
B17 O39 1.509293 1_554
B17 O37 1.522095 1_455
B18 O22 1.464125 1_555
B18 O26 1.495925 1_555
B18 O28 1.509293 1_555
B18 O38 1.522095 1_555
B19 O23 1.464125 1_555
B19 O27 1.495925 1_655
B19 O29 1.509293 1_556
B19 O31 1.522095 1_655
