# generated using pymatgen
data_NbPt2
_symmetry_space_group_name_H-M   'P 1'
_cell_length_a   5.71604459
_cell_length_b   5.71604459
_cell_length_c   13.92405800
_cell_angle_alpha   90.00000000
_cell_angle_beta   90.00000000
_cell_angle_gamma   120.00000688
_symmetry_Int_Tables_number   1
_chemical_formula_structural   NbPt2
_chemical_formula_sum   'Nb8 Pt16'
_cell_volume   393.99221625
_cell_formula_units_Z   8
loop_
 _symmetry_equiv_pos_site_id
 _symmetry_equiv_pos_as_xyz
  1  'x, y, z'
loop_
 _atom_site_type_symbol
 _atom_site_label
 _atom_site_symmetry_multiplicity
 _atom_site_fract_x
 _atom_site_fract_y
 _atom_site_fract_z
 _atom_site_occupancy
  Nb  Nb0_0  1  0.00000000  0.00000000  0.00000000  1
  Nb  Nb0_1  1  0.00000000  0.00000000  0.50000000  1
  Nb  Nb0_2  1  0.00000000  0.50000000  0.00000000  1
  Nb  Nb0_3  1  0.00000000  0.50000000  0.50000000  1
  Nb  Nb0_4  1  0.50000000  0.00000000  0.00000000  1
  Nb  Nb0_5  1  0.50000000  0.00000000  0.50000000  1
  Nb  Nb0_6  1  0.50000000  0.50000000  0.00000000  1
  Nb  Nb0_7  1  0.50000000  0.50000000  0.50000000  1
  Pt  Pt0_0  1  0.16666650  0.33333350  0.33670000  1
  Pt  Pt0_1  1  0.16666650  0.33333350  0.83670000  1
  Pt  Pt0_2  1  0.16666650  0.83333350  0.33670000  1
  Pt  Pt0_3  1  0.16666650  0.83333350  0.83670000  1
  Pt  Pt0_4  1  0.66666650  0.33333350  0.33670000  1
  Pt  Pt0_5  1  0.66666650  0.33333350  0.83670000  1
  Pt  Pt0_6  1  0.66666650  0.83333350  0.33670000  1
  Pt  Pt0_7  1  0.66666650  0.83333350  0.83670000  1
  Pt  Pt1_0  1  0.33333350  0.16666650  0.16330000  1
  Pt  Pt1_1  1  0.33333350  0.16666650  0.66330000  1
  Pt  Pt1_2  1  0.33333350  0.66666650  0.16330000  1
  Pt  Pt1_3  1  0.33333350  0.66666650  0.66330000  1
  Pt  Pt1_4  1  0.83333350  0.16666650  0.16330000  1
  Pt  Pt1_5  1  0.83333350  0.16666650  0.66330000  1
  Pt  Pt1_6  1  0.83333350  0.66666650  0.16330000  1
  Pt  Pt1_7  1  0.83333350  0.66666650  0.66330000  1
loop_
_geom_bond_atom_site_label_1
_geom_bond_atom_site_label_2
_geom_bond_distance
_geom_bond_site_symmetry_2
Nb0_0 Pt0_3 2.809434 1_544
Nb0_0 Pt1_4 2.809434 1_455
Nb0_0 Pt1_0 2.809435 1_555
Nb0_0 Pt0_1 2.809435 1_554
Nb0_0 Pt0_7 2.809435 1_444
Nb0_0 Pt1_6 2.809435 1_445
Nb0_0 Nb0_6 2.858022 1_555
Nb0_0 Nb0_6 2.858022 1_445
Nb0_0 Nb0_2 2.858022 1_555
Nb0_0 Nb0_4 2.858022 1_555
Nb0_0 Nb0_2 2.858022 1_545
Nb0_0 Nb0_4 2.858022 1_455
Nb0_1 Pt1_5 2.809434 1_455
Nb0_1 Pt0_2 2.809434 1_545
Nb0_1 Pt0_0 2.809435 1_555
Nb0_1 Pt1_1 2.809435 1_555
Nb0_1 Pt0_6 2.809435 1_445
Nb0_1 Pt1_7 2.809435 1_445
Nb0_1 Nb0_7 2.858022 1_445
Nb0_1 Nb0_7 2.858022 1_555
Nb0_1 Nb0_3 2.858022 1_555
Nb0_1 Nb0_3 2.858022 1_545
Nb0_1 Nb0_5 2.858022 1_455
Nb0_1 Nb0_5 2.858022 1_555
Nb0_2 Pt0_1 2.809434 1_554
Nb0_2 Pt1_6 2.809434 1_455
Nb0_2 Pt1_2 2.809435 1_555
Nb0_2 Pt0_3 2.809435 1_554
Nb0_2 Pt1_4 2.809435 1_455
Nb0_2 Pt0_5 2.809435 1_454
Nb0_2 Nb0_4 2.858022 1_565
Nb0_2 Nb0_4 2.858022 1_455
Nb0_2 Nb0_6 2.858022 1_455
Nb0_2 Nb0_6 2.858022 1_555
Nb0_3 Pt0_0 2.809434 1_555
Nb0_3 Pt1_7 2.809434 1_455
Nb0_3 Pt1_5 2.809435 1_455
Nb0_3 Pt0_2 2.809435 1_555
Nb0_3 Pt1_3 2.809435 1_555
Nb0_3 Pt0_4 2.809435 1_455
Nb0_3 Nb0_5 2.858022 1_565
Nb0_3 Nb0_5 2.858022 1_455
Nb0_3 Nb0_7 2.858022 1_455
Nb0_3 Nb0_7 2.858022 1_555
Nb0_4 Pt1_0 2.809434 1_555
Nb0_4 Pt0_7 2.809434 1_544
Nb0_4 Pt1_4 2.809435 1_555
Nb0_4 Pt0_3 2.809435 1_544
Nb0_4 Pt0_5 2.809435 1_554
Nb0_4 Pt1_2 2.809435 1_545
Nb0_4 Nb0_6 2.858022 1_555
Nb0_4 Nb0_6 2.858022 1_545
Nb0_5 Pt1_1 2.809434 1_555
Nb0_5 Pt0_6 2.809434 1_545
Nb0_5 Pt1_5 2.809435 1_555
Nb0_5 Pt0_2 2.809435 1_545
Nb0_5 Pt0_4 2.809435 1_555
Nb0_5 Pt1_3 2.809435 1_545
Nb0_5 Nb0_7 2.858022 1_555
Nb0_5 Nb0_7 2.858022 1_545
Nb0_6 Pt0_5 2.809434 1_554
Nb0_6 Pt1_2 2.809434 1_555
Nb0_6 Pt0_7 2.809435 1_554
Nb0_6 Pt1_0 2.809435 1_555
Nb0_6 Pt0_1 2.809435 1_554
Nb0_6 Pt1_6 2.809435 1_555
Nb0_7 Pt0_4 2.809434 1_555
Nb0_7 Pt1_3 2.809434 1_555
Nb0_7 Pt0_6 2.809435 1_555
Nb0_7 Pt1_7 2.809435 1_555
Nb0_7 Pt0_0 2.809435 1_555
Nb0_7 Pt1_1 2.809435 1_555
Pt0_0 Pt0_6 2.858022 1_555
Pt0_0 Pt0_6 2.858022 1_445
Pt0_0 Pt0_4 2.858022 1_555
Pt0_0 Pt0_2 2.858022 1_555
Pt0_0 Pt0_4 2.858022 1_455
Pt0_0 Pt0_2 2.858022 1_545
Pt0_0 Pt1_2 2.924421 1_555
Pt0_0 Pt1_4 2.924421 1_455
Pt0_0 Pt1_0 2.924424 1_555
Pt0_1 Pt0_7 2.858022 1_555
Pt0_1 Pt0_7 2.858022 1_445
Pt0_1 Pt0_5 2.858022 1_555
Pt0_1 Pt0_3 2.858022 1_555
Pt0_1 Pt0_5 2.858022 1_455
Pt0_1 Pt0_3 2.858022 1_545
Pt0_1 Pt1_3 2.924421 1_555
Pt0_1 Pt1_5 2.924421 1_455
Pt0_1 Pt1_1 2.924424 1_555
Pt0_2 Pt0_4 2.858022 1_565
Pt0_2 Pt0_4 2.858022 1_455
Pt0_2 Pt0_6 2.858022 1_455
Pt0_2 Pt0_6 2.858022 1_555
Pt0_2 Pt1_0 2.924421 1_565
Pt0_2 Pt1_6 2.924421 1_455
Pt0_2 Pt1_2 2.924424 1_555
Pt0_3 Pt0_5 2.858022 1_565
Pt0_3 Pt0_5 2.858022 1_455
Pt0_3 Pt0_7 2.858022 1_455
Pt0_3 Pt0_7 2.858022 1_555
Pt0_3 Pt1_7 2.924421 1_455
Pt0_3 Pt1_1 2.924421 1_565
Pt0_3 Pt1_3 2.924424 1_555
Pt0_4 Pt0_6 2.858022 1_555
Pt0_4 Pt0_6 2.858022 1_545
Pt0_4 Pt1_0 2.924421 1_555
Pt0_4 Pt1_6 2.924421 1_555
Pt0_4 Pt1_4 2.924424 1_555
Pt0_5 Pt0_7 2.858022 1_555
Pt0_5 Pt0_7 2.858022 1_545
Pt0_5 Pt1_1 2.924421 1_555
Pt0_5 Pt1_7 2.924421 1_555
Pt0_5 Pt1_5 2.924424 1_555
Pt0_6 Pt1_4 2.924421 1_565
Pt0_6 Pt1_2 2.924421 1_555
Pt0_6 Pt1_6 2.924424 1_555
Pt0_7 Pt1_5 2.924421 1_565
Pt0_7 Pt1_3 2.924421 1_555
Pt0_7 Pt1_7 2.924424 1_555
Pt1_0 Pt1_6 2.858022 1_445
Pt1_0 Pt1_6 2.858022 1_555
Pt1_0 Pt1_4 2.858022 1_555
Pt1_0 Pt1_2 2.858022 1_555
Pt1_0 Pt1_4 2.858022 1_455
Pt1_0 Pt1_2 2.858022 1_545
Pt1_1 Pt1_7 2.858022 1_555
Pt1_1 Pt1_7 2.858022 1_445
Pt1_1 Pt1_5 2.858022 1_555
Pt1_1 Pt1_3 2.858022 1_555
Pt1_1 Pt1_5 2.858022 1_455
Pt1_1 Pt1_3 2.858022 1_545
Pt1_2 Pt1_4 2.858022 1_565
Pt1_2 Pt1_4 2.858022 1_455
Pt1_2 Pt1_6 2.858022 1_555
Pt1_2 Pt1_6 2.858022 1_455
Pt1_3 Pt1_5 2.858022 1_565
Pt1_3 Pt1_5 2.858022 1_455
Pt1_3 Pt1_7 2.858022 1_555
Pt1_3 Pt1_7 2.858022 1_455
Pt1_4 Pt1_6 2.858022 1_545
Pt1_4 Pt1_6 2.858022 1_555
Pt1_5 Pt1_7 2.858022 1_545
Pt1_5 Pt1_7 2.858022 1_555
