# generated using pymatgen
data_Ba4PrLu(Cu3O7)2
_symmetry_space_group_name_H-M   'P 1'
_cell_length_a   3.85332897
_cell_length_b   3.93705867
_cell_length_c   23.77502289
_cell_angle_alpha   90.00000000
_cell_angle_beta   90.00000000
_cell_angle_gamma   90.00000000
_symmetry_Int_Tables_number   1
_chemical_formula_structural   Ba4PrLu(Cu3O7)2
_chemical_formula_sum   'Ba4 Pr1 Lu1 Cu6 O14'
_cell_volume   360.68569477
_cell_formula_units_Z   1
loop_
 _symmetry_equiv_pos_site_id
 _symmetry_equiv_pos_as_xyz
  1  'x, y, z'
loop_
 _atom_site_type_symbol
 _atom_site_label
 _atom_site_symmetry_multiplicity
 _atom_site_fract_x
 _atom_site_fract_y
 _atom_site_fract_z
 _atom_site_occupancy
  Ba  Ba0  1  0.50000000  0.50000000  0.09179982  1
  Ba  Ba1  1  0.50000000  0.50000000  0.58868215  1
  Ba  Ba2  1  0.50000000  0.50000000  0.40820018  1
  Ba  Ba3  1  0.50000000  0.50000000  0.91131785  1
  Pr  Pr0  1  0.50000000  0.50000000  0.75000000  1
  Lu  Lu0  1  0.50000000  0.50000000  0.25000000  1
  Cu  Cu0  1  -0.00000000  -0.00000000  0.17910919  1
  Cu  Cu1  1  0.00000000  -0.00000000  0.67240848  1
  Cu  Cu2  1  0.00000000  0.00000000  0.32089081  1
  Cu  Cu3  1  -0.00000000  0.00000000  0.82759152  1
  Cu  Cu4  1  -0.00000000  -0.00000000  0.00132987  1
  Cu  Cu5  1  0.00000000  0.00000000  0.49867013  1
  O  O0  1  -0.00000000  0.50000000  0.19210581  1
  O  O1  1  -0.00000000  0.50000000  0.68424572  1
  O  O2  1  0.00000000  0.50000000  0.30789419  1
  O  O3  1  0.00000000  0.50000000  0.81575428  1
  O  O4  1  0.00000000  0.00000000  0.08056986  1
  O  O5  1  -0.00000000  0.00000000  0.57760133  1
  O  O6  1  0.00000000  -0.00000000  0.41943014  1
  O  O7  1  -0.00000000  0.00000000  0.92239867  1
  O  O8  1  0.00000000  0.50000000  0.00174865  1
  O  O9  1  -0.00000000  0.50000000  0.49825135  1
  O  O10  1  0.50000000  0.00000000  0.19255743  1
  O  O11  1  0.50000000  -0.00000000  0.68496578  1
  O  O12  1  0.50000000  0.00000000  0.30744257  1
  O  O13  1  0.50000000  -0.00000000  0.81503422  1
loop_
_geom_bond_atom_site_label_1
_geom_bond_atom_site_label_2
_geom_bond_distance
_geom_bond_site_symmetry_2
Ba0 O4 2.767387 1_565
Ba0 O4 2.767387 1_665
Ba0 O4 2.767387 1_555
Ba0 O4 2.767387 1_655
Ba0 O8 2.880240 1_555
Ba0 O8 2.880240 1_655
Ba0 O0 3.065811 1_655
Ba0 O0 3.065811 1_555
Ba0 O10 3.100580 1_555
Ba0 O10 3.100580 1_565
Ba1 O5 2.767047 1_555
Ba1 O5 2.767047 1_655
Ba1 O5 2.767047 1_565
Ba1 O5 2.767047 1_665
Ba1 O9 2.886955 1_655
Ba1 O9 2.886955 1_555
Ba1 O1 2.978949 1_655
Ba1 O1 2.978949 1_555
Ba1 O11 3.019155 1_565
Ba1 O11 3.019155 1_555
Ba2 O6 2.767387 1_655
Ba2 O6 2.767387 1_665
Ba2 O6 2.767387 1_565
Ba2 O6 2.767387 1_555
Ba2 O9 2.880240 1_555
Ba2 O9 2.880240 1_655
Ba2 O2 3.065811 1_555
Ba2 O2 3.065811 1_655
Ba2 O12 3.100580 1_555
Ba2 O12 3.100580 1_565
Ba3 O7 2.767047 1_555
Ba3 O7 2.767047 1_565
Ba3 O7 2.767047 1_655
Ba3 O7 2.767047 1_665
Ba3 O8 2.886955 1_556
Ba3 O8 2.886955 1_656
Ba3 O3 2.978949 1_555
Ba3 O3 2.978949 1_655
Ba3 O13 3.019155 1_565
Ba3 O13 3.019155 1_555
Lu0 O0 2.367828 1_655
Lu0 O2 2.367828 1_655
Lu0 O2 2.367828 1_555
Lu0 O0 2.367828 1_555
Lu0 O10 2.395880 1_565
Lu0 O10 2.395880 1_555
Lu0 O12 2.395880 1_555
Lu0 O12 2.395880 1_565
Cu0 O10 1.953014 1_455
Cu0 O10 1.953014 1_555
Cu0 O0 1.992633 1_545
Cu0 O0 1.992633 1_555
Cu0 O4 2.342775 1_555
Cu1 O11 1.949658 1_555
Cu1 O11 1.949658 1_455
Cu1 O1 1.988545 1_555
Cu1 O1 1.988545 1_545
Cu1 O5 2.254042 1_555
Cu2 O12 1.953014 1_555
Cu2 O12 1.953014 1_455
Cu2 O2 1.992633 1_555
Cu2 O2 1.992633 1_545
Cu2 O6 2.342775 1_555
Cu3 O13 1.949658 1_455
Cu3 O13 1.949658 1_555
Cu3 O3 1.988545 1_545
Cu3 O3 1.988545 1_555
Cu3 O7 2.254042 1_555
Cu4 O7 1.876591 1_554
Cu4 O4 1.883933 1_555
Cu4 O8 1.968555 1_545
Cu4 O8 1.968555 1_555
Cu5 O5 1.876591 1_555
Cu5 O6 1.883933 1_555
Cu5 O9 1.968555 1_555
Cu5 O9 1.968555 1_545
O1 Pr0 2.481123 1_555
O1 Pr0 2.481123 1_455
O3 Pr0 2.481123 1_455
O3 Pr0 2.481123 1_555
O11 Pr0 2.503160 1_545
O11 Pr0 2.503160 1_555
O13 Pr0 2.503160 1_545
O13 Pr0 2.503160 1_555
