# generated using pymatgen
data_Y2O3
_symmetry_space_group_name_H-M   'P 1'
_cell_length_a   11.63363125
_cell_length_b   11.60877925
_cell_length_c   12.02759831
_cell_angle_alpha   87.01980928
_cell_angle_beta   85.08583721
_cell_angle_gamma   86.23110183
_symmetry_Int_Tables_number   1
_chemical_formula_structural   Y2O3
_chemical_formula_sum   'Y40 O60'
_cell_volume   1613.12658325
_cell_formula_units_Z   20
loop_
 _symmetry_equiv_pos_site_id
 _symmetry_equiv_pos_as_xyz
  1  'x, y, z'
loop_
 _atom_site_type_symbol
 _atom_site_label
 _atom_site_symmetry_multiplicity
 _atom_site_fract_x
 _atom_site_fract_y
 _atom_site_fract_z
 _atom_site_occupancy
  Y  Y0  1  0.85663783  0.25889704  0.14314175  1
  Y  Y1  1  0.95897583  0.17254504  0.76236072  1
  Y  Y2  1  0.84992090  0.95336695  0.08122997  1
  Y  Y3  1  0.25469016  0.20705947  0.27211304  1
  Y  Y4  1  0.21440334  0.77465940  0.38845074  1
  Y  Y5  1  0.62202712  0.77461364  0.21773536  1
  Y  Y6  1  0.71439004  0.76310446  0.47333183  1
  Y  Y7  1  0.49444091  0.37262528  0.76476206  1
  Y  Y8  1  0.06896841  0.43966787  0.21290314  1
  Y  Y9  1  0.20591800  0.33572148  0.73499050  1
  Y  Y10  1  0.69526045  0.20366534  0.92455746  1
  Y  Y11  1  0.13465300  0.82904053  0.09265883  1
  Y  Y12  1  0.25130749  0.60727628  0.89849468  1
  Y  Y13  1  0.74847168  0.48205234  0.64769723  1
  Y  Y14  1  0.43385278  0.10420282  0.73997951  1
  Y  Y15  1  0.65905756  0.55780400  0.93122453  1
  Y  Y16  1  0.89924645  0.93187848  0.60195356  1
  Y  Y17  1  0.77633298  0.47498975  0.36388045  1
  Y  Y18  1  0.47857449  0.82997909  0.96569558  1
  Y  Y19  1  0.49876351  0.30329194  0.47486719  1
  Y  Y20  1  0.17107296  0.14779686  0.99742648  1
  Y  Y21  1  0.99054524  0.26958199  0.45694197  1
  Y  Y22  1  0.92380275  0.39385313  0.90602493  1
  Y  Y23  1  0.17388705  0.06492850  0.55948580  1
  Y  Y24  1  0.35003157  0.33154153  0.01322300  1
  Y  Y25  1  0.47213754  0.62715923  0.45671217  1
  Y  Y26  1  0.72267674  0.20065137  0.61582594  1
  Y  Y27  1  0.55849150  0.72229854  0.71236387  1
  Y  Y28  1  0.58571777  0.36037905  0.15348698  1
  Y  Y29  1  0.95213803  0.70562072  0.32662505  1
  Y  Y30  1  0.94186191  0.62413372  0.05690479  1
  Y  Y31  1  0.37381241  0.63039524  0.15423546  1
  Y  Y32  1  0.70952292  0.91605046  0.80755487  1
  Y  Y33  1  0.28989801  0.80103475  0.64971060  1
  Y  Y34  1  0.20441473  0.49686285  0.48268787  1
  Y  Y35  1  0.49059988  0.08002523  0.18089509  1
  Y  Y36  1  0.49357645  0.98130952  0.48063374  1
  Y  Y37  1  0.97840361  0.00746224  0.34327600  1
  Y  Y38  1  0.00132400  0.62636500  0.73896130  1
  Y  Y39  1  0.04124908  0.88162271  0.83881250  1
  O  O0  1  0.38428749  0.71686982  0.79781362  1
  O  O1  1  0.80880311  0.80133746  0.18966458  1
  O  O2  1  0.73791300  0.00769982  0.95530398  1
  O  O3  1  0.15259115  0.36022519  0.36734462  1
  O  O4  1  0.42024476  0.28565885  0.18286515  1
  O  O5  1  0.96821225  0.80979787  0.00444131  1
  O  O6  1  0.96512360  0.41145207  0.07352999  1
  O  O7  1  0.30895231  0.76108411  0.03524585  1
  O  O8  1  0.63887758  0.63319363  0.34438610  1
  O  O9  1  0.10954908  0.98146265  0.97396950  1
  O  O10  1  0.60262930  0.36791337  0.59919140  1
  O  O11  1  0.64095748  0.74592572  0.87920267  1
  O  O12  1  0.39099794  0.46065965  0.44156608  1
  O  O13  1  0.58785822  0.19368271  0.77681113  1
  O  O14  1  0.91928129  0.07660700  0.18755836  1
  O  O15  1  0.38688396  0.72231711  0.30784060  1
  O  O16  1  0.82725414  0.35881616  0.52130222  1
  O  O17  1  0.92127439  0.33061665  0.29494701  1
  O  O18  1  0.59037000  0.52788397  0.77927789  1
  O  O19  1  0.08538060  0.85554221  0.26769472  1
  O  O20  1  0.12077197  0.11436641  0.38369764  1
  O  O21  1  0.33635607  0.99924801  0.62549042  1
  O  O22  1  0.11068942  0.48781953  0.65074958  1
  O  O23  1  0.89665050  0.10376388  0.49559669  1
  O  O24  1  0.11932498  0.62080871  0.36906276  1
  O  O25  1  0.89793884  0.56346708  0.23521265  1
  O  O26  1  0.10171692  0.64039660  0.12465915  1
  O  O27  1  0.15017426  0.88513938  0.52345216  1
  O  O28  1  0.53595083  0.34444840  0.95671415  1
  O  O29  1  0.51398884  0.94493150  0.81956938  1
  O  O30  1  0.61044012  0.89026764  0.35920404  1
  O  O31  1  0.53237608  0.91044927  0.11088296  1
  O  O32  1  0.90667749  0.80842246  0.75172409  1
  O  O33  1  0.31529125  0.50794372  0.05172315  1
  O  O34  1  0.27988260  0.66378699  0.53047802  1
  O  O35  1  0.74281457  0.41422220  0.03354995  1
  O  O36  1  0.31536287  0.19351782  0.87523432  1
  O  O37  1  0.31565616  0.44116332  0.83178831  1
  O  O38  1  0.83405755  0.54509630  0.80457718  1
  O  O39  1  0.37347483  0.27889745  0.64352588  1
  O  O40  1  0.80645828  0.30465216  0.76201373  1
  O  O41  1  0.54935915  0.64241738  0.08472766  1
  O  O42  1  0.40722762  0.10079838  0.35663564  1
  O  O43  1  0.63152264  0.36300557  0.32624197  1
  O  O44  1  0.04890997  0.00973002  0.70138919  1
  O  O45  1  0.70185966  0.85436375  0.63056944  1
  O  O46  1  0.62457885  0.61708870  0.57274441  1
  O  O47  1  0.66137037  0.18711901  0.12570681  1
  O  O48  1  0.07766111  0.26660767  0.85917724  1
  O  O49  1  0.17390672  0.29141219  0.12303883  1
  O  O50  1  0.08740609  0.23389028  0.61879579  1
  O  O51  1  0.04841693  0.55605163  0.89873171  1
  O  O52  1  0.46676477  0.79669530  0.55759746  1
  O  O53  1  0.14973905  0.73940551  0.78002036  1
  O  O54  1  0.88108904  0.20334064  0.96435701  1
  O  O55  1  0.57001994  0.12496665  0.54954809  1
  O  O56  1  0.88757908  0.85705319  0.43512676  1
  O  O57  1  0.80987894  0.05991041  0.72017048  1
  O  O58  1  0.31305372  0.09245514  0.12144322  1
  O  O59  1  0.84846515  0.61112987  0.46927938  1
loop_
_geom_bond_atom_site_label_1
_geom_bond_atom_site_label_2
_geom_bond_distance
_geom_bond_site_symmetry_2
O0 Y27 2.195602 1_555
O0 Y12 2.292584 1_555
O0 Y33 2.312283 1_555
O0 Y18 2.801618 1_555
O1 Y2 2.193018 1_555
O1 Y5 2.209908 1_555
O1 Y29 2.601068 1_555
O1 Y30 2.945687 1_555
O2 Y2 2.126150 1_546
O2 Y32 2.177697 1_545
O2 Y10 2.313828 1_555
O3 Y8 2.293682 1_555
O3 Y34 2.302595 1_555
O3 Y3 2.363332 1_555
O3 Y21 2.370081 1_455
O4 Y28 2.157358 1_555
O4 Y24 2.286798 1_555
O4 Y3 2.338649 1_555
O4 Y35 2.472789 1_555
O5 Y39 2.239673 1_654
O5 Y30 2.247201 1_555
O5 Y2 2.272742 1_555
O5 Y11 2.314847 1_655
O6 Y22 2.133872 1_554
O6 Y8 2.198390 1_655
O6 Y0 2.321388 1_555
O6 Y30 2.465593 1_555
O7 Y31 2.174403 1_555
O7 Y11 2.194846 1_555
O7 Y18 2.255777 1_554
O7 Y12 2.644789 1_554
O8 Y5 2.191557 1_555
O8 Y25 2.269795 1_555
O8 Y17 2.370320 1_555
O8 Y6 2.470270 1_555
O9 Y20 2.143209 1_565
O9 Y11 2.234933 1_556
O9 Y39 2.270591 1_555
O10 Y19 2.191848 1_555
O10 Y7 2.264006 1_555
O10 Y26 2.326304 1_555
O10 Y13 2.349522 1_555
O11 Y15 2.241680 1_555
O11 Y18 2.264855 1_555
O11 Y32 2.278517 1_555
O11 Y27 2.333242 1_555
O12 Y19 2.185960 1_555
O12 Y34 2.202427 1_555
O12 Y25 2.228473 1_555
O13 Y14 2.216693 1_555
O13 Y10 2.270094 1_555
O13 Y7 2.283896 1_555
O13 Y26 2.386573 1_555
O14 Y37 2.148714 1_555
O14 Y2 2.202783 1_545
O14 Y0 2.245231 1_555
O15 Y31 2.202170 1_555
O15 Y4 2.214326 1_555
O15 Y25 2.316173 1_555
O15 Y5 2.944216 1_555
O16 Y21 2.203133 1_555
O16 Y13 2.238939 1_555
O16 Y17 2.361430 1_555
O16 Y26 2.446136 1_555
O17 Y21 2.235655 1_555
O17 Y0 2.251213 1_555
O17 Y8 2.322550 1_655
O17 Y17 2.423442 1_555
O18 Y15 2.109934 1_555
O18 Y7 2.203406 1_555
O18 Y13 2.372953 1_555
O18 Y27 2.373007 1_555
O19 Y11 2.166279 1_555
O19 Y37 2.273738 1_465
O19 Y4 2.300116 1_555
O19 Y29 2.443839 1_455
O20 Y37 2.233972 1_455
O20 Y3 2.257948 1_555
O20 Y23 2.287476 1_555
O20 Y21 2.428078 1_455
O21 Y23 2.188327 1_565
O21 Y14 2.300202 1_565
O21 Y33 2.395509 1_555
O21 Y36 2.421980 1_555
O22 Y34 2.213880 1_555
O22 Y38 2.237939 1_555
O22 Y9 2.262892 1_555
O23 Y21 2.282790 1_555
O23 Y37 2.299008 1_555
O23 Y16 2.313467 1_545
O23 Y26 2.611694 1_555
O24 Y34 2.181280 1_555
O24 Y4 2.194293 1_555
O24 Y29 2.208839 1_455
O24 Y8 3.008977 1_555
O25 Y29 2.184925 1_555
O25 Y30 2.249217 1_555
O25 Y17 2.258760 1_555
O25 Y8 2.380969 1_655
O26 Y30 2.116602 1_455
O26 Y11 2.255689 1_555
O26 Y8 2.547903 1_555
O27 Y4 2.173123 1_555
O27 Y23 2.193238 1_565
O27 Y33 2.441659 1_555
O27 Y16 3.013377 1_455
O28 Y24 2.223231 1_556
O28 Y7 2.400442 1_555
O28 Y10 2.408362 1_555
O28 Y28 2.503007 1_556
O28 Y15 2.931178 1_555
O29 Y18 2.178035 1_555
O29 Y14 2.224041 1_565
O29 Y32 2.270756 1_555
O30 Y36 2.174828 1_555
O30 Y5 2.211426 1_555
O30 Y6 2.316226 1_555
O31 Y18 2.178893 1_554
O31 Y35 2.190215 1_565
O31 Y5 2.242485 1_555
O32 Y39 2.195142 1_655
O32 Y16 2.246859 1_555
O32 Y38 2.324118 1_655
O32 Y32 2.592168 1_555
O33 Y31 2.111334 1_555
O33 Y24 2.128156 1_555
O33 Y12 2.276299 1_554
O34 Y33 2.213441 1_555
O34 Y4 2.240630 1_555
O34 Y34 2.298298 1_555
O34 Y25 2.354713 1_555
O35 Y15 2.240767 1_554
O35 Y28 2.327344 1_555
O35 Y22 2.502161 1_554
O35 Y0 2.545625 1_555
O35 Y10 2.938438 1_554
O36 Y20 2.207434 1_555
O36 Y14 2.285815 1_555
O36 Y24 2.441446 1_556
O36 Y9 2.644559 1_555
O37 Y12 2.188819 1_555
O37 Y9 2.256520 1_555
O37 Y7 2.273954 1_555
O37 Y24 2.517007 1_556
O38 Y38 2.280418 1_655
O38 Y22 2.327241 1_555
O38 Y13 2.376680 1_555
O38 Y15 2.437107 1_555
O39 Y9 2.232517 1_555
O39 Y14 2.379009 1_555
O39 Y19 2.409916 1_555
O39 Y7 2.451213 1_555
O40 Y1 2.267837 1_555
O40 Y26 2.483599 1_555
O40 Y13 2.503706 1_555
O40 Y10 2.529365 1_555
O40 Y22 2.591055 1_555
O41 Y31 2.149881 1_555
O41 Y15 2.371143 1_554
O41 Y5 2.507307 1_555
O41 Y18 2.666616 1_554
O42 Y36 2.239615 1_545
O42 Y35 2.266670 1_555
O42 Y3 2.365404 1_555
O42 Y19 3.101311 1_555
O43 Y28 2.191045 1_555
O43 Y17 2.283161 1_555
O43 Y19 2.366502 1_555
O44 Y39 2.165224 1_545
O44 Y1 2.226559 1_455
O44 Y23 2.240797 1_555
O44 Y16 2.440223 1_445
O45 Y6 2.204767 1_555
O45 Y32 2.291632 1_555
O45 Y27 2.449156 1_555
O45 Y16 2.511044 1_555
O46 Y27 2.184364 1_555
O46 Y13 2.264099 1_555
O46 Y6 2.280931 1_555
O46 Y25 2.342276 1_555
O47 Y28 2.172211 1_555
O47 Y10 2.417390 1_554
O47 Y35 2.438460 1_555
O47 Y0 2.499480 1_555
O48 Y9 2.179920 1_555
O48 Y1 2.249597 1_455
O48 Y22 2.295544 1_455
O48 Y20 2.392128 1_555
O49 Y3 2.245471 1_555
O49 Y8 2.304743 1_555
O49 Y20 2.311032 1_554
O49 Y24 2.399523 1_555
O50 Y23 2.265268 1_555
O50 Y1 2.300251 1_455
O50 Y21 2.337032 1_455
O50 Y9 2.442871 1_555
O51 Y38 2.148874 1_555
O51 Y30 2.324673 1_456
O51 Y22 2.444316 1_455
O51 Y12 2.471455 1_555
O52 Y33 2.250628 1_555
O52 Y36 2.319352 1_555
O52 Y27 2.324155 1_555
O52 Y25 2.359844 1_555
O53 Y39 2.124442 1_555
O53 Y33 2.286038 1_555
O53 Y38 2.336326 1_555
O53 Y12 2.366933 1_555
O54 Y10 2.253630 1_555
O54 Y0 2.266311 1_556
O54 Y22 2.356654 1_555
O54 Y1 2.553824 1_555
O55 Y36 2.173495 1_545
O55 Y26 2.254316 1_555
O55 Y19 2.342671 1_555
O55 Y14 2.680444 1_555
O56 Y16 2.245547 1_555
O56 Y37 2.286400 1_565
O56 Y29 2.292285 1_555
O56 Y6 2.353353 1_555
O57 Y26 2.249588 1_555
O57 Y16 2.252780 1_545
O57 Y32 2.262815 1_545
O57 Y1 2.343879 1_555
O58 Y35 2.236423 1_555
O58 Y3 2.331568 1_555
O58 Y20 2.355616 1_554
O59 Y6 2.276396 1_555
O59 Y29 2.285938 1_555
O59 Y17 2.318168 1_555
O59 Y13 2.769603 1_555
