# generated using pymatgen
data_Ba2MgMo4(Se2O11)2
_symmetry_space_group_name_H-M   'P 1'
_cell_length_a   7.71714907
_cell_length_b   8.27894616
_cell_length_c   9.23615419
_cell_angle_alpha   116.07704257
_cell_angle_beta   88.50932283
_cell_angle_gamma   89.24236501
_symmetry_Int_Tables_number   1
_chemical_formula_structural   Ba2MgMo4(Se2O11)2
_chemical_formula_sum   'Ba2 Mg1 Mo4 Se4 O22'
_cell_volume   529.64779787
_cell_formula_units_Z   1
loop_
 _symmetry_equiv_pos_site_id
 _symmetry_equiv_pos_as_xyz
  1  'x, y, z'
loop_
 _atom_site_type_symbol
 _atom_site_label
 _atom_site_symmetry_multiplicity
 _atom_site_fract_x
 _atom_site_fract_y
 _atom_site_fract_z
 _atom_site_occupancy
  Ba  Ba0  1  0.69020900  0.28187900  0.04181500  1
  Ba  Ba1  1  0.18113700  0.74930800  0.99016100  1
  Mg  Mg0  1  0.61399000  0.21090200  0.66715000  1
  Mo  Mo0  1  0.65940700  0.84543300  0.20301600  1
  Mo  Mo1  1  0.16438700  0.15734300  0.77336700  1
  Mo  Mo2  1  0.66999000  0.62128800  0.77947000  1
  Mo  Mo3  1  0.16715800  0.38305700  0.21616800  1
  Se  Se0  1  0.83720800  0.25102600  0.39580600  1
  Se  Se1  1  0.30362600  0.13026200  0.41025200  1
  Se  Se2  1  0.82121000  0.87564700  0.57075400  1
  Se  Se3  1  0.31329100  0.70465200  0.57875900  1
  O  O0  1  0.12534900  0.57207200  0.18277000  1
  O  O1  1  0.57915900  0.81324300  0.00143600  1
  O  O2  1  0.39312700  0.92118400  0.28411300  1
  O  O3  1  0.66077200  0.80024300  0.65256400  1
  O  O4  1  0.39755100  0.62716400  0.71132900  1
  O  O5  1  0.88412100  0.84202400  0.16756300  1
  O  O6  1  0.39375500  0.36269800  0.20124000  1
  O  O7  1  0.89237800  0.38999900  0.30689700  1
  O  O8  1  0.15928700  0.06882100  0.52442300  1
  O  O9  1  0.85470800  0.08890100  0.72970100  1
  O  O10  1  0.62331400  0.44918900  0.85497900  1
  O  O11  1  0.69044400  0.37955800  0.55760400  1
  O  O12  1  0.67459400  0.13596100  0.26619000  1
  O  O13  1  0.63225500  0.63801200  0.20690900  1
  O  O14  1  0.40592700  0.15357100  0.77047500  1
  O  O15  1  0.10818600  0.20153100  0.01344300  1
  O  O16  1  0.16332100  0.14658300  0.27547500  1
  O  O17  1  0.16493700  0.86547400  0.71454100  1
  O  O18  1  0.68944400  0.97383200  0.46997800  1
  O  O19  1  0.88673700  0.67900000  0.80931300  1
  O  O20  1  0.17568600  0.52799000  0.47512000  1
  O  O21  1  0.09313100  0.37871600  0.82579300  1
loop_
_geom_bond_atom_site_label_1
_geom_bond_atom_site_label_2
_geom_bond_distance
_geom_bond_site_symmetry_2
Ba0 O6 2.601516 1_555
Ba0 O13 2.682413 1_555
Ba0 O10 2.700347 1_554
Ba0 O7 2.745664 1_555
Ba0 O12 2.821422 1_555
Ba0 O9 2.860260 1_554
Ba0 O14 3.198328 1_554
Ba0 O15 3.265214 1_655
Ba1 O5 2.679564 1_456
Ba1 O19 2.769142 1_455
Ba1 O0 2.788346 1_556
Ba1 O4 2.808234 1_555
Ba1 O21 2.862357 1_555
Ba1 O2 2.994746 1_556
Ba1 O17 3.096251 1_555
Ba1 O1 3.120400 1_556
Ba1 O16 3.182792 1_566
Mg0 O10 1.976866 1_555
Mg0 O14 2.013156 1_555
Mg0 O18 2.068794 1_545
Mg0 O11 2.134059 1_555
Mg0 O9 2.307396 1_555
Mo0 O13 1.748564 1_555
Mo0 O5 1.753949 1_555
Mo0 O1 1.883896 1_555
Mo0 O2 2.156364 1_555
Mo0 O12 2.217355 1_565
Mo0 O18 2.235023 1_555
Mo1 O21 1.753585 1_555
Mo1 O14 1.863148 1_555
Mo1 O8 2.085517 1_555
Mo1 O15 2.114549 1_556
Mo1 O17 2.231465 1_545
Mo1 O9 2.465786 1_455
Mo2 O19 1.741098 1_555
Mo2 O10 1.876241 1_555
Mo2 O1 2.061863 1_556
Mo2 O11 2.144429 1_555
Mo2 O4 2.216263 1_555
Mo2 O3 2.258810 1_555
Mo3 O0 1.750484 1_555
Mo3 O6 1.750583 1_555
Mo3 O15 1.886814 1_555
Mo3 O20 2.156771 1_555
Mo3 O7 2.250357 1_455
Mo3 O16 2.253271 1_555
O2 Se1 1.727464 1_565
O3 Se2 1.697077 1_555
O4 Se3 1.747737 1_555
O7 Se0 1.733425 1_555
O8 Se1 1.742670 1_555
O9 Se2 1.758470 1_545
O11 Se0 1.769279 1_555
O12 Se0 1.738572 1_555
O16 Se1 1.718816 1_555
O17 Se3 1.753063 1_555
O18 Se2 1.803793 1_555
O20 Se3 1.745338 1_555
