# generated using pymatgen
data_TaBi(P2O7)2
_symmetry_space_group_name_H-M   'P 1'
_cell_length_a   8.42791849
_cell_length_b   8.44155955
_cell_length_c   8.59020581
_cell_angle_alpha   88.72474745
_cell_angle_beta   90.00000000
_cell_angle_gamma   90.00000000
_symmetry_Int_Tables_number   1
_chemical_formula_structural   TaBi(P2O7)2
_chemical_formula_sum   'Ta2 Bi2 P8 O28'
_cell_volume   610.99689502
_cell_formula_units_Z   2
loop_
 _symmetry_equiv_pos_site_id
 _symmetry_equiv_pos_as_xyz
  1  'x, y, z'
loop_
 _atom_site_type_symbol
 _atom_site_label
 _atom_site_symmetry_multiplicity
 _atom_site_fract_x
 _atom_site_fract_y
 _atom_site_fract_z
 _atom_site_occupancy
  Ta  Ta0  1  0.00000000  -0.00000000  0.00000000  1
  Ta  Ta1  1  0.50000000  0.50000000  0.00000000  1
  Bi  Bi0  1  0.00000000  0.50000000  0.50000000  1
  Bi  Bi1  1  0.50000000  -0.00000000  0.50000000  1
  P  P0  1  0.61613849  0.11262512  0.08817170  1
  P  P1  1  0.11613849  0.38737488  0.91182830  1
  P  P2  1  0.41235047  0.60070965  0.37160500  1
  P  P3  1  0.91235047  0.89929035  0.62839500  1
  P  P4  1  0.38386151  0.88737488  0.91182830  1
  P  P5  1  0.88386151  0.61262512  0.08817170  1
  P  P6  1  0.58764953  0.39929035  0.62839500  1
  P  P7  1  0.08764953  0.10070965  0.37160500  1
  O  O0  1  0.77989568  0.07502994  0.02314691  1
  O  O1  1  0.27989568  0.42497006  0.97685309  1
  O  O2  1  0.23758234  0.58608053  0.39518840  1
  O  O3  1  0.73758234  0.91391947  0.60481160  1
  O  O4  1  0.47778825  0.76527322  0.36931522  1
  O  O5  1  0.57120636  0.27950359  0.03198839  1
  O  O6  1  0.07120636  0.22049641  0.96801161  1
  O  O7  1  0.97778825  0.73472678  0.63068478  1
  O  O8  1  0.10594708  0.41051236  0.74085258  1
  O  O9  1  0.46365930  0.51714236  0.22084166  1
  O  O10  1  0.60594708  0.08948764  0.25914742  1
  O  O11  1  0.96365930  0.98285764  0.77915834  1
  O  O12  1  0.22010432  0.92497006  0.97685309  1
  O  O13  1  0.72010432  0.57502994  0.02314691  1
  O  O14  1  0.76241766  0.41391947  0.60481160  1
  O  O15  1  0.26241766  0.08608053  0.39518840  1
  O  O16  1  0.52221175  0.23472678  0.63068478  1
  O  O17  1  0.42879364  0.72049641  0.96801161  1
  O  O18  1  0.92879364  0.77950359  0.03198839  1
  O  O19  1  0.02221175  0.26527322  0.36931522  1
  O  O20  1  0.89405292  0.58948764  0.25914742  1
  O  O21  1  0.53634070  0.48285764  0.77915834  1
  O  O22  1  0.39405292  0.91051236  0.74085258  1
  O  O23  1  0.03634070  0.01714236  0.22084166  1
  O  O24  1  0.50000000  -0.00000000  0.00000000  1
  O  O25  1  0.00000000  0.50000000  0.00000000  1
  O  O26  1  0.50000000  0.50000000  0.50000000  1
  O  O27  1  0.00000000  -0.00000000  0.50000000  1
loop_
_geom_bond_atom_site_label_1
_geom_bond_atom_site_label_2
_geom_bond_distance
_geom_bond_site_symmetry_2
Bi0 O14 2.306262 1_455
Bi0 O2 2.306262 1_555
Bi0 O19 2.306619 1_555
Bi0 O7 2.306619 1_455
Bi0 O20 2.361997 1_455
Bi0 O8 2.361997 1_555
Bi1 O3 2.306262 1_545
Bi1 O15 2.306262 1_555
Bi1 O4 2.306619 1_545
Bi1 O16 2.306619 1_555
Bi1 O22 2.361997 1_545
Bi1 O10 2.361997 1_555
O0 P0 1.524920 1_555
O0 Ta0 1.971650 1_655
O1 P1 1.524920 1_555
O1 Ta1 1.971650 1_556
O2 P2 1.491545 1_555
O3 P3 1.491545 1_555
O4 P2 1.494366 1_555
O5 P0 1.526612 1_555
O5 Ta1 1.969124 1_555
O6 P1 1.526612 1_555
O6 Ta0 1.969124 1_556
O7 P3 1.494366 1_555
O8 P1 1.479826 1_555
O9 P2 1.550018 1_555
O9 Ta1 1.930249 1_555
O10 P0 1.479826 1_555
O11 P3 1.550018 1_555
O11 Ta0 1.930249 1_666
O12 P4 1.524920 1_555
O12 Ta0 1.971650 1_566
O13 P5 1.524920 1_555
O13 Ta1 1.971650 1_555
O14 P6 1.491545 1_555
O15 P7 1.491545 1_555
O16 P6 1.494366 1_555
O17 P4 1.526612 1_555
O17 Ta1 1.969124 1_556
O18 P5 1.526612 1_555
O18 Ta0 1.969124 1_665
O19 P7 1.494366 1_555
O20 P5 1.479826 1_555
O21 P6 1.550018 1_555
O21 Ta1 1.930249 1_556
O22 P4 1.479826 1_555
O23 P7 1.550018 1_555
O23 Ta0 1.930249 1_555
O24 P0 1.570884 1_555
O24 P4 1.570884 1_544
O25 P5 1.570884 1_455
O25 P1 1.570884 1_554
O26 P6 1.563064 1_555
O26 P2 1.563064 1_555
O27 P3 1.563064 1_445
O27 P7 1.563064 1_555
