# generated using pymatgen
data_AgH8C3S2ClO4
_symmetry_space_group_name_H-M   'P 1'
_cell_length_a   9.09028400
_cell_length_b   9.75030000
_cell_length_c   21.46503900
_cell_angle_alpha   90.00000000
_cell_angle_beta   90.00000000
_cell_angle_gamma   90.00000000
_symmetry_Int_Tables_number   1
_chemical_formula_structural   AgH8C3S2ClO4
_chemical_formula_sum   'Ag8 H64 C24 S16 Cl8 O32'
_cell_volume   1902.51071766
_cell_formula_units_Z   8
loop_
 _symmetry_equiv_pos_site_id
 _symmetry_equiv_pos_as_xyz
  1  'x, y, z'
loop_
 _atom_site_type_symbol
 _atom_site_label
 _atom_site_symmetry_multiplicity
 _atom_site_fract_x
 _atom_site_fract_y
 _atom_site_fract_z
 _atom_site_occupancy
  Ag  Ag0  1  0.47930700  0.63689100  0.03727800  1
  Ag  Ag1  1  0.52069300  0.13689100  0.96272200  1
  Ag  Ag2  1  0.47930700  0.13689100  0.46272200  1
  Ag  Ag3  1  0.52069300  0.63689100  0.53727800  1
  Ag  Ag4  1  0.53675500  0.75830300  0.83558500  1
  Ag  Ag5  1  0.46324500  0.25830300  0.16441500  1
  Ag  Ag6  1  0.53675500  0.25830300  0.66441500  1
  Ag  Ag7  1  0.46324500  0.75830300  0.33558500  1
  H  H0  1  0.12772000  0.59185500  0.94357000  1
  H  H1  1  0.87228000  0.09185500  0.05643000  1
  H  H2  1  0.12772000  0.09185500  0.55643000  1
  H  H3  1  0.87228000  0.59185500  0.44357000  1
  H  H4  1  0.17307800  0.76777900  0.92679600  1
  H  H5  1  0.82692200  0.26777900  0.07320400  1
  H  H6  1  0.17307800  0.26777900  0.57320400  1
  H  H7  1  0.82692200  0.76777900  0.42679600  1
  H  H8  1  0.16202400  0.64586700  0.86418800  1
  H  H9  1  0.83797600  0.14586700  0.13581200  1
  H  H10  1  0.16202400  0.14586700  0.63581200  1
  H  H11  1  0.83797600  0.64586700  0.36418800  1
  H  H12  1  0.52028300  0.43557300  0.89037900  1
  H  H13  1  0.47971700  0.93557300  0.10962100  1
  H  H14  1  0.52028300  0.93557300  0.60962100  1
  H  H15  1  0.47971700  0.43557300  0.39037900  1
  H  H16  1  0.34540900  0.44182600  0.85246600  1
  H  H17  1  0.65459100  0.94182600  0.14753400  1
  H  H18  1  0.34540900  0.94182600  0.64753400  1
  H  H19  1  0.65459100  0.44182600  0.35246600  1
  H  H20  1  0.79333600  0.70193300  0.12991800  1
  H  H21  1  0.20666400  0.20193300  0.87008200  1
  H  H22  1  0.79333600  0.20193300  0.37008200  1
  H  H23  1  0.20666400  0.70193300  0.62991800  1
  H  H24  1  0.88782400  0.69881300  0.05674700  1
  H  H25  1  0.11217600  0.19881300  0.94325300  1
  H  H26  1  0.88782400  0.19881300  0.44325300  1
  H  H27  1  0.11217600  0.69881300  0.55674700  1
  H  H28  1  0.89934500  0.84853400  0.10438500  1
  H  H29  1  0.10065500  0.34853400  0.89561500  1
  H  H30  1  0.89934500  0.34853400  0.39561500  1
  H  H31  1  0.10065500  0.84853400  0.60438500  1
  H  H32  1  0.32198100  0.72449800  0.17550600  1
  H  H33  1  0.67801900  0.22449800  0.82449400  1
  H  H34  1  0.32198100  0.22449800  0.32449400  1
  H  H35  1  0.67801900  0.72449800  0.67550600  1
  H  H36  1  0.49917000  0.65213500  0.19285500  1
  H  H37  1  0.50083000  0.15213500  0.80714500  1
  H  H38  1  0.49917000  0.15213500  0.30714500  1
  H  H39  1  0.50083000  0.65213500  0.69285500  1
  H  H40  1  0.87617000  0.74519700  0.74382200  1
  H  H41  1  0.12383000  0.24519700  0.25617800  1
  H  H42  1  0.87617000  0.24519700  0.75617800  1
  H  H43  1  0.12383000  0.74519700  0.24382200  1
  H  H44  1  0.89262300  0.66672100  0.81873100  1
  H  H45  1  0.10737700  0.16672100  0.18126900  1
  H  H46  1  0.89262300  0.16672100  0.68126900  1
  H  H47  1  0.10737700  0.66672100  0.31873100  1
  H  H48  1  0.94360300  0.57232200  0.75078900  1
  H  H49  1  0.05639700  0.07232200  0.24921100  1
  H  H50  1  0.94360300  0.07232200  0.74921100  1
  H  H51  1  0.05639700  0.57232200  0.25078900  1
  H  H52  1  0.12473500  0.60520500  0.10607200  1
  H  H53  1  0.87526500  0.10520500  0.89392800  1
  H  H54  1  0.12473500  0.10520500  0.39392800  1
  H  H55  1  0.87526500  0.60520500  0.60607200  1
  H  H56  1  0.14592900  0.43439000  0.07614700  1
  H  H57  1  0.85407100  0.93439000  0.92385300  1
  H  H58  1  0.14592900  0.93439000  0.42385300  1
  H  H59  1  0.85407100  0.43439000  0.57614700  1
  H  H60  1  0.10577100  0.45912300  0.15705800  1
  H  H61  1  0.89422900  0.95912300  0.84294200  1
  H  H62  1  0.10577100  0.95912300  0.34294200  1
  H  H63  1  0.89422900  0.45912300  0.65705800  1
  C  C0  1  0.40251100  0.45352900  0.89710300  1
  C  C1  1  0.59748900  0.95352900  0.10289700  1
  C  C2  1  0.40251100  0.95352900  0.60289700  1
  C  C3  1  0.59748900  0.45352900  0.39710300  1
  C  C4  1  0.38065200  0.63172500  0.19040800  1
  C  C5  1  0.61934800  0.13172500  0.80959200  1
  C  C6  1  0.38065200  0.13172500  0.30959200  1
  C  C7  1  0.61934800  0.63172500  0.69040800  1
  C  C8  1  0.19105000  0.66074700  0.91329200  1
  C  C9  1  0.80895000  0.16074700  0.08670800  1
  C  C10  1  0.19105000  0.16074700  0.58670800  1
  C  C11  1  0.80895000  0.66074700  0.41329200  1
  C  C12  1  0.82821200  0.76361600  0.09000400  1
  C  C13  1  0.17178800  0.26361600  0.90999600  1
  C  C14  1  0.82821200  0.26361600  0.40999600  1
  C  C15  1  0.17178800  0.76361600  0.59000400  1
  C  C16  1  0.86704400  0.64846400  0.76955400  1
  C  C17  1  0.13295600  0.14846400  0.23044600  1
  C  C18  1  0.86704400  0.14846400  0.73044600  1
  C  C19  1  0.13295600  0.64846400  0.26955400  1
  C  C20  1  0.16352700  0.50123600  0.11650600  1
  C  C21  1  0.83647300  0.00123600  0.88349400  1
  C  C22  1  0.16352700  0.00123600  0.38349400  1
  C  C23  1  0.83647300  0.50123600  0.61650600  1
  S  S0  1  0.38642400  0.63118500  0.92196500  1
  S  S1  1  0.61357600  0.13118500  0.07803500  1
  S  S2  1  0.38642400  0.13118500  0.57803500  1
  S  S3  1  0.61357600  0.63118500  0.42196500  1
  S  S4  1  0.67072800  0.82979000  0.04756700  1
  S  S5  1  0.32927200  0.32979000  0.95243300  1
  S  S6  1  0.67072800  0.32979000  0.45243300  1
  S  S7  1  0.32927200  0.82979000  0.54756700  1
  S  S8  1  0.36069600  0.50443900  0.12846600  1
  S  S9  1  0.63930400  0.00443900  0.87153400  1
  S  S10  1  0.36069600  0.00443900  0.37153400  1
  S  S11  1  0.63930400  0.50443900  0.62846600  1
  S  S12  1  0.67917200  0.58538100  0.76813000  1
  S  S13  1  0.32082800  0.08538100  0.23187000  1
  S  S14  1  0.67917200  0.08538100  0.73187000  1
  S  S15  1  0.32082800  0.58538100  0.26813000  1
  Cl  Cl0  1  0.78298200  0.46398300  0.95845000  1
  Cl  Cl1  1  0.21701800  0.96398300  0.04155000  1
  Cl  Cl2  1  0.78298200  0.96398300  0.54155000  1
  Cl  Cl3  1  0.21701800  0.46398300  0.45845000  1
  Cl  Cl4  1  0.25786300  0.94709600  0.78062500  1
  Cl  Cl5  1  0.74213700  0.44709600  0.21937500  1
  Cl  Cl6  1  0.25786300  0.44709600  0.71937500  1
  Cl  Cl7  1  0.74213700  0.94709600  0.28062500  1
  O  O0  1  0.25342600  0.07543300  0.74576700  1
  O  O1  1  0.74657400  0.57543300  0.25423300  1
  O  O2  1  0.25342600  0.57543300  0.75423300  1
  O  O3  1  0.74657400  0.07543300  0.24576700  1
  O  O4  1  0.28871600  0.97399900  0.84641600  1
  O  O5  1  0.71128400  0.47399900  0.15358400  1
  O  O6  1  0.28871600  0.47399900  0.65358400  1
  O  O7  1  0.71128400  0.97399900  0.34641600  1
  O  O8  1  0.37916900  0.86197800  0.75495900  1
  O  O9  1  0.62083100  0.36197800  0.24504100  1
  O  O10  1  0.37916900  0.36197800  0.74504100  1
  O  O11  1  0.62083100  0.86197800  0.25495900  1
  O  O12  1  0.92094800  0.45696500  0.99265000  1
  O  O13  1  0.07905200  0.95696500  0.00735000  1
  O  O14  1  0.92094800  0.95696500  0.50735000  1
  O  O15  1  0.07905200  0.45696500  0.49265000  1
  O  O16  1  0.11882200  0.87435900  0.77437400  1
  O  O17  1  0.88117800  0.37435900  0.22562600  1
  O  O18  1  0.11882200  0.37435900  0.72562600  1
  O  O19  1  0.88117800  0.87435900  0.27437400  1
  O  O20  1  0.65925700  0.43652200  0.00121900  1
  O  O21  1  0.34074300  0.93652200  0.99878100  1
  O  O22  1  0.65925700  0.93652200  0.49878100  1
  O  O23  1  0.34074300  0.43652200  0.50121900  1
  O  O24  1  0.76463600  0.60105900  0.93123900  1
  O  O25  1  0.23536400  0.10105900  0.06876100  1
  O  O26  1  0.76463600  0.10105900  0.56876100  1
  O  O27  1  0.23536400  0.60105900  0.43123900  1
  O  O28  1  0.78102800  0.36067900  0.90878700  1
  O  O29  1  0.21897200  0.86067900  0.09121300  1
  O  O30  1  0.78102800  0.86067900  0.59121300  1
  O  O31  1  0.21897200  0.36067900  0.40878700  1
loop_
_geom_bond_atom_site_label_1
_geom_bond_atom_site_label_2
_geom_bond_distance
_geom_bond_site_symmetry_2
Ag0 S4 2.571793 1_555
Ag0 S8 2.581008 1_555
Ag0 S0 2.615836 1_554
Ag0 O20 2.663024 1_555
Ag1 S5 2.571793 1_555
Ag1 S9 2.581008 1_555
Ag1 S1 2.615836 1_556
Ag1 O21 2.663024 1_545
Ag2 S6 2.571793 1_555
Ag2 S10 2.581008 1_555
Ag2 S2 2.615836 1_555
Ag2 O22 2.663024 1_545
Ag3 S7 2.571793 1_555
Ag3 S11 2.581008 1_555
Ag3 S3 2.615836 1_555
Ag3 O23 2.663024 1_555
Ag4 O8 2.463538 1_555
Ag4 S12 2.572010 1_555
Ag4 S0 2.615634 1_555
Ag4 S9 2.687741 1_565
Ag5 O9 2.463538 1_555
Ag5 S13 2.572010 1_555
Ag5 S1 2.615634 1_555
Ag5 S8 2.687741 1_555
Ag6 O10 2.463538 1_555
Ag6 S14 2.572010 1_555
Ag6 S2 2.615634 1_555
Ag6 S11 2.687741 1_555
Ag7 O11 2.463538 1_555
Ag7 S15 2.572010 1_555
Ag7 S3 2.615634 1_555
Ag7 S10 2.687741 1_565
C0 H12 1.094361 1_555
C0 H16 1.095664 1_555
C0 S0 1.818432 1_555
C0 S5 1.819176 1_555
C1 H13 1.094361 1_555
C1 H17 1.095664 1_555
C1 S1 1.818432 1_565
C1 S4 1.819176 1_555
C2 H14 1.094361 1_555
C2 H18 1.095664 1_555
C2 S2 1.818432 1_565
C2 S7 1.819176 1_555
C3 H15 1.094361 1_555
C3 H19 1.095664 1_555
C3 S3 1.818432 1_555
C3 S6 1.819176 1_555
C4 H36 1.096846 1_555
C4 H32 1.097726 1_555
C4 S15 1.811951 1_555
C4 S8 1.827835 1_555
C5 H37 1.096846 1_555
C5 H33 1.097726 1_555
C5 S14 1.811951 1_555
C5 S9 1.827835 1_555
C6 H38 1.096846 1_555
C6 H34 1.097726 1_555
C6 S13 1.811951 1_555
C6 S10 1.827835 1_555
C7 H39 1.096846 1_555
C7 H35 1.097726 1_555
C7 S12 1.811951 1_555
C7 S11 1.827835 1_555
C8 H4 1.095354 1_555
C8 H8 1.096187 1_555
C8 H0 1.097732 1_555
C8 S0 1.808849 1_555
C9 H5 1.095354 1_555
C9 H9 1.096187 1_555
C9 H1 1.097732 1_555
C9 S1 1.808849 1_555
C10 H6 1.095354 1_555
C10 H10 1.096187 1_555
C10 H2 1.097732 1_555
C10 S2 1.808849 1_555
C11 H7 1.095354 1_555
C11 H11 1.096187 1_555
C11 H3 1.097732 1_555
C11 S3 1.808849 1_555
C12 H20 1.093735 1_555
C12 H28 1.094965 1_555
C12 H24 1.096575 1_555
C12 S4 1.815343 1_555
C13 H21 1.093735 1_555
C13 H29 1.094965 1_555
C13 H25 1.096575 1_555
C13 S5 1.815343 1_555
C14 H22 1.093735 1_555
C14 H30 1.094965 1_555
C14 H26 1.096575 1_555
C14 S6 1.815343 1_555
C15 H23 1.093735 1_555
C15 H31 1.094965 1_555
C15 H27 1.096575 1_555
C15 S7 1.815343 1_555
C16 H48 1.094416 1_555
C16 H44 1.095452 1_555
C16 H40 1.096148 1_555
C16 S12 1.815453 1_555
C17 H49 1.094416 1_555
C17 H45 1.095452 1_555
C17 H41 1.096148 1_555
C17 S13 1.815453 1_555
C18 H50 1.094416 1_555
C18 H46 1.095452 1_555
C18 H42 1.096148 1_555
C18 S14 1.815453 1_555
C19 H51 1.094416 1_555
C19 H47 1.095452 1_555
C19 H43 1.096148 1_555
C19 S15 1.815453 1_555
C20 H56 1.095847 1_555
C20 H60 1.096327 1_555
C20 H52 1.096428 1_555
C20 S8 1.810884 1_555
C21 H57 1.095847 1_545
C21 H61 1.096327 1_545
C21 H53 1.096428 1_555
C21 S9 1.810884 1_555
C22 H58 1.095847 1_545
C22 H62 1.096327 1_545
C22 H54 1.096428 1_555
C22 S10 1.810884 1_555
C23 H59 1.095847 1_555
C23 H63 1.096327 1_555
C23 H55 1.096428 1_555
C23 S11 1.810884 1_555
Cl0 O12 1.454814 1_555
Cl0 O28 1.466715 1_555
Cl0 O24 1.468089 1_555
Cl0 O20 1.476288 1_556
Cl1 O13 1.454814 1_555
Cl1 O29 1.466715 1_555
Cl1 O25 1.468089 1_565
Cl1 O21 1.476288 1_554
Cl2 O14 1.454814 1_555
Cl2 O30 1.466715 1_555
Cl2 O26 1.468089 1_565
Cl2 O22 1.476288 1_555
Cl3 O15 1.454814 1_555
Cl3 O31 1.466715 1_555
Cl3 O27 1.468089 1_555
Cl3 O23 1.476288 1_555
Cl4 O16 1.455499 1_555
Cl4 O0 1.458521 1_565
Cl4 O4 1.463487 1_555
Cl4 O8 1.486019 1_555
Cl5 O17 1.455499 1_555
Cl5 O1 1.458521 1_555
Cl5 O5 1.463487 1_555
Cl5 O9 1.486019 1_555
Cl6 O18 1.455499 1_555
Cl6 O2 1.458521 1_555
Cl6 O6 1.463487 1_555
Cl6 O10 1.486019 1_555
Cl7 O19 1.455499 1_555
Cl7 O3 1.458521 1_565
Cl7 O7 1.463487 1_555
Cl7 O11 1.486019 1_555
