# generated using pymatgen
data_Ca3Ga3N5
_symmetry_space_group_name_H-M   'P 1'
_cell_length_a   5.91046539
_cell_length_b   6.88336151
_cell_length_c   8.47565363
_cell_angle_alpha   107.47635134
_cell_angle_beta   105.46495590
_cell_angle_gamma   95.17475627
_symmetry_Int_Tables_number   1
_chemical_formula_structural   Ca3Ga3N5
_chemical_formula_sum   'Ca6 Ga6 N10'
_cell_volume   311.51243786
_cell_formula_units_Z   2
loop_
 _symmetry_equiv_pos_site_id
 _symmetry_equiv_pos_as_xyz
  1  'x, y, z'
loop_
 _atom_site_type_symbol
 _atom_site_label
 _atom_site_symmetry_multiplicity
 _atom_site_fract_x
 _atom_site_fract_y
 _atom_site_fract_z
 _atom_site_occupancy
  Ca  Ca0  1  0.81833900  0.41169800  0.60731200  1
  Ca  Ca1  1  0.18166100  0.58830200  0.39268800  1
  Ca  Ca2  1  0.65918400  0.86530300  0.87845300  1
  Ca  Ca3  1  0.34081600  0.13469700  0.12154700  1
  Ca  Ca4  1  0.65527100  0.63744600  0.19693200  1
  Ca  Ca5  1  0.34472900  0.36255400  0.80306800  1
  Ga  Ga0  1  0.90592100  0.31138300  0.96886300  1
  Ga  Ga1  1  0.09407900  0.68861700  0.03113700  1
  Ga  Ga2  1  0.71200700  0.94406100  0.56312800  1
  Ga  Ga3  1  0.28799300  0.05593900  0.43687200  1
  Ga  Ga4  1  0.13499100  0.86718000  0.71585400  1
  Ga  Ga5  1  0.86500900  0.13282000  0.28414600  1
  N  N0  1  0.97010900  0.10525000  0.77916600  1
  N  N1  1  0.02989200  0.89475000  0.22083400  1
  N  N2  1  0.84955000  0.69483900  0.50924600  1
  N  N3  1  0.15045000  0.30516100  0.49075400  1
  N  N4  1  0.75647700  0.52955200  0.88984500  1
  N  N5  1  0.24352300  0.47044800  0.11015500  1
  N  N6  1  0.39595200  0.93161100  0.61762700  1
  N  N7  1  0.60404800  0.06838900  0.38237300  1
  N  N8  1  0.28454300  0.77141200  0.90299900  1
  N  N9  1  0.71545700  0.22858800  0.09700100  1
loop_
_geom_bond_atom_site_label_1
_geom_bond_atom_site_label_2
_geom_bond_distance
_geom_bond_site_symmetry_2
Ca0 N2 2.348023 1_555
Ca0 N4 2.424830 1_555
Ca0 N3 2.495101 1_655
Ca0 N7 2.507911 1_555
Ca0 N0 2.977540 1_555
Ca1 N3 2.348023 1_555
Ca1 N5 2.424830 1_555
Ca1 N2 2.495101 1_455
Ca1 N6 2.507911 1_555
Ca1 N1 2.977539 1_555
Ca2 N8 2.330748 1_555
Ca2 N4 2.454652 1_555
Ca2 N6 2.532956 1_555
Ca2 N9 2.556210 1_566
Ca2 N0 2.815187 1_565
Ca2 N1 3.072234 1_656
Ca3 N9 2.330748 1_555
Ca3 N5 2.454652 1_555
Ca3 N7 2.532956 1_555
Ca3 N8 2.556210 1_544
Ca3 N1 2.815183 1_545
Ca3 N0 3.072231 1_454
Ca4 N5 2.412022 1_555
Ca4 N2 2.480050 1_555
Ca4 N1 2.630282 1_655
Ca4 N4 2.726385 1_554
Ca4 N9 2.770177 1_555
Ca4 N7 2.996104 1_565
Ca5 N4 2.412022 1_555
Ca5 N3 2.480050 1_555
Ca5 N0 2.630277 1_455
Ca5 N5 2.726385 1_556
Ca5 N8 2.770177 1_555
Ca5 N6 2.996104 1_545
Ga0 N9 1.918232 1_556
Ga0 N0 1.947925 1_555
Ga0 N4 2.002953 1_555
Ga0 N5 2.039239 1_656
Ga1 N8 1.918232 1_554
Ga1 N1 1.947922 1_555
Ga1 N5 2.002953 1_555
Ga1 N4 2.039239 1_454
Ga2 N2 1.947135 1_555
Ga2 N7 1.962463 1_565
Ga2 N0 1.973774 1_565
Ga2 N6 2.040911 1_555
Ga3 N3 1.947135 1_555
Ga3 N6 1.962463 1_545
Ga3 N1 1.973771 1_545
Ga3 N7 2.040911 1_555
Ga4 N8 1.928015 1_555
Ga4 N0 1.990444 1_465
Ga4 N6 2.012958 1_555
Ga4 N2 2.033657 1_455
Ga5 N9 1.928015 1_555
Ga5 N1 1.990447 1_645
Ga5 N7 2.012958 1_555
Ga5 N3 2.033657 1_655
