# generated using pymatgen
data_Be2W
_symmetry_space_group_name_H-M   'P 1'
_cell_length_a   4.44408975
_cell_length_b   4.44409885
_cell_length_c   7.30721564
_cell_angle_alpha   90.00008027
_cell_angle_beta   89.99999328
_cell_angle_gamma   119.99976861
_symmetry_Int_Tables_number   1
_chemical_formula_structural   Be2W
_chemical_formula_sum   'Be8 W4'
_cell_volume   124.98275673
_cell_formula_units_Z   4
loop_
 _symmetry_equiv_pos_site_id
 _symmetry_equiv_pos_as_xyz
  1  'x, y, z'
loop_
 _atom_site_type_symbol
 _atom_site_label
 _atom_site_symmetry_multiplicity
 _atom_site_fract_x
 _atom_site_fract_y
 _atom_site_fract_z
 _atom_site_occupancy
  Be  Be0  1  0.00000103  0.00000001  0.00002841  1
  Be  Be1  1  -0.00000001  -0.00000001  0.50002879  1
  Be  Be2  1  0.82991336  0.65983136  0.25000404  1
  Be  Be3  1  0.17008834  0.82991479  0.74998250  1
  Be  Be4  1  0.65982876  0.82991638  0.74998076  1
  Be  Be5  1  0.34017346  0.17008623  0.25000484  1
  Be  Be6  1  0.82991036  0.17008100  0.25000304  1
  Be  Be7  1  0.17008534  0.34017055  0.74998150  1
  W  W0  1  0.33333352  0.66666576  0.06326572  1
  W  W1  1  0.66666720  0.33333260  0.56325391  1
  W  W2  1  0.66666623  0.33333412  0.93672644  1
  W  W3  1  0.33333242  0.66666721  0.43674105  1
loop_
_geom_bond_atom_site_label_1
_geom_bond_atom_site_label_2
_geom_bond_distance
_geom_bond_site_symmetry_2
Be0 Be6 2.247349 1_455
Be0 Be2 2.247355 1_445
Be0 Be5 2.247364 1_555
Be0 Be3 2.247775 1_544
Be0 Be7 2.247782 1_554
Be0 Be4 2.247787 1_444
Be0 W0 2.607075 1_545
Be0 W0 2.607081 1_555
Be0 W0 2.607084 1_445
Be0 W2 2.607159 1_554
Be0 W2 2.607166 1_444
Be0 W2 2.607167 1_454
Be1 Be4 2.247217 1_445
Be1 Be7 2.247219 1_555
Be1 Be3 2.247231 1_545
Be1 Be2 2.247643 1_445
Be1 Be5 2.247650 1_555
Be1 Be6 2.247653 1_455
Be1 W1 2.607053 1_455
Be1 W1 2.607066 1_555
Be1 W1 2.607073 1_445
Be1 W3 2.607134 1_545
Be1 W3 2.607149 1_445
Be1 W3 2.607154 1_555
Be2 Be5 2.176470 1_555
Be2 Be6 2.176492 1_555
Be2 Be6 2.267607 1_565
Be2 Be5 2.267640 1_665
Be2 W0 2.607696 1_555
Be2 W3 2.607698 1_555
Be2 W3 2.607707 1_655
Be2 W0 2.607718 1_655
Be2 W1 2.611226 1_555
Be2 W2 2.611397 1_554
Be3 Be4 2.176447 1_555
Be3 Be7 2.176465 1_555
Be3 Be7 2.267634 1_565
Be3 Be4 2.267643 1_455
Be3 W1 2.607674 1_565
Be3 W1 2.607684 1_455
Be3 W2 2.607731 1_565
Be3 W2 2.607744 1_455
Be3 W3 2.611153 1_555
Be3 W0 2.611428 1_556
Be4 Be7 2.176479 1_555
Be4 Be7 2.267631 1_665
Be4 W1 2.607658 1_565
Be4 W1 2.607677 1_555
Be4 W2 2.607734 1_565
Be4 W2 2.607745 1_555
Be4 W3 2.611153 1_555
Be4 W0 2.611442 1_556
Be5 Be6 2.176446 1_555
Be5 Be6 2.267643 1_455
Be5 W3 2.607699 1_545
Be5 W3 2.607707 1_555
Be5 W0 2.607714 1_555
Be5 W0 2.607715 1_545
Be5 W1 2.611208 1_555
Be5 W2 2.611395 1_554
Be6 W0 2.607696 1_545
Be6 W3 2.607701 1_545
Be6 W0 2.607729 1_655
Be6 W3 2.607729 1_655
Be6 W1 2.611219 1_555
Be6 W2 2.611391 1_554
Be7 W1 2.607663 1_455
Be7 W1 2.607669 1_555
Be7 W2 2.607729 1_555
Be7 W2 2.607736 1_455
Be7 W3 2.611162 1_555
Be7 W0 2.611436 1_556
