# generated using pymatgen
data_Ca(NiO2)2
_symmetry_space_group_name_H-M   'P 1'
_cell_length_a   6.07813400
_cell_length_b   6.07991016
_cell_length_c   6.09686441
_cell_angle_alpha   118.21511485
_cell_angle_beta   93.09154685
_cell_angle_gamma   118.12700023
_symmetry_Int_Tables_number   1
_chemical_formula_structural   Ca(NiO2)2
_chemical_formula_sum   'Ca2 Ni4 O8'
_cell_volume   163.60467691
_cell_formula_units_Z   2
loop_
 _symmetry_equiv_pos_site_id
 _symmetry_equiv_pos_as_xyz
  1  'x, y, z'
loop_
 _atom_site_type_symbol
 _atom_site_label
 _atom_site_symmetry_multiplicity
 _atom_site_fract_x
 _atom_site_fract_y
 _atom_site_fract_z
 _atom_site_occupancy
  Ca  Ca0  1  0.24971100  0.87749800  0.87745400  1
  Ca  Ca1  1  0.75028900  0.12250200  0.12254600  1
  Ni  Ni0  1  0.50000000  0.50000000  0.50000000  1
  Ni  Ni1  1  0.00000000  0.00000000  0.50000000  1
  Ni  Ni2  1  0.50000000  0.50000000  0.00000000  1
  Ni  Ni3  1  0.00000000  0.50000000  0.50000000  1
  O  O0  1  0.50014900  0.68865600  0.23782200  1
  O  O1  1  0.07211100  0.30615900  0.68878300  1
  O  O2  1  0.42723000  0.23370600  0.25858400  1
  O  O3  1  0.00464500  0.73828000  0.68938200  1
  O  O4  1  0.57277000  0.76629400  0.74141600  1
  O  O5  1  0.92788900  0.69384100  0.31121700  1
  O  O6  1  0.99535500  0.26172000  0.31061800  1
  O  O7  1  0.49985100  0.31134400  0.76217800  1
loop_
_geom_bond_atom_site_label_1
_geom_bond_atom_site_label_2
_geom_bond_distance
_geom_bond_site_symmetry_2
Ca0 O3 1.399745 1_555
Ca0 O2 2.005465 1_566
Ca0 O4 2.428562 1_555
Ca1 O6 1.399745 1_555
Ca1 O4 2.005465 1_544
Ca1 O2 2.428562 1_555
Ni0 O4 1.408771 1_555
Ni0 O2 1.408771 1_555
Ni1 O1 1.460225 1_555
Ni1 O5 1.460225 1_445
Ni2 O0 1.358059 1_555
Ni2 O7 1.358059 1_554
Ni3 O3 1.344991 1_555
Ni3 O6 1.344991 1_455
