# generated using pymatgen
data_Er2Fe12P7
_symmetry_space_group_name_H-M   'P 1'
_cell_length_a   3.63347500
_cell_length_b   8.95352463
_cell_length_c   8.95093957
_cell_angle_alpha   120.05989843
_cell_angle_beta   90.00000000
_cell_angle_gamma   90.00000000
_symmetry_Int_Tables_number   1
_chemical_formula_structural   Er2Fe12P7
_chemical_formula_sum   'Er2 Fe12 P7'
_cell_volume   252.03045262
_cell_formula_units_Z   1
loop_
 _symmetry_equiv_pos_site_id
 _symmetry_equiv_pos_as_xyz
  1  'x, y, z'
loop_
 _atom_site_type_symbol
 _atom_site_label
 _atom_site_symmetry_multiplicity
 _atom_site_fract_x
 _atom_site_fract_y
 _atom_site_fract_z
 _atom_site_occupancy
  Er  Er0  1  0.00000000  0.66707000  0.33355500  1
  Er  Er1  1  0.50000000  0.33294000  0.66651900  1
  Fe  Fe0  1  0.00000000  0.37185800  0.94433700  1
  Fe  Fe1  1  0.00000000  0.05557400  0.42726100  1
  Fe  Fe2  1  0.00000000  0.57229800  0.62784400  1
  Fe  Fe3  1  0.00000000  0.88089500  0.72460800  1
  Fe  Fe4  1  0.00000000  0.27578900  0.15668000  1
  Fe  Fe5  1  0.00000000  0.84359300  0.11937900  1
  Fe  Fe6  1  0.50000000  0.95177900  0.56758700  1
  Fe  Fe7  1  0.50000000  0.43212100  0.38413200  1
  Fe  Fe8  1  0.50000000  0.61611500  0.04822600  1
  Fe  Fe9  1  0.50000000  0.12029300  0.90432200  1
  Fe  Fe10  1  0.50000000  0.09539900  0.21584600  1
  Fe  Fe11  1  0.50000000  0.78411800  0.87977700  1
  P  P0  1  0.00000000  0.11509800  0.70344700  1
  P  P1  1  0.00000000  0.29575800  0.41152400  1
  P  P2  1  0.00000000  0.58814300  0.88433500  1
  P  P3  1  0.50000000  0.71076500  0.59786300  1
  P  P4  1  0.50000000  0.40244300  0.11248400  1
  P  P5  1  0.50000000  0.88785400  0.29005800  1
  P  P6  1  0.00000000  0.00009700  0.00021700  1
loop_
_geom_bond_atom_site_label_1
_geom_bond_atom_site_label_2
_geom_bond_distance
_geom_bond_site_symmetry_2
Er0 P3 2.850156 1_555
Er0 P3 2.850156 1_455
Er0 P5 2.851469 1_455
Er0 P5 2.851469 1_555
Er0 P4 2.851845 1_555
Er0 P4 2.851845 1_455
Er0 Fe6 2.972755 1_455
Er0 Fe6 2.972755 1_555
Er0 Fe8 2.977265 1_455
Er0 Fe8 2.977265 1_555
Er0 Fe7 2.980732 1_455
Er0 Fe7 2.980732 1_555
Er0 Fe3 3.033795 1_555
Er0 Fe5 3.034568 1_555
Er0 Fe4 3.037006 1_555
Er0 Fe1 3.143319 1_565
Er0 Fe2 3.146123 1_555
Er0 Fe0 3.146202 1_554
Er1 P1 2.803515 1_555
Er1 P1 2.803515 1_655
Er1 P2 2.803534 1_555
Er1 P2 2.803534 1_655
Er1 P0 2.803557 1_655
Er1 P0 2.803557 1_555
Er1 Fe1 2.954008 1_555
Er1 Fe1 2.954008 1_655
Er1 Fe0 2.955962 1_555
Er1 Fe0 2.955962 1_655
Er1 Fe2 2.959135 1_655
Er1 Fe2 2.959135 1_555
Er1 Fe6 3.066490 1_545
Er1 Fe8 3.069765 1_556
Er1 Fe7 3.070201 1_555
Fe0 P0 2.228964 1_555
Fe0 P2 2.253989 1_555
Fe0 P4 2.286454 1_456
Fe0 P4 2.286454 1_556
Fe1 P1 2.224395 1_555
Fe1 P0 2.252894 1_555
Fe1 P5 2.283914 1_445
Fe1 P5 2.283914 1_545
Fe2 P2 2.228159 1_555
Fe2 P1 2.253188 1_555
Fe2 P3 2.289733 1_555
Fe2 P3 2.289733 1_455
Fe3 P6 2.141792 1_566
Fe3 P0 2.197941 1_565
Fe3 P3 2.275231 1_555
Fe3 P3 2.275231 1_455
Fe4 P6 2.142708 1_555
Fe4 P1 2.196992 1_555
Fe4 P4 2.278685 1_555
Fe4 P4 2.278685 1_455
Fe5 P6 2.144413 1_565
Fe5 P2 2.199274 1_554
Fe5 P5 2.277068 1_455
Fe5 P5 2.277068 1_555
Fe6 P5 2.252595 1_555
Fe6 P0 2.266313 1_565
Fe6 P0 2.266313 1_665
Fe6 P3 2.305631 1_555
Fe7 P3 2.258909 1_555
Fe7 P1 2.269629 1_555
Fe7 P1 2.269629 1_655
Fe7 P4 2.309881 1_555
Fe8 P4 2.256811 1_555
Fe8 P2 2.268748 1_554
Fe8 P2 2.268748 1_654
Fe8 P5 2.308480 1_555
Fe9 P4 2.266724 1_556
Fe9 P6 2.474039 1_656
Fe9 P6 2.474039 1_556
Fe9 P0 2.540038 1_655
Fe9 P0 2.540038 1_555
Fe10 P5 2.265170 1_545
Fe10 P6 2.470618 1_555
Fe10 P6 2.470618 1_655
Fe10 P1 2.537459 1_555
Fe10 P1 2.537459 1_655
Fe11 P3 2.266844 1_555
Fe11 P6 2.472595 1_666
Fe11 P6 2.472595 1_566
Fe11 P2 2.540231 1_555
Fe11 P2 2.540231 1_655
