# generated using pymatgen
data_ErCo3P2
_symmetry_space_group_name_H-M   'P 1'
_cell_length_a   3.66705000
_cell_length_b   10.49529300
_cell_length_c   12.14399600
_cell_angle_alpha   90.00000000
_cell_angle_beta   90.00000000
_cell_angle_gamma   90.00000000
_symmetry_Int_Tables_number   1
_chemical_formula_structural   ErCo3P2
_chemical_formula_sum   'Er6 Co18 P12'
_cell_volume   467.38311044
_cell_formula_units_Z   6
loop_
 _symmetry_equiv_pos_site_id
 _symmetry_equiv_pos_as_xyz
  1  'x, y, z'
loop_
 _atom_site_type_symbol
 _atom_site_label
 _atom_site_symmetry_multiplicity
 _atom_site_fract_x
 _atom_site_fract_y
 _atom_site_fract_z
 _atom_site_occupancy
  Er  Er0  1  0.75000000  0.25000000  0.47803900  1
  Er  Er1  1  0.25000000  0.75000000  0.52196100  1
  Er  Er2  1  0.25000000  0.93314700  0.79396900  1
  Er  Er3  1  0.25000000  0.56685300  0.79396900  1
  Er  Er4  1  0.75000000  0.06685300  0.20603100  1
  Er  Er5  1  0.75000000  0.43314700  0.20603100  1
  Co  Co0  1  0.25000000  0.25000000  0.84194800  1
  Co  Co1  1  0.75000000  0.75000000  0.15805200  1
  Co  Co2  1  0.25000000  0.25000000  0.29717500  1
  Co  Co3  1  0.75000000  0.75000000  0.70282500  1
  Co  Co4  1  0.75000000  0.25000000  0.01444400  1
  Co  Co5  1  0.25000000  0.75000000  0.98555600  1
  Co  Co6  1  0.25000000  0.41657100  0.00565000  1
  Co  Co7  1  0.25000000  0.08342900  0.00565000  1
  Co  Co8  1  0.75000000  0.58342900  0.99435000  1
  Co  Co9  1  0.75000000  0.91657100  0.99435000  1
  Co  Co10  1  0.25000000  0.45329800  0.56917300  1
  Co  Co11  1  0.25000000  0.04670200  0.56917300  1
  Co  Co12  1  0.75000000  0.54670200  0.43082700  1
  Co  Co13  1  0.75000000  0.95329800  0.43082700  1
  Co  Co14  1  0.25000000  0.87136000  0.29074400  1
  Co  Co15  1  0.25000000  0.62864000  0.29074400  1
  Co  Co16  1  0.75000000  0.12864000  0.70925600  1
  Co  Co17  1  0.75000000  0.37136000  0.70925600  1
  P  P0  1  0.25000000  0.25000000  0.11898100  1
  P  P1  1  0.75000000  0.75000000  0.88101900  1
  P  P2  1  0.25000000  0.25000000  0.65601800  1
  P  P3  1  0.75000000  0.75000000  0.34398200  1
  P  P4  1  0.25000000  0.43770500  0.38354400  1
  P  P5  1  0.25000000  0.06229500  0.38354400  1
  P  P6  1  0.75000000  0.56229500  0.61645600  1
  P  P7  1  0.75000000  0.93770500  0.61645600  1
  P  P8  1  0.25000000  0.90266400  0.10703600  1
  P  P9  1  0.25000000  0.59733600  0.10703600  1
  P  P10  1  0.75000000  0.09733600  0.89296400  1
  P  P11  1  0.75000000  0.40266400  0.89296400  1
loop_
_geom_bond_atom_site_label_1
_geom_bond_atom_site_label_2
_geom_bond_distance
_geom_bond_site_symmetry_2
Er0 P2 2.834318 1_555
Er0 P2 2.834318 1_655
Er0 P4 2.925688 1_555
Er0 P5 2.925688 1_555
Er0 P4 2.925688 1_655
Er0 P5 2.925688 1_655
Er1 P3 2.834318 1_455
Er1 P3 2.834318 1_555
Er1 P6 2.925688 1_555
Er1 P6 2.925688 1_455
Er1 P7 2.925688 1_455
Er1 P7 2.925688 1_555
Er2 P10 2.788646 1_565
Er2 P10 2.788646 1_465
Er2 P7 2.830410 1_555
Er2 P7 2.830410 1_455
Er2 P1 2.859043 1_555
Er2 P1 2.859043 1_455
Er3 P11 2.788646 1_455
Er3 P11 2.788646 1_555
Er3 P6 2.830410 1_455
Er3 P6 2.830410 1_555
Er3 P1 2.859043 1_555
Er3 P1 2.859043 1_455
Er4 P8 2.788646 1_545
Er4 P8 2.788646 1_645
Er4 P5 2.830410 1_655
Er4 P5 2.830410 1_555
Er4 P0 2.859043 1_555
Er4 P0 2.859043 1_655
Er5 P9 2.788646 1_555
Er5 P9 2.788646 1_655
Er5 P4 2.830410 1_555
Er5 P4 2.830410 1_655
Er5 P0 2.859043 1_555
Er5 P0 2.859043 1_655
Co0 P2 2.257933 1_555
Co0 P11 2.512540 1_555
Co0 P11 2.512540 1_455
Co0 P10 2.512540 1_455
Co0 P10 2.512540 1_555
Co1 P3 2.257933 1_555
Co1 P9 2.512540 1_655
Co1 P8 2.512540 1_555
Co1 P8 2.512540 1_655
Co1 P9 2.512540 1_555
Co2 P0 2.163987 1_555
Co2 P4 2.231836 1_555
Co2 P5 2.231836 1_555
Co2 Er0 2.861125 1_455
Co2 Er0 2.861125 1_555
Co2 Er4 2.877797 1_455
Co2 Er5 2.877797 1_455
Co2 Er5 2.877797 1_555
Co2 Er4 2.877797 1_555
Co3 P1 2.163987 1_555
Co3 P7 2.231836 1_555
Co3 P6 2.231836 1_555
Co3 Er1 2.861125 1_555
Co3 Er1 2.861125 1_655
Co3 Er2 2.877797 1_555
Co3 Er3 2.877797 1_555
Co3 Er2 2.877797 1_655
Co3 Er3 2.877797 1_655
Co4 P10 2.177978 1_554
Co4 P11 2.177978 1_554
Co4 P0 2.230120 1_555
Co4 P0 2.230120 1_655
Co4 Er5 3.017946 1_555
Co4 Er4 3.017946 1_555
Co5 P8 2.177978 1_556
Co5 P9 2.177978 1_556
Co5 P1 2.230120 1_555
Co5 P1 2.230120 1_455
Co5 Er3 3.017946 1_555
Co5 Er2 3.017946 1_555
Co6 P0 2.224954 1_555
Co6 P9 2.261687 1_555
Co6 P11 2.292552 1_554
Co6 P11 2.292552 1_454
Co6 Er3 3.015955 1_554
Co6 Er5 3.051826 1_455
Co6 Er5 3.051826 1_555
Co7 P0 2.224954 1_555
Co7 P8 2.261687 1_545
Co7 P10 2.292552 1_554
Co7 P10 2.292552 1_454
Co7 Er2 3.015955 1_544
Co7 Er4 3.051826 1_555
Co7 Er4 3.051826 1_455
Co8 P1 2.224954 1_555
Co8 P11 2.261687 1_555
Co8 P9 2.292552 1_556
Co8 P9 2.292552 1_656
Co8 Er5 3.015955 1_556
Co8 Er3 3.051826 1_555
Co8 Er3 3.051826 1_655
Co9 P1 2.224954 1_555
Co9 P10 2.261687 1_565
Co9 P8 2.292552 1_556
Co9 P8 2.292552 1_656
Co9 Er4 3.015955 1_566
Co9 Er2 3.051826 1_655
Co9 Er2 3.051826 1_555
Co10 P6 2.236104 1_555
Co10 P6 2.236104 1_455
Co10 P4 2.260210 1_555
Co10 P2 2.380091 1_555
Co10 Er3 2.978732 1_555
Co10 Er0 3.023115 1_555
Co10 Er0 3.023115 1_455
Co10 Er1 3.166316 1_555
Co11 P7 2.236104 1_445
Co11 P7 2.236104 1_545
Co11 P5 2.260210 1_555
Co11 P2 2.380091 1_555
Co11 Er2 2.978732 1_545
Co11 Er0 3.023115 1_555
Co11 Er0 3.023115 1_455
Co11 Er1 3.166316 1_545
Co12 P4 2.236104 1_655
Co12 P4 2.236104 1_555
Co12 P6 2.260210 1_555
Co12 P3 2.380091 1_555
Co12 Er5 2.978732 1_555
Co12 Er1 3.023115 1_555
Co12 Er1 3.023115 1_655
Co12 Er0 3.166316 1_555
Co13 P5 2.236104 1_565
Co13 P5 2.236104 1_665
Co13 P7 2.260210 1_555
Co13 P3 2.380091 1_555
Co13 Er4 2.978732 1_565
Co13 Er1 3.023115 1_555
Co13 Er1 3.023115 1_655
Co13 Er0 3.166316 1_565
Co14 P8 2.255011 1_555
Co14 P5 2.299073 1_565
Co14 P3 2.324250 1_555
Co14 P3 2.324250 1_455
Co14 Er4 2.937661 1_565
Co14 Er4 2.937661 1_465
Co14 Er1 3.083282 1_555
Co15 P9 2.255011 1_555
Co15 P4 2.299073 1_555
Co15 P3 2.324250 1_555
Co15 P3 2.324250 1_455
Co15 Er5 2.937661 1_455
Co15 Er5 2.937661 1_555
Co15 Er1 3.083282 1_555
Co16 P10 2.255011 1_555
Co16 P7 2.299073 1_545
Co16 P2 2.324250 1_655
Co16 P2 2.324250 1_555
Co16 Er2 2.937661 1_645
Co16 Er2 2.937661 1_545
Co16 Er0 3.083282 1_555
Co17 P11 2.255011 1_555
Co17 P6 2.299073 1_555
Co17 P2 2.324250 1_655
Co17 P2 2.324250 1_555
Co17 Er3 2.937661 1_655
Co17 Er3 2.937661 1_555
Co17 Er0 3.083282 1_555
