# generated using pymatgen
data_Ca3Al2O12
_symmetry_space_group_name_H-M   'P 1'
_cell_length_a   11.23147827
_cell_length_b   11.23147827
_cell_length_c   11.23147827
_cell_angle_alpha   109.47122063
_cell_angle_beta   109.47122063
_cell_angle_gamma   109.47122063
_symmetry_Int_Tables_number   1
_chemical_formula_structural   Ca3Al2O12
_chemical_formula_sum   'Ca12 Al8 O48'
_cell_volume   1090.65871085
_cell_formula_units_Z   4
loop_
 _symmetry_equiv_pos_site_id
 _symmetry_equiv_pos_as_xyz
  1  'x, y, z'
loop_
 _atom_site_type_symbol
 _atom_site_label
 _atom_site_symmetry_multiplicity
 _atom_site_fract_x
 _atom_site_fract_y
 _atom_site_fract_z
 _atom_site_occupancy
  Ca  Ca0  1  0.25000000  0.37500000  0.12500000  1
  Ca  Ca1  1  0.75000000  0.12500000  0.37500000  1
  Ca  Ca2  1  0.37500000  0.12500000  0.25000000  1
  Ca  Ca3  1  0.12500000  0.37500000  0.75000000  1
  Ca  Ca4  1  0.12500000  0.25000000  0.37500000  1
  Ca  Ca5  1  0.37500000  0.75000000  0.12500000  1
  Ca  Ca6  1  0.75000000  0.62500000  0.87500000  1
  Ca  Ca7  1  0.25000000  0.87500000  0.62500000  1
  Ca  Ca8  1  0.62500000  0.87500000  0.75000000  1
  Ca  Ca9  1  0.87500000  0.62500000  0.25000000  1
  Ca  Ca10  1  0.87500000  0.75000000  0.62500000  1
  Ca  Ca11  1  0.62500000  0.25000000  0.87500000  1
  Al  Al0  1  0.00000000  0.50000000  0.00000000  1
  Al  Al1  1  0.00000000  0.00000000  0.50000000  1
  Al  Al2  1  0.50000000  0.00000000  0.00000000  1
  Al  Al3  1  0.50000000  0.50000000  0.50000000  1
  Al  Al4  1  0.50000000  0.50000000  0.00000000  1
  Al  Al5  1  0.50000000  0.00000000  0.50000000  1
  Al  Al6  1  0.00000000  0.50000000  0.50000000  1
  Al  Al7  1  0.00000000  0.00000000  0.00000000  1
  O  O0  1  0.04598000  0.35981500  0.92399100  1
  O  O1  1  0.93582400  0.12198800  0.57600900  1
  O  O2  1  0.56417600  0.14018500  0.18616400  1
  O  O3  1  0.45402000  0.37801200  0.31383600  1
  O  O4  1  0.35981500  0.92399100  0.04598000  1
  O  O5  1  0.12198800  0.57600900  0.93582400  1
  O  O6  1  0.14018500  0.18616400  0.56417600  1
  O  O7  1  0.37801200  0.31383600  0.45402000  1
  O  O8  1  0.92399100  0.04598000  0.35981500  1
  O  O9  1  0.57600900  0.93582400  0.12198800  1
  O  O10  1  0.18616400  0.56417600  0.14018500  1
  O  O11  1  0.31383600  0.45402000  0.37801200  1
  O  O12  1  0.95402000  0.64018500  0.07600900  1
  O  O13  1  0.06417600  0.87801200  0.42399100  1
  O  O14  1  0.43582400  0.85981500  0.81383600  1
  O  O15  1  0.54598000  0.62198800  0.68616400  1
  O  O16  1  0.64018500  0.07600900  0.95402000  1
  O  O17  1  0.87801200  0.42399100  0.06417600  1
  O  O18  1  0.85981500  0.81383600  0.43582400  1
  O  O19  1  0.62198800  0.68616400  0.54598000  1
  O  O20  1  0.07600900  0.95402000  0.64018500  1
  O  O21  1  0.42399100  0.06417600  0.87801200  1
  O  O22  1  0.81383600  0.43582400  0.85981500  1
  O  O23  1  0.68616400  0.54598000  0.62198800  1
  O  O24  1  0.54598000  0.42399100  0.85981500  1
  O  O25  1  0.43582400  0.07600900  0.62198800  1
  O  O26  1  0.06417600  0.68616400  0.64018500  1
  O  O27  1  0.95402000  0.81383600  0.87801200  1
  O  O28  1  0.85981500  0.54598000  0.42399100  1
  O  O29  1  0.62198800  0.43582400  0.07600900  1
  O  O30  1  0.64018500  0.06417600  0.68616400  1
  O  O31  1  0.87801200  0.95402000  0.81383600  1
  O  O32  1  0.42399100  0.85981500  0.54598000  1
  O  O33  1  0.07600900  0.62198800  0.43582400  1
  O  O34  1  0.68616400  0.64018500  0.06417600  1
  O  O35  1  0.81383600  0.87801200  0.95402000  1
  O  O36  1  0.45402000  0.57600900  0.14018500  1
  O  O37  1  0.56417600  0.92399100  0.37801200  1
  O  O38  1  0.93582400  0.31383600  0.35981500  1
  O  O39  1  0.04598000  0.18616400  0.12198800  1
  O  O40  1  0.14018500  0.45402000  0.57600900  1
  O  O41  1  0.37801200  0.56417600  0.92399100  1
  O  O42  1  0.35981500  0.93582400  0.31383600  1
  O  O43  1  0.12198800  0.04598000  0.18616400  1
  O  O44  1  0.57600900  0.14018500  0.45402000  1
  O  O45  1  0.92399100  0.37801200  0.56417600  1
  O  O46  1  0.31383600  0.35981500  0.93582400  1
  O  O47  1  0.18616400  0.12198800  0.04598000  1
loop_
_geom_bond_atom_site_label_1
_geom_bond_atom_site_label_2
_geom_bond_distance
_geom_bond_site_symmetry_2
Ca0 O10 2.431690 1_555
Ca0 O46 2.431690 1_554
Ca0 O11 2.431692 1_555
Ca0 O47 2.431692 1_555
Ca0 O39 2.531925 1_555
Ca0 O3 2.531925 1_555
Ca0 O0 2.531925 1_554
Ca0 O36 2.531925 1_555
Ca1 O8 2.431683 1_555
Ca1 O44 2.431683 1_555
Ca1 O45 2.431690 1_555
Ca1 O9 2.431690 1_545
Ca1 O37 2.531932 1_545
Ca1 O38 2.531932 1_555
Ca1 O1 2.531932 1_555
Ca1 O2 2.531932 1_555
Ca2 O2 2.431690 1_555
Ca2 O42 2.431690 1_545
Ca2 O3 2.431692 1_555
Ca2 O43 2.431692 1_555
Ca2 O47 2.531925 1_555
Ca2 O7 2.531925 1_555
Ca2 O4 2.531925 1_545
Ca2 O44 2.531925 1_555
Ca3 O0 2.431683 1_555
Ca3 O40 2.431683 1_555
Ca3 O41 2.431690 1_555
Ca3 O1 2.431690 1_455
Ca3 O45 2.531932 1_455
Ca3 O6 2.531932 1_555
Ca3 O5 2.531932 1_555
Ca3 O46 2.531932 1_555
Ca4 O38 2.431690 1_455
Ca4 O6 2.431690 1_555
Ca4 O7 2.431692 1_555
Ca4 O39 2.431692 1_555
Ca4 O43 2.531925 1_555
Ca4 O11 2.531925 1_555
Ca4 O40 2.531925 1_555
Ca4 O8 2.531925 1_455
Ca5 O36 2.431683 1_555
Ca5 O4 2.431683 1_555
Ca5 O37 2.431690 1_555
Ca5 O5 2.431690 1_554
Ca5 O41 2.531932 1_554
Ca5 O9 2.531932 1_555
Ca5 O42 2.531932 1_555
Ca5 O10 2.531932 1_555
Ca6 O22 2.431690 1_555
Ca6 O34 2.431690 1_556
Ca6 O35 2.431692 1_555
Ca6 O23 2.431692 1_555
Ca6 O15 2.531925 1_555
Ca6 O27 2.531925 1_555
Ca6 O24 2.531925 1_555
Ca6 O12 2.531925 1_556
Ca7 O32 2.431683 1_555
Ca7 O20 2.431683 1_555
Ca7 O21 2.431690 1_565
Ca7 O33 2.431690 1_555
Ca7 O13 2.531932 1_555
Ca7 O25 2.531932 1_565
Ca7 O26 2.531932 1_555
Ca7 O14 2.531932 1_555
Ca8 O14 2.431690 1_555
Ca8 O30 2.431690 1_565
Ca8 O31 2.431692 1_555
Ca8 O15 2.431692 1_555
Ca8 O19 2.531925 1_555
Ca8 O35 2.531925 1_555
Ca8 O32 2.531925 1_555
Ca8 O16 2.531925 1_565
Ca9 O28 2.431683 1_555
Ca9 O12 2.431683 1_555
Ca9 O29 2.431690 1_555
Ca9 O13 2.431690 1_655
Ca9 O18 2.531932 1_555
Ca9 O33 2.531932 1_655
Ca9 O34 2.531932 1_555
Ca9 O17 2.531932 1_555
Ca10 O26 2.431690 1_655
Ca10 O18 2.431690 1_555
Ca10 O27 2.431692 1_555
Ca10 O19 2.431692 1_555
Ca10 O23 2.531925 1_555
Ca10 O31 2.531925 1_555
Ca10 O28 2.531925 1_555
Ca10 O20 2.531925 1_655
Ca11 O24 2.431683 1_555
Ca11 O16 2.431683 1_555
Ca11 O17 2.431690 1_556
Ca11 O25 2.431690 1_555
Ca11 O30 2.531932 1_555
Ca11 O22 2.531932 1_555
Ca11 O29 2.531932 1_556
Ca11 O21 2.531932 1_555
Al0 O17 1.847796 1_455
Al0 O22 1.847796 1_454
Al0 O10 1.847796 1_555
Al0 O5 1.847796 1_554
Al0 O12 1.847805 1_455
Al0 O0 1.847805 1_554
Al1 O13 1.847796 1_545
Al1 O6 1.847796 1_555
Al1 O18 1.847796 1_445
Al1 O1 1.847796 1_455
Al1 O20 1.847805 1_545
Al1 O8 1.847805 1_455
Al2 O21 1.847796 1_554
Al2 O9 1.847796 1_545
Al2 O2 1.847796 1_555
Al2 O14 1.847796 1_544
Al2 O16 1.847805 1_554
Al2 O4 1.847805 1_545
Al3 O15 1.847793 1_555
Al3 O19 1.847793 1_555
Al3 O23 1.847793 1_555
Al3 O3 1.847793 1_555
Al3 O7 1.847793 1_555
Al3 O11 1.847793 1_555
Al4 O29 1.847796 1_555
Al4 O34 1.847796 1_555
Al4 O46 1.847796 1_554
Al4 O41 1.847796 1_554
Al4 O36 1.847805 1_555
Al4 O24 1.847805 1_554
Al5 O42 1.847796 1_545
Al5 O30 1.847796 1_555
Al5 O25 1.847796 1_555
Al5 O37 1.847796 1_545
Al5 O44 1.847805 1_555
Al5 O32 1.847805 1_545
Al6 O26 1.847796 1_555
Al6 O38 1.847796 1_455
Al6 O33 1.847796 1_555
Al6 O45 1.847796 1_455
Al6 O40 1.847805 1_555
Al6 O28 1.847805 1_455
Al7 O43 1.847793 1_555
Al7 O39 1.847793 1_555
Al7 O47 1.847793 1_555
Al7 O31 1.847793 1_444
Al7 O35 1.847793 1_444
Al7 O27 1.847793 1_444
