# generated using pymatgen
data_NbCr3(AgS4)2
_symmetry_space_group_name_H-M   'P 1'
_cell_length_a   7.30506000
_cell_length_b   7.33130500
_cell_length_c   10.21118500
_cell_angle_alpha   90.00000000
_cell_angle_beta   90.00000000
_cell_angle_gamma   90.00000000
_symmetry_Int_Tables_number   1
_chemical_formula_structural   NbCr3(AgS4)2
_chemical_formula_sum   'Nb2 Cr6 Ag4 S16'
_cell_volume   546.86637326
_cell_formula_units_Z   2
loop_
 _symmetry_equiv_pos_site_id
 _symmetry_equiv_pos_as_xyz
  1  'x, y, z'
loop_
 _atom_site_type_symbol
 _atom_site_label
 _atom_site_symmetry_multiplicity
 _atom_site_fract_x
 _atom_site_fract_y
 _atom_site_fract_z
 _atom_site_occupancy
  Nb  Nb0  1  0.50000000  0.70373400  0.25000000  1
  Nb  Nb1  1  0.50000000  0.29626600  0.75000000  1
  Cr  Cr0  1  0.00000000  0.74353100  0.25000000  1
  Cr  Cr1  1  0.73668500  0.50000000  0.50000000  1
  Cr  Cr2  1  0.26331500  0.50000000  0.00000000  1
  Cr  Cr3  1  0.74557800  0.00000000  0.50000000  1
  Cr  Cr4  1  0.00000000  0.25646900  0.75000000  1
  Cr  Cr5  1  0.25442200  0.00000000  0.00000000  1
  Ag  Ag0  1  0.76891100  0.77812000  0.88377500  1
  Ag  Ag1  1  0.23108900  0.22188000  0.38377500  1
  Ag  Ag2  1  0.76891100  0.22188000  0.11622500  1
  Ag  Ag3  1  0.23108900  0.77812000  0.61622500  1
  S  S0  1  0.95478200  0.74494500  0.48350700  1
  S  S1  1  0.76034900  0.50298100  0.26144500  1
  S  S2  1  0.52084600  0.75282600  0.48854800  1
  S  S3  1  0.23965100  0.49701900  0.76144500  1
  S  S4  1  0.52084600  0.24717400  0.51145200  1
  S  S5  1  0.75029200  0.04237200  0.73674900  1
  S  S6  1  0.95478200  0.25505500  0.51649300  1
  S  S7  1  0.76034900  0.49701900  0.73855500  1
  S  S8  1  0.47915400  0.24717400  0.98854800  1
  S  S9  1  0.24970800  0.04237200  0.76325100  1
  S  S10  1  0.04521800  0.25505500  0.98350700  1
  S  S11  1  0.75029200  0.95762800  0.26325100  1
  S  S12  1  0.04521800  0.74494500  0.01649300  1
  S  S13  1  0.23965100  0.50298100  0.23855500  1
  S  S14  1  0.47915400  0.75282600  0.01145200  1
  S  S15  1  0.24970800  0.95762800  0.23674900  1
loop_
_geom_bond_atom_site_label_1
_geom_bond_atom_site_label_2
_geom_bond_distance
_geom_bond_site_symmetry_2
Nb0 S1 2.407673 1_555
Nb0 S13 2.407673 1_555
Nb0 S2 2.467008 1_555
Nb0 S14 2.467008 1_555
Nb0 S11 2.612673 1_555
Nb0 S15 2.612673 1_555
Nb1 S7 2.407673 1_555
Nb1 S3 2.407673 1_555
Nb1 S4 2.467008 1_555
Nb1 S8 2.467008 1_555
Nb1 S5 2.612673 1_555
Nb1 S9 2.612673 1_555
Cr0 S0 2.407177 1_455
Cr0 S12 2.407177 1_555
Cr0 S15 2.410279 1_555
Cr0 S11 2.410279 1_455
Cr0 S13 2.487685 1_555
Cr0 S1 2.487685 1_455
Cr1 S6 2.406546 1_555
Cr1 S0 2.406546 1_555
Cr1 S2 2.436255 1_555
Cr1 S4 2.436255 1_555
Cr1 S7 2.442153 1_555
Cr1 S1 2.442153 1_555
Cr2 S12 2.406546 1_555
Cr2 S10 2.406546 1_554
Cr2 S14 2.436255 1_555
Cr2 S8 2.436255 1_554
Cr2 S13 2.442153 1_555
Cr2 S3 2.442153 1_554
Cr3 S6 2.420822 1_555
Cr3 S0 2.420822 1_545
Cr3 S5 2.437608 1_555
Cr3 S11 2.437608 1_545
Cr3 S4 2.447964 1_555
Cr3 S2 2.447964 1_545
Cr4 S10 2.407177 1_555
Cr4 S6 2.407177 1_455
Cr4 S9 2.410279 1_555
Cr4 S5 2.410279 1_455
Cr4 S3 2.487685 1_555
Cr4 S7 2.487685 1_455
Cr5 S12 2.420822 1_545
Cr5 S10 2.420822 1_554
Cr5 S9 2.437608 1_554
Cr5 S15 2.437608 1_545
Cr5 S8 2.447964 1_554
Cr5 S14 2.447964 1_545
Ag0 S12 2.443326 1_656
Ag0 S5 2.454711 1_565
Ag0 S14 2.492889 1_556
Ag0 S7 2.539657 1_555
Ag1 S6 2.443326 1_455
Ag1 S15 2.454711 1_545
Ag1 S4 2.492889 1_555
Ag1 S13 2.539657 1_555
Ag2 S10 2.443326 1_654
Ag2 S11 2.454711 1_545
Ag2 S8 2.492889 1_554
Ag2 S1 2.539657 1_555
Ag3 S0 2.443326 1_455
Ag3 S9 2.454711 1_565
Ag3 S2 2.492889 1_555
Ag3 S3 2.539657 1_555
