# generated using pymatgen
data_Nd3ZrSb5
_symmetry_space_group_name_H-M   'P 1'
_cell_length_a   9.61028807
_cell_length_b   9.61028669
_cell_length_c   6.25220446
_cell_angle_alpha   90.00003740
_cell_angle_beta   89.99997243
_cell_angle_gamma   119.99994637
_symmetry_Int_Tables_number   1
_chemical_formula_structural   Nd3ZrSb5
_chemical_formula_sum   'Nd6 Zr2 Sb10'
_cell_volume   500.07689317
_cell_formula_units_Z   2
loop_
 _symmetry_equiv_pos_site_id
 _symmetry_equiv_pos_as_xyz
  1  'x, y, z'
loop_
 _atom_site_type_symbol
 _atom_site_label
 _atom_site_symmetry_multiplicity
 _atom_site_fract_x
 _atom_site_fract_y
 _atom_site_fract_z
 _atom_site_occupancy
  Nd  Nd0  1  0.61938062  -0.00000001  0.25000016  1
  Nd  Nd1  1  0.38061937  0.00000007  0.74999978  1
  Nd  Nd2  1  0.00000010  0.61938065  0.25000010  1
  Nd  Nd3  1  -0.00000037  0.38061924  0.74999996  1
  Nd  Nd4  1  0.38061949  0.38061938  0.25000008  1
  Nd  Nd5  1  0.61938079  0.61938081  0.74999994  1
  Zr  Zr0  1  -0.00000003  -0.00000008  0.00000024  1
  Zr  Zr1  1  0.00000003  0.00000010  0.49999990  1
  Sb  Sb0  1  0.26239187  -0.00000040  0.24999998  1
  Sb  Sb1  1  0.73760807  0.00000020  0.74999988  1
  Sb  Sb2  1  -0.00000043  0.26239165  0.25000010  1
  Sb  Sb3  1  0.00000042  0.73760828  0.74999995  1
  Sb  Sb4  1  0.73760825  0.73760824  0.25000009  1
  Sb  Sb5  1  0.26239162  0.26239279  0.74999993  1
  Sb  Sb6  1  0.33333276  0.66666769  -0.00000004  1
  Sb  Sb7  1  0.66666736  0.33333234  0.00000004  1
  Sb  Sb8  1  0.66666736  0.33333231  0.49999995  1
  Sb  Sb9  1  0.33333273  0.66666775  0.49999996  1
loop_
_geom_bond_atom_site_label_1
_geom_bond_atom_site_label_2
_geom_bond_distance
_geom_bond_site_symmetry_2
Nd0 Sb4 3.242658 1_545
Nd0 Sb2 3.242658 1_655
Nd0 Sb1 3.326177 1_555
Nd0 Sb1 3.326180 1_554
Nd0 Sb8 3.384638 1_555
Nd0 Sb7 3.384640 1_555
Nd0 Sb9 3.384648 1_545
Nd0 Sb6 3.384648 1_545
Nd0 Sb0 3.430763 1_555
Nd1 Sb3 3.242659 1_545
Nd1 Sb5 3.242668 1_555
Nd1 Sb0 3.326178 1_555
Nd1 Sb0 3.326179 1_556
Nd1 Sb9 3.384638 1_545
Nd1 Sb6 3.384641 1_546
Nd1 Sb8 3.384648 1_555
Nd1 Sb7 3.384649 1_556
Nd1 Sb1 3.430764 1_555
Nd2 Sb0 3.242658 1_565
Nd2 Sb4 3.242659 1_455
Nd2 Sb3 3.326177 1_555
Nd2 Sb3 3.326180 1_554
Nd2 Sb9 3.384641 1_555
Nd2 Sb6 3.384641 1_555
Nd2 Sb8 3.384652 1_455
Nd2 Sb7 3.384652 1_455
Nd2 Sb2 3.430764 1_555
Nd3 Sb5 3.242652 1_555
Nd3 Sb1 3.242658 1_455
Nd3 Sb2 3.326178 1_555
Nd3 Sb2 3.326181 1_556
Nd3 Sb7 3.384638 1_456
Nd3 Sb8 3.384639 1_455
Nd3 Sb6 3.384654 1_556
Nd3 Sb9 3.384655 1_555
Nd3 Sb3 3.430763 1_555
Nd4 Sb0 3.242663 1_555
Nd4 Sb2 3.242665 1_555
Nd4 Sb5 3.326178 1_555
Nd4 Sb5 3.326179 1_554
Nd4 Sb7 3.384659 1_555
Nd4 Sb8 3.384660 1_555
Nd4 Sb9 3.384661 1_555
Nd4 Sb6 3.384663 1_555
Nd4 Sb4 3.430768 1_555
Nd5 Sb1 3.242661 1_565
Nd5 Sb3 3.242663 1_655
Nd5 Sb4 3.326178 1_555
Nd5 Sb4 3.326180 1_556
Nd5 Sb6 3.384659 1_556
Nd5 Sb8 3.384661 1_555
Nd5 Sb9 3.384661 1_555
Nd5 Sb7 3.384663 1_556
Nd5 Sb5 3.430766 1_555
Sb0 Zr1 2.966801 1_555
Sb0 Zr0 2.966802 1_555
Sb1 Zr1 2.966801 1_655
Sb1 Zr0 2.966804 1_656
Sb2 Zr0 2.966799 1_555
Sb2 Zr1 2.966800 1_555
Sb3 Zr0 2.966800 1_566
Sb3 Zr1 2.966802 1_565
Sb4 Zr0 2.966800 1_665
Sb4 Zr1 2.966801 1_665
Sb5 Zr1 2.966804 1_555
Sb5 Zr0 2.966807 1_556
Sb6 Sb9 3.126102 1_555
Sb6 Sb9 3.126102 1_554
Sb7 Sb8 3.126102 1_555
Sb7 Sb8 3.126103 1_554
