# generated using pymatgen
data_K4PSe3O16
_symmetry_space_group_name_H-M   'P 1'
_cell_length_a   7.62979900
_cell_length_b   7.85621056
_cell_length_c   7.88514763
_cell_angle_alpha   72.25737369
_cell_angle_beta   85.68888995
_cell_angle_gamma   87.02703044
_symmetry_Int_Tables_number   1
_chemical_formula_structural   K4PSe3O16
_chemical_formula_sum   'K4 P1 Se3 O16'
_cell_volume   448.68226442
_cell_formula_units_Z   1
loop_
 _symmetry_equiv_pos_site_id
 _symmetry_equiv_pos_as_xyz
  1  'x, y, z'
loop_
 _atom_site_type_symbol
 _atom_site_label
 _atom_site_symmetry_multiplicity
 _atom_site_fract_x
 _atom_site_fract_y
 _atom_site_fract_z
 _atom_site_occupancy
  K  K0  1  0.34466500  0.67944600  0.80791300  1
  K  K1  1  0.65570900  0.32031300  0.19576500  1
  K  K2  1  0.03380500  0.21059000  0.74600800  1
  K  K3  1  0.96952200  0.78884800  0.25310100  1
  P  P0  1  0.53205800  0.19748900  0.72532300  1
  Se  Se0  1  0.86527000  0.72857000  0.78237500  1
  Se  Se1  1  0.13401000  0.27089700  0.21889500  1
  Se  Se2  1  0.46556300  0.80386800  0.27326500  1
  O  O0  1  0.65703100  0.19804900  0.87067900  1
  O  O1  1  0.33613300  0.80896800  0.10971800  1
  O  O2  1  0.65377900  0.16462100  0.57228200  1
  O  O3  1  0.33666600  0.83809900  0.44354200  1
  O  O4  1  0.81269100  0.84499700  0.57092900  1
  O  O5  1  0.19177500  0.14604300  0.42684800  1
  O  O6  1  0.69040600  0.64654300  0.91196200  1
  O  O7  1  0.30913300  0.35235600  0.08787500  1
  O  O8  1  0.43270800  0.38100400  0.66541600  1
  O  O9  1  0.57036400  0.60334300  0.35097000  1
  O  O10  1  0.98840900  0.84405900  0.87002200  1
  O  O11  1  0.01036100  0.15757500  0.12875300  1
  O  O12  1  0.38695900  0.06002300  0.78672100  1
  O  O13  1  0.62268200  0.95473700  0.20158500  1
  O  O14  1  0.99220800  0.57063700  0.72203700  1
  O  O15  1  0.00809000  0.42892600  0.27801500  1
loop_
_geom_bond_atom_site_label_1
_geom_bond_atom_site_label_2
_geom_bond_distance
_geom_bond_site_symmetry_2
K0 O3 2.765490 1_555
K0 O6 2.797148 1_555
K0 O7 2.841638 1_556
K0 O1 2.854596 1_556
K0 O8 2.922294 1_555
K0 O12 2.976404 1_565
K0 O10 3.020256 1_455
K0 O14 3.047284 1_455
K1 O7 2.813911 1_555
K1 O2 2.844758 1_555
K1 O6 2.851711 1_554
K1 O9 2.873049 1_555
K1 O13 2.882227 1_545
K1 O0 2.998209 1_554
K1 O11 3.012262 1_655
K1 O15 3.035570 1_655
K2 O10 2.775665 1_445
K2 O14 2.779838 1_455
K2 O5 2.881252 1_555
K2 O12 2.886272 1_555
K2 O11 2.911056 1_556
K2 O0 2.964039 1_455
K3 O15 2.775690 1_655
K3 O11 2.786840 1_665
K3 O4 2.841695 1_555
K3 O13 2.889240 1_555
K3 O10 2.911294 1_554
K3 O1 2.930677 1_655
O0 P0 1.546189 1_555
O1 Se2 1.672043 1_555
O2 P0 1.543363 1_555
O3 Se2 1.684149 1_555
O4 Se0 1.705995 1_555
O5 Se1 1.711328 1_555
O6 Se0 1.649939 1_555
O7 Se1 1.655408 1_555
O8 P0 1.549747 1_555
O9 Se2 1.688569 1_555
O10 Se0 1.658844 1_555
O11 Se1 1.661766 1_555
O12 P0 1.533328 1_555
O13 Se2 1.672902 1_555
O14 Se0 1.694022 1_555
O15 Se1 1.686229 1_555
