# generated using pymatgen
data_Lu6Co30P19
_symmetry_space_group_name_H-M   'P 1'
_cell_length_a   3.54421200
_cell_length_b   14.61092952
_cell_length_c   14.61092952
_cell_angle_alpha   119.99999783
_cell_angle_beta   90.00000000
_cell_angle_gamma   90.00000000
_symmetry_Int_Tables_number   1
_chemical_formula_structural   Lu6Co30P19
_chemical_formula_sum   'Lu6 Co30 P19'
_cell_volume   655.24848361
_cell_formula_units_Z   1
loop_
 _symmetry_equiv_pos_site_id
 _symmetry_equiv_pos_as_xyz
  1  'x, y, z'
loop_
 _atom_site_type_symbol
 _atom_site_label
 _atom_site_symmetry_multiplicity
 _atom_site_fract_x
 _atom_site_fract_y
 _atom_site_fract_z
 _atom_site_occupancy
  Lu  Lu0  1  0.50000000  0.29539400  0.90261500  1
  Lu  Lu1  1  0.50000000  0.09738500  0.39277900  1
  Lu  Lu2  1  0.50000000  0.60722100  0.70460600  1
  Lu  Lu3  1  0.00000000  0.70455500  0.09787100  1
  Lu  Lu4  1  0.00000000  0.90212900  0.60668400  1
  Lu  Lu5  1  0.00000000  0.39331600  0.29544500  1
  Co  Co0  1  0.50000000  0.42757900  0.77561800  1
  Co  Co1  1  0.50000000  0.22438200  0.65196100  1
  Co  Co2  1  0.50000000  0.34803900  0.57242100  1
  Co  Co3  1  0.00000000  0.57352100  0.22479300  1
  Co  Co4  1  0.00000000  0.77520700  0.34872800  1
  Co  Co5  1  0.00000000  0.65127200  0.42647900  1
  Co  Co6  1  0.50000000  0.53751900  0.07426100  1
  Co  Co7  1  0.50000000  0.92573900  0.46325800  1
  Co  Co8  1  0.50000000  0.53674200  0.46248100  1
  Co  Co9  1  0.00000000  0.46085600  0.92604700  1
  Co  Co10  1  0.00000000  0.07395300  0.53480900  1
  Co  Co11  1  0.00000000  0.46519100  0.53914400  1
  Co  Co12  1  0.50000000  0.04344600  0.77304000  1
  Co  Co13  1  0.50000000  0.22696000  0.27040600  1
  Co  Co14  1  0.50000000  0.72959400  0.95655400  1
  Co  Co15  1  0.00000000  0.95021100  0.22504700  1
  Co  Co16  1  0.00000000  0.77495300  0.72516400  1
  Co  Co17  1  0.00000000  0.27483600  0.04978900  1
  Co  Co18  1  0.50000000  0.73465100  0.58315200  1
  Co  Co19  1  0.50000000  0.41684800  0.15149900  1
  Co  Co20  1  0.50000000  0.84850100  0.26534900  1
  Co  Co21  1  0.00000000  0.26550100  0.41367300  1
  Co  Co22  1  0.00000000  0.58632700  0.85182700  1
  Co  Co23  1  0.00000000  0.14817300  0.73449900  1
  Co  Co24  1  0.50000000  0.13072500  0.97270700  1
  Co  Co25  1  0.50000000  0.02729300  0.15801800  1
  Co  Co26  1  0.50000000  0.84198200  0.86927500  1
  Co  Co27  1  0.00000000  0.88787600  0.02427700  1
  Co  Co28  1  0.00000000  0.97572300  0.86359800  1
  Co  Co29  1  0.00000000  0.13640200  0.11212400  1
  P  P0  1  0.50000000  0.68313300  0.23181200  1
  P  P1  1  0.50000000  0.76818800  0.45132100  1
  P  P2  1  0.50000000  0.54867900  0.31686700  1
  P  P3  1  0.00000000  0.31402500  0.76738600  1
  P  P4  1  0.00000000  0.23261400  0.54664000  1
  P  P5  1  0.00000000  0.45336000  0.68597500  1
  P  P6  1  0.50000000  0.87966700  0.74289300  1
  P  P7  1  0.50000000  0.25710700  0.13677400  1
  P  P8  1  0.50000000  0.86322600  0.12033300  1
  P  P9  1  0.00000000  0.11981700  0.25523900  1
  P  P10  1  0.00000000  0.74476100  0.86457700  1
  P  P11  1  0.00000000  0.13542300  0.88018300  1
  P  P12  1  0.50000000  0.06027700  0.62850100  1
  P  P13  1  0.50000000  0.37149900  0.43177600  1
  P  P14  1  0.50000000  0.56822400  0.93972300  1
  P  P15  1  0.00000000  0.93745200  0.37035200  1
  P  P16  1  0.00000000  0.62964800  0.56710000  1
  P  P17  1  0.00000000  0.43290000  0.06254800  1
  P  P18  1  0.50000000  0.00000000  0.00000000  1
loop_
_geom_bond_atom_site_label_1
_geom_bond_atom_site_label_2
_geom_bond_distance
_geom_bond_site_symmetry_2
Lu0 P3 2.766981 1_655
Lu0 P3 2.766981 1_555
Lu0 P17 2.818247 1_556
Lu0 P17 2.818247 1_656
Lu0 P11 2.818653 1_555
Lu0 P11 2.818653 1_655
Lu1 P4 2.766987 1_555
Lu1 P4 2.766987 1_655
Lu1 P15 2.818247 1_645
Lu1 P15 2.818247 1_545
Lu1 P9 2.818664 1_655
Lu1 P9 2.818664 1_555
Lu2 P5 2.766992 1_655
Lu2 P5 2.766992 1_555
Lu2 P16 2.818247 1_655
Lu2 P16 2.818247 1_555
Lu2 P10 2.818658 1_555
Lu2 P10 2.818658 1_655
Lu3 P0 2.771411 1_455
Lu3 P0 2.771411 1_555
Lu3 P14 2.800837 1_454
Lu3 P14 2.800837 1_554
Lu3 P8 2.803903 1_455
Lu3 P8 2.803903 1_555
Lu4 P1 2.771411 1_455
Lu4 P1 2.771411 1_555
Lu4 P12 2.800837 1_465
Lu4 P12 2.800837 1_565
Lu4 P6 2.803903 1_455
Lu4 P6 2.803903 1_555
Lu5 P2 2.771411 1_455
Lu5 P2 2.771411 1_555
Lu5 P13 2.800837 1_555
Lu5 P13 2.800837 1_455
Lu5 P7 2.803903 1_455
Lu5 P7 2.803903 1_555
Co0 P14 2.246044 1_555
Co0 P5 2.343312 1_655
Co0 P5 2.343312 1_555
Co0 P3 2.389138 1_655
Co0 P3 2.389138 1_555
Co1 P12 2.246043 1_555
Co1 P3 2.343318 1_655
Co1 P3 2.343318 1_555
Co1 P4 2.389128 1_655
Co1 P4 2.389128 1_555
Co2 P13 2.246043 1_555
Co2 P4 2.343321 1_655
Co2 P4 2.343321 1_555
Co2 P5 2.389134 1_655
Co2 P5 2.389134 1_555
Co3 P17 2.229431 1_555
Co3 P0 2.356171 1_455
Co3 P0 2.356171 1_555
Co3 P2 2.360125 1_555
Co3 P2 2.360125 1_455
Co4 P15 2.229431 1_555
Co4 P1 2.356171 1_455
Co4 P1 2.356171 1_555
Co4 P0 2.360125 1_455
Co4 P0 2.360125 1_555
Co5 P16 2.229431 1_555
Co5 P2 2.356171 1_555
Co5 P2 2.356171 1_455
Co5 P1 2.360125 1_555
Co5 P1 2.360125 1_455
Co6 P0 2.219906 1_555
Co6 P14 2.224236 1_554
Co6 P17 2.290111 1_555
Co6 P17 2.290111 1_655
Co6 Lu3 2.893743 1_555
Co6 Lu3 2.893743 1_655
Co7 P1 2.219906 1_555
Co7 P12 2.224236 1_565
Co7 P15 2.290111 1_555
Co7 P15 2.290111 1_655
Co7 Lu4 2.893743 1_655
Co7 Lu4 2.893743 1_555
Co8 P2 2.219906 1_555
Co8 P13 2.224236 1_555
Co8 P16 2.290111 1_655
Co8 P16 2.290111 1_555
Co8 Lu5 2.893743 1_655
Co8 Lu5 2.893743 1_555
Co9 P17 2.226913 1_556
Co9 P3 2.236776 1_555
Co9 P14 2.308200 1_555
Co9 P14 2.308200 1_455
Co9 Lu0 2.876535 1_555
Co9 Lu0 2.876535 1_455
Co10 P15 2.226913 1_545
Co10 P4 2.236769 1_555
Co10 P12 2.308200 1_555
Co10 P12 2.308200 1_455
Co10 Lu1 2.876535 1_455
Co10 Lu1 2.876535 1_555
Co11 P16 2.226913 1_555
Co11 P5 2.236784 1_555
Co11 P13 2.308200 1_555
Co11 P13 2.308200 1_455
Co11 Lu2 2.876536 1_555
Co11 Lu2 2.876536 1_455
Co12 P6 2.205958 1_545
Co12 P12 2.244932 1_555
Co12 P11 2.300703 1_555
Co12 P11 2.300703 1_655
Co12 Lu4 2.879734 1_545
Co12 Lu4 2.879734 1_645
Co13 P7 2.205958 1_555
Co13 P13 2.244932 1_555
Co13 P9 2.300699 1_655
Co13 P9 2.300699 1_555
Co13 Lu5 2.879734 1_555
Co13 Lu5 2.879734 1_655
Co14 P8 2.205958 1_556
Co14 P14 2.244932 1_555
Co14 P10 2.300709 1_555
Co14 P10 2.300709 1_655
Co14 Lu3 2.879734 1_656
Co14 Lu3 2.879734 1_556
Co15 P15 2.222124 1_555
Co15 P8 2.269790 1_455
Co15 P8 2.269790 1_555
Co15 P9 2.289631 1_565
Co15 Lu1 2.915559 1_565
Co15 Lu1 2.915559 1_465
Co16 P16 2.222124 1_555
Co16 P6 2.269790 1_555
Co16 P6 2.269790 1_455
Co16 P10 2.289617 1_555
Co16 Lu2 2.915559 1_455
Co16 Lu2 2.915559 1_555
Co17 P17 2.222124 1_555
Co17 P7 2.269790 1_455
Co17 P7 2.269790 1_555
Co17 P11 2.289626 1_554
Co17 Lu0 2.915559 1_454
Co17 Lu0 2.915559 1_554
Co18 P1 2.212259 1_555
Co18 P6 2.234174 1_555
Co18 P16 2.278001 1_555
Co18 P16 2.278001 1_655
Co18 Lu4 2.899153 1_555
Co18 Lu4 2.899153 1_655
Co19 P2 2.212259 1_555
Co19 P7 2.234174 1_555
Co19 P17 2.278001 1_655
Co19 P17 2.278001 1_555
Co19 Lu5 2.899153 1_555
Co19 Lu5 2.899153 1_655
Co20 P0 2.212259 1_555
Co20 P8 2.234174 1_555
Co20 P15 2.278001 1_555
Co20 P15 2.278001 1_655
Co20 Lu3 2.899153 1_655
Co20 Lu3 2.899153 1_555
Co21 P4 2.222335 1_555
Co21 P9 2.227573 1_555
Co21 P13 2.280185 1_455
Co21 P13 2.280185 1_555
Co21 Lu1 2.918432 1_455
Co21 Lu1 2.918432 1_555
Co22 P5 2.222316 1_555
Co22 P10 2.227573 1_555
Co22 P14 2.280194 1_455
Co22 P14 2.280194 1_555
Co22 Lu2 2.918421 1_555
Co22 Lu2 2.918421 1_455
Co23 P3 2.222306 1_555
Co23 P11 2.227573 1_555
Co23 P12 2.280188 1_455
Co23 P12 2.280188 1_555
Co23 Lu0 2.918428 1_455
Co23 Lu0 2.918428 1_555
Co24 P18 2.137485 1_556
Co24 P7 2.174786 1_556
Co24 P11 2.250643 1_655
Co24 P11 2.250643 1_555
Co25 P18 2.137485 1_555
Co25 P8 2.174785 1_545
Co25 P9 2.250639 1_655
Co25 P9 2.250639 1_555
Co26 P18 2.137485 1_566
Co26 P6 2.174785 1_555
Co26 P10 2.250634 1_555
Co26 P10 2.250634 1_655
Co27 P10 2.222136 1_554
Co27 P8 2.396929 1_455
Co27 P8 2.396929 1_555
Co27 P18 2.555600 1_565
Co27 P18 2.555600 1_465
Co28 P11 2.222136 1_565
Co28 P6 2.396922 1_555
Co28 P6 2.396922 1_455
Co28 P18 2.555611 1_566
Co28 P18 2.555611 1_466
Co29 P9 2.222136 1_555
Co29 P7 2.396919 1_555
Co29 P7 2.396919 1_455
Co29 P18 2.555607 1_555
Co29 P18 2.555607 1_455
