# generated using pymatgen
data_Sc11Ge10
_symmetry_space_group_name_H-M   'P 1'
_cell_length_a   10.56845880
_cell_length_b   10.56845880
_cell_length_c   10.56845880
_cell_angle_alpha   121.73340985
_cell_angle_beta   121.73340985
_cell_angle_gamma   87.02298375
_symmetry_Int_Tables_number   1
_chemical_formula_structural   Sc11Ge10
_chemical_formula_sum   'Sc22 Ge20'
_cell_volume   811.61946631
_cell_formula_units_Z   2
loop_
 _symmetry_equiv_pos_site_id
 _symmetry_equiv_pos_as_xyz
  1  'x, y, z'
loop_
 _atom_site_type_symbol
 _atom_site_label
 _atom_site_symmetry_multiplicity
 _atom_site_fract_x
 _atom_site_fract_y
 _atom_site_fract_z
 _atom_site_occupancy
  Sc  Sc0  1  0.81050920  0.06247838  0.25196918  1
  Sc  Sc1  1  0.81050920  0.55854102  0.74803082  1
  Sc  Sc2  1  0.06247838  0.81050920  0.25196918  1
  Sc  Sc3  1  0.55854102  0.81050920  0.74803082  1
  Sc  Sc4  1  0.18949080  0.93752162  0.74803082  1
  Sc  Sc5  1  0.18949080  0.44145898  0.25196918  1
  Sc  Sc6  1  0.93752162  0.18949080  0.74803082  1
  Sc  Sc7  1  0.44145898  0.18949080  0.25196918  1
  Sc  Sc8  1  0.17620013  0.17620013  0.35239925  1
  Sc  Sc9  1  0.82379987  0.82379987  0.64760075  1
  Sc  Sc10  1  0.17620013  0.82379987  0.00000000  1
  Sc  Sc11  1  0.82379987  0.17620013  0.00000000  1
  Sc  Sc12  1  0.66234089  0.66234089  -0.00000000  1
  Sc  Sc13  1  0.33765911  0.33765911  0.00000000  1
  Sc  Sc14  1  0.60166136  0.92970617  0.32804581  1
  Sc  Sc15  1  0.60166136  0.27361455  0.67195419  1
  Sc  Sc16  1  0.92970617  0.60166136  0.32804581  1
  Sc  Sc17  1  0.27361455  0.60166136  0.67195419  1
  Sc  Sc18  1  0.39833864  0.07029383  0.67195419  1
  Sc  Sc19  1  0.39833864  0.72638545  0.32804581  1
  Sc  Sc20  1  0.07029383  0.39833864  0.67195419  1
  Sc  Sc21  1  0.72638545  0.39833864  0.32804581  1
  Ge  Ge0  1  0.35639461  -0.00000000  0.35639461  1
  Ge  Ge1  1  0.64360539  0.00000000  0.64360539  1
  Ge  Ge2  1  0.00000000  0.64360539  0.64360539  1
  Ge  Ge3  1  -0.00000000  0.35639461  0.35639461  1
  Ge  Ge4  1  0.88452232  0.88452232  -0.00000000  1
  Ge  Ge5  1  0.11547768  0.11547768  0.00000000  1
  Ge  Ge6  1  0.37543901  0.37543901  0.75087902  1
  Ge  Ge7  1  0.62456099  0.62456099  0.24912098  1
  Ge  Ge8  1  0.37543901  0.62456099  -0.00000000  1
  Ge  Ge9  1  0.62456099  0.37543901  0.00000000  1
  Ge  Ge10  1  0.75000000  0.25000000  0.50000000  1
  Ge  Ge11  1  0.25000000  0.75000000  0.50000000  1
  Ge  Ge12  1  0.88558035  0.88558035  0.41380346  1
  Ge  Ge13  1  0.47177789  0.47177789  0.58619654  1
  Ge  Ge14  1  0.88558035  0.47177789  0.00000000  1
  Ge  Ge15  1  0.47177789  0.88558035  -0.00000000  1
  Ge  Ge16  1  0.11441965  0.11441965  0.58619654  1
  Ge  Ge17  1  0.52822211  0.52822211  0.41380346  1
  Ge  Ge18  1  0.11441965  0.52822211  -0.00000000  1
  Ge  Ge19  1  0.52822211  0.11441965  -0.00000000  1
loop_
_geom_bond_atom_site_label_1
_geom_bond_atom_site_label_2
_geom_bond_distance
_geom_bond_site_symmetry_2
Ge0 Sc10 2.593427 1_545
Ge0 Sc8 2.593427 1_555
Ge0 Sc19 2.782680 1_545
Ge0 Sc15 2.782686 1_555
Ge0 Sc18 2.782687 1_555
Ge0 Sc14 2.782692 1_545
Ge0 Sc7 3.097139 1_555
Ge0 Sc2 3.097145 1_545
Ge1 Sc11 2.593427 1_556
Ge1 Sc9 2.593427 1_545
Ge1 Sc15 2.782680 1_555
Ge1 Sc19 2.782686 1_545
Ge1 Sc14 2.782687 1_545
Ge1 Sc18 2.782692 1_555
Ge1 Sc3 3.097139 1_545
Ge1 Sc6 3.097145 1_555
Ge2 Sc10 2.593427 1_556
Ge2 Sc9 2.593427 1_455
Ge2 Sc17 2.782680 1_555
Ge2 Sc21 2.782686 1_455
Ge2 Sc16 2.782687 1_455
Ge2 Sc20 2.782692 1_555
Ge2 Sc1 3.097139 1_455
Ge2 Sc4 3.097145 1_555
Ge3 Sc11 2.593427 1_455
Ge3 Sc8 2.593427 1_555
Ge3 Sc21 2.782680 1_455
Ge3 Sc17 2.782686 1_555
Ge3 Sc20 2.782687 1_555
Ge3 Sc16 2.782692 1_455
Ge3 Sc5 3.097139 1_555
Ge3 Sc0 3.097145 1_455
Ge4 Sc3 2.830210 1_554
Ge4 Sc1 2.830210 1_554
Ge4 Sc0 2.830218 1_565
Ge4 Sc2 2.830218 1_655
Ge4 Sc9 3.115866 1_554
Ge4 Sc8 3.115874 1_665
Ge4 Sc10 3.115876 1_655
Ge4 Sc11 3.115876 1_565
Ge4 Sc12 3.405877 1_555
Ge5 Sc7 2.830210 1_555
Ge5 Sc5 2.830210 1_555
Ge5 Sc4 2.830218 1_544
Ge5 Sc6 2.830218 1_454
Ge5 Sc8 3.115866 1_555
Ge5 Sc9 3.115874 1_444
Ge5 Sc11 3.115876 1_455
Ge5 Sc10 3.115876 1_545
Ge5 Sc13 3.405877 1_555
Ge6 Ge8 2.563550 1_556
Ge6 Ge9 2.563550 1_556
Ge6 Sc8 2.899492 1_555
Ge6 Sc20 2.907924 1_555
Ge6 Sc18 2.907924 1_555
Ge6 Sc15 2.907944 1_555
Ge6 Sc17 2.907944 1_555
Ge6 Sc13 3.078766 1_556
Ge6 Sc12 3.078779 1_556
Ge7 Ge8 2.563550 1_555
Ge7 Ge9 2.563550 1_555
Ge7 Sc9 2.899492 1_555
Ge7 Sc14 2.907924 1_555
Ge7 Sc16 2.907924 1_555
Ge7 Sc19 2.907944 1_555
Ge7 Sc21 2.907944 1_555
Ge7 Sc12 3.078766 1_555
Ge7 Sc13 3.078779 1_555
Ge8 Sc10 2.899477 1_555
Ge8 Sc20 2.907931 1_554
Ge8 Sc14 2.907931 1_555
Ge8 Sc19 2.907934 1_555
Ge8 Sc17 2.907934 1_554
Ge8 Sc12 3.078777 1_555
Ge8 Sc13 3.078777 1_555
Ge9 Sc11 2.899477 1_555
Ge9 Sc18 2.907931 1_554
Ge9 Sc16 2.907931 1_555
Ge9 Sc21 2.907934 1_555
Ge9 Sc15 2.907934 1_554
Ge9 Sc12 3.078777 1_555
Ge9 Sc13 3.078777 1_555
Ge10 Sc0 2.715648 1_555
Ge10 Sc6 2.715648 1_555
Ge10 Sc7 2.715655 1_555
Ge10 Sc1 2.715655 1_555
Ge10 Sc15 2.881278 1_555
Ge10 Sc21 2.881278 1_555
Ge10 Sc14 2.881284 1_545
Ge10 Sc20 2.881284 1_655
Ge11 Sc4 2.715648 1_555
Ge11 Sc2 2.715648 1_555
Ge11 Sc5 2.715655 1_555
Ge11 Sc3 2.715655 1_555
Ge11 Sc17 2.881278 1_555
Ge11 Sc19 2.881278 1_555
Ge11 Sc16 2.881284 1_455
Ge11 Sc18 2.881284 1_565
Ge12 Ge16 2.520867 1_665
Ge12 Sc16 2.735129 1_555
Ge12 Sc14 2.735129 1_555
Ge12 Sc2 2.971870 1_655
Ge12 Sc0 2.971870 1_565
Ge12 Ge7 2.989656 1_555
Ge12 Sc12 3.021391 1_555
Ge12 Sc4 3.050144 1_655
Ge12 Sc6 3.050144 1_565
Ge12 Sc9 3.224330 1_555
Ge13 Ge17 2.520840 1_555
Ge13 Sc17 2.735149 1_555
Ge13 Sc15 2.735149 1_555
Ge13 Sc3 2.971860 1_555
Ge13 Sc1 2.971860 1_555
Ge13 Ge6 2.989684 1_555
Ge13 Sc12 3.021392 1_556
Ge13 Sc5 3.050138 1_555
Ge13 Sc7 3.050138 1_555
Ge13 Sc8 3.224329 1_555
Ge14 Ge18 2.520861 1_655
Ge14 Sc15 2.735136 1_554
Ge14 Sc16 2.735139 1_555
Ge14 Sc2 2.971862 1_655
Ge14 Sc1 2.971870 1_554
Ge14 Ge9 2.989665 1_555
Ge14 Sc12 3.021384 1_555
Ge14 Sc6 3.050149 1_554
Ge14 Sc5 3.050155 1_655
Ge14 Sc11 3.224330 1_555
Ge15 Ge19 2.520861 1_565
Ge15 Sc17 2.735136 1_554
Ge15 Sc14 2.735139 1_555
Ge15 Sc0 2.971862 1_565
Ge15 Sc3 2.971870 1_554
Ge15 Ge8 2.989665 1_555
Ge15 Sc12 3.021384 1_555
Ge15 Sc4 3.050149 1_554
Ge15 Sc7 3.050155 1_565
Ge15 Sc10 3.224330 1_555
Ge16 Sc20 2.735129 1_555
Ge16 Sc18 2.735129 1_555
Ge16 Sc6 2.971870 1_455
Ge16 Sc4 2.971870 1_545
Ge16 Ge6 2.989656 1_555
Ge16 Sc13 3.021391 1_556
Ge16 Sc0 3.050144 1_455
Ge16 Sc2 3.050144 1_545
Ge16 Sc8 3.224330 1_555
Ge17 Sc19 2.735149 1_555
Ge17 Sc21 2.735149 1_555
Ge17 Sc7 2.971860 1_555
Ge17 Sc5 2.971860 1_555
Ge17 Ge7 2.989684 1_555
Ge17 Sc13 3.021392 1_555
Ge17 Sc3 3.050138 1_555
Ge17 Sc1 3.050138 1_555
Ge17 Sc9 3.224329 1_555
Ge18 Sc19 2.735136 1_555
Ge18 Sc20 2.735139 1_554
Ge18 Sc6 2.971862 1_454
Ge18 Sc5 2.971870 1_555
Ge18 Ge8 2.989665 1_555
Ge18 Sc13 3.021384 1_555
Ge18 Sc2 3.050149 1_555
Ge18 Sc1 3.050155 1_454
Ge18 Sc10 3.224330 1_555
Ge19 Sc21 2.735136 1_555
Ge19 Sc18 2.735139 1_554
Ge19 Sc4 2.971862 1_544
Ge19 Sc7 2.971870 1_555
Ge19 Ge9 2.989665 1_555
Ge19 Sc13 3.021384 1_555
Ge19 Sc0 3.050149 1_555
Ge19 Sc3 3.050155 1_544
Ge19 Sc11 3.224330 1_555
