# generated using pymatgen
data_CaZn2(PO5)2
_symmetry_space_group_name_H-M   'P 1'
_cell_length_a   9.56812857
_cell_length_b   9.56812857
_cell_length_c   6.72563640
_cell_angle_alpha   73.29364796
_cell_angle_beta   73.29364796
_cell_angle_gamma   46.81752523
_symmetry_Int_Tables_number   1
_chemical_formula_structural   CaZn2(PO5)2
_chemical_formula_sum   'Ca2 Zn4 P4 O20'
_cell_volume   426.37734448
_cell_formula_units_Z   2
loop_
 _symmetry_equiv_pos_site_id
 _symmetry_equiv_pos_as_xyz
  1  'x, y, z'
loop_
 _atom_site_type_symbol
 _atom_site_label
 _atom_site_symmetry_multiplicity
 _atom_site_fract_x
 _atom_site_fract_y
 _atom_site_fract_z
 _atom_site_occupancy
  Ca  Ca0  1  0.38394500  0.61605500  0.25000000  1
  Ca  Ca1  1  0.61605500  0.38394500  0.75000000  1
  Zn  Zn0  1  0.20831100  0.22103000  0.52888800  1
  Zn  Zn1  1  0.77897000  0.79168900  0.97111200  1
  Zn  Zn2  1  0.79168900  0.77897000  0.47111200  1
  Zn  Zn3  1  0.22103000  0.20831100  0.02888800  1
  P  P0  1  0.82990200  0.46684600  0.32674900  1
  P  P1  1  0.53315400  0.17009800  0.17325100  1
  P  P2  1  0.17009800  0.53315400  0.67325100  1
  P  P3  1  0.46684600  0.82990200  0.82674900  1
  O  O0  1  0.64064500  0.50245300  0.38942400  1
  O  O1  1  0.49754700  0.35935500  0.11057600  1
  O  O2  1  0.35935500  0.49754700  0.61057600  1
  O  O3  1  0.50245300  0.64064500  0.88942400  1
  O  O4  1  0.78070400  0.66858300  0.26858400  1
  O  O5  1  0.33141700  0.21929600  0.23141600  1
  O  O6  1  0.21929600  0.33141700  0.73141600  1
  O  O7  1  0.66858300  0.78070400  0.76858400  1
  O  O8  1  0.05049000  0.64507700  0.86258100  1
  O  O9  1  0.35492300  0.94951000  0.63741900  1
  O  O10  1  0.94951000  0.35492300  0.13741900  1
  O  O11  1  0.64507700  0.05049000  0.36258100  1
  O  O12  1  0.03737200  0.91814100  0.04650700  1
  O  O13  1  0.08185900  0.96262800  0.45349300  1
  O  O14  1  0.96262800  0.08185900  0.95349300  1
  O  O15  1  0.91814100  0.03737200  0.54650700  1
  O  O16  1  0.93402900  0.35983200  0.52687000  1
  O  O17  1  0.64016800  0.06597100  0.97313000  1
  O  O18  1  0.06597100  0.64016800  0.47313000  1
  O  O19  1  0.35983200  0.93402900  0.02687000  1
loop_
_geom_bond_atom_site_label_1
_geom_bond_atom_site_label_2
_geom_bond_distance
_geom_bond_site_symmetry_2
Ca0 O1 2.275446 1_555
Ca0 O0 2.275446 1_555
Ca0 O2 2.382925 1_555
Ca0 O3 2.382925 1_554
Ca0 O19 2.859191 1_555
Ca0 O18 2.859191 1_555
Ca0 O12 2.905266 1_555
Ca0 O13 2.905266 1_555
Ca1 O2 2.275446 1_555
Ca1 O3 2.275446 1_555
Ca1 O0 2.382925 1_555
Ca1 O1 2.382925 1_556
Ca1 O17 2.859191 1_555
Ca1 O16 2.859191 1_555
Ca1 O15 2.905266 1_555
Ca1 O14 2.905266 1_555
O0 P0 1.540202 1_555
O1 P1 1.540202 1_555
O2 P2 1.540202 1_555
O3 P3 1.540202 1_555
O4 P0 1.590162 1_555
O4 Zn1 2.006966 1_554
O4 Zn2 2.010818 1_555
O5 P1 1.590162 1_555
O5 Zn0 2.006966 1_555
O5 Zn3 2.010818 1_555
O6 P2 1.590162 1_555
O6 Zn3 2.006966 1_556
O6 Zn0 2.010818 1_555
O7 P3 1.590162 1_555
O7 Zn2 2.006966 1_555
O7 Zn1 2.010818 1_555
O8 P2 1.531924 1_555
O8 Zn1 1.939200 1_455
O9 P3 1.531924 1_555
O9 Zn0 1.939200 1_565
O10 P0 1.531924 1_555
O10 Zn3 1.939200 1_655
O11 P1 1.531924 1_555
O11 Zn2 1.939200 1_545
O12 O14 1.231742 1_464
O13 O15 1.231742 1_465
O16 P0 1.560452 1_555
O16 Zn0 1.972600 1_655
O17 P1 1.560452 1_556
O17 Zn1 1.972600 1_545
O18 P2 1.560452 1_555
O18 Zn2 1.972600 1_455
O19 P3 1.560452 1_554
O19 Zn3 1.972600 1_565
