# generated using pymatgen
data_BC3
_symmetry_space_group_name_H-M   'P 1'
_cell_length_a   6.35238294
_cell_length_b   6.35238294
_cell_length_c   6.35238294
_cell_angle_alpha   109.47122063
_cell_angle_beta   109.47122063
_cell_angle_gamma   109.47122063
_symmetry_Int_Tables_number   1
_chemical_formula_structural   BC3
_chemical_formula_sum   'B8 C24'
_cell_volume   197.32773063
_cell_formula_units_Z   8
loop_
 _symmetry_equiv_pos_site_id
 _symmetry_equiv_pos_as_xyz
  1  'x, y, z'
loop_
 _atom_site_type_symbol
 _atom_site_label
 _atom_site_symmetry_multiplicity
 _atom_site_fract_x
 _atom_site_fract_y
 _atom_site_fract_z
 _atom_site_occupancy
  B  B0  1  0.20563200  0.00000000  0.00000000  1
  B  B1  1  0.00000000  0.00000000  0.51579400  1
  B  B2  1  0.00000000  0.51579400  0.00000000  1
  B  B3  1  0.00000000  0.20563200  0.00000000  1
  B  B4  1  0.51579400  0.00000000  0.00000000  1
  B  B5  1  0.00000000  0.00000000  0.20563200  1
  B  B6  1  0.48420600  0.48420600  0.48420600  1
  B  B7  1  0.79436800  0.79436800  0.79436800  1
  C  C0  1  0.73273700  0.73273700  0.00000000  1
  C  C1  1  0.50636200  0.50636200  0.24841100  1
  C  C2  1  0.00000000  0.26726300  0.26726300  1
  C  C3  1  0.00000000  0.73273700  0.73273700  1
  C  C4  1  0.50636200  0.24841100  0.50636200  1
  C  C5  1  0.49363800  0.00000000  0.74204800  1
  C  C6  1  0.25795100  0.75158900  0.25795100  1
  C  C7  1  0.26726300  0.26726300  0.00000000  1
  C  C8  1  0.50000000  0.25000000  0.75000000  1
  C  C9  1  0.24841100  0.50636200  0.50636200  1
  C  C10  1  0.75158900  0.25795100  0.25795100  1
  C  C11  1  0.74204800  0.49363800  0.00000000  1
  C  C12  1  0.50000000  0.75000000  0.25000000  1
  C  C13  1  0.00000000  0.74204800  0.49363800  1
  C  C14  1  0.00000000  0.49363800  0.74204800  1
  C  C15  1  0.25795100  0.25795100  0.75158900  1
  C  C16  1  0.74204800  0.00000000  0.49363800  1
  C  C17  1  0.49363800  0.74204800  0.00000000  1
  C  C18  1  0.26726300  0.00000000  0.26726300  1
  C  C19  1  0.75000000  0.50000000  0.25000000  1
  C  C20  1  0.25000000  0.75000000  0.50000000  1
  C  C21  1  0.25000000  0.50000000  0.75000000  1
  C  C22  1  0.73273700  0.00000000  0.73273700  1
  C  C23  1  0.75000000  0.25000000  0.50000000  1
loop_
_geom_bond_atom_site_label_1
_geom_bond_atom_site_label_2
_geom_bond_distance
_geom_bond_site_symmetry_2
B0 C18 1.610135 1_555
B0 C7 1.610135 1_555
B0 C3 1.610135 1_544
B1 C15 1.597211 1_555
B1 C13 1.597217 1_545
B1 C16 1.597217 1_455
B2 C6 1.597211 1_555
B2 C11 1.597217 1_455
B2 C14 1.597217 1_554
B3 C7 1.610135 1_555
B3 C2 1.610135 1_555
B3 C22 1.610135 1_454
B4 C10 1.597211 1_555
B4 C5 1.597217 1_554
B4 C17 1.597217 1_545
B5 C18 1.610135 1_555
B5 C2 1.610135 1_555
B5 C0 1.610135 1_445
B6 C4 1.597211 1_555
B6 C1 1.597211 1_555
B6 C9 1.597211 1_555
B7 C3 1.610135 1_655
B7 C0 1.610135 1_556
B7 C22 1.610135 1_565
C0 C11 1.539574 1_555
C0 C17 1.539574 1_555
C1 C7 1.539577 1_555
C1 C12 1.558400 1_555
C1 C19 1.558400 1_555
C2 C9 1.539577 1_555
C4 C8 1.558400 1_555
C5 C8 1.558398 1_555
C10 C2 1.539577 1_655
C10 C19 1.558400 1_555
C10 C23 1.558400 1_555
C11 C8 1.558398 1_554
C11 C19 1.558398 1_555
C12 C17 1.558398 1_555
C12 C16 1.558398 1_565
C12 C6 1.558400 1_555
C13 C3 1.539574 1_555
C13 C20 1.558398 1_555
C13 C19 1.558398 1_455
C14 C3 1.539574 1_555
C14 C23 1.558398 1_455
C14 C21 1.558398 1_555
C15 C7 1.539577 1_556
C15 C21 1.558400 1_555
C15 C8 1.558400 1_555
C16 C22 1.539574 1_555
C16 C23 1.558398 1_555
C17 C21 1.558398 1_554
C18 C4 1.539577 1_555
C18 C6 1.539577 1_545
C20 C5 1.558398 1_565
C20 C6 1.558400 1_555
C20 C9 1.558400 1_555
C21 C9 1.558400 1_555
C22 C5 1.539574 1_555
C23 C4 1.558400 1_555
