# generated using pymatgen
data_MoW3(SeS)4
_symmetry_space_group_name_H-M   'P 1'
_cell_length_a   3.25403974
_cell_length_b   3.25403974
_cell_length_c   36.91877600
_cell_angle_alpha   90.00000000
_cell_angle_beta   90.00000000
_cell_angle_gamma   119.99999463
_symmetry_Int_Tables_number   1
_chemical_formula_structural   MoW3(SeS)4
_chemical_formula_sum   'Mo1 W3 Se4 S4'
_cell_volume   338.55065087
_cell_formula_units_Z   1
loop_
 _symmetry_equiv_pos_site_id
 _symmetry_equiv_pos_as_xyz
  1  'x, y, z'
loop_
 _atom_site_type_symbol
 _atom_site_label
 _atom_site_symmetry_multiplicity
 _atom_site_fract_x
 _atom_site_fract_y
 _atom_site_fract_z
 _atom_site_occupancy
  Mo  Mo0  1  0.00000000  0.00000000  0.09391800  1
  W  W0  1  0.00000000  0.00000000  0.46965800  1
  W  W1  1  0.33333300  0.66666700  0.28179200  1
  W  W2  1  0.33333300  0.66666700  0.65754400  1
  Se  Se0  1  0.00000000  0.00000000  0.32807500  1
  Se  Se1  1  0.00000000  0.00000000  0.70386200  1
  Se  Se2  1  0.00000000  0.00000000  0.23549300  1
  Se  Se3  1  0.00000000  0.00000000  0.61124100  1
  S  S0  1  0.33333300  0.66666700  0.05203500  1
  S  S1  1  0.33333300  0.66666700  0.42770600  1
  S  S2  1  0.33333300  0.66666700  0.13580500  1
  S  S3  1  0.33333300  0.66666700  0.51161900  1
loop_
_geom_bond_atom_site_label_1
_geom_bond_atom_site_label_2
_geom_bond_distance
_geom_bond_site_symmetry_2
Mo0 S0 2.433214 1_545
Mo0 S0 2.433217 1_555
Mo0 S0 2.433217 1_445
Mo0 S2 2.433308 1_545
Mo0 S2 2.433311 1_555
Mo0 S2 2.433311 1_445
Se0 W1 2.539543 1_545
Se0 W1 2.539545 1_555
Se0 W1 2.539545 1_445
Se1 W2 2.540413 1_545
Se1 W2 2.540415 1_445
Se1 W2 2.540415 1_555
Se2 W1 2.539941 1_545
Se2 W1 2.539943 1_445
Se2 W1 2.539943 1_555
Se3 W2 2.540040 1_545
Se3 W2 2.540042 1_555
Se3 W2 2.540042 1_445
S1 W0 2.434834 1_565
S1 W0 2.434836 1_555
S1 W0 2.434836 1_665
S3 W0 2.435045 1_565
S3 W0 2.435048 1_555
S3 W0 2.435048 1_665
