# generated using pymatgen
data_Nb2Ni2O9
_symmetry_space_group_name_H-M   'P 1'
_cell_length_a   4.84656886
_cell_length_b   4.84656886
_cell_length_c   14.21809000
_cell_angle_alpha   90.00000000
_cell_angle_beta   90.00000000
_cell_angle_gamma   120.00001171
_symmetry_Int_Tables_number   1
_chemical_formula_structural   Nb2Ni2O9
_chemical_formula_sum   'Nb4 Ni4 O18'
_cell_volume   289.22818630
_cell_formula_units_Z   2
loop_
 _symmetry_equiv_pos_site_id
 _symmetry_equiv_pos_as_xyz
  1  'x, y, z'
loop_
 _atom_site_type_symbol
 _atom_site_label
 _atom_site_symmetry_multiplicity
 _atom_site_fract_x
 _atom_site_fract_y
 _atom_site_fract_z
 _atom_site_occupancy
  Nb  Nb0  1  0.00000000  0.00000000  0.65879700  1
  Nb  Nb1  1  0.00000000  0.00000000  0.15879700  1
  Nb  Nb2  1  0.00000000  0.00000000  0.84120300  1
  Nb  Nb3  1  0.00000000  0.00000000  0.34120300  1
  Ni  Ni0  1  0.33333300  0.66666700  0.00000000  1
  Ni  Ni1  1  0.33333300  0.66666700  0.50000000  1
  Ni  Ni2  1  0.66666700  0.33333300  0.00000000  1
  Ni  Ni3  1  0.66666700  0.33333300  0.50000000  1
  O  O0  1  0.64490200  0.64490200  0.57455300  1
  O  O1  1  0.00000000  0.70002800  0.75000000  1
  O  O2  1  0.64490200  0.00000000  0.42544700  1
  O  O3  1  0.35509800  0.35509800  0.42544700  1
  O  O4  1  0.00000000  0.35509800  0.57455300  1
  O  O5  1  0.70002800  0.70002800  0.25000000  1
  O  O6  1  0.00000000  0.35509800  0.92544700  1
  O  O7  1  0.35509800  0.00000000  0.57455300  1
  O  O8  1  0.35509800  0.35509800  0.07455300  1
  O  O9  1  0.00000000  0.64490200  0.42544700  1
  O  O10  1  0.64490200  0.64490200  0.92544700  1
  O  O11  1  0.64490200  0.00000000  0.07455300  1
  O  O12  1  0.70002800  0.00000000  0.75000000  1
  O  O13  1  0.29997200  0.29997200  0.75000000  1
  O  O14  1  0.29997200  0.00000000  0.25000000  1
  O  O15  1  0.00000000  0.64490200  0.07455300  1
  O  O16  1  0.00000000  0.29997200  0.25000000  1
  O  O17  1  0.35509800  0.00000000  0.92544700  1
loop_
_geom_bond_atom_site_label_1
_geom_bond_atom_site_label_2
_geom_bond_distance
_geom_bond_site_symmetry_2
Nb0 O13 1.948115 1_555
Nb0 O1 1.948115 1_545
Nb0 O12 1.948115 1_455
Nb0 O0 2.096798 1_445
Nb0 O7 2.096798 1_555
Nb0 O4 2.096798 1_555
Nb1 O5 1.948115 1_445
Nb1 O16 1.948115 1_555
Nb1 O14 1.948115 1_555
Nb1 O8 2.096798 1_555
Nb1 O15 2.096798 1_545
Nb1 O11 2.096798 1_455
Nb2 O13 1.948115 1_555
Nb2 O1 1.948115 1_545
Nb2 O12 1.948115 1_455
Nb2 O10 2.096798 1_445
Nb2 O6 2.096798 1_555
Nb2 O17 2.096798 1_555
Nb3 O5 1.948115 1_445
Nb3 O16 1.948115 1_555
Nb3 O14 1.948115 1_555
Nb3 O3 2.096798 1_555
Nb3 O9 2.096798 1_545
Nb3 O2 2.096798 1_455
Ni0 O15 1.890562 1_555
Ni0 O17 1.890562 1_564
Ni0 O11 1.890564 1_565
Ni0 O6 1.890564 1_554
Ni0 O8 1.890566 1_555
Ni0 O10 1.890566 1_554
Ni1 O7 1.890562 1_565
Ni1 O9 1.890562 1_555
Ni1 O4 1.890564 1_555
Ni1 O2 1.890564 1_565
Ni1 O0 1.890566 1_555
Ni1 O3 1.890566 1_555
Ni2 O11 1.890562 1_555
Ni2 O6 1.890562 1_654
Ni2 O15 1.890564 1_655
Ni2 O17 1.890564 1_554
Ni2 O8 1.890566 1_555
Ni2 O10 1.890566 1_554
Ni3 O4 1.890562 1_655
Ni3 O2 1.890562 1_555
Ni3 O7 1.890564 1_555
Ni3 O9 1.890564 1_655
Ni3 O0 1.890566 1_555
Ni3 O3 1.890566 1_555
