# generated using pymatgen
data_PrCO4
_symmetry_space_group_name_H-M   'P 1'
_cell_length_a   5.00660164
_cell_length_b   7.44045528
_cell_length_c   8.17906329
_cell_angle_alpha   90.00000000
_cell_angle_beta   90.00000000
_cell_angle_gamma   90.00000000
_symmetry_Int_Tables_number   1
_chemical_formula_structural   PrCO4
_chemical_formula_sum   'Pr4 C4 O16'
_cell_volume   304.68152231
_cell_formula_units_Z   4
loop_
 _symmetry_equiv_pos_site_id
 _symmetry_equiv_pos_as_xyz
  1  'x, y, z'
loop_
 _atom_site_type_symbol
 _atom_site_label
 _atom_site_symmetry_multiplicity
 _atom_site_fract_x
 _atom_site_fract_y
 _atom_site_fract_z
 _atom_site_occupancy
  Pr  Pr0  1  0.25000000  0.35921840  0.32900252  1
  Pr  Pr1  1  0.25000000  0.85921840  0.17099748  1
  Pr  Pr2  1  0.75000000  0.64078160  0.67099748  1
  Pr  Pr3  1  0.75000000  0.14078160  0.82900252  1
  C  C0  1  0.25000000  0.30457807  0.68679206  1
  C  C1  1  0.25000000  0.80457807  0.81320794  1
  C  C2  1  0.75000000  0.69542193  0.31320794  1
  C  C3  1  0.75000000  0.19542193  0.18679206  1
  O  O0  1  0.25000000  0.04483515  0.41526449  1
  O  O1  1  0.25000000  0.54483515  0.08473551  1
  O  O2  1  0.75000000  0.95516485  0.58473551  1
  O  O3  1  0.75000000  0.45516485  0.91526449  1
  O  O4  1  0.75000000  0.29808732  0.31171250  1
  O  O5  1  0.75000000  0.79808732  0.18828750  1
  O  O6  1  0.25000000  0.70191268  0.68828750  1
  O  O7  1  0.25000000  0.20191268  0.81171250  1
  O  O8  1  0.97325765  0.64747633  0.37954481  1
  O  O9  1  0.52674235  0.14747633  0.12045519  1
  O  O10  1  0.47325765  0.35252367  0.62045519  1
  O  O11  1  0.02674235  0.85252367  0.87954481  1
  O  O12  1  0.02674235  0.35252367  0.62045519  1
  O  O13  1  0.47325765  0.85252367  0.87954481  1
  O  O14  1  0.52674235  0.64747633  0.37954481  1
  O  O15  1  0.97325765  0.14747633  0.12045519  1
loop_
_geom_bond_atom_site_label_1
_geom_bond_atom_site_label_2
_geom_bond_distance
_geom_bond_site_symmetry_2
C0 O7 1.275714 1_555
C0 O10 1.292687 1_555
C0 O12 1.292687 1_555
C1 O6 1.275714 1_555
C1 O13 1.292687 1_555
C1 O11 1.292687 1_555
C2 O5 1.275714 1_555
C2 O8 1.292687 1_555
C2 O14 1.292687 1_555
C3 O4 1.275714 1_555
C3 O9 1.292687 1_555
C3 O15 1.292687 1_555
O0 Pr1 2.428759 1_545
O0 Pr0 2.443242 1_555
O1 Pr0 2.428759 1_555
O1 Pr1 2.443242 1_555
O2 Pr3 2.428759 1_565
O2 Pr2 2.443242 1_555
O3 Pr2 2.428759 1_555
O3 Pr3 2.443242 1_555
O4 Pr0 2.548214 1_655
O4 Pr0 2.548214 1_555
O5 Pr1 2.548214 1_555
O5 Pr1 2.548214 1_655
O6 Pr2 2.548214 1_455
O6 Pr2 2.548214 1_555
O7 Pr3 2.548214 1_555
O7 Pr3 2.548214 1_455
O8 Pr0 2.586628 1_655
O8 Pr2 2.633329 1_555
O8 Pr1 2.703936 1_655
O9 Pr1 2.586628 1_545
O9 Pr3 2.633329 1_554
O9 Pr0 2.703936 1_555
O10 Pr2 2.586628 1_555
O10 Pr0 2.633329 1_555
O10 Pr3 2.703936 1_555
O11 Pr3 2.586628 1_465
O11 Pr1 2.633329 1_556
O11 Pr2 2.703936 1_455
O12 Pr2 2.586628 1_455
O12 Pr0 2.633329 1_555
O12 Pr3 2.703936 1_455
O13 Pr3 2.586628 1_565
O13 Pr1 2.633329 1_556
O13 Pr2 2.703936 1_555
O14 Pr0 2.586628 1_555
O14 Pr2 2.633329 1_555
O14 Pr1 2.703936 1_555
O15 Pr1 2.586628 1_645
O15 Pr3 2.633329 1_554
O15 Pr0 2.703936 1_655
