# generated using pymatgen
data_Ga2CoIr
_symmetry_space_group_name_H-M   'P 1'
_cell_length_a   10.17291910
_cell_length_b   10.17291910
_cell_length_c   10.17291910
_cell_angle_alpha   123.97440945
_cell_angle_beta   118.41685910
_cell_angle_gamma   88.01111682
_symmetry_Int_Tables_number   1
_chemical_formula_structural   Ga2CoIr
_chemical_formula_sum   'Ga2 Co1 Ir1'
_cell_volume   728.25072615
_cell_formula_units_Z   1
loop_
 _symmetry_equiv_pos_site_id
 _symmetry_equiv_pos_as_xyz
  1  'x, y, z'
loop_
 _atom_site_type_symbol
 _atom_site_label
 _atom_site_symmetry_multiplicity
 _atom_site_fract_x
 _atom_site_fract_y
 _atom_site_fract_z
 _atom_site_occupancy
  Ga  Ga0  1  0.00000000  0.25113600  0.25113600  1
  Ga  Ga1  1  0.00000000  0.74886400  0.74886400  1
  Co  Co0  1  0.00000000  0.00000000  0.00000000  1
  Ir  Ir0  1  0.00000000  0.50000000  0.50000000  1
loop_
_geom_bond_atom_site_label_1
_geom_bond_atom_site_label_2
_geom_bond_distance
_geom_bond_site_symmetry_2
Ga0 Ir0 2.378096 1_555
Ga1 Ir0 2.378096 1_555
Co0 Ga1 2.399806 1_544
Co0 Ga0 2.399806 1_555
