# generated using pymatgen
data_Rb(Ti3Se4)2
_symmetry_space_group_name_H-M   'P 1'
_cell_length_a   3.65882933
_cell_length_b   9.93236148
_cell_length_c   9.92092006
_cell_angle_alpha   119.60224818
_cell_angle_beta   90.01347237
_cell_angle_gamma   90.01223874
_symmetry_Int_Tables_number   1
_chemical_formula_structural   Rb(Ti3Se4)2
_chemical_formula_sum   'Rb1 Ti6 Se8'
_cell_volume   313.47574901
_cell_formula_units_Z   1
loop_
 _symmetry_equiv_pos_site_id
 _symmetry_equiv_pos_as_xyz
  1  'x, y, z'
loop_
 _atom_site_type_symbol
 _atom_site_label
 _atom_site_symmetry_multiplicity
 _atom_site_fract_x
 _atom_site_fract_y
 _atom_site_fract_z
 _atom_site_occupancy
  Rb  Rb0  1  0.50000000  0.00000000  0.00000000  1
  Ti  Ti0  1  0.74846964  0.36229027  0.87109828  1
  Ti  Ti1  1  0.74836200  0.12944111  0.48924573  1
  Ti  Ti2  1  0.74893913  0.50881062  0.63804496  1
  Ti  Ti3  1  0.25153036  0.63770973  0.12890172  1
  Ti  Ti4  1  0.25163800  0.87055889  0.51075427  1
  Ti  Ti5  1  0.25106087  0.49118938  0.36195504  1
  Se  Se0  1  0.75046479  0.66604778  0.33295688  1
  Se  Se1  1  0.24953521  0.33395222  0.66704312  1
  Se  Se2  1  0.75373516  0.04827538  0.69668841  1
  Se  Se3  1  0.75263470  0.30362465  0.35064375  1
  Se  Se4  1  0.75353504  0.64891646  0.95244782  1
  Se  Se5  1  0.24626484  0.95172462  0.30331159  1
  Se  Se6  1  0.24736530  0.69637535  0.64935625  1
  Se  Se7  1  0.24646496  0.35108354  0.04755218  1
loop_
_geom_bond_atom_site_label_1
_geom_bond_atom_site_label_2
_geom_bond_distance
_geom_bond_site_symmetry_2
Rb0 Se2 3.401946 1_554
Rb0 Se5 3.401946 1_545
Rb0 Se4 3.408695 1_544
Rb0 Se7 3.408695 1_555
Rb0 Se3 3.418077 1_555
Rb0 Se6 3.418077 1_544
Se0 Ti5 2.632563 1_555
Se0 Ti3 2.635355 1_555
Se0 Ti5 2.636014 1_655
Se0 Ti3 2.641505 1_655
Se0 Ti4 2.651758 1_555
Se0 Ti4 2.656505 1_655
Se1 Ti2 2.632563 1_555
Se1 Ti0 2.635355 1_555
Se1 Ti2 2.636014 1_455
Se1 Ti0 2.641505 1_455
Se1 Ti1 2.651758 1_555
Se1 Ti1 2.656505 1_455
Se2 Ti1 2.554380 1_555
Se2 Ti4 2.573577 1_645
Se2 Ti4 2.583314 1_545
Se2 Ti0 2.718514 1_555
Se3 Ti2 2.557841 1_555
Se3 Ti5 2.569212 1_655
Se3 Ti5 2.578002 1_555
Se3 Ti1 2.689681 1_555
Se4 Ti0 2.546848 1_555
Se4 Ti3 2.566712 1_656
Se4 Ti3 2.577697 1_556
Se4 Ti2 2.716185 1_555
Se5 Ti4 2.554380 1_555
Se5 Ti1 2.573577 1_465
Se5 Ti1 2.583314 1_565
Se5 Ti3 2.718514 1_555
Se6 Ti5 2.557841 1_555
Se6 Ti2 2.569212 1_455
Se6 Ti2 2.578002 1_555
Se6 Ti4 2.689681 1_555
Se7 Ti3 2.546848 1_555
Se7 Ti0 2.566712 1_454
Se7 Ti0 2.577697 1_554
Se7 Ti5 2.716185 1_555
