# generated using pymatgen
data_Li8Hf3
_symmetry_space_group_name_H-M   'P 1'
_cell_length_a   9.18219542
_cell_length_b   9.18219542
_cell_length_c   9.18219542
_cell_angle_alpha   109.47122063
_cell_angle_beta   109.47122063
_cell_angle_gamma   109.47122063
_symmetry_Int_Tables_number   1
_chemical_formula_structural   Li8Hf3
_chemical_formula_sum   'Li16 Hf6'
_cell_volume   595.96081316
_cell_formula_units_Z   2
loop_
 _symmetry_equiv_pos_site_id
 _symmetry_equiv_pos_as_xyz
  1  'x, y, z'
loop_
 _atom_site_type_symbol
 _atom_site_label
 _atom_site_symmetry_multiplicity
 _atom_site_fract_x
 _atom_site_fract_y
 _atom_site_fract_z
 _atom_site_occupancy
  Li  Li0  1  0.00000000  0.00000000  0.50000000  1
  Li  Li1  1  0.00000000  0.50000000  0.00000000  1
  Li  Li2  1  0.50000000  0.00000000  0.00000000  1
  Li  Li3  1  0.50000000  0.50000000  0.50000000  1
  Li  Li4  1  0.19265100  0.19265100  0.38530200  1
  Li  Li5  1  0.80734900  0.00000000  0.19265100  1
  Li  Li6  1  0.00000000  0.80734900  0.19265100  1
  Li  Li7  1  0.80734900  0.19265100  0.00000000  1
  Li  Li8  1  0.19265100  0.38530200  0.19265100  1
  Li  Li9  1  0.00000000  0.19265100  0.80734900  1
  Li  Li10  1  0.19265100  0.80734900  0.00000000  1
  Li  Li11  1  0.19265100  0.00000000  0.80734900  1
  Li  Li12  1  0.38530200  0.19265100  0.19265100  1
  Li  Li13  1  0.80734900  0.80734900  0.61469800  1
  Li  Li14  1  0.80734900  0.61469800  0.80734900  1
  Li  Li15  1  0.61469800  0.80734900  0.80734900  1
  Hf  Hf0  1  0.61413000  0.61413000  0.00000000  1
  Hf  Hf1  1  0.38587000  0.00000000  0.38587000  1
  Hf  Hf2  1  0.00000000  0.38587000  0.38587000  1
  Hf  Hf3  1  0.38587000  0.38587000  0.00000000  1
  Hf  Hf4  1  0.61413000  0.00000000  0.61413000  1
  Hf  Hf5  1  0.00000000  0.61413000  0.61413000  1
loop_
_geom_bond_atom_site_label_1
_geom_bond_atom_site_label_2
_geom_bond_distance
_geom_bond_site_symmetry_2
Li0 Li11 2.786668 1_555
Li0 Li9 2.786668 1_555
Li0 Li6 2.786668 1_545
Li0 Li13 2.786668 1_445
Li0 Li4 2.786668 1_555
Li0 Li5 2.786668 1_455
Li1 Li9 2.786668 1_554
Li1 Li7 2.786668 1_455
Li1 Li6 2.786668 1_555
Li1 Li10 2.786668 1_555
Li1 Li14 2.786668 1_454
Li1 Li8 2.786668 1_555
Li2 Li5 2.786668 1_555
Li2 Li7 2.786668 1_555
Li3 Li4 2.786668 1_555
Li3 Li8 2.786668 1_555
Li4 Li8 2.888698 1_555
Li4 Li6 2.888698 1_545
Li4 Li5 2.888698 1_455
Li5 Li7 2.888698 1_555
Li5 Li6 2.888698 1_645
Li7 Li8 2.888698 1_655
Li7 Li9 2.888698 1_654
Li8 Li9 2.888698 1_554
Li10 Li2 2.786668 1_565
Li10 Li6 2.888698 1_555
Li10 Li12 2.888698 1_565
Li10 Li11 2.888698 1_564
Li10 Li14 2.888698 1_454
Li11 Li2 2.786668 1_556
Li11 Li9 2.888698 1_555
Li11 Li12 2.888698 1_556
Li11 Li13 2.888698 1_445
Li12 Li2 2.786668 1_555
Li12 Li3 2.786668 1_555
Li12 Li8 2.888698 1_555
Li12 Li4 2.888698 1_555
Li13 Li3 2.786668 1_555
Li13 Li9 2.888698 1_665
Li13 Li15 2.888698 1_555
Li13 Li14 2.888698 1_555
Li14 Li3 2.786668 1_555
Li14 Li6 2.888698 1_656
Li14 Li15 2.888698 1_555
Li15 Li2 2.786668 1_566
Li15 Li3 2.786668 1_555
Li15 Li5 2.888698 1_566
Li15 Li7 2.888698 1_566
Hf0 Hf3 2.420169 1_555
Hf0 Li6 2.892960 1_655
Hf0 Li14 2.892960 1_554
Hf0 Li5 2.892960 1_565
Hf0 Li15 2.892960 1_554
Hf1 Hf4 2.420169 1_555
Hf1 Li4 2.892960 1_555
Hf1 Li6 2.892960 1_545
Hf1 Li12 2.892960 1_555
Hf1 Li10 2.892960 1_545
Hf2 Hf5 2.420169 1_555
Hf2 Li5 2.892960 1_455
Hf2 Li4 2.892960 1_555
Hf2 Li8 2.892960 1_555
Hf2 Li7 2.892960 1_455
Hf3 Li11 2.892960 1_554
Hf3 Li8 2.892960 1_555
Hf3 Li9 2.892960 1_554
Hf3 Li12 2.892960 1_555
Hf4 Li9 2.892960 1_655
Hf4 Li15 2.892960 1_545
Hf4 Li13 2.892960 1_545
Hf4 Li7 2.892960 1_556
Hf5 Li10 2.892960 1_556
Hf5 Li11 2.892960 1_565
Hf5 Li13 2.892960 1_455
Hf5 Li14 2.892960 1_455
