# generated using pymatgen
data_BeCrIr2
_symmetry_space_group_name_H-M   'P 1'
_cell_length_a   10.07128422
_cell_length_b   10.07128422
_cell_length_c   10.07128422
_cell_angle_alpha   128.70351894
_cell_angle_beta   116.34782891
_cell_angle_gamma   86.03713069
_symmetry_Int_Tables_number   1
_chemical_formula_structural   BeCrIr2
_chemical_formula_sum   'Be1 Cr1 Ir2'
_cell_volume   681.92398809
_cell_formula_units_Z   1
loop_
 _symmetry_equiv_pos_site_id
 _symmetry_equiv_pos_as_xyz
  1  'x, y, z'
loop_
 _atom_site_type_symbol
 _atom_site_label
 _atom_site_symmetry_multiplicity
 _atom_site_fract_x
 _atom_site_fract_y
 _atom_site_fract_z
 _atom_site_occupancy
  Be  Be0  1  0.00000000  0.00000000  0.00000000  1
  Cr  Cr0  1  0.00000000  0.50000000  0.50000000  1
  Ir  Ir0  1  0.00000000  0.26103900  0.26103900  1
  Ir  Ir1  1  0.00000000  0.73896100  0.73896100  1
loop_
_geom_bond_atom_site_label_1
_geom_bond_atom_site_label_2
_geom_bond_distance
_geom_bond_site_symmetry_2
Be0 Ir0 2.275897 1_555
Be0 Ir1 2.275897 1_544
Cr0 Ir1 2.083407 1_555
Cr0 Ir0 2.083407 1_555
