# generated using pymatgen
data_Zr2Co4P3
_symmetry_space_group_name_H-M   'P 1'
_cell_length_a   12.01426533
_cell_length_b   12.01526330
_cell_length_c   3.65191901
_cell_angle_alpha   90.00000000
_cell_angle_beta   90.00000000
_cell_angle_gamma   119.99873489
_symmetry_Int_Tables_number   1
_chemical_formula_structural   Zr2Co4P3
_chemical_formula_sum   'Zr8 Co16 P12'
_cell_volume   456.54944236
_cell_formula_units_Z   4
loop_
 _symmetry_equiv_pos_site_id
 _symmetry_equiv_pos_as_xyz
  1  'x, y, z'
loop_
 _atom_site_type_symbol
 _atom_site_label
 _atom_site_symmetry_multiplicity
 _atom_site_fract_x
 _atom_site_fract_y
 _atom_site_fract_z
 _atom_site_occupancy
  Zr  Zr0  1  0.44253467  0.44256316  -0.00000000  1
  Zr  Zr1  1  0.55744199  0.99996869  0.00000000  1
  Zr  Zr2  1  0.00004412  0.55745686  -0.00000000  1
  Zr  Zr3  1  0.66670826  0.33333506  0.00000000  1
  Zr  Zr4  1  0.33330323  0.66663962  -0.00000000  1
  Zr  Zr5  1  0.82459609  0.82461069  0.50000000  1
  Zr  Zr6  1  0.17539372  -0.00001751  0.50000000  1
  Zr  Zr7  1  0.00000909  0.17540886  0.50000000  1
  Co  Co0  1  0.19275187  0.37308632  -0.00000000  1
  Co  Co1  1  0.18027609  0.80724300  0.00000000  1
  Co  Co2  1  0.81974873  0.62698411  -0.00000000  1
  Co  Co3  1  0.80725052  0.18035459  0.00000000  1
  Co  Co4  1  0.37304441  0.19275317  0.00000000  1
  Co  Co5  1  0.12602477  0.48208394  0.50000000  1
  Co  Co6  1  0.35598929  0.87394340  0.50000000  1
  Co  Co7  1  0.51790576  0.64392486  0.50000000  1
  Co  Co8  1  0.64401311  0.51801233  0.50000000  1
  Co  Co9  1  0.87404441  0.35606643  0.50000000  1
  Co  Co10  1  0.48199079  0.12597862  0.50000000  1
  Co  Co11  1  0.00000855  -0.00002038  -0.00000000  1
  Co  Co12  1  0.72244357  0.99998655  0.50000000  1
  Co  Co13  1  0.00002318  0.72246214  0.50000000  1
  Co  Co14  1  0.62688022  0.81961629  -0.00000000  1
  Co  Co15  1  0.27755173  0.27756359  0.50000000  1
  P  P0  1  0.65438442  0.65437187  0.00000000  1
  P  P1  1  0.34562739  -0.00000033  0.00000000  1
  P  P2  1  -0.00000549  0.34564876  -0.00000000  1
  P  P3  1  0.48084442  0.30659109  0.50000000  1
  P  P4  1  0.69343595  0.17424271  0.50000000  1
  P  P5  1  0.82575065  0.51914157  0.50000000  1
  P  P6  1  0.51915059  0.82571918  0.50000000  1
  P  P7  1  0.17427826  0.69339208  0.50000000  1
  P  P8  1  0.82395439  -0.00000572  -0.00000000  1
  P  P9  1  0.00000541  0.82400060  -0.00000000  1
  P  P10  1  0.30657411  0.48085983  0.50000000  1
  P  P11  1  0.17602071  0.17603300  -0.00000000  1
loop_
_geom_bond_atom_site_label_1
_geom_bond_atom_site_label_2
_geom_bond_distance
_geom_bond_site_symmetry_2
Co0 P2 2.169875 1_555
Co0 P10 2.260589 1_555
Co0 P10 2.260589 1_554
Co0 P11 2.273819 1_555
Co0 Zr0 2.682826 1_555
Co0 Zr7 2.972863 1_555
Co0 Zr7 2.972863 1_554
Co0 Zr4 3.055532 1_555
Co1 P1 2.170176 1_565
Co1 P7 2.260981 1_555
Co1 P7 2.260981 1_554
Co1 P9 2.273187 1_555
Co1 Zr2 2.682858 1_555
Co1 Zr6 2.972610 1_565
Co1 Zr6 2.972610 1_564
Co1 Zr4 3.056137 1_555
Co2 P0 2.170055 1_555
Co2 P5 2.260917 1_554
Co2 P5 2.260917 1_555
Co2 P9 2.273183 1_655
Co2 Zr2 2.683172 1_655
Co2 Zr5 2.972820 1_555
Co2 Zr5 2.972820 1_554
Co2 Zr3 3.056522 1_555
Co3 P2 2.169766 1_655
Co3 P4 2.260285 1_555
Co3 P4 2.260285 1_554
Co3 P8 2.274066 1_555
Co3 Zr1 2.683375 1_545
Co3 Zr7 2.972952 1_654
Co3 Zr7 2.972952 1_655
Co3 Zr3 3.055032 1_555
Co4 P1 2.170124 1_555
Co4 P3 2.260742 1_554
Co4 P3 2.260742 1_555
Co4 P11 2.273318 1_555
Co4 Zr0 2.683357 1_555
Co4 Zr6 2.972851 1_554
Co4 Zr6 2.972851 1_555
Co4 Zr3 3.056429 1_555
Co5 P10 2.176559 1_555
Co5 P7 2.304427 1_555
Co5 P2 2.414965 1_556
Co5 P2 2.414965 1_555
Co5 Zr2 2.795682 1_555
Co5 Zr2 2.795682 1_556
Co5 Zr4 2.988472 1_555
Co5 Zr4 2.988472 1_556
Co5 Zr7 3.208002 1_555
Co6 P7 2.176322 1_555
Co6 P6 2.305245 1_555
Co6 P1 2.414991 1_565
Co6 P1 2.414991 1_566
Co6 Zr1 2.796451 1_555
Co6 Zr1 2.796451 1_556
Co6 Zr4 2.988927 1_555
Co6 Zr4 2.988927 1_556
Co6 Zr6 3.207300 1_565
Co7 P6 2.176868 1_555
Co7 P10 2.304527 1_555
Co7 P0 2.415090 1_555
Co7 P0 2.415090 1_556
Co7 Zr0 2.795874 1_555
Co7 Zr0 2.795874 1_556
Co7 Zr4 2.988782 1_555
Co7 Zr4 2.988782 1_556
Co7 Zr5 3.207936 1_555
Co8 P5 2.176691 1_555
Co8 P3 2.305722 1_555
Co8 P0 2.414509 1_555
Co8 P0 2.414509 1_556
Co8 Zr0 2.796609 1_555
Co8 Zr0 2.796609 1_556
Co8 Zr3 2.989516 1_555
Co8 Zr3 2.989516 1_556
Co8 Zr5 3.207144 1_555
Co9 P4 2.177348 1_555
Co9 P5 2.304926 1_555
Co9 P2 2.414325 1_655
Co9 P2 2.414325 1_656
Co9 Zr2 2.796079 1_656
Co9 Zr2 2.796079 1_655
Co9 Zr3 2.988886 1_555
Co9 Zr3 2.988886 1_556
Co9 Zr7 3.207318 1_655
Co10 P3 2.177025 1_555
Co10 P4 2.305775 1_555
Co10 P1 2.414459 1_556
Co10 P1 2.414459 1_555
Co10 Zr1 2.796532 1_545
Co10 Zr1 2.796532 1_546
Co10 Zr3 2.989574 1_556
Co10 Zr3 2.989574 1_555
Co10 Zr6 3.206878 1_555
Co11 P9 2.114415 1_545
Co11 P11 2.115033 1_555
Co11 P8 2.115249 1_455
Co11 Zr6 2.788194 1_554
Co11 Zr6 2.788194 1_555
Co11 Zr5 2.788354 1_444
Co11 Zr5 2.788354 1_445
Co11 Zr7 2.788737 1_555
Co11 Zr7 2.788737 1_554
Co12 P8 2.195765 1_565
Co12 P8 2.195765 1_566
Co12 P4 2.287974 1_565
Co12 P6 2.288182 1_555
Co12 Zr1 2.695089 1_555
Co12 Zr1 2.695089 1_556
Co12 Zr5 2.921044 1_555
Co12 Zr7 2.921403 1_665
Co13 P9 2.196091 1_556
Co13 P9 2.196091 1_555
Co13 P7 2.288264 1_555
Co13 P5 2.288466 1_455
Co13 Zr2 2.695414 1_555
Co13 Zr2 2.695414 1_556
Co13 Zr6 2.921075 1_565
Co13 Zr5 2.921497 1_455
Co14 P0 2.169626 1_555
Co14 P6 2.260443 1_555
Co14 P6 2.260443 1_554
Co14 P8 2.274171 1_565
Co14 Zr1 2.683191 1_555
Co14 Zr5 2.972838 1_555
Co14 Zr5 2.972838 1_554
Co14 Zr4 3.055517 1_555
Co15 P11 2.195966 1_555
Co15 P11 2.195966 1_556
Co15 P3 2.288057 1_555
Co15 P10 2.288335 1_555
Co15 Zr0 2.695165 1_556
Co15 Zr0 2.695165 1_555
Co15 Zr7 2.921065 1_555
Co15 Zr6 2.921763 1_555
P0 Zr0 2.545127 1_555
P0 Zr5 2.741751 1_555
P0 Zr5 2.741751 1_554
P1 Zr1 2.544983 1_545
P1 Zr6 2.741657 1_554
P1 Zr6 2.741657 1_555
P2 Zr2 2.544632 1_555
P2 Zr7 2.741982 1_555
P2 Zr7 2.741982 1_554
P3 Zr0 2.639508 1_555
P3 Zr0 2.639508 1_556
P3 Zr3 2.776010 1_555
P3 Zr3 2.776010 1_556
P4 Zr1 2.639539 1_546
P4 Zr1 2.639539 1_545
P4 Zr3 2.775790 1_555
P4 Zr3 2.775790 1_556
P5 Zr2 2.639500 1_656
P5 Zr2 2.639500 1_655
P5 Zr3 2.775544 1_555
P5 Zr3 2.775544 1_556
P6 Zr1 2.639322 1_555
P6 Zr1 2.639322 1_556
P6 Zr4 2.775858 1_555
P6 Zr4 2.775858 1_556
P7 Zr2 2.639097 1_556
P7 Zr2 2.639097 1_555
P7 Zr4 2.775217 1_555
P7 Zr4 2.775217 1_556
P8 Zr5 2.791247 1_544
P8 Zr5 2.791247 1_545
P8 Zr7 2.791486 1_655
P8 Zr7 2.791486 1_654
P9 Zr6 2.791036 1_564
P9 Zr6 2.791036 1_565
P9 Zr5 2.791205 1_455
P9 Zr5 2.791205 1_454
P10 Zr0 2.639257 1_555
P10 Zr0 2.639257 1_556
P10 Zr4 2.775453 1_555
P10 Zr4 2.775453 1_556
P11 Zr7 2.791070 1_554
P11 Zr7 2.791070 1_555
P11 Zr6 2.791544 1_555
P11 Zr6 2.791544 1_554
