# generated using pymatgen
data_Sr2TlI5
_symmetry_space_group_name_H-M   'P 1'
_cell_length_a   9.07712803
_cell_length_b   9.97758889
_cell_length_c   14.42456713
_cell_angle_alpha   89.86149256
_cell_angle_beta   90.00000000
_cell_angle_gamma   90.00000000
_symmetry_Int_Tables_number   1
_chemical_formula_structural   Sr2TlI5
_chemical_formula_sum   'Sr8 Tl4 I20'
_cell_volume   1306.39824064
_cell_formula_units_Z   4
loop_
 _symmetry_equiv_pos_site_id
 _symmetry_equiv_pos_as_xyz
  1  'x, y, z'
loop_
 _atom_site_type_symbol
 _atom_site_label
 _atom_site_symmetry_multiplicity
 _atom_site_fract_x
 _atom_site_fract_y
 _atom_site_fract_z
 _atom_site_occupancy
  Sr  Sr0  1  0.02442543  0.00158965  0.32056969  1
  Sr  Sr1  1  0.97557457  0.99841035  0.67943031  1
  Sr  Sr2  1  0.52442543  0.99841035  0.17943031  1
  Sr  Sr3  1  0.47557457  0.00158965  0.82056969  1
  Sr  Sr4  1  0.07802967  0.25017307  0.00527194  1
  Sr  Sr5  1  0.92197033  0.74982693  0.99472806  1
  Sr  Sr6  1  0.57802967  0.74982693  0.49472806  1
  Sr  Sr7  1  0.42197033  0.25017307  0.50527194  1
  Tl  Tl0  1  0.01725135  0.49131492  0.32092242  1
  Tl  Tl1  1  0.98274865  0.50868508  0.67907758  1
  Tl  Tl2  1  0.51725135  0.50868508  0.17907758  1
  Tl  Tl3  1  0.48274865  0.49131492  0.82092242  1
  I  I0  1  0.16486873  0.53902530  0.09340791  1
  I  I1  1  0.83513127  0.46097470  0.90659209  1
  I  I2  1  0.66486873  0.46097470  0.40659209  1
  I  I3  1  0.33513127  0.53902530  0.59340791  1
  I  I4  1  0.83685531  0.22741824  0.18338182  1
  I  I5  1  0.16314469  0.77258176  0.81661818  1
  I  I6  1  0.33685531  0.77258176  0.31661818  1
  I  I7  1  0.66314469  0.22741824  0.68338182  1
  I  I8  1  0.30677365  0.23213376  0.28215458  1
  I  I9  1  0.69322635  0.76786624  0.71784542  1
  I  I10  1  0.80677365  0.76786624  0.21784542  1
  I  I11  1  0.19322635  0.23213376  0.78215458  1
  I  I12  1  0.46091650  0.22391483  0.00203338  1
  I  I13  1  0.53908350  0.77608517  0.99796662  1
  I  I14  1  0.96091650  0.77608517  0.49796662  1
  I  I15  1  0.03908350  0.22391483  0.50203338  1
  I  I16  1  0.66182345  0.04259242  0.40137185  1
  I  I17  1  0.33817655  0.95740758  0.59862815  1
  I  I18  1  0.16182345  0.95740758  0.09862815  1
  I  I19  1  0.83817655  0.04259242  0.90137185  1
loop_
_geom_bond_atom_site_label_1
_geom_bond_atom_site_label_2
_geom_bond_distance
_geom_bond_site_symmetry_2
I0 Sr4 3.249849 1_555
I0 Sr5 3.361057 1_454
I0 Tl2 3.442105 1_555
I0 Tl0 3.575570 1_555
I1 Sr5 3.249849 1_555
I1 Sr4 3.361057 1_656
I1 Tl3 3.442105 1_555
I1 Tl1 3.575570 1_555
I2 Sr6 3.249849 1_555
I2 Sr7 3.361057 1_555
I2 Tl0 3.442105 1_655
I2 Tl2 3.575570 1_555
I3 Sr7 3.249849 1_555
I3 Sr6 3.361057 1_555
I3 Tl1 3.442105 1_455
I3 Tl3 3.575570 1_555
I4 Sr4 3.382568 1_655
I4 Sr0 3.445323 1_655
I4 Sr2 3.642467 1_545
I5 Sr5 3.382568 1_455
I5 Sr1 3.445323 1_455
I5 Sr3 3.642467 1_565
I6 Sr6 3.382568 1_555
I6 Sr2 3.445323 1_555
I6 Sr0 3.642467 1_565
I7 Sr7 3.382568 1_555
I7 Sr3 3.445323 1_555
I7 Sr1 3.642467 1_545
I8 Sr7 3.389175 1_555
I8 Sr2 3.399075 1_545
I8 Sr0 3.487214 1_555
I9 Sr6 3.389175 1_555
I9 Sr3 3.399075 1_565
I9 Sr1 3.487214 1_555
I10 Sr5 3.389175 1_554
I10 Sr0 3.399075 1_665
I10 Sr2 3.487214 1_555
I11 Sr4 3.389175 1_556
I11 Sr1 3.399075 1_445
I11 Sr3 3.487214 1_555
I12 Sr3 3.437730 1_554
I12 Sr2 3.451780 1_545
I12 Sr4 3.485695 1_555
I13 Sr2 3.437730 1_556
I13 Sr3 3.451780 1_565
I13 Sr5 3.485695 1_555
I14 Sr1 3.437730 1_555
I14 Sr0 3.451780 1_665
I14 Sr6 3.485695 1_555
I15 Sr0 3.437730 1_555
I15 Sr1 3.451780 1_445
I15 Sr7 3.485695 1_555
I16 Sr6 3.302376 1_545
I16 Sr7 3.360198 1_555
I16 Sr2 3.464916 1_545
I16 Sr0 3.515873 1_655
I17 Sr7 3.302376 1_565
I17 Sr6 3.360198 1_555
I17 Sr3 3.464916 1_565
I17 Sr1 3.515873 1_455
I18 Sr4 3.302376 1_565
I18 Sr5 3.360198 1_454
I18 Sr0 3.464916 1_565
I18 Sr2 3.515873 1_555
I19 Sr5 3.302376 1_545
I19 Sr4 3.360198 1_656
I19 Sr1 3.464916 1_545
I19 Sr3 3.515873 1_555
