# generated using pymatgen
data_Li7Mn3P3(CO7)3
_symmetry_space_group_name_H-M   'P 1'
_cell_length_a   19.53757900
_cell_length_b   5.06423700
_cell_length_c   8.44386145
_cell_angle_alpha   85.34660469
_cell_angle_beta   90.00000000
_cell_angle_gamma   90.00000000
_symmetry_Int_Tables_number   1
_chemical_formula_structural   Li7Mn3P3(CO7)3
_chemical_formula_sum   'Li14 Mn6 P6 C6 O42'
_cell_volume   832.70647317
_cell_formula_units_Z   2
loop_
 _symmetry_equiv_pos_site_id
 _symmetry_equiv_pos_as_xyz
  1  'x, y, z'
loop_
 _atom_site_type_symbol
 _atom_site_label
 _atom_site_symmetry_multiplicity
 _atom_site_fract_x
 _atom_site_fract_y
 _atom_site_fract_z
 _atom_site_occupancy
  Li  Li0  1  0.75000000  0.76335000  0.09163100  1
  Li  Li1  1  0.34110000  0.24474600  0.26180900  1
  Li  Li2  1  0.67287100  0.24772200  0.26353700  1
  Li  Li3  1  0.00423700  0.23736100  0.25074200  1
  Li  Li4  1  0.82712900  0.24772200  0.26353700  1
  Li  Li5  1  0.15890000  0.24474600  0.26180900  1
  Li  Li6  1  0.49576300  0.23736100  0.25074200  1
  Li  Li7  1  0.99576300  0.76263900  0.74925800  1
  Li  Li8  1  0.65890000  0.75525400  0.73819100  1
  Li  Li9  1  0.50423700  0.76263900  0.74925800  1
  Li  Li10  1  0.32712900  0.75227800  0.73646300  1
  Li  Li11  1  0.84110000  0.75525400  0.73819100  1
  Li  Li12  1  0.17287100  0.75227800  0.73646300  1
  Li  Li13  1  0.25000000  0.23665000  0.90836900  1
  Mn  Mn0  1  0.58321200  0.77676200  0.33871400  1
  Mn  Mn1  1  0.25000000  0.78233100  0.34099300  1
  Mn  Mn2  1  0.91678800  0.77676200  0.33871400  1
  Mn  Mn3  1  0.41678800  0.22323800  0.66128600  1
  Mn  Mn4  1  0.08321200  0.22323800  0.66128600  1
  Mn  Mn5  1  0.75000000  0.21766900  0.65900700  1
  P  P0  1  0.41631500  0.72798500  0.42051000  1
  P  P1  1  0.75000000  0.71756400  0.41317400  1
  P  P2  1  0.08368500  0.72798500  0.42051000  1
  P  P3  1  0.58368500  0.27201500  0.57949000  1
  P  P4  1  0.25000000  0.28243600  0.58682600  1
  P  P5  1  0.91631500  0.27201500  0.57949000  1
  C  C0  1  0.91787900  0.70179500  0.04764100  1
  C  C1  1  0.58212100  0.70179500  0.04764100  1
  C  C2  1  0.25000000  0.70013400  0.03552900  1
  C  C3  1  0.41787900  0.29820500  0.95235900  1
  C  C4  1  0.75000000  0.29986600  0.96447100  1
  C  C5  1  0.08212100  0.29820500  0.95235900  1
  O  O0  1  0.58183200  0.93092100  0.11329900  1
  O  O1  1  0.91816800  0.93092100  0.11329900  1
  O  O2  1  0.25000000  0.94361300  0.07076400  1
  O  O3  1  0.41709200  0.30967200  0.10099900  1
  O  O4  1  0.75000000  0.36134100  0.11118800  1
  O  O5  1  0.08290800  0.30967200  0.10099900  1
  O  O6  1  0.58272700  0.49732800  0.15211300  1
  O  O7  1  0.91727300  0.49732800  0.15211300  1
  O  O8  1  0.25000000  0.50949600  0.14957000  1
  O  O9  1  0.35474800  0.83433600  0.32305400  1
  O  O10  1  0.48103000  0.82458700  0.32878200  1
  O  O11  1  0.14525200  0.83433600  0.32305400  1
  O  O12  1  0.68801300  0.82608800  0.31063800  1
  O  O13  1  0.81198700  0.82608800  0.31063800  1
  O  O14  1  0.01897000  0.82458700  0.32878200  1
  O  O15  1  0.58455800  0.17671700  0.40936400  1
  O  O16  1  0.91544200  0.17671700  0.40936400  1
  O  O17  1  0.25000000  0.18828200  0.41808900  1
  O  O18  1  0.41480400  0.41297300  0.44186500  1
  O  O19  1  0.75000000  0.40982300  0.42380200  1
  O  O20  1  0.08519600  0.41297300  0.44186500  1
  O  O21  1  0.91480400  0.58702700  0.55813500  1
  O  O22  1  0.25000000  0.59017700  0.57619800  1
  O  O23  1  0.58519600  0.58702700  0.55813500  1
  O  O24  1  0.08455800  0.82328300  0.59063600  1
  O  O25  1  0.41544200  0.82328300  0.59063600  1
  O  O26  1  0.75000000  0.81171800  0.58191100  1
  O  O27  1  0.85474800  0.16566400  0.67694600  1
  O  O28  1  0.31198700  0.17391200  0.68936200  1
  O  O29  1  0.64525200  0.16566400  0.67694600  1
  O  O30  1  0.18801300  0.17391200  0.68936200  1
  O  O31  1  0.51897000  0.17541300  0.67121800  1
  O  O32  1  0.98103000  0.17541300  0.67121800  1
  O  O33  1  0.08272700  0.50267200  0.84788700  1
  O  O34  1  0.41727300  0.50267200  0.84788700  1
  O  O35  1  0.75000000  0.49050400  0.85043000  1
  O  O36  1  0.58290800  0.69032800  0.89900100  1
  O  O37  1  0.91709200  0.69032800  0.89900100  1
  O  O38  1  0.25000000  0.63865900  0.88881200  1
  O  O39  1  0.41816800  0.06907900  0.88670100  1
  O  O40  1  0.75000000  0.05638700  0.92923600  1
  O  O41  1  0.08183200  0.06907900  0.88670100  1
loop_
_geom_bond_atom_site_label_1
_geom_bond_atom_site_label_2
_geom_bond_distance
_geom_bond_site_symmetry_2
Li0 O40 1.937112 1_564
Li0 O4 2.029158 1_555
Li0 O13 2.254499 1_555
Li0 O12 2.254499 1_555
Li0 O35 2.552231 1_554
Li1 O3 2.020836 1_555
Li1 O9 2.117532 1_545
Li1 O17 2.220327 1_555
Li1 O18 2.306747 1_555
Li1 O8 2.378570 1_555
Li2 O4 2.033870 1_555
Li2 O15 2.133248 1_555
Li2 O12 2.160374 1_545
Li2 O19 2.226263 1_555
Li2 O6 2.322045 1_555
Li3 O5 2.005043 1_555
Li3 O14 2.159465 1_545
Li3 O16 2.197997 1_455
Li3 O7 2.266221 1_455
Li3 O20 2.475907 1_555
Li3 O1 2.622053 1_445
Li4 O4 2.033870 1_555
Li4 O16 2.133248 1_555
Li4 O13 2.160374 1_545
Li4 O19 2.226263 1_555
Li4 O7 2.322045 1_555
Li5 O5 2.020836 1_555
Li5 O11 2.117532 1_545
Li5 O17 2.220327 1_555
Li5 O20 2.306747 1_555
Li5 O8 2.378570 1_555
Li6 O3 2.005043 1_555
Li6 O10 2.159465 1_545
Li6 O15 2.197997 1_555
Li6 O6 2.266221 1_555
Li6 O18 2.475907 1_555
Li6 O0 2.622053 1_545
Li7 O37 2.005043 1_555
Li7 O32 2.159465 1_565
Li7 O24 2.197997 1_655
Li7 O33 2.266221 1_655
Li7 O21 2.475907 1_555
Li7 O41 2.622053 1_665
Li8 O36 2.020836 1_555
Li8 O29 2.117532 1_565
Li8 O26 2.220327 1_555
Li8 O23 2.306747 1_555
Li8 O35 2.378570 1_555
Li9 O36 2.005043 1_555
Li9 O31 2.159465 1_565
Li9 O25 2.197997 1_555
Li9 O34 2.266221 1_555
Li9 O23 2.475907 1_555
Li9 O39 2.622053 1_565
Li10 O38 2.033870 1_555
Li10 O25 2.133248 1_555
Li10 O28 2.160374 1_565
Li10 O22 2.226263 1_555
Li10 O34 2.322045 1_555
Li11 O37 2.020836 1_555
Li11 O27 2.117532 1_565
Li11 O26 2.220327 1_555
Li11 O21 2.306747 1_555
Li11 O35 2.378570 1_555
Li12 O38 2.033870 1_555
Li12 O24 2.133248 1_555
Li12 O30 2.160374 1_565
Li12 O22 2.226263 1_555
Li12 O33 2.322045 1_555
Li13 O2 1.937112 1_546
Li13 O38 2.029158 1_555
Li13 O28 2.254499 1_555
Li13 O30 2.254499 1_555
Li13 O8 2.552231 1_556
Mn0 O0 1.997984 1_555
Mn0 O10 2.011956 1_555
Mn0 O23 2.017084 1_555
Mn0 O12 2.074002 1_555
Mn0 O15 2.157579 1_565
Mn0 O6 2.201603 1_555
Mn1 O9 2.067386 1_555
Mn1 O11 2.067386 1_555
Mn1 O22 2.139560 1_555
Mn1 O17 2.206214 1_565
Mn1 O8 2.209989 1_555
Mn1 O2 2.360344 1_555
Mn2 O1 1.997984 1_555
Mn2 O14 2.011956 1_655
Mn2 O21 2.017084 1_555
Mn2 O13 2.074002 1_555
Mn2 O16 2.157579 1_565
Mn2 O7 2.201603 1_555
Mn3 O39 1.997984 1_555
Mn3 O31 2.011956 1_555
Mn3 O18 2.017084 1_555
Mn3 O28 2.074002 1_555
Mn3 O25 2.157579 1_545
Mn3 O34 2.201603 1_555
Mn4 O41 1.997984 1_555
Mn4 O32 2.011956 1_455
Mn4 O20 2.017084 1_555
Mn4 O30 2.074002 1_555
Mn4 O24 2.157579 1_545
Mn4 O33 2.201603 1_555
Mn5 O27 2.067386 1_555
Mn5 O29 2.067386 1_555
Mn5 O19 2.139560 1_555
Mn5 O26 2.206214 1_545
Mn5 O35 2.209989 1_555
Mn5 O40 2.360344 1_555
C0 O37 1.261229 1_554
C0 O7 1.304726 1_555
C0 O1 1.325967 1_555
C1 O36 1.261229 1_554
C1 O6 1.304726 1_555
C1 O0 1.325967 1_555
C2 O2 1.291672 1_555
C2 O38 1.301642 1_554
C2 O8 1.307092 1_555
C3 O3 1.261229 1_556
C3 O34 1.304726 1_555
C3 O39 1.325967 1_555
C4 O40 1.291672 1_555
C4 O4 1.301642 1_556
C4 O35 1.307092 1_555
C5 O5 1.261229 1_556
C5 O33 1.304726 1_555
C5 O41 1.325967 1_555
O9 P0 1.530435 1_555
O10 P0 1.541559 1_555
O11 P2 1.530435 1_555
O12 P1 1.562420 1_555
O13 P1 1.562420 1_555
O14 P2 1.541559 1_555
O15 P3 1.552187 1_555
O16 P5 1.552187 1_555
O17 P4 1.538707 1_555
O18 P0 1.591125 1_555
O19 P1 1.553770 1_555
O20 P2 1.591125 1_555
O21 P5 1.591125 1_555
O22 P4 1.553770 1_555
O23 P3 1.591125 1_555
O24 P2 1.552187 1_555
O25 P0 1.552187 1_555
O26 P1 1.538707 1_555
O27 P5 1.530435 1_555
O28 P4 1.562420 1_555
O29 P3 1.530435 1_555
O30 P4 1.562420 1_555
O31 P3 1.541559 1_555
O32 P5 1.541559 1_555
