# generated using pymatgen
data_CaO10
_symmetry_space_group_name_H-M   'P 1'
_cell_length_a   5.49037700
_cell_length_b   5.49037700
_cell_length_c   10.36595800
_cell_angle_alpha   90.00000000
_cell_angle_beta   90.00000000
_cell_angle_gamma   90.00000000
_symmetry_Int_Tables_number   1
_chemical_formula_structural   CaO10
_chemical_formula_sum   'Ca2 O20'
_cell_volume   312.47392166
_cell_formula_units_Z   2
loop_
 _symmetry_equiv_pos_site_id
 _symmetry_equiv_pos_as_xyz
  1  'x, y, z'
loop_
 _atom_site_type_symbol
 _atom_site_label
 _atom_site_symmetry_multiplicity
 _atom_site_fract_x
 _atom_site_fract_y
 _atom_site_fract_z
 _atom_site_occupancy
  Ca  Ca0  1  0.00000000  0.00000000  0.50000000  1
  Ca  Ca1  1  0.00000000  0.00000000  0.00000000  1
  O  O0  1  0.50000000  0.50000000  0.44097200  1
  O  O1  1  0.50000000  0.50000000  0.94097200  1
  O  O2  1  0.50000000  0.50000000  0.55902800  1
  O  O3  1  0.50000000  0.50000000  0.05902800  1
  O  O4  1  0.06118600  0.40109500  0.39682400  1
  O  O5  1  0.93881400  0.59890500  0.39682400  1
  O  O6  1  0.59890500  0.06118600  0.39682400  1
  O  O7  1  0.40109500  0.93881400  0.39682400  1
  O  O8  1  0.93881400  0.40109500  0.89682400  1
  O  O9  1  0.06118600  0.59890500  0.89682400  1
  O  O10  1  0.40109500  0.06118600  0.89682400  1
  O  O11  1  0.59890500  0.93881400  0.89682400  1
  O  O12  1  0.93881400  0.59890500  0.60317600  1
  O  O13  1  0.06118600  0.40109500  0.60317600  1
  O  O14  1  0.40109500  0.93881400  0.60317600  1
  O  O15  1  0.59890500  0.06118600  0.60317600  1
  O  O16  1  0.06118600  0.59890500  0.10317600  1
  O  O17  1  0.93881400  0.40109500  0.10317600  1
  O  O18  1  0.59890500  0.93881400  0.10317600  1
  O  O19  1  0.40109500  0.06118600  0.10317600  1
loop_
_geom_bond_atom_site_label_1
_geom_bond_atom_site_label_2
_geom_bond_distance
_geom_bond_site_symmetry_2
Ca0 O4 2.471081 1_555
Ca0 O6 2.471081 1_455
Ca0 O5 2.471081 1_445
Ca0 O7 2.471081 1_545
Ca0 O14 2.471081 1_545
Ca0 O12 2.471081 1_445
Ca0 O13 2.471081 1_555
Ca0 O15 2.471081 1_455
Ca1 O11 2.471081 1_444
Ca1 O16 2.471081 1_545
Ca1 O18 2.471081 1_445
Ca1 O10 2.471081 1_554
Ca1 O19 2.471081 1_555
Ca1 O9 2.471081 1_544
Ca1 O8 2.471081 1_454
Ca1 O17 2.471081 1_455
O0 O2 1.223764 1_555
O1 O3 1.223764 1_556
O4 O5 1.277073 1_455
O6 O7 1.277073 1_545
O8 O9 1.277073 1_655
O10 O11 1.277073 1_545
O12 O13 1.277073 1_655
O14 O15 1.277073 1_565
O16 O17 1.277073 1_455
O18 O19 1.277073 1_565
