# generated using pymatgen
data_La2ZnSnO6
_symmetry_space_group_name_H-M   'P 1'
_cell_length_a   5.70767077
_cell_length_b   5.70767077
_cell_length_c   5.70767047
_cell_angle_alpha   61.07514133
_cell_angle_beta   61.07514133
_cell_angle_gamma   61.07513952
_symmetry_Int_Tables_number   1
_chemical_formula_structural   La2ZnSnO6
_chemical_formula_sum   'La2 Zn1 Sn1 O6'
_cell_volume   134.66311027
_cell_formula_units_Z   1
loop_
 _symmetry_equiv_pos_site_id
 _symmetry_equiv_pos_as_xyz
  1  'x, y, z'
loop_
 _atom_site_type_symbol
 _atom_site_label
 _atom_site_symmetry_multiplicity
 _atom_site_fract_x
 _atom_site_fract_y
 _atom_site_fract_z
 _atom_site_occupancy
  La  La0  1  0.75079200  0.75079200  0.75079200  1
  La  La1  1  0.24920800  0.24920800  0.24920800  1
  Zn  Zn0  1  0.50000000  0.50000000  0.50000000  1
  Sn  Sn0  1  0.00000000  0.00000000  0.00000000  1
  O  O0  1  0.75666200  0.33937100  0.15515500  1
  O  O1  1  0.15515500  0.75666200  0.33937100  1
  O  O2  1  0.33937100  0.15515500  0.75666200  1
  O  O3  1  0.24333800  0.66062900  0.84484500  1
  O  O4  1  0.66062900  0.84484500  0.24333800  1
  O  O5  1  0.84484500  0.24333800  0.66062900  1
loop_
_geom_bond_atom_site_label_1
_geom_bond_atom_site_label_2
_geom_bond_distance
_geom_bond_site_symmetry_2
La0 O2 2.366059 1_565
La0 O1 2.366059 1_655
La0 O0 2.366059 1_556
La0 O4 2.872196 1_556
La0 O3 2.872197 1_655
La0 O5 2.872197 1_565
La0 O4 2.934722 1_555
La0 O5 2.934722 1_555
La0 O3 2.934722 1_555
La1 O4 2.366059 1_545
La1 O5 2.366059 1_455
La1 O3 2.366059 1_554
La1 O2 2.872196 1_554
La1 O0 2.872197 1_455
La1 O1 2.872197 1_545
La1 O2 2.934722 1_555
La1 O1 2.934722 1_555
La1 O0 2.934722 1_555
O0 Sn0 2.081452 1_655
O0 Zn0 2.125527 1_555
O1 Sn0 2.081452 1_565
O1 Zn0 2.125527 1_555
O2 Sn0 2.081452 1_556
O2 Zn0 2.125527 1_555
O3 Sn0 2.081452 1_566
O3 Zn0 2.125527 1_555
O4 Sn0 2.081452 1_665
O4 Zn0 2.125527 1_555
O5 Sn0 2.081452 1_656
O5 Zn0 2.125527 1_555
