# generated using pymatgen
data_K7As2W8O39
_symmetry_space_group_name_H-M   'P 1'
_cell_length_a   21.33627800
_cell_length_b   9.64618100
_cell_length_c   9.81850466
_cell_angle_alpha   80.52595935
_cell_angle_beta   90.00000000
_cell_angle_gamma   90.00000000
_symmetry_Int_Tables_number   1
_chemical_formula_structural   K7As2W8O39
_chemical_formula_sum   'K14 As4 W16 O78'
_cell_volume   1993.21888644
_cell_formula_units_Z   2
loop_
 _symmetry_equiv_pos_site_id
 _symmetry_equiv_pos_as_xyz
  1  'x, y, z'
loop_
 _atom_site_type_symbol
 _atom_site_label
 _atom_site_symmetry_multiplicity
 _atom_site_fract_x
 _atom_site_fract_y
 _atom_site_fract_z
 _atom_site_occupancy
  K  K0  1  0.59568900  0.16933400  0.72598400  1
  K  K1  1  0.09568900  0.83066600  0.27401600  1
  K  K2  1  0.40431100  0.83066600  0.27401600  1
  K  K3  1  0.90431100  0.16933400  0.72598400  1
  K  K4  1  0.61911000  0.24840400  0.23146900  1
  K  K5  1  0.11911000  0.75159600  0.76853100  1
  K  K6  1  0.38089000  0.75159600  0.76853100  1
  K  K7  1  0.88089000  0.24840400  0.23146900  1
  K  K8  1  0.57621100  0.73317200  0.80553800  1
  K  K9  1  0.07621100  0.26682800  0.19446200  1
  K  K10  1  0.42378900  0.26682800  0.19446200  1
  K  K11  1  0.92378900  0.73317200  0.80553800  1
  K  K12  1  0.75000000  0.74816600  0.77609300  1
  K  K13  1  0.25000000  0.25183400  0.22390700  1
  As  As0  1  0.75000000  0.64684300  0.21762900  1
  As  As1  1  0.25000000  0.35315700  0.78237100  1
  As  As2  1  0.75000000  0.25558000  0.49592000  1
  As  As3  1  0.25000000  0.74442000  0.50408000  1
  W  W0  1  0.67048900  0.96714000  0.03088700  1
  W  W1  1  0.17048900  0.03286000  0.96911300  1
  W  W2  1  0.32951100  0.03286000  0.96911300  1
  W  W3  1  0.82951100  0.96714000  0.03088700  1
  W  W4  1  0.66191900  0.89125400  0.42513200  1
  W  W5  1  0.16191900  0.10874600  0.57486800  1
  W  W6  1  0.33808100  0.10874600  0.57486800  1
  W  W7  1  0.83808100  0.89125400  0.42513200  1
  W  W8  1  0.58254600  0.66733900  0.24368900  1
  W  W9  1  0.08254600  0.33266100  0.75631100  1
  W  W10  1  0.41745400  0.33266100  0.75631100  1
  W  W11  1  0.91745400  0.66733900  0.24368900  1
  W  W12  1  0.66048300  0.53521800  0.53864700  1
  W  W13  1  0.16048300  0.46478200  0.46135300  1
  W  W14  1  0.33951700  0.46478200  0.46135300  1
  W  W15  1  0.83951700  0.53521800  0.53864700  1
  O  O0  1  0.61956000  0.11528700  0.00961300  1
  O  O1  1  0.11956000  0.88471300  0.99038700  1
  O  O2  1  0.38044000  0.88471300  0.99038700  1
  O  O3  1  0.88044000  0.11528700  0.00961300  1
  O  O4  1  0.75000000  0.06724600  0.01147800  1
  O  O5  1  0.25000000  0.93275400  0.98852200  1
  O  O6  1  0.75000000  0.80637400  0.09526600  1
  O  O7  1  0.25000000  0.19362600  0.90473400  1
  O  O8  1  0.61146400  0.81456800  0.10278400  1
  O  O9  1  0.11146400  0.18543200  0.89721600  1
  O  O10  1  0.38853600  0.18543200  0.89721600  1
  O  O11  1  0.88853600  0.81456800  0.10278400  1
  O  O12  1  0.61254600  0.52482100  0.15922900  1
  O  O13  1  0.11254600  0.47517900  0.84077100  1
  O  O14  1  0.38745400  0.47517900  0.84077100  1
  O  O15  1  0.88745400  0.52482100  0.15922900  1
  O  O16  1  0.50142200  0.66799800  0.21224000  1
  O  O17  1  0.00142200  0.33200200  0.78776000  1
  O  O18  1  0.49857800  0.33200200  0.78776000  1
  O  O19  1  0.99857800  0.66799800  0.21224000  1
  O  O20  1  0.67726600  0.98330400  0.24775000  1
  O  O21  1  0.17726600  0.01669600  0.75225000  1
  O  O22  1  0.32273400  0.01669600  0.75225000  1
  O  O23  1  0.82273400  0.98330400  0.24775000  1
  O  O24  1  0.68485900  0.68723500  0.33191700  1
  O  O25  1  0.18485900  0.31276500  0.66808300  1
  O  O26  1  0.31514100  0.31276500  0.66808300  1
  O  O27  1  0.81514100  0.68723500  0.33191700  1
  O  O28  1  0.57908100  0.82781000  0.36657800  1
  O  O29  1  0.07908100  0.17219000  0.63342200  1
  O  O30  1  0.42091900  0.17219000  0.63342200  1
  O  O31  1  0.92091900  0.82781000  0.36657800  1
  O  O32  1  0.58570500  0.54587100  0.42957600  1
  O  O33  1  0.08570500  0.45412900  0.57042400  1
  O  O34  1  0.41429500  0.45412900  0.57042400  1
  O  O35  1  0.91429500  0.54587100  0.42957600  1
  O  O36  1  0.68443700  0.37052600  0.44444600  1
  O  O37  1  0.18443700  0.62947400  0.55555400  1
  O  O38  1  0.31556300  0.62947400  0.55555400  1
  O  O39  1  0.81556300  0.37052600  0.44444600  1
  O  O40  1  0.75000000  0.88662100  0.47812300  1
  O  O41  1  0.25000000  0.11337900  0.52187700  1
  O  O42  1  0.63509500  0.02852700  0.50933300  1
  O  O43  1  0.13509500  0.97147300  0.49066700  1
  O  O44  1  0.36490500  0.97147300  0.49066700  1
  O  O45  1  0.86490500  0.02852700  0.50933300  1
  O  O46  1  0.65131900  0.72391300  0.57991100  1
  O  O47  1  0.15131900  0.27608700  0.42008900  1
  O  O48  1  0.34868100  0.27608700  0.42008900  1
  O  O49  1  0.84868100  0.72391300  0.57991100  1
  O  O50  1  0.75000000  0.54387000  0.57784000  1
  O  O51  1  0.25000000  0.45613000  0.42216000  1
  O  O52  1  0.75000000  0.19887800  0.66751000  1
  O  O53  1  0.25000000  0.80112200  0.33249000  1
  O  O54  1  0.63286200  0.44576000  0.69705100  1
  O  O55  1  0.13286200  0.55424000  0.30294900  1
  O  O56  1  0.36713800  0.55424000  0.30294900  1
  O  O57  1  0.86713800  0.44576000  0.69705100  1
  O  O58  1  0.66589000  0.91893400  0.86158500  1
  O  O59  1  0.16589000  0.08106600  0.13841500  1
  O  O60  1  0.33411000  0.08106600  0.13841500  1
  O  O61  1  0.83411000  0.91893400  0.86158500  1
  O  O62  1  0.52162600  0.01502600  0.26560600  1
  O  O63  1  0.02162600  0.98497400  0.73439400  1
  O  O64  1  0.47837400  0.98497400  0.73439400  1
  O  O65  1  0.97837400  0.01502600  0.26560600  1
  O  O66  1  0.50017700  0.23986200  0.46743000  1
  O  O67  1  0.00017700  0.76013800  0.53257000  1
  O  O68  1  0.49982300  0.76013800  0.53257000  1
  O  O69  1  0.99982300  0.23986200  0.46743000  1
  O  O70  1  0.51250800  0.44243900  0.01928300  1
  O  O71  1  0.01250800  0.55756100  0.98071700  1
  O  O72  1  0.48749200  0.55756100  0.98071700  1
  O  O73  1  0.98749200  0.44243900  0.01928300  1
  O  O74  1  0.66296100  0.55212600  0.96766200  1
  O  O75  1  0.16296100  0.44787400  0.03233800  1
  O  O76  1  0.33703900  0.44787400  0.03233800  1
  O  O77  1  0.83703900  0.55212600  0.96766200  1
loop_
_geom_bond_atom_site_label_1
_geom_bond_atom_site_label_2
_geom_bond_distance
_geom_bond_site_symmetry_2
K0 O18 2.726995 1_555
K0 O54 2.751432 1_555
K0 O0 2.794358 1_556
K0 O42 2.833342 1_555
K0 O58 2.965067 1_545
K0 O64 3.063725 1_545
K0 O66 3.239099 1_555
K0 O52 3.346195 1_555
K1 O19 2.726995 1_455
K1 O55 2.751432 1_555
K1 O1 2.794358 1_554
K1 O43 2.833342 1_555
K1 O59 2.965067 1_565
K1 O65 3.063725 1_465
K1 O67 3.239099 1_555
K1 O53 3.346195 1_555
K2 O16 2.726995 1_555
K2 O56 2.751432 1_555
K2 O2 2.794358 1_554
K2 O44 2.833342 1_555
K2 O60 2.965067 1_565
K2 O62 3.063725 1_565
K2 O68 3.239099 1_555
K2 O53 3.346195 1_555
K3 O17 2.726995 1_655
K3 O57 2.751432 1_555
K3 O3 2.794358 1_556
K3 O45 2.833342 1_555
K3 O61 2.965067 1_545
K3 O63 3.063725 1_645
K3 O69 3.239099 1_555
K3 O52 3.346195 1_555
K4 O12 2.647571 1_555
K4 O0 2.704570 1_555
K4 O20 2.823107 1_545
K4 O36 2.917909 1_555
K4 O62 3.042704 1_555
K4 O42 3.186387 1_555
K4 O66 3.427942 1_555
K5 O13 2.647571 1_555
K5 O1 2.704570 1_555
K5 O21 2.823107 1_565
K5 O37 2.917909 1_555
K5 O63 3.042704 1_555
K5 O43 3.186387 1_555
K5 O67 3.427942 1_555
K6 O14 2.647571 1_555
K6 O2 2.704570 1_555
K6 O22 2.823107 1_565
K6 O38 2.917909 1_555
K6 O64 3.042704 1_555
K6 O44 3.186387 1_555
K6 O68 3.427942 1_555
K7 O15 2.647571 1_555
K7 O3 2.704570 1_555
K7 O23 2.823107 1_545
K7 O39 2.917909 1_555
K7 O65 3.042704 1_555
K7 O45 3.186387 1_555
K7 O69 3.427942 1_555
K8 O58 2.738520 1_555
K8 O46 2.747515 1_555
K8 O74 2.845092 1_555
K8 O72 2.907226 1_555
K8 O68 3.110894 1_555
K8 O64 3.191652 1_555
K8 O8 3.233312 1_556
K8 O54 3.354721 1_555
K9 O59 2.738520 1_555
K9 O47 2.747515 1_555
K9 O75 2.845092 1_555
K9 O73 2.907226 1_455
K9 O69 3.110894 1_455
K9 O65 3.191652 1_455
K9 O9 3.233312 1_554
K9 O55 3.354721 1_555
K10 O60 2.738520 1_555
K10 O48 2.747515 1_555
K10 O76 2.845092 1_555
K10 O70 2.907226 1_555
K10 O66 3.110894 1_555
K10 O62 3.191652 1_555
K10 O10 3.233312 1_554
K10 O56 3.354721 1_555
K11 O61 2.738520 1_555
K11 O49 2.747515 1_555
K11 O77 2.845092 1_555
K11 O71 2.907226 1_655
K11 O67 3.110894 1_655
K11 O63 3.191652 1_655
K11 O11 3.233312 1_556
K11 O57 3.354721 1_555
K12 O58 2.663423 1_555
K12 O61 2.663423 1_555
K12 O49 2.889022 1_555
K12 O46 2.889022 1_555
K12 O50 2.989220 1_555
K12 O40 3.009431 1_555
K12 O74 3.064593 1_555
K12 O77 3.064593 1_555
K12 O6 3.273413 1_556
K13 O59 2.663423 1_555
K13 O60 2.663423 1_555
K13 O48 2.889022 1_555
K13 O47 2.889022 1_555
K13 O51 2.989220 1_555
K13 O41 3.009431 1_555
K13 O76 3.064593 1_555
K13 O75 3.064593 1_555
K13 O7 3.273413 1_554
As0 O6 1.789660 1_555
As0 O27 1.867261 1_555
As0 O24 1.867261 1_555
As1 O7 1.789660 1_555
As1 O25 1.867261 1_555
As1 O26 1.867261 1_555
As2 O52 1.683512 1_555
As2 O39 1.804772 1_555
As2 O36 1.804772 1_555
As3 O53 1.683512 1_555
As3 O38 1.804772 1_555
As3 O37 1.804772 1_555
O0 W0 1.779981 1_545
O1 W1 1.779981 1_565
O2 W2 1.779981 1_565
O3 W3 1.779981 1_545
O4 W3 1.945817 1_545
O4 W0 1.945817 1_545
O5 W1 1.945817 1_565
O5 W2 1.945817 1_565
O6 W0 2.315119 1_555
O6 W3 2.315119 1_555
O7 W2 2.315119 1_555
O7 W1 2.315119 1_555
O8 W8 1.914378 1_555
O8 W0 1.976952 1_555
O9 W9 1.914378 1_555
O9 W1 1.976952 1_555
O10 W10 1.914378 1_555
O10 W2 1.976952 1_555
O11 W11 1.914378 1_555
O11 W3 1.976952 1_555
O12 W8 1.833755 1_555
O13 W9 1.833755 1_555
O14 W10 1.833755 1_555
O15 W11 1.833755 1_555
O16 W8 1.758039 1_555
O17 W9 1.758039 1_555
O18 W10 1.758039 1_555
O19 W11 1.758039 1_555
O20 W4 1.849274 1_555
O20 W0 2.165250 1_555
O21 W5 1.849274 1_555
O21 W1 2.165250 1_555
O22 W6 1.849274 1_555
O22 W2 2.165250 1_555
O23 W7 1.849274 1_555
O23 W3 2.165250 1_555
O24 W4 2.354402 1_555
O24 W12 2.358164 1_555
O24 W8 2.367990 1_555
O25 W5 2.354402 1_555
O25 W13 2.358164 1_555
O25 W9 2.367990 1_555
O26 W6 2.354402 1_555
O26 W14 2.358164 1_555
O26 W10 2.367990 1_555
O27 W7 2.354402 1_555
O27 W15 2.358164 1_555
O27 W11 2.367990 1_555
O28 W4 1.986148 1_555
O28 W8 2.114773 1_555
O29 W5 1.986148 1_555
O29 W9 2.114773 1_555
O30 W6 1.986148 1_555
O30 W10 2.114773 1_555
O31 W7 1.986148 1_555
O31 W11 2.114773 1_555
O32 W12 1.914878 1_555
O32 W8 2.001134 1_555
O33 W13 1.914878 1_555
O33 W9 2.001134 1_555
O34 W14 1.914878 1_555
O34 W10 2.001134 1_555
O35 W15 1.914878 1_555
O35 W11 2.001134 1_555
O36 W12 2.030812 1_555
O37 W13 2.030812 1_555
O38 W14 2.030812 1_555
O39 W15 2.030812 1_555
O40 W7 1.948562 1_555
O40 W4 1.948562 1_555
O41 W6 1.948562 1_555
O41 W5 1.948562 1_555
O42 W4 1.767715 1_545
O43 W5 1.767715 1_565
O44 W6 1.767715 1_565
O45 W7 1.767715 1_545
O46 W12 1.938614 1_555
O46 W4 2.039293 1_555
O47 W13 1.938614 1_555
O47 W5 2.039293 1_555
O48 W14 1.938614 1_555
O48 W6 2.039293 1_555
O49 W15 1.938614 1_555
O49 W7 2.039293 1_555
O50 W15 1.952836 1_555
O50 W12 1.952836 1_555
O51 W14 1.952836 1_555
O51 W13 1.952836 1_555
O54 W12 1.751873 1_555
O55 W13 1.751873 1_555
O56 W14 1.751873 1_555
O57 W15 1.751873 1_555
O58 W0 1.800982 1_556
O59 W1 1.800982 1_554
O60 W2 1.800982 1_554
O61 W3 1.800982 1_556
O70 O72 1.234109 1_554
O71 O73 1.234109 1_456
