# generated using pymatgen
data_YbCe2In
_symmetry_space_group_name_H-M   'P 1'
_cell_length_a   5.46546307
_cell_length_b   5.46546307
_cell_length_c   5.46546307
_cell_angle_alpha   60.00000000
_cell_angle_beta   60.00000000
_cell_angle_gamma   60.00000000
_symmetry_Int_Tables_number   1
_chemical_formula_structural   YbCe2In
_chemical_formula_sum   'Yb1 Ce2 In1'
_cell_volume   115.44254563
_cell_formula_units_Z   1
loop_
 _symmetry_equiv_pos_site_id
 _symmetry_equiv_pos_as_xyz
  1  'x, y, z'
loop_
 _atom_site_type_symbol
 _atom_site_label
 _atom_site_symmetry_multiplicity
 _atom_site_fract_x
 _atom_site_fract_y
 _atom_site_fract_z
 _atom_site_occupancy
  Yb  Yb0  1  0.00000000  0.00000000  0.00000000  1
  Ce  Ce0  1  0.75000000  0.75000000  0.75000000  1
  Ce  Ce1  1  0.25000000  0.25000000  0.25000000  1
  In  In0  1  0.50000000  0.50000000  0.50000000  1
loop_
_geom_bond_atom_site_label_1
_geom_bond_atom_site_label_2
_geom_bond_distance
_geom_bond_site_symmetry_2
Ce0 In0 3.346899 1_655
Ce0 Yb0 3.346899 1_566
Ce0 Yb0 3.346899 1_666
Ce0 Yb0 3.346899 1_656
Ce0 Yb0 3.346899 1_665
Ce0 In0 3.346899 1_555
Ce0 In0 3.346899 1_556
Ce0 In0 3.346899 1_565
Ce1 Yb0 3.346899 1_555
Ce1 Yb0 3.346899 1_556
Ce1 In0 3.346899 1_554
Ce1 Yb0 3.346899 1_655
Ce1 In0 3.346899 1_455
Ce1 Yb0 3.346899 1_565
Ce1 In0 3.346899 1_555
Ce1 In0 3.346899 1_545
In0 Yb0 3.864666 1_556
In0 Yb0 3.864666 1_566
In0 Yb0 3.864666 1_655
In0 Yb0 3.864666 1_565
In0 Yb0 3.864666 1_656
In0 Yb0 3.864666 1_665
