# generated using pymatgen
data_V(Si2O5)2
_symmetry_space_group_name_H-M   'P 1'
_cell_length_a   7.39946500
_cell_length_b   7.39946500
_cell_length_c   15.67515800
_cell_angle_alpha   90.00000000
_cell_angle_beta   90.00000000
_cell_angle_gamma   90.00000000
_symmetry_Int_Tables_number   1
_chemical_formula_structural   V(Si2O5)2
_chemical_formula_sum   'V4 Si16 O40'
_cell_volume   858.24754067
_cell_formula_units_Z   4
loop_
 _symmetry_equiv_pos_site_id
 _symmetry_equiv_pos_as_xyz
  1  'x, y, z'
loop_
 _atom_site_type_symbol
 _atom_site_label
 _atom_site_symmetry_multiplicity
 _atom_site_fract_x
 _atom_site_fract_y
 _atom_site_fract_z
 _atom_site_occupancy
  V  V0  1  0.50000000  0.00000000  0.57541200  1
  V  V1  1  0.00000000  0.50000000  0.92458800  1
  V  V2  1  0.00000000  0.50000000  0.42458800  1
  V  V3  1  0.50000000  0.00000000  0.07541200  1
  Si  Si0  1  0.17294000  0.25500800  0.64996400  1
  Si  Si1  1  0.82706000  0.74499200  0.64996400  1
  Si  Si2  1  0.25500800  0.17294000  0.85003600  1
  Si  Si3  1  0.75500800  0.32706000  0.64996400  1
  Si  Si4  1  0.24499200  0.67294000  0.64996400  1
  Si  Si5  1  0.32706000  0.75500800  0.85003600  1
  Si  Si6  1  0.67294000  0.24499200  0.85003600  1
  Si  Si7  1  0.74499200  0.82706000  0.85003600  1
  Si  Si8  1  0.32706000  0.24499200  0.35003600  1
  Si  Si9  1  0.67294000  0.75500800  0.35003600  1
  Si  Si10  1  0.24499200  0.32706000  0.14996400  1
  Si  Si11  1  0.74499200  0.17294000  0.35003600  1
  Si  Si12  1  0.25500800  0.82706000  0.35003600  1
  Si  Si13  1  0.17294000  0.74499200  0.14996400  1
  Si  Si14  1  0.82706000  0.25500800  0.14996400  1
  Si  Si15  1  0.75500800  0.67294000  0.14996400  1
  O  O0  1  0.27729000  0.10706900  0.59154400  1
  O  O1  1  0.72271000  0.89293100  0.59154400  1
  O  O2  1  0.10706900  0.27729000  0.90845600  1
  O  O3  1  0.60706900  0.22271000  0.59154400  1
  O  O4  1  0.39293100  0.77729000  0.59154400  1
  O  O5  1  0.22271000  0.60706900  0.90845600  1
  O  O6  1  0.77729000  0.39293100  0.90845600  1
  O  O7  1  0.89293100  0.72271000  0.90845600  1
  O  O8  1  0.22271000  0.39293100  0.40845600  1
  O  O9  1  0.77729000  0.60706900  0.40845600  1
  O  O10  1  0.39293100  0.22271000  0.09154400  1
  O  O11  1  0.89293100  0.27729000  0.40845600  1
  O  O12  1  0.10706900  0.72271000  0.40845600  1
  O  O13  1  0.27729000  0.89293100  0.09154400  1
  O  O14  1  0.72271000  0.10706900  0.09154400  1
  O  O15  1  0.25141700  0.04251100  0.37157600  1
  O  O16  1  0.60706900  0.77729000  0.09154400  1
  O  O17  1  0.75141700  0.54251100  0.62842400  1
  O  O18  1  0.45748900  0.24858300  0.87157600  1
  O  O19  1  0.95748900  0.25141700  0.62842400  1
  O  O20  1  0.04251100  0.74858300  0.62842400  1
  O  O21  1  0.25141700  0.95748900  0.87157600  1
  O  O22  1  0.74858300  0.04251100  0.87157600  1
  O  O23  1  0.54251100  0.75141700  0.87157600  1
  O  O24  1  0.70652100  0.70652100  0.25000000  1
  O  O25  1  0.79347900  0.20652100  0.25000000  1
  O  O26  1  0.20652100  0.79347900  0.25000000  1
  O  O27  1  0.29347900  0.29347900  0.25000000  1
  O  O28  1  0.79347900  0.79347900  0.75000000  1
  O  O29  1  0.70652100  0.29347900  0.75000000  1
  O  O30  1  0.29347900  0.70652100  0.75000000  1
  O  O31  1  0.20652100  0.20652100  0.75000000  1
  O  O32  1  0.95748900  0.74858300  0.12842400  1
  O  O33  1  0.75141700  0.45748900  0.12842400  1
  O  O34  1  0.24858300  0.54251100  0.12842400  1
  O  O35  1  0.45748900  0.75141700  0.37157600  1
  O  O36  1  0.54251100  0.24858300  0.37157600  1
  O  O37  1  0.04251100  0.25141700  0.12842400  1
  O  O38  1  0.74858300  0.95748900  0.37157600  1
  O  O39  1  0.24858300  0.45748900  0.62842400  1
loop_
_geom_bond_atom_site_label_1
_geom_bond_atom_site_label_2
_geom_bond_distance
_geom_bond_site_symmetry_2
O0 Si0 1.622676 1_555
O0 V0 1.845887 1_555
O1 Si1 1.622676 1_555
O1 V0 1.845887 1_565
O2 Si2 1.622676 1_555
O2 V1 1.845887 1_555
O3 Si3 1.622676 1_555
O3 V0 1.845887 1_555
O4 Si4 1.622676 1_555
O4 V0 1.845887 1_565
O5 Si5 1.622676 1_555
O5 V1 1.845887 1_555
O6 Si6 1.622676 1_555
O6 V1 1.845887 1_655
O7 Si7 1.622676 1_555
O7 V1 1.845887 1_655
O8 Si8 1.622676 1_555
O8 V2 1.845887 1_555
O9 Si9 1.622676 1_555
O9 V2 1.845887 1_655
O10 Si10 1.622676 1_555
O10 V3 1.845887 1_555
O11 Si11 1.622676 1_555
O11 V2 1.845887 1_655
O12 Si12 1.622676 1_555
O12 V2 1.845887 1_555
O13 Si13 1.622676 1_555
O13 V3 1.845887 1_565
O14 Si14 1.622676 1_555
O14 V3 1.845887 1_555
O15 Si12 1.629802 1_545
O15 Si8 1.634638 1_555
O16 Si15 1.622676 1_555
O16 V3 1.845887 1_565
O17 Si3 1.629802 1_555
O17 Si1 1.634638 1_555
O18 Si6 1.629802 1_555
O18 Si2 1.634638 1_555
O19 Si0 1.629802 1_655
O19 Si3 1.634638 1_555
O20 Si1 1.629802 1_455
O20 Si4 1.634638 1_555
O21 Si2 1.629802 1_565
O21 Si5 1.634638 1_555
O22 Si7 1.629802 1_545
O22 Si6 1.634638 1_555
O23 Si5 1.629802 1_555
O23 Si7 1.634638 1_555
O24 Si9 1.627679 1_555
O24 Si15 1.627679 1_555
O25 Si11 1.627679 1_555
O25 Si14 1.627679 1_555
O26 Si12 1.627679 1_555
O26 Si13 1.627679 1_555
O27 Si8 1.627679 1_555
O27 Si10 1.627679 1_555
O28 Si7 1.627679 1_555
O28 Si1 1.627679 1_555
O29 Si6 1.627679 1_555
O29 Si3 1.627679 1_555
O30 Si4 1.627679 1_555
O30 Si5 1.627679 1_555
O31 Si0 1.627679 1_555
O31 Si2 1.627679 1_555
O32 Si13 1.629802 1_655
O32 Si15 1.634638 1_555
O33 Si15 1.629802 1_555
O33 Si14 1.634638 1_555
O34 Si10 1.629802 1_555
O34 Si13 1.634638 1_555
O35 Si9 1.629802 1_555
O35 Si12 1.634638 1_555
O36 Si8 1.629802 1_555
O36 Si11 1.634638 1_555
O37 Si14 1.629802 1_455
O37 Si10 1.634638 1_555
O38 Si11 1.629802 1_565
O38 Si9 1.634638 1_555
O39 Si4 1.629802 1_555
O39 Si0 1.634638 1_555
