# generated using pymatgen
data_Cu3H2(CO4)2
_symmetry_space_group_name_H-M   'P 1'
_cell_length_a   5.90695000
_cell_length_b   5.08278400
_cell_length_c   10.52727578
_cell_angle_alpha   87.93193887
_cell_angle_beta   90.00000000
_cell_angle_gamma   90.00000000
_symmetry_Int_Tables_number   1
_chemical_formula_structural   Cu3H2(CO4)2
_chemical_formula_sum   'Cu6 H4 C4 O16'
_cell_volume   315.86243993
_cell_formula_units_Z   2
loop_
 _symmetry_equiv_pos_site_id
 _symmetry_equiv_pos_as_xyz
  1  'x, y, z'
loop_
 _atom_site_type_symbol
 _atom_site_label
 _atom_site_symmetry_multiplicity
 _atom_site_fract_x
 _atom_site_fract_y
 _atom_site_fract_z
 _atom_site_occupancy
  Cu  Cu0  1  0.49996700  0.99770400  0.74975100  1
  Cu  Cu1  1  0.99996700  0.00229600  0.25024900  1
  Cu  Cu2  1  0.00196600  0.25391600  0.66564100  1
  Cu  Cu3  1  0.50196600  0.74608400  0.33435900  1
  Cu  Cu4  1  0.99865900  0.74842700  0.83399400  1
  Cu  Cu5  1  0.49865900  0.25157300  0.16600600  1
  H  H0  1  0.69728600  0.17677900  0.38028000  1
  H  H1  1  0.19728600  0.82322100  0.61972000  1
  H  H2  1  0.29761800  0.81582500  0.12354300  1
  H  H3  1  0.79761800  0.18417500  0.87645700  1
  C  C0  1  0.19821000  0.33138200  0.43175600  1
  C  C1  1  0.69821000  0.66861800  0.56824400  1
  C  C2  1  0.80254500  0.66952800  0.06883300  1
  C  C3  1  0.30254500  0.33047200  0.93116700  1
  O  O0  1  0.09848100  0.10745900  0.41718900  1
  O  O1  1  0.59848100  0.89254100  0.58281100  1
  O  O2  1  0.90453200  0.89286800  0.08318700  1
  O  O3  1  0.40453200  0.10713200  0.91681300  1
  O  O4  1  0.68600500  0.06822700  0.30469700  1
  O  O5  1  0.18600500  0.93177300  0.69530300  1
  O  O6  1  0.31334200  0.92458700  0.19869300  1
  O  O7  1  0.81334200  0.07541300  0.80130700  1
  O  O8  1  0.29260100  0.45094800  0.33479300  1
  O  O9  1  0.79260100  0.54905200  0.66520700  1
  O  O10  1  0.70990400  0.54794500  0.16576700  1
  O  O11  1  0.20990400  0.45205500  0.83423300  1
  O  O12  1  0.20185900  0.43114600  0.54263200  1
  O  O13  1  0.70185900  0.56885400  0.45736800  1
  O  O14  1  0.79702300  0.57174900  0.95733800  1
  O  O15  1  0.29702300  0.42825100  0.04266200  1
loop_
_geom_bond_atom_site_label_1
_geom_bond_atom_site_label_2
_geom_bond_distance
_geom_bond_site_symmetry_2
Cu0 O1 1.944396 1_555
Cu0 O3 1.946998 1_565
Cu0 O7 1.972964 1_565
Cu0 O5 1.973346 1_555
Cu1 O0 1.944396 1_655
Cu1 O2 1.946998 1_545
Cu1 O6 1.972964 1_645
Cu1 O4 1.973346 1_555
Cu2 O9 1.944045 1_455
Cu2 O12 1.948941 1_555
Cu2 O5 1.980766 1_545
Cu2 O7 2.002703 1_455
Cu2 O11 2.408710 1_555
Cu3 O8 1.944045 1_555
Cu3 O13 1.948941 1_555
Cu3 O4 1.980766 1_565
Cu3 O6 2.002703 1_555
Cu3 O10 2.408710 1_555
Cu4 O11 1.956016 1_655
Cu4 O14 1.956253 1_555
Cu4 O7 2.009391 1_565
Cu4 O5 2.031409 1_655
Cu4 O9 2.407419 1_555
Cu5 O10 1.956016 1_555
Cu5 O15 1.956253 1_555
Cu5 O6 2.009391 1_545
Cu5 O4 2.031409 1_555
Cu5 O8 2.407419 1_555
H0 O4 0.986743 1_555
H1 O5 0.986743 1_555
H2 O6 0.985735 1_555
H3 O7 0.985735 1_555
C0 O12 1.289465 1_555
C0 O8 1.295137 1_555
C0 O0 1.295583 1_555
C1 O13 1.289465 1_555
C1 O9 1.295137 1_555
C1 O1 1.295583 1_555
C2 O14 1.291443 1_554
C2 O10 1.295053 1_555
C2 O2 1.298766 1_555
C3 O15 1.291443 1_556
C3 O11 1.295053 1_555
C3 O3 1.298766 1_555
