# generated using pymatgen
data_Mg(B3O8)2
_symmetry_space_group_name_H-M   'P 1'
_cell_length_a   11.58213052
_cell_length_b   10.34048820
_cell_length_c   10.58977504
_cell_angle_alpha   90.00000000
_cell_angle_beta   92.50987404
_cell_angle_gamma   90.00000000
_symmetry_Int_Tables_number   1
_chemical_formula_structural   Mg(B3O8)2
_chemical_formula_sum   'Mg4 B24 O64'
_cell_volume   1267.06650141
_cell_formula_units_Z   4
loop_
 _symmetry_equiv_pos_site_id
 _symmetry_equiv_pos_as_xyz
  1  'x, y, z'
loop_
 _atom_site_type_symbol
 _atom_site_label
 _atom_site_symmetry_multiplicity
 _atom_site_fract_x
 _atom_site_fract_y
 _atom_site_fract_z
 _atom_site_occupancy
  Mg  Mg0  1  0.50000000  0.50000000  0.00000000  1
  Mg  Mg1  1  0.50000000  -0.00000000  0.50000000  1
  Mg  Mg2  1  -0.00000000  0.50000000  0.50000000  1
  Mg  Mg3  1  -0.00000000  -0.00000000  0.00000000  1
  B  B0  1  0.30254802  0.38618850  0.79062545  1
  B  B1  1  0.69745198  0.88618850  0.70937455  1
  B  B2  1  0.69745198  0.61381150  0.20937455  1
  B  B3  1  0.30254802  0.11381150  0.29062545  1
  B  B4  1  0.23155043  0.58389722  0.90794516  1
  B  B5  1  0.76844957  0.08389722  0.59205484  1
  B  B6  1  0.76844957  0.41610278  0.09205484  1
  B  B7  1  0.23155043  0.91610278  0.40794516  1
  B  B8  1  0.37284653  0.60899621  0.73214502  1
  B  B9  1  0.62715347  0.10899621  0.76785498  1
  B  B10  1  0.62715347  0.39100379  0.26785498  1
  B  B11  1  0.37284653  0.89100379  0.23214502  1
  B  B12  1  0.13693384  0.37902264  0.91791102  1
  B  B13  1  0.86306616  0.87902264  0.58208898  1
  B  B14  1  0.86306616  0.62097736  0.08208898  1
  B  B15  1  0.13693384  0.12097736  0.41791102  1
  B  B16  1  0.38331168  0.42500898  0.58641628  1
  B  B17  1  0.61668832  0.92500898  0.91358372  1
  B  B18  1  0.61668832  0.57499102  0.41358372  1
  B  B19  1  0.38331168  0.07499102  0.08641628  1
  B  B20  1  0.25505688  0.78450228  0.80220385  1
  B  B21  1  0.74494312  0.28450228  0.69779615  1
  B  B22  1  0.74494312  0.21549772  0.19779615  1
  B  B23  1  0.25505688  0.71549772  0.30220385  1
  O  O0  1  0.40043293  0.38624332  0.88529678  1
  O  O1  1  0.59956707  0.88624332  0.61470322  1
  O  O2  1  0.59956707  0.61375668  0.11470322  1
  O  O3  1  0.40043293  0.11375668  0.38529678  1
  O  O4  1  0.33489812  0.56845901  0.99234189  1
  O  O5  1  0.66510188  0.06845901  0.50765811  1
  O  O6  1  0.66510188  0.43154099  0.00765811  1
  O  O7  1  0.33489812  0.93154099  0.49234189  1
  O  O8  1  0.46490541  0.58875645  0.83059545  1
  O  O9  1  0.53509459  0.08875645  0.66940455  1
  O  O10  1  0.53509459  0.41124355  0.16940455  1
  O  O11  1  0.46490541  0.91124355  0.33059545  1
  O  O12  1  0.04375773  0.30177770  0.97321616  1
  O  O13  1  0.95624227  0.80177770  0.52678384  1
  O  O14  1  0.95624227  0.69822230  0.02678384  1
  O  O15  1  0.04375773  0.19822230  0.47321616  1
  O  O16  1  0.39876793  0.37577627  0.46790774  1
  O  O17  1  0.60123207  0.87577627  0.03209226  1
  O  O18  1  0.60123207  0.62422373  0.53209226  1
  O  O19  1  0.39876793  0.12422373  0.96790774  1
  O  O20  1  0.21663476  0.92010454  0.77430311  1
  O  O21  1  0.78336524  0.42010454  0.72569689  1
  O  O22  1  0.78336524  0.07989546  0.22569689  1
  O  O23  1  0.21663476  0.57989546  0.27430311  1
  O  O24  1  0.12483534  0.59314799  0.59760842  1
  O  O25  1  0.87516466  0.09314799  0.90239158  1
  O  O26  1  0.87516466  0.40685201  0.40239158  1
  O  O27  1  0.12483534  0.90685201  0.09760842  1
  O  O28  1  0.07588523  0.32180815  0.47808378  1
  O  O29  1  0.92411477  0.82180815  0.02191622  1
  O  O30  1  0.92411477  0.67819185  0.52191622  1
  O  O31  1  0.07588523  0.17819185  0.97808378  1
  O  O32  1  0.86116269  0.47116930  0.65373387  1
  O  O33  1  0.13883731  0.97116930  0.84626613  1
  O  O34  1  0.13883731  0.52883070  0.34626613  1
  O  O35  1  0.86116269  0.02883070  0.15373387  1
  O  O36  1  0.26882293  0.53114184  0.77945903  1
  O  O37  1  0.73117707  0.03114184  0.72054097  1
  O  O38  1  0.73117707  0.46885816  0.22054097  1
  O  O39  1  0.26882293  0.96885816  0.27945903  1
  O  O40  1  0.33883093  0.34013964  0.67159203  1
  O  O41  1  0.66116907  0.84013964  0.82840797  1
  O  O42  1  0.66116907  0.65986036  0.32840797  1
  O  O43  1  0.33883093  0.15986036  0.17159203  1
  O  O44  1  0.20514268  0.31702220  0.83869654  1
  O  O45  1  0.79485732  0.81702220  0.66130346  1
  O  O46  1  0.79485732  0.68297780  0.16130346  1
  O  O47  1  0.20514268  0.18297780  0.33869654  1
  O  O48  1  0.13735152  0.50459399  0.95168270  1
  O  O49  1  0.86264848  0.00459399  0.54831730  1
  O  O50  1  0.86264848  0.49540601  0.04831730  1
  O  O51  1  0.13735152  0.99540601  0.45168270  1
  O  O52  1  0.19967726  0.71902156  0.89053387  1
  O  O53  1  0.80032274  0.21902156  0.60946613  1
  O  O54  1  0.80032274  0.28097844  0.10946613  1
  O  O55  1  0.19967726  0.78097844  0.39053387  1
  O  O56  1  0.40397399  0.55431249  0.61296268  1
  O  O57  1  0.59602601  0.05431249  0.88703732  1
  O  O58  1  0.59602601  0.44568751  0.38703732  1
  O  O59  1  0.40397399  0.94568751  0.11296268  1
  O  O60  1  0.33896279  0.74560158  0.72739973  1
  O  O61  1  0.66103721  0.24560158  0.77260027  1
  O  O62  1  0.66103721  0.25439842  0.27260027  1
  O  O63  1  0.33896279  0.75439842  0.22739973  1
loop_
_geom_bond_atom_site_label_1
_geom_bond_atom_site_label_2
_geom_bond_distance
_geom_bond_site_symmetry_2
Mg0 O0 2.016511 1_554
Mg0 O2 2.016511 1_555
Mg0 O4 2.037338 1_554
Mg0 O6 2.037338 1_555
Mg0 O8 2.040088 1_554
Mg0 O10 2.040088 1_555
Mg1 O1 2.016511 1_545
Mg1 O3 2.016511 1_555
Mg1 O7 2.037338 1_545
Mg1 O5 2.037338 1_555
Mg1 O11 2.040088 1_545
Mg1 O9 2.040088 1_555
Mg2 O26 1.988918 1_455
Mg2 O24 1.988918 1_555
Mg2 O28 2.058970 1_555
Mg2 O30 2.058970 1_455
Mg2 O34 2.356763 1_555
Mg2 O32 2.356763 1_455
Mg3 O27 1.988918 1_545
Mg3 O25 1.988918 1_454
Mg3 O29 2.058970 1_445
Mg3 O31 2.058970 1_554
Mg3 O35 2.356763 1_455
Mg3 O33 2.356763 1_544
B0 O40 1.427824 1_555
B0 O44 1.446970 1_555
B0 O0 1.480158 1_555
B0 O36 1.552153 1_555
B1 O41 1.427824 1_555
B1 O45 1.446970 1_555
B1 O1 1.480158 1_555
B1 O37 1.552153 1_565
B2 O42 1.427824 1_555
B2 O46 1.446970 1_555
B2 O2 1.480158 1_555
B2 O38 1.552153 1_555
B3 O43 1.427824 1_555
B3 O47 1.446970 1_555
B3 O3 1.480158 1_555
B3 O39 1.552153 1_545
B4 O52 1.454863 1_555
B4 O48 1.456563 1_555
B4 O4 1.470830 1_555
B4 O36 1.544905 1_555
B5 O53 1.454863 1_555
B5 O49 1.456563 1_555
B5 O5 1.470830 1_555
B5 O37 1.544905 1_555
B6 O54 1.454863 1_555
B6 O50 1.456563 1_555
B6 O6 1.470830 1_555
B6 O38 1.544905 1_555
B7 O55 1.454863 1_555
B7 O51 1.456563 1_555
B7 O7 1.470830 1_555
B7 O39 1.544905 1_555
B8 O56 1.443087 1_555
B8 O60 1.466341 1_555
B8 O8 1.473178 1_555
B8 O36 1.550356 1_555
B9 O57 1.443087 1_555
B9 O61 1.466341 1_555
B9 O9 1.473178 1_555
B9 O37 1.550356 1_555
B10 O58 1.443087 1_555
B10 O62 1.466341 1_555
B10 O10 1.473178 1_555
B10 O38 1.550356 1_555
B11 O59 1.443087 1_555
B11 O63 1.466341 1_555
B11 O11 1.473178 1_555
B11 O39 1.550356 1_555
B12 O44 1.340473 1_555
B12 O48 1.346773 1_555
B12 O12 1.483574 1_555
B13 O45 1.340473 1_555
B13 O49 1.346773 1_565
B13 O13 1.483574 1_555
B14 O46 1.340473 1_555
B14 O50 1.346773 1_555
B14 O14 1.483574 1_555
B15 O47 1.340473 1_555
B15 O51 1.346773 1_545
B15 O15 1.483574 1_555
B16 O16 1.373269 1_555
B16 O40 1.374724 1_555
B16 O56 1.384970 1_555
B17 O17 1.373269 1_556
B17 O41 1.374724 1_555
B17 O57 1.384970 1_565
B18 O18 1.373269 1_555
B18 O42 1.374724 1_555
B18 O58 1.384970 1_555
B19 O19 1.373269 1_554
B19 O43 1.374724 1_555
B19 O59 1.384970 1_545
B20 O52 1.340668 1_555
B20 O60 1.342073 1_555
B20 O20 1.496651 1_555
B21 O53 1.340668 1_555
B21 O61 1.342073 1_555
B21 O21 1.496651 1_555
B22 O54 1.340668 1_555
B22 O62 1.342073 1_555
B22 O22 1.496651 1_555
B23 O55 1.340668 1_555
B23 O63 1.342073 1_555
B23 O23 1.496651 1_555
O12 O31 1.331377 1_555
O13 O30 1.331377 1_555
O14 O29 1.331377 1_555
O15 O28 1.331377 1_555
O20 O33 1.315912 1_555
O21 O32 1.315912 1_555
O22 O35 1.315912 1_555
O23 O34 1.315912 1_555
