# generated using pymatgen
data_Ca2TeWO6
_symmetry_space_group_name_H-M   'P 1'
_cell_length_a   5.60159100
_cell_length_b   5.92196737
_cell_length_c   6.02798019
_cell_angle_alpha   69.14162203
_cell_angle_beta   66.37150405
_cell_angle_gamma   66.76548112
_symmetry_Int_Tables_number   1
_chemical_formula_structural   Ca2TeWO6
_chemical_formula_sum   'Ca2 Te1 W1 O6'
_cell_volume   163.62135675
_cell_formula_units_Z   1
loop_
 _symmetry_equiv_pos_site_id
 _symmetry_equiv_pos_as_xyz
  1  'x, y, z'
loop_
 _atom_site_type_symbol
 _atom_site_label
 _atom_site_symmetry_multiplicity
 _atom_site_fract_x
 _atom_site_fract_y
 _atom_site_fract_z
 _atom_site_occupancy
  Ca  Ca0  1  0.68448500  0.69954100  0.91480200  1
  Ca  Ca1  1  0.21426400  0.14093200  0.34845500  1
  Te  Te0  1  0.45850300  0.42454300  0.66788400  1
  W  W0  1  0.99945600  0.03233600  0.96049500  1
  O  O0  1  0.93895100  0.30833400  0.08567000  1
  O  O1  1  0.06760200  0.85192400  0.71755900  1
  O  O2  1  0.66808400  0.96545100  0.13579500  1
  O  O3  1  0.21771100  0.79629800  0.14874900  1
  O  O4  1  0.84728100  0.34346100  0.66746600  1
  O  O5  1  0.38727500  0.10345100  0.69257000  1
loop_
_geom_bond_atom_site_label_1
_geom_bond_atom_site_label_2
_geom_bond_distance
_geom_bond_site_symmetry_2
Ca0 O0 2.309118 1_556
Ca0 O2 2.354642 1_556
Ca0 O1 2.356292 1_655
Ca0 O3 2.364572 1_556
Ca0 O5 2.579088 1_565
Ca0 O4 2.670741 1_555
Ca1 O2 2.331875 1_545
Ca1 O1 2.342420 1_545
Ca1 O0 2.346087 1_455
Ca1 O4 2.427047 1_455
Ca1 O5 2.530844 1_555
Ca1 O3 2.704581 1_545
O0 W0 1.895211 1_554
O1 W0 1.943184 1_465
O1 Te0 2.632779 1_555
O2 W0 1.851683 1_564
O3 W0 1.835901 1_464
O4 Te0 2.035852 1_555
O4 W0 2.211704 1_555
O5 Te0 2.036302 1_555
O5 W0 2.220379 1_455
