# generated using pymatgen
data_PdPb2Se2(ClO3)2
_symmetry_space_group_name_H-M   'P 1'
_cell_length_a   5.28933859
_cell_length_b   8.33501756
_cell_length_c   13.12026189
_cell_angle_alpha   55.82824014
_cell_angle_beta   90.00000000
_cell_angle_gamma   90.00000000
_symmetry_Int_Tables_number   1
_chemical_formula_structural   PdPb2Se2(ClO3)2
_chemical_formula_sum   'Pd2 Pb4 Se4 Cl4 O12'
_cell_volume   478.56794792
_cell_formula_units_Z   2
loop_
 _symmetry_equiv_pos_site_id
 _symmetry_equiv_pos_as_xyz
  1  'x, y, z'
loop_
 _atom_site_type_symbol
 _atom_site_label
 _atom_site_symmetry_multiplicity
 _atom_site_fract_x
 _atom_site_fract_y
 _atom_site_fract_z
 _atom_site_occupancy
  Pd  Pd0  1  0.50000000  0.50000000  0.00000000  1
  Pd  Pd1  1  0.00000000  0.50000000  0.50000000  1
  Pb  Pb0  1  0.55513506  0.16390260  0.80598392  1
  Pb  Pb1  1  0.05513506  0.83609740  0.69401608  1
  Pb  Pb2  1  0.44486494  0.83609740  0.19401608  1
  Pb  Pb3  1  0.94486494  0.16390260  0.30598392  1
  Se  Se0  1  0.03509791  0.78795168  0.97579114  1
  Se  Se1  1  0.53509791  0.21204832  0.52420886  1
  Se  Se2  1  0.96490209  0.21204832  0.02420886  1
  Se  Se3  1  0.46490209  0.78795168  0.47579114  1
  Cl  Cl0  1  0.07947857  0.44103288  0.69062620  1
  Cl  Cl1  1  0.57947857  0.55896712  0.80937380  1
  Cl  Cl2  1  0.92052143  0.55896712  0.30937380  1
  Cl  Cl3  1  0.42052143  0.44103288  0.19062620  1
  O  O0  1  0.88172661  0.93856830  0.83863234  1
  O  O1  1  0.38172661  0.06143170  0.66136766  1
  O  O2  1  0.11827339  0.06143170  0.16136766  1
  O  O3  1  0.61827339  0.93856830  0.33863234  1
  O  O4  1  0.19891709  0.67174019  0.91992589  1
  O  O5  1  0.69891709  0.32825981  0.58007411  1
  O  O6  1  0.80108291  0.32825981  0.08007411  1
  O  O7  1  0.30108291  0.67174019  0.41992589  1
  O  O8  1  0.26359857  0.93099885  0.97693691  1
  O  O9  1  0.76359857  0.06900115  0.52306309  1
  O  O10  1  0.73640143  0.06900115  0.02306309  1
  O  O11  1  0.23640143  0.93099885  0.47693691  1
loop_
_geom_bond_atom_site_label_1
_geom_bond_atom_site_label_2
_geom_bond_distance
_geom_bond_site_symmetry_2
Cl0 Pd1 2.300595 1_555
Cl1 Pd0 2.300595 1_556
Cl2 Pd1 2.300595 1_655
Cl3 Pd0 2.300595 1_555
O0 Se0 1.713097 1_655
O0 Pb0 2.406518 1_565
O0 Pb1 2.644120 1_655
O1 Se1 1.713097 1_555
O1 Pb1 2.406518 1_545
O1 Pb0 2.644120 1_555
O2 Se2 1.713097 1_455
O2 Pb2 2.406518 1_545
O2 Pb3 2.644120 1_455
O3 Se3 1.713097 1_555
O3 Pb3 2.406518 1_565
O3 Pb2 2.644120 1_555
O4 Se0 1.738917 1_555
O4 Pd0 1.999895 1_556
O4 Pb1 2.584383 1_555
O5 Se1 1.738917 1_555
O5 Pd1 1.999895 1_655
O5 Pb0 2.584383 1_555
O6 Se2 1.738917 1_555
O6 Pd0 1.999895 1_555
O6 Pb3 2.584383 1_555
O7 Se3 1.738917 1_555
O7 Pd1 1.999895 1_555
O7 Pb2 2.584383 1_555
O8 Se0 1.703730 1_555
O8 Pb0 2.507178 1_565
O8 Pb2 2.669464 1_556
O9 Se1 1.703730 1_555
O9 Pb1 2.507178 1_645
O9 Pb3 2.669464 1_555
O10 Se2 1.703730 1_555
O10 Pb2 2.507178 1_545
O10 Pb0 2.669464 1_554
O11 Se3 1.703730 1_555
O11 Pb3 2.507178 1_465
O11 Pb1 2.669464 1_555
