# generated using pymatgen
data_Li7Mn2(CoO4)3
_symmetry_space_group_name_H-M   'P 1'
_cell_length_a   8.79026200
_cell_length_b   5.00004500
_cell_length_c   5.09801154
_cell_angle_alpha   71.53659046
_cell_angle_beta   90.00000000
_cell_angle_gamma   90.00000000
_symmetry_Int_Tables_number   1
_chemical_formula_structural   Li7Mn2(CoO4)3
_chemical_formula_sum   'Li7 Mn2 Co3 O12'
_cell_volume   212.53273556
_cell_formula_units_Z   1
loop_
 _symmetry_equiv_pos_site_id
 _symmetry_equiv_pos_as_xyz
  1  'x, y, z'
loop_
 _atom_site_type_symbol
 _atom_site_label
 _atom_site_symmetry_multiplicity
 _atom_site_fract_x
 _atom_site_fract_y
 _atom_site_fract_z
 _atom_site_occupancy
  Li  Li0  1  0.00541000  0.50000000  0.50000000  1
  Li  Li1  1  0.82482100  0.00000000  0.50000000  1
  Li  Li2  1  0.64876200  0.50000000  0.50000000  1
  Li  Li3  1  0.49655100  0.00000000  0.50000000  1
  Li  Li4  1  0.17347500  0.00000000  0.50000000  1
  Li  Li5  1  0.34671100  0.50000000  0.50000000  1
  Li  Li6  1  0.50199200  0.50000000  0.00000000  1
  Mn  Mn0  1  0.00029500  0.00000000  0.00000000  1
  Mn  Mn1  1  0.82569700  0.50000000  0.00000000  1
  Co  Co0  1  0.66614100  0.00000000  0.00000000  1
  Co  Co1  1  0.34565700  0.00000000  0.00000000  1
  Co  Co2  1  0.18056800  0.50000000  0.00000000  1
  O  O0  1  0.99232800  0.74557400  0.78205100  1
  O  O1  1  0.83500100  0.24118300  0.78263500  1
  O  O2  1  0.67922300  0.74542300  0.77883700  1
  O  O3  1  0.50904900  0.22009900  0.77072300  1
  O  O4  1  0.15428500  0.23414000  0.77092000  1
  O  O5  1  0.32207400  0.74999500  0.76387200  1
  O  O6  1  0.99232800  0.25442600  0.21794900  1
  O  O7  1  0.83500100  0.75881700  0.21736500  1
  O  O8  1  0.67922300  0.25457700  0.22116300  1
  O  O9  1  0.50904900  0.77990100  0.22927700  1
  O  O10  1  0.15428500  0.76586000  0.22908000  1
  O  O11  1  0.32207400  0.25000500  0.23612800  1
loop_
_geom_bond_atom_site_label_1
_geom_bond_atom_site_label_2
_geom_bond_distance
_geom_bond_site_symmetry_2
Li0 O10 2.055313 1_555
Li0 O4 2.055313 1_555
Li0 O0 2.169511 1_455
Li0 O6 2.169511 1_455
Li0 O1 2.193987 1_455
Li0 O7 2.193987 1_455
Li1 O8 2.032947 1_555
Li1 O2 2.032947 1_545
Li1 O7 2.153828 1_545
Li1 O1 2.153828 1_555
Li1 O6 2.166871 1_555
Li1 O0 2.166871 1_545
Li2 O9 2.036735 1_555
Li2 O3 2.036735 1_555
Li2 O8 2.168668 1_555
Li2 O2 2.168668 1_555
Li2 O7 2.291248 1_555
Li2 O1 2.291248 1_555
Li3 O3 2.022383 1_555
Li3 O9 2.022383 1_545
Li3 O11 2.158550 1_555
Li3 O5 2.158550 1_545
Li3 O2 2.252389 1_545
Li3 O8 2.252389 1_555
Li4 O11 2.003329 1_555
Li4 O5 2.003329 1_545
Li4 O10 2.081048 1_545
Li4 O4 2.081048 1_555
Li4 O6 2.250065 1_455
Li4 O0 2.250065 1_445
Li5 O5 2.117559 1_555
Li5 O11 2.117559 1_555
Li5 O3 2.162484 1_555
Li5 O9 2.162484 1_555
Li5 O10 2.317937 1_555
Li5 O4 2.317937 1_555
Li6 O8 2.080336 1_555
Li6 O2 2.080336 1_554
Li6 O9 2.089224 1_555
Li6 O3 2.089224 1_554
Li6 O11 2.135346 1_555
Li6 O5 2.135346 1_554
Mn0 O4 1.923725 1_554
Mn0 O10 1.923725 1_545
Mn0 O0 1.937293 1_444
Mn0 O6 1.937293 1_455
Mn0 O7 1.986688 1_445
Mn0 O1 1.986688 1_454
Mn1 O8 1.886397 1_555
Mn1 O2 1.886397 1_554
Mn1 O7 1.953877 1_555
Mn1 O1 1.953877 1_554
Mn1 O0 2.005875 1_554
Mn1 O6 2.005875 1_555
Co0 O3 1.915569 1_554
Co0 O9 1.915569 1_545
Co0 O8 1.952887 1_555
Co0 O2 1.952887 1_544
Co0 O1 2.009727 1_554
Co0 O7 2.009727 1_545
Co1 O3 1.955867 1_554
Co1 O9 1.955867 1_545
Co1 O11 2.001944 1_555
Co1 O5 2.001944 1_544
Co1 O4 2.167552 1_554
Co1 O10 2.167552 1_545
Co2 O11 1.898869 1_555
Co2 O5 1.898869 1_554
Co2 O4 2.041480 1_554
Co2 O10 2.041480 1_555
Co2 O0 2.148502 1_454
Co2 O6 2.148502 1_455
