# generated using pymatgen
data_Nd(Fe5Si)2
_symmetry_space_group_name_H-M   'P 1'
_cell_length_a   4.72795200
_cell_length_b   6.40524099
_cell_length_c   6.40524099
_cell_angle_alpha   98.21594474
_cell_angle_beta   111.65821266
_cell_angle_gamma   68.34178734
_symmetry_Int_Tables_number   1
_chemical_formula_structural   Nd(Fe5Si)2
_chemical_formula_sum   'Nd1 Fe10 Si2'
_cell_volume   167.54758341
_cell_formula_units_Z   1
loop_
 _symmetry_equiv_pos_site_id
 _symmetry_equiv_pos_as_xyz
  1  'x, y, z'
loop_
 _atom_site_type_symbol
 _atom_site_label
 _atom_site_symmetry_multiplicity
 _atom_site_fract_x
 _atom_site_fract_y
 _atom_site_fract_z
 _atom_site_occupancy
  Nd  Nd0  1  0.00000000  0.00000000  0.00000000  1
  Fe  Fe0  1  0.63758600  0.36241400  0.63758600  1
  Fe  Fe1  1  0.36241400  0.63758600  0.36241400  1
  Fe  Fe2  1  0.00000000  0.35617700  0.35617700  1
  Fe  Fe3  1  0.00000000  0.64382300  0.64382300  1
  Fe  Fe4  1  0.50000000  0.78448000  0.78448000  1
  Fe  Fe5  1  0.50000000  0.21552000  0.21552000  1
  Fe  Fe6  1  0.50000000  0.00000000  0.50000000  1
  Fe  Fe7  1  0.00000000  0.00000000  0.50000000  1
  Fe  Fe8  1  0.50000000  0.50000000  0.00000000  1
  Fe  Fe9  1  0.00000000  0.50000000  0.00000000  1
  Si  Si0  1  0.74204400  0.75795600  0.24204400  1
  Si  Si1  1  0.25795600  0.24204400  0.75795600  1
loop_
_geom_bond_atom_site_label_1
_geom_bond_atom_site_label_2
_geom_bond_distance
_geom_bond_site_symmetry_2
Nd0 Si0 3.126169 1_445
Nd0 Si1 3.126169 1_454
Nd0 Si1 3.126169 1_554
Nd0 Si0 3.126169 1_545
Fe0 Fe1 2.325596 1_555
Fe0 Si1 2.573573 1_655
Fe0 Si1 2.573573 1_555
Fe0 Fe9 2.587514 1_656
Fe0 Fe6 2.587514 1_555
Fe0 Fe7 2.587514 1_655
Fe0 Fe8 2.587514 1_556
Fe0 Fe4 2.653995 1_555
Fe0 Fe5 2.653995 1_555
Fe0 Fe3 2.897452 1_555
Fe0 Fe2 2.897452 1_655
Fe0 Fe3 2.897452 1_655
Fe0 Fe2 2.897452 1_555
Fe0 Nd0 3.062915 1_656
Fe1 Si0 2.573573 1_455
Fe1 Si0 2.573573 1_555
Fe1 Fe8 2.587514 1_555
Fe1 Fe6 2.587514 1_565
Fe1 Fe7 2.587514 1_565
Fe1 Fe9 2.587514 1_555
Fe1 Fe4 2.653995 1_555
Fe1 Fe5 2.653995 1_555
Fe1 Fe2 2.897452 1_555
Fe1 Fe3 2.897452 1_655
Fe1 Fe3 2.897452 1_555
Fe1 Fe2 2.897452 1_655
Fe1 Nd0 3.062915 1_565
Fe2 Fe3 2.412256 1_555
Fe2 Si0 2.491498 1_455
Fe2 Si1 2.491498 1_555
Fe2 Fe8 2.579556 1_455
Fe2 Fe9 2.579556 1_555
Fe2 Fe6 2.579556 1_555
Fe2 Fe7 2.579556 1_555
Fe2 Fe5 2.641928 1_455
Fe2 Fe5 2.641928 1_555
Fe2 Nd0 2.986971 1_555
Fe3 Si0 2.491498 1_455
Fe3 Si1 2.491498 1_555
Fe3 Fe6 2.579556 1_465
Fe3 Fe7 2.579556 1_565
Fe3 Fe8 2.579556 1_556
Fe3 Fe9 2.579556 1_556
Fe3 Fe4 2.641928 1_555
Fe3 Fe4 2.641928 1_455
Fe3 Nd0 2.986971 1_566
Fe4 Fe8 2.438210 1_556
Fe4 Fe6 2.438210 1_565
Fe4 Fe9 2.438210 1_656
Fe4 Fe7 2.438210 1_565
Fe4 Si0 2.729692 1_556
Fe4 Si1 2.729692 1_565
Fe4 Nd0 2.975744 1_566
Fe4 Nd0 2.975744 1_666
Fe5 Fe8 2.438210 1_555
Fe5 Fe6 2.438210 1_555
Fe5 Fe7 2.438210 1_655
Fe5 Fe9 2.438210 1_555
Fe5 Si1 2.729692 1_554
Fe5 Si0 2.729692 1_545
Fe5 Nd0 2.975744 1_655
Fe5 Nd0 2.975744 1_555
Fe6 Fe7 2.363976 1_555
Fe6 Fe7 2.363976 1_655
Fe6 Si0 2.407724 1_545
Fe6 Si1 2.407724 1_555
Fe6 Nd0 3.202620 1_656
Fe6 Nd0 3.202620 1_555
Fe7 Si0 2.407724 1_445
Fe7 Si1 2.407724 1_555
Fe7 Nd0 3.202620 1_555
Fe7 Nd0 3.202620 1_556
Fe8 Fe9 2.363976 1_655
Fe8 Fe9 2.363976 1_555
Fe8 Si0 2.407724 1_555
Fe8 Si1 2.407724 1_554
Fe8 Nd0 3.202620 1_565
Fe8 Nd0 3.202620 1_655
Fe9 Si0 2.407724 1_455
Fe9 Si1 2.407724 1_554
Fe9 Nd0 3.202620 1_555
Fe9 Nd0 3.202620 1_565
