# generated using pymatgen
data_FeBiPPbO7
_symmetry_space_group_name_H-M   'P 1'
_cell_length_a   6.26101797
_cell_length_b   6.26101797
_cell_length_c   7.76762720
_cell_angle_alpha   70.48378558
_cell_angle_beta   70.48378558
_cell_angle_gamma   38.34043038
_symmetry_Int_Tables_number   1
_chemical_formula_structural   FeBiPPbO7
_chemical_formula_sum   'Fe1 Bi1 P1 Pb1 O7'
_cell_volume   176.67844717
_cell_formula_units_Z   1
loop_
 _symmetry_equiv_pos_site_id
 _symmetry_equiv_pos_as_xyz
  1  'x, y, z'
loop_
 _atom_site_type_symbol
 _atom_site_label
 _atom_site_symmetry_multiplicity
 _atom_site_fract_x
 _atom_site_fract_y
 _atom_site_fract_z
 _atom_site_occupancy
  Fe  Fe0  1  0.00115500  0.00115500  0.98588400  1
  Bi  Bi0  1  0.26192800  0.26192800  0.18989100  1
  P  P0  1  0.52817600  0.52817600  0.58940700  1
  Pb  Pb0  1  0.75373800  0.75373800  0.79279600  1
  O  O0  1  0.16484500  0.16484500  0.98707400  1
  O  O1  1  0.82408800  0.82408800  0.04884400  1
  O  O2  1  0.39454400  0.39454400  0.61706400  1
  O  O3  1  0.61514000  0.61514000  0.39257600  1
  O  O4  1  0.46142500  0.46142500  0.07428400  1
  O  O5  1  0.30207000  0.82349100  0.71419000  1
  O  O6  1  0.82349100  0.30207000  0.71419000  1
loop_
_geom_bond_atom_site_label_1
_geom_bond_atom_site_label_2
_geom_bond_distance
_geom_bond_site_symmetry_2
Fe0 O0 1.939357 1_555
Fe0 O1 1.975021 1_446
Fe0 O4 2.165887 1_546
Fe0 O4 2.165887 1_456
Fe0 O6 2.205711 1_455
Fe0 O5 2.205711 1_545
Bi0 O4 2.207979 1_555
Bi0 O0 2.253895 1_554
Bi0 O1 2.323377 1_545
Bi0 O1 2.323377 1_455
Bi0 O3 2.790412 1_545
Bi0 O3 2.790412 1_455
O0 Pb0 2.547038 1_455
O0 Pb0 2.547038 1_545
O1 Pb0 2.412187 1_554
O2 P0 1.517930 1_555
O2 Pb0 2.693654 1_455
O2 Pb0 2.693654 1_545
O3 P0 1.511001 1_555
O5 P0 1.592751 1_555
O5 Pb0 2.756579 1_555
O6 P0 1.592751 1_555
O6 Pb0 2.756579 1_555
