# generated using pymatgen
data_Y2TiO5
_symmetry_space_group_name_H-M   'P 1'
_cell_length_a   3.68515313
_cell_length_b   10.35575120
_cell_length_c   11.24964441
_cell_angle_alpha   90.00000000
_cell_angle_beta   90.00000000
_cell_angle_gamma   90.00000000
_symmetry_Int_Tables_number   1
_chemical_formula_structural   Y2TiO5
_chemical_formula_sum   'Y8 Ti4 O20'
_cell_volume   429.31488045
_cell_formula_units_Z   4
loop_
 _symmetry_equiv_pos_site_id
 _symmetry_equiv_pos_as_xyz
  1  'x, y, z'
loop_
 _atom_site_type_symbol
 _atom_site_label
 _atom_site_symmetry_multiplicity
 _atom_site_fract_x
 _atom_site_fract_y
 _atom_site_fract_z
 _atom_site_occupancy
  Y  Y0  1  0.25000000  0.13610475  0.44347377  1
  Y  Y1  1  0.75000000  0.86389525  0.55652623  1
  Y  Y2  1  0.25000000  0.63610475  0.05652623  1
  Y  Y3  1  0.75000000  0.36389525  0.94347377  1
  Y  Y4  1  0.25000000  0.11521195  0.77718311  1
  Y  Y5  1  0.75000000  0.88478805  0.22281689  1
  Y  Y6  1  0.25000000  0.61521195  0.72281689  1
  Y  Y7  1  0.75000000  0.38478805  0.27718311  1
  Ti  Ti0  1  0.25000000  0.17420449  0.11942971  1
  Ti  Ti1  1  0.75000000  0.82579551  0.88057029  1
  Ti  Ti2  1  0.25000000  0.67420449  0.38057029  1
  Ti  Ti3  1  0.75000000  0.32579551  0.61942971  1
  O  O0  1  0.25000000  0.26402979  0.61674076  1
  O  O1  1  0.75000000  0.73597021  0.38325924  1
  O  O2  1  0.25000000  0.76402979  0.88325924  1
  O  O3  1  0.75000000  0.23597021  0.11674076  1
  O  O4  1  0.25000000  0.50643595  0.34530581  1
  O  O5  1  0.75000000  0.49356405  0.65469419  1
  O  O6  1  0.25000000  0.00643595  0.15469419  1
  O  O7  1  0.75000000  0.99356405  0.84530581  1
  O  O8  1  0.25000000  0.25638759  0.27081805  1
  O  O9  1  0.75000000  0.74361241  0.72918195  1
  O  O10  1  0.25000000  0.75638759  0.22918195  1
  O  O11  1  0.75000000  0.24361241  0.77081805  1
  O  O12  1  0.75000000  0.00616217  0.39487684  1
  O  O13  1  0.25000000  0.99383783  0.60512316  1
  O  O14  1  0.75000000  0.50616217  0.10512316  1
  O  O15  1  0.25000000  0.49383783  0.89487684  1
  O  O16  1  0.75000000  0.27552028  0.45706505  1
  O  O17  1  0.25000000  0.72447972  0.54293495  1
  O  O18  1  0.75000000  0.77552028  0.04293495  1
  O  O19  1  0.25000000  0.22447972  0.95706505  1
loop_
_geom_bond_atom_site_label_1
_geom_bond_atom_site_label_2
_geom_bond_distance
_geom_bond_site_symmetry_2
O0 Ti3 1.950674 1_455
O0 Ti3 1.950674 1_555
O0 Y0 2.356764 1_555
O0 Y4 2.373349 1_555
O1 Ti2 1.950674 1_555
O1 Ti2 1.950674 1_655
O1 Y1 2.356764 1_555
O1 Y5 2.373349 1_555
O2 Ti1 1.950674 1_555
O2 Ti1 1.950674 1_455
O2 Y2 2.356764 1_556
O2 Y6 2.373349 1_555
O3 Ti0 1.950674 1_655
O3 Ti0 1.950674 1_555
O3 Y3 2.356764 1_554
O3 Y7 2.373349 1_555
O4 Ti2 1.782087 1_555
O4 Y7 2.359952 1_555
O4 Y7 2.359952 1_455
O5 Ti3 1.782087 1_555
O5 Y6 2.359952 1_655
O5 Y6 2.359952 1_555
O6 Ti0 1.782087 1_555
O6 Y5 2.359952 1_445
O6 Y5 2.359952 1_545
O7 Ti1 1.782087 1_555
O7 Y4 2.359952 1_565
O7 Y4 2.359952 1_665
O8 Ti0 1.903877 1_555
O8 Y7 2.273384 1_555
O8 Y7 2.273384 1_455
O8 Y0 2.307413 1_555
O9 Ti1 1.903877 1_555
O9 Y6 2.273384 1_655
O9 Y6 2.273384 1_555
O9 Y1 2.307413 1_555
O10 Ti2 1.903877 1_555
O10 Y5 2.273384 1_455
O10 Y5 2.273384 1_555
O10 Y2 2.307413 1_555
O11 Ti3 1.903877 1_555
O11 Y4 2.273384 1_655
O11 Y4 2.273384 1_555
O11 Y3 2.307413 1_555
O12 Y5 2.307910 1_545
O12 Y1 2.340404 1_545
O12 Y0 2.346220 1_555
O12 Y0 2.346220 1_655
O13 Y4 2.307910 1_565
O13 Y0 2.340404 1_565
O13 Y1 2.346220 1_455
O13 Y1 2.346220 1_555
O14 Y7 2.307910 1_555
O14 Y3 2.340404 1_554
O14 Y2 2.346220 1_655
O14 Y2 2.346220 1_555
O15 Y6 2.307910 1_555
O15 Y2 2.340404 1_556
O15 Y3 2.346220 1_555
O15 Y3 2.346220 1_455
O16 Ti3 1.899297 1_555
O16 Y7 2.318490 1_555
O16 Y0 2.345823 1_655
O16 Y0 2.345823 1_555
O17 Ti2 1.899297 1_555
O17 Y6 2.318490 1_555
O17 Y1 2.345823 1_555
O17 Y1 2.345823 1_455
O18 Ti1 1.899297 1_554
O18 Y5 2.318490 1_555
O18 Y2 2.345823 1_655
O18 Y2 2.345823 1_555
O19 Ti0 1.899297 1_556
O19 Y4 2.318490 1_555
O19 Y3 2.345823 1_555
O19 Y3 2.345823 1_455
