# generated using pymatgen
data_MgGaAu
_symmetry_space_group_name_H-M   'P 1'
_cell_length_a   7.27408147
_cell_length_b   7.27408147
_cell_length_c   3.48514536
_cell_angle_alpha   90.00000000
_cell_angle_beta   90.00000000
_cell_angle_gamma   119.99999589
_symmetry_Int_Tables_number   1
_chemical_formula_structural   MgGaAu
_chemical_formula_sum   'Mg3 Ga3 Au3'
_cell_volume   159.70108537
_cell_formula_units_Z   3
loop_
 _symmetry_equiv_pos_site_id
 _symmetry_equiv_pos_as_xyz
  1  'x, y, z'
loop_
 _atom_site_type_symbol
 _atom_site_label
 _atom_site_symmetry_multiplicity
 _atom_site_fract_x
 _atom_site_fract_y
 _atom_site_fract_z
 _atom_site_occupancy
  Mg  Mg0  1  0.38621431  0.38621431  0.00000000  1
  Mg  Mg1  1  0.61378569  0.00000000  -0.00000000  1
  Mg  Mg2  1  0.00000000  0.61378569  0.00000000  1
  Ga  Ga0  1  0.72180948  0.72180948  0.50000000  1
  Ga  Ga1  1  0.27819052  -0.00000000  0.50000000  1
  Ga  Ga2  1  -0.00000000  0.27819052  0.50000000  1
  Au  Au0  1  0.00000000  0.00000000  0.00000000  1
  Au  Au1  1  0.66666700  0.33333300  0.50000000  1
  Au  Au2  1  0.33333300  0.66666700  0.50000000  1
loop_
_geom_bond_atom_site_label_1
_geom_bond_atom_site_label_2
_geom_bond_distance
_geom_bond_site_symmetry_2
Ga0 Mg0 2.999293 1_555
Ga0 Mg0 2.999293 1_556
Ga0 Mg1 3.055970 1_566
Ga0 Mg1 3.055970 1_565
Ga0 Mg2 3.055970 1_656
Ga0 Mg2 3.055970 1_655
Ga1 Mg1 2.999293 1_556
Ga1 Mg1 2.999293 1_555
Ga1 Mg0 3.055970 1_555
Ga1 Mg0 3.055970 1_556
Ga1 Mg2 3.055970 1_546
Ga1 Mg2 3.055970 1_545
Ga2 Mg2 2.999293 1_556
Ga2 Mg2 2.999293 1_555
Ga2 Mg0 3.055970 1_555
Ga2 Mg0 3.055970 1_556
Ga2 Mg1 3.055970 1_455
Ga2 Mg1 3.055970 1_456
Au0 Ga1 2.670475 1_555
Au0 Ga1 2.670475 1_554
Au0 Ga2 2.670475 1_555
Au0 Ga2 2.670475 1_554
Au0 Ga0 2.670475 1_444
Au0 Ga0 2.670475 1_445
Au0 Mg2 2.809354 1_545
Au0 Mg1 2.809354 1_455
Au0 Mg0 2.809355 1_555
Au1 Ga2 2.648129 1_655
Au1 Ga1 2.648134 1_555
Au1 Ga0 2.648136 1_555
Au1 Mg1 2.851485 1_556
Au1 Mg1 2.851485 1_555
Au1 Mg2 2.851487 1_656
Au1 Mg2 2.851487 1_655
Au1 Mg0 2.851490 1_555
Au1 Mg0 2.851490 1_556
Au2 Ga1 2.648129 1_565
Au2 Ga2 2.648134 1_555
Au2 Ga0 2.648136 1_555
Au2 Mg2 2.851485 1_556
Au2 Mg2 2.851485 1_555
Au2 Mg1 2.851487 1_566
Au2 Mg1 2.851487 1_565
Au2 Mg0 2.851490 1_555
Au2 Mg0 2.851490 1_556
