# generated using pymatgen
data_CaYGa3O7
_symmetry_space_group_name_H-M   'P 1'
_cell_length_a   7.92470880
_cell_length_b   7.92470880
_cell_length_c   5.23242600
_cell_angle_alpha   90.00000000
_cell_angle_beta   90.00000000
_cell_angle_gamma   90.49286698
_symmetry_Int_Tables_number   1
_chemical_formula_structural   CaYGa3O7
_chemical_formula_sum   'Ca2 Y2 Ga6 O14'
_cell_volume   328.58947756
_cell_formula_units_Z   2
loop_
 _symmetry_equiv_pos_site_id
 _symmetry_equiv_pos_as_xyz
  1  'x, y, z'
loop_
 _atom_site_type_symbol
 _atom_site_label
 _atom_site_symmetry_multiplicity
 _atom_site_fract_x
 _atom_site_fract_y
 _atom_site_fract_z
 _atom_site_occupancy
  Ca  Ca0  1  0.16106700  0.83893300  0.48447900  1
  Ca  Ca1  1  0.83893300  0.16106700  0.48447900  1
  Y  Y0  1  0.66084600  0.66084600  0.51584000  1
  Y  Y1  1  0.33915400  0.33915400  0.51584000  1
  Ga  Ga0  1  0.50000000  0.00000000  0.99884200  1
  Ga  Ga1  1  0.00000000  0.50000000  0.99884200  1
  Ga  Ga2  1  0.35642100  0.64357900  0.03634700  1
  Ga  Ga3  1  0.85347500  0.85347500  0.96318700  1
  Ga  Ga4  1  0.64357900  0.35642100  0.03634700  1
  Ga  Ga5  1  0.14652500  0.14652500  0.96318700  1
  O  O0  1  0.41165700  0.83892100  0.21528100  1
  O  O1  1  0.89830600  0.65384600  0.78174200  1
  O  O2  1  0.58834300  0.16107900  0.21528100  1
  O  O3  1  0.10169400  0.34615400  0.78174200  1
  O  O4  1  0.34615400  0.10169400  0.78174200  1
  O  O5  1  0.83892100  0.41165700  0.21528100  1
  O  O6  1  0.65384600  0.89830600  0.78174200  1
  O  O7  1  0.16107900  0.58834300  0.21528100  1
  O  O8  1  0.37077400  0.62922600  0.68910400  1
  O  O9  1  0.84784800  0.84784800  0.30917300  1
  O  O10  1  0.62922600  0.37077400  0.68910400  1
  O  O11  1  0.15215200  0.15215200  0.30917300  1
  O  O12  1  0.00000000  0.00000000  0.79972000  1
  O  O13  1  0.50000000  0.50000000  0.21824300  1
loop_
_geom_bond_atom_site_label_1
_geom_bond_atom_site_label_2
_geom_bond_distance
_geom_bond_site_symmetry_2
Ca0 O0 2.434677 1_555
Ca0 O7 2.434677 1_555
Ca0 O12 2.450967 1_565
Ca0 O8 2.591811 1_555
Ca0 O9 2.647748 1_455
Ca0 O11 2.647748 1_565
Ca0 O4 2.975588 1_565
Ca0 O1 2.975588 1_455
Ca1 O5 2.434677 1_555
Ca1 O2 2.434677 1_555
Ca1 O12 2.450967 1_655
Ca1 O10 2.591811 1_555
Ca1 O9 2.647748 1_545
Ca1 O11 2.647748 1_655
Ca1 O3 2.975588 1_655
Ca1 O6 2.975588 1_545
Ga0 O0 1.840320 1_546
Ga0 O2 1.840320 1_556
Ga0 O4 1.855583 1_555
Ga0 O6 1.855583 1_545
Ga1 O7 1.840320 1_556
Ga1 O5 1.840320 1_456
Ga1 O3 1.855583 1_555
Ga1 O1 1.855583 1_455
Ga2 O8 1.824091 1_554
Ga2 O7 1.858204 1_555
Ga2 O0 1.858204 1_555
Ga2 O13 1.875471 1_555
Ga3 O9 1.811435 1_556
Ga3 O12 1.845268 1_665
Ga3 O6 1.881482 1_555
Ga3 O1 1.881482 1_555
Ga4 O10 1.824091 1_554
Ga4 O2 1.858204 1_555
Ga4 O5 1.858204 1_555
Ga4 O13 1.875471 1_555
Ga5 O11 1.811435 1_556
Ga5 O12 1.845268 1_555
Ga5 O4 1.881482 1_555
Ga5 O3 1.881482 1_555
O0 Y0 2.900394 1_555
O1 Y0 2.341324 1_555
O2 Y1 2.900394 1_555
O3 Y1 2.341324 1_555
O4 Y1 2.341324 1_555
O5 Y0 2.900394 1_555
O6 Y0 2.341324 1_555
O7 Y1 2.900394 1_555
O8 Y1 2.481728 1_555
O8 Y0 2.481728 1_555
O9 Y0 2.350287 1_555
O10 Y1 2.481728 1_555
O10 Y0 2.481728 1_555
O11 Y1 2.350287 1_555
O13 Y1 2.376191 1_555
O13 Y0 2.376191 1_555
