# generated using pymatgen
data_Ba4Nb2O9
_symmetry_space_group_name_H-M   'P 1'
_cell_length_a   6.02706304
_cell_length_b   6.02706304
_cell_length_c   8.50797000
_cell_angle_alpha   90.00000000
_cell_angle_beta   90.00000000
_cell_angle_gamma   120.00001139
_symmetry_Int_Tables_number   1
_chemical_formula_structural   Ba4Nb2O9
_chemical_formula_sum   'Ba4 Nb2 O9'
_cell_volume   267.65046321
_cell_formula_units_Z   1
loop_
 _symmetry_equiv_pos_site_id
 _symmetry_equiv_pos_as_xyz
  1  'x, y, z'
loop_
 _atom_site_type_symbol
 _atom_site_label
 _atom_site_symmetry_multiplicity
 _atom_site_fract_x
 _atom_site_fract_y
 _atom_site_fract_z
 _atom_site_occupancy
  Ba  Ba0  1  0.00000000  0.00000000  0.50000000  1
  Ba  Ba1  1  0.00000000  0.00000000  0.00000000  1
  Ba  Ba2  1  0.33333300  0.66666700  0.75505000  1
  Ba  Ba3  1  0.66666700  0.33333300  0.24495000  1
  Nb  Nb0  1  0.33333300  0.66666700  0.16404300  1
  Nb  Nb1  1  0.66666700  0.33333300  0.83595700  1
  O  O0  1  0.17397400  0.82602600  0.27446100  1
  O  O1  1  0.82602600  0.17397400  0.72553900  1
  O  O2  1  0.17397400  0.34794700  0.27446100  1
  O  O3  1  0.82602600  0.65205300  0.72553900  1
  O  O4  1  0.65205300  0.82602600  0.27446100  1
  O  O5  1  0.34794700  0.17397400  0.72553900  1
  O  O6  1  0.50000000  0.00000000  0.00000000  1
  O  O7  1  0.00000000  0.50000000  0.00000000  1
  O  O8  1  0.50000000  0.50000000  0.00000000  1
loop_
_geom_bond_atom_site_label_1
_geom_bond_atom_site_label_2
_geom_bond_distance
_geom_bond_site_symmetry_2
Ba0 O3 2.642057 1_445
Ba0 O5 2.642057 1_555
Ba0 O2 2.642057 1_555
Ba0 O4 2.642057 1_445
Ba0 O0 2.642060 1_545
Ba0 O1 2.642060 1_455
Ba1 O5 2.958223 1_554
Ba1 O2 2.958223 1_555
Ba1 O4 2.958223 1_445
Ba1 O3 2.958223 1_444
Ba1 O1 2.958227 1_454
Ba1 O0 2.958227 1_545
Ba1 O8 3.013531 1_555
Ba1 O8 3.013531 1_445
Ba1 O7 3.013532 1_555
Ba1 O7 3.013532 1_545
Ba1 O6 3.013532 1_455
Ba1 O6 3.013532 1_555
Ba2 O7 2.714827 1_556
Ba2 O6 2.714827 1_566
Ba2 O8 2.714831 1_556
Ba2 O1 3.024934 1_455
Ba2 O1 3.024934 1_565
Ba2 O3 3.024935 1_455
Ba2 O5 3.024935 1_565
Ba2 O5 3.024935 1_555
Ba2 O3 3.024935 1_555
Ba3 O7 2.714827 1_655
Ba3 O6 2.714827 1_555
Ba3 O8 2.714831 1_555
Ba3 O0 3.024934 1_545
Ba3 O0 3.024934 1_655
Ba3 O4 3.024935 1_545
Ba3 O2 3.024935 1_655
Ba3 O4 3.024935 1_555
Ba3 O2 3.024935 1_555
Nb0 O0 1.910504 1_555
Nb0 O2 1.910512 1_555
Nb0 O4 1.910512 1_555
Nb0 O6 2.230475 1_565
Nb0 O7 2.230475 1_555
Nb0 O8 2.230480 1_555
Nb1 O1 1.910504 1_555
Nb1 O5 1.910512 1_555
Nb1 O3 1.910512 1_555
Nb1 O7 2.230475 1_656
Nb1 O6 2.230475 1_556
Nb1 O8 2.230480 1_556
