# generated using pymatgen
data_La5Dy3(CuO4)4
_symmetry_space_group_name_H-M   'P 1'
_cell_length_a   3.86827200
_cell_length_b   3.86827200
_cell_length_c   24.99576300
_cell_angle_alpha   90.00000000
_cell_angle_beta   90.00000000
_cell_angle_gamma   90.00000000
_symmetry_Int_Tables_number   1
_chemical_formula_structural   La5Dy3(CuO4)4
_chemical_formula_sum   'La5 Dy3 Cu4 O16'
_cell_volume   374.02480618
_cell_formula_units_Z   1
loop_
 _symmetry_equiv_pos_site_id
 _symmetry_equiv_pos_as_xyz
  1  'x, y, z'
loop_
 _atom_site_type_symbol
 _atom_site_label
 _atom_site_symmetry_multiplicity
 _atom_site_fract_x
 _atom_site_fract_y
 _atom_site_fract_z
 _atom_site_occupancy
  La  La0  1  0.00000000  0.00000000  0.19401900  1
  La  La1  1  0.00000000  0.00000000  0.69089200  1
  La  La2  1  0.50000000  0.50000000  0.30985500  1
  La  La3  1  0.50000000  0.50000000  0.80706300  1
  La  La4  1  0.00000000  0.00000000  0.04744000  1
  Dy  Dy0  1  0.00000000  0.00000000  0.54634500  1
  Dy  Dy1  1  0.50000000  0.50000000  0.45399600  1
  Dy  Dy2  1  0.50000000  0.50000000  0.94943100  1
  Cu  Cu0  1  0.50000000  0.50000000  0.12495300  1
  Cu  Cu1  1  0.50000000  0.50000000  0.61979200  1
  Cu  Cu2  1  0.00000000  0.00000000  0.38055400  1
  Cu  Cu3  1  0.00000000  0.00000000  0.87847300  1
  O  O0  1  0.50000000  0.50000000  0.21813700  1
  O  O1  1  0.50000000  0.50000000  0.71514500  1
  O  O2  1  0.00000000  0.00000000  0.28592100  1
  O  O3  1  0.00000000  0.00000000  0.78283200  1
  O  O4  1  0.50000000  0.00000000  0.99471900  1
  O  O5  1  0.50000000  0.00000000  0.50017600  1
  O  O6  1  0.00000000  0.50000000  0.99471900  1
  O  O7  1  0.00000000  0.50000000  0.50017600  1
  O  O8  1  0.50000000  0.00000000  0.12394800  1
  O  O9  1  0.50000000  0.00000000  0.61889900  1
  O  O10  1  0.00000000  0.50000000  0.38155300  1
  O  O11  1  0.00000000  0.50000000  0.87828000  1
  O  O12  1  0.50000000  0.00000000  0.38155300  1
  O  O13  1  0.50000000  0.00000000  0.87828000  1
  O  O14  1  0.00000000  0.50000000  0.12394800  1
  O  O15  1  0.00000000  0.50000000  0.61889900  1
loop_
_geom_bond_atom_site_label_1
_geom_bond_atom_site_label_2
_geom_bond_distance
_geom_bond_site_symmetry_2
La0 O2 2.297161 1_555
La0 O8 2.609321 1_555
La0 O14 2.609321 1_545
La0 O8 2.609321 1_455
La0 O14 2.609321 1_555
La0 O0 2.800927 1_455
La0 O0 2.800927 1_555
La0 O0 2.800927 1_445
La0 O0 2.800927 1_545
La1 O3 2.298110 1_555
La1 O15 2.641809 1_555
La1 O9 2.641809 1_455
La1 O9 2.641809 1_555
La1 O15 2.641809 1_545
La1 O1 2.801655 1_545
La1 O1 2.801655 1_455
La1 O1 2.801655 1_555
La1 O1 2.801655 1_445
La2 O0 2.292561 1_555
La2 O10 2.636792 1_555
La2 O12 2.636792 1_555
La2 O12 2.636792 1_565
La2 O10 2.636792 1_655
La2 O2 2.799940 1_665
La2 O2 2.799940 1_565
La2 O2 2.799940 1_655
La2 O2 2.799940 1_555
La3 O1 2.297561 1_555
La3 O13 2.628635 1_565
La3 O11 2.628635 1_655
La3 O11 2.628635 1_555
La3 O13 2.628635 1_555
La3 O3 2.801536 1_665
La3 O3 2.801536 1_565
La3 O3 2.801536 1_555
La3 O3 2.801536 1_655
La4 O4 2.340402 1_454
La4 O6 2.340402 1_554
La4 O4 2.340402 1_554
La4 O6 2.340402 1_544
La4 O8 2.719938 1_455
La4 O8 2.719938 1_555
La4 O14 2.719938 1_545
La4 O14 2.719938 1_555
Dy0 O5 2.252258 1_555
Dy0 O7 2.252258 1_545
Dy0 O5 2.252258 1_455
Dy0 O7 2.252258 1_555
Dy0 O9 2.651381 1_455
Dy0 O15 2.651381 1_545
Dy0 O15 2.651381 1_555
Dy0 O9 2.651381 1_555
Dy1 O5 2.252399 1_555
Dy1 O5 2.252399 1_565
Dy1 O7 2.252399 1_555
Dy1 O7 2.252399 1_655
Dy1 O10 2.649484 1_555
Dy1 O12 2.649484 1_555
Dy1 O12 2.649484 1_565
Dy1 O10 2.649484 1_655
Dy2 O4 2.241054 1_555
Dy2 O6 2.241054 1_555
Dy2 O4 2.241054 1_565
Dy2 O6 2.241054 1_655
Dy2 O11 2.627518 1_555
Dy2 O13 2.627518 1_555
Dy2 O13 2.627518 1_565
Dy2 O11 2.627518 1_655
Cu0 O14 1.934299 1_655
Cu0 O8 1.934299 1_565
Cu0 O14 1.934299 1_555
Cu0 O8 1.934299 1_555
Cu0 O0 2.329205 1_555
Cu1 O15 1.934265 1_555
Cu1 O9 1.934265 1_555
Cu1 O15 1.934265 1_655
Cu1 O9 1.934265 1_565
Cu1 O1 2.383421 1_555
Cu2 O12 1.934297 1_455
Cu2 O10 1.934297 1_545
Cu2 O12 1.934297 1_555
Cu2 O10 1.934297 1_555
Cu2 O2 2.365424 1_555
Cu3 O13 1.934142 1_455
Cu3 O11 1.934142 1_555
Cu3 O13 1.934142 1_555
Cu3 O11 1.934142 1_545
Cu3 O3 2.390620 1_555
