# generated using pymatgen
data_Ba4TiAl3P4(O5F)4
_symmetry_space_group_name_H-M   'P 1'
_cell_length_a   5.26386200
_cell_length_b   7.06590733
_cell_length_c   12.89994359
_cell_angle_alpha   90.24989543
_cell_angle_beta   90.23315551
_cell_angle_gamma   101.99419927
_symmetry_Int_Tables_number   1
_chemical_formula_structural   Ba4TiAl3P4(O5F)4
_chemical_formula_sum   'Ba4 Ti1 Al3 P4 O20 F4'
_cell_volume   469.31478006
_cell_formula_units_Z   1
loop_
 _symmetry_equiv_pos_site_id
 _symmetry_equiv_pos_as_xyz
  1  'x, y, z'
loop_
 _atom_site_type_symbol
 _atom_site_label
 _atom_site_symmetry_multiplicity
 _atom_site_fract_x
 _atom_site_fract_y
 _atom_site_fract_z
 _atom_site_occupancy
  Ba  Ba0  1  0.95039500  0.81386300  0.80471800  1
  Ba  Ba1  1  0.45254600  0.31370000  0.69725000  1
  Ba  Ba2  1  0.04960500  0.18613700  0.19528200  1
  Ba  Ba3  1  0.54745400  0.68630000  0.30275000  1
  Ti  Ti0  1  0.00000000  0.00000000  0.50000000  1
  Al  Al0  1  0.50000000  0.00000000  0.00000000  1
  Al  Al1  1  0.00000000  0.50000000  0.50000000  1
  Al  Al2  1  0.50000000  0.50000000  0.00000000  1
  P  P0  1  0.42881800  0.79949500  0.61511300  1
  P  P1  1  0.93023400  0.30431000  0.88979200  1
  P  P2  1  0.57118200  0.20050500  0.38488700  1
  P  P3  1  0.06976600  0.69569000  0.11020800  1
  O  O0  1  0.73537300  0.44481200  0.88780500  1
  O  O1  1  0.23284800  0.94086600  0.61740600  1
  O  O2  1  0.26462700  0.55518800  0.11219500  1
  O  O3  1  0.76715200  0.05913400  0.38259400  1
  O  O4  1  0.57131800  0.75872400  0.95672300  1
  O  O5  1  0.06881400  0.26202700  0.54440700  1
  O  O6  1  0.42868200  0.24127600  0.04327700  1
  O  O7  1  0.93118600  0.73797300  0.45559300  1
  O  O8  1  0.69811500  0.93351800  0.59485700  1
  O  O9  1  0.20760500  0.42683100  0.91207700  1
  O  O10  1  0.30188500  0.06648200  0.40514300  1
  O  O11  1  0.79239500  0.57316900  0.08792300  1
  O  O12  1  0.84829900  0.14813600  0.97511600  1
  O  O13  1  0.35013100  0.64621500  0.52801900  1
  O  O14  1  0.15170100  0.85186400  0.02488400  1
  O  O15  1  0.64986900  0.35378500  0.47198100  1
  O  O16  1  0.43171800  0.70433900  0.72123300  1
  O  O17  1  0.93214100  0.20835900  0.78261900  1
  O  O18  1  0.56828200  0.29566100  0.27876700  1
  O  O19  1  0.06785900  0.79164100  0.21738100  1
  F  F0  1  0.89307700  0.54831300  0.63198300  1
  F  F1  1  0.39445500  0.04276400  0.86855900  1
  F  F2  1  0.10692300  0.45168700  0.36801700  1
  F  F3  1  0.60554500  0.95723600  0.13144100  1
loop_
_geom_bond_atom_site_label_1
_geom_bond_atom_site_label_2
_geom_bond_distance
_geom_bond_site_symmetry_2
Ba0 F1 2.675697 1_665
Ba0 O4 2.773769 1_555
Ba0 O17 2.824629 1_565
Ba0 O0 2.835031 1_555
Ba0 F0 2.880917 1_555
Ba0 O16 2.881594 1_555
Ba0 O1 2.889300 1_655
Ba0 O16 3.001302 1_655
Ba0 O14 3.018589 1_656
Ba1 F0 2.695296 1_555
Ba1 O5 2.784889 1_555
Ba1 O16 2.800919 1_555
Ba1 O1 2.835274 1_545
Ba1 F1 2.905360 1_555
Ba1 O17 2.907753 1_455
Ba1 O0 2.914495 1_555
Ba1 O17 2.984211 1_555
Ba1 O15 3.084338 1_555
Ba1 O9 3.227905 1_555
Ba1 O13 3.337405 1_555
Ba1 O8 3.472487 1_545
Ba2 F3 2.675697 1_445
Ba2 O6 2.773769 1_555
Ba2 O19 2.824629 1_545
Ba2 O2 2.835031 1_555
Ba2 F2 2.880917 1_555
Ba2 O18 2.881594 1_555
Ba2 O3 2.889300 1_455
Ba2 O18 3.001302 1_455
Ba2 O12 3.018589 1_454
Ba3 F2 2.695296 1_555
Ba3 O7 2.784889 1_555
Ba3 O18 2.800919 1_555
Ba3 O3 2.835274 1_565
Ba3 F3 2.905360 1_555
Ba3 O19 2.907753 1_655
Ba3 O2 2.914495 1_555
Ba3 O19 2.984211 1_555
Ba3 O13 3.084338 1_555
Ba3 O11 3.227905 1_555
Ba3 O15 3.337405 1_555
Ba3 O10 3.472487 1_565
Al0 F1 1.827988 1_554
Al0 F3 1.827988 1_545
Al0 O6 1.902226 1_555
Al0 O4 1.902226 1_544
Al0 O12 1.941680 1_554
Al0 O14 1.941680 1_545
Al1 F0 1.847878 1_455
Al1 F2 1.847878 1_555
Al1 O5 1.883256 1_555
Al1 O7 1.883256 1_455
Al1 O13 1.948010 1_555
Al1 O15 1.948010 1_455
Al2 O6 1.876163 1_555
Al2 O4 1.876163 1_554
Al2 O11 1.890124 1_555
Al2 O9 1.890124 1_554
Al2 O2 1.998072 1_555
Al2 O0 1.998072 1_554
O0 P1 1.568950 1_555
O1 P0 1.578318 1_555
O1 Ti0 2.043024 1_565
O2 P3 1.568950 1_555
O3 P2 1.578318 1_555
O3 Ti0 2.043024 1_655
O5 Ti0 1.896729 1_555
O7 Ti0 1.896729 1_665
O8 P0 1.556193 1_555
O8 Ti0 1.988404 1_665
O9 P1 1.559778 1_455
O10 P2 1.556193 1_555
O10 Ti0 1.988404 1_555
O11 P3 1.559778 1_655
O12 P1 1.559450 1_555
O13 P0 1.551129 1_555
O14 P3 1.559450 1_555
O15 P2 1.551129 1_555
O16 P0 1.529193 1_555
O17 P1 1.538149 1_555
O18 P2 1.529193 1_555
O19 P3 1.538149 1_555
