# generated using pymatgen
data_V4O5F7
_symmetry_space_group_name_H-M   'P 1'
_cell_length_a   5.25226900
_cell_length_b   5.40097084
_cell_length_c   7.43793748
_cell_angle_alpha   92.22803779
_cell_angle_beta   90.03773789
_cell_angle_gamma   90.64745640
_symmetry_Int_Tables_number   1
_chemical_formula_structural   V4O5F7
_chemical_formula_sum   'V4 O5 F7'
_cell_volume   210.82149047
_cell_formula_units_Z   1
loop_
 _symmetry_equiv_pos_site_id
 _symmetry_equiv_pos_as_xyz
  1  'x, y, z'
loop_
 _atom_site_type_symbol
 _atom_site_label
 _atom_site_symmetry_multiplicity
 _atom_site_fract_x
 _atom_site_fract_y
 _atom_site_fract_z
 _atom_site_occupancy
  V  V0  1  0.50859300  0.49775500  0.46881800  1
  V  V1  1  0.48847000  0.50246200  0.97028600  1
  V  V2  1  0.00833500  0.99586800  0.53053200  1
  V  V3  1  0.00783100  0.02941900  0.03401500  1
  O  O0  1  0.07249100  0.99151400  0.74928500  1
  O  O1  1  0.20510700  0.28068500  0.04040400  1
  O  O2  1  0.42730100  0.49679600  0.74962200  1
  O  O3  1  0.57219200  0.50061800  0.24860100  1
  O  O4  1  0.92550200  0.00279000  0.24949000  1
  F  F0  1  0.18975600  0.68930300  0.45641100  1
  F  F1  1  0.28915900  0.79864000  0.04243700  1
  F  F2  1  0.30623300  0.18971900  0.45635100  1
  F  F3  1  0.68705800  0.80618800  0.54139100  1
  F  F4  1  0.71055100  0.20118400  0.95748900  1
  F  F5  1  0.79717500  0.71386500  0.96266500  1
  F  F6  1  0.80424600  0.30319500  0.54220300  1
loop_
_geom_bond_atom_site_label_1
_geom_bond_atom_site_label_2
_geom_bond_distance
_geom_bond_site_symmetry_2
O0 V2 1.662495 1_555
O0 V3 2.147359 1_566
O1 V3 1.697253 1_555
O1 V1 1.982697 1_554
O2 V1 1.671272 1_555
O2 V0 2.132265 1_555
O3 V0 1.672516 1_555
O3 V1 2.116421 1_554
O4 V3 1.671440 1_655
O4 V2 2.136722 1_645
F0 V2 1.979591 1_555
F0 V0 1.982301 1_555
F1 V3 1.946386 1_565
F1 V1 1.978528 1_554
F2 V0 1.963170 1_555
F2 V2 1.964112 1_545
F3 V0 1.959372 1_555
F3 V2 1.967488 1_655
F4 V3 1.922286 1_656
F4 V1 2.012057 1_555
F5 V1 1.974623 1_555
F5 V3 2.072854 1_666
F6 V0 1.973281 1_555
F6 V2 1.985157 1_645
