# generated using pymatgen
data_ThZr3
_symmetry_space_group_name_H-M   'P 1'
_cell_length_a   6.65057843
_cell_length_b   6.65057843
_cell_length_c   5.39170900
_cell_angle_alpha   90.00000000
_cell_angle_beta   90.00000000
_cell_angle_gamma   120.00000433
_symmetry_Int_Tables_number   1
_chemical_formula_structural   ThZr3
_chemical_formula_sum   'Th2 Zr6'
_cell_volume   206.52655311
_cell_formula_units_Z   2
loop_
 _symmetry_equiv_pos_site_id
 _symmetry_equiv_pos_as_xyz
  1  'x, y, z'
loop_
 _atom_site_type_symbol
 _atom_site_label
 _atom_site_symmetry_multiplicity
 _atom_site_fract_x
 _atom_site_fract_y
 _atom_site_fract_z
 _atom_site_occupancy
  Th  Th0  1  0.33333300  0.66666700  0.75000000  1
  Th  Th1  1  0.66666700  0.33333300  0.25000000  1
  Zr  Zr0  1  0.15674500  0.31349000  0.25000000  1
  Zr  Zr1  1  0.68651000  0.84325500  0.25000000  1
  Zr  Zr2  1  0.15674500  0.84325500  0.25000000  1
  Zr  Zr3  1  0.84325500  0.68651000  0.75000000  1
  Zr  Zr4  1  0.31349000  0.15674500  0.75000000  1
  Zr  Zr5  1  0.84325500  0.15674500  0.75000000  1
loop_
_geom_bond_atom_site_label_1
_geom_bond_atom_site_label_2
_geom_bond_distance
_geom_bond_site_symmetry_2
Th0 Zr4 3.327249 1_565
Th0 Zr3 3.327249 1_455
Th0 Zr5 3.327253 1_565
Th0 Zr5 3.327253 1_455
Th0 Zr3 3.327256 1_555
Th0 Zr4 3.327256 1_555
Th0 Zr2 3.377183 1_555
Th0 Zr2 3.377183 1_556
Th0 Zr0 3.377186 1_556
Th0 Zr1 3.377186 1_555
Th0 Zr0 3.377186 1_555
Th0 Zr1 3.377186 1_556
Th1 Zr0 3.327249 1_655
Th1 Zr1 3.327249 1_545
Th1 Zr2 3.327253 1_655
Th1 Zr2 3.327253 1_545
Th1 Zr1 3.327256 1_555
Th1 Zr0 3.327256 1_555
Th1 Zr5 3.377183 1_555
Th1 Zr5 3.377183 1_554
Th1 Zr3 3.377186 1_555
Th1 Zr3 3.377186 1_554
Th1 Zr4 3.377186 1_554
Th1 Zr4 3.377186 1_555
Zr0 Zr1 3.127335 1_445
Zr0 Zr2 3.127335 1_545
Zr0 Zr5 3.244643 1_455
Zr0 Zr5 3.244643 1_454
Zr0 Zr4 3.244643 1_555
Zr0 Zr4 3.244643 1_554
Zr0 Zr1 3.523243 1_555
Zr0 Zr2 3.523244 1_555
Zr1 Zr2 3.127335 1_655
Zr1 Zr5 3.244643 1_565
Zr1 Zr5 3.244643 1_564
Zr1 Zr3 3.244643 1_554
Zr1 Zr3 3.244643 1_555
Zr1 Zr2 3.523244 1_555
Zr2 Zr4 3.244643 1_565
Zr2 Zr4 3.244643 1_564
Zr2 Zr3 3.244643 1_455
Zr2 Zr3 3.244643 1_454
Zr3 Zr4 3.127335 1_665
Zr3 Zr5 3.127335 1_565
Zr3 Zr4 3.523243 1_555
Zr3 Zr5 3.523244 1_555
Zr4 Zr5 3.127335 1_455
Zr4 Zr5 3.523244 1_555
