# generated using pymatgen
data_LiDy3
_symmetry_space_group_name_H-M   'P 1'
_cell_length_a   7.00037064
_cell_length_b   7.00037064
_cell_length_c   5.51536200
_cell_angle_alpha   90.00000000
_cell_angle_beta   90.00000000
_cell_angle_gamma   120.00000609
_symmetry_Int_Tables_number   1
_chemical_formula_structural   LiDy3
_chemical_formula_sum   'Li2 Dy6'
_cell_volume   234.07050791
_cell_formula_units_Z   2
loop_
 _symmetry_equiv_pos_site_id
 _symmetry_equiv_pos_as_xyz
  1  'x, y, z'
loop_
 _atom_site_type_symbol
 _atom_site_label
 _atom_site_symmetry_multiplicity
 _atom_site_fract_x
 _atom_site_fract_y
 _atom_site_fract_z
 _atom_site_occupancy
  Li  Li0  1  0.66666700  0.33333300  0.25000000  1
  Li  Li1  1  0.33333300  0.66666700  0.75000000  1
  Dy  Dy0  1  0.83101300  0.16898700  0.75000000  1
  Dy  Dy1  1  0.33797500  0.16898700  0.75000000  1
  Dy  Dy2  1  0.83101300  0.66202500  0.75000000  1
  Dy  Dy3  1  0.16898700  0.83101300  0.25000000  1
  Dy  Dy4  1  0.66202500  0.83101300  0.25000000  1
  Dy  Dy5  1  0.16898700  0.33797500  0.25000000  1
loop_
_geom_bond_atom_site_label_1
_geom_bond_atom_site_label_2
_geom_bond_distance
_geom_bond_site_symmetry_2
Dy0 Li0 3.402299 1_555
Dy0 Li0 3.402299 1_556
Dy0 Dy5 3.435560 1_656
Dy0 Dy5 3.435560 1_655
Dy0 Dy4 3.435560 1_546
Dy0 Dy4 3.435560 1_545
Dy0 Dy2 3.451449 1_555
Dy0 Dy1 3.451449 1_555
Dy0 Li1 3.500298 1_545
Dy0 Li1 3.500298 1_655
Dy0 Dy1 3.548922 1_655
Dy0 Dy2 3.548922 1_545
Dy1 Li0 3.402299 1_556
Dy1 Li0 3.402299 1_555
Dy1 Dy3 3.435560 1_546
Dy1 Dy3 3.435560 1_545
Dy1 Dy5 3.435567 1_555
Dy1 Dy5 3.435567 1_556
Dy1 Dy2 3.451448 1_555
Dy1 Li1 3.500291 1_545
Dy1 Li1 3.500305 1_555
Dy1 Dy2 3.548922 1_445
Dy2 Li0 3.402299 1_556
Dy2 Li0 3.402299 1_555
Dy2 Dy3 3.435560 1_655
Dy2 Dy3 3.435560 1_656
Dy2 Dy4 3.435567 1_556
Dy2 Dy4 3.435567 1_555
Dy2 Li1 3.500291 1_655
Dy2 Li1 3.500305 1_555
Dy3 Li1 3.402299 1_554
Dy3 Li1 3.402299 1_555
Dy3 Dy4 3.451449 1_555
Dy3 Dy5 3.451449 1_555
Dy3 Li0 3.500298 1_455
Dy3 Li0 3.500298 1_565
Dy3 Dy5 3.548922 1_565
Dy3 Dy4 3.548922 1_455
Dy4 Li1 3.402299 1_555
Dy4 Li1 3.402299 1_554
Dy4 Dy5 3.451448 1_555
Dy4 Li0 3.500291 1_565
Dy4 Li0 3.500305 1_555
Dy4 Dy5 3.548922 1_665
Dy5 Li1 3.402299 1_554
Dy5 Li1 3.402299 1_555
Dy5 Li0 3.500291 1_455
Dy5 Li0 3.500305 1_555
