# generated using pymatgen
data_LiV3Zn2O8
_symmetry_space_group_name_H-M   'P 1'
_cell_length_a   5.97434943
_cell_length_b   8.44625623
_cell_length_c   5.99395609
_cell_angle_alpha   89.92978968
_cell_angle_beta   89.67905976
_cell_angle_gamma   89.48467649
_symmetry_Int_Tables_number   1
_chemical_formula_structural   LiV3Zn2O8
_chemical_formula_sum   'Li2 V6 Zn4 O16'
_cell_volume   302.44314839
_cell_formula_units_Z   2
loop_
 _symmetry_equiv_pos_site_id
 _symmetry_equiv_pos_as_xyz
  1  'x, y, z'
loop_
 _atom_site_type_symbol
 _atom_site_label
 _atom_site_symmetry_multiplicity
 _atom_site_fract_x
 _atom_site_fract_y
 _atom_site_fract_z
 _atom_site_occupancy
  Li  Li0  1  0.25084000  0.37753000  0.99678600  1
  Li  Li1  1  0.74422800  0.87292500  0.50193300  1
  V  V0  1  0.25130900  0.87099300  0.49924000  1
  V  V1  1  0.49900400  0.12458200  0.74739100  1
  V  V2  1  0.50319800  0.12329200  0.24818600  1
  V  V3  1  0.74550200  0.37431800  0.00007400  1
  V  V4  1  0.00047500  0.62513700  0.25037900  1
  V  V5  1  0.99927100  0.62764800  0.75024000  1
  Zn  Zn0  1  0.51168500  0.49506000  0.50148200  1
  Zn  Zn1  1  0.01341000  0.99557500  0.99882100  1
  Zn  Zn2  1  0.99294200  0.25588700  0.50281000  1
  Zn  Zn3  1  0.48963400  0.75733500  0.00163600  1
  O  O0  1  0.76741500  0.61640500  0.00075800  1
  O  O1  1  0.26592900  0.11994200  0.50791600  1
  O  O2  1  0.22475300  0.62047200  0.50017400  1
  O  O3  1  0.74304100  0.13767100  0.98805200  1
  O  O4  1  0.98627800  0.39669200  0.23370000  1
  O  O5  1  0.48452200  0.89324500  0.73417100  1
  O  O6  1  0.00730200  0.84983800  0.26114400  1
  O  O7  1  0.51706300  0.36009300  0.76846600  1
  O  O8  1  0.78502500  0.62391500  0.50152000  1
  O  O9  1  0.28550000  0.12937000  0.98903800  1
  O  O10  1  0.00638800  0.84917700  0.73881100  1
  O  O11  1  0.52583200  0.36646700  0.22373400  1
  O  O12  1  0.97915700  0.39581200  0.77377300  1
  O  O13  1  0.48826000  0.89076300  0.26964100  1
  O  O14  1  0.21472500  0.62368200  0.99866300  1
  O  O15  1  0.71731100  0.12617500  0.51146000  1
loop_
_geom_bond_atom_site_label_1
_geom_bond_atom_site_label_2
_geom_bond_distance
_geom_bond_site_symmetry_2
Li0 O14 2.088335 1_555
Li0 O7 2.096713 1_555
Li0 O9 2.104916 1_555
Li0 O12 2.112944 1_455
Li0 O4 2.124102 1_456
Li0 O11 2.140157 1_556
Li1 O13 2.078247 1_555
Li1 O5 2.084747 1_555
Li1 O8 2.115102 1_555
Li1 O10 2.127869 1_655
Li1 O6 2.135666 1_655
Li1 O15 2.144414 1_565
O0 Zn3 2.033578 1_555
O0 V5 2.039918 1_554
O0 V3 2.050101 1_555
O0 V4 2.051412 1_655
O1 Zn2 1.986466 1_455
O1 V1 2.006092 1_555
O1 V2 2.099937 1_555
O1 V0 2.106003 1_545
O2 Zn0 2.007027 1_555
O2 V5 2.010264 1_455
O2 V4 2.014968 1_555
O2 V0 2.123325 1_555
O3 V3 2.000357 1_556
O3 Zn1 2.004951 1_645
O3 V1 2.060477 1_555
O3 V2 2.115847 1_556
O4 V4 1.934862 1_655
O4 Zn2 2.003248 1_555
O4 V3 2.023365 1_555
O5 V1 1.958344 1_565
O5 Zn3 1.970850 1_556
O5 V0 1.996714 1_555
O6 V4 1.899870 1_555
O6 Zn1 1.996056 1_554
O6 V0 2.054847 1_555
O7 V3 1.956748 1_556
O7 Zn0 1.963907 1_555
O7 V1 1.997270 1_555
O8 Zn0 1.970595 1_555
O8 V5 1.970811 1_555
O8 V4 1.975204 1_655
O9 V1 1.924864 1_555
O9 Zn1 1.988656 1_545
O9 V2 2.031810 1_556
O10 V5 1.873117 1_455
O10 Zn1 1.991483 1_555
O10 V0 2.053711 1_555
O11 V3 1.872330 1_555
O11 Zn0 1.989878 1_555
O11 V2 2.064554 1_555
O12 V3 1.950452 1_556
O12 V5 1.967750 1_555
O12 Zn2 2.010677 1_555
O13 Zn3 1.963364 1_555
O13 V2 1.970838 1_565
O13 V0 1.976789 1_555
O14 V4 1.973092 1_556
O14 V5 1.973779 1_455
O14 Zn3 2.001468 1_556
O15 V1 1.918511 1_555
O15 Zn2 1.986458 1_555
O15 V2 2.037260 1_555
