# generated using pymatgen
data_Li9Mn2Co5O16
_symmetry_space_group_name_H-M   'P 1'
_cell_length_a   5.17104100
_cell_length_b   5.90356844
_cell_length_c   10.03357211
_cell_angle_alpha   88.27466332
_cell_angle_beta   100.72885887
_cell_angle_gamma   108.35408471
_symmetry_Int_Tables_number   1
_chemical_formula_structural   Li9Mn2Co5O16
_chemical_formula_sum   'Li9 Mn2 Co5 O16'
_cell_volume   285.50333720
_cell_formula_units_Z   1
loop_
 _symmetry_equiv_pos_site_id
 _symmetry_equiv_pos_as_xyz
  1  'x, y, z'
loop_
 _atom_site_type_symbol
 _atom_site_label
 _atom_site_symmetry_multiplicity
 _atom_site_fract_x
 _atom_site_fract_y
 _atom_site_fract_z
 _atom_site_occupancy
  Li  Li0  1  0.50053100  0.12539600  0.37435200  1
  Li  Li1  1  0.50261100  0.37085100  0.62446200  1
  Li  Li2  1  0.50869000  0.63153600  0.88176700  1
  Li  Li3  1  0.50416800  0.87016900  0.11883100  1
  Li  Li4  1  0.49738900  0.62914900  0.37553800  1
  Li  Li5  1  0.49946900  0.87460400  0.62564800  1
  Li  Li6  1  0.49583200  0.12983100  0.88116900  1
  Li  Li7  1  0.49131000  0.36846400  0.11823300  1
  Li  Li8  1  0.00000000  0.00000000  0.00000000  1
  Mn  Mn0  1  0.00436600  0.24795100  0.24764500  1
  Mn  Mn1  1  0.99563400  0.75204900  0.75235500  1
  Co  Co0  1  0.00000000  0.50000000  0.50000000  1
  Co  Co1  1  0.99183100  0.75304900  0.23849400  1
  Co  Co2  1  0.00000000  0.00000000  0.50000000  1
  Co  Co3  1  0.00816900  0.24695100  0.76150600  1
  Co  Co4  1  0.00000000  0.50000000  0.00000000  1
  O  O0  1  0.76824900  0.95220400  0.30950500  1
  O  O1  1  0.78303700  0.20560500  0.56635700  1
  O  O2  1  0.77143500  0.45187600  0.81500500  1
  O  O3  1  0.75963300  0.68816200  0.07403100  1
  O  O4  1  0.79081100  0.42805800  0.31905200  1
  O  O5  1  0.76554600  0.70678900  0.56906800  1
  O  O6  1  0.77157100  0.92400000  0.80464800  1
  O  O7  1  0.77809200  0.21437500  0.06876200  1
  O  O8  1  0.23445400  0.29321100  0.43093200  1
  O  O9  1  0.20918900  0.57194200  0.68094800  1
  O  O10  1  0.22190800  0.78562500  0.93123800  1
  O  O11  1  0.22842900  0.07600000  0.19535200  1
  O  O12  1  0.21696300  0.79439500  0.43364300  1
  O  O13  1  0.23175100  0.04779600  0.69049500  1
  O  O14  1  0.24036700  0.31183800  0.92596900  1
  O  O15  1  0.22856500  0.54812400  0.18499500  1
loop_
_geom_bond_atom_site_label_1
_geom_bond_atom_site_label_2
_geom_bond_distance
_geom_bond_site_symmetry_2
Li0 O11 2.030449 1_555
Li0 O4 2.077239 1_555
Li0 O8 2.092848 1_555
Li0 O1 2.154331 1_555
Li0 O0 2.156875 1_545
Li0 O12 2.184667 1_545
Li1 O2 2.112599 1_555
Li1 O8 2.134074 1_555
Li1 O5 2.146523 1_555
Li1 O13 2.150624 1_555
Li1 O1 2.152732 1_555
Li1 O9 2.351133 1_555
Li2 O14 2.052681 1_555
Li2 O6 2.064159 1_555
Li2 O3 2.085818 1_556
Li2 O10 2.103307 1_555
Li2 O2 2.169980 1_555
Li2 O9 2.262735 1_555
Li3 O3 2.060526 1_555
Li3 O0 2.103814 1_555
Li3 O10 2.120655 1_554
Li3 O15 2.157835 1_555
Li3 O7 2.186032 1_565
Li3 O11 2.377825 1_565
Li4 O15 2.112599 1_555
Li4 O5 2.134074 1_555
Li4 O8 2.146523 1_555
Li4 O0 2.150624 1_555
Li4 O12 2.152732 1_555
Li4 O4 2.351133 1_555
Li5 O6 2.030449 1_555
Li5 O9 2.077239 1_555
Li5 O5 2.092848 1_555
Li5 O12 2.154331 1_555
Li5 O13 2.156875 1_565
Li5 O1 2.184667 1_565
Li6 O14 2.060526 1_555
Li6 O13 2.103814 1_555
Li6 O7 2.120655 1_556
Li6 O2 2.157835 1_555
Li6 O10 2.186032 1_545
Li6 O6 2.377825 1_545
Li7 O3 2.052681 1_555
Li7 O11 2.064159 1_555
Li7 O14 2.085818 1_554
Li7 O7 2.103307 1_555
Li7 O15 2.169980 1_555
Li7 O4 2.262735 1_555
Li8 O11 2.072593 1_555
Li8 O6 2.072593 1_444
Li8 O3 2.075121 1_445
Li8 O14 2.075121 1_554
Li8 O7 2.157862 1_455
Li8 O10 2.157862 1_544
Mn0 O11 1.909804 1_555
Mn0 O7 1.929570 1_455
Mn0 O15 1.946775 1_555
Mn0 O0 1.949040 1_445
Mn0 O8 1.970717 1_555
Mn0 O4 1.985770 1_455
Mn1 O6 1.909804 1_555
Mn1 O10 1.929570 1_655
Mn1 O2 1.946775 1_555
Mn1 O13 1.949040 1_665
Mn1 O5 1.970717 1_555
Mn1 O9 1.985770 1_655
Co0 O9 1.916411 1_555
Co0 O4 1.916411 1_455
Co0 O12 1.924324 1_555
Co0 O1 1.924324 1_455
Co0 O8 2.176302 1_555
Co0 O5 2.176302 1_455
Co1 O3 1.822671 1_555
Co1 O11 1.999419 1_665
Co1 O12 2.061530 1_655
Co1 O4 2.092448 1_555
Co1 O0 2.107101 1_555
Co1 O15 2.113468 1_655
Co2 O8 1.966049 1_555
Co2 O5 1.966049 1_445
Co2 O13 2.033643 1_555
Co2 O0 2.033643 1_445
Co2 O1 2.087996 1_455
Co2 O12 2.087996 1_545
Co3 O14 1.822671 1_555
Co3 O6 1.999419 1_445
Co3 O1 2.061530 1_455
Co3 O9 2.092448 1_555
Co3 O13 2.107101 1_555
Co3 O2 2.113468 1_455
Co4 O10 1.908451 1_554
Co4 O7 1.908451 1_455
Co4 O15 1.981527 1_555
Co4 O2 1.981527 1_454
Co4 O3 2.143261 1_455
Co4 O14 2.143261 1_554
