# generated using pymatgen
data_ZrSn
_symmetry_space_group_name_H-M   'P 1'
_cell_length_a   5.31523700
_cell_length_b   6.01815600
_cell_length_c   11.69274900
_cell_angle_alpha   90.00000000
_cell_angle_beta   90.00000000
_cell_angle_gamma   90.00000000
_symmetry_Int_Tables_number   1
_chemical_formula_structural   ZrSn
_chemical_formula_sum   'Zr8 Sn8'
_cell_volume   374.02678324
_cell_formula_units_Z   8
loop_
 _symmetry_equiv_pos_site_id
 _symmetry_equiv_pos_as_xyz
  1  'x, y, z'
loop_
 _atom_site_type_symbol
 _atom_site_label
 _atom_site_symmetry_multiplicity
 _atom_site_fract_x
 _atom_site_fract_y
 _atom_site_fract_z
 _atom_site_occupancy
  Zr  Zr0  1  0.00000000  0.00000000  0.82803800  1
  Zr  Zr1  1  0.00000000  0.00000000  0.30606500  1
  Zr  Zr2  1  0.00000000  0.74878100  0.57395300  1
  Zr  Zr3  1  0.00000000  0.25121900  0.57395300  1
  Zr  Zr4  1  0.50000000  0.75121900  0.42604700  1
  Zr  Zr5  1  0.50000000  0.50000000  0.69393500  1
  Zr  Zr6  1  0.50000000  0.50000000  0.17196200  1
  Zr  Zr7  1  0.50000000  0.24878100  0.42604700  1
  Sn  Sn0  1  0.00000000  0.74502900  0.06734100  1
  Sn  Sn1  1  0.00000000  0.50000000  0.80014200  1
  Sn  Sn2  1  0.00000000  0.50000000  0.34503700  1
  Sn  Sn3  1  0.00000000  0.25497100  0.06734100  1
  Sn  Sn4  1  0.50000000  0.00000000  0.65496300  1
  Sn  Sn5  1  0.50000000  0.00000000  0.19985800  1
  Sn  Sn6  1  0.50000000  0.75497100  0.93265900  1
  Sn  Sn7  1  0.50000000  0.24502900  0.93265900  1
loop_
_geom_bond_atom_site_label_1
_geom_bond_atom_site_label_2
_geom_bond_distance
_geom_bond_site_symmetry_2
Sn0 Sn3 2.949245 1_555
Sn0 Sn3 3.068911 1_565
Sn0 Sn6 3.089744 1_454
Sn0 Sn6 3.089744 1_554
Sn0 Zr1 3.185299 1_565
Sn0 Zr0 3.191234 1_564
Sn0 Zr6 3.276267 1_555
Sn0 Zr6 3.276267 1_455
Sn1 Zr5 2.933451 1_555
Sn1 Zr5 2.933451 1_455
Sn1 Zr0 3.026705 1_565
Sn1 Zr0 3.026705 1_555
Sn1 Zr2 3.039150 1_555
Sn1 Zr3 3.039150 1_555
Sn2 Zr1 3.043387 1_565
Sn2 Zr1 3.043387 1_555
Sn2 Zr3 3.066938 1_555
Sn2 Zr2 3.066938 1_555
Sn2 Zr7 3.200929 1_455
Sn2 Zr4 3.200929 1_455
Sn2 Zr4 3.200929 1_555
Sn2 Zr7 3.200929 1_555
Sn2 Zr6 3.340417 1_555
Sn2 Zr6 3.340417 1_455
Sn3 Sn7 3.089744 1_554
Sn3 Sn7 3.089744 1_454
Sn3 Zr1 3.185299 1_555
Sn3 Zr0 3.191234 1_554
Sn3 Zr6 3.276267 1_555
Sn3 Zr6 3.276267 1_455
Sn4 Zr5 3.043387 1_555
Sn4 Zr5 3.043387 1_545
Sn4 Zr4 3.066938 1_545
Sn4 Zr7 3.066938 1_555
Sn4 Zr2 3.200929 1_545
Sn4 Zr2 3.200929 1_645
Sn4 Zr3 3.200929 1_555
Sn4 Zr3 3.200929 1_655
Sn4 Zr0 3.340417 1_655
Sn4 Zr0 3.340417 1_555
Sn5 Zr1 2.933451 1_555
Sn5 Zr1 2.933451 1_655
Sn5 Zr6 3.026705 1_545
Sn5 Zr6 3.026705 1_555
Sn5 Zr7 3.039150 1_555
Sn5 Zr4 3.039150 1_545
Sn6 Sn7 2.949245 1_565
Sn6 Sn7 3.068911 1_555
Sn6 Zr5 3.185299 1_555
Sn6 Zr6 3.191234 1_556
Sn6 Zr0 3.276267 1_565
Sn6 Zr0 3.276267 1_665
Sn7 Zr5 3.185299 1_555
Sn7 Zr6 3.191234 1_556
Sn7 Zr0 3.276267 1_655
Sn7 Zr0 3.276267 1_555
