# generated using pymatgen
data_HfMg30CrO32
_symmetry_space_group_name_H-M   'P 1'
_cell_length_a   8.63764500
_cell_length_b   8.63764500
_cell_length_c   8.61698600
_cell_angle_alpha   90.00000000
_cell_angle_beta   90.00000000
_cell_angle_gamma   90.00000000
_symmetry_Int_Tables_number   1
_chemical_formula_structural   HfMg30CrO32
_chemical_formula_sum   'Hf1 Mg30 Cr1 O32'
_cell_volume   642.90394282
_cell_formula_units_Z   1
loop_
 _symmetry_equiv_pos_site_id
 _symmetry_equiv_pos_as_xyz
  1  'x, y, z'
loop_
 _atom_site_type_symbol
 _atom_site_label
 _atom_site_symmetry_multiplicity
 _atom_site_fract_x
 _atom_site_fract_y
 _atom_site_fract_z
 _atom_site_occupancy
  Hf  Hf0  1  0.50000000  0.50000000  0.00000000  1
  Mg  Mg0  1  0.50000000  0.00000000  0.00000000  1
  Mg  Mg1  1  0.00000000  0.50000000  0.00000000  1
  Mg  Mg2  1  0.00000000  0.00000000  0.50000000  1
  Mg  Mg3  1  0.50000000  0.00000000  0.50000000  1
  Mg  Mg4  1  0.00000000  0.50000000  0.50000000  1
  Mg  Mg5  1  0.50000000  0.50000000  0.50000000  1
  Mg  Mg6  1  0.24127400  0.24127400  0.00000000  1
  Mg  Mg7  1  0.75872600  0.24127400  0.00000000  1
  Mg  Mg8  1  0.24127400  0.75872600  0.00000000  1
  Mg  Mg9  1  0.75872600  0.75872600  0.00000000  1
  Mg  Mg10  1  0.24785000  0.24785000  0.50000000  1
  Mg  Mg11  1  0.75215000  0.24785000  0.50000000  1
  Mg  Mg12  1  0.24785000  0.75215000  0.50000000  1
  Mg  Mg13  1  0.75215000  0.75215000  0.50000000  1
  Mg  Mg14  1  0.24747900  0.00000000  0.25032100  1
  Mg  Mg15  1  0.75252100  0.00000000  0.25032100  1
  Mg  Mg16  1  0.24233100  0.50000000  0.25642700  1
  Mg  Mg17  1  0.75766900  0.50000000  0.25642700  1
  Mg  Mg18  1  0.24747900  0.00000000  0.74967900  1
  Mg  Mg19  1  0.75252100  0.00000000  0.74967900  1
  Mg  Mg20  1  0.24233100  0.50000000  0.74357300  1
  Mg  Mg21  1  0.75766900  0.50000000  0.74357300  1
  Mg  Mg22  1  0.00000000  0.24747900  0.25032100  1
  Mg  Mg23  1  0.50000000  0.24233100  0.25642700  1
  Mg  Mg24  1  0.00000000  0.75252100  0.25032100  1
  Mg  Mg25  1  0.50000000  0.75766900  0.25642700  1
  Mg  Mg26  1  0.00000000  0.24747900  0.74967900  1
  Mg  Mg27  1  0.50000000  0.24233100  0.74357300  1
  Mg  Mg28  1  0.00000000  0.75252100  0.74967900  1
  Mg  Mg29  1  0.50000000  0.75766900  0.74357300  1
  Cr  Cr0  1  0.00000000  0.00000000  0.00000000  1
  O  O0  1  0.00000000  0.00000000  0.26608300  1
  O  O1  1  0.50000000  0.00000000  0.25242200  1
  O  O2  1  0.00000000  0.50000000  0.25242200  1
  O  O3  1  0.50000000  0.50000000  0.24481600  1
  O  O4  1  0.00000000  0.00000000  0.73391700  1
  O  O5  1  0.50000000  0.00000000  0.74757800  1
  O  O6  1  0.00000000  0.50000000  0.74757800  1
  O  O7  1  0.50000000  0.50000000  0.75518400  1
  O  O8  1  0.25112000  0.25112000  0.24902300  1
  O  O9  1  0.74888000  0.25112000  0.24902300  1
  O  O10  1  0.25112000  0.74888000  0.24902300  1
  O  O11  1  0.74888000  0.74888000  0.24902300  1
  O  O12  1  0.25112000  0.25112000  0.75097700  1
  O  O13  1  0.74888000  0.25112000  0.75097700  1
  O  O14  1  0.25112000  0.74888000  0.75097700  1
  O  O15  1  0.74888000  0.74888000  0.75097700  1
  O  O16  1  0.26948900  0.00000000  0.00000000  1
  O  O17  1  0.73051100  0.00000000  0.00000000  1
  O  O18  1  0.25770500  0.50000000  0.00000000  1
  O  O19  1  0.74229500  0.50000000  0.00000000  1
  O  O20  1  0.25339800  0.00000000  0.50000000  1
  O  O21  1  0.74660200  0.00000000  0.50000000  1
  O  O22  1  0.25263700  0.50000000  0.50000000  1
  O  O23  1  0.74736300  0.50000000  0.50000000  1
  O  O24  1  0.00000000  0.26948900  0.00000000  1
  O  O25  1  0.50000000  0.25770500  0.00000000  1
  O  O26  1  0.00000000  0.73051100  0.00000000  1
  O  O27  1  0.50000000  0.74229500  0.00000000  1
  O  O28  1  0.00000000  0.25339800  0.50000000  1
  O  O29  1  0.50000000  0.25263700  0.50000000  1
  O  O30  1  0.00000000  0.74660200  0.50000000  1
  O  O31  1  0.50000000  0.74736300  0.50000000  1
loop_
_geom_bond_atom_site_label_1
_geom_bond_atom_site_label_2
_geom_bond_distance
_geom_bond_site_symmetry_2
Hf0 O19 2.092858 1_555
Hf0 O27 2.092858 1_555
Hf0 O25 2.092858 1_555
Hf0 O18 2.092858 1_555
Hf0 O3 2.109576 1_555
Hf0 O7 2.109576 1_554
Mg0 O17 1.991072 1_555
Mg0 O16 1.991072 1_555
Mg0 O1 2.175117 1_555
Mg0 O5 2.175117 1_554
Mg0 O25 2.225964 1_555
Mg0 O27 2.225964 1_545
Mg1 O24 1.991072 1_555
Mg1 O26 1.991072 1_555
Mg1 O2 2.175117 1_555
Mg1 O6 2.175117 1_554
Mg1 O18 2.225964 1_555
Mg1 O19 2.225964 1_455
Mg2 O4 2.015660 1_555
Mg2 O0 2.015660 1_555
Mg2 O30 2.188762 1_545
Mg2 O28 2.188762 1_555
Mg2 O21 2.188762 1_455
Mg2 O20 2.188762 1_555
Mg3 O21 2.130061 1_555
Mg3 O20 2.130061 1_555
Mg3 O5 2.133376 1_555
Mg3 O1 2.133376 1_555
Mg3 O31 2.182189 1_545
Mg3 O29 2.182189 1_555
Mg4 O30 2.130061 1_555
Mg4 O28 2.130061 1_555
Mg4 O6 2.133376 1_555
Mg4 O2 2.133376 1_555
Mg4 O23 2.182189 1_455
Mg4 O22 2.182189 1_555
Mg5 O22 2.136634 1_555
Mg5 O23 2.136634 1_555
Mg5 O29 2.136634 1_555
Mg5 O31 2.136634 1_555
Mg5 O7 2.198917 1_555
Mg5 O3 2.198917 1_555
Mg6 O24 2.098241 1_555
Mg6 O16 2.098241 1_555
Mg6 O12 2.149196 1_554
Mg6 O8 2.149196 1_555
Mg6 O25 2.239285 1_555
Mg6 O18 2.239285 1_555
Mg7 O17 2.098241 1_555
Mg7 O24 2.098241 1_655
Mg7 O13 2.149196 1_554
Mg7 O9 2.149196 1_555
Mg7 O25 2.239285 1_555
Mg7 O19 2.239285 1_555
Mg8 O16 2.098241 1_565
Mg8 O26 2.098241 1_555
Mg8 O10 2.149196 1_555
Mg8 O14 2.149196 1_554
Mg8 O18 2.239285 1_555
Mg8 O27 2.239285 1_555
Mg9 O17 2.098241 1_565
Mg9 O26 2.098241 1_655
Mg9 O15 2.149196 1_554
Mg9 O11 2.149196 1_555
Mg9 O27 2.239285 1_555
Mg9 O19 2.239285 1_555
Mg10 O28 2.141377 1_555
Mg10 O20 2.141377 1_555
Mg10 O12 2.163034 1_555
Mg10 O8 2.163034 1_555
Mg10 O22 2.178375 1_555
Mg10 O29 2.178375 1_555
Mg11 O28 2.141377 1_655
Mg11 O21 2.141377 1_555
Mg11 O9 2.163034 1_555
Mg11 O13 2.163034 1_555
Mg11 O23 2.178375 1_555
Mg11 O29 2.178375 1_555
Mg12 O20 2.141377 1_565
Mg12 O30 2.141377 1_555
Mg12 O10 2.163034 1_555
Mg12 O14 2.163034 1_555
Mg12 O31 2.178375 1_555
Mg12 O22 2.178375 1_555
Mg13 O21 2.141377 1_565
Mg13 O30 2.141377 1_655
Mg13 O11 2.163034 1_555
Mg13 O15 2.163034 1_555
Mg13 O23 2.178375 1_555
Mg13 O31 2.178375 1_555
Mg14 O0 2.141946 1_555
Mg14 O20 2.152088 1_555
Mg14 O16 2.165374 1_555
Mg14 O10 2.169342 1_545
Mg14 O8 2.169342 1_555
Mg14 O1 2.181262 1_555
Mg15 O0 2.141946 1_655
Mg15 O21 2.152088 1_555
Mg15 O17 2.165374 1_555
Mg15 O11 2.169342 1_545
Mg15 O9 2.169342 1_555
Mg15 O1 2.181262 1_555
Mg16 O2 2.093454 1_555
Mg16 O22 2.100752 1_555
Mg16 O8 2.152023 1_555
Mg16 O10 2.152023 1_555
Mg16 O18 2.213615 1_555
Mg16 O3 2.227901 1_555
Mg17 O2 2.093454 1_655
Mg17 O23 2.100752 1_555
Mg17 O9 2.152023 1_555
Mg17 O11 2.152023 1_555
Mg17 O19 2.213615 1_555
Mg17 O3 2.227901 1_555
Mg18 O4 2.141946 1_555
Mg18 O20 2.152088 1_555
Mg18 O16 2.165374 1_556
Mg18 O14 2.169342 1_545
Mg18 O12 2.169342 1_555
Mg18 O5 2.181262 1_555
Mg19 O4 2.141946 1_655
Mg19 O21 2.152088 1_555
Mg19 O17 2.165374 1_556
Mg19 O15 2.169342 1_545
Mg19 O13 2.169342 1_555
Mg19 O5 2.181262 1_555
Mg20 O6 2.093454 1_555
Mg20 O22 2.100752 1_555
Mg20 O12 2.152023 1_555
Mg20 O14 2.152023 1_555
Mg20 O18 2.213615 1_556
Mg20 O7 2.227901 1_555
Mg21 O6 2.093454 1_655
Mg21 O23 2.100752 1_555
Mg21 O13 2.152023 1_555
Mg21 O15 2.152023 1_555
Mg21 O19 2.213615 1_556
Mg21 O7 2.227901 1_555
Mg22 O0 2.141946 1_555
Mg22 O28 2.152088 1_555
Mg22 O24 2.165374 1_555
Mg22 O9 2.169342 1_455
Mg22 O8 2.169342 1_555
Mg22 O2 2.181262 1_555
Mg23 O1 2.093454 1_555
Mg23 O29 2.100752 1_555
Mg23 O8 2.152023 1_555
Mg23 O9 2.152023 1_555
Mg23 O25 2.213615 1_555
Mg23 O3 2.227901 1_555
Mg24 O0 2.141946 1_565
Mg24 O30 2.152088 1_555
Mg24 O26 2.165374 1_555
Mg24 O11 2.169342 1_455
Mg24 O10 2.169342 1_555
Mg24 O2 2.181262 1_555
Mg25 O1 2.093454 1_565
Mg25 O31 2.100752 1_555
Mg25 O10 2.152023 1_555
Mg25 O11 2.152023 1_555
Mg25 O27 2.213615 1_555
Mg25 O3 2.227901 1_555
Mg26 O4 2.141946 1_555
Mg26 O28 2.152088 1_555
Mg26 O24 2.165374 1_556
Mg26 O13 2.169342 1_455
Mg26 O12 2.169342 1_555
Mg26 O6 2.181262 1_555
Mg27 O5 2.093454 1_555
Mg27 O29 2.100752 1_555
Mg27 O12 2.152023 1_555
Mg27 O13 2.152023 1_555
Mg27 O25 2.213615 1_556
Mg27 O7 2.227901 1_555
Mg28 O4 2.141946 1_565
Mg28 O30 2.152088 1_555
Mg28 O26 2.165374 1_556
Mg28 O15 2.169342 1_455
Mg28 O14 2.169342 1_555
Mg28 O6 2.181262 1_555
Mg29 O5 2.093454 1_565
Mg29 O31 2.100752 1_555
Mg29 O14 2.152023 1_555
Mg29 O15 2.152023 1_555
Mg29 O27 2.213615 1_556
Mg29 O7 2.227901 1_555
Cr0 O0 2.292833 1_555
Cr0 O4 2.292833 1_554
Cr0 O26 2.327750 1_545
Cr0 O24 2.327750 1_555
Cr0 O16 2.327750 1_555
Cr0 O17 2.327750 1_455
