# generated using pymatgen
data_PuH24C8N2(Cl2O)2
_symmetry_space_group_name_H-M   'P 1'
_cell_length_a   9.62034700
_cell_length_b   9.62034700
_cell_length_c   12.29437300
_cell_angle_alpha   90.00000000
_cell_angle_beta   90.00000000
_cell_angle_gamma   90.00000000
_symmetry_Int_Tables_number   1
_chemical_formula_structural   PuH24C8N2(Cl2O)2
_chemical_formula_sum   'Pu2 H48 C16 N4 Cl8 O4'
_cell_volume   1137.85745482
_cell_formula_units_Z   2
loop_
 _symmetry_equiv_pos_site_id
 _symmetry_equiv_pos_as_xyz
  1  'x, y, z'
loop_
 _atom_site_type_symbol
 _atom_site_label
 _atom_site_symmetry_multiplicity
 _atom_site_fract_x
 _atom_site_fract_y
 _atom_site_fract_z
 _atom_site_occupancy
  Pu  Pu0  1  0.50000000  0.50000000  0.50000000  1
  Pu  Pu1  1  0.00000000  0.00000000  0.00000000  1
  H  H0  1  0.47512800  0.15320600  0.12867100  1
  H  H1  1  0.52487200  0.84679400  0.12867100  1
  H  H2  1  0.02487200  0.65320600  0.62867100  1
  H  H3  1  0.97512800  0.34679400  0.62867100  1
  H  H4  1  0.52487200  0.84679400  0.87132900  1
  H  H5  1  0.47512800  0.15320600  0.87132900  1
  H  H6  1  0.97512800  0.34679400  0.37132900  1
  H  H7  1  0.02487200  0.65320600  0.37132900  1
  H  H8  1  0.15320600  0.47512800  0.12867100  1
  H  H9  1  0.84679400  0.52487200  0.12867100  1
  H  H10  1  0.65320600  0.02487200  0.62867100  1
  H  H11  1  0.34679400  0.97512800  0.62867100  1
  H  H12  1  0.84679400  0.52487200  0.87132900  1
  H  H13  1  0.15320600  0.47512800  0.87132900  1
  H  H14  1  0.34679400  0.97512800  0.37132900  1
  H  H15  1  0.65320600  0.02487200  0.37132900  1
  H  H16  1  0.60008000  0.19410500  0.23251200  1
  H  H17  1  0.39992000  0.80589500  0.23251200  1
  H  H18  1  0.89992000  0.69410500  0.73251200  1
  H  H19  1  0.10008000  0.30589500  0.73251200  1
  H  H20  1  0.39992000  0.80589500  0.76748800  1
  H  H21  1  0.60008000  0.19410500  0.76748800  1
  H  H22  1  0.10008000  0.30589500  0.26748800  1
  H  H23  1  0.89992000  0.69410500  0.26748800  1
  H  H24  1  0.19410500  0.60008000  0.23251200  1
  H  H25  1  0.80589500  0.39992000  0.23251200  1
  H  H26  1  0.69410500  0.89992000  0.73251200  1
  H  H27  1  0.30589500  0.10008000  0.73251200  1
  H  H28  1  0.80589500  0.39992000  0.76748800  1
  H  H29  1  0.19410500  0.60008000  0.76748800  1
  H  H30  1  0.30589500  0.10008000  0.26748800  1
  H  H31  1  0.69410500  0.89992000  0.26748800  1
  H  H32  1  0.64225100  0.06782900  0.12935500  1
  H  H33  1  0.35774900  0.93217100  0.12935500  1
  H  H34  1  0.85774900  0.56782900  0.62935500  1
  H  H35  1  0.14225100  0.43217100  0.62935500  1
  H  H36  1  0.35774900  0.93217100  0.87064500  1
  H  H37  1  0.64225100  0.06782900  0.87064500  1
  H  H38  1  0.14225100  0.43217100  0.37064500  1
  H  H39  1  0.85774900  0.56782900  0.37064500  1
  H  H40  1  0.06782900  0.64225100  0.12935500  1
  H  H41  1  0.93217100  0.35774900  0.12935500  1
  H  H42  1  0.56782900  0.85774900  0.62935500  1
  H  H43  1  0.43217100  0.14225100  0.62935500  1
  H  H44  1  0.93217100  0.35774900  0.87064500  1
  H  H45  1  0.06782900  0.64225100  0.87064500  1
  H  H46  1  0.43217100  0.14225100  0.37064500  1
  H  H47  1  0.56782900  0.85774900  0.37064500  1
  C  C0  1  0.55942500  0.11267400  0.17929000  1
  C  C1  1  0.44057500  0.88732600  0.17929000  1
  C  C2  1  0.94057500  0.61267400  0.67929000  1
  C  C3  1  0.05942500  0.38732600  0.67929000  1
  C  C4  1  0.44057500  0.88732600  0.82071000  1
  C  C5  1  0.55942500  0.11267400  0.82071000  1
  C  C6  1  0.05942500  0.38732600  0.32071000  1
  C  C7  1  0.94057500  0.61267400  0.32071000  1
  C  C8  1  0.11267400  0.55942500  0.17929000  1
  C  C9  1  0.88732600  0.44057500  0.17929000  1
  C  C10  1  0.61267400  0.94057500  0.67929000  1
  C  C11  1  0.38732600  0.05942500  0.67929000  1
  C  C12  1  0.88732600  0.44057500  0.82071000  1
  C  C13  1  0.11267400  0.55942500  0.82071000  1
  C  C14  1  0.38732600  0.05942500  0.32071000  1
  C  C15  1  0.61267400  0.94057500  0.32071000  1
  N  N0  1  0.50000000  0.00000000  0.25000000  1
  N  N1  1  0.00000000  0.50000000  0.75000000  1
  N  N2  1  0.50000000  0.00000000  0.75000000  1
  N  N3  1  0.00000000  0.50000000  0.25000000  1
  Cl  Cl0  1  0.50000000  0.50000000  0.28526200  1
  Cl  Cl1  1  0.00000000  0.00000000  0.78526200  1
  Cl  Cl2  1  0.50000000  0.50000000  0.71473800  1
  Cl  Cl3  1  0.00000000  0.00000000  0.21473800  1
  Cl  Cl4  1  0.69650400  0.30349500  0.50000000  1
  Cl  Cl5  1  0.30349500  0.69650400  0.50000000  1
  Cl  Cl6  1  0.80349600  0.80349600  0.00000000  1
  Cl  Cl7  1  0.19650400  0.19650400  0.00000000  1
  O  O0  1  0.36814200  0.36814200  0.50000000  1
  O  O1  1  0.63185800  0.63185800  0.50000000  1
  O  O2  1  0.13185800  0.86814200  0.00000000  1
  O  O3  1  0.86814200  0.13185800  0.00000000  1
loop_
_geom_bond_atom_site_label_1
_geom_bond_atom_site_label_2
_geom_bond_distance
_geom_bond_site_symmetry_2
C0 H16 1.093082 1_555
C0 H0 1.094078 1_555
C0 H32 1.094504 1_555
C0 N0 1.502514 1_555
C1 H17 1.093082 1_555
C1 H1 1.094078 1_555
C1 H33 1.094504 1_555
C1 N0 1.502514 1_565
C2 H18 1.093082 1_555
C2 H2 1.094078 1_655
C2 H34 1.094504 1_555
C2 N1 1.502514 1_655
C3 H19 1.093082 1_555
C3 H3 1.094078 1_455
C3 H35 1.094504 1_555
C3 N1 1.502514 1_555
C4 H20 1.093082 1_555
C4 H4 1.094078 1_555
C4 H36 1.094504 1_555
C4 N2 1.502514 1_565
C5 H21 1.093082 1_555
C5 H5 1.094078 1_555
C5 H37 1.094504 1_555
C5 N2 1.502514 1_555
C6 H22 1.093082 1_555
C6 H6 1.094078 1_455
C6 H38 1.094504 1_555
C6 N3 1.502514 1_555
C7 H23 1.093082 1_555
C7 H7 1.094078 1_655
C7 H39 1.094504 1_555
C7 N3 1.502514 1_655
C8 H24 1.093082 1_555
C8 H8 1.094078 1_555
C8 H40 1.094504 1_555
C8 N3 1.502514 1_555
C9 H25 1.093082 1_555
C9 H9 1.094078 1_555
C9 H41 1.094504 1_555
C9 N3 1.502514 1_655
C10 H26 1.093082 1_555
C10 H10 1.094078 1_565
C10 H42 1.094504 1_555
C10 N2 1.502514 1_565
C11 H27 1.093082 1_555
C11 H11 1.094078 1_545
C11 H43 1.094504 1_555
C11 N2 1.502514 1_555
C12 H28 1.093082 1_555
C12 H12 1.094078 1_555
C12 H44 1.094504 1_555
C12 N1 1.502514 1_655
C13 H29 1.093082 1_555
C13 H13 1.094078 1_555
C13 H45 1.094504 1_555
C13 N1 1.502514 1_555
C14 H30 1.093082 1_555
C14 H14 1.094078 1_545
C14 H46 1.094504 1_555
C14 N0 1.502514 1_555
C15 H31 1.093082 1_555
C15 H15 1.094078 1_565
C15 H47 1.094504 1_555
C15 N0 1.502514 1_565
Cl0 Pu0 2.640069 1_555
Cl1 Pu1 2.640069 1_556
Cl2 Pu0 2.640069 1_555
Cl3 Pu1 2.640069 1_555
Cl4 Pu0 2.673488 1_555
Cl5 Pu0 2.673488 1_555
Cl6 Pu1 2.673481 1_665
Cl7 Pu1 2.673481 1_555
O0 Pu0 1.793958 1_555
O1 Pu0 1.793958 1_555
O2 Pu1 1.793958 1_565
O3 Pu1 1.793958 1_655
