# generated using pymatgen
data_Er6MoO12
_symmetry_space_group_name_H-M   'P 1'
_cell_length_a   10.05865812
_cell_length_b   5.19910617
_cell_length_c   7.96432970
_cell_angle_alpha   115.66659759
_cell_angle_beta   94.83041436
_cell_angle_gamma   61.78971663
_symmetry_Int_Tables_number   1
_chemical_formula_structural   Er6MoO12
_chemical_formula_sum   'Er6 Mo1 O12'
_cell_volume   326.98330218
_cell_formula_units_Z   1
loop_
 _symmetry_equiv_pos_site_id
 _symmetry_equiv_pos_as_xyz
  1  'x, y, z'
loop_
 _atom_site_type_symbol
 _atom_site_label
 _atom_site_symmetry_multiplicity
 _atom_site_fract_x
 _atom_site_fract_y
 _atom_site_fract_z
 _atom_site_occupancy
  Er  Er0  1  0.95091600  0.78479200  0.29898500  1
  Er  Er1  1  0.04908400  0.21520800  0.70101500  1
  Er  Er2  1  0.66200400  0.86865600  0.09717900  1
  Er  Er3  1  0.33799600  0.13134400  0.90282100  1
  Er  Er4  1  0.74061300  0.77062600  0.61418000  1
  Er  Er5  1  0.25938700  0.22937400  0.38582000  1
  Mo  Mo0  1  0.00000000  0.00000000  0.00000000  1
  O  O0  1  0.93447400  0.76916600  0.76840400  1
  O  O1  1  0.06552600  0.23083400  0.23159600  1
  O  O2  1  0.11854900  0.60085300  0.02995800  1
  O  O3  1  0.88145100  0.39914700  0.97004200  1
  O  O4  1  0.82485300  0.08284000  0.14135700  1
  O  O5  1  0.17514700  0.91716000  0.85864300  1
  O  O6  1  0.57695300  0.97311600  0.85053300  1
  O  O7  1  0.42304700  0.02688400  0.14946700  1
  O  O8  1  0.86343700  0.27652300  0.53937600  1
  O  O9  1  0.13656300  0.72347700  0.46062400  1
  O  O10  1  0.72121200  0.85857100  0.36795100  1
  O  O11  1  0.27878800  0.14142900  0.63204900  1
loop_
_geom_bond_atom_site_label_1
_geom_bond_atom_site_label_2
_geom_bond_distance
_geom_bond_site_symmetry_2
Er0 O9 2.152620 1_655
Er0 O8 2.211927 1_565
Er0 O10 2.231731 1_555
Er0 O4 2.268163 1_565
Er0 O1 2.353318 1_655
Er0 O2 2.378541 1_655
Er0 O3 2.799572 1_554
Er1 O8 2.152620 1_455
Er1 O9 2.211927 1_545
Er1 O11 2.231731 1_555
Er1 O5 2.268163 1_545
Er1 O0 2.353318 1_455
Er1 O3 2.378541 1_455
Er1 O2 2.799572 1_556
Er2 O7 2.151704 1_565
Er2 O10 2.204571 1_555
Er2 O3 2.235496 1_554
Er2 O6 2.255544 1_554
Er2 O4 2.309771 1_565
Er3 O6 2.151704 1_545
Er3 O11 2.204571 1_555
Er3 O2 2.235496 1_556
Er3 O7 2.255544 1_556
Er3 O5 2.309771 1_545
Er4 O8 2.068369 1_555
Er4 O6 2.128005 1_555
Er4 O10 2.172740 1_555
Er4 O0 2.214022 1_555
Er5 O9 2.068369 1_555
Er5 O7 2.128005 1_555
Er5 O11 2.172740 1_555
Er5 O1 2.214022 1_555
Mo0 O4 1.937352 1_455
Mo0 O5 1.937352 1_544
Mo0 O2 1.956231 1_545
Mo0 O3 1.956231 1_454
Mo0 O1 1.975453 1_555
Mo0 O0 1.975453 1_444
