# generated using pymatgen
data_NdDy(CoO3)4
_symmetry_space_group_name_H-M   'P 1'
_cell_length_a   5.27076670
_cell_length_b   5.27076670
_cell_length_c   7.48319060
_cell_angle_alpha   90.00000000
_cell_angle_beta   90.00000000
_cell_angle_gamma   89.50877022
_symmetry_Int_Tables_number   1
_chemical_formula_structural   NdDy(CoO3)4
_chemical_formula_sum   'Nd1 Dy1 Co4 O12'
_cell_volume   207.88273973
_cell_formula_units_Z   1
loop_
 _symmetry_equiv_pos_site_id
 _symmetry_equiv_pos_as_xyz
  1  'x, y, z'
loop_
 _atom_site_type_symbol
 _atom_site_label
 _atom_site_symmetry_multiplicity
 _atom_site_fract_x
 _atom_site_fract_y
 _atom_site_fract_z
 _atom_site_occupancy
  Nd  Nd0  1  0.02532597  0.02532597  -0.00000000  1
  Dy  Dy0  1  0.47361037  0.47361037  0.50000000  1
  Co  Co0  1  0.50453557  0.99309991  0.74835015  1
  Co  Co1  1  0.50453557  0.99309991  0.25164985  1
  Co  Co2  1  0.99309991  0.50453557  0.25164985  1
  Co  Co3  1  0.99309991  0.50453557  0.74835015  1
  O  O0  1  0.77931090  0.22142979  0.74952081  1
  O  O1  1  0.22142979  0.77931090  0.74952081  1
  O  O2  1  0.22142979  0.77931090  0.25047919  1
  O  O3  1  0.77931090  0.22142979  0.25047919  1
  O  O4  1  0.70715631  0.70715631  0.70120669  1
  O  O5  1  0.27775115  0.27775115  0.78017508  1
  O  O6  1  0.27775115  0.27775115  0.21982492  1
  O  O7  1  0.70715631  0.70715631  0.29879331  1
  O  O8  1  0.55128771  0.96659902  -0.00000000  1
  O  O9  1  0.46988785  0.04862180  0.50000000  1
  O  O10  1  0.96659902  0.55128771  -0.00000000  1
  O  O11  1  0.04862180  0.46988785  0.50000000  1
loop_
_geom_bond_atom_site_label_1
_geom_bond_atom_site_label_2
_geom_bond_distance
_geom_bond_site_symmetry_2
Nd0 O1 2.498019 1_544
Nd0 O0 2.498019 1_454
Nd0 O3 2.498019 1_455
Nd0 O2 2.498019 1_545
Nd0 O5 2.505329 1_554
Nd0 O6 2.505329 1_555
Nd0 O8 2.520278 1_445
Nd0 O10 2.520278 1_445
Nd0 O10 2.786810 1_455
Nd0 O8 2.786810 1_545
Dy0 O11 2.240270 1_555
Dy0 O9 2.240270 1_555
Dy0 O7 2.307287 1_555
Dy0 O4 2.307287 1_555
Dy0 O6 2.558402 1_555
Dy0 O5 2.558402 1_555
Co0 O4 1.873202 1_555
Co0 O1 1.877571 1_555
Co0 O9 1.889951 1_565
Co0 O0 1.890983 1_565
Co0 O8 1.904173 1_556
Co0 O5 1.925036 1_565
Co1 O7 1.873202 1_555
Co1 O2 1.877571 1_555
Co1 O9 1.889951 1_565
Co1 O3 1.890983 1_565
Co1 O8 1.904173 1_555
Co1 O6 1.925036 1_565
Co2 O7 1.873202 1_555
Co2 O3 1.877571 1_555
Co2 O11 1.889951 1_655
Co2 O2 1.890983 1_655
Co2 O10 1.904173 1_555
Co2 O6 1.925036 1_655
Co3 O4 1.873202 1_555
Co3 O0 1.877571 1_555
Co3 O11 1.889951 1_655
Co3 O1 1.890983 1_655
Co3 O10 1.904173 1_556
Co3 O5 1.925036 1_655
