# generated using pymatgen
data_LaGe
_symmetry_space_group_name_H-M   'P 1'
_cell_length_a   4.59200938
_cell_length_b   6.76916224
_cell_length_c   7.29629435
_cell_angle_alpha   90.00000000
_cell_angle_beta   108.36148304
_cell_angle_gamma   90.00000000
_symmetry_Int_Tables_number   1
_chemical_formula_structural   LaGe
_chemical_formula_sum   'La4 Ge4'
_cell_volume   215.25166259
_cell_formula_units_Z   4
loop_
 _symmetry_equiv_pos_site_id
 _symmetry_equiv_pos_as_xyz
  1  'x, y, z'
loop_
 _atom_site_type_symbol
 _atom_site_label
 _atom_site_symmetry_multiplicity
 _atom_site_fract_x
 _atom_site_fract_y
 _atom_site_fract_z
 _atom_site_occupancy
  La  La0  1  0.95257011  0.25000000  0.90502098  1
  La  La1  1  0.04742989  0.75000000  0.09497902  1
  La  La2  1  0.77452581  0.75000000  0.54917189  1
  La  La3  1  0.22547319  0.25000000  0.45082611  1
  Ge  Ge0  1  0.59914131  0.05604274  0.19795874  1
  Ge  Ge1  1  0.40085869  0.94395726  0.80204226  1
  Ge  Ge2  1  0.59914131  0.44395726  0.19795874  1
  Ge  Ge3  1  0.40085869  0.55604274  0.80204226  1
loop_
_geom_bond_atom_site_label_1
_geom_bond_atom_site_label_2
_geom_bond_distance
_geom_bond_site_symmetry_2
Ge0 Ge2 2.625856 1_555
Ge0 Ge1 2.844701 1_544
Ge0 La3 3.171229 1_655
Ge0 La3 3.172788 1_555
Ge0 La1 3.173072 1_645
Ge0 La1 3.174185 1_545
Ge0 La2 3.194810 1_545
Ge0 La0 3.333065 1_454
Ge0 La0 3.333390 1_554
Ge1 Ge3 2.625856 1_555
Ge1 La2 3.171239 1_455
Ge1 La2 3.172801 1_555
Ge1 La0 3.173069 1_465
Ge1 La0 3.174185 1_565
Ge1 La3 3.194826 1_565
Ge1 La1 3.333062 1_656
Ge1 La1 3.333384 1_556
Ge2 Ge3 2.844701 1_554
Ge2 La3 3.171229 1_655
Ge2 La3 3.172788 1_555
Ge2 La1 3.173072 1_655
Ge2 La1 3.174185 1_555
Ge2 La2 3.194810 1_555
Ge2 La0 3.333065 1_454
Ge2 La0 3.333390 1_554
Ge3 La2 3.171239 1_455
Ge3 La2 3.172801 1_555
Ge3 La0 3.173069 1_455
Ge3 La0 3.174185 1_555
Ge3 La3 3.194826 1_555
Ge3 La1 3.333062 1_656
Ge3 La1 3.333384 1_556
