# generated using pymatgen
data_HfCrCuS4
_symmetry_space_group_name_H-M   'P 1'
_cell_length_a   6.64996000
_cell_length_b   7.31648100
_cell_length_c   11.51201000
_cell_angle_alpha   90.00000000
_cell_angle_beta   90.00000000
_cell_angle_gamma   90.00000000
_symmetry_Int_Tables_number   1
_chemical_formula_structural   HfCrCuS4
_chemical_formula_sum   'Hf4 Cr4 Cu4 S16'
_cell_volume   560.10885711
_cell_formula_units_Z   4
loop_
 _symmetry_equiv_pos_site_id
 _symmetry_equiv_pos_as_xyz
  1  'x, y, z'
loop_
 _atom_site_type_symbol
 _atom_site_label
 _atom_site_symmetry_multiplicity
 _atom_site_fract_x
 _atom_site_fract_y
 _atom_site_fract_z
 _atom_site_occupancy
  Hf  Hf0  1  0.70137200  0.00000000  0.31102800  1
  Hf  Hf1  1  0.29862800  0.50000000  0.81102800  1
  Hf  Hf2  1  0.82837700  0.00000000  0.01318500  1
  Hf  Hf3  1  0.17162300  0.50000000  0.51318500  1
  Cr  Cr0  1  0.80285900  0.50000000  0.72693900  1
  Cr  Cr1  1  0.19714100  0.00000000  0.22693900  1
  Cr  Cr2  1  0.65286300  0.50000000  0.97182000  1
  Cr  Cr3  1  0.34713700  0.00000000  0.47182000  1
  Cu  Cu0  1  0.96634200  0.00000000  0.62640800  1
  Cu  Cu1  1  0.56450100  0.50000000  0.40462500  1
  Cu  Cu2  1  0.03365800  0.50000000  0.12640800  1
  Cu  Cu3  1  0.43549900  0.00000000  0.90462500  1
  S  S0  1  0.93695400  0.21276500  0.16709100  1
  S  S1  1  0.59259100  0.26897400  0.83638800  1
  S  S2  1  0.06304600  0.28723500  0.66709100  1
  S  S3  1  0.40740900  0.23102600  0.33638800  1
  S  S4  1  0.40740900  0.76897400  0.33638800  1
  S  S5  1  0.06304600  0.71276500  0.66709100  1
  S  S6  1  0.59259100  0.73102600  0.83638800  1
  S  S7  1  0.93695400  0.78723500  0.16709100  1
  S  S8  1  0.65016800  0.00000000  0.54063500  1
  S  S9  1  0.89875000  0.50000000  0.38664100  1
  S  S10  1  0.34983200  0.50000000  0.04063500  1
  S  S11  1  0.10125000  0.00000000  0.88664100  1
  S  S12  1  0.97469600  0.50000000  0.90799100  1
  S  S13  1  0.48602400  0.00000000  0.10377300  1
  S  S14  1  0.02530400  0.00000000  0.40799100  1
  S  S15  1  0.51397600  0.50000000  0.60377300  1
loop_
_geom_bond_atom_site_label_1
_geom_bond_atom_site_label_2
_geom_bond_distance
_geom_bond_site_symmetry_2
Hf0 S14 2.426167 1_655
Hf0 S3 2.600720 1_555
Hf0 S4 2.600720 1_545
Hf0 S8 2.665080 1_555
Hf0 S7 2.761018 1_545
Hf0 S0 2.761018 1_555
Hf0 S13 2.782697 1_555
Hf1 S12 2.426167 1_455
Hf1 S6 2.600720 1_555
Hf1 S1 2.600720 1_555
Hf1 S10 2.665080 1_556
Hf1 S5 2.761018 1_555
Hf1 S2 2.761018 1_555
Hf1 S15 2.782697 1_555
Hf2 S11 2.327004 1_654
Hf2 S0 2.466532 1_555
Hf2 S7 2.466532 1_545
Hf2 S13 2.504116 1_555
Hf2 S1 3.236313 1_554
Hf2 S6 3.236313 1_544
Hf3 S9 2.327004 1_455
Hf3 S5 2.466532 1_555
Hf3 S2 2.466532 1_555
Hf3 S15 2.504116 1_555
Hf3 S3 3.236313 1_555
Hf3 S4 3.236313 1_555
Cr0 S12 2.376968 1_555
Cr0 S15 2.387652 1_555
Cr0 S5 2.427277 1_655
Cr0 S2 2.427277 1_655
Cr0 S6 2.529786 1_555
Cr0 S1 2.529786 1_555
Cr1 S14 2.376968 1_555
Cr1 S13 2.387652 1_555
Cr1 S7 2.427277 1_445
Cr1 S0 2.427277 1_455
Cr1 S4 2.529786 1_545
Cr1 S3 2.529786 1_555
Cr2 S10 2.165268 1_556
Cr2 S12 2.262805 1_555
Cr2 S6 2.334208 1_555
Cr2 S1 2.334208 1_555
Cr3 S8 2.165268 1_555
Cr3 S14 2.262805 1_555
Cr3 S4 2.334208 1_545
Cr3 S3 2.334208 1_555
Cu0 S2 2.247088 1_655
Cu0 S5 2.247088 1_645
Cu0 S8 2.322863 1_555
Cu0 S14 2.544806 1_655
Cu1 S9 2.232363 1_555
Cu1 S15 2.317083 1_555
Cu1 S3 2.362453 1_555
Cu1 S4 2.362453 1_555
Cu2 S0 2.247088 1_455
Cu2 S7 2.247088 1_455
Cu2 S10 2.322863 1_555
Cu2 S12 2.544806 1_454
Cu3 S11 2.232363 1_555
Cu3 S13 2.317083 1_556
Cu3 S1 2.362453 1_555
Cu3 S6 2.362453 1_545
