# generated using pymatgen
data_Li9Mn2Co5O16
_symmetry_space_group_name_H-M   'P 1'
_cell_length_a   2.99250300
_cell_length_b   5.04309016
_cell_length_c   19.34274634
_cell_angle_alpha   93.09965506
_cell_angle_beta   91.41707171
_cell_angle_gamma   91.65477942
_symmetry_Int_Tables_number   1
_chemical_formula_structural   Li9Mn2Co5O16
_chemical_formula_sum   'Li9 Mn2 Co5 O16'
_cell_volume   291.26060602
_cell_formula_units_Z   1
loop_
 _symmetry_equiv_pos_site_id
 _symmetry_equiv_pos_as_xyz
  1  'x, y, z'
loop_
 _atom_site_type_symbol
 _atom_site_label
 _atom_site_symmetry_multiplicity
 _atom_site_fract_x
 _atom_site_fract_y
 _atom_site_fract_z
 _atom_site_occupancy
  Li  Li0  1  0.00292500  0.37218200  0.13130700  1
  Li  Li1  1  0.50576400  0.62210200  0.36884000  1
  Li  Li2  1  0.00019000  0.87310600  0.62588200  1
  Li  Li3  1  0.49820500  0.12687900  0.87362000  1
  Li  Li4  1  0.49663800  0.87546500  0.13239000  1
  Li  Li5  1  0.99609500  0.13265100  0.36767600  1
  Li  Li6  1  0.49952500  0.37744700  0.62524300  1
  Li  Li7  1  0.00074900  0.62300000  0.87480400  1
  Li  Li8  1  0.49960500  0.24979300  0.24982400  1
  Mn  Mn0  1  0.99879300  0.00013600  0.00044800  1
  Mn  Mn1  1  0.50134600  0.99984100  0.49992500  1
  Co  Co0  1  0.00115500  0.50000400  0.49927600  1
  Co  Co1  1  0.50039200  0.75005900  0.75022600  1
  Co  Co2  1  0.49757400  0.50021600  0.00025700  1
  Co  Co3  1  0.99979500  0.74979600  0.25016300  1
  Co  Co4  1  0.99953500  0.25003200  0.74968600  1
  O  O0  1  0.47779800  0.19558900  0.05765400  1
  O  O1  1  0.99337000  0.47754400  0.30555400  1
  O  O2  1  0.50340700  0.69376900  0.55813800  1
  O  O3  1  0.99616500  0.93707400  0.80798100  1
  O  O4  1  0.96798500  0.68611300  0.05513800  1
  O  O5  1  0.51514000  0.91856500  0.30441700  1
  O  O6  1  0.97027800  0.19518300  0.55829500  1
  O  O7  1  0.49696200  0.43622700  0.80768300  1
  O  O8  1  0.48389700  0.58046600  0.19550700  1
  O  O9  1  0.03018900  0.80775200  0.44315900  1
  O  O10  1  0.50389700  0.06320600  0.69249000  1
  O  O11  1  0.03141700  0.30922100  0.94318100  1
  O  O12  1  0.00740900  0.02123300  0.19409200  1
  O  O13  1  0.49630900  0.30589600  0.44174400  1
  O  O14  1  0.00396100  0.56379500  0.69262600  1
  O  O15  1  0.52352800  0.80565700  0.94277500  1
loop_
_geom_bond_atom_site_label_1
_geom_bond_atom_site_label_2
_geom_bond_distance
_geom_bond_site_symmetry_2
Li0 O8 2.097675 1_555
Li0 O12 2.200108 1_555
Li0 O0 2.208659 1_555
Li0 O4 2.223119 1_455
Li0 O0 2.227874 1_455
Li0 O8 2.259729 1_455
Li1 O5 1.997418 1_555
Li1 O1 2.031546 1_455
Li1 O1 2.052408 1_555
Li1 O13 2.185142 1_555
Li1 O9 2.236300 1_555
Li1 O9 2.250314 1_655
Li2 O14 2.078018 1_555
Li2 O2 2.107814 1_455
Li2 O10 2.130262 1_565
Li2 O6 2.141862 1_465
Li2 O10 2.197272 1_465
Li2 O2 2.202443 1_555
Li3 O7 2.067792 1_555
Li3 O3 2.115767 1_445
Li3 O11 2.154193 1_555
Li3 O15 2.157709 1_545
Li3 O3 2.189357 1_545
Li3 O11 2.208461 1_655
Li4 O8 1.975010 1_555
Li4 O12 2.012727 1_665
Li4 O12 2.040064 1_565
Li4 O0 2.225508 1_565
Li4 O4 2.271994 1_555
Li4 O4 2.299767 1_455
Li5 O5 2.101097 1_545
Li5 O1 2.166921 1_555
Li5 O13 2.177066 1_655
Li5 O9 2.255619 1_645
Li5 O13 2.258060 1_555
Li5 O5 2.263495 1_645
Li6 O10 2.103996 1_555
Li6 O2 2.110289 1_555
Li6 O6 2.131339 1_555
Li6 O14 2.132817 1_655
Li6 O6 2.171611 1_455
Li6 O14 2.196541 1_555
Li7 O3 2.097946 1_455
Li7 O11 2.119069 1_555
Li7 O7 2.129444 1_455
Li7 O15 2.157401 1_455
Li7 O15 2.169920 1_555
Li7 O7 2.195828 1_555
Li8 O8 2.019542 1_555
Li8 O5 2.024931 1_545
Li8 O12 2.085466 1_555
Li8 O1 2.086581 1_555
Li8 O1 2.196258 1_455
Li8 O12 2.201752 1_655
Mn0 O4 1.952705 1_545
Mn0 O11 1.962014 1_654
Mn0 O15 1.987905 1_544
Mn0 O0 1.993155 1_655
Mn0 O0 2.163984 1_555
Mn0 O15 2.174718 1_644
Mn1 O13 1.958912 1_565
Mn1 O2 1.959240 1_555
Mn1 O9 1.965068 1_555
Mn1 O6 1.983912 1_565
Mn1 O9 2.169796 1_655
Mn1 O6 2.197660 1_465
Co0 O9 1.942559 1_555
Co0 O6 1.965113 1_455
Co0 O13 2.047593 1_455
Co0 O2 2.054355 1_555
Co0 O13 2.107069 1_555
Co0 O2 2.125427 1_455
Co1 O7 1.982422 1_555
Co1 O10 1.982828 1_565
Co1 O14 2.013695 1_555
Co1 O3 2.015403 1_555
Co1 O14 2.108587 1_655
Co1 O3 2.113269 1_455
Co2 O4 1.931234 1_555
Co2 O0 1.943870 1_555
Co2 O15 1.948736 1_554
Co2 O11 1.955449 1_554
Co2 O4 2.139803 1_455
Co2 O11 2.181694 1_654
Co3 O1 1.786612 1_555
Co3 O12 1.791820 1_665
Co3 O5 1.987846 1_655
Co3 O8 1.993939 1_555
Co3 O5 1.994774 1_555
Co3 O8 1.998780 1_655
Co4 O14 1.977495 1_655
Co4 O3 1.988619 1_545
Co4 O10 2.009216 1_555
Co4 O7 2.019591 1_655
Co4 O10 2.107524 1_655
Co4 O7 2.110251 1_555
