# generated using pymatgen
data_Bi2S2O9
_symmetry_space_group_name_H-M   'P 1'
_cell_length_a   16.83360951
_cell_length_b   16.83360951
_cell_length_c   23.32148984
_cell_angle_alpha   60.65511062
_cell_angle_beta   60.65511062
_cell_angle_gamma   23.57943186
_symmetry_Int_Tables_number   1
_chemical_formula_structural   Bi2S2O9
_chemical_formula_sum   'Bi24 S24 O108'
_cell_volume   2288.45056146
_cell_formula_units_Z   12
loop_
 _symmetry_equiv_pos_site_id
 _symmetry_equiv_pos_as_xyz
  1  'x, y, z'
loop_
 _atom_site_type_symbol
 _atom_site_label
 _atom_site_symmetry_multiplicity
 _atom_site_fract_x
 _atom_site_fract_y
 _atom_site_fract_z
 _atom_site_occupancy
  Bi  Bi0  1  0.90983700  0.79686800  0.20491300  1
  Bi  Bi1  1  0.20313200  0.09016300  0.29508700  1
  Bi  Bi2  1  0.09016300  0.20313200  0.79508700  1
  Bi  Bi3  1  0.79686800  0.90983700  0.70491300  1
  Bi  Bi4  1  0.90349300  0.88854800  0.01709900  1
  Bi  Bi5  1  0.11145200  0.09650700  0.48290100  1
  Bi  Bi6  1  0.09650700  0.11145200  0.98290100  1
  Bi  Bi7  1  0.88854800  0.90349300  0.51709900  1
  Bi  Bi8  1  0.83529000  0.71119900  0.12735600  1
  Bi  Bi9  1  0.28880100  0.16471000  0.37264400  1
  Bi  Bi10  1  0.16471000  0.28880100  0.87264400  1
  Bi  Bi11  1  0.71119900  0.83529000  0.62735600  1
  Bi  Bi12  1  0.77631700  0.85171800  0.94168500  1
  Bi  Bi13  1  0.14828200  0.22368300  0.55831500  1
  Bi  Bi14  1  0.22368300  0.14828200  0.05831500  1
  Bi  Bi15  1  0.85171800  0.77631700  0.44168500  1
  Bi  Bi16  1  0.48416700  0.46688400  0.12221700  1
  Bi  Bi17  1  0.53311600  0.51583300  0.37778300  1
  Bi  Bi18  1  0.51583300  0.53311600  0.87778300  1
  Bi  Bi19  1  0.46688400  0.48416700  0.62221700  1
  Bi  Bi20  1  0.59748700  0.52395600  0.19230000  1
  Bi  Bi21  1  0.47604400  0.40251300  0.30770000  1
  Bi  Bi22  1  0.40251300  0.47604400  0.80770000  1
  Bi  Bi23  1  0.52395600  0.59748700  0.69230000  1
  S  S0  1  0.39417300  0.32090500  0.22527800  1
  S  S1  1  0.67909500  0.60582700  0.27472200  1
  S  S2  1  0.60582700  0.67909500  0.77472200  1
  S  S3  1  0.32090500  0.39417300  0.72527800  1
  S  S4  1  0.41399600  0.41871700  0.99616600  1
  S  S5  1  0.58128300  0.58600400  0.50383400  1
  S  S6  1  0.58600400  0.58128300  0.00383400  1
  S  S7  1  0.41871700  0.41399600  0.49616600  1
  S  S8  1  0.30067600  0.19987900  0.17574600  1
  S  S9  1  0.80012100  0.69932400  0.32425400  1
  S  S10  1  0.69932400  0.80012100  0.82425400  1
  S  S11  1  0.19987900  0.30067600  0.67574600  1
  S  S12  1  0.27079500  0.33175400  0.95855900  1
  S  S13  1  0.66824600  0.72920500  0.54144100  1
  S  S14  1  0.72920500  0.66824600  0.04144100  1
  S  S15  1  0.33175400  0.27079500  0.45855900  1
  S  S16  1  0.01230600  0.93538900  0.10331500  1
  S  S17  1  0.06461100  0.98769400  0.39668500  1
  S  S18  1  0.98769400  0.06461100  0.89668500  1
  S  S19  1  0.93538900  0.01230600  0.60331500  1
  S  S20  1  0.12546700  0.03480600  0.17536100  1
  S  S21  1  0.96519400  0.87453300  0.32463900  1
  S  S22  1  0.87453300  0.96519400  0.82463900  1
  S  S23  1  0.03480600  0.12546700  0.67536100  1
  O  O0  1  0.52944700  0.45213500  0.20238500  1
  O  O1  1  0.54786500  0.47055300  0.29761500  1
  O  O2  1  0.47055300  0.54786500  0.79761500  1
  O  O3  1  0.45213500  0.52944700  0.70238500  1
  O  O4  1  0.88214400  0.80244300  0.12115800  1
  O  O5  1  0.19755700  0.11785600  0.37884200  1
  O  O6  1  0.11785600  0.19755700  0.87884200  1
  O  O7  1  0.80244300  0.88214400  0.62115800  1
  O  O8  1  0.82921300  0.82441000  0.02355200  1
  O  O9  1  0.17559000  0.17078700  0.47644800  1
  O  O10  1  0.17078700  0.17559000  0.97644800  1
  O  O11  1  0.82441000  0.82921300  0.52355200  1
  O  O12  1  0.26631100  0.47748800  0.16939100  1
  O  O13  1  0.52251200  0.73368900  0.33060900  1
  O  O14  1  0.73368900  0.52251200  0.83060900  1
  O  O15  1  0.47748800  0.26631100  0.66939100  1
  O  O16  1  0.55440800  0.12213600  0.21220700  1
  O  O17  1  0.87786400  0.44559200  0.28779300  1
  O  O18  1  0.44559200  0.87786400  0.78779300  1
  O  O19  1  0.12213600  0.55440800  0.71220700  1
  O  O20  1  0.27126900  0.37618800  0.28838500  1
  O  O21  1  0.62381200  0.72873100  0.21161500  1
  O  O22  1  0.72873100  0.62381200  0.71161500  1
  O  O23  1  0.37618800  0.27126900  0.78838500  1
  O  O24  1  0.49418900  0.31173300  0.22444400  1
  O  O25  1  0.68826700  0.50581100  0.27555600  1
  O  O26  1  0.50581100  0.68826700  0.77555600  1
  O  O27  1  0.31173300  0.49418900  0.72444400  1
  O  O28  1  0.22254800  0.54405900  0.00444700  1
  O  O29  1  0.45594100  0.77745200  0.49555300  1
  O  O30  1  0.77745200  0.45594100  0.99555300  1
  O  O31  1  0.54405900  0.22254800  0.50444700  1
  O  O32  1  0.38755200  0.51379500  0.01561900  1
  O  O33  1  0.48620500  0.61244800  0.48438100  1
  O  O34  1  0.61244800  0.48620500  0.98438100  1
  O  O35  1  0.51379500  0.38755200  0.51561900  1
  O  O36  1  0.48980700  0.39906500  0.92154400  1
  O  O37  1  0.60093500  0.51019300  0.57845600  1
  O  O38  1  0.51019300  0.60093500  0.07845600  1
  O  O39  1  0.39906500  0.48980700  0.42154400  1
  O  O40  1  0.55895500  0.21845300  0.03272300  1
  O  O41  1  0.78154700  0.44104500  0.46727700  1
  O  O42  1  0.44104500  0.78154700  0.96727700  1
  O  O43  1  0.21845300  0.55895500  0.53272300  1
  O  O44  1  0.20992500  0.21209100  0.16462500  1
  O  O45  1  0.78790900  0.79007500  0.33537500  1
  O  O46  1  0.79007500  0.78790900  0.83537500  1
  O  O47  1  0.21209100  0.20992500  0.66462500  1
  O  O48  1  0.31171500  0.14269800  0.25093300  1
  O  O49  1  0.85730200  0.68828500  0.24906700  1
  O  O50  1  0.68828500  0.85730200  0.74906700  1
  O  O51  1  0.14269800  0.31171500  0.75093300  1
  O  O52  1  0.50573700  0.04388000  0.14087100  1
  O  O53  1  0.95612000  0.49426300  0.35912900  1
  O  O54  1  0.49426300  0.95612000  0.85912900  1
  O  O55  1  0.04388000  0.50573700  0.64087100  1
  O  O56  1  0.17878800  0.39150300  0.15599200  1
  O  O57  1  0.60849700  0.82121200  0.34400800  1
  O  O58  1  0.82121200  0.60849700  0.84400800  1
  O  O59  1  0.39150300  0.17878800  0.65599200  1
  O  O60  1  0.46489500  0.20746000  0.94472600  1
  O  O61  1  0.79254000  0.53510500  0.55527400  1
  O  O62  1  0.53510500  0.79254000  0.05527400  1
  O  O63  1  0.20746000  0.46489500  0.44472600  1
  O  O64  1  0.32265600  0.20342200  0.94788600  1
  O  O65  1  0.79657800  0.67734400  0.55211400  1
  O  O66  1  0.67734400  0.79657800  0.05211400  1
  O  O67  1  0.20342200  0.32265600  0.44788600  1
  O  O68  1  0.17447600  0.38127800  0.02691500  1
  O  O69  1  0.61872200  0.82552400  0.47308500  1
  O  O70  1  0.82552400  0.61872200  0.97308500  1
  O  O71  1  0.38127800  0.17447600  0.52691500  1
  O  O72  1  0.13585100  0.51666500  0.90985900  1
  O  O73  1  0.48333500  0.86414900  0.59014100  1
  O  O74  1  0.86414900  0.48333500  0.09014100  1
  O  O75  1  0.51666500  0.13585100  0.40985900  1
  O  O76  1  0.13692700  0.77959700  0.16083500  1
  O  O77  1  0.22040300  0.86307200  0.33916500  1
  O  O78  1  0.86307200  0.22040300  0.83916500  1
  O  O79  1  0.77959700  0.13692800  0.66083500  1
  O  O80  1  0.14920200  0.86367900  0.04243400  1
  O  O81  1  0.13632100  0.85079800  0.45756600  1
  O  O82  1  0.85079800  0.13632100  0.95756600  1
  O  O83  1  0.86367900  0.14920200  0.54243400  1
  O  O84  1  0.90433700  0.95441700  0.10397100  1
  O  O85  1  0.04558300  0.09566300  0.39602900  1
  O  O86  1  0.09566300  0.04558300  0.89602900  1
  O  O87  1  0.95441700  0.90433700  0.60397100  1
  O  O88  1  0.85818700  0.13369000  0.11317500  1
  O  O89  1  0.86631000  0.14181300  0.38682500  1
  O  O90  1  0.14181300  0.86631000  0.88682500  1
  O  O91  1  0.13369000  0.85818700  0.61317500  1
  O  O92  1  0.10255000  0.10751900  0.10107800  1
  O  O93  1  0.89248100  0.89745000  0.39892200  1
  O  O94  1  0.89745000  0.89248100  0.89892200  1
  O  O95  1  0.10751900  0.10255000  0.60107800  1
  O  O96  1  0.25192400  0.84092300  0.18909400  1
  O  O97  1  0.15907700  0.74807600  0.31090600  1
  O  O98  1  0.74807600  0.15907700  0.81090600  1
  O  O99  1  0.84092300  0.25192400  0.68909400  1
  O  O100  1  0.92612300  0.18065400  0.21303000  1
  O  O101  1  0.81934600  0.07387700  0.28697000  1
  O  O102  1  0.07387700  0.81934600  0.78697000  1
  O  O103  1  0.18065400  0.92612300  0.71303000  1
  O  O104  1  0.21903600  0.01645100  0.18913700  1
  O  O105  1  0.98354900  0.78096400  0.31086300  1
  O  O106  1  0.78096400  0.98354900  0.81086300  1
  O  O107  1  0.01645100  0.21903600  0.68913700  1
loop_
_geom_bond_atom_site_label_1
_geom_bond_atom_site_label_2
_geom_bond_distance
_geom_bond_site_symmetry_2
Bi0 O4 2.161964 1_555
Bi0 O49 2.325744 1_555
Bi0 O16 2.381728 1_565
Bi0 O12 2.440597 1_655
Bi0 O84 2.495668 1_555
Bi0 O45 2.729735 1_555
Bi1 O5 2.161964 1_555
Bi1 O48 2.325744 1_555
Bi1 O17 2.381728 1_455
Bi1 O13 2.440597 1_545
Bi1 O85 2.495668 1_555
Bi1 O44 2.729735 1_555
Bi2 O6 2.161964 1_555
Bi2 O51 2.325744 1_555
Bi2 O18 2.381728 1_545
Bi2 O14 2.440597 1_455
Bi2 O86 2.495668 1_555
Bi2 O47 2.729735 1_555
Bi3 O7 2.161964 1_555
Bi3 O50 2.325744 1_555
Bi3 O19 2.381728 1_655
Bi3 O15 2.440597 1_565
Bi3 O87 2.495668 1_555
Bi3 O46 2.729735 1_555
Bi4 O4 2.184453 1_555
Bi4 O8 2.209698 1_555
Bi4 O40 2.341795 1_565
Bi4 O28 2.365395 1_655
Bi5 O5 2.184453 1_555
Bi5 O9 2.209698 1_555
Bi5 O41 2.341795 1_455
Bi5 O29 2.365395 1_545
Bi6 O6 2.184453 1_555
Bi6 O10 2.209698 1_555
Bi6 O42 2.341795 1_545
Bi6 O30 2.365395 1_455
Bi7 O7 2.184453 1_555
Bi7 O11 2.209698 1_555
Bi7 O43 2.341795 1_655
Bi7 O31 2.365395 1_565
Bi8 O8 2.205994 1_555
Bi8 O4 2.212108 1_555
Bi8 O52 2.303536 1_565
Bi8 O56 2.462756 1_655
Bi8 O66 2.703786 1_555
Bi8 O49 2.835284 1_555
Bi8 O21 2.899622 1_555
Bi9 O9 2.205994 1_555
Bi9 O5 2.212108 1_555
Bi9 O53 2.303536 1_455
Bi9 O57 2.462756 1_545
Bi9 O67 2.703786 1_555
Bi9 O48 2.835284 1_555
Bi9 O20 2.899622 1_555
Bi10 O10 2.205994 1_555
Bi10 O6 2.212108 1_555
Bi10 O54 2.303536 1_545
Bi10 O58 2.462756 1_455
Bi10 O64 2.703786 1_555
Bi10 O51 2.835284 1_555
Bi10 O23 2.899622 1_555
Bi11 O11 2.205994 1_555
Bi11 O7 2.212108 1_555
Bi11 O55 2.303536 1_655
Bi11 O59 2.462756 1_565
Bi11 O65 2.703786 1_555
Bi11 O50 2.835284 1_555
Bi11 O22 2.899622 1_555
Bi12 O8 2.169151 1_556
Bi12 O94 2.350373 1_555
Bi12 O60 2.419878 1_565
Bi12 O72 2.474096 1_655
Bi12 O66 2.560486 1_556
Bi13 O9 2.169151 1_555
Bi13 O95 2.350373 1_555
Bi13 O61 2.419878 1_455
Bi13 O73 2.474096 1_545
Bi13 O67 2.560486 1_555
Bi14 O10 2.169151 1_554
Bi14 O92 2.350373 1_555
Bi14 O62 2.419878 1_545
Bi14 O74 2.474096 1_455
Bi14 O64 2.560486 1_554
Bi15 O11 2.169151 1_555
Bi15 O93 2.350373 1_555
Bi15 O63 2.419878 1_655
Bi15 O75 2.474096 1_565
Bi15 O65 2.560486 1_555
Bi16 O0 2.175566 1_555
Bi16 O38 2.332869 1_555
Bi16 O76 2.402939 1_555
Bi16 O24 2.453000 1_555
Bi16 O88 2.504340 1_555
Bi17 O1 2.175566 1_555
Bi17 O39 2.332869 1_555
Bi17 O77 2.402934 1_555
Bi17 O25 2.453000 1_555
Bi17 O89 2.504340 1_555
Bi18 O2 2.175566 1_555
Bi18 O36 2.332869 1_555
Bi18 O78 2.402934 1_555
Bi18 O26 2.453000 1_555
Bi18 O90 2.504340 1_555
Bi19 O3 2.175566 1_555
Bi19 O37 2.332869 1_555
Bi19 O79 2.402934 1_555
Bi19 O27 2.453000 1_555
Bi19 O91 2.504340 1_555
Bi20 O1 2.177117 1_555
Bi20 O0 2.196447 1_555
Bi20 O96 2.335714 1_555
Bi20 O100 2.348684 1_555
Bi20 O25 2.769457 1_555
Bi20 O38 2.801619 1_555
Bi21 O0 2.177117 1_555
Bi21 O1 2.196447 1_555
Bi21 O97 2.335714 1_555
Bi21 O101 2.348684 1_555
Bi21 O24 2.769457 1_555
Bi21 O39 2.801619 1_555
Bi22 O3 2.177117 1_555
Bi22 O2 2.196447 1_555
Bi22 O98 2.335714 1_555
Bi22 O102 2.348684 1_555
Bi22 O27 2.769457 1_555
Bi22 O36 2.801619 1_555
Bi23 O2 2.177117 1_555
Bi23 O3 2.196447 1_555
Bi23 O99 2.335714 1_555
Bi23 O103 2.348684 1_555
Bi23 O26 2.769457 1_555
Bi23 O37 2.801619 1_555
O12 S0 1.504084 1_555
O13 S1 1.504084 1_555
O14 S2 1.504084 1_555
O15 S3 1.504084 1_555
O16 S0 1.488155 1_555
O17 S1 1.488155 1_555
O18 S2 1.488155 1_555
O19 S3 1.488155 1_555
O20 S0 1.463312 1_555
O21 S1 1.463312 1_555
O22 S2 1.463312 1_555
O23 S3 1.463312 1_555
O24 S0 1.534010 1_555
O25 S1 1.534010 1_555
O26 S2 1.534010 1_555
O27 S3 1.534010 1_555
O28 S4 1.483402 1_554
O29 S5 1.483402 1_555
O30 S6 1.483402 1_556
O31 S7 1.483402 1_555
O32 S4 1.474240 1_554
O33 S5 1.474240 1_555
O34 S6 1.474240 1_556
O35 S7 1.474240 1_555
O36 S4 1.542827 1_555
O37 S5 1.542827 1_555
O38 S6 1.542827 1_555
O39 S7 1.542827 1_555
O40 S4 1.479636 1_554
O41 S5 1.479636 1_555
O42 S6 1.479636 1_556
O43 S7 1.479636 1_555
O44 S8 1.484495 1_555
O45 S9 1.484495 1_555
O46 S10 1.484495 1_555
O47 S11 1.484495 1_555
O48 S8 1.540432 1_555
O49 S9 1.540432 1_555
O50 S10 1.540432 1_555
O51 S11 1.540432 1_555
O52 S8 1.482883 1_555
O53 S9 1.482883 1_555
O54 S10 1.482883 1_555
O55 S11 1.482883 1_555
O56 S8 1.471548 1_555
O57 S9 1.471548 1_555
O58 S10 1.471548 1_555
O59 S11 1.471548 1_555
O60 S12 1.501647 1_555
O61 S13 1.501647 1_555
O62 S14 1.501647 1_555
O63 S15 1.501647 1_555
O64 S12 1.532330 1_555
O65 S13 1.532330 1_555
O66 S14 1.532330 1_555
O67 S15 1.532330 1_555
O68 S12 1.468596 1_554
O69 S13 1.468596 1_555
O70 S14 1.468596 1_556
O71 S15 1.468596 1_555
O72 S12 1.497278 1_555
O73 S13 1.497278 1_555
O74 S14 1.497278 1_555
O75 S15 1.497278 1_555
O76 S16 1.517770 1_555
O77 S17 1.517773 1_555
O78 S18 1.517773 1_555
O79 S19 1.517773 1_555
O80 S16 1.468845 1_555
O81 S17 1.468845 1_555
O82 S18 1.468845 1_555
O83 S19 1.468845 1_555
O84 S16 1.522038 1_655
O85 S17 1.522038 1_545
O86 S18 1.522038 1_455
O87 S19 1.522038 1_565
O88 S16 1.489907 1_645
O89 S17 1.489907 1_645
O90 S18 1.489907 1_465
O91 S19 1.489907 1_465
O92 S20 1.536023 1_555
O93 S21 1.536023 1_555
O94 S22 1.536023 1_555
O95 S23 1.536023 1_555
O96 S20 1.481460 1_565
O97 S21 1.481460 1_455
O98 S22 1.481460 1_545
O99 S23 1.481460 1_655
O100 S20 1.477523 1_655
O101 S21 1.477523 1_545
O102 S22 1.477523 1_455
O103 S23 1.477523 1_565
O104 S20 1.478597 1_555
O105 S21 1.478597 1_555
O106 S22 1.478597 1_555
O107 S23 1.478597 1_555
