# generated using pymatgen
data_AgTe3
_symmetry_space_group_name_H-M   'P 1'
_cell_length_a   6.27167400
_cell_length_b   6.27167400
_cell_length_c   25.36385600
_cell_angle_alpha   90.00000000
_cell_angle_beta   90.00000000
_cell_angle_gamma   90.00000000
_symmetry_Int_Tables_number   1
_chemical_formula_structural   AgTe3
_chemical_formula_sum   'Ag8 Te24'
_cell_volume   997.65924267
_cell_formula_units_Z   8
loop_
 _symmetry_equiv_pos_site_id
 _symmetry_equiv_pos_as_xyz
  1  'x, y, z'
loop_
 _atom_site_type_symbol
 _atom_site_label
 _atom_site_symmetry_multiplicity
 _atom_site_fract_x
 _atom_site_fract_y
 _atom_site_fract_z
 _atom_site_occupancy
  Ag  Ag0_0  1  0.00000000  0.00000000  0.00000000  1
  Ag  Ag0_1  1  0.00000000  0.00000000  0.50000000  1
  Ag  Ag0_2  1  0.00000000  0.50000000  0.00000000  1
  Ag  Ag0_3  1  0.00000000  0.50000000  0.50000000  1
  Ag  Ag0_4  1  0.50000000  0.00000000  0.00000000  1
  Ag  Ag0_5  1  0.50000000  0.00000000  0.50000000  1
  Ag  Ag0_6  1  0.50000000  0.50000000  0.00000000  1
  Ag  Ag0_7  1  0.50000000  0.50000000  0.50000000  1
  Te  Te0_0  1  0.00000000  0.00000000  0.10681700  1
  Te  Te0_1  1  0.00000000  0.00000000  0.60681700  1
  Te  Te0_2  1  0.00000000  0.50000000  0.10681700  1
  Te  Te0_3  1  0.00000000  0.50000000  0.60681700  1
  Te  Te0_4  1  0.50000000  0.00000000  0.10681700  1
  Te  Te0_5  1  0.50000000  0.00000000  0.60681700  1
  Te  Te0_6  1  0.50000000  0.50000000  0.10681700  1
  Te  Te0_7  1  0.50000000  0.50000000  0.60681700  1
  Te  Te1_0  1  0.00000000  0.00000000  0.25000000  1
  Te  Te1_1  1  0.00000000  0.00000000  0.75000000  1
  Te  Te1_2  1  0.00000000  0.50000000  0.25000000  1
  Te  Te1_3  1  0.00000000  0.50000000  0.75000000  1
  Te  Te1_4  1  0.50000000  0.00000000  0.25000000  1
  Te  Te1_5  1  0.50000000  0.00000000  0.75000000  1
  Te  Te1_6  1  0.50000000  0.50000000  0.25000000  1
  Te  Te1_7  1  0.50000000  0.50000000  0.75000000  1
  Te  Te2_0  1  0.00000000  0.00000000  0.39318300  1
  Te  Te2_1  1  0.00000000  0.00000000  0.89318300  1
  Te  Te2_2  1  0.00000000  0.50000000  0.39318300  1
  Te  Te2_3  1  0.00000000  0.50000000  0.89318300  1
  Te  Te2_4  1  0.50000000  0.00000000  0.39318300  1
  Te  Te2_5  1  0.50000000  0.00000000  0.89318300  1
  Te  Te2_6  1  0.50000000  0.50000000  0.39318300  1
  Te  Te2_7  1  0.50000000  0.50000000  0.89318300  1
loop_
_geom_bond_atom_site_label_1
_geom_bond_atom_site_label_2
_geom_bond_distance
_geom_bond_site_symmetry_2
Ag0_0 Te0_0 2.709291 1_555
Ag0_0 Te2_1 2.709291 1_554
Ag0_0 Ag0_4 3.135837 1_555
Ag0_0 Ag0_4 3.135837 1_455
Ag0_0 Ag0_2 3.135837 1_545
Ag0_0 Ag0_2 3.135837 1_555
Ag0_1 Te2_0 2.709291 1_555
Ag0_1 Te0_1 2.709291 1_555
Ag0_1 Ag0_5 3.135837 1_455
Ag0_1 Ag0_3 3.135837 1_545
Ag0_1 Ag0_3 3.135837 1_555
Ag0_1 Ag0_5 3.135837 1_555
Ag0_2 Te0_2 2.709291 1_555
Ag0_2 Te2_3 2.709291 1_554
Ag0_2 Ag0_6 3.135837 1_555
Ag0_2 Ag0_6 3.135837 1_455
Ag0_3 Te2_2 2.709291 1_555
Ag0_3 Te0_3 2.709291 1_555
Ag0_3 Ag0_7 3.135837 1_555
Ag0_3 Ag0_7 3.135837 1_455
Ag0_4 Te0_4 2.709291 1_555
Ag0_4 Te2_5 2.709291 1_554
Ag0_4 Ag0_6 3.135837 1_555
Ag0_4 Ag0_6 3.135837 1_545
Ag0_5 Te2_4 2.709291 1_555
Ag0_5 Te0_5 2.709291 1_555
Ag0_5 Ag0_7 3.135837 1_555
Ag0_5 Ag0_7 3.135837 1_545
Ag0_6 Te0_6 2.709291 1_555
Ag0_6 Te2_7 2.709291 1_554
Ag0_7 Te2_6 2.709291 1_555
Ag0_7 Te0_7 2.709291 1_555
Te0_0 Te0_2 3.135837 1_555
Te0_0 Te0_4 3.135837 1_455
Te0_0 Te0_2 3.135837 1_545
Te0_0 Te0_4 3.135837 1_555
Te0_1 Te0_5 3.135837 1_455
Te0_1 Te0_3 3.135837 1_555
Te0_1 Te0_3 3.135837 1_545
Te0_1 Te0_5 3.135837 1_555
Te0_2 Te0_6 3.135837 1_455
Te0_2 Te0_6 3.135837 1_555
Te0_3 Te0_7 3.135837 1_455
Te0_3 Te0_7 3.135837 1_555
Te0_4 Te0_6 3.135837 1_545
Te0_4 Te0_6 3.135837 1_555
Te0_5 Te0_7 3.135837 1_545
Te0_5 Te0_7 3.135837 1_555
Te1_0 Te1_4 3.135837 1_455
Te1_0 Te1_2 3.135837 1_545
Te1_0 Te1_2 3.135837 1_555
Te1_0 Te1_4 3.135837 1_555
Te1_1 Te1_5 3.135837 1_555
Te1_1 Te1_3 3.135837 1_555
Te1_1 Te1_3 3.135837 1_545
Te1_1 Te1_5 3.135837 1_455
Te1_2 Te1_6 3.135837 1_555
Te1_2 Te1_6 3.135837 1_455
Te1_3 Te1_7 3.135837 1_555
Te1_3 Te1_7 3.135837 1_455
Te1_4 Te1_6 3.135837 1_555
Te1_4 Te1_6 3.135837 1_545
Te1_5 Te1_7 3.135837 1_545
Te1_5 Te1_7 3.135837 1_555
Te2_0 Te2_2 3.135837 1_555
Te2_0 Te2_2 3.135837 1_545
Te2_0 Te2_4 3.135837 1_455
Te2_0 Te2_4 3.135837 1_555
Te2_1 Te2_5 3.135837 1_555
Te2_1 Te2_5 3.135837 1_455
Te2_1 Te2_3 3.135837 1_545
Te2_1 Te2_3 3.135837 1_555
Te2_2 Te2_6 3.135837 1_555
Te2_2 Te2_6 3.135837 1_455
Te2_3 Te2_7 3.135837 1_455
Te2_3 Te2_7 3.135837 1_555
Te2_4 Te2_6 3.135837 1_555
Te2_4 Te2_6 3.135837 1_545
Te2_5 Te2_7 3.135837 1_545
Te2_5 Te2_7 3.135837 1_555
