# generated using pymatgen
data_YMgWS4
_symmetry_space_group_name_H-M   'P 1'
_cell_length_a   7.67358548
_cell_length_b   7.61013769
_cell_length_c   7.61021312
_cell_angle_alpha   60.16082721
_cell_angle_beta   59.72313073
_cell_angle_gamma   59.72436944
_symmetry_Int_Tables_number   1
_chemical_formula_structural   YMgWS4
_chemical_formula_sum   'Y2 Mg2 W2 S8'
_cell_volume   313.30491196
_cell_formula_units_Z   2
loop_
 _symmetry_equiv_pos_site_id
 _symmetry_equiv_pos_as_xyz
  1  'x, y, z'
loop_
 _atom_site_type_symbol
 _atom_site_label
 _atom_site_symmetry_multiplicity
 _atom_site_fract_x
 _atom_site_fract_y
 _atom_site_fract_z
 _atom_site_occupancy
  Y  Y0  1  0.50000169  0.50001819  0.49997690  1
  Y  Y1  1  0.99999757  0.49998845  0.50001639  1
  Mg  Mg0  1  0.87389570  0.87610728  0.87610271  1
  Mg  Mg1  1  0.12610846  0.12389509  0.12389355  1
  W  W0  1  0.50000000  0.49999347  0.00000261  1
  W  W1  1  0.49999948  0.99999708  0.50000521  1
  S  S0  1  0.71472874  0.75450232  0.75449588  1
  S  S1  1  0.26683906  0.23424142  0.73208818  1
  S  S2  1  0.26683599  0.73209132  0.23423283  1
  S  S3  1  0.72373256  0.24550016  0.24549442  1
  S  S4  1  0.73314716  0.26791491  0.76575527  1
  S  S5  1  0.27627025  0.75449053  0.75450696  1
  S  S6  1  0.28526776  0.24549258  0.24551605  1
  S  S7  1  0.73317957  0.76576222  0.26791406  1
loop_
_geom_bond_atom_site_label_1
_geom_bond_atom_site_label_2
_geom_bond_distance
_geom_bond_site_symmetry_2
Mg0 S4 2.436787 1_565
Mg0 S7 2.436805 1_556
Mg0 S5 2.517186 1_655
Mg0 S0 2.517225 1_555
Mg1 S2 2.436765 1_545
Mg1 S1 2.436767 1_554
Mg1 S3 2.517198 1_455
Mg1 S6 2.517224 1_555
S0 W1 2.543529 1_555
S0 W0 2.543569 1_556
S0 Y1 2.734372 1_555
S1 W1 2.495821 1_545
S1 Y1 2.705297 1_455
S1 Y0 2.705371 1_555
S2 W0 2.495824 1_555
S2 Y0 2.705277 1_555
S2 Y1 2.705384 1_455
S3 W0 2.543552 1_555
S3 W1 2.543561 1_545
S3 Y0 2.734410 1_555
S4 W0 2.495813 1_556
S4 Y1 2.705288 1_555
S4 Y0 2.705352 1_555
S5 W1 2.543557 1_555
S5 W0 2.543559 1_556
S5 Y0 2.734421 1_555
S6 W1 2.543533 1_545
S6 W0 2.543545 1_555
S6 Y1 2.734387 1_455
S7 W1 2.495814 1_555
S7 Y0 2.705285 1_555
S7 Y1 2.705332 1_555
