# generated using pymatgen
data_K4RuC6(N3O)2
_symmetry_space_group_name_H-M   'P 1'
_cell_length_a   9.84832741
_cell_length_b   9.84832741
_cell_length_c   9.63506654
_cell_angle_alpha   89.92070425
_cell_angle_beta   89.92070425
_cell_angle_gamma   122.22783102
_symmetry_Int_Tables_number   1
_chemical_formula_structural   K4RuC6(N3O)2
_chemical_formula_sum   'K8 Ru2 C12 N12 O4'
_cell_volume   790.52296259
_cell_formula_units_Z   2
loop_
 _symmetry_equiv_pos_site_id
 _symmetry_equiv_pos_as_xyz
  1  'x, y, z'
loop_
 _atom_site_type_symbol
 _atom_site_label
 _atom_site_symmetry_multiplicity
 _atom_site_fract_x
 _atom_site_fract_y
 _atom_site_fract_z
 _atom_site_occupancy
  K  K0  1  0.95110800  0.68165000  0.15728000  1
  K  K1  1  0.31835000  0.04889200  0.34272000  1
  K  K2  1  0.04889200  0.31835000  0.84272000  1
  K  K3  1  0.68165000  0.95110800  0.65728000  1
  K  K4  1  0.74210400  0.45670400  0.55323400  1
  K  K5  1  0.54329600  0.25789600  0.94676600  1
  K  K6  1  0.25789600  0.54329600  0.44676600  1
  K  K7  1  0.45670400  0.74210400  0.05323400  1
  Ru  Ru0  1  0.17689900  0.82310100  0.75000000  1
  Ru  Ru1  1  0.82310100  0.17689900  0.25000000  1
  C  C0  1  0.11042200  0.75508300  0.54986300  1
  C  C1  1  0.24491700  0.88957800  0.95013700  1
  C  C2  1  0.88957800  0.24491700  0.45013700  1
  C  C3  1  0.75508300  0.11042200  0.04986300  1
  C  C4  1  0.97353400  0.62134300  0.81666100  1
  C  C5  1  0.37865700  0.02646600  0.68333900  1
  C  C6  1  0.02646600  0.37865700  0.18333900  1
  C  C7  1  0.62134300  0.97353400  0.31666100  1
  C  C8  1  0.06021800  0.93978200  0.75000000  1
  C  C9  1  0.93978200  0.06021800  0.25000000  1
  C  C10  1  0.29539500  0.70460500  0.75000000  1
  C  C11  1  0.70460500  0.29539500  0.25000000  1
  N  N0  1  0.07322200  0.71319100  0.43417300  1
  N  N1  1  0.28680900  0.92677800  0.06582700  1
  N  N2  1  0.92677800  0.28680900  0.56582700  1
  N  N3  1  0.71319100  0.07322200  0.93417300  1
  N  N4  1  0.85467500  0.50355200  0.85405800  1
  N  N5  1  0.49644800  0.14532500  0.64594200  1
  N  N6  1  0.14532500  0.49644800  0.14594200  1
  N  N7  1  0.50355200  0.85467500  0.35405800  1
  N  N8  1  0.99177300  0.00822700  0.75000000  1
  N  N9  1  0.00822700  0.99177300  0.25000000  1
  N  N10  1  0.36393600  0.63606400  0.75000000  1
  N  N11  1  0.63606400  0.36393600  0.25000000  1
  O  O0  1  0.74103000  0.74247700  0.50524800  1
  O  O1  1  0.25752300  0.25897000  0.99475200  1
  O  O2  1  0.25897000  0.25752300  0.49475200  1
  O  O3  1  0.74247700  0.74103000  0.00524800  1
loop_
_geom_bond_atom_site_label_1
_geom_bond_atom_site_label_2
_geom_bond_distance
_geom_bond_site_symmetry_2
K0 O3 2.827879 1_555
K0 N0 2.876303 1_655
K0 N9 2.935835 1_655
K0 N1 3.001338 1_655
K0 N11 3.137695 1_555
K0 N6 3.273837 1_655
K0 N4 3.280106 1_554
K1 O2 2.827879 1_555
K1 N1 2.876303 1_545
K1 N9 2.935835 1_545
K1 N0 3.001338 1_545
K1 N11 3.137695 1_555
K1 N7 3.273837 1_545
K1 N5 3.280106 1_555
K2 O1 2.827879 1_555
K2 N2 2.876303 1_455
K2 N8 2.935835 1_455
K2 N3 3.001338 1_455
K2 N10 3.137695 1_555
K2 N4 3.273837 1_455
K2 N6 3.280106 1_556
K3 O0 2.827879 1_555
K3 N3 2.876303 1_565
K3 N8 2.935835 1_565
K3 N2 3.001338 1_565
K3 N10 3.137695 1_555
K3 N5 3.273837 1_565
K3 N7 3.280106 1_555
K4 N5 2.851017 1_555
K4 O0 2.857063 1_555
K4 N4 3.051238 1_555
K4 N2 3.060677 1_555
K4 N11 3.075664 1_555
K4 N0 3.086505 1_655
K5 N4 2.851017 1_555
K5 O1 2.857063 1_555
K5 N5 3.051238 1_555
K5 N3 3.060677 1_555
K5 N11 3.075664 1_556
K5 N1 3.086505 1_546
K6 N7 2.851017 1_555
K6 O2 2.857063 1_555
K6 N6 3.051238 1_555
K6 N0 3.060677 1_555
K6 N10 3.075664 1_555
K6 N2 3.086505 1_455
K7 N6 2.851017 1_555
K7 O3 2.857063 1_555
K7 N7 3.051238 1_555
K7 N1 3.060677 1_555
K7 N10 3.075664 1_554
K7 N3 3.086505 1_564
C0 N0 1.178192 1_555
C0 Ru0 2.033501 1_555
C0 K1 3.194081 1_565
C1 N1 1.178192 1_556
C1 Ru0 2.033501 1_555
C1 K0 3.194081 1_456
C2 N2 1.178192 1_555
C2 Ru1 2.033501 1_555
C2 K3 3.194081 1_545
C3 N3 1.178192 1_554
C3 Ru1 2.033501 1_555
C3 K2 3.194081 1_654
C4 N4 1.181152 1_555
C4 Ru0 2.029848 1_655
C4 K0 3.363867 1_556
C4 K2 3.446500 1_655
C5 N5 1.181152 1_555
C5 Ru0 2.029848 1_545
C5 K1 3.363867 1_555
C5 K3 3.446500 1_545
C6 N6 1.181152 1_555
C6 Ru1 2.029848 1_455
C6 K2 3.363867 1_554
C6 K0 3.446500 1_455
C7 N7 1.181152 1_555
C7 Ru1 2.029848 1_565
C7 K3 3.363867 1_555
C7 K1 3.446500 1_565
C8 N8 1.180405 1_465
C8 Ru0 2.012284 1_555
C9 N9 1.180405 1_645
C9 Ru1 2.012284 1_555
C10 N10 1.182060 1_555
C10 Ru0 2.043586 1_555
C10 K2 3.361076 1_555
C10 K3 3.361076 1_555
C11 N11 1.182060 1_555
C11 Ru1 2.043586 1_555
C11 K1 3.361076 1_555
C11 K0 3.361076 1_555
