# generated using pymatgen
data_Ba4CaGd3(Co4O11)2
_symmetry_space_group_name_H-M   'P 1'
_cell_length_a   7.69655564
_cell_length_b   8.82074360
_cell_length_c   8.57345018
_cell_angle_alpha   101.29302386
_cell_angle_beta   116.67055854
_cell_angle_gamma   64.13349105
_symmetry_Int_Tables_number   1
_chemical_formula_structural   Ba4CaGd3(Co4O11)2
_chemical_formula_sum   'Ba4 Ca1 Gd3 Co8 O22'
_cell_volume   468.00844012
_cell_formula_units_Z   1
loop_
 _symmetry_equiv_pos_site_id
 _symmetry_equiv_pos_as_xyz
  1  'x, y, z'
loop_
 _atom_site_type_symbol
 _atom_site_label
 _atom_site_symmetry_multiplicity
 _atom_site_fract_x
 _atom_site_fract_y
 _atom_site_fract_z
 _atom_site_occupancy
  Ba  Ba0  1  0.62656975  0.25000563  0.00314514  1
  Ba  Ba1  1  0.12342462  0.25000563  0.99685486  1
  Ba  Ba2  1  0.87440730  0.75239092  0.00120552  1
  Ba  Ba3  1  0.37320178  0.75239092  0.99879448  1
  Ca  Ca0  1  0.86580079  0.26839843  0.50000000  1
  Gd  Gd0  1  0.36368091  0.27263819  0.50000000  1
  Gd  Gd1  1  0.63855971  0.72288058  0.50000000  1
  Gd  Gd2  1  0.13765638  0.72468725  0.50000000  1
  Co  Co0  1  0.87011948  0.00074329  0.74065175  1
  Co  Co1  1  0.36978898  0.00074329  0.74065175  1
  Co  Co2  1  0.62946773  0.00074329  0.25934825  1
  Co  Co3  1  0.12913723  0.00074329  0.25934825  1
  Co  Co4  1  0.62733290  0.49584828  0.74853569  1
  Co  Co5  1  0.12535451  0.49584828  0.74853569  1
  Co  Co6  1  0.37879721  0.49584828  0.25146431  1
  Co  Co7  1  0.87681882  0.49584828  0.25146431  1
  O  O0  1  0.36236622  0.50079653  0.72552897  1
  O  O1  1  0.85983921  0.50667272  0.72635114  1
  O  O2  1  0.13683725  0.50079653  0.27447103  1
  O  O3  1  0.63348807  0.50667272  0.27364886  1
  O  O4  1  0.73169054  0.23647840  0.71077848  1
  O  O5  1  0.24260954  0.23647840  0.71077848  1
  O  O6  1  0.97196394  0.76198592  0.70659918  1
  O  O7  1  0.47264933  0.76198592  0.70659918  1
  O  O8  1  0.76536476  0.76198592  0.29340082  1
  O  O9  1  0.26605014  0.76198592  0.29340082  1
  O  O10  1  0.52091206  0.23647840  0.28922152  1
  O  O11  1  0.03183106  0.23647840  0.28922152  1
  O  O12  1  0.59273338  0.99964800  0.68511475  1
  O  O13  1  0.09620112  0.99745599  0.68985822  1
  O  O14  1  0.40761863  0.99964800  0.31488525  1
  O  O15  1  0.90634290  0.99745599  0.31014178  1
  O  O16  1  0.74941523  0.50116955  0.00000000  1
  O  O17  1  0.24941523  0.50116955  0.00000000  1
  O  O18  1  0.48900227  0.50505525  0.50000000  1
  O  O19  1  0.00594248  0.50505525  0.50000000  1
  O  O20  1  0.49880429  0.00239143  0.00000000  1
  O  O21  1  0.99880429  0.00239143  0.00000000  1
loop_
_geom_bond_atom_site_label_1
_geom_bond_atom_site_label_2
_geom_bond_distance
_geom_bond_site_symmetry_2
Ba0 O20 2.750521 1_555
Ba0 O21 2.750522 1_555
Ba0 O17 2.770723 1_555
Ba0 O16 2.770723 1_555
Ba0 O3 2.906011 1_555
Ba0 O0 2.913052 1_554
Ba0 O5 2.927632 1_554
Ba0 O4 2.927632 1_554
Ba0 O10 2.946332 1_555
Ba0 O11 2.946332 1_655
Ba0 O15 3.090274 1_545
Ba0 O12 3.144062 1_544
Ba1 O21 2.750522 1_456
Ba1 O20 2.750522 1_556
Ba1 O17 2.770723 1_556
Ba1 O16 2.770723 1_456
Ba1 O1 2.906011 1_455
Ba1 O2 2.913052 1_556
Ba1 O10 2.927632 1_556
Ba1 O11 2.927632 1_556
Ba1 O5 2.946332 1_555
Ba1 O4 2.946332 1_455
Ba1 O13 3.090274 1_545
Ba1 O14 3.144062 1_546
Ba2 O20 2.763997 1_565
Ba2 O21 2.763997 1_565
Ba2 O16 2.770962 1_555
Ba2 O17 2.770962 1_655
Ba2 O1 2.870130 1_554
Ba2 O2 2.893203 1_655
Ba2 O9 2.954576 1_655
Ba2 O8 2.954576 1_555
Ba2 O7 2.965174 1_554
Ba2 O6 2.965174 1_554
Ba2 O15 3.063542 1_555
Ba2 O12 3.117008 1_554
Ba3 O21 2.763997 1_466
Ba3 O20 2.763997 1_566
Ba3 O17 2.770962 1_556
Ba3 O16 2.770962 1_556
Ba3 O3 2.870130 1_556
Ba3 O0 2.893203 1_555
Ba3 O6 2.954576 1_455
Ba3 O7 2.954576 1_555
Ba3 O8 2.965174 1_556
Ba3 O9 2.965174 1_556
Ba3 O13 3.063542 1_555
Ba3 O14 3.117008 1_556
Ca0 O11 2.556879 1_655
Ca0 O5 2.556879 1_655
Ca0 O10 2.556879 1_555
Ca0 O4 2.556879 1_555
Ca0 O3 2.565894 1_555
Ca0 O1 2.565894 1_555
Ca0 O15 2.596202 1_545
Ca0 O13 2.596202 1_645
Ca0 O19 2.735988 1_655
Ca0 O18 2.735988 1_555
Gd0 O10 2.496480 1_555
Gd0 O4 2.496480 1_555
Gd0 O11 2.496480 1_555
Gd0 O5 2.496480 1_555
Gd0 O2 2.502950 1_555
Gd0 O0 2.502950 1_555
Gd0 O14 2.589601 1_545
Gd0 O12 2.589601 1_545
Gd0 O18 2.618893 1_555
Gd0 O19 2.618893 1_555
Gd1 O1 2.439679 1_555
Gd1 O3 2.439679 1_555
Gd1 O7 2.508742 1_555
Gd1 O6 2.508742 1_555
Gd1 O8 2.508742 1_555
Gd1 O9 2.508742 1_555
Gd1 O14 2.614737 1_555
Gd1 O12 2.614737 1_555
Gd1 O19 2.635616 1_655
Gd1 O18 2.635616 1_555
Gd2 O2 2.478554 1_555
Gd2 O0 2.478554 1_555
Gd2 O9 2.511054 1_555
Gd2 O6 2.511054 1_455
Gd2 O7 2.511054 1_555
Gd2 O8 2.511054 1_455
Gd2 O18 2.548434 1_555
Gd2 O19 2.548434 1_555
Gd2 O13 2.608222 1_555
Gd2 O15 2.608222 1_455
Co0 O4 1.885477 1_555
Co0 O6 1.912899 1_545
Co0 O13 1.962022 1_645
Co0 O12 1.971882 1_545
Co0 O21 1.986976 1_556
Co1 O5 1.885477 1_555
Co1 O7 1.912899 1_545
Co1 O13 1.962022 1_545
Co1 O12 1.971882 1_545
Co1 O20 1.986976 1_556
Co2 O10 1.885477 1_555
Co2 O8 1.912899 1_545
Co2 O15 1.962022 1_545
Co2 O14 1.971882 1_545
Co2 O20 1.986976 1_555
Co3 O11 1.885477 1_555
Co3 O9 1.912899 1_545
Co3 O15 1.962022 1_445
Co3 O14 1.971882 1_545
Co3 O21 1.986976 1_455
Co4 O18 1.906887 1_555
Co4 O1 1.925964 1_555
Co4 O16 1.927010 1_556
Co4 O0 1.940175 1_555
Co4 O4 2.079440 1_555
Co4 O7 2.136639 1_555
Co5 O19 1.906887 1_555
Co5 O1 1.925964 1_455
Co5 O17 1.927010 1_556
Co5 O0 1.940175 1_555
Co5 O5 2.079440 1_555
Co5 O6 2.136639 1_455
Co6 O18 1.906887 1_555
Co6 O3 1.925964 1_555
Co6 O17 1.927010 1_555
Co6 O2 1.940175 1_555
Co6 O10 2.079440 1_555
Co6 O9 2.136639 1_555
Co7 O19 1.906887 1_655
Co7 O3 1.925964 1_555
Co7 O16 1.927010 1_555
Co7 O2 1.940175 1_655
Co7 O11 2.079440 1_655
Co7 O8 2.136639 1_555
