# generated using pymatgen
data_NaMg14AlO16
_symmetry_space_group_name_H-M   'P 1'
_cell_length_a   4.27307400
_cell_length_b   8.49639400
_cell_length_c   8.52406000
_cell_angle_alpha   90.00000000
_cell_angle_beta   90.00000000
_cell_angle_gamma   90.00000000
_symmetry_Int_Tables_number   1
_chemical_formula_structural   NaMg14AlO16
_chemical_formula_sum   'Na1 Mg14 Al1 O16'
_cell_volume   309.47213814
_cell_formula_units_Z   1
loop_
 _symmetry_equiv_pos_site_id
 _symmetry_equiv_pos_as_xyz
  1  'x, y, z'
loop_
 _atom_site_type_symbol
 _atom_site_label
 _atom_site_symmetry_multiplicity
 _atom_site_fract_x
 _atom_site_fract_y
 _atom_site_fract_z
 _atom_site_occupancy
  Na  Na0  1  0.00000000  0.50000000  0.00000000  1
  Mg  Mg0  1  0.00000000  0.00000000  0.50000000  1
  Mg  Mg1  1  0.00000000  0.50000000  0.50000000  1
  Mg  Mg2  1  0.50000000  0.74458700  0.00000000  1
  Mg  Mg3  1  0.50000000  0.25541300  0.00000000  1
  Mg  Mg4  1  0.50000000  0.74739200  0.50000000  1
  Mg  Mg5  1  0.50000000  0.25260800  0.50000000  1
  Mg  Mg6  1  0.50000000  0.00000000  0.74991300  1
  Mg  Mg7  1  0.50000000  0.50000000  0.75269600  1
  Mg  Mg8  1  0.50000000  0.00000000  0.25008700  1
  Mg  Mg9  1  0.50000000  0.50000000  0.24730400  1
  Mg  Mg10  1  0.00000000  0.74568400  0.75004600  1
  Mg  Mg11  1  0.00000000  0.25431600  0.75004600  1
  Mg  Mg12  1  0.00000000  0.74568400  0.24995400  1
  Mg  Mg13  1  0.00000000  0.25431600  0.24995400  1
  Al  Al0  1  0.00000000  0.00000000  0.00000000  1
  O  O0  1  0.00000000  0.00000000  0.76415000  1
  O  O1  1  0.00000000  0.50000000  0.73734500  1
  O  O2  1  0.00000000  0.00000000  0.23585000  1
  O  O3  1  0.00000000  0.50000000  0.26265500  1
  O  O4  1  0.50000000  0.75142100  0.75056800  1
  O  O5  1  0.50000000  0.24857900  0.75056800  1
  O  O6  1  0.50000000  0.75142100  0.24943200  1
  O  O7  1  0.50000000  0.24857900  0.24943200  1
  O  O8  1  0.50000000  0.00000000  0.00000000  1
  O  O9  1  0.50000000  0.50000000  0.00000000  1
  O  O10  1  0.50000000  0.00000000  0.50000000  1
  O  O11  1  0.50000000  0.50000000  0.50000000  1
  O  O12  1  0.00000000  0.78054300  0.00000000  1
  O  O13  1  0.00000000  0.21945700  0.00000000  1
  O  O14  1  0.00000000  0.75623000  0.50000000  1
  O  O15  1  0.00000000  0.24377000  0.50000000  1
loop_
_geom_bond_atom_site_label_1
_geom_bond_atom_site_label_2
_geom_bond_distance
_geom_bond_site_symmetry_2
Na0 O9 2.136537 1_455
Na0 O9 2.136537 1_555
Na0 O1 2.238887 1_554
Na0 O3 2.238887 1_555
Na0 O12 2.383604 1_555
Na0 O13 2.383604 1_555
Mg0 O15 2.071166 1_555
Mg0 O14 2.071166 1_545
Mg0 O10 2.136537 1_555
Mg0 O10 2.136537 1_455
Mg0 O2 2.251630 1_555
Mg0 O0 2.251630 1_555
Mg1 O3 2.023143 1_555
Mg1 O1 2.023143 1_555
Mg1 O11 2.136537 1_455
Mg1 O11 2.136537 1_555
Mg1 O14 2.177031 1_555
Mg1 O15 2.177031 1_555
Mg2 O9 2.078108 1_555
Mg2 O4 2.126966 1_554
Mg2 O6 2.126966 1_555
Mg2 O12 2.158267 1_655
Mg2 O12 2.158267 1_555
Mg2 O8 2.170089 1_565
Mg3 O9 2.078108 1_555
Mg3 O5 2.126966 1_554
Mg3 O7 2.126966 1_555
Mg3 O13 2.158267 1_655
Mg3 O13 2.158267 1_555
Mg3 O8 2.170089 1_555
Mg4 O11 2.101940 1_555
Mg4 O4 2.136131 1_555
Mg4 O6 2.136131 1_555
Mg4 O14 2.137856 1_555
Mg4 O14 2.137856 1_655
Mg4 O10 2.146257 1_565
Mg5 O11 2.101940 1_555
Mg5 O5 2.136131 1_555
Mg5 O7 2.136131 1_555
Mg5 O15 2.137856 1_555
Mg5 O15 2.137856 1_655
Mg5 O10 2.146257 1_555
Mg6 O5 2.112033 1_555
Mg6 O4 2.112033 1_545
Mg6 O10 2.130273 1_555
Mg6 O8 2.131757 1_556
Mg6 O0 2.139981 1_555
Mg6 O0 2.139981 1_655
Mg7 O9 2.108034 1_556
Mg7 O5 2.136249 1_555
Mg7 O4 2.136249 1_555
Mg7 O1 2.140540 1_655
Mg7 O1 2.140540 1_555
Mg7 O11 2.153996 1_555
Mg8 O6 2.112033 1_545
Mg8 O7 2.112033 1_555
Mg8 O10 2.130273 1_555
Mg8 O8 2.131757 1_555
Mg8 O2 2.139981 1_655
Mg8 O2 2.139981 1_555
Mg9 O9 2.108034 1_555
Mg9 O6 2.136249 1_555
Mg9 O7 2.136249 1_555
Mg9 O3 2.140540 1_655
Mg9 O3 2.140540 1_555
Mg9 O11 2.153996 1_555
Mg10 O1 2.090234 1_555
Mg10 O14 2.133290 1_555
Mg10 O4 2.137098 1_555
Mg10 O4 2.137098 1_455
Mg10 O12 2.151110 1_556
Mg10 O0 2.164111 1_565
Mg11 O1 2.090234 1_555
Mg11 O15 2.133290 1_555
Mg11 O5 2.137098 1_455
Mg11 O5 2.137098 1_555
Mg11 O13 2.151110 1_556
Mg11 O0 2.164111 1_555
Mg12 O3 2.090234 1_555
Mg12 O14 2.133290 1_555
Mg12 O6 2.137098 1_455
Mg12 O6 2.137098 1_555
Mg12 O12 2.151110 1_555
Mg12 O2 2.164111 1_565
Mg13 O3 2.090234 1_555
Mg13 O15 2.133290 1_555
Mg13 O7 2.137098 1_555
Mg13 O7 2.137098 1_455
Mg13 O13 2.151110 1_555
Mg13 O2 2.164111 1_555
Al0 O13 1.864593 1_555
Al0 O12 1.864593 1_545
Al0 O0 2.010400 1_554
Al0 O2 2.010400 1_555
Al0 O8 2.136537 1_455
Al0 O8 2.136537 1_555
