# generated using pymatgen
data_Th6Al43Mo4
_symmetry_space_group_name_H-M   'P 1'
_cell_length_a   11.12197981
_cell_length_b   11.12197981
_cell_length_c   17.96687800
_cell_angle_alpha   90.00000000
_cell_angle_beta   90.00000000
_cell_angle_gamma   119.99999886
_symmetry_Int_Tables_number   1
_chemical_formula_structural   Th6Al43Mo4
_chemical_formula_sum   'Th12 Al86 Mo8'
_cell_volume   1924.71956126
_cell_formula_units_Z   2
loop_
 _symmetry_equiv_pos_site_id
 _symmetry_equiv_pos_as_xyz
  1  'x, y, z'
loop_
 _atom_site_type_symbol
 _atom_site_label
 _atom_site_symmetry_multiplicity
 _atom_site_fract_x
 _atom_site_fract_y
 _atom_site_fract_z
 _atom_site_occupancy
  Th  Th0  1  0.47195600  0.47195600  0.90462300  1
  Th  Th1  1  0.52804400  0.00000000  0.90462300  1
  Th  Th2  1  0.00000000  0.52804400  0.90462300  1
  Th  Th3  1  0.52804400  0.52804400  0.09537700  1
  Th  Th4  1  0.47195600  0.00000000  0.09537700  1
  Th  Th5  1  0.00000000  0.47195600  0.09537700  1
  Th  Th6  1  0.52804400  0.52804400  0.40462300  1
  Th  Th7  1  0.47195600  0.00000000  0.40462300  1
  Th  Th8  1  0.00000000  0.47195600  0.40462300  1
  Th  Th9  1  0.47195600  0.47195600  0.59537700  1
  Th  Th10  1  0.52804400  0.00000000  0.59537700  1
  Th  Th11  1  0.00000000  0.52804400  0.59537700  1
  Al  Al0  1  0.84071300  0.23363500  0.83433500  1
  Al  Al1  1  0.76636500  0.60707700  0.83433500  1
  Al  Al2  1  0.39292300  0.15928700  0.83433500  1
  Al  Al3  1  0.23363500  0.84071300  0.83433500  1
  Al  Al4  1  0.60707700  0.76636500  0.83433500  1
  Al  Al5  1  0.15928700  0.39292300  0.83433500  1
  Al  Al6  1  0.15928700  0.76636500  0.16566500  1
  Al  Al7  1  0.23363500  0.39292300  0.16566500  1
  Al  Al8  1  0.60707700  0.84071300  0.16566500  1
  Al  Al9  1  0.76636500  0.15928700  0.16566500  1
  Al  Al10  1  0.39292300  0.23363500  0.16566500  1
  Al  Al11  1  0.84071300  0.60707700  0.16566500  1
  Al  Al12  1  0.15928700  0.76636500  0.33433500  1
  Al  Al13  1  0.23363500  0.39292300  0.33433500  1
  Al  Al14  1  0.60707700  0.84071300  0.33433500  1
  Al  Al15  1  0.76636500  0.15928700  0.33433500  1
  Al  Al16  1  0.39292300  0.23363500  0.33433500  1
  Al  Al17  1  0.84071300  0.60707700  0.33433500  1
  Al  Al18  1  0.84071300  0.23363500  0.66566500  1
  Al  Al19  1  0.76636500  0.60707700  0.66566500  1
  Al  Al20  1  0.39292300  0.15928700  0.66566500  1
  Al  Al21  1  0.23363500  0.84071300  0.66566500  1
  Al  Al22  1  0.60707700  0.76636500  0.66566500  1
  Al  Al23  1  0.15928700  0.39292300  0.66566500  1
  Al  Al24  1  0.84174200  0.84174200  0.38512800  1
  Al  Al25  1  0.15825800  0.00000000  0.38512800  1
  Al  Al26  1  0.00000000  0.15825800  0.38512800  1
  Al  Al27  1  0.15825800  0.15825800  0.61487200  1
  Al  Al28  1  0.84174200  0.00000000  0.61487200  1
  Al  Al29  1  0.00000000  0.84174200  0.61487200  1
  Al  Al30  1  0.15825800  0.15825800  0.88512800  1
  Al  Al31  1  0.84174200  0.00000000  0.88512800  1
  Al  Al32  1  0.00000000  0.84174200  0.88512800  1
  Al  Al33  1  0.84174200  0.84174200  0.11487200  1
  Al  Al34  1  0.15825800  0.00000000  0.11487200  1
  Al  Al35  1  0.00000000  0.15825800  0.11487200  1
  Al  Al36  1  0.74878500  0.74878500  0.96890200  1
  Al  Al37  1  0.25121500  0.00000000  0.96890200  1
  Al  Al38  1  0.00000000  0.25121500  0.96890200  1
  Al  Al39  1  0.25121500  0.25121500  0.03109800  1
  Al  Al40  1  0.74878500  0.00000000  0.03109800  1
  Al  Al41  1  0.00000000  0.74878500  0.03109800  1
  Al  Al42  1  0.25121500  0.25121500  0.46890200  1
  Al  Al43  1  0.74878500  0.00000000  0.46890200  1
  Al  Al44  1  0.00000000  0.74878500  0.46890200  1
  Al  Al45  1  0.74878500  0.74878500  0.53109800  1
  Al  Al46  1  0.25121500  0.00000000  0.53109800  1
  Al  Al47  1  0.00000000  0.25121500  0.53109800  1
  Al  Al48  1  0.85173300  0.44713800  0.75000000  1
  Al  Al49  1  0.55286200  0.40459500  0.75000000  1
  Al  Al50  1  0.59540500  0.14826700  0.75000000  1
  Al  Al51  1  0.44713800  0.85173300  0.75000000  1
  Al  Al52  1  0.40459500  0.55286200  0.75000000  1
  Al  Al53  1  0.14826700  0.59540500  0.75000000  1
  Al  Al54  1  0.14826700  0.55286200  0.25000000  1
  Al  Al55  1  0.44713800  0.59540500  0.25000000  1
  Al  Al56  1  0.40459500  0.85173300  0.25000000  1
  Al  Al57  1  0.55286200  0.14826700  0.25000000  1
  Al  Al58  1  0.59540500  0.44713800  0.25000000  1
  Al  Al59  1  0.85173300  0.40459500  0.25000000  1
  Al  Al60  1  0.75322600  0.24677400  0.00000000  1
  Al  Al61  1  0.75322600  0.50645300  0.00000000  1
  Al  Al62  1  0.49354700  0.24677400  0.00000000  1
  Al  Al63  1  0.24677400  0.75322600  0.00000000  1
  Al  Al64  1  0.50645300  0.75322600  0.00000000  1
  Al  Al65  1  0.24677400  0.49354700  0.00000000  1
  Al  Al66  1  0.24677400  0.75322600  0.50000000  1
  Al  Al67  1  0.24677400  0.49354700  0.50000000  1
  Al  Al68  1  0.50645300  0.75322600  0.50000000  1
  Al  Al69  1  0.75322600  0.24677400  0.50000000  1
  Al  Al70  1  0.49354700  0.24677400  0.50000000  1
  Al  Al71  1  0.75322600  0.50645300  0.50000000  1
  Al  Al72  1  0.66666700  0.33333300  0.87213000  1
  Al  Al73  1  0.33333300  0.66666700  0.87213000  1
  Al  Al74  1  0.33333300  0.66666700  0.12787000  1
  Al  Al75  1  0.66666700  0.33333300  0.12787000  1
  Al  Al76  1  0.33333300  0.66666700  0.37213000  1
  Al  Al77  1  0.66666700  0.33333300  0.37213000  1
  Al  Al78  1  0.66666700  0.33333300  0.62787000  1
  Al  Al79  1  0.33333300  0.66666700  0.62787000  1
  Al  Al80  1  0.85353900  0.85353900  0.75000000  1
  Al  Al81  1  0.14646100  0.00000000  0.75000000  1
  Al  Al82  1  0.00000000  0.14646100  0.75000000  1
  Al  Al83  1  0.14646100  0.14646100  0.25000000  1
  Al  Al84  1  0.85353900  0.00000000  0.25000000  1
  Al  Al85  1  0.00000000  0.85353900  0.25000000  1
  Mo  Mo0  1  0.26853300  0.26853300  0.75000000  1
  Mo  Mo1  1  0.73146700  0.00000000  0.75000000  1
  Mo  Mo2  1  0.00000000  0.73146700  0.75000000  1
  Mo  Mo3  1  0.73146700  0.73146700  0.25000000  1
  Mo  Mo4  1  0.26853300  0.00000000  0.25000000  1
  Mo  Mo5  1  0.00000000  0.26853300  0.25000000  1
  Mo  Mo6  1  0.00000000  0.00000000  0.00000000  1
  Mo  Mo7  1  0.00000000  0.00000000  0.50000000  1
loop_
_geom_bond_atom_site_label_1
_geom_bond_atom_site_label_2
_geom_bond_distance
_geom_bond_site_symmetry_2
Th0 Th3 3.483562 1_556
Th1 Th4 3.483562 1_556
Th2 Th5 3.483562 1_556
Th6 Th9 3.483562 1_555
Th10 Th7 3.483562 1_555
Th11 Th8 3.483562 1_555
Al0 Mo1 2.714244 1_555
Al0 Al72 2.753931 1_555
Al0 Al38 2.945483 1_655
Al0 Th2 3.107119 1_655
Al0 Th1 3.376936 1_555
Al1 Mo2 2.714245 1_655
Al1 Al72 2.753931 1_555
Al1 Al36 2.945489 1_555
Al1 Th0 3.107120 1_555
Al1 Th2 3.376928 1_655
Al2 Mo0 2.714252 1_555
Al2 Al72 2.753931 1_555
Al2 Al37 2.945486 1_555
Al2 Th1 3.107110 1_555
Al2 Th0 3.376939 1_555
Al3 Mo2 2.714244 1_555
Al3 Al73 2.753931 1_555
Al3 Al37 2.945483 1_565
Al3 Th1 3.107119 1_565
Al3 Th2 3.376936 1_555
Al4 Mo1 2.714245 1_565
Al4 Al73 2.753931 1_555
Al4 Th0 3.107120 1_555
Al4 Th1 3.376928 1_565
Al5 Mo0 2.714252 1_555
Al5 Al73 2.753931 1_555
Al5 Th2 3.107110 1_555
Al5 Th0 3.376939 1_555
Al6 Mo4 2.714244 1_565
Al6 Al74 2.753931 1_555
Al6 Th5 3.107119 1_555
Al6 Th4 3.376936 1_565
Al7 Mo5 2.714245 1_555
Al7 Al74 2.753931 1_555
Al7 Th3 3.107120 1_555
Al7 Th5 3.376928 1_555
Al8 Mo3 2.714252 1_555
Al8 Th4 3.107110 1_565
Al8 Th3 3.376939 1_555
Al9 Mo5 2.714244 1_655
Al9 Th4 3.107119 1_555
Al9 Th5 3.376936 1_655
Al10 Mo4 2.714245 1_555
Al10 Al75 2.753931 1_555
Al10 Al39 2.945489 1_555
Al10 Th3 3.107120 1_555
Al10 Th4 3.376928 1_555
Al11 Mo3 2.714252 1_555
Al11 Al75 2.753931 1_555
Al11 Al41 2.945486 1_655
Al11 Th5 3.107110 1_655
Al11 Th3 3.376939 1_555
Al12 Mo4 2.714244 1_565
Al12 Al76 2.753931 1_555
Al12 Al44 2.945483 1_555
Al12 Th8 3.107119 1_555
Al12 Th7 3.376936 1_565
Al13 Mo5 2.714245 1_555
Al13 Al76 2.753931 1_555
Al13 Al42 2.945489 1_555
Al13 Th6 3.107120 1_555
Al13 Th8 3.376928 1_555
Al14 Mo3 2.714252 1_555
Al14 Al76 2.753931 1_555
Al14 Al43 2.945486 1_565
Al14 Th7 3.107110 1_565
Al14 Th6 3.376939 1_555
Al15 Mo5 2.714244 1_655
Al15 Al77 2.753931 1_555
Al15 Al43 2.945483 1_555
Al15 Th7 3.107119 1_555
Al15 Th8 3.376936 1_655
Al16 Mo4 2.714245 1_555
Al16 Al77 2.753931 1_555
Al16 Al42 2.945489 1_555
Al16 Th6 3.107120 1_555
Al16 Th7 3.376928 1_555
Al17 Mo3 2.714252 1_555
Al17 Al77 2.753931 1_555
Al17 Al44 2.945486 1_655
Al17 Th8 3.107110 1_655
Al17 Th6 3.376939 1_555
Al18 Mo1 2.714244 1_555
Al18 Al78 2.753931 1_555
Al18 Al47 2.945483 1_655
Al18 Th11 3.107119 1_655
Al18 Th10 3.376936 1_555
Al19 Mo2 2.714245 1_655
Al19 Al78 2.753931 1_555
Al19 Al45 2.945489 1_555
Al19 Th9 3.107120 1_555
Al19 Th11 3.376928 1_655
Al20 Mo0 2.714252 1_555
Al20 Al78 2.753931 1_555
Al20 Al46 2.945486 1_555
Al20 Th10 3.107110 1_555
Al20 Th9 3.376939 1_555
Al21 Mo2 2.714244 1_555
Al21 Al79 2.753931 1_555
Al21 Al46 2.945483 1_565
Al21 Th10 3.107119 1_565
Al21 Th11 3.376936 1_555
Al22 Mo1 2.714245 1_565
Al22 Al79 2.753931 1_555
Al22 Al45 2.945489 1_555
Al22 Th9 3.107120 1_555
Al22 Th10 3.376928 1_565
Al23 Mo0 2.714252 1_555
Al23 Al79 2.753931 1_555
Al23 Al47 2.945486 1_555
Al23 Th11 3.107110 1_555
Al23 Th9 3.376939 1_555
Al24 Mo7 2.712517 1_665
Al24 Mo3 2.720036 1_555
Al24 Al45 2.819050 1_555
Al24 Al43 2.872669 1_565
Al24 Al44 2.872669 1_655
Al24 Th6 3.506481 1_555
Al25 Mo7 2.712517 1_555
Al25 Mo4 2.720036 1_555
Al25 Al46 2.819050 1_555
Al25 Al42 2.872669 1_555
Al25 Al44 2.872669 1_545
Al25 Th7 3.506481 1_555
Al26 Mo7 2.712517 1_555
Al26 Mo5 2.720036 1_555
Al26 Al47 2.819050 1_555
Al26 Al42 2.872669 1_555
Al26 Al43 2.872669 1_455
Al26 Th8 3.506481 1_555
Al27 Mo7 2.712517 1_555
Al27 Mo0 2.720036 1_555
Al27 Al42 2.819050 1_555
Al27 Al46 2.872669 1_555
Al27 Al47 2.872669 1_555
Al27 Th9 3.506481 1_555
Al28 Mo7 2.712517 1_655
Al28 Mo1 2.720036 1_555
Al28 Al43 2.819050 1_555
Al28 Al45 2.872669 1_545
Al28 Al47 2.872669 1_655
Al28 Th10 3.506481 1_555
Al29 Mo7 2.712517 1_565
Al29 Mo2 2.720036 1_555
Al29 Al44 2.819050 1_555
Al29 Al45 2.872669 1_455
Al29 Al46 2.872669 1_565
Al29 Th11 3.506481 1_555
Al30 Mo6 2.712517 1_556
Al30 Mo0 2.720036 1_555
Al30 Al39 2.819050 1_556
Al30 Al38 2.872669 1_555
Al30 Al37 2.872669 1_555
Al30 Th0 3.506481 1_555
Al31 Mo6 2.712517 1_656
Al31 Mo1 2.720036 1_555
Al31 Al40 2.819050 1_556
Al31 Al36 2.872669 1_545
Al31 Al38 2.872669 1_655
Al31 Th1 3.506481 1_555
Al32 Mo6 2.712517 1_566
Al32 Mo2 2.720036 1_555
Al32 Al41 2.819050 1_556
Al32 Al36 2.872669 1_455
Al32 Al37 2.872669 1_565
Al32 Th2 3.506481 1_555
Al33 Mo6 2.712517 1_665
Al33 Mo3 2.720036 1_555
Al33 Al36 2.819050 1_554
Al33 Al41 2.872669 1_655
Al33 Al40 2.872669 1_565
Al33 Th3 3.506481 1_555
Al34 Mo6 2.712517 1_555
Al34 Mo4 2.720036 1_555
Al34 Al37 2.819050 1_554
Al34 Al39 2.872669 1_555
Al34 Al41 2.872669 1_545
Al34 Th4 3.506481 1_555
Al35 Mo6 2.712517 1_555
Al35 Mo5 2.720036 1_555
Al35 Al38 2.819050 1_554
Al35 Al39 2.872669 1_555
Al35 Al40 2.872669 1_455
Al35 Th5 3.506481 1_555
Al36 Al64 2.777033 1_556
Al36 Al61 2.777033 1_556
Al36 Mo6 2.849327 1_666
Al36 Al4 2.945489 1_555
Al36 Al40 3.009189 1_566
Al36 Al41 3.009189 1_656
Al36 Th0 3.288361 1_555
Al36 Th3 3.345299 1_556
Al37 Al62 2.777039 1_556
Al37 Al63 2.777044 1_546
Al37 Mo6 2.849327 1_556
Al37 Al39 3.009189 1_556
Al37 Al41 3.009189 1_546
Al37 Th1 3.288361 1_555
Al37 Th4 3.345299 1_556
Al38 Al65 2.777039 1_556
Al38 Al60 2.777044 1_456
Al38 Mo6 2.849327 1_556
Al38 Al5 2.945486 1_555
Al38 Al39 3.009189 1_556
Al38 Al40 3.009189 1_456
Al38 Th2 3.288361 1_555
Al38 Th5 3.345299 1_556
Al39 Al62 2.777033 1_555
Al39 Al65 2.777033 1_555
Al39 Mo6 2.849327 1_555
Al39 Al7 2.945489 1_555
Al39 Th3 3.288361 1_555
Al39 Th0 3.345299 1_554
Al40 Al64 2.777039 1_545
Al40 Al60 2.777044 1_555
Al40 Mo6 2.849327 1_655
Al40 Al9 2.945483 1_555
Al40 Al8 2.945486 1_545
Al40 Th4 3.288361 1_555
Al40 Th1 3.345299 1_554
Al41 Al61 2.777039 1_455
Al41 Al63 2.777044 1_555
Al41 Mo6 2.849327 1_565
Al41 Al6 2.945483 1_555
Al41 Th5 3.288361 1_555
Al41 Th2 3.345299 1_554
Al42 Al70 2.777033 1_555
Al42 Al67 2.777033 1_555
Al42 Mo7 2.849327 1_555
Al42 Al47 3.009189 1_555
Al42 Al46 3.009189 1_555
Al42 Th6 3.288361 1_555
Al42 Th9 3.345299 1_555
Al43 Al68 2.777039 1_545
Al43 Al69 2.777044 1_555
Al43 Mo7 2.849327 1_655
Al43 Al45 3.009189 1_545
Al43 Al47 3.009189 1_655
Al43 Th7 3.288361 1_555
Al43 Th10 3.345299 1_555
Al44 Al71 2.777039 1_455
Al44 Al66 2.777044 1_555
Al44 Mo7 2.849327 1_565
Al44 Al45 3.009189 1_455
Al44 Al46 3.009189 1_565
Al44 Th8 3.288361 1_555
Al44 Th11 3.345299 1_555
Al45 Al71 2.777033 1_555
Al45 Al68 2.777033 1_555
Al45 Mo7 2.849327 1_665
Al45 Th9 3.288361 1_555
Al45 Th6 3.345299 1_555
Al46 Al70 2.777039 1_555
Al46 Al66 2.777044 1_545
Al46 Mo7 2.849327 1_555
Al46 Th10 3.288361 1_555
Al46 Th7 3.345299 1_555
Al47 Al67 2.777039 1_555
Al47 Al69 2.777044 1_455
Al47 Mo7 2.849327 1_555
Al47 Th11 3.288361 1_555
Al47 Th8 3.345299 1_555
Al48 Mo2 2.739474 1_655
Al48 Al72 2.836962 1_555
Al48 Al78 2.836962 1_555
Al48 Th11 3.124569 1_655
Al48 Th2 3.124569 1_655
Al49 Mo0 2.739474 1_555
Al49 Al72 2.836968 1_555
Al49 Al78 2.836968 1_555
Al49 Th9 3.124569 1_555
Al49 Th0 3.124569 1_555
Al50 Mo1 2.739474 1_555
Al50 Al78 2.836961 1_555
Al50 Al72 2.836961 1_555
Al50 Th1 3.124569 1_555
Al50 Th10 3.124569 1_555
Al51 Mo1 2.739474 1_565
Al51 Al79 2.836962 1_555
Al51 Al73 2.836962 1_555
Al51 Th10 3.124569 1_565
Al51 Th1 3.124569 1_565
Al52 Mo0 2.739474 1_555
Al52 Al79 2.836968 1_555
Al52 Al73 2.836968 1_555
Al52 Th9 3.124569 1_555
Al52 Th0 3.124569 1_555
Al53 Mo2 2.739474 1_555
Al53 Al79 2.836961 1_555
Al53 Al73 2.836961 1_555
Al53 Th2 3.124569 1_555
Al53 Th11 3.124569 1_555
Al54 Mo5 2.739474 1_555
Al54 Al74 2.836962 1_555
Al54 Al76 2.836962 1_555
Al54 Th8 3.124569 1_555
Al54 Th5 3.124569 1_555
Al55 Mo3 2.739474 1_555
Al55 Al74 2.836968 1_555
Al55 Al76 2.836968 1_555
Al55 Th6 3.124569 1_555
Al55 Th3 3.124569 1_555
Al56 Mo4 2.739474 1_565
Al56 Al74 2.836961 1_555
Al56 Al76 2.836961 1_555
Al56 Th4 3.124569 1_565
Al56 Th7 3.124569 1_565
Al57 Mo4 2.739474 1_555
Al57 Al75 2.836962 1_555
Al57 Al77 2.836962 1_555
Al57 Th4 3.124569 1_555
Al57 Th7 3.124569 1_555
Al58 Mo3 2.739474 1_555
Al58 Al75 2.836968 1_555
Al58 Al77 2.836968 1_555
Al58 Th6 3.124569 1_555
Al58 Th3 3.124569 1_555
Al59 Mo5 2.739474 1_655
Al59 Al75 2.836961 1_555
Al59 Al77 2.836961 1_555
Al59 Th5 3.124569 1_655
Al59 Th8 3.124569 1_655
Al60 Al75 2.838763 1_555
Al60 Al72 2.838763 1_554
Al60 Al62 2.888145 1_555
Al60 Al61 2.888145 1_555
Al60 Th5 3.141336 1_655
Al60 Th1 3.141336 1_554
Al60 Th4 3.416085 1_555
Al60 Th2 3.416085 1_654
Al61 Al75 2.838775 1_555
Al61 Al72 2.838775 1_554
Al61 Al62 2.888145 1_555
Al61 Th3 3.141331 1_555
Al61 Th2 3.141340 1_654
Al61 Th0 3.416081 1_554
Al61 Th5 3.416091 1_655
Al62 Al75 2.838775 1_555
Al62 Al72 2.838775 1_554
Al62 Th0 3.141331 1_554
Al62 Th4 3.141340 1_555
Al62 Th3 3.416081 1_555
Al62 Th1 3.416091 1_554
Al63 Al74 2.838763 1_555
Al63 Al73 2.838763 1_554
Al63 Al65 2.888145 1_555
Al63 Al64 2.888145 1_555
Al63 Th2 3.141336 1_554
Al63 Th4 3.141336 1_565
Al63 Th5 3.416085 1_555
Al63 Th1 3.416085 1_564
Al64 Al74 2.838775 1_555
Al64 Al73 2.838775 1_554
Al64 Al65 2.888145 1_555
Al64 Th3 3.141331 1_555
Al64 Th1 3.141340 1_564
Al64 Th0 3.416081 1_554
Al64 Th4 3.416091 1_565
Al65 Al74 2.838775 1_555
Al65 Al73 2.838775 1_554
Al65 Th0 3.141331 1_554
Al65 Th5 3.141340 1_555
Al65 Th3 3.416081 1_555
Al65 Th2 3.416091 1_554
Al66 Al76 2.838763 1_555
Al66 Al79 2.838763 1_555
Al66 Al67 2.888145 1_555
Al66 Al68 2.888145 1_555
Al66 Th7 3.141336 1_565
Al66 Th11 3.141336 1_555
Al66 Th8 3.416085 1_555
Al66 Th10 3.416085 1_565
Al67 Al76 2.838775 1_555
Al67 Al79 2.838775 1_555
Al67 Al68 2.888145 1_555
Al67 Th9 3.141331 1_555
Al67 Th8 3.141340 1_555
Al67 Th6 3.416081 1_555
Al67 Th11 3.416091 1_555
Al68 Al76 2.838775 1_555
Al68 Al79 2.838775 1_555
Al68 Th6 3.141331 1_555
Al68 Th10 3.141340 1_565
Al68 Th9 3.416081 1_555
Al68 Th7 3.416091 1_565
Al69 Al77 2.838763 1_555
Al69 Al78 2.838763 1_555
Al69 Al70 2.888145 1_555
Al69 Al71 2.888145 1_555
Al69 Th8 3.141336 1_655
Al69 Th10 3.141336 1_555
Al69 Th7 3.416085 1_555
Al69 Th11 3.416085 1_655
Al70 Al77 2.838775 1_555
Al70 Al78 2.838775 1_555
Al70 Al71 2.888145 1_555
Al70 Th9 3.141331 1_555
Al70 Th7 3.141340 1_555
Al70 Th6 3.416081 1_555
Al70 Th10 3.416091 1_555
Al71 Al77 2.838775 1_555
Al71 Al78 2.838775 1_555
Al71 Th6 3.141331 1_555
Al71 Th11 3.141340 1_655
Al71 Th9 3.416081 1_555
Al71 Th8 3.416091 1_655
Al72 Th1 3.278152 1_555
Al72 Th2 3.278154 1_655
Al72 Th0 3.278162 1_555
Al73 Th2 3.278152 1_555
Al73 Th1 3.278154 1_565
Al73 Th0 3.278162 1_555
Al74 Al8 2.753931 1_555
Al74 Th4 3.278152 1_565
Al74 Th5 3.278154 1_555
Al74 Th3 3.278162 1_555
Al75 Al9 2.753931 1_555
Al75 Th5 3.278152 1_655
Al75 Th4 3.278154 1_555
Al75 Th3 3.278162 1_555
Al76 Th7 3.278152 1_565
Al76 Th8 3.278154 1_555
Al76 Th6 3.278162 1_555
Al77 Th8 3.278152 1_655
Al77 Th7 3.278154 1_555
Al77 Th6 3.278162 1_555
Al78 Th10 3.278152 1_555
Al78 Th11 3.278154 1_655
Al78 Th9 3.278162 1_555
Al79 Th11 3.278152 1_555
Al79 Th10 3.278154 1_565
Al79 Th9 3.278162 1_555
Al80 Mo1 2.590041 1_565
Al80 Mo2 2.590041 1_655
Al81 Mo0 2.590041 1_555
Al81 Mo2 2.590041 1_545
Al82 Mo0 2.590041 1_555
Al82 Mo1 2.590041 1_455
Al83 Mo5 2.590041 1_555
Al83 Mo4 2.590041 1_555
Al84 Mo3 2.590041 1_545
Al84 Mo5 2.590041 1_655
Al85 Mo3 2.590041 1_455
Al85 Mo4 2.590041 1_565
Mo0 Th0 3.582814 1_555
Mo0 Th9 3.582814 1_555
Mo1 Th10 3.582814 1_555
Mo1 Th1 3.582814 1_555
Mo2 Th11 3.582814 1_555
Mo2 Th2 3.582814 1_555
Mo3 Th3 3.582814 1_555
Mo3 Th6 3.582814 1_555
Mo4 Th4 3.582814 1_555
Mo4 Th7 3.582814 1_555
Mo5 Th8 3.582814 1_555
Mo5 Th5 3.582814 1_555
