# generated using pymatgen
data_SrCa2(FeO2)3
_symmetry_space_group_name_H-M   'P 1'
_cell_length_a   4.01818400
_cell_length_b   4.01818400
_cell_length_c   9.95598400
_cell_angle_alpha   90.00000000
_cell_angle_beta   90.00000000
_cell_angle_gamma   90.00000000
_symmetry_Int_Tables_number   1
_chemical_formula_structural   SrCa2(FeO2)3
_chemical_formula_sum   'Sr1 Ca2 Fe3 O6'
_cell_volume   160.74735293
_cell_formula_units_Z   1
loop_
 _symmetry_equiv_pos_site_id
 _symmetry_equiv_pos_as_xyz
  1  'x, y, z'
loop_
 _atom_site_type_symbol
 _atom_site_label
 _atom_site_symmetry_multiplicity
 _atom_site_fract_x
 _atom_site_fract_y
 _atom_site_fract_z
 _atom_site_occupancy
  Sr  Sr0  1  0.50000000  0.50000000  0.00000000  1
  Ca  Ca0  1  0.50000000  0.50000000  0.33683400  1
  Ca  Ca1  1  0.50000000  0.50000000  0.66316600  1
  Fe  Fe0  1  0.00000000  0.00000000  0.82251500  1
  Fe  Fe1  1  0.00000000  0.00000000  0.17748500  1
  Fe  Fe2  1  0.00000000  0.00000000  0.50000000  1
  O  O0  1  0.00000000  0.50000000  0.17665500  1
  O  O1  1  0.00000000  0.50000000  0.50000000  1
  O  O2  1  0.00000000  0.50000000  0.82334500  1
  O  O3  1  0.50000000  0.00000000  0.17665500  1
  O  O4  1  0.50000000  0.00000000  0.50000000  1
  O  O5  1  0.50000000  0.00000000  0.82334500  1
loop_
_geom_bond_atom_site_label_1
_geom_bond_atom_site_label_2
_geom_bond_distance
_geom_bond_site_symmetry_2
Ca0 O3 2.565082 1_555
Ca0 O0 2.565082 1_655
Ca0 O3 2.565082 1_565
Ca0 O0 2.565082 1_555
Ca0 O1 2.583676 1_555
Ca0 O4 2.583676 1_555
Ca0 O4 2.583676 1_565
Ca0 O1 2.583676 1_655
Ca1 O5 2.565082 1_555
Ca1 O2 2.565082 1_555
Ca1 O5 2.565082 1_565
Ca1 O2 2.565082 1_655
Ca1 O1 2.583676 1_655
Ca1 O4 2.583676 1_565
Ca1 O1 2.583676 1_555
Ca1 O4 2.583676 1_555
Fe0 O2 2.009109 1_545
Fe0 O2 2.009109 1_555
Fe0 O5 2.009109 1_455
Fe0 O5 2.009109 1_555
Fe1 O3 2.009109 1_555
Fe1 O3 2.009109 1_455
Fe1 O0 2.009109 1_555
Fe1 O0 2.009109 1_545
Fe2 O4 2.009092 1_455
Fe2 O1 2.009092 1_555
Fe2 O1 2.009092 1_545
Fe2 O4 2.009092 1_555
O0 Sr0 2.670157 1_555
O0 Sr0 2.670157 1_455
O2 Sr0 2.670157 1_456
O2 Sr0 2.670157 1_556
O3 Sr0 2.670157 1_545
O3 Sr0 2.670157 1_555
O5 Sr0 2.670157 1_556
O5 Sr0 2.670157 1_546
