# generated using pymatgen
data_Cu7Te2(SO10)2
_symmetry_space_group_name_H-M   'P 1'
_cell_length_a   7.08130400
_cell_length_b   7.61726525
_cell_length_c   7.94534149
_cell_angle_alpha   78.22944484
_cell_angle_beta   77.93943219
_cell_angle_gamma   86.01274708
_symmetry_Int_Tables_number   1
_chemical_formula_structural   Cu7Te2(SO10)2
_chemical_formula_sum   'Cu7 Te2 S2 O20'
_cell_volume   410.13820113
_cell_formula_units_Z   1
loop_
 _symmetry_equiv_pos_site_id
 _symmetry_equiv_pos_as_xyz
  1  'x, y, z'
loop_
 _atom_site_type_symbol
 _atom_site_label
 _atom_site_symmetry_multiplicity
 _atom_site_fract_x
 _atom_site_fract_y
 _atom_site_fract_z
 _atom_site_occupancy
  Cu  Cu0  1  0.38068100  0.82764500  0.80179900  1
  Cu  Cu1  1  0.61931900  0.17235500  0.19820100  1
  Cu  Cu2  1  0.75347800  0.52705800  0.26219900  1
  Cu  Cu3  1  0.24652200  0.47294200  0.73780100  1
  Cu  Cu4  1  0.00000000  0.00000000  0.00000000  1
  Cu  Cu5  1  0.00000000  0.50000000  0.50000000  1
  Cu  Cu6  1  0.50000000  0.50000000  0.00000000  1
  Te  Te0  1  0.87540500  0.81265400  0.75795400  1
  Te  Te1  1  0.12459500  0.18734600  0.24204600  1
  S  S0  1  0.60700000  0.21739100  0.66489000  1
  S  S1  1  0.39300000  0.78260900  0.33511000  1
  O  O0  1  0.99701500  0.57631800  0.72080800  1
  O  O1  1  0.00298500  0.42368200  0.27919200  1
  O  O2  1  0.13524700  0.93970300  0.78844000  1
  O  O3  1  0.86475300  0.06029700  0.21156000  1
  O  O4  1  0.49224300  0.36395800  0.75099900  1
  O  O5  1  0.50775700  0.63604200  0.24900100  1
  O  O6  1  0.79825600  0.63263600  0.43426300  1
  O  O7  1  0.20174400  0.36736400  0.56573700  1
  O  O8  1  0.84922500  0.80894900  0.00314800  1
  O  O9  1  0.15077500  0.19105100  0.99685200  1
  O  O10  1  0.61844200  0.68930700  0.82576800  1
  O  O11  1  0.38155800  0.31069300  0.17423200  1
  O  O12  1  0.28163900  0.59710400  0.90777500  1
  O  O13  1  0.71836100  0.40289600  0.09222500  1
  O  O14  1  0.53488900  0.03836200  0.76992300  1
  O  O15  1  0.46511100  0.96163800  0.23007700  1
  O  O16  1  0.80554300  0.22881300  0.69099900  1
  O  O17  1  0.19445700  0.77118700  0.30900100  1
  O  O18  1  0.59220900  0.24223800  0.48124000  1
  O  O19  1  0.40779100  0.75776200  0.51876000  1
loop_
_geom_bond_atom_site_label_1
_geom_bond_atom_site_label_2
_geom_bond_distance
_geom_bond_site_symmetry_2
Cu0 O2 1.895862 1_555
Cu0 O12 1.898937 1_555
Cu0 O10 1.945961 1_555
Cu0 O14 1.948134 1_565
Cu0 O19 2.381445 1_555
Cu1 O3 1.895862 1_555
Cu1 O13 1.898937 1_555
Cu1 O11 1.945961 1_555
Cu1 O15 1.948134 1_545
Cu1 O18 2.381445 1_555
Cu2 O6 1.811481 1_555
Cu2 O13 1.863959 1_555
Cu2 O5 1.888835 1_555
Cu2 O1 1.903373 1_655
Cu3 O7 1.811481 1_555
Cu3 O12 1.863959 1_555
Cu3 O4 1.888835 1_555
Cu3 O0 1.903373 1_455
Cu4 O9 1.857015 1_554
Cu4 O8 1.857015 1_445
Cu4 O3 1.880089 1_455
Cu4 O2 1.880089 1_544
Cu5 O7 1.797298 1_555
Cu5 O6 1.797298 1_455
Cu5 O0 1.953252 1_455
Cu5 O1 1.953252 1_555
Cu6 O10 1.888855 1_554
Cu6 O11 1.888855 1_555
Cu6 O13 1.889003 1_555
Cu6 O12 1.889003 1_554
Cu6 O5 2.425013 1_555
Cu6 O4 2.425013 1_554
O0 Te0 1.991106 1_555
O1 Te1 1.991106 1_555
O2 Te0 2.215953 1_455
O3 Te1 2.215953 1_655
O4 S0 1.525782 1_555
O5 S1 1.525782 1_555
O8 Te0 1.912544 1_554
O9 Te1 1.912544 1_556
O10 Te0 2.026246 1_555
O11 Te1 2.026246 1_555
O14 S0 1.507098 1_555
O15 S1 1.507098 1_555
O16 S0 1.474291 1_555
O17 S1 1.474291 1_555
O18 S0 1.457526 1_555
O19 S1 1.457526 1_555
