# generated using pymatgen
data_Nb10Pb14O39
_symmetry_space_group_name_H-M   'P 1'
_cell_length_a   16.93651444
_cell_length_b   16.93651444
_cell_length_c   7.64924700
_cell_angle_alpha   90.00000000
_cell_angle_beta   90.00000000
_cell_angle_gamma   153.99186013
_symmetry_Int_Tables_number   1
_chemical_formula_structural   Nb10Pb14O39
_chemical_formula_sum   'Nb10 Pb14 O39'
_cell_volume   962.13319563
_cell_formula_units_Z   1
loop_
 _symmetry_equiv_pos_site_id
 _symmetry_equiv_pos_as_xyz
  1  'x, y, z'
loop_
 _atom_site_type_symbol
 _atom_site_label
 _atom_site_symmetry_multiplicity
 _atom_site_fract_x
 _atom_site_fract_y
 _atom_site_fract_z
 _atom_site_occupancy
  Nb  Nb0  1  0.66774700  0.83311100  0.50000000  1
  Nb  Nb1  1  0.00045100  0.99954900  0.24893400  1
  Nb  Nb2  1  0.33491300  0.66508700  0.75442900  1
  Nb  Nb3  1  0.33491300  0.66508700  0.24557100  1
  Nb  Nb4  1  0.83066800  0.66483300  0.00000000  1
  Nb  Nb5  1  0.16688900  0.33225300  0.50000000  1
  Nb  Nb6  1  0.66527700  0.33472300  0.74714900  1
  Nb  Nb7  1  0.66527700  0.33472300  0.25285100  1
  Nb  Nb8  1  0.00045100  0.99954900  0.75106600  1
  Nb  Nb9  1  0.33516700  0.16933200  0.00000000  1
  Pb  Pb0  1  0.50528000  0.99541900  0.50000000  1
  Pb  Pb1  1  0.66861300  0.83693700  0.00000000  1
  Pb  Pb2  1  0.16966900  0.83033100  0.25765200  1
  Pb  Pb3  1  0.16966900  0.83033100  0.74234800  1
  Pb  Pb4  1  0.49810300  0.50189700  0.25290200  1
  Pb  Pb5  1  0.16306300  0.33138700  0.00000000  1
  Pb  Pb6  1  0.99362200  0.50416800  0.00000000  1
  Pb  Pb7  1  0.00458100  0.49472000  0.50000000  1
  Pb  Pb8  1  0.83243700  0.66624200  0.50000000  1
  Pb  Pb9  1  0.49810300  0.50189700  0.74709800  1
  Pb  Pb10  1  0.82960700  0.17039300  0.23590700  1
  Pb  Pb11  1  0.82960700  0.17039300  0.76409300  1
  Pb  Pb12  1  0.33375800  0.16756300  0.50000000  1
  Pb  Pb13  1  0.49583200  0.00637800  0.00000000  1
  O  O0  1  0.77096300  0.85207600  0.31643200  1
  O  O1  1  0.77096300  0.85207600  0.68356800  1
  O  O2  1  0.57117900  0.81199000  0.30984000  1
  O  O3  1  0.57117900  0.81199000  0.69016000  1
  O  O4  1  0.48773200  0.89201100  0.20429000  1
  O  O5  1  0.48773200  0.89201100  0.79571000  1
  O  O6  1  0.13070200  0.86929800  0.50000000  1
  O  O7  1  0.02106800  0.97893200  0.50000000  1
  O  O8  1  0.09926400  0.90073600  0.00000000  1
  O  O9  1  0.32013100  0.67986900  0.50000000  1
  O  O10  1  0.22161200  0.77838800  0.50000000  1
  O  O11  1  0.44065500  0.55934500  0.50000000  1
  O  O12  1  0.36055500  0.63944500  0.00000000  1
  O  O13  1  0.84957900  0.77047800  0.81512800  1
  O  O14  1  0.10798900  0.51226800  0.79571000  1
  O  O15  1  0.10798900  0.51226800  0.20429000  1
  O  O16  1  0.18801000  0.42882100  0.69016000  1
  O  O17  1  0.18801000  0.42882100  0.30984000  1
  O  O18  1  0.84957900  0.77047800  0.18487200  1
  O  O19  1  0.14792400  0.22903700  0.68356800  1
  O  O20  1  0.81035500  0.56920900  0.81281400  1
  O  O21  1  0.81035500  0.56920900  0.18718600  1
  O  O22  1  0.89183700  0.48660300  0.70457500  1
  O  O23  1  0.89183700  0.48660300  0.29542500  1
  O  O24  1  0.14792400  0.22903700  0.31643200  1
  O  O25  1  0.53426200  0.46573800  0.50000000  1
  O  O26  1  0.55924600  0.44075400  0.00000000  1
  O  O27  1  0.68082100  0.31917900  0.00000000  1
  O  O28  1  0.63966000  0.36034000  0.50000000  1
  O  O29  1  0.87435200  0.12564800  0.00000000  1
  O  O30  1  0.89940400  0.10059600  0.50000000  1
  O  O31  1  0.97696500  0.02303500  0.00000000  1
  O  O32  1  0.78009100  0.21990900  0.00000000  1
  O  O33  1  0.51339700  0.10816300  0.29542500  1
  O  O34  1  0.51339700  0.10816300  0.70457500  1
  O  O35  1  0.43079100  0.18964500  0.18718600  1
  O  O36  1  0.43079100  0.18964500  0.81281400  1
  O  O37  1  0.22952200  0.15042100  0.18487200  1
  O  O38  1  0.22952200  0.15042100  0.81512800  1
loop_
_geom_bond_atom_site_label_1
_geom_bond_atom_site_label_2
_geom_bond_distance
_geom_bond_site_symmetry_2
Nb0 O2 1.966493 1_555
Nb0 O3 1.966493 1_555
Nb0 O30 1.992023 1_565
Nb0 O1 2.030142 1_555
Nb0 O0 2.030142 1_555
Nb0 O11 2.058338 1_555
Nb1 O37 2.000514 1_565
Nb1 O18 2.000514 1_455
Nb1 O7 2.037450 1_555
Nb1 O0 2.040150 1_455
Nb1 O24 2.040150 1_565
Nb1 O31 2.055884 1_465
Nb2 O14 1.920841 1_555
Nb2 O5 1.920841 1_555
Nb2 O9 2.006408 1_555
Nb2 O12 2.060274 1_556
Nb2 O16 2.132788 1_555
Nb2 O3 2.132788 1_555
Nb3 O15 1.920841 1_555
Nb3 O4 1.920841 1_555
Nb3 O9 2.006408 1_555
Nb3 O12 2.060274 1_555
Nb3 O17 2.132788 1_555
Nb3 O2 2.132788 1_555
Nb4 O21 1.946768 1_555
Nb4 O20 1.946768 1_554
Nb4 O8 1.996934 1_655
Nb4 O26 2.043615 1_555
Nb4 O18 2.067296 1_555
Nb4 O13 2.067296 1_554
Nb5 O17 1.966493 1_555
Nb5 O16 1.966493 1_555
Nb5 O30 1.992023 1_455
Nb5 O19 2.030142 1_555
Nb5 O24 2.030142 1_555
Nb5 O11 2.058338 1_555
Nb6 O34 1.924818 1_555
Nb6 O22 1.924818 1_555
Nb6 O27 2.001002 1_556
Nb6 O28 2.070948 1_555
Nb6 O36 2.126418 1_555
Nb6 O20 2.126418 1_555
Nb7 O33 1.924818 1_555
Nb7 O23 1.924818 1_555
Nb7 O27 2.001002 1_555
Nb7 O28 2.070948 1_555
Nb7 O35 2.126418 1_555
Nb7 O21 2.126418 1_555
Nb8 O38 2.000514 1_565
Nb8 O13 2.000514 1_455
Nb8 O7 2.037450 1_555
Nb8 O1 2.040150 1_455
Nb8 O19 2.040150 1_565
Nb8 O31 2.055884 1_466
Nb9 O35 1.946768 1_555
Nb9 O36 1.946768 1_554
Nb9 O8 1.996934 1_545
Nb9 O26 2.043615 1_555
Nb9 O37 2.067296 1_555
Nb9 O38 2.067296 1_554
O0 Pb4 2.738998 1_555
O0 Pb1 2.851378 1_555
O1 Pb9 2.738998 1_555
O1 Pb1 2.851378 1_556
O2 Pb1 2.695461 1_555
O3 Pb1 2.695461 1_556
O4 Pb13 2.394785 1_565
O4 Pb10 2.596928 1_565
O4 Pb0 2.708595 1_555
O5 Pb13 2.394785 1_566
O5 Pb11 2.596928 1_565
O5 Pb0 2.708595 1_555
O6 Pb3 2.256214 1_555
O6 Pb2 2.256214 1_555
O6 Pb8 2.473617 1_455
O6 Pb12 2.473617 1_565
O7 Pb8 2.800259 1_455
O7 Pb12 2.800259 1_565
O10 Pb7 2.202372 1_555
O10 Pb0 2.202372 1_555
O10 Pb2 2.524970 1_555
O10 Pb3 2.524970 1_555
O11 Pb9 2.677213 1_555
O11 Pb4 2.677213 1_555
O12 Pb5 2.653523 1_555
O12 Pb1 2.653523 1_555
O13 Pb9 2.779602 1_555
O13 Pb8 2.844311 1_555
O14 Pb6 2.394785 1_456
O14 Pb11 2.596928 1_455
O14 Pb7 2.708595 1_555
O15 Pb6 2.394785 1_455
O15 Pb10 2.596928 1_455
O15 Pb7 2.708595 1_555
O16 Pb5 2.695461 1_556
O17 Pb5 2.695461 1_555
O18 Pb4 2.779602 1_555
O18 Pb8 2.844311 1_555
O19 Pb9 2.738998 1_555
O19 Pb5 2.851378 1_556
O20 Pb8 2.731544 1_555
O21 Pb8 2.731544 1_555
O22 Pb7 2.375279 1_655
O22 Pb3 2.622442 1_655
O22 Pb6 2.691666 1_556
O23 Pb7 2.375279 1_655
O23 Pb2 2.622442 1_655
O23 Pb6 2.691666 1_555
O24 Pb4 2.738998 1_555
O24 Pb5 2.851378 1_555
O25 Pb9 2.235339 1_555
O25 Pb4 2.235339 1_555
O25 Pb8 2.491932 1_555
O25 Pb12 2.491932 1_555
O26 Pb4 2.795458 1_555
O26 Pb9 2.795458 1_554
O28 Pb8 2.663991 1_555
O28 Pb12 2.663991 1_555
O29 Pb5 2.329300 1_655
O29 Pb1 2.329300 1_545
O29 Pb10 2.331766 1_555
O29 Pb11 2.331766 1_554
O31 Pb1 2.760617 1_545
O31 Pb5 2.760617 1_655
O32 Pb6 2.227395 1_555
O32 Pb13 2.227395 1_555
O32 Pb10 2.434544 1_555
O32 Pb11 2.434544 1_554
O33 Pb0 2.375279 1_545
O33 Pb2 2.622442 1_545
O33 Pb13 2.691666 1_555
O34 Pb0 2.375279 1_545
O34 Pb3 2.622442 1_545
O34 Pb13 2.691666 1_556
O35 Pb12 2.731544 1_555
O36 Pb12 2.731544 1_555
O37 Pb4 2.779602 1_555
O37 Pb12 2.844311 1_555
O38 Pb9 2.779602 1_555
O38 Pb12 2.844311 1_555
