# generated using pymatgen
data_Li3MnCoO5
_symmetry_space_group_name_H-M   'P 1'
_cell_length_a   2.90567900
_cell_length_b   6.53412059
_cell_length_c   9.82868318
_cell_angle_alpha   100.92577462
_cell_angle_beta   91.52606128
_cell_angle_gamma   102.70850687
_symmetry_Int_Tables_number   1
_chemical_formula_structural   Li3MnCoO5
_chemical_formula_sum   'Li6 Mn2 Co2 O10'
_cell_volume   178.28134880
_cell_formula_units_Z   2
loop_
 _symmetry_equiv_pos_site_id
 _symmetry_equiv_pos_as_xyz
  1  'x, y, z'
loop_
 _atom_site_type_symbol
 _atom_site_label
 _atom_site_symmetry_multiplicity
 _atom_site_fract_x
 _atom_site_fract_y
 _atom_site_fract_z
 _atom_site_occupancy
  Li  Li0  1  0.81235400  0.61777200  0.39876300  1
  Li  Li1  1  0.00000000  0.00000000  0.00000000  1
  Li  Li2  1  0.39070600  0.80481500  0.20882600  1
  Li  Li3  1  0.60929400  0.19518500  0.79117400  1
  Li  Li4  1  0.18764600  0.38222800  0.60123700  1
  Li  Li5  1  0.50000000  0.00000000  0.50000000  1
  Mn  Mn0  1  0.91513700  0.81009400  0.69440100  1
  Mn  Mn1  1  0.08486300  0.18990600  0.30559900  1
  Co  Co0  1  0.30678300  0.59616500  0.89815600  1
  Co  Co1  1  0.69321700  0.40383500  0.10184400  1
  O  O0  1  0.35449900  0.70801400  0.56828000  1
  O  O1  1  0.53704400  0.11464300  0.16567000  1
  O  O2  1  0.95717500  0.92059600  0.34377700  1
  O  O3  1  0.16713100  0.30975800  0.96229000  1
  O  O4  1  0.78685100  0.51685300  0.75597000  1
  O  O5  1  0.21314900  0.48314700  0.24403000  1
  O  O6  1  0.46295600  0.88535700  0.83433000  1
  O  O7  1  0.83286900  0.69024200  0.03771000  1
  O  O8  1  0.04282500  0.07940400  0.65622300  1
  O  O9  1  0.64550100  0.29198600  0.43172000  1
loop_
_geom_bond_atom_site_label_1
_geom_bond_atom_site_label_2
_geom_bond_distance
_geom_bond_site_symmetry_2
Li0 O2 2.106061 1_555
Li0 O5 2.116810 1_655
Li0 O0 2.164333 1_655
Li0 O9 2.164975 1_555
Li0 O5 2.189998 1_555
Li0 O0 2.232573 1_555
Li1 O7 2.081169 1_445
Li1 O3 2.081169 1_554
Li1 O1 2.129698 1_555
Li1 O6 2.129698 1_444
Li1 O1 2.262692 1_455
Li1 O6 2.262692 1_544
Li2 O2 1.999085 1_555
Li2 O2 2.011569 1_455
Li2 O1 2.101311 1_565
Li2 O5 2.147468 1_555
Li2 O7 2.204534 1_455
Li2 O7 2.258477 1_555
Li3 O8 1.999085 1_555
Li3 O8 2.011569 1_655
Li3 O6 2.101311 1_545
Li3 O4 2.147468 1_555
Li3 O3 2.204534 1_655
Li3 O3 2.258477 1_555
Li4 O8 2.106061 1_555
Li4 O4 2.116810 1_455
Li4 O9 2.164333 1_455
Li4 O0 2.164975 1_555
Li4 O4 2.189998 1_555
Li4 O9 2.232573 1_555
Li5 O2 2.079327 1_445
Li5 O8 2.079327 1_655
Li5 O0 2.101112 1_545
Li5 O9 2.101112 1_555
Li5 O8 2.121650 1_555
Li5 O2 2.121650 1_545
Mn0 O8 1.829066 1_665
Mn0 O0 1.932927 1_555
Mn0 O0 1.938260 1_655
Mn0 O6 1.987389 1_655
Mn0 O6 1.995949 1_555
Mn0 O4 2.076964 1_555
Mn1 O2 1.829066 1_445
Mn1 O9 1.932927 1_555
Mn1 O9 1.938260 1_455
Mn1 O1 1.987389 1_455
Mn1 O1 1.995949 1_555
Mn1 O5 2.076964 1_555
Co0 O7 1.936812 1_556
Co0 O4 1.942291 1_455
Co0 O3 2.047167 1_555
Co0 O6 2.063334 1_555
Co0 O7 2.075791 1_456
Co0 O4 2.077196 1_555
Co1 O3 1.936812 1_554
Co1 O5 1.942291 1_655
Co1 O7 2.047167 1_555
Co1 O1 2.063334 1_555
Co1 O3 2.075791 1_654
Co1 O5 2.077196 1_555
