# generated using pymatgen
data_CsReN2
_symmetry_space_group_name_H-M   'P 1'
_cell_length_a   6.20313400
_cell_length_b   8.57714600
_cell_length_c   12.35868800
_cell_angle_alpha   90.00000000
_cell_angle_beta   90.00000000
_cell_angle_gamma   90.00000000
_symmetry_Int_Tables_number   1
_chemical_formula_structural   CsReN2
_chemical_formula_sum   'Cs8 Re8 N16'
_cell_volume   657.54629345
_cell_formula_units_Z   8
loop_
 _symmetry_equiv_pos_site_id
 _symmetry_equiv_pos_as_xyz
  1  'x, y, z'
loop_
 _atom_site_type_symbol
 _atom_site_label
 _atom_site_symmetry_multiplicity
 _atom_site_fract_x
 _atom_site_fract_y
 _atom_site_fract_z
 _atom_site_occupancy
  Cs  Cs0  1  0.75000000  0.12588400  0.50000000  1
  Cs  Cs1  1  0.25000000  0.87411600  0.00000000  1
  Cs  Cs2  1  0.25000000  0.87411600  0.50000000  1
  Cs  Cs3  1  0.75000000  0.12588400  0.00000000  1
  Cs  Cs4  1  0.81645000  0.37663300  0.75000000  1
  Cs  Cs5  1  0.31645000  0.62336700  0.75000000  1
  Cs  Cs6  1  0.18355000  0.62336700  0.25000000  1
  Cs  Cs7  1  0.68355000  0.37663300  0.25000000  1
  Re  Re0  1  0.25000000  0.37482900  0.50000000  1
  Re  Re1  1  0.75000000  0.62517100  0.00000000  1
  Re  Re2  1  0.75000000  0.62517100  0.50000000  1
  Re  Re3  1  0.25000000  0.37482900  0.00000000  1
  Re  Re4  1  0.28977400  0.12429900  0.75000000  1
  Re  Re5  1  0.78977400  0.87570100  0.75000000  1
  Re  Re6  1  0.71022600  0.87570100  0.25000000  1
  Re  Re7  1  0.21022600  0.12429900  0.25000000  1
  N  N0  1  0.55499500  0.01566100  0.75000000  1
  N  N1  1  0.05499500  0.98433900  0.75000000  1
  N  N2  1  0.44500500  0.98433900  0.25000000  1
  N  N3  1  0.94500500  0.01566100  0.25000000  1
  N  N4  1  0.26685100  0.24829900  0.87518800  1
  N  N5  1  0.76685100  0.75170100  0.62481200  1
  N  N6  1  0.73314900  0.75170100  0.37518800  1
  N  N7  1  0.23314900  0.24829900  0.12481200  1
  N  N8  1  0.73314900  0.75170100  0.12481200  1
  N  N9  1  0.23314900  0.24829900  0.37518800  1
  N  N10  1  0.26685100  0.24829900  0.62481200  1
  N  N11  1  0.76685100  0.75170100  0.87518800  1
  N  N12  1  0.00000000  0.50000000  0.00000000  1
  N  N13  1  0.50000000  0.50000000  0.50000000  1
  N  N14  1  0.00000000  0.50000000  0.50000000  1
  N  N15  1  0.50000000  0.50000000  0.00000000  1
loop_
_geom_bond_atom_site_label_1
_geom_bond_atom_site_label_2
_geom_bond_distance
_geom_bond_site_symmetry_2
Cs0 N0 3.450085 1_555
Cs0 N3 3.450085 1_555
Cs0 N10 3.530442 1_555
Cs0 N9 3.530442 1_655
Cs0 N5 3.562396 1_545
Cs0 N6 3.562396 1_545
Cs0 N14 3.563935 1_655
Cs0 N13 3.563935 1_555
Cs0 N10 3.709560 1_655
Cs0 N9 3.709560 1_555
Cs1 N2 3.450085 1_555
Cs1 N1 3.450085 1_554
Cs1 N8 3.530442 1_555
Cs1 N11 3.530442 1_454
Cs1 N7 3.562396 1_565
Cs1 N4 3.562396 1_564
Cs1 N15 3.563935 1_555
Cs1 N12 3.563935 1_555
Cs1 N8 3.709560 1_455
Cs1 N11 3.709560 1_554
Cs2 N2 3.450085 1_555
Cs2 N1 3.450085 1_555
Cs2 N5 3.530442 1_455
Cs2 N6 3.530442 1_555
Cs2 N10 3.562396 1_565
Cs2 N9 3.562396 1_565
Cs2 N13 3.563935 1_555
Cs2 N14 3.563935 1_555
Cs2 N5 3.709560 1_555
Cs2 N6 3.709560 1_455
Cs3 N3 3.450085 1_555
Cs3 N0 3.450085 1_554
Cs3 N7 3.530442 1_655
Cs3 N4 3.530442 1_554
Cs3 N8 3.562396 1_545
Cs3 N11 3.562396 1_544
Cs3 N15 3.563935 1_555
Cs3 N12 3.563935 1_655
Cs3 N7 3.709560 1_555
Cs3 N4 3.709560 1_654
Cs4 N4 3.378046 1_655
Cs4 N10 3.378046 1_655
Cs4 N14 3.458627 1_655
Cs4 N12 3.458627 1_656
Cs4 N0 3.495177 1_555
Cs4 N11 3.582951 1_555
Cs4 N5 3.582951 1_555
Cs4 N1 3.675761 1_645
Cs5 N11 3.378046 1_555
Cs5 N5 3.378046 1_555
Cs5 N13 3.458627 1_555
Cs5 N15 3.458627 1_556
Cs5 N1 3.495177 1_555
Cs5 N4 3.582951 1_555
Cs5 N10 3.582951 1_555
Cs5 N0 3.675761 1_565
Cs6 N6 3.378046 1_455
Cs6 N8 3.378046 1_455
Cs6 N14 3.458627 1_555
Cs6 N12 3.458627 1_555
Cs6 N2 3.495177 1_555
Cs6 N9 3.582951 1_555
Cs6 N7 3.582951 1_555
Cs6 N3 3.675761 1_465
Cs7 N9 3.378046 1_555
Cs7 N7 3.378046 1_555
Cs7 N15 3.458627 1_555
Cs7 N13 3.458627 1_555
Cs7 N3 3.495177 1_555
Cs7 N6 3.582951 1_555
Cs7 N8 3.582951 1_555
Cs7 N2 3.675761 1_545
N0 Re5 1.887352 1_545
N0 Re4 1.890753 1_555
N1 Re4 1.887352 1_565
N1 Re5 1.890753 1_455
N2 Re7 1.887352 1_565
N2 Re6 1.890753 1_555
N3 Re6 1.887352 1_545
N3 Re7 1.890753 1_655
N4 Re4 1.882842 1_555
N4 Re3 1.888935 1_556
N5 Re5 1.882842 1_555
N5 Re2 1.888935 1_555
N6 Re6 1.882842 1_555
N6 Re2 1.888935 1_555
N7 Re7 1.882842 1_555
N7 Re3 1.888935 1_555
N8 Re6 1.882842 1_555
N8 Re1 1.888935 1_555
N9 Re7 1.882842 1_555
N9 Re0 1.888935 1_555
N10 Re4 1.882842 1_555
N10 Re0 1.888935 1_555
N11 Re5 1.882842 1_555
N11 Re1 1.888935 1_556
N12 Re1 1.886152 1_455
N12 Re3 1.886152 1_555
N13 Re2 1.886152 1_555
N13 Re0 1.886152 1_555
N14 Re2 1.886152 1_455
N14 Re0 1.886152 1_555
N15 Re1 1.886152 1_555
N15 Re3 1.886152 1_555
