# generated using pymatgen
data_Na5Pr4Si4O16F
_symmetry_space_group_name_H-M   'P 1'
_cell_length_a   9.00863423
_cell_length_b   9.00863423
_cell_length_c   9.00863423
_cell_angle_alpha   95.39187478
_cell_angle_beta   95.39187478
_cell_angle_gamma   144.29825364
_symmetry_Int_Tables_number   1
_chemical_formula_structural   Na5Pr4Si4O16F
_chemical_formula_sum   'Na5 Pr4 Si4 O16 F1'
_cell_volume   406.10542576
_cell_formula_units_Z   1
loop_
 _symmetry_equiv_pos_site_id
 _symmetry_equiv_pos_as_xyz
  1  'x, y, z'
loop_
 _atom_site_type_symbol
 _atom_site_label
 _atom_site_symmetry_multiplicity
 _atom_site_fract_x
 _atom_site_fract_y
 _atom_site_fract_z
 _atom_site_occupancy
  Na  Na0  1  0.58119700  0.09677100  0.69401900  1
  Na  Na1  1  0.40275200  0.88717800  0.30598100  1
  Na  Na2  1  0.11282200  0.41880300  0.51557400  1
  Na  Na3  1  0.90322900  0.59724800  0.48442600  1
  Na  Na4  1  0.00000000  0.00000000  0.00000000  1
  Pr  Pr0  1  0.60166300  0.66895700  0.30256200  1
  Pr  Pr1  1  0.36639500  0.29910100  0.69743800  1
  Pr  Pr2  1  0.70089900  0.39833700  0.06729400  1
  Pr  Pr3  1  0.33104300  0.63360500  0.93270600  1
  Si  Si0  1  0.76009000  0.90642600  0.65119100  1
  Si  Si1  1  0.25523500  0.10889900  0.34880900  1
  Si  Si2  1  0.89110100  0.23991000  0.14633600  1
  Si  Si3  1  0.09357400  0.74476500  0.85366400  1
  O  O0  1  0.60081000  0.87901200  0.51127800  1
  O  O1  1  0.36773400  0.08953200  0.48872200  1
  O  O2  1  0.91046800  0.39919000  0.27820100  1
  O  O3  1  0.12098800  0.63226600  0.72179900  1
  O  O4  1  0.57754400  0.72291100  0.76382700  1
  O  O5  1  0.95908300  0.81371600  0.23617300  1
  O  O6  1  0.18628400  0.42245600  0.14536700  1
  O  O7  1  0.27708900  0.04091700  0.85463300  1
  O  O8  1  0.04535600  0.21777000  0.75375500  1
  O  O9  1  0.46401500  0.29160100  0.24624500  1
  O  O10  1  0.70839900  0.95464400  0.17241400  1
  O  O11  1  0.78223000  0.53598500  0.82758600  1
  O  O12  1  0.84043400  0.81248600  0.56928800  1
  O  O13  1  0.24319800  0.27114600  0.43071200  1
  O  O14  1  0.72885400  0.15956600  0.97205200  1
  O  O15  1  0.18751400  0.75680200  0.02794800  1
  F  F0  1  0.50000000  0.50000000  0.00000000  1
loop_
_geom_bond_atom_site_label_1
_geom_bond_atom_site_label_2
_geom_bond_distance
_geom_bond_site_symmetry_2
Na0 O1 2.495584 1_555
Na0 O14 2.499673 1_555
Na0 O0 2.569111 1_545
Na0 O3 2.641345 1_545
Na0 O11 2.727800 1_555
Na0 O3 2.902726 1_655
Na0 O7 2.914633 1_555
Na1 O0 2.495584 1_555
Na1 O15 2.499673 1_555
Na1 O1 2.569111 1_565
Na1 O2 2.641340 1_455
Na1 O10 2.727800 1_555
Na1 O2 2.902731 1_565
Na1 O6 2.914633 1_555
Na2 O3 2.495590 1_555
Na2 O13 2.499673 1_555
Na2 O2 2.569118 1_455
Na2 O0 2.641342 1_555
Na2 O8 2.727800 1_555
Na2 O0 2.902728 1_445
Na2 O4 2.914628 1_555
Na3 O2 2.495590 1_555
Na3 O12 2.499673 1_555
Na3 O3 2.569118 1_655
Na3 O1 2.641342 1_665
Na3 O9 2.727800 1_555
Na3 O1 2.902728 1_555
Na3 O5 2.914626 1_555
Na4 O6 2.700457 1_555
Na4 O7 2.700457 1_554
Na4 O4 2.700462 1_444
Na4 O5 2.700465 1_445
Na4 O9 2.936492 1_555
Na4 O11 2.936492 1_444
Na4 O8 2.936492 1_554
Na4 O10 2.936492 1_445
O0 Si0 1.653680 1_555
O0 Pr0 2.544382 1_555
O1 Si1 1.653680 1_555
O1 Pr1 2.544382 1_555
O2 Si2 1.653674 1_555
O2 Pr2 2.544375 1_555
O3 Si3 1.653674 1_555
O3 Pr3 2.544375 1_555
O4 Si0 1.637199 1_555
O4 Pr3 2.419999 1_555
O4 Pr1 2.472789 1_555
O5 Si1 1.637204 1_665
O5 Pr2 2.419996 1_555
O5 Pr0 2.472786 1_555
O6 Si2 1.637206 1_455
O6 Pr0 2.419992 1_555
O6 Pr3 2.472790 1_554
O7 Si3 1.637206 1_545
O7 Pr1 2.419992 1_555
O7 Pr2 2.472790 1_556
O8 Si0 1.638549 1_445
O8 Pr3 2.383831 1_555
O8 Pr1 2.462247 1_555
O9 Si1 1.638549 1_555
O9 Pr2 2.383831 1_555
O9 Pr0 2.462247 1_555
O10 Si2 1.638549 1_565
O10 Pr0 2.383831 1_555
O10 Pr3 2.462247 1_554
O11 Si3 1.638549 1_655
O11 Pr1 2.383831 1_555
O11 Pr2 2.462247 1_556
O12 Si0 1.662010 1_555
O12 Pr0 2.449479 1_555
O12 Pr1 2.699343 1_665
O13 Si1 1.662010 1_555
O13 Pr1 2.449479 1_555
O13 Pr0 2.699343 1_555
O14 Si2 1.662010 1_556
O14 Pr2 2.449479 1_556
O14 Pr3 2.699343 1_545
O15 Si3 1.662010 1_554
O15 Pr3 2.449479 1_554
O15 Pr2 2.699343 1_455
F0 Pr3 2.659310 1_554
F0 Pr0 2.659310 1_555
F0 Pr1 2.659310 1_554
F0 Pr2 2.659310 1_555
F0 Na4 2.761512 1_555
F0 Na4 2.761512 1_665
