# generated using pymatgen
data_Gd(BIr)4
_symmetry_space_group_name_H-M   'P 1'
_cell_length_a   3.98554900
_cell_length_b   7.67254600
_cell_length_c   7.67254600
_cell_angle_alpha   90.00000000
_cell_angle_beta   90.00000000
_cell_angle_gamma   90.00000000
_symmetry_Int_Tables_number   1
_chemical_formula_structural   Gd(BIr)4
_chemical_formula_sum   'Gd2 B8 Ir8'
_cell_volume   234.62114757
_cell_formula_units_Z   2
loop_
 _symmetry_equiv_pos_site_id
 _symmetry_equiv_pos_as_xyz
  1  'x, y, z'
loop_
 _atom_site_type_symbol
 _atom_site_label
 _atom_site_symmetry_multiplicity
 _atom_site_fract_x
 _atom_site_fract_y
 _atom_site_fract_z
 _atom_site_occupancy
  Gd  Gd0  1  0.25000000  0.25000000  0.25000000  1
  Gd  Gd1  1  0.75000000  0.75000000  0.75000000  1
  B  B0  1  0.36185900  0.90851900  0.02908700  1
  B  B1  1  0.36185900  0.59148100  0.47091300  1
  B  B2  1  0.86185900  0.52908700  0.09148100  1
  B  B3  1  0.86185900  0.97091300  0.40851900  1
  B  B4  1  0.63814100  0.09148100  0.97091300  1
  B  B5  1  0.63814100  0.40851900  0.52908700  1
  B  B6  1  0.13814100  0.47091300  0.90851900  1
  B  B7  1  0.13814100  0.02908700  0.59148100  1
  Ir  Ir0  1  0.13596700  0.40998100  0.64109500  1
  Ir  Ir1  1  0.13596700  0.09001900  0.85890500  1
  Ir  Ir2  1  0.63596700  0.14109500  0.59001900  1
  Ir  Ir3  1  0.63596700  0.35890500  0.90998100  1
  Ir  Ir4  1  0.86403300  0.59001900  0.35890500  1
  Ir  Ir5  1  0.86403300  0.90998100  0.14109500  1
  Ir  Ir6  1  0.36403300  0.85890500  0.40998100  1
  Ir  Ir7  1  0.36403300  0.64109500  0.09001900  1
loop_
_geom_bond_atom_site_label_1
_geom_bond_atom_site_label_2
_geom_bond_distance
_geom_bond_site_symmetry_2
B0 B4 1.839112 1_564
B0 Ir7 2.104427 1_555
B0 Ir1 2.110620 1_564
B0 Ir5 2.162259 1_455
B0 Ir5 2.178171 1_555
B0 Gd1 2.908181 1_554
B1 B5 1.839112 1_555
B1 Ir6 2.104427 1_555
B1 Ir0 2.110620 1_555
B1 Ir4 2.162259 1_455
B1 Ir4 2.178171 1_555
B1 Gd1 2.908181 1_555
B2 B6 1.839112 1_654
B2 Ir4 2.104427 1_555
B2 Ir3 2.110620 1_554
B2 Ir7 2.162259 1_555
B2 Ir7 2.178171 1_655
B2 Gd0 2.908181 1_655
B3 B7 1.839112 1_665
B3 Ir5 2.104427 1_555
B3 Ir2 2.110620 1_565
B3 Ir6 2.162259 1_555
B3 Ir6 2.178171 1_655
B3 Gd0 2.908181 1_665
B4 Ir3 2.104427 1_555
B4 Ir5 2.110620 1_546
B4 Ir1 2.162259 1_655
B4 Ir1 2.178171 1_555
B4 Gd0 2.908181 1_556
B5 Ir2 2.104427 1_555
B5 Ir4 2.110620 1_555
B5 Ir0 2.162259 1_655
B5 Ir0 2.178171 1_555
B5 Gd0 2.908181 1_555
B6 Ir0 2.104427 1_555
B6 Ir7 2.110620 1_556
B6 Ir3 2.162259 1_555
B6 Ir3 2.178171 1_455
B6 Gd1 2.908181 1_455
B7 Ir1 2.104427 1_555
B7 Ir6 2.110620 1_545
B7 Ir2 2.162259 1_555
B7 Ir2 2.178171 1_455
B7 Gd1 2.908181 1_445
