# generated using pymatgen
data_Ca8Ti3Mn5O23
_symmetry_space_group_name_H-M   'P 1'
_cell_length_a   10.93632409
_cell_length_b   15.41561241
_cell_length_c   10.77490483
_cell_angle_alpha   90.09028025
_cell_angle_beta   90.44025952
_cell_angle_gamma   90.04874530
_symmetry_Int_Tables_number   1
_chemical_formula_structural   Ca8Ti3Mn5O23
_chemical_formula_sum   'Ca32 Ti12 Mn20 O92'
_cell_volume   1816.48608394
_cell_formula_units_Z   4
loop_
 _symmetry_equiv_pos_site_id
 _symmetry_equiv_pos_as_xyz
  1  'x, y, z'
loop_
 _atom_site_type_symbol
 _atom_site_label
 _atom_site_symmetry_multiplicity
 _atom_site_fract_x
 _atom_site_fract_y
 _atom_site_fract_z
 _atom_site_occupancy
  Ca  Ca0  1  0.01331196  0.12132123  0.50421182  1
  Ca  Ca1  1  0.01431951  0.11815058  0.99672384  1
  Ca  Ca2  1  0.02031236  0.62578735  0.49897279  1
  Ca  Ca3  1  0.01433604  0.62613268  0.99408088  1
  Ca  Ca4  1  0.53034229  0.13175298  0.50586220  1
  Ca  Ca5  1  0.53709307  0.12280514  0.97369185  1
  Ca  Ca6  1  0.52636075  0.62444680  0.49785114  1
  Ca  Ca7  1  0.52671490  0.62539726  0.99349047  1
  Ca  Ca8  1  0.49518570  0.38224617  0.99526387  1
  Ca  Ca9  1  0.48034473  0.38402419  0.50710843  1
  Ca  Ca10  1  0.48929945  0.87024755  0.99680542  1
  Ca  Ca11  1  0.48352888  0.86447530  0.51282477  1
  Ca  Ca12  1  0.96590519  0.38607019  0.99851229  1
  Ca  Ca13  1  0.97454930  0.38117305  0.50606434  1
  Ca  Ca14  1  0.97302699  0.86961098  0.00329957  1
  Ca  Ca15  1  0.96857694  0.86936316  0.50596121  1
  Ca  Ca16  1  0.23305069  0.39042179  0.25669254  1
  Ca  Ca17  1  0.22836104  0.38303026  0.73717386  1
  Ca  Ca18  1  0.23052155  0.87293138  0.24612803  1
  Ca  Ca19  1  0.23196042  0.86643009  0.74837795  1
  Ca  Ca20  1  0.72714876  0.38287010  0.24390443  1
  Ca  Ca21  1  0.72367128  0.37894502  0.74655271  1
  Ca  Ca22  1  0.72814694  0.86679288  0.24605493  1
  Ca  Ca23  1  0.72439836  0.87150496  0.74446396  1
  Ca  Ca24  1  0.24503960  0.12115737  0.26405742  1
  Ca  Ca25  1  0.27749621  0.11924420  0.73908711  1
  Ca  Ca26  1  0.27737081  0.62658859  0.26214238  1
  Ca  Ca27  1  0.27220184  0.62500336  0.75161031  1
  Ca  Ca28  1  0.77433267  0.11868029  0.25382428  1
  Ca  Ca29  1  0.76716985  0.12539114  0.75321512  1
  Ca  Ca30  1  0.76421516  0.62531326  0.25296525  1
  Ca  Ca31  1  0.77209481  0.62567154  0.75533341  1
  Ti  Ti0  1  0.99599542  0.99552466  0.24930535  1
  Ti  Ti1  1  0.98871801  0.99697868  0.75598465  1
  Ti  Ti2  1  0.99660350  0.50194051  0.25044604  1
  Ti  Ti3  1  0.25140750  0.99604697  0.99655160  1
  Ti  Ti4  1  0.23230113  0.99168354  0.51196793  1
  Ti  Ti5  1  0.24994823  0.50369182  0.00574882  1
  Ti  Ti6  1  0.25733240  0.24523323  0.96721281  1
  Ti  Ti7  1  0.24572645  0.25348257  0.50066522  1
  Ti  Ti8  1  0.25156640  0.74698394  0.00353129  1
  Ti  Ti9  1  0.98791497  0.25032824  0.26750519  1
  Ti  Ti10  1  0.98888701  0.25192873  0.74882720  1
  Ti  Ti11  1  0.99908627  0.74842765  0.25175868  1
  Mn  Mn0  1  0.00064270  0.50112494  0.74929680  1
  Mn  Mn1  1  0.50680219  0.98964614  0.24452704  1
  Mn  Mn2  1  0.50249870  0.99915650  0.74857227  1
  Mn  Mn3  1  0.50009267  0.50358064  0.25161287  1
  Mn  Mn4  1  0.50059590  0.50140881  0.74928897  1
  Mn  Mn5  1  0.25174192  0.50386460  0.50055908  1
  Mn  Mn6  1  0.74781279  0.99817659  0.99929729  1
  Mn  Mn7  1  0.74521850  0.00052890  0.50022462  1
  Mn  Mn8  1  0.74741418  0.50163325  0.99941388  1
  Mn  Mn9  1  0.75027744  0.50059544  0.50207146  1
  Mn  Mn10  1  0.25220356  0.74817555  0.49994122  1
  Mn  Mn11  1  0.75039387  0.24959887  0.00064785  1
  Mn  Mn12  1  0.74730424  0.25164816  0.50163247  1
  Mn  Mn13  1  0.74880809  0.75020258  0.99973381  1
  Mn  Mn14  1  0.74991690  0.74838460  0.50193076  1
  Mn  Mn15  1  0.00092276  0.74901928  0.74998478  1
  Mn  Mn16  1  0.51534475  0.25578361  0.26095340  1
  Mn  Mn17  1  0.50459116  0.25124457  0.74484971  1
  Mn  Mn18  1  0.50050749  0.74817887  0.25301899  1
  Mn  Mn19  1  0.50146196  0.74739181  0.75102702  1
  O  O0  1  0.10275432  0.26445757  0.59334733  1
  O  O1  1  0.10804136  0.77113056  0.10528766  1
  O  O2  1  0.10611722  0.77199540  0.60424342  1
  O  O3  1  0.58808224  0.26047912  0.10235177  1
  O  O4  1  0.60187765  0.27002705  0.59399042  1
  O  O5  1  0.60577299  0.77125437  0.10637123  1
  O  O6  1  0.60745130  0.76662899  0.60710057  1
  O  O7  1  0.39682506  0.21150698  0.36766197  1
  O  O8  1  0.40320917  0.22826053  0.89861108  1
  O  O9  1  0.39657403  0.72555027  0.39695245  1
  O  O10  1  0.39468112  0.73165887  0.89491328  1
  O  O11  1  0.89990158  0.22991076  0.40363752  1
  O  O12  1  0.90261954  0.23211597  0.89808285  1
  O  O13  1  0.89396336  0.73228149  0.39552564  1
  O  O14  1  0.89739616  0.73174062  0.89620527  1
  O  O15  1  0.15080656  0.24072534  0.33678821  1
  O  O16  1  0.14975887  0.22898982  0.84252493  1
  O  O17  1  0.14605304  0.73206770  0.35505888  1
  O  O18  1  0.14624939  0.73115404  0.85495700  1
  O  O19  1  0.65626722  0.22359517  0.35163615  1
  O  O20  1  0.65171060  0.23051193  0.85384617  1
  O  O21  1  0.64593073  0.72863871  0.35408857  1
  O  O22  1  0.64552164  0.72902401  0.85489873  1
  O  O23  1  0.35155288  0.26541837  0.63810677  1
  O  O24  1  0.35631133  0.76945354  0.14528915  1
  O  O25  1  0.35538377  0.76918801  0.64495427  1
  O  O26  1  0.86427492  0.27232693  0.14419622  1
  O  O27  1  0.85198746  0.27205051  0.64851381  1
  O  O28  1  0.85705793  0.76956176  0.14356219  1
  O  O29  1  0.85714698  0.77204035  0.64696170  1
  O  O30  1  0.35680636  0.48614543  0.14592991  1
  O  O31  1  0.35536483  0.48130694  0.64429748  1
  O  O32  1  0.35237236  0.99870829  0.16053923  1
  O  O33  1  0.35637152  0.98343285  0.64042525  1
  O  O34  1  0.85556262  0.48150747  0.14362419  1
  O  O35  1  0.85665260  0.47704367  0.64655900  1
  O  O36  1  0.85294832  0.97987756  0.14628139  1
  O  O37  1  0.85326753  0.97944313  0.64564440  1
  O  O38  1  0.14587757  0.01210696  0.35728142  1
  O  O39  1  0.14640803  0.02525566  0.86041183  1
  O  O40  1  0.14718731  0.51879929  0.35497230  1
  O  O41  1  0.14737681  0.51485947  0.85493464  1
  O  O42  1  0.63005684  0.02913101  0.35818132  1
  O  O43  1  0.64841645  0.02008305  0.84939987  1
  O  O44  1  0.64727144  0.51891774  0.35303410  1
  O  O45  1  0.64496172  0.52090933  0.85384924  1
  O  O46  1  0.39410847  0.02218402  0.89627282  1
  O  O47  1  0.39691476  0.52254747  0.39534505  1
  O  O48  1  0.39307702  0.51231495  0.89548732  1
  O  O49  1  0.89090752  0.02106368  0.39383637  1
  O  O50  1  0.89505687  0.01644761  0.89665954  1
  O  O51  1  0.89567403  0.51646718  0.39565167  1
  O  O52  1  0.89692039  0.51745138  0.89739208  1
  O  O53  1  0.10526632  0.48244594  0.10442244  1
  O  O54  1  0.10586010  0.47971033  0.60554067  1
  O  O55  1  0.10604880  0.98329704  0.10477555  1
  O  O56  1  0.10065308  0.97730908  0.60631336  1
  O  O57  1  0.60634825  0.48115383  0.10600063  1
  O  O58  1  0.60652527  0.48080168  0.60497087  1
  O  O59  1  0.60318514  0.98591132  0.09532298  1
  O  O60  1  0.59945678  0.98028968  0.59925599  1
  O  O61  1  0.01435327  0.37444383  0.27778960  1
  O  O62  1  0.01449602  0.37481393  0.78498869  1
  O  O63  1  0.00828502  0.87548573  0.28639484  1
  O  O64  1  0.01359323  0.87474397  0.78860276  1
  O  O65  1  0.49627803  0.37798108  0.28571950  1
  O  O66  1  0.50717116  0.37494122  0.78252824  1
  O  O67  1  0.50579066  0.87220879  0.29625965  1
  O  O68  1  0.50721220  0.87463261  0.78410339  1
  O  O69  1  0.49364094  0.12595934  0.71572199  1
  O  O70  1  0.49200102  0.62547558  0.20818797  1
  O  O71  1  0.48794199  0.62378970  0.71406828  1
  O  O72  1  0.99883984  0.12814008  0.21427923  1
  O  O73  1  0.98878853  0.12397346  0.71454277  1
  O  O74  1  0.99146823  0.62539016  0.21363700  1
  O  O75  1  0.98910321  0.62484232  0.71146626  1
  O  O76  1  0.22878742  0.15010811  0.06251933  1
  O  O77  1  0.24539180  0.11971331  0.51904652  1
  O  O78  1  0.23935952  0.62483986  0.03860425  1
  O  O79  1  0.23549560  0.62607973  0.53977363  1
  O  O80  1  0.74586817  0.12420734  0.03879957  1
  O  O81  1  0.74349338  0.12645879  0.54157387  1
  O  O82  1  0.74299722  0.62578210  0.03739875  1
  O  O83  1  0.74424175  0.62336583  0.53863428  1
  O  O84  1  0.26399288  0.37407834  0.46445508  1
  O  O85  1  0.25544205  0.36108990  0.00754576  1
  O  O86  1  0.26970767  0.87740271  0.45831965  1
  O  O87  1  0.26415417  0.87917267  0.96823526  1
  O  O88  1  0.75999859  0.37422680  0.45847075  1
  O  O89  1  0.75135579  0.37536544  0.96493421  1
  O  O90  1  0.75504800  0.87607521  0.46141036  1
  O  O91  1  0.75630600  0.87481116  0.96119986  1
loop_
_geom_bond_atom_site_label_1
_geom_bond_atom_site_label_2
_geom_bond_distance
_geom_bond_site_symmetry_2
Ca0 O73 2.284462 1_455
Ca0 O11 2.345947 1_455
Ca0 O49 2.358237 1_455
Ca0 O77 2.542047 1_555
Ca0 O0 2.592922 1_555
Ca0 O56 2.654505 1_545
Ca0 O38 2.733828 1_555
Ca1 O50 2.300280 1_455
Ca1 O72 2.356346 1_456
Ca1 O12 2.387051 1_455
Ca1 O76 2.493592 1_556
Ca1 O39 2.514796 1_555
Ca1 O55 2.583929 1_546
Ca1 O16 2.813619 1_555
Ca2 O75 2.317556 1_455
Ca2 O79 2.390701 1_555
Ca2 O13 2.415120 1_455
Ca2 O51 2.429870 1_455
Ca2 O17 2.648920 1_555
Ca2 O40 2.661161 1_555
Ca2 O2 2.686850 1_555
Ca2 O54 2.694426 1_555
Ca3 O14 2.320861 1_455
Ca3 O52 2.347655 1_455
Ca3 O74 2.380833 1_456
Ca3 O78 2.503735 1_556
Ca3 O18 2.643168 1_555
Ca3 O53 2.702339 1_556
Ca3 O41 2.708670 1_555
Ca3 O1 2.729658 1_556
Ca4 O69 2.301460 1_555
Ca4 O81 2.361216 1_555
Ca4 O7 2.415890 1_555
Ca4 O4 2.456977 1_555
Ca4 O42 2.499123 1_555
Ca4 O19 2.588785 1_555
Ca4 O60 2.652255 1_545
Ca5 O8 2.330471 1_555
Ca5 O46 2.349228 1_555
Ca5 O80 2.383488 1_556
Ca5 O43 2.409353 1_555
Ca5 O20 2.454318 1_555
Ca5 O59 2.586533 1_546
Ca5 O3 2.591118 1_556
Ca5 O69 2.816830 1_555
Ca6 O9 2.368787 1_555
Ca6 O71 2.370514 1_555
Ca6 O47 2.378711 1_555
Ca6 O83 2.419752 1_555
Ca6 O21 2.593197 1_555
Ca6 O44 2.618621 1_555
Ca6 O6 2.636053 1_555
Ca6 O58 2.645766 1_555
Ca7 O70 2.347165 1_556
Ca7 O82 2.408618 1_556
Ca7 O10 2.425384 1_555
Ca7 O48 2.501218 1_555
Ca7 O22 2.550275 1_555
Ca7 O45 2.560571 1_555
Ca7 O57 2.677324 1_556
Ca7 O5 2.693406 1_556
Ca8 O57 2.279303 1_556
Ca8 O66 2.299544 1_555
Ca8 O3 2.424697 1_556
Ca8 O48 2.532853 1_555
Ca8 O85 2.646191 1_556
Ca8 O30 2.743130 1_556
Ca8 O8 2.775475 1_555
Ca8 O89 2.825110 1_555
Ca9 O58 2.282771 1_555
Ca9 O4 2.391904 1_555
Ca9 O65 2.394808 1_555
Ca9 O84 2.411551 1_555
Ca9 O31 2.515918 1_555
Ca9 O47 2.614815 1_555
Ca9 O23 2.711733 1_555
Ca10 O68 2.302794 1_555
Ca10 O5 2.308884 1_556
Ca10 O59 2.413958 1_556
Ca10 O87 2.483041 1_555
Ca10 O10 2.609946 1_555
Ca10 O24 2.670019 1_556
Ca10 O46 2.781696 1_565
Ca10 O91 2.948880 1_555
Ca10 O32 3.051414 1_556
Ca11 O6 2.265148 1_555
Ca11 O67 2.351195 1_555
Ca11 O60 2.373798 1_555
Ca11 O86 2.415135 1_555
Ca11 O25 2.486433 1_555
Ca11 O9 2.649433 1_555
Ca11 O33 2.685662 1_555
Ca12 O62 2.371369 1_655
Ca12 O89 2.376919 1_555
Ca12 O53 2.407593 1_656
Ca12 O52 2.419746 1_555
Ca12 O34 2.467840 1_556
Ca12 O26 2.608843 1_556
Ca12 O12 2.694466 1_555
Ca13 O54 2.342226 1_655
Ca13 O88 2.400194 1_555
Ca13 O0 2.465150 1_655
Ca13 O35 2.482835 1_555
Ca13 O61 2.503159 1_655
Ca13 O51 2.550383 1_555
Ca13 O27 2.649178 1_555
Ca13 O11 2.701219 1_555
Ca14 O64 2.360276 1_654
Ca14 O1 2.382585 1_655
Ca14 O91 2.411148 1_554
Ca14 O28 2.510941 1_555
Ca14 O55 2.519611 1_655
Ca14 O14 2.550968 1_554
Ca14 O36 2.648413 1_555
Ca14 O50 2.677236 1_564
Ca15 O2 2.370936 1_655
Ca15 O90 2.382800 1_555
Ca15 O63 2.410592 1_655
Ca15 O56 2.447623 1_655
Ca15 O29 2.465084 1_555
Ca15 O13 2.553746 1_555
Ca15 O37 2.599985 1_555
Ca15 O49 2.765223 1_565
Ca16 O84 2.275894 1_555
Ca16 O30 2.336793 1_555
Ca16 O61 2.416675 1_555
Ca16 O40 2.435470 1_555
Ca16 O53 2.575420 1_555
Ca16 O15 2.625604 1_555
Ca16 O85 2.734521 1_555
Ca16 O65 2.899833 1_555
Ca17 O31 2.290946 1_555
Ca17 O62 2.402110 1_555
Ca17 O54 2.451244 1_555
Ca17 O23 2.502377 1_555
Ca17 O41 2.556673 1_555
Ca17 O0 2.753871 1_555
Ca17 O16 2.772432 1_555
Ca17 O85 2.946022 1_556
Ca18 O86 2.323828 1_555
Ca18 O24 2.374628 1_555
Ca18 O63 2.472489 1_555
Ca18 O32 2.530981 1_555
Ca18 O1 2.552959 1_555
Ca18 O38 2.628061 1_565
Ca18 O17 2.639635 1_555
Ca18 O55 2.654737 1_555
Ca19 O25 2.309163 1_555
Ca19 O87 2.400006 1_555
Ca19 O64 2.433868 1_555
Ca19 O2 2.526242 1_555
Ca19 O33 2.546409 1_555
Ca19 O18 2.562602 1_555
Ca19 O56 2.702875 1_555
Ca19 O39 2.887766 1_565
Ca19 O68 3.034323 1_555
Ca20 O34 2.340240 1_555
Ca20 O88 2.340969 1_555
Ca20 O57 2.495819 1_555
Ca20 O26 2.516039 1_555
Ca20 O44 2.560349 1_555
Ca20 O65 2.569231 1_555
Ca20 O19 2.827814 1_555
Ca20 O3 2.854734 1_555
Ca21 O35 2.363955 1_555
Ca21 O89 2.370865 1_555
Ca21 O66 2.402931 1_555
Ca21 O27 2.412838 1_555
Ca21 O58 2.532783 1_555
Ca21 O45 2.622493 1_555
Ca21 O20 2.685314 1_555
Ca21 O4 2.692470 1_555
Ca22 O28 2.340106 1_555
Ca22 O90 2.340905 1_555
Ca22 O36 2.466170 1_555
Ca22 O5 2.486798 1_555
Ca22 O67 2.496693 1_555
Ca22 O21 2.592271 1_555
Ca22 O59 2.803021 1_555
Ca23 O91 2.359047 1_555
Ca23 O29 2.363169 1_555
Ca23 O68 2.417050 1_555
Ca23 O37 2.431737 1_555
Ca23 O6 2.529833 1_555
Ca23 O22 2.646721 1_555
Ca23 O60 2.665824 1_555
Ca23 O43 2.687838 1_565
Ca24 O76 2.223437 1_555
Ca24 O38 2.242774 1_555
Ca24 O15 2.254933 1_555
Ca24 O7 2.429871 1_555
Ca24 O32 2.490457 1_545
Ca24 O72 2.743613 1_455
Ca24 O77 2.747582 1_555
Ca25 O69 2.381301 1_555
Ca25 O77 2.394125 1_555
Ca25 O39 2.427906 1_555
Ca25 O16 2.465341 1_555
Ca25 O33 2.503515 1_545
Ca25 O46 2.590691 1_555
Ca25 O23 2.633558 1_555
Ca25 O8 2.760354 1_555
Ca26 O17 2.393681 1_555
Ca26 O40 2.410728 1_555
Ca26 O70 2.422587 1_555
Ca26 O78 2.441166 1_555
Ca26 O9 2.469269 1_555
Ca26 O47 2.514656 1_555
Ca26 O30 2.649778 1_555
Ca26 O24 2.683871 1_555
Ca27 O79 2.314599 1_555
Ca27 O71 2.396974 1_555
Ca27 O18 2.415943 1_555
Ca27 O41 2.451813 1_555
Ca27 O10 2.614974 1_555
Ca27 O31 2.661329 1_555
Ca27 O25 2.666325 1_555
Ca27 O48 2.673843 1_555
Ca28 O19 2.326538 1_555
Ca28 O80 2.337015 1_555
Ca28 O42 2.384968 1_555
Ca28 O49 2.479242 1_555
Ca28 O72 2.499380 1_555
Ca28 O36 2.582828 1_545
Ca28 O11 2.717521 1_555
Ca28 O26 2.827653 1_555
Ca29 O81 2.293176 1_555
Ca29 O20 2.327038 1_555
Ca29 O43 2.327781 1_555
Ca29 O73 2.462515 1_555
Ca29 O50 2.672910 1_555
Ca29 O27 2.695387 1_555
Ca29 O12 2.699970 1_555
Ca29 O37 2.702616 1_545
Ca30 O21 2.327530 1_555
Ca30 O82 2.332519 1_555
Ca30 O44 2.347670 1_555
Ca30 O74 2.524388 1_555
Ca30 O13 2.654557 1_555
Ca30 O51 2.687811 1_555
Ca30 O34 2.704458 1_555
Ca30 O28 2.718106 1_555
Ca31 O83 2.352585 1_555
Ca31 O22 2.372057 1_555
Ca31 O45 2.385856 1_555
Ca31 O75 2.423484 1_555
Ca31 O14 2.609943 1_555
Ca31 O52 2.639982 1_555
Ca31 O29 2.709485 1_555
Ca31 O35 2.736819 1_555
Mn0 O35 1.952923 1_455
Mn0 O75 1.954861 1_455
Mn0 O54 1.964375 1_555
Mn0 O41 1.971337 1_555
Mn0 O52 1.980760 1_455
Mn0 O62 1.991044 1_555
Mn1 O67 1.895127 1_555
Mn1 O42 1.912600 1_565
Mn1 O32 1.915241 1_555
Mn1 O59 1.929977 1_555
Mn2 O43 1.949953 1_565
Mn2 O60 1.955170 1_555
Mn2 O68 1.958652 1_555
Mn2 O33 1.985032 1_555
Mn2 O69 1.989389 1_565
Mn2 O46 2.022828 1_565
Mn3 O70 1.939108 1_555
Mn3 O47 1.945048 1_555
Mn3 O30 1.948178 1_555
Mn3 O44 1.952542 1_555
Mn3 O65 1.971797 1_555
Mn3 O57 1.989597 1_555
Mn4 O71 1.929828 1_555
Mn4 O45 1.955289 1_555
Mn4 O31 1.966959 1_555
Mn4 O58 1.971753 1_555
Mn4 O48 1.979992 1_555
Mn4 O66 1.984019 1_555
Mn5 O79 1.938776 1_555
Mn5 O31 1.944033 1_555
Mn5 O40 1.948142 1_555
Mn5 O47 1.979072 1_555
Mn5 O54 1.997892 1_555
Mn5 O84 2.042310 1_555
Mn6 O59 1.906123 1_556
Mn6 O91 1.947364 1_555
Mn6 O43 1.969692 1_565
Mn6 O36 1.970739 1_556
Mn6 O50 1.980668 1_565
Mn6 O80 1.988429 1_566
Mn7 O60 1.950240 1_545
Mn7 O90 1.966147 1_545
Mn7 O37 1.982652 1_545
Mn7 O81 1.991210 1_555
Mn7 O49 1.995302 1_555
Mn7 O42 2.023981 1_555
Mn8 O45 1.943904 1_555
Mn8 O57 1.956075 1_556
Mn8 O82 1.957188 1_556
Mn8 O34 1.970660 1_556
Mn8 O89 1.981625 1_555
Mn8 O52 1.992244 1_555
Mn9 O83 1.933827 1_555
Mn9 O58 1.954735 1_555
Mn9 O35 1.970691 1_555
Mn9 O44 1.975288 1_555
Mn9 O51 1.982770 1_555
Mn9 O88 2.006276 1_555
Mn10 O79 1.939940 1_555
Mn10 O25 1.946879 1_555
Mn10 O17 1.953661 1_555
Mn10 O9 1.967888 1_555
Mn10 O2 1.994400 1_555
Mn10 O86 2.051775 1_555
Mn11 O20 1.930048 1_554
Mn11 O89 1.977218 1_554
Mn11 O80 1.977506 1_555
Mn11 O26 2.008524 1_555
Mn11 O12 2.023256 1_554
Mn11 O3 2.099951 1_555
Mn12 O4 1.903751 1_555
Mn12 O19 1.939764 1_555
Mn12 O88 1.951808 1_555
Mn12 O27 1.970863 1_555
Mn12 O81 1.978411 1_555
Mn12 O11 2.009770 1_555
Mn13 O22 1.946440 1_555
Mn13 O82 1.962187 1_556
Mn13 O28 1.965199 1_556
Mn13 O91 1.967691 1_555
Mn13 O5 1.974795 1_556
Mn13 O14 1.998413 1_555
Mn14 O6 1.953874 1_555
Mn14 O83 1.969032 1_555
Mn14 O13 1.971120 1_555
Mn14 O21 1.973217 1_555
Mn14 O29 1.979784 1_555
Mn14 O90 2.017766 1_555
Mn15 O29 1.950878 1_455
Mn15 O75 1.962044 1_455
Mn15 O18 1.963481 1_555
Mn15 O14 1.965524 1_455
Mn15 O2 1.985896 1_555
Mn15 O64 1.986147 1_555
Mn16 O7 1.868632 1_555
Mn16 O19 1.885694 1_555
Mn16 O3 1.891986 1_555
Mn16 O65 1.913933 1_555
Mn17 O66 1.949109 1_555
Mn17 O69 1.959609 1_555
Mn17 O4 1.971195 1_555
Mn17 O20 2.010759 1_555
Mn17 O8 2.032027 1_555
Mn17 O23 2.035583 1_555
Mn18 O21 1.944551 1_555
Mn18 O70 1.953476 1_555
Mn18 O9 1.961371 1_555
Mn18 O67 1.967927 1_555
Mn18 O24 1.978830 1_555
Mn18 O5 1.994401 1_555
Mn19 O22 1.946692 1_555
Mn19 O71 1.951212 1_555
Mn19 O10 1.963339 1_555
Mn19 O6 1.965957 1_555
Mn19 O25 1.986310 1_555
Mn19 O68 1.993910 1_555
O0 Ti7 1.869394 1_555
O0 Ti10 2.104112 1_455
O1 Ti8 1.957192 1_555
O1 Ti11 2.015689 1_455
O7 Ti7 2.288756 1_555
O8 Ti6 1.782757 1_555
O10 Ti8 1.975633 1_556
O11 Ti9 1.788779 1_555
O12 Ti10 1.895814 1_555
O13 Ti11 1.952280 1_555
O15 Ti9 1.932117 1_455
O15 Ti7 2.050505 1_555
O16 Ti6 1.796078 1_555
O16 Ti10 2.052923 1_455
O17 Ti11 1.964663 1_455
O18 Ti8 1.979621 1_556
O23 Ti7 1.881191 1_555
O24 Ti8 1.932876 1_555
O26 Ti9 1.919178 1_555
O27 Ti10 1.866283 1_555
O28 Ti11 1.962682 1_555
O30 Ti5 1.922237 1_555
O32 Ti3 2.076712 1_554
O33 Ti4 1.935212 1_555
O34 Ti2 1.942669 1_555
O36 Ti0 1.926045 1_555
O37 Ti1 1.911060 1_555
O38 Ti4 1.936076 1_545
O38 Ti0 2.018615 1_445
O39 Ti3 1.910551 1_545
O39 Ti1 2.097021 1_445
O40 Ti2 2.004473 1_455
O41 Ti5 1.975302 1_556
O46 Ti3 1.947197 1_545
O48 Ti5 1.976878 1_556
O49 Ti0 1.981763 1_545
O50 Ti1 1.860042 1_545
O51 Ti2 1.934496 1_555
O53 Ti5 1.940970 1_555
O53 Ti2 2.001487 1_455
O55 Ti0 1.984330 1_455
O55 Ti3 1.988522 1_554
O56 Ti4 1.782703 1_555
O56 Ti1 2.054438 1_455
O61 Ti9 1.937670 1_455
O61 Ti2 1.997256 1_455
O62 Ti10 1.952924 1_455
O63 Ti0 1.898408 1_455
O63 Ti11 1.995646 1_455
O64 Ti1 1.936412 1_455
O72 Ti9 1.972101 1_555
O72 Ti0 2.079727 1_545
O73 Ti10 2.006228 1_555
O73 Ti1 2.008668 1_545
O74 Ti11 1.941617 1_555
O74 Ti2 1.945323 1_555
O76 Ti6 1.819691 1_554
O76 Ti3 2.491020 1_544
O77 Ti4 1.980029 1_545
O77 Ti7 2.071938 1_555
O78 Ti5 1.904067 1_555
O78 Ti8 1.925782 1_555
O84 Ti7 1.910780 1_555
O85 Ti6 1.837620 1_554
O85 Ti5 2.199280 1_555
O86 Ti4 1.899150 1_555
O87 Ti3 1.832472 1_555
O87 Ti8 2.078188 1_556
