# generated using pymatgen
data_Sr2CaV2(Si2O7)2
_symmetry_space_group_name_H-M   'P 1'
_cell_length_a   5.65857525
_cell_length_b   7.28025500
_cell_length_c   8.14238866
_cell_angle_alpha   90.00000000
_cell_angle_beta   113.98573349
_cell_angle_gamma   90.00000000
_symmetry_Int_Tables_number   1
_chemical_formula_structural   Sr2CaV2(Si2O7)2
_chemical_formula_sum   'Sr2 Ca1 V2 Si4 O14'
_cell_volume   306.46706439
_cell_formula_units_Z   1
loop_
 _symmetry_equiv_pos_site_id
 _symmetry_equiv_pos_as_xyz
  1  'x, y, z'
loop_
 _atom_site_type_symbol
 _atom_site_label
 _atom_site_symmetry_multiplicity
 _atom_site_fract_x
 _atom_site_fract_y
 _atom_site_fract_z
 _atom_site_occupancy
  Sr  Sr0  1  0.22650200  0.75000000  0.42886500  1
  Sr  Sr1  1  0.79232200  0.25000000  0.65260500  1
  Ca  Ca0  1  0.73914200  0.75000000  0.00600900  1
  V  V0  1  0.90189200  0.75000000  0.73486600  1
  V  V1  1  0.09227900  0.25000000  0.21466400  1
  Si  Si0  1  0.37549900  0.46818500  0.78198600  1
  Si  Si1  1  0.58521800  0.51880200  0.22076900  1
  Si  Si2  1  0.58521800  0.98119800  0.22076900  1
  Si  Si3  1  0.37549900  0.03181500  0.78198600  1
  O  O0  1  0.61050500  0.75000000  0.26117400  1
  O  O1  1  0.35961600  0.25000000  0.72447100  1
  O  O2  1  0.46460600  0.49615000  0.99792500  1
  O  O3  1  0.46460600  0.00385000  0.99792500  1
  O  O4  1  0.59160900  0.56568700  0.72435100  1
  O  O5  1  0.88762900  0.46422100  0.27777000  1
  O  O6  1  0.41038800  0.05851800  0.31853700  1
  O  O7  1  0.08851200  0.94975200  0.66448800  1
  O  O8  1  0.97431300  0.25000000  0.97345500  1
  O  O9  1  0.08400900  0.75000000  0.97391100  1
  O  O10  1  0.88762900  0.03577900  0.27777000  1
  O  O11  1  0.59160900  0.93431300  0.72435100  1
  O  O12  1  0.08851200  0.55024800  0.66448800  1
  O  O13  1  0.41038800  0.44148200  0.31853700  1
loop_
_geom_bond_atom_site_label_1
_geom_bond_atom_site_label_2
_geom_bond_distance
_geom_bond_site_symmetry_2
Ca0 O9 2.071507 1_654
Ca0 O3 2.397906 1_564
Ca0 O2 2.397906 1_554
Ca0 O0 2.464961 1_555
Ca0 O11 2.490070 1_554
Ca0 O4 2.490070 1_554
O0 Si2 1.709835 1_555
O0 Si1 1.709835 1_555
O0 Sr0 2.999669 1_555
O0 Sr0 3.185084 1_655
O1 Si0 1.648127 1_555
O1 Si3 1.648127 1_555
O1 Sr1 2.739056 1_555
O1 Sr1 3.019904 1_455
O2 Si0 1.632906 1_555
O2 Si1 1.666890 1_556
O3 Si3 1.632906 1_555
O3 Si2 1.666890 1_546
O4 Si0 1.638932 1_555
O4 V0 2.183657 1_555
O4 Sr1 2.729968 1_555
O4 Sr0 2.795754 1_555
O5 Si1 1.629679 1_555
O5 V1 2.126294 1_655
O5 Sr0 2.757028 1_655
O6 Si2 1.602985 1_545
O6 V1 2.158951 1_555
O6 Sr0 2.773913 1_545
O6 Sr1 3.038691 1_555
O7 Si3 1.626735 1_565
O7 V0 2.012546 1_455
O7 Sr1 2.732146 1_465
O7 Sr0 2.761020 1_555
O8 V1 1.799184 1_656
O8 Sr1 2.387106 1_555
O9 V0 1.794347 1_455
O10 Si2 1.629679 1_545
O10 V1 2.126294 1_655
O10 Sr0 2.757028 1_645
O11 Si3 1.638932 1_565
O11 V0 2.183657 1_555
O11 Sr1 2.729968 1_565
O11 Sr0 2.795754 1_555
O12 Si0 1.626735 1_555
O12 V0 2.012546 1_455
O12 Sr1 2.732146 1_455
O12 Sr0 2.761020 1_555
O13 Si1 1.602985 1_555
O13 V1 2.158951 1_555
O13 Sr0 2.773913 1_555
O13 Sr1 3.038691 1_555
