# generated using pymatgen
data_CaYb3
_symmetry_space_group_name_H-M   'P 1'
_cell_length_a   6.61948036
_cell_length_b   6.61948036
_cell_length_c   6.61948036
_cell_angle_alpha   130.77853276
_cell_angle_beta   130.77853276
_cell_angle_gamma   72.16518100
_symmetry_Int_Tables_number   1
_chemical_formula_structural   CaYb3
_chemical_formula_sum   'Ca1 Yb3'
_cell_volume   162.61547488
_cell_formula_units_Z   1
loop_
 _symmetry_equiv_pos_site_id
 _symmetry_equiv_pos_as_xyz
  1  'x, y, z'
loop_
 _atom_site_type_symbol
 _atom_site_label
 _atom_site_symmetry_multiplicity
 _atom_site_fract_x
 _atom_site_fract_y
 _atom_site_fract_z
 _atom_site_occupancy
  Ca  Ca0  1  0.00000000  0.00000000  0.00000000  1
  Yb  Yb0  1  0.75000000  0.25000000  0.50000000  1
  Yb  Yb1  1  0.50000000  0.50000000  0.00000000  1
  Yb  Yb2  1  0.25000000  0.75000000  0.50000000  1
loop_
_geom_bond_atom_site_label_1
_geom_bond_atom_site_label_2
_geom_bond_distance
_geom_bond_site_symmetry_2
Ca0 Yb2 3.841100 1_544
Ca0 Yb0 3.841100 1_444
Ca0 Yb2 3.841100 1_555
Ca0 Yb0 3.841100 1_455
Ca0 Yb0 3.841100 1_454
Ca0 Yb2 3.841100 1_545
Ca0 Yb2 3.841100 1_444
Ca0 Yb0 3.841100 1_555
Ca0 Yb1 3.898548 1_455
Ca0 Yb1 3.898548 1_556
Ca0 Yb1 3.898548 1_545
Ca0 Yb1 3.898548 1_444
Yb0 Yb1 3.841100 1_556
Yb0 Yb1 3.841100 1_555
Yb0 Yb1 3.841100 1_656
Yb0 Yb1 3.841100 1_545
Yb0 Yb2 3.898548 1_544
Yb0 Yb2 3.898548 1_645
Yb0 Yb2 3.898548 1_555
Yb0 Yb2 3.898548 1_656
Yb1 Yb2 3.841100 1_544
Yb1 Yb2 3.841100 1_554
Yb1 Yb2 3.841100 1_555
Yb1 Yb2 3.841100 1_655
