# generated using pymatgen
data_InSbO4
_symmetry_space_group_name_H-M   'P 1'
_cell_length_a   5.24455967
_cell_length_b   7.43333089
_cell_length_c   7.52198981
_cell_angle_alpha   79.15714499
_cell_angle_beta   90.00000000
_cell_angle_gamma   90.00000000
_symmetry_Int_Tables_number   1
_chemical_formula_structural   InSbO4
_chemical_formula_sum   'In4 Sb4 O16'
_cell_volume   288.00607787
_cell_formula_units_Z   4
loop_
 _symmetry_equiv_pos_site_id
 _symmetry_equiv_pos_as_xyz
  1  'x, y, z'
loop_
 _atom_site_type_symbol
 _atom_site_label
 _atom_site_symmetry_multiplicity
 _atom_site_fract_x
 _atom_site_fract_y
 _atom_site_fract_z
 _atom_site_occupancy
  In  In0  1  0.25816744  0.64126550  0.15827290  1
  In  In1  1  0.74183256  0.35873450  0.84172710  1
  In  In2  1  0.75816744  0.85873450  0.84172710  1
  In  In3  1  0.24183256  0.14126550  0.15827290  1
  Sb  Sb0  1  0.75273252  0.81413255  0.33144156  1
  Sb  Sb1  1  0.24726748  0.18586745  0.66855844  1
  Sb  Sb2  1  0.25273252  0.68586745  0.66855844  1
  Sb  Sb3  1  0.74726748  0.31413255  0.33144156  1
  O  O0  1  0.44597319  0.89618045  0.19283840  1
  O  O1  1  0.55402681  0.10381955  0.80716160  1
  O  O2  1  0.94597319  0.60381955  0.80716160  1
  O  O3  1  0.05402681  0.39618045  0.19283840  1
  O  O4  1  0.93140459  0.81421399  0.10052486  1
  O  O5  1  0.06859541  0.18578601  0.89947514  1
  O  O6  1  0.43140459  0.68578601  0.89947514  1
  O  O7  1  0.56859541  0.31421399  0.10052486  1
  O  O8  1  0.60455930  0.56349002  0.32252581  1
  O  O9  1  0.39544070  0.43650998  0.67747419  1
  O  O10  1  0.10455930  0.93650998  0.67747419  1
  O  O11  1  0.89544070  0.06349002  0.32252581  1
  O  O12  1  0.57825710  0.80616683  0.56657700  1
  O  O13  1  0.42174290  0.19383317  0.43342300  1
  O  O14  1  0.07825710  0.69383317  0.43342300  1
  O  O15  1  0.92174290  0.30616683  0.56657700  1
loop_
_geom_bond_atom_site_label_1
_geom_bond_atom_site_label_2
_geom_bond_distance
_geom_bond_site_symmetry_2
In0 O3 2.086764 1_555
In0 O6 2.117109 1_554
In0 O4 2.137328 1_455
In0 O0 2.193997 1_555
In0 O8 2.211850 1_555
In0 O14 2.372932 1_555
In1 O2 2.086764 1_555
In1 O7 2.117109 1_556
In1 O5 2.137328 1_655
In1 O1 2.193997 1_555
In1 O9 2.211850 1_555
In1 O15 2.372932 1_555
In2 O1 2.086764 1_565
In2 O4 2.117109 1_556
In2 O6 2.137328 1_555
In2 O2 2.193997 1_555
In2 O10 2.211850 1_655
In2 O12 2.372932 1_555
In3 O0 2.086764 1_545
In3 O5 2.117109 1_554
In3 O7 2.137328 1_555
In3 O3 2.193997 1_555
In3 O11 2.211850 1_455
In3 O13 2.372932 1_555
O0 Sb0 1.951406 1_555
O1 Sb1 1.951406 1_555
O2 Sb2 1.951406 1_655
O3 Sb3 1.951406 1_455
O4 Sb0 1.973496 1_555
O5 Sb1 1.973496 1_555
O6 Sb2 1.973496 1_555
O7 Sb3 1.973496 1_555
O8 Sb3 1.988358 1_555
O8 Sb0 2.031396 1_555
O9 Sb2 1.988358 1_555
O9 Sb1 2.031396 1_555
O10 Sb1 1.988358 1_565
O10 Sb2 2.031396 1_555
O11 Sb0 1.988358 1_545
O11 Sb3 2.031396 1_555
O12 Sb0 1.982339 1_555
O12 Sb2 2.011131 1_555
O13 Sb1 1.982339 1_555
O13 Sb3 2.011131 1_555
O14 Sb2 1.982339 1_555
O14 Sb0 2.011131 1_455
O15 Sb3 1.982339 1_555
O15 Sb1 2.011131 1_655
