# generated using pymatgen
data_Ca3Si3(MoO6)2
_symmetry_space_group_name_H-M   'P 1'
_cell_length_a   10.78597228
_cell_length_b   10.78597228
_cell_length_c   10.78597228
_cell_angle_alpha   109.47122063
_cell_angle_beta   109.47122063
_cell_angle_gamma   109.47122063
_symmetry_Int_Tables_number   1
_chemical_formula_structural   Ca3Si3(MoO6)2
_chemical_formula_sum   'Ca12 Si12 Mo8 O48'
_cell_volume   965.95302936
_cell_formula_units_Z   4
loop_
 _symmetry_equiv_pos_site_id
 _symmetry_equiv_pos_as_xyz
  1  'x, y, z'
loop_
 _atom_site_type_symbol
 _atom_site_label
 _atom_site_symmetry_multiplicity
 _atom_site_fract_x
 _atom_site_fract_y
 _atom_site_fract_z
 _atom_site_occupancy
  Ca  Ca0  1  0.75000000  0.12500000  0.37500000  1
  Ca  Ca1  1  0.25000000  0.37500000  0.12500000  1
  Ca  Ca2  1  0.12500000  0.25000000  0.37500000  1
  Ca  Ca3  1  0.37500000  0.75000000  0.12500000  1
  Ca  Ca4  1  0.75000000  0.62500000  0.87500000  1
  Ca  Ca5  1  0.12500000  0.37500000  0.75000000  1
  Ca  Ca6  1  0.62500000  0.87500000  0.75000000  1
  Ca  Ca7  1  0.25000000  0.87500000  0.62500000  1
  Ca  Ca8  1  0.87500000  0.62500000  0.25000000  1
  Ca  Ca9  1  0.62500000  0.25000000  0.87500000  1
  Ca  Ca10  1  0.87500000  0.75000000  0.62500000  1
  Ca  Ca11  1  0.37500000  0.12500000  0.25000000  1
  Si  Si0  1  0.12500000  0.87500000  0.25000000  1
  Si  Si1  1  0.87500000  0.12500000  0.75000000  1
  Si  Si2  1  0.25000000  0.62500000  0.37500000  1
  Si  Si3  1  0.37500000  0.25000000  0.62500000  1
  Si  Si4  1  0.75000000  0.87500000  0.12500000  1
  Si  Si5  1  0.12500000  0.75000000  0.87500000  1
  Si  Si6  1  0.37500000  0.62500000  0.75000000  1
  Si  Si7  1  0.62500000  0.75000000  0.37500000  1
  Si  Si8  1  0.87500000  0.25000000  0.12500000  1
  Si  Si9  1  0.25000000  0.12500000  0.87500000  1
  Si  Si10  1  0.75000000  0.37500000  0.62500000  1
  Si  Si11  1  0.62500000  0.37500000  0.25000000  1
  Mo  Mo0  1  0.00000000  0.00000000  0.00000000  1
  Mo  Mo1  1  0.50000000  0.00000000  0.00000000  1
  Mo  Mo2  1  0.00000000  0.50000000  0.00000000  1
  Mo  Mo3  1  0.50000000  0.50000000  0.00000000  1
  Mo  Mo4  1  0.00000000  0.50000000  0.50000000  1
  Mo  Mo5  1  0.50000000  0.00000000  0.50000000  1
  Mo  Mo6  1  0.50000000  0.50000000  0.50000000  1
  Mo  Mo7  1  0.00000000  0.00000000  0.50000000  1
  O  O0  1  0.48953700  0.38014600  0.28874100  1
  O  O1  1  0.29920400  0.89061000  0.01046300  1
  O  O2  1  0.60939000  0.90859400  0.11985400  1
  O  O3  1  0.59140600  0.20079600  0.21125900  1
  O  O4  1  0.11985400  0.01046300  0.21125900  1
  O  O5  1  0.20079600  0.21125900  0.59140600  1
  O  O6  1  0.20079600  0.48953700  0.60939000  1
  O  O7  1  0.21125900  0.59140600  0.20079600  1
  O  O8  1  0.38014600  0.59140600  0.89061000  1
  O  O9  1  0.90859400  0.28874100  0.29920400  1
  O  O10  1  0.28874100  0.29920400  0.90859400  1
  O  O11  1  0.21125900  0.11985400  0.01046300  1
  O  O12  1  0.48953700  0.60939000  0.20079600  1
  O  O13  1  0.89061000  0.38014600  0.59140600  1
  O  O14  1  0.01046300  0.21125900  0.11985400  1
  O  O15  1  0.60939000  0.20079600  0.48953700  1
  O  O16  1  0.59140600  0.89061000  0.38014600  1
  O  O17  1  0.01046300  0.29920400  0.89061000  1
  O  O18  1  0.90859400  0.11985400  0.60939000  1
  O  O19  1  0.61985400  0.40859400  0.10939000  1
  O  O20  1  0.11985400  0.60939000  0.90859400  1
  O  O21  1  0.28874100  0.48953700  0.38014600  1
  O  O22  1  0.89061000  0.01046300  0.29920400  1
  O  O23  1  0.29920400  0.90859400  0.28874100  1
  O  O24  1  0.51046300  0.61985400  0.71125900  1
  O  O25  1  0.70079600  0.10939000  0.98953700  1
  O  O26  1  0.39061000  0.09140600  0.88014600  1
  O  O27  1  0.40859400  0.79920400  0.78874100  1
  O  O28  1  0.88014600  0.98953700  0.78874100  1
  O  O29  1  0.79920400  0.78874100  0.40859400  1
  O  O30  1  0.79920400  0.51046300  0.39061000  1
  O  O31  1  0.78874100  0.40859400  0.79920400  1
  O  O32  1  0.70079600  0.09140600  0.71125900  1
  O  O33  1  0.10939000  0.98953700  0.70079600  1
  O  O34  1  0.71125900  0.51046300  0.61985400  1
  O  O35  1  0.61985400  0.71125900  0.51046300  1
  O  O36  1  0.88014600  0.39061000  0.09140600  1
  O  O37  1  0.09140600  0.88014600  0.39061000  1
  O  O38  1  0.98953700  0.70079600  0.10939000  1
  O  O39  1  0.40859400  0.10939000  0.61985400  1
  O  O40  1  0.39061000  0.79920400  0.51046300  1
  O  O41  1  0.98953700  0.78874100  0.88014600  1
  O  O42  1  0.10939000  0.61985400  0.40859400  1
  O  O43  1  0.51046300  0.39061000  0.79920400  1
  O  O44  1  0.78874100  0.88014600  0.98953700  1
  O  O45  1  0.71125900  0.70079600  0.09140600  1
  O  O46  1  0.09140600  0.71125900  0.70079600  1
  O  O47  1  0.38014600  0.28874100  0.48953700  1
loop_
_geom_bond_atom_site_label_1
_geom_bond_atom_site_label_2
_geom_bond_distance
_geom_bond_site_symmetry_2
Ca0 O13 2.428374 1_555
Ca0 O2 2.428374 1_545
Ca0 O15 2.428380 1_555
Ca0 O22 2.428380 1_555
Ca0 O16 2.567957 1_545
Ca0 O18 2.567957 1_555
Ca0 O3 2.567963 1_555
Ca0 O9 2.567963 1_555
Ca1 O21 2.428370 1_555
Ca1 O11 2.428370 1_555
Ca1 O10 2.428380 1_554
Ca1 O7 2.428380 1_555
Ca1 O17 2.567963 1_554
Ca1 O12 2.567963 1_555
Ca1 O14 2.567969 1_555
Ca1 O0 2.567969 1_555
Ca2 O47 2.428370 1_555
Ca2 O14 2.428370 1_555
Ca2 O9 2.428380 1_455
Ca2 O5 2.428380 1_555
Ca2 O22 2.567963 1_455
Ca2 O6 2.567963 1_555
Ca2 O4 2.567969 1_555
Ca2 O21 2.567969 1_555
Ca3 O16 2.428374 1_555
Ca3 O20 2.428374 1_554
Ca3 O12 2.428380 1_555
Ca3 O1 2.428380 1_555
Ca3 O8 2.567957 1_554
Ca3 O2 2.567957 1_555
Ca3 O7 2.567963 1_555
Ca3 O23 2.567963 1_555
Ca4 O34 2.428370 1_555
Ca4 O44 2.428370 1_555
Ca4 O45 2.428380 1_556
Ca4 O31 2.428380 1_555
Ca4 O43 2.567963 1_555
Ca4 O38 2.567963 1_556
Ca4 O41 2.567969 1_555
Ca4 O24 2.567969 1_555
Ca5 O8 2.428374 1_555
Ca5 O18 2.428374 1_455
Ca5 O6 2.428380 1_555
Ca5 O17 2.428380 1_555
Ca5 O13 2.567957 1_455
Ca5 O20 2.567957 1_555
Ca5 O5 2.567963 1_555
Ca5 O10 2.567963 1_555
Ca6 O24 2.428370 1_555
Ca6 O28 2.428370 1_555
Ca6 O32 2.428380 1_565
Ca6 O27 2.428380 1_555
Ca6 O40 2.567963 1_555
Ca6 O25 2.567963 1_565
Ca6 O44 2.567969 1_555
Ca6 O35 2.567969 1_555
Ca7 O26 2.428374 1_565
Ca7 O42 2.428374 1_555
Ca7 O33 2.428380 1_555
Ca7 O40 2.428380 1_555
Ca7 O39 2.567957 1_565
Ca7 O37 2.567957 1_555
Ca7 O27 2.567963 1_555
Ca7 O46 2.567963 1_555
Ca8 O37 2.428374 1_655
Ca8 O19 2.428374 1_555
Ca8 O38 2.428380 1_555
Ca8 O30 2.428380 1_555
Ca8 O42 2.567957 1_655
Ca8 O36 2.567957 1_555
Ca8 O29 2.567963 1_555
Ca8 O45 2.567963 1_555
Ca9 O36 2.428374 1_556
Ca9 O39 2.428374 1_555
Ca9 O25 2.428380 1_555
Ca9 O43 2.428380 1_555
Ca9 O19 2.567957 1_556
Ca9 O26 2.567957 1_555
Ca9 O31 2.567963 1_555
Ca9 O32 2.567963 1_555
Ca10 O35 2.428370 1_555
Ca10 O41 2.428370 1_555
Ca10 O46 2.428380 1_655
Ca10 O29 2.428380 1_555
Ca10 O30 2.567963 1_555
Ca10 O33 2.567963 1_655
Ca10 O28 2.567969 1_555
Ca10 O34 2.567969 1_555
Ca11 O0 2.428370 1_555
Ca11 O4 2.428370 1_555
Ca11 O23 2.428380 1_545
Ca11 O3 2.428380 1_555
Ca11 O1 2.567963 1_545
Ca11 O15 2.567963 1_555
Ca11 O11 2.567969 1_555
Ca11 O47 2.567969 1_555
Mo0 O14 2.154902 1_555
Mo0 O11 2.154902 1_555
Mo0 O4 2.154902 1_555
Mo0 O44 2.154902 1_444
Mo0 O28 2.154902 1_444
Mo0 O41 2.154902 1_444
Mo1 O25 2.154900 1_554
Mo1 O3 2.154900 1_555
Mo1 O1 2.154900 1_545
Mo1 O27 2.154900 1_544
Mo1 O2 2.154906 1_545
Mo1 O26 2.154906 1_554
Mo2 O7 2.154900 1_555
Mo2 O38 2.154900 1_455
Mo2 O17 2.154900 1_554
Mo2 O31 2.154900 1_454
Mo2 O20 2.154906 1_554
Mo2 O36 2.154906 1_455
Mo3 O45 2.154900 1_555
Mo3 O12 2.154900 1_555
Mo3 O43 2.154900 1_554
Mo3 O10 2.154900 1_554
Mo3 O8 2.154906 1_554
Mo3 O19 2.154906 1_555
Mo4 O46 2.154900 1_555
Mo4 O6 2.154900 1_555
Mo4 O30 2.154900 1_455
Mo4 O9 2.154900 1_455
Mo4 O13 2.154906 1_455
Mo4 O42 2.154906 1_555
Mo5 O32 2.154900 1_555
Mo5 O15 2.154900 1_555
Mo5 O40 2.154900 1_545
Mo5 O23 2.154900 1_545
Mo5 O16 2.154906 1_545
Mo5 O39 2.154906 1_555
Mo6 O34 2.154902 1_555
Mo6 O24 2.154902 1_555
Mo6 O35 2.154902 1_555
Mo6 O21 2.154902 1_555
Mo6 O47 2.154902 1_555
Mo6 O0 2.154902 1_555
Mo7 O33 2.154900 1_545
Mo7 O5 2.154900 1_555
Mo7 O22 2.154900 1_455
Mo7 O29 2.154900 1_445
Mo7 O18 2.154906 1_455
Mo7 O37 2.154906 1_545
O0 Si11 1.660761 1_555
O1 Si5 1.660764 1_554
O2 Si4 1.660766 1_555
O3 Si11 1.660764 1_555
O4 Si0 1.660761 1_545
O5 Si3 1.660764 1_555
O6 Si6 1.660764 1_555
O7 Si2 1.660764 1_555
O8 Si6 1.660766 1_555
O9 Si8 1.660764 1_555
O10 Si9 1.660764 1_555
O11 Si9 1.660761 1_554
O12 Si7 1.660764 1_555
O13 Si10 1.660766 1_555
O14 Si8 1.660761 1_455
O15 Si10 1.660764 1_555
O16 Si7 1.660766 1_555
O17 Si1 1.660764 1_455
O18 Si1 1.660766 1_555
O19 Si11 1.660766 1_555
O20 Si5 1.660766 1_555
O21 Si2 1.660761 1_555
O22 Si4 1.660764 1_545
O23 Si0 1.660764 1_555
O24 Si6 1.660761 1_555
O25 Si8 1.660764 1_556
O26 Si9 1.660766 1_555
O27 Si6 1.660764 1_555
O28 Si1 1.660761 1_565
O29 Si7 1.660764 1_555
O30 Si11 1.660764 1_555
O31 Si10 1.660764 1_555
O32 Si1 1.660764 1_555
O33 Si9 1.660764 1_565
O34 Si10 1.660761 1_555
O35 Si7 1.660761 1_555
O36 Si8 1.660766 1_555
O37 Si0 1.660766 1_555
O38 Si0 1.660764 1_655
O39 Si3 1.660766 1_555
O40 Si2 1.660764 1_555
O41 Si5 1.660761 1_655
O42 Si2 1.660766 1_555
O43 Si3 1.660764 1_555
O44 Si4 1.660761 1_556
O45 Si4 1.660764 1_555
O46 Si5 1.660764 1_555
O47 Si3 1.660761 1_555
