# generated using pymatgen
data_CaAgSb
_symmetry_space_group_name_H-M   'P 1'
_cell_length_a   4.61159836
_cell_length_b   7.72808435
_cell_length_c   8.43392861
_cell_angle_alpha   90.00000000
_cell_angle_beta   90.00000000
_cell_angle_gamma   90.00000000
_symmetry_Int_Tables_number   1
_chemical_formula_structural   CaAgSb
_chemical_formula_sum   'Ca4 Ag4 Sb4'
_cell_volume   300.57527302
_cell_formula_units_Z   4
loop_
 _symmetry_equiv_pos_site_id
 _symmetry_equiv_pos_as_xyz
  1  'x, y, z'
loop_
 _atom_site_type_symbol
 _atom_site_label
 _atom_site_symmetry_multiplicity
 _atom_site_fract_x
 _atom_site_fract_y
 _atom_site_fract_z
 _atom_site_occupancy
  Ca  Ca0  1  0.75000000  0.48195780  0.19500571  1
  Ca  Ca1  1  0.25000000  0.51804220  0.80499429  1
  Ca  Ca2  1  0.25000000  0.01804220  0.69500571  1
  Ca  Ca3  1  0.75000000  0.98195780  0.30499429  1
  Ag  Ag0  1  0.75000000  0.85622514  0.93468770  1
  Ag  Ag1  1  0.75000000  0.35622514  0.56531230  1
  Ag  Ag2  1  0.25000000  0.14377486  0.06531230  1
  Ag  Ag3  1  0.25000000  0.64377486  0.43468770  1
  Sb  Sb0  1  0.75000000  0.74041552  0.61278600  1
  Sb  Sb1  1  0.25000000  0.25958448  0.38721400  1
  Sb  Sb2  1  0.75000000  0.24041552  0.88721400  1
  Sb  Sb3  1  0.25000000  0.75958448  0.11278600  1
loop_
_geom_bond_atom_site_label_1
_geom_bond_atom_site_label_2
_geom_bond_distance
_geom_bond_site_symmetry_2
Ca0 Sb2 3.197355 1_554
Ca0 Sb3 3.225032 1_655
Ca0 Sb3 3.225032 1_555
Ca0 Sb1 3.301195 1_655
Ca0 Sb1 3.301195 1_555
Ca1 Sb3 3.197355 1_556
Ca1 Sb2 3.225032 1_455
Ca1 Sb2 3.225032 1_555
Ca1 Sb0 3.301195 1_455
Ca1 Sb0 3.301195 1_555
Ca2 Sb1 3.197355 1_555
Ca2 Sb0 3.225032 1_445
Ca2 Sb0 3.225032 1_545
Ca2 Sb2 3.301195 1_555
Ca2 Sb2 3.301195 1_455
Ca3 Sb0 3.197355 1_555
Ca3 Sb1 3.225032 1_565
Ca3 Sb1 3.225032 1_665
Ca3 Sb3 3.301195 1_655
Ca3 Sb3 3.301195 1_555
Ag0 Sb3 2.851438 1_656
Ag0 Sb3 2.851438 1_556
Ag0 Sb0 2.858612 1_555
Ag0 Sb2 2.995931 1_565
Ag0 Ca3 3.270802 1_556
Ag0 Ca2 3.311624 1_665
Ag0 Ca2 3.311624 1_565
Ag0 Ca0 3.631258 1_556
Ag0 Ca1 3.652886 1_555
Ag0 Ca1 3.652886 1_655
Ag1 Sb1 2.851438 1_655
Ag1 Sb1 2.851438 1_555
Ag1 Sb2 2.858612 1_555
Ag1 Sb0 2.995931 1_555
Ag1 Ca0 3.270802 1_555
Ag1 Ca1 3.311624 1_655
Ag1 Ca1 3.311624 1_555
Ag1 Ca3 3.631258 1_545
Ag1 Ca2 3.652886 1_655
Ag1 Ca2 3.652886 1_555
Ag2 Sb2 2.851438 1_454
Ag2 Sb2 2.851438 1_554
Ag2 Sb1 2.858612 1_555
Ag2 Sb3 2.995931 1_545
Ag2 Ca2 3.270802 1_554
Ag2 Ca3 3.311624 1_445
Ag2 Ca3 3.311624 1_545
Ag2 Ca1 3.631258 1_554
Ag2 Ca0 3.652886 1_455
Ag2 Ca0 3.652886 1_555
Ag3 Sb0 2.851438 1_455
Ag3 Sb0 2.851438 1_555
Ag3 Sb3 2.858612 1_555
Ag3 Sb1 2.995931 1_555
Ag3 Ca1 3.270802 1_555
Ag3 Ca0 3.311624 1_455
Ag3 Ca0 3.311624 1_555
Ag3 Ca2 3.631258 1_565
Ag3 Ca3 3.652886 1_455
Ag3 Ca3 3.652886 1_555
