# generated using pymatgen
data_SrLaVFeO6
_symmetry_space_group_name_H-M   'P 1'
_cell_length_a   5.58393028
_cell_length_b   7.83503537
_cell_length_c   5.58082048
_cell_angle_alpha   90.03169831
_cell_angle_beta   89.33037538
_cell_angle_gamma   89.98532623
_symmetry_Int_Tables_number   1
_chemical_formula_structural   SrLaVFeO6
_chemical_formula_sum   'Sr2 La2 V2 Fe2 O12'
_cell_volume   244.14580084
_cell_formula_units_Z   2
loop_
 _symmetry_equiv_pos_site_id
 _symmetry_equiv_pos_as_xyz
  1  'x, y, z'
loop_
 _atom_site_type_symbol
 _atom_site_label
 _atom_site_symmetry_multiplicity
 _atom_site_fract_x
 _atom_site_fract_y
 _atom_site_fract_z
 _atom_site_occupancy
  Sr  Sr0  1  0.50001500  0.24774700  0.99994100  1
  Sr  Sr1  1  0.99997700  0.75222600  0.50003900  1
  La  La0  1  0.49997700  0.75657300  0.99999800  1
  La  La1  1  0.99998800  0.24322500  0.49995300  1
  V  V0  1  0.49994900  0.00006300  0.49986700  1
  V  V1  1  0.00000300  0.50000300  0.00002200  1
  Fe  Fe0  1  0.99997000  0.99989700  0.99994300  1
  Fe  Fe1  1  0.49998900  0.49998000  0.49998300  1
  O  O0  1  0.75694900  0.50005100  0.24260100  1
  O  O1  1  0.25211900  0.99986500  0.74796300  1
  O  O2  1  0.99999100  0.74792800  0.00005900  1
  O  O3  1  0.50012100  0.24341200  0.49983600  1
  O  O4  1  0.25038800  0.50004500  0.24996000  1
  O  O5  1  0.74662400  0.99997600  0.74663300  1
  O  O6  1  0.24305900  0.50003300  0.75741900  1
  O  O7  1  0.74798100  0.00021400  0.25212300  1
  O  O8  1  0.00002800  0.25201200  0.99997300  1
  O  O9  1  0.49992000  0.75662200  0.50024900  1
  O  O10  1  0.74962100  0.50003500  0.75005700  1
  O  O11  1  0.25333000  0.00009200  0.25338200  1
loop_
_geom_bond_atom_site_label_1
_geom_bond_atom_site_label_2
_geom_bond_distance
_geom_bond_site_symmetry_2
La0 O11 2.736244 1_566
La0 O5 2.737138 1_555
La0 O1 2.752209 1_555
La0 O7 2.754191 1_566
La0 O9 2.789013 1_555
La0 O9 2.791807 1_556
La0 O2 2.792722 1_456
La0 O2 2.792851 1_556
La0 O10 2.806947 1_555
La0 O4 2.808414 1_556
La0 O6 2.823973 1_555
La0 O0 2.824635 1_556
La1 O11 2.733836 1_655
La1 O5 2.736400 1_545
La1 O7 2.749963 1_555
La1 O1 2.753287 1_645
La1 O8 2.791183 1_654
La1 O3 2.791230 1_555
La1 O8 2.791336 1_655
La1 O3 2.792701 1_655
La1 O10 2.810900 1_555
La1 O4 2.812361 1_655
La1 O6 2.828280 1_655
La1 O0 2.828603 1_555
Fe0 O2 1.974186 1_556
Fe0 O8 1.975330 1_665
Fe0 O1 1.978304 1_655
Fe0 O7 1.978461 1_566
Fe0 O5 2.011594 1_555
Fe0 O11 2.012162 1_666
Fe1 O4 1.983674 1_555
Fe1 O10 1.984000 1_555
Fe1 O3 2.010219 1_555
Fe1 O9 2.010799 1_555
Fe1 O0 2.018382 1_555
Fe1 O6 2.018476 1_555
O0 V1 1.905724 1_655
O0 Sr0 2.800719 1_554
O0 Sr1 2.802379 1_555
O1 V0 1.946115 1_565
O1 Sr1 2.775838 1_455
O1 Sr0 2.776595 1_565
O2 V1 1.942501 1_655
O2 Sr1 2.790482 1_555
O2 Sr1 2.790745 1_554
O3 V0 1.906649 1_555
O3 Sr0 2.790057 1_554
O3 Sr0 2.791177 1_555
O4 V1 1.986451 1_555
O4 Sr0 2.783437 1_554
O4 Sr1 2.785121 1_455
O5 V0 1.959126 1_565
O5 Sr1 2.759244 1_555
O5 Sr0 2.759244 1_565
O6 V1 1.905826 1_556
O6 Sr0 2.800844 1_555
O6 Sr1 2.803089 1_455
O7 V0 1.945527 1_555
O7 Sr0 2.776057 1_554
O7 Sr1 2.777876 1_545
O8 V1 1.943018 1_556
O8 Sr0 2.792082 1_555
O8 Sr0 2.792248 1_455
O9 V0 1.907371 1_565
O9 Sr1 2.791882 1_455
O9 Sr1 2.792474 1_555
O10 V1 1.986547 1_656
O10 Sr0 2.784553 1_555
O10 Sr1 2.786459 1_555
O11 V0 1.957788 1_555
O11 Sr0 2.760787 1_554
O11 Sr1 2.761637 1_445
