# generated using pymatgen
data_Rb2TiFe2(MoO4)6
_symmetry_space_group_name_H-M   'P 1'
_cell_length_a   8.60172500
_cell_length_b   8.61257935
_cell_length_c   8.63146170
_cell_angle_alpha   99.26842312
_cell_angle_beta   99.20195450
_cell_angle_gamma   99.27803973
_symmetry_Int_Tables_number   1
_chemical_formula_structural   Rb2TiFe2(MoO4)6
_chemical_formula_sum   'Rb2 Ti1 Fe2 Mo6 O24'
_cell_volume   611.39369299
_cell_formula_units_Z   1
loop_
 _symmetry_equiv_pos_site_id
 _symmetry_equiv_pos_as_xyz
  1  'x, y, z'
loop_
 _atom_site_type_symbol
 _atom_site_label
 _atom_site_symmetry_multiplicity
 _atom_site_fract_x
 _atom_site_fract_y
 _atom_site_fract_z
 _atom_site_occupancy
  Rb  Rb0  1  0.81489000  0.81545800  0.81269600  1
  Rb  Rb1  1  0.18511000  0.18454200  0.18730400  1
  Ti  Ti0  1  0.50000000  0.50000000  0.00000000  1
  Fe  Fe0  1  0.00000000  0.50000000  0.50000000  1
  Fe  Fe1  1  0.50000000  0.00000000  0.50000000  1
  Mo  Mo0  1  0.78703100  0.32009600  0.77092400  1
  Mo  Mo1  1  0.77051300  0.78707900  0.32076600  1
  Mo  Mo2  1  0.32039700  0.77045000  0.78766400  1
  Mo  Mo3  1  0.21296900  0.67990400  0.22907600  1
  Mo  Mo4  1  0.22948700  0.21292100  0.67923400  1
  Mo  Mo5  1  0.67960300  0.22955000  0.21233600  1
  O  O0  1  0.82588200  0.44448400  0.62599200  1
  O  O1  1  0.62559700  0.82643600  0.44580900  1
  O  O2  1  0.44762200  0.62384300  0.83166700  1
  O  O3  1  0.17411800  0.55551600  0.37400800  1
  O  O4  1  0.37440300  0.17356400  0.55419100  1
  O  O5  1  0.55237800  0.37615700  0.16833300  1
  O  O6  1  0.69252500  0.11989600  0.66646300  1
  O  O7  1  0.66168900  0.68666000  0.11864500  1
  O  O8  1  0.12025600  0.66524800  0.69201200  1
  O  O9  1  0.30747500  0.88010400  0.33353700  1
  O  O10  1  0.33831100  0.31334000  0.88135500  1
  O  O11  1  0.87974400  0.33475200  0.30798800  1
  O  O12  1  0.96679200  0.30779200  0.88909600  1
  O  O13  1  0.88982600  0.96600300  0.30801800  1
  O  O14  1  0.30661000  0.89116700  0.96530800  1
  O  O15  1  0.03320800  0.69220800  0.11090400  1
  O  O16  1  0.11017400  0.03399700  0.69198200  1
  O  O17  1  0.69339000  0.10883300  0.03469200  1
  O  O18  1  0.66165000  0.42223800  0.89144600  1
  O  O19  1  0.88941500  0.66607400  0.42127700  1
  O  O20  1  0.42095100  0.88845400  0.66577100  1
  O  O21  1  0.33835000  0.57776200  0.10855400  1
  O  O22  1  0.11058500  0.33392600  0.57872300  1
  O  O23  1  0.57904900  0.11154600  0.33422900  1
loop_
_geom_bond_atom_site_label_1
_geom_bond_atom_site_label_2
_geom_bond_distance
_geom_bond_site_symmetry_2
Fe0 O22 1.989328 1_555
Fe0 O19 1.989328 1_455
Fe0 O8 2.014822 1_555
Fe0 O11 2.014822 1_455
Fe0 O3 2.027786 1_555
Fe0 O0 2.027786 1_455
Fe1 O23 1.993972 1_555
Fe1 O20 1.993972 1_545
Fe1 O4 2.019308 1_555
Fe1 O1 2.019308 1_545
Fe1 O6 2.020615 1_555
Fe1 O9 2.020615 1_545
Mo0 O12 1.739469 1_555
Mo0 O6 1.805443 1_555
Mo0 O0 1.809493 1_555
Mo0 O18 1.840974 1_555
Mo1 O13 1.738056 1_555
Mo1 O19 1.798877 1_555
Mo1 O1 1.811717 1_555
Mo1 O7 1.843495 1_555
Mo2 O14 1.740833 1_555
Mo2 O20 1.800001 1_555
Mo2 O8 1.807713 1_555
Mo2 O2 1.844803 1_555
Mo3 O15 1.739469 1_555
Mo3 O9 1.805443 1_555
Mo3 O3 1.809493 1_555
Mo3 O21 1.840974 1_555
Mo4 O16 1.738056 1_555
Mo4 O22 1.798877 1_555
Mo4 O4 1.811717 1_555
Mo4 O10 1.843495 1_555
Mo5 O17 1.740833 1_555
Mo5 O23 1.800001 1_555
Mo5 O11 1.807713 1_555
Mo5 O5 1.844803 1_555
O0 Rb0 3.361821 1_555
O1 Rb0 3.344476 1_555
O2 Ti0 1.973961 1_556
O2 Rb0 3.361822 1_555
O3 Rb1 3.361821 1_555
O4 Rb1 3.344476 1_555
O5 Ti0 1.973961 1_555
O5 Rb1 3.361822 1_555
O6 Rb0 3.332706 1_545
O7 Ti0 1.964871 1_555
O7 Rb0 3.395012 1_554
O8 Rb0 3.345878 1_455
O9 Rb1 3.332706 1_565
O10 Ti0 1.964871 1_556
O10 Rb1 3.395012 1_556
O11 Rb1 3.345878 1_655
O12 Rb1 3.354936 1_656
O13 Rb1 3.319069 1_665
O14 Rb1 3.328752 1_566
O15 Rb0 3.354936 1_454
O16 Rb0 3.319069 1_445
O17 Rb0 3.328752 1_544
O18 Ti0 1.942860 1_556
O21 Ti0 1.942860 1_555
