# generated using pymatgen
data_LiCr(SiO3)2
_symmetry_space_group_name_H-M   'P 1'
_cell_length_a   6.54279304
_cell_length_b   6.54187586
_cell_length_c   10.71076571
_cell_angle_alpha   74.76364963
_cell_angle_beta   74.80663331
_cell_angle_gamma   83.68809986
_symmetry_Int_Tables_number   1
_chemical_formula_structural   LiCr(SiO3)2
_chemical_formula_sum   'Li4 Cr4 Si8 O24'
_cell_volume   426.45320050
_cell_formula_units_Z   4
loop_
 _symmetry_equiv_pos_site_id
 _symmetry_equiv_pos_as_xyz
  1  'x, y, z'
loop_
 _atom_site_type_symbol
 _atom_site_label
 _atom_site_symmetry_multiplicity
 _atom_site_fract_x
 _atom_site_fract_y
 _atom_site_fract_z
 _atom_site_occupancy
  Li  Li0  1  0.25913900  0.74086200  0.37498400  1
  Li  Li1  1  0.25911900  0.74090900  0.87498500  1
  Li  Li2  1  0.74086200  0.25913700  0.12501600  1
  Li  Li3  1  0.74087600  0.25909700  0.62501500  1
  Cr  Cr0  1  0.90697000  0.09297400  0.87522600  1
  Cr  Cr1  1  0.09302900  0.90702800  0.62477400  1
  Cr  Cr2  1  0.90689400  0.09310900  0.37517600  1
  Cr  Cr3  1  0.09310600  0.90688700  0.12482400  1
  Si  Si0  1  0.79277000  0.61101500  0.38303300  1
  Si  Si1  1  0.79279400  0.61098500  0.88302600  1
  Si  Si2  1  0.20723000  0.38898300  0.11696800  1
  Si  Si3  1  0.20720600  0.38901500  0.61697400  1
  Si  Si4  1  0.61074100  0.79269200  0.13304400  1
  Si  Si5  1  0.61070000  0.79270600  0.63305100  1
  Si  Si6  1  0.38926000  0.20730800  0.36695600  1
  Si  Si7  1  0.38929900  0.20729400  0.86695000  1
  O  O0  1  0.35346500  0.35787800  0.47225400  1
  O  O1  1  0.35346000  0.35786600  0.97225200  1
  O  O2  1  0.35788300  0.35351800  0.22224400  1
  O  O3  1  0.35789300  0.35350900  0.72224000  1
  O  O4  1  0.64653600  0.64212200  0.02774600  1
  O  O5  1  0.64654000  0.64213400  0.52774800  1
  O  O6  1  0.64211800  0.64648200  0.27775600  1
  O  O7  1  0.64210800  0.64649100  0.77776000  1
  O  O8  1  0.79857100  0.96945500  0.07468500  1
  O  O9  1  0.79856200  0.96947000  0.57467300  1
  O  O10  1  0.20142900  0.03054500  0.42531500  1
  O  O11  1  0.20143700  0.03053000  0.92532700  1
  O  O12  1  0.96951100  0.79898700  0.32453900  1
  O  O13  1  0.96949500  0.79901200  0.82452700  1
  O  O14  1  0.03048900  0.20101200  0.17546200  1
  O  O15  1  0.03050500  0.20098900  0.67547300  1
  O  O16  1  0.10992900  0.62859300  0.08538500  1
  O  O17  1  0.10992900  0.62862600  0.58538800  1
  O  O18  1  0.89007100  0.37140500  0.41461400  1
  O  O19  1  0.89007200  0.37137500  0.91461200  1
  O  O20  1  0.62873400  0.11001900  0.33538600  1
  O  O21  1  0.62876800  0.11000200  0.83540500  1
  O  O22  1  0.37126600  0.88998100  0.16461300  1
  O  O23  1  0.37123200  0.88999700  0.66459500  1
loop_
_geom_bond_atom_site_label_1
_geom_bond_atom_site_label_2
_geom_bond_distance
_geom_bond_site_symmetry_2
Li0 O10 2.073017 1_565
Li0 O12 2.073088 1_455
Li0 O22 2.168528 1_555
Li0 O17 2.169231 1_555
Li0 O0 2.523604 1_555
Li0 O6 2.524777 1_555
Li1 O11 2.072678 1_565
Li1 O13 2.073123 1_455
Li1 O23 2.168643 1_555
Li1 O16 2.169227 1_556
Li1 O1 2.523951 1_555
Li1 O7 2.524887 1_555
Li2 O8 2.073011 1_545
Li2 O14 2.073086 1_655
Li2 O20 2.168518 1_555
Li2 O19 2.169233 1_554
Li2 O4 2.523609 1_555
Li2 O2 2.524779 1_555
Li3 O9 2.072716 1_545
Li3 O15 2.073155 1_655
Li3 O21 2.168649 1_555
Li3 O18 2.169237 1_555
Li3 O5 2.523910 1_555
Li3 O3 2.524844 1_555
Cr0 O19 1.960177 1_555
Cr0 O21 1.960838 1_555
Cr0 O8 2.035797 1_546
Cr0 O15 2.038295 1_655
Cr0 O13 2.102345 1_545
Cr0 O11 2.102475 1_655
Cr1 O17 1.960182 1_555
Cr1 O23 1.960843 1_555
Cr1 O10 2.035795 1_565
Cr1 O13 2.038295 1_455
Cr1 O15 2.102338 1_565
Cr1 O9 2.102475 1_455
Cr2 O18 1.959802 1_555
Cr2 O20 1.960500 1_555
Cr2 O9 2.036218 1_545
Cr2 O14 2.037917 1_655
Cr2 O12 2.103069 1_545
Cr2 O10 2.103105 1_655
Cr3 O16 1.959794 1_555
Cr3 O22 1.960498 1_555
Cr3 O11 2.036222 1_564
Cr3 O12 2.037924 1_455
Cr3 O14 2.103093 1_565
Cr3 O8 2.103105 1_455
O0 Si6 1.640672 1_555
O0 Si3 1.644848 1_555
O1 Si7 1.640687 1_555
O1 Si2 1.644712 1_556
O2 Si2 1.640626 1_555
O2 Si6 1.644332 1_555
O3 Si3 1.640681 1_555
O3 Si7 1.644383 1_555
O4 Si4 1.640672 1_555
O4 Si1 1.644846 1_554
O5 Si5 1.640695 1_555
O5 Si0 1.644707 1_555
O6 Si0 1.640628 1_555
O6 Si4 1.644332 1_555
O7 Si1 1.640676 1_555
O7 Si5 1.644378 1_555
O8 Si4 1.663756 1_555
O9 Si5 1.663910 1_555
O10 Si6 1.663760 1_555
O11 Si7 1.663910 1_555
O12 Si0 1.664290 1_555
O13 Si1 1.664371 1_555
O14 Si2 1.664285 1_555
O15 Si3 1.664366 1_555
O16 Si2 1.609822 1_555
O17 Si3 1.609776 1_555
O18 Si0 1.609821 1_555
O19 Si1 1.609773 1_555
O20 Si6 1.609506 1_555
O21 Si7 1.609468 1_555
O22 Si4 1.609511 1_555
O23 Si5 1.609459 1_555
