# generated using pymatgen
data_Zr2CN
_symmetry_space_group_name_H-M   'P 1'
_cell_length_a   5.69850716
_cell_length_b   5.69850716
_cell_length_c   5.69850755
_cell_angle_alpha   33.55658534
_cell_angle_beta   33.55658534
_cell_angle_gamma   33.55658284
_symmetry_Int_Tables_number   1
_chemical_formula_structural   Zr2CN
_chemical_formula_sum   'Zr2 C1 N1'
_cell_volume   50.36157994
_cell_formula_units_Z   1
loop_
 _symmetry_equiv_pos_site_id
 _symmetry_equiv_pos_as_xyz
  1  'x, y, z'
loop_
 _atom_site_type_symbol
 _atom_site_label
 _atom_site_symmetry_multiplicity
 _atom_site_fract_x
 _atom_site_fract_y
 _atom_site_fract_z
 _atom_site_occupancy
  Zr  Zr0  1  0.25093274  0.25093274  0.25093274  1
  Zr  Zr1  1  0.74906726  0.74906726  0.74906726  1
  C  C0  1  -0.00000000  -0.00000000  0.00000000  1
  N  N0  1  0.50000000  0.50000000  0.50000000  1
loop_
_geom_bond_atom_site_label_1
_geom_bond_atom_site_label_2
_geom_bond_distance
_geom_bond_site_symmetry_2
C0 Zr1 2.317728 1_454
C0 Zr0 2.317728 1_545
C0 Zr1 2.317728 1_544
C0 Zr0 2.317728 1_455
C0 Zr0 2.317728 1_554
C0 Zr1 2.317728 1_445
N0 Zr1 2.335087 1_545
N0 Zr0 2.335087 1_565
N0 Zr1 2.335087 1_455
N0 Zr0 2.335087 1_655
N0 Zr1 2.335088 1_554
N0 Zr0 2.335088 1_556
