# generated using pymatgen
data_CsMnGa2P3(H2O7)2
_symmetry_space_group_name_H-M   'P 1'
_cell_length_a   8.65001282
_cell_length_b   8.65001282
_cell_length_c   8.99723165
_cell_angle_alpha   75.13811944
_cell_angle_beta   75.13811944
_cell_angle_gamma   74.65854193
_symmetry_Int_Tables_number   1
_chemical_formula_structural   CsMnGa2P3(H2O7)2
_chemical_formula_sum   'Cs2 Mn2 Ga4 P6 H8 O28'
_cell_volume   614.50746459
_cell_formula_units_Z   2
loop_
 _symmetry_equiv_pos_site_id
 _symmetry_equiv_pos_as_xyz
  1  'x, y, z'
loop_
 _atom_site_type_symbol
 _atom_site_label
 _atom_site_symmetry_multiplicity
 _atom_site_fract_x
 _atom_site_fract_y
 _atom_site_fract_z
 _atom_site_occupancy
  Cs  Cs0  1  0.63976300  0.36023700  0.75000000  1
  Cs  Cs1  1  0.36023700  0.63976300  0.25000000  1
  Mn  Mn0  1  0.72035300  0.27964700  0.25000000  1
  Mn  Mn1  1  0.27964700  0.72035300  0.75000000  1
  Ga  Ga0  1  0.09722900  0.24635600  0.42636900  1
  Ga  Ga1  1  0.75364400  0.90277100  0.07363100  1
  Ga  Ga2  1  0.90277100  0.75364400  0.57363100  1
  Ga  Ga3  1  0.24635600  0.09722900  0.92636900  1
  P  P0  1  0.42038500  0.16252600  0.17254500  1
  P  P1  1  0.83747400  0.57961500  0.32745500  1
  P  P2  1  0.57961500  0.83747400  0.82745500  1
  P  P3  1  0.16252600  0.42038500  0.67254500  1
  P  P4  1  0.00352800  0.99647200  0.75000000  1
  P  P5  1  0.99647200  0.00352800  0.25000000  1
  H  H0  1  0.46175300  0.21744800  0.50263700  1
  H  H1  1  0.78255200  0.53824700  0.99736300  1
  H  H2  1  0.53824700  0.78255200  0.49736300  1
  H  H3  1  0.21744800  0.46175300  0.00263700  1
  H  H4  1  0.61018400  0.07298200  0.55082900  1
  H  H5  1  0.92701800  0.38981600  0.94917100  1
  H  H6  1  0.38981600  0.92701800  0.44917100  1
  H  H7  1  0.07298200  0.61018400  0.05082900  1
  O  O0  1  0.22397000  0.32400300  0.53662300  1
  O  O1  1  0.67599700  0.77603000  0.96337700  1
  O  O2  1  0.77603000  0.67599700  0.46337700  1
  O  O3  1  0.32400300  0.22397000  0.03662300  1
  O  O4  1  0.29833400  0.12236300  0.33411200  1
  O  O5  1  0.87763700  0.70166600  0.16588800  1
  O  O6  1  0.70166600  0.87763700  0.66588800  1
  O  O7  1  0.12236300  0.29833400  0.83411200  1
  O  O8  1  0.00766200  0.46323700  0.33895300  1
  O  O9  1  0.53676300  0.99233800  0.16104700  1
  O  O10  1  0.99233800  0.53676300  0.66104700  1
  O  O11  1  0.46323700  0.00766200  0.83895300  1
  O  O12  1  0.97363900  0.14629200  0.61540500  1
  O  O13  1  0.85370800  0.02636100  0.88459500  1
  O  O14  1  0.02636100  0.85370800  0.38459500  1
  O  O15  1  0.14629200  0.97363900  0.11540500  1
  O  O16  1  0.97477300  0.16777900  0.30272100  1
  O  O17  1  0.83222100  0.02522700  0.19727900  1
  O  O18  1  0.02522700  0.83222100  0.69727900  1
  O  O19  1  0.16777900  0.97477300  0.80272100  1
  O  O20  1  0.70514700  0.49204900  0.32972200  1
  O  O21  1  0.50795100  0.29485300  0.17027800  1
  O  O22  1  0.29485300  0.50795100  0.67027800  1
  O  O23  1  0.49204900  0.70514700  0.82972200  1
  O  O24  1  0.58184900  0.18544200  0.48949300  1
  O  O25  1  0.81455800  0.41815100  0.01050700  1
  O  O26  1  0.41815100  0.81455800  0.51050700  1
  O  O27  1  0.18544200  0.58184900  0.98949300  1
loop_
_geom_bond_atom_site_label_1
_geom_bond_atom_site_label_2
_geom_bond_distance
_geom_bond_site_symmetry_2
Cs0 O23 3.107846 1_555
Cs0 O22 3.107846 1_555
Cs0 O13 3.124019 1_555
Cs0 O12 3.124019 1_555
Cs0 O24 3.294186 1_555
Cs0 O25 3.294186 1_556
Cs0 O3 3.468549 1_556
Cs0 O2 3.468549 1_555
Cs0 O11 3.585863 1_555
Cs0 O10 3.585863 1_555
Cs0 O21 3.598734 1_556
Cs0 O20 3.598734 1_555
Cs1 O20 3.107846 1_555
Cs1 O21 3.107846 1_555
Cs1 O14 3.124019 1_555
Cs1 O15 3.124019 1_555
Cs1 O27 3.294186 1_554
Cs1 O26 3.294186 1_555
Cs1 O0 3.468549 1_555
Cs1 O1 3.468549 1_554
Cs1 O8 3.585863 1_555
Cs1 O9 3.585863 1_555
Cs1 O23 3.598734 1_554
Cs1 O22 3.598734 1_555
Mn0 O21 2.099319 1_555
Mn0 O20 2.099319 1_555
Mn0 O25 2.243657 1_555
Mn0 O24 2.243657 1_555
Mn0 O17 2.275480 1_555
Mn0 O16 2.275480 1_555
Mn1 O22 2.099319 1_555
Mn1 O23 2.099319 1_555
Mn1 O26 2.243657 1_555
Mn1 O27 2.243657 1_555
Mn1 O19 2.275480 1_555
Mn1 O18 2.275480 1_555
Ga0 O8 1.877470 1_555
Ga0 O12 1.893810 1_455
Ga0 O4 1.895823 1_555
Ga0 O0 1.981493 1_555
Ga0 O16 2.048161 1_455
Ga1 O9 1.877470 1_555
Ga1 O13 1.893810 1_564
Ga1 O5 1.895823 1_555
Ga1 O1 1.981493 1_554
Ga1 O17 2.048161 1_565
Ga2 O10 1.877470 1_555
Ga2 O14 1.893810 1_655
Ga2 O6 1.895823 1_555
Ga2 O2 1.981493 1_555
Ga2 O18 2.048161 1_655
Ga3 O11 1.877470 1_555
Ga3 O15 1.893810 1_546
Ga3 O7 1.895823 1_555
Ga3 O3 1.981493 1_556
Ga3 O19 2.048161 1_545
H0 O24 0.985594 1_555
H1 O25 0.985594 1_556
H2 O26 0.985594 1_555
H3 O27 0.985594 1_554
H4 O24 0.989321 1_555
H5 O25 0.989321 1_556
H6 O26 0.989321 1_555
H7 O27 0.989321 1_554
O0 P3 1.558271 1_555
O1 P2 1.558271 1_555
O2 P1 1.558271 1_555
O3 P0 1.558271 1_555
O4 P0 1.579922 1_555
O5 P1 1.579922 1_555
O6 P2 1.579922 1_555
O7 P3 1.579922 1_555
O8 P1 1.559420 1_455
O9 P0 1.559420 1_565
O10 P3 1.559420 1_655
O11 P2 1.559420 1_545
O12 P4 1.546305 1_645
O13 P4 1.546305 1_645
O14 P5 1.546305 1_465
O15 P5 1.546305 1_465
O16 P5 1.561333 1_555
O17 P5 1.561333 1_555
O18 P4 1.561333 1_555
O19 P4 1.561333 1_555
O20 P1 1.524199 1_555
O21 P0 1.524199 1_555
O22 P3 1.524199 1_555
O23 P2 1.524199 1_555
