# generated using pymatgen
data_Ca2LaMn2O7
_symmetry_space_group_name_H-M   'P 1'
_cell_length_a   3.88789201
_cell_length_b   3.88794101
_cell_length_c   10.08810111
_cell_angle_alpha   101.11253300
_cell_angle_beta   101.11245195
_cell_angle_gamma   89.99213050
_symmetry_Int_Tables_number   1
_chemical_formula_structural   Ca2LaMn2O7
_chemical_formula_sum   'Ca2 La1 Mn2 O7'
_cell_volume   146.71757910
_cell_formula_units_Z   1
loop_
 _symmetry_equiv_pos_site_id
 _symmetry_equiv_pos_as_xyz
  1  'x, y, z'
loop_
 _atom_site_type_symbol
 _atom_site_label
 _atom_site_symmetry_multiplicity
 _atom_site_fract_x
 _atom_site_fract_y
 _atom_site_fract_z
 _atom_site_occupancy
  Ca  Ca0  1  0.31500200  0.31501000  0.63003300  1
  Ca  Ca1  1  0.68499000  0.68499000  0.36997100  1
  La  La0  1  0.50000600  0.50000500  0.99999500  1
  Mn  Mn0  1  0.89785500  0.89784600  0.79567800  1
  Mn  Mn1  1  0.10214600  0.10214800  0.20432200  1
  O  O0  1  0.00000000  0.00000100  0.99999900  1
  O  O1  1  0.19957300  0.19956500  0.39917000  1
  O  O2  1  0.80043000  0.80043300  0.60082700  1
  O  O3  1  0.09618500  0.59618100  0.19240000  1
  O  O4  1  0.90382000  0.40381800  0.80760300  1
  O  O5  1  0.59618100  0.09618200  0.19240200  1
  O  O6  1  0.40381400  0.90382100  0.80760000  1
loop_
_geom_bond_atom_site_label_1
_geom_bond_atom_site_label_2
_geom_bond_distance
_geom_bond_site_symmetry_2
Ca0 O1 2.240798 1_555
Ca0 O4 2.597894 1_455
Ca0 O6 2.597907 1_545
Ca0 O6 2.598039 1_555
Ca0 O4 2.598054 1_555
Ca0 O2 2.763547 1_455
Ca0 O2 2.763575 1_545
Ca0 O2 2.763776 1_445
Ca0 O2 2.764097 1_555
Ca1 O2 2.240730 1_555
Ca1 O5 2.597932 1_565
Ca1 O3 2.597940 1_655
Ca1 O3 2.598021 1_555
Ca1 O5 2.598040 1_555
Ca1 O1 2.763532 1_565
Ca1 O1 2.763576 1_655
Ca1 O1 2.763813 1_665
Ca1 O1 2.764046 1_555
La0 O4 2.695521 1_455
La0 O6 2.695551 1_545
La0 O3 2.695571 1_656
La0 O5 2.695595 1_566
La0 O4 2.695611 1_555
La0 O6 2.695657 1_555
La0 O3 2.695736 1_556
La0 O5 2.695774 1_556
La0 O0 2.748978 1_655
La0 O0 2.748989 1_565
La0 O0 2.749322 1_665
La0 O0 2.749399 1_555
Mn0 O2 1.891259 1_555
Mn0 O4 1.947378 1_555
Mn0 O6 1.947378 1_655
Mn0 O6 1.947396 1_555
Mn0 O4 1.947449 1_565
Mn0 O0 1.983176 1_665
Mn1 O1 1.891230 1_555
Mn1 O5 1.947368 1_555
Mn1 O3 1.947390 1_555
Mn1 O5 1.947404 1_455
Mn1 O3 1.947434 1_545
Mn1 O0 1.983196 1_554
