# generated using pymatgen
data_Ba6Os2N6O
_symmetry_space_group_name_H-M   'P 1'
_cell_length_a   7.49794805
_cell_length_b   7.49794805
_cell_length_c   7.49794829
_cell_angle_alpha   66.03621890
_cell_angle_beta   66.03621890
_cell_angle_gamma   66.03622752
_symmetry_Int_Tables_number   1
_chemical_formula_structural   Ba6Os2N6O
_chemical_formula_sum   'Ba6 Os2 N6 O1'
_cell_volume   336.98817495
_cell_formula_units_Z   1
loop_
 _symmetry_equiv_pos_site_id
 _symmetry_equiv_pos_as_xyz
  1  'x, y, z'
loop_
 _atom_site_type_symbol
 _atom_site_label
 _atom_site_symmetry_multiplicity
 _atom_site_fract_x
 _atom_site_fract_y
 _atom_site_fract_z
 _atom_site_occupancy
  Ba  Ba0  1  0.33391800  0.18382400  0.73654400  1
  Ba  Ba1  1  0.18382400  0.73654400  0.33391800  1
  Ba  Ba2  1  0.73654400  0.33391800  0.18382400  1
  Ba  Ba3  1  0.66608200  0.81617600  0.26345600  1
  Ba  Ba4  1  0.81617600  0.26345600  0.66608200  1
  Ba  Ba5  1  0.26345600  0.66608200  0.81617600  1
  Os  Os0  1  0.24714100  0.24714100  0.24714100  1
  Os  Os1  1  0.75285900  0.75285900  0.75285900  1
  N  N0  1  0.24887100  0.02506100  0.47284600  1
  N  N1  1  0.02506100  0.47284600  0.24887100  1
  N  N2  1  0.47284600  0.24887100  0.02506100  1
  N  N3  1  0.75112900  0.97493900  0.52715400  1
  N  N4  1  0.97493900  0.52715400  0.75112900  1
  N  N5  1  0.52715400  0.75112900  0.97493900  1
  O  O0  1  0.50000000  0.50000000  0.50000000  1
loop_
_geom_bond_atom_site_label_1
_geom_bond_atom_site_label_2
_geom_bond_distance
_geom_bond_site_symmetry_2
Ba0 O0 2.739512 1_555
Ba0 N4 2.871352 1_455
Ba0 N3 2.954942 1_545
Ba0 N2 3.017121 1_556
Ba0 N0 3.047242 1_555
Ba0 N5 3.065054 1_545
Ba1 O0 2.739512 1_555
Ba1 N5 2.871351 1_554
Ba1 N4 2.954942 1_455
Ba1 N0 3.017121 1_565
Ba1 N1 3.047242 1_555
Ba1 N3 3.065054 1_455
Ba2 O0 2.739512 1_555
Ba2 N3 2.871351 1_545
Ba2 N5 2.954942 1_554
Ba2 N1 3.017121 1_655
Ba2 N2 3.047242 1_555
Ba2 N4 3.065053 1_554
Ba3 O0 2.739512 1_555
Ba3 N1 2.871352 1_655
Ba3 N0 2.954942 1_565
Ba3 N5 3.017121 1_554
Ba3 N3 3.047242 1_555
Ba3 N2 3.065054 1_565
Ba4 O0 2.739512 1_555
Ba4 N2 2.871351 1_556
Ba4 N1 2.954942 1_655
Ba4 N3 3.017121 1_545
Ba4 N4 3.047242 1_555
Ba4 N0 3.065054 1_655
Ba5 O0 2.739512 1_555
Ba5 N0 2.871351 1_565
Ba5 N2 2.954942 1_556
Ba5 N4 3.017121 1_455
Ba5 N5 3.047242 1_555
Ba5 N1 3.065053 1_556
N0 Os0 1.829765 1_555
N1 Os0 1.829765 1_555
N2 Os0 1.829765 1_555
N3 Os1 1.829765 1_555
N4 Os1 1.829765 1_555
N5 Os1 1.829765 1_555
