# generated using pymatgen
data_Li3Zn
_symmetry_space_group_name_H-M   'P 1'
_cell_length_a   5.69645803
_cell_length_b   5.69645803
_cell_length_c   4.61222119
_cell_angle_alpha   90.00000000
_cell_angle_beta   90.00000000
_cell_angle_gamma   120.00013442
_symmetry_Int_Tables_number   1
_chemical_formula_structural   Li3Zn
_chemical_formula_sum   'Li6 Zn2'
_cell_volume   129.61342136
_cell_formula_units_Z   2
loop_
 _symmetry_equiv_pos_site_id
 _symmetry_equiv_pos_as_xyz
  1  'x, y, z'
loop_
 _atom_site_type_symbol
 _atom_site_label
 _atom_site_symmetry_multiplicity
 _atom_site_fract_x
 _atom_site_fract_y
 _atom_site_fract_z
 _atom_site_occupancy
  Li  Li0  1  0.17214674  0.34429448  0.25000000  1
  Li  Li1  1  0.65570552  0.82785326  0.25000000  1
  Li  Li2  1  0.17214674  0.82785326  0.25000000  1
  Li  Li3  1  0.82785326  0.65570552  0.75000000  1
  Li  Li4  1  0.34429448  0.17214674  0.75000000  1
  Li  Li5  1  0.82785326  0.17214674  0.75000000  1
  Zn  Zn0  1  0.33333300  0.66666700  0.75000000  1
  Zn  Zn1  1  0.66666700  0.33333300  0.25000000  1
loop_
_geom_bond_atom_site_label_1
_geom_bond_atom_site_label_2
_geom_bond_distance
_geom_bond_site_symmetry_2
Li0 Li1 2.754567 1_555
Li0 Li2 2.754572 1_555
Li0 Zn0 2.801314 1_554
Li0 Zn0 2.801314 1_555
Li0 Zn1 2.848736 1_455
Li0 Zn1 2.848748 1_555
Li0 Li5 2.864092 1_455
Li0 Li5 2.864092 1_454
Li0 Li4 2.864100 1_554
Li0 Li4 2.864100 1_555
Li0 Li1 2.941880 1_445
Li0 Li2 2.941886 1_545
Li1 Li2 2.754572 1_555
Li1 Zn0 2.801314 1_554
Li1 Zn0 2.801314 1_555
Li1 Zn1 2.848736 1_565
Li1 Zn1 2.848748 1_555
Li1 Li5 2.864092 1_565
Li1 Li5 2.864092 1_564
Li1 Li3 2.864100 1_554
Li1 Li3 2.864100 1_555
Li1 Li2 2.941886 1_655
Li2 Zn0 2.801316 1_554
Li2 Zn0 2.801316 1_555
Li2 Zn1 2.848736 1_455
Li2 Zn1 2.848736 1_565
Li2 Li3 2.864092 1_455
Li2 Li3 2.864092 1_454
Li2 Li4 2.864092 1_565
Li2 Li4 2.864092 1_564
Li3 Li4 2.754567 1_555
Li3 Li5 2.754572 1_555
Li3 Zn1 2.801314 1_555
Li3 Zn1 2.801314 1_556
Li3 Zn0 2.848736 1_655
Li3 Zn0 2.848748 1_555
Li3 Li4 2.941880 1_665
Li3 Li5 2.941886 1_565
Li4 Li5 2.754572 1_555
Li4 Zn1 2.801314 1_555
Li4 Zn1 2.801314 1_556
Li4 Zn0 2.848736 1_545
Li4 Zn0 2.848748 1_555
Li4 Li5 2.941886 1_455
Li5 Zn1 2.801316 1_555
Li5 Zn1 2.801316 1_556
Li5 Zn0 2.848736 1_545
Li5 Zn0 2.848736 1_655
