# generated using pymatgen
data_SrCaMg6O8
_symmetry_space_group_name_H-M   'P 1'
_cell_length_a   8.87421665
_cell_length_b   4.57225498
_cell_length_c   4.57225498
_cell_angle_alpha   90.00000000
_cell_angle_beta   90.00000000
_cell_angle_gamma   90.00000000
_symmetry_Int_Tables_number   1
_chemical_formula_structural   SrCaMg6O8
_chemical_formula_sum   'Sr1 Ca1 Mg6 O8'
_cell_volume   185.52007463
_cell_formula_units_Z   1
loop_
 _symmetry_equiv_pos_site_id
 _symmetry_equiv_pos_as_xyz
  1  'x, y, z'
loop_
 _atom_site_type_symbol
 _atom_site_label
 _atom_site_symmetry_multiplicity
 _atom_site_fract_x
 _atom_site_fract_y
 _atom_site_fract_z
 _atom_site_occupancy
  Sr  Sr0  1  -0.00000000  0.50000000  0.50000000  1
  Ca  Ca0  1  -0.00000000  0.00000000  -0.00000000  1
  Mg  Mg0  1  0.50000000  0.00000000  -0.00000000  1
  Mg  Mg1  1  0.50000000  0.50000000  0.50000000  1
  Mg  Mg2  1  0.26795952  0.00000000  0.50000000  1
  Mg  Mg3  1  0.73204048  -0.00000000  0.50000000  1
  Mg  Mg4  1  0.26795952  0.50000000  0.00000000  1
  Mg  Mg5  1  0.73204048  0.50000000  -0.00000000  1
  O  O0  1  0.26661277  0.00000000  -0.00000000  1
  O  O1  1  0.73338723  -0.00000000  0.00000000  1
  O  O2  1  0.27401152  0.50000000  0.50000000  1
  O  O3  1  0.72598848  0.50000000  0.50000000  1
  O  O4  1  -0.00000000  0.00000000  0.50000000  1
  O  O5  1  0.50000000  0.00000000  0.50000000  1
  O  O6  1  -0.00000000  0.50000000  -0.00000000  1
  O  O7  1  0.50000000  0.50000000  -0.00000000  1
loop_
_geom_bond_atom_site_label_1
_geom_bond_atom_site_label_2
_geom_bond_distance
_geom_bond_site_symmetry_2
Ca0 O6 2.286127 1_555
Ca0 O4 2.286127 1_555
Ca0 O4 2.286127 1_554
Ca0 O6 2.286127 1_545
Ca0 O1 2.365979 1_455
Ca0 O0 2.365979 1_555
Mg0 O0 2.071129 1_555
Mg0 O1 2.071129 1_555
Mg0 O7 2.286127 1_555
Mg0 O5 2.286127 1_554
Mg0 O5 2.286127 1_555
Mg0 O7 2.286127 1_545
Mg1 O2 2.005471 1_555
Mg1 O3 2.005471 1_555
Mg1 O7 2.286127 1_555
Mg1 O7 2.286127 1_556
Mg1 O5 2.286127 1_565
Mg1 O5 2.286127 1_555
Mg2 O5 2.059177 1_555
Mg2 O0 2.286159 1_555
Mg2 O0 2.286159 1_556
Mg2 O2 2.286758 1_555
Mg2 O2 2.286758 1_545
Mg2 O4 2.377931 1_555
Mg3 O5 2.059177 1_555
Mg3 O1 2.286159 1_555
Mg3 O1 2.286159 1_556
Mg3 O3 2.286758 1_545
Mg3 O3 2.286758 1_555
Mg3 O4 2.377931 1_655
Mg4 O7 2.059177 1_555
Mg4 O0 2.286159 1_555
Mg4 O0 2.286159 1_565
Mg4 O2 2.286758 1_554
Mg4 O2 2.286758 1_555
Mg4 O6 2.377931 1_555
Mg5 O7 2.059177 1_555
Mg5 O1 2.286159 1_555
Mg5 O1 2.286159 1_565
Mg5 O3 2.286758 1_555
Mg5 O3 2.286758 1_554
Mg5 O6 2.377931 1_655
O2 Sr0 2.431638 1_555
O3 Sr0 2.431638 1_655
O4 Sr0 2.286127 1_545
O4 Sr0 2.286127 1_555
O6 Sr0 2.286127 1_555
O6 Sr0 2.286127 1_554
