# generated using pymatgen
data_MnAlPH4O7
_symmetry_space_group_name_H-M   'P 1'
_cell_length_a   6.52081841
_cell_length_b   6.52081841
_cell_length_c   13.57492800
_cell_angle_alpha   90.00000000
_cell_angle_beta   90.00000000
_cell_angle_gamma   109.68871772
_symmetry_Int_Tables_number   1
_chemical_formula_structural   MnAlPH4O7
_chemical_formula_sum   'Mn4 Al4 P4 H16 O28'
_cell_volume   543.47440360
_cell_formula_units_Z   4
loop_
 _symmetry_equiv_pos_site_id
 _symmetry_equiv_pos_as_xyz
  1  'x, y, z'
loop_
 _atom_site_type_symbol
 _atom_site_label
 _atom_site_symmetry_multiplicity
 _atom_site_fract_x
 _atom_site_fract_y
 _atom_site_fract_z
 _atom_site_occupancy
  Mn  Mn0  1  0.63039200  0.86960800  0.75000000  1
  Mn  Mn1  1  0.36960800  0.13039200  0.25000000  1
  Mn  Mn2  1  0.86960800  0.63039200  0.25000000  1
  Mn  Mn3  1  0.13039200  0.36960800  0.75000000  1
  Al  Al0  1  0.50000000  0.00000000  0.50000000  1
  Al  Al1  1  0.00000000  0.50000000  0.00000000  1
  Al  Al2  1  0.50000000  0.00000000  0.00000000  1
  Al  Al3  1  0.00000000  0.50000000  0.50000000  1
  P  P0  1  0.13164500  0.86835500  0.83605600  1
  P  P1  1  0.86835500  0.13164500  0.16394400  1
  P  P2  1  0.36835500  0.63164500  0.33605600  1
  P  P3  1  0.63164500  0.36835500  0.66394400  1
  H  H0  1  0.26332100  0.93537700  0.62184900  1
  H  H1  1  0.73667900  0.06462300  0.37815100  1
  H  H2  1  0.23667900  0.56462300  0.12184900  1
  H  H3  1  0.56462300  0.23667900  0.87815100  1
  H  H4  1  0.76332100  0.43537700  0.87815100  1
  H  H5  1  0.43537700  0.76332100  0.12184900  1
  H  H6  1  0.93537700  0.26332100  0.37815100  1
  H  H7  1  0.06462300  0.73667900  0.62184900  1
  H  H8  1  0.69166100  0.77922900  0.57142400  1
  H  H9  1  0.30833900  0.22077100  0.42857600  1
  H  H10  1  0.80833900  0.72077100  0.07142400  1
  H  H11  1  0.72077100  0.80833900  0.92857600  1
  H  H12  1  0.19166100  0.27922900  0.92857600  1
  H  H13  1  0.27922900  0.19166100  0.07142400  1
  H  H14  1  0.77922900  0.69166100  0.42857600  1
  H  H15  1  0.22077100  0.30833900  0.57142400  1
  O  O0  1  0.24528900  0.75471100  0.76567100  1
  O  O1  1  0.75471100  0.24528900  0.23432900  1
  O  O2  1  0.25471100  0.74528900  0.26567100  1
  O  O3  1  0.74528900  0.25471100  0.73432900  1
  O  O4  1  0.46851900  0.19866200  0.59413200  1
  O  O5  1  0.53148100  0.80133800  0.40586800  1
  O  O6  1  0.03148100  0.30133800  0.09413200  1
  O  O7  1  0.30133800  0.03148100  0.90586800  1
  O  O8  1  0.96851900  0.69866200  0.90586800  1
  O  O9  1  0.69866200  0.96851900  0.09413200  1
  O  O10  1  0.19866200  0.46851900  0.40586800  1
  O  O11  1  0.80133800  0.53148100  0.59413200  1
  O  O12  1  0.50698500  0.49301500  0.72172600  1
  O  O13  1  0.49301500  0.50698500  0.27827400  1
  O  O14  1  0.99301500  0.00698500  0.22172600  1
  O  O15  1  0.00698500  0.99301500  0.77827400  1
  O  O16  1  0.17034200  0.82965700  0.57382100  1
  O  O17  1  0.82965800  0.17034200  0.42617900  1
  O  O18  1  0.32965700  0.67034200  0.07382100  1
  O  O19  1  0.67034200  0.32965800  0.92617900  1
  O  O20  1  0.63275200  0.89134500  0.59268900  1
  O  O21  1  0.36724800  0.10865500  0.40731100  1
  O  O22  1  0.86724800  0.60865500  0.09268900  1
  O  O23  1  0.60865500  0.86724800  0.90731100  1
  O  O24  1  0.13275200  0.39134500  0.90731100  1
  O  O25  1  0.39134500  0.13275200  0.09268900  1
  O  O26  1  0.89134500  0.63275200  0.40731100  1
  O  O27  1  0.10865500  0.36724800  0.59268900  1
loop_
_geom_bond_atom_site_label_1
_geom_bond_atom_site_label_2
_geom_bond_distance
_geom_bond_site_symmetry_2
Mn0 O23 2.139896 1_555
Mn0 O20 2.139896 1_555
Mn0 O12 2.343877 1_555
Mn0 O15 2.343877 1_655
Mn0 O3 2.375900 1_565
Mn0 O0 2.375900 1_555
Mn1 O21 2.139896 1_555
Mn1 O25 2.139896 1_555
Mn1 O14 2.343877 1_455
Mn1 O13 2.343877 1_555
Mn1 O2 2.375900 1_545
Mn1 O1 2.375900 1_555
Mn2 O22 2.139896 1_555
Mn2 O26 2.139896 1_555
Mn2 O14 2.343877 1_565
Mn2 O13 2.343877 1_555
Mn2 O2 2.375900 1_655
Mn2 O1 2.375900 1_555
Mn3 O24 2.139896 1_555
Mn3 O27 2.139896 1_555
Mn3 O15 2.343877 1_545
Mn3 O12 2.343877 1_555
Mn3 O3 2.375900 1_455
Mn3 O0 2.375900 1_555
Al0 O20 1.802169 1_545
Al0 O21 1.802169 1_555
Al0 O5 1.879456 1_545
Al0 O4 1.879456 1_555
Al1 O22 1.802169 1_455
Al1 O24 1.802169 1_554
Al1 O8 1.879456 1_454
Al1 O6 1.879456 1_555
Al2 O25 1.802169 1_555
Al2 O23 1.802169 1_544
Al2 O9 1.879456 1_545
Al2 O7 1.879456 1_554
Al3 O26 1.802169 1_455
Al3 O27 1.802169 1_555
Al3 O10 1.879456 1_555
Al3 O11 1.879456 1_455
H0 O16 0.993117 1_555
H1 O17 0.993114 1_555
H2 O18 0.993111 1_555
H3 O19 0.993114 1_555
H4 O19 0.993114 1_555
H5 O18 0.993117 1_555
H6 O17 0.993114 1_555
H7 O16 0.993111 1_555
H8 O20 0.977043 1_555
H9 O21 0.977043 1_555
H10 O22 0.977043 1_555
H11 O23 0.977043 1_555
H12 O24 0.977043 1_555
H13 O25 0.977043 1_555
H14 O26 0.977043 1_555
H15 O27 0.977043 1_555
O0 P0 1.543138 1_555
O1 P1 1.543138 1_555
O2 P2 1.543138 1_555
O3 P3 1.543138 1_555
O4 P3 1.568733 1_555
O5 P2 1.568733 1_555
O6 P1 1.568733 1_455
O7 P0 1.568733 1_545
O8 P0 1.568733 1_655
O9 P1 1.568733 1_565
O10 P2 1.568733 1_555
O11 P3 1.568733 1_555
O12 P3 1.543397 1_555
O13 P2 1.543397 1_555
O14 P1 1.543397 1_555
O15 P0 1.543397 1_555
