# generated using pymatgen
data_Sr(ScS2)2
_symmetry_space_group_name_H-M   'P 1'
_cell_length_a   3.79949535
_cell_length_b   11.69713916
_cell_length_c   13.72711071
_cell_angle_alpha   90.00000000
_cell_angle_beta   90.00000000
_cell_angle_gamma   90.00000000
_symmetry_Int_Tables_number   1
_chemical_formula_structural   Sr(ScS2)2
_chemical_formula_sum   'Sr4 Sc8 S16'
_cell_volume   610.07708151
_cell_formula_units_Z   4
loop_
 _symmetry_equiv_pos_site_id
 _symmetry_equiv_pos_as_xyz
  1  'x, y, z'
loop_
 _atom_site_type_symbol
 _atom_site_label
 _atom_site_symmetry_multiplicity
 _atom_site_fract_x
 _atom_site_fract_y
 _atom_site_fract_z
 _atom_site_occupancy
  Sr  Sr0  1  0.25000000  0.23907948  0.33349817  1
  Sr  Sr1  1  0.75000000  0.76092052  0.66650183  1
  Sr  Sr2  1  0.25000000  0.73907948  0.16650183  1
  Sr  Sr3  1  0.75000000  0.26092052  0.83349817  1
  Sc  Sc0  1  0.25000000  0.56004388  0.39056037  1
  Sc  Sc1  1  0.75000000  0.43995612  0.60943963  1
  Sc  Sc2  1  0.25000000  0.06004388  0.10943963  1
  Sc  Sc3  1  0.75000000  0.93995612  0.89056037  1
  Sc  Sc4  1  0.25000000  0.58085321  0.90148407  1
  Sc  Sc5  1  0.75000000  0.41914679  0.09851593  1
  Sc  Sc6  1  0.25000000  0.08085321  0.59851593  1
  Sc  Sc7  1  0.75000000  0.91914679  0.40148407  1
  S  S0  1  0.25000000  0.58631082  0.57490562  1
  S  S1  1  0.75000000  0.41368918  0.42509438  1
  S  S2  1  0.25000000  0.08631082  0.92509438  1
  S  S3  1  0.75000000  0.91368918  0.07490562  1
  S  S4  1  0.25000000  0.47228635  0.21562174  1
  S  S5  1  0.75000000  0.52771365  0.78437826  1
  S  S6  1  0.25000000  0.97228635  0.28437826  1
  S  S7  1  0.75000000  0.02771365  0.71562174  1
  S  S8  1  0.25000000  0.87735110  0.52671371  1
  S  S9  1  0.75000000  0.12264890  0.47328629  1
  S  S10  1  0.25000000  0.37735110  0.97328629  1
  S  S11  1  0.75000000  0.62264890  0.02671371  1
  S  S12  1  0.75000000  0.70375412  0.33985951  1
  S  S13  1  0.25000000  0.29624588  0.66014049  1
  S  S14  1  0.75000000  0.20375412  0.16014049  1
  S  S15  1  0.25000000  0.79624588  0.83985951  1
loop_
_geom_bond_atom_site_label_1
_geom_bond_atom_site_label_2
_geom_bond_distance
_geom_bond_site_symmetry_2
S0 Sc0 2.549112 1_555
S0 Sc1 2.600861 1_455
S0 Sc1 2.600861 1_555
S0 Sr1 3.059658 1_555
S0 Sr1 3.059658 1_455
S1 Sc1 2.549112 1_555
S1 Sc0 2.600861 1_655
S1 Sc0 2.600861 1_555
S1 Sr0 3.059658 1_655
S1 Sr0 3.059658 1_555
S2 Sc2 2.549112 1_556
S2 Sc3 2.600861 1_545
S2 Sc3 2.600861 1_445
S2 Sr3 3.059658 1_455
S2 Sr3 3.059658 1_555
S3 Sc3 2.549112 1_554
S3 Sc2 2.600861 1_665
S3 Sc2 2.600861 1_565
S3 Sr2 3.059658 1_555
S3 Sr2 3.059658 1_655
S4 Sc5 2.565061 1_555
S4 Sc5 2.565061 1_455
S4 Sc0 2.611601 1_555
S4 Sr0 3.171662 1_555
S4 Sr2 3.192729 1_555
S5 Sc4 2.565061 1_555
S5 Sc4 2.565061 1_655
S5 Sc1 2.611601 1_555
S5 Sr1 3.171662 1_555
S5 Sr3 3.192729 1_555
S6 Sc7 2.565061 1_455
S6 Sc7 2.565061 1_555
S6 Sc2 2.611601 1_565
S6 Sr2 3.171662 1_555
S6 Sr0 3.192729 1_565
S7 Sc6 2.565061 1_655
S7 Sc6 2.565061 1_555
S7 Sc3 2.611601 1_545
S7 Sr3 3.171662 1_555
S7 Sr1 3.192729 1_545
S8 Sc6 2.576383 1_565
S8 Sc7 2.608286 1_455
S8 Sc7 2.608286 1_555
S8 Sr1 3.024228 1_555
S8 Sr1 3.024228 1_455
S9 Sc7 2.576383 1_545
S9 Sc6 2.608286 1_555
S9 Sc6 2.608286 1_655
S9 Sr0 3.024228 1_555
S9 Sr0 3.024228 1_655
S10 Sc4 2.576383 1_555
S10 Sc5 2.608286 1_456
S10 Sc5 2.608286 1_556
S10 Sr3 3.024228 1_555
S10 Sr3 3.024228 1_455
S11 Sc5 2.576383 1_555
S11 Sc4 2.608286 1_554
S11 Sc4 2.608286 1_654
S11 Sr2 3.024228 1_555
S11 Sr2 3.024228 1_655
S12 Sc0 2.630434 1_655
S12 Sc0 2.630434 1_555
S12 Sc7 2.657699 1_555
S12 Sr2 3.072906 1_555
S12 Sr2 3.072906 1_655
S13 Sc1 2.630434 1_555
S13 Sc1 2.630434 1_455
S13 Sc6 2.657699 1_555
S13 Sr3 3.072906 1_555
S13 Sr3 3.072906 1_455
S14 Sc2 2.630434 1_655
S14 Sc2 2.630434 1_555
S14 Sc5 2.657699 1_555
S14 Sr0 3.072906 1_655
S14 Sr0 3.072906 1_555
S15 Sc3 2.630434 1_555
S15 Sc3 2.630434 1_455
S15 Sc4 2.657699 1_555
S15 Sr1 3.072906 1_455
S15 Sr1 3.072906 1_555
