# generated using pymatgen
data_V3Ga
_symmetry_space_group_name_H-M   'P 1'
_cell_length_a   5.24174967
_cell_length_b   5.24174967
_cell_length_c   16.83601800
_cell_angle_alpha   90.00000000
_cell_angle_beta   90.00000000
_cell_angle_gamma   106.02254577
_symmetry_Int_Tables_number   1
_chemical_formula_structural   V3Ga
_chemical_formula_sum   'V24 Ga8'
_cell_volume   444.61543216
_cell_formula_units_Z   8
loop_
 _symmetry_equiv_pos_site_id
 _symmetry_equiv_pos_as_xyz
  1  'x, y, z'
loop_
 _atom_site_type_symbol
 _atom_site_label
 _atom_site_symmetry_multiplicity
 _atom_site_fract_x
 _atom_site_fract_y
 _atom_site_fract_z
 _atom_site_occupancy
  V  V0_0  1  0.25000000  0.25000000  0.37203550  1
  V  V0_1  1  0.25000000  0.25000000  0.87203550  1
  V  V0_2  1  0.25000000  0.75000000  0.37203550  1
  V  V0_3  1  0.25000000  0.75000000  0.87203550  1
  V  V0_4  1  0.75000000  0.25000000  0.37203550  1
  V  V0_5  1  0.75000000  0.25000000  0.87203550  1
  V  V0_6  1  0.75000000  0.75000000  0.37203550  1
  V  V0_7  1  0.75000000  0.75000000  0.87203550  1
  V  V1_0  1  0.00000000  0.00000000  0.25000000  1
  V  V1_1  1  0.00000000  0.00000000  0.75000000  1
  V  V1_2  1  0.00000000  0.50000000  0.25000000  1
  V  V1_3  1  0.00000000  0.50000000  0.75000000  1
  V  V1_4  1  0.50000000  0.00000000  0.25000000  1
  V  V1_5  1  0.50000000  0.00000000  0.75000000  1
  V  V1_6  1  0.50000000  0.50000000  0.25000000  1
  V  V1_7  1  0.50000000  0.50000000  0.75000000  1
  V  V2_0  1  0.25000000  0.25000000  0.12796450  1
  V  V2_1  1  0.25000000  0.25000000  0.62796450  1
  V  V2_2  1  0.25000000  0.75000000  0.12796450  1
  V  V2_3  1  0.25000000  0.75000000  0.62796450  1
  V  V2_4  1  0.75000000  0.25000000  0.12796450  1
  V  V2_5  1  0.75000000  0.25000000  0.62796450  1
  V  V2_6  1  0.75000000  0.75000000  0.12796450  1
  V  V2_7  1  0.75000000  0.75000000  0.62796450  1
  Ga  Ga0_0  1  0.00000000  0.00000000  0.00000000  1
  Ga  Ga0_1  1  0.00000000  0.00000000  0.50000000  1
  Ga  Ga0_2  1  0.00000000  0.50000000  0.00000000  1
  Ga  Ga0_3  1  0.00000000  0.50000000  0.50000000  1
  Ga  Ga0_4  1  0.50000000  0.00000000  0.00000000  1
  Ga  Ga0_5  1  0.50000000  0.00000000  0.50000000  1
  Ga  Ga0_6  1  0.50000000  0.50000000  0.00000000  1
  Ga  Ga0_7  1  0.50000000  0.50000000  0.50000000  1
loop_
_geom_bond_atom_site_label_1
_geom_bond_atom_site_label_2
_geom_bond_distance
_geom_bond_site_symmetry_2
V0_0 V1_6 2.589955 1_555
V0_0 V1_0 2.589955 1_555
V0_1 V1_7 2.589955 1_555
V0_1 V1_1 2.589955 1_555
V0_2 V1_2 2.589955 1_555
V0_2 V1_4 2.589955 1_565
V0_3 V1_5 2.589955 1_565
V0_3 V1_3 2.589955 1_555
V0_4 V1_4 2.589955 1_555
V0_4 V1_2 2.589955 1_655
V0_5 V1_3 2.589955 1_655
V0_5 V1_5 2.589955 1_555
V0_6 V1_0 2.589955 1_665
V0_6 V1_6 2.589955 1_555
V0_7 V1_1 2.589955 1_665
V0_7 V1_7 2.589955 1_555
V1_0 V2_6 2.589955 1_445
V1_0 V2_0 2.589955 1_555
V1_0 V1_2 2.620875 1_555
V1_0 V1_4 2.620875 1_455
V1_0 V1_2 2.620875 1_545
V1_0 V1_4 2.620875 1_555
V1_1 V2_7 2.589955 1_445
V1_1 V2_1 2.589955 1_555
V1_1 V1_3 2.620875 1_555
V1_1 V1_5 2.620875 1_455
V1_1 V1_5 2.620875 1_555
V1_1 V1_3 2.620875 1_545
V1_2 V2_4 2.589955 1_455
V1_2 V2_2 2.589955 1_555
V1_2 V1_6 2.620875 1_455
V1_2 V1_6 2.620875 1_555
V1_3 V2_3 2.589955 1_555
V1_3 V2_5 2.589955 1_455
V1_3 V1_7 2.620875 1_455
V1_3 V1_7 2.620875 1_555
V1_4 V2_2 2.589955 1_545
V1_4 V2_4 2.589955 1_555
V1_4 V1_6 2.620875 1_545
V1_4 V1_6 2.620875 1_555
V1_5 V2_5 2.589955 1_555
V1_5 V2_3 2.589955 1_545
V1_5 V1_7 2.620875 1_545
V1_5 V1_7 2.620875 1_555
V1_6 V2_0 2.589955 1_555
V1_6 V2_6 2.589955 1_555
V1_7 V2_1 2.589955 1_555
V1_7 V2_7 2.589955 1_555
Ga0_0 Ga0_4 2.620875 1_455
Ga0_0 Ga0_4 2.620875 1_555
Ga0_0 Ga0_2 2.620875 1_545
Ga0_0 Ga0_2 2.620875 1_555
Ga0_0 V2_6 2.669834 1_445
Ga0_0 V2_0 2.669834 1_555
Ga0_0 V0_7 2.669834 1_444
Ga0_0 V0_1 2.669834 1_554
Ga0_0 V2_4 3.003991 1_455
Ga0_0 V2_2 3.003991 1_545
Ga0_0 V0_5 3.003991 1_454
Ga0_0 V0_3 3.003991 1_544
Ga0_1 Ga0_3 2.620875 1_555
Ga0_1 Ga0_3 2.620875 1_545
Ga0_1 Ga0_5 2.620875 1_555
Ga0_1 Ga0_5 2.620875 1_455
Ga0_1 V2_7 2.669834 1_445
Ga0_1 V2_1 2.669834 1_555
Ga0_1 V0_6 2.669834 1_445
Ga0_1 V0_0 2.669834 1_555
Ga0_1 V2_5 3.003991 1_455
Ga0_1 V2_3 3.003991 1_545
Ga0_1 V0_2 3.003991 1_545
Ga0_1 V0_4 3.003991 1_455
Ga0_2 Ga0_6 2.620875 1_455
Ga0_2 Ga0_6 2.620875 1_555
Ga0_2 V2_2 2.669834 1_555
Ga0_2 V2_4 2.669834 1_455
Ga0_2 V0_5 2.669834 1_454
Ga0_2 V0_3 2.669834 1_554
Ga0_2 V2_0 3.003991 1_555
Ga0_2 V2_6 3.003991 1_455
Ga0_2 V0_7 3.003991 1_454
Ga0_2 V0_1 3.003991 1_554
Ga0_3 Ga0_7 2.620875 1_555
Ga0_3 Ga0_7 2.620875 1_455
Ga0_3 V2_5 2.669834 1_455
Ga0_3 V2_3 2.669834 1_555
Ga0_3 V0_4 2.669834 1_455
Ga0_3 V0_2 2.669834 1_555
Ga0_3 V2_7 3.003991 1_455
Ga0_3 V2_1 3.003991 1_555
Ga0_3 V0_0 3.003991 1_555
Ga0_3 V0_6 3.003991 1_455
Ga0_4 Ga0_6 2.620875 1_545
Ga0_4 Ga0_6 2.620875 1_555
Ga0_4 V2_2 2.669834 1_545
Ga0_4 V2_4 2.669834 1_555
Ga0_4 V0_5 2.669834 1_554
Ga0_4 V0_3 2.669834 1_544
Ga0_4 V2_0 3.003991 1_555
Ga0_4 V2_6 3.003991 1_545
Ga0_4 V0_1 3.003991 1_554
Ga0_4 V0_7 3.003991 1_544
Ga0_5 Ga0_7 2.620875 1_555
Ga0_5 Ga0_7 2.620875 1_545
Ga0_5 V2_5 2.669834 1_555
Ga0_5 V2_3 2.669834 1_545
Ga0_5 V0_4 2.669834 1_555
Ga0_5 V0_2 2.669834 1_545
Ga0_5 V2_1 3.003991 1_555
Ga0_5 V2_7 3.003991 1_545
Ga0_5 V0_0 3.003991 1_555
Ga0_5 V0_6 3.003991 1_545
Ga0_6 V2_6 2.669834 1_555
Ga0_6 V2_0 2.669834 1_555
Ga0_6 V0_1 2.669834 1_554
Ga0_6 V0_7 2.669834 1_554
Ga0_6 V2_4 3.003991 1_555
Ga0_6 V2_2 3.003991 1_555
Ga0_6 V0_5 3.003991 1_554
Ga0_6 V0_3 3.003991 1_554
Ga0_7 V2_1 2.669834 1_555
Ga0_7 V2_7 2.669834 1_555
Ga0_7 V0_0 2.669834 1_555
Ga0_7 V0_6 2.669834 1_555
Ga0_7 V2_5 3.003991 1_555
Ga0_7 V2_3 3.003991 1_555
Ga0_7 V0_2 3.003991 1_555
Ga0_7 V0_4 3.003991 1_555
