# generated using pymatgen
data_Na5Fe2P2(CO7)2
_symmetry_space_group_name_H-M   'P 1'
_cell_length_a   6.61882400
_cell_length_b   9.03177291
_cell_length_c   10.52712526
_cell_angle_alpha   90.54551346
_cell_angle_beta   90.19356930
_cell_angle_gamma   90.50865273
_symmetry_Int_Tables_number   1
_chemical_formula_structural   Na5Fe2P2(CO7)2
_chemical_formula_sum   'Na10 Fe4 P4 C4 O28'
_cell_volume   629.25145684
_cell_formula_units_Z   2
loop_
 _symmetry_equiv_pos_site_id
 _symmetry_equiv_pos_as_xyz
  1  'x, y, z'
loop_
 _atom_site_type_symbol
 _atom_site_label
 _atom_site_symmetry_multiplicity
 _atom_site_fract_x
 _atom_site_fract_y
 _atom_site_fract_z
 _atom_site_occupancy
  Na  Na0  1  0.73057600  0.92151500  0.12354000  1
  Na  Na1  1  0.73753300  0.91531200  0.64042100  1
  Na  Na2  1  0.98944000  0.74016100  0.87038100  1
  Na  Na3  1  0.99923000  0.73302200  0.38216800  1
  Na  Na4  1  0.50529800  0.73046300  0.38847600  1
  Na  Na5  1  0.01056000  0.25983900  0.12961900  1
  Na  Na6  1  0.49470200  0.26953700  0.61152400  1
  Na  Na7  1  0.00077000  0.26697800  0.61783200  1
  Na  Na8  1  0.26942400  0.07848500  0.87646000  1
  Na  Na9  1  0.26246700  0.08468800  0.35957900  1
  Fe  Fe0  1  0.25772800  0.64302700  0.13701900  1
  Fe  Fe1  1  0.25483800  0.65899400  0.64680700  1
  Fe  Fe2  1  0.74227200  0.35697300  0.86298100  1
  Fe  Fe3  1  0.74516200  0.34100600  0.35319300  1
  P  P0  1  0.75401800  0.57668600  0.10315500  1
  P  P1  1  0.75198200  0.58401800  0.60529300  1
  P  P2  1  0.24598200  0.42331400  0.89684500  1
  P  P3  1  0.24801800  0.41598200  0.39470700  1
  C  C0  1  0.24163200  0.92346300  0.11785600  1
  C  C1  1  0.24351800  0.94978900  0.61075200  1
  C  C2  1  0.75836800  0.07653700  0.88214400  1
  C  C3  1  0.75648200  0.05021100  0.38924800  1
  O  O0  1  0.77414900  0.93734300  0.89325500  1
  O  O1  1  0.75183400  0.90779600  0.40167700  1
  O  O2  1  0.25684000  0.85928600  0.22953800  1
  O  O3  1  0.23457500  0.89020300  0.72249700  1
  O  O4  1  0.24708900  0.83316200  0.01996700  1
  O  O5  1  0.25004100  0.86337200  0.51032000  1
  O  O6  1  0.94094700  0.67888600  0.13482800  1
  O  O7  1  0.56516900  0.67179500  0.13827900  1
  O  O8  1  0.93704100  0.68120900  0.64384900  1
  O  O9  1  0.56308600  0.67938200  0.63046000  1
  O  O10  1  0.24040100  0.56973900  0.82740900  1
  O  O11  1  0.25256200  0.56404800  0.31656300  1
  O  O12  1  0.75732800  0.54436400  0.95603400  1
  O  O13  1  0.76147400  0.54496200  0.46158700  1
  O  O14  1  0.24267200  0.45563600  0.04396600  1
  O  O15  1  0.23852600  0.45503800  0.53841300  1
  O  O16  1  0.75959900  0.43026100  0.17259100  1
  O  O17  1  0.74743800  0.43595200  0.68343700  1
  O  O18  1  0.43483100  0.32820500  0.86172100  1
  O  O19  1  0.05905300  0.32111400  0.86517200  1
  O  O20  1  0.43691400  0.32061800  0.36954000  1
  O  O21  1  0.06295900  0.31879100  0.35615100  1
  O  O22  1  0.75291100  0.16683800  0.98003300  1
  O  O23  1  0.74995900  0.13662800  0.48968000  1
  O  O24  1  0.74316000  0.14071400  0.77046200  1
  O  O25  1  0.76542500  0.10979700  0.27750300  1
  O  O26  1  0.22585100  0.06265700  0.10674500  1
  O  O27  1  0.24816600  0.09220400  0.59832300  1
loop_
_geom_bond_atom_site_label_1
_geom_bond_atom_site_label_2
_geom_bond_distance
_geom_bond_site_symmetry_2
Na0 O25 2.347329 1_565
Na0 O0 2.447680 1_554
Na0 O7 2.504701 1_555
Na0 O6 2.610180 1_555
Na0 O22 2.696828 1_564
Na0 O1 2.934735 1_555
Na1 O9 2.415783 1_555
Na1 O24 2.442350 1_565
Na1 O8 2.503256 1_555
Na1 O1 2.515682 1_555
Na1 O23 2.564914 1_565
Na1 O0 2.677167 1_555
Na2 O0 2.302034 1_555
Na2 O10 2.317363 1_655
Na2 O4 2.454516 1_656
Na2 O8 2.461234 1_555
Na2 O12 2.508381 1_555
Na2 O3 2.628830 1_655
Na2 O6 2.862067 1_556
Na3 O1 2.292859 1_555
Na3 O11 2.377135 1_655
Na3 O5 2.425238 1_655
Na3 O13 2.459438 1_555
Na3 O2 2.609273 1_655
Na3 O6 2.670799 1_555
Na3 O8 2.829461 1_555
Na4 O1 2.279268 1_555
Na4 O11 2.357038 1_555
Na4 O5 2.441711 1_555
Na4 O13 2.518038 1_555
Na4 O9 2.620553 1_555
Na4 O2 2.628693 1_555
Na4 O7 2.712785 1_555
Na5 O26 2.302034 1_555
Na5 O16 2.317363 1_455
Na5 O22 2.454516 1_454
Na5 O21 2.461234 1_555
Na5 O14 2.508381 1_555
Na5 O25 2.628830 1_455
Na5 O19 2.862067 1_554
Na6 O27 2.279268 1_555
Na6 O17 2.357038 1_555
Na6 O23 2.441711 1_555
Na6 O15 2.518038 1_555
Na6 O20 2.620553 1_555
Na6 O24 2.628693 1_555
Na6 O18 2.712785 1_555
Na7 O27 2.292859 1_555
Na7 O17 2.377135 1_455
Na7 O23 2.425238 1_455
Na7 O15 2.459438 1_555
Na7 O24 2.609273 1_455
Na7 O19 2.670799 1_555
Na7 O21 2.829461 1_555
Na8 O3 2.347329 1_545
Na8 O26 2.447680 1_556
Na8 O18 2.504701 1_555
Na8 O19 2.610180 1_555
Na8 O4 2.696828 1_546
Na8 O27 2.934735 1_555
Na9 O20 2.415783 1_555
Na9 O2 2.442350 1_545
Na9 O21 2.503256 1_555
Na9 O27 2.515682 1_555
Na9 O5 2.564914 1_545
Na9 O26 2.677167 1_555
Fe0 O14 1.949038 1_555
Fe0 O11 2.026840 1_555
Fe0 O7 2.049112 1_555
Fe0 O6 2.124505 1_455
Fe0 O4 2.124653 1_555
Fe0 O2 2.174316 1_555
Fe1 O9 2.054849 1_555
Fe1 O10 2.074285 1_555
Fe1 O8 2.114915 1_455
Fe1 O15 2.159305 1_555
Fe1 O3 2.233289 1_555
Fe1 O5 2.350322 1_555
Fe2 O12 1.949038 1_555
Fe2 O17 2.026840 1_555
Fe2 O18 2.049112 1_555
Fe2 O19 2.124505 1_655
Fe2 O22 2.124653 1_555
Fe2 O24 2.174316 1_555
Fe3 O20 2.054849 1_555
Fe3 O16 2.074285 1_555
Fe3 O21 2.114915 1_655
Fe3 O13 2.159305 1_555
Fe3 O25 2.233289 1_555
Fe3 O23 2.350322 1_555
C0 O26 1.268902 1_565
C0 O4 1.308874 1_555
C0 O2 1.319684 1_555
C1 O27 1.294241 1_565
C1 O3 1.299575 1_555
C1 O5 1.309212 1_555
C2 O0 1.268902 1_545
C2 O22 1.308874 1_555
C2 O24 1.319684 1_555
C3 O1 1.294241 1_545
C3 O25 1.299575 1_555
C3 O23 1.309212 1_555
O6 P0 1.570048 1_555
O7 P0 1.566250 1_555
O8 P1 1.551247 1_555
O9 P1 1.546682 1_555
O10 P2 1.517797 1_555
O11 P3 1.576831 1_555
O12 P0 1.573561 1_556
O13 P1 1.551724 1_555
O14 P2 1.573561 1_554
O15 P3 1.551724 1_555
O16 P0 1.517797 1_555
O17 P1 1.576831 1_555
O18 P2 1.566250 1_555
O19 P2 1.570048 1_555
O20 P3 1.546682 1_555
O21 P3 1.551247 1_555
