# generated using pymatgen
data_SmLuSe3
_symmetry_space_group_name_H-M   'P 1'
_cell_length_a   4.07736948
_cell_length_b   11.48893361
_cell_length_c   11.77183871
_cell_angle_alpha   71.12824409
_cell_angle_beta   90.00000000
_cell_angle_gamma   90.00000000
_symmetry_Int_Tables_number   1
_chemical_formula_structural   SmLuSe3
_chemical_formula_sum   'Sm4 Lu4 Se12'
_cell_volume   521.80429750
_cell_formula_units_Z   4
loop_
 _symmetry_equiv_pos_site_id
 _symmetry_equiv_pos_as_xyz
  1  'x, y, z'
loop_
 _atom_site_type_symbol
 _atom_site_label
 _atom_site_symmetry_multiplicity
 _atom_site_fract_x
 _atom_site_fract_y
 _atom_site_fract_z
 _atom_site_occupancy
  Sm  Sm0  1  0.25000000  0.31949423  0.50328618  1
  Sm  Sm1  1  0.75000000  0.68050577  0.49671382  1
  Sm  Sm2  1  0.25000000  0.95067877  0.69735437  1
  Sm  Sm3  1  0.75000000  0.04932123  0.30264563  1
  Lu  Lu0  1  0.25000000  0.84150390  0.08231788  1
  Lu  Lu1  1  0.75000000  0.15849610  0.91768212  1
  Lu  Lu2  1  0.25000000  0.56173635  0.83738355  1
  Lu  Lu3  1  0.75000000  0.43826365  0.16261645  1
  Se  Se0  1  0.25000000  0.60615703  0.06025906  1
  Se  Se1  1  0.75000000  0.39384297  0.93974094  1
  Se  Se2  1  0.25000000  0.26416223  0.26752800  1
  Se  Se3  1  0.75000000  0.73583777  0.73247200  1
  Se  Se4  1  0.25000000  0.19036749  0.75762118  1
  Se  Se5  1  0.75000000  0.80963251  0.24237882  1
  Se  Se6  1  0.25000000  0.08124013  0.09344764  1
  Se  Se7  1  0.75000000  0.91875987  0.90655236  1
  Se  Se8  1  0.25000000  0.88775440  0.46331557  1
  Se  Se9  1  0.75000000  0.11224560  0.53668443  1
  Se  Se10  1  0.25000000  0.51422788  0.62412762  1
  Se  Se11  1  0.75000000  0.48577212  0.37587238  1
loop_
_geom_bond_atom_site_label_1
_geom_bond_atom_site_label_2
_geom_bond_distance
_geom_bond_site_symmetry_2
Lu0 Se5 2.719236 1_455
Lu0 Se5 2.719236 1_555
Lu0 Se0 2.798683 1_555
Lu0 Se6 2.799438 1_565
Lu0 Se7 2.834982 1_554
Lu0 Se7 2.834982 1_454
Lu1 Se4 2.719236 1_555
Lu1 Se4 2.719236 1_655
Lu1 Se1 2.798683 1_555
Lu1 Se7 2.799438 1_545
Lu1 Se6 2.834982 1_556
Lu1 Se6 2.834982 1_656
Lu2 Se10 2.736149 1_555
Lu2 Se1 2.797370 1_455
Lu2 Se1 2.797370 1_555
Lu2 Se0 2.830230 1_556
Lu2 Se3 2.843305 1_555
Lu2 Se3 2.843305 1_455
Lu3 Se11 2.736149 1_555
Lu3 Se0 2.797370 1_555
Lu3 Se0 2.797370 1_655
Lu3 Se1 2.830230 1_554
Lu3 Se2 2.843305 1_655
Lu3 Se2 2.843305 1_555
Se2 Sm0 3.041014 1_555
Se2 Sm3 3.124023 1_455
Se2 Sm3 3.124023 1_555
Se3 Sm1 3.041014 1_555
Se3 Sm2 3.124023 1_555
Se3 Sm2 3.124023 1_655
Se4 Sm0 2.879498 1_555
Se4 Sm2 3.057840 1_545
Se5 Sm1 2.879498 1_555
Se5 Sm3 3.057840 1_565
Se6 Sm3 3.125880 1_555
Se6 Sm3 3.125880 1_455
Se7 Sm2 3.125880 1_555
Se7 Sm2 3.125880 1_655
Se8 Sm3 2.984624 1_465
Se8 Sm3 2.984624 1_565
Se8 Sm1 3.061812 1_555
Se8 Sm1 3.061812 1_455
Se8 Sm2 3.066184 1_555
Se9 Sm2 2.984624 1_545
Se9 Sm2 2.984624 1_645
Se9 Sm0 3.061812 1_655
Se9 Sm0 3.061812 1_555
Se9 Sm3 3.066184 1_555
Se10 Sm1 2.863877 1_455
Se10 Sm1 2.863877 1_555
Se10 Sm0 3.014604 1_555
Se11 Sm0 2.863877 1_555
Se11 Sm0 2.863877 1_655
Se11 Sm1 3.014604 1_555
