# generated using pymatgen
data_Er2Fe3Cu
_symmetry_space_group_name_H-M   'P 1'
_cell_length_a   5.16736980
_cell_length_b   5.16736980
_cell_length_c   5.16736978
_cell_angle_alpha   58.51599571
_cell_angle_beta   58.51599571
_cell_angle_gamma   58.51599678
_symmetry_Int_Tables_number   1
_chemical_formula_structural   Er2Fe3Cu
_chemical_formula_sum   'Er2 Fe3 Cu1'
_cell_volume   94.25308273
_cell_formula_units_Z   1
loop_
 _symmetry_equiv_pos_site_id
 _symmetry_equiv_pos_as_xyz
  1  'x, y, z'
loop_
 _atom_site_type_symbol
 _atom_site_label
 _atom_site_symmetry_multiplicity
 _atom_site_fract_x
 _atom_site_fract_y
 _atom_site_fract_z
 _atom_site_occupancy
  Er  Er0  1  0.12267300  0.12267300  0.12267300  1
  Er  Er1  1  0.87732700  0.87732700  0.87732700  1
  Fe  Fe0  1  0.50000000  0.00000000  0.50000000  1
  Fe  Fe1  1  0.00000000  0.50000000  0.50000000  1
  Fe  Fe2  1  0.50000000  0.50000000  0.00000000  1
  Cu  Cu0  1  0.50000000  0.50000000  0.50000000  1
loop_
_geom_bond_atom_site_label_1
_geom_bond_atom_site_label_2
_geom_bond_distance
_geom_bond_site_symmetry_2
Er0 Fe0 2.973693 1_455
Er0 Fe1 2.973693 1_545
Er0 Fe0 2.973693 1_554
Er0 Fe1 2.973693 1_554
Er0 Fe2 2.973693 1_545
Er0 Fe2 2.973693 1_455
Er0 Fe2 3.064983 1_555
Er0 Fe0 3.064983 1_555
Er0 Fe1 3.064983 1_555
Er0 Er1 3.126056 1_445
Er0 Er1 3.126056 1_454
Er0 Er1 3.126056 1_544
Er0 Er1 3.139821 1_444
Er1 Fe0 2.973693 1_665
Er1 Fe1 2.973693 1_665
Er1 Fe1 2.973693 1_656
Er1 Fe0 2.973693 1_566
Er1 Fe2 2.973693 1_566
Er1 Fe2 2.973693 1_656
Er1 Fe2 3.064983 1_556
Er1 Fe1 3.064983 1_655
Er1 Fe0 3.064983 1_565
Fe0 Fe2 2.525516 1_546
Fe0 Fe2 2.525516 1_555
Fe0 Fe1 2.525516 1_645
Fe0 Fe1 2.525516 1_555
Fe1 Fe2 2.525516 1_456
Fe1 Fe2 2.525516 1_555
Cu0 Fe2 2.583685 1_556
Cu0 Fe2 2.583685 1_555
Cu0 Fe1 2.583685 1_555
Cu0 Fe1 2.583685 1_655
Cu0 Fe0 2.583685 1_555
Cu0 Fe0 2.583685 1_565
Cu0 Er1 2.970065 1_554
Cu0 Er0 2.970065 1_556
Cu0 Er1 2.970065 1_545
Cu0 Er1 2.970065 1_455
Cu0 Er0 2.970065 1_655
Cu0 Er0 2.970065 1_565
