# generated using pymatgen
data_Li9Mn2Co5O16
_symmetry_space_group_name_H-M   'P 1'
_cell_length_a   5.94168400
_cell_length_b   6.45290237
_cell_length_c   8.58674106
_cell_angle_alpha   82.81201374
_cell_angle_beta   109.37247198
_cell_angle_gamma   114.16547318
_symmetry_Int_Tables_number   1
_chemical_formula_structural   Li9Mn2Co5O16
_chemical_formula_sum   'Li9 Mn2 Co5 O16'
_cell_volume   283.34585283
_cell_formula_units_Z   1
loop_
 _symmetry_equiv_pos_site_id
 _symmetry_equiv_pos_as_xyz
  1  'x, y, z'
loop_
 _atom_site_type_symbol
 _atom_site_label
 _atom_site_symmetry_multiplicity
 _atom_site_fract_x
 _atom_site_fract_y
 _atom_site_fract_z
 _atom_site_occupancy
  Li  Li0  1  0.75604200  0.74037400  0.25991200  1
  Li  Li1  1  0.25874800  0.00561000  0.49813900  1
  Li  Li2  1  0.24865500  0.74323300  0.25987000  1
  Li  Li3  1  0.74125200  0.99439000  0.50186100  1
  Li  Li4  1  0.75134500  0.25676700  0.74013000  1
  Li  Li5  1  0.24395800  0.25962600  0.74008800  1
  Li  Li6  1  0.25960200  0.50689300  0.99971800  1
  Li  Li7  1  0.74039800  0.49310700  0.00028200  1
  Li  Li8  1  0.00000000  0.50000000  0.50000000  1
  Mn  Mn0  1  0.00000000  0.00000000  0.00000000  1
  Mn  Mn1  1  0.50000000  0.00000000  0.00000000  1
  Co  Co0  1  0.51722500  0.26158200  0.25314100  1
  Co  Co1  1  0.48277500  0.73841800  0.74685900  1
  Co  Co2  1  0.00287700  0.25628800  0.25260900  1
  Co  Co3  1  0.50000000  0.50000000  0.50000000  1
  Co  Co4  1  0.99712300  0.74371200  0.74739100  1
  O  O0  1  0.10944300  0.01417700  0.23871900  1
  O  O1  1  0.60641400  0.26278500  0.48473000  1
  O  O2  1  0.60906900  0.00845000  0.23903800  1
  O  O3  1  0.16284500  0.27857900  0.48540900  1
  O  O4  1  0.11304600  0.51382900  0.75073400  1
  O  O5  1  0.60253100  0.50700100  0.73795600  1
  O  O6  1  0.60995400  0.75953800  0.98817000  1
  O  O7  1  0.15313300  0.77768600  0.99216500  1
  O  O8  1  0.39746900  0.49299900  0.26204400  1
  O  O9  1  0.83715500  0.72142100  0.51459100  1
  O  O10  1  0.88695400  0.48617100  0.24926600  1
  O  O11  1  0.39358600  0.73721500  0.51527000  1
  O  O12  1  0.39093100  0.99155000  0.76096200  1
  O  O13  1  0.89055700  0.98582300  0.76128100  1
  O  O14  1  0.84686700  0.22231400  0.00783500  1
  O  O15  1  0.39004600  0.24046200  0.01183000  1
loop_
_geom_bond_atom_site_label_1
_geom_bond_atom_site_label_2
_geom_bond_distance
_geom_bond_site_symmetry_2
Li0 O9 2.076468 1_555
Li0 O8 2.078864 1_555
Li0 O10 2.105584 1_555
Li0 O0 2.167821 1_665
Li0 O2 2.200582 1_565
Li0 O6 2.210290 1_554
Li1 O3 2.042452 1_555
Li1 O1 2.082715 1_555
Li1 O0 2.109612 1_555
Li1 O12 2.132934 1_545
Li1 O11 2.158053 1_545
Li1 O9 2.463060 1_445
Li2 O11 2.075028 1_555
Li2 O10 2.089923 1_455
Li2 O8 2.130732 1_555
Li2 O2 2.173405 1_565
Li2 O7 2.183008 1_554
Li2 O0 2.186072 1_565
Li3 O9 2.042452 1_555
Li3 O11 2.082715 1_555
Li3 O13 2.109612 1_555
Li3 O2 2.132934 1_565
Li3 O1 2.158053 1_565
Li3 O3 2.463060 1_665
Li4 O1 2.075028 1_555
Li4 O4 2.089923 1_655
Li4 O5 2.130732 1_555
Li4 O12 2.173405 1_545
Li4 O14 2.183008 1_556
Li4 O13 2.186072 1_545
Li5 O3 2.076468 1_555
Li5 O5 2.078864 1_555
Li5 O4 2.105584 1_555
Li5 O13 2.167821 1_445
Li5 O12 2.200582 1_545
Li5 O15 2.210290 1_556
Li6 O4 2.025840 1_555
Li6 O7 2.075399 1_555
Li6 O6 2.078208 1_555
Li6 O8 2.130353 1_556
Li6 O15 2.135447 1_556
Li6 O14 2.405263 1_456
Li7 O10 2.025840 1_555
Li7 O14 2.075399 1_555
Li7 O15 2.078208 1_555
Li7 O5 2.130353 1_554
Li7 O6 2.135447 1_554
Li7 O7 2.405263 1_654
Li8 O4 2.033249 1_555
Li8 O10 2.033249 1_455
Li8 O9 2.061676 1_455
Li8 O3 2.061676 1_555
Li8 O11 2.178332 1_555
Li8 O1 2.178332 1_455
Mn0 O0 1.935693 1_555
Mn0 O13 1.935693 1_444
Mn0 O14 2.005948 1_455
Mn0 O7 2.005948 1_544
Mn0 O15 2.174390 1_555
Mn0 O6 2.174390 1_444
Mn1 O2 1.937153 1_555
Mn1 O12 1.937153 1_544
Mn1 O15 1.938633 1_555
Mn1 O6 1.938633 1_544
Mn1 O14 1.954887 1_555
Mn1 O7 1.954887 1_544
Co0 O1 1.880631 1_555
Co0 O8 1.917488 1_555
Co0 O2 1.950316 1_555
Co0 O15 1.957211 1_555
Co0 O10 2.087385 1_555
Co0 O0 2.262297 1_555
Co1 O11 1.880631 1_555
Co1 O5 1.917488 1_555
Co1 O12 1.950316 1_555
Co1 O6 1.957211 1_555
Co1 O4 2.087385 1_555
Co1 O13 2.262297 1_555
Co2 O10 1.867760 1_455
Co2 O3 1.902525 1_555
Co2 O0 1.939754 1_555
Co2 O14 1.995326 1_455
Co2 O8 2.193046 1_555
Co2 O2 2.201865 1_455
Co3 O9 1.898704 1_555
Co3 O3 1.898704 1_555
Co3 O11 1.912520 1_555
Co3 O1 1.912520 1_555
Co3 O5 1.929476 1_555
Co3 O8 1.929476 1_555
Co4 O4 1.867760 1_655
Co4 O9 1.902525 1_555
Co4 O13 1.939754 1_555
Co4 O7 1.995326 1_655
Co4 O5 2.193046 1_555
Co4 O12 2.201865 1_655
