# generated using pymatgen
data_SrMgV(PO4)2
_symmetry_space_group_name_H-M   'P 1'
_cell_length_a   5.56195600
_cell_length_b   7.00550116
_cell_length_c   9.48439345
_cell_angle_alpha   111.26062563
_cell_angle_beta   101.13368833
_cell_angle_gamma   98.01004876
_symmetry_Int_Tables_number   1
_chemical_formula_structural   SrMgV(PO4)2
_chemical_formula_sum   'Sr2 Mg2 V2 P4 O16'
_cell_volume   328.94225406
_cell_formula_units_Z   2
loop_
 _symmetry_equiv_pos_site_id
 _symmetry_equiv_pos_as_xyz
  1  'x, y, z'
loop_
 _atom_site_type_symbol
 _atom_site_label
 _atom_site_symmetry_multiplicity
 _atom_site_fract_x
 _atom_site_fract_y
 _atom_site_fract_z
 _atom_site_occupancy
  Sr  Sr0  1  0.20048200  0.75306000  0.04793400  1
  Sr  Sr1  1  0.79951800  0.24694000  0.95206600  1
  Mg  Mg0  1  0.33677100  0.72981800  0.65285200  1
  Mg  Mg1  1  0.66322900  0.27018200  0.34714800  1
  V  V0  1  0.08114000  0.29028900  0.56163300  1
  V  V1  1  0.91886000  0.70971100  0.43836700  1
  P  P0  1  0.15772200  0.18976600  0.23414100  1
  P  P1  1  0.84227800  0.81023400  0.76585900  1
  P  P2  1  0.53854100  0.72170900  0.30233400  1
  P  P3  1  0.46145900  0.27829100  0.69766600  1
  O  O0  1  0.92839000  0.66107600  0.88835700  1
  O  O1  1  0.44796000  0.26228500  0.21181000  1
  O  O2  1  0.89584400  0.02944000  0.77136300  1
  O  O3  1  0.26365400  0.42102200  0.69898700  1
  O  O4  1  0.55204000  0.73771500  0.78819000  1
  O  O5  1  0.42921200  0.17634200  0.57474000  1
  O  O6  1  0.57078800  0.82365800  0.42526000  1
  O  O7  1  0.39536400  0.12887400  0.86375700  1
  O  O8  1  0.10415600  0.97056000  0.22863700  1
  O  O9  1  0.60463600  0.87112600  0.13624300  1
  O  O10  1  0.07161000  0.33892400  0.11164300  1
  O  O11  1  0.97371400  0.18956200  0.39460700  1
  O  O12  1  0.02628600  0.81043800  0.60539300  1
  O  O13  1  0.25592500  0.58675900  0.36594200  1
  O  O14  1  0.73634600  0.57897800  0.30101300  1
  O  O15  1  0.74407500  0.41324100  0.63405800  1
loop_
_geom_bond_atom_site_label_1
_geom_bond_atom_site_label_2
_geom_bond_distance
_geom_bond_site_symmetry_2
Mg0 O4 1.555878 1_555
Mg0 O12 1.913053 1_555
Mg0 O13 2.456708 1_555
Mg1 O1 1.555878 1_555
Mg1 O11 1.913053 1_555
Mg1 O15 2.456708 1_555
O0 Sr0 1.769892 1_656
O0 P1 1.864429 1_555
O1 P0 1.700119 1_555
O2 P1 1.502682 1_545
O2 Sr1 2.057736 1_555
O3 V0 1.389702 1_555
O3 P3 1.585303 1_555
O4 P1 1.700119 1_555
O5 P3 1.086829 1_555
O6 P2 1.086829 1_555
O7 Sr1 2.165858 1_555
O7 P3 2.241543 1_555
O8 P0 1.502682 1_565
O8 Sr0 2.057736 1_555
O9 Sr0 2.165858 1_555
O9 P2 2.241543 1_555
O10 Sr1 1.769892 1_454
O10 P0 1.864429 1_555
O11 V0 1.438996 1_655
O11 P0 1.991583 1_655
O12 V1 1.438996 1_455
O12 P1 1.991583 1_455
O13 P2 2.023432 1_555
O13 V1 2.290564 1_455
O14 V1 1.389702 1_555
O14 P2 1.585303 1_555
O15 P3 2.023432 1_555
O15 V0 2.290564 1_655
