# generated using pymatgen
data_MgSi2
_symmetry_space_group_name_H-M   'P 1'
_cell_length_a   5.28990794
_cell_length_b   5.28990794
_cell_length_c   6.28585381
_cell_angle_alpha   63.97549166
_cell_angle_beta   63.97549166
_cell_angle_gamma   44.24840748
_symmetry_Int_Tables_number   1
_chemical_formula_structural   MgSi2
_chemical_formula_sum   'Mg2 Si4'
_cell_volume   108.09688596
_cell_formula_units_Z   2
loop_
 _symmetry_equiv_pos_site_id
 _symmetry_equiv_pos_as_xyz
  1  'x, y, z'
loop_
 _atom_site_type_symbol
 _atom_site_label
 _atom_site_symmetry_multiplicity
 _atom_site_fract_x
 _atom_site_fract_y
 _atom_site_fract_z
 _atom_site_occupancy
  Mg  Mg0  1  0.14872500  0.14872500  0.71388500  1
  Mg  Mg1  1  0.85127500  0.85127500  0.28611500  1
  Si  Si0  1  0.85392600  0.85392600  0.72032500  1
  Si  Si1  1  0.59482300  0.59482300  0.08810400  1
  Si  Si2  1  0.40517700  0.40517700  0.91189600  1
  Si  Si3  1  0.14607400  0.14607400  0.27967500  1
loop_
_geom_bond_atom_site_label_1
_geom_bond_atom_site_label_2
_geom_bond_distance
_geom_bond_site_symmetry_2
Mg0 Si3 2.741782 1_555
Mg0 Si0 2.844739 1_455
Mg0 Si0 2.844739 1_545
Mg0 Si0 2.870320 1_445
Mg0 Si2 2.898559 1_455
Mg0 Si2 2.898559 1_545
Mg0 Si1 2.933310 1_546
Mg0 Si1 2.933310 1_456
Mg1 Si0 2.741782 1_555
Mg1 Si3 2.844739 1_655
Mg1 Si3 2.844739 1_565
Mg1 Si3 2.870320 1_665
Mg1 Si1 2.898559 1_565
Mg1 Si1 2.898559 1_655
Mg1 Si2 2.933310 1_654
Mg1 Si2 2.933310 1_564
Si0 Si1 2.496415 1_556
Si0 Si2 2.498889 1_565
Si0 Si2 2.498889 1_655
Si1 Si3 2.498889 1_655
Si1 Si3 2.498889 1_565
Si1 Si2 2.575202 1_554
Si2 Si3 2.496415 1_556
