# generated using pymatgen
data_NaH12AuC4(SO3)4
_symmetry_space_group_name_H-M   'P 1'
_cell_length_a   5.63167600
_cell_length_b   9.12322150
_cell_length_c   10.17542146
_cell_angle_alpha   71.47892937
_cell_angle_beta   74.64879996
_cell_angle_gamma   76.27187205
_symmetry_Int_Tables_number   1
_chemical_formula_structural   NaH12AuC4(SO3)4
_chemical_formula_sum   'Na1 H12 Au1 C4 S4 O12'
_cell_volume   471.27947300
_cell_formula_units_Z   1
loop_
 _symmetry_equiv_pos_site_id
 _symmetry_equiv_pos_as_xyz
  1  'x, y, z'
loop_
 _atom_site_type_symbol
 _atom_site_label
 _atom_site_symmetry_multiplicity
 _atom_site_fract_x
 _atom_site_fract_y
 _atom_site_fract_z
 _atom_site_occupancy
  Na  Na0  1  0.00000000  0.50000000  0.50000000  1
  H  H0  1  0.34583600  0.17624200  0.88317600  1
  H  H1  1  0.65416400  0.82375800  0.11682400  1
  H  H2  1  0.25864400  0.06537200  0.79088200  1
  H  H3  1  0.74135600  0.93462800  0.20911800  1
  H  H4  1  0.55511900  0.00241000  0.84722600  1
  H  H5  1  0.44488100  0.99759000  0.15277400  1
  H  H6  1  0.70605300  0.48841700  0.14308100  1
  H  H7  1  0.29394700  0.51158300  0.85691900  1
  H  H8  1  0.66343600  0.30775000  0.12524400  1
  H  H9  1  0.33656400  0.69225000  0.87475600  1
  H  H10  1  0.57332900  0.34331100  0.29784500  1
  H  H11  1  0.42667100  0.65668900  0.70215500  1
  Au  Au0  1  0.00000000  0.00000000  0.50000000  1
  C  C0  1  0.41494600  0.10276800  0.80959300  1
  C  C1  1  0.58505400  0.89723200  0.19040700  1
  C  C2  1  0.70446300  0.36342200  0.19543600  1
  C  C3  1  0.29553700  0.63657800  0.80456400  1
  S  S0  1  0.01021000  0.28068000  0.22339800  1
  S  S1  1  0.98979000  0.71932000  0.77660200  1
  S  S2  1  0.55497800  0.22173800  0.64569500  1
  S  S3  1  0.44502200  0.77826200  0.35430500  1
  O  O0  1  0.00062900  0.10128300  0.29045400  1
  O  O1  1  0.99937100  0.89871700  0.70954600  1
  O  O2  1  0.64215400  0.11200600  0.54553600  1
  O  O3  1  0.35784600  0.88799400  0.45446400  1
  O  O4  1  0.76420300  0.27427200  0.66489300  1
  O  O5  1  0.23579700  0.72572800  0.33510700  1
  O  O6  1  0.18006000  0.29254400  0.08666700  1
  O  O7  1  0.81994000  0.70745600  0.91333300  1
  O  O8  1  0.06289300  0.34757300  0.32219700  1
  O  O9  1  0.93710700  0.65242700  0.67780300  1
  O  O10  1  0.35863200  0.34042000  0.58824900  1
  O  O11  1  0.64136800  0.65958000  0.41175100  1
loop_
_geom_bond_atom_site_label_1
_geom_bond_atom_site_label_2
_geom_bond_distance
_geom_bond_site_symmetry_2
Na0 O10 2.395665 1_555
Na0 O11 2.395665 1_455
Na0 O9 2.521487 1_455
Na0 O8 2.521487 1_555
Na0 O5 2.596667 1_555
Na0 O4 2.596667 1_455
Au0 O0 2.036185 1_555
Au0 O1 2.036185 1_445
Au0 O2 2.036955 1_455
Au0 O3 2.036955 1_545
C0 H2 1.095451 1_555
C0 H0 1.096427 1_555
C0 H4 1.096524 1_555
C1 H3 1.095451 1_555
C1 H1 1.096427 1_555
C1 H5 1.096524 1_555
C2 H8 1.093172 1_555
C2 H10 1.095589 1_555
C2 H6 1.095750 1_555
C2 S0 1.766817 1_655
C3 H9 1.093172 1_555
C3 H11 1.095589 1_555
C3 H7 1.095750 1_555
C3 S1 1.766817 1_455
O0 S0 1.568483 1_555
O1 S1 1.568483 1_555
O2 S2 1.559466 1_555
O3 S3 1.559466 1_555
O4 S2 1.451076 1_555
O5 S3 1.451076 1_555
O6 S0 1.453005 1_555
O7 S1 1.453005 1_555
O8 S0 1.450787 1_555
O9 S1 1.450787 1_555
O10 S2 1.452111 1_555
O11 S3 1.452111 1_555
