# generated using pymatgen
data_Rb2PH5O6
_symmetry_space_group_name_H-M   'P 1'
_cell_length_a   7.58138171
_cell_length_b   7.99155430
_cell_length_c   13.71535600
_cell_angle_alpha   90.00000000
_cell_angle_beta   90.00000000
_cell_angle_gamma   120.04073382
_symmetry_Int_Tables_number   1
_chemical_formula_structural   Rb2PH5O6
_chemical_formula_sum   'Rb8 P4 H20 O24'
_cell_volume   719.34781242
_cell_formula_units_Z   4
loop_
 _symmetry_equiv_pos_site_id
 _symmetry_equiv_pos_as_xyz
  1  'x, y, z'
loop_
 _atom_site_type_symbol
 _atom_site_label
 _atom_site_symmetry_multiplicity
 _atom_site_fract_x
 _atom_site_fract_y
 _atom_site_fract_z
 _atom_site_occupancy
  Rb  Rb0  1  0.24684400  0.74298000  0.23622800  1
  Rb  Rb1  1  0.75315600  0.75702000  0.73622800  1
  Rb  Rb2  1  0.75315600  0.25702000  0.76377200  1
  Rb  Rb3  1  0.24684400  0.24298000  0.26377200  1
  Rb  Rb4  1  0.73597000  0.75984600  0.41564600  1
  Rb  Rb5  1  0.26403000  0.74015400  0.91564600  1
  Rb  Rb6  1  0.26403000  0.24015400  0.58435400  1
  Rb  Rb7  1  0.73597000  0.25984600  0.08435400  1
  P  P0  1  0.72996700  0.23844700  0.35444600  1
  P  P1  1  0.27003300  0.26155300  0.85444600  1
  P  P2  1  0.27003300  0.76155300  0.64555400  1
  P  P3  1  0.72996700  0.73844700  0.14555400  1
  H  H0  1  0.13423400  0.93218700  0.08299100  1
  H  H1  1  0.86576600  0.56781300  0.58299100  1
  H  H2  1  0.86576600  0.06781300  0.91700900  1
  H  H3  1  0.13423400  0.43218700  0.41700900  1
  H  H4  1  0.75353500  0.48880400  0.26447600  1
  H  H5  1  0.24646500  0.01119600  0.76447600  1
  H  H6  1  0.24646500  0.51119600  0.73552400  1
  H  H7  1  0.75353500  0.98880400  0.23552400  1
  H  H8  1  0.33719500  0.04311100  0.41257000  1
  H  H9  1  0.66280500  0.45688900  0.91257000  1
  H  H10  1  0.66280500  0.95688900  0.58743000  1
  H  H11  1  0.33719500  0.54311100  0.08743000  1
  H  H12  1  0.31543500  0.11041000  0.02498000  1
  H  H13  1  0.68456500  0.38959000  0.52498000  1
  H  H14  1  0.68456500  0.88959000  0.97502000  1
  H  H15  1  0.31543500  0.61041000  0.47502000  1
  H  H16  1  0.16654000  0.86445300  0.47097400  1
  H  H17  1  0.83346000  0.63554700  0.97097400  1
  H  H18  1  0.83346000  0.13554700  0.52902600  1
  H  H19  1  0.16654000  0.36445300  0.02902600  1
  O  O0  1  0.84576900  0.43883900  0.29308700  1
  O  O1  1  0.15423100  0.06116100  0.79308700  1
  O  O2  1  0.15423100  0.56116100  0.70691300  1
  O  O3  1  0.84576900  0.93883900  0.20691300  1
  O  O4  1  0.56967500  0.24915300  0.41980600  1
  O  O5  1  0.43032500  0.25084700  0.91980600  1
  O  O6  1  0.43032500  0.75084700  0.58019400  1
  O  O7  1  0.56967500  0.74915300  0.08019400  1
  O  O8  1  0.62818000  0.07141300  0.27991700  1
  O  O9  1  0.37182000  0.42858700  0.77991700  1
  O  O10  1  0.37182000  0.92858700  0.72008300  1
  O  O11  1  0.62818000  0.57141300  0.22008300  1
  O  O12  1  0.89980300  0.22947000  0.41177400  1
  O  O13  1  0.10019700  0.27053000  0.91177400  1
  O  O14  1  0.10019700  0.77053000  0.58822600  1
  O  O15  1  0.89980300  0.72947000  0.08822600  1
  O  O16  1  0.19055000  0.93793200  0.40861500  1
  O  O17  1  0.80945000  0.56206800  0.90861500  1
  O  O18  1  0.80945000  0.06206800  0.59138500  1
  O  O19  1  0.19055000  0.43793200  0.09138500  1
  O  O20  1  0.28396300  0.02939200  0.08489400  1
  O  O21  1  0.71603700  0.47060800  0.58489400  1
  O  O22  1  0.71603700  0.97060800  0.91510600  1
  O  O23  1  0.28396300  0.52939200  0.41510600  1
loop_
_geom_bond_atom_site_label_1
_geom_bond_atom_site_label_2
_geom_bond_distance
_geom_bond_site_symmetry_2
H0 O20 1.004891 1_565
H0 Rb0 2.953782 1_555
H0 Rb5 3.178580 1_554
H1 O21 1.004891 1_555
H1 Rb1 2.953782 1_555
H1 Rb4 3.178580 1_555
H2 O22 1.004891 1_545
H2 Rb2 2.953782 1_555
H2 Rb7 3.178580 1_556
H3 O23 1.004891 1_555
H3 Rb3 2.953782 1_555
H3 Rb6 3.178580 1_555
H4 O0 1.040167 1_555
H4 O11 1.529025 1_555
H4 Rb7 3.037227 1_555
H4 Rb4 3.049111 1_555
H5 O1 1.040167 1_555
H5 O10 1.529025 1_545
H5 Rb6 3.037227 1_555
H5 Rb5 3.049111 1_545
H6 O2 1.040167 1_555
H6 O9 1.529025 1_555
H6 Rb5 3.037227 1_555
H6 Rb6 3.049111 1_555
H7 O3 1.040167 1_555
H7 O8 1.529025 1_565
H7 Rb4 3.037227 1_555
H7 Rb7 3.049111 1_565
H8 O16 1.004913 1_545
H8 Rb3 2.877645 1_555
H8 Rb6 3.035283 1_555
H9 O17 1.004913 1_555
H9 Rb2 2.877645 1_555
H9 Rb7 3.035283 1_556
H10 O18 1.004913 1_565
H10 Rb1 2.877645 1_555
H10 Rb4 3.035283 1_555
H11 O19 1.004913 1_555
H11 Rb0 2.877645 1_555
H11 Rb5 3.035283 1_554
H12 O20 0.998358 1_555
H12 Rb7 2.905513 1_555
H12 Rb5 3.162465 1_544
H13 O21 0.998358 1_555
H13 Rb6 2.905513 1_555
H13 Rb4 3.162465 1_555
H14 O22 0.998358 1_555
H14 Rb5 2.905513 1_555
H14 Rb7 3.162465 1_566
H15 O23 0.998358 1_555
H15 Rb4 2.905513 1_555
H15 Rb6 3.162465 1_555
H16 O16 1.001213 1_555
H16 Rb4 3.032855 1_455
H16 Rb6 3.123653 1_565
H17 O17 1.001213 1_555
H17 Rb5 3.032855 1_655
H17 Rb7 3.123653 1_556
H18 O18 1.001213 1_555
H18 Rb6 3.032855 1_655
H18 Rb4 3.123653 1_545
H19 O19 1.001213 1_555
H19 Rb7 3.032855 1_455
H19 Rb5 3.123653 1_554
O0 P0 1.623552 1_555
O0 Rb0 2.891701 1_655
O0 Rb7 3.121341 1_555
O1 P1 1.623552 1_555
O1 Rb1 2.891701 1_445
O1 Rb6 3.121341 1_555
O2 P2 1.623552 1_555
O2 Rb2 2.891701 1_455
O2 Rb5 3.121341 1_555
O3 P3 1.623552 1_555
O3 Rb3 2.891701 1_665
O3 Rb4 3.121341 1_555
O4 P0 1.546549 1_555
O4 Rb6 3.209531 1_555
O4 Rb3 3.232907 1_555
O5 P1 1.546549 1_555
O5 Rb7 3.209531 1_556
O5 Rb2 3.232907 1_555
O6 P2 1.546549 1_555
O6 Rb4 3.209531 1_555
O6 Rb1 3.232907 1_555
O7 P3 1.546549 1_555
O7 Rb5 3.209531 1_554
O7 Rb0 3.232907 1_555
O8 P0 1.546243 1_555
O8 Rb0 2.829979 1_545
O8 Rb7 2.982891 1_555
O9 P1 1.546243 1_555
O9 Rb1 2.829979 1_555
O9 Rb6 2.982891 1_555
O10 P2 1.546243 1_555
O10 Rb2 2.829979 1_565
O10 Rb5 2.982891 1_555
O11 P3 1.546243 1_555
O11 Rb3 2.829979 1_555
O11 Rb4 2.982891 1_555
O12 P0 1.540698 1_555
O12 Rb3 3.281793 1_655
O12 Rb4 3.311116 1_545
O13 P1 1.540698 1_555
O13 Rb2 3.281793 1_455
O13 Rb5 3.311116 1_555
O14 P2 1.540698 1_555
O14 Rb1 3.281793 1_455
O14 Rb6 3.311116 1_565
O15 P3 1.540698 1_555
O15 Rb0 3.281793 1_655
O15 Rb7 3.311116 1_555
O16 Rb0 2.977465 1_555
O16 Rb4 3.000204 1_455
O16 Rb3 3.004966 1_565
O17 Rb1 2.977465 1_555
O17 Rb5 3.000204 1_655
O17 Rb2 3.004966 1_555
O18 Rb2 2.977465 1_555
O18 Rb6 3.000204 1_655
O18 Rb1 3.004966 1_545
O19 Rb3 2.977465 1_555
O19 Rb7 3.000204 1_455
O19 Rb0 3.004966 1_555
O20 Rb7 2.969200 1_555
O20 Rb0 2.996890 1_545
O20 Rb3 3.081021 1_555
O20 Rb5 3.225581 1_544
O21 Rb6 2.969200 1_555
O21 Rb1 2.996890 1_555
O21 Rb2 3.081021 1_555
O21 Rb4 3.225581 1_555
O22 Rb5 2.969200 1_555
O22 Rb2 2.996890 1_565
O22 Rb1 3.081021 1_555
O22 Rb7 3.225581 1_566
O23 Rb4 2.969200 1_555
O23 Rb3 2.996890 1_555
O23 Rb0 3.081021 1_555
O23 Rb6 3.225581 1_555
