# generated using pymatgen
data_NaSrTl2
_symmetry_space_group_name_H-M   'P 1'
_cell_length_a   12.87849928
_cell_length_b   13.63391463
_cell_length_c   13.63391450
_cell_angle_alpha   60.57666641
_cell_angle_beta   61.81653150
_cell_angle_gamma   61.81652856
_symmetry_Int_Tables_number   1
_chemical_formula_structural   NaSrTl2
_chemical_formula_sum   'Na1 Sr1 Tl2'
_cell_volume   1745.58197084
_cell_formula_units_Z   1
loop_
 _symmetry_equiv_pos_site_id
 _symmetry_equiv_pos_as_xyz
  1  'x, y, z'
loop_
 _atom_site_type_symbol
 _atom_site_label
 _atom_site_symmetry_multiplicity
 _atom_site_fract_x
 _atom_site_fract_y
 _atom_site_fract_z
 _atom_site_occupancy
  Na  Na0  1  -0.00000000  0.00000000  -0.00000000  1
  Sr  Sr0  1  0.50000000  0.00000000  -0.00000000  1
  Tl  Tl0  1  0.75659794  0.00000000  -0.00000000  1
  Tl  Tl1  1  0.24340206  -0.00000000  0.00000000  1
loop_
_geom_bond_atom_site_label_1
_geom_bond_atom_site_label_2
_geom_bond_distance
_geom_bond_site_symmetry_2
Na0 Tl0 3.134653 1_455
Na0 Tl1 3.134653 1_555
Sr0 Tl0 3.304596 1_555
Sr0 Tl1 3.304596 1_555
