# generated using pymatgen
data_V3(H3O5)2
_symmetry_space_group_name_H-M   'P 1'
_cell_length_a   6.03021500
_cell_length_b   8.98219921
_cell_length_c   9.05189266
_cell_angle_alpha   90.37548006
_cell_angle_beta   96.01617624
_cell_angle_gamma   91.59775556
_symmetry_Int_Tables_number   1
_chemical_formula_structural   V3(H3O5)2
_chemical_formula_sum   'V6 H12 O20'
_cell_volume   487.38000250
_cell_formula_units_Z   2
loop_
 _symmetry_equiv_pos_site_id
 _symmetry_equiv_pos_as_xyz
  1  'x, y, z'
loop_
 _atom_site_type_symbol
 _atom_site_label
 _atom_site_symmetry_multiplicity
 _atom_site_fract_x
 _atom_site_fract_y
 _atom_site_fract_z
 _atom_site_occupancy
  V  V0  1  0.25031900  0.49516900  0.48833700  1
  V  V1  1  0.27801400  0.99914700  0.99223800  1
  V  V2  1  0.25917300  0.14140400  0.63119100  1
  V  V3  1  0.29942500  0.86437300  0.35875800  1
  V  V4  1  0.27580200  0.62479000  0.84918800  1
  V  V5  1  0.27191200  0.36576700  0.12519200  1
  H  H0  1  0.64637200  0.35497100  0.45347000  1
  H  H1  1  0.68504700  0.15238900  0.95878300  1
  H  H2  1  0.68052600  0.85467900  0.48034800  1
  H  H3  1  0.66750800  0.64155100  0.95177500  1
  H  H4  1  0.87848800  0.92493600  0.68073000  1
  H  H5  1  0.88549400  0.75436700  0.64878500  1
  H  H6  1  0.88758300  0.27688500  0.43052600  1
  H  H7  1  0.68665700  0.30976400  0.28217600  1
  H  H8  1  0.68084100  0.33103500  0.96255200  1
  H  H9  1  0.65372600  0.23341200  0.79566000  1
  H  H10  1  0.73427100  0.58270900  0.16470300  1
  H  H11  1  0.83596400  0.74698100  0.15524000  1
  O  O0  1  0.52490500  0.47993500  0.51134400  1
  O  O1  1  0.55363300  0.01746300  0.00605300  1
  O  O2  1  0.12524300  0.30130500  0.55680200  1
  O  O3  1  0.19183600  0.69322100  0.40191000  1
  O  O4  1  0.20772400  0.79815200  0.90446000  1
  O  O5  1  0.18621200  0.18646600  0.07452800  1
  O  O6  1  0.15479000  0.58749300  0.67099600  1
  O  O7  1  0.16222100  0.41443100  0.28819500  1
  O  O8  1  0.20014700  0.90910500  0.18033700  1
  O  O9  1  0.15862400  0.07480000  0.79241800  1
  O  O10  1  0.53205900  0.18348800  0.66774200  1
  O  O11  1  0.59159400  0.86370700  0.37550300  1
  O  O12  1  0.56506800  0.60860900  0.85661300  1
  O  O13  1  0.55769000  0.37712800  0.14715100  1
  O  O14  1  0.21580800  0.99677900  0.48977300  1
  O  O15  1  0.18139000  0.48913600  0.97486100  1
  O  O16  1  0.78853700  0.84018100  0.63703400  1
  O  O17  1  0.72457300  0.27623700  0.39191800  1
  O  O18  1  0.73919900  0.24754800  0.90704500  1
  O  O19  1  0.80138500  0.65420000  0.10012300  1
loop_
_geom_bond_atom_site_label_1
_geom_bond_atom_site_label_2
_geom_bond_distance
_geom_bond_site_symmetry_2
H0 O17 1.049501 1_555
H0 O0 1.479671 1_555
H1 O18 1.038402 1_555
H1 O1 1.517948 1_556
H2 O11 1.044800 1_555
H2 O16 1.505419 1_555
H3 O12 1.042150 1_555
H3 O19 1.494486 1_556
H4 O16 0.978917 1_555
H5 O16 0.980028 1_555
H6 O17 1.008004 1_555
H6 O2 1.744804 1_655
H7 O17 1.043986 1_555
H7 O13 1.517060 1_555
H8 O18 0.992712 1_555
H9 O18 1.088154 1_555
H9 O10 1.369991 1_555
H10 O19 0.978717 1_555
H11 O19 0.974662 1_555
O0 V0 1.656664 1_555
O1 V1 1.657107 1_544
O2 V2 1.769715 1_555
O2 V0 2.006002 1_555
O3 V3 1.715292 1_555
O3 V0 1.973940 1_555
O4 V4 1.706494 1_555
O4 V1 1.984514 1_555
O5 V5 1.722029 1_555
O5 V1 1.952994 1_544
O6 V4 1.725972 1_555
O6 V0 1.990383 1_555
O7 V5 1.737212 1_555
O7 V0 1.962097 1_555
O8 V3 1.716817 1_555
O8 V1 1.984460 1_554
O9 V2 1.741299 1_555
O9 V1 2.005513 1_545
O10 V2 1.676238 1_555
O11 V3 1.752632 1_555
O12 V4 1.748725 1_555
O13 V5 1.714007 1_555
O14 V3 1.793158 1_555
O14 V2 1.812088 1_565
O15 V4 1.793915 1_555
O15 V5 1.809813 1_556
