# generated using pymatgen
data_CaTe3O8
_symmetry_space_group_name_H-M   'P 1'
_cell_length_a   6.86365128
_cell_length_b   6.86365128
_cell_length_c   10.02454022
_cell_angle_alpha   66.75054770
_cell_angle_beta   66.75054770
_cell_angle_gamma   49.01244856
_symmetry_Int_Tables_number   1
_chemical_formula_structural   CaTe3O8
_chemical_formula_sum   'Ca2 Te6 O16'
_cell_volume   321.19039558
_cell_formula_units_Z   2
loop_
 _symmetry_equiv_pos_site_id
 _symmetry_equiv_pos_as_xyz
  1  'x, y, z'
loop_
 _atom_site_type_symbol
 _atom_site_label
 _atom_site_symmetry_multiplicity
 _atom_site_fract_x
 _atom_site_fract_y
 _atom_site_fract_z
 _atom_site_occupancy
  Ca  Ca0  1  0.43713029  0.56286971  0.25000000  1
  Ca  Ca1  1  0.56286971  0.43713029  0.75000000  1
  Te  Te0  1  -0.00000000  0.00000000  0.50000000  1
  Te  Te1  1  -0.00000000  0.00000000  0.00000000  1
  Te  Te2  1  0.30687960  0.12896401  0.64180969  1
  Te  Te3  1  0.87103599  0.69312040  0.85819031  1
  Te  Te4  1  0.69312040  0.87103599  0.35819031  1
  Te  Te5  1  0.12896401  0.30687960  0.14180969  1
  O  O0  1  0.78933879  0.57843532  0.08969231  1
  O  O1  1  0.42156468  0.21066121  0.41030769  1
  O  O2  1  0.21066121  0.42156468  0.91030769  1
  O  O3  1  0.57843532  0.78933879  0.58969231  1
  O  O4  1  0.19414558  0.01445407  0.09298970  1
  O  O5  1  0.98554593  0.80585442  0.40701030  1
  O  O6  1  0.80585442  0.98554593  0.90701030  1
  O  O7  1  0.01445407  0.19414558  0.59298970  1
  O  O8  1  0.86267771  0.30041314  0.33932523  1
  O  O9  1  0.69958686  0.13732229  0.16067477  1
  O  O10  1  0.13732229  0.69958686  0.66067477  1
  O  O11  1  0.30041314  0.86267771  0.83932523  1
  O  O12  1  0.85928761  0.34149324  0.88157767  1
  O  O13  1  0.65850676  0.14071239  0.61842233  1
  O  O14  1  0.14071239  0.65850676  0.11842233  1
  O  O15  1  0.34149324  0.85928761  0.38157767  1
loop_
_geom_bond_atom_site_label_1
_geom_bond_atom_site_label_2
_geom_bond_distance
_geom_bond_site_symmetry_2
Ca0 O1 2.360970 1_555
Ca0 O0 2.360970 1_555
Ca0 O14 2.448067 1_555
Ca0 O15 2.448067 1_555
Ca0 O4 2.511117 1_565
Ca0 O5 2.511117 1_455
Ca0 O9 2.543084 1_555
Ca0 O8 2.543084 1_555
Ca1 O2 2.360970 1_555
Ca1 O3 2.360970 1_555
Ca1 O13 2.448067 1_555
Ca1 O12 2.448067 1_555
Ca1 O6 2.511117 1_545
Ca1 O7 2.511117 1_655
Ca1 O10 2.543084 1_555
Ca1 O11 2.543084 1_555
O0 Te5 1.916787 1_655
O0 Te3 2.104566 1_554
O1 Te4 1.916787 1_545
O1 Te2 2.104566 1_555
O2 Te3 1.916787 1_455
O2 Te5 2.104566 1_556
O3 Te2 1.916787 1_565
O3 Te4 2.104566 1_555
O4 Te1 1.970170 1_555
O4 Te5 1.973030 1_555
O5 Te0 1.970170 1_665
O5 Te4 1.973030 1_555
O6 Te1 1.970170 1_666
O6 Te3 1.973030 1_555
O7 Te0 1.970170 1_555
O7 Te2 1.973030 1_555
O8 Te0 1.939446 1_655
O8 Te5 2.107823 1_655
O9 Te1 1.939446 1_655
O9 Te4 2.107823 1_545
O10 Te0 1.939446 1_565
O10 Te3 2.107823 1_455
O11 Te1 1.939446 1_566
O11 Te2 2.107823 1_565
O12 Te1 1.890709 1_656
O12 Te3 2.383244 1_555
O13 Te0 1.890709 1_655
O13 Te2 2.383244 1_555
O14 Te1 1.890709 1_565
O14 Te5 2.383244 1_555
O15 Te0 1.890709 1_565
O15 Te4 2.383244 1_555
