# generated using pymatgen
data_Mg2Co3Sn10
_symmetry_space_group_name_H-M   'P 1'
_cell_length_a   9.50490412
_cell_length_b   9.48262331
_cell_length_c   34.16786128
_cell_angle_alpha   89.83573335
_cell_angle_beta   90.00214023
_cell_angle_gamma   120.07979870
_symmetry_Int_Tables_number   1
_chemical_formula_structural   Mg2Co3Sn10
_chemical_formula_sum   'Mg16 Co24 Sn80'
_cell_volume   2664.84855483
_cell_formula_units_Z   8
loop_
 _symmetry_equiv_pos_site_id
 _symmetry_equiv_pos_as_xyz
  1  'x, y, z'
loop_
 _atom_site_type_symbol
 _atom_site_label
 _atom_site_symmetry_multiplicity
 _atom_site_fract_x
 _atom_site_fract_y
 _atom_site_fract_z
 _atom_site_occupancy
  Mg  Mg0  1  0.33352848  0.66706291  0.63723671  1
  Mg  Mg1  1  0.66769479  0.33537530  0.36338099  1
  Mg  Mg2  1  0.66666274  0.33330887  0.13760451  1
  Mg  Mg3  1  0.33341009  0.66683321  0.86225114  1
  Mg  Mg4  1  0.34282258  0.17195803  0.69815925  1
  Mg  Mg5  1  0.82872447  0.65745715  0.69837191  1
  Mg  Mg6  1  0.82913239  0.17195065  0.69815895  1
  Mg  Mg7  1  0.65640968  0.82732357  0.30132160  1
  Mg  Mg8  1  0.17217032  0.34434399  0.30093705  1
  Mg  Mg9  1  0.17091690  0.82732247  0.30132249  1
  Mg  Mg10  1  0.65517449  0.82754109  0.19983384  1
  Mg  Mg11  1  0.17253844  0.34506919  0.19969642  1
  Mg  Mg12  1  0.17236472  0.82753959  0.19983399  1
  Mg  Mg13  1  0.34423674  0.17238071  0.80016149  1
  Mg  Mg14  1  0.82787768  0.65578633  0.80020392  1
  Mg  Mg15  1  0.82813724  0.17236286  0.80016114  1
  Co  Co0  1  0.16760483  0.83547736  0.67725900  1
  Co  Co1  1  0.66787875  0.83548295  0.67725942  1
  Co  Co2  1  0.16668279  0.33335306  0.67695262  1
  Co  Co3  1  0.83437281  0.16532654  0.32226056  1
  Co  Co4  1  0.33095460  0.16532874  0.32226187  1
  Co  Co5  1  0.83396112  0.66792030  0.32334108  1
  Co  Co6  1  0.83507386  0.16494666  0.17645577  1
  Co  Co7  1  0.32986672  0.16493709  0.17645624  1
  Co  Co8  1  0.83496422  0.66993523  0.17651204  1
  Co  Co9  1  0.16579860  0.83538491  0.82372427  1
  Co  Co10  1  0.66958869  0.83539523  0.82372156  1
  Co  Co11  1  0.16507945  0.33016620  0.82355348  1
  Co  Co12  1  0.84009838  0.16599275  0.55636307  1
  Co  Co13  1  0.32590326  0.16598028  0.55635941  1
  Co  Co14  1  0.83940119  0.67880282  0.56107302  1
  Co  Co15  1  0.17288554  0.84983133  0.44132407  1
  Co  Co16  1  0.67696225  0.84982689  0.44131915  1
  Co  Co17  1  0.15681690  0.31362200  0.44303303  1
  Co  Co18  1  0.15720317  0.84285993  0.05510223  1
  Co  Co19  1  0.68565846  0.84286543  0.05510139  1
  Co  Co20  1  0.15699825  0.31399663  0.05500609  1
  Co  Co21  1  0.84268082  0.15718211  0.94508669  1
  Co  Co22  1  0.31449011  0.15718027  0.94508731  1
  Co  Co23  1  0.84294505  0.68589850  0.94517363  1
  Sn  Sn0  1  0.90116997  0.45646550  0.53669529  1
  Sn  Sn1  1  0.54697430  0.09394385  0.53877115  1
  Sn  Sn2  1  0.55528983  0.45647703  0.53669670  1
  Sn  Sn3  1  0.10985080  0.55556158  0.46517144  1
  Sn  Sn4  1  0.44557302  0.89112781  0.46698377  1
  Sn  Sn5  1  0.44573251  0.55551786  0.46515785  1
  Sn  Sn6  1  0.11045836  0.55516765  0.03766178  1
  Sn  Sn7  1  0.44501942  0.89001632  0.03778492  1
  Sn  Sn8  1  0.44469332  0.55518567  0.03766710  1
  Sn  Sn9  1  0.88934188  0.44459062  0.96239532  1
  Sn  Sn10  1  0.55464955  0.10929173  0.96235514  1
  Sn  Sn11  1  0.55525259  0.44457422  0.96240053  1
  Sn  Sn12  1  0.00028503  0.00053706  0.65735733  1
  Sn  Sn13  1  0.00004027  0.00007815  0.33967475  1
  Sn  Sn14  1  0.00002786  0.00005078  0.16359846  1
  Sn  Sn15  1  0.99992233  0.99985680  0.83628947  1
  Sn  Sn16  1  0.66680553  0.33354706  0.74956193  1
  Sn  Sn17  1  0.33439033  0.66881441  0.24864624  1
  Sn  Sn18  1  0.33496690  0.66992060  0.54830429  1
  Sn  Sn19  1  0.66321647  0.32640391  0.45244360  1
  Sn  Sn20  1  0.66652819  0.33304217  0.05016907  1
  Sn  Sn21  1  0.33329280  0.66668372  0.94998456  1
  Sn  Sn22  1  0.66695421  0.33385828  0.65265127  1
  Sn  Sn23  1  0.33370095  0.66738999  0.34567538  1
  Sn  Sn24  1  0.33318869  0.66641775  0.15466298  1
  Sn  Sn25  1  0.66675948  0.33347893  0.84462018  1
  Sn  Sn26  1  0.11105155  0.88876672  0.74959635  1
  Sn  Sn27  1  0.77774016  0.88877088  0.74960216  1
  Sn  Sn28  1  0.11096708  0.22189826  0.74944182  1
  Sn  Sn29  1  0.88896842  0.11096622  0.25003420  1
  Sn  Sn30  1  0.22196576  0.11095787  0.25003057  1
  Sn  Sn31  1  0.88879613  0.77761207  0.25030514  1
  Sn  Sn32  1  0.45187514  0.90378510  0.70594041  1
  Sn  Sn33  1  0.45171324  0.54888054  0.70599159  1
  Sn  Sn34  1  0.09715763  0.54888129  0.70599835  1
  Sn  Sn35  1  0.54983122  0.09965544  0.29356175  1
  Sn  Sn36  1  0.54938943  0.45122018  0.29408252  1
  Sn  Sn37  1  0.90185198  0.45123859  0.29408853  1
  Sn  Sn38  1  0.55127486  0.10255225  0.20699966  1
  Sn  Sn39  1  0.55158188  0.44791256  0.20718237  1
  Sn  Sn40  1  0.89632787  0.44789550  0.20718726  1
  Sn  Sn41  1  0.44902545  0.89799001  0.79286907  1
  Sn  Sn42  1  0.44877176  0.55175828  0.79289822  1
  Sn  Sn43  1  0.10295811  0.55172324  0.79289911  1
  Sn  Sn44  1  0.00189646  0.66337985  0.61706293  1
  Sn  Sn45  1  0.66743561  0.00269989  0.61592419  1
  Sn  Sn46  1  0.33558362  0.33650570  0.61560845  1
  Sn  Sn47  1  0.66151295  0.66339839  0.61706872  1
  Sn  Sn48  1  0.33529564  0.00267930  0.61591517  1
  Sn  Sn49  1  0.00093249  0.33653079  0.61561385  1
  Sn  Sn50  1  0.00434682  0.33830416  0.38271139  1
  Sn  Sn51  1  0.34061584  0.99766152  0.38177589  1
  Sn  Sn52  1  0.65819673  0.66048772  0.38423008  1
  Sn  Sn53  1  0.33396478  0.33833461  0.38270641  1
  Sn  Sn54  1  0.65703833  0.99767714  0.38177702  1
  Sn  Sn55  1  0.00224681  0.66046950  0.38424445  1
  Sn  Sn56  1  0.00991596  0.34460436  0.11845517  1
  Sn  Sn57  1  0.33508828  0.99065514  0.11850192  1
  Sn  Sn58  1  0.65562164  0.66531164  0.11859246  1
  Sn  Sn59  1  0.33470463  0.34459989  0.11845103  1
  Sn  Sn60  1  0.65557290  0.99066539  0.11850274  1
  Sn  Sn61  1  0.00967733  0.66533849  0.11859946  1
  Sn  Sn62  1  0.99012275  0.65504435  0.88157340  1
  Sn  Sn63  1  0.66518163  0.01007647  0.88160787  1
  Sn  Sn64  1  0.34492203  0.33550727  0.88159306  1
  Sn  Sn65  1  0.66487413  0.65505832  0.88156737  1
  Sn  Sn66  1  0.34494060  0.01009103  0.88161254  1
  Sn  Sn67  1  0.99054627  0.33547508  0.88159197  1
  Sn  Sn68  1  0.00114633  0.00228876  0.56570495  1
  Sn  Sn69  1  0.98727803  0.97456905  0.42601262  1
  Sn  Sn70  1  0.99997895  0.99995626  0.07793681  1
  Sn  Sn71  1  0.00005192  0.00013077  0.92187964  1
  Sn  Sn72  1  0.86540353  0.13642787  0.48121495  1
  Sn  Sn73  1  0.27106310  0.13645099  0.48121744  1
  Sn  Sn74  1  0.84834461  0.69676772  0.02742361  1
  Sn  Sn75  1  0.84834804  0.15185227  0.02735639  1
  Sn  Sn76  1  0.30352048  0.15189347  0.02735654  1
  Sn  Sn77  1  0.15126354  0.30247271  0.97256905  1
  Sn  Sn78  1  0.15143623  0.84853252  0.97273248  1
  Sn  Sn79  1  0.69699721  0.84846799  0.97271602  1
loop_
_geom_bond_atom_site_label_1
_geom_bond_atom_site_label_2
_geom_bond_distance
_geom_bond_site_symmetry_2
Mg0 Sn18 3.038644 1_555
Mg0 Sn33 3.046837 1_555
Mg0 Sn34 3.047093 1_555
Mg0 Sn32 3.051830 1_555
Mg0 Sn44 3.209657 1_555
Mg0 Sn47 3.209909 1_555
Mg0 Sn49 3.231757 1_555
Mg0 Sn46 3.232113 1_555
Mg0 Sn48 3.254626 1_565
Mg0 Sn45 3.254851 1_565
Mg1 Sn19 3.043727 1_555
Mg1 Sn37 3.049640 1_555
Mg1 Sn36 3.049704 1_555
Mg1 Sn35 3.076124 1_555
Mg1 Sn55 3.210790 1_655
Mg1 Sn52 3.211167 1_555
Mg1 Sn54 3.212968 1_545
Mg1 Sn51 3.213132 1_545
Mg1 Sn50 3.253748 1_655
Mg1 Sn53 3.253971 1_555
Mg2 Sn20 2.987490 1_555
Mg2 Sn38 3.029488 1_555
Mg2 Sn40 3.038938 1_555
Mg2 Sn39 3.039038 1_555
Mg2 Sn60 3.265419 1_545
Mg2 Sn61 3.265427 1_655
Mg2 Sn57 3.265450 1_545
Mg2 Sn58 3.265574 1_555
Mg2 Sn59 3.276173 1_555
Mg2 Sn56 3.276204 1_655
Mg3 Sn21 2.997660 1_555
Mg3 Sn41 3.031184 1_555
Mg3 Sn43 3.036810 1_555
Mg3 Sn42 3.036887 1_555
Mg3 Sn64 3.263828 1_555
Mg3 Sn67 3.264014 1_455
Mg3 Sn63 3.270956 1_565
Mg3 Sn66 3.270981 1_565
Mg3 Sn65 3.275053 1_555
Mg3 Sn62 3.275525 1_455
Mg4 Sn26 3.032544 1_545
Mg4 Sn28 3.033527 1_555
Mg4 Sn22 3.084108 1_555
Mg4 Sn12 3.145404 1_555
Mg4 Sn16 3.193825 1_555
Mg4 Sn33 3.196105 1_555
Mg4 Sn32 3.201593 1_545
Mg4 Sn48 3.223232 1_555
Mg4 Sn46 3.236892 1_555
Mg5 Sn26 3.032651 1_655
Mg5 Sn27 3.032772 1_555
Mg5 Sn22 3.085192 1_555
Mg5 Sn12 3.140554 1_665
Mg5 Sn16 3.176926 1_555
Mg5 Sn33 3.204549 1_555
Mg5 Sn34 3.204591 1_655
Mg5 Sn47 3.214765 1_555
Mg5 Sn44 3.215173 1_655
Mg6 Sn27 3.032661 1_545
Mg6 Sn28 3.033682 1_655
Mg6 Sn22 3.083760 1_555
Mg6 Sn12 3.145769 1_655
Mg6 Sn16 3.193583 1_555
Mg6 Sn34 3.196110 1_655
Mg6 Sn32 3.201696 1_545
Mg6 Sn45 3.222695 1_555
Mg6 Sn49 3.236856 1_655
Mg7 Sn31 3.031216 1_555
Mg7 Sn29 3.033944 1_565
Mg7 Sn23 3.054378 1_555
Mg7 Sn13 3.117260 1_665
Mg7 Sn54 3.190968 1_555
Mg7 Sn36 3.191221 1_555
Mg7 Sn17 3.204723 1_555
Mg7 Sn35 3.222390 1_565
Mg7 Sn52 3.244868 1_555
Mg8 Sn29 3.036215 1_455
Mg8 Sn30 3.036347 1_555
Mg8 Sn23 3.064306 1_555
Mg8 Sn13 3.115659 1_555
Mg8 Sn17 3.201499 1_555
Mg8 Sn53 3.203217 1_555
Mg8 Sn50 3.203490 1_555
Mg8 Sn37 3.208279 1_455
Mg8 Sn36 3.208350 1_555
Mg9 Sn31 3.031283 1_455
Mg9 Sn30 3.034082 1_565
Mg9 Sn23 3.054404 1_555
Mg9 Sn13 3.117416 1_565
Mg9 Sn51 3.190735 1_555
Mg9 Sn37 3.190975 1_455
Mg9 Sn17 3.204645 1_555
Mg9 Sn35 3.222323 1_565
Mg9 Sn55 3.245448 1_555
Mg10 Sn29 3.023706 1_565
Mg10 Sn31 3.029489 1_555
Mg10 Sn24 3.067360 1_555
Mg10 Sn14 3.092991 1_665
Mg10 Sn17 3.119184 1_555
Mg10 Sn60 3.175621 1_555
Mg10 Sn58 3.178510 1_555
Mg10 Sn38 3.228195 1_565
Mg10 Sn39 3.230072 1_555
Mg11 Sn30 3.021644 1_555
Mg11 Sn29 3.021843 1_455
Mg11 Sn24 3.048584 1_555
Mg11 Sn14 3.091801 1_555
Mg11 Sn17 3.143824 1_555
Mg11 Sn56 3.176074 1_555
Mg11 Sn59 3.176349 1_555
Mg11 Sn39 3.236638 1_555
Mg11 Sn40 3.236709 1_455
Mg12 Sn30 3.023748 1_565
Mg12 Sn31 3.029709 1_455
Mg12 Sn24 3.067235 1_555
Mg12 Sn14 3.092960 1_565
Mg12 Sn17 3.118924 1_555
Mg12 Sn57 3.175652 1_555
Mg12 Sn61 3.178191 1_555
Mg12 Sn38 3.228066 1_565
Mg12 Sn40 3.230139 1_455
Mg13 Sn28 3.029583 1_555
Mg13 Sn26 3.030095 1_545
Mg13 Sn25 3.058990 1_555
Mg13 Sn15 3.087458 1_445
Mg13 Sn16 3.164363 1_555
Mg13 Sn66 3.177932 1_555
Mg13 Sn64 3.185726 1_555
Mg13 Sn42 3.225308 1_555
Mg13 Sn41 3.228895 1_545
Mg14 Sn27 3.021727 1_555
Mg14 Sn26 3.022084 1_655
Mg14 Sn25 3.044874 1_555
Mg14 Sn15 3.084499 1_555
Mg14 Sn16 3.164766 1_555
Mg14 Sn62 3.180923 1_555
Mg14 Sn65 3.180952 1_555
Mg14 Sn42 3.233861 1_555
Mg14 Sn43 3.234194 1_655
Mg15 Sn28 3.029936 1_655
Mg15 Sn27 3.029976 1_545
Mg15 Sn25 3.058945 1_555
Mg15 Sn15 3.087295 1_545
Mg15 Sn16 3.163965 1_555
Mg15 Sn63 3.177735 1_555
Mg15 Sn67 3.185523 1_555
Mg15 Sn43 3.225087 1_655
Mg15 Sn41 3.228267 1_545
Co0 Sn44 2.610884 1_555
Co0 Sn48 2.625921 1_565
Co0 Sn32 2.632411 1_555
Co0 Sn26 2.633003 1_555
Co0 Sn34 2.637995 1_555
Co0 Sn12 2.816120 1_565
Co0 Mg4 2.854917 1_565
Co0 Mg5 2.878844 1_455
Co0 Mg0 3.073276 1_555
Co1 Sn47 2.610802 1_555
Co1 Sn45 2.625622 1_565
Co1 Sn32 2.632827 1_555
Co1 Sn27 2.633165 1_555
Co1 Sn33 2.637960 1_555
Co1 Sn12 2.816300 1_665
Co1 Mg6 2.854815 1_565
Co1 Mg5 2.878814 1_555
Co1 Mg0 3.073217 1_555
Co2 Sn49 2.631034 1_555
Co2 Sn46 2.631189 1_555
Co2 Sn28 2.637430 1_555
Co2 Sn33 2.638610 1_555
Co2 Sn34 2.638967 1_555
Co2 Sn12 2.813963 1_555
Co2 Mg4 2.869182 1_555
Co2 Mg6 2.869269 1_455
Co2 Mg0 3.052082 1_555
Co3 Sn54 2.607560 1_545
Co3 Sn29 2.626912 1_555
Co3 Sn50 2.632414 1_655
Co3 Sn37 2.632582 1_555
Co3 Sn35 2.641761 1_555
Co3 Sn13 2.785142 1_655
Co3 Mg7 2.867841 1_545
Co3 Mg8 2.872433 1_655
Co3 Mg1 3.107736 1_555
Co4 Sn51 2.607505 1_545
Co4 Sn30 2.627100 1_555
Co4 Sn53 2.632469 1_555
Co4 Sn36 2.632528 1_555
Co4 Sn35 2.641945 1_555
Co4 Sn13 2.785076 1_555
Co4 Mg9 2.867880 1_545
Co4 Mg8 2.872501 1_555
Co4 Mg1 3.107656 1_555
Co5 Sn36 2.641612 1_555
Co5 Sn37 2.641620 1_555
Co5 Sn52 2.646809 1_555
Co5 Sn55 2.646888 1_655
Co5 Sn31 2.650056 1_555
Co5 Sn13 2.783898 1_665
Co5 Mg9 2.872137 1_655
Co5 Mg7 2.872168 1_555
Co5 Mg1 3.048443 1_555
Co6 Sn56 2.595062 1_655
Co6 Sn60 2.599064 1_545
Co6 Sn40 2.662847 1_555
Co6 Sn29 2.664599 1_555
Co6 Sn38 2.666916 1_555
Co6 Sn14 2.749127 1_655
Co6 Mg10 2.880971 1_545
Co6 Mg11 2.890015 1_655
Co6 Mg2 3.069659 1_555
Co7 Sn59 2.595134 1_555
Co7 Sn57 2.599192 1_545
Co7 Sn39 2.662914 1_555
Co7 Sn30 2.664583 1_555
Co7 Sn38 2.666846 1_555
Co7 Sn14 2.748929 1_555
Co7 Mg12 2.880910 1_545
Co7 Mg11 2.890115 1_555
Co7 Mg2 3.069835 1_555
Co8 Sn61 2.597758 1_655
Co8 Sn58 2.597965 1_555
Co8 Sn39 2.662485 1_555
Co8 Sn40 2.662751 1_555
Co8 Sn31 2.674424 1_555
Co8 Sn14 2.743056 1_665
Co8 Mg12 2.890568 1_655
Co8 Mg10 2.890656 1_555
Co8 Mg2 3.069410 1_555
Co9 Sn62 2.595761 1_455
Co9 Sn66 2.597476 1_565
Co9 Sn41 2.665633 1_555
Co9 Sn43 2.665909 1_555
Co9 Sn26 2.683030 1_555
Co9 Sn15 2.751604 1_455
Co9 Mg13 2.879065 1_565
Co9 Mg14 2.896030 1_455
Co9 Mg3 3.060354 1_555
Co10 Sn65 2.595491 1_555
Co10 Sn63 2.597263 1_565
Co10 Sn41 2.664999 1_555
Co10 Sn42 2.665660 1_555
Co10 Sn27 2.682863 1_555
Co10 Sn15 2.751390 1_555
Co10 Mg15 2.878824 1_565
Co10 Mg14 2.895963 1_555
Co10 Mg3 3.060508 1_555
Co11 Sn64 2.602065 1_555
Co11 Sn67 2.602226 1_455
Co11 Sn43 2.662795 1_555
Co11 Sn42 2.662950 1_555
Co11 Sn28 2.686315 1_555
Co11 Sn15 2.743677 1_445
Co11 Mg15 2.887463 1_455
Co11 Mg13 2.887600 1_555
Co11 Mg3 3.066590 1_555
Co12 Sn49 2.567303 1_655
Co12 Sn45 2.582131 1_555
Co12 Sn1 2.585469 1_555
Co12 Sn0 2.600417 1_555
Co12 Sn72 2.607881 1_555
Co12 Sn68 2.689596 1_655
Co13 Sn46 2.567315 1_555
Co13 Sn48 2.582087 1_555
Co13 Sn1 2.585405 1_555
Co13 Sn2 2.600439 1_555
Co13 Sn73 2.607599 1_555
Co13 Sn68 2.689590 1_555
Co14 Sn44 2.508238 1_655
Co14 Sn47 2.508341 1_555
Co14 Sn2 2.594952 1_555
Co14 Sn0 2.595089 1_555
Co14 Sn68 2.659624 1_665
Co15 Sn51 2.527871 1_555
Co15 Sn4 2.573748 1_555
Co15 Sn55 2.599808 1_555
Co15 Sn69 2.621699 1_455
Co15 Sn3 2.668444 1_555
Co15 Sn73 2.755821 1_565
Co16 Sn54 2.527874 1_555
Co16 Sn4 2.573897 1_555
Co16 Sn52 2.599869 1_555
Co16 Sn69 2.621379 1_555
Co16 Sn5 2.668542 1_555
Co16 Sn72 2.755702 1_565
Co17 Sn50 2.596150 1_555
Co17 Sn53 2.596276 1_555
Co17 Sn5 2.658893 1_555
Co17 Sn3 2.659232 1_555
Co17 Sn72 2.742216 1_455
Co17 Sn73 2.742263 1_555
Co17 Sn69 2.844131 1_445
Co18 Sn6 2.605608 1_555
Co18 Sn7 2.608886 1_555
Co18 Sn61 2.668352 1_555
Co18 Sn57 2.675309 1_555
Co18 Sn70 2.701746 1_455
Co18 Sn76 2.705414 1_565
Co18 Sn74 2.713358 1_455
Co18 Sn78 2.815814 1_554
Co19 Sn8 2.605472 1_555
Co19 Sn7 2.608641 1_555
Co19 Sn58 2.668263 1_555
Co19 Sn60 2.675458 1_555
Co19 Sn70 2.701629 1_555
Co19 Sn75 2.705043 1_565
Co19 Sn74 2.712889 1_555
Co19 Sn79 2.816328 1_554
Co20 Sn8 2.604332 1_555
Co20 Sn6 2.604464 1_555
Co20 Sn59 2.673660 1_555
Co20 Sn56 2.673780 1_555
Co20 Sn70 2.690892 1_445
Co20 Sn76 2.710959 1_555
Co20 Sn75 2.711027 1_455
Co20 Sn77 2.818595 1_554
Co21 Sn9 2.602260 1_555
Co21 Sn10 2.608014 1_555
Co21 Sn67 2.671635 1_555
Co21 Sn63 2.674785 1_555
Co21 Sn79 2.701714 1_545
Co21 Sn71 2.706272 1_655
Co21 Sn77 2.709092 1_655
Co21 Sn75 2.812288 1_556
Co22 Sn11 2.602188 1_555
Co22 Sn10 2.608152 1_555
Co22 Sn64 2.671787 1_555
Co22 Sn66 2.674874 1_555
Co22 Sn78 2.701405 1_545
Co22 Sn71 2.706277 1_555
Co22 Sn77 2.708712 1_555
Co22 Sn76 2.812272 1_556
Co23 Sn11 2.603909 1_555
Co23 Sn9 2.603945 1_555
Co23 Sn62 2.679365 1_555
Co23 Sn65 2.679669 1_555
Co23 Sn71 2.695998 1_665
Co23 Sn78 2.708861 1_655
Co23 Sn79 2.708977 1_555
Co23 Sn74 2.812014 1_556
Sn12 Sn68 3.131551 1_555
Sn13 Sn69 2.956710 1_445
Sn14 Sn70 2.926878 1_445
Sn15 Sn71 2.924441 1_665
Sn32 Sn41 2.970391 1_555
Sn33 Sn42 2.969879 1_555
Sn34 Sn43 2.969672 1_555
Sn35 Sn38 2.957659 1_555
Sn36 Sn39 2.969632 1_555
Sn37 Sn40 2.969672 1_555
Sn69 Sn72 3.009024 1_565
Sn69 Sn73 3.009255 1_665
Sn70 Sn74 3.032562 1_555
Sn70 Sn75 3.033985 1_565
Sn70 Sn76 3.034108 1_665
Sn71 Sn77 3.030306 1_555
Sn71 Sn78 3.035612 1_545
Sn71 Sn79 3.035806 1_445
