# generated using pymatgen
data_Rb2CoAuF6
_symmetry_space_group_name_H-M   'P 1'
_cell_length_a   6.17676300
_cell_length_b   6.17676267
_cell_length_c   6.17676257
_cell_angle_alpha   59.99999163
_cell_angle_beta   59.99999235
_cell_angle_gamma   59.99999287
_symmetry_Int_Tables_number   1
_chemical_formula_structural   Rb2CoAuF6
_chemical_formula_sum   'Rb2 Co1 Au1 F6'
_cell_volume   166.63556046
_cell_formula_units_Z   1
loop_
 _symmetry_equiv_pos_site_id
 _symmetry_equiv_pos_as_xyz
  1  'x, y, z'
loop_
 _atom_site_type_symbol
 _atom_site_label
 _atom_site_symmetry_multiplicity
 _atom_site_fract_x
 _atom_site_fract_y
 _atom_site_fract_z
 _atom_site_occupancy
  Rb  Rb0  1  0.25000000  0.25000000  0.25000000  1
  Rb  Rb1  1  0.75000000  0.75000000  0.75000000  1
  Co  Co0  1  0.00000000  0.00000000  0.00000000  1
  Au  Au0  1  0.50000000  0.50000000  0.50000000  1
  F  F0  1  0.22609900  0.77390100  0.22609900  1
  F  F1  1  0.77390100  0.77390100  0.22609900  1
  F  F2  1  0.77390100  0.22609900  0.77390100  1
  F  F3  1  0.77390100  0.22609900  0.22609900  1
  F  F4  1  0.22609900  0.77390100  0.77390100  1
  F  F5  1  0.22609900  0.22609900  0.77390100  1
loop_
_geom_bond_atom_site_label_1
_geom_bond_atom_site_label_2
_geom_bond_distance
_geom_bond_site_symmetry_2
Co0 F3 1.975034 1_455
Co0 F4 1.975034 1_544
Co0 F0 1.975034 1_545
Co0 F5 1.975034 1_554
Co0 F2 1.975034 1_454
Co0 F1 1.975034 1_445
Au0 F4 2.392597 1_555
Au0 F3 2.392597 1_555
Au0 F1 2.392597 1_555
Au0 F2 2.392597 1_555
Au0 F5 2.392597 1_555
Au0 F0 2.392597 1_555
F0 Rb1 3.095430 1_455
F0 Rb1 3.095430 1_554
F0 Rb0 3.095430 1_555
F0 Rb0 3.095430 1_565
F1 Rb0 3.095430 1_655
F1 Rb0 3.095430 1_565
F1 Rb1 3.095430 1_555
F1 Rb1 3.095430 1_554
F2 Rb0 3.095430 1_655
F2 Rb0 3.095430 1_556
F2 Rb1 3.095430 1_555
F2 Rb1 3.095430 1_545
F3 Rb1 3.095430 1_545
F3 Rb1 3.095430 1_554
F3 Rb0 3.095430 1_555
F3 Rb0 3.095431 1_655
F4 Rb0 3.095430 1_565
F4 Rb0 3.095430 1_556
F4 Rb1 3.095430 1_555
F4 Rb1 3.095431 1_455
F5 Rb1 3.095430 1_455
F5 Rb1 3.095430 1_545
F5 Rb0 3.095430 1_555
F5 Rb0 3.095430 1_556
