# generated using pymatgen
data_Sm2Nb2S7O30
_symmetry_space_group_name_H-M   'P 1'
_cell_length_a   7.22545041
_cell_length_b   12.95505974
_cell_length_c   12.95505974
_cell_angle_alpha   90.00000000
_cell_angle_beta   90.00000000
_cell_angle_gamma   90.00000000
_symmetry_Int_Tables_number   1
_chemical_formula_structural   Sm2Nb2S7O30
_chemical_formula_sum   'Sm4 Nb4 S14 O60'
_cell_volume   1212.67315788
_cell_formula_units_Z   2
loop_
 _symmetry_equiv_pos_site_id
 _symmetry_equiv_pos_as_xyz
  1  'x, y, z'
loop_
 _atom_site_type_symbol
 _atom_site_label
 _atom_site_symmetry_multiplicity
 _atom_site_fract_x
 _atom_site_fract_y
 _atom_site_fract_z
 _atom_site_occupancy
  Sm  Sm0  1  0.59248851  0.80099900  0.30099900  1
  Sm  Sm1  1  0.40751149  0.69900100  0.80099900  1
  Sm  Sm2  1  0.59248851  0.19900100  0.69900100  1
  Sm  Sm3  1  0.40751149  0.30099900  0.19900100  1
  Nb  Nb0  1  0.98290118  0.63785371  0.13785371  1
  Nb  Nb1  1  0.01709882  0.86214629  0.63785371  1
  Nb  Nb2  1  0.98290118  0.36214629  0.86214629  1
  Nb  Nb3  1  0.01709882  0.13785371  0.36214629  1
  S  S0  1  0.34534797  0.50000000  -0.00000000  1
  S  S1  1  0.65465203  -0.00000000  0.50000000  1
  S  S2  1  0.89644263  0.37683917  0.12316083  1
  S  S3  1  0.10355737  0.12316083  0.62316083  1
  S  S4  1  0.89644263  0.62316083  0.87683917  1
  S  S5  1  0.10355737  0.87683917  0.37683917  1
  S  S6  1  0.29447947  0.56455986  0.32398206  1
  S  S7  1  0.70552053  0.93544014  0.82398206  1
  S  S8  1  0.29447947  0.43544014  0.67601794  1
  S  S9  1  0.70552053  0.06455986  0.17601794  1
  S  S10  1  0.70552053  0.67601794  0.56455986  1
  S  S11  1  0.29447947  0.82398206  0.06455986  1
  S  S12  1  0.70552053  0.32398206  0.43544014  1
  S  S13  1  0.29447947  0.17601794  0.93544014  1
  O  O0  1  0.79274845  0.69943960  0.19943960  1
  O  O1  1  0.20725155  0.80056040  0.69943960  1
  O  O2  1  0.79274845  0.30056040  0.80056040  1
  O  O3  1  0.20725155  0.19943960  0.30056040  1
  O  O4  1  0.45860762  0.56687600  0.93312400  1
  O  O5  1  0.54139238  0.93312400  0.43312400  1
  O  O6  1  0.45860762  0.43312400  0.06687600  1
  O  O7  1  0.54139238  0.06687600  0.56687600  1
  O  O8  1  0.22474773  0.56595324  0.06595324  1
  O  O9  1  0.77525227  0.93404676  0.56595324  1
  O  O10  1  0.22474773  0.43404676  0.93404676  1
  O  O11  1  0.77525227  0.06595324  0.43404676  1
  O  O12  1  0.07883100  0.34339832  0.15660168  1
  O  O13  1  0.92116900  0.15660168  0.65660168  1
  O  O14  1  0.07883100  0.65660168  0.84339832  1
  O  O15  1  0.92116900  0.84339832  0.34339832  1
  O  O16  1  0.74343685  0.32506915  0.17493085  1
  O  O17  1  0.25656315  0.17493085  0.67493085  1
  O  O18  1  0.74343685  0.67493085  0.82506915  1
  O  O19  1  0.25656315  0.82506915  0.32506915  1
  O  O20  1  0.87418309  0.49121533  0.14125653  1
  O  O21  1  0.12581691  0.00878467  0.64125653  1
  O  O22  1  0.87418309  0.50878467  0.85874347  1
  O  O23  1  0.12581691  0.99121533  0.35874347  1
  O  O24  1  0.12581691  0.85874347  0.49121533  1
  O  O25  1  0.87418309  0.64125653  0.99121533  1
  O  O26  1  0.12581691  0.14125653  0.50878467  1
  O  O27  1  0.87418309  0.35874347  0.00878467  1
  O  O28  1  0.45000193  0.63029331  0.29096954  1
  O  O29  1  0.54999807  0.86970669  0.79096954  1
  O  O30  1  0.45000193  0.36970669  0.70903046  1
  O  O31  1  0.54999807  0.13029331  0.20903046  1
  O  O32  1  0.54999807  0.70903046  0.63029331  1
  O  O33  1  0.45000193  0.79096954  0.13029331  1
  O  O34  1  0.54999807  0.29096954  0.36970669  1
  O  O35  1  0.45000193  0.20903046  0.86970669  1
  O  O36  1  0.32105370  0.45695643  0.29204876  1
  O  O37  1  0.67894630  0.04304357  0.79204876  1
  O  O38  1  0.32105370  0.54304357  0.70795124  1
  O  O39  1  0.67894630  0.95695643  0.20795124  1
  O  O40  1  0.67894630  0.70795124  0.45695643  1
  O  O41  1  0.32105370  0.79204876  0.95695643  1
  O  O42  1  0.67894630  0.29204876  0.54304357  1
  O  O43  1  0.32105370  0.20795124  0.04304357  1
  O  O44  1  0.26208691  0.57527347  0.43498048  1
  O  O45  1  0.73791309  0.92472653  0.93498048  1
  O  O46  1  0.26208691  0.42472653  0.56501952  1
  O  O47  1  0.73791309  0.07527347  0.06501952  1
  O  O48  1  0.73791309  0.56501952  0.57527347  1
  O  O49  1  0.26208691  0.93498048  0.07527347  1
  O  O50  1  0.73791309  0.43498048  0.42472653  1
  O  O51  1  0.26208691  0.06501952  0.92472653  1
  O  O52  1  0.12013978  0.60566493  0.26874163  1
  O  O53  1  0.87986022  0.89433507  0.76874163  1
  O  O54  1  0.12013978  0.39433507  0.73125837  1
  O  O55  1  0.87986022  0.10566493  0.23125837  1
  O  O56  1  0.87986022  0.73125837  0.60566493  1
  O  O57  1  0.12013978  0.76874163  0.10566493  1
  O  O58  1  0.87986022  0.26874163  0.39433507  1
  O  O59  1  0.12013978  0.23125837  0.89433507  1
loop_
_geom_bond_atom_site_label_1
_geom_bond_atom_site_label_2
_geom_bond_distance
_geom_bond_site_symmetry_2
Nb0 O0 1.777874 1_555
Nb0 O57 2.008097 1_655
Nb0 O52 2.008097 1_655
Nb0 O20 2.056187 1_555
Nb0 O25 2.056187 1_554
Nb0 O8 2.188349 1_655
Nb1 O1 1.777874 1_555
Nb1 O56 2.008097 1_455
Nb1 O53 2.008097 1_455
Nb1 O24 2.056187 1_555
Nb1 O21 2.056187 1_565
Nb1 O9 2.188349 1_455
Nb2 O2 1.777874 1_555
Nb2 O54 2.008097 1_655
Nb2 O59 2.008097 1_655
Nb2 O27 2.056187 1_556
Nb2 O22 2.056187 1_555
Nb2 O10 2.188349 1_655
Nb3 O3 1.777874 1_555
Nb3 O55 2.008097 1_455
Nb3 O58 2.008097 1_455
Nb3 O23 2.056187 1_545
Nb3 O26 2.056187 1_555
Nb3 O11 2.188349 1_455
O0 Sm0 2.357094 1_555
O1 Sm1 2.357094 1_555
O2 Sm2 2.357094 1_555
O3 Sm3 2.357094 1_555
O4 S0 1.473410 1_556
O4 Sm1 2.448683 1_555
O5 S1 1.473410 1_565
O5 Sm0 2.448683 1_555
O6 S0 1.473410 1_555
O6 Sm3 2.448683 1_555
O7 S1 1.473410 1_555
O7 Sm2 2.448683 1_555
O8 S0 1.489771 1_555
O9 S1 1.489771 1_565
O10 S0 1.489771 1_556
O11 S1 1.489771 1_555
O12 S2 1.453296 1_455
O12 Sm3 2.498682 1_555
O13 S3 1.453296 1_655
O13 Sm2 2.498682 1_555
O14 S4 1.453296 1_455
O14 Sm1 2.498682 1_555
O15 S5 1.453296 1_655
O15 Sm0 2.498682 1_555
O16 S2 1.456655 1_555
O16 Sm3 2.466948 1_555
O17 S3 1.456655 1_555
O17 Sm2 2.466948 1_555
O18 S4 1.456655 1_555
O18 Sm1 2.466948 1_555
O19 S5 1.456655 1_555
O19 Sm0 2.466948 1_555
O20 S2 1.508777 1_555
O21 S3 1.508777 1_555
O22 S4 1.508777 1_555
O23 S5 1.508777 1_555
O24 S5 1.508777 1_555
O25 S4 1.508777 1_555
O26 S3 1.508777 1_555
O27 S2 1.508777 1_555
O28 S6 1.473379 1_555
O28 Sm0 2.442858 1_555
O29 S7 1.473379 1_555
O29 Sm1 2.442858 1_555
O30 S8 1.473379 1_555
O30 Sm2 2.442858 1_555
O31 S9 1.473379 1_555
O31 Sm3 2.442858 1_555
O32 S10 1.473379 1_555
O32 Sm1 2.442858 1_555
O33 S11 1.473379 1_555
O33 Sm0 2.442858 1_555
O34 S12 1.473379 1_555
O34 Sm3 2.442858 1_555
O35 S13 1.473379 1_555
O35 Sm2 2.442858 1_555
O36 S6 1.466722 1_555
O36 Sm3 2.434235 1_555
O37 S7 1.466722 1_545
O37 Sm2 2.434235 1_555
O38 S8 1.466722 1_555
O38 Sm1 2.434235 1_555
O39 S9 1.466722 1_565
O39 Sm0 2.434235 1_555
O40 S10 1.466722 1_555
O40 Sm0 2.434235 1_555
O41 S11 1.466722 1_556
O41 Sm1 2.434235 1_555
O42 S12 1.466722 1_555
O42 Sm2 2.434235 1_555
O43 S13 1.466722 1_554
O43 Sm3 2.434235 1_555
O44 S6 1.463510 1_555
O45 S7 1.463510 1_555
O46 S8 1.463510 1_555
O47 S9 1.463510 1_555
O48 S10 1.463510 1_555
O49 S11 1.463510 1_555
O50 S12 1.463510 1_555
O51 S13 1.463510 1_555
O52 S6 1.543542 1_555
O53 S7 1.543542 1_555
O54 S8 1.543542 1_555
O55 S9 1.543542 1_555
O56 S10 1.543542 1_555
O57 S11 1.543542 1_555
O58 S12 1.543542 1_555
O59 S13 1.543542 1_555
