# generated using pymatgen
data_CaCoSi2O7
_symmetry_space_group_name_H-M   'P 1'
_cell_length_a   7.94430040
_cell_length_b   7.94430040
_cell_length_c   5.19353900
_cell_angle_alpha   90.00000000
_cell_angle_beta   90.00000000
_cell_angle_gamma   90.27928497
_symmetry_Int_Tables_number   1
_chemical_formula_structural   CaCoSi2O7
_chemical_formula_sum   'Ca2 Co2 Si4 O14'
_cell_volume   327.77026590
_cell_formula_units_Z   2
loop_
 _symmetry_equiv_pos_site_id
 _symmetry_equiv_pos_as_xyz
  1  'x, y, z'
loop_
 _atom_site_type_symbol
 _atom_site_label
 _atom_site_symmetry_multiplicity
 _atom_site_fract_x
 _atom_site_fract_y
 _atom_site_fract_z
 _atom_site_occupancy
  Ca  Ca0  1  0.83927500  0.16072500  0.52229800  1
  Ca  Ca1  1  0.16072500  0.83927500  0.52229800  1
  Co  Co0  1  0.50000000  0.00000000  0.99452600  1
  Co  Co1  1  0.00000000  0.50000000  0.99452600  1
  Si  Si0  1  0.13610400  0.13610400  0.05143400  1
  Si  Si1  1  0.35792000  0.64208000  0.94815800  1
  Si  Si2  1  0.64208000  0.35792000  0.94815800  1
  Si  Si3  1  0.86389600  0.86389600  0.05143400  1
  O  O0  1  0.31733500  0.07912900  0.17129800  1
  O  O1  1  0.68266500  0.92087100  0.17129800  1
  O  O2  1  0.59117300  0.17794000  0.80471900  1
  O  O3  1  0.40882700  0.82206000  0.80471900  1
  O  O4  1  0.07912900  0.31733500  0.17129800  1
  O  O5  1  0.17794000  0.59117300  0.80471900  1
  O  O6  1  0.82206000  0.40882700  0.80471900  1
  O  O7  1  0.92087100  0.68266500  0.17129800  1
  O  O8  1  0.11400900  0.11400900  0.74157800  1
  O  O9  1  0.31791200  0.68208800  0.24572900  1
  O  O10  1  0.50000000  0.50000000  0.89427300  1
  O  O11  1  0.00000000  0.00000000  0.19536800  1
  O  O12  1  0.68208800  0.31791200  0.24572900  1
  O  O13  1  0.88599100  0.88599100  0.74157800  1
loop_
_geom_bond_atom_site_label_1
_geom_bond_atom_site_label_2
_geom_bond_distance
_geom_bond_site_symmetry_2
Ca0 O12 2.279709 1_555
Ca0 O6 2.461211 1_555
Ca0 O2 2.461211 1_555
Ca0 O11 2.481838 1_655
Ca0 O8 2.491224 1_655
Ca0 O13 2.491224 1_545
Ca0 O4 2.911824 1_655
Ca0 O1 2.911824 1_545
Ca1 O9 2.279709 1_555
Ca1 O5 2.461211 1_555
Ca1 O3 2.461211 1_555
Ca1 O11 2.481838 1_565
Ca1 O8 2.491224 1_565
Ca1 O13 2.491224 1_455
Ca1 O0 2.911824 1_565
Ca1 O7 2.911824 1_455
Co0 O1 1.831050 1_546
Co0 O0 1.831050 1_556
Co0 O3 1.866727 1_545
Co0 O2 1.866727 1_555
Co1 O7 1.831050 1_456
Co1 O4 1.831050 1_556
Co1 O6 1.866727 1_455
Co1 O5 1.866727 1_555
O0 Si0 1.634516 1_555
O1 Si3 1.634516 1_555
O2 Si2 1.660497 1_555
O3 Si1 1.660497 1_555
O4 Si0 1.634516 1_555
O5 Si1 1.660497 1_555
O6 Si2 1.660497 1_555
O7 Si3 1.634516 1_555
O8 Si0 1.628190 1_556
O9 Si1 1.609792 1_554
O10 Si2 1.624433 1_555
O10 Si1 1.624433 1_555
O11 Si3 1.698707 1_445
O11 Si0 1.698707 1_555
O12 Si2 1.609792 1_554
O13 Si3 1.628190 1_556
