# generated using pymatgen
data_Sm9Al5Se21
_symmetry_space_group_name_H-M   'P 1'
_cell_length_a   12.14119194
_cell_length_b   12.14111344
_cell_length_c   12.14118663
_cell_angle_alpha   95.18668189
_cell_angle_beta   84.81219778
_cell_angle_gamma   84.81231592
_symmetry_Int_Tables_number   1
_chemical_formula_structural   Sm9Al5Se21
_chemical_formula_sum   'Sm18 Al10 Se42'
_cell_volume   1766.28193144
_cell_formula_units_Z   2
loop_
 _symmetry_equiv_pos_site_id
 _symmetry_equiv_pos_as_xyz
  1  'x, y, z'
loop_
 _atom_site_type_symbol
 _atom_site_label
 _atom_site_symmetry_multiplicity
 _atom_site_fract_x
 _atom_site_fract_y
 _atom_site_fract_z
 _atom_site_occupancy
  Sm  Sm0  1  0.25694747  0.11459337  0.87882106  1
  Sm  Sm1  1  0.92096105  0.45697769  0.22347594  1
  Sm  Sm2  1  0.59714962  0.77443070  0.55087685  1
  Sm  Sm3  1  0.44913450  0.40283621  0.77443802  1
  Sm  Sm4  1  0.12117206  0.74304036  0.11459669  1
  Sm  Sm5  1  0.77652627  0.07902540  0.45697606  1
  Sm  Sm6  1  0.54302739  0.22347782  0.07904522  1
  Sm  Sm7  1  0.22557309  0.55087246  0.40284787  1
  Sm  Sm8  1  0.88539664  0.87882616  0.74304588  1
  Sm  Sm9  1  0.41815202  0.21044431  0.44074503  1
  Sm  Sm10  1  0.07150633  0.54975234  0.78244023  1
  Sm  Sm11  1  0.75236989  0.87627093  0.10676297  1
  Sm  Sm12  1  0.21756550  0.92850172  0.54973838  1
  Sm  Sm13  1  0.89323706  0.24763901  0.87626611  1
  Sm  Sm14  1  0.55926261  0.58185176  0.21043597  1
  Sm  Sm15  1  0.12373256  0.10676381  0.24762396  1
  Sm  Sm16  1  0.78956463  0.44073247  0.58184951  1
  Sm  Sm17  1  0.45022925  0.78244906  0.92850589  1
  Al  Al0  1  0.94868992  0.72128062  0.38824248  1
  Al  Al1  1  0.61176755  0.05131241  0.72129830  1
  Al  Al2  1  0.27870719  0.38823039  0.05131615  1
  Al  Al3  1  0.44858346  0.88566793  0.22388839  1
  Al  Al4  1  0.11434090  0.22391126  0.55140880  1
  Al  Al5  1  0.77609206  0.55142291  0.88566760  1
  Al  Al6  1  0.14848850  0.85151174  0.85150679  1
  Al  Al7  1  0.83504964  0.16494577  0.16494776  1
  Al  Al8  1  0.33548327  0.66451518  0.66450872  1
  Al  Al9  1  0.64810608  0.35189741  0.35189482  1
  Se  Se0  1  0.82308968  0.84456787  0.51249984  1
  Se  Se1  1  0.48749782  0.17688135  0.84460714  1
  Se  Se2  1  0.15541763  0.51249618  0.17691101  1
  Se  Se3  1  0.65548659  0.67723673  0.01230803  1
  Se  Se4  1  0.32277968  0.01231549  0.34449011  1
  Se  Se5  1  0.98769870  0.34450721  0.67722939  1
  Se  Se6  1  0.98453961  0.54011908  0.44866032  1
  Se  Se7  1  0.64191121  0.87089626  0.78247393  1
  Se  Se8  1  0.30436945  0.20338850  0.10590503  1
  Se  Se9  1  0.89408368  0.69562689  0.20340382  1
  Se  Se10  1  0.55133969  0.01546423  0.54015177  1
  Se  Se11  1  0.21752825  0.35809091  0.87090057  1
  Se  Se12  1  0.12909279  0.78246908  0.35809035  1
  Se  Se13  1  0.79659784  0.10592978  0.69562408  1
  Se  Se14  1  0.45985107  0.44866196  0.01546294  1
  Se  Se15  1  0.52366139  0.96774750  0.06555364  1
  Se  Se16  1  0.18833771  0.30009343  0.38920360  1
  Se  Se17  1  0.84357316  0.63205575  0.72227636  1
  Se  Se18  1  0.61078550  0.81167827  0.30008884  1
  Se  Se19  1  0.27772271  0.15643425  0.63205568  1
  Se  Se20  1  0.93443241  0.47635005  0.96775038  1
  Se  Se21  1  0.36793627  0.72227514  0.15644070  1
  Se  Se22  1  0.03226407  0.06556732  0.47633945  1
  Se  Se23  1  0.69990498  0.38921631  0.81167070  1
  Se  Se24  1  0.69390366  0.55364983  0.40009228  1
  Se  Se25  1  0.34042807  0.88963965  0.75103623  1
  Se  Se26  1  0.00715649  0.23511534  0.09048405  1
  Se  Se27  1  0.90952241  0.99283527  0.23510754  1
  Se  Se28  1  0.59990588  0.30609792  0.55365197  1
  Se  Se29  1  0.24895753  0.65956660  0.88963798  1
  Se  Se30  1  0.11036809  0.75104541  0.65957091  1
  Se  Se31  1  0.76489608  0.09048916  0.99283327  1
  Se  Se32  1  0.44635913  0.40008807  0.30609116  1
  Se  Se33  1  0.62687149  0.14358572  0.28303386  1
  Se  Se34  1  0.27935239  0.47753997  0.61976124  1
  Se  Se35  1  0.96688790  0.78570231  0.94100756  1
  Se  Se36  1  0.38023599  0.72066334  0.47754470  1
  Se  Se37  1  0.05898795  0.03311466  0.78570650  1
  Se  Se38  1  0.71697180  0.37314454  0.14358931  1
  Se  Se39  1  0.21429491  0.94100233  0.03311468  1
  Se  Se40  1  0.85640831  0.28303077  0.37313692  1
  Se  Se41  1  0.52243949  0.61977237  0.72066472  1
loop_
_geom_bond_atom_site_label_1
_geom_bond_atom_site_label_2
_geom_bond_distance
_geom_bond_site_symmetry_2
Al0 Se0 2.367455 1_555
Al0 Se12 2.383646 1_655
Al0 Se6 2.396179 1_555
Al0 Se9 2.398509 1_555
Al1 Se1 2.367468 1_555
Al1 Se7 2.383703 1_545
Al1 Se10 2.396089 1_555
Al1 Se13 2.398471 1_555
Al2 Se2 2.367489 1_555
Al2 Se11 2.383739 1_554
Al2 Se14 2.396073 1_555
Al2 Se8 2.398445 1_555
Al3 Se4 2.367509 1_565
Al3 Se18 2.387672 1_555
Al3 Se15 2.390239 1_555
Al3 Se21 2.401505 1_555
Al4 Se5 2.367548 1_455
Al4 Se16 2.387611 1_555
Al4 Se22 2.390298 1_555
Al4 Se19 2.401492 1_555
Al5 Se3 2.367551 1_556
Al5 Se23 2.387677 1_555
Al5 Se20 2.390305 1_555
Al5 Se17 2.401501 1_555
Al6 Se37 2.592805 1_565
Al6 Se35 2.592842 1_455
Al6 Se39 2.592880 1_556
Al6 Se30 2.629772 1_555
Al6 Se25 2.629835 1_555
Al6 Se29 2.629885 1_555
Al7 Se31 2.455397 1_554
Al7 Se26 2.455413 1_655
Al7 Se27 2.455418 1_545
Al7 Se33 2.835774 1_555
Al7 Se40 2.835902 1_555
Al7 Se38 2.835928 1_555
Al8 Se41 2.456851 1_555
Al8 Se36 2.456909 1_555
Al8 Se34 2.456955 1_555
Al8 Se30 2.845920 1_555
Al8 Se25 2.846031 1_555
Al8 Se29 2.846080 1_555
Al9 Se32 2.587930 1_555
Al9 Se24 2.587979 1_555
Al9 Se28 2.588039 1_555
Al9 Se40 2.633664 1_555
Al9 Se38 2.633707 1_555
Al9 Se33 2.633737 1_555
Se0 Sm2 2.954706 1_555
Se0 Sm8 2.968091 1_555
Se0 Sm5 3.000316 1_565
Se1 Sm3 2.954984 1_555
Se1 Sm0 2.968007 1_555
Se1 Sm6 3.000201 1_556
Se2 Sm7 2.954768 1_555
Se2 Sm4 2.968053 1_555
Se2 Sm1 3.000310 1_455
Se3 Sm14 2.955098 1_555
Se3 Sm11 2.965662 1_555
Se3 Sm17 2.999203 1_554
Se4 Sm9 2.955192 1_555
Se4 Sm15 2.965644 1_555
Se4 Sm12 2.999173 1_545
Se5 Sm16 2.955147 1_555
Se5 Sm13 2.965596 1_555
Se5 Sm10 2.999119 1_655
Se6 Sm7 2.945895 1_655
Se6 Sm1 3.018804 1_555
Se6 Sm16 3.138762 1_555
Se7 Sm8 2.963351 1_555
Se7 Sm2 3.060989 1_555
Se7 Sm17 3.124538 1_555
Se8 Sm6 2.921161 1_555
Se8 Sm0 2.992838 1_554
Se8 Sm15 3.048691 1_555
Se9 Sm1 2.921003 1_555
Se9 Sm4 2.992876 1_655
Se9 Sm11 3.048812 1_555
Se10 Sm2 2.945822 1_545
Se10 Sm5 3.018843 1_555
Se10 Sm9 3.138913 1_555
Se11 Sm0 2.963453 1_555
Se11 Sm3 3.060996 1_555
Se11 Sm10 3.124360 1_555
Se12 Sm4 2.963443 1_555
Se12 Sm7 3.060985 1_555
Se12 Sm12 3.124422 1_555
Se13 Sm5 2.921024 1_555
Se13 Sm8 2.993027 1_545
Se13 Sm13 3.048795 1_555
Se14 Sm3 2.945752 1_554
Se14 Sm6 3.018893 1_555
Se14 Sm14 3.138934 1_555
Se15 Sm17 2.928987 1_554
Se15 Sm11 2.998070 1_555
Se15 Sm6 3.125579 1_565
Se16 Sm15 2.987780 1_555
Se16 Sm9 3.041599 1_555
Se16 Sm7 3.110226 1_555
Se17 Sm16 2.914475 1_555
Se17 Sm10 3.031161 1_655
Se17 Sm8 3.075636 1_555
Se18 Sm11 2.987689 1_555
Se18 Sm14 3.041680 1_555
Se18 Sm2 3.110378 1_555
Se19 Sm9 2.914354 1_555
Se19 Sm12 3.031176 1_545
Se19 Sm0 3.075635 1_555
Se20 Sm10 2.929076 1_655
Se20 Sm13 2.998084 1_555
Se20 Sm1 3.125553 1_556
Se21 Sm14 2.914401 1_555
Se21 Sm17 3.031177 1_554
Se21 Sm4 3.075641 1_555
Se22 Sm12 2.928931 1_545
Se22 Sm15 2.998065 1_555
Se22 Sm5 3.125694 1_455
Se23 Sm13 2.987717 1_555
Se23 Sm16 3.041604 1_555
Se23 Sm3 3.110140 1_555
Se24 Sm14 2.968796 1_555
Se24 Sm16 2.969967 1_555
Se24 Sm2 3.173493 1_555
Se24 Sm1 3.386181 1_555
Se25 Sm17 2.970907 1_555
Se25 Sm12 3.026781 1_555
Se25 Sm0 3.056571 1_565
Se26 Sm15 2.949345 1_555
Se26 Sm1 3.058829 1_455
Se26 Sm13 3.063432 1_454
Se27 Sm11 2.949374 1_555
Se27 Sm5 3.058898 1_565
Se27 Sm15 3.063396 1_665
Se28 Sm16 2.968765 1_555
Se28 Sm9 2.969863 1_555
Se28 Sm3 3.173420 1_555
Se28 Sm5 3.386344 1_555
Se29 Sm10 2.970869 1_555
Se29 Sm17 3.026658 1_555
Se29 Sm4 3.056609 1_556
Se30 Sm12 2.970985 1_555
Se30 Sm10 3.026745 1_555
Se30 Sm8 3.056708 1_455
Se31 Sm13 2.949306 1_555
Se31 Sm6 3.058911 1_556
Se31 Sm11 3.063468 1_546
Se32 Sm9 2.968740 1_555
Se32 Sm14 2.969912 1_555
Se32 Sm7 3.173540 1_555
Se32 Sm6 3.386043 1_555
Se33 Sm6 2.970302 1_555
Se33 Sm5 3.018523 1_555
Se33 Sm9 3.035878 1_555
Se34 Sm7 2.963882 1_555
Se34 Sm3 3.044417 1_555
Se34 Sm10 3.069735 1_555
Se35 Sm8 2.958558 1_555
Se35 Sm4 2.992471 1_656
Se35 Sm11 3.190097 1_556
Se35 Sm10 3.380661 1_655
Se36 Sm2 2.963864 1_555
Se36 Sm7 3.044360 1_555
Se36 Sm12 3.069569 1_555
Se37 Sm0 2.958455 1_555
Se37 Sm8 2.992528 1_445
Se37 Sm13 3.190096 1_455
Se37 Sm12 3.380869 1_545
Se38 Sm1 2.970253 1_555
Se38 Sm6 3.018595 1_555
Se38 Sm14 3.035727 1_555
Se39 Sm4 2.958504 1_555
Se39 Sm0 2.992516 1_564
Se39 Sm15 3.190055 1_565
Se39 Sm17 3.380401 1_554
Se40 Sm5 2.970401 1_555
Se40 Sm1 3.018566 1_555
Se40 Sm16 3.035744 1_555
Se41 Sm3 2.963990 1_555
Se41 Sm2 3.044308 1_555
Se41 Sm17 3.069686 1_555
