# generated using pymatgen
data_Mg7Al
_symmetry_space_group_name_H-M   'P 1'
_cell_length_a   6.27124172
_cell_length_b   6.27124165
_cell_length_c   5.05218912
_cell_angle_alpha   90.00000000
_cell_angle_beta   90.00000000
_cell_angle_gamma   120.00012401
_symmetry_Int_Tables_number   1
_chemical_formula_structural   Mg7Al
_chemical_formula_sum   'Mg7 Al1'
_cell_volume   172.07459840
_cell_formula_units_Z   1
loop_
 _symmetry_equiv_pos_site_id
 _symmetry_equiv_pos_as_xyz
  1  'x, y, z'
loop_
 _atom_site_type_symbol
 _atom_site_label
 _atom_site_symmetry_multiplicity
 _atom_site_fract_x
 _atom_site_fract_y
 _atom_site_fract_z
 _atom_site_occupancy
  Mg  Mg0  1  0.16627446  0.83313773  0.25000000  1
  Mg  Mg1  1  0.66686227  0.33372554  0.25000000  1
  Mg  Mg2  1  0.66686227  0.83313773  0.25000000  1
  Mg  Mg3  1  0.33159639  0.16840361  0.75000000  1
  Mg  Mg4  1  0.33159639  0.66319378  0.75000000  1
  Mg  Mg5  1  0.83680622  0.16840361  0.75000000  1
  Mg  Mg6  1  0.83333300  0.66666700  0.75000000  1
  Al  Al0  1  0.16666700  0.33333300  0.25000000  1
loop_
_geom_bond_atom_site_label_1
_geom_bond_atom_site_label_2
_geom_bond_distance
_geom_bond_site_symmetry_2
Mg0 Mg6 3.106576 1_455
Mg0 Mg6 3.106576 1_454
Mg0 Mg3 3.113975 1_564
Mg0 Mg3 3.113975 1_565
Mg0 Mg4 3.113977 1_554
Mg0 Mg4 3.113977 1_555
Mg0 Mg1 3.131929 1_455
Mg0 Mg2 3.131935 1_455
Mg0 Mg1 3.139301 1_565
Mg0 Mg2 3.139307 1_555
Mg1 Mg6 3.106576 1_555
Mg1 Mg6 3.106576 1_554
Mg1 Mg3 3.113975 1_555
Mg1 Mg3 3.113975 1_554
Mg1 Mg5 3.113977 1_555
Mg1 Mg5 3.113977 1_554
Mg1 Mg2 3.131935 1_555
Mg1 Mg2 3.139307 1_545
Mg2 Mg6 3.106578 1_555
Mg2 Mg6 3.106578 1_554
Mg2 Mg5 3.113975 1_564
Mg2 Mg5 3.113975 1_565
Mg2 Mg4 3.113975 1_555
Mg2 Mg4 3.113975 1_554
Mg3 Mg4 3.102949 1_555
Mg3 Mg5 3.102949 1_455
Mg3 Mg6 3.135672 1_445
Mg3 Mg6 3.135672 1_555
Mg3 Mg4 3.168293 1_545
Mg3 Mg5 3.168293 1_555
Mg4 Mg5 3.102943 1_455
Mg4 Mg6 3.135678 1_555
Mg4 Mg6 3.135678 1_455
Mg4 Mg5 3.168287 1_565
Mg5 Mg6 3.135678 1_545
Mg5 Mg6 3.135678 1_555
Al0 Mg3 3.096863 1_555
Al0 Mg3 3.096863 1_554
Al0 Mg4 3.096868 1_554
Al0 Mg4 3.096868 1_555
Al0 Mg5 3.096868 1_455
Al0 Mg5 3.096868 1_454
Al0 Mg0 3.135615 1_545
Al0 Mg1 3.135615 1_555
Al0 Mg2 3.135616 1_445
Al0 Mg2 3.135616 1_555
Al0 Mg0 3.135628 1_555
Al0 Mg1 3.135628 1_455
