# generated using pymatgen
data_CaBPd3
_symmetry_space_group_name_H-M   'P 1'
_cell_length_a   4.27841036
_cell_length_b   4.27843393
_cell_length_c   4.27842164
_cell_angle_alpha   90.00000000
_cell_angle_beta   90.00000000
_cell_angle_gamma   90.00000000
_symmetry_Int_Tables_number   1
_chemical_formula_structural   CaBPd3
_chemical_formula_sum   'Ca1 B1 Pd3'
_cell_volume   78.31606338
_cell_formula_units_Z   1
loop_
 _symmetry_equiv_pos_site_id
 _symmetry_equiv_pos_as_xyz
  1  'x, y, z'
loop_
 _atom_site_type_symbol
 _atom_site_label
 _atom_site_symmetry_multiplicity
 _atom_site_fract_x
 _atom_site_fract_y
 _atom_site_fract_z
 _atom_site_occupancy
  Ca  Ca0  1  0.50000000  0.50000000  0.50000000  1
  B  B0  1  -0.00000000  0.00000000  0.00000000  1
  Pd  Pd0  1  0.50000000  0.00000000  0.00000000  1
  Pd  Pd1  1  0.00000000  0.50000000  0.00000000  1
  Pd  Pd2  1  -0.00000000  -0.00000000  0.50000000  1
loop_
_geom_bond_atom_site_label_1
_geom_bond_atom_site_label_2
_geom_bond_distance
_geom_bond_site_symmetry_2
Ca0 Pd1 3.025297 1_555
Ca0 Pd1 3.025297 1_556
Ca0 Pd1 3.025297 1_656
Ca0 Pd1 3.025297 1_655
Ca0 Pd2 3.025301 1_665
Ca0 Pd2 3.025301 1_655
Ca0 Pd2 3.025301 1_565
Ca0 Pd2 3.025301 1_555
Ca0 Pd0 3.025305 1_566
Ca0 Pd0 3.025305 1_556
Ca0 Pd0 3.025305 1_565
Ca0 Pd0 3.025305 1_555
B0 Pd0 2.139205 1_555
B0 Pd0 2.139205 1_455
B0 Pd2 2.139211 1_554
B0 Pd2 2.139211 1_555
B0 Pd1 2.139217 1_545
B0 Pd1 2.139217 1_555
