# generated using pymatgen
data_CsSbH4O5
_symmetry_space_group_name_H-M   'P 1'
_cell_length_a   6.75093961
_cell_length_b   6.78027078
_cell_length_c   7.59697690
_cell_angle_alpha   90.30051283
_cell_angle_beta   109.97257628
_cell_angle_gamma   113.63429862
_symmetry_Int_Tables_number   1
_chemical_formula_structural   CsSbH4O5
_chemical_formula_sum   'Cs2 Sb2 H8 O10'
_cell_volume   295.30034483
_cell_formula_units_Z   2
loop_
 _symmetry_equiv_pos_site_id
 _symmetry_equiv_pos_as_xyz
  1  'x, y, z'
loop_
 _atom_site_type_symbol
 _atom_site_label
 _atom_site_symmetry_multiplicity
 _atom_site_fract_x
 _atom_site_fract_y
 _atom_site_fract_z
 _atom_site_occupancy
  Cs  Cs0  1  0.82813100  0.99141000  0.71419700  1
  Cs  Cs1  1  0.17186900  0.00859000  0.28580300  1
  Sb  Sb0  1  0.53717600  0.36686200  0.85896900  1
  Sb  Sb1  1  0.46282400  0.63313800  0.14103100  1
  H  H0  1  0.28631200  0.54244400  0.68442900  1
  H  H1  1  0.71368800  0.45755600  0.31557100  1
  H  H2  1  0.90458900  0.37391100  0.11972900  1
  H  H3  1  0.09541100  0.62608900  0.88027100  1
  H  H4  1  0.71971000  0.48028300  0.61449000  1
  H  H5  1  0.28029000  0.51971700  0.38551000  1
  H  H6  1  0.34153100  0.95439600  0.80989200  1
  H  H7  1  0.65846900  0.04560400  0.19010800  1
  O  O0  1  0.31411800  0.32789100  0.99262300  1
  O  O1  1  0.68588200  0.67210900  0.00737700  1
  O  O2  1  0.34047200  0.45233700  0.62886600  1
  O  O3  1  0.65952800  0.54766300  0.37113400  1
  O  O4  1  0.73855600  0.26579000  0.06796000  1
  O  O5  1  0.26144400  0.73421000  0.93204000  1
  O  O6  1  0.77951500  0.44113000  0.74191800  1
  O  O7  1  0.22048500  0.55887000  0.25808200  1
  O  O8  1  0.35747300  0.06050500  0.71956500  1
  O  O9  1  0.64252700  0.93949500  0.28043500  1
loop_
_geom_bond_atom_site_label_1
_geom_bond_atom_site_label_2
_geom_bond_distance
_geom_bond_site_symmetry_2
Cs0 O9 3.060441 1_555
Cs0 O0 3.106475 1_665
Cs0 O6 3.208227 1_565
Cs0 O1 3.227193 1_556
Cs1 O8 3.060441 1_555
Cs1 O1 3.106475 1_445
Cs1 O7 3.208227 1_545
Cs1 O0 3.227193 1_554
H0 O2 0.983340 1_555
H1 O3 0.983340 1_555
H2 O4 0.992701 1_555
H3 O5 0.992701 1_555
H4 O6 0.996124 1_555
H5 O7 0.996124 1_555
H6 O8 0.996806 1_565
H7 O9 0.996806 1_545
O0 Sb0 2.024024 1_555
O0 Sb1 2.024559 1_556
O1 Sb1 2.024024 1_555
O1 Sb0 2.024559 1_554
O2 Sb0 2.048652 1_555
O3 Sb1 2.048652 1_555
O4 Sb0 2.030404 1_554
O5 Sb1 2.030404 1_556
O6 Sb0 2.014657 1_555
O7 Sb1 2.014657 1_555
O8 Sb0 1.996690 1_555
O9 Sb1 1.996690 1_555
