# generated using pymatgen
data_YbLuSO2
_symmetry_space_group_name_H-M   'P 1'
_cell_length_a   3.72789545
_cell_length_b   3.72789545
_cell_length_c   6.86947000
_cell_angle_alpha   90.00000000
_cell_angle_beta   90.00000000
_cell_angle_gamma   119.99999018
_symmetry_Int_Tables_number   1
_chemical_formula_structural   YbLuSO2
_chemical_formula_sum   'Yb1 Lu1 S1 O2'
_cell_volume   82.67636102
_cell_formula_units_Z   1
loop_
 _symmetry_equiv_pos_site_id
 _symmetry_equiv_pos_as_xyz
  1  'x, y, z'
loop_
 _atom_site_type_symbol
 _atom_site_label
 _atom_site_symmetry_multiplicity
 _atom_site_fract_x
 _atom_site_fract_y
 _atom_site_fract_z
 _atom_site_occupancy
  Yb  Yb0  1  0.66666700  0.33333300  0.29236900  1
  Lu  Lu0  1  0.33333300  0.66666700  0.69288400  1
  S  S0  1  0.00000000  0.00000000  0.98723800  1
  O  O0  1  0.33333300  0.66666700  0.38397000  1
  O  O1  1  0.66666700  0.33333300  0.64354000  1
loop_
_geom_bond_atom_site_label_1
_geom_bond_atom_site_label_2
_geom_bond_distance
_geom_bond_site_symmetry_2
Lu0 O0 2.122075 1_555
Lu0 O1 2.178828 1_455
Lu0 O1 2.178828 1_565
Lu0 O1 2.178834 1_555
Lu0 S0 2.953151 1_565
Lu0 S0 2.953154 1_555
Lu0 S0 2.953154 1_665
S0 Yb0 3.004327 1_456
S0 Yb0 3.004329 1_556
S0 Yb0 3.004329 1_446
O0 Yb0 2.242398 1_455
O0 Yb0 2.242398 1_565
O0 Yb0 2.242404 1_555
O1 Yb0 2.412359 1_555
