# generated using pymatgen
data_Mo12P
_symmetry_space_group_name_H-M   'P 1'
_cell_length_a   7.53253108
_cell_length_b   7.53253108
_cell_length_c   7.53253137
_cell_angle_alpha   86.78605104
_cell_angle_beta   86.78605104
_cell_angle_gamma   86.78605554
_symmetry_Int_Tables_number   1
_chemical_formula_structural   Mo12P
_chemical_formula_sum   'Mo24 P2'
_cell_volume   425.44430342
_cell_formula_units_Z   2
loop_
 _symmetry_equiv_pos_site_id
 _symmetry_equiv_pos_as_xyz
  1  'x, y, z'
loop_
 _atom_site_type_symbol
 _atom_site_label
 _atom_site_symmetry_multiplicity
 _atom_site_fract_x
 _atom_site_fract_y
 _atom_site_fract_z
 _atom_site_occupancy
  Mo  Mo0  1  0.44067600  0.57284900  0.24163700  1
  Mo  Mo1  1  0.24163700  0.44067600  0.57284900  1
  Mo  Mo2  1  0.57284900  0.24163700  0.44067600  1
  Mo  Mo3  1  0.36887400  0.88371700  0.05009000  1
  Mo  Mo4  1  0.05009000  0.36887400  0.88371700  1
  Mo  Mo5  1  0.88371700  0.05009000  0.36887400  1
  Mo  Mo6  1  0.13952500  0.76738900  0.37572400  1
  Mo  Mo7  1  0.37572400  0.13952500  0.76738900  1
  Mo  Mo8  1  0.76738900  0.37572400  0.13952500  1
  Mo  Mo9  1  0.95275900  0.71270500  0.67189000  1
  Mo  Mo10  1  0.67189000  0.95275900  0.71270500  1
  Mo  Mo11  1  0.71270500  0.67189000  0.95275900  1
  Mo  Mo12  1  0.02664400  0.09848600  0.65852800  1
  Mo  Mo13  1  0.65852800  0.02664400  0.09848600  1
  Mo  Mo14  1  0.09848600  0.65852800  0.02664500  1
  Mo  Mo15  1  0.86974500  0.40274700  0.52537200  1
  Mo  Mo16  1  0.52537200  0.86974500  0.40274700  1
  Mo  Mo17  1  0.40274700  0.52537200  0.86974500  1
  Mo  Mo18  1  0.68768800  0.30664400  0.80767400  1
  Mo  Mo19  1  0.80767400  0.68768800  0.30664400  1
  Mo  Mo20  1  0.30664400  0.80767400  0.68768800  1
  Mo  Mo21  1  0.37801900  0.27604500  0.09453400  1
  Mo  Mo22  1  0.09453400  0.37801900  0.27604500  1
  Mo  Mo23  1  0.27604500  0.09453400  0.37801900  1
  P  P0  1  0.93212400  0.93212400  0.93212400  1
  P  P1  1  0.61761400  0.61761400  0.61761400  1
loop_
_geom_bond_atom_site_label_1
_geom_bond_atom_site_label_2
_geom_bond_distance
_geom_bond_site_symmetry_2
Mo0 Mo21 2.627463 1_555
Mo0 Mo3 2.724728 1_555
Mo0 Mo16 2.726216 1_555
Mo0 Mo6 2.801706 1_555
Mo0 Mo17 2.875806 1_554
Mo0 Mo8 2.891170 1_555
Mo0 Mo1 2.988780 1_555
Mo0 Mo2 2.988780 1_555
Mo0 Mo11 2.996592 1_554
Mo0 Mo19 3.016206 1_555
Mo0 Mo22 3.054454 1_555
Mo0 Mo14 3.138026 1_555
Mo0 P1 3.239027 1_555
Mo1 Mo22 2.627463 1_555
Mo1 Mo4 2.724728 1_555
Mo1 Mo17 2.726216 1_555
Mo1 Mo7 2.801706 1_555
Mo1 Mo15 2.875806 1_455
Mo1 Mo6 2.891170 1_555
Mo1 Mo2 2.988780 1_555
Mo1 Mo9 2.996592 1_455
Mo1 Mo20 3.016206 1_555
Mo1 Mo23 3.054454 1_555
Mo1 Mo12 3.138030 1_555
Mo1 P1 3.239026 1_555
Mo2 Mo23 2.627463 1_555
Mo2 Mo5 2.724728 1_555
Mo2 Mo8 2.801706 1_555
Mo2 Mo7 2.891170 1_555
Mo2 Mo21 3.054454 1_555
Mo2 P1 3.239026 1_555
Mo3 Mo7 2.790851 1_564
Mo3 Mo6 3.036839 1_555
Mo4 Mo8 2.790851 1_456
Mo4 Mo7 3.036839 1_555
Mo4 Mo9 3.040722 1_455
Mo5 Mo6 2.790851 1_645
Mo5 Mo8 3.036839 1_555
Mo6 Mo9 2.595316 1_455
Mo9 P0 2.626522 1_555
Mo9 P1 2.721134 1_555
Mo10 Mo7 2.595316 1_565
Mo10 P0 2.626522 1_555
Mo10 Mo11 2.720404 1_555
Mo10 Mo9 2.720404 1_555
Mo10 P1 2.721134 1_555
Mo10 Mo16 2.755034 1_555
Mo10 Mo18 2.809006 1_565
Mo10 Mo12 2.944231 1_665
Mo10 Mo13 2.984365 1_566
Mo10 Mo2 2.996592 1_565
Mo10 Mo20 3.036027 1_555
Mo10 Mo5 3.040722 1_565
Mo11 Mo8 2.595316 1_556
Mo11 P0 2.626522 1_555
Mo11 Mo9 2.720404 1_555
Mo11 P1 2.721134 1_555
Mo11 Mo17 2.755034 1_555
Mo11 Mo19 2.809006 1_556
Mo11 Mo13 2.944231 1_566
Mo11 Mo14 2.984366 1_656
Mo11 Mo18 3.036027 1_555
Mo11 Mo3 3.040722 1_556
Mo12 P0 2.443432 1_445
Mo12 Mo5 2.539472 1_455
Mo12 Mo15 2.688275 1_455
Mo12 Mo4 2.741880 1_555
Mo12 Mo23 2.747785 1_555
Mo12 Mo7 2.836076 1_555
Mo12 Mo20 2.962270 1_545
Mo12 Mo9 2.984364 1_445
Mo12 Mo18 3.109089 1_455
Mo13 P0 2.443432 1_544
Mo13 Mo3 2.539471 1_545
Mo13 Mo16 2.688275 1_545
Mo13 Mo5 2.741880 1_555
Mo13 Mo21 2.747785 1_555
Mo13 Mo8 2.836076 1_555
Mo13 Mo18 2.962270 1_554
Mo13 Mo19 3.109089 1_545
Mo13 Mo2 3.138031 1_555
Mo14 P0 2.443434 1_454
Mo14 Mo4 2.539475 1_554
Mo14 Mo17 2.688278 1_554
Mo14 Mo3 2.741878 1_555
Mo14 Mo22 2.747781 1_555
Mo14 Mo6 2.836069 1_555
Mo14 Mo9 2.944238 1_454
Mo14 Mo19 2.962265 1_455
Mo14 Mo20 3.109095 1_554
Mo15 Mo22 2.464982 1_655
Mo15 P1 2.518463 1_555
Mo15 Mo18 2.556979 1_555
Mo15 Mo19 2.667802 1_555
Mo15 Mo2 2.726216 1_555
Mo15 Mo9 2.755034 1_555
Mo15 Mo5 2.960242 1_555
Mo15 Mo8 3.068918 1_555
Mo15 Mo4 3.080826 1_655
Mo16 Mo23 2.464982 1_565
Mo16 P1 2.518463 1_555
Mo16 Mo19 2.556979 1_555
Mo16 Mo20 2.667802 1_555
Mo16 Mo2 2.875806 1_565
Mo16 Mo3 2.960242 1_555
Mo16 Mo6 3.068918 1_555
Mo16 Mo5 3.080826 1_565
Mo17 Mo21 2.464982 1_556
Mo17 P1 2.518463 1_555
Mo17 Mo20 2.556979 1_555
Mo17 Mo18 2.667802 1_555
Mo17 Mo4 2.960242 1_555
Mo17 Mo7 3.068918 1_555
Mo17 Mo3 3.080826 1_556
Mo18 Mo8 2.688627 1_556
Mo18 P1 2.717546 1_555
Mo18 Mo7 2.766430 1_555
Mo18 Mo4 2.889389 1_655
Mo18 Mo2 3.016206 1_555
Mo18 Mo21 3.098769 1_556
Mo19 Mo6 2.688627 1_655
Mo19 P1 2.717546 1_555
Mo19 Mo8 2.766430 1_555
Mo19 Mo5 2.889389 1_565
Mo19 Mo9 3.036027 1_555
Mo19 Mo22 3.098769 1_655
Mo20 Mo7 2.688627 1_565
Mo20 P1 2.717546 1_555
Mo20 Mo6 2.766430 1_555
Mo20 Mo9 2.809006 1_455
Mo20 Mo3 2.889389 1_556
Mo20 Mo23 3.098769 1_565
Mo21 Mo23 2.574022 1_555
Mo21 Mo22 2.574022 1_555
Mo21 Mo7 2.724175 1_554
Mo21 Mo3 2.997750 1_545
Mo21 Mo4 3.038726 1_554
Mo21 Mo8 3.109286 1_555
Mo22 Mo23 2.574022 1_555
Mo22 Mo8 2.724174 1_455
Mo22 Mo4 2.997751 1_554
Mo22 Mo5 3.038726 1_455
Mo22 Mo6 3.109286 1_555
Mo23 Mo6 2.724174 1_545
Mo23 Mo5 2.997750 1_455
Mo23 Mo3 3.038726 1_545
Mo23 Mo7 3.109286 1_555
