# generated using pymatgen
data_Sb3NF10
_symmetry_space_group_name_H-M   'P 1'
_cell_length_a   14.47882400
_cell_length_b   8.31939100
_cell_length_c   8.47093068
_cell_angle_alpha   87.51707993
_cell_angle_beta   90.00000000
_cell_angle_gamma   90.00000000
_symmetry_Int_Tables_number   1
_chemical_formula_structural   Sb3NF10
_chemical_formula_sum   'Sb12 N4 F40'
_cell_volume   1019.40799871
_cell_formula_units_Z   4
loop_
 _symmetry_equiv_pos_site_id
 _symmetry_equiv_pos_as_xyz
  1  'x, y, z'
loop_
 _atom_site_type_symbol
 _atom_site_label
 _atom_site_symmetry_multiplicity
 _atom_site_fract_x
 _atom_site_fract_y
 _atom_site_fract_z
 _atom_site_occupancy
  Sb  Sb0  1  0.97331700  0.23651400  0.80715900  1
  Sb  Sb1  1  0.47331700  0.76348600  0.69284100  1
  Sb  Sb2  1  0.02668300  0.76348600  0.19284100  1
  Sb  Sb3  1  0.52668300  0.23651400  0.30715900  1
  Sb  Sb4  1  0.24940600  0.41087800  0.08978500  1
  Sb  Sb5  1  0.74940600  0.58912200  0.41021500  1
  Sb  Sb6  1  0.75059400  0.58912200  0.91021500  1
  Sb  Sb7  1  0.25059400  0.41087800  0.58978500  1
  Sb  Sb8  1  0.03669900  0.74173800  0.69902900  1
  Sb  Sb9  1  0.53669900  0.25826200  0.80097100  1
  Sb  Sb10  1  0.96330100  0.25826200  0.30097100  1
  Sb  Sb11  1  0.46330100  0.74173800  0.19902900  1
  N  N0  1  0.24321300  0.98885500  0.37631400  1
  N  N1  1  0.74321300  0.01114500  0.12368600  1
  N  N2  1  0.75678700  0.01114500  0.62368600  1
  N  N3  1  0.25678700  0.98885500  0.87631400  1
  F  F0  1  0.16575300  0.78647500  0.68077700  1
  F  F1  1  0.66575300  0.21352500  0.81922300  1
  F  F2  1  0.83424700  0.21352500  0.31922300  1
  F  F3  1  0.33424700  0.78647500  0.18077700  1
  F  F4  1  0.16565500  0.23356800  0.56623500  1
  F  F5  1  0.66565500  0.76643200  0.93376500  1
  F  F6  1  0.83434500  0.76643200  0.43376500  1
  F  F7  1  0.33434500  0.23356800  0.06623500  1
  F  F8  1  0.14328700  0.26614200  0.11553100  1
  F  F9  1  0.64328700  0.73385800  0.38446900  1
  F  F10  1  0.85671300  0.73385800  0.88446900  1
  F  F11  1  0.35671300  0.26614200  0.61553100  1
  F  F12  1  0.13715300  0.87813500  0.13604600  1
  F  F13  1  0.63715300  0.12186500  0.36395400  1
  F  F14  1  0.86284700  0.12186500  0.86395400  1
  F  F15  1  0.36284700  0.87813500  0.63604600  1
  F  F16  1  0.22490000  0.37326500  0.83025800  1
  F  F17  1  0.72490000  0.62673500  0.66974200  1
  F  F18  1  0.77510000  0.62673500  0.16974200  1
  F  F19  1  0.27510000  0.37326500  0.33025800  1
  F  F20  1  0.10490300  0.56961300  0.23412100  1
  F  F21  1  0.60490300  0.43038700  0.26587900  1
  F  F22  1  0.89509700  0.43038700  0.76587900  1
  F  F23  1  0.39509700  0.56961300  0.73412100  1
  F  F24  1  0.07061300  0.51599100  0.64276600  1
  F  F25  1  0.57061300  0.48400900  0.85723400  1
  F  F26  1  0.92938700  0.48400900  0.35723400  1
  F  F27  1  0.42938700  0.51599100  0.14276600  1
  F  F28  1  0.05269900  0.66218200  0.92594500  1
  F  F29  1  0.55269900  0.33781800  0.57405500  1
  F  F30  1  0.94730100  0.33781800  0.07405500  1
  F  F31  1  0.44730100  0.66218200  0.42594500  1
  F  F32  1  0.03806500  0.79740800  0.43167600  1
  F  F33  1  0.53806500  0.20259200  0.06832400  1
  F  F34  1  0.96193500  0.20259200  0.56832400  1
  F  F35  1  0.46193500  0.79740800  0.93167600  1
  F  F36  1  0.02441600  0.97498300  0.79074200  1
  F  F37  1  0.52441600  0.02501700  0.70925800  1
  F  F38  1  0.97558400  0.02501700  0.20925800  1
  F  F39  1  0.47558400  0.97498300  0.29074200  1
loop_
_geom_bond_atom_site_label_1
_geom_bond_atom_site_label_2
_geom_bond_distance
_geom_bond_site_symmetry_2
F0 Sb8 1.910215 1_555
F1 Sb9 1.910215 1_555
F2 Sb10 1.910215 1_555
F3 Sb11 1.910215 1_555
F4 Sb7 1.937446 1_555
F5 Sb6 1.937446 1_555
F6 Sb5 1.937446 1_555
F7 Sb4 1.937446 1_555
F8 Sb4 1.958436 1_555
F9 Sb5 1.958436 1_555
F10 Sb6 1.958436 1_555
F11 Sb7 1.958436 1_555
F12 Sb2 1.913055 1_555
F13 Sb3 1.913055 1_555
F14 Sb0 1.913055 1_555
F15 Sb1 1.913055 1_555
F16 Sb7 2.081004 1_555
F16 Sb4 2.261976 1_556
F17 Sb6 2.081004 1_555
F17 Sb5 2.261976 1_555
F18 Sb5 2.081004 1_555
F18 Sb6 2.261976 1_554
F19 Sb4 2.081004 1_555
F19 Sb7 2.261976 1_555
F20 Sb2 1.989348 1_555
F21 Sb3 1.989348 1_555
F22 Sb0 1.989348 1_555
F23 Sb1 1.989348 1_555
F24 Sb8 2.018165 1_555
F25 Sb9 2.018165 1_555
F26 Sb10 2.018165 1_555
F27 Sb11 2.018165 1_555
F28 Sb8 2.018987 1_555
F28 Sb2 2.475631 1_556
F29 Sb9 2.018987 1_555
F29 Sb3 2.475631 1_555
F30 Sb10 2.018987 1_555
F30 Sb0 2.475631 1_554
F31 Sb11 2.018987 1_555
F31 Sb1 2.475631 1_555
F32 Sb2 2.061413 1_555
F32 Sb8 2.291944 1_555
F33 Sb3 2.061413 1_555
F33 Sb9 2.291944 1_554
F34 Sb0 2.061413 1_555
F34 Sb10 2.291944 1_555
F35 Sb1 2.061413 1_555
F35 Sb11 2.291944 1_556
F36 Sb8 2.128657 1_555
F36 Sb0 2.308019 1_465
F37 Sb9 2.128657 1_555
F37 Sb1 2.308019 1_545
F38 Sb10 2.128657 1_555
F38 Sb2 2.308019 1_645
F39 Sb11 2.128657 1_555
F39 Sb3 2.308019 1_565
