# generated using pymatgen
data_PrYNi4
_symmetry_space_group_name_H-M   'P 1'
_cell_length_a   5.15906522
_cell_length_b   5.15906522
_cell_length_c   5.15906522
_cell_angle_alpha   60.00000000
_cell_angle_beta   60.00000000
_cell_angle_gamma   60.00000000
_symmetry_Int_Tables_number   1
_chemical_formula_structural   PrYNi4
_chemical_formula_sum   'Pr1 Y1 Ni4'
_cell_volume   97.09526606
_cell_formula_units_Z   1
loop_
 _symmetry_equiv_pos_site_id
 _symmetry_equiv_pos_as_xyz
  1  'x, y, z'
loop_
 _atom_site_type_symbol
 _atom_site_label
 _atom_site_symmetry_multiplicity
 _atom_site_fract_x
 _atom_site_fract_y
 _atom_site_fract_z
 _atom_site_occupancy
  Pr  Pr0  1  0.25000000  0.25000000  0.25000000  1
  Y  Y0  1  0.00000000  0.00000000  0.00000000  1
  Ni  Ni0  1  0.62524300  0.62524300  0.12427100  1
  Ni  Ni1  1  0.62524300  0.12427100  0.62524300  1
  Ni  Ni2  1  0.12427100  0.62524300  0.62524300  1
  Ni  Ni3  1  0.62524300  0.62524300  0.62524300  1
loop_
_geom_bond_atom_site_label_1
_geom_bond_atom_site_label_2
_geom_bond_distance
_geom_bond_site_symmetry_2
Pr0 Y0 3.159269 1_556
Pr0 Y0 3.159269 1_565
Pr0 Y0 3.159269 1_555
Pr0 Y0 3.159269 1_655
Ni0 Ni2 2.574518 1_654
Ni0 Ni3 2.574518 1_554
Ni0 Ni1 2.574518 1_564
Ni0 Ni3 2.584547 1_555
Ni0 Ni1 2.584547 1_555
Ni0 Ni2 2.584547 1_555
Ni0 Y0 3.024237 1_565
Ni0 Y0 3.024237 1_655
Ni0 Y0 3.024237 1_665
Ni0 Pr0 3.025306 1_555
Ni0 Pr0 3.025306 1_655
Ni0 Pr0 3.025306 1_565
Ni1 Ni3 2.574518 1_545
Ni1 Ni2 2.574518 1_645
Ni1 Ni3 2.584547 1_555
Ni1 Ni2 2.584547 1_555
Ni1 Y0 3.024237 1_655
Ni1 Y0 3.024237 1_556
Ni1 Y0 3.024237 1_656
Ni1 Pr0 3.025306 1_555
Ni1 Pr0 3.025306 1_655
Ni1 Pr0 3.025306 1_556
Ni2 Ni3 2.574518 1_455
Ni2 Ni3 2.584547 1_555
Ni2 Y0 3.024237 1_556
Ni2 Y0 3.024237 1_566
Ni2 Y0 3.024237 1_565
Ni2 Pr0 3.025306 1_555
Ni2 Pr0 3.025306 1_556
Ni2 Pr0 3.025306 1_565
Ni3 Y0 3.024237 1_566
Ni3 Y0 3.024237 1_656
Ni3 Y0 3.024237 1_665
Ni3 Pr0 3.025306 1_655
Ni3 Pr0 3.025306 1_556
Ni3 Pr0 3.025306 1_565
