# generated using pymatgen
data_SmGd(MnNi4)2
_symmetry_space_group_name_H-M   'P 1'
_cell_length_a   3.93951300
_cell_length_b   4.98932419
_cell_length_c   8.63898020
_cell_angle_alpha   90.01371780
_cell_angle_beta   90.00000000
_cell_angle_gamma   90.00000000
_symmetry_Int_Tables_number   1
_chemical_formula_structural   SmGd(MnNi4)2
_chemical_formula_sum   'Sm1 Gd1 Mn2 Ni8'
_cell_volume   169.80353538
_cell_formula_units_Z   1
loop_
 _symmetry_equiv_pos_site_id
 _symmetry_equiv_pos_as_xyz
  1  'x, y, z'
loop_
 _atom_site_type_symbol
 _atom_site_label
 _atom_site_symmetry_multiplicity
 _atom_site_fract_x
 _atom_site_fract_y
 _atom_site_fract_z
 _atom_site_occupancy
  Sm  Sm0  1  0.00000000  0.49992900  0.49990400  1
  Gd  Gd0  1  0.00000000  0.00000700  0.99994700  1
  Mn  Mn0  1  0.00000000  0.99998200  0.33266400  1
  Mn  Mn1  1  0.00000000  0.49999700  0.83428300  1
  Ni  Ni0  1  0.00000000  0.50000300  0.16547600  1
  Ni  Ni1  1  0.00000000  0.99995600  0.66774000  1
  Ni  Ni2  1  0.50000000  0.49998100  0.00228200  1
  Ni  Ni3  1  0.50000000  0.00000000  0.50219200  1
  Ni  Ni4  1  0.50000000  0.25259400  0.24835600  1
  Ni  Ni5  1  0.50000000  0.75382400  0.74940100  1
  Ni  Ni6  1  0.50000000  0.74737000  0.24833400  1
  Ni  Ni7  1  0.50000000  0.24615800  0.74941900  1
loop_
_geom_bond_atom_site_label_1
_geom_bond_atom_site_label_2
_geom_bond_distance
_geom_bond_site_symmetry_2
Gd0 Ni1 2.869930 1_545
Gd0 Mn0 2.874336 1_546
Gd0 Ni0 2.875141 1_556
Gd0 Ni0 2.875770 1_546
Gd0 Mn1 2.875782 1_545
Gd0 Mn1 2.876290 1_555
Gd0 Ni4 3.173667 1_456
Gd0 Ni4 3.173667 1_556
Gd0 Ni5 3.173681 1_545
Gd0 Ni5 3.173681 1_445
Gd0 Ni7 3.173914 1_455
Gd0 Ni7 3.173914 1_555
Gd0 Ni6 3.174046 1_446
Gd0 Ni6 3.174046 1_546
Gd0 Ni2 3.178524 1_556
Gd0 Ni2 3.178524 1_456
Gd0 Ni2 3.178735 1_546
Gd0 Ni2 3.178735 1_446
Mn0 Ni6 2.449238 1_455
Mn0 Ni6 2.449238 1_555
Mn0 Ni4 2.449361 1_465
Mn0 Ni4 2.449361 1_565
Mn0 Ni3 2.454556 1_465
Mn0 Ni3 2.454556 1_565
Mn0 Ni0 2.882220 1_555
Mn0 Sm0 2.882307 1_565
Mn0 Ni0 2.883000 1_565
Mn0 Sm0 2.883363 1_555
Mn0 Ni1 2.894715 1_555
Mn1 Ni2 2.446697 1_556
Mn1 Ni2 2.446697 1_456
Mn1 Ni7 2.453767 1_455
Mn1 Ni7 2.453767 1_555
Mn1 Ni5 2.453964 1_455
Mn1 Ni5 2.453964 1_555
Mn1 Ni0 2.861170 1_556
Mn1 Ni1 2.879701 1_545
Mn1 Ni1 2.879943 1_555
Mn1 Sm0 2.888694 1_555
Ni0 Ni2 2.422305 1_555
Ni0 Ni2 2.422305 1_455
Ni0 Ni6 2.432105 1_555
Ni0 Ni6 2.432105 1_455
Ni0 Ni4 2.432441 1_455
Ni0 Ni4 2.432441 1_555
Ni0 Sm0 2.889117 1_555
Ni1 Ni5 2.426129 1_455
Ni1 Ni5 2.426129 1_555
Ni1 Ni7 2.426180 1_465
Ni1 Ni7 2.426180 1_565
Ni1 Ni3 2.434197 1_565
Ni1 Ni3 2.434197 1_465
Ni1 Sm0 2.885235 1_555
Ni1 Sm0 2.885602 1_565
Ni2 Ni6 2.457761 1_555
Ni2 Ni4 2.458431 1_555
Ni2 Ni7 2.524758 1_554
Ni2 Ni5 2.525467 1_554
Ni3 Ni7 2.463477 1_555
Ni3 Ni5 2.463897 1_545
Ni3 Ni6 2.529228 1_545
Ni3 Ni4 2.529497 1_555
Ni3 Sm0 3.178353 1_655
Ni3 Sm0 3.178353 1_555
Ni3 Sm0 3.178901 1_545
Ni3 Sm0 3.178901 1_645
Ni4 Ni6 2.468598 1_555
Ni4 Ni6 2.520726 1_545
Ni4 Sm0 3.181814 1_555
Ni4 Sm0 3.181814 1_655
Ni5 Ni7 2.456414 1_565
Ni5 Ni7 2.532910 1_555
Ni5 Sm0 3.182620 1_655
Ni5 Sm0 3.182620 1_555
Ni6 Sm0 3.182553 1_555
Ni6 Sm0 3.182553 1_655
Ni7 Sm0 3.182890 1_655
Ni7 Sm0 3.182890 1_555
