# generated using pymatgen
data_TmAu
_symmetry_space_group_name_H-M   'P 1'
_cell_length_a   5.68945842
_cell_length_b   5.68945842
_cell_length_c   4.58772736
_cell_angle_alpha   90.00000000
_cell_angle_beta   90.00000000
_cell_angle_gamma   142.58662155
_symmetry_Int_Tables_number   1
_chemical_formula_structural   TmAu
_chemical_formula_sum   'Tm2 Au2'
_cell_volume   90.22555693
_cell_formula_units_Z   2
loop_
 _symmetry_equiv_pos_site_id
 _symmetry_equiv_pos_as_xyz
  1  'x, y, z'
loop_
 _atom_site_type_symbol
 _atom_site_label
 _atom_site_symmetry_multiplicity
 _atom_site_fract_x
 _atom_site_fract_y
 _atom_site_fract_z
 _atom_site_occupancy
  Tm  Tm0  1  0.86086846  0.13913154  0.75000000  1
  Tm  Tm1  1  0.13913154  0.86086846  0.25000000  1
  Au  Au0  1  0.58880753  0.41119247  0.75000000  1
  Au  Au1  1  0.41119247  0.58880753  0.25000000  1
loop_
_geom_bond_atom_site_label_1
_geom_bond_atom_site_label_2
_geom_bond_distance
_geom_bond_site_symmetry_2
Au0 Tm0 2.932219 1_555
Au0 Tm1 2.980885 1_545
Au0 Tm1 2.980885 1_656
Au0 Tm1 2.980885 1_655
Au0 Tm1 2.980885 1_546
Au0 Au1 2.987700 1_555
Au0 Au1 2.987700 1_556
Au0 Tm0 3.060225 1_565
Au0 Tm0 3.060225 1_455
Au1 Tm1 2.932219 1_555
Au1 Tm0 2.980885 1_455
Au1 Tm0 2.980885 1_565
Au1 Tm0 2.980885 1_564
Au1 Tm0 2.980885 1_454
Au1 Tm1 3.060225 1_655
Au1 Tm1 3.060225 1_545
