# generated using pymatgen
data_PrCu3(RuO3)4
_symmetry_space_group_name_H-M   'P 1'
_cell_length_a   6.54051830
_cell_length_b   6.54051830
_cell_length_c   6.54051830
_cell_angle_alpha   109.47122063
_cell_angle_beta   109.47122063
_cell_angle_gamma   109.47122063
_symmetry_Int_Tables_number   1
_chemical_formula_structural   PrCu3(RuO3)4
_chemical_formula_sum   'Pr1 Cu3 Ru4 O12'
_cell_volume   215.38457829
_cell_formula_units_Z   1
loop_
 _symmetry_equiv_pos_site_id
 _symmetry_equiv_pos_as_xyz
  1  'x, y, z'
loop_
 _atom_site_type_symbol
 _atom_site_label
 _atom_site_symmetry_multiplicity
 _atom_site_fract_x
 _atom_site_fract_y
 _atom_site_fract_z
 _atom_site_occupancy
  Pr  Pr0  1  0.00000000  0.00000000  0.00000000  1
  Cu  Cu0  1  0.50000000  0.00000000  0.50000000  1
  Cu  Cu1  1  0.00000000  0.50000000  0.50000000  1
  Cu  Cu2  1  0.50000000  0.50000000  0.00000000  1
  Ru  Ru0  1  0.00000000  0.00000000  0.50000000  1
  Ru  Ru1  1  0.50000000  0.00000000  0.00000000  1
  Ru  Ru2  1  0.00000000  0.50000000  0.00000000  1
  Ru  Ru3  1  0.50000000  0.50000000  0.50000000  1
  O  O0  1  0.82873300  0.69503700  0.52377000  1
  O  O1  1  0.82873300  0.30496300  0.13369600  1
  O  O2  1  0.17126700  0.69503700  0.86630400  1
  O  O3  1  0.17126700  0.30496300  0.47623000  1
  O  O4  1  0.69503700  0.52377000  0.82873300  1
  O  O5  1  0.30496300  0.13369600  0.82873300  1
  O  O6  1  0.69503700  0.86630400  0.17126700  1
  O  O7  1  0.30496300  0.47623000  0.17126700  1
  O  O8  1  0.52377000  0.82873300  0.69503700  1
  O  O9  1  0.13369600  0.82873300  0.30496300  1
  O  O10  1  0.86630400  0.17126700  0.69503700  1
  O  O11  1  0.47623000  0.17126700  0.30496300  1
loop_
_geom_bond_atom_site_label_1
_geom_bond_atom_site_label_2
_geom_bond_distance
_geom_bond_site_symmetry_2
Cu0 O8 1.960292 1_545
Cu0 O10 1.960292 1_555
Cu0 O9 1.960292 1_545
Cu0 O11 1.960292 1_555
Cu1 O1 1.960292 1_455
Cu1 O0 1.960292 1_455
Cu1 O2 1.960292 1_555
Cu1 O3 1.960292 1_555
Cu2 O6 1.960292 1_555
Cu2 O4 1.960292 1_554
Cu2 O5 1.960292 1_554
Cu2 O7 1.960292 1_555
O0 Ru0 2.022559 1_665
O0 Ru3 2.022559 1_555
O0 Pr0 2.641536 1_666
O1 Ru2 2.022559 1_655
O1 Ru1 2.022559 1_555
O1 Pr0 2.641536 1_655
O2 Ru1 2.022559 1_566
O2 Ru2 2.022559 1_556
O2 Pr0 2.641536 1_566
O3 Ru3 2.022559 1_555
O3 Ru0 2.022559 1_555
O3 Pr0 2.641536 1_555
O4 Ru2 2.022559 1_656
O4 Ru3 2.022559 1_555
O4 Pr0 2.641536 1_666
O5 Ru1 2.022559 1_556
O5 Ru0 2.022559 1_555
O5 Pr0 2.641536 1_556
O6 Ru0 2.022559 1_665
O6 Ru1 2.022559 1_565
O6 Pr0 2.641536 1_665
O7 Ru3 2.022559 1_555
O7 Ru2 2.022559 1_555
O7 Pr0 2.641536 1_555
O8 Ru1 2.022559 1_566
O8 Ru3 2.022559 1_555
O8 Pr0 2.641536 1_666
O9 Ru0 2.022559 1_565
O9 Ru2 2.022559 1_555
O9 Pr0 2.641536 1_565
O10 Ru2 2.022559 1_656
O10 Ru0 2.022559 1_655
O10 Pr0 2.641536 1_656
O11 Ru1 2.022559 1_555
O11 Ru3 2.022559 1_555
O11 Pr0 2.641536 1_555
