# generated using pymatgen
data_SnPb7N6
_symmetry_space_group_name_H-M   'P 1'
_cell_length_a   12.75414900
_cell_length_b   7.33597800
_cell_length_c   13.16315700
_cell_angle_alpha   90.00000000
_cell_angle_beta   90.00000000
_cell_angle_gamma   90.00000000
_symmetry_Int_Tables_number   1
_chemical_formula_structural   SnPb7N6
_chemical_formula_sum   'Sn4 Pb28 N24'
_cell_volume   1231.59968122
_cell_formula_units_Z   4
loop_
 _symmetry_equiv_pos_site_id
 _symmetry_equiv_pos_as_xyz
  1  'x, y, z'
loop_
 _atom_site_type_symbol
 _atom_site_label
 _atom_site_symmetry_multiplicity
 _atom_site_fract_x
 _atom_site_fract_y
 _atom_site_fract_z
 _atom_site_occupancy
  Sn  Sn0  1  0.00000000  0.85411800  0.75000000  1
  Sn  Sn1  1  0.50000000  0.64588200  0.25000000  1
  Sn  Sn2  1  0.00000000  0.14588200  0.25000000  1
  Sn  Sn3  1  0.50000000  0.35411800  0.75000000  1
  Pb  Pb0  1  0.00221700  0.76070500  0.02326700  1
  Pb  Pb1  1  0.49778300  0.73929500  0.52326700  1
  Pb  Pb2  1  0.50221700  0.73929500  0.97673300  1
  Pb  Pb3  1  0.99778300  0.76070500  0.47673300  1
  Pb  Pb4  1  0.99778300  0.23929500  0.97673300  1
  Pb  Pb5  1  0.50221700  0.26070500  0.47673300  1
  Pb  Pb6  1  0.49778300  0.26070500  0.02326700  1
  Pb  Pb7  1  0.00221700  0.23929500  0.52326700  1
  Pb  Pb8  1  0.22048800  0.80510200  0.62031200  1
  Pb  Pb9  1  0.27951200  0.69489800  0.12031200  1
  Pb  Pb10  1  0.72048800  0.69489800  0.37968800  1
  Pb  Pb11  1  0.77951200  0.80510200  0.87968800  1
  Pb  Pb12  1  0.77951200  0.19489800  0.37968800  1
  Pb  Pb13  1  0.72048800  0.30510200  0.87968800  1
  Pb  Pb14  1  0.27951200  0.30510200  0.62031200  1
  Pb  Pb15  1  0.22048800  0.19489800  0.12031200  1
  Pb  Pb16  1  0.26060000  0.53242400  0.86019000  1
  Pb  Pb17  1  0.23940000  0.96757600  0.36019000  1
  Pb  Pb18  1  0.76060000  0.96757600  0.13981000  1
  Pb  Pb19  1  0.73940000  0.53242400  0.63981000  1
  Pb  Pb20  1  0.73940000  0.46757600  0.13981000  1
  Pb  Pb21  1  0.76060000  0.03242400  0.63981000  1
  Pb  Pb22  1  0.23940000  0.03242400  0.86019000  1
  Pb  Pb23  1  0.26060000  0.46757600  0.36019000  1
  Pb  Pb24  1  0.00000000  0.42065400  0.75000000  1
  Pb  Pb25  1  0.50000000  0.07934600  0.25000000  1
  Pb  Pb26  1  0.00000000  0.57934600  0.25000000  1
  Pb  Pb27  1  0.50000000  0.92065400  0.75000000  1
  N  N0  1  0.11967600  0.64926900  0.75671900  1
  N  N1  1  0.38032400  0.85073100  0.25671900  1
  N  N2  1  0.61967600  0.85073100  0.24328100  1
  N  N3  1  0.88032400  0.64926900  0.74328100  1
  N  N4  1  0.88032400  0.35073100  0.24328100  1
  N  N5  1  0.61967600  0.14926900  0.74328100  1
  N  N6  1  0.38032400  0.14926900  0.75671900  1
  N  N7  1  0.11967600  0.35073100  0.25671900  1
  N  N8  1  0.17961400  0.70787600  0.45880100  1
  N  N9  1  0.32038600  0.79212400  0.95880100  1
  N  N10  1  0.67961400  0.79212400  0.54119900  1
  N  N11  1  0.82038600  0.70787600  0.04119900  1
  N  N12  1  0.82038600  0.29212400  0.54119900  1
  N  N13  1  0.67961400  0.20787600  0.04119900  1
  N  N14  1  0.32038600  0.20787600  0.45880100  1
  N  N15  1  0.17961400  0.29212400  0.95880100  1
  N  N16  1  0.45412800  0.45942700  0.60996700  1
  N  N17  1  0.04587200  0.04057300  0.10996700  1
  N  N18  1  0.95412800  0.04057300  0.39003300  1
  N  N19  1  0.54587200  0.45942700  0.89003300  1
  N  N20  1  0.54587200  0.54057300  0.39003300  1
  N  N21  1  0.95412800  0.95942700  0.89003300  1
  N  N22  1  0.04587200  0.95942700  0.60996700  1
  N  N23  1  0.45412800  0.54057300  0.10996700  1
loop_
_geom_bond_atom_site_label_1
_geom_bond_atom_site_label_2
_geom_bond_distance
_geom_bond_site_symmetry_2
N0 Sn0 2.143811 1_555
N0 Pb24 2.269433 1_555
N0 Pb16 2.412535 1_555
N0 Pb8 2.486780 1_555
N1 Sn1 2.143811 1_555
N1 Pb25 2.269433 1_565
N1 Pb17 2.412535 1_555
N1 Pb9 2.486780 1_555
N2 Sn1 2.143811 1_555
N2 Pb25 2.269433 1_565
N2 Pb18 2.412535 1_555
N2 Pb10 2.486780 1_555
N3 Sn0 2.143811 1_655
N3 Pb24 2.269433 1_655
N3 Pb19 2.412535 1_555
N3 Pb11 2.486780 1_555
N4 Sn2 2.143811 1_655
N4 Pb26 2.269433 1_655
N4 Pb20 2.412535 1_555
N4 Pb12 2.486780 1_555
N5 Sn3 2.143811 1_555
N5 Pb27 2.269433 1_545
N5 Pb21 2.412535 1_555
N5 Pb13 2.486780 1_555
N6 Sn3 2.143811 1_555
N6 Pb27 2.269433 1_545
N6 Pb22 2.412535 1_555
N6 Pb14 2.486780 1_555
N7 Sn2 2.143811 1_555
N7 Pb26 2.269433 1_555
N7 Pb23 2.412535 1_555
N7 Pb15 2.486780 1_555
N8 Pb8 2.302247 1_555
N8 Pb3 2.363078 1_455
N8 Pb23 2.420614 1_555
N8 Pb17 2.428154 1_555
N9 Pb9 2.302247 1_556
N9 Pb2 2.363078 1_555
N9 Pb22 2.420614 1_565
N9 Pb16 2.428154 1_555
N10 Pb10 2.302247 1_555
N10 Pb1 2.363078 1_555
N10 Pb21 2.420614 1_565
N10 Pb19 2.428154 1_555
N11 Pb11 2.302247 1_554
N11 Pb0 2.363078 1_655
N11 Pb20 2.420614 1_555
N11 Pb18 2.428154 1_555
N12 Pb12 2.302247 1_555
N12 Pb7 2.363078 1_655
N12 Pb19 2.420614 1_555
N12 Pb21 2.428154 1_555
N13 Pb13 2.302247 1_554
N13 Pb6 2.363078 1_555
N13 Pb18 2.420614 1_545
N13 Pb20 2.428154 1_555
N14 Pb14 2.302247 1_555
N14 Pb5 2.363078 1_555
N14 Pb17 2.420614 1_545
N14 Pb23 2.428154 1_555
N15 Pb15 2.302247 1_556
N15 Pb4 2.363078 1_455
N15 Pb16 2.420614 1_555
N15 Pb22 2.428154 1_555
N16 Sn3 2.082495 1_555
N16 Pb5 2.361602 1_555
N16 Pb1 2.414061 1_555
N16 Pb14 2.502025 1_555
N17 Sn2 2.082495 1_555
N17 Pb4 2.361602 1_454
N17 Pb0 2.414061 1_545
N17 Pb15 2.502025 1_555
N18 Sn2 2.082495 1_655
N18 Pb7 2.361602 1_655
N18 Pb3 2.414061 1_545
N18 Pb12 2.502025 1_555
N19 Sn3 2.082495 1_555
N19 Pb6 2.361602 1_556
N19 Pb2 2.414061 1_555
N19 Pb13 2.502025 1_555
N20 Sn1 2.082495 1_555
N20 Pb1 2.361602 1_555
N20 Pb5 2.414061 1_555
N20 Pb10 2.502025 1_555
N21 Sn0 2.082495 1_655
N21 Pb0 2.361602 1_656
N21 Pb4 2.414061 1_565
N21 Pb11 2.502025 1_555
N22 Sn0 2.082495 1_555
N22 Pb3 2.361602 1_455
N22 Pb7 2.414061 1_565
N22 Pb8 2.502025 1_555
N23 Sn1 2.082495 1_555
N23 Pb2 2.361602 1_554
N23 Pb6 2.414061 1_555
N23 Pb9 2.502025 1_555
