# generated using pymatgen
data_Li3MnV(PO4)3
_symmetry_space_group_name_H-M   'P 1'
_cell_length_a   8.55907700
_cell_length_b   8.84110550
_cell_length_c   12.38573652
_cell_angle_alpha   89.84180731
_cell_angle_beta   87.53071853
_cell_angle_gamma   89.57388283
_symmetry_Int_Tables_number   1
_chemical_formula_structural   Li3MnV(PO4)3
_chemical_formula_sum   'Li12 Mn4 V4 P12 O48'
_cell_volume   936.35081295
_cell_formula_units_Z   4
loop_
 _symmetry_equiv_pos_site_id
 _symmetry_equiv_pos_as_xyz
  1  'x, y, z'
loop_
 _atom_site_type_symbol
 _atom_site_label
 _atom_site_symmetry_multiplicity
 _atom_site_fract_x
 _atom_site_fract_y
 _atom_site_fract_z
 _atom_site_occupancy
  Li  Li0  1  0.00759300  0.99839700  0.00132400  1
  Li  Li1  1  0.98744400  0.10975600  0.24681600  1
  Li  Li2  1  0.00167900  0.99657400  0.50575200  1
  Li  Li3  1  0.02509600  0.89335200  0.74237200  1
  Li  Li4  1  0.28168500  0.81144600  0.04721700  1
  Li  Li5  1  0.27237300  0.19154500  0.56198600  1
  Li  Li6  1  0.51023900  0.51540000  0.00342400  1
  Li  Li7  1  0.50514600  0.40493300  0.26499000  1
  Li  Li8  1  0.50926200  0.49376900  0.50305100  1
  Li  Li9  1  0.50273000  0.59730700  0.75721700  1
  Li  Li10  1  0.71087700  0.79943600  0.44379000  1
  Li  Li11  1  0.73695900  0.19236800  0.93736700  1
  Mn  Mn0  1  0.28853200  0.00570800  0.85496900  1
  Mn  Mn1  1  0.71479000  0.99764300  0.64318800  1
  Mn  Mn2  1  0.79203200  0.49962800  0.35428500  1
  Mn  Mn3  1  0.79083100  0.49820300  0.85437400  1
  V  V0  1  0.21109600  0.50063100  0.14457600  1
  V  V1  1  0.21633500  0.49940000  0.64393500  1
  V  V2  1  0.28478700  0.99752300  0.35529900  1
  V  V3  1  0.71488200  0.00278200  0.14165000  1
  P  P0  1  0.99721800  0.80459100  0.25011100  1
  P  P1  1  0.00958700  0.19575000  0.74869000  1
  P  P2  1  0.16491200  0.35457200  0.39579900  1
  P  P3  1  0.15501300  0.64362400  0.89292300  1
  P  P4  1  0.34555800  0.14725700  0.10590700  1
  P  P5  1  0.34610800  0.84679200  0.59667100  1
  P  P6  1  0.49519700  0.71079400  0.24754800  1
  P  P7  1  0.50854300  0.29051000  0.74791400  1
  P  P8  1  0.64851800  0.14125500  0.39797700  1
  P  P9  1  0.64353200  0.85889600  0.89715000  1
  P  P10  1  0.83793000  0.35972300  0.10505900  1
  P  P11  1  0.83927500  0.64246000  0.60957300  1
  O  O0  1  0.00237500  0.42198700  0.11445600  1
  O  O1  1  0.00587800  0.58190600  0.60983700  1
  O  O2  1  0.07167800  0.91942000  0.33123200  1
  O  O3  1  0.08275400  0.09180400  0.83861800  1
  O  O4  1  0.12103400  0.70424600  0.19108800  1
  O  O5  1  0.13451500  0.29644300  0.69158900  1
  O  O6  1  0.16225000  0.17531500  0.41260500  1
  O  O7  1  0.14082000  0.82088400  0.90390400  1
  O  O8  1  0.26026600  0.40362300  0.29315500  1
  O  O9  1  0.24931900  0.05047300  0.02871600  1
  O  O10  1  0.25829900  0.40545100  0.49459800  1
  O  O11  1  0.25257800  0.59567000  0.79034600  1
  O  O12  1  0.24888800  0.93005800  0.50795000  1
  O  O13  1  0.27232200  0.10540000  0.22014800  1
  O  O14  1  0.24938600  0.59276600  0.99153400  1
  O  O15  1  0.26358600  0.90040200  0.70288600  1
  O  O16  1  0.33121600  0.31958700  0.08507000  1
  O  O17  1  0.33769000  0.67257600  0.58122800  1
  O  O18  1  0.36504600  0.81422400  0.30225100  1
  O  O19  1  0.38744200  0.19462700  0.81040100  1
  O  O20  1  0.42541200  0.60466100  0.16113000  1
  O  O21  1  0.43744800  0.40208600  0.66471800  1
  O  O22  1  0.47739000  0.08019800  0.40206000  1
  O  O23  1  0.46654100  0.90157900  0.90631800  1
  O  O24  1  0.52168400  0.11112000  0.09879300  1
  O  O25  1  0.51946800  0.88593700  0.58674100  1
  O  O26  1  0.55886900  0.61328400  0.33923800  1
  O  O27  1  0.58105400  0.39379300  0.83590200  1
  O  O28  1  0.61329400  0.81125600  0.18745700  1
  O  O29  1  0.62733200  0.19246700  0.68264500  1
  O  O30  1  0.63254300  0.31309500  0.41258900  1
  O  O31  1  0.64253600  0.68653500  0.91505300  1
  O  O32  1  0.73482400  0.09707300  0.28959800  1
  O  O33  1  0.74976000  0.41395900  0.00299100  1
  O  O34  1  0.72140700  0.90857100  0.78790700  1
  O  O35  1  0.74600600  0.05581500  0.48394700  1
  O  O36  1  0.73098500  0.40211700  0.20274300  1
  O  O37  1  0.73880800  0.59232200  0.51587100  1
  O  O38  1  0.73960400  0.94809400  0.98070300  1
  O  O39  1  0.74712500  0.59770300  0.71583900  1
  O  O40  1  0.85739700  0.18328300  0.08919200  1
  O  O41  1  0.85549100  0.82111500  0.59794000  1
  O  O42  1  0.87072100  0.72306200  0.31684300  1
  O  O43  1  0.87859800  0.27961300  0.81130900  1
  O  O44  1  0.93269400  0.91233600  0.16043600  1
  O  O45  1  0.95447100  0.08449100  0.66171400  1
  O  O46  1  0.99644600  0.40265500  0.39431400  1
  O  O47  1  0.98899000  0.58289100  0.89149400  1
loop_
_geom_bond_atom_site_label_1
_geom_bond_atom_site_label_2
_geom_bond_distance
_geom_bond_site_symmetry_2
Li0 O9 2.164060 1_565
Li0 O44 2.182600 1_455
Li0 O3 2.245884 1_564
Li0 O7 2.254893 1_554
Li0 O40 2.316668 1_465
Li0 O38 2.364432 1_454
Li1 O44 2.115745 1_545
Li1 O2 2.117054 1_645
Li1 O32 2.207485 1_555
Li1 O40 2.375382 1_555
Li1 O13 2.446453 1_655
Li2 O45 2.106010 1_465
Li2 O12 2.193147 1_555
Li2 O35 2.273570 1_465
Li2 O41 2.274137 1_455
Li2 O2 2.321004 1_555
Li2 O6 2.366998 1_565
Li3 O45 2.060736 1_465
Li3 O15 2.079781 1_555
Li3 O3 2.195018 1_565
Li3 O7 2.355541 1_555
Li3 O41 2.441151 1_455
Li3 O34 2.638452 1_455
Li4 O14 2.078882 1_554
Li4 O9 2.142246 1_565
Li4 O7 2.189398 1_554
Li4 O4 2.400671 1_555
Li4 O23 2.440700 1_554
Li5 O10 2.069835 1_555
Li5 O6 2.118007 1_555
Li5 O5 2.158204 1_555
Li5 O12 2.420735 1_545
Li6 O31 2.163098 1_554
Li6 O20 2.200706 1_555
Li6 O33 2.231350 1_555
Li6 O14 2.340808 1_554
Li6 O27 2.392216 1_554
Li6 O16 2.502761 1_555
Li7 O36 2.049972 1_555
Li7 O8 2.110013 1_555
Li7 O26 2.123365 1_555
Li7 O20 2.298652 1_555
Li7 O30 2.310988 1_555
Li8 O37 2.167387 1_555
Li8 O30 2.191635 1_555
Li8 O21 2.221870 1_555
Li8 O10 2.297691 1_555
Li8 O26 2.309544 1_555
Li8 O17 2.333354 1_555
Li9 O39 2.132135 1_555
Li9 O27 2.159934 1_555
Li9 O11 2.162750 1_555
Li9 O21 2.164291 1_555
Li9 O31 2.469821 1_555
Li10 O37 2.051839 1_555
Li10 O42 2.146316 1_555
Li10 O41 2.328788 1_555
Li10 O35 2.346240 1_565
Li10 O25 2.478426 1_555
Li10 O26 2.503407 1_555
Li11 O43 2.084832 1_555
Li11 O33 2.128478 1_556
Li11 O40 2.184077 1_556
Li11 O38 2.224102 1_545
Li11 O27 2.574507 1_555
Mn0 O23 1.905979 1_545
Mn0 O3 1.931949 1_555
Mn0 O19 1.945977 1_555
Mn0 O15 2.123172 1_545
Mn0 O7 2.143618 1_545
Mn0 O9 2.200184 1_556
Mn1 O29 1.928727 1_565
Mn1 O34 1.958706 1_555
Mn1 O41 2.029498 1_555
Mn1 O35 2.043762 1_565
Mn1 O25 2.094773 1_555
Mn1 O45 2.217120 1_565
Mn2 O46 2.022875 1_555
Mn2 O42 2.135113 1_555
Mn2 O36 2.153916 1_555
Mn2 O37 2.193063 1_555
Mn2 O26 2.242385 1_555
Mn2 O30 2.246467 1_555
Mn3 O47 1.933023 1_555
Mn3 O39 1.974852 1_555
Mn3 O33 2.001792 1_556
Mn3 O27 2.046823 1_555
Mn3 O43 2.129141 1_555
Mn3 O31 2.200361 1_555
O0 P10 1.524343 1_455
O0 V0 1.972659 1_555
O1 P11 1.519555 1_455
O1 V1 1.999876 1_555
O2 P0 1.586432 1_455
O2 V2 1.989831 1_555
O3 P1 1.588468 1_555
O4 P0 1.538633 1_455
O4 V0 2.028190 1_555
O5 P1 1.543231 1_555
O5 V1 2.008922 1_555
O6 P2 1.598074 1_555
O6 V2 1.998016 1_545
O7 P3 1.576773 1_555
O8 P2 1.543770 1_555
O8 V0 2.086121 1_555
O9 P4 1.551651 1_555
O10 P2 1.559276 1_555
O10 V1 2.046198 1_555
O11 P3 1.548393 1_555
O11 V1 2.042064 1_555
O12 P5 1.583379 1_555
O12 V2 1.992824 1_555
O13 P4 1.567197 1_555
O13 V2 1.930848 1_545
O14 P3 1.556582 1_555
O14 V0 2.075070 1_556
O15 P5 1.540324 1_555
O16 P4 1.549442 1_555
O16 V0 2.019650 1_555
O17 P5 1.555201 1_555
O17 V1 1.993447 1_555
O18 P6 1.568253 1_555
O18 V2 1.865544 1_555
O19 P7 1.527184 1_555
O20 P6 1.565839 1_555
O20 V0 2.076375 1_555
O21 P7 1.563547 1_555
O21 V1 2.098730 1_555
O22 P8 1.563496 1_555
O22 V2 1.920886 1_545
O23 P9 1.557906 1_555
O24 P4 1.537488 1_555
O24 V3 1.995707 1_555
O25 P5 1.525859 1_555
O26 P6 1.539752 1_555
O27 P7 1.574438 1_555
O28 P6 1.519680 1_555
O28 V3 1.979716 1_565
O29 P7 1.535754 1_555
O30 P8 1.534889 1_555
O31 P9 1.539338 1_555
O32 P8 1.553491 1_555
O32 V3 2.029640 1_555
O33 P10 1.571965 1_555
O34 P9 1.546374 1_555
O35 P8 1.569517 1_555
O36 P10 1.531062 1_555
O37 P11 1.541866 1_555
O38 P9 1.567318 1_555
O38 V3 2.054223 1_566
O39 P11 1.556698 1_555
O40 P10 1.579479 1_555
O40 V3 2.100395 1_555
O41 P11 1.592215 1_555
O42 P0 1.518601 1_555
O43 P1 1.524505 1_655
O44 P0 1.576464 1_555
O44 V3 2.045298 1_565
O45 P1 1.551499 1_655
O46 P2 1.501097 1_655
O47 P3 1.523629 1_655
