# generated using pymatgen
data_Y2ZnHg
_symmetry_space_group_name_H-M   'P 1'
_cell_length_a   5.15044274
_cell_length_b   5.15044274
_cell_length_c   5.15044274
_cell_angle_alpha   60.00000000
_cell_angle_beta   60.00000000
_cell_angle_gamma   60.00000000
_symmetry_Int_Tables_number   1
_chemical_formula_structural   Y2ZnHg
_chemical_formula_sum   'Y2 Zn1 Hg1'
_cell_volume   96.60924605
_cell_formula_units_Z   1
loop_
 _symmetry_equiv_pos_site_id
 _symmetry_equiv_pos_as_xyz
  1  'x, y, z'
loop_
 _atom_site_type_symbol
 _atom_site_label
 _atom_site_symmetry_multiplicity
 _atom_site_fract_x
 _atom_site_fract_y
 _atom_site_fract_z
 _atom_site_occupancy
  Y  Y0  1  0.25000000  0.25000000  0.25000000  1
  Y  Y1  1  0.75000000  0.75000000  0.75000000  1
  Zn  Zn0  1  0.00000000  -0.00000000  0.00000000  1
  Hg  Hg0  1  0.50000000  0.50000000  0.50000000  1
loop_
_geom_bond_atom_site_label_1
_geom_bond_atom_site_label_2
_geom_bond_distance
_geom_bond_site_symmetry_2
Y0 Zn0 3.153989 1_555
Y0 Zn0 3.153989 1_556
Y0 Zn0 3.153989 1_565
Y0 Zn0 3.153989 1_655
Y1 Zn0 3.153989 1_566
Y1 Zn0 3.153989 1_665
Y1 Zn0 3.153989 1_666
Y1 Zn0 3.153989 1_656
Hg0 Y1 3.153989 1_455
Hg0 Y0 3.153989 1_555
Hg0 Y0 3.153989 1_565
Hg0 Y0 3.153989 1_655
Hg0 Y1 3.153989 1_545
Hg0 Y0 3.153989 1_556
Hg0 Y1 3.153989 1_555
Hg0 Y1 3.153989 1_554
