# generated using pymatgen
data_CsLaMg14O16
_symmetry_space_group_name_H-M   'P 1'
_cell_length_a   8.94276467
_cell_length_b   8.94276467
_cell_length_c   4.60386710
_cell_angle_alpha   90.00000000
_cell_angle_beta   90.00000000
_cell_angle_gamma   90.00000000
_symmetry_Int_Tables_number   1
_chemical_formula_structural   CsLaMg14O16
_chemical_formula_sum   'Cs1 La1 Mg14 O16'
_cell_volume   368.18524748
_cell_formula_units_Z   1
loop_
 _symmetry_equiv_pos_site_id
 _symmetry_equiv_pos_as_xyz
  1  'x, y, z'
loop_
 _atom_site_type_symbol
 _atom_site_label
 _atom_site_symmetry_multiplicity
 _atom_site_fract_x
 _atom_site_fract_y
 _atom_site_fract_z
 _atom_site_occupancy
  Cs  Cs0  1  0.50000000  0.50000000  0.00000000  1
  La  La0  1  -0.00000000  -0.00000000  0.00000000  1
  Mg  Mg0  1  -0.00000000  0.50000000  0.00000000  1
  Mg  Mg1  1  0.50000000  -0.00000000  0.00000000  1
  Mg  Mg2  1  -0.00000000  0.26758655  0.50000000  1
  Mg  Mg3  1  -0.00000000  0.73241345  0.50000000  1
  Mg  Mg4  1  0.50000000  0.24188542  0.50000000  1
  Mg  Mg5  1  0.50000000  0.75811458  0.50000000  1
  Mg  Mg6  1  0.26758655  -0.00000000  0.50000000  1
  Mg  Mg7  1  0.24188542  0.50000000  0.50000000  1
  Mg  Mg8  1  0.73241345  -0.00000000  0.50000000  1
  Mg  Mg9  1  0.75811458  0.50000000  0.50000000  1
  Mg  Mg10  1  0.25630791  0.25630791  0.00000000  1
  Mg  Mg11  1  0.25630791  0.74369209  -0.00000000  1
  Mg  Mg12  1  0.74369209  0.25630791  0.00000000  1
  Mg  Mg13  1  0.74369209  0.74369209  0.00000000  1
  O  O0  1  0.26262820  -0.00000000  0.00000000  1
  O  O1  1  0.21471655  0.50000000  0.00000000  1
  O  O2  1  0.73737180  -0.00000000  -0.00000000  1
  O  O3  1  0.78528345  0.50000000  -0.00000000  1
  O  O4  1  0.24841565  0.24841565  0.50000000  1
  O  O5  1  0.24841565  0.75158435  0.50000000  1
  O  O6  1  0.75158435  0.24841565  0.50000000  1
  O  O7  1  0.75158435  0.75158435  0.50000000  1
  O  O8  1  -0.00000000  -0.00000000  0.50000000  1
  O  O9  1  -0.00000000  0.50000000  0.50000000  1
  O  O10  1  0.50000000  -0.00000000  0.50000000  1
  O  O11  1  0.50000000  0.50000000  0.50000000  1
  O  O12  1  -0.00000000  0.26262820  -0.00000000  1
  O  O13  1  -0.00000000  0.73737180  -0.00000000  1
  O  O14  1  0.50000000  0.21471655  0.00000000  1
  O  O15  1  0.50000000  0.78528345  -0.00000000  1
loop_
_geom_bond_atom_site_label_1
_geom_bond_atom_site_label_2
_geom_bond_distance
_geom_bond_site_symmetry_2
Cs0 O11 2.301934 1_554
Cs0 O11 2.301934 1_555
Cs0 O3 2.551223 1_555
Cs0 O1 2.551223 1_555
Cs0 O15 2.551223 1_555
Cs0 O14 2.551223 1_555
La0 O8 2.301934 1_554
La0 O8 2.301934 1_555
La0 O13 2.348622 1_545
La0 O12 2.348622 1_555
La0 O0 2.348622 1_555
La0 O2 2.348622 1_455
Mg0 O3 1.920160 1_455
Mg0 O1 1.920160 1_555
Mg0 O12 2.122760 1_555
Mg0 O13 2.122760 1_555
Mg0 O9 2.301934 1_555
Mg0 O9 2.301934 1_554
Mg1 O14 1.920160 1_555
Mg1 O15 1.920160 1_545
Mg1 O2 2.122760 1_555
Mg1 O0 2.122760 1_555
Mg1 O10 2.301934 1_555
Mg1 O10 2.301934 1_554
Mg2 O9 2.078419 1_555
Mg2 O4 2.228128 1_555
Mg2 O6 2.228128 1_455
Mg2 O12 2.302361 1_556
Mg2 O12 2.302361 1_555
Mg2 O8 2.392964 1_555
Mg3 O9 2.078419 1_555
Mg3 O5 2.228128 1_555
Mg3 O7 2.228128 1_455
Mg3 O13 2.302361 1_555
Mg3 O13 2.302361 1_556
Mg3 O8 2.392964 1_565
Mg4 O10 2.163124 1_555
Mg4 O4 2.250617 1_555
Mg4 O6 2.250617 1_555
Mg4 O11 2.308258 1_555
Mg4 O14 2.314720 1_556
Mg4 O14 2.314720 1_555
Mg5 O10 2.163124 1_565
Mg5 O5 2.250617 1_555
Mg5 O7 2.250617 1_555
Mg5 O11 2.308258 1_555
Mg5 O15 2.314720 1_556
Mg5 O15 2.314720 1_555
Mg6 O10 2.078419 1_555
Mg6 O5 2.228128 1_545
Mg6 O4 2.228128 1_555
Mg6 O0 2.302361 1_555
Mg6 O0 2.302361 1_556
Mg6 O8 2.392964 1_555
Mg7 O9 2.163124 1_555
Mg7 O4 2.250617 1_555
Mg7 O5 2.250617 1_555
Mg7 O11 2.308258 1_555
Mg7 O1 2.314720 1_555
Mg7 O1 2.314720 1_556
Mg8 O10 2.078419 1_555
Mg8 O7 2.228128 1_545
Mg8 O6 2.228128 1_555
Mg8 O2 2.302361 1_556
Mg8 O2 2.302361 1_555
Mg8 O8 2.392964 1_655
Mg9 O9 2.163124 1_655
Mg9 O6 2.250617 1_555
Mg9 O7 2.250617 1_555
Mg9 O11 2.308258 1_555
Mg9 O3 2.314720 1_556
Mg9 O3 2.314720 1_555
Mg10 O1 2.210793 1_555
Mg10 O14 2.210793 1_555
Mg10 O12 2.292798 1_555
Mg10 O0 2.292798 1_555
Mg10 O4 2.304097 1_554
Mg10 O4 2.304097 1_555
Mg11 O15 2.210793 1_555
Mg11 O1 2.210793 1_555
Mg11 O0 2.292798 1_565
Mg11 O13 2.292798 1_555
Mg11 O5 2.304097 1_555
Mg11 O5 2.304097 1_554
Mg12 O3 2.210793 1_555
Mg12 O14 2.210793 1_555
Mg12 O12 2.292798 1_655
Mg12 O2 2.292798 1_555
Mg12 O6 2.304097 1_555
Mg12 O6 2.304097 1_554
Mg13 O3 2.210793 1_555
Mg13 O15 2.210793 1_555
Mg13 O2 2.292798 1_565
Mg13 O13 2.292798 1_655
Mg13 O7 2.304097 1_554
Mg13 O7 2.304097 1_555
