# generated using pymatgen
data_Co2C2O7
_symmetry_space_group_name_H-M   'P 1'
_cell_length_a   8.39649889
_cell_length_b   8.39649889
_cell_length_c   8.22898784
_cell_angle_alpha   87.68074222
_cell_angle_beta   87.68074222
_cell_angle_gamma   59.49869026
_symmetry_Int_Tables_number   1
_chemical_formula_structural   Co2C2O7
_chemical_formula_sum   'Co6 C6 O21'
_cell_volume   499.32711727
_cell_formula_units_Z   3
loop_
 _symmetry_equiv_pos_site_id
 _symmetry_equiv_pos_as_xyz
  1  'x, y, z'
loop_
 _atom_site_type_symbol
 _atom_site_label
 _atom_site_symmetry_multiplicity
 _atom_site_fract_x
 _atom_site_fract_y
 _atom_site_fract_z
 _atom_site_occupancy
  Co  Co0  1  0.00090300  0.99844600  0.71621700  1
  Co  Co1  1  0.00155400  0.99909700  0.28378300  1
  Co  Co2  1  0.33997100  0.33542900  0.17056600  1
  Co  Co3  1  0.32967700  0.33599200  0.73733500  1
  Co  Co4  1  0.66457100  0.66002900  0.82943400  1
  Co  Co5  1  0.66400800  0.67032300  0.26266500  1
  C  C0  1  0.65970900  0.99836500  0.73204100  1
  C  C1  1  0.99941500  0.33461800  0.73014600  1
  C  C2  1  0.34023800  0.66659800  0.73155800  1
  C  C3  1  0.00163500  0.34029100  0.26795900  1
  C  C4  1  0.66538200  0.00058500  0.26985400  1
  C  C5  1  0.33340200  0.65976200  0.26844200  1
  O  O0  1  0.00403700  0.99596300  0.50000000  1
  O  O1  1  0.76385100  0.06843400  0.21030100  1
  O  O2  1  0.57280300  0.16426400  0.66516800  1
  O  O3  1  0.48754900  0.09700800  0.26712800  1
  O  O4  1  0.33313500  0.33031800  0.95650500  1
  O  O5  1  0.16619700  0.25732600  0.66804300  1
  O  O6  1  0.42081600  0.48161400  0.26862800  1
  O  O7  1  0.06877000  0.17541100  0.21518300  1
  O  O8  1  0.93156600  0.23614900  0.78969900  1
  O  O9  1  0.09384400  0.42389400  0.25485900  1
  O  O10  1  0.25726800  0.58485100  0.67699700  1
  O  O11  1  0.16806300  0.75443600  0.21357100  1
  O  O12  1  0.83573600  0.42719700  0.33483200  1
  O  O13  1  0.90299200  0.51245100  0.73287200  1
  O  O14  1  0.66968200  0.66686500  0.04349500  1
  O  O15  1  0.74267400  0.83380300  0.33195700  1
  O  O16  1  0.51838600  0.57918400  0.73137200  1
  O  O17  1  0.82458900  0.93123000  0.78481700  1
  O  O18  1  0.57610600  0.90615600  0.74514100  1
  O  O19  1  0.41514900  0.74273200  0.32300300  1
  O  O20  1  0.24556400  0.83193700  0.78642900  1
loop_
_geom_bond_atom_site_label_1
_geom_bond_atom_site_label_2
_geom_bond_distance
_geom_bond_site_symmetry_2
Co0 O0 1.779186 1_555
Co0 O8 1.891492 1_465
Co0 O17 1.893030 1_455
Co0 O20 1.903626 1_555
Co1 O0 1.779186 1_555
Co1 O1 1.891492 1_465
Co1 O7 1.893030 1_565
Co1 O11 1.903626 1_555
Co2 O4 1.767721 1_554
Co2 O6 1.894432 1_555
Co2 O3 1.899287 1_555
Co2 O9 1.916027 1_555
Co3 O4 1.803268 1_555
Co3 O2 1.892693 1_555
Co3 O10 1.906102 1_555
Co3 O5 1.913064 1_555
Co4 O14 1.767721 1_556
Co4 O16 1.894432 1_555
Co4 O13 1.899287 1_555
Co4 O18 1.916027 1_555
Co5 O14 1.803268 1_555
Co5 O12 1.892693 1_555
Co5 O19 1.906102 1_555
Co5 O15 1.913064 1_555
C0 O18 1.281659 1_555
C0 O17 1.288266 1_555
C0 O2 1.309313 1_565
C1 O13 1.288263 1_555
C1 O8 1.292692 1_555
C1 O5 1.299916 1_655
C2 O16 1.289036 1_555
C2 O20 1.290159 1_555
C2 O10 1.301426 1_555
C3 O9 1.281659 1_555
C3 O7 1.288266 1_555
C3 O12 1.309313 1_455
C4 O3 1.288263 1_555
C4 O1 1.292692 1_555
C4 O15 1.299916 1_545
C5 O6 1.289036 1_555
C5 O11 1.290159 1_555
C5 O19 1.301426 1_555
