# generated using pymatgen
data_TlBiTe2
_symmetry_space_group_name_H-M   'P 1'
_cell_length_a   4.59541900
_cell_length_b   4.59541900
_cell_length_c   6.47388300
_cell_angle_alpha   90.00000000
_cell_angle_beta   90.00000000
_cell_angle_gamma   90.00000000
_symmetry_Int_Tables_number   1
_chemical_formula_structural   TlBiTe2
_chemical_formula_sum   'Tl1 Bi1 Te2'
_cell_volume   136.71465704
_cell_formula_units_Z   1
loop_
 _symmetry_equiv_pos_site_id
 _symmetry_equiv_pos_as_xyz
  1  'x, y, z'
loop_
 _atom_site_type_symbol
 _atom_site_label
 _atom_site_symmetry_multiplicity
 _atom_site_fract_x
 _atom_site_fract_y
 _atom_site_fract_z
 _atom_site_occupancy
  Tl  Tl0  1  0.00000000  0.00000000  0.00000000  1
  Bi  Bi0  1  0.50000000  0.50000000  0.50000000  1
  Te  Te0  1  0.00000000  0.00000000  0.50000000  1
  Te  Te1  1  0.50000000  0.50000000  0.00000000  1
loop_
_geom_bond_atom_site_label_1
_geom_bond_atom_site_label_2
_geom_bond_distance
_geom_bond_site_symmetry_2
Bi0 Te1 3.236941 1_556
Bi0 Te1 3.236941 1_555
Bi0 Te0 3.249452 1_655
Bi0 Te0 3.249452 1_665
Bi0 Te0 3.249452 1_555
Bi0 Te0 3.249452 1_565
Te0 Tl0 3.236941 1_555
Te0 Tl0 3.236941 1_556
Te1 Tl0 3.249452 1_655
Te1 Tl0 3.249452 1_665
Te1 Tl0 3.249452 1_555
Te1 Tl0 3.249452 1_565
