# generated using pymatgen
data_Eu4Lu(SnS4)3
_symmetry_space_group_name_H-M   'P 1'
_cell_length_a   3.97064500
_cell_length_b   11.51220200
_cell_length_c   20.35641900
_cell_angle_alpha   90.00000000
_cell_angle_beta   90.00000000
_cell_angle_gamma   90.00000000
_symmetry_Int_Tables_number   1
_chemical_formula_structural   Eu4Lu(SnS4)3
_chemical_formula_sum   'Eu8 Lu2 Sn6 S24'
_cell_volume   930.50956782
_cell_formula_units_Z   2
loop_
 _symmetry_equiv_pos_site_id
 _symmetry_equiv_pos_as_xyz
  1  'x, y, z'
loop_
 _atom_site_type_symbol
 _atom_site_label
 _atom_site_symmetry_multiplicity
 _atom_site_fract_x
 _atom_site_fract_y
 _atom_site_fract_z
 _atom_site_occupancy
  Eu  Eu0  1  0.50000000  0.91044400  0.74071600  1
  Eu  Eu1  1  0.50000000  0.41044400  0.25928400  1
  Eu  Eu2  1  0.50000000  0.27361200  0.61821600  1
  Eu  Eu3  1  0.50000000  0.77361200  0.38178400  1
  Eu  Eu4  1  0.50000000  0.14841800  0.41197000  1
  Eu  Eu5  1  0.50000000  0.64841800  0.58803000  1
  Eu  Eu6  1  0.50000000  0.68801900  0.91553700  1
  Eu  Eu7  1  0.50000000  0.18801900  0.08446300  1
  Lu  Lu0  1  0.50000000  0.32752400  0.89533400  1
  Lu  Lu1  1  0.50000000  0.82752400  0.10466600  1
  Sn  Sn0  1  0.00000000  0.01957800  0.91248500  1
  Sn  Sn1  1  0.00000000  0.51957800  0.08751500  1
  Sn  Sn2  1  0.00000000  0.49884400  0.75037000  1
  Sn  Sn3  1  0.00000000  0.99884400  0.24963000  1
  Sn  Sn4  1  0.00000000  0.48788700  0.42481600  1
  Sn  Sn5  1  0.00000000  0.98788700  0.57518400  1
  S  S0  1  0.50000000  0.95009200  0.98809600  1
  S  S1  1  0.50000000  0.45009200  0.01190400  1
  S  S2  1  0.50000000  0.10298800  0.84200600  1
  S  S3  1  0.50000000  0.60298800  0.15799400  1
  S  S4  1  0.50000000  0.34752600  0.76074300  1
  S  S5  1  0.50000000  0.84752600  0.23925700  1
  S  S6  1  0.50000000  0.42530800  0.49121200  1
  S  S7  1  0.50000000  0.92530800  0.50878800  1
  S  S8  1  0.50000000  0.14711100  0.25218100  1
  S  S9  1  0.50000000  0.64711100  0.74781900  1
  S  S10  1  0.00000000  0.21993800  0.96944500  1
  S  S11  1  0.00000000  0.71993800  0.03055500  1
  S  S12  1  0.00000000  0.49452500  0.87815200  1
  S  S13  1  0.00000000  0.99452500  0.12184800  1
  S  S14  1  0.00000000  0.83539000  0.84468600  1
  S  S15  1  0.00000000  0.33539000  0.15531400  1
  S  S16  1  0.00000000  0.09612100  0.68079500  1
  S  S17  1  0.00000000  0.59612100  0.31920500  1
  S  S18  1  0.00000000  0.46696200  0.62746500  1
  S  S19  1  0.00000000  0.96696200  0.37253500  1
  S  S20  1  0.00000000  0.18452300  0.51973300  1
  S  S21  1  0.00000000  0.68452300  0.48026700  1
  S  S22  1  0.00000000  0.30845000  0.35229000  1
  S  S23  1  0.00000000  0.80845000  0.64771000  1
loop_
_geom_bond_atom_site_label_1
_geom_bond_atom_site_label_2
_geom_bond_distance
_geom_bond_site_symmetry_2
Eu0 S23 2.984068 1_655
Eu0 S23 2.984068 1_555
Eu0 S2 3.027338 1_565
Eu0 S14 3.027781 1_555
Eu0 S14 3.027781 1_655
Eu0 S9 3.034989 1_555
Eu0 S16 3.162038 1_565
Eu0 S16 3.162038 1_665
Eu1 S22 2.984068 1_555
Eu1 S22 2.984068 1_655
Eu1 S3 3.027338 1_555
Eu1 S15 3.027781 1_655
Eu1 S15 3.027781 1_555
Eu1 S8 3.034989 1_555
Eu1 S17 3.162038 1_555
Eu1 S17 3.162038 1_655
Eu2 S18 2.988564 1_555
Eu2 S18 2.988564 1_655
Eu2 S20 3.002074 1_555
Eu2 S20 3.002074 1_655
Eu2 S4 3.023545 1_555
Eu2 S6 3.119900 1_555
Eu2 S16 3.120803 1_555
Eu2 S16 3.120803 1_655
Eu3 S19 2.988564 1_555
Eu3 S19 2.988564 1_655
Eu3 S21 3.002074 1_555
Eu3 S21 3.002074 1_655
Eu3 S5 3.023545 1_555
Eu3 S7 3.119900 1_555
Eu3 S17 3.120803 1_555
Eu3 S17 3.120803 1_655
Eu4 S22 2.968428 1_555
Eu4 S22 2.968428 1_655
Eu4 S20 2.987717 1_655
Eu4 S20 2.987717 1_555
Eu4 S19 2.991600 1_545
Eu4 S19 2.991600 1_645
Eu4 S7 3.237506 1_545
Eu4 S8 3.252767 1_555
Eu4 S6 3.572523 1_555
Eu5 S23 2.968428 1_555
Eu5 S23 2.968428 1_655
Eu5 S21 2.987717 1_555
Eu5 S21 2.987717 1_655
Eu5 S18 2.991600 1_655
Eu5 S18 2.991600 1_555
Eu5 S6 3.237506 1_555
Eu5 S9 3.252767 1_555
Eu5 S7 3.572523 1_555
Eu6 S14 2.983285 1_655
Eu6 S14 2.983285 1_555
Eu6 S12 3.079384 1_555
Eu6 S12 3.079384 1_655
Eu6 S11 3.091678 1_556
Eu6 S11 3.091678 1_656
Eu6 S0 3.359191 1_555
Eu6 S1 3.369078 1_556
Eu6 S9 3.446465 1_555
Eu7 S15 2.983285 1_555
Eu7 S15 2.983285 1_655
Eu7 S13 3.079384 1_545
Eu7 S13 3.079384 1_645
Eu7 S10 3.091678 1_654
Eu7 S10 3.091678 1_554
Eu7 S1 3.359191 1_555
Eu7 S0 3.369078 1_544
Eu7 S8 3.446465 1_555
Lu0 S4 2.749450 1_555
Lu0 S1 2.760775 1_556
Lu0 S10 2.784151 1_655
Lu0 S10 2.784151 1_555
Lu0 S12 2.785684 1_555
Lu0 S12 2.785684 1_655
Lu0 S2 2.803602 1_555
Lu1 S5 2.749450 1_555
Lu1 S0 2.760775 1_554
Lu1 S11 2.784151 1_655
Lu1 S11 2.784151 1_555
Lu1 S13 2.785684 1_555
Lu1 S13 2.785684 1_655
Lu1 S3 2.803602 1_555
S0 Sn0 2.636370 1_565
S0 Sn0 2.636370 1_665
S1 Sn1 2.636370 1_555
S1 Sn1 2.636370 1_655
S2 Sn0 2.630954 1_655
S2 Sn0 2.630954 1_555
S3 Sn1 2.630954 1_555
S3 Sn1 2.630954 1_655
S4 Sn2 2.649654 1_655
S4 Sn2 2.649654 1_555
S5 Sn3 2.649654 1_655
S5 Sn3 2.649654 1_555
S6 Sn4 2.507448 1_555
S6 Sn4 2.507448 1_655
S7 Sn5 2.507448 1_555
S7 Sn5 2.507448 1_655
S8 Sn3 2.618710 1_645
S8 Sn3 2.618710 1_545
S9 Sn2 2.618710 1_555
S9 Sn2 2.618710 1_655
S10 Sn0 2.581623 1_555
S11 Sn1 2.581623 1_555
S12 Sn2 2.601659 1_555
S13 Sn3 2.601659 1_555
S14 Sn0 2.530007 1_565
S15 Sn1 2.530007 1_555
S16 Sn5 2.484844 1_545
S17 Sn4 2.484844 1_555
S18 Sn2 2.528684 1_555
S19 Sn3 2.528684 1_555
S20 Sn5 2.529536 1_545
S21 Sn4 2.529536 1_555
S22 Sn4 2.539064 1_555
S23 Sn5 2.539064 1_555
