# generated using pymatgen
data_La(Sn3Ru2)2
_symmetry_space_group_name_H-M   'P 1'
_cell_length_a   6.93908146
_cell_length_b   6.93908146
_cell_length_c   6.93908146
_cell_angle_alpha   120.02346656
_cell_angle_beta   120.02346656
_cell_angle_gamma   89.95935953
_symmetry_Int_Tables_number   1
_chemical_formula_structural   La(Sn3Ru2)2
_chemical_formula_sum   'La1 Sn6 Ru4'
_cell_volume   236.17654789
_cell_formula_units_Z   1
loop_
 _symmetry_equiv_pos_site_id
 _symmetry_equiv_pos_as_xyz
  1  'x, y, z'
loop_
 _atom_site_type_symbol
 _atom_site_label
 _atom_site_symmetry_multiplicity
 _atom_site_fract_x
 _atom_site_fract_y
 _atom_site_fract_z
 _atom_site_occupancy
  La  La0  1  0.00000000  0.00000000  -0.00000000  1
  Sn  Sn0  1  0.47490924  0.11851185  0.00000000  1
  Sn  Sn1  1  0.11851185  0.47490924  -0.00000000  1
  Sn  Sn2  1  0.88148815  0.88148815  0.35639739  1
  Sn  Sn3  1  0.52509076  0.52509076  0.64360261  1
  Sn  Sn4  1  0.00000000  0.50000000  0.50000000  1
  Sn  Sn5  1  0.50000000  0.00000000  0.50000000  1
  Ru  Ru0  1  0.40888525  0.75037462  0.00000000  1
  Ru  Ru1  1  0.75037462  0.40888525  0.00000000  1
  Ru  Ru2  1  0.24962538  0.24962538  0.65851064  1
  Ru  Ru3  1  0.59111475  0.59111475  0.34148936  1
loop_
_geom_bond_atom_site_label_1
_geom_bond_atom_site_label_2
_geom_bond_distance
_geom_bond_site_symmetry_2
La0 Ru0 3.323198 1_545
La0 Ru1 3.323198 1_455
La0 Ru3 3.323198 1_444
La0 Ru2 3.323198 1_555
La0 Sn2 3.397059 1_445
La0 Sn3 3.397059 1_444
La0 Sn1 3.397059 1_555
La0 Sn0 3.397059 1_555
La0 Sn5 3.468310 1_454
La0 Sn5 3.468310 1_555
La0 Sn4 3.468310 1_544
La0 Sn4 3.468310 1_555
La0 Sn1 3.734729 1_545
La0 Sn3 3.734729 1_555
La0 Sn0 3.734729 1_455
La0 Sn2 3.734729 1_444
Ru0 Sn0 2.595612 1_565
Ru0 Sn4 2.688893 1_554
Ru0 Sn5 2.688893 1_565
Ru0 Sn2 2.708338 1_555
Ru0 Sn3 2.708338 1_554
Ru0 Sn1 2.778332 1_555
Ru0 Ru3 2.838209 1_555
Ru0 Ru2 2.838209 1_554
Ru1 Sn1 2.595612 1_655
Ru1 Sn4 2.688893 1_655
Ru1 Sn5 2.688893 1_554
Ru1 Sn2 2.708338 1_555
Ru1 Sn3 2.708338 1_554
Ru1 Sn0 2.778332 1_555
Ru1 Ru3 2.838209 1_555
Ru1 Ru2 2.838209 1_554
Ru2 Sn2 2.595612 1_445
Ru2 Sn4 2.688893 1_555
Ru2 Sn5 2.688893 1_555
Ru2 Sn0 2.708338 1_556
Ru2 Sn1 2.708338 1_556
Ru2 Sn3 2.778332 1_555
Ru3 Sn3 2.595612 1_555
Ru3 Sn4 2.688893 1_655
Ru3 Sn5 2.688893 1_565
Ru3 Sn1 2.708338 1_555
Ru3 Sn0 2.708338 1_555
Ru3 Sn2 2.778332 1_555
