# generated using pymatgen
data_Sm3(CuSn)4
_symmetry_space_group_name_H-M   'P 1'
_cell_length_a   4.51925074
_cell_length_b   6.96071524
_cell_length_c   8.51826887
_cell_angle_alpha   114.11538969
_cell_angle_beta   105.38289378
_cell_angle_gamma   90.00000000
_symmetry_Int_Tables_number   1
_chemical_formula_structural   Sm3(CuSn)4
_chemical_formula_sum   'Sm3 Cu4 Sn4'
_cell_volume   234.01740095
_cell_formula_units_Z   1
loop_
 _symmetry_equiv_pos_site_id
 _symmetry_equiv_pos_as_xyz
  1  'x, y, z'
loop_
 _atom_site_type_symbol
 _atom_site_label
 _atom_site_symmetry_multiplicity
 _atom_site_fract_x
 _atom_site_fract_y
 _atom_site_fract_z
 _atom_site_occupancy
  Sm  Sm0  1  0.86699312  0.36699312  0.73398624  1
  Sm  Sm1  1  0.13300688  0.63300688  0.26601376  1
  Sm  Sm2  1  0.00000000  -0.00000000  0.00000000  1
  Cu  Cu0  1  0.33056019  0.64572963  0.66112038  1
  Cu  Cu1  1  0.66943981  0.35427037  0.33887962  1
  Cu  Cu2  1  0.33056019  0.01539076  0.66112038  1
  Cu  Cu3  1  0.66943981  0.98460924  0.33887962  1
  Sn  Sn0  1  0.21637564  0.21637564  0.43275129  1
  Sn  Sn1  1  0.78362436  0.78362436  0.56724871  1
  Sn  Sn2  1  0.50000000  0.70134146  -0.00000000  1
  Sn  Sn3  1  0.50000000  0.29865854  0.00000000  1
loop_
_geom_bond_atom_site_label_1
_geom_bond_atom_site_label_2
_geom_bond_distance
_geom_bond_site_symmetry_2
Sm0 Sn0 3.182418 1_555
Sm0 Sn0 3.182419 1_655
Sm0 Sn3 3.314550 1_656
Sm0 Sn2 3.314551 1_656
Sm0 Sn3 3.314551 1_556
Sm0 Sn2 3.314551 1_556
Sm1 Sn1 3.182418 1_555
Sm1 Sn1 3.182419 1_455
Sm1 Sn2 3.314550 1_455
Sm1 Sn3 3.314551 1_455
Sm1 Sn2 3.314551 1_555
Sm1 Sn3 3.314551 1_555
Sm2 Sn2 3.070446 1_445
Sm2 Sn3 3.070446 1_555
Sm2 Sn3 3.070446 1_455
Sm2 Sn2 3.070446 1_545
Sm2 Sn1 3.219335 1_444
Sm2 Sn0 3.219335 1_555
Cu0 Cu2 2.573106 1_565
Cu0 Sn2 2.642580 1_556
Cu0 Sn1 2.692358 1_455
Cu0 Sn1 2.692358 1_555
Cu0 Sn0 2.774708 1_555
Cu0 Sm0 3.195703 1_555
Cu0 Sm0 3.195704 1_455
Cu0 Sm1 3.208525 1_555
Cu1 Cu3 2.573106 1_545
Cu1 Sn3 2.642580 1_555
Cu1 Sn0 2.692358 1_655
Cu1 Sn0 2.692358 1_555
Cu1 Sn1 2.774708 1_555
Cu1 Sm1 3.195703 1_555
Cu1 Sm1 3.195704 1_655
Cu1 Sm0 3.208525 1_555
Cu2 Sn3 2.642581 1_556
Cu2 Sn1 2.692358 1_445
Cu2 Sn1 2.692359 1_545
Cu2 Sn0 2.774708 1_555
Cu2 Sm0 3.195703 1_555
Cu2 Sm0 3.195704 1_455
Cu2 Sm1 3.208525 1_545
Cu3 Sn2 2.642581 1_555
Cu3 Sn0 2.692358 1_665
Cu3 Sn0 2.692359 1_565
Cu3 Sn1 2.774708 1_555
Cu3 Sm1 3.195703 1_555
Cu3 Sm1 3.195704 1_655
Cu3 Sm0 3.208525 1_565
Sn2 Sn3 2.802961 1_555
