# generated using pymatgen
data_Fe4SiO9
_symmetry_space_group_name_H-M   'P 1'
_cell_length_a   5.33357100
_cell_length_b   5.33586893
_cell_length_c   7.38121599
_cell_angle_alpha   90.62636700
_cell_angle_beta   90.83488869
_cell_angle_gamma   118.61229188
_symmetry_Int_Tables_number   1
_chemical_formula_structural   Fe4SiO9
_chemical_formula_sum   'Fe4 Si1 O9'
_cell_volume   184.35287141
_cell_formula_units_Z   1
loop_
 _symmetry_equiv_pos_site_id
 _symmetry_equiv_pos_as_xyz
  1  'x, y, z'
loop_
 _atom_site_type_symbol
 _atom_site_label
 _atom_site_symmetry_multiplicity
 _atom_site_fract_x
 _atom_site_fract_y
 _atom_site_fract_z
 _atom_site_occupancy
  Fe  Fe0  1  0.33174300  0.67228100  0.91554100  1
  Fe  Fe1  1  0.00728500  0.67882000  0.50028000  1
  Fe  Fe2  1  0.33042400  0.32896500  0.50081700  1
  Fe  Fe3  1  0.67173300  0.00059000  0.50180600  1
  Si  Si0  1  0.66647600  0.33152600  0.90406100  1
  O  O0  1  0.99840500  0.98992700  0.62840400  1
  O  O1  1  0.96986000  0.58542800  0.97787700  1
  O  O2  1  0.41140200  0.38668100  0.97602700  1
  O  O3  1  0.61989800  0.02787200  0.97725700  1
  O  O4  1  0.32623700  0.66864400  0.64906600  1
  O  O5  1  0.65927700  0.32452200  0.67349700  1
  O  O6  1  0.99055200  0.34852500  0.38899200  1
  O  O7  1  0.66756800  0.65352500  0.38767800  1
  O  O8  1  0.34914000  0.00269300  0.38169600  1
loop_
_geom_bond_atom_site_label_1
_geom_bond_atom_site_label_2
_geom_bond_distance
_geom_bond_site_symmetry_2
Fe0 O1 1.823653 1_455
Fe0 O2 1.825280 1_555
Fe0 O3 1.826863 1_565
Fe0 O4 1.966446 1_555
Fe1 O6 1.898522 1_455
Fe1 O0 1.922129 1_455
Fe1 O7 1.926511 1_455
Fe1 O4 2.034278 1_555
Fe1 O8 2.034406 1_565
Fe1 O5 2.327033 1_455
Fe2 O8 1.987331 1_555
Fe2 O7 2.005700 1_555
Fe2 O6 2.029203 1_455
Fe2 O0 2.076797 1_445
Fe2 O4 2.116390 1_555
Fe2 O5 2.162603 1_555
Fe3 O8 1.928921 1_555
Fe3 O0 1.990175 1_545
Fe3 O7 2.016331 1_545
Fe3 O6 2.020670 1_555
Fe3 O5 2.159293 1_555
Fe3 O4 2.165363 1_545
O1 Si0 1.615297 1_555
O2 Si0 1.618868 1_555
O3 Si0 1.617525 1_555
O5 Si0 1.701314 1_555
