# generated using pymatgen
data_Co(TePd)2
_symmetry_space_group_name_H-M   'P 1'
_cell_length_a   5.21585763
_cell_length_b   6.29861501
_cell_length_c   6.91409539
_cell_angle_alpha   117.09653052
_cell_angle_beta   112.15973887
_cell_angle_gamma   89.99999995
_symmetry_Int_Tables_number   1
_chemical_formula_structural   Co(TePd)2
_chemical_formula_sum   'Co2 Te4 Pd4'
_cell_volume   183.16740983
_cell_formula_units_Z   2
loop_
 _symmetry_equiv_pos_site_id
 _symmetry_equiv_pos_as_xyz
  1  'x, y, z'
loop_
 _atom_site_type_symbol
 _atom_site_label
 _atom_site_symmetry_multiplicity
 _atom_site_fract_x
 _atom_site_fract_y
 _atom_site_fract_z
 _atom_site_occupancy
  Co  Co0  1  0.75000000  -0.00000000  -0.00000000  1
  Co  Co1  1  0.25000000  -0.00000000  -0.00000000  1
  Te  Te0  1  0.35788704  0.07329620  0.71577409  1
  Te  Te1  1  0.64211296  0.92670380  0.28422591  1
  Te  Te2  1  0.14211296  0.35752211  0.28422591  1
  Te  Te3  1  0.85788704  0.64247789  0.71577409  1
  Pd  Pd0  1  0.60661963  0.47558355  0.21323926  1
  Pd  Pd1  1  0.89338037  0.26234529  0.78676074  1
  Pd  Pd2  1  0.10661963  0.73765471  0.21323926  1
  Pd  Pd3  1  0.39338037  0.52441645  0.78676074  1
loop_
_geom_bond_atom_site_label_1
_geom_bond_atom_site_label_2
_geom_bond_distance
_geom_bond_site_symmetry_2
Co0 Te3 2.460158 1_544
Co0 Te2 2.460158 1_655
Co0 Te1 2.460158 1_545
Co0 Te0 2.460158 1_554
Co0 Co1 2.607929 1_555
Co0 Co1 2.607929 1_655
Co0 Pd0 2.917978 1_555
Co0 Pd3 2.917979 1_544
Co0 Pd1 2.917984 1_554
Co0 Pd2 2.917984 1_645
Co1 Te2 2.460158 1_555
Co1 Te3 2.460158 1_444
Co1 Te0 2.460158 1_554
Co1 Te1 2.460158 1_545
Co1 Pd3 2.917978 1_544
Co1 Pd0 2.917979 1_555
Co1 Pd2 2.917984 1_545
Co1 Pd1 2.917984 1_454
Pd0 Te1 2.647623 1_555
Pd0 Te2 2.809515 1_555
Pd0 Te2 2.809515 1_655
Pd0 Te3 2.851796 1_555
Pd0 Pd3 2.894598 1_554
Pd0 Te0 2.937374 1_554
Pd0 Pd2 3.086431 1_555
Pd0 Pd2 3.086431 1_655
Pd1 Te3 2.647617 1_555
Pd1 Te0 2.809517 1_655
Pd1 Te0 2.809518 1_555
Pd1 Te1 2.851797 1_545
Pd1 Pd2 2.894590 1_656
Pd1 Te2 2.937376 1_656
Pd1 Pd3 3.086431 1_555
Pd1 Pd3 3.086431 1_655
Pd2 Te2 2.647617 1_555
Pd2 Te1 2.809517 1_455
Pd2 Te1 2.809518 1_555
Pd2 Te0 2.851797 1_565
Pd2 Te3 2.937376 1_454
Pd3 Te0 2.647623 1_555
Pd3 Te3 2.809515 1_555
Pd3 Te3 2.809515 1_455
Pd3 Te2 2.851796 1_555
Pd3 Te1 2.937374 1_556
