# generated using pymatgen
data_MgTi2O4
_symmetry_space_group_name_H-M   'P 1'
_cell_length_a   5.03784850
_cell_length_b   5.03784850
_cell_length_c   10.01379600
_cell_angle_alpha   90.00000000
_cell_angle_beta   90.00000000
_cell_angle_gamma   146.42490950
_symmetry_Int_Tables_number   1
_chemical_formula_structural   MgTi2O4
_chemical_formula_sum   'Mg2 Ti4 O8'
_cell_volume   140.55203930
_cell_formula_units_Z   2
loop_
 _symmetry_equiv_pos_site_id
 _symmetry_equiv_pos_as_xyz
  1  'x, y, z'
loop_
 _atom_site_type_symbol
 _atom_site_label
 _atom_site_symmetry_multiplicity
 _atom_site_fract_x
 _atom_site_fract_y
 _atom_site_fract_z
 _atom_site_occupancy
  Mg  Mg0  1  0.88074400  0.11925600  0.75000000  1
  Mg  Mg1  1  0.11925600  0.88074400  0.25000000  1
  Ti  Ti0  1  0.62699900  0.37300100  0.56981800  1
  Ti  Ti1  1  0.37300100  0.62699900  0.06981800  1
  Ti  Ti2  1  0.37300100  0.62699900  0.43018200  1
  Ti  Ti3  1  0.62699900  0.37300100  0.93018200  1
  O  O0  1  0.27493700  0.72506300  0.88317000  1
  O  O1  1  0.72506300  0.27493700  0.11683000  1
  O  O2  1  0.00000000  0.00000000  0.00000000  1
  O  O3  1  0.27493700  0.72506300  0.61683000  1
  O  O4  1  0.46492500  0.53507500  0.25000000  1
  O  O5  1  0.00000000  0.00000000  0.50000000  1
  O  O6  1  0.53507500  0.46492500  0.75000000  1
  O  O7  1  0.72506300  0.27493700  0.38317000  1
loop_
_geom_bond_atom_site_label_1
_geom_bond_atom_site_label_2
_geom_bond_distance
_geom_bond_site_symmetry_2
Mg0 O6 2.081697 1_545
Mg0 O6 2.081697 1_655
Mg0 O3 2.221983 1_545
Mg0 O3 2.221983 1_655
Mg0 O0 2.221983 1_655
Mg0 O0 2.221983 1_545
Mg1 O4 2.081697 1_565
Mg1 O4 2.081697 1_455
Mg1 O7 2.221983 1_455
Mg1 O1 2.221983 1_455
Mg1 O7 2.221983 1_565
Mg1 O1 2.221983 1_565
O0 Ti3 2.091716 1_565
O0 Ti3 2.091716 1_455
O0 Ti1 2.094802 1_556
O1 Ti1 2.091716 1_655
O1 Ti1 2.091716 1_545
O1 Ti3 2.094802 1_554
O2 Ti1 2.026516 1_555
O2 Ti1 2.026516 1_445
O2 Ti3 2.026516 1_554
O2 Ti3 2.026516 1_444
O3 Ti0 2.091716 1_565
O3 Ti0 2.091716 1_455
O3 Ti2 2.094802 1_555
O4 Ti2 2.010423 1_555
O4 Ti1 2.010423 1_555
O5 Ti0 2.026516 1_555
O5 Ti0 2.026516 1_445
O5 Ti2 2.026516 1_555
O5 Ti2 2.026516 1_445
O6 Ti3 2.010423 1_555
O6 Ti0 2.010423 1_555
O7 Ti2 2.091716 1_655
O7 Ti2 2.091716 1_545
O7 Ti0 2.094802 1_555
