# generated using pymatgen
data_CuHS(NO)4
_symmetry_space_group_name_H-M   'P 1'
_cell_length_a   8.33811700
_cell_length_b   9.19298600
_cell_length_c   10.41869900
_cell_angle_alpha   90.00000000
_cell_angle_beta   90.00000000
_cell_angle_gamma   90.00000000
_symmetry_Int_Tables_number   1
_chemical_formula_structural   CuHS(NO)4
_chemical_formula_sum   'Cu4 H4 S4 N16 O16'
_cell_volume   798.61612497
_cell_formula_units_Z   4
loop_
 _symmetry_equiv_pos_site_id
 _symmetry_equiv_pos_as_xyz
  1  'x, y, z'
loop_
 _atom_site_type_symbol
 _atom_site_label
 _atom_site_symmetry_multiplicity
 _atom_site_fract_x
 _atom_site_fract_y
 _atom_site_fract_z
 _atom_site_occupancy
  Cu  Cu0  1  0.25000000  0.62894900  0.04689400  1
  Cu  Cu1  1  0.75000000  0.37105100  0.95310600  1
  Cu  Cu2  1  0.75000000  0.12895000  0.45310600  1
  Cu  Cu3  1  0.25000000  0.87105100  0.54689400  1
  H  H0  1  0.25000000  0.68915700  0.18122300  1
  H  H1  1  0.75000000  0.31084300  0.81877700  1
  H  H2  1  0.75000000  0.18915700  0.31877700  1
  H  H3  1  0.25000000  0.81084300  0.68122300  1
  S  S0  1  0.25000000  0.04803800  0.27995300  1
  S  S1  1  0.75000000  0.95196200  0.72004700  1
  S  S2  1  0.75000000  0.54803800  0.22004700  1
  S  S3  1  0.25000000  0.45196200  0.77995300  1
  N  N0  1  0.44677500  0.31121500  0.48895100  1
  N  N1  1  0.55322500  0.68878500  0.51104900  1
  N  N2  1  0.55322500  0.81121500  0.01104900  1
  N  N3  1  0.94677500  0.68878500  0.51104900  1
  N  N4  1  0.44677500  0.18878500  0.98895100  1
  N  N5  1  0.05322500  0.31121500  0.48895100  1
  N  N6  1  0.05322500  0.18878500  0.98895100  1
  N  N7  1  0.94677500  0.81121500  0.01104900  1
  N  N8  1  0.55052100  0.26480000  0.98303700  1
  N  N9  1  0.44947900  0.73520000  0.01696300  1
  N  N10  1  0.44947900  0.76480000  0.51696300  1
  N  N11  1  0.05052100  0.73520000  0.01696300  1
  N  N12  1  0.55052100  0.23520000  0.48303700  1
  N  N13  1  0.94947900  0.26480000  0.98303700  1
  N  N14  1  0.94947900  0.23520000  0.48303700  1
  N  N15  1  0.05052100  0.76480000  0.51696300  1
  O  O0  1  0.10351500  0.98183600  0.22742700  1
  O  O1  1  0.89648500  0.01816400  0.77257300  1
  O  O2  1  0.89648500  0.48183600  0.27257300  1
  O  O3  1  0.60351500  0.01816400  0.77257300  1
  O  O4  1  0.10351500  0.51816400  0.72742700  1
  O  O5  1  0.39648500  0.98183600  0.22742700  1
  O  O6  1  0.39648500  0.51816400  0.72742700  1
  O  O7  1  0.60351500  0.48183600  0.27257300  1
  O  O8  1  0.25000000  0.01917400  0.42754400  1
  O  O9  1  0.75000000  0.98082600  0.57245600  1
  O  O10  1  0.75000000  0.51917400  0.07245600  1
  O  O11  1  0.25000000  0.48082600  0.92754400  1
  O  O12  1  0.25000000  0.20776500  0.27137700  1
  O  O13  1  0.75000000  0.79223500  0.72862300  1
  O  O14  1  0.75000000  0.70776500  0.22862300  1
  O  O15  1  0.25000000  0.29223500  0.77137700  1
loop_
_geom_bond_atom_site_label_1
_geom_bond_atom_site_label_2
_geom_bond_distance
_geom_bond_site_symmetry_2
Cu0 H0 1.505007 1_555
Cu0 O11 1.844025 1_554
Cu0 N9 1.953922 1_555
Cu0 N11 1.953922 1_555
Cu1 H1 1.505007 1_555
Cu1 O10 1.844025 1_556
Cu1 N13 1.953922 1_555
Cu1 N8 1.953922 1_555
Cu2 H2 1.505004 1_555
Cu2 O9 1.844032 1_545
Cu2 N14 1.953917 1_555
Cu2 N12 1.953917 1_555
Cu3 H3 1.505007 1_555
Cu3 O8 1.844025 1_565
Cu3 N10 1.953922 1_555
Cu3 N15 1.953922 1_555
N0 N12 1.113746 1_555
N1 N10 1.113746 1_555
N2 N9 1.113746 1_555
N4 N8 1.113746 1_555
N11 N7 1.113746 1_455
N13 N6 1.113746 1_655
N14 N5 1.113746 1_655
N15 N3 1.113746 1_455
O0 S0 1.470276 1_565
O1 S1 1.470276 1_545
O2 S2 1.470276 1_555
O3 S1 1.470276 1_545
O4 S3 1.470276 1_555
O5 S0 1.470276 1_565
O6 S3 1.470276 1_555
O7 S2 1.470276 1_555
O8 S0 1.560432 1_555
O9 S1 1.560432 1_555
O10 S2 1.560432 1_555
O11 S3 1.560432 1_555
O12 S0 1.471084 1_555
O13 S1 1.471084 1_555
O14 S2 1.471084 1_555
O15 S3 1.471084 1_555
