# generated using pymatgen
data_TiB12
_symmetry_space_group_name_H-M   'P 1'
_cell_length_a   5.19874764
_cell_length_b   5.19874745
_cell_length_c   5.19874700
_cell_angle_alpha   60.00000920
_cell_angle_beta   60.00001045
_cell_angle_gamma   60.00000939
_symmetry_Int_Tables_number   1
_chemical_formula_structural   TiB12
_chemical_formula_sum   'Ti1 B12'
_cell_volume   99.35305751
_cell_formula_units_Z   1
loop_
 _symmetry_equiv_pos_site_id
 _symmetry_equiv_pos_as_xyz
  1  'x, y, z'
loop_
 _atom_site_type_symbol
 _atom_site_label
 _atom_site_symmetry_multiplicity
 _atom_site_fract_x
 _atom_site_fract_y
 _atom_site_fract_z
 _atom_site_occupancy
  Ti  Ti0  1  0.00000000  0.00000000  0.00000000  1
  B  B0  1  0.83937500  0.50000000  0.50000000  1
  B  B1  1  0.50000000  0.50000000  0.83937500  1
  B  B2  1  0.83937500  0.16062500  0.50000000  1
  B  B3  1  0.50000000  0.83937500  0.16062500  1
  B  B4  1  0.50000000  0.16062500  0.83937500  1
  B  B5  1  0.50000000  0.83937500  0.50000000  1
  B  B6  1  0.83937500  0.50000000  0.16062500  1
  B  B7  1  0.16062500  0.83937500  0.50000000  1
  B  B8  1  0.50000000  0.16062500  0.50000000  1
  B  B9  1  0.16062500  0.50000000  0.83937500  1
  B  B10  1  0.50000000  0.50000000  0.16062500  1
  B  B11  1  0.16062500  0.50000000  0.50000000  1
loop_
_geom_bond_atom_site_label_1
_geom_bond_atom_site_label_2
_geom_bond_distance
_geom_bond_site_symmetry_2
B0 B11 1.670098 1_655
B0 B6 1.764325 1_555
B0 B2 1.764325 1_555
B0 B1 1.764325 1_555
B0 B5 1.764325 1_555
B0 Ti0 2.730211 1_656
B0 Ti0 2.730211 1_665
B1 B10 1.670097 1_556
B1 B4 1.764325 1_555
B1 B9 1.764325 1_555
B1 B5 1.764325 1_555
B1 Ti0 2.730211 1_566
B1 Ti0 2.730211 1_656
B2 B7 1.670098 1_645
B2 B8 1.764325 1_555
B2 B6 1.764325 1_555
B2 B4 1.764325 1_555
B2 Ti0 2.730210 1_656
B2 Ti0 2.730210 1_655
B3 B4 1.670098 1_564
B3 B5 1.764325 1_555
B3 B7 1.764325 1_555
B3 B6 1.764325 1_555
B3 Ti0 2.730211 1_565
B3 Ti0 2.730211 1_665
B4 B8 1.764325 1_555
B4 B9 1.764325 1_555
B4 Ti0 2.730211 1_656
B4 Ti0 2.730211 1_556
B5 B8 1.670098 1_565
B5 B7 1.764325 1_555
B5 Ti0 2.730211 1_566
B5 Ti0 2.730211 1_665
B6 B9 1.670098 1_654
B6 Ti0 2.730211 1_655
B6 Ti0 2.730211 1_665
B7 B9 1.764325 1_555
B7 Ti0 2.730210 1_566
B7 Ti0 2.730210 1_565
B8 Ti0 2.730211 1_655
B8 Ti0 2.730211 1_556
B9 Ti0 2.730211 1_566
B9 Ti0 2.730211 1_556
B10 B3 1.764325 1_555
B10 B6 1.764325 1_555
B10 B8 1.764325 1_555
B10 B11 1.764325 1_555
B10 Ti0 2.730211 1_565
B10 Ti0 2.730211 1_655
B11 B9 1.764325 1_555
B11 B7 1.764325 1_555
B11 B8 1.764325 1_555
B11 Ti0 2.730211 1_565
B11 Ti0 2.730211 1_556
