# generated using pymatgen
data_Mg7Cr
_symmetry_space_group_name_H-M   'P 1'
_cell_length_a   6.29191232
_cell_length_b   6.29191232
_cell_length_c   5.07068900
_cell_angle_alpha   90.00000000
_cell_angle_beta   90.00000000
_cell_angle_gamma   120.00000337
_symmetry_Int_Tables_number   1
_chemical_formula_structural   Mg7Cr
_chemical_formula_sum   'Mg7 Cr1'
_cell_volume   173.84528475
_cell_formula_units_Z   1
loop_
 _symmetry_equiv_pos_site_id
 _symmetry_equiv_pos_as_xyz
  1  'x, y, z'
loop_
 _atom_site_type_symbol
 _atom_site_label
 _atom_site_symmetry_multiplicity
 _atom_site_fract_x
 _atom_site_fract_y
 _atom_site_fract_z
 _atom_site_occupancy
  Mg  Mg0  1  0.83286600  0.66573200  0.50000000  1
  Mg  Mg1  1  0.33426800  0.16713400  0.50000000  1
  Mg  Mg2  1  0.83286600  0.16713400  0.50000000  1
  Mg  Mg3  1  0.49669500  0.50330500  0.00000000  1
  Mg  Mg4  1  0.00661000  0.50330500  0.00000000  1
  Mg  Mg5  1  0.49669500  0.99339000  0.00000000  1
  Mg  Mg6  1  0.00000000  0.00000000  0.00000000  1
  Cr  Cr0  1  0.33333300  0.66666700  0.50000000  1
loop_
_geom_bond_atom_site_label_1
_geom_bond_atom_site_label_2
_geom_bond_distance
_geom_bond_site_symmetry_2
Mg0 Mg6 3.121780 1_665
Mg0 Mg6 3.121780 1_666
Mg0 Mg3 3.128044 1_556
Mg0 Mg3 3.128044 1_555
Mg0 Mg4 3.128044 1_656
Mg0 Mg4 3.128044 1_655
Mg0 Mg1 3.137135 1_555
Mg0 Mg2 3.137135 1_555
Mg0 Mg1 3.154777 1_665
Mg0 Mg2 3.154777 1_565
Mg1 Mg6 3.121780 1_556
Mg1 Mg6 3.121780 1_555
Mg1 Mg3 3.128044 1_556
Mg1 Mg3 3.128044 1_555
Mg1 Mg5 3.128044 1_546
Mg1 Mg5 3.128044 1_545
Mg1 Mg2 3.137135 1_555
Mg1 Mg2 3.154777 1_455
Mg2 Mg6 3.121780 1_656
Mg2 Mg6 3.121780 1_655
Mg2 Mg4 3.128044 1_656
Mg2 Mg5 3.128044 1_546
Mg2 Mg5 3.128044 1_545
Mg2 Mg4 3.128044 1_655
Mg3 Mg4 3.083572 1_555
Mg3 Mg5 3.083572 1_555
Mg3 Mg6 3.146162 1_555
Mg3 Mg6 3.146162 1_665
Mg3 Mg5 3.208340 1_545
Mg3 Mg4 3.208340 1_655
Mg4 Mg5 3.083572 1_555
Mg4 Mg6 3.146162 1_555
Mg4 Mg6 3.146162 1_565
Mg4 Mg5 3.208340 1_445
Mg5 Mg6 3.146162 1_665
Mg5 Mg6 3.146162 1_565
Cr0 Mg4 3.097973 1_555
Cr0 Mg4 3.097973 1_556
Cr0 Mg5 3.097973 1_556
Cr0 Mg5 3.097973 1_555
Cr0 Mg3 3.097976 1_556
Cr0 Mg3 3.097976 1_555
Cr0 Mg1 3.145957 1_565
Cr0 Mg0 3.145957 1_455
Cr0 Mg2 3.145960 1_455
Cr0 Mg2 3.145960 1_565
Cr0 Mg1 3.145963 1_555
Cr0 Mg0 3.145963 1_555
