# generated using pymatgen
data_Na4Mn2P2O7F6
_symmetry_space_group_name_H-M   'P 1'
_cell_length_a   7.91707300
_cell_length_b   8.26874100
_cell_length_c   10.64807885
_cell_angle_alpha   90.00000000
_cell_angle_beta   129.57363611
_cell_angle_gamma   90.00000000
_symmetry_Int_Tables_number   1
_chemical_formula_structural   Na4Mn2P2O7F6
_chemical_formula_sum   'Na8 Mn4 P4 O14 F12'
_cell_volume   537.30470598
_cell_formula_units_Z   2
loop_
 _symmetry_equiv_pos_site_id
 _symmetry_equiv_pos_as_xyz
  1  'x, y, z'
loop_
 _atom_site_type_symbol
 _atom_site_label
 _atom_site_symmetry_multiplicity
 _atom_site_fract_x
 _atom_site_fract_y
 _atom_site_fract_z
 _atom_site_occupancy
  Na  Na0  1  0.50000000  0.27460600  0.25000000  1
  Na  Na1  1  0.50000000  0.72539400  0.75000000  1
  Na  Na2  1  0.00000000  0.25060500  0.75000000  1
  Na  Na3  1  0.00000000  0.74939500  0.25000000  1
  Na  Na4  1  0.50000000  0.18341800  0.75000000  1
  Na  Na5  1  0.50000000  0.81658200  0.25000000  1
  Na  Na6  1  0.00000000  0.50000000  0.50000000  1
  Na  Na7  1  0.00000000  0.50000000  0.00000000  1
  Mn  Mn0  1  0.50000000  0.50000000  0.00000000  1
  Mn  Mn1  1  0.50000000  0.50000000  0.50000000  1
  Mn  Mn2  1  0.00000000  0.00000000  0.00000000  1
  Mn  Mn3  1  0.00000000  0.00000000  0.50000000  1
  P  P0  1  0.76842400  0.13810200  0.13355500  1
  P  P1  1  0.23157600  0.86189800  0.86644500  1
  P  P2  1  0.23157600  0.13810200  0.36644500  1
  P  P3  1  0.76842400  0.86189800  0.63355500  1
  O  O0  1  0.81347200  0.99339400  0.06355400  1
  O  O1  1  0.18652800  0.00660600  0.93644600  1
  O  O2  1  0.18652800  0.99339400  0.43644600  1
  O  O3  1  0.81347200  0.00660600  0.56355400  1
  O  O4  1  0.00000000  0.23794900  0.25000000  1
  O  O5  1  0.00000000  0.76205100  0.75000000  1
  O  O6  1  0.72145000  0.92168600  0.74462900  1
  O  O7  1  0.27855000  0.07831400  0.25537100  1
  O  O8  1  0.27855000  0.92168600  0.75537100  1
  O  O9  1  0.72145000  0.07831400  0.24462900  1
  O  O10  1  0.59950000  0.25347200  0.00052900  1
  O  O11  1  0.40050000  0.74652800  0.99947100  1
  O  O12  1  0.40050000  0.25347200  0.49947100  1
  O  O13  1  0.59950000  0.74652800  0.50052900  1
  F  F0  1  0.67728300  0.49245300  0.22842000  1
  F  F1  1  0.32271700  0.50754700  0.77158000  1
  F  F2  1  0.32271700  0.49245300  0.27158000  1
  F  F3  1  0.67728300  0.50754700  0.72842000  1
  F  F4  1  0.90908500  0.21432700  0.92035300  1
  F  F5  1  0.09091500  0.78567300  0.07964700  1
  F  F6  1  0.09091500  0.21432700  0.57964700  1
  F  F7  1  0.90908500  0.78567300  0.42035300  1
  F  F8  1  0.26060400  0.40867200  0.97948900  1
  F  F9  1  0.73939600  0.59132800  0.02051100  1
  F  F10  1  0.73939600  0.40867200  0.52051100  1
  F  F11  1  0.26060400  0.59132800  0.47948900  1
loop_
_geom_bond_atom_site_label_1
_geom_bond_atom_site_label_2
_geom_bond_distance
_geom_bond_site_symmetry_2
Na0 O7 2.416460 1_555
Na0 O9 2.416460 1_555
Na1 O8 2.416460 1_555
Na1 O6 2.416460 1_555
Na2 O1 2.541112 1_555
Na2 O3 2.541112 1_455
Na3 O0 2.541112 1_455
Na3 O2 2.541112 1_555
Na4 O12 2.322699 1_555
Na4 O10 2.322699 1_556
Na4 O8 2.808665 1_545
Na4 O6 2.808665 1_545
Na5 O13 2.322699 1_555
Na5 O11 2.322699 1_554
Na5 O7 2.808665 1_565
Na5 O9 2.808665 1_565
Mn0 O11 2.184104 1_554
Mn0 O10 2.184104 1_555
Mn1 O13 2.184104 1_555
Mn1 O12 2.184104 1_555
Mn2 O1 1.978656 1_554
Mn2 O0 1.978656 1_445
Mn2 O7 2.244146 1_555
Mn2 O6 2.244146 1_444
Mn3 O2 1.978656 1_545
Mn3 O3 1.978656 1_455
Mn3 O8 2.244146 1_545
Mn3 O9 2.244146 1_455
O0 P0 1.566281 1_565
O1 P1 1.566281 1_545
O2 P2 1.566281 1_565
O3 P3 1.566281 1_545
O4 P0 1.638272 1_455
O4 P2 1.638272 1_555
O5 P1 1.638272 1_555
O5 P3 1.638272 1_455
O6 P3 1.530353 1_555
O7 P2 1.530353 1_555
O8 P1 1.530353 1_555
O9 P0 1.530353 1_555
O10 P0 1.513721 1_555
O11 P1 1.513721 1_555
O12 P2 1.513721 1_555
O13 P3 1.513721 1_555
F0 Mn0 1.881489 1_555
F0 Na6 2.341018 1_655
F0 Na0 2.382956 1_555
F1 Mn0 1.881489 1_556
F1 Na6 2.341018 1_555
F1 Na1 2.382956 1_555
F2 Mn1 1.881489 1_555
F2 Na7 2.341018 1_555
F2 Na0 2.382956 1_555
F3 Mn1 1.881489 1_555
F3 Na7 2.341018 1_656
F3 Na1 2.382956 1_555
F4 Mn2 1.897445 1_656
F4 Na2 2.358384 1_655
F4 Na7 2.457506 1_656
F4 Na4 2.521863 1_555
F5 Mn2 1.897445 1_565
F5 Na3 2.358384 1_555
F5 Na7 2.457506 1_555
F5 Na5 2.521863 1_555
F6 Mn3 1.897445 1_555
F6 Na2 2.358384 1_555
F6 Na6 2.457506 1_555
F6 Na4 2.521863 1_555
F7 Mn3 1.897445 1_665
F7 Na3 2.358384 1_655
F7 Na6 2.457506 1_655
F7 Na5 2.521863 1_555
F8 Mn0 1.919057 1_556
F8 Na7 2.334310 1_556
F8 Na2 2.347888 1_555
F8 Na0 2.482345 1_556
F9 Mn0 1.919057 1_555
F9 Na7 2.334310 1_655
F9 Na3 2.347888 1_655
F9 Na1 2.482345 1_554
F10 Mn1 1.919057 1_555
F10 Na6 2.334310 1_655
F10 Na2 2.347888 1_655
F10 Na0 2.482345 1_555
F11 Mn1 1.919057 1_555
F11 Na6 2.334310 1_555
F11 Na3 2.347888 1_555
F11 Na1 2.482345 1_555
