# generated using pymatgen
data_HfBRh3
_symmetry_space_group_name_H-M   'P 1'
_cell_length_a   4.09526278
_cell_length_b   4.09526278
_cell_length_c   4.09526278
_cell_angle_alpha   90.00000000
_cell_angle_beta   90.00000000
_cell_angle_gamma   90.00000000
_symmetry_Int_Tables_number   1
_chemical_formula_structural   HfBRh3
_chemical_formula_sum   'Hf1 B1 Rh3'
_cell_volume   68.68237792
_cell_formula_units_Z   1
loop_
 _symmetry_equiv_pos_site_id
 _symmetry_equiv_pos_as_xyz
  1  'x, y, z'
loop_
 _atom_site_type_symbol
 _atom_site_label
 _atom_site_symmetry_multiplicity
 _atom_site_fract_x
 _atom_site_fract_y
 _atom_site_fract_z
 _atom_site_occupancy
  Hf  Hf0  1  -0.00000000  0.00000000  0.00000000  1
  B  B0  1  0.50000000  0.50000000  0.50000000  1
  Rh  Rh0  1  0.00000000  0.50000000  0.50000000  1
  Rh  Rh1  1  0.50000000  0.50000000  0.00000000  1
  Rh  Rh2  1  0.50000000  0.00000000  0.50000000  1
loop_
_geom_bond_atom_site_label_1
_geom_bond_atom_site_label_2
_geom_bond_distance
_geom_bond_site_symmetry_2
Hf0 Rh2 2.895788 1_454
Hf0 Rh1 2.895788 1_455
Hf0 Rh0 2.895788 1_544
Hf0 Rh1 2.895788 1_555
Hf0 Rh1 2.895788 1_445
Hf0 Rh2 2.895788 1_455
Hf0 Rh2 2.895788 1_554
Hf0 Rh0 2.895788 1_545
Hf0 Rh1 2.895788 1_545
Hf0 Rh0 2.895788 1_555
Hf0 Rh0 2.895788 1_554
Hf0 Rh2 2.895788 1_555
B0 Rh0 2.047631 1_655
B0 Rh1 2.047631 1_555
B0 Rh1 2.047631 1_556
B0 Rh2 2.047631 1_565
B0 Rh0 2.047631 1_555
B0 Rh2 2.047631 1_555
