# generated using pymatgen
data_Yb2(SiPt)3
_symmetry_space_group_name_H-M   'P 1'
_cell_length_a   2.77894600
_cell_length_b   2.77894600
_cell_length_c   20.33308300
_cell_angle_alpha   90.00000000
_cell_angle_beta   90.00000000
_cell_angle_gamma   90.00000000
_symmetry_Int_Tables_number   1
_chemical_formula_structural   Yb2(SiPt)3
_chemical_formula_sum   'Yb2 Si3 Pt3'
_cell_volume   157.02306450
_cell_formula_units_Z   1
loop_
 _symmetry_equiv_pos_site_id
 _symmetry_equiv_pos_as_xyz
  1  'x, y, z'
loop_
 _atom_site_type_symbol
 _atom_site_label
 _atom_site_symmetry_multiplicity
 _atom_site_fract_x
 _atom_site_fract_y
 _atom_site_fract_z
 _atom_site_occupancy
  Yb  Yb0  1  0.50000000  0.50000000  0.75590600  1
  Yb  Yb1  1  0.50000000  0.50000000  0.24409400  1
  Si  Si0  1  0.50000000  0.50000000  0.38365600  1
  Si  Si1  1  0.50000000  0.50000000  0.61634400  1
  Si  Si2  1  0.50000000  0.50000000  0.00000000  1
  Pt  Pt0  1  0.50000000  0.50000000  0.11379100  1
  Pt  Pt1  1  0.50000000  0.50000000  0.88620900  1
  Pt  Pt2  1  0.50000000  0.50000000  0.50000000  1
loop_
_geom_bond_atom_site_label_1
_geom_bond_atom_site_label_2
_geom_bond_distance
_geom_bond_site_symmetry_2
Si0 Yb1 2.837726 1_555
Si1 Yb0 2.837726 1_555
Pt0 Si2 2.313722 1_555
Pt0 Yb1 2.649462 1_555
Pt1 Si2 2.313722 1_556
Pt1 Yb0 2.649462 1_555
Pt2 Si0 2.365632 1_555
Pt2 Si1 2.365632 1_555
