# generated using pymatgen
data_Mn4Te3N2
_symmetry_space_group_name_H-M   'P 1'
_cell_length_a   6.42331362
_cell_length_b   10.67982085
_cell_length_c   9.72626554
_cell_angle_alpha   90.00000000
_cell_angle_beta   90.00000000
_cell_angle_gamma   90.00000000
_symmetry_Int_Tables_number   1
_chemical_formula_structural   Mn4Te3N2
_chemical_formula_sum   'Mn16 Te12 N8'
_cell_volume   667.22024744
_cell_formula_units_Z   4
loop_
 _symmetry_equiv_pos_site_id
 _symmetry_equiv_pos_as_xyz
  1  'x, y, z'
loop_
 _atom_site_type_symbol
 _atom_site_label
 _atom_site_symmetry_multiplicity
 _atom_site_fract_x
 _atom_site_fract_y
 _atom_site_fract_z
 _atom_site_occupancy
  Mn  Mn0  1  0.65509847  0.25000000  0.94159745  1
  Mn  Mn1  1  0.15509847  0.25000000  0.55840255  1
  Mn  Mn2  1  0.34490153  0.75000000  0.05840255  1
  Mn  Mn3  1  0.84490153  0.75000000  0.44159745  1
  Mn  Mn4  1  0.80839192  0.25000000  0.42696279  1
  Mn  Mn5  1  0.30839192  0.25000000  0.07303721  1
  Mn  Mn6  1  0.19160808  0.75000000  0.57303721  1
  Mn  Mn7  1  0.69160808  0.75000000  0.92696279  1
  Mn  Mn8  1  0.69603815  0.49177936  0.06048113  1
  Mn  Mn9  1  0.19603815  0.00822064  0.43951887  1
  Mn  Mn10  1  0.30396185  0.99177936  0.93951887  1
  Mn  Mn11  1  0.80396185  0.50822064  0.56048113  1
  Mn  Mn12  1  0.30396185  0.50822064  0.93951887  1
  Mn  Mn13  1  0.80396185  0.99177936  0.56048113  1
  Mn  Mn14  1  0.69603815  0.00822064  0.06048113  1
  Mn  Mn15  1  0.19603815  0.49177936  0.43951887  1
  Te  Te0  1  0.90964221  0.25000000  0.15598189  1
  Te  Te1  1  0.40964221  0.25000000  0.34401811  1
  Te  Te2  1  0.09035779  0.75000000  0.84401811  1
  Te  Te3  1  0.59035779  0.75000000  0.65598189  1
  Te  Te4  1  0.57441727  0.57080491  0.33042714  1
  Te  Te5  1  0.07441727  0.92919509  0.16957286  1
  Te  Te6  1  0.42558273  0.07080491  0.66957286  1
  Te  Te7  1  0.92558273  0.42919509  0.83042714  1
  Te  Te8  1  0.42558273  0.42919509  0.66957286  1
  Te  Te9  1  0.92558273  0.07080491  0.83042714  1
  Te  Te10  1  0.57441727  0.92919509  0.33042714  1
  Te  Te11  1  0.07441727  0.57080491  0.16957286  1
  N  N0  1  0.52711910  0.61981876  0.98424484  1
  N  N1  1  0.02711910  0.88018124  0.51575516  1
  N  N2  1  0.47288090  0.11981876  0.01575516  1
  N  N3  1  0.97288090  0.38018124  0.48424484  1
  N  N4  1  0.47288090  0.38018124  0.01575516  1
  N  N5  1  0.97288090  0.11981876  0.48424484  1
  N  N6  1  0.52711910  0.88018124  0.98424484  1
  N  N7  1  0.02711910  0.61981876  0.51575516  1
loop_
_geom_bond_atom_site_label_1
_geom_bond_atom_site_label_2
_geom_bond_distance
_geom_bond_site_symmetry_2
Mn0 N2 1.955285 1_556
Mn0 N4 1.955285 1_556
Mn0 Te0 2.649748 1_556
Mn0 Te9 2.801829 1_555
Mn0 Te7 2.801829 1_555
Mn1 N5 1.955285 1_455
Mn1 N3 1.955285 1_455
Mn1 Te1 2.649748 1_555
Mn1 Te8 2.801829 1_555
Mn1 Te6 2.801829 1_555
Mn2 N6 1.955285 1_554
Mn2 N0 1.955285 1_554
Mn2 Te2 2.649748 1_554
Mn2 Te5 2.801829 1_555
Mn2 Te11 2.801829 1_555
Mn3 N1 1.955285 1_655
Mn3 N7 1.955285 1_655
Mn3 Te3 2.649748 1_555
Mn3 Te10 2.801829 1_555
Mn3 Te4 2.801829 1_555
Mn4 N5 1.832949 1_555
Mn4 N3 1.832949 1_555
Mn4 Te1 2.685342 1_555
Mn4 Te0 2.714688 1_555
Mn5 N2 1.832949 1_555
Mn5 N4 1.832949 1_555
Mn5 Te0 2.685342 1_455
Mn5 Te1 2.714688 1_555
Mn6 N1 1.832949 1_555
Mn6 N7 1.832949 1_555
Mn6 Te3 2.685342 1_555
Mn6 Te2 2.714688 1_555
Mn7 N6 1.832949 1_555
Mn7 N0 1.832949 1_555
Mn7 Te2 2.685342 1_655
Mn7 Te3 2.714688 1_555
Mn8 N0 1.896568 1_554
Mn8 N4 1.914263 1_555
Mn8 Te7 2.761777 1_554
Mn8 Te11 2.783023 1_655
Mn8 Te4 2.866389 1_555
Mn8 Te0 3.068037 1_555
Mn9 N1 1.896568 1_545
Mn9 N5 1.914263 1_455
Mn9 Te6 2.761777 1_555
Mn9 Te10 2.783023 1_545
Mn9 Te5 2.866389 1_545
Mn9 Te1 3.068037 1_555
Mn10 N2 1.896568 1_566
Mn10 N6 1.914263 1_555
Mn10 Te5 2.761777 1_556
Mn10 Te9 2.783023 1_465
Mn10 Te6 2.866389 1_565
Mn10 Te2 3.068037 1_555
Mn11 N3 1.896568 1_555
Mn11 N7 1.914263 1_655
Mn11 Te4 2.761777 1_555
Mn11 Te8 2.783023 1_555
Mn11 Te7 2.866389 1_555
Mn11 Te3 3.068037 1_555
Mn12 N4 1.896568 1_556
Mn12 N0 1.914263 1_555
Mn12 Te11 2.761777 1_556
Mn12 Te7 2.783023 1_455
Mn12 Te8 2.866389 1_555
Mn12 Te2 3.068037 1_555
Mn13 N5 1.896568 1_565
Mn13 N1 1.914263 1_655
Mn13 Te10 2.761777 1_555
Mn13 Te6 2.783023 1_565
Mn13 Te9 2.866389 1_565
Mn13 Te3 3.068037 1_555
Mn14 N6 1.896568 1_544
Mn14 N2 1.914263 1_555
Mn14 Te9 2.761777 1_554
Mn14 Te5 2.783023 1_645
Mn14 Te10 2.866389 1_545
Mn14 Te0 3.068037 1_555
Mn15 N7 1.896568 1_555
Mn15 N3 1.914263 1_455
Mn15 Te8 2.761777 1_555
Mn15 Te4 2.783023 1_555
Mn15 Te11 2.866389 1_555
Mn15 Te1 3.068037 1_555
