# generated using pymatgen
data_MgMn6(PO4)6
_symmetry_space_group_name_H-M   'P 1'
_cell_length_a   8.97888017
_cell_length_b   8.71516764
_cell_length_c   8.81985705
_cell_angle_alpha   110.94577116
_cell_angle_beta   106.37238002
_cell_angle_gamma   105.70045223
_symmetry_Int_Tables_number   1
_chemical_formula_structural   MgMn6(PO4)6
_chemical_formula_sum   'Mg1 Mn6 P6 O24'
_cell_volume   562.81410525
_cell_formula_units_Z   1
loop_
 _symmetry_equiv_pos_site_id
 _symmetry_equiv_pos_as_xyz
  1  'x, y, z'
loop_
 _atom_site_type_symbol
 _atom_site_label
 _atom_site_symmetry_multiplicity
 _atom_site_fract_x
 _atom_site_fract_y
 _atom_site_fract_z
 _atom_site_occupancy
  Mg  Mg0  1  0.10840000  0.88095800  0.74905500  1
  Mn  Mn0  1  0.05235600  0.44924900  0.26273400  1
  Mn  Mn1  1  0.22907500  0.04581000  0.45485500  1
  Mn  Mn2  1  0.73019400  0.95595300  0.54239500  1
  Mn  Mn3  1  0.54688400  0.76963300  0.91387200  1
  Mn  Mn4  1  0.48006800  0.28320300  0.05654300  1
  Mn  Mn5  1  0.92868900  0.51263000  0.75308800  1
  P  P0  1  0.59068000  0.39933400  0.78347100  1
  P  P1  1  0.09801700  0.26104400  0.88410500  1
  P  P2  1  0.86256200  0.08029100  0.29004400  1
  P  P3  1  0.29919100  0.89445500  0.07284300  1
  P  P4  1  0.79181300  0.57635500  0.39114400  1
  P  P5  1  0.36089700  0.78625400  0.57927100  1
  O  O0  1  0.40826100  0.29184000  0.64219900  1
  O  O1  1  0.89372000  0.63079200  0.59412500  1
  O  O2  1  0.92869500  0.59154600  0.31408700  1
  O  O3  1  0.42449900  0.80507300  0.05962400  1
  O  O4  1  0.29150400  0.31746900  0.93720400  1
  O  O5  1  0.75111400  0.97505200  0.08334200  1
  O  O6  1  0.54690100  0.90432700  0.63505800  1
  O  O7  1  0.30504700  0.96364200  0.25743800  1
  O  O8  1  0.99830400  0.05468800  0.74718400  1
  O  O9  1  0.27529300  0.64467900  0.37755900  1
  O  O10  1  0.75261900  0.08275200  0.39522800  1
  O  O11  1  0.98687100  0.99845900  0.34238300  1
  O  O12  1  0.34935800  0.68722100  0.69556400  1
  O  O13  1  0.25507000  0.90299900  0.61198500  1
  O  O14  1  0.96313200  0.27843600  0.33364500  1
  O  O15  1  0.71404300  0.70830800  0.38005200  1
  O  O16  1  0.71594700  0.33936800  0.70956200  1
  O  O17  1  0.11439200  0.76250700  0.92003500  1
  O  O18  1  0.05225500  0.37354100  0.79296900  1
  O  O19  1  0.65306900  0.37949000  0.29313900  1
  O  O20  1  0.65265800  0.60490700  0.84293700  1
  O  O21  1  0.33399000  0.04359600  0.00852300  1
  O  O22  1  0.61917600  0.36788700  0.95198100  1
  O  O23  1  0.05439900  0.29396200  0.04560600  1
loop_
_geom_bond_atom_site_label_1
_geom_bond_atom_site_label_2
_geom_bond_distance
_geom_bond_site_symmetry_2
Mg0 O8 2.022044 1_465
Mg0 O13 2.039465 1_555
Mg0 O17 2.107144 1_555
Mg0 O1 2.108736 1_455
Mg0 O21 2.205164 1_566
Mn0 O14 1.884613 1_455
Mn0 O2 1.898185 1_455
Mn0 O23 1.918205 1_555
Mn0 O9 1.926692 1_555
Mn1 O11 1.972095 1_445
Mn1 O0 2.004358 1_555
Mn1 O7 2.013050 1_545
Mn1 O13 2.175380 1_545
Mn2 O10 1.999741 1_565
Mn2 O6 2.049230 1_555
Mn2 O15 2.057523 1_555
Mn2 O8 2.261509 1_565
Mn3 O5 1.888562 1_556
Mn3 O3 1.910934 1_556
Mn3 O12 1.940460 1_555
Mn3 O20 1.945542 1_555
Mn4 O4 1.886091 1_554
Mn4 O22 1.895358 1_554
Mn4 O19 1.920087 1_555
Mn4 O21 1.957676 1_555
Mn5 O18 1.907037 1_655
Mn5 O16 1.920250 1_555
Mn5 O17 2.012176 1_655
Mn5 O1 2.020859 1_555
O0 P0 1.515702 1_555
O1 P4 1.581666 1_555
O2 P4 1.561140 1_555
O3 P3 1.539375 1_555
O4 P1 1.547138 1_555
O5 P2 1.563812 1_565
O6 P5 1.528024 1_555
O7 P3 1.499917 1_555
O8 P1 1.568604 1_655
O9 P5 1.557130 1_555
O10 P2 1.532684 1_555
O11 P2 1.530768 1_565
O12 P5 1.565931 1_555
O13 P5 1.577742 1_555
O14 P2 1.559120 1_555
O15 P4 1.515320 1_555
O16 P0 1.565580 1_555
O17 P3 1.578141 1_556
O18 P1 1.539955 1_555
O19 P4 1.555181 1_555
O20 P0 1.555196 1_555
O21 P3 1.586259 1_545
O22 P0 1.569798 1_555
O23 P1 1.532248 1_554
