# generated using pymatgen
data_CaNiMoP2O9
_symmetry_space_group_name_H-M   'P 1'
_cell_length_a   6.61341600
_cell_length_b   7.63707900
_cell_length_c   14.45964900
_cell_angle_alpha   90.00000000
_cell_angle_beta   90.00000000
_cell_angle_gamma   90.00000000
_symmetry_Int_Tables_number   1
_chemical_formula_structural   CaNiMoP2O9
_chemical_formula_sum   'Ca4 Ni4 Mo4 P8 O36'
_cell_volume   730.31610131
_cell_formula_units_Z   4
loop_
 _symmetry_equiv_pos_site_id
 _symmetry_equiv_pos_as_xyz
  1  'x, y, z'
loop_
 _atom_site_type_symbol
 _atom_site_label
 _atom_site_symmetry_multiplicity
 _atom_site_fract_x
 _atom_site_fract_y
 _atom_site_fract_z
 _atom_site_occupancy
  Ca  Ca0  1  0.25000000  0.38767400  0.28144400  1
  Ca  Ca1  1  0.25000000  0.11232600  0.78144400  1
  Ca  Ca2  1  0.75000000  0.61232600  0.71855600  1
  Ca  Ca3  1  0.75000000  0.88767400  0.21855600  1
  Ni  Ni0  1  0.00000000  0.50000000  0.50000000  1
  Ni  Ni1  1  0.00000000  0.00000000  0.00000000  1
  Ni  Ni2  1  0.50000000  0.00000000  0.00000000  1
  Ni  Ni3  1  0.50000000  0.50000000  0.50000000  1
  Mo  Mo0  1  0.25000000  0.84952200  0.38294300  1
  Mo  Mo1  1  0.75000000  0.15047800  0.61705700  1
  Mo  Mo2  1  0.75000000  0.34952200  0.11705700  1
  Mo  Mo3  1  0.25000000  0.65047800  0.88294300  1
  P  P0  1  0.75000000  0.84514000  0.43531500  1
  P  P1  1  0.25000000  0.15486000  0.56468500  1
  P  P2  1  0.25000000  0.34514000  0.06468500  1
  P  P3  1  0.75000000  0.65486000  0.93531500  1
  P  P4  1  0.25000000  0.88717900  0.18958500  1
  P  P5  1  0.75000000  0.11282100  0.81041500  1
  P  P6  1  0.75000000  0.38717900  0.31041500  1
  P  P7  1  0.25000000  0.61282100  0.68958500  1
  O  O0  1  0.55399000  0.10714000  0.86766400  1
  O  O1  1  0.05399000  0.89286000  0.13233600  1
  O  O2  1  0.44601000  0.60714000  0.63233600  1
  O  O3  1  0.94601000  0.39286000  0.36766400  1
  O  O4  1  0.44601000  0.89286000  0.13233600  1
  O  O5  1  0.94601000  0.10714000  0.86766400  1
  O  O6  1  0.55399000  0.39286000  0.36766400  1
  O  O7  1  0.05399000  0.60714000  0.63233600  1
  O  O8  1  0.75000000  0.83402300  0.98315000  1
  O  O9  1  0.25000000  0.16597700  0.01685000  1
  O  O10  1  0.25000000  0.33402300  0.51685000  1
  O  O11  1  0.75000000  0.66597700  0.48315000  1
  O  O12  1  0.25000000  0.63020000  0.44290900  1
  O  O13  1  0.75000000  0.36980000  0.55709100  1
  O  O14  1  0.75000000  0.13020000  0.05709100  1
  O  O15  1  0.25000000  0.86980000  0.94290900  1
  O  O16  1  0.25000000  0.71697600  0.25253600  1
  O  O17  1  0.75000000  0.28302400  0.74746400  1
  O  O18  1  0.75000000  0.21697600  0.24746400  1
  O  O19  1  0.25000000  0.78302400  0.75253600  1
  O  O20  1  0.93179800  0.63371900  0.86843800  1
  O  O21  1  0.43179800  0.36628100  0.13156200  1
  O  O22  1  0.06820200  0.13371900  0.63156200  1
  O  O23  1  0.56820200  0.86628100  0.36843800  1
  O  O24  1  0.06820200  0.36628100  0.13156200  1
  O  O25  1  0.56820200  0.63371900  0.86843800  1
  O  O26  1  0.93179800  0.86628100  0.36843800  1
  O  O27  1  0.43179800  0.13371900  0.63156200  1
  O  O28  1  0.25000000  0.46555000  0.76645100  1
  O  O29  1  0.75000000  0.53445000  0.23354900  1
  O  O30  1  0.75000000  0.96555000  0.73354900  1
  O  O31  1  0.25000000  0.03445000  0.26645100  1
  O  O32  1  0.25000000  0.48639400  0.98946300  1
  O  O33  1  0.75000000  0.51360600  0.01053700  1
  O  O34  1  0.75000000  0.98639400  0.51053700  1
  O  O35  1  0.25000000  0.01360600  0.48946300  1
loop_
_geom_bond_atom_site_label_1
_geom_bond_atom_site_label_2
_geom_bond_distance
_geom_bond_site_symmetry_2
Ca0 O6 2.365928 1_555
Ca0 O3 2.365928 1_455
Ca0 O24 2.483781 1_555
Ca0 O21 2.483781 1_555
Ca0 O16 2.549406 1_555
Ca0 O31 2.706297 1_555
Ca1 O0 2.365928 1_555
Ca1 O5 2.365928 1_455
Ca1 O27 2.483781 1_555
Ca1 O22 2.483781 1_555
Ca1 O19 2.549406 1_545
Ca1 O28 2.706297 1_555
Ca2 O2 2.365928 1_555
Ca2 O7 2.365928 1_655
Ca2 O25 2.483781 1_555
Ca2 O20 2.483781 1_555
Ca2 O17 2.549406 1_555
Ca2 O30 2.706297 1_555
Ca3 O4 2.365928 1_555
Ca3 O1 2.365928 1_655
Ca3 O26 2.483781 1_555
Ca3 O23 2.483781 1_555
Ca3 O18 2.549406 1_565
Ca3 O29 2.706297 1_555
Ni0 O10 2.097546 1_555
Ni0 O11 2.097546 1_455
Ni0 O12 2.098519 1_555
Ni0 O13 2.098519 1_455
Ni0 O7 2.111541 1_555
Ni0 O3 2.111541 1_455
Ni1 O9 2.097546 1_555
Ni1 O8 2.097546 1_444
Ni1 O15 2.098519 1_544
Ni1 O14 2.098519 1_455
Ni1 O5 2.111541 1_454
Ni1 O1 2.111541 1_545
Ni2 O9 2.097546 1_555
Ni2 O8 2.097546 1_544
Ni2 O15 2.098519 1_544
Ni2 O14 2.098519 1_555
Ni2 O4 2.111541 1_545
Ni2 O0 2.111541 1_554
Ni3 O10 2.097546 1_555
Ni3 O11 2.097546 1_555
Ni3 O12 2.098519 1_555
Ni3 O13 2.098519 1_555
Ni3 O2 2.111541 1_555
Ni3 O6 2.111541 1_555
Mo0 O12 1.886106 1_555
Mo0 O35 1.985613 1_565
Mo0 O23 2.118698 1_555
Mo0 O26 2.118698 1_455
Mo0 O16 2.140167 1_555
Mo0 O31 2.198166 1_565
Mo1 O13 1.886106 1_555
Mo1 O34 1.985613 1_545
Mo1 O27 2.118698 1_555
Mo1 O22 2.118698 1_655
Mo1 O17 2.140167 1_555
Mo1 O30 2.198166 1_545
Mo2 O14 1.886106 1_555
Mo2 O33 1.985613 1_555
Mo2 O21 2.118698 1_555
Mo2 O24 2.118698 1_655
Mo2 O18 2.140167 1_555
Mo2 O29 2.198166 1_555
Mo3 O15 1.886106 1_555
Mo3 O32 1.985613 1_555
Mo3 O20 2.118698 1_455
Mo3 O25 2.118698 1_555
Mo3 O19 2.140167 1_555
Mo3 O28 2.198166 1_555
O0 P5 1.538674 1_555
O1 P4 1.538674 1_555
O2 P7 1.538674 1_555
O3 P6 1.538674 1_555
O4 P4 1.538674 1_555
O5 P5 1.538674 1_555
O6 P6 1.538674 1_555
O7 P7 1.538674 1_555
O8 P3 1.533171 1_555
O9 P2 1.533171 1_555
O10 P1 1.533171 1_555
O11 P0 1.533171 1_555
O16 P4 1.586875 1_555
O17 P5 1.586875 1_555
O18 P6 1.586875 1_555
O19 P7 1.586875 1_555
O20 P3 1.551364 1_555
O21 P2 1.551364 1_555
O22 P1 1.551364 1_555
O23 P0 1.551364 1_555
O24 P2 1.551364 1_555
O25 P3 1.551364 1_555
O26 P0 1.551364 1_555
O27 P1 1.551364 1_555
O28 P7 1.581243 1_555
O29 P6 1.581243 1_555
O30 P5 1.581243 1_565
O31 P4 1.581243 1_545
O32 P2 1.531926 1_556
O33 P3 1.531926 1_554
O34 P0 1.531926 1_555
O35 P1 1.531926 1_555
