# generated using pymatgen
data_Sm4Ti4S4O9
_symmetry_space_group_name_H-M   'P 1'
_cell_length_a   9.25769995
_cell_length_b   9.25769995
_cell_length_c   12.79964597
_cell_angle_alpha   47.37885516
_cell_angle_beta   47.37885516
_cell_angle_gamma   23.08310261
_symmetry_Int_Tables_number   1
_chemical_formula_structural   Sm4Ti4S4O9
_chemical_formula_sum   'Sm4 Ti4 S4 O9'
_cell_volume   310.84509445
_cell_formula_units_Z   1
loop_
 _symmetry_equiv_pos_site_id
 _symmetry_equiv_pos_as_xyz
  1  'x, y, z'
loop_
 _atom_site_type_symbol
 _atom_site_label
 _atom_site_symmetry_multiplicity
 _atom_site_fract_x
 _atom_site_fract_y
 _atom_site_fract_z
 _atom_site_occupancy
  Sm  Sm0  1  0.86672800  0.86672800  0.82367800  1
  Sm  Sm1  1  0.14105000  0.14105000  0.16065000  1
  Sm  Sm2  1  0.15634300  0.15634300  0.68951900  1
  Sm  Sm3  1  0.84275800  0.84275800  0.31198200  1
  Ti  Ti0  1  0.88043100  0.88043100  0.54195600  1
  Ti  Ti1  1  0.11639100  0.11639100  0.46520200  1
  Ti  Ti2  1  0.43536300  0.43536300  0.96656300  1
  Ti  Ti3  1  0.56459500  0.56459500  0.03207000  1
  S  S0  1  0.29545800  0.29545800  0.73031000  1
  S  S1  1  0.68921400  0.68921400  0.28424700  1
  S  S2  1  0.46089500  0.46089500  0.34961300  1
  S  S3  1  0.54442200  0.54442200  0.65855900  1
  O  O0  1  0.76805600  0.76805600  0.55930100  1
  O  O1  1  0.23297300  0.23297300  0.43976100  1
  O  O2  1  0.58994000  0.58994000  0.86478000  1
  O  O3  1  0.40915900  0.40915900  0.13640200  1
  O  O4  1  0.32266800  0.32266800  0.97567800  1
  O  O5  1  0.67952200  0.67952200  0.01794800  1
  O  O6  1  0.96094100  0.96094100  0.90538800  1
  O  O7  1  0.03733000  0.03733000  0.09855400  1
  O  O8  1  0.98426000  0.98426000  0.54043800  1
loop_
_geom_bond_atom_site_label_1
_geom_bond_atom_site_label_2
_geom_bond_distance
_geom_bond_site_symmetry_2
S0 Ti0 2.546072 1_455
S0 Ti0 2.546072 1_545
S0 Sm2 2.909107 1_555
S0 Sm0 2.943886 1_545
S0 Sm0 2.943886 1_455
S1 Ti1 2.512231 1_655
S1 Ti1 2.512231 1_565
S1 Sm1 2.933882 1_565
S1 Sm1 2.933882 1_655
S1 Sm3 3.041632 1_555
S2 Ti0 2.579797 1_545
S2 Ti0 2.579797 1_455
S2 Sm1 3.005952 1_565
S2 Sm1 3.005952 1_655
S2 Ti3 3.080561 1_555
S2 Sm3 3.111707 1_455
S2 Sm3 3.111707 1_545
S3 Ti1 2.606583 1_565
S3 Ti1 2.606583 1_655
S3 Ti2 2.945371 1_555
S3 Sm2 2.970257 1_565
S3 Sm2 2.970257 1_655
S3 Sm0 2.978567 1_545
S3 Sm0 2.978567 1_455
O0 Ti0 1.891977 1_555
O0 Sm2 2.376349 1_655
O0 Sm2 2.376349 1_565
O0 Sm3 2.434700 1_555
O1 Ti1 1.904460 1_555
O1 Sm3 2.360069 1_545
O1 Sm3 2.360069 1_455
O1 Sm2 2.451403 1_555
O2 Ti3 1.853517 1_556
O2 Ti2 2.123914 1_555
O2 Sm2 2.485773 1_565
O2 Sm2 2.485773 1_655
O3 Ti2 1.877052 1_554
O3 Ti3 2.128262 1_555
O3 Sm3 2.488097 1_545
O3 Sm3 2.488097 1_455
O4 Ti2 1.965579 1_555
O4 Sm1 2.382950 1_556
O4 Sm0 2.388606 1_455
O4 Sm0 2.388606 1_545
O5 Ti3 1.964317 1_555
O5 Sm1 2.343537 1_565
O5 Sm1 2.343537 1_655
O5 Sm0 2.458454 1_554
O6 Ti2 1.938326 1_565
O6 Ti2 1.938326 1_655
O6 Sm0 2.546698 1_555
O6 Sm2 2.581024 1_665
O7 Ti3 1.953944 1_545
O7 Ti3 1.953944 1_455
O7 Sm1 2.497845 1_555
O7 Sm3 2.567767 1_445
O8 Ti1 1.866093 1_665
O8 Ti0 1.870188 1_555
O8 Sm0 2.646670 1_555
