# generated using pymatgen
data_Cs7LiAu5O2
_symmetry_space_group_name_H-M   'P 1'
_cell_length_a   6.23942169
_cell_length_b   9.92547064
_cell_length_c   10.52101893
_cell_angle_alpha   118.14452187
_cell_angle_beta   102.99043924
_cell_angle_gamma   90.00000292
_symmetry_Int_Tables_number   1
_chemical_formula_structural   Cs7LiAu5O2
_chemical_formula_sum   'Cs7 Li1 Au5 O2'
_cell_volume   555.53580889
_cell_formula_units_Z   1
loop_
 _symmetry_equiv_pos_site_id
 _symmetry_equiv_pos_as_xyz
  1  'x, y, z'
loop_
 _atom_site_type_symbol
 _atom_site_label
 _atom_site_symmetry_multiplicity
 _atom_site_fract_x
 _atom_site_fract_y
 _atom_site_fract_z
 _atom_site_occupancy
  Cs  Cs0  1  0.80318800  0.59177900  0.66987800  1
  Cs  Cs1  1  0.54115600  0.78873700  0.03735800  1
  Cs  Cs2  1  0.80318800  0.07810000  0.66987800  1
  Cs  Cs3  1  0.16464300  0.37923900  0.34152900  1
  Cs  Cs4  1  0.16464300  0.96228900  0.34152900  1
  Cs  Cs5  1  0.54115600  0.24862000  0.03735800  1
  Cs  Cs6  1  0.04784400  0.50665700  0.01331400  1
  Li  Li0  1  0.20173800  0.89526400  0.79052900  1
  Au  Au0  1  0.57703200  0.66703600  0.33407200  1
  Au  Au1  1  0.35178500  0.78493200  0.56986200  1
  Au  Au2  1  0.02196500  0.99792100  0.99584100  1
  Au  Au3  1  0.39497600  0.36558300  0.73116500  1
  Au  Au4  1  0.67767000  0.18637400  0.37275000  1
  O  O0  1  0.02638300  0.79326300  0.99746800  1
  O  O1  1  0.02638300  0.20420500  0.99746800  1
loop_
_geom_bond_atom_site_label_1
_geom_bond_atom_site_label_2
_geom_bond_distance
_geom_bond_site_symmetry_2
Cs0 O0 3.026107 1_655
Cs1 O0 3.147401 1_554
Cs1 O0 3.151690 1_654
Cs2 O1 3.026108 1_655
Cs3 O1 3.086931 1_554
Cs4 O0 3.086931 1_554
Cs5 O1 3.147400 1_554
Cs5 O1 3.151689 1_654
Cs6 O1 2.928381 1_554
Cs6 O0 2.928381 1_554
Au0 Au1 2.885734 1_555
Au0 Cs1 3.807585 1_555
Au0 Cs5 3.807592 1_555
Au0 Cs6 3.840212 1_555
Au0 Cs4 3.884414 1_555
Au0 Cs3 3.884421 1_555
Au0 Cs0 3.908923 1_555
Au0 Cs2 3.908929 1_565
Au1 Li0 2.458537 1_555
Au2 O1 2.039582 1_565
Au2 O0 2.039591 1_555
Au2 Li0 2.444438 1_555
Au3 Cs0 3.748005 1_555
Au3 Cs2 3.748005 1_555
Au3 Cs6 3.799078 1_556
Au3 Cs1 3.842460 1_556
Au3 Cs5 3.842474 1_556
Au3 Cs3 4.094402 1_555
Au3 Cs4 4.094412 1_545
Au3 Cs6 4.243641 1_656
Au3 Cs2 4.402896 1_455
Au3 Cs0 4.402896 1_455
Au4 Cs2 3.689088 1_555
Au4 Cs0 3.689109 1_555
Au4 Cs4 3.747835 1_645
Au4 Cs3 3.747840 1_655
Au4 Cs4 3.760206 1_545
Au4 Cs3 3.760212 1_555
Au4 Cs1 3.776781 1_545
Au4 Cs5 3.776787 1_555
