# generated using pymatgen
data_NbCr2
_symmetry_space_group_name_H-M   'P 1'
_cell_length_a   4.89781482
_cell_length_b   4.89781482
_cell_length_c   16.01010447
_cell_angle_alpha   90.00000000
_cell_angle_beta   90.00000000
_cell_angle_gamma   120.00018588
_symmetry_Int_Tables_number   1
_chemical_formula_structural   NbCr2
_chemical_formula_sum   'Nb8 Cr16'
_cell_volume   332.60494833
_cell_formula_units_Z   8
loop_
 _symmetry_equiv_pos_site_id
 _symmetry_equiv_pos_as_xyz
  1  'x, y, z'
loop_
 _atom_site_type_symbol
 _atom_site_label
 _atom_site_symmetry_multiplicity
 _atom_site_fract_x
 _atom_site_fract_y
 _atom_site_fract_z
 _atom_site_occupancy
  Nb  Nb0  1  0.00000530  0.99999470  0.59476703  1
  Nb  Nb1  1  0.99999470  0.00000530  0.40523297  1
  Nb  Nb2  1  0.99999470  0.00000530  0.09476703  1
  Nb  Nb3  1  0.00000530  0.99999470  0.90523297  1
  Nb  Nb4  1  0.66666024  0.33333976  0.34376729  1
  Nb  Nb5  1  0.33333976  0.66666024  0.65623271  1
  Nb  Nb6  1  0.33333976  0.66666024  0.84376729  1
  Nb  Nb7  1  0.66666024  0.33333976  0.15623271  1
  Cr  Cr0  1  0.66667552  0.33332548  0.62332399  1
  Cr  Cr1  1  0.33332448  0.66667452  0.37667601  1
  Cr  Cr2  1  0.33332448  0.66667452  0.12332399  1
  Cr  Cr3  1  0.66667552  0.33332548  0.87667601  1
  Cr  Cr4  1  0.50000000  0.00000000  0.50000000  1
  Cr  Cr5  1  0.50000000  0.50000000  0.50000000  1
  Cr  Cr6  1  -0.00000000  0.50000000  0.50000000  1
  Cr  Cr7  1  0.50000000  0.00000000  -0.00000000  1
  Cr  Cr8  1  0.50000000  0.50000000  -0.00000000  1
  Cr  Cr9  1  -0.00000000  0.50000000  -0.00000000  1
  Cr  Cr10  1  0.83566622  0.67132099  0.75000000  1
  Cr  Cr11  1  0.83566673  0.16433327  0.75000000  1
  Cr  Cr12  1  0.32867901  0.16433378  0.75000000  1
  Cr  Cr13  1  0.16433378  0.32867901  0.25000000  1
  Cr  Cr14  1  0.16433327  0.83566673  0.25000000  1
  Cr  Cr15  1  0.67132099  0.83566622  0.25000000  1
loop_
_geom_bond_atom_site_label_1
_geom_bond_atom_site_label_2
_geom_bond_distance
_geom_bond_site_symmetry_2
Nb0 Nb5 2.994084 1_455
Nb0 Nb5 2.994084 1_565
Nb0 Nb5 2.994105 1_555
Nb0 Nb1 3.034460 1_465
Nb1 Nb4 2.994084 1_545
Nb1 Nb4 2.994084 1_655
Nb1 Nb4 2.994105 1_555
Nb2 Nb7 2.994084 1_545
Nb2 Nb7 2.994084 1_655
Nb2 Nb7 2.994105 1_555
Nb2 Nb3 3.034460 1_644
Nb3 Nb6 2.994084 1_455
Nb3 Nb6 2.994084 1_565
Nb3 Nb6 2.994105 1_555
Nb4 Nb7 3.002448 1_555
Nb5 Nb6 3.002448 1_555
Cr0 Cr6 2.428438 1_655
Cr0 Cr4 2.428440 1_555
Cr0 Cr5 2.428503 1_555
Cr0 Cr11 2.483624 1_555
Cr0 Cr10 2.483652 1_555
Cr0 Cr12 2.483654 1_555
Cr0 Nb0 2.864454 1_645
Cr0 Nb0 2.864482 1_655
Cr0 Nb0 2.864487 1_545
Cr0 Nb5 2.876404 1_655
Cr0 Nb5 2.876409 1_545
Cr0 Nb5 2.876438 1_555
Cr1 Cr6 2.428438 1_555
Cr1 Cr4 2.428440 1_565
Cr1 Cr5 2.428503 1_555
Cr1 Cr14 2.483624 1_555
Cr1 Cr13 2.483652 1_555
Cr1 Cr15 2.483654 1_555
Cr1 Nb1 2.864454 1_465
Cr1 Nb1 2.864482 1_455
Cr1 Nb1 2.864487 1_565
Cr1 Nb4 2.876404 1_455
Cr1 Nb4 2.876409 1_565
Cr1 Nb4 2.876438 1_555
Cr2 Cr9 2.428438 1_555
Cr2 Cr7 2.428440 1_565
Cr2 Cr8 2.428503 1_555
Cr2 Nb2 2.864454 1_465
Cr2 Nb2 2.864482 1_455
Cr2 Nb2 2.864487 1_565
Cr2 Nb7 2.876404 1_455
Cr2 Nb7 2.876409 1_565
Cr2 Nb7 2.876438 1_555
Cr3 Cr9 2.428438 1_656
Cr3 Cr7 2.428440 1_556
Cr3 Cr8 2.428503 1_556
Cr3 Nb3 2.864454 1_645
Cr3 Nb3 2.864482 1_655
Cr3 Nb3 2.864487 1_545
Cr3 Nb6 2.876404 1_655
Cr3 Nb6 2.876409 1_545
Cr3 Nb6 2.876438 1_555
Cr4 Cr6 2.448901 1_655
Cr4 Cr6 2.448901 1_545
Cr4 Cr5 2.448907 1_555
Cr4 Cr5 2.448907 1_545
Cr4 Nb4 2.873261 1_555
Cr4 Nb5 2.873261 1_545
Cr4 Nb1 2.880789 1_555
Cr4 Nb0 2.880789 1_545
Cr4 Nb0 2.880855 1_645
Cr4 Nb1 2.880855 1_455
Cr5 Cr6 2.448907 1_655
Cr5 Cr6 2.448907 1_555
Cr5 Nb4 2.873223 1_555
Cr5 Nb5 2.873223 1_555
Cr5 Nb0 2.880816 1_655
Cr5 Nb1 2.880816 1_565
Cr5 Nb0 2.880816 1_545
Cr5 Nb1 2.880816 1_455
Cr6 Nb4 2.873261 1_455
Cr6 Nb5 2.873261 1_555
Cr6 Nb0 2.880789 1_555
Cr6 Nb1 2.880789 1_455
Cr6 Nb1 2.880855 1_465
Cr6 Nb0 2.880855 1_545
Cr7 Cr9 2.448901 1_545
Cr7 Cr9 2.448901 1_655
Cr7 Cr8 2.448907 1_555
Cr7 Cr8 2.448907 1_545
Cr7 Nb6 2.873261 1_544
Cr7 Nb7 2.873261 1_555
Cr7 Nb2 2.880789 1_555
Cr7 Nb3 2.880789 1_544
Cr7 Nb3 2.880855 1_644
Cr7 Nb2 2.880855 1_455
Cr8 Cr9 2.448907 1_555
Cr8 Cr9 2.448907 1_655
Cr8 Nb6 2.873223 1_554
Cr8 Nb7 2.873223 1_555
Cr8 Nb2 2.880816 1_565
Cr8 Nb3 2.880816 1_654
Cr8 Nb3 2.880816 1_544
Cr8 Nb2 2.880816 1_455
Cr9 Nb6 2.873261 1_554
Cr9 Nb7 2.873261 1_455
Cr9 Nb3 2.880789 1_554
Cr9 Nb2 2.880789 1_455
Cr9 Nb2 2.880855 1_465
Cr9 Nb3 2.880855 1_544
Cr10 Cr12 2.414679 1_665
Cr10 Cr11 2.414682 1_565
Cr10 Cr12 2.483122 1_555
Cr10 Cr11 2.483133 1_555
Cr10 Cr3 2.483652 1_555
Cr10 Nb0 2.849604 1_655
Cr10 Nb3 2.849604 1_655
Cr10 Nb5 2.872476 1_555
Cr10 Nb6 2.872476 1_555
Cr10 Nb5 2.872509 1_655
Cr10 Nb6 2.872509 1_655
Cr11 Cr12 2.414682 1_655
Cr11 Cr12 2.483133 1_555
Cr11 Cr3 2.483624 1_555
Cr11 Nb3 2.849613 1_645
Cr11 Nb0 2.849613 1_645
Cr11 Nb5 2.872486 1_655
Cr11 Nb5 2.872486 1_545
Cr11 Nb6 2.872486 1_655
Cr11 Nb6 2.872486 1_545
Cr12 Cr3 2.483654 1_555
Cr12 Nb0 2.849604 1_545
Cr12 Nb3 2.849604 1_545
Cr12 Nb5 2.872476 1_555
Cr12 Nb6 2.872476 1_555
Cr12 Nb5 2.872509 1_545
Cr12 Nb6 2.872509 1_545
Cr13 Cr15 2.414679 1_445
Cr13 Cr14 2.414682 1_545
Cr13 Cr15 2.483122 1_555
Cr13 Cr14 2.483133 1_555
Cr13 Cr2 2.483652 1_555
Cr13 Nb2 2.849604 1_455
Cr13 Nb1 2.849604 1_455
Cr13 Nb7 2.872476 1_555
Cr13 Nb4 2.872476 1_555
Cr13 Nb7 2.872509 1_455
Cr13 Nb4 2.872509 1_455
Cr14 Cr15 2.414682 1_455
Cr14 Cr15 2.483133 1_555
Cr14 Cr2 2.483624 1_555
Cr14 Nb2 2.849613 1_465
Cr14 Nb1 2.849613 1_465
Cr14 Nb7 2.872486 1_565
Cr14 Nb4 2.872486 1_565
Cr14 Nb7 2.872486 1_455
Cr14 Nb4 2.872486 1_455
Cr15 Cr2 2.483654 1_555
Cr15 Nb2 2.849604 1_565
Cr15 Nb1 2.849604 1_565
Cr15 Nb4 2.872476 1_555
Cr15 Nb7 2.872476 1_555
Cr15 Nb4 2.872509 1_565
Cr15 Nb7 2.872509 1_565
