# generated using pymatgen
data_Zn3CrN3
_symmetry_space_group_name_H-M   'P 1'
_cell_length_a   6.58154218
_cell_length_b   6.58421336
_cell_length_c   4.51802300
_cell_angle_alpha   90.00000000
_cell_angle_beta   90.00000000
_cell_angle_gamma   120.01151000
_symmetry_Int_Tables_number   1
_chemical_formula_structural   Zn3CrN3
_chemical_formula_sum   'Zn6 Cr2 N6'
_cell_volume   169.53534388
_cell_formula_units_Z   2
loop_
 _symmetry_equiv_pos_site_id
 _symmetry_equiv_pos_as_xyz
  1  'x, y, z'
loop_
 _atom_site_type_symbol
 _atom_site_label
 _atom_site_symmetry_multiplicity
 _atom_site_fract_x
 _atom_site_fract_y
 _atom_site_fract_z
 _atom_site_occupancy
  Zn  Zn0  1  0.81820700  0.63619200  0.25000000  1
  Zn  Zn1  1  0.81806300  0.18183700  0.25000000  1
  Zn  Zn2  1  0.36377900  0.18194900  0.25000000  1
  Zn  Zn3  1  0.18179300  0.36380800  0.75000000  1
  Zn  Zn4  1  0.18193700  0.81816300  0.75000000  1
  Zn  Zn5  1  0.63622100  0.81805100  0.75000000  1
  Cr  Cr0  1  0.66688400  0.33360900  0.75000000  1
  Cr  Cr1  1  0.33311600  0.66639100  0.25000000  1
  N  N0  1  0.82221800  0.64437200  0.75000000  1
  N  N1  1  0.82194600  0.17786700  0.75000000  1
  N  N2  1  0.35576100  0.17796700  0.75000000  1
  N  N3  1  0.17778200  0.35562800  0.25000000  1
  N  N4  1  0.17805400  0.82213300  0.25000000  1
  N  N5  1  0.64423900  0.82203300  0.25000000  1
loop_
_geom_bond_atom_site_label_1
_geom_bond_atom_site_label_2
_geom_bond_distance
_geom_bond_site_symmetry_2
Cr0 N0 1.771795 1_555
Cr0 N1 1.771980 1_555
Cr0 N2 1.773128 1_555
Cr1 N3 1.771795 1_555
Cr1 N4 1.771980 1_555
Cr1 N5 1.773128 1_555
N0 Zn4 2.050470 1_655
N0 Zn5 2.050992 1_555
N0 Zn0 2.259493 1_555
N0 Zn0 2.259493 1_556
N1 Zn3 2.051196 1_655
N1 Zn5 2.051808 1_545
N1 Zn1 2.259455 1_555
N1 Zn1 2.259455 1_556
N2 Zn3 2.051759 1_555
N2 Zn4 2.051807 1_545
N2 Zn2 2.259474 1_555
N2 Zn2 2.259474 1_556
N3 Zn1 2.050470 1_455
N3 Zn2 2.050992 1_555
N3 Zn3 2.259493 1_554
N3 Zn3 2.259493 1_555
N4 Zn0 2.051196 1_455
N4 Zn2 2.051808 1_565
N4 Zn4 2.259455 1_555
N4 Zn4 2.259455 1_554
N5 Zn0 2.051759 1_555
N5 Zn1 2.051807 1_565
N5 Zn5 2.259474 1_554
N5 Zn5 2.259474 1_555
