# generated using pymatgen
data_Cs4Si3O8
_symmetry_space_group_name_H-M   'P 1'
_cell_length_a   9.53710100
_cell_length_b   11.33601391
_cell_length_c   13.68069295
_cell_angle_alpha   101.53540936
_cell_angle_beta   100.69981692
_cell_angle_gamma   114.10554384
_symmetry_Int_Tables_number   1
_chemical_formula_structural   Cs4Si3O8
_chemical_formula_sum   'Cs16 Si12 O32'
_cell_volume   1262.32657996
_cell_formula_units_Z   4
loop_
 _symmetry_equiv_pos_site_id
 _symmetry_equiv_pos_as_xyz
  1  'x, y, z'
loop_
 _atom_site_type_symbol
 _atom_site_label
 _atom_site_symmetry_multiplicity
 _atom_site_fract_x
 _atom_site_fract_y
 _atom_site_fract_z
 _atom_site_occupancy
  Cs  Cs0  1  0.60663200  0.26876900  0.75077200  1
  Cs  Cs1  1  0.39336800  0.73123100  0.24922800  1
  Cs  Cs2  1  0.95925500  0.72826300  0.24349900  1
  Cs  Cs3  1  0.04074500  0.27173700  0.75650100  1
  Cs  Cs4  1  0.38167500  0.90037500  0.82886100  1
  Cs  Cs5  1  0.61832500  0.09962500  0.17113900  1
  Cs  Cs6  1  0.93256700  0.90097600  0.82891700  1
  Cs  Cs7  1  0.06743300  0.09902400  0.17108300  1
  Cs  Cs8  1  0.60973300  0.92400200  0.59091800  1
  Cs  Cs9  1  0.39026700  0.07599800  0.40908200  1
  Cs  Cs10  1  0.37536400  0.25823900  0.99379100  1
  Cs  Cs11  1  0.62463600  0.74176100  0.00620900  1
  Cs  Cs12  1  0.92588800  0.54539000  0.64053400  1
  Cs  Cs13  1  0.07411200  0.45461000  0.35946600  1
  Cs  Cs14  1  0.42970100  0.55685800  0.65714900  1
  Cs  Cs15  1  0.57029900  0.44314200  0.34285100  1
  Si  Si0  1  0.81828500  0.95149200  0.35726000  1
  Si  Si1  1  0.18171500  0.04850800  0.64274000  1
  Si  Si2  1  0.19143400  0.79112600  0.52173900  1
  Si  Si3  1  0.80856600  0.20887400  0.47826100  1
  Si  Si4  1  0.86618700  0.79531500  0.51611400  1
  Si  Si5  1  0.13381300  0.20468500  0.48388600  1
  Si  Si6  1  0.19564900  0.59868100  0.93475500  1
  Si  Si7  1  0.80435100  0.40131900  0.06524500  1
  Si  Si8  1  0.80709800  0.14089700  0.94223600  1
  Si  Si9  1  0.19290200  0.85910300  0.05776400  1
  Si  Si10  1  0.87430400  0.59923700  0.92756300  1
  Si  Si11  1  0.12569600  0.40076300  0.07243700  1
  O  O0  1  0.98316100  0.94753600  0.60615400  1
  O  O1  1  0.01683900  0.05246400  0.39384600  1
  O  O2  1  0.78603900  0.82514800  0.41000500  1
  O  O3  1  0.21396100  0.17485200  0.58999500  1
  O  O4  1  0.74625700  0.89091700  0.23336500  1
  O  O5  1  0.25374300  0.10908300  0.76663500  1
  O  O6  1  0.26364000  0.95919500  0.58810500  1
  O  O7  1  0.73636000  0.04080500  0.41189500  1
  O  O8  1  0.74974500  0.21791800  0.58132700  1
  O  O9  1  0.25025500  0.78208200  0.41867300  1
  O  O10  1  0.23895600  0.71565200  0.60016100  1
  O  O11  1  0.76104400  0.28434800  0.39983900  1
  O  O12  1  0.98745200  0.73281600  0.48431000  1
  O  O13  1  0.01254800  0.26718400  0.51569000  1
  O  O14  1  0.73023800  0.69767600  0.55596100  1
  O  O15  1  0.26976200  0.30232400  0.44403900  1
  O  O16  1  0.99726900  0.54281300  0.88717900  1
  O  O17  1  0.00273100  0.45718700  0.11282100  1
  O  O18  1  0.77974100  0.49909900  0.99363600  1
  O  O19  1  0.22025900  0.50090100  0.00636400  1
  O  O20  1  0.27845200  0.59367900  0.84425800  1
  O  O21  1  0.72154800  0.40632100  0.15574200  1
  O  O22  1  0.72811300  0.24647600  0.98156400  1
  O  O23  1  0.27188700  0.75352400  0.01843600  1
  O  O24  1  0.75020200  0.08671200  0.81634100  1
  O  O25  1  0.24979800  0.91328800  0.18365900  1
  O  O26  1  0.76629700  0.02655700  0.00087100  1
  O  O27  1  0.23370300  0.97344300  0.99912900  1
  O  O28  1  0.99000900  0.75255000  0.01438400  1
  O  O29  1  0.00999100  0.24745000  0.98561600  1
  O  O30  1  0.74890900  0.59802800  0.83196700  1
  O  O31  1  0.25109100  0.40197200  0.16803300  1
loop_
_geom_bond_atom_site_label_1
_geom_bond_atom_site_label_2
_geom_bond_distance
_geom_bond_site_symmetry_2
Cs0 O8 2.975232 1_555
Cs0 O24 3.087288 1_555
Cs0 O5 3.178471 1_555
Cs0 O22 3.251960 1_555
Cs0 O30 3.263686 1_555
Cs0 O18 3.399233 1_555
Cs0 O16 3.557936 1_555
Cs0 O3 3.569880 1_555
Cs0 O6 3.572778 1_545
Cs1 O9 2.975232 1_555
Cs1 O25 3.087288 1_555
Cs1 O4 3.178471 1_555
Cs1 O23 3.251960 1_555
Cs1 O31 3.263686 1_555
Cs1 O19 3.399233 1_555
Cs1 O17 3.557936 1_555
Cs1 O2 3.569880 1_555
Cs1 O7 3.572778 1_565
Cs2 O9 3.062709 1_655
Cs2 O25 3.086951 1_655
Cs2 O21 3.221600 1_555
Cs2 O12 3.243477 1_555
Cs2 O4 3.256178 1_555
Cs2 O28 3.256866 1_555
Cs2 O2 3.317069 1_555
Cs2 O17 3.453943 1_655
Cs2 O18 3.465091 1_554
Cs2 O1 3.598271 1_665
Cs3 O8 3.062709 1_455
Cs3 O24 3.086951 1_455
Cs3 O20 3.221600 1_555
Cs3 O13 3.243477 1_555
Cs3 O5 3.256178 1_555
Cs3 O29 3.256866 1_555
Cs3 O3 3.317069 1_555
Cs3 O16 3.453943 1_455
Cs3 O19 3.465091 1_556
Cs3 O0 3.598271 1_445
Cs4 O10 3.081713 1_555
Cs4 O27 3.083418 1_555
Cs4 O5 3.254026 1_565
Cs4 O20 3.267289 1_555
Cs4 O24 3.338883 1_565
Cs4 O23 3.450396 1_556
Cs4 O26 3.493100 1_566
Cs4 O6 3.560202 1_555
Cs4 O22 3.774137 1_565
Cs5 O11 3.081713 1_555
Cs5 O26 3.083418 1_555
Cs5 O4 3.254026 1_545
Cs5 O21 3.267289 1_555
Cs5 O25 3.338883 1_545
Cs5 O22 3.450396 1_554
Cs5 O27 3.493100 1_544
Cs5 O7 3.560202 1_555
Cs5 O23 3.774137 1_545
Cs6 O27 3.028190 1_655
Cs6 O30 3.167738 1_555
Cs6 O24 3.242327 1_565
Cs6 O0 3.283338 1_555
Cs6 O28 3.393129 1_556
Cs6 O5 3.397702 1_665
Cs6 O26 3.459035 1_566
Cs6 O14 3.637178 1_555
Cs7 O26 3.028190 1_455
Cs7 O31 3.167738 1_555
Cs7 O25 3.242327 1_545
Cs7 O1 3.283338 1_555
Cs7 O29 3.393129 1_554
Cs7 O4 3.397702 1_445
Cs7 O27 3.459035 1_544
Cs7 O15 3.637178 1_555
Cs8 O24 2.979932 1_565
Cs8 O8 3.083370 1_565
Cs8 O14 3.202171 1_555
Cs8 O7 3.209224 1_565
Cs8 O9 3.297482 1_555
Cs8 O10 3.400296 1_555
Cs8 O0 3.424084 1_555
Cs8 O6 3.477070 1_555
Cs8 O2 3.490546 1_555
Cs9 O25 2.979932 1_545
Cs9 O9 3.083370 1_545
Cs9 O15 3.202171 1_555
Cs9 O6 3.209224 1_545
Cs9 O8 3.297482 1_555
Cs9 O11 3.400296 1_555
Cs9 O1 3.424084 1_555
Cs9 O7 3.477070 1_555
Cs9 O3 3.490546 1_555
Cs10 O5 2.969815 1_555
Cs10 O27 2.970120 1_545
Cs10 O21 3.145858 1_556
Cs10 O31 3.288602 1_556
Cs10 O29 3.416372 1_555
Cs10 O22 3.453997 1_555
Cs10 O19 3.607473 1_556
Cs10 O18 3.705719 1_555
Cs11 O4 2.969815 1_555
Cs11 O26 2.970120 1_565
Cs11 O20 3.145858 1_554
Cs11 O30 3.288602 1_554
Cs11 O28 3.416372 1_555
Cs11 O23 3.453997 1_555
Cs11 O18 3.607473 1_554
Cs11 O19 3.705719 1_555
Cs12 O10 3.045744 1_655
Cs12 O14 3.229386 1_555
Cs12 O8 3.233726 1_555
Cs12 O12 3.269541 1_555
Cs12 O16 3.324563 1_555
Cs12 O30 3.450054 1_555
Cs12 O11 3.528708 1_555
Cs12 O20 3.712138 1_655
Cs12 O13 3.747703 1_655
Cs13 O11 3.045744 1_455
Cs13 O15 3.229386 1_555
Cs13 O9 3.233726 1_555
Cs13 O13 3.269541 1_555
Cs13 O17 3.324563 1_555
Cs13 O31 3.450054 1_555
Cs13 O10 3.528708 1_555
Cs13 O21 3.712138 1_455
Cs13 O12 3.747703 1_455
Cs14 O10 3.141175 1_555
Cs14 O20 3.200473 1_555
Cs14 O15 3.246749 1_555
Cs14 O30 3.300762 1_555
Cs14 O14 3.361509 1_555
Cs15 O11 3.141175 1_555
Cs15 O21 3.200473 1_555
Cs15 O14 3.246749 1_555
Cs15 O31 3.300762 1_555
Cs15 O15 3.361509 1_555
O0 Si1 1.671810 1_665
O0 Si4 1.675315 1_555
O1 Si0 1.671810 1_445
O1 Si5 1.675315 1_555
O2 Si4 1.673736 1_555
O2 Si0 1.674075 1_555
O3 Si5 1.673736 1_555
O3 Si1 1.674075 1_555
O4 Si0 1.591596 1_555
O5 Si1 1.591596 1_555
O6 Si1 1.659689 1_565
O6 Si2 1.712533 1_555
O7 Si0 1.659689 1_545
O7 Si3 1.712533 1_555
O8 Si3 1.611283 1_555
O9 Si2 1.611283 1_555
O10 Si2 1.609896 1_555
O11 Si3 1.609896 1_555
O12 Si4 1.661825 1_555
O12 Si2 1.711153 1_655
O13 Si5 1.661825 1_555
O13 Si3 1.711153 1_455
O14 Si4 1.592128 1_555
O15 Si5 1.592128 1_555
O16 Si10 1.673803 1_555
O16 Si6 1.674336 1_655
O17 Si11 1.673803 1_555
O17 Si7 1.674336 1_455
O18 Si10 1.672089 1_555
O18 Si7 1.674777 1_556
O19 Si11 1.672089 1_555
O19 Si6 1.674777 1_554
O20 Si6 1.590970 1_555
O21 Si7 1.590970 1_555
O22 Si7 1.662850 1_556
O22 Si8 1.708435 1_555
O23 Si6 1.662850 1_554
O23 Si9 1.708435 1_555
O24 Si8 1.611135 1_555
O25 Si9 1.611135 1_555
O26 Si8 1.610801 1_554
O27 Si9 1.610801 1_556
O28 Si10 1.664373 1_554
O28 Si9 1.712650 1_655
O29 Si11 1.664373 1_556
O29 Si8 1.712650 1_455
O30 Si10 1.593564 1_555
O31 Si11 1.593564 1_555
