# generated using pymatgen
data_SrCaHfCoO6
_symmetry_space_group_name_H-M   'P 1'
_cell_length_a   5.63642050
_cell_length_b   5.63642050
_cell_length_c   5.63642050
_cell_angle_alpha   60.00000000
_cell_angle_beta   60.00000000
_cell_angle_gamma   60.00000000
_symmetry_Int_Tables_number   1
_chemical_formula_structural   SrCaHfCoO6
_chemical_formula_sum   'Sr1 Ca1 Hf1 Co1 O6'
_cell_volume   126.61791578
_cell_formula_units_Z   1
loop_
 _symmetry_equiv_pos_site_id
 _symmetry_equiv_pos_as_xyz
  1  'x, y, z'
loop_
 _atom_site_type_symbol
 _atom_site_label
 _atom_site_symmetry_multiplicity
 _atom_site_fract_x
 _atom_site_fract_y
 _atom_site_fract_z
 _atom_site_occupancy
  Sr  Sr0  1  0.25000000  0.25000000  0.25000000  1
  Ca  Ca0  1  0.75000000  0.75000000  0.75000000  1
  Hf  Hf0  1  0.50000000  0.50000000  0.50000000  1
  Co  Co0  1  0.00000000  0.00000000  -0.00000000  1
  O  O0  1  0.75665637  0.24334363  0.24334363  1
  O  O1  1  0.24334363  0.75665637  0.75665637  1
  O  O2  1  0.75665637  0.24334363  0.75665637  1
  O  O3  1  0.24334363  0.75665637  0.24334363  1
  O  O4  1  0.75665637  0.75665637  0.24334363  1
  O  O5  1  0.24334363  0.24334363  0.75665637  1
loop_
_geom_bond_atom_site_label_1
_geom_bond_atom_site_label_2
_geom_bond_distance
_geom_bond_site_symmetry_2
Ca0 O5 2.818710 1_565
Ca0 O2 2.818710 1_555
Ca0 O3 2.818710 1_556
Ca0 O2 2.818710 1_565
Ca0 O0 2.818710 1_556
Ca0 O4 2.818710 1_555
Ca0 O1 2.818710 1_555
Ca0 O4 2.818710 1_556
Ca0 O0 2.818710 1_565
Ca0 O3 2.818710 1_655
Ca0 O1 2.818710 1_655
Ca0 O5 2.818710 1_655
Hf0 O5 2.045834 1_555
Hf0 O3 2.045834 1_555
Hf0 O2 2.045834 1_555
Hf0 O0 2.045834 1_555
Hf0 O4 2.045834 1_555
Hf0 O1 2.045834 1_555
Co0 O0 1.939717 1_455
Co0 O3 1.939717 1_545
Co0 O5 1.939717 1_554
Co0 O4 1.939717 1_445
Co0 O1 1.939717 1_544
Co0 O2 1.939717 1_454
O0 Sr0 2.818710 1_555
O0 Sr0 2.818710 1_655
O1 Sr0 2.818710 1_556
O1 Sr0 2.818710 1_565
O2 Sr0 2.818710 1_556
O2 Sr0 2.818710 1_655
O3 Sr0 2.818710 1_555
O3 Sr0 2.818710 1_565
O4 Sr0 2.818710 1_565
O4 Sr0 2.818710 1_655
O5 Sr0 2.818710 1_555
O5 Sr0 2.818710 1_556
