# generated using pymatgen
data_Li3Mn(PO4)2
_symmetry_space_group_name_H-M   'P 1'
_cell_length_a   4.99412452
_cell_length_b   12.61545290
_cell_length_c   4.85680897
_cell_angle_alpha   88.21679238
_cell_angle_beta   68.33343024
_cell_angle_gamma   92.53098241
_symmetry_Int_Tables_number   1
_chemical_formula_structural   Li3Mn(PO4)2
_chemical_formula_sum   'Li6 Mn2 P4 O16'
_cell_volume   283.72693453
_cell_formula_units_Z   2
loop_
 _symmetry_equiv_pos_site_id
 _symmetry_equiv_pos_as_xyz
  1  'x, y, z'
loop_
 _atom_site_type_symbol
 _atom_site_label
 _atom_site_symmetry_multiplicity
 _atom_site_fract_x
 _atom_site_fract_y
 _atom_site_fract_z
 _atom_site_occupancy
  Li  Li0  1  0.99944200  0.00009800  0.00059200  1
  Li  Li1  1  0.99923200  0.50011000  0.00083200  1
  Li  Li2  1  0.31480800  0.11191400  0.33555700  1
  Li  Li3  1  0.31667200  0.61200700  0.33415100  1
  Li  Li4  1  0.68279800  0.38791300  0.66619500  1
  Li  Li5  1  0.68465900  0.88798100  0.66466500  1
  Mn  Mn0  1  0.00094000  0.74988200  0.99897400  1
  Mn  Mn1  1  0.99939400  0.25029100  0.00088100  1
  P  P0  1  0.34668000  0.36882300  0.35000700  1
  P  P1  1  0.34839600  0.86857400  0.34866700  1
  P  P2  1  0.65214900  0.13142500  0.65085800  1
  P  P3  1  0.65328800  0.63116400  0.64996800  1
  O  O0  1  0.23545200  0.96643200  0.25046800  1
  O  O1  1  0.23429300  0.46666900  0.25101100  1
  O  O2  1  0.76563200  0.53328600  0.74892200  1
  O  O3  1  0.76469800  0.03354200  0.74923600  1
  O  O4  1  0.23906100  0.26571200  0.24005500  1
  O  O5  1  0.23956500  0.76548300  0.23943200  1
  O  O6  1  0.76063100  0.23448500  0.76046200  1
  O  O7  1  0.76116800  0.73428000  0.75986800  1
  O  O8  1  0.68093200  0.37220700  0.24636100  1
  O  O9  1  0.68287600  0.87204900  0.24379600  1
  O  O10  1  0.76477500  0.13898200  0.29754200  1
  O  O11  1  0.76586600  0.63878500  0.29687900  1
  O  O12  1  0.23413600  0.36117700  0.70298900  1
  O  O13  1  0.23634100  0.86094800  0.70185200  1
  O  O14  1  0.31779100  0.12800700  0.75558300  1
  O  O15  1  0.31893100  0.62777500  0.75359500  1
loop_
_geom_bond_atom_site_label_1
_geom_bond_atom_site_label_2
_geom_bond_distance
_geom_bond_site_symmetry_2
Li0 O0 2.027517 1_645
Li0 O3 2.027595 1_554
Li0 O9 2.186539 1_545
Li0 O14 2.191903 1_654
Li0 O10 2.369355 1_555
Li0 O13 2.379260 1_644
Li1 O1 2.024248 1_655
Li1 O2 2.024427 1_554
Li1 O8 2.192369 1_555
Li1 O15 2.195861 1_654
Li1 O11 2.363365 1_555
Li1 O12 2.372145 1_654
Li2 O0 1.949399 1_545
Li2 O14 2.061779 1_555
Li2 O4 2.064249 1_555
Li2 O10 2.196019 1_555
Li3 O1 1.948377 1_555
Li3 O15 2.057111 1_555
Li3 O5 2.061527 1_555
Li3 O11 2.192902 1_555
Li4 O2 1.948721 1_555
Li4 O8 2.058178 1_555
Li4 O6 2.061510 1_555
Li4 O12 2.190924 1_555
Li5 O3 1.950360 1_565
Li5 O9 2.063393 1_555
Li5 O7 2.063890 1_555
Li5 O13 2.189059 1_555
Mn0 O7 1.959965 1_455
Mn0 O5 1.960641 1_556
Mn0 O13 1.975781 1_555
Mn0 O11 1.977422 1_456
Mn0 O9 2.290828 1_456
Mn0 O15 2.290859 1_555
Mn1 O4 1.959595 1_655
Mn1 O6 1.961292 1_554
Mn1 O12 1.975151 1_654
Mn1 O10 1.975568 1_555
Mn1 O8 2.290517 1_555
Mn1 O14 2.293430 1_654
O0 P1 1.514323 1_555
O1 P0 1.514397 1_555
O2 P3 1.514529 1_555
O3 P2 1.513919 1_555
O4 P0 1.568285 1_555
O5 P1 1.568985 1_555
O6 P2 1.568787 1_555
O7 P3 1.568776 1_555
O8 P0 1.553593 1_555
O9 P1 1.554217 1_555
O10 P2 1.594507 1_555
O11 P3 1.593487 1_555
O12 P0 1.593008 1_555
O13 P1 1.594053 1_555
O14 P2 1.553708 1_555
O15 P3 1.554098 1_555
