# generated using pymatgen
data_CoH6(CO3)2
_symmetry_space_group_name_H-M   'P 1'
_cell_length_a   5.53328900
_cell_length_b   9.85240518
_cell_length_c   15.32640498
_cell_angle_alpha   105.46095435
_cell_angle_beta   90.00000000
_cell_angle_gamma   90.00000000
_symmetry_Int_Tables_number   1
_chemical_formula_structural   CoH6(CO3)2
_chemical_formula_sum   'Co6 H36 C12 O36'
_cell_volume   805.30129866
_cell_formula_units_Z   6
loop_
 _symmetry_equiv_pos_site_id
 _symmetry_equiv_pos_as_xyz
  1  'x, y, z'
loop_
 _atom_site_type_symbol
 _atom_site_label
 _atom_site_symmetry_multiplicity
 _atom_site_fract_x
 _atom_site_fract_y
 _atom_site_fract_z
 _atom_site_occupancy
  Co  Co0  1  0.62068500  0.04104200  0.17934000  1
  Co  Co1  1  0.12068500  0.95895800  0.32066000  1
  Co  Co2  1  0.37931500  0.95895800  0.82066000  1
  Co  Co3  1  0.87931500  0.04104200  0.67934000  1
  Co  Co4  1  0.50000000  0.50000000  0.50000000  1
  Co  Co5  1  0.00000000  0.50000000  0.00000000  1
  H  H0  1  0.74549300  0.17496600  0.05591300  1
  H  H1  1  0.24549300  0.82503400  0.44408700  1
  H  H2  1  0.25450700  0.82503400  0.94408700  1
  H  H3  1  0.75450700  0.17496600  0.55591300  1
  H  H4  1  0.72921200  0.01397600  0.99740300  1
  H  H5  1  0.22921200  0.98602400  0.50259700  1
  H  H6  1  0.27078800  0.98602400  0.00259700  1
  H  H7  1  0.77078800  0.01397600  0.49740300  1
  H  H8  1  0.14519400  0.05285500  0.15887700  1
  H  H9  1  0.64519400  0.94714500  0.34112300  1
  H  H10  1  0.85480600  0.94714500  0.84112300  1
  H  H11  1  0.35480600  0.05285500  0.65887700  1
  H  H12  1  0.25222300  0.20382100  0.16112000  1
  H  H13  1  0.75222300  0.79617900  0.33888000  1
  H  H14  1  0.74777700  0.79617900  0.83888000  1
  H  H15  1  0.24777700  0.20382100  0.66112000  1
  H  H16  1  0.59861600  0.17864600  0.42268100  1
  H  H17  1  0.09861600  0.82135400  0.07731900  1
  H  H18  1  0.40138400  0.82135400  0.57731900  1
  H  H19  1  0.90138400  0.17864600  0.92268100  1
  H  H20  1  0.06970400  0.62635600  0.47190600  1
  H  H21  1  0.56970400  0.37364400  0.02809400  1
  H  H22  1  0.93029600  0.37364400  0.52809400  1
  H  H23  1  0.43029600  0.62635600  0.97190600  1
  H  H24  1  0.20554700  0.56134800  0.37998400  1
  H  H25  1  0.70554700  0.43865200  0.12001600  1
  H  H26  1  0.79445300  0.43865200  0.62001600  1
  H  H27  1  0.29445300  0.56134800  0.87998400  1
  H  H28  1  0.14192200  0.45693200  0.20296500  1
  H  H29  1  0.64192200  0.54306800  0.29703500  1
  H  H30  1  0.85807800  0.54306800  0.79703500  1
  H  H31  1  0.35807800  0.45693200  0.70296500  1
  H  H32  1  0.98824700  0.35863700  0.24756600  1
  H  H33  1  0.48824700  0.64136300  0.25243400  1
  H  H34  1  0.01175300  0.64136300  0.75243400  1
  H  H35  1  0.51175300  0.35863700  0.74756600  1
  C  C0  1  0.47741600  0.18467000  0.36623400  1
  C  C1  1  0.97741600  0.81533000  0.13376600  1
  C  C2  1  0.52258400  0.81533000  0.63376600  1
  C  C3  1  0.02258400  0.18467000  0.86623400  1
  C  C4  1  0.60649100  0.29230700  0.32517500  1
  C  C5  1  0.10649100  0.70769300  0.17482500  1
  C  C6  1  0.39350900  0.70769300  0.67482500  1
  C  C7  1  0.89350900  0.29230700  0.82517500  1
  C  C8  1  0.23506100  0.23877400  0.41294300  1
  C  C9  1  0.73506100  0.76122600  0.08705700  1
  C  C10  1  0.76493900  0.76122600  0.58705700  1
  C  C11  1  0.26493900  0.23877400  0.91294300  1
  O  O0  1  0.76446200  0.07633100  0.05782200  1
  O  O1  1  0.26446200  0.92366900  0.44217800  1
  O  O2  1  0.23553800  0.92366900  0.94217800  1
  O  O3  1  0.73553800  0.07633100  0.55782200  1
  O  O4  1  0.27812600  0.10204000  0.13360200  1
  O  O5  1  0.77812600  0.89796000  0.36639800  1
  O  O6  1  0.72187400  0.89796000  0.86639800  1
  O  O7  1  0.22187400  0.10204000  0.63360200  1
  O  O8  1  0.45487400  0.05164600  0.30377800  1
  O  O9  1  0.95487400  0.94835400  0.19622200  1
  O  O10  1  0.54512600  0.94835400  0.69622200  1
  O  O11  1  0.04512600  0.05164600  0.80377800  1
  O  O12  1  0.70063200  0.24814100  0.24742900  1
  O  O13  1  0.20063200  0.75185900  0.25257100  1
  O  O14  1  0.29936800  0.75185900  0.75257100  1
  O  O15  1  0.79936800  0.24814100  0.74742900  1
  O  O16  1  0.62596900  0.42032300  0.37144500  1
  O  O17  1  0.12596900  0.57967700  0.12855500  1
  O  O18  1  0.37403100  0.57967700  0.62855500  1
  O  O19  1  0.87403100  0.42032300  0.87144500  1
  O  O20  1  0.04982800  0.16292500  0.39117100  1
  O  O21  1  0.54982800  0.83707500  0.10882900  1
  O  O22  1  0.95017200  0.83707500  0.60882900  1
  O  O23  1  0.45017200  0.16292500  0.89117100  1
  O  O24  1  0.22839200  0.35503200  0.47542700  1
  O  O25  1  0.72839200  0.64496800  0.02457300  1
  O  O26  1  0.77160800  0.64496800  0.52457300  1
  O  O27  1  0.27160800  0.35503200  0.97542700  1
  O  O28  1  0.22841900  0.62580500  0.44068000  1
  O  O29  1  0.72841900  0.37419500  0.05932000  1
  O  O30  1  0.77158100  0.37419500  0.55932000  1
  O  O31  1  0.27158100  0.62580500  0.94068000  1
  O  O32  1  0.15422400  0.39222600  0.24224800  1
  O  O33  1  0.65422400  0.60777400  0.25775200  1
  O  O34  1  0.84577600  0.60777400  0.75775200  1
  O  O35  1  0.34577600  0.39222600  0.74224800  1
loop_
_geom_bond_atom_site_label_1
_geom_bond_atom_site_label_2
_geom_bond_distance
_geom_bond_site_symmetry_2
Co0 O21 2.049896 1_545
Co0 O12 2.076721 1_555
Co0 O8 2.093756 1_555
Co0 O9 2.108617 1_545
Co0 O0 2.137218 1_555
Co0 O4 2.161024 1_555
Co1 O20 2.049896 1_565
Co1 O13 2.076721 1_555
Co1 O9 2.093756 1_455
Co1 O8 2.108617 1_565
Co1 O1 2.137218 1_555
Co1 O5 2.161024 1_455
Co2 O23 2.049896 1_565
Co2 O14 2.076721 1_555
Co2 O10 2.093756 1_555
Co2 O11 2.108617 1_565
Co2 O2 2.137218 1_555
Co2 O6 2.161024 1_555
Co3 O22 2.049896 1_545
Co3 O15 2.076721 1_555
Co3 O11 2.093756 1_655
Co3 O10 2.108617 1_545
Co3 O3 2.137218 1_555
Co3 O7 2.161024 1_655
Co4 O26 2.038063 1_555
Co4 O24 2.038063 1_555
Co4 O18 2.039477 1_555
Co4 O16 2.039477 1_555
Co4 O30 2.285153 1_555
Co4 O28 2.285153 1_555
Co5 O27 2.038063 1_554
Co5 O25 2.038063 1_455
Co5 O17 2.039477 1_555
Co5 O19 2.039477 1_454
Co5 O31 2.285153 1_554
Co5 O29 2.285153 1_455
H0 O0 0.985602 1_555
H1 O1 0.985602 1_555
H2 O2 0.985602 1_555
H3 O3 0.985602 1_555
H4 O0 0.984704 1_556
H5 O1 0.984704 1_555
H6 O2 0.984704 1_554
H7 O3 0.984704 1_555
H8 O4 1.012920 1_555
H8 O9 1.676559 1_445
H9 O5 1.012920 1_555
H9 O8 1.676559 1_565
H10 O6 1.012920 1_555
H10 O11 1.676559 1_665
H11 O7 1.012920 1_555
H11 O10 1.676559 1_545
H12 O4 0.989197 1_555
H13 O5 0.989197 1_555
H14 O6 0.989197 1_555
H15 O7 0.989197 1_555
H20 O28 0.999474 1_555
H21 O29 0.999474 1_555
H22 O30 0.999474 1_555
H23 O31 0.999474 1_555
H24 O28 0.984738 1_555
H25 O29 0.984738 1_555
H26 O30 0.984738 1_555
H27 O31 0.984738 1_555
H28 O32 0.989029 1_555
H29 O33 0.989029 1_555
H30 O34 0.989029 1_555
H31 O35 0.989029 1_555
H32 O32 0.986913 1_655
H33 O33 0.986913 1_555
H34 O34 0.986913 1_455
H35 O35 0.986913 1_555
C0 H16 1.108647 1_555
C0 O8 1.407356 1_555
C1 H17 1.108647 1_655
C1 O9 1.407356 1_555
C2 H18 1.108647 1_555
C2 O10 1.407356 1_555
C3 H19 1.108647 1_455
C3 O11 1.407356 1_555
C4 O12 1.266523 1_555
C4 O16 1.276098 1_555
C5 O13 1.266523 1_555
C5 O17 1.276098 1_555
C6 O14 1.266523 1_555
C6 O18 1.276098 1_555
C7 O15 1.266523 1_555
C7 O19 1.276098 1_555
C8 O20 1.259906 1_555
C8 O24 1.282816 1_555
C9 O21 1.259906 1_555
C9 O25 1.282816 1_555
C10 O22 1.259906 1_555
C10 O26 1.282816 1_555
C11 O23 1.259906 1_555
C11 O27 1.282816 1_555
