# generated using pymatgen
data_Ba2NdDyTi2Cu2O11
_symmetry_space_group_name_H-M   'P 1'
_cell_length_a   3.91282600
_cell_length_b   3.91282600
_cell_length_c   16.02111400
_cell_angle_alpha   90.00000000
_cell_angle_beta   90.00000000
_cell_angle_gamma   90.00000000
_symmetry_Int_Tables_number   1
_chemical_formula_structural   Ba2NdDyTi2Cu2O11
_chemical_formula_sum   'Ba2 Nd1 Dy1 Ti2 Cu2 O11'
_cell_volume   245.28657662
_cell_formula_units_Z   1
loop_
 _symmetry_equiv_pos_site_id
 _symmetry_equiv_pos_as_xyz
  1  'x, y, z'
loop_
 _atom_site_type_symbol
 _atom_site_label
 _atom_site_symmetry_multiplicity
 _atom_site_fract_x
 _atom_site_fract_y
 _atom_site_fract_z
 _atom_site_occupancy
  Ba  Ba0  1  0.50000000  0.50000000  0.26827700  1
  Ba  Ba1  1  0.50000000  0.50000000  0.73172300  1
  Nd  Nd0  1  0.50000000  0.50000000  0.00000000  1
  Dy  Dy0  1  0.50000000  0.50000000  0.50000000  1
  Ti  Ti0  1  0.00000000  0.00000000  0.12574900  1
  Ti  Ti1  1  0.00000000  0.00000000  0.87425100  1
  Cu  Cu0  1  0.00000000  0.00000000  0.39800600  1
  Cu  Cu1  1  0.00000000  0.00000000  0.60199400  1
  O  O0  1  0.00000000  0.00000000  0.24255600  1
  O  O1  1  0.00000000  0.00000000  0.75744400  1
  O  O2  1  0.00000000  0.50000000  0.11250700  1
  O  O3  1  0.00000000  0.50000000  0.88749300  1
  O  O4  1  0.50000000  0.00000000  0.11250700  1
  O  O5  1  0.50000000  0.00000000  0.88749300  1
  O  O6  1  0.00000000  0.00000000  0.00000000  1
  O  O7  1  0.00000000  0.50000000  0.40992300  1
  O  O8  1  0.00000000  0.50000000  0.59007700  1
  O  O9  1  0.50000000  0.00000000  0.40992300  1
  O  O10  1  0.50000000  0.00000000  0.59007700  1
loop_
_geom_bond_atom_site_label_1
_geom_bond_atom_site_label_2
_geom_bond_distance
_geom_bond_site_symmetry_2
Ba0 O0 2.797305 1_665
Ba0 O0 2.797305 1_555
Ba0 O0 2.797305 1_655
Ba0 O0 2.797305 1_565
Ba0 O7 2.996230 1_555
Ba0 O7 2.996230 1_655
Ba0 O9 2.996230 1_555
Ba0 O9 2.996230 1_565
Ba0 O4 3.171059 1_565
Ba0 O2 3.171059 1_555
Ba0 O2 3.171059 1_655
Ba0 O4 3.171059 1_555
Ba1 O1 2.797305 1_555
Ba1 O1 2.797305 1_655
Ba1 O1 2.797305 1_565
Ba1 O1 2.797305 1_665
Ba1 O8 2.996230 1_555
Ba1 O10 2.996230 1_555
Ba1 O8 2.996230 1_655
Ba1 O10 2.996230 1_565
Ba1 O5 3.171059 1_565
Ba1 O3 3.171059 1_555
Ba1 O5 3.171059 1_555
Ba1 O3 3.171059 1_655
Nd0 O5 2.660172 1_554
Nd0 O2 2.660172 1_555
Nd0 O3 2.660172 1_554
Nd0 O2 2.660172 1_655
Nd0 O4 2.660172 1_555
Nd0 O5 2.660172 1_564
Nd0 O4 2.660172 1_565
Nd0 O3 2.660172 1_654
Nd0 O6 2.766786 1_555
Nd0 O6 2.766786 1_665
Nd0 O6 2.766786 1_655
Nd0 O6 2.766786 1_565
Dy0 O10 2.431088 1_565
Dy0 O8 2.431088 1_555
Dy0 O10 2.431088 1_555
Dy0 O8 2.431088 1_655
Dy0 O9 2.431088 1_555
Dy0 O9 2.431088 1_565
Dy0 O7 2.431088 1_555
Dy0 O7 2.431088 1_655
Cu0 O9 1.965707 1_455
Cu0 O7 1.965707 1_545
Cu0 O9 1.965707 1_555
Cu0 O7 1.965707 1_555
Cu0 O0 2.490482 1_555
Cu1 O10 1.965707 1_555
Cu1 O10 1.965707 1_455
Cu1 O8 1.965707 1_545
Cu1 O8 1.965707 1_555
Cu1 O1 2.490482 1_555
O0 Ti0 1.871378 1_555
O1 Ti1 1.871378 1_555
O2 Ti0 1.967882 1_555
O2 Ti0 1.967882 1_565
O3 Ti1 1.967882 1_555
O3 Ti1 1.967882 1_565
O4 Ti0 1.967882 1_555
O4 Ti0 1.967882 1_655
O5 Ti1 1.967882 1_555
O5 Ti1 1.967882 1_655
O6 Ti0 2.014639 1_555
O6 Ti1 2.014639 1_554
