# generated using pymatgen
data_LaMg2
_symmetry_space_group_name_H-M   'P 1'
_cell_length_a   18.24076176
_cell_length_b   18.24076176
_cell_length_c   11.31968400
_cell_angle_alpha   90.00000000
_cell_angle_beta   90.00000000
_cell_angle_gamma   158.55761392
_symmetry_Int_Tables_number   1
_chemical_formula_structural   LaMg2
_chemical_formula_sum   'La16 Mg32'
_cell_volume   1376.84609868
_cell_formula_units_Z   16
loop_
 _symmetry_equiv_pos_site_id
 _symmetry_equiv_pos_as_xyz
  1  'x, y, z'
loop_
 _atom_site_type_symbol
 _atom_site_label
 _atom_site_symmetry_multiplicity
 _atom_site_fract_x
 _atom_site_fract_y
 _atom_site_fract_z
 _atom_site_occupancy
  La  La0_0  1  0.44519200  0.05480800  0.12500000  1
  La  La0_1  1  0.44519200  0.05480800  0.62500000  1
  La  La0_2  1  0.44519200  0.55480800  0.12500000  1
  La  La0_3  1  0.44519200  0.55480800  0.62500000  1
  La  La0_4  1  0.94519200  0.05480800  0.12500000  1
  La  La0_5  1  0.94519200  0.05480800  0.62500000  1
  La  La0_6  1  0.94519200  0.55480800  0.12500000  1
  La  La0_7  1  0.94519200  0.55480800  0.62500000  1
  La  La1_0  1  0.05480800  0.44519200  0.37500000  1
  La  La1_1  1  0.05480800  0.44519200  0.87500000  1
  La  La1_2  1  0.05480800  0.94519200  0.37500000  1
  La  La1_3  1  0.05480800  0.94519200  0.87500000  1
  La  La1_4  1  0.55480800  0.44519200  0.37500000  1
  La  La1_5  1  0.55480800  0.44519200  0.87500000  1
  La  La1_6  1  0.55480800  0.94519200  0.37500000  1
  La  La1_7  1  0.55480800  0.94519200  0.87500000  1
  Mg  Mg0_0  1  0.27835200  0.22164800  0.12500000  1
  Mg  Mg0_1  1  0.27835200  0.22164800  0.62500000  1
  Mg  Mg0_2  1  0.27835200  0.72164800  0.12500000  1
  Mg  Mg0_3  1  0.27835200  0.72164800  0.62500000  1
  Mg  Mg0_4  1  0.77835200  0.22164800  0.12500000  1
  Mg  Mg0_5  1  0.77835200  0.22164800  0.62500000  1
  Mg  Mg0_6  1  0.77835200  0.72164800  0.12500000  1
  Mg  Mg0_7  1  0.77835200  0.72164800  0.62500000  1
  Mg  Mg1_0  1  0.10990250  0.39009750  0.12500000  1
  Mg  Mg1_1  1  0.10990250  0.39009750  0.62500000  1
  Mg  Mg1_2  1  0.10990250  0.89009750  0.12500000  1
  Mg  Mg1_3  1  0.10990250  0.89009750  0.62500000  1
  Mg  Mg1_4  1  0.60990250  0.39009750  0.12500000  1
  Mg  Mg1_5  1  0.60990250  0.39009750  0.62500000  1
  Mg  Mg1_6  1  0.60990250  0.89009750  0.12500000  1
  Mg  Mg1_7  1  0.60990250  0.89009750  0.62500000  1
  Mg  Mg2_0  1  0.39009750  0.10990250  0.37500000  1
  Mg  Mg2_1  1  0.39009750  0.10990250  0.87500000  1
  Mg  Mg2_2  1  0.39009750  0.60990250  0.37500000  1
  Mg  Mg2_3  1  0.39009750  0.60990250  0.87500000  1
  Mg  Mg2_4  1  0.89009750  0.10990250  0.37500000  1
  Mg  Mg2_5  1  0.89009750  0.10990250  0.87500000  1
  Mg  Mg2_6  1  0.89009750  0.60990250  0.37500000  1
  Mg  Mg2_7  1  0.89009750  0.60990250  0.87500000  1
  Mg  Mg3_0  1  0.22164800  0.27835200  0.37500000  1
  Mg  Mg3_1  1  0.22164800  0.27835200  0.87500000  1
  Mg  Mg3_2  1  0.22164800  0.77835200  0.37500000  1
  Mg  Mg3_3  1  0.22164800  0.77835200  0.87500000  1
  Mg  Mg3_4  1  0.72164800  0.27835200  0.37500000  1
  Mg  Mg3_5  1  0.72164800  0.27835200  0.87500000  1
  Mg  Mg3_6  1  0.72164800  0.77835200  0.37500000  1
  Mg  Mg3_7  1  0.72164800  0.77835200  0.87500000  1
loop_
_geom_bond_atom_site_label_1
_geom_bond_atom_site_label_2
_geom_bond_distance
_geom_bond_site_symmetry_2
La0_0 La0_6 3.393330 1_555
La0_0 La0_6 3.393330 1_445
La0_0 Mg0_4 3.429885 1_555
La0_0 Mg0_2 3.429885 1_545
La0_0 Mg3_4 3.433134 1_555
La0_0 Mg3_2 3.433134 1_545
La0_0 Mg3_3 3.433134 1_544
La0_0 Mg3_5 3.433134 1_554
La0_0 Mg2_0 3.450865 1_555
La0_0 Mg2_1 3.450865 1_554
La0_0 Mg1_4 3.496427 1_555
La0_0 Mg1_2 3.496427 1_545
La0_1 La0_7 3.393330 1_555
La0_1 La0_7 3.393330 1_445
La0_1 Mg0_5 3.429885 1_555
La0_1 Mg0_3 3.429885 1_545
La0_1 Mg3_5 3.433134 1_555
La0_1 Mg3_3 3.433134 1_545
La0_1 Mg3_4 3.433134 1_555
La0_1 Mg3_2 3.433134 1_545
La0_1 Mg2_1 3.450865 1_555
La0_1 Mg2_0 3.450865 1_555
La0_1 Mg1_5 3.496427 1_555
La0_1 Mg1_3 3.496427 1_545
La0_2 La0_4 3.393330 1_565
La0_2 La0_4 3.393330 1_455
La0_2 Mg0_0 3.429885 1_555
La0_2 Mg0_6 3.429885 1_555
La0_2 Mg3_0 3.433134 1_555
La0_2 Mg3_6 3.433134 1_555
La0_2 Mg3_1 3.433134 1_554
La0_2 Mg3_7 3.433134 1_554
La0_2 Mg2_2 3.450865 1_555
La0_2 Mg2_3 3.450865 1_554
La0_2 Mg1_6 3.496427 1_555
La0_2 Mg1_0 3.496427 1_555
La0_3 La0_5 3.393330 1_565
La0_3 La0_5 3.393330 1_455
La0_3 Mg0_7 3.429885 1_555
La0_3 Mg0_1 3.429885 1_555
La0_3 Mg3_1 3.433134 1_555
La0_3 Mg3_7 3.433134 1_555
La0_3 Mg3_0 3.433134 1_555
La0_3 Mg3_6 3.433134 1_555
La0_3 Mg2_3 3.450865 1_555
La0_3 Mg2_2 3.450865 1_555
La0_3 Mg1_7 3.496427 1_555
La0_3 Mg1_1 3.496427 1_555
La0_4 Mg0_0 3.429885 1_655
La0_4 Mg0_6 3.429885 1_545
La0_4 Mg3_6 3.433134 1_545
La0_4 Mg3_0 3.433134 1_655
La0_4 Mg3_7 3.433134 1_544
La0_4 Mg3_1 3.433134 1_654
La0_4 Mg2_4 3.450865 1_555
La0_4 Mg2_5 3.450865 1_554
La0_4 Mg1_6 3.496427 1_545
La0_4 Mg1_0 3.496427 1_655
La0_5 Mg0_1 3.429885 1_655
La0_5 Mg0_7 3.429885 1_545
La0_5 Mg3_7 3.433134 1_545
La0_5 Mg3_1 3.433134 1_655
La0_5 Mg3_0 3.433134 1_655
La0_5 Mg3_6 3.433134 1_545
La0_5 Mg2_5 3.450865 1_555
La0_5 Mg2_4 3.450865 1_555
La0_5 Mg1_7 3.496427 1_545
La0_5 Mg1_1 3.496427 1_655
La0_6 Mg0_4 3.429885 1_555
La0_6 Mg0_2 3.429885 1_655
La0_6 Mg3_4 3.433134 1_555
La0_6 Mg3_2 3.433134 1_655
La0_6 Mg3_5 3.433134 1_554
La0_6 Mg3_3 3.433134 1_654
La0_6 Mg2_6 3.450865 1_555
La0_6 Mg2_7 3.450865 1_554
La0_6 Mg1_4 3.496427 1_555
La0_6 Mg1_2 3.496427 1_655
La0_7 Mg0_5 3.429885 1_555
La0_7 Mg0_3 3.429885 1_655
La0_7 Mg3_5 3.433134 1_555
La0_7 Mg3_3 3.433134 1_655
La0_7 Mg3_4 3.433134 1_555
La0_7 Mg3_2 3.433134 1_655
La0_7 Mg2_7 3.450865 1_555
La0_7 Mg2_6 3.450865 1_555
La0_7 Mg1_5 3.496427 1_555
La0_7 Mg1_3 3.496427 1_655
La1_0 La1_6 3.393330 1_445
La1_0 La1_6 3.393330 1_555
La1_0 Mg3_2 3.429885 1_555
La1_0 Mg3_4 3.429885 1_455
La1_0 Mg0_2 3.433134 1_555
La1_0 Mg0_4 3.433134 1_455
La1_0 Mg0_3 3.433134 1_555
La1_0 Mg0_5 3.433134 1_455
La1_0 Mg1_0 3.450865 1_555
La1_0 Mg1_1 3.450865 1_555
La1_0 Mg2_2 3.496427 1_555
La1_0 Mg2_4 3.496427 1_455
La1_1 La1_7 3.393330 1_445
La1_1 La1_7 3.393330 1_555
La1_1 Mg3_3 3.429885 1_555
La1_1 Mg3_5 3.429885 1_455
La1_1 Mg0_3 3.433134 1_555
La1_1 Mg0_5 3.433134 1_455
La1_1 Mg0_2 3.433134 1_556
La1_1 Mg0_4 3.433134 1_456
La1_1 Mg1_1 3.450865 1_555
La1_1 Mg1_0 3.450865 1_556
La1_1 Mg2_3 3.496427 1_555
La1_1 Mg2_5 3.496427 1_455
La1_2 La1_4 3.393330 1_565
La1_2 La1_4 3.393330 1_455
La1_2 Mg3_0 3.429885 1_565
La1_2 Mg3_6 3.429885 1_455
La1_2 Mg0_0 3.433134 1_565
La1_2 Mg0_6 3.433134 1_455
La1_2 Mg0_1 3.433134 1_565
La1_2 Mg0_7 3.433134 1_455
La1_2 Mg1_2 3.450865 1_555
La1_2 Mg1_3 3.450865 1_555
La1_2 Mg2_0 3.496427 1_565
La1_2 Mg2_6 3.496427 1_455
La1_3 La1_5 3.393330 1_565
La1_3 La1_5 3.393330 1_455
La1_3 Mg3_7 3.429885 1_455
La1_3 Mg3_1 3.429885 1_565
La1_3 Mg0_7 3.433134 1_455
La1_3 Mg0_1 3.433134 1_565
La1_3 Mg0_6 3.433134 1_456
La1_3 Mg0_0 3.433134 1_566
La1_3 Mg1_3 3.450865 1_555
La1_3 Mg1_2 3.450865 1_556
La1_3 Mg2_1 3.496427 1_565
La1_3 Mg2_7 3.496427 1_455
La1_4 Mg3_6 3.429885 1_555
La1_4 Mg3_0 3.429885 1_555
La1_4 Mg0_6 3.433134 1_555
La1_4 Mg0_0 3.433134 1_555
La1_4 Mg0_1 3.433134 1_555
La1_4 Mg0_7 3.433134 1_555
La1_4 Mg1_4 3.450865 1_555
La1_4 Mg1_5 3.450865 1_555
La1_4 Mg2_0 3.496427 1_555
La1_4 Mg2_6 3.496427 1_555
La1_5 Mg3_7 3.429885 1_555
La1_5 Mg3_1 3.429885 1_555
La1_5 Mg0_1 3.433134 1_555
La1_5 Mg0_7 3.433134 1_555
La1_5 Mg0_6 3.433134 1_556
La1_5 Mg0_0 3.433134 1_556
La1_5 Mg1_5 3.450865 1_555
La1_5 Mg1_4 3.450865 1_556
La1_5 Mg2_1 3.496427 1_555
La1_5 Mg2_7 3.496427 1_555
La1_6 Mg3_2 3.429885 1_555
La1_6 Mg3_4 3.429885 1_565
La1_6 Mg0_2 3.433134 1_555
La1_6 Mg0_3 3.433134 1_555
La1_6 Mg0_4 3.433134 1_565
La1_6 Mg0_5 3.433134 1_565
La1_6 Mg1_6 3.450865 1_555
La1_6 Mg1_7 3.450865 1_555
La1_6 Mg2_2 3.496427 1_555
La1_6 Mg2_4 3.496427 1_565
La1_7 Mg3_3 3.429885 1_555
La1_7 Mg3_5 3.429885 1_565
La1_7 Mg0_3 3.433134 1_555
La1_7 Mg0_5 3.433134 1_565
La1_7 Mg0_2 3.433134 1_556
La1_7 Mg0_4 3.433134 1_566
La1_7 Mg1_7 3.450865 1_555
La1_7 Mg1_6 3.450865 1_556
La1_7 Mg2_3 3.496427 1_555
La1_7 Mg2_5 3.496427 1_565
Mg0_0 Mg1_2 3.379867 1_545
Mg0_0 Mg1_4 3.379867 1_555
Mg0_0 Mg0_6 3.393330 1_555
Mg0_0 Mg0_6 3.393330 1_445
Mg0_0 Mg3_0 3.484202 1_555
Mg0_0 Mg3_1 3.484202 1_554
Mg0_1 Mg1_3 3.379867 1_545
Mg0_1 Mg1_5 3.379867 1_555
Mg0_1 Mg0_7 3.393330 1_555
Mg0_1 Mg0_7 3.393330 1_445
Mg0_1 Mg3_1 3.484202 1_555
Mg0_1 Mg3_0 3.484202 1_555
Mg0_2 Mg1_0 3.379867 1_555
Mg0_2 Mg1_6 3.379867 1_555
Mg0_2 Mg0_4 3.393330 1_565
Mg0_2 Mg0_4 3.393330 1_455
Mg0_2 Mg3_2 3.484202 1_555
Mg0_2 Mg3_3 3.484202 1_554
Mg0_3 Mg1_1 3.379867 1_555
Mg0_3 Mg1_7 3.379867 1_555
Mg0_3 Mg0_5 3.393330 1_455
Mg0_3 Mg0_5 3.393330 1_565
Mg0_3 Mg3_3 3.484202 1_555
Mg0_3 Mg3_2 3.484202 1_555
Mg0_4 Mg1_0 3.379867 1_655
Mg0_4 Mg1_6 3.379867 1_545
Mg0_4 Mg3_4 3.484202 1_555
Mg0_4 Mg3_5 3.484202 1_554
Mg0_5 Mg1_1 3.379867 1_655
Mg0_5 Mg1_7 3.379867 1_545
Mg0_5 Mg3_5 3.484202 1_555
Mg0_5 Mg3_4 3.484202 1_555
Mg0_6 Mg1_2 3.379867 1_655
Mg0_6 Mg1_4 3.379867 1_555
Mg0_6 Mg3_6 3.484202 1_555
Mg0_6 Mg3_7 3.484202 1_554
Mg0_7 Mg1_3 3.379867 1_655
Mg0_7 Mg1_5 3.379867 1_555
Mg0_7 Mg3_7 3.484202 1_555
Mg0_7 Mg3_6 3.484202 1_555
Mg1_0 Mg1_6 3.393330 1_555
Mg1_0 Mg1_6 3.393330 1_445
Mg1_0 Mg2_2 3.472544 1_555
Mg1_0 Mg2_4 3.472544 1_455
Mg1_0 Mg2_3 3.472544 1_554
Mg1_0 Mg2_5 3.472544 1_454
Mg1_1 Mg1_7 3.393330 1_555
Mg1_1 Mg1_7 3.393330 1_445
Mg1_1 Mg2_3 3.472544 1_555
Mg1_1 Mg2_5 3.472544 1_455
Mg1_1 Mg2_2 3.472544 1_555
Mg1_1 Mg2_4 3.472544 1_455
Mg1_2 Mg1_4 3.393330 1_565
Mg1_2 Mg1_4 3.393330 1_455
Mg1_2 Mg2_0 3.472544 1_565
Mg1_2 Mg2_1 3.472544 1_564
Mg1_2 Mg2_6 3.472544 1_455
Mg1_2 Mg2_7 3.472544 1_454
Mg1_3 Mg1_5 3.393330 1_565
Mg1_3 Mg1_5 3.393330 1_455
Mg1_3 Mg2_1 3.472544 1_565
Mg1_3 Mg2_0 3.472544 1_565
Mg1_3 Mg2_7 3.472544 1_455
Mg1_3 Mg2_6 3.472544 1_455
Mg1_4 Mg2_6 3.472544 1_555
Mg1_4 Mg2_0 3.472544 1_555
Mg1_4 Mg2_1 3.472544 1_554
Mg1_4 Mg2_7 3.472544 1_554
Mg1_5 Mg2_1 3.472544 1_555
Mg1_5 Mg2_7 3.472544 1_555
Mg1_5 Mg2_6 3.472544 1_555
Mg1_5 Mg2_0 3.472544 1_555
Mg1_6 Mg2_2 3.472544 1_555
Mg1_6 Mg2_4 3.472544 1_565
Mg1_6 Mg2_5 3.472544 1_564
Mg1_6 Mg2_3 3.472544 1_554
Mg1_7 Mg2_3 3.472544 1_555
Mg1_7 Mg2_5 3.472544 1_565
Mg1_7 Mg2_2 3.472544 1_555
Mg1_7 Mg2_4 3.472544 1_565
Mg2_0 Mg3_4 3.379867 1_555
Mg2_0 Mg3_2 3.379867 1_545
Mg2_0 Mg2_6 3.393330 1_555
Mg2_0 Mg2_6 3.393330 1_445
Mg2_1 Mg3_5 3.379867 1_555
Mg2_1 Mg3_3 3.379867 1_545
Mg2_1 Mg2_7 3.393330 1_555
Mg2_1 Mg2_7 3.393330 1_445
Mg2_2 Mg3_0 3.379867 1_555
Mg2_2 Mg3_6 3.379867 1_555
Mg2_2 Mg2_4 3.393330 1_455
Mg2_2 Mg2_4 3.393330 1_565
Mg2_3 Mg3_1 3.379867 1_555
Mg2_3 Mg3_7 3.379867 1_555
Mg2_3 Mg2_5 3.393330 1_565
Mg2_3 Mg2_5 3.393330 1_455
Mg2_4 Mg3_0 3.379867 1_655
Mg2_4 Mg3_6 3.379867 1_545
Mg2_5 Mg3_1 3.379867 1_655
Mg2_5 Mg3_7 3.379867 1_545
Mg2_6 Mg3_4 3.379867 1_555
Mg2_6 Mg3_2 3.379867 1_655
Mg2_7 Mg3_5 3.379867 1_555
Mg2_7 Mg3_3 3.379867 1_655
Mg3_0 Mg3_6 3.393330 1_445
Mg3_0 Mg3_6 3.393330 1_555
Mg3_1 Mg3_7 3.393330 1_445
Mg3_1 Mg3_7 3.393330 1_555
Mg3_2 Mg3_4 3.393330 1_565
Mg3_2 Mg3_4 3.393330 1_455
Mg3_3 Mg3_5 3.393330 1_565
Mg3_3 Mg3_5 3.393330 1_455
