# generated using pymatgen
data_K10Zn4Sn4S17
_symmetry_space_group_name_H-M   'P 1'
_cell_length_a   10.09344206
_cell_length_b   10.09344206
_cell_length_c   10.09344196
_cell_angle_alpha   90.45121602
_cell_angle_beta   90.45121602
_cell_angle_gamma   90.45121355
_symmetry_Int_Tables_number   1
_chemical_formula_structural   K10Zn4Sn4S17
_chemical_formula_sum   'K10 Zn4 Sn4 S17'
_cell_volume   1028.19920206
_cell_formula_units_Z   1
loop_
 _symmetry_equiv_pos_site_id
 _symmetry_equiv_pos_as_xyz
  1  'x, y, z'
loop_
 _atom_site_type_symbol
 _atom_site_label
 _atom_site_symmetry_multiplicity
 _atom_site_fract_x
 _atom_site_fract_y
 _atom_site_fract_z
 _atom_site_occupancy
  K  K0  1  0.99953600  0.50036100  0.99953600  1
  K  K1  1  0.99953600  0.99953600  0.50036100  1
  K  K2  1  0.50036100  0.99953600  0.99953600  1
  K  K3  1  0.04333400  0.50088900  0.50088900  1
  K  K4  1  0.50088900  0.04333400  0.50088900  1
  K  K5  1  0.50088900  0.50088900  0.04333400  1
  K  K6  1  0.33437500  0.67634600  0.33437500  1
  K  K7  1  0.33437500  0.33437500  0.67634600  1
  K  K8  1  0.67634600  0.33437500  0.33437500  1
  K  K9  1  0.66663300  0.66663300  0.66663300  1
  Zn  Zn0  1  0.86641400  0.86641400  0.86641400  1
  Zn  Zn1  1  0.13279700  0.86621700  0.13279700  1
  Zn  Zn2  1  0.86621700  0.13279700  0.13279700  1
  Zn  Zn3  1  0.13279700  0.13279700  0.86621700  1
  Sn  Sn0  1  0.22440000  0.77612300  0.77612300  1
  Sn  Sn1  1  0.77612300  0.22440000  0.77612300  1
  Sn  Sn2  1  0.77612300  0.77612300  0.22440000  1
  Sn  Sn3  1  0.22262800  0.22262800  0.22262800  1
  S  S0  1  0.00068300  0.00068300  0.00068300  1
  S  S1  1  0.35320600  0.63866400  0.63866400  1
  S  S2  1  0.63866400  0.35320600  0.63866400  1
  S  S3  1  0.63866400  0.63866400  0.35320600  1
  S  S4  1  0.35934400  0.35934400  0.35934400  1
  S  S5  1  0.99227000  0.72711800  0.72711800  1
  S  S6  1  0.72711800  0.99227000  0.72711800  1
  S  S7  1  0.72711800  0.72711800  0.99227000  1
  S  S8  1  0.00786600  0.72782300  0.27316300  1
  S  S9  1  0.27366800  0.99352300  0.27366800  1
  S  S10  1  0.27316300  0.72782300  0.00786600  1
  S  S11  1  0.99352300  0.27366800  0.27366800  1
  S  S12  1  0.72782300  0.00786600  0.27316300  1
  S  S13  1  0.72782300  0.27316300  0.00786600  1
  S  S14  1  0.00786600  0.27316300  0.72782300  1
  S  S15  1  0.27316300  0.00786600  0.72782300  1
  S  S16  1  0.27366800  0.27366800  0.99352300  1
loop_
_geom_bond_atom_site_label_1
_geom_bond_atom_site_label_2
_geom_bond_distance
_geom_bond_site_symmetry_2
K0 S14 3.562991 1_655
K0 S13 3.562991 1_556
K0 S8 3.577610 1_656
K0 S10 3.577610 1_656
K0 S7 3.592057 1_555
K0 S5 3.592057 1_555
K0 S16 3.604892 1_655
K0 S11 3.604892 1_556
K1 S8 3.562991 1_655
K1 S12 3.562991 1_565
K1 S15 3.577610 1_665
K1 S14 3.577610 1_665
K1 S5 3.592057 1_555
K1 S6 3.592057 1_555
K1 S11 3.604892 1_565
K1 S9 3.604892 1_655
K2 S15 3.562991 1_565
K2 S10 3.562991 1_556
K2 S12 3.577610 1_566
K2 S13 3.577610 1_566
K2 S7 3.592057 1_555
K2 S6 3.592057 1_555
K2 S16 3.604892 1_565
K2 S9 3.604892 1_556
K3 S5 3.263234 1_455
K3 S11 3.263948 1_455
K3 S8 3.277334 1_555
K3 S14 3.277334 1_555
K3 S1 3.671860 1_555
K4 S6 3.263234 1_545
K4 S9 3.263948 1_545
K4 S12 3.277334 1_555
K4 S15 3.277334 1_555
K4 S2 3.671860 1_555
K5 S7 3.263234 1_554
K5 S16 3.263948 1_554
K5 S13 3.277334 1_555
K5 S10 3.277334 1_555
K5 S3 3.671860 1_555
K6 S1 3.102282 1_555
K6 S3 3.102282 1_555
K6 S4 3.223218 1_555
K6 S9 3.325026 1_555
K6 S10 3.393026 1_555
K6 S8 3.393026 1_555
K7 S2 3.102282 1_555
K7 S1 3.102282 1_555
K7 S4 3.223218 1_555
K7 S16 3.325026 1_555
K7 S14 3.393026 1_555
K7 S15 3.393026 1_555
K8 S2 3.102282 1_555
K8 S3 3.102282 1_555
K8 S4 3.223218 1_555
K8 S11 3.325026 1_555
K8 S13 3.393026 1_555
K8 S12 3.393026 1_555
K9 S3 3.184038 1_555
K9 S2 3.184038 1_555
K9 S1 3.184038 1_555
K9 S7 3.388125 1_555
K9 S6 3.388125 1_555
K9 S5 3.388125 1_555
S0 Zn0 2.328779 1_444
S0 Zn1 2.329684 1_545
S0 Zn2 2.329684 1_455
S0 Zn3 2.329684 1_554
S1 Sn0 2.359385 1_555
S2 Sn1 2.359385 1_555
S3 Sn2 2.359385 1_555
S4 Sn3 2.371220 1_555
S5 Zn0 2.364821 1_555
S5 Sn0 2.436916 1_655
S6 Zn0 2.364821 1_555
S6 Sn1 2.436916 1_565
S7 Zn0 2.364821 1_555
S7 Sn2 2.436916 1_556
S8 Zn1 2.362234 1_555
S8 Sn2 2.440254 1_455
S9 Zn1 2.367523 1_555
S9 Sn3 2.431380 1_565
S10 Zn1 2.362234 1_555
S10 Sn0 2.440254 1_554
S11 Zn2 2.367523 1_555
S11 Sn3 2.431380 1_655
S12 Zn2 2.362234 1_555
S12 Sn2 2.440254 1_545
S13 Zn2 2.362234 1_555
S13 Sn1 2.440254 1_554
S14 Zn3 2.362234 1_555
S14 Sn1 2.440254 1_455
S15 Zn3 2.362234 1_555
S15 Sn0 2.440254 1_545
S16 Zn3 2.367523 1_555
S16 Sn3 2.431380 1_556
