# generated using pymatgen
data_Sb2(CN2)3
_symmetry_space_group_name_H-M   'P 1'
_cell_length_a   10.46701912
_cell_length_b   6.87981306
_cell_length_c   29.05149967
_cell_angle_alpha   89.99999877
_cell_angle_beta   157.69739012
_cell_angle_gamma   70.81360332
_symmetry_Int_Tables_number   1
_chemical_formula_structural   Sb2(CN2)3
_chemical_formula_sum   'Sb4 C6 N12'
_cell_volume   397.00732015
_cell_formula_units_Z   2
loop_
 _symmetry_equiv_pos_site_id
 _symmetry_equiv_pos_as_xyz
  1  'x, y, z'
loop_
 _atom_site_type_symbol
 _atom_site_label
 _atom_site_symmetry_multiplicity
 _atom_site_fract_x
 _atom_site_fract_y
 _atom_site_fract_z
 _atom_site_occupancy
  Sb  Sb0  1  0.99997600  0.00001100  0.16489900  1
  Sb  Sb1  1  0.99997600  0.00001300  0.66489900  1
  Sb  Sb2  1  0.00002500  0.99999300  0.83511900  1
  Sb  Sb3  1  0.00002500  0.99998300  0.33511900  1
  C  C0  1  0.76569900  0.74476100  0.00524800  1
  C  C1  1  0.00002100  0.74471600  0.75001600  1
  C  C2  1  0.23428200  0.51045800  0.49476400  1
  C  C3  1  0.76569900  0.48954200  0.50524800  1
  C  C4  1  0.23428200  0.25525900  0.99476400  1
  C  C5  1  0.00002100  0.25526200  0.25001600  1
  N  N0  1  0.71004600  0.80762800  0.02819100  1
  N  N1  1  0.13297800  0.67464300  0.83582800  1
  N  N2  1  0.15705600  0.51764100  0.51051200  1
  N  N3  1  0.71004600  0.48232600  0.52819100  1
  N  N4  1  0.15705600  0.32530300  0.01051200  1
  N  N5  1  0.13297800  0.19237900  0.33582800  1
  N  N6  1  0.28991900  0.19240300  0.97181500  1
  N  N7  1  0.86706500  0.32534100  0.16420400  1
  N  N8  1  0.84293500  0.48235600  0.48950300  1
  N  N9  1  0.28991900  0.51767900  0.47181500  1
  N  N10  1  0.84293500  0.67470900  0.98950300  1
  N  N11  1  0.86706500  0.80759500  0.66420400  1
loop_
_geom_bond_atom_site_label_1
_geom_bond_atom_site_label_2
_geom_bond_distance
_geom_bond_site_symmetry_2
C0 N10 1.234189 1_554
C0 N0 1.234302 1_555
C1 N1 1.234250 1_555
C1 N11 1.234260 1_455
C2 N2 1.234172 1_555
C2 N9 1.234316 1_555
C3 N8 1.234186 1_555
C3 N3 1.234304 1_555
C4 N4 1.234173 1_556
C4 N6 1.234314 1_555
C5 N5 1.234251 1_555
C5 N7 1.234260 1_455
N0 Sb2 2.201360 1_554
N0 Sb0 2.659480 1_565
N1 Sb2 2.201544 1_555
N1 Sb0 2.659473 1_556
N2 Sb2 2.201518 1_645
N2 Sb0 2.660162 1_365
N3 Sb3 2.201364 1_555
N3 Sb1 2.659480 1_555
N4 Sb3 2.201520 1_645
N4 Sb1 2.660162 1_364
N5 Sb3 2.201538 1_545
N5 Sb1 2.659473 1_555
N6 Sb0 2.201374 1_556
N6 Sb2 2.659518 1_545
N7 Sb0 2.201540 1_555
N7 Sb2 2.659523 1_554
N8 Sb0 2.201533 1_465
N8 Sb2 2.660204 1_745
N9 Sb1 2.201378 1_555
N9 Sb3 2.659518 1_555
N10 Sb1 2.201533 1_465
N10 Sb3 2.660202 1_746
N11 Sb1 2.201534 1_565
N11 Sb3 2.659523 1_555
