# generated using pymatgen
data_Mg4Nb2O9
_symmetry_space_group_name_H-M   'P 1'
_cell_length_a   5.17778954
_cell_length_b   5.17778907
_cell_length_c   14.04814190
_cell_angle_alpha   89.99992370
_cell_angle_beta   90.00007371
_cell_angle_gamma   119.99998534
_symmetry_Int_Tables_number   1
_chemical_formula_structural   Mg4Nb2O9
_chemical_formula_sum   'Mg8 Nb4 O18'
_cell_volume   326.16573071
_cell_formula_units_Z   2
loop_
 _symmetry_equiv_pos_site_id
 _symmetry_equiv_pos_as_xyz
  1  'x, y, z'
loop_
 _atom_site_type_symbol
 _atom_site_label
 _atom_site_symmetry_multiplicity
 _atom_site_fract_x
 _atom_site_fract_y
 _atom_site_fract_z
 _atom_site_occupancy
  Mg  Mg0  1  0.66667727  0.33334360  0.51634092  1
  Mg  Mg1  1  0.33334344  0.66667715  0.98365908  1
  Mg  Mg2  1  0.33332277  0.66665657  0.48365039  1
  Mg  Mg3  1  0.66665628  0.33332248  0.01634958  1
  Mg  Mg4  1  0.66669799  0.33336587  0.30859126  1
  Mg  Mg5  1  0.33336597  0.66669786  0.19140869  1
  Mg  Mg6  1  0.33330208  0.66663404  0.69140654  1
  Mg  Mg7  1  0.66663397  0.33330188  0.80859348  1
  Nb  Nb0  1  0.00000345  0.00000557  0.35846644  1
  Nb  Nb1  1  0.00000544  0.00000307  0.14153352  1
  Nb  Nb2  1  -0.00000351  -0.00000544  0.64153243  1
  Nb  Nb3  1  -0.00000553  -0.00000386  0.85846757  1
  O  O0  1  0.34987931  0.02913789  0.91585804  1
  O  O1  1  0.97086203  0.32073750  0.91585811  1
  O  O2  1  0.67926027  0.65012340  0.91585820  1
  O  O3  1  0.32073770  0.97086204  0.58414190  1
  O  O4  1  0.65012356  0.67926038  0.58414183  1
  O  O5  1  0.02913786  0.34987924  0.58414200  1
  O  O6  1  0.65010531  0.97086157  0.08415133  1
  O  O7  1  0.02913811  0.67924674  0.08415126  1
  O  O8  1  0.32075482  0.34989162  0.08415117  1
  O  O9  1  0.67924721  0.02913845  0.41584875  1
  O  O10  1  0.34989173  0.32075487  0.41584885  1
  O  O11  1  0.97086166  0.65010531  0.41584871  1
  O  O12  1  0.29132775  0.00000206  0.25000042  1
  O  O13  1  0.00000218  0.29132763  0.24999953  1
  O  O14  1  0.70867550  0.70867548  0.25000003  1
  O  O15  1  0.70867089  -0.00000238  0.74999957  1
  O  O16  1  -0.00000229  0.70867079  0.75000043  1
  O  O17  1  0.29132575  0.29132563  0.74999998  1
loop_
_geom_bond_atom_site_label_1
_geom_bond_atom_site_label_2
_geom_bond_distance
_geom_bond_site_symmetry_2
Mg0 O5 2.067856 1_655
Mg0 O4 2.067864 1_555
Mg0 O3 2.067940 1_545
Mg0 O11 2.140192 1_555
Mg0 O9 2.140258 1_555
Mg0 O10 2.140261 1_555
Mg1 O0 2.067856 1_565
Mg1 O2 2.067864 1_555
Mg1 O1 2.067940 1_455
Mg1 O6 2.140193 1_556
Mg1 O7 2.140258 1_556
Mg1 O8 2.140261 1_556
Mg2 O11 2.067829 1_455
Mg2 O10 2.067836 1_555
Mg2 O9 2.067912 1_565
Mg2 O5 2.140220 1_555
Mg2 O3 2.140285 1_555
Mg2 O4 2.140287 1_555
Mg3 O6 2.067829 1_545
Mg3 O8 2.067836 1_555
Mg3 O7 2.067912 1_655
Mg3 O0 2.140218 1_554
Mg3 O1 2.140285 1_554
Mg3 O2 2.140287 1_554
Mg4 O14 2.019572 1_555
Mg4 O13 2.019614 1_655
Mg4 O12 2.019800 1_555
Mg4 O11 2.203959 1_555
Mg4 O9 2.204145 1_555
Mg4 O10 2.204151 1_555
Mg5 O14 2.019572 1_555
Mg5 O12 2.019613 1_565
Mg5 O13 2.019800 1_555
Mg5 O6 2.203958 1_555
Mg5 O7 2.204146 1_555
Mg5 O8 2.204150 1_555
Mg6 O17 2.019581 1_555
Mg6 O16 2.019623 1_555
Mg6 O15 2.019808 1_565
Mg6 O5 2.204059 1_555
Mg6 O3 2.204246 1_555
Mg6 O4 2.204250 1_555
Mg7 O17 2.019581 1_555
Mg7 O15 2.019623 1_555
Mg7 O16 2.019809 1_655
Mg7 O0 2.204058 1_555
Mg7 O1 2.204247 1_555
Mg7 O2 2.204250 1_555
Nb0 O10 1.918677 1_555
Nb0 O9 1.918694 1_455
Nb0 O11 1.918726 1_445
Nb0 O13 2.144091 1_555
Nb0 O12 2.144097 1_555
Nb0 O14 2.144111 1_445
Nb1 O8 1.918678 1_555
Nb1 O7 1.918693 1_545
Nb1 O6 1.918725 1_445
Nb1 O12 2.144092 1_555
Nb1 O13 2.144098 1_555
Nb1 O14 2.144111 1_445
Nb2 O4 1.918654 1_445
Nb2 O3 1.918671 1_545
Nb2 O5 1.918702 1_555
Nb2 O16 2.144108 1_545
Nb2 O15 2.144113 1_455
Nb2 O17 2.144127 1_555
Nb3 O2 1.918654 1_445
Nb3 O1 1.918671 1_455
Nb3 O0 1.918702 1_555
Nb3 O15 2.144108 1_455
Nb3 O16 2.144112 1_545
Nb3 O17 2.144128 1_555
