# generated using pymatgen
data_Ta(NF4)3
_symmetry_space_group_name_H-M   'P 1'
_cell_length_a   7.87336013
_cell_length_b   8.40666392
_cell_length_c   4.45818637
_cell_angle_alpha   95.94802729
_cell_angle_beta   77.21512301
_cell_angle_gamma   117.92276568
_symmetry_Int_Tables_number   1
_chemical_formula_structural   Ta(NF4)3
_chemical_formula_sum   'Ta1 N3 F12'
_cell_volume   254.26400592
_cell_formula_units_Z   1
loop_
 _symmetry_equiv_pos_site_id
 _symmetry_equiv_pos_as_xyz
  1  'x, y, z'
loop_
 _atom_site_type_symbol
 _atom_site_label
 _atom_site_symmetry_multiplicity
 _atom_site_fract_x
 _atom_site_fract_y
 _atom_site_fract_z
 _atom_site_occupancy
  Ta  Ta0  1  0.00000000  0.00000000  0.00000000  1
  N  N0  1  0.00000000  0.00000000  0.50000000  1
  N  N1  1  0.50000000  0.50000000  0.00000000  1
  N  N2  1  0.00000000  0.50000000  0.00000000  1
  F  F0  1  0.56722800  0.90273300  0.69008800  1
  F  F1  1  0.43277200  0.09726700  0.30991200  1
  F  F2  1  0.86212100  0.42856700  0.75536800  1
  F  F3  1  0.33550500  0.90273300  0.30991200  1
  F  F4  1  0.13787900  0.57143300  0.24463200  1
  F  F5  1  0.66449500  0.09726700  0.69008800  1
  F  F6  1  0.73662600  0.81919400  0.09299000  1
  F  F7  1  0.56644600  0.42856700  0.24463200  1
  F  F8  1  0.26337400  0.18080600  0.90701000  1
  F  F9  1  0.43355400  0.57143300  0.75536800  1
  F  F10  1  0.08256700  0.81919400  0.90701000  1
  F  F11  1  0.91743300  0.18080600  0.09299000  1
loop_
_geom_bond_atom_site_label_1
_geom_bond_atom_site_label_2
_geom_bond_distance
_geom_bond_site_symmetry_2
N0 Ta0 2.229093 1_556
N0 Ta0 2.229093 1_555
F0 F5 1.444990 1_565
F1 F3 1.444990 1_545
F2 N2 1.583108 1_656
F4 N2 1.583108 1_555
F6 Ta0 1.892185 1_665
F7 N1 1.583108 1_555
F8 Ta0 1.892185 1_556
F9 N1 1.583108 1_556
F10 Ta0 1.892179 1_566
F11 Ta0 1.892179 1_655
