# generated using pymatgen
data_ScAlN2
_symmetry_space_group_name_H-M   'P 1'
_cell_length_a   5.78284100
_cell_length_b   6.78861300
_cell_length_c   5.03439100
_cell_angle_alpha   90.00000000
_cell_angle_beta   90.00000000
_cell_angle_gamma   90.00000000
_symmetry_Int_Tables_number   1
_chemical_formula_structural   ScAlN2
_chemical_formula_sum   'Sc4 Al4 N8'
_cell_volume   197.63745158
_cell_formula_units_Z   4
loop_
 _symmetry_equiv_pos_site_id
 _symmetry_equiv_pos_as_xyz
  1  'x, y, z'
loop_
 _atom_site_type_symbol
 _atom_site_label
 _atom_site_symmetry_multiplicity
 _atom_site_fract_x
 _atom_site_fract_y
 _atom_site_fract_z
 _atom_site_occupancy
  Sc  Sc0  1  0.59275600  0.87593300  0.97131300  1
  Sc  Sc1  1  0.40724400  0.12406700  0.47131300  1
  Sc  Sc2  1  0.90724400  0.37593300  0.47131300  1
  Sc  Sc3  1  0.09275600  0.62406700  0.97131300  1
  Al  Al0  1  0.57587500  0.37362300  0.98715100  1
  Al  Al1  1  0.42412500  0.62637700  0.48715100  1
  Al  Al2  1  0.92412500  0.87362300  0.48715100  1
  Al  Al3  1  0.07587500  0.12637700  0.98715100  1
  N  N0  1  0.59904300  0.85936700  0.39922100  1
  N  N1  1  0.40095700  0.14063300  0.89922100  1
  N  N2  1  0.90095700  0.35936700  0.89922100  1
  N  N3  1  0.09904300  0.64063300  0.39922100  1
  N  N4  1  0.56085600  0.39042700  0.36431400  1
  N  N5  1  0.43914400  0.60957300  0.86431400  1
  N  N6  1  0.93914400  0.89042700  0.86431400  1
  N  N7  1  0.06085600  0.10957300  0.36431400  1
loop_
_geom_bond_atom_site_label_1
_geom_bond_atom_site_label_2
_geom_bond_distance
_geom_bond_site_symmetry_2
Al0 N5 1.890319 1_555
Al0 N4 1.904191 1_556
Al0 N1 1.928950 1_555
Al0 N2 1.933738 1_555
Al1 N4 1.890319 1_555
Al1 N5 1.904191 1_555
Al1 N0 1.928950 1_555
Al1 N3 1.933738 1_555
Al2 N7 1.890319 1_665
Al2 N6 1.904191 1_555
Al2 N3 1.928950 1_655
Al2 N0 1.933738 1_555
Al3 N6 1.890319 1_445
Al3 N7 1.904191 1_556
Al3 N2 1.928950 1_455
Al3 N1 1.933738 1_555
N0 Sc1 2.142647 1_565
N0 Sc0 2.157496 1_554
N1 Sc0 2.142647 1_545
N1 Sc1 2.157496 1_555
N2 Sc3 2.142647 1_655
N2 Sc2 2.157496 1_555
N3 Sc2 2.142647 1_455
N3 Sc3 2.157496 1_554
N4 Sc2 2.076605 1_555
N4 Sc1 2.085405 1_555
N5 Sc3 2.076605 1_555
N5 Sc0 2.085405 1_555
N6 Sc0 2.076605 1_555
N6 Sc3 2.085405 1_655
N7 Sc1 2.076605 1_555
N7 Sc2 2.085405 1_455
