# generated using pymatgen
data_Ba2B11H7O22
_symmetry_space_group_name_H-M   'P 1'
_cell_length_a   6.87960200
_cell_length_b   6.90874957
_cell_length_c   22.04099613
_cell_angle_alpha   84.56679239
_cell_angle_beta   82.57450998
_cell_angle_gamma   60.19205438
_symmetry_Int_Tables_number   1
_chemical_formula_structural   Ba2B11H7O22
_chemical_formula_sum   'Ba4 B22 H14 O44'
_cell_volume   900.80832474
_cell_formula_units_Z   2
loop_
 _symmetry_equiv_pos_site_id
 _symmetry_equiv_pos_as_xyz
  1  'x, y, z'
loop_
 _atom_site_type_symbol
 _atom_site_label
 _atom_site_symmetry_multiplicity
 _atom_site_fract_x
 _atom_site_fract_y
 _atom_site_fract_z
 _atom_site_occupancy
  Ba  Ba0  1  0.65615300  0.64545000  0.05871800  1
  Ba  Ba1  1  0.34384700  0.35455000  0.94128200  1
  Ba  Ba2  1  0.19358400  0.15477500  0.44705000  1
  Ba  Ba3  1  0.80641600  0.84522500  0.55295000  1
  B  B0  1  0.56658600  0.65634900  0.21513200  1
  B  B1  1  0.43341400  0.34365100  0.78486800  1
  B  B2  1  0.29788600  0.31285200  0.09002600  1
  B  B3  1  0.70211400  0.68714800  0.90997400  1
  B  B4  1  0.16092800  0.48540800  0.19050100  1
  B  B5  1  0.83907200  0.51459200  0.80949900  1
  B  B6  1  0.05992300  0.73414000  0.09669300  1
  B  B7  1  0.94007700  0.26586000  0.90330700  1
  B  B8  1  0.13307600  0.05597600  0.07171900  1
  B  B9  1  0.86692400  0.94402400  0.92828100  1
  B  B10  1  0.74528400  0.12496000  0.07633800  1
  B  B11  1  0.25471600  0.87504000  0.92366200  1
  B  B12  1  0.30812200  0.56999700  0.42591300  1
  B  B13  1  0.69187800  0.43000300  0.57408700  1
  B  B14  1  0.62578100  0.64159500  0.42161300  1
  B  B15  1  0.37421900  0.35840500  0.57838700  1
  B  B16  1  0.69893000  0.25511600  0.40385200  1
  B  B17  1  0.30107000  0.74488400  0.59614800  1
  B  B18  1  0.82675800  0.04647000  0.30766100  1
  B  B19  1  0.17324200  0.95353000  0.69233900  1
  B  B20  1  0.88334400  0.83390400  0.40600800  1
  B  B21  1  0.11665600  0.16609600  0.59399200  1
  H  H0  1  0.36254800  0.94250300  0.30930000  1
  H  H1  1  0.63745200  0.05749700  0.69070000  1
  H  H2  1  0.23791800  0.20986300  0.29586400  1
  H  H3  1  0.76208200  0.79013700  0.70413600  1
  H  H4  1  0.74797500  0.31598500  0.20714000  1
  H  H5  1  0.25202500  0.68401500  0.79286000  1
  H  H6  1  0.60431800  0.51490900  0.29861700  1
  H  H7  1  0.39568200  0.48509100  0.70138300  1
  H  H8  1  0.39855400  0.99828000  0.18886100  1
  H  H9  1  0.60144600  0.00172000  0.81113900  1
  H  H10  1  0.07147000  0.59252100  0.27757500  1
  H  H11  1  0.92853000  0.40747900  0.72242500  1
  H  H12  1  0.92227500  0.92427500  0.22078200  1
  H  H13  1  0.07772500  0.07572500  0.77921800  1
  O  O0  1  0.27021700  0.08944900  0.32782400  1
  O  O1  1  0.72978300  0.91055100  0.67217600  1
  O  O2  1  0.68726700  0.46166900  0.18364600  1
  O  O3  1  0.31273300  0.53833100  0.81635400  1
  O  O4  1  0.53664200  0.66577100  0.27801800  1
  O  O5  1  0.46335800  0.33422900  0.72198200  1
  O  O6  1  0.47835900  0.84145100  0.17687000  1
  O  O7  1  0.52164100  0.15854900  0.82313000  1
  O  O8  1  0.12814900  0.52893400  0.06604100  1
  O  O9  1  0.87185100  0.47106600  0.93395900  1
  O  O10  1  0.28814500  0.12840200  0.06243900  1
  O  O11  1  0.71185500  0.87159800  0.93756100  1
  O  O12  1  0.27124000  0.29502700  0.15731500  1
  O  O13  1  0.72876000  0.70497300  0.84268500  1
  O  O14  1  0.15247400  0.45652000  0.25382500  1
  O  O15  1  0.84752600  0.54348000  0.74617500  1
  O  O16  1  0.06196100  0.69713300  0.16438300  1
  O  O17  1  0.93803900  0.30286700  0.83561700  1
  O  O18  1  0.20811600  0.83145900  0.07462000  1
  O  O19  1  0.79188400  0.16854100  0.92538000  1
  O  O20  1  0.90199500  0.20240900  0.07400300  1
  O  O21  1  0.09800500  0.79759100  0.92599700  1
  O  O22  1  0.52894000  0.28676600  0.06821200  1
  O  O23  1  0.47106000  0.71323400  0.93178800  1
  O  O24  1  0.82350100  0.90105800  0.08314500  1
  O  O25  1  0.17649900  0.09894200  0.91685500  1
  O  O26  1  0.39210600  0.71836300  0.42203300  1
  O  O27  1  0.60789400  0.28163700  0.57796700  1
  O  O28  1  0.68075900  0.80249600  0.42870500  1
  O  O29  1  0.31924100  0.19750400  0.57129500  1
  O  O30  1  0.77177400  0.41826500  0.41777700  1
  O  O31  1  0.22822600  0.58173500  0.58222300  1
  O  O32  1  0.71443000  0.24608300  0.33693100  1
  O  O33  1  0.28557000  0.75391700  0.66306900  1
  O  O34  1  0.84649600  0.06237900  0.24437200  1
  O  O35  1  0.15350400  0.93762100  0.75562800  1
  O  O36  1  0.91311900  0.84250600  0.33892500  1
  O  O37  1  0.08688100  0.15749400  0.66107500  1
  O  O38  1  0.08261800  0.63741300  0.43163500  1
  O  O39  1  0.91738200  0.36258700  0.56836500  1
  O  O40  1  0.84249000  0.03956500  0.43286400  1
  O  O41  1  0.15751000  0.96043500  0.56713600  1
  O  O42  1  0.45691400  0.34549100  0.42794800  1
  O  O43  1  0.54308600  0.65450900  0.57205200  1
loop_
_geom_bond_atom_site_label_1
_geom_bond_atom_site_label_2
_geom_bond_distance
_geom_bond_site_symmetry_2
Ba0 O24 2.663717 1_555
Ba0 O18 2.672639 1_555
Ba0 O20 2.673594 1_555
Ba0 O6 2.882593 1_555
Ba0 O2 2.908606 1_555
Ba0 O8 2.954685 1_655
Ba0 O22 2.993507 1_555
Ba0 O9 3.001705 1_554
Ba0 O10 3.024759 1_565
Ba0 O11 3.042980 1_554
Ba0 O23 3.122103 1_554
Ba1 O25 2.663717 1_555
Ba1 O19 2.672639 1_555
Ba1 O21 2.673594 1_555
Ba1 O7 2.882593 1_555
Ba1 O3 2.908606 1_555
Ba1 O9 2.954685 1_455
Ba1 O23 2.993507 1_555
Ba1 O8 3.001705 1_556
Ba1 O11 3.024759 1_545
Ba1 O10 3.042980 1_556
Ba1 O22 3.122103 1_556
Ba2 O0 2.649005 1_555
Ba2 O30 2.675949 1_455
Ba2 O42 2.695587 1_555
Ba2 O26 2.699296 1_545
Ba2 O41 2.891096 1_545
Ba2 O40 2.952815 1_455
Ba2 O28 3.007714 1_545
Ba2 O38 3.022979 1_555
Ba2 O29 3.058176 1_555
Ba2 O39 3.085959 1_455
Ba3 O1 2.649005 1_555
Ba3 O31 2.675949 1_655
Ba3 O43 2.695587 1_555
Ba3 O27 2.699296 1_565
Ba3 O40 2.891096 1_565
Ba3 O41 2.952815 1_655
Ba3 O29 3.007714 1_565
Ba3 O39 3.022979 1_555
Ba3 O28 3.058176 1_555
Ba3 O38 3.085959 1_655
B0 O6 1.367988 1_555
B0 O2 1.377526 1_555
B0 O4 1.377612 1_555
B1 O7 1.367988 1_555
B1 O3 1.377526 1_555
B1 O5 1.377612 1_555
B2 O8 1.465834 1_555
B2 O12 1.471730 1_555
B2 O10 1.496751 1_555
B2 O22 1.524601 1_555
B3 O9 1.465834 1_555
B3 O13 1.471730 1_555
B3 O11 1.496751 1_555
B3 O23 1.524601 1_555
B4 O16 1.373433 1_555
B4 O12 1.373785 1_555
B4 O14 1.388909 1_555
B5 O17 1.373433 1_555
B5 O13 1.373785 1_555
B5 O15 1.388909 1_555
B6 O8 1.457573 1_555
B6 O18 1.489794 1_555
B6 O16 1.490336 1_555
B6 O24 1.503350 1_455
B7 O9 1.457573 1_555
B7 O19 1.489794 1_555
B7 O17 1.490336 1_555
B7 O25 1.503350 1_655
B8 O18 1.367570 1_545
B8 O10 1.373033 1_555
B8 O20 1.394026 1_455
B9 O19 1.367570 1_565
B9 O11 1.373033 1_555
B9 O21 1.394026 1_655
B10 O24 1.361721 1_545
B10 O22 1.368867 1_555
B10 O20 1.416063 1_555
B11 O25 1.361721 1_565
B11 O23 1.368867 1_555
B11 O21 1.416063 1_555
B12 O42 1.369604 1_555
B12 O38 1.371784 1_555
B12 O26 1.396866 1_555
B13 O43 1.369604 1_555
B13 O39 1.371784 1_555
B13 O27 1.396866 1_555
B14 O30 1.363317 1_555
B14 O28 1.367256 1_555
B14 O26 1.419559 1_555
B15 O31 1.363317 1_555
B15 O29 1.367256 1_555
B15 O27 1.419559 1_555
B16 O40 1.456944 1_555
B16 O32 1.470057 1_555
B16 O42 1.498252 1_555
B16 O30 1.510849 1_555
B17 O41 1.456944 1_555
B17 O33 1.470057 1_555
B17 O43 1.498252 1_555
B17 O31 1.510849 1_555
B18 O32 1.376712 1_555
B18 O36 1.379527 1_545
B18 O34 1.383205 1_555
B19 O33 1.376712 1_555
B19 O37 1.379527 1_565
B19 O35 1.383205 1_555
B20 O36 1.465898 1_555
B20 O40 1.472232 1_565
B20 O38 1.498677 1_655
B20 O28 1.529592 1_555
B21 O37 1.465898 1_555
B21 O41 1.472232 1_545
B21 O39 1.498677 1_455
B21 O29 1.529592 1_555
H0 O0 0.985485 1_565
H1 O1 0.985485 1_545
H2 O0 0.991652 1_555
H3 O1 0.991652 1_555
H4 O2 0.997444 1_555
H5 O3 0.997444 1_555
H6 O4 0.995896 1_555
H7 O5 0.995896 1_555
H8 O6 0.985165 1_555
H9 O7 0.985165 1_555
H10 O14 0.982137 1_555
H11 O15 0.982137 1_555
H12 O34 0.990881 1_565
H13 O35 0.990881 1_545
