# generated using pymatgen
data_CePt4Rh
_symmetry_space_group_name_H-M   'P 1'
_cell_length_a   5.36990959
_cell_length_b   5.36990959
_cell_length_c   4.43608700
_cell_angle_alpha   90.00000000
_cell_angle_beta   90.00000000
_cell_angle_gamma   119.99999492
_symmetry_Int_Tables_number   1
_chemical_formula_structural   CePt4Rh
_chemical_formula_sum   'Ce1 Pt4 Rh1'
_cell_volume   110.78084055
_cell_formula_units_Z   1
loop_
 _symmetry_equiv_pos_site_id
 _symmetry_equiv_pos_as_xyz
  1  'x, y, z'
loop_
 _atom_site_type_symbol
 _atom_site_label
 _atom_site_symmetry_multiplicity
 _atom_site_fract_x
 _atom_site_fract_y
 _atom_site_fract_z
 _atom_site_occupancy
  Ce  Ce0  1  0.00000000  0.00000000  0.00000000  1
  Pt  Pt0  1  0.66666700  0.33333300  0.00000000  1
  Pt  Pt1  1  0.49932800  0.99865500  0.50000000  1
  Pt  Pt2  1  0.00134500  0.50067200  0.50000000  1
  Pt  Pt3  1  0.49932800  0.50067200  0.50000000  1
  Rh  Rh0  1  0.33333300  0.66666700  0.00000000  1
loop_
_geom_bond_atom_site_label_1
_geom_bond_atom_site_label_2
_geom_bond_distance
_geom_bond_site_symmetry_2
Ce0 Pt0 3.100316 1_455
Ce0 Rh0 3.100316 1_545
Ce0 Pt0 3.100320 1_555
Ce0 Pt0 3.100320 1_445
Ce0 Rh0 3.100320 1_445
Ce0 Rh0 3.100320 1_555
Ce0 Pt2 3.482632 1_554
Ce0 Pt2 3.482632 1_555
Ce0 Pt1 3.482632 1_445
Ce0 Pt1 3.482632 1_444
Ce0 Pt3 3.482634 1_444
Ce0 Pt3 3.482634 1_555
Ce0 Pt3 3.482634 1_554
Ce0 Pt3 3.482634 1_445
Ce0 Pt1 3.482636 1_544
Ce0 Pt2 3.482636 1_545
Ce0 Pt1 3.482636 1_545
Ce0 Pt2 3.482636 1_544
Pt0 Pt3 2.709638 1_555
Pt0 Pt3 2.709638 1_554
Pt0 Pt2 2.709638 1_655
Pt0 Pt2 2.709638 1_654
Pt0 Pt1 2.709638 1_544
Pt0 Pt1 2.709638 1_545
Pt0 Rh0 3.100316 1_545
Pt0 Rh0 3.100316 1_655
Pt0 Rh0 3.100325 1_555
Pt1 Pt3 2.674124 1_555
Pt1 Pt2 2.674124 1_555
Pt1 Pt3 2.695786 1_565
Pt1 Pt2 2.695786 1_665
Pt1 Rh0 2.702472 1_556
Pt1 Rh0 2.702472 1_555
Pt2 Pt3 2.674124 1_555
Pt2 Pt3 2.695786 1_455
Pt2 Rh0 2.702472 1_556
Pt2 Rh0 2.702472 1_555
Pt3 Rh0 2.702477 1_555
Pt3 Rh0 2.702477 1_556
