# generated using pymatgen
data_Mn2SiO4
_symmetry_space_group_name_H-M   'P 1'
_cell_length_a   4.89611994
_cell_length_b   6.25712441
_cell_length_c   10.57596765
_cell_angle_alpha   90.00000000
_cell_angle_beta   90.00000000
_cell_angle_gamma   90.00000000
_symmetry_Int_Tables_number   1
_chemical_formula_structural   Mn2SiO4
_chemical_formula_sum   'Mn8 Si4 O16'
_cell_volume   324.00144864
_cell_formula_units_Z   4
loop_
 _symmetry_equiv_pos_site_id
 _symmetry_equiv_pos_as_xyz
  1  'x, y, z'
loop_
 _atom_site_type_symbol
 _atom_site_label
 _atom_site_symmetry_multiplicity
 _atom_site_fract_x
 _atom_site_fract_y
 _atom_site_fract_z
 _atom_site_occupancy
  Mn  Mn0  1  0.48506426  0.75000000  0.21994744  1
  Mn  Mn1  1  0.98506426  0.25000000  0.28005256  1
  Mn  Mn2  1  0.51493574  0.25000000  0.78005256  1
  Mn  Mn3  1  0.01493574  0.75000000  0.71994744  1
  Mn  Mn4  1  0.50000000  0.50000000  0.50000000  1
  Mn  Mn5  1  -0.00000000  0.50000000  0.00000000  1
  Mn  Mn6  1  0.50000000  0.00000000  0.50000000  1
  Mn  Mn7  1  -0.00000000  0.00000000  0.00000000  1
  Si  Si0  1  0.92797752  0.75000000  0.40339212  1
  Si  Si1  1  0.42797752  0.25000000  0.09660788  1
  Si  Si2  1  0.07202248  0.25000000  0.59660788  1
  Si  Si3  1  0.57202248  0.75000000  0.90339212  1
  O  O0  1  0.21288867  0.45908379  0.66408895  1
  O  O1  1  0.71288867  0.54091621  0.83591105  1
  O  O2  1  0.78711133  0.95908379  0.33591105  1
  O  O3  1  0.28711133  0.04091621  0.16408895  1
  O  O4  1  0.78711133  0.54091621  0.33591105  1
  O  O5  1  0.28711133  0.45908379  0.16408895  1
  O  O6  1  0.21288867  0.04091621  0.66408895  1
  O  O7  1  0.71288867  0.95908379  0.83591105  1
  O  O8  1  0.70998563  0.75000000  0.04685635  1
  O  O9  1  0.20998563  0.25000000  0.45314365  1
  O  O10  1  0.29001437  0.25000000  0.95314365  1
  O  O11  1  0.79001437  0.75000000  0.54685635  1
  O  O12  1  0.24052064  0.75000000  0.90648902  1
  O  O13  1  0.74052064  0.25000000  0.59351098  1
  O  O14  1  0.75947936  0.25000000  0.09351098  1
  O  O15  1  0.25947936  0.75000000  0.40648902  1
loop_
_geom_bond_atom_site_label_1
_geom_bond_atom_site_label_2
_geom_bond_distance
_geom_bond_site_symmetry_2
Mn0 O8 2.136317 1_555
Mn0 O3 2.145189 1_565
Mn0 O5 2.145189 1_555
Mn0 O15 2.260988 1_555
Mn0 O2 2.324371 1_555
Mn0 O4 2.324371 1_555
Mn1 O9 2.136317 1_655
Mn1 O2 2.145189 1_545
Mn1 O4 2.145189 1_555
Mn1 O14 2.260988 1_555
Mn1 O3 2.324371 1_655
Mn1 O5 2.324371 1_655
Mn2 O10 2.136317 1_555
Mn2 O1 2.145189 1_555
Mn2 O7 2.145189 1_545
Mn2 O13 2.260988 1_555
Mn2 O0 2.324371 1_555
Mn2 O6 2.324371 1_555
Mn3 O11 2.136317 1_455
Mn3 O6 2.145189 1_565
Mn3 O0 2.145189 1_555
Mn3 O12 2.260988 1_555
Mn3 O1 2.324371 1_455
Mn3 O7 2.324371 1_455
Mn4 O11 2.169975 1_555
Mn4 O9 2.169975 1_555
Mn4 O15 2.193586 1_555
Mn4 O13 2.193586 1_555
Mn4 O0 2.247941 1_555
Mn4 O4 2.247941 1_555
Mn5 O8 2.169975 1_455
Mn5 O10 2.169975 1_554
Mn5 O12 2.193586 1_554
Mn5 O14 2.193586 1_455
Mn5 O5 2.247941 1_555
Mn5 O1 2.247941 1_454
Mn6 O9 2.169975 1_555
Mn6 O11 2.169975 1_545
Mn6 O15 2.193586 1_545
Mn6 O13 2.193586 1_555
Mn6 O6 2.247941 1_555
Mn6 O2 2.247941 1_545
Mn7 O8 2.169975 1_445
Mn7 O10 2.169975 1_554
Mn7 O14 2.193586 1_455
Mn7 O12 2.193586 1_544
Mn7 O3 2.247941 1_555
Mn7 O7 2.247941 1_444
O0 Si2 1.642124 1_555
O1 Si3 1.642124 1_555
O2 Si0 1.642124 1_555
O3 Si1 1.642124 1_555
O4 Si0 1.642124 1_555
O5 Si1 1.642124 1_555
O6 Si2 1.642124 1_555
O7 Si3 1.642124 1_555
O8 Si3 1.660842 1_554
O9 Si2 1.660842 1_555
O10 Si1 1.660842 1_556
O11 Si0 1.660842 1_555
O12 Si3 1.623403 1_555
O13 Si2 1.623403 1_655
O14 Si1 1.623403 1_555
O15 Si0 1.623403 1_455
