# generated using pymatgen
data_Yb3Pd4
_symmetry_space_group_name_H-M   'P 1'
_cell_length_a   7.69383771
_cell_length_b   7.69383771
_cell_length_c   7.69383797
_cell_angle_alpha   113.90569534
_cell_angle_beta   113.90569534
_cell_angle_gamma   113.90568066
_symmetry_Int_Tables_number   1
_chemical_formula_structural   Yb3Pd4
_chemical_formula_sum   'Yb6 Pd8'
_cell_volume   278.62635890
_cell_formula_units_Z   2
loop_
 _symmetry_equiv_pos_site_id
 _symmetry_equiv_pos_as_xyz
  1  'x, y, z'
loop_
 _atom_site_type_symbol
 _atom_site_label
 _atom_site_symmetry_multiplicity
 _atom_site_fract_x
 _atom_site_fract_y
 _atom_site_fract_z
 _atom_site_occupancy
  Yb  Yb0  1  0.26697600  0.39809100  0.01225600  1
  Yb  Yb1  1  0.39809100  0.01225600  0.26697600  1
  Yb  Yb2  1  0.01225600  0.26697600  0.39809100  1
  Yb  Yb3  1  0.73302400  0.60190900  0.98774400  1
  Yb  Yb4  1  0.60190900  0.98774400  0.73302400  1
  Yb  Yb5  1  0.98774400  0.73302400  0.60190900  1
  Pd  Pd0  1  0.00000000  0.00000000  0.00000000  1
  Pd  Pd1  1  0.50000000  0.50000000  0.50000000  1
  Pd  Pd2  1  0.54962500  0.23886000  0.07843800  1
  Pd  Pd3  1  0.23886000  0.07843800  0.54962500  1
  Pd  Pd4  1  0.07843800  0.54962500  0.23886000  1
  Pd  Pd5  1  0.45037500  0.76114000  0.92156200  1
  Pd  Pd6  1  0.76114000  0.92156200  0.45037500  1
  Pd  Pd7  1  0.92156200  0.45037500  0.76114000  1
loop_
_geom_bond_atom_site_label_1
_geom_bond_atom_site_label_2
_geom_bond_distance
_geom_bond_site_symmetry_2
Pd0 Yb4 2.849421 1_444
Pd0 Yb1 2.849421 1_555
Pd0 Yb5 2.849421 1_444
Pd0 Yb2 2.849421 1_555
Pd0 Yb0 2.849421 1_555
Pd0 Yb3 2.849421 1_444
Pd1 Yb3 2.989081 1_555
Pd1 Yb0 2.989081 1_555
Pd1 Yb4 2.989081 1_555
Pd1 Yb1 2.989081 1_555
Pd1 Yb5 2.989081 1_555
Pd1 Yb2 2.989081 1_555
Pd2 Yb5 2.870275 1_555
Pd2 Yb0 2.873432 1_555
Pd2 Yb1 2.876810 1_555
Pd2 Yb4 2.879617 1_544
Pd2 Yb5 3.038309 1_444
Pd2 Yb3 3.076270 1_554
Pd2 Yb2 3.258024 1_655
Pd3 Yb3 2.870275 1_555
Pd3 Yb1 2.873432 1_555
Pd3 Yb2 2.876810 1_555
Pd3 Yb5 2.879618 1_445
Pd3 Yb3 3.038309 1_444
Pd3 Yb4 3.076269 1_545
Pd3 Yb0 3.258024 1_556
Pd4 Yb4 2.870275 1_555
Pd4 Yb2 2.873433 1_555
Pd4 Yb0 2.876810 1_555
Pd4 Yb3 2.879617 1_454
Pd4 Yb4 3.038309 1_444
Pd4 Yb5 3.076269 1_455
Pd4 Yb1 3.258024 1_565
Pd5 Yb2 2.870275 1_555
Pd5 Yb3 2.873432 1_555
Pd5 Yb4 2.876810 1_555
Pd5 Yb1 2.879617 1_566
Pd5 Yb2 3.038309 1_666
Pd5 Yb0 3.076270 1_556
Pd5 Yb5 3.258024 1_455
Pd6 Yb0 2.870275 1_555
Pd6 Yb4 2.873432 1_555
Pd6 Yb5 2.876810 1_555
Pd6 Yb2 2.879618 1_665
Pd6 Yb0 3.038309 1_666
Pd6 Yb1 3.076269 1_565
Pd6 Yb3 3.258024 1_554
Pd7 Yb1 2.870275 1_555
Pd7 Yb5 2.873433 1_555
Pd7 Yb3 2.876810 1_555
Pd7 Yb0 2.879617 1_656
Pd7 Yb1 3.038309 1_666
Pd7 Yb2 3.076269 1_655
Pd7 Yb4 3.258024 1_545
