# generated using pymatgen
data_Tb2Ga5Cu3
_symmetry_space_group_name_H-M   'P 1'
_cell_length_a   4.09575238
_cell_length_b   4.09575238
_cell_length_c   10.26050901
_cell_angle_alpha   90.00000000
_cell_angle_beta   90.00000000
_cell_angle_gamma   90.00000000
_symmetry_Int_Tables_number   1
_chemical_formula_structural   Tb2Ga5Cu3
_chemical_formula_sum   'Tb2 Ga5 Cu3'
_cell_volume   172.12196309
_cell_formula_units_Z   1
loop_
 _symmetry_equiv_pos_site_id
 _symmetry_equiv_pos_as_xyz
  1  'x, y, z'
loop_
 _atom_site_type_symbol
 _atom_site_label
 _atom_site_symmetry_multiplicity
 _atom_site_fract_x
 _atom_site_fract_y
 _atom_site_fract_z
 _atom_site_occupancy
  Tb  Tb0  1  0.00000000  0.00000000  0.99208254  1
  Tb  Tb1  1  0.50000000  0.50000000  0.50791746  1
  Ga  Ga0  1  0.50000000  0.50000000  0.11062697  1
  Ga  Ga1  1  -0.00000000  0.00000000  0.62713914  1
  Ga  Ga2  1  -0.00000000  -0.00000000  0.38937303  1
  Ga  Ga3  1  0.50000000  0.50000000  0.87286086  1
  Ga  Ga4  1  0.00000000  0.50000000  0.25000000  1
  Cu  Cu0  1  0.50000000  -0.00000000  0.75000000  1
  Cu  Cu1  1  0.50000000  -0.00000000  0.25000000  1
  Cu  Cu2  1  0.00000000  0.50000000  0.75000000  1
loop_
_geom_bond_atom_site_label_1
_geom_bond_atom_site_label_2
_geom_bond_distance
_geom_bond_site_symmetry_2
Ga0 Ga3 2.439601 1_554
Ga0 Ga4 2.497760 1_655
Ga0 Ga4 2.497760 1_555
Ga0 Tb0 3.141185 1_654
Ga0 Tb0 3.141185 1_664
Ga0 Tb0 3.141185 1_564
Ga0 Tb0 3.141185 1_554
Ga1 Ga2 2.439601 1_555
Ga1 Tb1 3.143882 1_545
Ga1 Tb1 3.143882 1_455
Ga1 Tb1 3.143882 1_555
Ga1 Tb1 3.143882 1_445
Ga2 Ga4 2.497760 1_555
Ga2 Ga4 2.497760 1_545
Ga2 Tb1 3.141185 1_455
Ga2 Tb1 3.141185 1_555
Ga2 Tb1 3.141185 1_445
Ga2 Tb1 3.141185 1_545
Ga3 Tb0 3.143882 1_555
Ga3 Tb0 3.143882 1_665
Ga3 Tb0 3.143882 1_655
Ga3 Tb0 3.143882 1_565
Ga4 Tb0 3.346198 1_554
Ga4 Tb0 3.346198 1_564
Ga4 Tb1 3.346198 1_455
Ga4 Tb1 3.346198 1_555
Cu0 Ga1 2.404776 1_655
Cu0 Ga1 2.404776 1_555
Cu0 Ga3 2.404776 1_545
Cu0 Ga3 2.404776 1_555
Cu0 Tb1 3.219240 1_555
Cu0 Tb1 3.219240 1_545
Cu0 Tb0 3.219240 1_655
Cu0 Tb0 3.219240 1_555
Cu1 Ga2 2.497760 1_555
Cu1 Ga0 2.497760 1_545
Cu1 Ga0 2.497760 1_555
Cu1 Ga2 2.497760 1_655
Cu1 Ga4 2.896134 1_555
Cu1 Ga4 2.896134 1_545
Cu1 Ga4 2.896134 1_645
Cu1 Ga4 2.896134 1_655
Cu1 Tb0 3.346198 1_554
Cu1 Tb0 3.346198 1_654
Cu1 Tb1 3.346198 1_555
Cu1 Tb1 3.346198 1_545
Cu2 Ga1 2.404776 1_565
Cu2 Ga1 2.404776 1_555
Cu2 Ga3 2.404776 1_455
Cu2 Ga3 2.404776 1_555
Cu2 Tb1 3.219240 1_555
Cu2 Tb1 3.219240 1_455
Cu2 Tb0 3.219240 1_555
Cu2 Tb0 3.219240 1_565
