# generated using pymatgen
data_Y3Si3Rh
_symmetry_space_group_name_H-M   'P 1'
_cell_length_a   5.69794234
_cell_length_b   5.69794234
_cell_length_c   13.56514781
_cell_angle_alpha   70.66294748
_cell_angle_beta   70.66294748
_cell_angle_gamma   43.52500818
_symmetry_Int_Tables_number   1
_chemical_formula_structural   Y3Si3Rh
_chemical_formula_sum   'Y6 Si6 Rh2'
_cell_volume   283.36772936
_cell_formula_units_Z   2
loop_
 _symmetry_equiv_pos_site_id
 _symmetry_equiv_pos_as_xyz
  1  'x, y, z'
loop_
 _atom_site_type_symbol
 _atom_site_label
 _atom_site_symmetry_multiplicity
 _atom_site_fract_x
 _atom_site_fract_y
 _atom_site_fract_z
 _atom_site_occupancy
  Y  Y0  1  0.60215791  0.60215791  0.07899779  1
  Y  Y1  1  0.39784209  0.39784209  0.92100221  1
  Y  Y2  1  0.52235670  0.52235670  0.62414334  1
  Y  Y3  1  0.47764330  0.47764330  0.37585666  1
  Y  Y4  1  0.25685047  0.25685047  0.22768656  1
  Y  Y5  1  0.74314953  0.74314953  0.77231344  1
  Si  Si0  1  0.95224901  0.95224901  0.23697484  1
  Si  Si1  1  0.04775099  0.04775099  0.76302516  1
  Si  Si2  1  0.86813710  0.86813710  0.54363606  1
  Si  Si3  1  0.13186290  0.13186290  0.45636394  1
  Si  Si4  1  0.11328623  0.11328623  0.92438374  1
  Si  Si5  1  0.88671377  0.88671377  0.07561626  1
  Rh  Rh0  1  0.75285583  0.75285583  0.41613598  1
  Rh  Rh1  1  0.24714417  0.24714417  0.58386402  1
loop_
_geom_bond_atom_site_label_1
_geom_bond_atom_site_label_2
_geom_bond_distance
_geom_bond_site_symmetry_2
Si0 Si5 2.520862 1_555
Si0 Y3 2.906118 1_655
Si0 Y3 2.906118 1_565
Si0 Y4 2.990218 1_565
Si0 Y4 2.990218 1_655
Si0 Y0 3.024587 1_565
Si0 Y0 3.024587 1_655
Si0 Y4 3.181062 1_665
Si1 Si4 2.520862 1_555
Si1 Y2 2.906118 1_455
Si1 Y2 2.906118 1_545
Si1 Y5 2.990218 1_545
Si1 Y5 2.990218 1_455
Si1 Y1 3.024587 1_455
Si1 Y1 3.024587 1_545
Si1 Y5 3.181062 1_445
Si2 Si3 2.614577 1_665
Si2 Y5 2.906282 1_555
Si2 Y3 3.017485 1_565
Si2 Y3 3.017485 1_655
Si2 Y2 3.096902 1_655
Si2 Y2 3.096902 1_565
Si3 Y4 2.906282 1_555
Si3 Y2 3.017485 1_455
Si3 Y2 3.017485 1_545
Si3 Y3 3.096902 1_545
Si3 Y3 3.096902 1_455
Si4 Si5 2.539880 1_446
Si4 Y5 2.930128 1_545
Si4 Y5 2.930128 1_455
Si4 Y0 2.949510 1_546
Si4 Y0 2.949510 1_456
Si4 Y1 2.995601 1_555
Si4 Y1 3.120724 1_545
Si4 Y1 3.120724 1_455
Si5 Y4 2.930128 1_565
Si5 Y4 2.930128 1_655
Si5 Y1 2.949510 1_564
Si5 Y1 2.949510 1_654
Si5 Y0 2.995601 1_555
Si5 Y0 3.120724 1_565
Si5 Y0 3.120724 1_655
Rh0 Si3 2.429456 1_655
Rh0 Si3 2.429456 1_565
Rh0 Si2 2.446377 1_555
Rh0 Si0 2.588980 1_555
Rh0 Y2 3.000766 1_555
Rh0 Y3 3.081329 1_655
Rh0 Y3 3.081329 1_565
Rh0 Y3 3.149222 1_555
Rh0 Y4 3.304931 1_565
Rh0 Y4 3.304931 1_655
Rh1 Si2 2.429456 1_455
Rh1 Si2 2.429456 1_545
Rh1 Si3 2.446377 1_555
Rh1 Si1 2.588980 1_555
Rh1 Y3 3.000766 1_555
Rh1 Y2 3.081329 1_455
Rh1 Y2 3.081329 1_545
Rh1 Y2 3.149222 1_555
Rh1 Y5 3.304931 1_545
Rh1 Y5 3.304931 1_455
