# generated using pymatgen
data_Cs2V2Cu(ClO3)2
_symmetry_space_group_name_H-M   'P 1'
_cell_length_a   8.32100505
_cell_length_b   8.32100505
_cell_length_c   35.08534867
_cell_angle_alpha   90.00000000
_cell_angle_beta   90.00000000
_cell_angle_gamma   90.00000000
_symmetry_Int_Tables_number   1
_chemical_formula_structural   Cs2V2Cu(ClO3)2
_chemical_formula_sum   'Cs16 V16 Cu8 Cl16 O48'
_cell_volume   2429.27884371
_cell_formula_units_Z   8
loop_
 _symmetry_equiv_pos_site_id
 _symmetry_equiv_pos_as_xyz
  1  'x, y, z'
loop_
 _atom_site_type_symbol
 _atom_site_label
 _atom_site_symmetry_multiplicity
 _atom_site_fract_x
 _atom_site_fract_y
 _atom_site_fract_z
 _atom_site_occupancy
  Cs  Cs0  1  0.47676318  0.28132048  0.68988444  1
  Cs  Cs1  1  0.52323682  0.71867952  0.18988444  1
  Cs  Cs2  1  0.78132048  0.02323682  0.43988444  1
  Cs  Cs3  1  0.21867952  0.97676318  0.93988444  1
  Cs  Cs4  1  0.71867952  0.52323682  0.81011556  1
  Cs  Cs5  1  0.28132048  0.47676318  0.31011556  1
  Cs  Cs6  1  0.02323682  0.78132048  0.56011556  1
  Cs  Cs7  1  0.97676318  0.21867952  0.06011556  1
  Cs  Cs8  1  0.97788816  0.77022774  0.68799028  1
  Cs  Cs9  1  0.02211184  0.22977226  0.18799028  1
  Cs  Cs10  1  0.27022774  0.52211184  0.43799028  1
  Cs  Cs11  1  0.72977226  0.47788816  0.93799028  1
  Cs  Cs12  1  0.22977226  0.02211184  0.81200972  1
  Cs  Cs13  1  0.77022774  0.97788816  0.31200972  1
  Cs  Cs14  1  0.52211184  0.27022774  0.56200972  1
  Cs  Cs15  1  0.47788816  0.72977226  0.06200972  1
  V  V0  1  0.47050720  0.77703149  0.72357636  1
  V  V1  1  0.52949280  0.22296851  0.22357636  1
  V  V2  1  0.27703149  0.02949280  0.47357636  1
  V  V3  1  0.72296851  0.97050720  0.97357636  1
  V  V4  1  0.22296851  0.52949280  0.77642364  1
  V  V5  1  0.77703149  0.47050720  0.27642364  1
  V  V6  1  0.02949280  0.27703149  0.52642364  1
  V  V7  1  0.97050720  0.72296851  0.02642364  1
  V  V8  1  -0.01101237  0.26398631  0.72579567  1
  V  V9  1  0.01101237  0.73601369  0.22579567  1
  V  V10  1  0.76398631  0.51101237  0.47579567  1
  V  V11  1  0.23601369  0.48898763  0.97579567  1
  V  V12  1  0.73601369  0.01101237  0.77420433  1
  V  V13  1  0.26398631  -0.01101237  0.27420433  1
  V  V14  1  0.51101237  0.76398631  0.52420433  1
  V  V15  1  0.48898763  0.23601369  0.02420433  1
  Cu  Cu0  1  0.48831662  0.74275343  0.62239728  1
  Cu  Cu1  1  0.51168338  0.25724657  0.12239728  1
  Cu  Cu2  1  0.24275343  0.01168338  0.37239728  1
  Cu  Cu3  1  0.75724657  0.98831662  0.87239728  1
  Cu  Cu4  1  0.25724657  0.51168338  0.87760272  1
  Cu  Cu5  1  0.74275343  0.48831662  0.37760272  1
  Cu  Cu6  1  0.01168338  0.24275343  0.62760272  1
  Cu  Cu7  1  0.98831662  0.75724657  0.12760272  1
  Cl  Cl0  1  0.31533200  0.95374975  0.62452231  1
  Cl  Cl1  1  0.68466800  0.04625025  0.12452231  1
  Cl  Cl2  1  0.45374975  0.18466800  0.37452231  1
  Cl  Cl3  1  0.54625025  0.81533200  0.87452231  1
  Cl  Cl4  1  0.04625025  0.68466800  0.87547769  1
  Cl  Cl5  1  0.95374975  0.31533200  0.37547769  1
  Cl  Cl6  1  0.18466800  0.45374975  0.62547769  1
  Cl  Cl7  1  0.81533200  0.54625025  0.12547769  1
  Cl  Cl8  1  0.79405838  0.07666818  0.63257640  1
  Cl  Cl9  1  0.20594162  0.92333182  0.13257640  1
  Cl  Cl10  1  0.57666818  0.70594162  0.38257640  1
  Cl  Cl11  1  0.42333182  0.29405838  0.88257640  1
  Cl  Cl12  1  0.92333182  0.20594162  0.86742360  1
  Cl  Cl13  1  0.07666818  0.79405838  0.36742360  1
  Cl  Cl14  1  0.70594162  0.57666818  0.61742360  1
  Cl  Cl15  1  0.29405838  0.42333182  0.11742360  1
  O  O0  1  0.91684936  0.08315064  0.75000000  1
  O  O1  1  0.08315064  0.91684936  0.25000000  1
  O  O2  1  0.58315064  0.58315064  0.50000000  1
  O  O3  1  0.41684936  0.41684936  0.00000000  1
  O  O4  1  0.15780323  0.34224226  0.75376349  1
  O  O5  1  0.84219677  0.65775774  0.25376349  1
  O  O6  1  0.84224226  0.34219677  0.50376349  1
  O  O7  1  0.15775774  0.65780323  0.00376349  1
  O  O8  1  0.65775774  0.84219677  0.74623651  1
  O  O9  1  0.34224226  0.15780323  0.24623651  1
  O  O10  1  0.34219677  0.84224226  0.49623651  1
  O  O11  1  0.65780323  0.15775774  0.99623651  1
  O  O12  1  0.39908513  0.60091487  0.75000000  1
  O  O13  1  0.60091487  0.39908513  0.25000000  1
  O  O14  1  0.10091487  0.10091487  0.50000000  1
  O  O15  1  0.89908513  0.89908513  0.00000000  1
  O  O16  1  0.50517195  0.72287221  0.67736439  1
  O  O17  1  0.49482805  0.27712779  0.17736439  1
  O  O18  1  0.22287221  -0.00517195  0.42736439  1
  O  O19  1  0.77712779  0.00517195  0.92736439  1
  O  O20  1  0.27712779  0.49482805  0.82263561  1
  O  O21  1  0.72287221  0.50517195  0.32263561  1
  O  O22  1  -0.00517195  0.22287221  0.57263561  1
  O  O23  1  0.00517195  0.77712779  0.07263561  1
  O  O24  1  0.05667577  0.21407416  0.68126016  1
  O  O25  1  0.94332423  0.78592584  0.18126016  1
  O  O26  1  0.71407416  0.44332423  0.43126016  1
  O  O27  1  0.28592584  0.55667577  0.93126016  1
  O  O28  1  0.78592584  0.94332423  0.81873984  1
  O  O29  1  0.21407416  0.05667577  0.31873984  1
  O  O30  1  0.44332423  0.71407416  0.56873984  1
  O  O31  1  0.55667577  0.28592584  0.06873984  1
  O  O32  1  0.33570156  0.92226211  0.72641025  1
  O  O33  1  0.66429844  0.07773789  0.22641025  1
  O  O34  1  0.42226211  0.16429844  0.47641025  1
  O  O35  1  0.57773789  0.83570156  0.97641025  1
  O  O36  1  0.07773789  0.66429844  0.77358975  1
  O  O37  1  0.92226211  0.33570156  0.27358975  1
  O  O38  1  0.16429844  0.42226211  0.52358975  1
  O  O39  1  0.83570156  0.57773789  0.02358975  1
  O  O40  1  0.84412625  0.39964429  0.72381861  1
  O  O41  1  0.15587375  0.60035571  0.22381861  1
  O  O42  1  0.89964429  0.65587375  0.47381861  1
  O  O43  1  0.10035571  0.34412625  0.97381861  1
  O  O44  1  0.60035571  0.15587375  0.77618139  1
  O  O45  1  0.39964429  0.84412625  0.27618139  1
  O  O46  1  0.65587375  0.89964429  0.52618139  1
  O  O47  1  0.34412625  0.10035571  0.02618139  1
loop_
_geom_bond_atom_site_label_1
_geom_bond_atom_site_label_2
_geom_bond_distance
_geom_bond_site_symmetry_2
Cs0 O44 3.363713 1_555
Cs0 O40 3.425070 1_555
Cs0 O12 3.455217 1_555
Cs0 O32 3.456378 1_545
Cs0 O4 3.510572 1_555
Cs0 O24 3.552960 1_555
Cs0 O16 3.707863 1_555
Cs1 O45 3.363713 1_555
Cs1 O41 3.425070 1_555
Cs1 O13 3.455217 1_555
Cs1 O33 3.456378 1_565
Cs1 O5 3.510572 1_555
Cs1 O25 3.552960 1_555
Cs1 O17 3.707863 1_555
Cs2 O46 3.363713 1_545
Cs2 O42 3.425070 1_545
Cs2 O14 3.455217 1_655
Cs2 O34 3.456378 1_555
Cs2 O6 3.510572 1_555
Cs2 O26 3.552960 1_555
Cs2 O18 3.707863 1_655
Cs3 O47 3.363713 1_566
Cs3 O43 3.425070 1_565
Cs3 O15 3.455217 1_456
Cs3 O35 3.456378 1_555
Cs3 O7 3.510572 1_556
Cs3 O27 3.552960 1_555
Cs3 O19 3.707863 1_465
Cs4 O40 3.363713 1_555
Cs4 O44 3.425070 1_555
Cs4 O12 3.455217 1_555
Cs4 O36 3.456378 1_655
Cs4 O8 3.510572 1_555
Cs4 O28 3.552960 1_555
Cs4 O20 3.707863 1_555
Cs5 O41 3.363713 1_555
Cs5 O45 3.425070 1_555
Cs5 O13 3.455217 1_555
Cs5 O37 3.456378 1_455
Cs5 O9 3.510572 1_555
Cs5 O29 3.552960 1_555
Cs5 O21 3.707863 1_555
Cs6 O42 3.363713 1_455
Cs6 O46 3.425070 1_455
Cs6 O14 3.455217 1_565
Cs6 O38 3.456378 1_555
Cs6 O10 3.510572 1_555
Cs6 O30 3.552960 1_555
Cs6 O22 3.707863 1_565
Cs7 O43 3.363713 1_654
Cs7 O47 3.425070 1_655
Cs7 O15 3.455217 1_545
Cs7 O39 3.456378 1_555
Cs7 O11 3.510572 1_554
Cs7 O31 3.552960 1_555
Cs7 O23 3.707863 1_645
Cs8 O36 3.238361 1_655
Cs8 O8 3.410389 1_555
Cs8 O0 3.430931 1_565
Cs8 O32 3.504595 1_655
Cs8 O40 3.511093 1_555
Cs8 O24 3.758409 1_665
Cs9 O37 3.238361 1_455
Cs9 O9 3.410389 1_555
Cs9 O1 3.430931 1_545
Cs9 O33 3.504595 1_455
Cs9 O41 3.511093 1_555
Cs9 O25 3.758409 1_445
Cs10 O38 3.238361 1_555
Cs10 O10 3.410389 1_555
Cs10 O2 3.430931 1_555
Cs10 O34 3.504595 1_555
Cs10 O42 3.511093 1_455
Cs10 O26 3.758409 1_555
Cs11 O39 3.238361 1_556
Cs11 O11 3.410389 1_555
Cs11 O3 3.430931 1_556
Cs11 O35 3.504595 1_555
Cs11 O43 3.511093 1_655
Cs11 O27 3.758409 1_555
Cs12 O32 3.238361 1_545
Cs12 O4 3.410389 1_555
Cs12 O0 3.430931 1_455
Cs12 O36 3.504595 1_545
Cs12 O44 3.511093 1_555
Cs12 O28 3.758409 1_445
Cs13 O33 3.238361 1_565
Cs13 O5 3.410389 1_555
Cs13 O1 3.430931 1_655
Cs13 O37 3.504595 1_565
Cs13 O45 3.511093 1_555
Cs13 O29 3.758409 1_665
Cs14 O34 3.238361 1_555
Cs14 O6 3.410389 1_555
Cs14 O2 3.430931 1_555
Cs14 O38 3.504595 1_555
Cs14 O46 3.511093 1_545
Cs14 O30 3.758409 1_555
Cs15 O35 3.238361 1_554
Cs15 O7 3.410389 1_555
Cs15 O3 3.430931 1_555
Cs15 O39 3.504595 1_555
Cs15 O47 3.511093 1_565
Cs15 O31 3.758409 1_555
Cu0 O30 1.934233 1_555
Cu0 O16 1.940697 1_555
Cu1 O31 1.934233 1_555
Cu1 O17 1.940697 1_555
Cu2 O29 1.934233 1_555
Cu2 O18 1.940697 1_555
Cu3 O28 1.934233 1_555
Cu3 O19 1.940697 1_565
Cu4 O27 1.934233 1_555
Cu4 O20 1.940697 1_555
Cu5 O26 1.934233 1_555
Cu5 O21 1.940697 1_555
Cu6 O24 1.934233 1_555
Cu6 O22 1.940697 1_555
Cu7 O25 1.934233 1_555
Cu7 O23 1.940697 1_655
Cl0 Cu0 2.271549 1_555
Cl0 Cs6 3.615585 1_555
Cl0 Cs0 3.806957 1_565
Cl0 Cs14 3.834821 1_565
Cl0 Cs8 3.895480 1_455
Cl1 Cu1 2.271549 1_555
Cl1 Cs7 3.615585 1_555
Cl1 Cs1 3.806957 1_545
Cl1 Cs15 3.834821 1_545
Cl1 Cs9 3.895480 1_655
Cl2 Cu2 2.271549 1_555
Cl2 Cs5 3.615585 1_555
Cl2 Cs2 3.806957 1_555
Cl2 Cs13 3.834821 1_545
Cl2 Cs10 3.895480 1_555
Cl3 Cu3 2.271549 1_555
Cl3 Cs4 3.615585 1_555
Cl3 Cs3 3.806957 1_555
Cl3 Cs12 3.834821 1_565
Cl3 Cs11 3.895480 1_555
Cl4 Cu4 2.271549 1_555
Cl4 Cs3 3.615585 1_555
Cl4 Cs4 3.806957 1_455
Cl4 Cs11 3.834821 1_455
Cl4 Cs12 3.895480 1_565
Cl5 Cu5 2.271549 1_555
Cl5 Cs2 3.615585 1_555
Cl5 Cs5 3.806957 1_655
Cl5 Cs10 3.834821 1_655
Cl5 Cs13 3.895480 1_545
Cl6 Cu6 2.271549 1_555
Cl6 Cs0 3.615585 1_555
Cl6 Cs6 3.806957 1_555
Cl6 Cs8 3.834821 1_455
Cl6 Cs14 3.895480 1_555
Cl7 Cu7 2.271549 1_555
Cl7 Cs1 3.615585 1_555
Cl7 Cs7 3.806957 1_555
Cl7 Cs9 3.834821 1_655
Cl7 Cs15 3.895480 1_555
Cl8 Cu6 2.284639 1_655
Cl8 Cs8 3.552710 1_545
Cl8 Cs14 3.720820 1_555
Cl8 Cs0 3.730074 1_555
Cl8 Cs6 4.017429 1_645
Cl9 Cu7 2.284639 1_455
Cl9 Cs9 3.552710 1_565
Cl9 Cs15 3.720820 1_555
Cl9 Cs1 3.730074 1_555
Cl9 Cs7 4.017429 1_465
Cl10 Cu5 2.284639 1_555
Cl10 Cs10 3.552710 1_555
Cl10 Cs13 3.720820 1_555
Cl10 Cs2 3.730074 1_565
Cl10 Cs5 4.017429 1_555
Cl11 Cu4 2.284639 1_555
Cl11 Cs11 3.552710 1_555
Cl11 Cs12 3.720820 1_555
Cl11 Cs3 3.730074 1_545
Cl11 Cs4 4.017429 1_555
Cl12 Cu3 2.284639 1_545
Cl12 Cs12 3.552710 1_655
Cl12 Cs11 3.720820 1_555
Cl12 Cs4 3.730074 1_555
Cl12 Cs3 4.017429 1_645
Cl13 Cu2 2.284639 1_565
Cl13 Cs13 3.552710 1_455
Cl13 Cs10 3.720820 1_555
Cl13 Cs5 3.730074 1_555
Cl13 Cs2 4.017429 1_465
Cl14 Cu0 2.284639 1_555
Cl14 Cs14 3.552710 1_555
Cl14 Cs8 3.720820 1_555
Cl14 Cs6 3.730074 1_655
Cl14 Cs0 4.017429 1_555
Cl15 Cu1 2.284639 1_555
Cl15 Cs15 3.552710 1_555
Cl15 Cs9 3.720820 1_555
Cl15 Cs7 3.730074 1_455
Cl15 Cs1 4.017429 1_555
O0 V12 1.829129 1_555
O0 V8 1.829129 1_655
O1 V9 1.829129 1_555
O1 V13 1.829129 1_565
O2 V14 1.829129 1_555
O2 V10 1.829129 1_555
O3 V11 1.829129 1_554
O3 V15 1.829129 1_555
O4 V4 1.831346 1_555
O4 V8 1.833062 1_555
O5 V5 1.831346 1_555
O5 V9 1.833062 1_655
O6 V6 1.831346 1_655
O6 V10 1.833062 1_555
O7 V7 1.831346 1_455
O7 V11 1.833062 1_554
O8 V0 1.831346 1_555
O8 V12 1.833062 1_565
O9 V1 1.831346 1_555
O9 V13 1.833062 1_555
O10 V2 1.831346 1_565
O10 V14 1.833062 1_555
O11 V3 1.831346 1_545
O11 V15 1.833062 1_556
O12 V4 1.833105 1_555
O12 V0 1.833105 1_555
O13 V1 1.833105 1_555
O13 V5 1.833105 1_555
O14 V6 1.833105 1_555
O14 V2 1.833105 1_555
O15 V3 1.833105 1_554
O15 V7 1.833105 1_555
O16 V0 1.707370 1_555
O17 V1 1.707370 1_555
O18 V2 1.707370 1_555
O19 V3 1.707370 1_545
O20 V4 1.707370 1_555
O21 V5 1.707370 1_555
O22 V6 1.707370 1_555
O23 V7 1.707370 1_455
O24 V8 1.712094 1_555
O25 V9 1.712094 1_655
O26 V10 1.712094 1_555
O27 V11 1.712094 1_555
O28 V12 1.712094 1_565
O29 V13 1.712094 1_555
O30 V14 1.712094 1_555
O31 V15 1.712094 1_555
O32 V0 1.651825 1_555
O33 V1 1.651825 1_555
O34 V2 1.651825 1_555
O35 V3 1.651825 1_555
O36 V4 1.651825 1_555
O37 V5 1.651825 1_555
O38 V6 1.651825 1_555
O39 V7 1.651825 1_555
O40 V8 1.652875 1_655
O41 V9 1.652875 1_555
O42 V10 1.652875 1_555
O43 V11 1.652875 1_555
O44 V12 1.652875 1_555
O45 V13 1.652875 1_565
O46 V14 1.652875 1_555
O47 V15 1.652875 1_555
