# generated using pymatgen
data_Li7V3P8O29
_symmetry_space_group_name_H-M   'P 1'
_cell_length_a   9.86806421
_cell_length_b   9.90488300
_cell_length_c   13.95768724
_cell_angle_alpha   89.76823984
_cell_angle_beta   90.14975693
_cell_angle_gamma   59.83541582
_symmetry_Int_Tables_number   1
_chemical_formula_structural   Li7V3P8O29
_chemical_formula_sum   'Li14 V6 P16 O58'
_cell_volume   1179.48639322
_cell_formula_units_Z   2
loop_
 _symmetry_equiv_pos_site_id
 _symmetry_equiv_pos_as_xyz
  1  'x, y, z'
loop_
 _atom_site_type_symbol
 _atom_site_label
 _atom_site_symmetry_multiplicity
 _atom_site_fract_x
 _atom_site_fract_y
 _atom_site_fract_z
 _atom_site_occupancy
  Li  Li0  1  0.77494455  0.91316822  0.56437676  1
  Li  Li1  1  0.91372276  0.31508990  0.56291317  1
  Li  Li2  1  0.66957348  0.66757468  0.38623824  1
  Li  Li3  1  0.67161577  0.67283094  0.88461934  1
  Li  Li4  1  0.76885958  0.31948754  0.05832248  1
  Li  Li5  1  0.32207764  0.90702857  0.06107253  1
  Li  Li6  1  0.68988271  0.22282235  0.44267327  1
  Li  Li7  1  0.31360590  0.77632487  0.56718833  1
  Li  Li8  1  0.67610251  0.09152764  0.93467715  1
  Li  Li9  1  0.33023172  0.34053463  0.11214199  1
  Li  Li10  1  0.09523846  0.68034845  0.44097506  1
  Li  Li11  1  0.22515103  0.08975626  0.44063591  1
  Li  Li12  1  0.09523600  0.22438732  0.93740190  1
  Li  Li13  1  0.02043030  0.91221457  0.00636503  1
  V  V0  1  0.56377454  0.43684430  0.24952311  1
  V  V1  1  0.42673470  0.56807042  0.75258766  1
  V  V2  1  0.56632607  0.00097241  0.74802530  1
  V  V3  1  0.43361325  0.99989796  0.24860836  1
  V  V4  1  0.99604248  0.57038857  0.24556495  1
  V  V5  1  0.00169430  0.43639656  0.75283722  1
  P  P0  1  0.91535602  0.77499174  0.84249209  1
  P  P1  1  0.76969154  0.90977764  0.34041429  1
  P  P2  1  0.90952938  0.32349545  0.34264302  1
  P  P3  1  0.66667443  0.66133653  0.12442070  1
  P  P4  1  0.66733111  0.66540840  0.62732868  1
  P  P5  1  0.77117740  0.31977047  0.84256294  1
  P  P6  1  0.68052492  0.23729262  0.65773233  1
  P  P7  1  0.32029518  0.90633119  0.84126781  1
  P  P8  1  0.68171546  0.09270628  0.15427903  1
  P  P9  1  0.32321277  0.76670283  0.34658175  1
  P  P10  1  0.22241991  0.68975392  0.16090046  1
  P  P11  1  0.32893606  0.33870825  0.37185254  1
  P  P12  1  0.33244493  0.33344174  0.87326430  1
  P  P13  1  0.08547242  0.68019443  0.65747879  1
  P  P14  1  0.23024975  0.09162885  0.65789370  1
  P  P15  1  0.08710049  0.23274703  0.15683203  1
  O  O0  1  0.99954443  0.75549974  0.56560271  1
  O  O1  1  0.92251621  0.74955810  0.34049716  1
  O  O2  1  0.77064395  0.01118740  0.06562565  1
  O  O3  1  0.74885537  0.91774855  0.84202226  1
  O  O4  1  0.90009269  0.62546838  0.83226693  1
  O  O5  1  0.81507436  0.65820158  0.17017532  1
  O  O6  1  0.88611526  0.48875656  0.32741671  1
  O  O7  1  0.99286674  0.24526911  0.06847532  1
  O  O8  1  0.91897142  0.33515894  0.84538938  1
  O  O9  1  0.67281085  0.81298803  0.66004721  1
  O  O10  1  0.63114886  0.88060579  0.32510038  1
  O  O11  1  0.81622601  0.51723320  0.67381632  1
  O  O12  1  0.67954516  0.64205639  0.01801792  1
  O  O13  1  0.67776120  0.64899260  0.51978321  1
  O  O14  1  0.66724624  0.51292343  0.16879621  1
  O  O15  1  0.48447665  0.88662086  0.83452552  1
  O  O16  1  0.51705401  0.81123927  0.15664862  1
  O  O17  1  0.74819940  0.33329114  0.34282983  1
  O  O18  1  0.79119274  0.21706960  0.74878837  1
  O  O19  1  0.75410221  0.25698178  0.56811863  1
  O  O20  1  0.76453276  0.23230959  0.92973605  1
  O  O21  1  0.62588196  0.48369982  0.82955737  1
  O  O22  1  0.51507595  0.67094751  0.66493199  1
  O  O23  1  0.66606315  0.25661901  0.16003213  1
  O  O24  1  0.49063849  0.62759960  0.32568153  1
  O  O25  1  0.33015165  0.91818519  0.34494550  1
  O  O26  1  0.78292685  0.00110113  0.24851638  1
  O  O27  1  0.75404889  0.00246364  0.42930076  1
  O  O28  1  0.23628853  0.00198877  0.56903462  1
  O  O29  1  0.66739453  0.09051235  0.65532028  1
  O  O30  1  0.52236964  0.38570356  0.67973608  1
  O  O31  1  0.33811804  0.74184475  0.83474627  1
  O  O32  1  0.47478165  0.34512726  0.32451357  1
  O  O33  1  0.37620384  0.52805886  0.16573329  1
  O  O34  1  0.21404503  0.79443917  0.08037161  1
  O  O35  1  0.25496850  0.74350894  0.43708322  1
  O  O36  1  0.21076843  0.77909842  0.25980450  1
  O  O37  1  0.24897494  0.66628331  0.66007070  1
  O  O38  1  0.48305183  0.18507059  0.83942299  1
  O  O39  1  0.51718185  0.11237750  0.16564959  1
  O  O40  1  0.32624979  0.48009408  0.82939482  1
  O  O41  1  0.32126356  0.33491546  0.98071089  1
  O  O42  1  0.33318512  0.35462574  0.47727648  1
  O  O43  1  0.17718397  0.48411593  0.32700721  1
  O  O44  1  0.37424941  0.10760401  0.67234693  1
  O  O45  1  0.33377457  0.18790057  0.33653631  1
  O  O46  1  0.08323524  0.66264870  0.16041045  1
  O  O47  1  0.98986763  0.79408644  0.74337946  1
  O  O48  1  0.01298408  0.77259348  0.92400369  1
  O  O49  1  0.09980661  0.52017250  0.67544274  1
  O  O50  1  0.18163833  0.32892527  0.83282152  1
  O  O51  1  0.10980196  0.37549314  0.17063991  1
  O  O52  1  0.24768564  0.08283549  0.15621057  1
  O  O53  1  0.22993948  0.99195362  0.93003523  1
  O  O54  1  0.21553658  0.99798691  0.74978927  1
  O  O55  1  0.07792718  0.25193632  0.66132865  1
  O  O56  1  0.00290081  0.24427476  0.43138682  1
  O  O57  1  0.99866525  0.21926763  0.25028973  1
loop_
_geom_bond_atom_site_label_1
_geom_bond_atom_site_label_2
_geom_bond_distance
_geom_bond_site_symmetry_2
Li0 O0 1.967879 1_555
Li0 O29 1.993677 1_565
Li0 O27 2.044633 1_565
Li0 O9 2.187437 1_555
Li1 O19 1.931055 1_555
Li1 O55 1.966372 1_655
Li1 O56 2.008761 1_655
Li1 O11 2.329716 1_555
Li2 O13 1.869843 1_555
Li2 O10 2.122253 1_555
Li2 O6 2.143508 1_555
Li2 O24 2.164847 1_555
Li3 O12 1.880563 1_556
Li3 O15 2.105844 1_555
Li3 O4 2.187646 1_555
Li3 O21 2.272253 1_555
Li4 O7 1.952258 1_555
Li4 O20 2.004450 1_554
Li4 O23 2.016759 1_555
Li4 O14 2.270516 1_555
Li5 O34 1.909596 1_555
Li5 O52 2.018329 1_565
Li5 O53 2.022292 1_554
Li5 O16 2.126852 1_555
Li6 O19 1.948410 1_555
Li6 O27 1.953113 1_555
Li6 O17 2.023643 1_555
Li6 O32 2.464637 1_555
Li7 O28 1.966090 1_565
Li7 O35 1.981540 1_555
Li7 O37 1.991724 1_555
Li7 O22 2.189102 1_555
Li8 O3 1.982833 1_545
Li8 O20 1.983203 1_555
Li8 O2 2.019275 1_556
Li8 O38 2.111448 1_555
Li9 O41 1.838791 1_554
Li9 O51 2.184664 1_555
Li9 O39 2.203981 1_555
Li9 O33 2.252012 1_555
Li10 O0 1.945346 1_455
Li10 O35 1.967224 1_555
Li10 O1 2.036508 1_455
Li10 O43 2.326871 1_555
Li11 O56 1.947484 1_555
Li11 O28 1.967220 1_555
Li11 O25 2.000357 1_545
Li11 O45 2.291081 1_555
Li12 O8 1.984357 1_455
Li12 O53 2.001229 1_545
Li12 O7 2.052560 1_456
Li12 O50 2.193473 1_555
Li13 O48 1.831382 1_554
Li13 O34 1.954045 1_555
Li13 O2 2.304294 1_465
O0 P13 1.506922 1_655
O1 P1 1.545174 1_555
O1 V4 2.039994 1_555
O2 P8 1.501622 1_555
O3 P0 1.537552 1_555
O3 V2 2.032707 1_565
O4 P0 1.569148 1_555
O4 V5 1.969042 1_655
O5 P3 1.581957 1_555
O5 V4 1.864047 1_555
O6 P2 1.547517 1_555
O6 V4 2.004037 1_555
O7 P15 1.509266 1_655
O8 P5 1.541100 1_555
O8 V5 2.039194 1_655
O9 P4 1.559783 1_555
O9 V2 2.034199 1_565
O10 P1 1.547331 1_555
O10 V3 1.999994 1_555
O11 P4 1.598140 1_555
O11 V5 1.927918 1_655
O12 P3 1.495706 1_555
O13 P4 1.508726 1_555
O14 P3 1.590247 1_555
O14 V0 1.911128 1_555
O15 P7 1.534581 1_555
O15 V2 2.075170 1_565
O16 P3 1.546803 1_555
O16 V3 2.072665 1_555
O17 P2 1.545549 1_555
O17 V0 2.039876 1_555
O18 P5 1.611568 1_555
O18 P6 1.618292 1_555
O19 P6 1.508237 1_555
O20 P5 1.511349 1_555
O21 P5 1.543289 1_555
O21 V1 2.011414 1_555
O22 P4 1.567608 1_555
O22 V1 2.045333 1_555
O23 P8 1.554117 1_555
O23 V0 1.994870 1_555
O24 P9 1.559227 1_555
O24 V0 1.967375 1_555
O25 P9 1.536045 1_555
O25 V3 2.081898 1_555
O26 P1 1.609583 1_545
O26 P8 1.619769 1_555
O27 P1 1.507860 1_545
O28 P14 1.512038 1_555
O29 P6 1.523569 1_555
O29 V2 2.083737 1_555
O30 P6 1.546448 1_555
O30 V1 1.869254 1_555
O31 P7 1.551415 1_555
O31 V1 1.884377 1_555
O32 P11 1.615101 1_555
O32 V0 1.868401 1_555
O33 P10 1.558391 1_555
O33 V0 1.977272 1_555
O34 P10 1.499772 1_555
O35 P9 1.503173 1_555
O36 P9 1.602558 1_555
O36 P10 1.615707 1_555
O37 P13 1.549116 1_555
O37 V1 1.988456 1_555
O38 P12 1.551106 1_555
O38 V2 2.036208 1_555
O39 P8 1.543695 1_555
O39 V3 2.044483 1_545
O40 P12 1.546611 1_555
O40 V1 1.938618 1_555
O41 P12 1.503639 1_555
O42 P11 1.483256 1_555
O43 P11 1.590260 1_555
O43 V4 1.914175 1_455
O44 P14 1.519768 1_555
O44 V2 1.947449 1_555
O45 P11 1.552708 1_555
O45 V3 2.031132 1_545
O46 P10 1.526147 1_555
O46 V4 1.942891 1_455
O47 P13 1.596082 1_655
O47 P0 1.622689 1_555
O48 P0 1.481266 1_455
O49 P13 1.538305 1_555
O49 V5 1.896959 1_555
O50 P12 1.611835 1_555
O50 V5 1.900789 1_555
O51 P15 1.551350 1_555
O51 V4 1.981161 1_455
O52 P15 1.533465 1_555
O52 V3 2.041740 1_545
O53 P7 1.517789 1_555
O54 P7 1.601155 1_555
O54 P14 1.628875 1_565
O55 P14 1.544444 1_555
O55 V5 2.044025 1_555
O56 P2 1.502843 1_455
O57 P15 1.613269 1_655
O57 P2 1.614064 1_555
