# generated using pymatgen
data_HoAlGe
_symmetry_space_group_name_H-M   'P 1'
_cell_length_a   5.56647811
_cell_length_b   5.56647811
_cell_length_c   5.72163372
_cell_angle_alpha   90.00000000
_cell_angle_beta   90.00000000
_cell_angle_gamma   137.76174167
_symmetry_Int_Tables_number   1
_chemical_formula_structural   HoAlGe
_chemical_formula_sum   'Ho2 Al2 Ge2'
_cell_volume   119.17614336
_cell_formula_units_Z   2
loop_
 _symmetry_equiv_pos_site_id
 _symmetry_equiv_pos_as_xyz
  1  'x, y, z'
loop_
 _atom_site_type_symbol
 _atom_site_label
 _atom_site_symmetry_multiplicity
 _atom_site_fract_x
 _atom_site_fract_y
 _atom_site_fract_z
 _atom_site_occupancy
  Ho  Ho0  1  0.68990673  0.31009327  0.25000000  1
  Ho  Ho1  1  0.31009327  0.68990673  0.75000000  1
  Al  Al0  1  -0.00000000  0.00000000  0.50000000  1
  Al  Al1  1  -0.00000000  0.00000000  -0.00000000  1
  Ge  Ge0  1  0.39398088  0.60601912  0.25000000  1
  Ge  Ge1  1  0.60601912  0.39398088  0.75000000  1
loop_
_geom_bond_atom_site_label_1
_geom_bond_atom_site_label_2
_geom_bond_distance
_geom_bond_site_symmetry_2
Al0 Ge0 2.698325 1_555
Al0 Ge1 2.698325 1_445
Al0 Ge0 2.698325 1_445
Al0 Ge1 2.698325 1_555
Al0 Ho1 3.155683 1_555
Al0 Ho1 3.155683 1_445
Al0 Ho0 3.155683 1_445
Al0 Ho0 3.155683 1_555
Al1 Ge0 2.698325 1_555
Al1 Ge1 2.698325 1_444
Al1 Ge0 2.698325 1_445
Al1 Ge1 2.698325 1_554
Al1 Ho1 3.155683 1_554
Al1 Ho0 3.155683 1_445
Al1 Ho0 3.155683 1_555
Al1 Ho1 3.155683 1_444
Ge0 Ho0 2.917921 1_455
Ge0 Ho0 2.917921 1_565
Ge0 Ho1 2.990526 1_555
Ge0 Ho1 2.990526 1_554
Ge0 Ho0 3.073247 1_555
Ge1 Ho1 2.917921 1_655
Ge1 Ho1 2.917921 1_545
Ge1 Ho0 2.990526 1_555
Ge1 Ho0 2.990526 1_556
Ge1 Ho1 3.073247 1_555
