# generated using pymatgen
data_CsMg14Bi
_symmetry_space_group_name_H-M   'P 1'
_cell_length_a   6.58215662
_cell_length_b   6.58215605
_cell_length_c   11.08242959
_cell_angle_alpha   90.00000000
_cell_angle_beta   90.00000000
_cell_angle_gamma   120.00000285
_symmetry_Int_Tables_number   1
_chemical_formula_structural   CsMg14Bi
_chemical_formula_sum   'Cs1 Mg14 Bi1'
_cell_volume   415.81675656
_cell_formula_units_Z   1
loop_
 _symmetry_equiv_pos_site_id
 _symmetry_equiv_pos_as_xyz
  1  'x, y, z'
loop_
 _atom_site_type_symbol
 _atom_site_label
 _atom_site_symmetry_multiplicity
 _atom_site_fract_x
 _atom_site_fract_y
 _atom_site_fract_z
 _atom_site_occupancy
  Cs  Cs0  1  0.16666700  0.33333300  0.12500000  1
  Mg  Mg0  1  0.17155195  0.83577548  0.12500000  1
  Mg  Mg1  1  0.16168384  0.83084142  0.62500000  1
  Mg  Mg2  1  0.66422452  0.32844805  0.12500000  1
  Mg  Mg3  1  0.66915858  0.33831616  0.62500000  1
  Mg  Mg4  1  0.66422452  0.83577548  0.12500000  1
  Mg  Mg5  1  0.66915858  0.83084142  0.62500000  1
  Mg  Mg6  1  0.33967042  0.16032958  0.38583207  1
  Mg  Mg7  1  0.33967042  0.16032958  0.86416793  1
  Mg  Mg8  1  0.33967042  0.67934184  0.38583207  1
  Mg  Mg9  1  0.33967042  0.67934184  0.86416793  1
  Mg  Mg10  1  0.82065816  0.16032958  0.38583207  1
  Mg  Mg11  1  0.82065816  0.16032958  0.86416793  1
  Mg  Mg12  1  0.83333300  0.66666700  0.36962618  1
  Mg  Mg13  1  0.83333300  0.66666700  0.88037382  1
  Bi  Bi0  1  0.16666700  0.33333300  0.62500000  1
loop_
_geom_bond_atom_site_label_1
_geom_bond_atom_site_label_2
_geom_bond_distance
_geom_bond_site_symmetry_2
Cs0 Mg0 3.291196 1_545
Cs0 Mg4 3.291196 1_555
Cs0 Mg4 3.291196 1_445
Cs0 Mg0 3.291196 1_555
Cs0 Mg2 3.291196 1_555
Cs0 Mg2 3.291196 1_455
Cs0 Mg7 3.499433 1_554
Cs0 Mg6 3.499433 1_555
Cs0 Mg8 3.499439 1_555
Cs0 Mg9 3.499439 1_554
Cs0 Mg11 3.499439 1_454
Cs0 Mg10 3.499439 1_455
Mg0 Mg2 3.242848 1_565
Mg0 Mg4 3.242848 1_555
Mg0 Mg13 3.326682 1_454
Mg0 Mg12 3.326682 1_455
Mg0 Mg2 3.339308 1_455
Mg0 Mg4 3.339309 1_455
Mg0 Mg9 3.432206 1_554
Mg0 Mg8 3.432206 1_555
Mg0 Mg7 3.432212 1_564
Mg0 Mg6 3.432212 1_565
Mg1 Mg3 3.241878 1_455
Mg1 Mg5 3.241878 1_455
Mg1 Mg8 3.249710 1_555
Mg1 Mg9 3.249710 1_555
Mg1 Mg6 3.249717 1_565
Mg1 Mg7 3.249717 1_565
Mg1 Mg3 3.340278 1_565
Mg1 Mg5 3.340278 1_555
Mg1 Mg13 3.393095 1_455
Mg1 Mg12 3.393095 1_455
Mg2 Mg4 3.242848 1_545
Mg2 Mg4 3.339308 1_555
Mg2 Mg7 3.432212 1_554
Mg2 Mg6 3.432212 1_555
Mg3 Mg5 3.241878 1_555
Mg3 Mg6 3.249717 1_555
Mg3 Mg7 3.249717 1_555
Mg3 Mg5 3.340278 1_545
Mg4 Mg9 3.432212 1_554
Mg4 Mg8 3.432212 1_555
Mg5 Mg8 3.249717 1_555
Mg5 Mg9 3.249717 1_555
Mg6 Mg8 3.165936 1_545
Mg6 Mg8 3.416220 1_555
Mg7 Mg9 3.165936 1_545
Mg7 Mg9 3.416220 1_555
Mg10 Mg8 3.165936 1_545
Mg10 Mg6 3.165937 1_555
Mg10 Mg3 3.249710 1_555
Mg10 Mg5 3.249717 1_545
Mg10 Mg12 3.296767 1_555
Mg10 Mg12 3.296767 1_545
Mg10 Mg8 3.416220 1_655
Mg10 Mg6 3.416220 1_655
Mg10 Mg2 3.432206 1_555
Mg10 Mg4 3.432212 1_545
Mg11 Mg9 3.165936 1_545
Mg11 Mg7 3.165937 1_555
Mg11 Mg3 3.249710 1_555
Mg11 Mg5 3.249717 1_545
Mg11 Mg13 3.296767 1_555
Mg11 Mg13 3.296767 1_545
Mg11 Mg9 3.416220 1_655
Mg11 Mg7 3.416220 1_655
Mg11 Mg2 3.432206 1_556
Mg11 Mg4 3.432212 1_546
Mg12 Mg6 3.296767 1_555
Mg12 Mg6 3.296767 1_665
Mg12 Mg8 3.296767 1_555
Mg12 Mg8 3.296767 1_655
Mg12 Mg4 3.326675 1_555
Mg12 Mg2 3.326682 1_555
Mg12 Mg5 3.393088 1_555
Mg12 Mg3 3.393095 1_555
Mg13 Mg7 3.296767 1_555
Mg13 Mg7 3.296767 1_665
Mg13 Mg9 3.296767 1_555
Mg13 Mg9 3.296767 1_655
Mg13 Mg4 3.326675 1_556
Mg13 Mg2 3.326682 1_556
Mg13 Mg5 3.393088 1_555
Mg13 Mg3 3.393095 1_555
Bi0 Mg5 3.291201 1_445
Bi0 Mg1 3.291201 1_545
Bi0 Mg1 3.291201 1_555
Bi0 Mg5 3.291201 1_555
Bi0 Mg3 3.291201 1_455
Bi0 Mg3 3.291201 1_555
Bi0 Mg6 3.303882 1_555
Bi0 Mg7 3.303882 1_555
Bi0 Mg8 3.303888 1_555
Bi0 Mg9 3.303888 1_555
Bi0 Mg10 3.303888 1_455
Bi0 Mg11 3.303888 1_455
