# generated using pymatgen
data_SrU(MoO4)4
_symmetry_space_group_name_H-M   'P 1'
_cell_length_a   6.84245300
_cell_length_b   8.64158800
_cell_length_c   14.45363910
_cell_angle_alpha   53.90624285
_cell_angle_beta   90.00000000
_cell_angle_gamma   90.00000000
_symmetry_Int_Tables_number   1
_chemical_formula_structural   SrU(MoO4)4
_chemical_formula_sum   'Sr2 U2 Mo8 O32'
_cell_volume   690.59433580
_cell_formula_units_Z   2
loop_
 _symmetry_equiv_pos_site_id
 _symmetry_equiv_pos_as_xyz
  1  'x, y, z'
loop_
 _atom_site_type_symbol
 _atom_site_label
 _atom_site_symmetry_multiplicity
 _atom_site_fract_x
 _atom_site_fract_y
 _atom_site_fract_z
 _atom_site_occupancy
  Sr  Sr0  1  0.30429100  0.50000000  0.25000000  1
  Sr  Sr1  1  0.69570900  0.50000000  0.75000000  1
  U  U0  1  0.30341400  0.00000000  0.25000000  1
  U  U1  1  0.69658600  0.00000000  0.75000000  1
  Mo  Mo0  1  0.83518100  0.70326300  0.09446800  1
  Mo  Mo1  1  0.16481900  0.29673700  0.90553200  1
  Mo  Mo2  1  0.83518100  0.29673700  0.40553200  1
  Mo  Mo3  1  0.16481900  0.70326300  0.59446800  1
  Mo  Mo4  1  0.83495800  0.79831300  0.40422300  1
  Mo  Mo5  1  0.16504200  0.20168700  0.59577700  1
  Mo  Mo6  1  0.83495800  0.20168700  0.09577700  1
  Mo  Mo7  1  0.16504200  0.79831300  0.90422300  1
  O  O0  1  0.84976100  0.81585400  0.93062500  1
  O  O1  1  0.15023900  0.18414600  0.06937500  1
  O  O2  1  0.84976100  0.18414600  0.56937500  1
  O  O3  1  0.15023900  0.81585400  0.43062500  1
  O  O4  1  0.94267900  0.00000000  0.25000000  1
  O  O5  1  0.05732100  0.00000000  0.75000000  1
  O  O6  1  0.92782300  0.50000000  0.25000000  1
  O  O7  1  0.07217700  0.50000000  0.75000000  1
  O  O8  1  0.84410300  0.60000700  0.40203000  1
  O  O9  1  0.15589700  0.39999300  0.59797000  1
  O  O10  1  0.84410300  0.39999300  0.09797000  1
  O  O11  1  0.15589700  0.60000700  0.90203000  1
  O  O12  1  0.85831800  0.69074100  0.55886200  1
  O  O13  1  0.14168200  0.30925900  0.44113800  1
  O  O14  1  0.85831800  0.30925900  0.94113800  1
  O  O15  1  0.14168200  0.69074100  0.05886200  1
  O  O16  1  0.58338200  0.87180900  0.36957400  1
  O  O17  1  0.41661800  0.12819100  0.63042600  1
  O  O18  1  0.58338200  0.12819100  0.13042600  1
  O  O19  1  0.41661800  0.87180900  0.86957400  1
  O  O20  1  0.58828300  0.64212100  0.11894900  1
  O  O21  1  0.41171700  0.35787900  0.88105100  1
  O  O22  1  0.58828300  0.35787900  0.38105100  1
  O  O23  1  0.41171700  0.64212100  0.61894900  1
  O  O24  1  0.29925300  0.79268300  0.24626500  1
  O  O25  1  0.70074700  0.20731700  0.75373500  1
  O  O26  1  0.29925300  0.20731700  0.25373500  1
  O  O27  1  0.70074700  0.79268300  0.74626500  1
  O  O28  1  0.84864500  0.90217900  0.09666700  1
  O  O29  1  0.15135500  0.09782100  0.90333300  1
  O  O30  1  0.84864500  0.09782100  0.40333300  1
  O  O31  1  0.15135500  0.90217900  0.59666700  1
loop_
_geom_bond_atom_site_label_1
_geom_bond_atom_site_label_2
_geom_bond_distance
_geom_bond_site_symmetry_2
Mo0 O28 1.740304 1_555
Mo0 O20 1.743023 1_555
Mo0 O0 1.962118 1_554
Mo0 O6 1.971884 1_555
Mo0 O15 2.177269 1_655
Mo0 O10 2.591958 1_555
Mo1 O29 1.740304 1_555
Mo1 O21 1.743023 1_555
Mo1 O1 1.962118 1_556
Mo1 O7 1.971884 1_555
Mo1 O14 2.177269 1_455
Mo1 O11 2.591958 1_555
Mo2 O30 1.740304 1_555
Mo2 O22 1.743023 1_555
Mo2 O2 1.962118 1_555
Mo2 O6 1.971884 1_555
Mo2 O13 2.177269 1_655
Mo2 O8 2.591958 1_555
Mo3 O31 1.740304 1_555
Mo3 O23 1.743023 1_555
Mo3 O3 1.962118 1_555
Mo3 O7 1.971884 1_555
Mo3 O12 2.177269 1_455
Mo3 O9 2.591958 1_555
Mo4 O8 1.733671 1_555
Mo4 O16 1.800732 1_555
Mo4 O12 1.854004 1_555
Mo4 O4 1.993072 1_565
Mo4 O3 2.211487 1_655
Mo4 O30 2.582366 1_565
Mo5 O9 1.733671 1_555
Mo5 O17 1.800732 1_555
Mo5 O13 1.854004 1_555
Mo5 O5 1.993072 1_555
Mo5 O2 2.211487 1_455
Mo5 O31 2.582366 1_545
Mo6 O10 1.733671 1_555
Mo6 O18 1.800732 1_555
Mo6 O14 1.854004 1_554
Mo6 O4 1.993072 1_555
Mo6 O1 2.211487 1_655
Mo6 O28 2.582366 1_545
Mo7 O11 1.733671 1_555
Mo7 O19 1.800732 1_555
Mo7 O15 1.854004 1_556
Mo7 O5 1.993072 1_565
Mo7 O0 2.211487 1_455
Mo7 O29 2.582366 1_565
O0 U1 2.356196 1_565
O1 U0 2.356196 1_555
O2 U1 2.356196 1_555
O3 U0 2.356196 1_565
O4 U0 2.468312 1_655
O5 U1 2.468312 1_455
O6 Sr0 2.575965 1_655
O7 Sr1 2.575965 1_455
O12 Sr1 2.494364 1_555
O13 Sr0 2.494364 1_555
O14 Sr1 2.494364 1_555
O15 Sr0 2.494364 1_555
O16 U0 2.372372 1_565
O17 U1 2.372372 1_555
O18 U0 2.372372 1_555
O19 U1 2.372372 1_565
O20 Sr0 2.476154 1_555
O21 Sr1 2.476154 1_555
O22 Sr0 2.476154 1_555
O23 Sr1 2.476154 1_555
O24 U0 1.824095 1_565
O24 Sr0 2.498062 1_555
O25 U1 1.824095 1_555
O25 Sr1 2.498062 1_555
O26 U0 1.824095 1_555
O26 Sr0 2.498062 1_555
O27 U1 1.824095 1_565
O27 Sr1 2.498062 1_555
