# generated using pymatgen
data_Ti4FeNi
_symmetry_space_group_name_H-M   'P 1'
_cell_length_a   7.96565830
_cell_length_b   7.96565830
_cell_length_c   7.96565830
_cell_angle_alpha   60.00000000
_cell_angle_beta   60.00000000
_cell_angle_gamma   60.00000000
_symmetry_Int_Tables_number   1
_chemical_formula_structural   Ti4FeNi
_chemical_formula_sum   'Ti16 Fe4 Ni4'
_cell_volume   357.39627370
_cell_formula_units_Z   4
loop_
 _symmetry_equiv_pos_site_id
 _symmetry_equiv_pos_as_xyz
  1  'x, y, z'
loop_
 _atom_site_type_symbol
 _atom_site_label
 _atom_site_symmetry_multiplicity
 _atom_site_fract_x
 _atom_site_fract_y
 _atom_site_fract_z
 _atom_site_occupancy
  Ti  Ti0  1  0.37439600  0.87520100  0.87520100  1
  Ti  Ti1  1  0.87520100  0.37439600  0.87520100  1
  Ti  Ti2  1  0.87520100  0.87520100  0.37439600  1
  Ti  Ti3  1  0.87520100  0.87520100  0.87520100  1
  Ti  Ti4  1  0.05844600  0.05844600  0.44155400  1
  Ti  Ti5  1  0.44155400  0.44155400  0.05844600  1
  Ti  Ti6  1  0.05844600  0.44155400  0.05844600  1
  Ti  Ti7  1  0.44155400  0.05844600  0.44155400  1
  Ti  Ti8  1  0.44155400  0.05844600  0.05844600  1
  Ti  Ti9  1  0.05844600  0.44155400  0.44155400  1
  Ti  Ti10  1  0.68464200  0.68464200  0.31535800  1
  Ti  Ti11  1  0.31535800  0.31535800  0.68464200  1
  Ti  Ti12  1  0.68464200  0.31535800  0.68464200  1
  Ti  Ti13  1  0.31535800  0.68464200  0.31535800  1
  Ti  Ti14  1  0.31535800  0.68464200  0.68464200  1
  Ti  Ti15  1  0.68464200  0.31535800  0.31535800  1
  Fe  Fe0  1  0.01482000  0.66172700  0.66172700  1
  Fe  Fe1  1  0.66172700  0.01482000  0.66172700  1
  Fe  Fe2  1  0.66172700  0.66172700  0.01482000  1
  Fe  Fe3  1  0.66172700  0.66172700  0.66172700  1
  Ni  Ni0  1  0.72331600  0.09222800  0.09222800  1
  Ni  Ni1  1  0.09222800  0.72331600  0.09222800  1
  Ni  Ni2  1  0.09222800  0.09222800  0.72331600  1
  Ni  Ni3  1  0.09222800  0.09222800  0.09222800  1
loop_
_geom_bond_atom_site_label_1
_geom_bond_atom_site_label_2
_geom_bond_distance
_geom_bond_site_symmetry_2
Ti0 Ti14 2.925947 1_555
Ti0 Ti11 2.925954 1_565
Ti0 Ti13 2.925954 1_556
Ti1 Ti12 2.925947 1_555
Ti1 Ti11 2.925954 1_655
Ti1 Ti15 2.925954 1_556
Ti10 Ti2 2.925947 1_555
Ti10 Ti3 2.925953 1_554
Ti10 Ti12 2.941590 1_555
Ti10 Ti14 2.941590 1_555
Ti10 Ti15 2.941590 1_555
Ti10 Ti13 2.941590 1_555
Ti10 Ti9 2.984468 1_655
Ti10 Ti6 2.984468 1_655
Ti10 Ti8 2.984468 1_565
Ti10 Ti7 2.984468 1_565
Ti11 Ti12 2.941590 1_555
Ti11 Ti14 2.941590 1_555
Ti11 Ti15 2.941590 1_555
Ti11 Ti13 2.941590 1_555
Ti11 Ti8 2.984468 1_556
Ti11 Ti9 2.984468 1_555
Ti11 Ti6 2.984468 1_556
Ti11 Ti7 2.984468 1_555
Ti12 Ti3 2.925953 1_545
Ti12 Ti14 2.941590 1_555
Ti12 Ti15 2.941590 1_555
Ti12 Ti9 2.984468 1_655
Ti12 Ti8 2.984468 1_556
Ti12 Ti4 2.984468 1_655
Ti12 Ti5 2.984468 1_556
Ti13 Ti2 2.925954 1_455
Ti13 Ti14 2.941590 1_555
Ti13 Ti15 2.941590 1_555
Ti13 Ti8 2.984468 1_565
Ti13 Ti4 2.984468 1_565
Ti13 Ti5 2.984468 1_555
Ti13 Ti9 2.984468 1_555
Ti14 Ti3 2.925953 1_455
Ti14 Ti4 2.984468 1_565
Ti14 Ti7 2.984468 1_565
Ti14 Ti5 2.984468 1_556
Ti14 Ti6 2.984468 1_556
Ti15 Ti2 2.925954 1_545
Ti15 Ti7 2.984468 1_555
Ti15 Ti6 2.984468 1_655
Ti15 Ti4 2.984468 1_655
Ti15 Ti5 2.984468 1_555
Fe0 Ti3 2.475729 1_455
Fe0 Ti1 2.475742 1_455
Fe0 Ti2 2.475742 1_455
Fe0 Ti14 2.589415 1_555
Fe0 Ti11 2.589420 1_555
Fe0 Ti13 2.589420 1_555
Fe0 Ti6 2.851222 1_556
Fe0 Ti4 2.851222 1_565
Fe0 Ti9 2.851229 1_555
Fe1 Ti3 2.475729 1_545
Fe1 Ti0 2.475742 1_545
Fe1 Ti2 2.475742 1_545
Fe1 Ti12 2.589415 1_555
Fe1 Ti11 2.589420 1_555
Fe1 Ti15 2.589420 1_555
Fe1 Ti8 2.851222 1_556
Fe1 Ti4 2.851222 1_655
Fe1 Ti7 2.851229 1_555
Fe2 Ti3 2.475729 1_554
Fe2 Ti0 2.475742 1_554
Fe2 Ti1 2.475742 1_554
Fe2 Ti10 2.589415 1_555
Fe2 Ti15 2.589420 1_555
Fe2 Ti13 2.589420 1_555
Fe2 Ti6 2.851222 1_655
Fe2 Ti8 2.851222 1_565
Fe2 Ti5 2.851229 1_555
Fe3 Ti0 2.475733 1_555
Fe3 Ti1 2.475733 1_555
Fe3 Ti2 2.475733 1_555
Fe3 Ti10 2.589423 1_555
Fe3 Ti14 2.589423 1_555
Fe3 Ti12 2.589423 1_555
Fe3 Ti5 2.851225 1_556
Fe3 Ti9 2.851225 1_655
Fe3 Ti7 2.851225 1_565
Ni0 Ti2 2.499293 1_545
Ni0 Ti1 2.499293 1_554
Ni0 Ti3 2.499300 1_544
Ni0 Ti8 2.542162 1_555
Ni0 Ti5 2.542162 1_555
Ni0 Ti7 2.542162 1_555
Ni0 Ti10 2.911533 1_545
Ni0 Ti12 2.911533 1_554
Ni0 Ti15 2.911533 1_555
Ni1 Ti2 2.499293 1_455
Ni1 Ti0 2.499293 1_554
Ni1 Ti3 2.499300 1_454
Ni1 Ti6 2.542162 1_555
Ni1 Ti5 2.542162 1_555
Ni1 Ti9 2.542162 1_555
Ni1 Ti14 2.911533 1_554
Ni1 Ti10 2.911533 1_455
Ni1 Ti13 2.911533 1_555
Ni2 Ti0 2.499293 1_545
Ni2 Ti1 2.499293 1_455
Ni2 Ti3 2.499300 1_445
Ni2 Ti9 2.542162 1_555
Ni2 Ti7 2.542162 1_555
Ni2 Ti4 2.542162 1_555
Ni2 Ti11 2.911533 1_555
Ni2 Ti14 2.911533 1_545
Ni2 Ti12 2.911533 1_455
Ni3 Ti1 2.499298 1_454
Ni3 Ti0 2.499298 1_544
Ni3 Ti2 2.499298 1_445
Ni3 Ti6 2.542162 1_555
Ni3 Ti4 2.542162 1_555
Ni3 Ti8 2.542162 1_555
Ni3 Ti11 2.911533 1_554
Ni3 Ti15 2.911533 1_455
Ni3 Ti13 2.911533 1_545
