# generated using pymatgen
data_Yb(FeSb3)4
_symmetry_space_group_name_H-M   'P 1'
_cell_length_a   7.95461481
_cell_length_b   7.95461481
_cell_length_c   7.95461481
_cell_angle_alpha   109.47122063
_cell_angle_beta   109.47122063
_cell_angle_gamma   109.47122063
_symmetry_Int_Tables_number   1
_chemical_formula_structural   Yb(FeSb3)4
_chemical_formula_sum   'Yb1 Fe4 Sb12'
_cell_volume   387.46776003
_cell_formula_units_Z   1
loop_
 _symmetry_equiv_pos_site_id
 _symmetry_equiv_pos_as_xyz
  1  'x, y, z'
loop_
 _atom_site_type_symbol
 _atom_site_label
 _atom_site_symmetry_multiplicity
 _atom_site_fract_x
 _atom_site_fract_y
 _atom_site_fract_z
 _atom_site_occupancy
  Yb  Yb0  1  0.00000000  0.00000000  0.00000000  1
  Fe  Fe0  1  0.50000000  0.50000000  0.50000000  1
  Fe  Fe1  1  0.50000000  0.00000000  0.00000000  1
  Fe  Fe2  1  0.00000000  0.50000000  0.00000000  1
  Fe  Fe3  1  0.00000000  0.00000000  0.50000000  1
  Sb  Sb0  1  0.83798100  0.66618100  0.50416200  1
  Sb  Sb1  1  0.16201900  0.33381900  0.49583800  1
  Sb  Sb2  1  0.16201900  0.66618100  0.82819900  1
  Sb  Sb3  1  0.83798100  0.33381900  0.17180100  1
  Sb  Sb4  1  0.66618100  0.50416200  0.83798100  1
  Sb  Sb5  1  0.33381900  0.49583800  0.16201900  1
  Sb  Sb6  1  0.66618100  0.82819900  0.16201900  1
  Sb  Sb7  1  0.33381900  0.17180100  0.83798100  1
  Sb  Sb8  1  0.50416200  0.83798100  0.66618100  1
  Sb  Sb9  1  0.49583800  0.16201900  0.33381900  1
  Sb  Sb10  1  0.17180100  0.83798100  0.33381900  1
  Sb  Sb11  1  0.82819900  0.16201900  0.66618100  1
loop_
_geom_bond_atom_site_label_1
_geom_bond_atom_site_label_2
_geom_bond_distance
_geom_bond_site_symmetry_2
Fe0 Sb0 2.553192 1_555
Fe0 Sb1 2.553192 1_555
Fe0 Sb5 2.553192 1_555
Fe0 Sb9 2.553192 1_555
Fe0 Sb4 2.553192 1_555
Fe0 Sb8 2.553192 1_555
Fe1 Sb3 2.553191 1_555
Fe1 Sb2 2.553191 1_544
Fe1 Sb8 2.553192 1_544
Fe1 Sb9 2.553192 1_555
Fe1 Sb7 2.553199 1_554
Fe1 Sb6 2.553199 1_545
Fe2 Sb11 2.553191 1_454
Fe2 Sb10 2.553191 1_555
Fe2 Sb5 2.553192 1_555
Fe2 Sb4 2.553192 1_454
Fe2 Sb2 2.553199 1_554
Fe2 Sb3 2.553199 1_455
Fe3 Sb7 2.553191 1_555
Fe3 Sb6 2.553191 1_445
Fe3 Sb1 2.553192 1_555
Fe3 Sb0 2.553192 1_445
Fe3 Sb10 2.553199 1_545
Fe3 Sb11 2.553199 1_455
Sb0 Sb2 2.976349 1_655
Sb0 Sb3 3.052806 1_555
Sb0 Yb0 3.408257 1_666
Sb1 Sb3 2.976349 1_455
Sb1 Sb2 3.052806 1_555
Sb1 Yb0 3.408257 1_555
Sb2 Yb0 3.408259 1_566
Sb3 Yb0 3.408259 1_655
Sb4 Sb6 2.976349 1_556
Sb4 Sb7 3.052806 1_555
Sb4 Yb0 3.408257 1_666
Sb5 Sb7 2.976349 1_554
Sb5 Sb6 3.052806 1_555
Sb5 Yb0 3.408257 1_555
Sb6 Yb0 3.408259 1_665
Sb7 Yb0 3.408259 1_556
Sb8 Yb0 3.408257 1_666
Sb9 Yb0 3.408257 1_555
Sb10 Sb9 2.976349 1_565
Sb10 Sb8 3.052806 1_555
Sb10 Yb0 3.408259 1_565
Sb11 Sb8 2.976349 1_545
Sb11 Sb9 3.052806 1_555
Sb11 Yb0 3.408259 1_656
