# generated using pymatgen
data_ErB4Ru
_symmetry_space_group_name_H-M   'P 1'
_cell_length_a   3.54304500
_cell_length_b   5.94237200
_cell_length_c   11.48334900
_cell_angle_alpha   90.00000000
_cell_angle_beta   90.00000000
_cell_angle_gamma   90.00000000
_symmetry_Int_Tables_number   1
_chemical_formula_structural   ErB4Ru
_chemical_formula_sum   'Er4 B16 Ru4'
_cell_volume   241.77147946
_cell_formula_units_Z   4
loop_
 _symmetry_equiv_pos_site_id
 _symmetry_equiv_pos_as_xyz
  1  'x, y, z'
loop_
 _atom_site_type_symbol
 _atom_site_label
 _atom_site_symmetry_multiplicity
 _atom_site_fract_x
 _atom_site_fract_y
 _atom_site_fract_z
 _atom_site_occupancy
  Er  Er0  1  0.00000000  0.63052200  0.35039000  1
  Er  Er1  1  0.00000000  0.36947800  0.64961000  1
  Er  Er2  1  0.00000000  0.13052200  0.14961000  1
  Er  Er3  1  0.00000000  0.86947800  0.85039000  1
  B  B0  1  0.50000000  0.79167400  0.18593900  1
  B  B1  1  0.50000000  0.20832600  0.81406100  1
  B  B2  1  0.50000000  0.29167400  0.31406100  1
  B  B3  1  0.50000000  0.70832600  0.68593900  1
  B  B4  1  0.50000000  0.86463600  0.03024000  1
  B  B5  1  0.50000000  0.13536400  0.96976000  1
  B  B6  1  0.50000000  0.36463600  0.46976000  1
  B  B7  1  0.50000000  0.63536400  0.53024000  1
  B  B8  1  0.50000000  0.88784600  0.45288400  1
  B  B9  1  0.50000000  0.11215400  0.54711600  1
  B  B10  1  0.50000000  0.38784600  0.04711600  1
  B  B11  1  0.50000000  0.61215400  0.95288400  1
  B  B12  1  0.50000000  0.97800800  0.30762600  1
  B  B13  1  0.50000000  0.02199200  0.69237400  1
  B  B14  1  0.50000000  0.47800800  0.19237400  1
  B  B15  1  0.50000000  0.52199200  0.80762600  1
  Ru  Ru0  1  0.00000000  0.64146400  0.09306000  1
  Ru  Ru1  1  0.00000000  0.35853600  0.90694000  1
  Ru  Ru2  1  0.00000000  0.14146400  0.40694000  1
  Ru  Ru3  1  0.00000000  0.85853600  0.59306000  1
loop_
_geom_bond_atom_site_label_1
_geom_bond_atom_site_label_2
_geom_bond_distance
_geom_bond_site_symmetry_2
Er0 Ru0 2.955725 1_555
Er0 Ru2 2.977833 1_555
Er0 Ru3 3.098608 1_555
Er0 Ru2 3.104876 1_565
Er1 Ru1 2.955725 1_555
Er1 Ru3 2.977833 1_555
Er1 Ru2 3.098608 1_555
Er1 Ru3 3.104876 1_545
Er2 Ru2 2.955725 1_555
Er2 Ru0 2.977833 1_545
Er2 Ru1 3.098608 1_554
Er2 Ru0 3.104876 1_555
Er3 Ru3 2.955725 1_555
Er3 Ru1 2.977833 1_565
Er3 Ru0 3.098608 1_556
Er3 Ru1 3.104876 1_555
B0 B12 1.782889 1_555
B0 B4 1.839764 1_555
B0 B14 1.865384 1_555
B0 Ru0 2.252241 1_555
B0 Ru0 2.252241 1_655
B0 Er2 2.714177 1_565
B0 Er2 2.714177 1_665
B0 Er0 2.760720 1_655
B0 Er0 2.760720 1_555
B1 B13 1.782889 1_555
B1 B5 1.839764 1_555
B1 B15 1.865384 1_555
B1 Ru1 2.252241 1_655
B1 Ru1 2.252241 1_555
B1 Er3 2.714177 1_545
B1 Er3 2.714177 1_645
B1 Er1 2.760720 1_555
B1 Er1 2.760720 1_655
B2 B6 1.839764 1_555
B2 Ru2 2.252241 1_555
B2 Ru2 2.252241 1_655
B2 Er0 2.714177 1_555
B2 Er0 2.714177 1_655
B2 Er2 2.760720 1_555
B2 Er2 2.760720 1_655
B3 B7 1.839764 1_555
B3 Ru3 2.252241 1_655
B3 Ru3 2.252241 1_555
B3 Er1 2.714177 1_555
B3 Er1 2.714177 1_655
B3 Er3 2.760720 1_555
B3 Er3 2.760720 1_655
B4 B5 1.752278 1_564
B4 Ru0 2.327534 1_655
B4 Ru0 2.327534 1_555
B4 Er3 2.721122 1_654
B4 Er3 2.721122 1_554
B4 Er2 2.741108 1_565
B4 Er2 2.741108 1_665
B5 Ru1 2.327534 1_655
B5 Ru1 2.327534 1_555
B5 Er2 2.721122 1_656
B5 Er2 2.721122 1_556
B5 Er3 2.741108 1_545
B5 Er3 2.741108 1_645
B6 B9 1.743592 1_555
B6 B7 1.752278 1_555
B6 Ru2 2.327534 1_555
B6 Ru2 2.327534 1_655
B6 Er1 2.721122 1_655
B6 Er1 2.721122 1_555
B6 Er0 2.741108 1_655
B6 Er0 2.741108 1_555
B7 B8 1.743592 1_555
B7 Ru3 2.327534 1_555
B7 Ru3 2.327534 1_655
B7 Er0 2.721122 1_655
B7 Er0 2.721122 1_555
B7 Er1 2.741108 1_555
B7 Er1 2.741108 1_655
B8 B9 1.716863 1_565
B8 Ru2 2.384947 1_665
B8 Ru2 2.384947 1_565
B8 Ru3 2.399944 1_655
B8 Ru3 2.399944 1_555
B8 Er0 2.619495 1_655
B8 Er0 2.619495 1_555
B9 Ru3 2.384947 1_645
B9 Ru3 2.384947 1_545
B9 Ru2 2.399944 1_655
B9 Ru2 2.399944 1_555
B9 Er1 2.619495 1_655
B9 Er1 2.619495 1_555
B10 B11 1.716863 1_554
B10 B5 1.743592 1_554
B10 B14 1.751982 1_555
B10 Ru0 2.384947 1_555
B10 Ru0 2.384947 1_655
B10 Ru1 2.399944 1_654
B10 Ru1 2.399944 1_554
B10 Er2 2.619495 1_555
B10 Er2 2.619495 1_655
B11 B4 1.743592 1_556
B11 B15 1.751982 1_555
B11 Ru1 2.384947 1_655
B11 Ru1 2.384947 1_555
B11 Ru0 2.399944 1_656
B11 Ru0 2.399944 1_556
B11 Er3 2.619495 1_555
B11 Er3 2.619495 1_655
B12 B8 1.751982 1_555
B12 B2 1.865384 1_565
B12 Ru2 2.319998 1_665
B12 Ru2 2.319998 1_565
B12 Er2 2.693003 1_565
B12 Er2 2.693003 1_665
B12 Er0 2.764638 1_555
B12 Er0 2.764638 1_655
B13 B9 1.751982 1_555
B13 B3 1.865384 1_545
B13 Ru3 2.319998 1_545
B13 Ru3 2.319998 1_645
B13 Er3 2.693003 1_545
B13 Er3 2.693003 1_645
B13 Er1 2.764638 1_655
B13 Er1 2.764638 1_555
B14 B2 1.782889 1_555
B14 Ru0 2.319998 1_555
B14 Ru0 2.319998 1_655
B14 Er0 2.693003 1_655
B14 Er0 2.693003 1_555
B14 Er2 2.764638 1_555
B14 Er2 2.764638 1_655
B15 B3 1.782889 1_555
B15 Ru1 2.319998 1_655
B15 Ru1 2.319998 1_555
B15 Er1 2.693003 1_655
B15 Er1 2.693003 1_555
B15 Er3 2.764638 1_655
B15 Er3 2.764638 1_555
Ru0 Ru1 2.719304 1_554
Ru2 Ru3 2.719304 1_545
