# generated using pymatgen
data_Mg14ZrSn
_symmetry_space_group_name_H-M   'P 1'
_cell_length_a   6.40477818
_cell_length_b   6.31049752
_cell_length_c   10.32561735
_cell_angle_alpha   90.00000000
_cell_angle_beta   90.00000000
_cell_angle_gamma   119.51424267
_symmetry_Int_Tables_number   1
_chemical_formula_structural   Mg14ZrSn
_chemical_formula_sum   'Mg14 Zr1 Sn1'
_cell_volume   363.17788821
_cell_formula_units_Z   1
loop_
 _symmetry_equiv_pos_site_id
 _symmetry_equiv_pos_as_xyz
  1  'x, y, z'
loop_
 _atom_site_type_symbol
 _atom_site_label
 _atom_site_symmetry_multiplicity
 _atom_site_fract_x
 _atom_site_fract_y
 _atom_site_fract_z
 _atom_site_occupancy
  Mg  Mg0  1  0.16658968  0.33329434  0.62500000  1
  Mg  Mg1  1  0.16639989  0.83319944  0.62500000  1
  Mg  Mg2  1  0.66677613  0.33180715  0.12500000  1
  Mg  Mg3  1  0.66640325  0.33338796  0.62500000  1
  Mg  Mg4  1  0.66677613  0.83496798  0.12500000  1
  Mg  Mg5  1  0.66640325  0.83301429  0.62500000  1
  Mg  Mg6  1  0.33313141  0.16863423  0.37543742  1
  Mg  Mg7  1  0.33313141  0.16863423  0.87456258  1
  Mg  Mg8  1  0.33313141  0.66449818  0.37543742  1
  Mg  Mg9  1  0.33313141  0.66449818  0.87456258  1
  Mg  Mg10  1  0.83553611  0.16776855  0.37492229  1
  Mg  Mg11  1  0.83553611  0.16776855  0.87507771  1
  Mg  Mg12  1  0.83249860  0.66624980  0.37517120  1
  Mg  Mg13  1  0.83249860  0.66624980  0.87482880  1
  Zr  Zr0  1  0.16527899  0.33263899  0.12500000  1
  Sn  Sn0  1  0.16677762  0.83338831  0.12500000  1
loop_
_geom_bond_atom_site_label_1
_geom_bond_atom_site_label_2
_geom_bond_distance
_geom_bond_site_symmetry_2
Mg0 Mg6 3.154340 1_555
Mg0 Mg7 3.154340 1_555
Mg0 Mg8 3.154346 1_555
Mg0 Mg9 3.154346 1_555
Mg0 Mg1 3.155249 1_555
Mg0 Mg1 3.155249 1_545
Mg0 Mg11 3.173715 1_455
Mg0 Mg10 3.173715 1_455
Mg0 Mg5 3.200904 1_555
Mg0 Mg3 3.200904 1_555
Mg0 Mg5 3.203874 1_445
Mg0 Mg3 3.203874 1_455
Mg1 Mg8 3.167678 1_555
Mg1 Mg9 3.167678 1_555
Mg1 Mg6 3.167684 1_565
Mg1 Mg7 3.167684 1_565
Mg1 Mg13 3.180885 1_455
Mg1 Mg12 3.180885 1_455
Mg1 Mg3 3.201792 1_455
Mg1 Mg5 3.201792 1_455
Mg1 Mg3 3.202986 1_565
Mg1 Mg5 3.202986 1_555
Mg2 Mg4 3.135302 1_545
Mg2 Mg4 3.175195 1_555
Mg2 Mg6 3.185232 1_555
Mg2 Mg7 3.185232 1_554
Mg2 Zr0 3.190217 1_655
Mg2 Sn0 3.197480 1_545
Mg2 Sn0 3.207321 1_655
Mg2 Zr0 3.214567 1_555
Mg3 Mg5 3.152891 1_555
Mg3 Mg5 3.157607 1_545
Mg3 Mg7 3.176626 1_555
Mg3 Mg6 3.176626 1_555
Mg4 Mg9 3.185232 1_554
Mg4 Mg8 3.185232 1_555
Mg4 Zr0 3.190217 1_665
Mg4 Sn0 3.197480 1_555
Mg4 Sn0 3.207321 1_655
Mg4 Zr0 3.214567 1_555
Mg5 Mg9 3.176625 1_555
Mg5 Mg8 3.176625 1_555
Mg6 Mg8 3.129148 1_555
Mg6 Zr0 3.163877 1_555
Mg6 Sn0 3.174421 1_545
Mg6 Mg8 3.181349 1_545
Mg7 Mg9 3.129148 1_555
Mg7 Zr0 3.163877 1_556
Mg7 Sn0 3.174421 1_546
Mg7 Mg9 3.181349 1_545
Mg8 Zr0 3.163883 1_555
Mg8 Sn0 3.174415 1_555
Mg9 Zr0 3.163883 1_556
Mg9 Sn0 3.174415 1_556
Mg10 Mg12 3.155295 1_545
Mg10 Mg12 3.155295 1_555
Mg10 Mg2 3.162556 1_555
Mg10 Mg4 3.162563 1_545
Mg10 Zr0 3.168166 1_655
Mg10 Mg3 3.170024 1_555
Mg10 Mg5 3.170030 1_545
Mg10 Mg8 3.184304 1_655
Mg10 Mg6 3.184304 1_655
Mg10 Mg8 3.220490 1_545
Mg10 Mg6 3.220490 1_555
Mg11 Mg13 3.155295 1_545
Mg11 Mg13 3.155295 1_555
Mg11 Mg2 3.162556 1_556
Mg11 Mg4 3.162563 1_546
Mg11 Zr0 3.168166 1_656
Mg11 Mg3 3.170024 1_555
Mg11 Mg5 3.170030 1_545
Mg11 Mg9 3.184304 1_655
Mg11 Mg7 3.184304 1_655
Mg11 Mg9 3.220490 1_545
Mg11 Mg7 3.220490 1_555
Mg12 Mg5 3.161758 1_555
Mg12 Mg3 3.161764 1_555
Mg12 Mg4 3.169607 1_555
Mg12 Mg2 3.169613 1_555
Mg12 Sn0 3.184984 1_655
Mg12 Mg6 3.192906 1_555
Mg12 Mg8 3.192906 1_555
Mg12 Mg6 3.211903 1_665
Mg12 Mg8 3.211903 1_655
Mg13 Mg5 3.161758 1_555
Mg13 Mg3 3.161764 1_555
Mg13 Mg4 3.169607 1_556
Mg13 Mg2 3.169613 1_556
Mg13 Sn0 3.184984 1_656
Mg13 Mg7 3.192906 1_555
Mg13 Mg9 3.192906 1_555
Mg13 Mg7 3.211903 1_665
Mg13 Mg9 3.211903 1_655
Sn0 Zr0 3.155260 1_565
Sn0 Zr0 3.155260 1_555
