# generated using pymatgen
data_Rb2Zn3GeAs4
_symmetry_space_group_name_H-M   'P 1'
_cell_length_a   8.01599853
_cell_length_b   8.01599853
_cell_length_c   5.88267500
_cell_angle_alpha   90.00000000
_cell_angle_beta   90.00000000
_cell_angle_gamma   136.89181863
_symmetry_Int_Tables_number   1
_chemical_formula_structural   Rb2Zn3GeAs4
_chemical_formula_sum   'Rb2 Zn3 Ge1 As4'
_cell_volume   258.31589121
_cell_formula_units_Z   1
loop_
 _symmetry_equiv_pos_site_id
 _symmetry_equiv_pos_as_xyz
  1  'x, y, z'
loop_
 _atom_site_type_symbol
 _atom_site_label
 _atom_site_symmetry_multiplicity
 _atom_site_fract_x
 _atom_site_fract_y
 _atom_site_fract_z
 _atom_site_occupancy
  Rb  Rb0  1  0.50000000  0.00000000  0.24907800  1
  Rb  Rb1  1  0.00000000  0.50000000  0.75092200  1
  Zn  Zn0  1  0.50000000  0.50000000  0.50000000  1
  Zn  Zn1  1  0.50000000  0.50000000  0.00000000  1
  Zn  Zn2  1  0.00000000  0.00000000  0.50000000  1
  Ge  Ge0  1  0.00000000  0.00000000  0.00000000  1
  As  As0  1  0.65468100  0.86023000  0.75714000  1
  As  As1  1  0.13977000  0.34531900  0.24286000  1
  As  As2  1  0.86023000  0.65468100  0.24286000  1
  As  As3  1  0.34531900  0.13977000  0.75714000  1
loop_
_geom_bond_atom_site_label_1
_geom_bond_atom_site_label_2
_geom_bond_distance
_geom_bond_site_symmetry_2
Ge0 Zn2 2.941337 1_555
Ge0 Zn2 2.941337 1_554
Ge0 Zn1 2.944913 1_445
Ge0 Zn1 2.944913 1_555
As0 Ge0 2.535796 1_666
As0 Zn2 2.584057 1_665
As0 Zn1 2.586290 1_556
As0 Zn0 2.633625 1_555
As0 Rb0 3.632607 1_566
As0 Rb1 3.638177 1_665
As0 Rb1 3.708584 1_555
As0 Rb0 3.708615 1_565
As1 Ge0 2.535796 1_555
As1 Zn2 2.584057 1_555
As1 Zn1 2.586290 1_555
As1 Zn0 2.633625 1_555
As1 Rb1 3.632607 1_554
As1 Rb0 3.638177 1_455
As1 Rb0 3.708584 1_565
As1 Rb1 3.708615 1_555
As2 Ge0 2.535796 1_665
As2 Zn2 2.584057 1_665
As2 Zn1 2.586290 1_555
As2 Zn0 2.633625 1_555
As2 Rb1 3.632607 1_654
As2 Rb0 3.638177 1_665
As2 Rb0 3.708584 1_555
As2 Rb1 3.708615 1_655
As3 Ge0 2.535796 1_556
As3 Zn2 2.584057 1_555
As3 Zn1 2.586290 1_556
As3 Zn0 2.633625 1_555
As3 Rb0 3.632607 1_556
As3 Rb1 3.638177 1_545
As3 Rb1 3.708584 1_655
As3 Rb0 3.708615 1_555
