# generated using pymatgen
data_CaV4(CoO4)3
_symmetry_space_group_name_H-M   'P 1'
_cell_length_a   7.47311437
_cell_length_b   7.45067901
_cell_length_c   7.45150770
_cell_angle_alpha   90.45771436
_cell_angle_beta   89.70725463
_cell_angle_gamma   90.20931694
_symmetry_Int_Tables_number   1
_chemical_formula_structural   CaV4(CoO4)3
_chemical_formula_sum   'Ca2 V8 Co6 O24'
_cell_volume   414.87692058
_cell_formula_units_Z   2
loop_
 _symmetry_equiv_pos_site_id
 _symmetry_equiv_pos_as_xyz
  1  'x, y, z'
loop_
 _atom_site_type_symbol
 _atom_site_label
 _atom_site_symmetry_multiplicity
 _atom_site_fract_x
 _atom_site_fract_y
 _atom_site_fract_z
 _atom_site_occupancy
  Ca  Ca0  1  0.00144100  0.00161100  0.00038100  1
  Ca  Ca1  1  0.49883600  0.49852700  0.50009200  1
  V  V0  1  0.25186800  0.25004500  0.24916000  1
  V  V1  1  0.74841800  0.74989300  0.75070500  1
  V  V2  1  0.24956100  0.74840700  0.75030700  1
  V  V3  1  0.75081000  0.25195200  0.24961400  1
  V  V4  1  0.74991200  0.24972900  0.74969700  1
  V  V5  1  0.25043000  0.75053500  0.25044800  1
  V  V6  1  0.24972400  0.24890700  0.74838000  1
  V  V7  1  0.75056900  0.75071500  0.25160500  1
  Co  Co0  1  0.00037100  0.49943400  0.49965800  1
  Co  Co1  1  0.49924600  0.00135200  0.49906800  1
  Co  Co2  1  0.49974500  0.49808700  0.00072700  1
  Co  Co3  1  0.49986400  0.00026800  0.00019100  1
  Co  Co4  1  0.00345100  0.49921200  0.00074500  1
  Co  Co5  1  0.99981800  0.00237700  0.49963600  1
  O  O0  1  0.00106600  0.30082500  0.81814500  1
  O  O1  1  0.49904900  0.80345100  0.31580000  1
  O  O2  1  0.49906200  0.19754100  0.68394500  1
  O  O3  1  0.00009900  0.69788300  0.18302600  1
  O  O4  1  0.49368500  0.79867500  0.68654300  1
  O  O5  1  0.99301700  0.29726700  0.18677300  1
  O  O6  1  0.00768200  0.70055300  0.81262900  1
  O  O7  1  0.50522000  0.20394500  0.31399900  1
  O  O8  1  0.18320000  0.00491300  0.70269800  1
  O  O9  1  0.68554700  0.50653700  0.20164800  1
  O  O10  1  0.31654200  0.49512400  0.79741300  1
  O  O11  1  0.81274400  0.99344600  0.29902300  1
  O  O12  1  0.31616200  0.49983400  0.19819000  1
  O  O13  1  0.81627400  0.00399300  0.70082600  1
  O  O14  1  0.18099600  0.00053600  0.29980000  1
  O  O15  1  0.68427100  0.49533900  0.79902000  1
  O  O16  1  0.29653000  0.18479300  0.00560200  1
  O  O17  1  0.79806600  0.68680500  0.50694600  1
  O  O18  1  0.20292600  0.31496800  0.49533200  1
  O  O19  1  0.70289000  0.81287200  0.99208500  1
  O  O20  1  0.80165600  0.31738000  0.50111300  1
  O  O21  1  0.30042000  0.81650400  0.00358700  1
  O  O22  1  0.69805600  0.18190300  0.99997000  1
  O  O23  1  0.20077600  0.68386300  0.49547300  1
loop_
_geom_bond_atom_site_label_1
_geom_bond_atom_site_label_2
_geom_bond_distance
_geom_bond_site_symmetry_2
Ca0 O16 2.589473 1_555
Ca0 O8 2.595341 1_554
Ca0 O5 2.595524 1_455
Ca0 O14 2.609493 1_555
Ca0 O0 2.619624 1_554
Ca0 O11 2.629413 1_445
Ca0 O21 2.630283 1_545
Ca0 O13 2.632481 1_454
Ca0 O19 2.633675 1_444
Ca0 O6 2.634553 1_544
Ca0 O22 2.639542 1_454
Ca0 O3 2.649971 1_545
Ca1 O7 2.587258 1_555
Ca1 O10 2.595133 1_555
Ca1 O18 2.596108 1_555
Ca1 O9 2.620268 1_555
Ca1 O4 2.623596 1_555
Ca1 O23 2.625548 1_555
Ca1 O15 2.629671 1_555
Ca1 O17 2.635917 1_555
Ca1 O2 2.637237 1_555
Ca1 O12 2.637490 1_555
Ca1 O20 2.639228 1_555
Ca1 O1 2.664041 1_555
Co0 O20 2.007647 1_455
Co0 O23 2.029115 1_555
Co0 O18 2.048253 1_555
Co0 O17 2.061780 1_455
Co1 O2 2.000582 1_555
Co1 O1 2.001725 1_545
Co1 O7 2.052887 1_555
Co1 O4 2.065491 1_545
Co2 O12 2.006635 1_555
Co2 O15 2.034607 1_554
Co2 O10 2.047087 1_554
Co2 O9 2.047572 1_555
Co3 O22 2.002621 1_554
Co3 O21 2.020398 1_545
Co3 O16 2.052937 1_555
Co3 O19 2.065987 1_544
Co4 O3 2.001103 1_555
Co4 O0 2.001107 1_554
Co4 O5 2.054961 1_455
Co4 O6 2.061329 1_554
Co5 O14 2.007479 1_655
Co5 O13 2.026791 1_555
Co5 O8 2.046587 1_655
Co5 O11 2.052468 1_545
O0 V6 1.965996 1_555
O0 V4 1.982245 1_455
O1 V5 1.960973 1_555
O1 V7 1.977232 1_555
O2 V6 1.960137 1_555
O2 V4 1.976487 1_555
O3 V7 1.971256 1_455
O3 V5 1.976639 1_555
O4 V2 1.919202 1_555
O4 V1 2.000424 1_555
O5 V3 1.897078 1_555
O5 V0 2.024517 1_655
O6 V2 1.897241 1_555
O6 V1 2.029544 1_455
O7 V3 1.927555 1_555
O7 V0 1.988178 1_555
O8 V6 1.911308 1_555
O8 V2 2.010925 1_545
O9 V7 1.915485 1_555
O9 V3 1.995735 1_555
O10 V6 1.932001 1_555
O10 V2 1.988544 1_555
O11 V7 1.896517 1_555
O11 V3 2.019655 1_565
O12 V0 1.960022 1_555
O12 V5 1.968523 1_555
O13 V4 1.929998 1_555
O13 V1 1.995460 1_545
O14 V5 1.966778 1_545
O14 V0 1.969974 1_555
O15 V4 1.928326 1_555
O15 V1 1.989727 1_555
O16 V0 1.903268 1_555
O16 V6 2.011703 1_554
O17 V1 1.907501 1_555
O17 V7 1.998879 1_555
O18 V0 1.926880 1_555
O18 V6 1.985659 1_555
O19 V1 1.884806 1_555
O19 V7 2.025741 1_556
O20 V4 1.959815 1_555
O20 V3 1.971142 1_555
O21 V5 1.941891 1_555
O21 V2 1.988585 1_554
O22 V3 1.969449 1_556
O22 V4 1.972230 1_555
O23 V5 1.929830 1_555
O23 V2 1.990274 1_555
