# generated using pymatgen
data_Mg19Ge5
_symmetry_space_group_name_H-M   'P 1'
_cell_length_a   8.15263600
_cell_length_b   8.15263600
_cell_length_c   8.15263600
_cell_angle_alpha   90.00000000
_cell_angle_beta   90.00000000
_cell_angle_gamma   90.00000000
_symmetry_Int_Tables_number   1
_chemical_formula_structural   Mg19Ge5
_chemical_formula_sum   'Mg19 Ge5'
_cell_volume   541.86881404
_cell_formula_units_Z   1
loop_
 _symmetry_equiv_pos_site_id
 _symmetry_equiv_pos_as_xyz
  1  'x, y, z'
loop_
 _atom_site_type_symbol
 _atom_site_label
 _atom_site_symmetry_multiplicity
 _atom_site_fract_x
 _atom_site_fract_y
 _atom_site_fract_z
 _atom_site_occupancy
  Mg  Mg0  1  0.00000000  0.00000000  0.50000000  1
  Mg  Mg1  1  0.00000000  0.50000000  0.00000000  1
  Mg  Mg2  1  0.50000000  0.00000000  0.00000000  1
  Mg  Mg3  1  0.37549800  0.87372000  0.37549800  1
  Mg  Mg4  1  0.37549800  0.37549800  0.87372000  1
  Mg  Mg5  1  0.87372000  0.37549800  0.37549800  1
  Mg  Mg6  1  0.87481300  0.87481300  0.87481300  1
  Mg  Mg7  1  0.37549800  0.12628000  0.62450200  1
  Mg  Mg8  1  0.37549800  0.62450200  0.12628000  1
  Mg  Mg9  1  0.87372000  0.62450200  0.62450200  1
  Mg  Mg10  1  0.87481300  0.12518700  0.12518700  1
  Mg  Mg11  1  0.62450200  0.87372000  0.62450200  1
  Mg  Mg12  1  0.62450200  0.37549800  0.12628000  1
  Mg  Mg13  1  0.12628000  0.37549800  0.62450200  1
  Mg  Mg14  1  0.12518700  0.87481300  0.12518700  1
  Mg  Mg15  1  0.62450200  0.12628000  0.37549800  1
  Mg  Mg16  1  0.62450200  0.62450200  0.87372000  1
  Mg  Mg17  1  0.12628000  0.62450200  0.37549800  1
  Mg  Mg18  1  0.12518700  0.12518700  0.87481300  1
  Ge  Ge0  1  0.75035100  0.75035100  0.24964900  1
  Ge  Ge1  1  0.24964900  0.24964900  0.24964900  1
  Ge  Ge2  1  0.50000000  0.50000000  0.50000000  1
  Ge  Ge3  1  0.24964900  0.75035100  0.75035100  1
  Ge  Ge4  1  0.75035100  0.24964900  0.75035100  1
loop_
_geom_bond_atom_site_label_1
_geom_bond_atom_site_label_2
_geom_bond_distance
_geom_bond_site_symmetry_2
Mg0 Mg18 3.379446 1_555
Mg0 Mg14 3.379446 1_545
Mg0 Mg6 3.379446 1_445
Mg0 Mg10 3.379446 1_455
Mg0 Mg17 3.385515 1_545
Mg0 Mg11 3.385515 1_445
Mg0 Mg5 3.385515 1_455
Mg0 Mg3 3.385515 1_545
Mg0 Mg9 3.385515 1_445
Mg0 Mg13 3.385515 1_555
Mg0 Mg7 3.385515 1_555
Mg0 Mg15 3.385515 1_455
Mg1 Mg14 3.379446 1_555
Mg1 Mg6 3.379446 1_454
Mg1 Mg18 3.379446 1_554
Mg1 Mg10 3.379446 1_455
Mg1 Mg13 3.385515 1_554
Mg1 Mg9 3.385515 1_454
Mg1 Mg4 3.385515 1_554
Mg1 Mg16 3.385515 1_454
Mg1 Mg17 3.385515 1_555
Mg1 Mg5 3.385515 1_455
Mg1 Mg8 3.385515 1_555
Mg1 Mg12 3.385515 1_455
Mg2 Mg6 3.379446 1_544
Mg2 Mg7 3.385515 1_554
Mg2 Mg4 3.385515 1_554
Mg2 Mg3 3.385515 1_545
Mg2 Mg8 3.385515 1_545
Mg3 Mg8 2.873376 1_555
Mg3 Mg7 2.891481 1_565
Mg4 Mg7 2.873376 1_555
Mg4 Mg8 2.891481 1_556
Mg5 Mg9 2.870909 1_555
Mg6 Mg9 2.885992 1_555
Mg10 Mg15 2.885992 1_555
Mg10 Mg5 2.885992 1_555
Mg10 Mg12 2.885992 1_555
Mg10 Mg14 2.886704 1_645
Mg10 Mg18 2.886704 1_654
Mg10 Mg6 2.886704 1_544
Mg10 Mg2 3.379446 1_555
Mg11 Mg3 2.870909 1_555
Mg11 Mg9 2.873376 1_555
Mg11 Mg16 2.873376 1_555
Mg11 Mg6 2.885992 1_555
Mg11 Mg7 2.891481 1_565
Mg11 Mg15 2.891481 1_565
Mg11 Mg2 3.385515 1_566
Mg12 Mg8 2.870909 1_555
Mg12 Mg15 2.873376 1_555
Mg12 Mg5 2.873376 1_555
Mg12 Mg16 2.891481 1_554
Mg12 Mg4 2.891481 1_554
Mg12 Mg2 3.385515 1_555
Mg13 Mg17 2.870909 1_555
Mg13 Mg4 2.873376 1_555
Mg13 Mg7 2.873376 1_555
Mg13 Mg18 2.885992 1_555
Mg13 Mg5 2.891481 1_455
Mg13 Mg9 2.891481 1_455
Mg14 Mg3 2.885992 1_555
Mg14 Mg17 2.885992 1_555
Mg14 Mg8 2.885992 1_555
Mg14 Mg18 2.886704 1_564
Mg14 Mg6 2.886704 1_454
Mg14 Mg2 3.379446 1_565
Mg15 Mg7 2.870909 1_555
Mg15 Mg5 2.873376 1_555
Mg15 Mg3 2.891481 1_545
Mg15 Mg2 3.385515 1_555
Mg16 Mg4 2.870909 1_555
Mg16 Mg9 2.873376 1_555
Mg16 Mg6 2.885992 1_555
Mg16 Mg8 2.891481 1_556
Mg16 Mg2 3.385515 1_566
Mg17 Mg3 2.873376 1_555
Mg17 Mg8 2.873376 1_555
Mg17 Mg5 2.891481 1_455
Mg17 Mg9 2.891481 1_455
Mg18 Mg4 2.885992 1_555
Mg18 Mg7 2.885992 1_555
Mg18 Mg6 2.886704 1_445
Mg18 Mg2 3.379446 1_556
Ge0 Mg6 3.376054 1_554
Ge0 Mg14 3.376054 1_655
Ge0 Mg10 3.376054 1_565
Ge0 Mg8 3.376930 1_555
Ge0 Mg12 3.376930 1_555
Ge0 Mg3 3.376930 1_555
Ge0 Mg5 3.376930 1_555
Ge0 Mg11 3.376930 1_555
Ge0 Mg9 3.376930 1_555
Ge0 Mg16 3.390934 1_554
Ge0 Mg15 3.390934 1_565
Ge0 Mg17 3.390934 1_655
Ge1 Mg10 3.376054 1_455
Ge1 Mg14 3.376054 1_545
Ge1 Mg18 3.376054 1_554
Ge1 Mg13 3.376930 1_555
Ge1 Mg7 3.376930 1_555
Ge1 Mg8 3.376930 1_555
Ge1 Mg17 3.376930 1_555
Ge1 Mg12 3.376930 1_555
Ge1 Mg15 3.376930 1_555
Ge1 Mg4 3.390934 1_554
Ge1 Mg5 3.390934 1_455
Ge1 Mg3 3.390934 1_545
Ge2 Mg3 3.368017 1_555
Ge2 Mg17 3.368017 1_555
Ge2 Mg7 3.368017 1_555
Ge2 Mg8 3.368017 1_555
Ge2 Mg11 3.368017 1_555
Ge2 Mg12 3.368017 1_555
Ge2 Mg5 3.368017 1_555
Ge2 Mg9 3.368017 1_555
Ge2 Mg15 3.368017 1_555
Ge2 Mg16 3.368017 1_555
Ge2 Mg4 3.368017 1_555
Ge2 Mg13 3.368017 1_555
Ge3 Mg6 3.376054 1_455
Ge3 Mg14 3.376054 1_556
Ge3 Mg18 3.376054 1_565
Ge3 Mg13 3.376930 1_555
Ge3 Mg17 3.376930 1_555
Ge3 Mg3 3.376930 1_555
Ge3 Mg4 3.376930 1_555
Ge3 Mg11 3.376930 1_555
Ge3 Mg16 3.376930 1_555
Ge3 Mg9 3.390934 1_455
Ge3 Mg7 3.390934 1_565
Ge3 Mg8 3.390934 1_556
Ge4 Mg6 3.376054 1_545
Ge4 Mg10 3.376054 1_556
Ge4 Mg18 3.376054 1_655
Ge4 Mg15 3.376930 1_555
Ge4 Mg7 3.376930 1_555
Ge4 Mg5 3.376930 1_555
Ge4 Mg4 3.376930 1_555
Ge4 Mg16 3.376930 1_555
Ge4 Mg9 3.376930 1_555
Ge4 Mg11 3.390934 1_545
Ge4 Mg12 3.390934 1_556
Ge4 Mg13 3.390934 1_655
