# generated using pymatgen
data_Tb2InNi2
_symmetry_space_group_name_H-M   'P 1'
_cell_length_a   3.59996100
_cell_length_b   7.33889373
_cell_length_c   7.33889373
_cell_angle_alpha   90.00000000
_cell_angle_beta   90.00000000
_cell_angle_gamma   90.00000000
_symmetry_Int_Tables_number   1
_chemical_formula_structural   Tb2InNi2
_chemical_formula_sum   'Tb4 In2 Ni4'
_cell_volume   193.89159973
_cell_formula_units_Z   2
loop_
 _symmetry_equiv_pos_site_id
 _symmetry_equiv_pos_as_xyz
  1  'x, y, z'
loop_
 _atom_site_type_symbol
 _atom_site_label
 _atom_site_symmetry_multiplicity
 _atom_site_fract_x
 _atom_site_fract_y
 _atom_site_fract_z
 _atom_site_occupancy
  Tb  Tb0  1  0.50000000  0.17524700  0.67524700  1
  Tb  Tb1  1  0.50000000  0.82475300  0.32475300  1
  Tb  Tb2  1  0.50000000  0.32475300  0.17524700  1
  Tb  Tb3  1  0.50000000  0.67524700  0.82475300  1
  In  In0  1  0.00000000  0.50000000  0.50000000  1
  In  In1  1  -0.00000000  0.00000000  -0.00000000  1
  Ni  Ni0  1  0.00000000  0.38177097  0.88177097  1
  Ni  Ni1  1  -0.00000000  0.61822903  0.11822903  1
  Ni  Ni2  1  -0.00000000  0.11822903  0.38177097  1
  Ni  Ni3  1  0.00000000  0.88177097  0.61822903  1
loop_
_geom_bond_atom_site_label_1
_geom_bond_atom_site_label_2
_geom_bond_distance
_geom_bond_site_symmetry_2
In0 Ni1 2.933054 1_555
In0 Ni2 2.933054 1_555
In0 Ni0 2.933054 1_555
In0 Ni3 2.933054 1_555
In0 Tb3 3.251812 1_555
In0 Tb3 3.251812 1_455
In0 Tb0 3.251812 1_455
In0 Tb0 3.251812 1_555
In0 Tb1 3.251812 1_455
In0 Tb1 3.251812 1_555
In0 Tb2 3.251812 1_455
In0 Tb2 3.251812 1_555
In1 Ni1 2.933054 1_545
In1 Ni3 2.933054 1_544
In1 Ni0 2.933054 1_554
In1 Ni2 2.933054 1_555
In1 Tb2 3.251812 1_455
In1 Tb2 3.251812 1_555
In1 Tb1 3.251812 1_445
In1 Tb1 3.251812 1_545
In1 Tb0 3.251812 1_454
In1 Tb0 3.251812 1_554
In1 Tb3 3.251812 1_544
In1 Tb3 3.251812 1_444
Ni0 Ni1 2.454142 1_556
Ni0 Tb0 2.798994 1_455
Ni0 Tb0 2.798994 1_555
Ni0 Tb3 2.837928 1_455
Ni0 Tb3 2.837928 1_555
Ni0 Tb2 2.837928 1_556
Ni0 Tb2 2.837928 1_456
Ni1 Tb1 2.798994 1_455
Ni1 Tb1 2.798994 1_555
Ni1 Tb3 2.837928 1_454
Ni1 Tb3 2.837928 1_554
Ni1 Tb2 2.837928 1_555
Ni1 Tb2 2.837928 1_455
Ni2 Ni3 2.454142 1_545
Ni2 Tb2 2.798994 1_555
Ni2 Tb2 2.798994 1_455
Ni2 Tb0 2.837928 1_455
Ni2 Tb0 2.837928 1_555
Ni2 Tb1 2.837928 1_545
Ni2 Tb1 2.837928 1_445
Ni3 Tb3 2.798994 1_455
Ni3 Tb3 2.798994 1_555
Ni3 Tb0 2.837928 1_565
Ni3 Tb0 2.837928 1_465
Ni3 Tb1 2.837928 1_455
Ni3 Tb1 2.837928 1_555
