# generated using pymatgen
data_La2Ag2O5
_symmetry_space_group_name_H-M   'P 1'
_cell_length_a   9.16362371
_cell_length_b   9.16362371
_cell_length_c   9.16362371
_cell_angle_alpha   143.45267695
_cell_angle_beta   140.92857414
_cell_angle_gamma   54.56871737
_symmetry_Int_Tables_number   1
_chemical_formula_structural   La2Ag2O5
_chemical_formula_sum   'La4 Ag4 O10'
_cell_volume   286.82146814
_cell_formula_units_Z   2
loop_
 _symmetry_equiv_pos_site_id
 _symmetry_equiv_pos_as_xyz
  1  'x, y, z'
loop_
 _atom_site_type_symbol
 _atom_site_label
 _atom_site_symmetry_multiplicity
 _atom_site_fract_x
 _atom_site_fract_y
 _atom_site_fract_z
 _atom_site_occupancy
  La  La0  1  0.86866000  0.39380900  0.49659200  1
  La  La1  1  0.13134000  0.62793200  0.52514900  1
  La  La2  1  0.39721600  0.89380900  0.52514900  1
  La  La3  1  0.60278400  0.12793200  0.49659200  1
  Ag  Ag0  1  0.00000000  0.98518600  0.98518600  1
  Ag  Ag1  1  0.50000000  0.48518600  0.98518600  1
  Ag  Ag2  1  0.79263900  0.76877000  0.06140900  1
  Ag  Ag3  1  0.20736100  0.26877000  0.97613100  1
  O  O0  1  0.77394200  0.77786500  0.48391900  1
  O  O1  1  0.22605800  0.70997800  0.00392300  1
  O  O2  1  0.79394500  0.27786500  0.00392300  1
  O  O3  1  0.20605500  0.20997800  0.48391900  1
  O  O4  1  0.76280900  0.80427500  0.82280800  1
  O  O5  1  0.23719100  0.05999900  0.04146700  1
  O  O6  1  0.48146800  0.30427500  0.04146700  1
  O  O7  1  0.51853200  0.55999900  0.82280800  1
  O  O8  1  0.82523700  0.20818600  0.53342300  1
  O  O9  1  0.17476300  0.70818600  0.38294900  1
loop_
_geom_bond_atom_site_label_1
_geom_bond_atom_site_label_2
_geom_bond_distance
_geom_bond_site_symmetry_2
La0 O8 2.254168 1_555
La0 O6 2.357254 1_555
La0 O4 2.496163 1_555
La0 O1 2.540084 1_656
La0 O3 2.571900 1_655
La1 O9 2.254168 1_555
La1 O7 2.357255 1_555
La1 O5 2.496166 1_566
La1 O0 2.540081 1_455
La1 O2 2.571896 1_455
La2 O9 2.254160 1_555
La2 O4 2.357263 1_555
La2 O6 2.496162 1_566
La2 O3 2.540090 1_565
La2 O1 2.571900 1_555
La3 O8 2.254159 1_555
La3 O5 2.357257 1_555
La3 O7 2.496169 1_555
La3 O2 2.540088 1_556
La3 O0 2.571892 1_545
Ag0 O3 2.163272 1_566
Ag0 O2 2.163278 1_466
Ag0 O1 2.183332 1_556
Ag0 O0 2.183338 1_455
Ag0 O5 2.208899 1_566
Ag0 O4 2.208906 1_455
Ag1 O0 2.163276 1_556
Ag1 O1 2.163278 1_556
Ag1 O2 2.183332 1_556
Ag1 O3 2.183334 1_555
Ag1 O7 2.208899 1_555
Ag1 O6 2.208908 1_556
Ag2 O4 2.252330 1_554
Ag2 O7 2.252338 1_554
Ag2 O9 2.367595 1_655
Ag2 O8 2.533046 1_565
Ag3 O6 2.252333 1_556
Ag3 O5 2.252338 1_556
Ag3 O8 2.367595 1_455
Ag3 O9 2.533046 1_556
