# generated using pymatgen
data_MgU2P2(H10O11)2
_symmetry_space_group_name_H-M   'P 1'
_cell_length_a   19.98267500
_cell_length_b   7.01949200
_cell_length_c   9.86110334
_cell_angle_alpha   45.45259174
_cell_angle_beta   90.00000000
_cell_angle_gamma   90.00000000
_symmetry_Int_Tables_number   1
_chemical_formula_structural   MgU2P2(H10O11)2
_chemical_formula_sum   'Mg2 U4 P4 H40 O44'
_cell_volume   985.76512503
_cell_formula_units_Z   2
loop_
 _symmetry_equiv_pos_site_id
 _symmetry_equiv_pos_as_xyz
  1  'x, y, z'
loop_
 _atom_site_type_symbol
 _atom_site_label
 _atom_site_symmetry_multiplicity
 _atom_site_fract_x
 _atom_site_fract_y
 _atom_site_fract_z
 _atom_site_occupancy
  Mg  Mg0  1  0.00000000  0.00000000  0.00000000  1
  Mg  Mg1  1  0.50000000  0.00000000  0.50000000  1
  U  U0  1  0.70700100  0.52819900  0.01938700  1
  U  U1  1  0.29299900  0.47180100  0.98061300  1
  U  U2  1  0.20700100  0.47180100  0.48061300  1
  U  U3  1  0.79299900  0.52819900  0.51938700  1
  P  P0  1  0.25056000  0.97259000  0.47671900  1
  P  P1  1  0.74944000  0.02741000  0.52328100  1
  P  P2  1  0.75056000  0.02741000  0.02328100  1
  P  P3  1  0.24944000  0.97259000  0.97671900  1
  H  H0  1  0.55700000  0.82708400  0.14345800  1
  H  H1  1  0.44300000  0.17291600  0.85654200  1
  H  H2  1  0.05700000  0.17291600  0.35654200  1
  H  H3  1  0.94300000  0.82708400  0.64345800  1
  H  H4  1  0.53520700  0.44648800  0.13895800  1
  H  H5  1  0.46479300  0.55351200  0.86104200  1
  H  H6  1  0.03520700  0.55351200  0.36104200  1
  H  H7  1  0.96479300  0.44648800  0.63895800  1
  H  H8  1  0.42501900  0.63908400  0.54754900  1
  H  H9  1  0.57498100  0.36091600  0.45245100  1
  H  H10  1  0.92501900  0.36091600  0.95245100  1
  H  H11  1  0.07498100  0.63908400  0.04754900  1
  H  H12  1  0.38819800  0.91835600  0.38681000  1
  H  H13  1  0.61180200  0.08164400  0.61319000  1
  H  H14  1  0.88819800  0.08164400  0.11319000  1
  H  H15  1  0.11180200  0.91835600  0.88681000  1
  H  H16  1  0.38337000  0.75905200  0.11048900  1
  H  H17  1  0.61663000  0.24094800  0.88951100  1
  H  H18  1  0.88337000  0.24094800  0.38951100  1
  H  H19  1  0.11663000  0.75905200  0.61048900  1
  H  H20  1  0.58132300  0.83585100  0.36626100  1
  H  H21  1  0.41867700  0.16414900  0.63373900  1
  H  H22  1  0.08132300  0.16414900  0.13373900  1
  H  H23  1  0.91867700  0.83585100  0.86626100  1
  H  H24  1  0.97134700  0.47703700  0.30705400  1
  H  H25  1  0.02865300  0.52296300  0.69294600  1
  H  H26  1  0.47134700  0.52296300  0.19294600  1
  H  H27  1  0.52865300  0.47703700  0.80705400  1
  H  H28  1  0.42178200  0.75328200  0.25174500  1
  H  H29  1  0.57821800  0.24671800  0.74825500  1
  H  H30  1  0.92178200  0.24671800  0.24825500  1
  H  H31  1  0.07821800  0.75328200  0.75174500  1
  H  H32  1  0.62966500  0.73587700  0.21245300  1
  H  H33  1  0.37033500  0.26412300  0.78754700  1
  H  H34  1  0.12966500  0.26412300  0.28754700  1
  H  H35  1  0.87033500  0.73587700  0.71245300  1
  H  H36  1  0.62549600  0.97512400  0.41062800  1
  H  H37  1  0.37450400  0.02487600  0.58937200  1
  H  H38  1  0.12549600  0.02487600  0.08937200  1
  H  H39  1  0.87450400  0.97512400  0.91062800  1
  O  O0  1  0.79782700  0.89955300  0.19422400  1
  O  O1  1  0.20217300  0.10044700  0.80577600  1
  O  O2  1  0.29782700  0.10044700  0.30577600  1
  O  O3  1  0.70217300  0.89955300  0.69422400  1
  O  O4  1  0.61604000  0.53068200  0.02507800  1
  O  O5  1  0.38396000  0.46931800  0.97492200  1
  O  O6  1  0.11604000  0.46931800  0.47492200  1
  O  O7  1  0.88396000  0.53068200  0.52507800  1
  O  O8  1  0.79773400  0.52380100  0.01508200  1
  O  O9  1  0.20226600  0.47619900  0.98491800  1
  O  O10  1  0.29773400  0.47619900  0.48491800  1
  O  O11  1  0.70226600  0.52380100  0.51508200  1
  O  O12  1  0.58412100  0.71502700  0.26000400  1
  O  O13  1  0.41587900  0.28497300  0.73999600  1
  O  O14  1  0.08412100  0.28497300  0.23999600  1
  O  O15  1  0.91587900  0.71502700  0.76000400  1
  O  O16  1  0.42825800  0.77634900  0.14215000  1
  O  O17  1  0.57174200  0.22365100  0.85785000  1
  O  O18  1  0.92825800  0.22365100  0.35785000  1
  O  O19  1  0.07174200  0.77634900  0.64215000  1
  O  O20  1  0.43248400  0.83146600  0.43060100  1
  O  O21  1  0.56751600  0.16853400  0.56939900  1
  O  O22  1  0.93248400  0.16853400  0.06939900  1
  O  O23  1  0.06751600  0.83146600  0.93060100  1
  O  O24  1  0.29817500  0.76805200  0.01249100  1
  O  O25  1  0.70182500  0.23194800  0.98750900  1
  O  O26  1  0.79817500  0.23194800  0.48750900  1
  O  O27  1  0.20182500  0.76805200  0.51249100  1
  O  O28  1  0.58103000  0.89730000  0.43130000  1
  O  O29  1  0.41897000  0.10270000  0.56870000  1
  O  O30  1  0.08103000  0.10270000  0.06870000  1
  O  O31  1  0.91897000  0.89730000  0.93130000  1
  O  O32  1  0.99687900  0.62696500  0.27403800  1
  O  O33  1  0.00312100  0.37303500  0.72596200  1
  O  O34  1  0.49687900  0.37303500  0.22596200  1
  O  O35  1  0.50312100  0.62696500  0.77403800  1
  O  O36  1  0.20433000  0.83303700  0.15331600  1
  O  O37  1  0.79567000  0.16696300  0.84668400  1
  O  O38  1  0.70433000  0.16696300  0.34668400  1
  O  O39  1  0.29567000  0.83303700  0.65331600  1
  O  O40  1  0.70678200  0.80797300  0.06538300  1
  O  O41  1  0.29321800  0.19202700  0.93461700  1
  O  O42  1  0.20678200  0.19202700  0.43461700  1
  O  O43  1  0.79321800  0.80797300  0.56538300  1
loop_
_geom_bond_atom_site_label_1
_geom_bond_atom_site_label_2
_geom_bond_distance
_geom_bond_site_symmetry_2
Mg0 O33 2.057992 1_554
Mg0 O32 2.057992 1_445
Mg0 O31 2.070179 1_444
Mg0 O30 2.070179 1_555
Mg0 O23 2.196351 1_544
Mg0 O22 2.196351 1_455
Mg1 O35 2.057992 1_545
Mg1 O34 2.057992 1_555
Mg1 O29 2.070179 1_555
Mg1 O28 2.070179 1_545
Mg1 O21 2.196351 1_555
Mg1 O20 2.196351 1_545
H0 O12 0.982314 1_555
H1 O13 0.982314 1_555
H2 O14 0.982314 1_555
H3 O15 0.982314 1_555
H4 O34 0.983816 1_555
H5 O35 0.983816 1_555
H6 O32 0.983816 1_455
H7 O33 0.983816 1_655
H8 O20 0.995430 1_555
H9 O21 0.995430 1_555
H10 O22 0.995430 1_556
H11 O23 0.995430 1_554
H12 O20 0.985951 1_555
H13 O21 0.985951 1_555
H14 O22 0.985951 1_555
H15 O23 0.985951 1_555
H16 O16 0.984876 1_555
H17 O17 0.984876 1_555
H18 O18 0.984876 1_555
H19 O19 0.984876 1_555
H20 O28 0.992752 1_555
H21 O29 0.992752 1_555
H22 O30 0.992752 1_555
H23 O31 0.992752 1_555
H24 O32 0.996575 1_555
H25 O33 0.996575 1_555
H26 O34 0.996575 1_555
H27 O35 0.996575 1_555
H28 O16 0.982561 1_555
H29 O17 0.982561 1_555
H30 O18 0.982561 1_555
H31 O19 0.982561 1_555
H32 O12 0.986546 1_555
H33 O13 0.986546 1_555
H34 O14 0.986546 1_555
H35 O15 0.986546 1_555
H36 O28 0.986542 1_555
H37 O29 0.986542 1_555
H38 O30 0.986542 1_555
H39 O31 0.986542 1_555
O0 P2 1.554532 1_565
O0 U3 2.314942 1_555
O1 P3 1.554532 1_545
O1 U2 2.314942 1_555
O2 P0 1.554532 1_545
O2 U1 2.314942 1_554
O3 P1 1.554532 1_565
O3 U0 2.314942 1_556
O4 U0 1.818971 1_555
O5 U1 1.818971 1_555
O6 U2 1.818971 1_555
O7 U3 1.818971 1_555
O8 U0 1.814354 1_555
O9 U1 1.814354 1_555
O10 U2 1.814354 1_555
O11 U3 1.814354 1_555
O24 P3 1.556807 1_554
O24 U1 2.313248 1_554
O25 P2 1.556807 1_556
O25 U0 2.313248 1_556
O26 P1 1.556807 1_555
O26 U3 2.313248 1_555
O27 P0 1.556807 1_555
O27 U2 2.313248 1_555
O36 P3 1.552867 1_554
O36 U2 2.316744 1_555
O37 P2 1.552867 1_556
O37 U3 2.316744 1_555
O38 P1 1.552867 1_555
O38 U0 2.316744 1_555
O39 P0 1.552867 1_555
O39 U1 2.316744 1_555
O40 P2 1.553402 1_565
O40 U0 2.304835 1_555
O41 P3 1.553402 1_545
O41 U1 2.304835 1_555
O42 P0 1.553402 1_545
O42 U2 2.304835 1_555
O43 P1 1.553402 1_565
O43 U3 2.304835 1_555
