# generated using pymatgen
data_Rb2ScAgI6
_symmetry_space_group_name_H-M   'P 1'
_cell_length_a   8.40048937
_cell_length_b   8.40048937
_cell_length_c   8.40048937
_cell_angle_alpha   60.00000000
_cell_angle_beta   60.00000000
_cell_angle_gamma   60.00000000
_symmetry_Int_Tables_number   1
_chemical_formula_structural   Rb2ScAgI6
_chemical_formula_sum   'Rb2 Sc1 Ag1 I6'
_cell_volume   419.17827123
_cell_formula_units_Z   1
loop_
 _symmetry_equiv_pos_site_id
 _symmetry_equiv_pos_as_xyz
  1  'x, y, z'
loop_
 _atom_site_type_symbol
 _atom_site_label
 _atom_site_symmetry_multiplicity
 _atom_site_fract_x
 _atom_site_fract_y
 _atom_site_fract_z
 _atom_site_occupancy
  Rb  Rb0  1  0.75000000  0.75000000  0.75000000  1
  Rb  Rb1  1  0.25000000  0.25000000  0.25000000  1
  Sc  Sc0  1  0.00000000  0.00000000  0.00000000  1
  Ag  Ag0  1  0.50000000  0.50000000  0.50000000  1
  I  I0  1  0.75571700  0.24428300  0.24428300  1
  I  I1  1  0.24428300  0.24428300  0.75571700  1
  I  I2  1  0.24428300  0.75571700  0.75571700  1
  I  I3  1  0.24428300  0.75571700  0.24428300  1
  I  I4  1  0.75571700  0.24428300  0.75571700  1
  I  I5  1  0.75571700  0.75571700  0.24428300  1
loop_
_geom_bond_atom_site_label_1
_geom_bond_atom_site_label_2
_geom_bond_distance
_geom_bond_site_symmetry_2
Ag0 I0 3.037940 1_555
Ag0 I1 3.037940 1_555
Ag0 I4 3.037940 1_555
Ag0 I5 3.037940 1_555
Ag0 I2 3.037940 1_555
Ag0 I3 3.037940 1_555
I0 Sc0 2.902103 1_655
I0 Rb0 4.200794 1_545
I0 Rb1 4.200794 1_655
I0 Rb0 4.200794 1_554
I0 Rb1 4.200794 1_555
I1 Sc0 2.902103 1_556
I1 Rb1 4.200794 1_555
I1 Rb1 4.200794 1_556
I1 Rb0 4.200794 1_545
I1 Rb0 4.200794 1_455
I2 Sc0 2.902103 1_566
I2 Rb1 4.200794 1_556
I2 Rb1 4.200794 1_565
I2 Rb0 4.200794 1_455
I2 Rb0 4.200794 1_555
I3 Sc0 2.902103 1_565
I3 Rb1 4.200794 1_565
I3 Rb0 4.200794 1_554
I3 Rb0 4.200794 1_455
I3 Rb1 4.200794 1_555
I4 Sc0 2.902103 1_656
I4 Rb1 4.200794 1_556
I4 Rb0 4.200794 1_545
I4 Rb1 4.200794 1_655
I4 Rb0 4.200794 1_555
I5 Sc0 2.902103 1_665
I5 Rb1 4.200794 1_565
I5 Rb1 4.200794 1_655
I5 Rb0 4.200794 1_554
I5 Rb0 4.200794 1_555
