# generated using pymatgen
data_Ba7HfN6
_symmetry_space_group_name_H-M   'P 1'
_cell_length_a   12.51327500
_cell_length_b   7.27575500
_cell_length_c   14.95708300
_cell_angle_alpha   90.00000000
_cell_angle_beta   90.00000000
_cell_angle_gamma   90.00000000
_symmetry_Int_Tables_number   1
_chemical_formula_structural   Ba7HfN6
_chemical_formula_sum   'Ba28 Hf4 N24'
_cell_volume   1361.74553233
_cell_formula_units_Z   4
loop_
 _symmetry_equiv_pos_site_id
 _symmetry_equiv_pos_as_xyz
  1  'x, y, z'
loop_
 _atom_site_type_symbol
 _atom_site_label
 _atom_site_symmetry_multiplicity
 _atom_site_fract_x
 _atom_site_fract_y
 _atom_site_fract_z
 _atom_site_occupancy
  Ba  Ba0  1  0.00874300  0.74253200  0.97324600  1
  Ba  Ba1  1  0.49125700  0.75746800  0.47324600  1
  Ba  Ba2  1  0.50874300  0.75746800  0.02675400  1
  Ba  Ba3  1  0.99125700  0.74253200  0.52675400  1
  Ba  Ba4  1  0.99125700  0.25746800  0.02675400  1
  Ba  Ba5  1  0.50874300  0.24253200  0.52675400  1
  Ba  Ba6  1  0.49125700  0.24253200  0.97324600  1
  Ba  Ba7  1  0.00874300  0.25746800  0.47324600  1
  Ba  Ba8  1  0.26674800  0.73961900  0.62749500  1
  Ba  Ba9  1  0.23325200  0.76038100  0.12749500  1
  Ba  Ba10  1  0.76674800  0.76038100  0.37250500  1
  Ba  Ba11  1  0.73325200  0.73961900  0.87250500  1
  Ba  Ba12  1  0.73325200  0.26038100  0.37250500  1
  Ba  Ba13  1  0.76674800  0.23961900  0.87250500  1
  Ba  Ba14  1  0.23325200  0.23961900  0.62749500  1
  Ba  Ba15  1  0.26674800  0.26038100  0.12749500  1
  Ba  Ba16  1  0.28163400  0.58434100  0.87830800  1
  Ba  Ba17  1  0.21836600  0.91565900  0.37830800  1
  Ba  Ba18  1  0.78163400  0.91565900  0.12169200  1
  Ba  Ba19  1  0.71836600  0.58434100  0.62169200  1
  Ba  Ba20  1  0.71836600  0.41565900  0.12169200  1
  Ba  Ba21  1  0.78163400  0.08434100  0.62169200  1
  Ba  Ba22  1  0.21836600  0.08434100  0.87830800  1
  Ba  Ba23  1  0.28163400  0.41565900  0.37830800  1
  Ba  Ba24  1  0.00000000  0.44486500  0.75000000  1
  Ba  Ba25  1  0.50000000  0.05513500  0.25000000  1
  Ba  Ba26  1  0.00000000  0.55513500  0.25000000  1
  Ba  Ba27  1  0.50000000  0.94486500  0.75000000  1
  Hf  Hf0  1  0.00000000  0.93724600  0.75000000  1
  Hf  Hf1  1  0.50000000  0.56275400  0.25000000  1
  Hf  Hf2  1  0.00000000  0.06275400  0.25000000  1
  Hf  Hf3  1  0.50000000  0.43724600  0.75000000  1
  N  N0  1  0.12953800  0.76339500  0.78201300  1
  N  N1  1  0.37046200  0.73660500  0.28201300  1
  N  N2  1  0.62953800  0.73660500  0.21798700  1
  N  N3  1  0.87046200  0.76339500  0.71798700  1
  N  N4  1  0.87046200  0.23660500  0.21798700  1
  N  N5  1  0.62953800  0.26339500  0.71798700  1
  N  N6  1  0.37046200  0.26339500  0.78201300  1
  N  N7  1  0.12953800  0.23660500  0.28201300  1
  N  N8  1  0.16537600  0.52840800  0.51439400  1
  N  N9  1  0.33462400  0.97159200  0.01439400  1
  N  N10  1  0.66537600  0.97159200  0.48560600  1
  N  N11  1  0.83462400  0.52840800  0.98560600  1
  N  N12  1  0.83462400  0.47159200  0.48560600  1
  N  N13  1  0.66537600  0.02840800  0.98560600  1
  N  N14  1  0.33462400  0.02840800  0.51439400  1
  N  N15  1  0.16537600  0.47159200  0.01439400  1
  N  N16  1  0.47634300  0.60896600  0.64087600  1
  N  N17  1  0.02365700  0.89103400  0.14087600  1
  N  N18  1  0.97634300  0.89103400  0.35912400  1
  N  N19  1  0.52365700  0.60896600  0.85912400  1
  N  N20  1  0.52365700  0.39103400  0.35912400  1
  N  N21  1  0.97634300  0.10896600  0.85912400  1
  N  N22  1  0.02365700  0.10896600  0.64087600  1
  N  N23  1  0.47634300  0.39103400  0.14087600  1
loop_
_geom_bond_atom_site_label_1
_geom_bond_atom_site_label_2
_geom_bond_distance
_geom_bond_site_symmetry_2
Ba0 N11 2.684853 1_455
Ba0 N17 2.736524 1_556
Ba0 N15 2.847165 1_556
Ba0 N21 3.191551 1_465
Ba0 N0 3.238679 1_555
Ba1 N10 2.684853 1_555
Ba1 N16 2.736524 1_555
Ba1 N14 2.847165 1_565
Ba1 N20 3.191551 1_555
Ba1 N1 3.238679 1_555
Ba2 N9 2.684853 1_555
Ba2 N19 2.736524 1_554
Ba2 N13 2.847165 1_564
Ba2 N23 3.191551 1_555
Ba2 N2 3.238679 1_555
Ba3 N8 2.684853 1_655
Ba3 N18 2.736524 1_555
Ba3 N12 2.847165 1_555
Ba3 N22 3.191551 1_665
Ba3 N3 3.238679 1_555
Ba4 N15 2.684853 1_655
Ba4 N21 2.736524 1_554
Ba4 N11 2.847165 1_554
Ba4 N17 3.191551 1_645
Ba4 N4 3.238679 1_555
Ba5 N14 2.684853 1_555
Ba5 N20 2.736524 1_555
Ba5 N10 2.847165 1_545
Ba5 N16 3.191551 1_555
Ba5 N5 3.238679 1_555
Ba6 N13 2.684853 1_555
Ba6 N23 2.736524 1_556
Ba6 N9 2.847165 1_546
Ba6 N19 3.191551 1_555
Ba6 N6 3.238679 1_555
Ba7 N12 2.684853 1_455
Ba7 N22 2.736524 1_555
Ba7 N8 2.847165 1_555
Ba7 N18 3.191551 1_445
Ba7 N7 3.238679 1_555
Ba8 N8 2.613868 1_555
Ba8 N16 2.796847 1_555
Ba8 N14 2.828070 1_565
Ba8 N0 2.884301 1_555
Ba9 N9 2.613868 1_555
Ba9 N17 2.796847 1_555
Ba9 N15 2.828070 1_555
Ba9 N1 2.884301 1_555
Ba10 N10 2.613868 1_555
Ba10 N18 2.796847 1_555
Ba10 N12 2.828070 1_555
Ba10 N2 2.884301 1_555
Ba11 N11 2.613868 1_555
Ba11 N19 2.796847 1_555
Ba11 N13 2.828070 1_565
Ba11 N3 2.884301 1_555
Ba12 N12 2.613868 1_555
Ba12 N20 2.796847 1_555
Ba12 N10 2.828070 1_545
Ba12 N4 2.884301 1_555
Ba13 N13 2.613868 1_555
Ba13 N21 2.796847 1_555
Ba13 N11 2.828070 1_555
Ba13 N5 2.884301 1_555
Ba14 N14 2.613868 1_555
Ba14 N22 2.796847 1_555
Ba14 N8 2.828070 1_555
Ba14 N6 2.884301 1_555
Ba15 N15 2.613868 1_555
Ba15 N23 2.796847 1_555
Ba15 N9 2.828070 1_545
Ba15 N7 2.884301 1_555
Ba16 N15 2.632936 1_556
Ba16 N0 2.719164 1_555
Ba16 N6 2.960193 1_555
Ba16 N19 3.047334 1_555
Ba17 N14 2.632936 1_565
Ba17 N1 2.719164 1_555
Ba17 N7 2.960193 1_565
Ba17 N18 3.047334 1_455
Ba18 N13 2.632936 1_564
Ba18 N2 2.719164 1_555
Ba18 N4 2.960193 1_565
Ba18 N17 3.047334 1_655
Ba19 N12 2.632936 1_555
Ba19 N3 2.719164 1_555
Ba19 N5 2.960193 1_555
Ba19 N16 3.047334 1_555
Ba20 N11 2.632936 1_554
Ba20 N4 2.719164 1_555
Ba20 N2 2.960193 1_555
Ba20 N23 3.047334 1_555
Ba21 N10 2.632936 1_545
Ba21 N5 2.719164 1_555
Ba21 N3 2.960193 1_545
Ba21 N22 3.047334 1_655
Ba22 N9 2.632936 1_546
Ba22 N6 2.719164 1_555
Ba22 N0 2.960193 1_545
Ba22 N21 3.047334 1_455
Ba23 N8 2.632936 1_555
Ba23 N7 2.719164 1_555
Ba23 N1 2.960193 1_555
Ba23 N20 3.047334 1_555
Ba24 N0 2.868406 1_555
Ba24 N3 2.868406 1_455
Ba24 N21 2.953705 1_455
Ba24 N22 2.953705 1_555
Ba25 N1 2.868406 1_545
Ba25 N2 2.868406 1_545
Ba25 N20 2.953705 1_555
Ba25 N23 2.953705 1_555
Ba26 N7 2.868406 1_555
Ba26 N4 2.868406 1_455
Ba26 N18 2.953705 1_455
Ba26 N17 2.953705 1_555
Ba27 N6 2.868406 1_565
Ba27 N5 2.868406 1_565
Ba27 N16 2.953705 1_555
Ba27 N19 2.953705 1_555
Hf0 N22 2.076684 1_565
Hf0 N21 2.076684 1_465
Hf0 N0 2.111089 1_555
Hf0 N3 2.111089 1_455
Hf1 N23 2.076684 1_555
Hf1 N20 2.076684 1_555
Hf1 N1 2.111089 1_555
Hf1 N2 2.111089 1_555
Hf2 N18 2.076684 1_445
Hf2 N17 2.076684 1_545
Hf2 N7 2.111089 1_555
Hf2 N4 2.111089 1_455
Hf3 N19 2.076684 1_555
Hf3 N16 2.076684 1_555
Hf3 N6 2.111089 1_555
Hf3 N5 2.111089 1_555
