# generated using pymatgen
data_Ba5Ca2Ta3O15
_symmetry_space_group_name_H-M   'P 1'
_cell_length_a   10.46306662
_cell_length_b   10.46306662
_cell_length_c   10.46306662
_cell_angle_alpha   99.46828743
_cell_angle_beta   99.46828743
_cell_angle_gamma   132.14403222
_symmetry_Int_Tables_number   1
_chemical_formula_structural   Ba5Ca2Ta3O15
_chemical_formula_sum   'Ba10 Ca4 Ta6 O30'
_cell_volume   776.31453897
_cell_formula_units_Z   2
loop_
 _symmetry_equiv_pos_site_id
 _symmetry_equiv_pos_as_xyz
  1  'x, y, z'
loop_
 _atom_site_type_symbol
 _atom_site_label
 _atom_site_symmetry_multiplicity
 _atom_site_fract_x
 _atom_site_fract_y
 _atom_site_fract_z
 _atom_site_occupancy
  Ba  Ba0  1  0.65371500  0.95270500  0.09948400  1
  Ba  Ba1  1  0.04729500  0.14677900  0.70101100  1
  Ba  Ba2  1  0.44576800  0.34628500  0.29898900  1
  Ba  Ba3  1  0.85322100  0.55423200  0.90051600  1
  Ba  Ba4  1  0.25000000  0.75000000  0.50000000  1
  Ba  Ba5  1  0.75000000  0.25000000  0.50000000  1
  Ba  Ba6  1  0.14677900  0.44576800  0.09948400  1
  Ba  Ba7  1  0.55423200  0.65371500  0.70101100  1
  Ba  Ba8  1  0.95270500  0.85322100  0.29898900  1
  Ba  Ba9  1  0.34628500  0.04729500  0.90051600  1
  Ca  Ca0  1  0.39901900  0.20152100  0.60054000  1
  Ca  Ca1  1  0.79847900  0.39901900  0.19749800  1
  Ca  Ca2  1  0.20152100  0.60098100  0.80250200  1
  Ca  Ca3  1  0.60098100  0.79847900  0.39946000  1
  Ta  Ta0  1  0.10059400  0.30348000  0.40407400  1
  Ta  Ta1  1  0.50000000  0.50000000  0.00000000  1
  Ta  Ta2  1  0.89940600  0.69652000  0.59592600  1
  Ta  Ta3  1  0.30348000  0.89940600  0.20288700  1
  Ta  Ta4  1  0.69652000  0.10059400  0.79711300  1
  Ta  Ta5  1  0.00000000  0.00000000  0.00000000  1
  O  O0  1  0.04146800  0.65946900  0.70093700  1
  O  O1  1  0.43870400  0.85549300  0.29419700  1
  O  O2  1  0.85885800  0.04682600  0.90568400  1
  O  O3  1  0.23601600  0.24691700  0.48293200  1
  O  O4  1  0.63787900  0.45362400  0.09150300  1
  O  O5  1  0.47546700  0.86519900  0.80521700  1
  O  O6  1  0.86519900  0.05998300  0.38973300  1
  O  O7  1  0.24641900  0.24641900  0.00000000  1
  O  O8  1  0.67025000  0.47546700  0.61026700  1
  O  O9  1  0.05998300  0.67025000  0.19478300  1
  O  O10  1  0.14450700  0.43870400  0.58321100  1
  O  O11  1  0.54637600  0.63787900  0.18425400  1
  O  O12  1  0.95317400  0.85885800  0.81203200  1
  O  O13  1  0.34053100  0.04146800  0.38199800  1
  O  O14  1  0.75308300  0.23601600  0.98909900  1
  O  O15  1  0.94001700  0.32975000  0.80521700  1
  O  O16  1  0.32975000  0.52453300  0.38973300  1
  O  O17  1  0.75358100  0.75358100  0.00000000  1
  O  O18  1  0.13480100  0.94001700  0.61026700  1
  O  O19  1  0.52453300  0.13480100  0.19478300  1
  O  O20  1  0.24691700  0.76398400  0.01090100  1
  O  O21  1  0.65946900  0.95853200  0.61800200  1
  O  O22  1  0.04682600  0.14114200  0.18796800  1
  O  O23  1  0.45362400  0.36212100  0.81574600  1
  O  O24  1  0.85549300  0.56129600  0.41678900  1
  O  O25  1  0.36212100  0.54637600  0.90849700  1
  O  O26  1  0.76398400  0.75308300  0.51706800  1
  O  O27  1  0.14114200  0.95317400  0.09431600  1
  O  O28  1  0.56129600  0.14450700  0.70580300  1
  O  O29  1  0.95853200  0.34053100  0.29906300  1
loop_
_geom_bond_atom_site_label_1
_geom_bond_atom_site_label_2
_geom_bond_distance
_geom_bond_site_symmetry_2
Ba0 O14 2.930441 1_564
Ba0 O29 2.941382 1_565
Ba0 O5 2.947572 1_554
Ba0 O6 2.951854 1_565
Ba0 O22 2.987642 1_665
Ba0 O2 2.990143 1_564
Ba0 O17 3.013624 1_555
Ba0 O25 3.027943 1_554
Ba0 O11 3.036939 1_555
Ba0 O1 3.060238 1_555
Ba0 O20 3.113790 1_555
Ba0 O19 3.118594 1_565
Ba1 O26 2.930441 1_445
Ba1 O21 2.941382 1_445
Ba1 O18 2.947587 1_545
Ba1 O15 2.951854 1_455
Ba1 O2 2.987632 1_455
Ba1 O12 2.990136 1_445
Ba1 O7 3.013615 1_556
Ba1 O23 3.027943 1_555
Ba1 O25 3.036941 1_555
Ba1 O10 3.060245 1_555
Ba1 O3 3.113809 1_555
Ba1 O6 3.118597 1_455
Ba2 O3 2.930435 1_555
Ba2 O13 2.941386 1_555
Ba2 O16 2.947569 1_555
Ba2 O19 2.951854 1_555
Ba2 O27 2.987638 1_545
Ba2 O22 2.990133 1_555
Ba2 O7 3.013612 1_555
Ba2 O11 3.027940 1_555
Ba2 O4 3.036940 1_555
Ba2 O24 3.060247 1_555
Ba2 O26 3.113797 1_555
Ba2 O8 3.118597 1_555
Ba3 O20 2.930444 1_656
Ba3 O0 2.941382 1_655
Ba3 O9 2.947578 1_656
Ba3 O8 2.951854 1_555
Ba3 O12 2.987632 1_555
Ba3 O27 2.990136 1_656
Ba3 O17 3.013615 1_556
Ba3 O4 3.027943 1_556
Ba3 O23 3.036941 1_555
Ba3 O28 3.060245 1_555
Ba3 O14 3.113799 1_555
Ba3 O15 3.118595 1_555
Ba4 O28 3.001604 1_565
Ba4 O1 3.001604 1_555
Ba4 O10 3.001604 1_555
Ba4 O24 3.001604 1_455
Ba4 O29 3.077154 1_455
Ba4 O0 3.077154 1_555
Ba4 O21 3.077155 1_555
Ba4 O13 3.077160 1_565
Ba4 O18 3.107332 1_555
Ba4 O9 3.107342 1_555
Ba4 O16 3.107342 1_555
Ba4 O5 3.107345 1_555
Ba5 O10 3.001604 1_655
Ba5 O28 3.001604 1_555
Ba5 O24 3.001604 1_555
Ba5 O1 3.001604 1_545
Ba5 O0 3.077154 1_655
Ba5 O29 3.077154 1_555
Ba5 O13 3.077155 1_555
Ba5 O21 3.077160 1_545
Ba5 O6 3.107332 1_555
Ba5 O15 3.107342 1_555
Ba5 O8 3.107342 1_555
Ba5 O19 3.107345 1_555
Ba6 O14 2.930444 1_454
Ba6 O29 2.941382 1_455
Ba6 O15 2.947578 1_454
Ba6 O16 2.951854 1_555
Ba6 O22 2.987632 1_555
Ba6 O2 2.990136 1_454
Ba6 O7 3.013615 1_555
Ba6 O25 3.027943 1_554
Ba6 O11 3.036941 1_555
Ba6 O1 3.060245 1_555
Ba6 O20 3.113799 1_555
Ba6 O9 3.118595 1_555
Ba7 O26 2.930435 1_555
Ba7 O21 2.941386 1_555
Ba7 O8 2.947569 1_555
Ba7 O5 2.951854 1_555
Ba7 O2 2.987638 1_565
Ba7 O12 2.990133 1_555
Ba7 O17 3.013612 1_556
Ba7 O23 3.027940 1_555
Ba7 O25 3.036940 1_555
Ba7 O10 3.060247 1_555
Ba7 O3 3.113797 1_555
Ba7 O16 3.118597 1_555
Ba8 O3 2.930441 1_665
Ba8 O13 2.941382 1_665
Ba8 O6 2.947587 1_565
Ba8 O9 2.951854 1_655
Ba8 O27 2.987632 1_655
Ba8 O22 2.990136 1_665
Ba8 O17 3.013615 1_555
Ba8 O11 3.027943 1_555
Ba8 O4 3.036941 1_555
Ba8 O24 3.060245 1_555
Ba8 O26 3.113809 1_555
Ba8 O18 3.118597 1_655
Ba9 O20 2.930441 1_546
Ba9 O0 2.941382 1_545
Ba9 O19 2.947572 1_556
Ba9 O18 2.951854 1_545
Ba9 O12 2.987642 1_445
Ba9 O27 2.990143 1_546
Ba9 O7 3.013624 1_556
Ba9 O4 3.027943 1_556
Ba9 O23 3.036939 1_555
Ba9 O28 3.060238 1_555
Ba9 O14 3.113790 1_555
Ba9 O5 3.118594 1_545
Ca0 O18 2.274334 1_545
Ca0 O8 2.274338 1_555
Ca0 O3 2.288570 1_555
Ca0 O23 2.294294 1_555
Ca0 O13 2.304785 1_555
Ca0 O28 2.326367 1_555
Ca1 O19 2.274334 1_555
Ca1 O9 2.274338 1_655
Ca1 O14 2.288565 1_554
Ca1 O4 2.294285 1_555
Ca1 O29 2.304776 1_555
Ca1 O24 2.326367 1_555
Ca2 O5 2.274334 1_555
Ca2 O15 2.274338 1_455
Ca2 O20 2.288565 1_556
Ca2 O25 2.294285 1_555
Ca2 O0 2.304776 1_555
Ca2 O10 2.326367 1_555
Ca3 O6 2.274334 1_565
Ca3 O16 2.274338 1_555
Ca3 O26 2.288570 1_555
Ca3 O11 2.294294 1_555
Ca3 O21 2.304785 1_555
Ca3 O1 2.326367 1_555
O0 Ta2 1.985705 1_455
O1 Ta3 1.922962 1_555
O2 Ta5 2.011305 1_656
O2 Ta4 2.312973 1_555
O3 Ta0 1.984969 1_555
O4 Ta1 1.967517 1_555
O5 Ta4 1.977702 1_565
O6 Ta0 1.977697 1_655
O7 Ta5 2.091454 1_555
O7 Ta1 2.152241 1_555
O8 Ta2 1.977693 1_555
O9 Ta3 1.977689 1_555
O10 Ta0 1.922966 1_555
O11 Ta1 1.967508 1_555
O12 Ta5 2.011305 1_666
O12 Ta2 2.312969 1_555
O13 Ta3 1.985688 1_545
O14 Ta4 1.984981 1_555
O15 Ta4 1.977689 1_555
O16 Ta0 1.977693 1_555
O17 Ta5 2.091454 1_665
O17 Ta1 2.152241 1_555
O18 Ta2 1.977697 1_455
O19 Ta3 1.977702 1_545
O20 Ta3 1.984981 1_555
O21 Ta4 1.985688 1_565
O22 Ta5 2.011305 1_555
O22 Ta0 2.312969 1_555
O23 Ta1 1.967508 1_556
O24 Ta2 1.922966 1_555
O25 Ta1 1.967517 1_556
O26 Ta2 1.984969 1_555
O27 Ta5 2.011305 1_565
O27 Ta3 2.312973 1_555
O28 Ta4 1.922962 1_555
O29 Ta0 1.985705 1_655
