# generated using pymatgen
data_KBa3(FeAs)8
_symmetry_space_group_name_H-M   'P 1'
_cell_length_a   7.16214700
_cell_length_b   7.85870111
_cell_length_c   8.71998450
_cell_angle_alpha   115.67427565
_cell_angle_beta   97.22124757
_cell_angle_gamma   106.27394893
_symmetry_Int_Tables_number   1
_chemical_formula_structural   KBa3(FeAs)8
_chemical_formula_sum   'K1 Ba3 Fe8 As8'
_cell_volume   406.93627667
_cell_formula_units_Z   1
loop_
 _symmetry_equiv_pos_site_id
 _symmetry_equiv_pos_as_xyz
  1  'x, y, z'
loop_
 _atom_site_type_symbol
 _atom_site_label
 _atom_site_symmetry_multiplicity
 _atom_site_fract_x
 _atom_site_fract_y
 _atom_site_fract_z
 _atom_site_occupancy
  K  K0  1  0.00000000  0.00000000  0.00000000  1
  Ba  Ba0  1  0.99995500  0.75305400  0.49356000  1
  Ba  Ba1  1  0.00000000  0.50000000  0.00000000  1
  Ba  Ba2  1  0.00004500  0.24694600  0.50644000  1
  Fe  Fe0  1  0.50030900  0.06168200  0.62524400  1
  Fe  Fe1  1  0.50054100  0.56114900  0.62532900  1
  Fe  Fe2  1  0.49976100  0.81287400  0.12478900  1
  Fe  Fe3  1  0.49970100  0.31272700  0.12481700  1
  Fe  Fe4  1  0.49969100  0.93831800  0.37475600  1
  Fe  Fe5  1  0.49945900  0.43885100  0.37467100  1
  Fe  Fe6  1  0.50029900  0.68727300  0.87518300  1
  Fe  Fe7  1  0.50023900  0.18712600  0.87521100  1
  As  As0  1  0.30280000  0.16332800  0.32707600  1
  As  As1  1  0.30211800  0.66116200  0.32758700  1
  As  As2  1  0.30052500  0.91240100  0.82364300  1
  As  As3  1  0.30095600  0.41340800  0.82385300  1
  As  As4  1  0.69720000  0.83667200  0.67292400  1
  As  As5  1  0.69788200  0.33883800  0.67241300  1
  As  As6  1  0.69904400  0.58659200  0.17614700  1
  As  As7  1  0.69947500  0.08759900  0.17635700  1
loop_
_geom_bond_atom_site_label_1
_geom_bond_atom_site_label_2
_geom_bond_distance
_geom_bond_site_symmetry_2
Fe0 Fe7 1.965087 1_555
Fe0 Fe4 1.967516 1_545
Fe1 Fe6 1.964677 1_555
Fe1 Fe5 1.967864 1_555
Fe2 Fe6 1.963251 1_554
Fe2 Fe4 1.965087 1_555
Fe3 Fe7 1.963251 1_554
Fe3 Fe5 1.964677 1_555
As0 Fe5 2.051714 1_555
As0 Fe4 2.678706 1_545
As0 K0 2.863209 1_555
As0 Ba2 2.888004 1_555
As1 Fe4 2.065332 1_555
As1 Fe5 2.660470 1_555
As1 Ba0 2.838539 1_455
As1 Ba1 2.867272 1_555
As2 Fe7 2.043444 1_565
As2 Fe6 2.706549 1_555
As2 K0 2.866522 1_566
As2 Ba0 2.880145 1_455
As3 Fe6 2.037950 1_555
As3 Fe7 2.711443 1_555
As3 Ba2 2.792802 1_555
As3 Ba1 2.866573 1_556
As4 Fe1 2.051714 1_555
As4 Fe0 2.678706 1_565
As4 K0 2.863209 1_666
As4 Ba0 2.888004 1_555
As5 Fe0 2.065332 1_555
As5 Fe1 2.660470 1_555
As5 Ba2 2.838539 1_655
As5 Ba1 2.867272 1_656
As6 Fe3 2.037950 1_555
As6 Fe2 2.711443 1_555
As6 Ba0 2.792802 1_555
As6 Ba1 2.866573 1_655
As7 Fe2 2.043444 1_545
As7 Fe3 2.706549 1_555
As7 K0 2.866522 1_655
As7 Ba2 2.880145 1_655
