# generated using pymatgen
data_NdSmFe17N3
_symmetry_space_group_name_H-M   'P 1'
_cell_length_a   6.53763633
_cell_length_b   6.53763633
_cell_length_c   6.53763588
_cell_angle_alpha   83.61469474
_cell_angle_beta   83.61469474
_cell_angle_gamma   83.61469861
_symmetry_Int_Tables_number   1
_chemical_formula_structural   NdSmFe17N3
_chemical_formula_sum   'Nd1 Sm1 Fe17 N3'
_cell_volume   274.58138454
_cell_formula_units_Z   1
loop_
 _symmetry_equiv_pos_site_id
 _symmetry_equiv_pos_as_xyz
  1  'x, y, z'
loop_
 _atom_site_type_symbol
 _atom_site_label
 _atom_site_symmetry_multiplicity
 _atom_site_fract_x
 _atom_site_fract_y
 _atom_site_fract_z
 _atom_site_occupancy
  Nd  Nd0  1  0.65657600  0.65657600  0.65657600  1
  Sm  Sm0  1  0.34249500  0.34249500  0.34249500  1
  Fe  Fe0  1  0.34162100  0.34162100  0.85848200  1
  Fe  Fe1  1  0.85848200  0.34162100  0.34162100  1
  Fe  Fe2  1  0.34162100  0.85848200  0.34162100  1
  Fe  Fe3  1  0.65778800  0.65778800  0.14284900  1
  Fe  Fe4  1  0.14284900  0.65778800  0.65778800  1
  Fe  Fe5  1  0.65778800  0.14284900  0.65778800  1
  Fe  Fe6  1  0.71740500  0.28223600  0.00046100  1
  Fe  Fe7  1  0.00046100  0.71740500  0.28223600  1
  Fe  Fe8  1  0.28223600  0.00046100  0.71740500  1
  Fe  Fe9  1  0.00046100  0.28223600  0.71740500  1
  Fe  Fe10  1  0.71740500  0.00046100  0.28223600  1
  Fe  Fe11  1  0.28223600  0.71740500  0.00046100  1
  Fe  Fe12  1  0.99974700  0.99974700  0.50000900  1
  Fe  Fe13  1  0.50000900  0.99974700  0.99974700  1
  Fe  Fe14  1  0.99974700  0.50000900  0.99974700  1
  Fe  Fe15  1  0.90604400  0.90604400  0.90604400  1
  Fe  Fe16  1  0.09445500  0.09445500  0.09445500  1
  N  N0  1  0.49865100  0.49865100  0.00327000  1
  N  N1  1  0.00327000  0.49865100  0.49865100  1
  N  N2  1  0.49865100  0.00327000  0.49865100  1
loop_
_geom_bond_atom_site_label_1
_geom_bond_atom_site_label_2
_geom_bond_distance
_geom_bond_site_symmetry_2
Fe0 N0 1.915867 1_556
Fe0 Fe14 2.481813 1_455
Fe0 Fe13 2.481813 1_545
Fe0 Fe16 2.659682 1_556
Fe1 N1 1.915867 1_655
Fe1 Fe14 2.481813 1_554
Fe1 Fe12 2.481813 1_545
Fe1 Fe16 2.659683 1_655
Fe2 N2 1.915867 1_565
Fe3 N0 1.913257 1_555
Fe4 N1 1.913257 1_555
Fe5 N2 1.913257 1_555
Fe6 N0 1.896648 1_555
Fe7 N1 1.896648 1_555
Fe8 N2 1.896648 1_555
Fe9 N1 1.896648 1_555
Fe10 N2 1.896648 1_555
Fe10 Fe12 2.452611 1_545
Fe10 Fe13 2.453145 1_544
Fe10 Fe15 2.728427 1_544
Fe10 Fe16 2.730759 1_655
Fe11 N0 1.896648 1_555
Fe11 Fe13 2.452611 1_554
Fe11 Fe14 2.453145 1_454
Fe11 Fe15 2.728427 1_454
Fe11 Fe16 2.730759 1_565
Fe12 Fe7 2.452611 1_655
Fe12 Fe9 2.453145 1_665
Fe12 Fe8 2.453145 1_665
Fe12 Fe2 2.481813 1_655
Fe12 Fe4 2.484689 1_655
Fe12 Fe5 2.484689 1_565
Fe12 Fe16 2.674219 1_665
Fe12 Fe15 2.675264 1_555
Fe12 Sm0 3.345560 1_665
Fe12 Nd0 3.348512 1_555
Fe13 Fe8 2.452611 1_565
Fe13 Fe6 2.453145 1_566
Fe13 Fe2 2.481813 1_556
Fe13 Fe5 2.484689 1_565
Fe13 Fe3 2.484689 1_556
Fe13 Fe16 2.674219 1_566
Fe13 Fe15 2.675264 1_555
Fe13 Sm0 3.345560 1_566
Fe13 Nd0 3.348512 1_555
Fe14 Fe9 2.452611 1_655
Fe14 Fe6 2.452611 1_556
Fe14 Fe7 2.453145 1_656
Fe14 Fe4 2.484689 1_655
Fe14 Fe3 2.484689 1_556
Fe14 Fe16 2.674219 1_656
Fe14 Fe15 2.675264 1_555
Fe14 Sm0 3.345560 1_656
Fe14 Nd0 3.348512 1_555
Fe15 Fe16 2.358844 1_666
Fe15 Fe3 2.670805 1_556
Fe15 Fe4 2.670805 1_655
Fe15 Fe5 2.670805 1_565
Fe15 Fe7 2.728427 1_656
Fe15 Fe8 2.728427 1_665
Fe15 Fe9 2.728427 1_665
Fe15 Fe6 2.728427 1_566
Fe15 Nd0 3.123258 1_555
Fe16 Fe2 2.659683 1_545
Fe16 Fe9 2.730759 1_554
Fe16 Fe8 2.730759 1_554
Fe16 Fe7 2.730759 1_545
Fe16 Fe6 2.730759 1_455
Fe16 Sm0 3.105380 1_555
N0 Sm0 2.495476 1_555
N0 Nd0 2.542696 1_554
N1 Sm0 2.495476 1_555
N1 Nd0 2.542696 1_455
N2 Sm0 2.495476 1_555
N2 Nd0 2.542696 1_545
