# generated using pymatgen
data_Zr3Al
_symmetry_space_group_name_H-M   'P 1'
_cell_length_a   6.20125757
_cell_length_b   6.20125757
_cell_length_c   5.06281371
_cell_angle_alpha   90.00000000
_cell_angle_beta   90.00000000
_cell_angle_gamma   119.99999776
_symmetry_Int_Tables_number   1
_chemical_formula_structural   Zr3Al
_chemical_formula_sum   'Zr6 Al2'
_cell_volume   168.60953449
_cell_formula_units_Z   2
loop_
 _symmetry_equiv_pos_site_id
 _symmetry_equiv_pos_as_xyz
  1  'x, y, z'
loop_
 _atom_site_type_symbol
 _atom_site_label
 _atom_site_symmetry_multiplicity
 _atom_site_fract_x
 _atom_site_fract_y
 _atom_site_fract_z
 _atom_site_occupancy
  Zr  Zr0  1  0.17194833  0.34389566  0.25000000  1
  Zr  Zr1  1  0.65610434  0.82805167  0.25000000  1
  Zr  Zr2  1  0.17194833  0.82805167  0.25000000  1
  Zr  Zr3  1  0.82805167  0.65610434  0.75000000  1
  Zr  Zr4  1  0.34389566  0.17194833  0.75000000  1
  Zr  Zr5  1  0.82805167  0.17194833  0.75000000  1
  Al  Al0  1  0.33333300  0.66666700  0.75000000  1
  Al  Al1  1  0.66666700  0.33333300  0.25000000  1
loop_
_geom_bond_atom_site_label_1
_geom_bond_atom_site_label_2
_geom_bond_distance
_geom_bond_site_symmetry_2
Zr0 Zr2 3.002376 1_555
Zr0 Zr1 3.002376 1_555
Zr0 Zr4 3.133519 1_555
Zr0 Zr4 3.133519 1_554
Zr0 Zr5 3.133525 1_455
Zr0 Zr5 3.133525 1_454
Zr0 Zr2 3.198881 1_545
Zr0 Zr1 3.198882 1_445
Zr1 Zr2 3.002376 1_555
Zr1 Zr3 3.133519 1_554
Zr1 Zr3 3.133519 1_555
Zr1 Zr5 3.133525 1_564
Zr1 Zr5 3.133525 1_565
Zr1 Zr2 3.198881 1_655
Zr2 Zr3 3.133525 1_455
Zr2 Zr3 3.133525 1_454
Zr2 Zr4 3.133525 1_564
Zr2 Zr4 3.133525 1_565
Zr3 Zr5 3.002376 1_555
Zr3 Zr4 3.002376 1_555
Zr3 Zr5 3.198881 1_565
Zr3 Zr4 3.198882 1_665
Zr4 Zr5 3.002376 1_555
Zr4 Zr5 3.198881 1_455
Al0 Zr2 3.068021 1_555
Al0 Zr2 3.068021 1_556
Al0 Zr0 3.068027 1_555
Al0 Zr0 3.068027 1_556
Al0 Zr1 3.068027 1_555
Al0 Zr1 3.068027 1_556
Al0 Zr3 3.101148 1_555
Al0 Zr4 3.101148 1_555
Al0 Zr3 3.101148 1_455
Al0 Zr4 3.101148 1_565
Al0 Zr5 3.101148 1_455
Al0 Zr5 3.101148 1_565
Al1 Zr5 3.068021 1_555
Al1 Zr5 3.068021 1_554
Al1 Zr4 3.068027 1_554
Al1 Zr4 3.068027 1_555
Al1 Zr3 3.068027 1_554
Al1 Zr3 3.068027 1_555
Al1 Zr1 3.101148 1_555
Al1 Zr0 3.101148 1_555
Al1 Zr1 3.101148 1_545
Al1 Zr0 3.101148 1_655
Al1 Zr2 3.101148 1_655
Al1 Zr2 3.101148 1_545
