# generated using pymatgen
data_CaNi2P2O9
_symmetry_space_group_name_H-M   'P 1'
_cell_length_a   6.46627600
_cell_length_b   7.31946800
_cell_length_c   14.25984200
_cell_angle_alpha   90.00000000
_cell_angle_beta   90.00000000
_cell_angle_gamma   90.00000000
_symmetry_Int_Tables_number   1
_chemical_formula_structural   CaNi2P2O9
_chemical_formula_sum   'Ca4 Ni8 P8 O36'
_cell_volume   674.91404763
_cell_formula_units_Z   4
loop_
 _symmetry_equiv_pos_site_id
 _symmetry_equiv_pos_as_xyz
  1  'x, y, z'
loop_
 _atom_site_type_symbol
 _atom_site_label
 _atom_site_symmetry_multiplicity
 _atom_site_fract_x
 _atom_site_fract_y
 _atom_site_fract_z
 _atom_site_occupancy
  Ca  Ca0  1  0.75000000  0.37930600  0.27985600  1
  Ca  Ca1  1  0.75000000  0.12069400  0.77985600  1
  Ca  Ca2  1  0.25000000  0.62069400  0.72014400  1
  Ca  Ca3  1  0.25000000  0.87930600  0.22014400  1
  Ni  Ni0  1  0.75000000  0.85008200  0.37665500  1
  Ni  Ni1  1  0.25000000  0.14991800  0.62334500  1
  Ni  Ni2  1  0.25000000  0.35008200  0.12334500  1
  Ni  Ni3  1  0.75000000  0.64991800  0.87665500  1
  Ni  Ni4  1  0.50000000  0.50000000  0.50000000  1
  Ni  Ni5  1  0.50000000  0.00000000  0.00000000  1
  Ni  Ni6  1  0.00000000  0.00000000  0.00000000  1
  Ni  Ni7  1  0.00000000  0.50000000  0.50000000  1
  P  P0  1  0.25000000  0.85875600  0.43543800  1
  P  P1  1  0.75000000  0.14124400  0.56456200  1
  P  P2  1  0.75000000  0.35875600  0.06456200  1
  P  P3  1  0.25000000  0.64124400  0.93543800  1
  P  P4  1  0.75000000  0.88667500  0.19240600  1
  P  P5  1  0.25000000  0.11332500  0.80759400  1
  P  P6  1  0.25000000  0.38667500  0.30759400  1
  P  P7  1  0.75000000  0.61332500  0.69240600  1
  O  O0  1  0.05233300  0.10523500  0.86780900  1
  O  O1  1  0.55233300  0.89476500  0.13219100  1
  O  O2  1  0.94766700  0.60523500  0.63219100  1
  O  O3  1  0.44766700  0.39476500  0.36780900  1
  O  O4  1  0.94766700  0.89476500  0.13219100  1
  O  O5  1  0.44766700  0.10523500  0.86780900  1
  O  O6  1  0.05233300  0.39476500  0.36780900  1
  O  O7  1  0.55233300  0.60523500  0.63219100  1
  O  O8  1  0.25000000  0.83274900  0.98735900  1
  O  O9  1  0.75000000  0.16725100  0.01264100  1
  O  O10  1  0.75000000  0.33274900  0.51264100  1
  O  O11  1  0.25000000  0.66725100  0.48735900  1
  O  O12  1  0.75000000  0.63058900  0.44651300  1
  O  O13  1  0.25000000  0.36941100  0.55348700  1
  O  O14  1  0.25000000  0.13058900  0.05348700  1
  O  O15  1  0.75000000  0.86941100  0.94651300  1
  O  O16  1  0.75000000  0.70918900  0.25331500  1
  O  O17  1  0.25000000  0.29081100  0.74668500  1
  O  O18  1  0.25000000  0.20918900  0.24668500  1
  O  O19  1  0.75000000  0.79081100  0.75331500  1
  O  O20  1  0.43656800  0.63773300  0.86726200  1
  O  O21  1  0.93656800  0.36226700  0.13273800  1
  O  O22  1  0.56343200  0.13773300  0.63273800  1
  O  O23  1  0.06343200  0.86226700  0.36726200  1
  O  O24  1  0.56343200  0.36226700  0.13273800  1
  O  O25  1  0.06343200  0.63773300  0.86726200  1
  O  O26  1  0.43656800  0.86226700  0.36726200  1
  O  O27  1  0.93656800  0.13773300  0.63273800  1
  O  O28  1  0.75000000  0.46251800  0.77054400  1
  O  O29  1  0.25000000  0.53748200  0.22945600  1
  O  O30  1  0.25000000  0.96251800  0.72945600  1
  O  O31  1  0.75000000  0.03748200  0.27054400  1
  O  O32  1  0.75000000  0.50639300  0.99138100  1
  O  O33  1  0.25000000  0.49360700  0.00861900  1
  O  O34  1  0.25000000  0.00639300  0.50861900  1
  O  O35  1  0.75000000  0.99360700  0.49138100  1
loop_
_geom_bond_atom_site_label_1
_geom_bond_atom_site_label_2
_geom_bond_distance
_geom_bond_site_symmetry_2
Ca0 O6 2.325449 1_655
Ca0 O3 2.325449 1_555
Ca0 O21 2.423232 1_555
Ca0 O24 2.423232 1_555
Ca0 O16 2.444050 1_555
Ca0 O31 2.505491 1_555
Ca1 O0 2.325449 1_655
Ca1 O5 2.325449 1_555
Ca1 O27 2.423232 1_555
Ca1 O22 2.423232 1_555
Ca1 O19 2.444050 1_545
Ca1 O28 2.505491 1_555
Ca2 O7 2.325449 1_555
Ca2 O2 2.325449 1_455
Ca2 O20 2.423232 1_555
Ca2 O25 2.423232 1_555
Ca2 O17 2.444050 1_555
Ca2 O30 2.505491 1_555
Ca3 O1 2.325449 1_555
Ca3 O4 2.325449 1_455
Ca3 O26 2.423232 1_555
Ca3 O23 2.423232 1_555
Ca3 O18 2.444050 1_565
Ca3 O29 2.505491 1_555
Ni0 O12 1.890348 1_555
Ni0 O35 1.944227 1_555
Ni0 O23 2.033116 1_655
Ni0 O26 2.033116 1_555
Ni0 O16 2.038850 1_555
Ni0 O31 2.042309 1_565
Ni1 O13 1.890348 1_555
Ni1 O34 1.944227 1_555
Ni1 O22 2.033116 1_555
Ni1 O27 2.033116 1_455
Ni1 O17 2.038850 1_555
Ni1 O30 2.042309 1_545
Ni2 O14 1.890348 1_555
Ni2 O33 1.944227 1_555
Ni2 O24 2.033116 1_555
Ni2 O21 2.033116 1_455
Ni2 O18 2.038850 1_555
Ni2 O29 2.042309 1_555
Ni3 O15 1.890348 1_555
Ni3 O32 1.944227 1_555
Ni3 O25 2.033116 1_655
Ni3 O20 2.033116 1_555
Ni3 O19 2.038850 1_555
Ni3 O28 2.042309 1_555
Ni4 O12 2.026984 1_555
Ni4 O13 2.026984 1_555
Ni4 O11 2.035786 1_555
Ni4 O10 2.035786 1_555
Ni4 O7 2.064251 1_555
Ni4 O3 2.064251 1_555
Ni5 O14 2.026984 1_555
Ni5 O15 2.026984 1_544
Ni5 O9 2.035786 1_555
Ni5 O8 2.035786 1_544
Ni5 O1 2.064251 1_545
Ni5 O5 2.064251 1_554
Ni6 O14 2.026984 1_555
Ni6 O15 2.026984 1_444
Ni6 O9 2.035786 1_455
Ni6 O8 2.035786 1_544
Ni6 O4 2.064251 1_445
Ni6 O0 2.064251 1_554
Ni7 O12 2.026984 1_455
Ni7 O13 2.026984 1_555
Ni7 O11 2.035786 1_555
Ni7 O10 2.035786 1_455
Ni7 O6 2.064251 1_555
Ni7 O2 2.064251 1_455
O0 P5 1.540946 1_555
O1 P4 1.540946 1_555
O2 P7 1.540946 1_555
O3 P6 1.540946 1_555
O4 P4 1.540946 1_555
O5 P5 1.540946 1_555
O6 P6 1.540946 1_555
O7 P7 1.540946 1_555
O8 P3 1.585236 1_555
O9 P2 1.585236 1_555
O10 P1 1.585236 1_555
O11 P0 1.585236 1_555
O16 P4 1.562707 1_555
O17 P5 1.562707 1_555
O18 P6 1.562707 1_555
O19 P7 1.562707 1_555
O20 P3 1.549579 1_555
O21 P2 1.549579 1_555
O22 P1 1.549579 1_555
O23 P0 1.549579 1_555
O24 P2 1.549579 1_555
O25 P3 1.549579 1_555
O26 P0 1.549579 1_555
O27 P1 1.549579 1_555
O28 P7 1.568424 1_555
O29 P6 1.568424 1_555
O30 P5 1.568424 1_565
O31 P4 1.568424 1_545
O32 P2 1.502246 1_556
O33 P3 1.502246 1_554
O34 P0 1.502246 1_545
O35 P1 1.502246 1_565
