# generated using pymatgen
data_Li4Mn5(Fe2O9)2
_symmetry_space_group_name_H-M   'P 1'
_cell_length_a   2.91240200
_cell_length_b   9.10843600
_cell_length_c   24.78283203
_cell_angle_alpha   89.91537466
_cell_angle_beta   90.00000000
_cell_angle_gamma   90.00000000
_symmetry_Int_Tables_number   1
_chemical_formula_structural   Li4Mn5(Fe2O9)2
_chemical_formula_sum   'Li8 Mn10 Fe8 O36'
_cell_volume   657.42405603
_cell_formula_units_Z   2
loop_
 _symmetry_equiv_pos_site_id
 _symmetry_equiv_pos_as_xyz
  1  'x, y, z'
loop_
 _atom_site_type_symbol
 _atom_site_label
 _atom_site_symmetry_multiplicity
 _atom_site_fract_x
 _atom_site_fract_y
 _atom_site_fract_z
 _atom_site_occupancy
  Li  Li0  1  0.50000000  0.81730600  0.99035700  1
  Li  Li1  1  0.50000000  0.78924600  0.20674500  1
  Li  Li2  1  0.50000000  0.70656300  0.70288400  1
  Li  Li3  1  0.50000000  0.68430400  0.49059900  1
  Li  Li4  1  0.50000000  0.31693100  0.50871000  1
  Li  Li5  1  0.50000000  0.29515600  0.29905400  1
  Li  Li6  1  0.50000000  0.20652200  0.79659000  1
  Li  Li7  1  0.50000000  0.18493200  0.00863000  1
  Mn  Mn0  1  0.50000000  0.00011600  0.50009600  1
  Mn  Mn1  1  0.50000000  0.99998400  0.10393400  1
  Mn  Mn2  1  0.00000000  0.84613800  0.81010000  1
  Mn  Mn3  1  0.00000000  0.65396500  0.30893800  1
  Mn  Mn4  1  0.50000000  0.49891200  0.60357300  1
  Mn  Mn5  1  0.50000000  0.50184300  0.99869800  1
  Mn  Mn6  1  0.50000000  0.50182700  0.39637100  1
  Mn  Mn7  1  0.00000000  0.34649500  0.69077700  1
  Mn  Mn8  1  0.00000000  0.15613900  0.19006800  1
  Mn  Mn9  1  0.50000000  0.99940100  0.89689500  1
  Fe  Fe0  1  0.50000000  0.99302100  0.30638700  1
  Fe  Fe1  1  0.00000000  0.84444700  0.58775800  1
  Fe  Fe2  1  0.00000000  0.65302000  0.08718000  1
  Fe  Fe3  1  0.50000000  0.50726700  0.80731300  1
  Fe  Fe4  1  0.50000000  0.48645700  0.19182400  1
  Fe  Fe5  1  0.00000000  0.34428600  0.91192800  1
  Fe  Fe6  1  0.00000000  0.15569500  0.41249600  1
  Fe  Fe7  1  0.50000000  0.00810300  0.69364800  1
  O  O0  1  0.50000000  0.00983800  0.42209400  1
  O  O1  1  0.50000000  0.99024900  0.57805100  1
  O  O2  1  0.00000000  0.94331200  0.94247600  1
  O  O3  1  0.00000000  0.95920900  0.15797100  1
  O  O4  1  0.00000000  0.87477800  0.66830400  1
  O  O5  1  0.50000000  0.89367700  0.76185100  1
  O  O6  1  0.00000000  0.85725700  0.50226700  1
  O  O7  1  0.00000000  0.85617100  0.28323800  1
  O  O8  1  0.50000000  0.80752300  0.85911300  1
  O  O9  1  0.50000000  0.80324600  0.08093300  1
  O  O10  1  0.50000000  0.69440200  0.57960500  1
  O  O11  1  0.50000000  0.69335800  0.35821700  1
  O  O12  1  0.00000000  0.64489800  0.78529500  1
  O  O13  1  0.00000000  0.64506200  0.00147400  1
  O  O14  1  0.50000000  0.60784000  0.26096100  1
  O  O15  1  0.00000000  0.61429200  0.16671000  1
  O  O16  1  0.00000000  0.54172800  0.65746400  1
  O  O17  1  0.00000000  0.55719400  0.44202200  1
  O  O18  1  0.50000000  0.50874000  0.07623600  1
  O  O19  1  0.50000000  0.49111200  0.92062700  1
  O  O20  1  0.00000000  0.44276900  0.55817500  1
  O  O21  1  0.00000000  0.45848000  0.34246000  1
  O  O22  1  0.00000000  0.37232200  0.83166800  1
  O  O23  1  0.50000000  0.39485200  0.73874000  1
  O  O24  1  0.00000000  0.35891400  0.99695500  1
  O  O25  1  0.00000000  0.35781600  0.21499000  1
  O  O26  1  0.50000000  0.30672200  0.64189400  1
  O  O27  1  0.50000000  0.30579200  0.42045800  1
  O  O28  1  0.50000000  0.19461400  0.92110200  1
  O  O29  1  0.50000000  0.19376300  0.14111200  1
  O  O30  1  0.00000000  0.14536300  0.71626400  1
  O  O31  1  0.00000000  0.14320300  0.49788600  1
  O  O32  1  0.50000000  0.11066600  0.23865700  1
  O  O33  1  0.00000000  0.12591700  0.33191300  1
  O  O34  1  0.00000000  0.04182900  0.84311600  1
  O  O35  1  0.00000000  0.05502000  0.05815000  1
loop_
_geom_bond_atom_site_label_1
_geom_bond_atom_site_label_2
_geom_bond_distance
_geom_bond_site_symmetry_2
Li0 O13 2.157896 1_656
Li0 O13 2.157896 1_556
Li0 O2 2.200417 1_655
Li0 O2 2.200417 1_555
Li0 O9 2.248191 1_556
Li1 O14 2.128133 1_555
Li1 O15 2.376771 1_555
Li1 O15 2.376771 1_655
Li1 O3 2.443910 1_555
Li1 O3 2.443910 1_655
Li1 O7 2.467641 1_555
Li1 O7 2.467641 1_655
Li2 O5 2.246698 1_555
Li2 O4 2.280052 1_555
Li2 O4 2.280052 1_655
Li2 O16 2.376287 1_555
Li2 O16 2.376287 1_655
Li2 O12 2.569808 1_555
Li2 O12 2.569808 1_655
Li3 O6 2.164983 1_655
Li3 O6 2.164983 1_555
Li3 O10 2.207873 1_555
Li3 O17 2.216843 1_655
Li3 O17 2.216843 1_555
Li4 O31 2.167416 1_555
Li4 O31 2.167416 1_655
Li4 O27 2.189636 1_555
Li4 O20 2.222882 1_555
Li4 O20 2.222882 1_655
Li5 O32 2.252035 1_555
Li5 O33 2.270725 1_555
Li5 O33 2.270725 1_655
Li5 O21 2.344240 1_555
Li5 O21 2.344240 1_655
Li5 O25 2.604433 1_555
Li5 O25 2.604433 1_655
Li6 O23 2.234001 1_555
Li6 O22 2.271734 1_555
Li6 O22 2.271734 1_655
Li6 O34 2.386465 1_655
Li6 O34 2.386465 1_555
Li6 O30 2.529234 1_555
Li6 O30 2.529234 1_655
Li7 O28 2.170853 1_554
Li7 O24 2.171214 1_554
Li7 O24 2.171214 1_654
Li7 O35 2.241105 1_655
Li7 O35 2.241105 1_555
Mn0 O1 1.933902 1_545
Mn0 O0 1.935007 1_555
Mn0 O6 1.953558 1_545
Mn0 O6 1.953558 1_645
Mn0 O31 1.954968 1_655
Mn0 O31 1.954968 1_555
Mn1 O9 1.881257 1_555
Mn1 O35 1.912480 1_565
Mn1 O35 1.912480 1_665
Mn1 O29 1.992247 1_565
Mn1 O3 2.012565 1_655
Mn1 O3 2.012565 1_555
Mn2 O8 1.928320 1_555
Mn2 O8 1.928320 1_455
Mn2 O5 1.932950 1_455
Mn2 O5 1.932950 1_555
Mn2 O12 1.934180 1_555
Mn2 O34 1.962370 1_565
Mn3 O14 1.926717 1_555
Mn3 O14 1.926717 1_455
Mn3 O11 1.934442 1_455
Mn3 O11 1.934442 1_555
Mn3 O7 1.947911 1_555
Mn3 O21 1.963724 1_555
Mn4 O10 1.876239 1_555
Mn4 O20 1.910381 1_555
Mn4 O20 1.910381 1_655
Mn4 O26 1.990339 1_555
Mn4 O16 2.014423 1_555
Mn4 O16 2.014423 1_655
Mn5 O18 1.922731 1_556
Mn5 O19 1.937432 1_555
Mn5 O24 1.953815 1_555
Mn5 O24 1.953815 1_655
Mn5 O13 1.956334 1_656
Mn5 O13 1.956334 1_556
Mn6 O27 1.881877 1_555
Mn6 O17 1.912200 1_655
Mn6 O17 1.912200 1_555
Mn6 O11 1.983095 1_555
Mn6 O21 2.015699 1_555
Mn6 O21 2.015699 1_655
Mn7 O26 1.928909 1_455
Mn7 O26 1.928909 1_555
Mn7 O23 1.931057 1_455
Mn7 O23 1.931057 1_555
Mn7 O30 1.936948 1_555
Mn7 O16 1.959464 1_555
Mn8 O29 1.925812 1_455
Mn8 O29 1.925812 1_555
Mn8 O32 1.934071 1_455
Mn8 O32 1.934071 1_555
Mn8 O25 1.938880 1_555
Mn8 O3 1.963265 1_545
Mn9 O28 1.877402 1_565
Mn9 O2 1.912034 1_655
Mn9 O2 1.912034 1_555
Mn9 O8 1.983951 1_555
Mn9 O34 2.011142 1_565
Mn9 O34 2.011142 1_665
Fe0 O32 1.990084 1_565
Fe0 O33 1.997054 1_665
Fe0 O33 1.997054 1_565
Fe0 O7 2.001374 1_655
Fe0 O7 2.001374 1_555
Fe1 O1 1.985223 1_455
Fe1 O1 1.985223 1_555
Fe1 O10 2.007477 1_455
Fe1 O10 2.007477 1_555
Fe1 O4 2.015589 1_555
Fe1 O6 2.121747 1_555
Fe2 O18 1.980446 1_555
Fe2 O18 1.980446 1_455
Fe2 O15 2.001783 1_555
Fe2 O9 2.004040 1_455
Fe2 O9 2.004040 1_555
Fe2 O13 2.125381 1_555
Fe3 O23 1.985355 1_555
Fe3 O12 1.996942 1_555
Fe3 O12 1.996942 1_655
Fe3 O22 1.998356 1_655
Fe3 O22 1.998356 1_555
Fe4 O25 1.954756 1_555
Fe4 O25 1.954756 1_655
Fe4 O15 1.965078 1_555
Fe4 O15 1.965078 1_655
Fe4 O14 2.040525 1_555
Fe5 O19 1.989062 1_455
Fe5 O19 1.989062 1_555
Fe5 O22 2.005021 1_555
Fe5 O28 2.007442 1_455
Fe5 O28 2.007442 1_555
Fe5 O24 2.111614 1_555
Fe6 O0 1.985235 1_555
Fe6 O0 1.985235 1_455
Fe6 O27 2.007324 1_555
Fe6 O27 2.007324 1_455
Fe6 O33 2.015806 1_555
Fe6 O31 2.119095 1_555
Fe7 O5 1.984453 1_545
Fe7 O4 1.998000 1_645
Fe7 O4 1.998000 1_545
Fe7 O30 1.999950 1_655
Fe7 O30 1.999950 1_555
