# generated using pymatgen
data_TeWSe
_symmetry_space_group_name_H-M   'P 1'
_cell_length_a   3.43778822
_cell_length_b   3.43778822
_cell_length_c   39.18689800
_cell_angle_alpha   90.00000000
_cell_angle_beta   90.00000000
_cell_angle_gamma   120.00000432
_symmetry_Int_Tables_number   1
_chemical_formula_structural   TeWSe
_chemical_formula_sum   'Te4 W4 Se4'
_cell_volume   401.07882925
_cell_formula_units_Z   4
loop_
 _symmetry_equiv_pos_site_id
 _symmetry_equiv_pos_as_xyz
  1  'x, y, z'
loop_
 _atom_site_type_symbol
 _atom_site_label
 _atom_site_symmetry_multiplicity
 _atom_site_fract_x
 _atom_site_fract_y
 _atom_site_fract_z
 _atom_site_occupancy
  Te  Te0  1  0.33333300  0.66666700  0.32944800  1
  Te  Te1  1  0.66666700  0.33333300  0.67055200  1
  Te  Te2  1  0.66666700  0.33333300  0.76584800  1
  Te  Te3  1  0.33333300  0.66666700  0.23415200  1
  W  W0  1  0.33333300  0.66666700  0.71819200  1
  W  W1  1  0.33333300  0.66666700  0.09391700  1
  W  W2  1  0.66666700  0.33333300  0.90608300  1
  W  W3  1  0.66666700  0.33333300  0.28180800  1
  Se  Se0  1  0.33333300  0.66666700  0.94801500  1
  Se  Se1  1  0.66666700  0.33333300  0.05198500  1
  Se  Se2  1  0.66666700  0.33333300  0.13587200  1
  Se  Se3  1  0.33333300  0.66666700  0.86412800  1
loop_
_geom_bond_atom_site_label_1
_geom_bond_atom_site_label_2
_geom_bond_distance
_geom_bond_site_symmetry_2
Te0 W3 2.724818 1_455
Te0 W3 2.724818 1_565
Te0 W3 2.724823 1_555
Te1 W0 2.724818 1_545
Te1 W0 2.724818 1_655
Te1 W0 2.724823 1_555
Te2 W0 2.725248 1_545
Te2 W0 2.725248 1_655
Te2 W0 2.725252 1_555
Te3 W3 2.725248 1_455
Te3 W3 2.725248 1_565
Te3 W3 2.725252 1_555
Se0 W2 2.576725 1_565
Se0 W2 2.576725 1_455
Se0 W2 2.576730 1_555
Se1 W1 2.576725 1_545
Se1 W1 2.576725 1_655
Se1 W1 2.576730 1_555
Se2 W1 2.577300 1_545
Se2 W1 2.577300 1_655
Se2 W1 2.577304 1_555
Se3 W2 2.577300 1_455
Se3 W2 2.577300 1_565
Se3 W2 2.577304 1_555
