# generated using pymatgen
data_MnMoO4
_symmetry_space_group_name_H-M   'P 1'
_cell_length_a   7.05042440
_cell_length_b   7.05043438
_cell_length_c   7.14434359
_cell_angle_alpha   77.49173203
_cell_angle_beta   77.49176265
_cell_angle_gamma   84.18805696
_symmetry_Int_Tables_number   1
_chemical_formula_structural   MnMoO4
_chemical_formula_sum   'Mn4 Mo4 O16'
_cell_volume   337.92575839
_cell_formula_units_Z   4
loop_
 _symmetry_equiv_pos_site_id
 _symmetry_equiv_pos_as_xyz
  1  'x, y, z'
loop_
 _atom_site_type_symbol
 _atom_site_label
 _atom_site_symmetry_multiplicity
 _atom_site_fract_x
 _atom_site_fract_y
 _atom_site_fract_z
 _atom_site_occupancy
  Mn  Mn0  1  0.18359843  0.81641063  0.49999932  1
  Mn  Mn1  1  0.81640841  0.18359906  0.49999870  1
  Mn  Mn2  1  0.79448218  0.79448059  0.86265400  1
  Mn  Mn3  1  0.20550540  0.20550674  0.13734616  1
  Mo  Mo0  1  0.24936867  0.75062176  0.00000399  1
  Mo  Mo1  1  0.75061911  0.24937077  0.00000294  1
  Mo  Mo2  1  0.26901251  0.26901611  0.59428093  1
  Mo  Mo3  1  0.73100368  0.73100177  0.40571878  1
  O  O0  1  0.21111551  0.51730165  0.52860313  1
  O  O1  1  0.48273158  0.78887861  0.47138532  1
  O  O2  1  0.78888046  0.48273070  0.47138998  1
  O  O3  1  0.51729948  0.21112923  0.52859992  1
  O  O4  1  0.11111985  0.80549709  0.80726518  1
  O  O5  1  0.19450239  0.88887921  0.19273416  1
  O  O6  1  0.88888339  0.19449914  0.19274110  1
  O  O7  1  0.80549961  0.11111338  0.80725792  1
  O  O8  1  0.85820465  0.85820702  0.53751513  1
  O  O9  1  0.14178353  0.14178405  0.46246954  1
  O  O10  1  0.19832670  0.19831985  0.85044615  1
  O  O11  1  0.80168382  0.80167749  0.14957456  1
  O  O12  1  0.78532238  0.49333423  0.89200396  1
  O  O13  1  0.21465805  0.50666486  0.10800322  1
  O  O14  1  0.50665697  0.21465680  0.10800539  1
  O  O15  1  0.49332825  0.78532027  0.89200851  1
loop_
_geom_bond_atom_site_label_1
_geom_bond_atom_site_label_2
_geom_bond_distance
_geom_bond_site_symmetry_2
Mn0 O0 2.067433 1_555
Mn0 O1 2.067593 1_555
Mn0 O4 2.129531 1_555
Mn0 O5 2.129535 1_555
Mn0 O9 2.247708 1_565
Mn0 O8 2.247846 1_455
Mn1 O3 2.067433 1_555
Mn1 O2 2.067589 1_555
Mn1 O6 2.129488 1_555
Mn1 O7 2.129491 1_555
Mn1 O9 2.247717 1_655
Mn1 O8 2.247836 1_545
Mn2 O11 2.073098 1_556
Mn2 O12 2.094094 1_555
Mn2 O15 2.094140 1_555
Mn2 O7 2.187549 1_565
Mn2 O4 2.187582 1_655
Mn2 O8 2.221789 1_555
Mn3 O10 2.072895 1_554
Mn3 O14 2.094128 1_555
Mn3 O13 2.094177 1_555
Mn3 O6 2.187465 1_455
Mn3 O5 2.187505 1_545
Mn3 O9 2.221683 1_555
Mo0 O15 1.744199 1_554
Mo0 O13 1.744201 1_555
Mo0 O5 1.808332 1_555
Mo0 O4 1.808340 1_554
Mo1 O12 1.744235 1_554
Mo1 O14 1.744241 1_555
Mo1 O6 1.808411 1_555
Mo1 O7 1.808419 1_554
Mo2 O3 1.741713 1_555
Mo2 O0 1.741716 1_555
Mo2 O10 1.762468 1_555
Mo2 O9 1.841444 1_555
Mo3 O2 1.741590 1_555
Mo3 O1 1.741592 1_555
Mo3 O11 1.762315 1_555
Mo3 O8 1.841116 1_555
