# generated using pymatgen
data_CeGa
_symmetry_space_group_name_H-M   'P 1'
_cell_length_a   4.17855348
_cell_length_b   4.45919574
_cell_length_c   6.07684616
_cell_angle_alpha   111.52460587
_cell_angle_beta   90.00000000
_cell_angle_gamma   90.00000000
_symmetry_Int_Tables_number   1
_chemical_formula_structural   CeGa
_chemical_formula_sum   'Ce2 Ga2'
_cell_volume   105.33316433
_cell_formula_units_Z   2
loop_
 _symmetry_equiv_pos_site_id
 _symmetry_equiv_pos_as_xyz
  1  'x, y, z'
loop_
 _atom_site_type_symbol
 _atom_site_label
 _atom_site_symmetry_multiplicity
 _atom_site_fract_x
 _atom_site_fract_y
 _atom_site_fract_z
 _atom_site_occupancy
  Ce  Ce0  1  0.25000000  0.14341450  0.28682900  1
  Ce  Ce1  1  0.75000000  0.85658550  0.71317100  1
  Ga  Ga0  1  0.25000000  0.43262224  0.86524348  1
  Ga  Ga1  1  0.75000000  0.56737776  0.13475652  1
loop_
_geom_bond_atom_site_label_1
_geom_bond_atom_site_label_2
_geom_bond_distance
_geom_bond_site_symmetry_2
Ce0 Ga1 3.174148 1_455
Ce0 Ga1 3.174148 1_555
Ce0 Ga1 3.174150 1_445
Ce0 Ga1 3.174150 1_545
Ce0 Ga0 3.263578 1_544
Ce0 Ga0 3.263582 1_554
Ce0 Ga0 3.269804 1_555
Ce1 Ga0 3.174148 1_655
Ce1 Ga0 3.174148 1_555
Ce1 Ga0 3.174150 1_565
Ce1 Ga0 3.174150 1_665
Ce1 Ga1 3.263578 1_566
Ce1 Ga1 3.263582 1_556
Ce1 Ga1 3.269804 1_555
Ga0 Ga1 2.585796 1_556
Ga0 Ga1 2.585796 1_456
