# generated using pymatgen
data_Ca(NO5)2
_symmetry_space_group_name_H-M   'P 1'
_cell_length_a   8.79651300
_cell_length_b   6.42311600
_cell_length_c   15.01268922
_cell_angle_alpha   71.52652394
_cell_angle_beta   90.00000000
_cell_angle_gamma   90.00000000
_symmetry_Int_Tables_number   1
_chemical_formula_structural   Ca(NO5)2
_chemical_formula_sum   'Ca4 N8 O40'
_cell_volume   804.52327021
_cell_formula_units_Z   4
loop_
 _symmetry_equiv_pos_site_id
 _symmetry_equiv_pos_as_xyz
  1  'x, y, z'
loop_
 _atom_site_type_symbol
 _atom_site_label
 _atom_site_symmetry_multiplicity
 _atom_site_fract_x
 _atom_site_fract_y
 _atom_site_fract_z
 _atom_site_occupancy
  Ca  Ca0  1  0.91378700  0.13781600  0.85129500  1
  Ca  Ca1  1  0.58621300  0.13781600  0.35129500  1
  Ca  Ca2  1  0.08621300  0.86218400  0.14870500  1
  Ca  Ca3  1  0.41378700  0.86218400  0.64870500  1
  N  N0  1  0.87835600  0.44205300  0.66875600  1
  N  N1  1  0.62164400  0.44205300  0.16875600  1
  N  N2  1  0.12164400  0.55794700  0.33124400  1
  N  N3  1  0.37835600  0.55794700  0.83124400  1
  N  N4  1  0.23933800  0.98884400  0.91884300  1
  N  N5  1  0.26066200  0.98884400  0.41884300  1
  N  N6  1  0.76066200  0.01115600  0.08115700  1
  N  N7  1  0.73933800  0.01115600  0.58115700  1
  O  O0  1  0.00012700  0.42960100  0.71763400  1
  O  O1  1  0.49987300  0.42960100  0.21763400  1
  O  O2  1  0.99987300  0.57039900  0.28236600  1
  O  O3  1  0.50012700  0.57039900  0.78236600  1
  O  O4  1  0.76529300  0.32538900  0.71207700  1
  O  O5  1  0.73470700  0.32538900  0.21207700  1
  O  O6  1  0.23470700  0.67461100  0.28792300  1
  O  O7  1  0.26529300  0.67461100  0.78792300  1
  O  O8  1  0.87090300  0.55685600  0.58621700  1
  O  O9  1  0.62909700  0.55685600  0.08621700  1
  O  O10  1  0.12909700  0.44314400  0.41378300  1
  O  O11  1  0.37090300  0.44314400  0.91378300  1
  O  O12  1  0.14165300  0.95091400  0.98721400  1
  O  O13  1  0.35834700  0.95091400  0.48721400  1
  O  O14  1  0.85834700  0.04908600  0.01278600  1
  O  O15  1  0.64165300  0.04908600  0.51278600  1
  O  O16  1  0.18341500  0.09028500  0.83780800  1
  O  O17  1  0.31658500  0.09028500  0.33780800  1
  O  O18  1  0.81658500  0.90971500  0.16219200  1
  O  O19  1  0.68341500  0.90971500  0.66219200  1
  O  O20  1  0.37172100  0.93126100  0.93119000  1
  O  O21  1  0.12827900  0.93126100  0.43119000  1
  O  O22  1  0.62827900  0.06873900  0.06881000  1
  O  O23  1  0.87172100  0.06873900  0.56881000  1
  O  O24  1  0.79239800  0.68651000  0.84862400  1
  O  O25  1  0.70760200  0.68651000  0.34862400  1
  O  O26  1  0.20760200  0.31349000  0.15137600  1
  O  O27  1  0.29239800  0.31349000  0.65137600  1
  O  O28  1  0.72029000  0.78630600  0.89850400  1
  O  O29  1  0.77971000  0.78630600  0.39850400  1
  O  O30  1  0.27971000  0.21369400  0.10149600  1
  O  O31  1  0.22029000  0.21369400  0.60149600  1
  O  O32  1  0.03359800  0.50678300  0.96309500  1
  O  O33  1  0.46640200  0.50678300  0.46309500  1
  O  O34  1  0.96640200  0.49321700  0.03690500  1
  O  O35  1  0.53359800  0.49321700  0.53690500  1
  O  O36  1  0.89572000  0.80281300  0.79198100  1
  O  O37  1  0.60428000  0.80281300  0.29198100  1
  O  O38  1  0.10428000  0.19718700  0.20801900  1
  O  O39  1  0.39572000  0.19718700  0.70801900  1
loop_
_geom_bond_atom_site_label_1
_geom_bond_atom_site_label_2
_geom_bond_distance
_geom_bond_site_symmetry_2
Ca0 O14 2.358979 1_556
Ca0 O0 2.394271 1_655
Ca0 O16 2.408059 1_655
Ca0 O4 2.435211 1_555
Ca0 O36 2.581189 1_545
Ca0 O28 2.735503 1_545
Ca0 O12 2.840808 1_645
Ca1 O15 2.358979 1_555
Ca1 O1 2.394271 1_555
Ca1 O17 2.408059 1_555
Ca1 O5 2.435211 1_555
Ca1 O37 2.581189 1_545
Ca1 O29 2.735503 1_545
Ca1 O13 2.840808 1_545
Ca2 O12 2.358979 1_554
Ca2 O2 2.394271 1_455
Ca2 O18 2.408059 1_455
Ca2 O6 2.435211 1_555
Ca2 O38 2.581189 1_565
Ca2 O30 2.735503 1_565
Ca2 O14 2.840808 1_465
Ca3 O13 2.358979 1_555
Ca3 O3 2.394271 1_555
Ca3 O19 2.408059 1_555
Ca3 O7 2.435211 1_555
Ca3 O39 2.581189 1_565
Ca3 O31 2.735503 1_565
Ca3 O15 2.840808 1_565
N0 O8 1.226555 1_555
N0 O0 1.286482 1_655
N0 O4 1.290270 1_555
N1 O9 1.226555 1_555
N1 O1 1.286482 1_555
N1 O5 1.290270 1_555
N2 O10 1.226555 1_555
N2 O2 1.286482 1_455
N2 O6 1.290270 1_555
N3 O11 1.226555 1_555
N3 O3 1.286482 1_555
N3 O7 1.290270 1_555
N4 O20 1.218109 1_555
N4 O16 1.282262 1_565
N4 O12 1.301083 1_555
N5 O21 1.218109 1_555
N5 O17 1.282262 1_565
N5 O13 1.301083 1_555
N6 O22 1.218109 1_555
N6 O18 1.282262 1_545
N6 O14 1.301083 1_555
N7 O23 1.218109 1_555
N7 O19 1.282262 1_545
N7 O15 1.301083 1_555
O24 O28 1.295439 1_555
O24 O36 1.305620 1_555
O25 O29 1.295439 1_555
O25 O37 1.305620 1_555
O26 O30 1.295439 1_555
O26 O38 1.305620 1_555
O27 O31 1.295439 1_555
O27 O39 1.305620 1_555
O32 O34 1.234361 1_456
O33 O35 1.234361 1_555
