# generated using pymatgen
data_BaTi(AsO4)2
_symmetry_space_group_name_H-M   'P 1'
_cell_length_a   5.11124206
_cell_length_b   5.11124206
_cell_length_c   7.99141329
_cell_angle_alpha   87.29788477
_cell_angle_beta   87.29788477
_cell_angle_gamma   65.22770822
_symmetry_Int_Tables_number   1
_chemical_formula_structural   BaTi(AsO4)2
_chemical_formula_sum   'Ba1 Ti1 As2 O8'
_cell_volume   189.26556511
_cell_formula_units_Z   1
loop_
 _symmetry_equiv_pos_site_id
 _symmetry_equiv_pos_as_xyz
  1  'x, y, z'
loop_
 _atom_site_type_symbol
 _atom_site_label
 _atom_site_symmetry_multiplicity
 _atom_site_fract_x
 _atom_site_fract_y
 _atom_site_fract_z
 _atom_site_occupancy
  Ba  Ba0  1  0.00000000  0.00000000  0.50000000  1
  Ti  Ti0  1  0.00000000  0.00000000  0.00000000  1
  As  As0  1  0.36399400  0.36399400  0.79719300  1
  As  As1  1  0.63600600  0.63600600  0.20280700  1
  O  O0  1  0.30637200  0.30637200  0.59826700  1
  O  O1  1  0.69362800  0.69362800  0.40173300  1
  O  O2  1  0.73331400  0.22657500  0.82014700  1
  O  O3  1  0.26668600  0.77342500  0.17985300  1
  O  O4  1  0.77342500  0.26668600  0.17985300  1
  O  O5  1  0.22657500  0.73331400  0.82014700  1
  O  O6  1  0.22043300  0.22043300  0.95407400  1
  O  O7  1  0.77956700  0.77956700  0.04592600  1
loop_
_geom_bond_atom_site_label_1
_geom_bond_atom_site_label_2
_geom_bond_distance
_geom_bond_site_symmetry_2
Ba0 O1 2.794263 1_445
Ba0 O0 2.794263 1_555
Ba0 O2 2.893508 1_455
Ba0 O5 2.893508 1_545
Ba0 O4 2.893508 1_455
Ba0 O3 2.893508 1_545
Ba0 O1 3.292257 1_545
Ba0 O0 3.292257 1_455
Ba0 O1 3.292257 1_455
Ba0 O0 3.292257 1_545
As0 O0 1.691630 1_555
As0 O6 1.710660 1_555
As0 O5 1.731971 1_555
As0 O2 1.731971 1_555
As1 O1 1.691630 1_555
As1 O7 1.710660 1_555
As1 O3 1.731971 1_555
As1 O4 1.731971 1_555
O2 Ti0 1.992448 1_656
O3 Ti0 1.992448 1_565
O4 Ti0 1.992448 1_655
O5 Ti0 1.992448 1_566
O6 Ti0 1.912949 1_556
O7 Ti0 1.912949 1_665
