# generated using pymatgen
data_BaNaFeF6
_symmetry_space_group_name_H-M   'P 1'
_cell_length_a   5.66015800
_cell_length_b   10.05806800
_cell_length_c   19.49566100
_cell_angle_alpha   90.00000000
_cell_angle_beta   90.00000000
_cell_angle_gamma   90.00000000
_symmetry_Int_Tables_number   1
_chemical_formula_structural   BaNaFeF6
_chemical_formula_sum   'Ba8 Na8 Fe8 F48'
_cell_volume   1109.89293370
_cell_formula_units_Z   8
loop_
 _symmetry_equiv_pos_site_id
 _symmetry_equiv_pos_as_xyz
  1  'x, y, z'
loop_
 _atom_site_type_symbol
 _atom_site_label
 _atom_site_symmetry_multiplicity
 _atom_site_fract_x
 _atom_site_fract_y
 _atom_site_fract_z
 _atom_site_occupancy
  Ba  Ba0  1  0.75879700  0.36666500  0.11152600  1
  Ba  Ba1  1  0.24120300  0.86666500  0.88847400  1
  Ba  Ba2  1  0.74120300  0.36666500  0.61152600  1
  Ba  Ba3  1  0.25879700  0.86666500  0.38847400  1
  Ba  Ba4  1  0.25740000  0.00165300  0.13756200  1
  Ba  Ba5  1  0.74260000  0.50165300  0.86243800  1
  Ba  Ba6  1  0.24260000  0.00165300  0.63756200  1
  Ba  Ba7  1  0.75740000  0.50165300  0.36243800  1
  Na  Na0  1  0.25616800  0.64040200  0.06457500  1
  Na  Na1  1  0.74383200  0.14040200  0.93542500  1
  Na  Na2  1  0.24383200  0.64040200  0.56457500  1
  Na  Na3  1  0.75616800  0.14040200  0.43542500  1
  Na  Na4  1  0.26359400  0.22724600  0.31293900  1
  Na  Na5  1  0.73640600  0.72724600  0.68706100  1
  Na  Na6  1  0.23640600  0.22724600  0.81293900  1
  Na  Na7  1  0.76359400  0.72724600  0.18706100  1
  Fe  Fe0  1  0.26430700  0.26334000  0.49234000  1
  Fe  Fe1  1  0.73569300  0.76334000  0.50766000  1
  Fe  Fe2  1  0.23569300  0.26334000  0.99234000  1
  Fe  Fe3  1  0.76430700  0.76334000  0.00766000  1
  Fe  Fe4  1  0.25080200  0.60451500  0.24319000  1
  Fe  Fe5  1  0.74919800  0.10451500  0.75681000  1
  Fe  Fe6  1  0.24919800  0.60451500  0.74319000  1
  Fe  Fe7  1  0.75080200  0.10451500  0.25681000  1
  F  F0  1  0.02889400  0.17178100  0.05922300  1
  F  F1  1  0.97110600  0.67178100  0.94077700  1
  F  F2  1  0.47110600  0.17178100  0.55922300  1
  F  F3  1  0.52889400  0.67178100  0.44077700  1
  F  F4  1  0.34576900  0.11843000  0.42772400  1
  F  F5  1  0.65423100  0.61843000  0.57227600  1
  F  F6  1  0.15423100  0.11843000  0.92772400  1
  F  F7  1  0.84576900  0.61843000  0.07227600  1
  F  F8  1  0.49776600  0.16415900  0.03442600  1
  F  F9  1  0.50223400  0.66415900  0.96557400  1
  F  F10  1  0.00223400  0.16415900  0.53442600  1
  F  F11  1  0.99776600  0.66415900  0.46557400  1
  F  F12  1  0.47867200  0.54343600  0.17628100  1
  F  F13  1  0.52132800  0.04343600  0.82371900  1
  F  F14  1  0.02132800  0.54343600  0.67628100  1
  F  F15  1  0.97867200  0.04343600  0.32371900  1
  F  F16  1  0.53388200  0.19495300  0.19178700  1
  F  F17  1  0.46611800  0.69495300  0.80821300  1
  F  F18  1  0.96611800  0.19495300  0.69178700  1
  F  F19  1  0.03388200  0.69495300  0.30821300  1
  F  F20  1  0.30132500  0.45983700  0.30803000  1
  F  F21  1  0.69867500  0.95983700  0.69197000  1
  F  F22  1  0.19867500  0.45983700  0.80803000  1
  F  F23  1  0.80132500  0.95983700  0.19197000  1
  F  F24  1  0.04709500  0.32261900  0.42178000  1
  F  F25  1  0.95290500  0.82261900  0.57822000  1
  F  F26  1  0.45290500  0.32261900  0.92178000  1
  F  F27  1  0.54709500  0.82261900  0.07822000  1
  F  F28  1  0.00845400  0.20212900  0.21214000  1
  F  F29  1  0.99154600  0.70212900  0.78786000  1
  F  F30  1  0.49154600  0.20212900  0.71214000  1
  F  F31  1  0.50845400  0.70212900  0.28786000  1
  F  F32  1  0.55512500  0.35455500  0.46457500  1
  F  F33  1  0.44487500  0.85455500  0.53542500  1
  F  F34  1  0.94487500  0.35455500  0.96457500  1
  F  F35  1  0.05512500  0.85455500  0.03542500  1
  F  F36  1  0.18081400  0.74970500  0.17818900  1
  F  F37  1  0.81918600  0.24970500  0.82181100  1
  F  F38  1  0.31918600  0.74970500  0.67818900  1
  F  F39  1  0.68081400  0.24970500  0.32181100  1
  F  F40  1  0.29704400  0.40751400  0.05633900  1
  F  F41  1  0.70295600  0.90751400  0.94366100  1
  F  F42  1  0.20295600  0.40751400  0.55633900  1
  F  F43  1  0.79704400  0.90751400  0.44366100  1
  F  F44  1  0.46856600  0.01265900  0.28932700  1
  F  F45  1  0.53143400  0.51265900  0.71067300  1
  F  F46  1  0.03143400  0.01265900  0.78932700  1
  F  F47  1  0.96856600  0.51265900  0.21067300  1
loop_
_geom_bond_atom_site_label_1
_geom_bond_atom_site_label_2
_geom_bond_distance
_geom_bond_site_symmetry_2
Ba0 F16 2.655546 1_555
Ba0 F0 2.686851 1_655
Ba0 F7 2.690773 1_555
Ba0 F12 2.696095 1_555
Ba0 F47 2.702265 1_555
Ba0 F40 2.856092 1_555
Ba0 F28 2.929712 1_655
Ba0 F8 2.931028 1_555
Ba0 F34 3.054803 1_554
Ba0 F40 3.256982 1_655
Ba1 F17 2.655546 1_555
Ba1 F1 2.686851 1_455
Ba1 F6 2.690773 1_565
Ba1 F13 2.696095 1_565
Ba1 F46 2.702265 1_565
Ba1 F41 2.856092 1_555
Ba1 F29 2.929712 1_455
Ba1 F9 2.931028 1_555
Ba1 F35 3.054803 1_556
Ba1 F41 3.256982 1_455
Ba2 F18 2.655546 1_555
Ba2 F2 2.686851 1_555
Ba2 F5 2.690773 1_555
Ba2 F14 2.696095 1_655
Ba2 F45 2.702265 1_555
Ba2 F42 2.856092 1_655
Ba2 F30 2.929712 1_555
Ba2 F10 2.931028 1_655
Ba2 F32 3.054803 1_555
Ba2 F42 3.256982 1_555
Ba3 F19 2.655546 1_555
Ba3 F3 2.686851 1_555
Ba3 F4 2.690773 1_565
Ba3 F15 2.696095 1_465
Ba3 F44 2.702265 1_565
Ba3 F43 2.856092 1_455
Ba3 F31 2.929712 1_555
Ba3 F11 2.931028 1_455
Ba3 F33 3.054803 1_555
Ba3 F43 3.256982 1_555
Ba4 F0 2.633145 1_555
Ba4 F36 2.690162 1_545
Ba4 F27 2.696252 1_545
Ba4 F16 2.710460 1_555
Ba4 F35 2.732177 1_545
Ba4 F23 2.822400 1_445
Ba4 F28 2.857503 1_555
Ba4 F8 2.926687 1_555
Ba4 F44 3.192975 1_555
Ba4 F23 3.283356 1_545
Ba5 F1 2.633145 1_555
Ba5 F37 2.690162 1_555
Ba5 F26 2.696252 1_555
Ba5 F17 2.710460 1_555
Ba5 F34 2.732177 1_555
Ba5 F22 2.822400 1_655
Ba5 F29 2.857503 1_555
Ba5 F9 2.926687 1_555
Ba5 F45 3.192975 1_555
Ba5 F22 3.283356 1_555
Ba6 F2 2.633145 1_555
Ba6 F38 2.690162 1_545
Ba6 F25 2.696252 1_445
Ba6 F18 2.710460 1_455
Ba6 F33 2.732177 1_545
Ba6 F21 2.822400 1_545
Ba6 F30 2.857503 1_555
Ba6 F10 2.926687 1_555
Ba6 F46 3.192975 1_555
Ba6 F21 3.283356 1_445
Ba7 F3 2.633145 1_555
Ba7 F39 2.690162 1_555
Ba7 F24 2.696252 1_655
Ba7 F19 2.710460 1_655
Ba7 F32 2.732177 1_555
Ba7 F20 2.822400 1_555
Ba7 F31 2.857503 1_555
Ba7 F11 2.926687 1_555
Ba7 F47 3.192975 1_555
Ba7 F20 3.283356 1_655
F0 Fe2 1.979496 1_554
F1 Fe3 1.979496 1_556
F2 Fe0 1.979496 1_555
F3 Fe1 1.979496 1_555
F4 Fe0 1.980877 1_555
F4 Na3 2.338237 1_555
F4 Na4 2.534169 1_555
F5 Fe1 1.980877 1_555
F5 Na2 2.338237 1_555
F5 Na5 2.534169 1_555
F6 Fe2 1.980877 1_555
F6 Na1 2.338237 1_455
F6 Na6 2.534169 1_555
F7 Fe3 1.980877 1_555
F7 Na0 2.338237 1_655
F7 Na7 2.534169 1_555
F8 Fe2 1.966915 1_554
F8 Na1 2.392103 1_554
F9 Fe3 1.966915 1_556
F9 Na0 2.392103 1_556
F10 Fe0 1.966915 1_555
F10 Na3 2.392103 1_455
F11 Fe1 1.966915 1_555
F11 Na2 2.392103 1_655
F12 Fe4 1.934553 1_555
F12 Na7 2.462305 1_555
F12 Na0 2.698154 1_555
F13 Fe5 1.934553 1_555
F13 Na6 2.462305 1_555
F13 Na1 2.698154 1_555
F14 Fe6 1.934553 1_555
F14 Na5 2.462305 1_455
F14 Na2 2.698154 1_555
F15 Fe7 1.934553 1_555
F15 Na4 2.462305 1_655
F15 Na3 2.698154 1_555
F16 Fe7 1.985423 1_555
F16 Na4 2.832801 1_555
F17 Fe6 1.985423 1_555
F17 Na5 2.832801 1_555
F18 Fe5 1.985423 1_555
F18 Na6 2.832801 1_655
F19 Fe4 1.985423 1_555
F19 Na7 2.832801 1_455
F20 Fe4 1.948660 1_555
F20 Na4 2.351093 1_555
F21 Fe5 1.948660 1_565
F21 Na5 2.351093 1_555
F22 Fe6 1.948660 1_555
F22 Na6 2.351093 1_555
F23 Fe7 1.948660 1_565
F23 Na7 2.351093 1_555
F24 Fe0 1.938908 1_555
F24 Na3 2.478173 1_455
F24 Na4 2.631429 1_555
F25 Fe1 1.938908 1_555
F25 Na2 2.478173 1_655
F25 Na5 2.631429 1_555
F26 Fe2 1.938908 1_555
F26 Na1 2.478173 1_555
F26 Na6 2.631429 1_555
F27 Fe3 1.938908 1_555
F27 Na0 2.478173 1_555
F27 Na7 2.631429 1_555
F28 Fe7 1.961926 1_455
F28 Na4 2.451760 1_555
F29 Fe6 1.961926 1_655
F29 Na5 2.451760 1_555
F30 Fe5 1.961926 1_555
F30 Na6 2.451760 1_555
F31 Fe4 1.961926 1_555
F31 Na7 2.451760 1_555
F32 Fe0 1.960683 1_555
F32 Na3 2.501485 1_555
F33 Fe1 1.960683 1_555
F33 Na2 2.501485 1_555
F34 Fe2 1.960683 1_655
F34 Na1 2.501485 1_555
F35 Fe3 1.960683 1_455
F35 Na0 2.501485 1_555
F36 Fe4 1.973673 1_555
F36 Na7 2.378608 1_455
F36 Na0 2.509319 1_555
F37 Fe5 1.973673 1_555
F37 Na6 2.378608 1_655
F37 Na1 2.509319 1_555
F38 Fe6 1.973673 1_555
F38 Na5 2.378608 1_555
F38 Na2 2.509319 1_555
F39 Fe7 1.973673 1_555
F39 Na4 2.378608 1_555
F39 Na3 2.509319 1_555
F40 Fe2 1.944267 1_554
F40 Na0 2.359272 1_555
F41 Fe3 1.944267 1_556
F41 Na1 2.359272 1_565
F42 Fe0 1.944267 1_555
F42 Na2 2.359272 1_555
F43 Fe1 1.944267 1_555
F43 Na3 2.359272 1_565
F44 Fe7 1.951273 1_555
F44 Na4 2.493251 1_555
F45 Fe6 1.951273 1_555
F45 Na5 2.493251 1_555
F46 Fe5 1.951273 1_455
F46 Na6 2.493251 1_555
F47 Fe4 1.951273 1_655
F47 Na7 2.493251 1_555
