# generated using pymatgen
data_Tb5Ir3
_symmetry_space_group_name_H-M   'P 1'
_cell_length_a   6.38694761
_cell_length_b   10.87634747
_cell_length_c   10.87641740
_cell_angle_alpha   89.99993889
_cell_angle_beta   89.99883752
_cell_angle_gamma   89.99968689
_symmetry_Int_Tables_number   1
_chemical_formula_structural   Tb5Ir3
_chemical_formula_sum   'Tb20 Ir12'
_cell_volume   755.54840555
_cell_formula_units_Z   4
loop_
 _symmetry_equiv_pos_site_id
 _symmetry_equiv_pos_as_xyz
  1  'x, y, z'
loop_
 _atom_site_type_symbol
 _atom_site_label
 _atom_site_symmetry_multiplicity
 _atom_site_fract_x
 _atom_site_fract_y
 _atom_site_fract_z
 _atom_site_occupancy
  Tb  Tb0  1  0.38455170  0.83858718  0.54193014  1
  Tb  Tb1  1  0.88455302  0.66141236  0.54192690  1
  Tb  Tb2  1  0.88454082  0.83858376  0.95807134  1
  Tb  Tb3  1  0.38454107  0.66141846  0.95806941  1
  Tb  Tb4  1  0.88455910  0.54189181  0.83855888  1
  Tb  Tb5  1  0.38455003  0.95810847  0.83855651  1
  Tb  Tb6  1  0.38455939  0.54188841  0.66143890  1
  Tb  Tb7  1  0.88455155  0.95811750  0.66143983  1
  Tb  Tb8  1  0.61544173  0.16150715  0.45803755  1
  Tb  Tb9  1  0.11544101  0.33849498  0.45804307  1
  Tb  Tb10  1  0.11545233  0.16151019  0.04196591  1
  Tb  Tb11  1  0.61545140  0.33848940  0.04196349  1
  Tb  Tb12  1  0.11544834  0.45799550  0.16148109  1
  Tb  Tb13  1  0.61545519  0.04200372  0.16148615  1
  Tb  Tb14  1  0.61544880  0.45800010  0.33852196  1
  Tb  Tb15  1  0.11545591  0.04199688  0.33851677  1
  Tb  Tb16  1  0.50001519  0.74999571  0.25001153  1
  Tb  Tb17  1  0.00001752  0.74998856  0.25000690  1
  Tb  Tb18  1  0.00001665  0.25000857  0.74999615  1
  Tb  Tb19  1  0.50002262  0.25000113  0.74999031  1
  Ir  Ir0  1  0.24999738  0.90360077  0.09650125  1
  Ir  Ir1  1  0.74999512  0.59640097  0.09649815  1
  Ir  Ir2  1  0.74999502  0.90360313  0.40349445  1
  Ir  Ir3  1  0.24999468  0.59639952  0.40349837  1
  Ir  Ir4  1  0.74999849  0.09654553  0.90356200  1
  Ir  Ir5  1  0.25000162  0.40345440  0.90356091  1
  Ir  Ir6  1  0.24999112  0.09654217  0.59644110  1
  Ir  Ir7  1  0.74999286  0.40346467  0.59643315  1
  Ir  Ir8  1  0.12893994  0.74998695  0.74999580  1
  Ir  Ir9  1  0.62894790  0.75000494  0.75000089  1
  Ir  Ir10  1  0.87103970  0.25000001  0.24999835  1
  Ir  Ir11  1  0.37103478  0.25000014  0.25000078  1
loop_
_geom_bond_atom_site_label_1
_geom_bond_atom_site_label_2
_geom_bond_distance
_geom_bond_site_symmetry_2
Ir0 Tb17 2.850961 1_555
Ir0 Tb16 2.851109 1_555
Ir0 Tb13 2.866001 1_565
Ir0 Tb2 2.866249 1_454
Ir0 Tb10 2.993146 1_565
Ir0 Tb5 2.993462 1_554
Ir0 Tb15 3.151647 1_565
Ir0 Tb3 3.153346 1_554
Ir1 Tb16 2.850891 1_555
Ir1 Tb17 2.851016 1_655
Ir1 Tb12 2.865973 1_655
Ir1 Tb3 2.866223 1_554
Ir1 Tb11 2.993174 1_555
Ir1 Tb4 2.993430 1_554
Ir1 Tb14 3.151757 1_555
Ir1 Tb2 3.153333 1_554
Ir2 Tb16 2.850826 1_555
Ir2 Tb17 2.851005 1_655
Ir2 Tb15 2.865921 1_665
Ir2 Tb0 2.866159 1_555
Ir2 Tb8 2.993117 1_565
Ir2 Tb7 2.993524 1_555
Ir2 Tb13 3.151628 1_565
Ir2 Tb1 3.153465 1_555
Ir3 Tb17 2.850741 1_555
Ir3 Tb16 2.850885 1_555
Ir3 Tb14 2.865903 1_555
Ir3 Tb1 2.866096 1_455
Ir3 Tb9 2.993134 1_555
Ir3 Tb6 2.993480 1_555
Ir3 Tb12 3.151746 1_555
Ir3 Tb0 3.153442 1_555
Ir4 Tb19 2.850398 1_555
Ir4 Tb18 2.850531 1_655
Ir4 Tb10 2.865946 1_656
Ir4 Tb5 2.866203 1_545
Ir4 Tb13 2.993309 1_556
Ir4 Tb2 2.993619 1_545
Ir4 Tb11 3.151029 1_556
Ir4 Tb7 3.152802 1_545
Ir5 Tb18 2.850336 1_555
Ir5 Tb19 2.850502 1_555
Ir5 Tb11 2.865911 1_556
Ir5 Tb4 2.866151 1_455
Ir5 Tb12 2.993284 1_556
Ir5 Tb3 2.993645 1_555
Ir5 Tb10 3.151059 1_556
Ir5 Tb6 3.152841 1_555
Ir6 Tb18 2.850320 1_555
Ir6 Tb19 2.850487 1_555
Ir6 Tb8 2.865877 1_555
Ir6 Tb7 2.866044 1_445
Ir6 Tb15 2.993337 1_555
Ir6 Tb0 2.993581 1_545
Ir6 Tb9 3.151111 1_555
Ir6 Tb5 3.152806 1_545
Ir7 Tb19 2.850308 1_555
Ir7 Tb18 2.850517 1_655
Ir7 Tb9 2.865794 1_655
Ir7 Tb6 2.866013 1_555
Ir7 Tb14 2.993195 1_555
Ir7 Tb1 2.993503 1_555
Ir7 Tb8 3.151154 1_555
Ir7 Tb4 3.152886 1_555
Ir8 Tb1 2.913070 1_455
Ir8 Tb4 2.913188 1_455
Ir8 Tb2 2.913193 1_455
Ir8 Tb7 2.913495 1_455
Ir8 Tb3 2.952079 1_555
Ir8 Tb0 2.952118 1_555
Ir8 Tb6 2.952263 1_555
Ir8 Tb5 2.952470 1_555
Ir9 Tb3 2.913127 1_555
Ir9 Tb0 2.913138 1_555
Ir9 Tb5 2.913278 1_555
Ir9 Tb6 2.913413 1_555
Ir9 Tb2 2.952068 1_555
Ir9 Tb1 2.952133 1_555
Ir9 Tb7 2.952351 1_555
Ir9 Tb4 2.952379 1_555
Ir10 Tb12 2.912276 1_655
Ir10 Tb15 2.912378 1_655
Ir10 Tb10 2.912490 1_655
Ir10 Tb9 2.912629 1_655
Ir10 Tb13 2.951164 1_555
Ir10 Tb14 2.951223 1_555
Ir10 Tb11 2.951430 1_555
Ir10 Tb8 2.951468 1_555
Ir11 Tb13 2.912303 1_555
Ir11 Tb14 2.912369 1_555
Ir11 Tb11 2.912547 1_555
Ir11 Tb8 2.912567 1_555
Ir11 Tb12 2.951174 1_555
Ir11 Tb15 2.951192 1_555
Ir11 Tb10 2.951419 1_555
Ir11 Tb9 2.951481 1_555
