# generated using pymatgen
data_Ho(TlTe2)3
_symmetry_space_group_name_H-M   'P 1'
_cell_length_a   12.98735444
_cell_length_b   12.37812820
_cell_length_c   69.92066845
_cell_angle_alpha   90.00000000
_cell_angle_beta   90.00000000
_cell_angle_gamma   121.64192263
_symmetry_Int_Tables_number   1
_chemical_formula_structural   Ho(TlTe2)3
_chemical_formula_sum   'Ho1 Tl3 Te6'
_cell_volume   9569.42778975
_cell_formula_units_Z   1
loop_
 _symmetry_equiv_pos_site_id
 _symmetry_equiv_pos_as_xyz
  1  'x, y, z'
loop_
 _atom_site_type_symbol
 _atom_site_label
 _atom_site_symmetry_multiplicity
 _atom_site_fract_x
 _atom_site_fract_y
 _atom_site_fract_z
 _atom_site_occupancy
  Ho  Ho0  1  0.00000000  0.00000000  0.00000000  1
  Tl  Tl0  1  0.00000000  0.00000000  0.50000000  1
  Tl  Tl1  1  0.50000000  0.50000000  0.00000000  1
  Tl  Tl2  1  -0.00000000  0.50000000  0.00000000  1
  Te  Te0  1  0.00000000  0.00000000  0.76595877  1
  Te  Te1  1  0.00000000  0.00000000  0.23404123  1
  Te  Te2  1  0.76548984  0.76141579  -0.00000000  1
  Te  Te3  1  0.23451016  0.23858421  -0.00000000  1
  Te  Te4  1  0.00407405  0.23858421  -0.00000000  1
  Te  Te5  1  0.99592595  0.76141579  0.00000000  1
loop_
_geom_bond_atom_site_label_1
_geom_bond_atom_site_label_2
_geom_bond_distance
_geom_bond_site_symmetry_2
Ho0 Te5 2.925815 1_445
Ho0 Te4 2.925815 1_555
Ho0 Te3 2.925815 1_555
Ho0 Te2 2.925815 1_445
Te2 Te5 2.992755 1_555
Te2 Tl1 3.263907 1_555
Te3 Te4 2.992755 1_555
Te3 Tl1 3.263907 1_555
Te4 Tl2 3.263907 1_555
Te5 Tl2 3.263907 1_655
