# generated using pymatgen
data_NdBPt4
_symmetry_space_group_name_H-M   'P 1'
_cell_length_a   5.45527899
_cell_length_b   5.45527899
_cell_length_c   7.68578326
_cell_angle_alpha   90.00000000
_cell_angle_beta   90.00000000
_cell_angle_gamma   119.99999717
_symmetry_Int_Tables_number   1
_chemical_formula_structural   NdBPt4
_chemical_formula_sum   'Nd2 B2 Pt8'
_cell_volume   198.08551022
_cell_formula_units_Z   2
loop_
 _symmetry_equiv_pos_site_id
 _symmetry_equiv_pos_as_xyz
  1  'x, y, z'
loop_
 _atom_site_type_symbol
 _atom_site_label
 _atom_site_symmetry_multiplicity
 _atom_site_fract_x
 _atom_site_fract_y
 _atom_site_fract_z
 _atom_site_occupancy
  Nd  Nd0  1  -0.00000000  -0.00000000  0.50000000  1
  Nd  Nd1  1  -0.00000000  -0.00000000  -0.00000000  1
  B  B0  1  0.33333300  0.66666700  -0.00000000  1
  B  B1  1  0.66666700  0.33333300  -0.00000000  1
  Pt  Pt0  1  0.33333300  0.66666700  0.50000000  1
  Pt  Pt1  1  0.66666700  0.33333300  0.50000000  1
  Pt  Pt2  1  0.50000000  -0.00000000  0.20026331  1
  Pt  Pt3  1  0.50000000  -0.00000000  0.79973669  1
  Pt  Pt4  1  -0.00000000  0.50000000  0.20026331  1
  Pt  Pt5  1  -0.00000000  0.50000000  0.79973669  1
  Pt  Pt6  1  0.50000000  0.50000000  0.20026331  1
  Pt  Pt7  1  0.50000000  0.50000000  0.79973669  1
loop_
_geom_bond_atom_site_label_1
_geom_bond_atom_site_label_2
_geom_bond_distance
_geom_bond_site_symmetry_2
Nd0 Pt0 3.149604 1_545
Nd0 Pt1 3.149604 1_455
Nd0 Pt0 3.149608 1_555
Nd0 Pt0 3.149608 1_445
Nd0 Pt1 3.149608 1_555
Nd0 Pt1 3.149608 1_445
Nd1 Pt4 3.131947 1_555
Nd1 Pt5 3.131947 1_554
Nd1 Pt2 3.131947 1_455
Nd1 Pt3 3.131947 1_454
Nd1 Pt4 3.131947 1_545
Nd1 Pt2 3.131947 1_555
Nd1 Pt5 3.131947 1_544
Nd1 Pt3 3.131947 1_554
Nd1 Pt7 3.131947 1_444
Nd1 Pt6 3.131947 1_555
Nd1 Pt6 3.131947 1_445
Nd1 Pt7 3.131947 1_554
B0 Pt2 2.202062 1_565
B0 Pt4 2.202062 1_555
B0 Pt5 2.202062 1_554
B0 Pt3 2.202062 1_564
B0 Pt7 2.202065 1_554
B0 Pt6 2.202065 1_555
B0 Nd1 3.149604 1_565
B0 Nd1 3.149608 1_555
B0 Nd1 3.149608 1_665
B1 Pt2 2.202062 1_555
B1 Pt3 2.202062 1_554
B1 Pt5 2.202062 1_654
B1 Pt4 2.202062 1_655
B1 Pt7 2.202065 1_554
B1 Pt6 2.202065 1_555
B1 Nd1 3.149604 1_655
B1 Nd1 3.149608 1_555
B1 Nd1 3.149608 1_665
