# generated using pymatgen
data_CaSnHg
_symmetry_space_group_name_H-M   'P 1'
_cell_length_a   4.84139939
_cell_length_b   4.84362534
_cell_length_c   7.81095112
_cell_angle_alpha   90.00000000
_cell_angle_beta   90.00000000
_cell_angle_gamma   119.98480584
_symmetry_Int_Tables_number   1
_chemical_formula_structural   CaSnHg
_chemical_formula_sum   'Ca2 Sn2 Hg2'
_cell_volume   158.65087747
_cell_formula_units_Z   2
loop_
 _symmetry_equiv_pos_site_id
 _symmetry_equiv_pos_as_xyz
  1  'x, y, z'
loop_
 _atom_site_type_symbol
 _atom_site_label
 _atom_site_symmetry_multiplicity
 _atom_site_fract_x
 _atom_site_fract_y
 _atom_site_fract_z
 _atom_site_occupancy
  Ca  Ca0  1  0.99976211  0.99952622  0.74984456  1
  Ca  Ca1  1  0.00023789  0.00047378  0.24984456  1
  Sn  Sn0  1  0.66659842  0.33319884  0.96196942  1
  Sn  Sn1  1  0.33340158  0.66680116  0.46196942  1
  Hg  Hg0  1  0.66661985  0.33324171  0.56318602  1
  Hg  Hg1  1  0.33338015  0.66675829  0.06318602  1
loop_
_geom_bond_atom_site_label_1
_geom_bond_atom_site_label_2
_geom_bond_distance
_geom_bond_site_symmetry_2
Ca0 Hg0 3.152677 1_555
Ca0 Hg0 3.153671 1_665
Ca0 Hg0 3.153671 1_565
Ca0 Sn0 3.249612 1_555
Ca0 Sn0 3.250344 1_665
Ca0 Sn0 3.250344 1_565
Ca0 Sn1 3.586694 1_555
Ca0 Sn1 3.586707 1_655
Ca0 Sn1 3.590685 1_665
Ca1 Hg1 3.152677 1_555
Ca1 Hg1 3.153671 1_445
Ca1 Hg1 3.153671 1_545
Ca1 Sn1 3.249612 1_555
Ca1 Sn1 3.250344 1_445
Ca1 Sn1 3.250344 1_545
Ca1 Sn0 3.586694 1_554
Ca1 Sn0 3.586707 1_454
Ca1 Sn0 3.590685 1_444
Hg0 Sn1 2.905576 1_545
Hg0 Sn1 2.905701 1_555
Hg0 Sn1 2.905717 1_655
Hg0 Sn0 3.114878 1_555
Hg1 Sn0 2.905576 1_564
Hg1 Sn0 2.905701 1_554
Hg1 Sn0 2.905717 1_454
Hg1 Sn1 3.114878 1_555
