# generated using pymatgen
data_CaBiAu4
_symmetry_space_group_name_H-M   'P 1'
_cell_length_a   5.65388012
_cell_length_b   5.65388012
_cell_length_c   5.65388012
_cell_angle_alpha   60.00000000
_cell_angle_beta   60.00000000
_cell_angle_gamma   60.00000000
_symmetry_Int_Tables_number   1
_chemical_formula_structural   CaBiAu4
_chemical_formula_sum   'Ca1 Bi1 Au4'
_cell_volume   127.79821525
_cell_formula_units_Z   1
loop_
 _symmetry_equiv_pos_site_id
 _symmetry_equiv_pos_as_xyz
  1  'x, y, z'
loop_
 _atom_site_type_symbol
 _atom_site_label
 _atom_site_symmetry_multiplicity
 _atom_site_fract_x
 _atom_site_fract_y
 _atom_site_fract_z
 _atom_site_occupancy
  Ca  Ca0  1  0.25000000  0.25000000  0.25000000  1
  Bi  Bi0  1  -0.00000000  -0.00000000  0.00000000  1
  Au  Au0  1  0.62461676  0.62461676  0.62461676  1
  Au  Au1  1  0.62461676  0.62461676  0.12615073  1
  Au  Au2  1  0.62461676  0.12615073  0.62461676  1
  Au  Au3  1  0.12615073  0.62461676  0.62461676  1
loop_
_geom_bond_atom_site_label_1
_geom_bond_atom_site_label_2
_geom_bond_distance
_geom_bond_site_symmetry_2
Bi0 Ca0 3.462280 1_554
Bi0 Ca0 3.462280 1_555
Bi0 Ca0 3.462280 1_545
Bi0 Ca0 3.462280 1_455
Au0 Au2 2.818267 1_555
Au0 Au3 2.818267 1_555
Au0 Au1 2.818267 1_555
Au0 Au1 2.835613 1_556
Au0 Au2 2.835613 1_565
Au0 Au3 2.835613 1_655
Au0 Ca0 3.313961 1_655
Au0 Ca0 3.313961 1_556
Au0 Ca0 3.313961 1_565
Au0 Bi0 3.315809 1_656
Au0 Bi0 3.315809 1_566
Au0 Bi0 3.315809 1_665
Au1 Au2 2.818267 1_555
Au1 Au3 2.818267 1_555
Au1 Au3 2.835613 1_654
Au1 Au2 2.835613 1_564
Au1 Ca0 3.313959 1_655
Au1 Ca0 3.313959 1_565
Au1 Ca0 3.313964 1_555
Au1 Bi0 3.315807 1_665
Au1 Bi0 3.315812 1_655
Au1 Bi0 3.315812 1_565
Au2 Au3 2.818267 1_555
Au2 Au3 2.835613 1_645
Au2 Ca0 3.313959 1_655
Au2 Ca0 3.313959 1_556
Au2 Ca0 3.313964 1_555
Au2 Bi0 3.315807 1_656
Au2 Bi0 3.315812 1_556
Au2 Bi0 3.315812 1_655
Au3 Ca0 3.313959 1_556
Au3 Ca0 3.313959 1_565
Au3 Ca0 3.313964 1_555
Au3 Bi0 3.315807 1_566
Au3 Bi0 3.315812 1_556
Au3 Bi0 3.315812 1_565
