# generated using pymatgen
data_Li4MnCo2O7
_symmetry_space_group_name_H-M   'P 1'
_cell_length_a   9.87671718
_cell_length_b   9.87671718
_cell_length_c   9.78277257
_cell_angle_alpha   65.52946321
_cell_angle_beta   65.52946321
_cell_angle_gamma   17.06862090
_symmetry_Int_Tables_number   1
_chemical_formula_structural   Li4MnCo2O7
_chemical_formula_sum   'Li8 Mn2 Co4 O14'
_cell_volume   254.34876297
_cell_formula_units_Z   2
loop_
 _symmetry_equiv_pos_site_id
 _symmetry_equiv_pos_as_xyz
  1  'x, y, z'
loop_
 _atom_site_type_symbol
 _atom_site_label
 _atom_site_symmetry_multiplicity
 _atom_site_fract_x
 _atom_site_fract_y
 _atom_site_fract_z
 _atom_site_occupancy
  Li  Li0  1  0.36013800  0.36013800  0.07433600  1
  Li  Li1  1  0.06034300  0.06034300  0.23102300  1
  Li  Li2  1  0.79779600  0.79779600  0.35645600  1
  Li  Li3  1  0.49373100  0.49373100  0.50479500  1
  Li  Li4  1  0.22155500  0.22155500  0.63629000  1
  Li  Li5  1  0.92774500  0.92774500  0.77866000  1
  Li  Li6  1  0.64251100  0.64251100  0.92127500  1
  Li  Li7  1  0.42652600  0.42652600  0.28664600  1
  Mn  Mn0  1  0.99592600  0.99592600  0.01087700  1
  Mn  Mn1  1  0.71478000  0.71478000  0.13933000  1
  Co  Co0  1  0.14211000  0.14211000  0.43218100  1
  Co  Co1  1  0.86421300  0.86421300  0.54749500  1
  Co  Co2  1  0.57175300  0.57175300  0.71649300  1
  Co  Co3  1  0.28992200  0.28992200  0.84125500  1
  O  O0  1  0.47027500  0.47027500  0.90264100  1
  O  O1  1  0.18337600  0.18337600  0.04661200  1
  O  O2  1  0.90139300  0.90139300  0.16249500  1
  O  O3  1  0.61621100  0.61621100  0.31700800  1
  O  O4  1  0.32294000  0.32294000  0.46797200  1
  O  O5  1  0.04086500  0.04086500  0.61309500  1
  O  O6  1  0.75135800  0.75135800  0.75571000  1
  O  O7  1  0.24377000  0.24377000  0.23858000  1
  O  O8  1  0.96072300  0.96072300  0.40752400  1
  O  O9  1  0.67273800  0.67273800  0.53098500  1
  O  O10  1  0.38677100  0.38677100  0.68852200  1
  O  O11  1  0.09840500  0.09840500  0.82536200  1
  O  O12  1  0.80986300  0.80986300  0.97230500  1
  O  O13  1  0.53226400  0.53226400  0.09407700  1
loop_
_geom_bond_atom_site_label_1
_geom_bond_atom_site_label_2
_geom_bond_distance
_geom_bond_site_symmetry_2
Li0 O2 2.030733 1_455
Li0 O2 2.030733 1_545
Li0 O0 2.103049 1_554
Li0 O7 2.165498 1_555
Li0 O12 2.220446 1_454
Li0 O12 2.220446 1_544
Li1 O8 1.988360 1_445
Li1 O3 2.194548 1_455
Li1 O3 2.194548 1_545
Li1 O13 2.204459 1_545
Li1 O13 2.204459 1_455
Li1 O1 2.323513 1_555
Li2 O4 2.007145 1_655
Li2 O4 2.007145 1_565
Li2 O2 2.116380 1_555
Li2 O9 2.321428 1_555
Li2 O7 2.368853 1_655
Li2 O7 2.368853 1_565
Li3 O8 1.995902 1_455
Li3 O8 1.995902 1_545
Li3 O10 2.109545 1_555
Li3 O5 2.221669 1_565
Li3 O5 2.221669 1_655
Li3 O3 2.327507 1_555
Li4 O4 1.975314 1_555
Li4 O6 2.102831 1_545
Li4 O6 2.102831 1_455
Li4 O9 2.223057 1_455
Li4 O9 2.223057 1_545
Li4 O11 2.341145 1_555
Li5 O10 2.039079 1_655
Li5 O10 2.039079 1_565
Li5 O5 2.123233 1_665
Li5 O0 2.270201 1_655
Li5 O0 2.270201 1_565
Li5 O12 2.288463 1_555
Li6 O6 2.063841 1_555
Li6 O13 2.108554 1_556
Li6 O11 2.109107 1_565
Li6 O11 2.109107 1_655
Li6 O1 2.260310 1_566
Li6 O1 2.260310 1_656
Li7 O4 2.057734 1_555
Li7 O2 2.089026 1_545
Li7 O2 2.089026 1_455
Li7 O13 2.134405 1_555
Li7 O8 2.157482 1_545
Li7 O8 2.157482 1_455
Mn0 O2 1.820887 1_555
Mn0 O13 1.949030 1_655
Mn0 O13 1.949030 1_565
Mn0 O0 1.991245 1_564
Mn0 O0 1.991245 1_654
Mn0 O11 2.063418 1_664
Mn1 O12 1.891398 1_554
Mn1 O1 1.952830 1_565
Mn1 O1 1.952830 1_655
Mn1 O7 1.967841 1_655
Mn1 O7 1.967841 1_565
Mn1 O3 1.981189 1_555
Co0 O9 1.981174 1_545
Co0 O9 1.981174 1_455
Co0 O5 2.027717 1_555
Co0 O3 2.037478 1_545
Co0 O3 2.037478 1_455
Co0 O7 2.092845 1_555
Co1 O8 1.807403 1_555
Co1 O4 1.982183 1_655
Co1 O4 1.982183 1_565
Co1 O10 2.180646 1_565
Co1 O10 2.180646 1_655
Co1 O6 2.290717 1_555
Co2 O11 2.004554 1_565
Co2 O11 2.004554 1_655
Co2 O5 2.011687 1_655
Co2 O5 2.011687 1_565
Co2 O9 2.045955 1_555
Co2 O0 2.054689 1_555
Co3 O10 1.855733 1_555
Co3 O6 1.986036 1_455
Co3 O6 1.986036 1_545
Co3 O12 2.088553 1_455
Co3 O12 2.088553 1_545
Co3 O1 2.205697 1_556
