# generated using pymatgen
data_Ho4Ge8Rh
_symmetry_space_group_name_H-M   'P 1'
_cell_length_a   4.00395600
_cell_length_b   4.15638300
_cell_length_c   16.30340100
_cell_angle_alpha   90.00000000
_cell_angle_beta   90.00000000
_cell_angle_gamma   90.00000000
_symmetry_Int_Tables_number   1
_chemical_formula_structural   Ho4Ge8Rh
_chemical_formula_sum   'Ho4 Ge8 Rh1'
_cell_volume   271.32078617
_cell_formula_units_Z   1
loop_
 _symmetry_equiv_pos_site_id
 _symmetry_equiv_pos_as_xyz
  1  'x, y, z'
loop_
 _atom_site_type_symbol
 _atom_site_label
 _atom_site_symmetry_multiplicity
 _atom_site_fract_x
 _atom_site_fract_y
 _atom_site_fract_z
 _atom_site_occupancy
  Ho  Ho0  1  0.25000000  0.00000000  0.09828900  1
  Ho  Ho1  1  0.25000000  0.50000000  0.60858000  1
  Ho  Ho2  1  0.75000000  0.50000000  0.39981300  1
  Ho  Ho3  1  0.75000000  0.00000000  0.89491400  1
  Ge  Ge0  1  0.25000000  0.00000000  0.46353500  1
  Ge  Ge1  1  0.25000000  0.50000000  0.94519700  1
  Ge  Ge2  1  0.75000000  0.50000000  0.05016400  1
  Ge  Ge3  1  0.75000000  0.00000000  0.56445600  1
  Ge  Ge4  1  0.25000000  0.50000000  0.22954500  1
  Ge  Ge5  1  0.25000000  0.00000000  0.74952100  1
  Ge  Ge6  1  0.75000000  0.00000000  0.22856300  1
  Ge  Ge7  1  0.75000000  0.50000000  0.75321500  1
  Rh  Rh0  1  0.25000000  0.00000000  0.31420900  1
loop_
_geom_bond_atom_site_label_1
_geom_bond_atom_site_label_2
_geom_bond_distance
_geom_bond_site_symmetry_2
Ho2 Rh0 3.205401 1_565
Ho2 Rh0 3.205401 1_655
Ho2 Rh0 3.205401 1_665
Ho2 Rh0 3.205401 1_555
Ge0 Rh0 2.434522 1_555
Ge0 Ge3 2.591353 1_555
Ge0 Ge3 2.591353 1_455
Ge0 Ho2 3.066933 1_445
Ge0 Ho2 3.066933 1_545
Ge0 Ho2 3.066933 1_455
Ge0 Ho2 3.066933 1_555
Ge0 Ho1 3.148144 1_555
Ge0 Ho1 3.148144 1_545
Ge1 Ge2 2.633729 1_556
Ge1 Ge2 2.633729 1_456
Ge1 Ho3 2.999807 1_455
Ge1 Ho3 2.999807 1_565
Ge1 Ho3 2.999807 1_465
Ge1 Ho3 2.999807 1_555
Ge1 Ho0 3.247845 1_556
Ge1 Ho0 3.247845 1_566
Ge2 Ho0 2.990384 1_655
Ge2 Ho0 2.990384 1_665
Ge2 Ho0 2.990384 1_565
Ge2 Ho0 2.990384 1_555
Ge2 Ho3 3.274960 1_554
Ge2 Ho3 3.274960 1_564
Ge3 Ho1 2.973935 1_645
Ge3 Ho1 2.973935 1_655
Ge3 Ho1 2.973935 1_545
Ge3 Ho1 2.973935 1_555
Ge3 Ho2 3.394706 1_555
Ge3 Ho2 3.394706 1_545
Ge4 Rh0 2.494822 1_555
Ge4 Rh0 2.494822 1_565
Ge4 Ho0 2.982974 1_555
Ge4 Ho0 2.982974 1_565
Ge4 Ho2 3.422543 1_555
Ge4 Ho2 3.422543 1_455
Ge5 Ge7 2.886247 1_445
Ge5 Ge7 2.886247 1_555
Ge5 Ge7 2.886247 1_545
Ge5 Ge7 2.886247 1_455
Ge5 Ho1 3.098200 1_545
Ge5 Ho1 3.098200 1_555
Ge5 Ho3 3.102695 1_455
Ge5 Ho3 3.102695 1_555
Ge6 Rh0 2.440825 1_655
Ge6 Rh0 2.440825 1_555
Ge6 Ho0 2.918717 1_555
Ge6 Ho0 2.918717 1_655
Ge6 Ho2 3.480504 1_545
Ge6 Ho2 3.480504 1_555
Ge7 Ho1 3.093264 1_655
Ge7 Ho1 3.093264 1_555
Ge7 Ho3 3.107377 1_565
Ge7 Ho3 3.107377 1_555
