# generated using pymatgen
data_Ag10Te4BrCl
_symmetry_space_group_name_H-M   'P 1'
_cell_length_a   7.74413500
_cell_length_b   14.12761000
_cell_length_c   20.00579158
_cell_angle_alpha   45.14433893
_cell_angle_beta   90.00000000
_cell_angle_gamma   90.00000000
_symmetry_Int_Tables_number   1
_chemical_formula_structural   Ag10Te4BrCl
_chemical_formula_sum   'Ag40 Te16 Br4 Cl4'
_cell_volume   1551.57821573
_cell_formula_units_Z   4
loop_
 _symmetry_equiv_pos_site_id
 _symmetry_equiv_pos_as_xyz
  1  'x, y, z'
loop_
 _atom_site_type_symbol
 _atom_site_label
 _atom_site_symmetry_multiplicity
 _atom_site_fract_x
 _atom_site_fract_y
 _atom_site_fract_z
 _atom_site_occupancy
  Ag  Ag0  1  0.69633500  0.15135900  0.14641200  1
  Ag  Ag1  1  0.80366500  0.15135900  0.64641200  1
  Ag  Ag2  1  0.30366500  0.84864100  0.85358800  1
  Ag  Ag3  1  0.19633500  0.84864100  0.35358800  1
  Ag  Ag4  1  0.70638800  0.94663400  0.35210600  1
  Ag  Ag5  1  0.79361200  0.94663400  0.85210600  1
  Ag  Ag6  1  0.29361200  0.05336600  0.64789400  1
  Ag  Ag7  1  0.20638800  0.05336600  0.14789400  1
  Ag  Ag8  1  0.99317800  0.25358400  0.35909700  1
  Ag  Ag9  1  0.50682200  0.25358400  0.85909700  1
  Ag  Ag10  1  0.00682200  0.74641600  0.64090300  1
  Ag  Ag11  1  0.49317800  0.74641600  0.14090300  1
  Ag  Ag12  1  0.99229800  0.46573300  0.14364200  1
  Ag  Ag13  1  0.50770200  0.46573300  0.64364200  1
  Ag  Ag14  1  0.00770200  0.53426700  0.85635800  1
  Ag  Ag15  1  0.49229800  0.53426700  0.35635800  1
  Ag  Ag16  1  0.64391500  0.37073000  0.24981100  1
  Ag  Ag17  1  0.85608500  0.37073000  0.74981100  1
  Ag  Ag18  1  0.35608500  0.62927000  0.75018900  1
  Ag  Ag19  1  0.14391500  0.62927000  0.25018900  1
  Ag  Ag20  1  0.62404000  0.52225600  0.89992800  1
  Ag  Ag21  1  0.87596000  0.52225600  0.39992800  1
  Ag  Ag22  1  0.37596000  0.47774400  0.10007200  1
  Ag  Ag23  1  0.12404000  0.47774400  0.60007200  1
  Ag  Ag24  1  0.37422700  0.17589300  0.39910700  1
  Ag  Ag25  1  0.12577300  0.17589300  0.89910700  1
  Ag  Ag26  1  0.62577300  0.82410700  0.60089300  1
  Ag  Ag27  1  0.87422700  0.82410700  0.10089300  1
  Ag  Ag28  1  0.93652200  0.17728200  0.24959600  1
  Ag  Ag29  1  0.56347800  0.17728200  0.74959600  1
  Ag  Ag30  1  0.06347800  0.82271800  0.75040400  1
  Ag  Ag31  1  0.43652200  0.82271800  0.25040400  1
  Ag  Ag32  1  0.87433200  0.00934600  0.57247000  1
  Ag  Ag33  1  0.62566800  0.00934600  0.07247000  1
  Ag  Ag34  1  0.12566800  0.99065400  0.42753000  1
  Ag  Ag35  1  0.37433200  0.99065400  0.92753000  1
  Ag  Ag36  1  0.87097500  0.65274300  0.92702600  1
  Ag  Ag37  1  0.62902500  0.65274300  0.42702600  1
  Ag  Ag38  1  0.12902500  0.34725700  0.07297400  1
  Ag  Ag39  1  0.37097500  0.34725700  0.57297400  1
  Te  Te0  1  0.76430600  0.56186700  0.24965000  1
  Te  Te1  1  0.73569400  0.56186700  0.74965000  1
  Te  Te2  1  0.23569400  0.43813300  0.75035000  1
  Te  Te3  1  0.26430600  0.43813300  0.25035000  1
  Te  Te4  1  0.71719100  0.08025100  0.41151200  1
  Te  Te5  1  0.78280900  0.08025100  0.91151200  1
  Te  Te6  1  0.28280900  0.91974900  0.58848800  1
  Te  Te7  1  0.21719100  0.91974900  0.08848800  1
  Te  Te8  1  0.71376600  0.40293000  0.08833000  1
  Te  Te9  1  0.78623400  0.40293000  0.58833000  1
  Te  Te10  1  0.28623400  0.59707000  0.91167000  1
  Te  Te11  1  0.21376600  0.59707000  0.41167000  1
  Te  Te12  1  0.78770500  0.88570700  0.24998400  1
  Te  Te13  1  0.71229500  0.88570700  0.74998400  1
  Te  Te14  1  0.21229500  0.11429300  0.75001600  1
  Te  Te15  1  0.28770500  0.11429300  0.25001600  1
  Br  Br0  1  0.47512800  0.75415500  0.49918600  1
  Br  Br1  1  0.02487200  0.75415500  0.99918600  1
  Br  Br2  1  0.52487200  0.24584500  0.50081400  1
  Br  Br3  1  0.97512800  0.24584500  0.00081400  1
  Cl  Cl0  1  0.98212600  0.75227600  0.49810800  1
  Cl  Cl1  1  0.51787400  0.75227600  0.99810800  1
  Cl  Cl2  1  0.01787400  0.24772400  0.50189200  1
  Cl  Cl3  1  0.48212600  0.24772400  0.00189200  1
loop_
_geom_bond_atom_site_label_1
_geom_bond_atom_site_label_2
_geom_bond_distance
_geom_bond_site_symmetry_2
Ag0 Cl3 2.722497 1_555
Ag0 Te12 2.812375 1_545
Ag0 Te8 2.859084 1_555
Ag0 Ag28 2.986899 1_555
Ag0 Br3 3.072905 1_555
Ag1 Cl2 2.722497 1_655
Ag1 Te13 2.812375 1_545
Ag1 Te9 2.859084 1_555
Ag1 Ag29 2.986899 1_555
Ag1 Br2 3.072905 1_555
Ag2 Cl1 2.722497 1_555
Ag2 Te14 2.812375 1_565
Ag2 Te10 2.859084 1_555
Ag2 Ag30 2.986899 1_555
Ag2 Br1 3.072905 1_555
Ag3 Cl0 2.722497 1_455
Ag3 Te15 2.812375 1_565
Ag3 Te11 2.859084 1_555
Ag3 Ag31 2.986899 1_555
Ag3 Br0 3.072905 1_555
Ag4 Te12 2.791437 1_555
Ag4 Br0 2.823609 1_555
Ag4 Te4 2.854388 1_565
Ag4 Cl0 3.052395 1_555
Ag5 Te13 2.791437 1_555
Ag5 Br1 2.823609 1_655
Ag5 Te5 2.854388 1_565
Ag5 Cl1 3.052395 1_555
Ag6 Te14 2.791437 1_555
Ag6 Br2 2.823609 1_555
Ag6 Te6 2.854388 1_545
Ag6 Cl2 3.052395 1_555
Ag7 Te15 2.791437 1_555
Ag7 Br3 2.823609 1_455
Ag7 Te7 2.854388 1_545
Ag7 Cl3 3.052395 1_555
Ag8 Cl2 2.805476 1_655
Ag8 Te3 2.817414 1_655
Ag8 Te4 2.835808 1_555
Ag9 Cl3 2.805476 1_556
Ag9 Te2 2.817414 1_555
Ag9 Te5 2.835808 1_555
Ag10 Cl0 2.805476 1_455
Ag10 Te1 2.817414 1_455
Ag10 Te6 2.835808 1_555
Ag10 Ag30 3.079715 1_555
Ag10 Ag18 3.119371 1_555
Ag11 Cl1 2.805476 1_554
Ag11 Te0 2.817414 1_555
Ag11 Te7 2.835808 1_555
Ag11 Ag31 3.079715 1_555
Ag11 Ag19 3.119371 1_555
Ag12 Te3 2.823526 1_655
Ag12 Te8 2.837125 1_555
Ag12 Br1 2.899545 1_654
Ag12 Ag28 3.016806 1_555
Ag12 Ag16 3.093567 1_555
Ag13 Te2 2.823526 1_555
Ag13 Te9 2.837125 1_555
Ag13 Br0 2.899545 1_555
Ag13 Ag29 3.016806 1_555
Ag13 Ag17 3.093567 1_555
Ag14 Te1 2.823526 1_455
Ag14 Te10 2.837125 1_555
Ag14 Br3 2.899545 1_456
Ag14 Ag30 3.016806 1_555
Ag14 Ag18 3.093567 1_555
Ag15 Te0 2.823526 1_555
Ag15 Te11 2.837125 1_555
Ag15 Br2 2.899545 1_555
Ag15 Ag31 3.016806 1_555
Ag15 Ag19 3.093567 1_555
Ag16 Te0 2.854582 1_555
Ag16 Te8 2.977069 1_555
Ag16 Te4 2.983427 1_555
Ag16 Ag22 3.029319 1_555
Ag16 Ag24 3.043350 1_555
Ag16 Te3 3.092484 1_555
Ag16 Ag8 3.119371 1_555
Ag17 Te1 2.854582 1_555
Ag17 Te9 2.977069 1_555
Ag17 Te5 2.983427 1_555
Ag17 Ag23 3.029319 1_655
Ag17 Ag25 3.043350 1_655
Ag17 Te2 3.092484 1_655
Ag17 Ag9 3.119371 1_555
Ag18 Te2 2.854582 1_555
Ag18 Te10 2.977069 1_555
Ag18 Te6 2.983427 1_555
Ag18 Ag20 3.029319 1_555
Ag18 Ag26 3.043350 1_555
Ag18 Te1 3.092484 1_555
Ag19 Te3 2.854582 1_555
Ag19 Te11 2.977069 1_555
Ag19 Te7 2.983427 1_555
Ag19 Ag21 3.029319 1_455
Ag19 Ag27 3.043350 1_455
Ag19 Te0 3.092484 1_455
Ag20 Te1 2.779590 1_555
Ag20 Te10 2.892419 1_555
Ag20 Te8 2.927090 1_556
Ag20 Cl3 3.041549 1_556
Ag21 Te0 2.779590 1_555
Ag21 Te11 2.892419 1_655
Ag21 Te9 2.927090 1_555
Ag21 Cl2 3.041549 1_655
Ag22 Te3 2.779590 1_555
Ag22 Te8 2.892419 1_555
Ag22 Te10 2.927090 1_554
Ag22 Cl1 3.041549 1_554
Ag23 Te2 2.779590 1_555
Ag23 Te9 2.892419 1_455
Ag23 Te11 2.927090 1_555
Ag23 Cl0 3.041549 1_455
Ag24 Te3 2.784556 1_555
Ag24 Te4 2.910052 1_555
Ag24 Te6 2.934328 1_545
Ag24 Br2 3.051939 1_555
Ag25 Te2 2.784556 1_555
Ag25 Te5 2.910052 1_455
Ag25 Te7 2.934328 1_546
Ag25 Br3 3.051939 1_456
Ag26 Te1 2.784556 1_555
Ag26 Te6 2.910052 1_555
Ag26 Te4 2.934328 1_565
Ag26 Br0 3.051939 1_555
Ag27 Te0 2.784556 1_555
Ag27 Te7 2.910052 1_655
Ag27 Te5 2.934328 1_564
Ag27 Br1 3.051939 1_654
Ag28 Te15 2.859666 1_655
Ag28 Ag38 2.916297 1_655
Ag28 Ag34 2.920461 1_645
Ag28 Ag4 2.927991 1_545
Ag28 Te4 2.998842 1_555
Ag28 Te8 3.006444 1_555
Ag28 Ag8 3.079715 1_555
Ag29 Te14 2.859666 1_555
Ag29 Ag39 2.916297 1_555
Ag29 Ag35 2.920461 1_545
Ag29 Ag5 2.927991 1_545
Ag29 Te5 2.998842 1_555
Ag29 Te9 3.006444 1_555
Ag29 Ag9 3.079715 1_555
Ag30 Te13 2.859666 1_455
Ag30 Ag36 2.916297 1_455
Ag30 Ag32 2.920461 1_465
Ag30 Ag6 2.927991 1_565
Ag30 Te6 2.998842 1_555
Ag30 Te10 3.006444 1_555
Ag31 Te12 2.859666 1_555
Ag31 Ag37 2.916297 1_555
Ag31 Ag33 2.920461 1_565
Ag31 Ag7 2.927991 1_565
Ag31 Te7 2.998842 1_555
Ag31 Te11 3.006444 1_555
Ag32 Cl2 2.804111 1_655
Ag32 Te4 2.881512 1_555
Ag32 Te13 2.913244 1_545
Ag32 Te6 3.337543 1_645
Ag33 Cl3 2.804111 1_555
Ag33 Te5 2.881512 1_554
Ag33 Te12 2.913244 1_545
Ag33 Te7 3.337543 1_545
Ag34 Cl0 2.804111 1_455
Ag34 Te6 2.881512 1_555
Ag34 Te15 2.913244 1_565
Ag34 Te4 3.337543 1_465
Ag35 Cl1 2.804111 1_555
Ag35 Te7 2.881512 1_556
Ag35 Te14 2.913244 1_565
Ag35 Te5 3.337543 1_565
Ag36 Te8 2.878483 1_556
Ag36 Te13 2.905685 1_555
Ag36 Br1 2.911132 1_655
Ag36 Te10 3.375702 1_655
Ag37 Te9 2.878483 1_555
Ag37 Te12 2.905685 1_555
Ag37 Br0 2.911132 1_555
Ag37 Te11 3.375702 1_555
Ag38 Te10 2.878483 1_554
Ag38 Te15 2.905685 1_555
Ag38 Br3 2.911132 1_455
Ag38 Te8 3.375702 1_455
Ag39 Te11 2.878483 1_555
Ag39 Te14 2.905685 1_555
Ag39 Br2 2.911132 1_555
Ag39 Te9 3.375702 1_555
