# generated using pymatgen
data_Ni(CN)2
_symmetry_space_group_name_H-M   'P 1'
_cell_length_a   13.76456666
_cell_length_b   2.98481408
_cell_length_c   6.23042699
_cell_angle_alpha   90.00000000
_cell_angle_beta   90.00000000
_cell_angle_gamma   90.00000000
_symmetry_Int_Tables_number   1
_chemical_formula_structural   Ni(CN)2
_chemical_formula_sum   'Ni4 C8 N8'
_cell_volume   255.97505162
_cell_formula_units_Z   4
loop_
 _symmetry_equiv_pos_site_id
 _symmetry_equiv_pos_as_xyz
  1  'x, y, z'
loop_
 _atom_site_type_symbol
 _atom_site_label
 _atom_site_symmetry_multiplicity
 _atom_site_fract_x
 _atom_site_fract_y
 _atom_site_fract_z
 _atom_site_occupancy
  Ni  Ni0  1  0.63553991  0.25000000  0.47171673  1
  Ni  Ni1  1  0.13553991  0.25000000  0.02828327  1
  Ni  Ni2  1  0.36446009  0.75000000  0.52828327  1
  Ni  Ni3  1  0.86446009  0.75000000  0.97171673  1
  C  C0  1  0.79057071  0.25000000  0.12915658  1
  C  C1  1  0.29057071  0.25000000  0.37084342  1
  C  C2  1  0.20942929  0.75000000  0.87084342  1
  C  C3  1  0.70942929  0.75000000  0.62915658  1
  C  C4  1  0.95089889  0.25000000  0.82716919  1
  C  C5  1  0.45089889  0.25000000  0.67283081  1
  C  C6  1  0.04910111  0.75000000  0.17283081  1
  C  C7  1  0.54910111  0.75000000  0.32716919  1
  N  N0  1  0.53595102  0.25000000  0.68826950  1
  N  N1  1  0.03595102  0.25000000  0.81173050  1
  N  N2  1  0.46404898  0.75000000  0.31173050  1
  N  N3  1  0.96404898  0.75000000  0.18826950  1
  N  N4  1  0.72905243  0.25000000  0.25855360  1
  N  N5  1  0.22905243  0.25000000  0.24144640  1
  N  N6  1  0.27094757  0.75000000  0.74144640  1
  N  N7  1  0.77094757  0.75000000  0.75855360  1
loop_
_geom_bond_atom_site_label_1
_geom_bond_atom_site_label_2
_geom_bond_distance
_geom_bond_site_symmetry_2
C0 N4 1.169179 1_555
C0 Ni3 2.055208 1_554
C0 Ni3 2.055208 1_544
C1 N5 1.169179 1_555
C1 Ni2 2.055208 1_555
C1 Ni2 2.055208 1_545
C2 N6 1.169179 1_555
C2 Ni1 2.055208 1_566
C2 Ni1 2.055208 1_556
C3 N7 1.169179 1_555
C3 Ni0 2.055208 1_555
C3 Ni0 2.055208 1_565
C4 N1 1.174651 1_655
C4 Ni3 2.110439 1_545
C4 Ni3 2.110439 1_555
C5 N0 1.174651 1_555
C5 Ni2 2.110439 1_555
C5 Ni2 2.110439 1_545
C6 N3 1.174651 1_455
C6 Ni1 2.110439 1_565
C6 Ni1 2.110439 1_555
C7 N2 1.174651 1_555
C7 Ni0 2.110439 1_555
C7 Ni0 2.110439 1_565
N0 Ni0 1.923401 1_555
N1 Ni1 1.923401 1_556
N2 Ni2 1.923401 1_555
N3 Ni3 1.923401 1_554
N4 Ni0 1.849492 1_555
N5 Ni1 1.849492 1_555
N6 Ni2 1.849492 1_555
N7 Ni3 1.849492 1_555
