# generated using pymatgen
data_K2V3P4O17
_symmetry_space_group_name_H-M   'P 1'
_cell_length_a   5.09897300
_cell_length_b   9.38315900
_cell_length_c   18.77208661
_cell_angle_alpha   65.43472556
_cell_angle_beta   90.00000000
_cell_angle_gamma   90.00000000
_symmetry_Int_Tables_number   1
_chemical_formula_structural   K2V3P4O17
_chemical_formula_sum   'K4 V6 P8 O34'
_cell_volume   816.84832860
_cell_formula_units_Z   2
loop_
 _symmetry_equiv_pos_site_id
 _symmetry_equiv_pos_as_xyz
  1  'x, y, z'
loop_
 _atom_site_type_symbol
 _atom_site_label
 _atom_site_symmetry_multiplicity
 _atom_site_fract_x
 _atom_site_fract_y
 _atom_site_fract_z
 _atom_site_occupancy
  K  K0  1  0.75212500  0.67748800  0.32910800  1
  K  K1  1  0.23140100  0.32293100  0.17040600  1
  K  K2  1  0.76859900  0.32293100  0.67040600  1
  K  K3  1  0.24787500  0.67748800  0.82910800  1
  V  V0  1  0.72066800  0.86150100  0.65363200  1
  V  V1  1  0.22247900  0.13846200  0.84714900  1
  V  V2  1  0.77752100  0.13846200  0.34714900  1
  V  V3  1  0.27933200  0.86150100  0.15363200  1
  V  V4  1  0.34947000  0.49794900  0.50061300  1
  V  V5  1  0.65053000  0.49794900  0.00061300  1
  P  P0  1  0.22677700  0.69815800  0.60380600  1
  P  P1  1  0.72832600  0.30103500  0.89698000  1
  P  P2  1  0.27167400  0.30103500  0.39698000  1
  P  P3  1  0.77322300  0.69815800  0.10380600  1
  P  P4  1  0.21976300  0.12508300  0.57036000  1
  P  P5  1  0.72249700  0.87497900  0.93007300  1
  P  P6  1  0.27750300  0.87497900  0.43007300  1
  P  P7  1  0.78023700  0.12508300  0.07036000  1
  O  O0  1  0.75166100  0.81953200  0.74681100  1
  O  O1  1  0.25151800  0.18022300  0.75397900  1
  O  O2  1  0.74848200  0.18022300  0.25397900  1
  O  O3  1  0.24833900  0.81953200  0.24681100  1
  O  O4  1  0.70561000  0.84264400  0.02172200  1
  O  O5  1  0.20639100  0.15580100  0.47891700  1
  O  O6  1  0.79360900  0.15580100  0.97891700  1
  O  O7  1  0.29439000  0.84264400  0.52172200  1
  O  O8  1  0.73817700  0.71449900  0.92676600  1
  O  O9  1  0.22461100  0.28626500  0.57317100  1
  O  O10  1  0.77538900  0.28626500  0.07317100  1
  O  O11  1  0.26182300  0.71449900  0.42676600  1
  O  O12  1  0.42551000  0.70820300  0.66247200  1
  O  O13  1  0.92858200  0.29268800  0.83842100  1
  O  O14  1  0.07141800  0.29268800  0.33842100  1
  O  O15  1  0.57449000  0.70820300  0.16247200  1
  O  O16  1  0.94409600  0.71632300  0.62673700  1
  O  O17  1  0.44600300  0.28301600  0.87370800  1
  O  O18  1  0.55399700  0.28301600  0.37370800  1
  O  O19  1  0.05590400  0.71632300  0.12673700  1
  O  O20  1  0.96909900  0.96790500  0.89608300  1
  O  O21  1  0.46826700  0.03327000  0.60396600  1
  O  O22  1  0.53173300  0.03327000  0.10396600  1
  O  O23  1  0.03090100  0.96790500  0.39608300  1
  O  O24  1  0.74932400  0.54641400  0.09193400  1
  O  O25  1  0.24538000  0.45217500  0.40928700  1
  O  O26  1  0.75462000  0.45217500  0.90928700  1
  O  O27  1  0.25067600  0.54641400  0.59193400  1
  O  O28  1  0.97022700  0.03838400  0.60638200  1
  O  O29  1  0.47113700  0.96026200  0.89438400  1
  O  O30  1  0.52886300  0.96026200  0.39438400  1
  O  O31  1  0.02977300  0.03838400  0.10638200  1
  O  O32  1  0.32857300  0.49381000  0.99933500  1
  O  O33  1  0.67142700  0.49381000  0.49933500  1
loop_
_geom_bond_atom_site_label_1
_geom_bond_atom_site_label_2
_geom_bond_distance
_geom_bond_site_symmetry_2
K0 O33 2.961728 1_555
K0 O3 2.975380 1_655
K0 O3 3.008281 1_555
K0 O15 3.152604 1_555
K0 O11 3.203267 1_555
K0 O25 3.227223 1_655
K0 O11 3.281037 1_655
K0 O25 3.281113 1_555
K1 O2 2.927626 1_455
K1 O32 2.974550 1_554
K1 O10 3.062477 1_455
K1 O2 3.075579 1_555
K1 O14 3.154277 1_555
K1 O24 3.168775 1_455
K1 O24 3.312569 1_555
K2 O1 2.927626 1_655
K2 O33 2.974550 1_555
K2 O9 3.062477 1_655
K2 O1 3.075579 1_555
K2 O13 3.154277 1_555
K2 O27 3.168775 1_655
K2 O27 3.312569 1_555
K3 O32 2.961728 1_555
K3 O0 2.975380 1_455
K3 O0 3.008281 1_555
K3 O12 3.152604 1_555
K3 O8 3.203267 1_555
K3 O26 3.227223 1_455
K3 O8 3.281037 1_455
K3 O26 3.281113 1_555
O0 V0 1.633065 1_555
O1 V1 1.632366 1_555
O2 V2 1.632366 1_555
O3 V3 1.633065 1_555
O4 P3 1.610671 1_555
O4 P5 1.620302 1_554
O5 P2 1.609637 1_555
O5 P4 1.619561 1_555
O6 P1 1.609637 1_555
O6 P7 1.619561 1_556
O7 P0 1.610671 1_555
O7 P6 1.620302 1_555
O8 P5 1.534742 1_555
O8 V5 1.976898 1_556
O9 P4 1.535283 1_555
O9 V4 1.989057 1_555
O10 P7 1.535283 1_555
O10 V5 1.989057 1_555
O11 P6 1.534742 1_555
O11 V4 1.976898 1_555
O12 P0 1.528025 1_555
O12 V0 2.040381 1_555
O13 P1 1.526031 1_555
O13 V1 2.041960 1_655
O14 P2 1.526031 1_555
O14 V2 2.041960 1_455
O15 P3 1.528025 1_555
O15 V3 2.040381 1_555
O16 P0 1.533929 1_655
O16 V0 1.995070 1_555
O17 P1 1.534006 1_555
O17 V1 1.987360 1_555
O18 P2 1.534006 1_555
O18 V2 1.987360 1_555
O19 P3 1.533929 1_455
O19 V3 1.995070 1_555
O20 P5 1.511925 1_555
O20 V1 1.962618 1_665
O21 P4 1.514547 1_555
O21 V0 1.968212 1_545
O22 P7 1.514547 1_555
O22 V3 1.968212 1_545
O23 P6 1.511925 1_555
O23 V2 1.962618 1_465
O24 P3 1.534819 1_555
O24 V5 2.011847 1_555
O25 P2 1.534593 1_555
O25 V4 2.004371 1_555
O26 P1 1.534593 1_555
O26 V5 2.004371 1_556
O27 P0 1.534819 1_555
O27 V4 2.011847 1_555
O28 P4 1.510170 1_655
O28 V0 1.984094 1_545
O29 P5 1.511999 1_555
O29 V1 1.989198 1_565
O30 P6 1.511999 1_555
O30 V2 1.989198 1_565
O31 P7 1.510170 1_455
O31 V3 1.984094 1_545
O32 V5 1.642520 1_556
O33 V4 1.642520 1_555
