# generated using pymatgen
data_LaGeRu
_symmetry_space_group_name_H-M   'P 1'
_cell_length_a   4.34232008
_cell_length_b   4.34232008
_cell_length_c   7.04831798
_cell_angle_alpha   90.00000000
_cell_angle_beta   90.00000000
_cell_angle_gamma   90.00000000
_symmetry_Int_Tables_number   1
_chemical_formula_structural   LaGeRu
_chemical_formula_sum   'La2 Ge2 Ru2'
_cell_volume   132.90127719
_cell_formula_units_Z   2
loop_
 _symmetry_equiv_pos_site_id
 _symmetry_equiv_pos_as_xyz
  1  'x, y, z'
loop_
 _atom_site_type_symbol
 _atom_site_label
 _atom_site_symmetry_multiplicity
 _atom_site_fract_x
 _atom_site_fract_y
 _atom_site_fract_z
 _atom_site_occupancy
  La  La0  1  0.75000000  0.75000000  0.30862188  1
  La  La1  1  0.25000000  0.25000000  0.69137812  1
  Ge  Ge0  1  0.75000000  0.75000000  0.81866759  1
  Ge  Ge1  1  0.25000000  0.25000000  0.18133241  1
  Ru  Ru0  1  0.75000000  0.25000000  0.00000000  1
  Ru  Ru1  1  0.25000000  0.75000000  0.00000000  1
loop_
_geom_bond_atom_site_label_1
_geom_bond_atom_site_label_2
_geom_bond_distance
_geom_bond_site_symmetry_2
La0 Ru0 3.073388 1_565
La0 Ru1 3.073388 1_655
La0 Ru1 3.073388 1_555
La0 Ru0 3.073388 1_555
La1 Ru1 3.073388 1_556
La1 Ru0 3.073388 1_456
La1 Ru1 3.073388 1_546
La1 Ru0 3.073388 1_556
Ge0 Ru0 2.519414 1_556
Ge0 Ru1 2.519414 1_656
Ge0 Ru1 2.519414 1_556
Ge0 Ru0 2.519414 1_566
Ge0 La1 3.198874 1_555
Ge0 La1 3.198874 1_565
Ge0 La1 3.198874 1_655
Ge0 La1 3.198874 1_665
Ge0 La0 3.594964 1_555
Ge1 Ru1 2.519414 1_555
Ge1 Ru0 2.519414 1_455
Ge1 Ru0 2.519414 1_555
Ge1 Ru1 2.519414 1_545
Ge1 La0 3.198874 1_445
Ge1 La0 3.198874 1_455
Ge1 La0 3.198874 1_545
Ge1 La0 3.198874 1_555
Ge1 La1 3.594964 1_555
