# generated using pymatgen
data_Li3V(H4O3)4
_symmetry_space_group_name_H-M   'P 1'
_cell_length_a   6.54378800
_cell_length_b   7.35232800
_cell_length_c   13.05830458
_cell_angle_alpha   68.13429999
_cell_angle_beta   90.00000000
_cell_angle_gamma   90.00000000
_symmetry_Int_Tables_number   1
_chemical_formula_structural   Li3V(H4O3)4
_chemical_formula_sum   'Li6 V2 H32 O24'
_cell_volume   583.06456865
_cell_formula_units_Z   2
loop_
 _symmetry_equiv_pos_site_id
 _symmetry_equiv_pos_as_xyz
  1  'x, y, z'
loop_
 _atom_site_type_symbol
 _atom_site_label
 _atom_site_symmetry_multiplicity
 _atom_site_fract_x
 _atom_site_fract_y
 _atom_site_fract_z
 _atom_site_occupancy
  Li  Li0  1  0.14373800  0.74966600  0.44400400  1
  Li  Li1  1  0.85626200  0.74966600  0.94400400  1
  Li  Li2  1  0.65155200  0.61378500  0.14347000  1
  Li  Li3  1  0.34844800  0.61378500  0.64347000  1
  Li  Li4  1  0.54654800  0.26491400  0.38825800  1
  Li  Li5  1  0.45345200  0.26491400  0.88825800  1
  V  V0  1  0.04606300  0.08413000  0.20617800  1
  V  V1  1  0.95393700  0.08413000  0.70617800  1
  H  H0  1  0.09938400  0.67334800  0.28812600  1
  H  H1  1  0.90061600  0.67334800  0.78812600  1
  H  H2  1  0.14010800  0.45682900  0.38191200  1
  H  H3  1  0.85989200  0.45682900  0.88191200  1
  H  H4  1  0.03707200  0.51518700  0.12179200  1
  H  H5  1  0.96292800  0.51518700  0.62179200  1
  H  H6  1  0.02888100  0.73264600  0.12544100  1
  H  H7  1  0.97111900  0.73264600  0.62544100  1
  H  H8  1  0.52949500  0.83000300  0.46759900  1
  H  H9  1  0.47050500  0.83000300  0.96759900  1
  H  H10  1  0.51736100  0.62043100  0.46054600  1
  H  H11  1  0.48263900  0.62043100  0.96054600  1
  H  H12  1  0.41611200  0.83408300  0.20111900  1
  H  H13  1  0.58388800  0.83408300  0.70111900  1
  H  H14  1  0.64347700  0.91524000  0.19603100  1
  H  H15  1  0.35652300  0.91524000  0.69603100  1
  H  H16  1  0.41027600  0.32674100  0.19845500  1
  H  H17  1  0.58972400  0.32674100  0.69845500  1
  H  H18  1  0.64328500  0.25458000  0.20131100  1
  H  H19  1  0.35671500  0.25458000  0.70131100  1
  H  H20  1  0.20118600  0.51536400  0.90060100  1
  H  H21  1  0.79881400  0.51536400  0.40060100  1
  H  H22  1  0.26805000  0.38600400  0.02218600  1
  H  H23  1  0.73195000  0.38600400  0.52218600  1
  H  H24  1  0.17543000  0.01168900  0.91027000  1
  H  H25  1  0.82457000  0.01168900  0.41027000  1
  H  H26  1  0.25085100  0.98091900  0.03151300  1
  H  H27  1  0.74914900  0.98091900  0.53151300  1
  H  H28  1  0.23542100  0.18666300  0.51782900  1
  H  H29  1  0.76457900  0.18666300  0.01782900  1
  H  H30  1  0.17830700  0.14757600  0.40618600  1
  H  H31  1  0.82169300  0.14757600  0.90618600  1
  O  O0  1  0.20445000  0.12170500  0.65851900  1
  O  O1  1  0.79555000  0.12170500  0.15851900  1
  O  O2  1  0.18052900  0.30428800  0.14809000  1
  O  O3  1  0.81947100  0.30428800  0.64809000  1
  O  O4  1  0.15443600  0.89803800  0.16864800  1
  O  O5  1  0.84556400  0.89803800  0.66864800  1
  O  O6  1  0.04891300  0.01106500  0.35016600  1
  O  O7  1  0.95108700  0.01106500  0.85016600  1
  O  O8  1  0.06164900  0.58218300  0.36343700  1
  O  O9  1  0.93835100  0.58218300  0.86343700  1
  O  O10  1  0.04843300  0.63723200  0.60185300  1
  O  O11  1  0.95156700  0.63723200  0.10185300  1
  O  O12  1  0.43635200  0.71461800  0.48354600  1
  O  O13  1  0.56364800  0.71461800  0.98354600  1
  O  O14  1  0.56192300  0.79351400  0.21057600  1
  O  O15  1  0.43807700  0.79351400  0.71057600  1
  O  O16  1  0.55143800  0.34292400  0.22493800  1
  O  O17  1  0.44856200  0.34292400  0.72493800  1
  O  O18  1  0.32291800  0.44996400  0.94443200  1
  O  O19  1  0.67708200  0.44996400  0.44443200  1
  O  O20  1  0.30134400  0.01417200  0.95436300  1
  O  O21  1  0.69865600  0.01417200  0.45436300  1
  O  O22  1  0.25885600  0.23407200  0.43604300  1
  O  O23  1  0.74114400  0.23407200  0.93604300  1
loop_
_geom_bond_atom_site_label_1
_geom_bond_atom_site_label_2
_geom_bond_distance
_geom_bond_site_symmetry_2
Li0 O6 1.956030 1_565
Li0 O8 1.968934 1_555
Li0 O12 1.974939 1_555
Li0 O10 2.012912 1_555
Li1 O7 1.956030 1_565
Li1 O9 1.968934 1_555
Li1 O13 1.974939 1_555
Li1 O11 2.012912 1_556
Li2 O14 1.928878 1_555
Li2 O16 1.987155 1_555
Li2 O13 2.021989 1_554
Li2 O11 2.027205 1_555
Li3 O15 1.928878 1_555
Li3 O17 1.987155 1_555
Li3 O12 2.021989 1_555
Li3 O10 2.027205 1_555
Li4 O19 1.965245 1_555
Li4 O22 1.969659 1_555
Li4 O21 1.987250 1_555
Li4 O16 1.991782 1_555
Li5 O18 1.965245 1_555
Li5 O23 1.969659 1_555
Li5 O20 1.987250 1_555
Li5 O17 1.991782 1_555
H0 O8 0.993173 1_555
H1 O9 0.993173 1_555
H2 O8 1.002801 1_555
H3 O9 1.002801 1_555
H4 O11 1.005988 1_455
H4 O2 1.734044 1_555
H5 O10 1.005988 1_655
H5 O3 1.734044 1_555
H6 O11 1.001954 1_455
H7 O10 1.001954 1_655
H8 O12 1.001484 1_555
H9 O13 1.001484 1_555
H10 O12 1.002838 1_555
H11 O13 1.002838 1_555
H12 O14 0.993578 1_555
H13 O15 0.993578 1_555
H14 O14 0.997615 1_555
H14 O1 1.726467 1_565
H15 O15 0.997615 1_555
H15 O0 1.726467 1_565
H16 O16 1.008803 1_555
H16 O2 1.673597 1_555
H17 O17 1.008803 1_555
H17 O3 1.673597 1_555
H18 O16 1.013701 1_555
H18 O1 1.632813 1_555
H19 O17 1.013701 1_555
H19 O0 1.632813 1_555
H20 O18 0.994163 1_555
H21 O19 0.994163 1_555
H22 O18 1.012576 1_554
H22 O2 1.629802 1_555
H23 O19 1.012576 1_555
H23 O3 1.629802 1_555
H24 O20 1.009250 1_555
H24 O7 1.665498 1_455
H25 O21 1.009250 1_555
H25 O6 1.665498 1_655
H26 O20 1.000217 1_564
H27 O21 1.000217 1_565
H28 O22 1.004154 1_555
H28 O0 1.729397 1_555
H29 O23 1.004154 1_554
H29 O1 1.729397 1_555
H30 O22 1.009431 1_555
H30 O6 1.675210 1_555
H31 O23 1.009431 1_555
H31 O7 1.675210 1_555
O0 V1 1.738645 1_455
O1 V0 1.738645 1_655
O2 V0 1.747905 1_555
O3 V1 1.747905 1_555
O4 V0 1.764809 1_565
O5 V1 1.764809 1_565
O6 V0 1.752675 1_555
O7 V1 1.752675 1_555
