# generated using pymatgen
data_Mg6CoC
_symmetry_space_group_name_H-M   'P 1'
_cell_length_a   6.46210048
_cell_length_b   6.46210048
_cell_length_c   3.57745700
_cell_angle_alpha   90.00000000
_cell_angle_beta   90.00000000
_cell_angle_gamma   107.33165779
_symmetry_Int_Tables_number   1
_chemical_formula_structural   Mg6CoC
_chemical_formula_sum   'Mg6 Co1 C1'
_cell_volume   142.60724898
_cell_formula_units_Z   1
loop_
 _symmetry_equiv_pos_site_id
 _symmetry_equiv_pos_as_xyz
  1  'x, y, z'
loop_
 _atom_site_type_symbol
 _atom_site_label
 _atom_site_symmetry_multiplicity
 _atom_site_fract_x
 _atom_site_fract_y
 _atom_site_fract_z
 _atom_site_occupancy
  Mg  Mg0  1  0.78530900  0.56814100  0.00000000  1
  Mg  Mg1  1  0.43185900  0.21469100  0.00000000  1
  Mg  Mg2  1  0.34976600  0.65023400  0.00000000  1
  Mg  Mg3  1  0.65921900  0.97712100  0.50000000  1
  Mg  Mg4  1  0.02287900  0.34078100  0.50000000  1
  Mg  Mg5  1  0.12575500  0.87424500  0.50000000  1
  Co  Co0  1  0.96427000  0.03573000  0.00000000  1
  C  C0  1  0.66094200  0.33905800  0.50000000  1
loop_
_geom_bond_atom_site_label_1
_geom_bond_atom_site_label_2
_geom_bond_distance
_geom_bond_site_symmetry_2
Mg0 Mg2 3.015385 1_555
Mg1 Mg2 3.015385 1_555
Mg2 Mg5 2.939224 1_555
Mg2 Mg5 2.939224 1_554
Mg2 Mg4 3.023868 1_554
Mg2 Mg3 3.023868 1_555
Mg2 Mg4 3.023868 1_555
Mg2 Mg3 3.023868 1_554
Co0 Mg5 2.454848 1_644
Co0 Mg5 2.454848 1_645
Co0 Mg4 2.604625 1_655
Co0 Mg3 2.604625 1_545
Co0 Mg3 2.604625 1_544
Co0 Mg4 2.604625 1_654
Co0 Mg0 2.895781 1_545
Co0 Mg1 2.895781 1_655
C0 Mg0 2.308258 1_556
C0 Mg0 2.308258 1_555
C0 Mg1 2.308258 1_555
C0 Mg1 2.308258 1_556
C0 Mg3 2.335581 1_545
C0 Mg4 2.335581 1_655
