# generated using pymatgen
data_Mg16Al13
_symmetry_space_group_name_H-M   'P 1'
_cell_length_a   9.10730361
_cell_length_b   9.10730361
_cell_length_c   9.10730324
_cell_angle_alpha   109.72270585
_cell_angle_beta   109.72270585
_cell_angle_gamma   109.72270812
_symmetry_Int_Tables_number   1
_chemical_formula_structural   Mg16Al13
_chemical_formula_sum   'Mg16 Al13'
_cell_volume   576.01914634
_cell_formula_units_Z   1
loop_
 _symmetry_equiv_pos_site_id
 _symmetry_equiv_pos_as_xyz
  1  'x, y, z'
loop_
 _atom_site_type_symbol
 _atom_site_label
 _atom_site_symmetry_multiplicity
 _atom_site_fract_x
 _atom_site_fract_y
 _atom_site_fract_z
 _atom_site_occupancy
  Mg  Mg0  1  0.99721100  0.99721100  0.99721100  1
  Mg  Mg1  1  0.34778200  0.00108000  0.00108000  1
  Mg  Mg2  1  0.31614400  0.60156700  0.99987400  1
  Mg  Mg3  1  0.00108000  0.34778200  0.00108000  1
  Mg  Mg4  1  0.60156700  0.31614400  0.99987400  1
  Mg  Mg5  1  0.40044600  0.40044600  0.71242800  1
  Mg  Mg6  1  0.28567700  0.68351800  0.68351800  1
  Mg  Mg7  1  0.68351800  0.28567700  0.68351800  1
  Mg  Mg8  1  0.31614400  0.99987400  0.60156700  1
  Mg  Mg9  1  0.99987400  0.31614400  0.60156700  1
  Mg  Mg10  1  0.40044600  0.71242800  0.40044600  1
  Mg  Mg11  1  0.71242800  0.40044600  0.40044600  1
  Mg  Mg12  1  0.00108000  0.00108000  0.34778200  1
  Mg  Mg13  1  0.60156700  0.99987400  0.31614400  1
  Mg  Mg14  1  0.99987400  0.60156700  0.31614400  1
  Mg  Mg15  1  0.68351800  0.68351800  0.28567700  1
  Al  Al0  1  0.63182100  0.81288400  0.99745600  1
  Al  Al1  1  0.81288400  0.63182100  0.99745600  1
  Al  Al2  1  0.18649500  0.18649500  0.81774100  1
  Al  Al3  1  0.63182100  0.99745600  0.81288400  1
  Al  Al4  1  0.99745600  0.63182100  0.81288400  1
  Al  Al5  1  0.65993900  0.65993900  0.65993900  1
  Al  Al6  1  0.81288400  0.99745600  0.63182100  1
  Al  Al7  1  0.99745600  0.81288400  0.63182100  1
  Al  Al8  1  0.18181500  0.36741700  0.36741700  1
  Al  Al9  1  0.36741700  0.18181500  0.36741700  1
  Al  Al10  1  0.18649500  0.81774100  0.18649500  1
  Al  Al11  1  0.81774100  0.18649500  0.18649500  1
  Al  Al12  1  0.36741700  0.36741700  0.18181500  1
loop_
_geom_bond_atom_site_label_1
_geom_bond_atom_site_label_2
_geom_bond_distance
_geom_bond_site_symmetry_2
Mg0 Mg12 3.169145 1_666
Mg0 Mg3 3.169145 1_666
Mg0 Mg1 3.169145 1_666
Mg1 Mg4 3.022880 1_554
Mg1 Mg13 3.022880 1_545
Mg1 Mg6 3.032355 1_544
Mg2 Mg3 3.022880 1_556
Mg2 Mg9 3.121296 1_455
Mg2 Mg5 3.141180 1_555
Mg2 Mg6 3.160161 1_555
Mg3 Mg7 3.032355 1_454
Mg4 Mg8 3.121296 1_545
Mg4 Mg5 3.141180 1_555
Mg4 Mg7 3.160161 1_555
Mg5 Mg7 3.146290 1_555
Mg5 Mg6 3.146290 1_555
Mg5 Mg8 3.165134 1_545
Mg5 Mg9 3.165134 1_455
Mg6 Mg9 3.106760 1_455
Mg6 Mg8 3.160161 1_555
Mg7 Mg8 3.106760 1_545
Mg7 Mg9 3.160161 1_555
Mg10 Mg13 3.141180 1_555
Mg10 Mg8 3.141180 1_555
Mg10 Mg6 3.146290 1_555
Mg10 Mg15 3.146290 1_555
Mg10 Mg2 3.165134 1_554
Mg10 Mg14 3.165134 1_455
Mg11 Mg14 3.141180 1_555
Mg11 Mg9 3.141180 1_555
Mg11 Mg7 3.146290 1_555
Mg11 Mg15 3.146290 1_555
Mg11 Mg4 3.165134 1_554
Mg11 Mg13 3.165134 1_545
Mg12 Mg8 3.022880 1_545
Mg12 Mg9 3.022880 1_455
Mg12 Mg15 3.032355 1_445
Mg13 Mg7 3.106760 1_565
Mg13 Mg2 3.121296 1_554
Mg13 Mg9 3.121296 1_565
Mg13 Mg15 3.160161 1_555
Mg14 Mg3 3.022880 1_655
Mg14 Mg6 3.106760 1_655
Mg14 Mg4 3.121296 1_554
Mg14 Mg8 3.121296 1_655
Mg14 Mg15 3.160161 1_555
Mg15 Mg4 3.106760 1_554
Mg15 Mg2 3.106760 1_554
Al0 Al1 2.696971 1_555
Al0 Al3 2.749238 1_555
Al0 Al11 2.756591 1_566
Al0 Mg2 2.882129 1_555
Al0 Mg6 2.938854 1_555
Al0 Mg13 2.986694 1_556
Al0 Al5 3.055594 1_555
Al0 Mg12 3.098970 1_666
Al0 Mg5 3.110096 1_555
Al0 Mg15 3.182379 1_556
Al0 Mg0 3.182601 1_555
Al1 Al4 2.749238 1_555
Al1 Al10 2.756591 1_656
Al1 Mg4 2.882129 1_555
Al1 Mg7 2.938854 1_555
Al1 Mg14 2.986694 1_556
Al1 Al5 3.055594 1_555
Al1 Mg12 3.098970 1_666
Al1 Mg5 3.110096 1_555
Al1 Mg15 3.182379 1_556
Al1 Mg0 3.182601 1_555
Al2 Al7 2.756591 1_445
Al2 Al6 2.756591 1_445
Al2 Mg5 2.910930 1_555
Al2 Mg8 2.970507 1_545
Al2 Mg9 2.970507 1_455
Al2 Mg3 3.117507 1_556
Al2 Mg1 3.117507 1_556
Al2 Mg2 3.141474 1_555
Al2 Mg4 3.141474 1_555
Al2 Mg0 3.226874 1_445
Al3 Al6 2.696971 1_555
Al3 Mg8 2.882129 1_555
Al3 Mg6 2.938854 1_555
Al3 Mg4 2.986694 1_565
Al3 Al5 3.055594 1_555
Al3 Mg3 3.098970 1_666
Al3 Mg10 3.110096 1_555
Al3 Mg7 3.182379 1_565
Al3 Mg0 3.182601 1_555
Al4 Al7 2.696971 1_555
Al4 Mg9 2.882129 1_555
Al4 Mg7 2.938854 1_555
Al4 Mg2 2.986694 1_655
Al4 Al5 3.055594 1_555
Al4 Mg1 3.098970 1_666
Al4 Mg11 3.110096 1_555
Al4 Mg6 3.182379 1_655
Al4 Mg0 3.182601 1_555
Al5 Mg5 3.025577 1_555
Al5 Mg11 3.025577 1_555
Al5 Mg10 3.025577 1_555
Al5 Mg0 3.033295 1_555
Al5 Al7 3.055594 1_555
Al5 Al6 3.055594 1_555
Al6 Al7 2.749238 1_555
Al6 Mg13 2.882129 1_555
Al6 Mg15 2.938854 1_555
Al6 Mg9 2.986694 1_565
Al6 Mg3 3.098970 1_666
Al6 Mg10 3.110096 1_555
Al6 Mg7 3.182379 1_565
Al6 Mg0 3.182601 1_555
Al7 Mg14 2.882129 1_555
Al7 Mg15 2.938854 1_555
Al7 Mg8 2.986694 1_655
Al7 Mg1 3.098970 1_666
Al7 Mg11 3.110096 1_555
Al7 Mg6 3.182379 1_655
Al7 Mg0 3.182601 1_555
Al8 Al9 2.764580 1_555
Al8 Mg6 2.863663 1_555
Al8 Mg5 2.943329 1_555
Al8 Mg10 2.943329 1_555
Al8 Mg3 3.092677 1_555
Al8 Mg12 3.092677 1_555
Al8 Mg9 3.169521 1_455
Al8 Mg14 3.169521 1_455
Al8 Mg0 3.199626 1_444
Al9 Mg7 2.863663 1_555
Al9 Mg5 2.943329 1_555
Al9 Mg11 2.943329 1_555
Al9 Mg1 3.092677 1_555
Al9 Mg12 3.092677 1_555
Al9 Mg8 3.169521 1_545
Al9 Mg13 3.169521 1_545
Al9 Mg0 3.199626 1_444
Al10 Al9 2.686393 1_565
Al10 Al4 2.756591 1_454
Al10 Mg10 2.910931 1_555
Al10 Mg14 2.970507 1_455
Al10 Mg2 2.970507 1_554
Al10 Mg1 3.117507 1_565
Al10 Mg12 3.117507 1_565
Al10 Mg8 3.141474 1_555
Al10 Mg13 3.141474 1_555
Al10 Mg0 3.226875 1_454
Al11 Al8 2.686393 1_655
Al11 Al3 2.756591 1_544
Al11 Mg11 2.910931 1_555
Al11 Mg13 2.970507 1_545
Al11 Mg4 2.970507 1_554
Al11 Mg3 3.117507 1_655
Al11 Mg12 3.117507 1_655
Al11 Mg9 3.141474 1_555
Al11 Mg14 3.141474 1_555
Al11 Mg0 3.226875 1_544
Al12 Al2 2.686393 1_554
Al12 Al8 2.764580 1_555
Al12 Al9 2.764580 1_555
Al12 Mg15 2.863663 1_555
Al12 Mg10 2.943329 1_555
Al12 Mg11 2.943329 1_555
Al12 Mg3 3.092677 1_555
Al12 Mg1 3.092677 1_555
Al12 Mg4 3.169521 1_554
Al12 Mg2 3.169521 1_554
Al12 Mg0 3.199626 1_444
