# generated using pymatgen
data_CaRe2C5N10O13
_symmetry_space_group_name_H-M   'P 1'
_cell_length_a   8.75841700
_cell_length_b   10.10223223
_cell_length_c   15.08850013
_cell_angle_alpha   105.45414397
_cell_angle_beta   89.65799284
_cell_angle_gamma   94.14461030
_symmetry_Int_Tables_number   1
_chemical_formula_structural   CaRe2C5N10O13
_chemical_formula_sum   'Ca2 Re4 C10 N20 O26'
_cell_volume   1283.26705684
_cell_formula_units_Z   2
loop_
 _symmetry_equiv_pos_site_id
 _symmetry_equiv_pos_as_xyz
  1  'x, y, z'
loop_
 _atom_site_type_symbol
 _atom_site_label
 _atom_site_symmetry_multiplicity
 _atom_site_fract_x
 _atom_site_fract_y
 _atom_site_fract_z
 _atom_site_occupancy
  Ca  Ca0  1  0.88761100  0.36789100  0.21354700  1
  Ca  Ca1  1  0.11238900  0.63210900  0.78645300  1
  Re  Re0  1  0.48960700  0.43756200  0.15660900  1
  Re  Re1  1  0.51039300  0.56243800  0.84339100  1
  Re  Re2  1  0.67830300  0.86800200  0.38462600  1
  Re  Re3  1  0.32169700  0.13199800  0.61537400  1
  C  C0  1  0.13806300  0.16491700  0.29073300  1
  C  C1  1  0.86193700  0.83508300  0.70926700  1
  C  C2  1  0.99967400  0.29401200  0.98579800  1
  C  C3  1  0.00032600  0.70598800  0.01420200  1
  C  C4  1  0.73320600  0.41287200  0.42398400  1
  C  C5  1  0.26679400  0.58712800  0.57601600  1
  C  C6  1  0.68565300  0.05319300  0.13241800  1
  C  C7  1  0.31434700  0.94680700  0.86758200  1
  C  C8  1  0.09116500  0.66349300  0.31721700  1
  C  C9  1  0.90883500  0.33650700  0.68278300  1
  N  N0  1  0.13848700  0.03453000  0.30251300  1
  N  N1  1  0.86151300  0.96547000  0.69748700  1
  N  N2  1  0.26904400  0.11364000  0.31337500  1
  N  N3  1  0.73095600  0.88636000  0.68662500  1
  N  N4  1  0.93695800  0.32859000  0.91239400  1
  N  N5  1  0.06304200  0.67141000  0.08760600  1
  N  N6  1  0.08686200  0.30902700  0.91214800  1
  N  N7  1  0.91313800  0.69097300  0.08785200  1
  N  N8  1  0.62884300  0.31974700  0.44775500  1
  N  N9  1  0.37115700  0.68025300  0.55224500  1
  N  N10  1  0.67413800  0.43547700  0.51084700  1
  N  N11  1  0.32586200  0.56452300  0.48915300  1
  N  N12  1  0.57717000  0.94596100  0.09791400  1
  N  N13  1  0.42283000  0.05403900  0.90208600  1
  N  N14  1  0.68110800  0.97848700  0.04121500  1
  N  N15  1  0.31889200  0.02151300  0.95878500  1
  N  N16  1  0.18021600  0.78323400  0.35501400  1
  N  N17  1  0.81978400  0.21676600  0.64498600  1
  N  N18  1  0.08310100  0.73357700  0.40848400  1
  N  N19  1  0.91689900  0.26642300  0.59151600  1
  O  O0  1  0.69426100  0.43150800  0.14719400  1
  O  O1  1  0.30573900  0.56849200  0.85280600  1
  O  O2  1  0.40082500  0.30844100  0.06730700  1
  O  O3  1  0.59917500  0.69155900  0.93269300  1
  O  O4  1  0.43300500  0.59640400  0.15071700  1
  O  O5  1  0.56699500  0.40359600  0.84928300  1
  O  O6  1  0.43209700  0.40717000  0.26075700  1
  O  O7  1  0.56790300  0.59283000  0.73924300  1
  O  O8  1  0.53308100  0.95130600  0.34708600  1
  O  O9  1  0.46691900  0.04869400  0.65291400  1
  O  O10  1  0.78449200  0.98569900  0.47317400  1
  O  O11  1  0.21550800  0.01430100  0.52682600  1
  O  O12  1  0.80275300  0.80442100  0.29237000  1
  O  O13  1  0.19724700  0.19557900  0.70763000  1
  O  O14  1  0.59969900  0.72979600  0.42471300  1
  O  O15  1  0.40030100  0.27020400  0.57528700  1
  O  O16  1  0.07205900  0.25539200  0.27178900  1
  O  O17  1  0.92794100  0.74460800  0.72821100  1
  O  O18  1  0.98743100  0.26993100  0.06025500  1
  O  O19  1  0.01256900  0.73006900  0.93974500  1
  O  O20  1  0.81905800  0.44678500  0.36935900  1
  O  O21  1  0.18094200  0.55321500  0.63064100  1
  O  O22  1  0.74249500  0.14608800  0.19389300  1
  O  O23  1  0.25750500  0.85391200  0.80610700  1
  O  O24  1  0.05519100  0.56514600  0.25307400  1
  O  O25  1  0.94480900  0.43485400  0.74692600  1
loop_
_geom_bond_atom_site_label_1
_geom_bond_atom_site_label_2
_geom_bond_distance
_geom_bond_site_symmetry_2
Ca0 O0 2.191703 1_555
Ca0 O24 2.331345 1_655
Ca0 O16 2.342694 1_655
Ca0 O20 2.361465 1_555
Ca0 O22 2.441890 1_555
Ca0 O18 2.444273 1_555
Ca1 O1 2.191703 1_555
Ca1 O25 2.331345 1_455
Ca1 O17 2.342694 1_455
Ca1 O21 2.361465 1_555
Ca1 O23 2.441890 1_555
Ca1 O19 2.444273 1_555
C0 O16 1.211968 1_555
C0 N2 1.373309 1_555
C0 N0 1.375539 1_555
C1 O17 1.211968 1_555
C1 N3 1.373309 1_555
C1 N1 1.375539 1_555
C2 O18 1.213775 1_556
C2 N4 1.375357 1_555
C2 N6 1.379860 1_655
C3 O19 1.213775 1_554
C3 N5 1.375357 1_555
C3 N7 1.379860 1_455
C4 O20 1.211585 1_555
C4 N10 1.373690 1_555
C4 N8 1.378695 1_555
C5 O21 1.211585 1_555
C5 N11 1.373690 1_555
C5 N9 1.378695 1_555
C6 O22 1.209540 1_555
C6 N12 1.379808 1_545
C6 N14 1.381188 1_545
C7 O23 1.209540 1_555
C7 N13 1.379808 1_565
C7 N15 1.381188 1_565
C8 O24 1.212018 1_555
C8 N18 1.374438 1_555
C8 N16 1.377714 1_555
C9 O25 1.212018 1_555
C9 N19 1.374438 1_555
C9 N17 1.377714 1_555
N0 N2 1.331702 1_555
N1 N3 1.331702 1_555
N4 N6 1.341601 1_655
N5 N7 1.341601 1_455
N10 N8 1.332220 1_555
N11 N9 1.332220 1_555
N12 N14 1.328847 1_555
N13 N15 1.328847 1_555
N16 N18 1.331105 1_555
N17 N19 1.331105 1_555
O0 Re0 1.801376 1_555
O1 Re1 1.801376 1_555
O2 Re0 1.746687 1_555
O3 Re1 1.746687 1_555
O4 Re0 1.737854 1_555
O5 Re1 1.737854 1_555
O6 Re0 1.744338 1_555
O7 Re1 1.744338 1_555
O8 Re2 1.750480 1_555
O9 Re3 1.750480 1_555
O10 Re2 1.752754 1_555
O11 Re3 1.752754 1_555
O12 Re2 1.773386 1_555
O13 Re3 1.773386 1_555
O14 Re2 1.759345 1_555
O15 Re3 1.759345 1_555
