# generated using pymatgen
data_Na3RuN2
_symmetry_space_group_name_H-M   'P 1'
_cell_length_a   9.48748200
_cell_length_b   10.95519933
_cell_length_c   10.95519919
_cell_angle_alpha   89.99999956
_cell_angle_beta   125.26438839
_cell_angle_gamma   54.73561214
_symmetry_Int_Tables_number   1
_chemical_formula_structural   Na3RuN2
_chemical_formula_sum   'Na24 Ru8 N16'
_cell_volume   657.40186261
_cell_formula_units_Z   8
loop_
 _symmetry_equiv_pos_site_id
 _symmetry_equiv_pos_as_xyz
  1  'x, y, z'
loop_
 _atom_site_type_symbol
 _atom_site_label
 _atom_site_symmetry_multiplicity
 _atom_site_fract_x
 _atom_site_fract_y
 _atom_site_fract_z
 _atom_site_occupancy
  Na  Na0  1  0.19196300  0.06445800  0.95576100  1
  Na  Na1  1  0.80803700  0.75642100  0.54423900  1
  Na  Na2  1  0.80803700  0.43554200  0.76379800  1
  Na  Na3  1  0.19196300  0.74357900  0.73620200  1
  Na  Na4  1  0.28044300  0.76379800  0.30066100  1
  Na  Na5  1  0.71955700  0.73620200  0.02021800  1
  Na  Na6  1  0.28044300  0.95576100  0.47978200  1
  Na  Na7  1  0.71955700  0.54423900  0.19933900  1
  Na  Na8  1  0.67912100  0.02021800  0.74357900  1
  Na  Na9  1  0.67912100  0.30066100  0.43554200  1
  Na  Na10  1  0.32087900  0.19933900  0.75642100  1
  Na  Na11  1  0.32087900  0.47978200  0.06445800  1
  Na  Na12  1  0.80803700  0.93554200  0.04423900  1
  Na  Na13  1  0.19196300  0.24357900  0.45576100  1
  Na  Na14  1  0.19196300  0.56445800  0.23620200  1
  Na  Na15  1  0.80803700  0.25642100  0.26379800  1
  Na  Na16  1  0.71955700  0.23620200  0.69933900  1
  Na  Na17  1  0.28044300  0.26379800  0.97978200  1
  Na  Na18  1  0.71955700  0.04423900  0.52021800  1
  Na  Na19  1  0.28044300  0.45576100  0.80066100  1
  Na  Na20  1  0.32087900  0.97978200  0.25642100  1
  Na  Na21  1  0.32087900  0.69933900  0.56445800  1
  Na  Na22  1  0.67912100  0.80066100  0.24357900  1
  Na  Na23  1  0.67912100  0.52021800  0.93554200  1
  Ru  Ru0  1  0.20257300  0.00000000  0.70257300  1
  Ru  Ru1  1  0.79742700  0.70257300  0.79742700  1
  Ru  Ru2  1  0.79742700  0.50000000  0.50000000  1
  Ru  Ru3  1  0.20257300  0.79742700  0.00000000  1
  Ru  Ru4  1  0.79742700  0.00000000  0.29742700  1
  Ru  Ru5  1  0.20257300  0.29742700  0.20257300  1
  Ru  Ru6  1  0.20257300  0.50000000  0.50000000  1
  Ru  Ru7  1  0.79742700  0.20257300  0.00000000  1
  N  N0  1  0.00000000  0.00000000  0.50000000  1
  N  N1  1  0.00000000  0.50000000  0.00000000  1
  N  N2  1  0.00000000  0.50000000  0.50000000  1
  N  N3  1  0.00000000  0.00000000  0.00000000  1
  N  N4  1  0.50000000  0.93342600  0.75000000  1
  N  N5  1  0.50000000  0.56657400  0.25000000  1
  N  N6  1  0.00000000  0.25000000  0.68342600  1
  N  N7  1  0.00000000  0.75000000  0.81657400  1
  N  N8  1  0.63314800  0.68342600  0.56657400  1
  N  N9  1  0.36685200  0.81657400  0.93342600  1
  N  N10  1  0.50000000  0.06657400  0.25000000  1
  N  N11  1  0.50000000  0.43342600  0.75000000  1
  N  N12  1  0.00000000  0.75000000  0.31657400  1
  N  N13  1  0.00000000  0.25000000  0.18342600  1
  N  N14  1  0.36685200  0.31657400  0.43342600  1
  N  N15  1  0.63314800  0.18342600  0.06657400  1
loop_
_geom_bond_atom_site_label_1
_geom_bond_atom_site_label_2
_geom_bond_distance
_geom_bond_site_symmetry_2
N0 Ru4 1.921908 1_455
N0 Ru0 1.921908 1_555
N0 Na3 2.560215 1_545
N0 Na15 2.560215 1_455
N0 Na9 2.560222 1_455
N0 Na21 2.560222 1_545
N0 Na18 2.560227 1_455
N0 Na6 2.560227 1_545
N1 Ru5 1.921907 1_555
N1 Ru1 1.921907 1_454
N1 Na14 2.560216 1_555
N1 Na2 2.560216 1_454
N1 Na5 2.560218 1_455
N1 Na17 2.560218 1_554
N1 Na11 2.560222 1_555
N1 Na23 2.560222 1_454
N2 Ru6 1.921908 1_555
N2 Ru2 1.921908 1_455
N2 Na1 2.560216 1_455
N2 Na13 2.560216 1_555
N2 Na22 2.560222 1_455
N2 Na10 2.560222 1_555
N2 Na19 2.560227 1_555
N2 Na7 2.560227 1_455
N3 Ru3 1.921908 1_545
N3 Ru7 1.921908 1_455
N3 Na12 2.560216 1_445
N3 Na0 2.560216 1_554
N3 Na4 2.560218 1_545
N3 Na16 2.560218 1_454
N3 Na20 2.560222 1_545
N3 Na8 2.560222 1_454
N4 Ru1 2.166848 1_555
N4 Ru0 2.166848 1_565
N4 Na6 2.335245 1_555
N4 Na5 2.335253 1_556
N4 Na10 2.408493 1_565
N4 Na8 2.408494 1_565
N5 Ru3 2.166848 1_555
N5 Ru2 2.166848 1_555
N5 Na7 2.335245 1_555
N5 Na4 2.335254 1_555
N5 Na9 2.408493 1_555
N5 Na11 2.408494 1_555
N6 Ru2 2.166848 1_455
N6 Ru0 2.166848 1_555
N6 Na9 2.335249 1_455
N6 Na10 2.335249 1_555
N6 Na0 2.408502 1_555
N6 Na2 2.408502 1_455
N7 Ru3 2.166848 1_556
N7 Ru1 2.166848 1_455
N7 Na11 2.335249 1_556
N7 Na8 2.335249 1_465
N7 Na1 2.408502 1_455
N7 Na3 2.408502 1_555
N8 Ru1 2.166848 1_555
N8 Ru2 2.166848 1_555
N8 Na2 2.335255 1_555
N8 Na1 2.335255 1_555
N8 Na4 2.408489 1_555
N8 Na6 2.408499 1_555
N9 Ru0 2.166847 1_565
N9 Ru3 2.166848 1_556
N9 Na0 2.335255 1_565
N9 Na3 2.335255 1_555
N9 Na5 2.408489 1_556
N9 Na7 2.408498 1_556
N10 Ru5 2.166848 1_555
N10 Ru4 2.166848 1_555
N10 Na18 2.335245 1_555
N10 Na17 2.335253 1_554
N10 Na22 2.408493 1_545
N10 Na20 2.408494 1_545
N11 Ru7 2.166848 1_556
N11 Ru6 2.166848 1_555
N11 Na19 2.335245 1_555
N11 Na16 2.335254 1_555
N11 Na21 2.408493 1_555
N11 Na23 2.408494 1_555
N12 Ru6 2.166848 1_555
N12 Ru4 2.166848 1_465
N12 Na21 2.335249 1_555
N12 Na22 2.335249 1_455
N12 Na12 2.408502 1_455
N12 Na14 2.408502 1_555
N13 Ru7 2.166848 1_455
N13 Ru5 2.166848 1_555
N13 Na23 2.335249 1_454
N13 Na20 2.335249 1_545
N13 Na13 2.408502 1_555
N13 Na15 2.408502 1_455
N14 Ru5 2.166848 1_555
N14 Ru6 2.166848 1_555
N14 Na14 2.335255 1_555
N14 Na13 2.335255 1_555
N14 Na16 2.408489 1_555
N14 Na18 2.408499 1_555
N15 Ru4 2.166847 1_555
N15 Ru7 2.166848 1_555
N15 Na12 2.335255 1_545
N15 Na15 2.335255 1_555
N15 Na17 2.408489 1_554
N15 Na19 2.408498 1_554
