# generated using pymatgen
data_LaB5BrO11
_symmetry_space_group_name_H-M   'P 1'
_cell_length_a   14.94241000
_cell_length_b   6.60550300
_cell_length_c   12.71103612
_cell_angle_alpha   59.61575771
_cell_angle_beta   90.00000000
_cell_angle_gamma   90.00000000
_symmetry_Int_Tables_number   1
_chemical_formula_structural   LaB5BrO11
_chemical_formula_sum   'La4 B20 Br4 O44'
_cell_volume   1082.28972636
_cell_formula_units_Z   4
loop_
 _symmetry_equiv_pos_site_id
 _symmetry_equiv_pos_as_xyz
  1  'x, y, z'
loop_
 _atom_site_type_symbol
 _atom_site_label
 _atom_site_symmetry_multiplicity
 _atom_site_fract_x
 _atom_site_fract_y
 _atom_site_fract_z
 _atom_site_occupancy
  La  La0  1  0.30939900  0.99229700  0.17911000  1
  La  La1  1  0.19060100  0.99229700  0.67911000  1
  La  La2  1  0.69060100  0.00770300  0.82089000  1
  La  La3  1  0.80939900  0.00770300  0.32089000  1
  B  B0  1  0.21345500  0.50808300  0.36815600  1
  B  B1  1  0.28654500  0.50808300  0.86815600  1
  B  B2  1  0.78654500  0.49191700  0.63184400  1
  B  B3  1  0.71345500  0.49191700  0.13184400  1
  B  B4  1  0.25373700  0.40824400  0.21507200  1
  B  B5  1  0.24626300  0.40824400  0.71507200  1
  B  B6  1  0.74626300  0.59175600  0.78492800  1
  B  B7  1  0.75373700  0.59175600  0.28492800  1
  B  B8  1  0.32363600  0.67708500  0.00198400  1
  B  B9  1  0.17636400  0.67708500  0.50198400  1
  B  B10  1  0.67636400  0.32291500  0.99801600  1
  B  B11  1  0.82363600  0.32291500  0.49801600  1
  B  B12  1  0.54060600  0.10922400  0.09325400  1
  B  B13  1  0.95939400  0.10922400  0.59325400  1
  B  B14  1  0.45939400  0.89077600  0.90674600  1
  B  B15  1  0.04060600  0.89077600  0.40674600  1
  B  B16  1  0.32518300  0.10413300  0.90599700  1
  B  B17  1  0.17481700  0.10413300  0.40599700  1
  B  B18  1  0.67481700  0.89586700  0.09400300  1
  B  B19  1  0.82518200  0.89586700  0.59400300  1
  Br  Br0  1  0.07058000  0.17128800  0.04528600  1
  Br  Br1  1  0.42942000  0.17128800  0.54528600  1
  Br  Br2  1  0.92942000  0.82871200  0.95471400  1
  Br  Br3  1  0.57058000  0.82871200  0.45471400  1
  O  O0  1  0.29481800  0.88245800  0.00930300  1
  O  O1  1  0.20518200  0.88245800  0.50930300  1
  O  O2  1  0.70518200  0.11754200  0.99069700  1
  O  O3  1  0.79481800  0.11754200  0.49069700  1
  O  O4  1  0.29594300  0.45317400  0.11117900  1
  O  O5  1  0.20405700  0.45317400  0.61117900  1
  O  O6  1  0.70405700  0.54682600  0.88882100  1
  O  O7  1  0.79594300  0.54682600  0.38882100  1
  O  O8  1  0.45591700  0.10329900  0.14000500  1
  O  O9  1  0.04408300  0.10329900  0.64000500  1
  O  O10  1  0.54408300  0.89670100  0.85999500  1
  O  O11  1  0.95591700  0.89670100  0.35999500  1
  O  O12  1  0.22366900  0.68266800  0.39366800  1
  O  O13  1  0.27633100  0.68266800  0.89366800  1
  O  O14  1  0.77633100  0.31733200  0.60633200  1
  O  O15  1  0.72366900  0.31733200  0.10633200  1
  O  O16  1  0.41870500  0.67850300  0.97980100  1
  O  O17  1  0.08129500  0.67850300  0.47980100  1
  O  O18  1  0.58129500  0.32149700  0.02019900  1
  O  O19  1  0.91870500  0.32149700  0.52019900  1
  O  O20  1  0.23194100  0.17753900  0.29343600  1
  O  O21  1  0.26805900  0.17753900  0.79343600  1
  O  O22  1  0.76805900  0.82246100  0.70656400  1
  O  O23  1  0.73194100  0.82246100  0.20656400  1
  O  O24  1  0.58227700  0.89933000  0.12521500  1
  O  O25  1  0.91772300  0.89933000  0.62521500  1
  O  O26  1  0.41772300  0.10067000  0.87478500  1
  O  O27  1  0.08227700  0.10067000  0.37478500  1
  O  O28  1  0.23694000  0.57833000  0.24661200  1
  O  O29  1  0.26306000  0.57833000  0.74661200  1
  O  O30  1  0.76306000  0.42167000  0.75338800  1
  O  O31  1  0.73694000  0.42167000  0.25338800  1
  O  O32  1  0.42489400  0.73089800  0.29375700  1
  O  O33  1  0.07510600  0.73089800  0.79375700  1
  O  O34  1  0.57510600  0.26910200  0.70624300  1
  O  O35  1  0.92489400  0.26910200  0.20624300  1
  O  O36  1  0.30936400  0.28006900  0.94668100  1
  O  O37  1  0.19063600  0.28006900  0.44668100  1
  O  O38  1  0.69063600  0.71993100  0.05331900  1
  O  O39  1  0.80936400  0.71993100  0.55331900  1
  O  O40  1  0.46891300  0.92560300  0.37573200  1
  O  O41  1  0.03108700  0.92560300  0.87573200  1
  O  O42  1  0.53108700  0.07439700  0.62426800  1
  O  O43  1  0.96891300  0.07439700  0.12426800  1
loop_
_geom_bond_atom_site_label_1
_geom_bond_atom_site_label_2
_geom_bond_distance
_geom_bond_site_symmetry_2
La0 O8 2.282363 1_565
La0 O32 2.353283 1_555
La0 O36 2.580855 1_564
La0 O20 2.597577 1_565
La0 O0 2.610910 1_555
La0 O28 2.648078 1_555
La0 O4 2.719330 1_565
La0 O12 2.760323 1_555
La1 O9 2.282363 1_565
La1 O33 2.353283 1_555
La1 O37 2.580855 1_565
La1 O21 2.597577 1_565
La1 O1 2.610910 1_555
La1 O29 2.648078 1_555
La1 O5 2.719330 1_565
La1 O13 2.760323 1_555
La2 O10 2.282363 1_545
La2 O34 2.353283 1_555
La2 O38 2.580855 1_546
La2 O22 2.597577 1_545
La2 O2 2.610910 1_555
La2 O30 2.648078 1_555
La2 O6 2.719330 1_545
La2 O14 2.760323 1_555
La3 O11 2.282363 1_545
La3 O35 2.353283 1_555
La3 O39 2.580855 1_545
La3 O23 2.597577 1_545
La3 O3 2.610910 1_555
La3 O31 2.648078 1_555
La3 O7 2.719330 1_545
La3 O15 2.760323 1_555
B0 O12 1.355242 1_555
B0 O37 1.363909 1_555
B0 O28 1.414261 1_555
B1 O13 1.355242 1_555
B1 O36 1.363909 1_555
B1 O29 1.414261 1_555
B2 O14 1.355242 1_555
B2 O39 1.363909 1_555
B2 O30 1.414261 1_555
B3 O15 1.355242 1_555
B3 O38 1.363909 1_555
B3 O31 1.414261 1_555
B4 O4 1.353990 1_555
B4 O20 1.372969 1_555
B4 O28 1.393421 1_555
B5 O5 1.353990 1_555
B5 O21 1.372969 1_555
B5 O29 1.393421 1_555
B6 O6 1.353990 1_555
B6 O22 1.372969 1_555
B6 O30 1.393421 1_555
B7 O7 1.353990 1_555
B7 O23 1.372969 1_555
B7 O31 1.393421 1_555
B8 O16 1.447381 1_554
B8 O0 1.470405 1_555
B8 O4 1.486140 1_555
B8 O13 1.531417 1_554
B9 O17 1.447381 1_555
B9 O1 1.470405 1_555
B9 O5 1.486140 1_555
B9 O12 1.531417 1_555
B10 O18 1.447381 1_556
B10 O2 1.470405 1_555
B10 O6 1.486140 1_555
B10 O15 1.531417 1_556
B11 O19 1.447381 1_555
B11 O3 1.470405 1_555
B11 O7 1.486140 1_555
B11 O14 1.531417 1_555
B12 O18 1.371453 1_555
B12 O24 1.380300 1_545
B12 O8 1.390153 1_555
B13 O19 1.371453 1_555
B13 O25 1.380300 1_545
B13 O9 1.390153 1_655
B14 O16 1.371453 1_555
B14 O26 1.380300 1_565
B14 O10 1.390153 1_555
B15 O17 1.371453 1_555
B15 O27 1.380300 1_565
B15 O11 1.390153 1_455
B16 O26 1.441929 1_555
B16 O0 1.459178 1_546
B16 O36 1.510576 1_555
B16 O21 1.519536 1_555
B17 O27 1.441929 1_555
B17 O1 1.459178 1_545
B17 O37 1.510576 1_555
B17 O20 1.519536 1_555
B18 O24 1.441929 1_555
B18 O2 1.459178 1_564
B18 O38 1.510576 1_555
B18 O23 1.519536 1_555
B19 O25 1.441943 1_555
B19 O3 1.459173 1_565
B19 O39 1.510573 1_555
B19 O22 1.519528 1_555
Br0 O43 1.753667 1_455
Br1 O42 1.753667 1_555
Br2 O41 1.753667 1_655
Br3 O40 1.753667 1_555
