# generated using pymatgen
data_Ba3Mn2O8
_symmetry_space_group_name_H-M   'P 1'
_cell_length_a   5.73059101
_cell_length_b   9.92431753
_cell_length_c   7.91969428
_cell_angle_alpha   102.05204713
_cell_angle_beta   68.79539252
_cell_angle_gamma   89.99180452
_symmetry_Int_Tables_number   1
_chemical_formula_structural   Ba3Mn2O8
_chemical_formula_sum   'Ba6 Mn4 O16'
_cell_volume   409.24304517
_cell_formula_units_Z   2
loop_
 _symmetry_equiv_pos_site_id
 _symmetry_equiv_pos_as_xyz
  1  'x, y, z'
loop_
 _atom_site_type_symbol
 _atom_site_label
 _atom_site_symmetry_multiplicity
 _atom_site_fract_x
 _atom_site_fract_y
 _atom_site_fract_z
 _atom_site_occupancy
  Ba  Ba0  1  0.50000072  0.49999938  -0.00000044  1
  Ba  Ba1  1  0.00000078  -0.00000038  -0.00000038  1
  Ba  Ba2  1  0.31037228  0.89653771  0.37928786  1
  Ba  Ba3  1  0.81037263  0.39653604  0.37928624  1
  Ba  Ba4  1  0.18962797  0.60346285  0.62071365  1
  Ba  Ba5  1  0.68962825  0.10346152  0.62071295  1
  Mn  Mn0  1  0.61111982  0.79633473  0.77787484  1
  Mn  Mn1  1  0.38888131  0.20366343  0.22212811  1
  Mn  Mn2  1  0.11112246  0.29632887  0.77786899  1
  Mn  Mn3  1  0.88887912  0.70366874  0.22213296  1
  O  O0  1  0.49440358  0.83515123  0.01114228  1
  O  O1  1  0.99440503  0.33514158  0.01113863  1
  O  O2  1  0.00559287  0.66485965  0.98886343  1
  O  O3  1  0.50559626  0.16485088  0.98885873  1
  O  O4  1  0.08934156  0.63690297  0.30354604  1
  O  O5  1  0.58934319  0.13689926  0.30354531  1
  O  O6  1  0.60709828  0.63688329  0.30352037  1
  O  O7  1  0.10709642  0.13688032  0.30351999  1
  O  O8  1  0.84823508  0.87799720  0.30352900  1
  O  O9  1  0.34823695  0.37799581  0.30352624  1
  O  O10  1  0.65176460  0.62200309  0.69647161  1
  O  O11  1  0.15176599  0.12200148  0.69646822  1
  O  O12  1  0.89289485  0.86312493  0.69647689  1
  O  O13  1  0.39289420  0.36312018  0.69647636  1
  O  O14  1  0.41066091  0.86309993  0.69645647  1
  O  O15  1  0.91066288  0.36309631  0.69645566  1
loop_
_geom_bond_atom_site_label_1
_geom_bond_atom_site_label_2
_geom_bond_distance
_geom_bond_site_symmetry_2
Ba0 O6 2.775632 1_555
Ba0 O9 2.775656 1_555
Ba0 O13 2.775661 1_554
Ba0 O10 2.775665 1_554
Ba0 O15 2.775943 1_554
Ba0 O4 2.775944 1_555
Ba0 O3 3.308664 1_554
Ba0 O0 3.308695 1_555
Ba0 O1 3.309313 1_555
Ba0 O2 3.309332 1_554
Ba0 O2 3.309991 1_654
Ba0 O1 3.309992 1_455
Ba1 O7 2.775613 1_555
Ba1 O12 2.775642 1_444
Ba1 O8 2.775667 1_445
Ba1 O11 2.775677 1_554
Ba1 O14 2.775923 1_544
Ba1 O5 2.775925 1_455
Ba1 O2 3.308586 1_544
Ba1 O1 3.308602 1_455
Ba1 O0 3.309271 1_545
Ba1 O3 3.309288 1_454
Ba1 O0 3.309947 1_445
Ba1 O3 3.309956 1_554
Ba2 O0 2.649115 1_555
Ba2 O14 2.853471 1_555
Ba2 O11 2.853669 1_565
Ba2 O12 2.853849 1_455
Ba2 O6 2.916635 1_555
Ba2 O4 2.916963 1_555
Ba2 O7 2.917012 1_565
Ba2 O8 2.917221 1_555
Ba2 O5 2.917317 1_565
Ba2 O8 2.917349 1_455
Ba3 O1 2.649130 1_555
Ba3 O15 2.853488 1_555
Ba3 O10 2.853712 1_555
Ba3 O13 2.853867 1_555
Ba3 O7 2.916641 1_655
Ba3 O5 2.916975 1_555
Ba3 O6 2.917039 1_555
Ba3 O9 2.917228 1_655
Ba3 O9 2.917345 1_555
Ba3 O4 2.917354 1_655
Ba4 O2 2.649145 1_555
Ba4 O4 2.853464 1_555
Ba4 O9 2.853722 1_555
Ba4 O6 2.853871 1_555
Ba4 O12 2.916726 1_455
Ba4 O13 2.916965 1_555
Ba4 O14 2.916990 1_555
Ba4 O10 2.917225 1_455
Ba4 O10 2.917342 1_555
Ba4 O15 2.917343 1_455
Ba5 O3 2.649117 1_555
Ba5 O5 2.853453 1_555
Ba5 O8 2.853689 1_545
Ba5 O7 2.853858 1_655
Ba5 O13 2.916700 1_555
Ba5 O12 2.916919 1_545
Ba5 O15 2.916976 1_555
Ba5 O11 2.917223 1_555
Ba5 O14 2.917309 1_545
Ba5 O11 2.917337 1_655
Mn0 O0 1.678554 1_556
Mn0 O12 1.699426 1_555
Mn0 O14 1.699552 1_555
Mn0 O10 1.699609 1_555
Mn1 O3 1.678568 1_554
Mn1 O7 1.699433 1_555
Mn1 O5 1.699555 1_555
Mn1 O9 1.699611 1_555
Mn2 O1 1.678570 1_456
Mn2 O13 1.699411 1_555
Mn2 O15 1.699538 1_455
Mn2 O11 1.699567 1_555
Mn3 O2 1.678569 1_654
Mn3 O6 1.699421 1_555
Mn3 O4 1.699542 1_655
Mn3 O8 1.699573 1_555
