# generated using pymatgen
data_Mn2SbN3
_symmetry_space_group_name_H-M   'P 1'
_cell_length_a   7.18548099
_cell_length_b   13.22938330
_cell_length_c   8.05596781
_cell_angle_alpha   89.99999518
_cell_angle_beta   92.34433355
_cell_angle_gamma   157.00860896
_symmetry_Int_Tables_number   1
_chemical_formula_structural   Mn2SbN3
_chemical_formula_sum   'Mn8 Sb4 N12'
_cell_volume   297.46969900
_cell_formula_units_Z   4
loop_
 _symmetry_equiv_pos_site_id
 _symmetry_equiv_pos_as_xyz
  1  'x, y, z'
loop_
 _atom_site_type_symbol
 _atom_site_label
 _atom_site_symmetry_multiplicity
 _atom_site_fract_x
 _atom_site_fract_y
 _atom_site_fract_z
 _atom_site_occupancy
  Mn  Mn0  1  0.55652300  0.03859500  0.84419600  1
  Mn  Mn1  1  0.44347700  0.48207200  0.65580400  1
  Mn  Mn2  1  0.44347700  0.96140500  0.15580400  1
  Mn  Mn3  1  0.55652300  0.51792800  0.34419600  1
  Mn  Mn4  1  0.69796100  0.01167500  0.57135800  1
  Mn  Mn5  1  0.30203900  0.31371400  0.92864200  1
  Mn  Mn6  1  0.30203900  0.98832500  0.42864200  1
  Mn  Mn7  1  0.69796100  0.68628600  0.07135800  1
  Sb  Sb0  1  0.56203600  0.29172600  0.61162500  1
  Sb  Sb1  1  0.43796400  0.72969000  0.88837500  1
  Sb  Sb2  1  0.43796400  0.70827400  0.38837500  1
  Sb  Sb3  1  0.56203600  0.27031000  0.11162500  1
  N  N0  1  0.00000000  0.72872500  0.75000000  1
  N  N1  1  0.00000000  0.27127500  0.25000000  1
  N  N2  1  0.72906300  0.16667200  0.62190900  1
  N  N3  1  0.27093700  0.43760900  0.87809100  1
  N  N4  1  0.27093700  0.83332800  0.37809100  1
  N  N5  1  0.72906300  0.56239100  0.12190900  1
  N  N6  1  0.31830100  0.00834700  0.99671500  1
  N  N7  1  0.68169900  0.69004600  0.50328500  1
  N  N8  1  0.68169900  0.99165300  0.00328500  1
  N  N9  1  0.31830100  0.30995400  0.49671500  1
  N  N10  1  0.00000000  0.06792700  0.75000000  1
  N  N11  1  0.00000000  0.93207300  0.25000000  1
loop_
_geom_bond_atom_site_label_1
_geom_bond_atom_site_label_2
_geom_bond_distance
_geom_bond_site_symmetry_2
Mn0 N0 1.715252 1_545
Mn0 N6 1.873712 1_555
Mn0 N8 1.941984 1_546
Mn0 N2 1.982111 1_555
Mn0 N3 2.070290 1_655
Mn1 N0 1.715252 1_655
Mn1 N7 1.873711 1_555
Mn1 N9 1.941984 1_555
Mn1 N3 1.982111 1_555
Mn1 N2 2.070290 1_455
Mn2 N1 1.715252 1_665
Mn2 N8 1.873712 1_555
Mn2 N6 1.941984 1_564
Mn2 N4 1.982111 1_555
Mn2 N5 2.070290 1_455
Mn3 N1 1.715252 1_555
Mn3 N9 1.873711 1_555
Mn3 N7 1.941984 1_555
Mn3 N5 1.982111 1_555
Mn3 N4 2.070290 1_655
Mn4 N2 1.889245 1_555
Mn4 N9 1.907053 1_655
Mn4 N4 1.919911 1_545
Mn4 N10 2.026324 1_655
Mn5 N3 1.889245 1_555
Mn5 N8 1.907053 1_446
Mn5 N5 1.919911 1_556
Mn5 N10 2.026324 1_555
Mn6 N4 1.889245 1_555
Mn6 N7 1.907053 1_455
Mn6 N2 1.919911 1_565
Mn6 N11 2.026324 1_555
Mn7 N5 1.889245 1_555
Mn7 N6 1.907053 1_664
Mn7 N3 1.919911 1_554
Mn7 N11 2.026324 1_655
N6 Sb3 2.151107 1_556
N7 Sb2 2.151107 1_555
N8 Sb1 2.151107 1_554
N9 Sb0 2.151107 1_555
N10 Sb1 2.161522 1_445
N10 Sb0 2.161522 1_555
N11 Sb3 2.161522 1_565
N11 Sb2 2.161522 1_455
