# generated using pymatgen
data_Li4Fe2Cu3Sn3O16
_symmetry_space_group_name_H-M   'P 1'
_cell_length_a   6.04486209
_cell_length_b   6.04486209
_cell_length_c   9.64526584
_cell_angle_alpha   89.67608816
_cell_angle_beta   89.67608816
_cell_angle_gamma   60.63790207
_symmetry_Int_Tables_number   1
_chemical_formula_structural   Li4Fe2Cu3Sn3O16
_chemical_formula_sum   'Li4 Fe2 Cu3 Sn3 O16'
_cell_volume   307.15966846
_cell_formula_units_Z   1
loop_
 _symmetry_equiv_pos_site_id
 _symmetry_equiv_pos_as_xyz
  1  'x, y, z'
loop_
 _atom_site_type_symbol
 _atom_site_label
 _atom_site_symmetry_multiplicity
 _atom_site_fract_x
 _atom_site_fract_y
 _atom_site_fract_z
 _atom_site_occupancy
  Li  Li0  1  0.32583600  0.32583600  0.11493600  1
  Li  Li1  1  0.01867300  0.01867300  0.00939500  1
  Li  Li2  1  0.01377400  0.01377400  0.49776000  1
  Li  Li3  1  0.66240100  0.66240100  0.60238400  1
  Fe  Fe0  1  0.33134100  0.33134100  0.50231700  1
  Fe  Fe1  1  0.66185400  0.66185400  0.01354900  1
  Cu  Cu0  1  0.16950900  0.16950900  0.78421400  1
  Cu  Cu1  1  0.82860600  0.34001700  0.28658500  1
  Cu  Cu2  1  0.34001700  0.82860600  0.28658500  1
  Sn  Sn0  1  0.65958500  0.16940400  0.78549800  1
  Sn  Sn1  1  0.16940400  0.65958500  0.78549800  1
  Sn  Sn2  1  0.82997600  0.82997600  0.28660800  1
  O  O0  1  0.67462900  0.16448300  0.40539500  1
  O  O1  1  0.48194200  0.48194200  0.65468100  1
  O  O2  1  0.32652900  0.32652900  0.90034600  1
  O  O3  1  0.00665400  0.00665400  0.68517000  1
  O  O4  1  0.01062500  0.01062500  0.19635200  1
  O  O5  1  0.16448300  0.67462900  0.40539500  1
  O  O6  1  0.47738100  0.03688600  0.65569400  1
  O  O7  1  0.03688600  0.47738100  0.65569400  1
  O  O8  1  0.83882000  0.83882000  0.90795500  1
  O  O9  1  0.17096900  0.17096900  0.39748700  1
  O  O10  1  0.95824200  0.51636300  0.15659600  1
  O  O11  1  0.51636300  0.95824200  0.15659600  1
  O  O12  1  0.65629400  0.65629400  0.39212500  1
  O  O13  1  0.83383000  0.33171200  0.90318900  1
  O  O14  1  0.51845400  0.51845400  0.16053100  1
  O  O15  1  0.33171200  0.83383000  0.90318900  1
loop_
_geom_bond_atom_site_label_1
_geom_bond_atom_site_label_2
_geom_bond_distance
_geom_bond_site_symmetry_2
Li0 O10 1.977601 1_455
Li0 O11 1.977601 1_545
Li0 O14 2.060554 1_555
Li0 O2 2.069743 1_554
Li1 O4 1.804655 1_555
Li1 O13 1.948369 1_454
Li1 O15 1.948369 1_544
Li1 O8 2.122359 1_444
Li2 O3 1.808660 1_555
Li2 O9 1.898925 1_555
Li2 O5 2.001604 1_545
Li2 O0 2.001604 1_455
Li3 O1 1.946493 1_555
Li3 O12 2.029422 1_555
Li3 O7 2.040464 1_655
Li3 O6 2.040464 1_565
Fe0 O9 1.961045 1_555
Fe0 O5 2.033125 1_555
Fe0 O0 2.033125 1_555
Fe0 O6 2.140115 1_555
Fe0 O7 2.140115 1_555
Fe0 O1 2.158749 1_555
Fe1 O15 2.042901 1_554
Fe1 O13 2.042901 1_554
Fe1 O14 2.054676 1_555
Fe1 O11 2.087118 1_555
Fe1 O10 2.087118 1_555
Fe1 O8 2.103219 1_554
Cu0 O3 1.955114 1_555
Cu0 O2 1.990987 1_555
Cu0 O6 2.040798 1_555
Cu0 O7 2.040798 1_555
Cu0 O15 2.104980 1_545
Cu0 O13 2.104980 1_455
Cu1 O4 1.947567 1_655
Cu1 O12 1.957934 1_555
Cu1 O10 2.028627 1_555
Cu1 O14 2.045597 1_555
Cu1 O0 2.061101 1_555
Cu1 O9 2.100048 1_655
Cu2 O4 1.947567 1_565
Cu2 O12 1.957934 1_555
Cu2 O11 2.028627 1_555
Cu2 O14 2.045597 1_555
Cu2 O5 2.061101 1_555
Cu2 O9 2.100048 1_565
O0 Sn2 2.105981 1_545
O1 Sn1 2.076849 1_555
O1 Sn0 2.076849 1_555
O2 Sn1 2.072186 1_555
O2 Sn0 2.072186 1_555
O3 Sn0 2.066293 1_455
O3 Sn1 2.066293 1_545
O4 Sn2 2.071391 1_445
O5 Sn2 2.105981 1_455
O6 Sn0 2.077112 1_555
O7 Sn1 2.077112 1_555
O8 Sn0 2.104007 1_565
O8 Sn1 2.104007 1_655
O10 Sn2 2.083745 1_555
O11 Sn2 2.083745 1_555
O12 Sn2 2.072939 1_555
O13 Sn0 2.097653 1_555
O15 Sn1 2.097653 1_555
