# generated using pymatgen
data_In3Se
_symmetry_space_group_name_H-M   'P 1'
_cell_length_a   4.80375800
_cell_length_b   4.80375800
_cell_length_c   4.80375800
_cell_angle_alpha   90.00000000
_cell_angle_beta   90.00000000
_cell_angle_gamma   90.00000000
_symmetry_Int_Tables_number   1
_chemical_formula_structural   In3Se
_chemical_formula_sum   'In3 Se1'
_cell_volume   110.85195638
_cell_formula_units_Z   1
loop_
 _symmetry_equiv_pos_site_id
 _symmetry_equiv_pos_as_xyz
  1  'x, y, z'
loop_
 _atom_site_type_symbol
 _atom_site_label
 _atom_site_symmetry_multiplicity
 _atom_site_fract_x
 _atom_site_fract_y
 _atom_site_fract_z
 _atom_site_occupancy
  In  In0  1  0.00000000  0.50000000  0.50000000  1
  In  In1  1  0.50000000  0.00000000  0.50000000  1
  In  In2  1  0.50000000  0.50000000  0.00000000  1
  Se  Se0  1  0.00000000  0.00000000  0.00000000  1
loop_
_geom_bond_atom_site_label_1
_geom_bond_atom_site_label_2
_geom_bond_distance
_geom_bond_site_symmetry_2
In0 In1 3.396770 1_455
In0 Se0 3.396770 1_565
In0 In2 3.396770 1_456
In0 In2 3.396770 1_555
In0 In2 3.396770 1_455
In0 In1 3.396770 1_555
In0 Se0 3.396770 1_555
In0 Se0 3.396770 1_556
In0 In1 3.396770 1_565
In0 In1 3.396770 1_465
In0 Se0 3.396770 1_566
In0 In2 3.396770 1_556
In1 In2 3.396770 1_546
In1 Se0 3.396770 1_656
In1 Se0 3.396770 1_555
In1 In2 3.396770 1_545
In1 Se0 3.396770 1_556
In1 Se0 3.396770 1_655
In1 In2 3.396770 1_556
In1 In2 3.396770 1_555
In2 Se0 3.396770 1_565
In2 Se0 3.396770 1_555
In2 Se0 3.396770 1_655
In2 Se0 3.396770 1_665
