# generated using pymatgen
data_YbSm2CuS5
_symmetry_space_group_name_H-M   'P 1'
_cell_length_a   3.88132200
_cell_length_b   11.71025500
_cell_length_c   16.66569800
_cell_angle_alpha   90.00000000
_cell_angle_beta   90.00000000
_cell_angle_gamma   90.00000000
_symmetry_Int_Tables_number   1
_chemical_formula_structural   YbSm2CuS5
_chemical_formula_sum   'Yb4 Sm8 Cu4 S20'
_cell_volume   757.47714549
_cell_formula_units_Z   4
loop_
 _symmetry_equiv_pos_site_id
 _symmetry_equiv_pos_as_xyz
  1  'x, y, z'
loop_
 _atom_site_type_symbol
 _atom_site_label
 _atom_site_symmetry_multiplicity
 _atom_site_fract_x
 _atom_site_fract_y
 _atom_site_fract_z
 _atom_site_occupancy
  Yb  Yb0  1  0.25000000  0.80186000  0.37045700  1
  Yb  Yb1  1  0.25000000  0.30186000  0.12954300  1
  Yb  Yb2  1  0.75000000  0.19814000  0.62954300  1
  Yb  Yb3  1  0.75000000  0.69814000  0.87045700  1
  Sm  Sm0  1  0.25000000  0.87295300  0.60234700  1
  Sm  Sm1  1  0.25000000  0.37295300  0.89765300  1
  Sm  Sm2  1  0.75000000  0.12704700  0.39765300  1
  Sm  Sm3  1  0.75000000  0.62704700  0.10234700  1
  Sm  Sm4  1  0.75000000  0.96368100  0.18467900  1
  Sm  Sm5  1  0.75000000  0.46368100  0.31532100  1
  Sm  Sm6  1  0.25000000  0.03631900  0.81532100  1
  Sm  Sm7  1  0.25000000  0.53631900  0.68467900  1
  Cu  Cu0  1  0.75000000  0.58837200  0.49744300  1
  Cu  Cu1  1  0.75000000  0.08837200  0.00255700  1
  Cu  Cu2  1  0.25000000  0.41162800  0.50255700  1
  Cu  Cu3  1  0.25000000  0.91162800  0.99744300  1
  S  S0  1  0.75000000  0.73406400  0.26466500  1
  S  S1  1  0.75000000  0.23406400  0.23533500  1
  S  S2  1  0.25000000  0.26593600  0.73533500  1
  S  S3  1  0.25000000  0.76593600  0.76466500  1
  S  S4  1  0.25000000  0.81155600  0.11354600  1
  S  S5  1  0.25000000  0.31155600  0.38645400  1
  S  S6  1  0.75000000  0.18844400  0.88645400  1
  S  S7  1  0.75000000  0.68844400  0.61354600  1
  S  S8  1  0.75000000  0.88731000  0.47582700  1
  S  S9  1  0.75000000  0.38731000  0.02417300  1
  S  S10  1  0.25000000  0.11269000  0.52417300  1
  S  S11  1  0.25000000  0.61269000  0.97582700  1
  S  S12  1  0.25000000  0.57889600  0.42024500  1
  S  S13  1  0.25000000  0.07889600  0.07975500  1
  S  S14  1  0.75000000  0.42110400  0.57975500  1
  S  S15  1  0.75000000  0.92110400  0.92024500  1
  S  S16  1  0.25000000  0.00994000  0.30242100  1
  S  S17  1  0.25000000  0.50994000  0.19757900  1
  S  S18  1  0.75000000  0.99006000  0.69757900  1
  S  S19  1  0.75000000  0.49006000  0.80242100  1
loop_
_geom_bond_atom_site_label_1
_geom_bond_atom_site_label_2
_geom_bond_distance
_geom_bond_site_symmetry_2
Cu0 S7 2.262136 1_555
Cu0 S12 2.331032 1_555
Cu0 S12 2.331032 1_655
Cu0 S14 2.391340 1_555
Cu1 S6 2.262136 1_554
Cu1 S13 2.331032 1_555
Cu1 S13 2.331032 1_655
Cu1 S15 2.391340 1_544
Cu2 S5 2.262136 1_555
Cu2 S14 2.331032 1_555
Cu2 S14 2.331032 1_455
Cu2 S12 2.391340 1_555
Cu3 S4 2.262136 1_556
Cu3 S15 2.331032 1_555
Cu3 S15 2.331032 1_455
Cu3 S13 2.391340 1_566
S0 Yb0 2.739520 1_555
S0 Yb0 2.739520 1_655
S0 Sm3 2.981325 1_555
S0 Sm4 3.001165 1_555
S0 Sm5 3.276868 1_555
S1 Yb1 2.739520 1_655
S1 Yb1 2.739520 1_555
S1 Sm2 2.981325 1_555
S1 Sm5 3.001165 1_555
S1 Sm4 3.276868 1_545
S2 Yb2 2.739520 1_555
S2 Yb2 2.739520 1_455
S2 Sm1 2.981325 1_555
S2 Sm6 3.001165 1_555
S2 Sm7 3.276868 1_555
S3 Yb3 2.739520 1_555
S3 Yb3 2.739520 1_455
S3 Sm0 2.981325 1_555
S3 Sm7 3.001165 1_555
S3 Sm6 3.276868 1_565
S4 Sm4 2.888771 1_455
S4 Sm4 2.888771 1_555
S4 Sm3 2.910223 1_455
S4 Sm3 2.910223 1_555
S5 Sm5 2.888771 1_455
S5 Sm5 2.888771 1_555
S5 Sm2 2.910223 1_555
S5 Sm2 2.910223 1_455
S6 Sm6 2.888771 1_555
S6 Sm6 2.888771 1_655
S6 Sm1 2.910223 1_555
S6 Sm1 2.910223 1_655
S7 Sm7 2.888771 1_655
S7 Sm7 2.888771 1_555
S7 Sm0 2.910223 1_555
S7 Sm0 2.910223 1_655
S8 Yb0 2.802001 1_555
S8 Yb0 2.802001 1_655
S8 Sm0 2.870608 1_655
S8 Sm0 2.870608 1_555
S8 Sm2 3.094954 1_565
S9 Yb1 2.802001 1_555
S9 Yb1 2.802001 1_655
S9 Sm1 2.870608 1_654
S9 Sm1 2.870608 1_554
S9 Sm3 3.094954 1_555
S10 Yb2 2.802001 1_455
S10 Yb2 2.802001 1_555
S10 Sm2 2.870608 1_455
S10 Sm2 2.870608 1_555
S10 Sm0 3.094954 1_545
S11 Yb3 2.802001 1_455
S11 Yb3 2.802001 1_555
S11 Sm3 2.870608 1_456
S11 Sm3 2.870608 1_556
S11 Sm1 3.094954 1_555
S12 Yb0 2.739640 1_555
S12 Sm5 2.940104 1_455
S12 Sm5 2.940104 1_555
S13 Yb1 2.739640 1_555
S13 Sm4 2.940104 1_545
S13 Sm4 2.940104 1_445
S14 Yb2 2.739640 1_555
S14 Sm7 2.940104 1_555
S14 Sm7 2.940104 1_655
S15 Yb3 2.739640 1_555
S15 Sm6 2.940104 1_565
S15 Sm6 2.940104 1_665
S16 Yb0 2.687567 1_545
S16 Sm4 2.812480 1_545
S16 Sm4 2.812480 1_445
S16 Sm2 2.857566 1_455
S16 Sm2 2.857566 1_555
S17 Yb1 2.687567 1_555
S17 Sm5 2.812480 1_455
S17 Sm5 2.812480 1_555
S17 Sm3 2.857566 1_455
S17 Sm3 2.857566 1_555
S18 Yb2 2.687567 1_565
S18 Sm6 2.812480 1_565
S18 Sm6 2.812480 1_665
S18 Sm0 2.857566 1_555
S18 Sm0 2.857566 1_655
S19 Yb3 2.687567 1_555
S19 Sm7 2.812480 1_555
S19 Sm7 2.812480 1_655
S19 Sm1 2.857566 1_555
S19 Sm1 2.857566 1_655
