# generated using pymatgen
data_Sr2CaMoO6
_symmetry_space_group_name_H-M   'P 1'
_cell_length_a   5.89186300
_cell_length_b   5.95305900
_cell_length_c   8.35322900
_cell_angle_alpha   90.00000000
_cell_angle_beta   90.00000000
_cell_angle_gamma   90.00000000
_symmetry_Int_Tables_number   1
_chemical_formula_structural   Sr2CaMoO6
_chemical_formula_sum   'Sr4 Ca2 Mo2 O12'
_cell_volume   292.98623320
_cell_formula_units_Z   2
loop_
 _symmetry_equiv_pos_site_id
 _symmetry_equiv_pos_as_xyz
  1  'x, y, z'
loop_
 _atom_site_type_symbol
 _atom_site_label
 _atom_site_symmetry_multiplicity
 _atom_site_fract_x
 _atom_site_fract_y
 _atom_site_fract_z
 _atom_site_occupancy
  Sr  Sr0  1  0.00000000  0.51932300  0.25435600  1
  Sr  Sr1  1  0.50000000  0.98986900  0.24858800  1
  Sr  Sr2  1  0.00000000  0.51932300  0.74564400  1
  Sr  Sr3  1  0.50000000  0.98986900  0.75141200  1
  Ca  Ca0  1  0.50000000  0.47327900  0.00000000  1
  Ca  Ca1  1  0.00000000  0.99748300  0.50000000  1
  Mo  Mo0  1  0.00000000  0.97068900  0.00000000  1
  Mo  Mo1  1  0.50000000  0.49044300  0.50000000  1
  O  O0  1  0.50000000  0.48205600  0.73183200  1
  O  O1  1  0.26462100  0.26372300  0.50000000  1
  O  O2  1  0.00000000  0.95887200  0.23232100  1
  O  O3  1  0.00000000  0.95887200  0.76767900  1
  O  O4  1  0.73537900  0.26372300  0.50000000  1
  O  O5  1  0.22187500  0.72329200  0.00000000  1
  O  O6  1  0.73030800  0.72561300  0.50000000  1
  O  O7  1  0.77812500  0.72329200  0.00000000  1
  O  O8  1  0.75451300  0.18130400  0.00000000  1
  O  O9  1  0.26969200  0.72561300  0.50000000  1
  O  O10  1  0.50000000  0.48205600  0.26816800  1
  O  O11  1  0.24548700  0.18130400  0.00000000  1
loop_
_geom_bond_atom_site_label_1
_geom_bond_atom_site_label_2
_geom_bond_distance
_geom_bond_site_symmetry_2
Ca0 O7 2.213688 1_555
Ca0 O5 2.213688 1_555
Ca0 O10 2.240678 1_555
Ca0 O0 2.240678 1_554
Ca0 O8 2.295607 1_555
Ca0 O11 2.295607 1_555
Ca1 O1 2.223256 1_565
Ca1 O4 2.223256 1_465
Ca1 O2 2.247767 1_555
Ca1 O3 2.247767 1_555
Ca1 O9 2.268103 1_555
Ca1 O6 2.268103 1_455
Mo0 O11 1.914165 1_565
Mo0 O8 1.914165 1_465
Mo0 O3 1.941905 1_554
Mo0 O2 1.941905 1_555
Mo0 O5 1.969256 1_555
Mo0 O7 1.969256 1_455
Mo1 O4 1.935175 1_555
Mo1 O1 1.935175 1_555
Mo1 O0 1.937189 1_555
Mo1 O10 1.937189 1_555
Mo1 O6 1.949677 1_555
Mo1 O9 1.949677 1_555
O0 Sr3 2.934580 1_545
O0 Sr2 2.956525 1_555
O0 Sr2 2.956525 1_655
O0 Sr3 3.027462 1_555
O1 Sr2 2.992737 1_555
O1 Sr0 2.992737 1_555
O1 Sr3 2.998579 1_545
O1 Sr1 2.998579 1_545
O2 Sr0 2.623127 1_555
O2 Sr1 2.954831 1_555
O2 Sr1 2.954831 1_455
O3 Sr2 2.623127 1_555
O3 Sr3 2.954831 1_555
O3 Sr3 2.954831 1_455
O4 Sr2 2.992737 1_655
O4 Sr0 2.992737 1_655
O4 Sr3 2.998579 1_545
O4 Sr1 2.998579 1_545
O5 Sr0 2.774459 1_555
O5 Sr2 2.774459 1_554
O5 Sr1 3.084731 1_555
O5 Sr3 3.084731 1_554
O6 Sr2 2.871130 1_655
O6 Sr0 2.871130 1_655
O6 Sr3 2.954059 1_555
O6 Sr1 2.954059 1_555
O7 Sr0 2.774459 1_655
O7 Sr2 2.774459 1_654
O7 Sr1 3.084731 1_555
O7 Sr3 3.084731 1_554
O8 Sr1 2.803447 1_545
O8 Sr3 2.803447 1_544
O9 Sr2 2.871130 1_555
O9 Sr0 2.871130 1_555
O9 Sr3 2.954059 1_555
O9 Sr1 2.954059 1_555
O10 Sr1 2.934580 1_545
O10 Sr0 2.956525 1_655
O10 Sr0 2.956525 1_555
O10 Sr1 3.027462 1_555
O11 Sr1 2.803447 1_545
O11 Sr3 2.803447 1_544
