# generated using pymatgen
data_YbCuPbSe3
_symmetry_space_group_name_H-M   'P 1'
_cell_length_a   3.97810900
_cell_length_b   10.91430300
_cell_length_c   13.74012500
_cell_angle_alpha   90.00000000
_cell_angle_beta   90.00000000
_cell_angle_gamma   90.00000000
_symmetry_Int_Tables_number   1
_chemical_formula_structural   YbCuPbSe3
_chemical_formula_sum   'Yb4 Cu4 Pb4 Se12'
_cell_volume   596.57269057
_cell_formula_units_Z   4
loop_
 _symmetry_equiv_pos_site_id
 _symmetry_equiv_pos_as_xyz
  1  'x, y, z'
loop_
 _atom_site_type_symbol
 _atom_site_label
 _atom_site_symmetry_multiplicity
 _atom_site_fract_x
 _atom_site_fract_y
 _atom_site_fract_z
 _atom_site_occupancy
  Yb  Yb0  1  0.25000000  0.50526400  0.74670700  1
  Yb  Yb1  1  0.25000000  0.00526400  0.75329300  1
  Yb  Yb2  1  0.75000000  0.49473600  0.25329300  1
  Yb  Yb3  1  0.75000000  0.99473600  0.24670700  1
  Cu  Cu0  1  0.25000000  0.74482900  0.22047600  1
  Cu  Cu1  1  0.25000000  0.24482900  0.27952400  1
  Cu  Cu2  1  0.75000000  0.25517100  0.77952400  1
  Cu  Cu3  1  0.75000000  0.75517100  0.72047600  1
  Pb  Pb0  1  0.25000000  0.76243300  0.50897900  1
  Pb  Pb1  1  0.25000000  0.26243300  0.99102100  1
  Pb  Pb2  1  0.75000000  0.23756700  0.49102100  1
  Pb  Pb3  1  0.75000000  0.73756700  0.00897900  1
  Se  Se0  1  0.25000000  0.25375400  0.67586700  1
  Se  Se1  1  0.25000000  0.75375400  0.82413300  1
  Se  Se2  1  0.75000000  0.74624600  0.32413300  1
  Se  Se3  1  0.75000000  0.24624600  0.17586700  1
  Se  Se4  1  0.25000000  0.41464200  0.39607200  1
  Se  Se5  1  0.25000000  0.91464200  0.10392800  1
  Se  Se6  1  0.75000000  0.58535800  0.60392800  1
  Se  Se7  1  0.75000000  0.08535800  0.89607200  1
  Se  Se8  1  0.25000000  0.06798200  0.39124100  1
  Se  Se9  1  0.25000000  0.56798200  0.10875900  1
  Se  Se10  1  0.75000000  0.93201800  0.60875900  1
  Se  Se11  1  0.75000000  0.43201800  0.89124100  1
loop_
_geom_bond_atom_site_label_1
_geom_bond_atom_site_label_2
_geom_bond_distance
_geom_bond_site_symmetry_2
Cu0 Se2 2.446445 1_555
Cu0 Se2 2.446445 1_455
Cu0 Se5 2.449385 1_555
Cu0 Se9 2.466124 1_555
Cu1 Se3 2.446445 1_555
Cu1 Se3 2.446445 1_455
Cu1 Se4 2.449385 1_555
Cu1 Se8 2.466124 1_555
Cu2 Se0 2.446445 1_555
Cu2 Se0 2.446445 1_655
Cu2 Se7 2.449385 1_555
Cu2 Se11 2.466124 1_555
Cu3 Se1 2.446445 1_555
Cu3 Se1 2.446445 1_655
Cu3 Se6 2.449385 1_555
Cu3 Se10 2.466124 1_555
Pb0 Se10 3.043319 1_455
Pb0 Se10 3.043319 1_555
Pb0 Se6 3.064879 1_555
Pb0 Se6 3.064879 1_455
Pb0 Se2 3.230816 1_455
Pb0 Se2 3.230816 1_555
Pb1 Se11 3.043319 1_555
Pb1 Se11 3.043319 1_455
Pb1 Se7 3.064879 1_455
Pb1 Se7 3.064879 1_555
Pb1 Se3 3.230816 1_556
Pb1 Se3 3.230816 1_456
Pb2 Se8 3.043319 1_655
Pb2 Se8 3.043319 1_555
Pb2 Se4 3.064879 1_655
Pb2 Se4 3.064879 1_555
Pb2 Se0 3.230816 1_655
Pb2 Se0 3.230816 1_555
Pb3 Se9 3.043319 1_555
Pb3 Se9 3.043319 1_655
Pb3 Se5 3.064879 1_555
Pb3 Se5 3.064879 1_655
Pb3 Se1 3.230816 1_554
Pb3 Se1 3.230816 1_654
Se0 Yb0 2.912515 1_555
Se0 Yb1 2.913284 1_555
Se1 Yb1 2.912515 1_565
Se1 Yb0 2.913284 1_555
Se2 Yb2 2.912515 1_555
Se2 Yb3 2.913284 1_555
Se3 Yb3 2.912515 1_545
Se3 Yb2 2.913284 1_555
Se4 Yb2 2.927315 1_555
Se4 Yb2 2.927315 1_455
Se5 Yb3 2.927315 1_555
Se5 Yb3 2.927315 1_455
Se6 Yb0 2.927315 1_555
Se6 Yb0 2.927315 1_655
Se7 Yb1 2.927315 1_655
Se7 Yb1 2.927315 1_555
Se8 Yb3 2.922205 1_545
Se8 Yb3 2.922205 1_445
Se9 Yb2 2.922205 1_455
Se9 Yb2 2.922205 1_555
Se10 Yb1 2.922205 1_565
Se10 Yb1 2.922205 1_665
Se11 Yb0 2.922205 1_655
Se11 Yb0 2.922205 1_555
