# generated using pymatgen
data_LaMnO3
_symmetry_space_group_name_H-M   'P 1'
_cell_length_a   3.94752200
_cell_length_b   5.56834857
_cell_length_c   5.56834432
_cell_angle_alpha   90.01428969
_cell_angle_beta   89.99956836
_cell_angle_gamma   90.00051385
_symmetry_Int_Tables_number   1
_chemical_formula_structural   LaMnO3
_chemical_formula_sum   'La2 Mn2 O6'
_cell_volume   122.39876651
_cell_formula_units_Z   2
loop_
 _symmetry_equiv_pos_site_id
 _symmetry_equiv_pos_as_xyz
  1  'x, y, z'
loop_
 _atom_site_type_symbol
 _atom_site_label
 _atom_site_symmetry_multiplicity
 _atom_site_fract_x
 _atom_site_fract_y
 _atom_site_fract_z
 _atom_site_occupancy
  La  La0  1  0.00000200  0.99999800  0.99999600  1
  La  La1  1  0.00000200  0.50000400  0.50000300  1
  Mn  Mn0  1  0.50000000  0.00000100  0.49999700  1
  Mn  Mn1  1  0.50000100  0.49999900  0.00000200  1
  O  O0  1  0.00000000  0.49999800  0.00000000  1
  O  O1  1  0.00000200  0.99999600  0.50000300  1
  O  O2  1  0.50000100  0.24105800  0.74106200  1
  O  O3  1  0.49999800  0.75894200  0.25894200  1
  O  O4  1  0.49999900  0.24106200  0.25893800  1
  O  O5  1  0.49999400  0.75894300  0.74105700  1
loop_
_geom_bond_atom_site_label_1
_geom_bond_atom_site_label_2
_geom_bond_distance
_geom_bond_site_symmetry_2
La0 O1 2.784133 1_555
La0 O0 2.784174 1_566
La0 O0 2.784174 1_556
La0 O1 2.784211 1_556
La0 O5 2.788427 1_555
La0 O5 2.788470 1_455
La0 O4 2.788472 1_566
La0 O4 2.788490 1_466
La0 O2 2.788774 1_565
La0 O3 2.788812 1_456
La0 O2 2.788812 1_465
La0 O3 2.788822 1_556
La1 O1 2.784130 1_555
La1 O0 2.784155 1_556
La1 O0 2.784189 1_555
La1 O1 2.784219 1_545
La1 O5 2.788421 1_555
La1 O5 2.788470 1_455
La1 O4 2.788477 1_555
La1 O4 2.788490 1_455
La1 O3 2.788780 1_555
La1 O2 2.788812 1_455
La1 O3 2.788835 1_455
La1 O2 2.788839 1_555
Mn0 O3 1.898046 1_545
Mn0 O2 1.898078 1_555
Mn0 O5 1.898536 1_545
Mn0 O4 1.898543 1_555
Mn0 O1 1.973753 1_545
Mn0 O1 1.973769 1_645
Mn1 O0 1.973757 1_655
Mn1 O0 1.973765 1_555
Mn1 O2 2.038858 1_554
Mn1 O3 2.038866 1_555
Mn1 O4 2.039335 1_555
Mn1 O5 2.039398 1_554
