# generated using pymatgen
data_Mg2Cd
_symmetry_space_group_name_H-M   'P 1'
_cell_length_a   5.35251381
_cell_length_b   5.35251381
_cell_length_c   6.15043810
_cell_angle_alpha   62.04541984
_cell_angle_beta   62.04541984
_cell_angle_gamma   59.46608668
_symmetry_Int_Tables_number   1
_chemical_formula_structural   Mg2Cd
_chemical_formula_sum   'Mg4 Cd2'
_cell_volume   127.75599954
_cell_formula_units_Z   2
loop_
 _symmetry_equiv_pos_site_id
 _symmetry_equiv_pos_as_xyz
  1  'x, y, z'
loop_
 _atom_site_type_symbol
 _atom_site_label
 _atom_site_symmetry_multiplicity
 _atom_site_fract_x
 _atom_site_fract_y
 _atom_site_fract_z
 _atom_site_occupancy
  Mg  Mg0  1  0.24657815  0.41500271  0.75264990  1
  Mg  Mg1  1  0.58499729  0.75342185  0.74735010  1
  Mg  Mg2  1  0.41500271  0.24657815  0.25264990  1
  Mg  Mg3  1  0.75342185  0.58499729  0.24735010  1
  Cd  Cd0  1  0.08483358  0.91516642  0.25000000  1
  Cd  Cd1  1  0.91516642  0.08483358  0.75000000  1
loop_
_geom_bond_atom_site_label_1
_geom_bond_atom_site_label_2
_geom_bond_distance
_geom_bond_site_symmetry_2
Mg0 Mg1 3.058920 1_455
Mg0 Mg1 3.058920 1_545
Mg0 Mg3 3.111019 1_456
Mg0 Mg1 3.128354 1_555
Mg0 Mg3 3.130276 1_555
Mg0 Mg2 3.202590 1_556
Mg0 Mg2 3.202590 1_555
Mg1 Mg2 3.111019 1_565
Mg1 Mg2 3.130276 1_556
Mg1 Mg3 3.202590 1_556
Mg1 Mg3 3.202590 1_555
Mg2 Mg3 3.058920 1_545
Mg2 Mg3 3.058920 1_455
Mg2 Mg3 3.128354 1_555
Cd0 Mg1 3.076062 1_455
Cd0 Mg0 3.076062 1_564
Cd0 Mg3 3.078345 1_555
Cd0 Mg2 3.078345 1_555
Cd0 Mg2 3.083747 1_565
Cd0 Mg3 3.083747 1_455
Cd0 Mg3 3.084029 1_465
Cd0 Mg2 3.084029 1_465
Cd0 Mg0 3.141468 1_555
Cd0 Mg1 3.141468 1_554
Cd0 Cd1 3.204438 1_464
Cd0 Cd1 3.204438 1_465
Cd1 Mg3 3.076062 1_546
Cd1 Mg2 3.076062 1_655
Cd1 Mg1 3.078345 1_555
Cd1 Mg0 3.078345 1_555
Cd1 Mg0 3.083747 1_655
Cd1 Mg1 3.083747 1_545
Cd1 Mg1 3.084029 1_645
Cd1 Mg0 3.084029 1_645
Cd1 Mg2 3.141468 1_556
Cd1 Mg3 3.141468 1_555
