# generated using pymatgen
data_BaH2Se(S2O3)2
_symmetry_space_group_name_H-M   'P 1'
_cell_length_a   5.27431800
_cell_length_b   10.32957400
_cell_length_c   23.10063800
_cell_angle_alpha   90.00000000
_cell_angle_beta   90.00000000
_cell_angle_gamma   90.00000000
_symmetry_Int_Tables_number   1
_chemical_formula_structural   BaH2Se(S2O3)2
_chemical_formula_sum   'Ba4 H8 Se4 S16 O24'
_cell_volume   1258.55644083
_cell_formula_units_Z   4
loop_
 _symmetry_equiv_pos_site_id
 _symmetry_equiv_pos_as_xyz
  1  'x, y, z'
loop_
 _atom_site_type_symbol
 _atom_site_label
 _atom_site_symmetry_multiplicity
 _atom_site_fract_x
 _atom_site_fract_y
 _atom_site_fract_z
 _atom_site_occupancy
  Ba  Ba0  1  0.21373100  0.25000000  0.54611800  1
  Ba  Ba1  1  0.78626900  0.75000000  0.45388200  1
  Ba  Ba2  1  0.28626900  0.75000000  0.04611800  1
  Ba  Ba3  1  0.71373100  0.25000000  0.95388200  1
  H  H0  1  0.23315700  0.25000000  0.01414300  1
  H  H1  1  0.76684300  0.75000000  0.98585700  1
  H  H2  1  0.26684300  0.75000000  0.51414300  1
  H  H3  1  0.73315700  0.25000000  0.48585700  1
  H  H4  1  0.32636000  0.25000000  0.66672500  1
  H  H5  1  0.67364000  0.75000000  0.33327500  1
  H  H6  1  0.17364000  0.75000000  0.16672500  1
  H  H7  1  0.82636000  0.25000000  0.83327500  1
  Se  Se0  1  0.04589900  0.25000000  0.17780400  1
  Se  Se1  1  0.95410100  0.75000000  0.82219600  1
  Se  Se2  1  0.45410100  0.75000000  0.67780400  1
  Se  Se3  1  0.54589900  0.25000000  0.32219600  1
  S  S0  1  0.29200100  0.08078800  0.32330800  1
  S  S1  1  0.70799900  0.91921200  0.67669200  1
  S  S2  1  0.20799900  0.91921200  0.82330800  1
  S  S3  1  0.70799900  0.58078800  0.67669200  1
  S  S4  1  0.79200100  0.08078800  0.17669200  1
  S  S5  1  0.29200100  0.41921200  0.32330800  1
  S  S6  1  0.79200100  0.41921200  0.17669200  1
  S  S7  1  0.20799900  0.58078800  0.82330800  1
  S  S8  1  0.31035700  0.01116500  0.41067400  1
  S  S9  1  0.68964300  0.98883500  0.58932600  1
  S  S10  1  0.18964300  0.98883500  0.91067400  1
  S  S11  1  0.68964300  0.51116500  0.58932600  1
  S  S12  1  0.81035700  0.01116500  0.08932600  1
  S  S13  1  0.31035700  0.48883500  0.41067400  1
  S  S14  1  0.81035700  0.48883500  0.08932600  1
  S  S15  1  0.18964300  0.51116500  0.91067400  1
  O  O0  1  0.17035100  0.61175700  0.40424800  1
  O  O1  1  0.82964900  0.38824300  0.59575200  1
  O  O2  1  0.32964900  0.38824300  0.90424800  1
  O  O3  1  0.82964900  0.11175700  0.59575200  1
  O  O4  1  0.67035100  0.61175700  0.09575200  1
  O  O5  1  0.17035100  0.88824300  0.40424800  1
  O  O6  1  0.67035100  0.88824300  0.09575200  1
  O  O7  1  0.32964900  0.11175700  0.90424800  1
  O  O8  1  0.18625100  0.10468800  0.44881500  1
  O  O9  1  0.81374900  0.89531200  0.55118500  1
  O  O10  1  0.31374900  0.89531200  0.94881500  1
  O  O11  1  0.81374900  0.60468800  0.55118500  1
  O  O12  1  0.68625100  0.10468800  0.05118500  1
  O  O13  1  0.18625100  0.39531200  0.44881500  1
  O  O14  1  0.68625100  0.39531200  0.05118500  1
  O  O15  1  0.31374900  0.60468800  0.94881500  1
  O  O16  1  0.08007900  0.50903600  0.07561800  1
  O  O17  1  0.91992100  0.49096400  0.92438200  1
  O  O18  1  0.41992100  0.49096400  0.57561800  1
  O  O19  1  0.91992100  0.00903600  0.92438200  1
  O  O20  1  0.58007900  0.50903600  0.42438200  1
  O  O21  1  0.08007900  0.99096400  0.07561800  1
  O  O22  1  0.58007900  0.99096400  0.42438200  1
  O  O23  1  0.41992100  0.00903600  0.57561800  1
loop_
_geom_bond_atom_site_label_1
_geom_bond_atom_site_label_2
_geom_bond_distance
_geom_bond_site_symmetry_2
Ba0 O13 2.706746 1_555
Ba0 O8 2.706746 1_555
Ba0 O3 2.730851 1_455
Ba0 O1 2.730851 1_455
Ba0 O18 2.800443 1_555
Ba0 O23 2.800443 1_555
Ba0 H4 2.848724 1_555
Ba0 H3 2.891809 1_455
Ba0 H3 3.073005 1_555
Ba1 O11 2.706746 1_555
Ba1 O9 2.706746 1_555
Ba1 O5 2.730851 1_655
Ba1 O0 2.730851 1_655
Ba1 O22 2.800443 1_555
Ba1 O20 2.800443 1_555
Ba1 H5 2.848724 1_555
Ba1 H2 2.891809 1_655
Ba1 H2 3.073005 1_555
Ba2 O10 2.706746 1_554
Ba2 O15 2.706746 1_554
Ba2 O4 2.730851 1_555
Ba2 O6 2.730851 1_555
Ba2 O21 2.800443 1_555
Ba2 O16 2.800443 1_555
Ba2 H6 2.848724 1_555
Ba2 H1 2.891809 1_554
Ba2 H1 3.073005 1_454
Ba3 O14 2.706746 1_556
Ba3 O12 2.706746 1_556
Ba3 O2 2.730851 1_555
Ba3 O7 2.730851 1_555
Ba3 O17 2.800443 1_555
Ba3 O19 2.800443 1_555
Ba3 H7 2.848724 1_555
Ba3 H0 2.891809 1_556
Ba3 H0 3.073005 1_656
S0 S8 2.144705 1_555
S0 Se3 2.202059 1_555
S1 S9 2.144705 1_555
S1 Se2 2.202059 1_555
S2 Se1 2.202059 1_455
S3 Se2 2.202059 1_555
S4 Se0 2.202059 1_655
S5 Se3 2.202059 1_555
S6 Se0 2.202059 1_655
S7 Se1 2.202059 1_455
S10 S2 2.144705 1_555
S11 S3 2.144705 1_555
S12 S4 2.144705 1_555
S13 S5 2.144705 1_555
S14 S6 2.144705 1_555
S15 S7 2.144705 1_555
O0 S13 1.476327 1_555
O1 S11 1.476327 1_555
O2 S15 1.476327 1_555
O3 S9 1.476327 1_545
O4 S14 1.476327 1_555
O5 S8 1.476327 1_565
O6 S12 1.476327 1_565
O7 S10 1.476327 1_545
O8 S8 1.462200 1_555
O9 S9 1.462200 1_555
O10 S10 1.462200 1_555
O11 S11 1.462200 1_555
O12 S12 1.462200 1_555
O13 S13 1.462200 1_555
O14 S14 1.462200 1_555
O15 S15 1.462200 1_555
O16 S14 1.472280 1_455
O17 S15 1.472280 1_655
O18 S11 1.472280 1_555
O19 S10 1.472280 1_645
O20 S13 1.472280 1_555
O21 S12 1.472280 1_465
O22 S8 1.472280 1_565
O23 S9 1.472280 1_545
