# generated using pymatgen
data_Pr2(CoNi)5
_symmetry_space_group_name_H-M   'P 1'
_cell_length_a   3.97440300
_cell_length_b   4.98340600
_cell_length_c   8.62641200
_cell_angle_alpha   90.00000000
_cell_angle_beta   90.00000000
_cell_angle_gamma   90.00000000
_symmetry_Int_Tables_number   1
_chemical_formula_structural   Pr2(CoNi)5
_chemical_formula_sum   'Pr2 Co5 Ni5'
_cell_volume   170.85526606
_cell_formula_units_Z   1
loop_
 _symmetry_equiv_pos_site_id
 _symmetry_equiv_pos_as_xyz
  1  'x, y, z'
loop_
 _atom_site_type_symbol
 _atom_site_label
 _atom_site_symmetry_multiplicity
 _atom_site_fract_x
 _atom_site_fract_y
 _atom_site_fract_z
 _atom_site_occupancy
  Pr  Pr0  1  0.00000000  0.50000000  0.00000000  1
  Pr  Pr1  1  0.00000000  0.00000000  0.50000000  1
  Co  Co0  1  0.00000000  0.50000000  0.33379200  1
  Co  Co1  1  0.00000000  0.00000000  0.83330600  1
  Co  Co2  1  0.00000000  0.00000000  0.16669400  1
  Co  Co3  1  0.00000000  0.50000000  0.66620800  1
  Co  Co4  1  0.50000000  0.50000000  0.50000000  1
  Ni  Ni0  1  0.50000000  0.00000000  0.00000000  1
  Ni  Ni1  1  0.50000000  0.75009800  0.24999700  1
  Ni  Ni2  1  0.50000000  0.24990200  0.75000300  1
  Ni  Ni3  1  0.50000000  0.24990200  0.24999700  1
  Ni  Ni4  1  0.50000000  0.75009800  0.75000300  1
loop_
_geom_bond_atom_site_label_1
_geom_bond_atom_site_label_2
_geom_bond_distance
_geom_bond_site_symmetry_2
Co0 Co4 2.450447 1_555
Co0 Co4 2.450447 1_455
Co0 Ni1 2.454556 1_555
Co0 Ni1 2.454556 1_455
Co0 Ni3 2.454556 1_455
Co0 Ni3 2.454556 1_555
Co0 Co3 2.867557 1_555
Co0 Pr1 2.874770 1_555
Co0 Pr1 2.874770 1_565
Co0 Co2 2.878607 1_565
Co0 Co2 2.878607 1_555
Co0 Pr0 2.879427 1_555
Co1 Ni2 2.452813 1_455
Co1 Ni2 2.452813 1_555
Co1 Ni4 2.452813 1_545
Co1 Ni4 2.452813 1_445
Co1 Ni0 2.452903 1_456
Co1 Ni0 2.452903 1_556
Co1 Pr1 2.875235 1_555
Co1 Co2 2.875942 1_556
Co1 Pr0 2.876864 1_556
Co1 Pr0 2.876864 1_546
Co1 Co3 2.878607 1_555
Co1 Co3 2.878607 1_545
Co2 Ni3 2.452813 1_555
Co2 Ni3 2.452813 1_455
Co2 Ni1 2.452813 1_545
Co2 Ni1 2.452813 1_445
Co2 Ni0 2.452903 1_455
Co2 Ni0 2.452903 1_555
Co2 Pr1 2.875235 1_555
Co2 Pr0 2.876864 1_545
Co2 Pr0 2.876864 1_555
Co3 Co4 2.450447 1_555
Co3 Co4 2.450447 1_455
Co3 Ni4 2.454556 1_455
Co3 Ni4 2.454556 1_555
Co3 Ni2 2.454556 1_455
Co3 Ni2 2.454556 1_555
Co3 Pr1 2.874770 1_565
Co3 Pr1 2.874770 1_555
Co3 Pr0 2.879427 1_556
Co4 Ni1 2.490866 1_555
Co4 Ni4 2.490866 1_555
Co4 Ni3 2.490866 1_555
Co4 Ni2 2.490866 1_555
Co4 Pr1 3.187092 1_655
Co4 Pr1 3.187092 1_565
Co4 Pr1 3.187092 1_555
Co4 Pr1 3.187092 1_665
Ni0 Ni3 2.490332 1_555
Ni0 Ni2 2.490332 1_554
Ni0 Ni4 2.490332 1_544
Ni0 Ni1 2.490332 1_545
Ni0 Pr0 3.187092 1_555
Ni0 Pr0 3.187092 1_655
Ni0 Pr0 3.187092 1_545
Ni0 Pr0 3.187092 1_645
Ni1 Ni3 2.490726 1_565
Ni1 Ni3 2.492680 1_555
Ni1 Pr1 3.186055 1_565
Ni1 Pr1 3.186055 1_665
Ni1 Pr0 3.186402 1_555
Ni1 Pr0 3.186402 1_655
Ni2 Ni4 2.490726 1_545
Ni2 Ni4 2.492680 1_555
Ni2 Pr1 3.186055 1_655
Ni2 Pr1 3.186055 1_555
Ni2 Pr0 3.186402 1_656
Ni2 Pr0 3.186402 1_556
Ni3 Pr1 3.186055 1_655
Ni3 Pr1 3.186055 1_555
Ni3 Pr0 3.186402 1_555
Ni3 Pr0 3.186402 1_655
Ni4 Pr1 3.186055 1_565
Ni4 Pr1 3.186055 1_665
Ni4 Pr0 3.186402 1_656
Ni4 Pr0 3.186402 1_556
