# generated using pymatgen
data_MgCo5(P2O7)4
_symmetry_space_group_name_H-M   'P 1'
_cell_length_a   7.41771250
_cell_length_b   7.86381601
_cell_length_c   10.23421030
_cell_angle_alpha   107.46449630
_cell_angle_beta   86.38250235
_cell_angle_gamma   94.32004239
_symmetry_Int_Tables_number   1
_chemical_formula_structural   MgCo5(P2O7)4
_chemical_formula_sum   'Mg1 Co5 P8 O28'
_cell_volume   567.32573880
_cell_formula_units_Z   1
loop_
 _symmetry_equiv_pos_site_id
 _symmetry_equiv_pos_as_xyz
  1  'x, y, z'
loop_
 _atom_site_type_symbol
 _atom_site_label
 _atom_site_symmetry_multiplicity
 _atom_site_fract_x
 _atom_site_fract_y
 _atom_site_fract_z
 _atom_site_occupancy
  Mg  Mg0  1  0.84029945  0.45221972  0.73389489  1
  Co  Co0  1  0.24748127  0.86378349  0.58442170  1
  Co  Co1  1  0.25804035  0.84787187  0.06717765  1
  Co  Co2  1  0.50093422  0.50065067  0.99489571  1
  Co  Co3  1  0.73063251  0.14501202  0.95008609  1
  Co  Co4  1  0.73861158  0.13093432  0.38333107  1
  P  P0  1  0.16141871  0.20783615  0.02282155  1
  P  P1  1  0.15753645  0.18222888  0.30748066  1
  P  P2  1  0.28144625  0.55965003  0.74881335  1
  P  P3  1  0.47089659  0.75599263  0.30612438  1
  P  P4  1  0.52058800  0.24471346  0.67944489  1
  P  P5  1  0.69299176  0.44331261  0.25010224  1
  P  P6  1  0.85579987  0.82488683  0.71236336  1
  P  P7  1  0.85610119  0.79536215  0.98562366  1
  O  O0  1  0.01460012  0.77393465  0.07020848  1
  O  O1  1  0.98057512  0.10024242  0.36271511  1
  O  O2  1  0.09978993  0.46080589  0.74831639  1
  O  O3  1  0.09177571  0.24137770  0.17910641  1
  O  O4  1  0.29248241  0.36699465  0.01640270  1
  O  O5  1  0.23383251  0.33668473  0.41622640  1
  O  O6  1  0.30193754  0.69892052  0.67209132  1
  O  O7  1  0.29765943  0.79182594  0.39798729  1
  O  O8  1  0.35343143  0.64389131  0.89695350  1
  O  O9  1  0.38962291  0.08465171  0.64319388  1
  O  O10  1  0.26602727  0.03429027  0.97783088  1
  O  O11  1  0.42739315  0.71737435  0.15120632  1
  O  O12  1  0.28355930  0.02889284  0.24143965  1
  O  O13  1  0.42779944  0.41735050  0.67150425  1
  O  O14  1  0.52679861  0.57054071  0.31691581  1
  O  O15  1  0.71009368  0.95691110  0.76573644  1
  O  O16  1  0.59790523  0.30076939  0.82606061  1
  O  O17  1  0.74597281  0.95658629  0.05134826  1
  O  O18  1  0.62137312  0.89808792  0.35072716  1
  O  O19  1  0.64623299  0.37010788  0.09300706  1
  O  O20  1  0.69471220  0.23992580  0.58600971  1
  O  O21  1  0.64246888  0.28487012  0.30892962  1
  O  O22  1  0.79487815  0.63310101  0.64232917  1
  O  O23  1  0.74163810  0.61548540  0.93755971  1
  O  O24  1  0.95972304  0.81635185  0.84805288  1
  O  O25  1  0.87032959  0.54119820  0.27895277  1
  O  O26  1  0.00747307  0.90050867  0.63085418  1
  O  O27  1  0.99749206  0.20553039  0.94175286  1
loop_
_geom_bond_atom_site_label_1
_geom_bond_atom_site_label_2
_geom_bond_distance
_geom_bond_site_symmetry_2
Mg0 O2 1.934318 1_655
Mg0 O22 1.981683 1_555
Mg0 O20 2.159159 1_555
Mg0 O23 2.207098 1_555
Mg0 O16 2.382989 1_555
Co0 O26 1.834955 1_555
Co0 O7 1.842091 1_555
Co0 O6 1.863278 1_555
Co0 O9 1.915008 1_565
Co1 O0 1.856180 1_555
Co1 O12 1.929000 1_565
Co1 O10 1.942506 1_564
Co1 O11 2.056929 1_555
Co1 O8 2.108737 1_554
Co2 O4 1.842569 1_556
Co2 O19 2.036075 1_556
Co2 O11 2.038314 1_556
Co2 O23 2.071389 1_555
Co2 O16 2.087333 1_555
Co2 O8 2.114817 1_555
Co3 O27 2.003313 1_555
Co3 O15 2.024347 1_545
Co3 O19 2.040102 1_556
Co3 O17 2.060219 1_546
Co3 O16 2.313706 1_555
Co4 O21 1.818129 1_555
Co4 O1 1.819627 1_555
Co4 O18 1.910600 1_545
Co4 O20 2.008205 1_555
O0 P7 1.551083 1_454
O1 P1 1.567125 1_655
O2 P2 1.503527 1_555
O3 P0 1.599288 1_555
O3 P1 1.631638 1_555
O4 P0 1.540758 1_555
O5 P1 1.482810 1_555
O6 P2 1.521546 1_555
O7 P3 1.535464 1_555
O8 P2 1.571161 1_555
O9 P4 1.498888 1_555
O10 P0 1.553671 1_556
O11 P3 1.571894 1_555
O12 P1 1.544522 1_555
O13 P4 1.592929 1_555
O13 P2 1.612433 1_555
O14 P3 1.582567 1_555
O14 P5 1.630061 1_555
O15 P6 1.516100 1_555
O16 P4 1.564678 1_555
O17 P7 1.517235 1_554
O18 P3 1.507678 1_555
O19 P5 1.587859 1_555
O20 P4 1.553674 1_555
O21 P5 1.551377 1_555
O22 P6 1.510587 1_555
O23 P7 1.554942 1_555
O24 P7 1.607521 1_555
O24 P6 1.651058 1_555
O25 P5 1.473136 1_555
O26 P6 1.547193 1_455
O27 P0 1.510697 1_656
