# generated using pymatgen
data_BaAlCo4O7
_symmetry_space_group_name_H-M   'P 1'
_cell_length_a   6.06942951
_cell_length_b   6.06942951
_cell_length_c   9.93359700
_cell_angle_alpha   90.00000000
_cell_angle_beta   90.00000000
_cell_angle_gamma   119.99999465
_symmetry_Int_Tables_number   1
_chemical_formula_structural   BaAlCo4O7
_chemical_formula_sum   'Ba2 Al2 Co8 O14'
_cell_volume   316.90780529
_cell_formula_units_Z   2
loop_
 _symmetry_equiv_pos_site_id
 _symmetry_equiv_pos_as_xyz
  1  'x, y, z'
loop_
 _atom_site_type_symbol
 _atom_site_label
 _atom_site_symmetry_multiplicity
 _atom_site_fract_x
 _atom_site_fract_y
 _atom_site_fract_z
 _atom_site_occupancy
  Ba  Ba0  1  0.66666700  0.33333300  0.50640100  1
  Ba  Ba1  1  0.33333300  0.66666700  0.00640100  1
  Al  Al0  1  0.66666700  0.33333300  0.88086000  1
  Al  Al1  1  0.33333300  0.66666700  0.38086000  1
  Co  Co0  1  0.82198200  0.17801800  0.18895200  1
  Co  Co1  1  0.64396400  0.82198200  0.68895200  1
  Co  Co2  1  0.17801800  0.35603600  0.68895200  1
  Co  Co3  1  0.82198200  0.64396400  0.18895200  1
  Co  Co4  1  0.35603600  0.17801800  0.18895200  1
  Co  Co5  1  0.17801800  0.82198200  0.68895200  1
  Co  Co6  1  0.00000000  0.00000000  0.44436000  1
  Co  Co7  1  0.00000000  0.00000000  0.94436000  1
  O  O0  1  0.81859700  0.18140300  0.99563100  1
  O  O1  1  0.63719500  0.81859700  0.49563100  1
  O  O2  1  0.18140300  0.36280500  0.49563100  1
  O  O3  1  0.81859700  0.63719500  0.99563100  1
  O  O4  1  0.36280500  0.18140300  0.99563100  1
  O  O5  1  0.18140300  0.81859700  0.49563100  1
  O  O6  1  0.00000000  0.00000000  0.74733400  1
  O  O7  1  0.00000000  0.00000000  0.24733400  1
  O  O8  1  0.48615000  0.51385000  0.26709800  1
  O  O9  1  0.97230100  0.48615000  0.76709800  1
  O  O10  1  0.51385000  0.02769900  0.76709800  1
  O  O11  1  0.48615000  0.97230100  0.26709800  1
  O  O12  1  0.51385000  0.48615000  0.76709800  1
  O  O13  1  0.02769900  0.51385000  0.26709800  1
loop_
_geom_bond_atom_site_label_1
_geom_bond_atom_site_label_2
_geom_bond_distance
_geom_bond_site_symmetry_2
Ba0 O2 3.040549 1_555
Ba0 O1 3.040549 1_555
Ba0 O1 3.040549 1_545
Ba0 O2 3.040549 1_655
Ba0 O5 3.040549 1_545
Ba0 O5 3.040549 1_655
Ba0 O13 3.041710 1_655
Ba0 O11 3.041710 1_545
Ba0 O8 3.041717 1_555
Ba0 O12 3.047486 1_555
Ba0 O9 3.047486 1_555
Ba0 O10 3.047486 1_555
Ba1 O4 3.040549 1_554
Ba1 O3 3.040549 1_554
Ba1 O3 3.040549 1_454
Ba1 O4 3.040549 1_564
Ba1 O0 3.040549 1_454
Ba1 O0 3.040549 1_564
Ba1 O10 3.041710 1_564
Ba1 O9 3.041710 1_454
Ba1 O12 3.041717 1_554
Ba1 O8 3.047486 1_555
Ba1 O11 3.047486 1_555
Ba1 O13 3.047486 1_555
Al0 O0 1.962337 1_555
Al0 O3 1.962345 1_555
Al0 O4 1.962345 1_555
Al0 O12 1.964150 1_555
Al0 O9 1.964150 1_555
Al0 O10 1.964150 1_555
Al1 O5 1.962337 1_555
Al1 O1 1.962345 1_555
Al1 O2 1.962345 1_555
Al1 O8 1.964150 1_555
Al1 O11 1.964150 1_555
Al1 O13 1.964150 1_555
Co0 O0 1.920703 1_554
Co0 O13 1.941974 1_655
Co0 O11 1.941974 1_545
Co0 O7 1.959226 1_655
Co1 O1 1.920702 1_555
Co1 O10 1.941969 1_565
Co1 O12 1.941974 1_555
Co1 O6 1.959226 1_665
Co2 O2 1.920702 1_555
Co2 O9 1.941969 1_455
Co2 O12 1.941974 1_555
Co2 O6 1.959226 1_555
Co3 O3 1.920702 1_554
Co3 O13 1.941969 1_655
Co3 O8 1.941974 1_555
Co3 O7 1.959226 1_665
Co4 O4 1.920702 1_554
Co4 O11 1.941969 1_545
Co4 O8 1.941974 1_555
Co4 O7 1.959226 1_555
Co5 O5 1.920703 1_555
Co5 O10 1.941974 1_565
Co5 O9 1.941974 1_455
Co5 O6 1.959226 1_565
Co6 O7 1.957177 1_555
Co6 O2 1.973844 1_555
Co6 O1 1.973844 1_445
Co6 O5 1.973849 1_545
Co7 O6 1.957177 1_555
Co7 O4 1.973844 1_555
Co7 O3 1.973844 1_445
Co7 O0 1.973849 1_455
