# generated using pymatgen
data_Mg14MnFe
_symmetry_space_group_name_H-M   'P 1'
_cell_length_a   6.30399938
_cell_length_b   6.24991866
_cell_length_c   9.87440558
_cell_angle_alpha   90.00000000
_cell_angle_beta   90.00000000
_cell_angle_gamma   119.71662438
_symmetry_Int_Tables_number   1
_chemical_formula_structural   Mg14MnFe
_chemical_formula_sum   'Mg14 Mn1 Fe1'
_cell_volume   337.88208945
_cell_formula_units_Z   1
loop_
 _symmetry_equiv_pos_site_id
 _symmetry_equiv_pos_as_xyz
  1  'x, y, z'
loop_
 _atom_site_type_symbol
 _atom_site_label
 _atom_site_symmetry_multiplicity
 _atom_site_fract_x
 _atom_site_fract_y
 _atom_site_fract_z
 _atom_site_occupancy
  Mg  Mg0  1  0.16915457  0.33457678  0.62500000  1
  Mg  Mg1  1  0.16787254  0.83393577  0.62500000  1
  Mg  Mg2  1  0.66847432  0.33278761  0.12500000  1
  Mg  Mg3  1  0.66481793  0.33292387  0.62500000  1
  Mg  Mg4  1  0.66847432  0.83568572  0.12500000  1
  Mg  Mg5  1  0.66481793  0.83189306  0.62500000  1
  Mg  Mg6  1  0.32397499  0.15954959  0.35856971  1
  Mg  Mg7  1  0.32397499  0.15954959  0.89143029  1
  Mg  Mg8  1  0.32397499  0.66442640  0.35856971  1
  Mg  Mg9  1  0.32397499  0.66442640  0.89143029  1
  Mg  Mg10  1  0.84212925  0.17106512  0.37074454  1
  Mg  Mg11  1  0.84212925  0.17106512  0.87925546  1
  Mg  Mg12  1  0.84457897  0.67228998  0.36706863  1
  Mg  Mg13  1  0.84457897  0.67228998  0.88293137  1
  Mn  Mn0  1  0.16524775  0.33262337  0.12500000  1
  Fe  Fe0  1  0.16182423  0.83091162  0.12500000  1
loop_
_geom_bond_atom_site_label_1
_geom_bond_atom_site_label_2
_geom_bond_distance
_geom_bond_site_symmetry_2
Mg0 Mg10 3.083653 1_455
Mg0 Mg11 3.083653 1_455
Mg0 Mg1 3.124967 1_545
Mg0 Mg1 3.124967 1_555
Mg0 Mg5 3.129795 1_555
Mg0 Mg3 3.129795 1_555
Mg0 Mg5 3.174229 1_445
Mg0 Mg3 3.174230 1_455
Mg0 Mg6 3.182607 1_555
Mg0 Mg7 3.182607 1_555
Mg0 Mg9 3.182613 1_555
Mg0 Mg8 3.182613 1_555
Mg1 Mg12 3.101572 1_455
Mg1 Mg13 3.101572 1_455
Mg1 Mg3 3.139091 1_565
Mg1 Mg5 3.139092 1_555
Mg1 Mg3 3.164947 1_455
Mg1 Mg5 3.164947 1_455
Mg1 Mg8 3.169493 1_555
Mg1 Mg9 3.169493 1_555
Mg1 Mg6 3.169499 1_565
Mg1 Mg7 3.169499 1_565
Mg2 Mg7 2.979392 1_554
Mg2 Mg6 2.979392 1_555
Mg2 Mg4 3.106846 1_545
Mg2 Mn0 3.132168 1_655
Mg2 Mg4 3.143072 1_555
Mg2 Mn0 3.171831 1_555
Mg3 Mg5 3.118517 1_555
Mg3 Mg5 3.131402 1_545
Mg3 Mg6 3.225520 1_555
Mg3 Mg7 3.225520 1_555
Mg4 Mg9 2.979392 1_554
Mg4 Mg8 2.979392 1_555
Mg4 Mn0 3.132168 1_665
Mg4 Mn0 3.171831 1_555
Mg5 Mg8 3.225520 1_555
Mg5 Mg9 3.225520 1_555
Mg6 Mn0 2.926378 1_555
Mg6 Mg8 3.094480 1_545
Mg6 Mg8 3.155439 1_555
Mg7 Mn0 2.926378 1_556
Mg7 Mg9 3.094480 1_545
Mg7 Mg9 3.155439 1_555
Mg8 Mn0 2.926384 1_555
Mg9 Mn0 2.926384 1_556
Mg10 Mn0 3.002975 1_655
Mg10 Mg2 3.034029 1_555
Mg10 Mg4 3.034035 1_545
Mg10 Mg8 3.076217 1_655
Mg10 Mg6 3.076218 1_655
Mg10 Mg3 3.114003 1_555
Mg10 Mg5 3.114009 1_545
Mg10 Mg12 3.125199 1_555
Mg10 Mg12 3.125199 1_545
Mg10 Mg8 3.233607 1_545
Mg10 Mg6 3.233607 1_555
Mg11 Mn0 3.002975 1_656
Mg11 Mg2 3.034029 1_556
Mg11 Mg4 3.034035 1_546
Mg11 Mg9 3.076217 1_655
Mg11 Mg7 3.076218 1_655
Mg11 Mg3 3.114003 1_555
Mg11 Mg5 3.114009 1_545
Mg11 Mg13 3.125199 1_555
Mg11 Mg13 3.125199 1_545
Mg11 Mg9 3.233607 1_545
Mg11 Mg7 3.233607 1_555
Mg12 Mg4 3.018737 1_555
Mg12 Mg2 3.018744 1_555
Mg12 Mg6 3.047929 1_665
Mg12 Mg8 3.047929 1_655
Mg12 Mg5 3.144309 1_555
Mg12 Mg3 3.144315 1_555
Mg12 Mg6 3.258885 1_555
Mg12 Mg8 3.258885 1_555
Mg13 Mg4 3.018737 1_556
Mg13 Mg2 3.018744 1_556
Mg13 Mg7 3.047929 1_665
Mg13 Mg9 3.047929 1_655
Mg13 Mg5 3.144309 1_555
Mg13 Mg3 3.144315 1_555
Mg13 Mg7 3.258885 1_555
Mg13 Mg9 3.258885 1_555
Fe0 Mg9 2.915710 1_554
Fe0 Mg8 2.915710 1_555
Fe0 Mg7 2.915717 1_564
Fe0 Mg6 2.915717 1_565
Fe0 Mg12 2.954705 1_455
Fe0 Mg13 2.954705 1_454
Fe0 Mg2 3.124976 1_455
Fe0 Mg4 3.124976 1_455
Fe0 Mn0 3.125015 1_565
Fe0 Mn0 3.125016 1_555
Fe0 Mg2 3.179236 1_565
Fe0 Mg4 3.179237 1_555
