# generated using pymatgen
data_Ca(Al4Co)2
_symmetry_space_group_name_H-M   'P 1'
_cell_length_a   3.93297335
_cell_length_b   12.37181863
_cell_length_c   14.35666571
_cell_angle_alpha   90.00000000
_cell_angle_beta   90.00000000
_cell_angle_gamma   90.00000000
_symmetry_Int_Tables_number   1
_chemical_formula_structural   Ca(Al4Co)2
_chemical_formula_sum   'Ca4 Al32 Co8'
_cell_volume   698.56711335
_cell_formula_units_Z   4
loop_
 _symmetry_equiv_pos_site_id
 _symmetry_equiv_pos_as_xyz
  1  'x, y, z'
loop_
 _atom_site_type_symbol
 _atom_site_label
 _atom_site_symmetry_multiplicity
 _atom_site_fract_x
 _atom_site_fract_y
 _atom_site_fract_z
 _atom_site_occupancy
  Ca  Ca0  1  0.50000000  0.15887088  0.68106943  1
  Ca  Ca1  1  0.50000000  0.84112912  0.31893057  1
  Ca  Ca2  1  0.50000000  0.65887088  0.81893057  1
  Ca  Ca3  1  0.50000000  0.34112912  0.18106943  1
  Al  Al0  1  0.00000000  0.73551848  0.17313766  1
  Al  Al1  1  0.50000000  0.40401491  0.74537268  1
  Al  Al2  1  0.50000000  0.16101041  0.95491425  1
  Al  Al3  1  0.00000000  0.52636496  0.13306801  1
  Al  Al4  1  0.50000000  0.50000000  0.00000000  1
  Al  Al5  1  0.50000000  0.09598509  0.24537268  1
  Al  Al6  1  0.00000000  0.45285654  0.32079381  1
  Al  Al7  1  0.50000000  0.33898959  0.45491425  1
  Al  Al8  1  0.50000000  0.90401491  0.75462732  1
  Al  Al9  1  0.00000000  0.02636496  0.36693199  1
  Al  Al10  1  0.00000000  0.16806904  0.50669962  1
  Al  Al11  1  0.00000000  0.15995753  0.11883474  1
  Al  Al12  1  0.00000000  0.23551848  0.32686234  1
  Al  Al13  1  0.00000000  0.83193096  0.49330038  1
  Al  Al14  1  0.50000000  0.83898959  0.04508575  1
  Al  Al15  1  0.00000000  0.97363504  0.63306801  1
  Al  Al16  1  0.00000000  0.76448152  0.67313766  1
  Al  Al17  1  0.00000000  0.47363504  0.86693199  1
  Al  Al18  1  0.00000000  0.65995753  0.38116526  1
  Al  Al19  1  0.00000000  0.50000000  0.50000000  1
  Al  Al20  1  0.00000000  0.84004247  0.88116526  1
  Al  Al21  1  0.00000000  0.26448152  0.82686234  1
  Al  Al22  1  0.00000000  0.95285654  0.17920619  1
  Al  Al23  1  0.00000000  0.34004247  0.61883474  1
  Al  Al24  1  0.50000000  0.59598509  0.25462732  1
  Al  Al25  1  0.00000000  0.66806904  0.99330038  1
  Al  Al26  1  0.00000000  0.33193096  0.00669962  1
  Al  Al27  1  0.50000000  0.66101041  0.54508575  1
  Al  Al28  1  0.00000000  0.00000000  0.00000000  1
  Al  Al29  1  0.00000000  0.54714346  0.67920619  1
  Al  Al30  1  0.00000000  0.04714346  0.82079381  1
  Al  Al31  1  0.50000000  0.00000000  0.50000000  1
  Co  Co0  1  0.50000000  0.85051734  0.59845133  1
  Co  Co1  1  0.50000000  0.03447050  0.09274529  1
  Co  Co2  1  0.50000000  0.14948266  0.40154867  1
  Co  Co3  1  0.50000000  0.96552950  0.90725471  1
  Co  Co4  1  0.50000000  0.53447050  0.40725471  1
  Co  Co5  1  0.50000000  0.46552950  0.59274529  1
  Co  Co6  1  0.50000000  0.64948266  0.09845133  1
  Co  Co7  1  0.50000000  0.35051734  0.90154867  1
loop_
_geom_bond_atom_site_label_1
_geom_bond_atom_site_label_2
_geom_bond_distance
_geom_bond_site_symmetry_2
Al0 Co6 2.479873 1_455
Al0 Co6 2.479873 1_555
Al0 Al3 2.650784 1_555
Al0 Al22 2.690278 1_555
Al0 Al25 2.713368 1_554
Al0 Ca1 3.155207 1_555
Al0 Ca1 3.155207 1_455
Al1 Co5 2.319621 1_555
Al1 Co7 2.337814 1_555
Al1 Al17 2.766700 1_555
Al1 Al17 2.766700 1_655
Al1 Al23 2.791726 1_655
Al1 Al23 2.791726 1_555
Al1 Al29 2.811588 1_555
Al1 Al29 2.811588 1_655
Al1 Ca0 3.170269 1_555
Al1 Ca2 3.325183 1_555
Al2 Co7 2.466553 1_555
Al2 Co3 2.513383 1_545
Al2 Co1 2.523194 1_556
Al2 Al26 2.981834 1_556
Al2 Al26 2.981834 1_656
Al3 Co6 2.536566 1_555
Al3 Co6 2.536566 1_455
Al3 Al4 2.761004 1_555
Al3 Al4 2.761004 1_455
Al3 Al6 2.844419 1_555
Al3 Ca3 3.097401 1_455
Al3 Ca3 3.097401 1_555
Al4 Co7 2.327653 1_554
Al4 Co6 2.327653 1_555
Al4 Ca3 3.258980 1_555
Al4 Ca2 3.258980 1_554
Al5 Co1 2.319621 1_555
Al5 Co2 2.337814 1_555
Al5 Al9 2.766700 1_655
Al5 Al9 2.766700 1_555
Al5 Ca3 3.170269 1_555
Al5 Ca1 3.325183 1_545
Al6 Co4 2.535230 1_555
Al6 Co4 2.535230 1_455
Al6 Ca3 3.130764 1_455
Al6 Ca3 3.130764 1_555
Al7 Co2 2.466553 1_555
Al7 Co4 2.513383 1_555
Al7 Co5 2.523194 1_555
Al8 Co3 2.319621 1_555
Al8 Co0 2.337814 1_555
Al8 Ca2 3.170269 1_555
Al8 Ca0 3.325183 1_565
Al9 Co2 2.536566 1_555
Al9 Co2 2.536566 1_455
Al9 Ca1 3.097401 1_545
Al9 Ca1 3.097401 1_445
Al10 Co2 2.489757 1_555
Al10 Co2 2.489757 1_455
Al10 Al9 2.664568 1_555
Al10 Al23 2.668055 1_555
Al10 Al12 2.713368 1_555
Al10 Al31 2.863545 1_555
Al10 Al31 2.863545 1_455
Al10 Al7 2.981834 1_555
Al10 Al7 2.981834 1_455
Al10 Al15 3.012950 1_545
Al10 Ca0 3.185416 1_455
Al10 Ca0 3.185416 1_555
Al11 Co1 2.533304 1_455
Al11 Co1 2.533304 1_555
Al11 Al28 2.612849 1_555
Al11 Al26 2.668055 1_555
Al11 Al22 2.704843 1_545
Al11 Al5 2.791726 1_455
Al11 Al5 2.791726 1_555
Al11 Ca3 3.112773 1_455
Al11 Ca3 3.112773 1_555
Al12 Co2 2.479873 1_455
Al12 Co2 2.479873 1_555
Al12 Al9 2.650784 1_555
Al12 Al6 2.690278 1_555
Al12 Ca3 3.155207 1_455
Al12 Ca3 3.155207 1_555
Al13 Co0 2.489757 1_455
Al13 Co0 2.489757 1_555
Al13 Al15 2.664568 1_555
Al13 Al18 2.668055 1_555
Al13 Al16 2.713368 1_555
Al13 Al31 2.863545 1_565
Al13 Al31 2.863545 1_465
Al13 Al27 2.981834 1_555
Al13 Al27 2.981834 1_455
Al13 Al9 3.012950 1_565
Al13 Ca1 3.185416 1_555
Al13 Ca1 3.185416 1_455
Al14 Co6 2.466553 1_555
Al14 Co1 2.513383 1_565
Al14 Co3 2.523194 1_554
Al14 Al25 2.981834 1_554
Al14 Al25 2.981834 1_654
Al15 Co0 2.536566 1_455
Al15 Co0 2.536566 1_555
Al15 Al16 2.650784 1_555
Al15 Al31 2.761004 1_565
Al15 Al31 2.761004 1_465
Al15 Al8 2.766700 1_555
Al15 Al8 2.766700 1_455
Al15 Al30 2.844419 1_565
Al15 Ca0 3.097401 1_565
Al15 Ca0 3.097401 1_465
Al16 Co0 2.479873 1_555
Al16 Co0 2.479873 1_455
Al16 Al29 2.690278 1_555
Al16 Ca2 3.155207 1_455
Al16 Ca2 3.155207 1_555
Al17 Co7 2.536566 1_455
Al17 Co7 2.536566 1_555
Al17 Al21 2.650784 1_555
Al17 Al26 2.664568 1_556
Al17 Al4 2.761004 1_456
Al17 Al4 2.761004 1_556
Al17 Al29 2.844419 1_555
Al17 Al25 3.012950 1_555
Al17 Ca2 3.097401 1_455
Al17 Ca2 3.097401 1_555
Al18 Co4 2.533304 1_455
Al18 Co4 2.533304 1_555
Al18 Al19 2.612849 1_555
Al18 Al6 2.704843 1_555
Al18 Al24 2.791726 1_455
Al18 Al24 2.791726 1_555
Al18 Ca1 3.112773 1_455
Al18 Ca1 3.112773 1_555
Al19 Co4 2.412855 1_455
Al19 Co4 2.412855 1_555
Al19 Co5 2.412855 1_455
Al19 Co5 2.412855 1_555
Al19 Al23 2.612849 1_555
Al19 Al6 2.638086 1_555
Al19 Al29 2.638086 1_555
Al20 Co3 2.533304 1_455
Al20 Co3 2.533304 1_555
Al20 Al28 2.612849 1_566
Al20 Al25 2.668055 1_555
Al20 Al30 2.704843 1_565
Al20 Al8 2.791726 1_555
Al20 Al8 2.791726 1_455
Al20 Ca2 3.112773 1_455
Al20 Ca2 3.112773 1_555
Al21 Co7 2.479873 1_555
Al21 Co7 2.479873 1_455
Al21 Al30 2.690278 1_555
Al21 Al26 2.713368 1_556
Al21 Ca0 3.155207 1_555
Al21 Ca0 3.155207 1_455
Al22 Co1 2.535230 1_465
Al22 Co1 2.535230 1_565
Al22 Al28 2.638086 1_565
Al22 Al5 2.811588 1_565
Al22 Al5 2.811588 1_465
Al22 Al9 2.844419 1_565
Al22 Ca1 3.130764 1_555
Al22 Ca1 3.130764 1_455
Al23 Co5 2.533304 1_455
Al23 Co5 2.533304 1_555
Al23 Al29 2.704843 1_555
Al23 Ca0 3.112773 1_555
Al23 Ca0 3.112773 1_455
Al24 Co4 2.319621 1_555
Al24 Co6 2.337814 1_555
Al24 Al3 2.766700 1_555
Al24 Al3 2.766700 1_655
Al24 Al6 2.811588 1_655
Al24 Al6 2.811588 1_555
Al24 Ca1 3.170269 1_555
Al24 Ca3 3.325183 1_555
Al25 Co6 2.489757 1_556
Al25 Co6 2.489757 1_456
Al25 Al3 2.664568 1_556
Al25 Al4 2.863545 1_456
Al25 Al4 2.863545 1_556
Al25 Ca2 3.185416 1_455
Al25 Ca2 3.185416 1_555
Al26 Co7 2.489757 1_554
Al26 Co7 2.489757 1_454
Al26 Al4 2.863545 1_455
Al26 Al4 2.863545 1_555
Al26 Al3 3.012950 1_555
Al26 Ca3 3.185416 1_455
Al26 Ca3 3.185416 1_555
Al27 Co0 2.466553 1_555
Al27 Co5 2.513383 1_555
Al27 Co4 2.523194 1_555
Al28 Co1 2.412855 1_455
Al28 Co1 2.412855 1_555
Al28 Co3 2.412855 1_444
Al28 Co3 2.412855 1_544
Al28 Al30 2.638086 1_554
Al29 Co5 2.535230 1_455
Al29 Co5 2.535230 1_555
Al29 Ca2 3.130764 1_455
Al29 Ca2 3.130764 1_555
Al30 Co3 2.535230 1_545
Al30 Co3 2.535230 1_445
Al30 Al8 2.811588 1_445
Al30 Al8 2.811588 1_545
Al30 Ca0 3.130764 1_455
Al30 Ca0 3.130764 1_555
Al31 Co2 2.327653 1_555
Al31 Co0 2.327653 1_545
Al31 Al9 2.761004 1_655
Al31 Al9 2.761004 1_555
Al31 Ca1 3.258980 1_545
Al31 Ca0 3.258980 1_555
