# generated using pymatgen
data_CaV2O4
_symmetry_space_group_name_H-M   'P 1'
_cell_length_a   6.30661184
_cell_length_b   6.30661184
_cell_length_c   6.30661184
_cell_angle_alpha   60.00000000
_cell_angle_beta   60.00000000
_cell_angle_gamma   60.00000000
_symmetry_Int_Tables_number   1
_chemical_formula_structural   CaV2O4
_chemical_formula_sum   'Ca2 V4 O8'
_cell_volume   177.36719917
_cell_formula_units_Z   2
loop_
 _symmetry_equiv_pos_site_id
 _symmetry_equiv_pos_as_xyz
  1  'x, y, z'
loop_
 _atom_site_type_symbol
 _atom_site_label
 _atom_site_symmetry_multiplicity
 _atom_site_fract_x
 _atom_site_fract_y
 _atom_site_fract_z
 _atom_site_occupancy
  Ca  Ca0  1  0.00000000  0.00000000  0.00000000  1
  Ca  Ca1  1  0.25000000  0.25000000  0.25000000  1
  V  V0  1  0.62500000  0.62500000  0.62500000  1
  V  V1  1  0.12500000  0.62500000  0.62500000  1
  V  V2  1  0.62500000  0.12500000  0.62500000  1
  V  V3  1  0.62500000  0.62500000  0.12500000  1
  O  O0  1  0.82189800  0.39270100  0.39270100  1
  O  O1  1  0.39270100  0.82189800  0.39270100  1
  O  O2  1  0.39270100  0.39270100  0.82189800  1
  O  O3  1  0.85729900  0.85729900  0.85729900  1
  O  O4  1  0.85729900  0.85729900  0.42810200  1
  O  O5  1  0.85729900  0.42810200  0.85729900  1
  O  O6  1  0.39270100  0.39270100  0.39270100  1
  O  O7  1  0.42810200  0.85729900  0.85729900  1
loop_
_geom_bond_atom_site_label_1
_geom_bond_atom_site_label_2
_geom_bond_distance
_geom_bond_site_symmetry_2
Ca0 O4 2.204437 1_445
Ca0 O7 2.204437 1_544
Ca0 O5 2.204437 1_454
Ca0 O3 2.204442 1_444
Ca1 O2 2.204437 1_554
Ca1 O1 2.204437 1_545
Ca1 O0 2.204437 1_455
Ca1 O6 2.204442 1_555
O0 V0 2.083845 1_555
O0 V3 2.083850 1_555
O0 V2 2.083850 1_555
O1 V0 2.083845 1_555
O1 V3 2.083850 1_555
O1 V1 2.083850 1_555
O2 V0 2.083845 1_555
O2 V1 2.083850 1_555
O2 V2 2.083850 1_555
O3 V3 2.083846 1_556
O3 V1 2.083846 1_655
O3 V2 2.083846 1_565
O4 V0 2.083845 1_555
O4 V1 2.083850 1_655
O4 V2 2.083850 1_565
O5 V0 2.083845 1_555
O5 V1 2.083850 1_655
O5 V3 2.083850 1_556
O6 V1 2.083846 1_555
O6 V3 2.083846 1_555
O6 V2 2.083846 1_555
O7 V0 2.083845 1_555
O7 V3 2.083850 1_556
O7 V2 2.083850 1_565
