# generated using pymatgen
data_Fe3Co3Ge2
_symmetry_space_group_name_H-M   'P 1'
_cell_length_a   7.00850678
_cell_length_b   7.00850678
_cell_length_c   7.00850654
_cell_angle_alpha   33.54521147
_cell_angle_beta   33.54521147
_cell_angle_gamma   33.54520826
_symmetry_Int_Tables_number   1
_chemical_formula_structural   Fe3Co3Ge2
_chemical_formula_sum   'Fe3 Co3 Ge2'
_cell_volume   93.63201516
_cell_formula_units_Z   1
loop_
 _symmetry_equiv_pos_site_id
 _symmetry_equiv_pos_as_xyz
  1  'x, y, z'
loop_
 _atom_site_type_symbol
 _atom_site_label
 _atom_site_symmetry_multiplicity
 _atom_site_fract_x
 _atom_site_fract_y
 _atom_site_fract_z
 _atom_site_occupancy
  Fe  Fe0  1  0.87806200  0.87806200  0.87806200  1
  Fe  Fe1  1  0.12271300  0.12271300  0.12271300  1
  Fe  Fe2  1  0.62712100  0.62712100  0.62712100  1
  Co  Co0  1  0.75637900  0.75637900  0.75637900  1
  Co  Co1  1  0.24473400  0.24473400  0.24473400  1
  Co  Co2  1  0.37196300  0.37196300  0.37196300  1
  Ge  Ge0  1  0.00102800  0.00102800  0.00102800  1
  Ge  Ge1  1  0.49800000  0.49800000  0.49800000  1
loop_
_geom_bond_atom_site_label_1
_geom_bond_atom_site_label_2
_geom_bond_distance
_geom_bond_site_symmetry_2
Fe0 Ge0 2.437668 1_666
Fe0 Ge1 2.512365 1_565
Fe0 Ge1 2.512365 1_655
Fe0 Ge1 2.512365 1_556
Fe1 Ge0 2.412273 1_555
Fe1 Ge1 2.479025 1_455
Fe1 Ge1 2.479025 1_545
Fe1 Ge1 2.479025 1_554
Fe2 Ge0 2.469981 1_656
Fe2 Ge0 2.469981 1_566
Fe2 Ge0 2.469982 1_665
Fe2 Ge1 2.559684 1_555
Co0 Fe0 2.412234 1_555
Co0 Fe1 2.425251 1_566
Co0 Fe1 2.425251 1_656
Co0 Fe1 2.425252 1_665
Co0 Co2 2.545455 1_565
Co0 Co2 2.545455 1_655
Co0 Co2 2.545455 1_556
Co0 Fe2 2.562400 1_555
Co0 Ge1 2.767983 1_556
Co0 Ge1 2.767983 1_655
Co0 Ge1 2.767983 1_565
Co0 Ge0 2.923128 1_665
Co0 Ge0 2.923128 1_656
Co0 Ge0 2.923128 1_566
Co1 Fe1 2.418934 1_555
Co1 Fe0 2.427067 1_454
Co1 Fe0 2.427067 1_544
Co1 Fe0 2.427068 1_445
Co1 Co2 2.522177 1_555
Co1 Fe2 2.529722 1_545
Co1 Fe2 2.529722 1_455
Co1 Fe2 2.529722 1_554
Co1 Ge1 2.823689 1_554
Co1 Ge1 2.823689 1_545
Co1 Ge1 2.823689 1_455
Co1 Ge0 2.934409 1_556
Co1 Ge0 2.934409 1_565
Co1 Ge0 2.934409 1_655
Co2 Ge0 2.451429 1_565
Co2 Ge0 2.451429 1_655
Co2 Ge0 2.451429 1_556
Co2 Ge1 2.498547 1_555
Co2 Fe2 2.802777 1_554
Co2 Fe2 2.802778 1_545
Co2 Fe2 2.802778 1_455
Co2 Fe1 2.869197 1_556
Co2 Fe1 2.869197 1_655
Co2 Fe1 2.869197 1_565
