# generated using pymatgen
data_MgVSiO5
_symmetry_space_group_name_H-M   'P 1'
_cell_length_a   5.29207726
_cell_length_b   5.29207726
_cell_length_c   6.98676375
_cell_angle_alpha   75.61088807
_cell_angle_beta   75.61088807
_cell_angle_gamma   104.41475573
_symmetry_Int_Tables_number   1
_chemical_formula_structural   MgVSiO5
_chemical_formula_sum   'Mg2 V2 Si2 O10'
_cell_volume   173.23011011
_cell_formula_units_Z   2
loop_
 _symmetry_equiv_pos_site_id
 _symmetry_equiv_pos_as_xyz
  1  'x, y, z'
loop_
 _atom_site_type_symbol
 _atom_site_label
 _atom_site_symmetry_multiplicity
 _atom_site_fract_x
 _atom_site_fract_y
 _atom_site_fract_z
 _atom_site_occupancy
  Mg  Mg0  1  0.82649600  0.16750300  0.76569000  1
  Mg  Mg1  1  0.16750300  0.82649600  0.26569000  1
  V  V0  1  0.50071900  0.49953900  0.50829600  1
  V  V1  1  0.49953900  0.50071900  0.00829600  1
  Si  Si0  1  0.17482100  0.82621100  0.75560700  1
  Si  Si1  1  0.82621100  0.17482100  0.25560700  1
  O  O0  1  0.40283400  0.83105100  0.87736900  1
  O  O1  1  0.16488400  0.59281500  0.63611400  1
  O  O2  1  0.59281500  0.16488400  0.13611400  1
  O  O3  1  0.83105100  0.40283400  0.37736900  1
  O  O4  1  0.77112900  0.87289200  0.42093600  1
  O  O5  1  0.13376600  0.22144600  0.09786700  1
  O  O6  1  0.22144600  0.13376600  0.59786700  1
  O  O7  1  0.87289200  0.77112900  0.92093600  1
  O  O8  1  0.41863900  0.58501600  0.25588300  1
  O  O9  1  0.58501600  0.41863900  0.75588300  1
loop_
_geom_bond_atom_site_label_1
_geom_bond_atom_site_label_2
_geom_bond_distance
_geom_bond_site_symmetry_2
Mg0 O9 2.061065 1_555
Mg0 O6 2.201605 1_655
Mg0 O7 2.212432 1_545
Mg0 O0 2.293116 1_545
Mg0 O1 2.295042 1_655
Mg0 O2 2.571094 1_556
Mg0 O3 2.680622 1_555
Mg1 O8 2.061065 1_555
Mg1 O5 2.201605 1_565
Mg1 O4 2.212432 1_455
Mg1 O3 2.293116 1_455
Mg1 O2 2.295042 1_565
Mg1 O1 2.571094 1_555
Mg1 O0 2.680622 1_554
O0 Si0 1.638920 1_555
O0 V1 2.009479 1_556
O1 Si0 1.651473 1_555
O1 V0 2.016654 1_555
O2 Si1 1.651473 1_555
O2 V1 2.016654 1_555
O3 Si1 1.638920 1_555
O3 V0 2.009479 1_555
O4 Si1 1.629650 1_565
O4 V0 1.970535 1_555
O5 Si1 1.642547 1_455
O5 V1 1.958762 1_555
O6 Si0 1.642547 1_545
O6 V0 1.958762 1_555
O7 Si0 1.629650 1_655
O7 V1 1.970535 1_556
O8 V1 1.866861 1_555
O8 V0 1.893537 1_555
O9 V0 1.866861 1_555
O9 V1 1.893537 1_556
