# generated using pymatgen
data_ZrV2
_symmetry_space_group_name_H-M   'P 1'
_cell_length_a   5.20819300
_cell_length_b   5.20819373
_cell_length_c   8.45714000
_cell_angle_alpha   90.00000000
_cell_angle_beta   90.00000000
_cell_angle_gamma   120.00000172
_symmetry_Int_Tables_number   1
_chemical_formula_structural   ZrV2
_chemical_formula_sum   'Zr4 V8'
_cell_volume   198.66819411
_cell_formula_units_Z   4
loop_
 _symmetry_equiv_pos_site_id
 _symmetry_equiv_pos_as_xyz
  1  'x, y, z'
loop_
 _atom_site_type_symbol
 _atom_site_label
 _atom_site_symmetry_multiplicity
 _atom_site_fract_x
 _atom_site_fract_y
 _atom_site_fract_z
 _atom_site_occupancy
  Zr  Zr0  1  0.33333300  0.66666700  0.43593900  1
  Zr  Zr1  1  0.66666700  0.33333300  0.56406100  1
  Zr  Zr2  1  0.66666700  0.33333300  0.93593900  1
  Zr  Zr3  1  0.33333300  0.66666700  0.06406100  1
  V  V0  1  0.00000000  0.00000000  0.50000000  1
  V  V1  1  0.00000000  0.00000000  0.00000000  1
  V  V2  1  0.83117000  0.16883000  0.25000000  1
  V  V3  1  0.83117000  0.66234000  0.25000000  1
  V  V4  1  0.33766000  0.16883000  0.25000000  1
  V  V5  1  0.16883000  0.83117000  0.75000000  1
  V  V6  1  0.16883000  0.33766000  0.75000000  1
  V  V7  1  0.66234000  0.83117000  0.75000000  1
loop_
_geom_bond_atom_site_label_1
_geom_bond_atom_site_label_2
_geom_bond_distance
_geom_bond_site_symmetry_2
Zr0 Zr3 3.145024 1_555
Zr0 Zr1 3.196218 1_455
Zr0 Zr1 3.196219 1_565
Zr0 Zr1 3.196227 1_555
Zr1 Zr2 3.145024 1_555
Zr2 Zr3 3.196218 1_656
Zr2 Zr3 3.196219 1_546
Zr2 Zr3 3.196227 1_556
V0 V7 2.605706 1_445
V0 V4 2.605706 1_555
V0 V5 2.605706 1_545
V0 V2 2.605706 1_455
V0 V3 2.605706 1_445
V0 V6 2.605706 1_555
V0 Zr0 3.055366 1_545
V0 Zr1 3.055366 1_455
V0 Zr0 3.055370 1_445
V0 Zr1 3.055370 1_555
V0 Zr0 3.055370 1_555
V0 Zr1 3.055370 1_445
V1 V7 2.605706 1_444
V1 V4 2.605706 1_555
V1 V5 2.605706 1_544
V1 V2 2.605706 1_455
V1 V3 2.605706 1_445
V1 V6 2.605706 1_554
V1 Zr3 3.055366 1_545
V1 Zr2 3.055366 1_454
V1 Zr3 3.055370 1_445
V1 Zr2 3.055370 1_554
V1 Zr3 3.055370 1_555
V1 Zr2 3.055370 1_444
V2 V4 2.570295 1_555
V2 V3 2.570296 1_555
V2 V4 2.637898 1_655
V2 V3 2.637898 1_545
V2 Zr0 3.042120 1_655
V2 Zr3 3.042120 1_655
V2 Zr3 3.042120 1_545
V2 Zr0 3.042120 1_545
V2 Zr2 3.042495 1_554
V2 Zr1 3.042495 1_555
V3 V4 2.570295 1_555
V3 V4 2.637898 1_665
V3 Zr0 3.042118 1_655
V3 Zr3 3.042118 1_655
V3 Zr3 3.042122 1_555
V3 Zr0 3.042122 1_555
V3 Zr1 3.042497 1_555
V3 Zr2 3.042497 1_554
V4 Zr3 3.042118 1_545
V4 Zr0 3.042118 1_545
V4 Zr3 3.042123 1_555
V4 Zr0 3.042123 1_555
V4 Zr2 3.042497 1_554
V4 Zr1 3.042497 1_555
V5 V7 2.570295 1_555
V5 V6 2.570296 1_555
V5 V7 2.637898 1_455
V5 V6 2.637898 1_565
V5 Zr1 3.042120 1_455
V5 Zr2 3.042120 1_455
V5 Zr1 3.042120 1_565
V5 Zr2 3.042120 1_565
V5 Zr3 3.042495 1_556
V5 Zr0 3.042495 1_555
V6 V7 2.570295 1_555
V6 V7 2.637898 1_445
V6 Zr1 3.042118 1_455
V6 Zr2 3.042118 1_455
V6 Zr2 3.042122 1_555
V6 Zr1 3.042122 1_555
V6 Zr0 3.042497 1_555
V6 Zr3 3.042497 1_556
V7 Zr1 3.042118 1_565
V7 Zr2 3.042118 1_565
V7 Zr2 3.042123 1_555
V7 Zr1 3.042123 1_555
V7 Zr3 3.042497 1_556
V7 Zr0 3.042497 1_555
