# generated using pymatgen
data_LiMnO2
_symmetry_space_group_name_H-M   'P 1'
_cell_length_a   2.81654925
_cell_length_b   5.19752375
_cell_length_c   9.88918575
_cell_angle_alpha   90.00000000
_cell_angle_beta   90.00000000
_cell_angle_gamma   90.00000000
_symmetry_Int_Tables_number   1
_chemical_formula_structural   LiMnO2
_chemical_formula_sum   'Li4 Mn4 O8'
_cell_volume   144.76859735
_cell_formula_units_Z   4
loop_
 _symmetry_equiv_pos_site_id
 _symmetry_equiv_pos_as_xyz
  1  'x, y, z'
loop_
 _atom_site_type_symbol
 _atom_site_label
 _atom_site_symmetry_multiplicity
 _atom_site_fract_x
 _atom_site_fract_y
 _atom_site_fract_z
 _atom_site_occupancy
  Li  Li0  1  0.25000000  0.10344513  0.60497923  1
  Li  Li1  1  0.75000000  0.89655487  0.39502077  1
  Li  Li2  1  0.25000000  0.39655487  0.10497923  1
  Li  Li3  1  0.75000000  0.60344513  0.89502077  1
  Mn  Mn0  1  0.75000000  0.60714441  0.63235714  1
  Mn  Mn1  1  0.25000000  0.39285559  0.36764286  1
  Mn  Mn2  1  0.25000000  0.10714441  0.86764286  1
  Mn  Mn3  1  0.75000000  0.89285559  0.13235714  1
  O  O0  1  0.25000000  0.45222501  0.73761128  1
  O  O1  1  0.75000000  0.54777499  0.26238872  1
  O  O2  1  0.75000000  0.95222501  0.76238872  1
  O  O3  1  0.25000000  0.04777499  0.23761128  1
  O  O4  1  0.25000000  0.74659783  0.52000301  1
  O  O5  1  0.75000000  0.25340217  0.47999699  1
  O  O6  1  0.25000000  0.75340217  0.02000301  1
  O  O7  1  0.75000000  0.24659783  0.97999699  1
loop_
_geom_bond_atom_site_label_1
_geom_bond_atom_site_label_2
_geom_bond_distance
_geom_bond_site_symmetry_2
Li0 O5 2.029369 1_555
Li0 O5 2.029369 1_455
Li0 O4 2.036216 1_545
Li0 O0 2.237536 1_555
Li0 O2 2.241462 1_545
Li0 O2 2.241462 1_445
Li1 O4 2.029369 1_555
Li1 O4 2.029369 1_655
Li1 O5 2.036216 1_565
Li1 O1 2.237536 1_555
Li1 O3 2.241462 1_665
Li1 O3 2.241462 1_565
Li2 O7 2.029369 1_454
Li2 O7 2.029369 1_554
Li2 O6 2.036216 1_555
Li2 O3 2.237536 1_555
Li2 O1 2.241462 1_455
Li2 O1 2.241462 1_555
Li3 O6 2.029369 1_556
Li3 O6 2.029369 1_656
Li3 O7 2.036216 1_555
Li3 O2 2.237536 1_555
Li3 O0 2.241462 1_555
Li3 O0 2.241462 1_655
Mn0 O0 1.927435 1_655
Mn0 O0 1.927435 1_555
Mn0 O4 1.934713 1_655
Mn0 O4 1.934713 1_555
Mn0 O2 2.206905 1_555
Mn0 O5 2.377097 1_555
Mn1 O1 1.927435 1_555
Mn1 O1 1.927435 1_455
Mn1 O5 1.934713 1_455
Mn1 O5 1.934713 1_555
Mn1 O3 2.206905 1_555
Mn1 O4 2.377097 1_555
Mn2 O2 1.927435 1_545
Mn2 O2 1.927435 1_445
Mn2 O7 1.934713 1_455
Mn2 O7 1.934713 1_555
Mn2 O0 2.206905 1_555
Mn2 O6 2.377097 1_546
Mn3 O3 1.927435 1_565
Mn3 O3 1.927435 1_665
Mn3 O6 1.934713 1_555
Mn3 O6 1.934713 1_655
Mn3 O1 2.206905 1_555
Mn3 O7 2.377097 1_564
