# generated using pymatgen
data_In2Ag2GeS6
_symmetry_space_group_name_H-M   'P 1'
_cell_length_a   10.73712615
_cell_length_b   7.60828787
_cell_length_c   7.60828787
_cell_angle_alpha   76.76229582
_cell_angle_beta   68.65000044
_cell_angle_gamma   68.65000044
_symmetry_Int_Tables_number   1
_chemical_formula_structural   In2Ag2GeS6
_chemical_formula_sum   'In4 Ag4 Ge2 S12'
_cell_volume   535.80761015
_cell_formula_units_Z   2
loop_
 _symmetry_equiv_pos_site_id
 _symmetry_equiv_pos_as_xyz
  1  'x, y, z'
loop_
 _atom_site_type_symbol
 _atom_site_label
 _atom_site_symmetry_multiplicity
 _atom_site_fract_x
 _atom_site_fract_y
 _atom_site_fract_z
 _atom_site_occupancy
  In  In0  1  0.52420500  0.52067900  0.67478500  1
  In  In1  1  0.02420500  0.67478500  0.52067900  1
  In  In2  1  0.79871300  0.65331400  0.87101400  1
  In  In3  1  0.29871300  0.87101400  0.65331400  1
  Ag  Ag0  1  0.83062500  0.10449100  0.07328600  1
  Ag  Ag1  1  0.33062500  0.07328600  0.10449100  1
  Ag  Ag2  1  0.00273600  0.12679700  0.58017100  1
  Ag  Ag3  1  0.50273600  0.58017100  0.12679700  1
  Ge  Ge0  1  0.62866900  0.04280200  0.53914000  1
  Ge  Ge1  1  0.12866900  0.53914000  0.04280200  1
  S  S0  1  0.52383100  0.97755800  0.36023800  1
  S  S1  1  0.02383100  0.36023800  0.97755800  1
  S  S2  1  0.72378400  0.36976000  0.84209200  1
  S  S3  1  0.22378400  0.84209200  0.36976000  1
  S  S4  1  0.55370800  0.88997800  0.83338000  1
  S  S5  1  0.05370800  0.83338000  0.88997800  1
  S  S6  1  0.61833800  0.69539900  0.30943300  1
  S  S7  1  0.11833800  0.30943300  0.69539900  1
  S  S8  1  0.35781100  0.40733900  0.00780600  1
  S  S9  1  0.85781100  0.00780600  0.40733900  1
  S  S10  1  0.52974000  0.33809400  0.42038400  1
  S  S11  1  0.02974000  0.42038400  0.33809400  1
loop_
_geom_bond_atom_site_label_1
_geom_bond_atom_site_label_2
_geom_bond_distance
_geom_bond_site_symmetry_2
In0 S10 2.601389 1_555
In0 S2 2.656306 1_555
In0 S8 2.679616 1_556
In0 S6 2.784907 1_555
In1 S11 2.601389 1_555
In1 S3 2.656306 1_555
In1 S9 2.679616 1_465
In1 S7 2.784907 1_555
In2 S2 2.638175 1_555
In2 S4 2.666054 1_555
In2 S1 2.854130 1_655
In3 S3 2.638175 1_555
In3 S5 2.666054 1_555
In3 S0 2.854130 1_555
Ag0 S9 2.571673 1_555
Ag0 S2 2.576998 1_554
Ag0 S5 2.687890 1_644
Ag0 S1 3.132087 1_654
Ag1 S8 2.571673 1_555
Ag1 S3 2.576998 1_545
Ag1 S4 2.687890 1_544
Ag1 S0 3.132087 1_545
Ag2 S11 2.581521 1_555
Ag2 S7 2.616518 1_555
Ag2 S3 2.822440 1_545
Ag2 S9 2.833887 1_455
Ag2 S5 2.911848 1_545
Ag2 S2 3.109479 1_455
Ag3 S10 2.581521 1_555
Ag3 S6 2.616518 1_555
Ag3 S2 2.822440 1_554
Ag3 S8 2.833887 1_555
Ag3 S4 2.911848 1_554
Ag3 S3 3.109479 1_555
Ge0 S9 2.231266 1_555
Ge0 S10 2.241357 1_555
Ge0 S4 2.277872 1_545
Ge0 S0 2.279941 1_545
Ge1 S8 2.231266 1_555
Ge1 S11 2.241357 1_555
Ge1 S5 2.277872 1_554
Ge1 S1 2.279941 1_554
S0 S6 2.072660 1_555
S1 S7 2.072660 1_555
