# generated using pymatgen
data_MgFe(Si2O5)2
_symmetry_space_group_name_H-M   'P 1'
_cell_length_a   7.33303200
_cell_length_b   7.33303200
_cell_length_c   14.90616100
_cell_angle_alpha   90.00000000
_cell_angle_beta   90.00000000
_cell_angle_gamma   90.00000000
_symmetry_Int_Tables_number   1
_chemical_formula_structural   MgFe(Si2O5)2
_chemical_formula_sum   'Mg4 Fe4 Si16 O40'
_cell_volume   801.55433652
_cell_formula_units_Z   4
loop_
 _symmetry_equiv_pos_site_id
 _symmetry_equiv_pos_as_xyz
  1  'x, y, z'
loop_
 _atom_site_type_symbol
 _atom_site_label
 _atom_site_symmetry_multiplicity
 _atom_site_fract_x
 _atom_site_fract_y
 _atom_site_fract_z
 _atom_site_occupancy
  Mg  Mg0  1  0.25000000  0.75000000  0.50000000  1
  Mg  Mg1  1  0.75000000  0.25000000  0.50000000  1
  Mg  Mg2  1  0.75000000  0.25000000  0.00000000  1
  Mg  Mg3  1  0.25000000  0.75000000  0.00000000  1
  Fe  Fe0  1  0.25000000  0.25000000  0.56880400  1
  Fe  Fe1  1  0.75000000  0.75000000  0.93119600  1
  Fe  Fe2  1  0.75000000  0.75000000  0.43119600  1
  Fe  Fe3  1  0.25000000  0.25000000  0.06880400  1
  Si  Si0  1  0.91230500  0.49155100  0.64488900  1
  Si  Si1  1  0.58769500  0.00844900  0.64488900  1
  Si  Si2  1  0.99155100  0.41230500  0.85511100  1
  Si  Si3  1  0.49155100  0.58769500  0.64488900  1
  Si  Si4  1  0.00844900  0.91230500  0.64488900  1
  Si  Si5  1  0.08769500  0.99155100  0.85511100  1
  Si  Si6  1  0.41230500  0.50844900  0.85511100  1
  Si  Si7  1  0.50844900  0.08769500  0.85511100  1
  Si  Si8  1  0.08769500  0.50844900  0.35511100  1
  Si  Si9  1  0.41230500  0.99155100  0.35511100  1
  Si  Si10  1  0.00844900  0.58769500  0.14488900  1
  Si  Si11  1  0.50844900  0.41230500  0.35511100  1
  Si  Si12  1  0.99155100  0.08769500  0.35511100  1
  Si  Si13  1  0.91230500  0.00844900  0.14488900  1
  Si  Si14  1  0.58769500  0.49155100  0.14488900  1
  Si  Si15  1  0.49155100  0.91230500  0.14488900  1
  O  O0  1  0.98220000  0.33684200  0.57540300  1
  O  O1  1  0.51780000  0.16315800  0.57540300  1
  O  O2  1  0.83684200  0.48220000  0.92459700  1
  O  O3  1  0.33684200  0.51780000  0.57540300  1
  O  O4  1  0.16315800  0.98220000  0.57540300  1
  O  O5  1  0.01780000  0.83684200  0.92459700  1
  O  O6  1  0.48220000  0.66315800  0.92459700  1
  O  O7  1  0.66315800  0.01780000  0.92459700  1
  O  O8  1  0.01780000  0.66315800  0.42459700  1
  O  O9  1  0.48220000  0.83684200  0.42459700  1
  O  O10  1  0.16315800  0.51780000  0.07540300  1
  O  O11  1  0.66315800  0.48220000  0.42459700  1
  O  O12  1  0.83684200  0.01780000  0.42459700  1
  O  O13  1  0.98220000  0.16315800  0.07540300  1
  O  O14  1  0.51780000  0.33684200  0.07540300  1
  O  O15  1  0.00076500  0.30771500  0.37520300  1
  O  O16  1  0.33684200  0.98220000  0.07540300  1
  O  O17  1  0.50076500  0.80771500  0.62479700  1
  O  O18  1  0.19228500  0.49923500  0.87520300  1
  O  O19  1  0.69228500  0.50076500  0.62479700  1
  O  O20  1  0.80771500  0.99923500  0.62479700  1
  O  O21  1  0.00076500  0.19228500  0.87520300  1
  O  O22  1  0.49923500  0.30771500  0.87520300  1
  O  O23  1  0.30771500  0.00076500  0.87520300  1
  O  O24  1  0.44576200  0.94576200  0.25000000  1
  O  O25  1  0.55423800  0.44576200  0.25000000  1
  O  O26  1  0.94576200  0.05423900  0.25000000  1
  O  O27  1  0.05423900  0.55423800  0.25000000  1
  O  O28  1  0.55423800  0.05423900  0.75000000  1
  O  O29  1  0.44576200  0.55423800  0.75000000  1
  O  O30  1  0.05423900  0.94576200  0.75000000  1
  O  O31  1  0.94576200  0.44576200  0.75000000  1
  O  O32  1  0.69228500  0.99923500  0.12479700  1
  O  O33  1  0.50076500  0.69228500  0.12479700  1
  O  O34  1  0.99923500  0.80771500  0.12479700  1
  O  O35  1  0.19228500  0.00076500  0.37520300  1
  O  O36  1  0.30771500  0.49923500  0.37520300  1
  O  O37  1  0.80771500  0.50076500  0.12479700  1
  O  O38  1  0.49923500  0.19228500  0.37520300  1
  O  O39  1  0.99923500  0.69228500  0.62479700  1
loop_
_geom_bond_atom_site_label_1
_geom_bond_atom_site_label_2
_geom_bond_distance
_geom_bond_site_symmetry_2
Mg0 O3 2.137318 1_555
Mg0 O9 2.137318 1_555
Mg0 O8 2.137318 1_555
Mg0 O4 2.137318 1_555
Mg0 O17 2.649729 1_555
Mg0 O39 2.649729 1_455
Mg0 O36 2.649729 1_555
Mg0 O35 2.649729 1_565
Mg1 O1 2.137318 1_555
Mg1 O12 2.137318 1_555
Mg1 O11 2.137318 1_555
Mg1 O0 2.137318 1_555
Mg1 O20 2.649729 1_545
Mg1 O19 2.649729 1_555
Mg1 O15 2.649729 1_655
Mg1 O38 2.649729 1_555
Mg2 O14 2.137318 1_555
Mg2 O7 2.137318 1_554
Mg2 O2 2.137318 1_554
Mg2 O13 2.137318 1_555
Mg2 O37 2.649729 1_555
Mg2 O32 2.649729 1_545
Mg2 O22 2.649729 1_554
Mg2 O21 2.649729 1_654
Mg3 O10 2.137318 1_555
Mg3 O6 2.137318 1_554
Mg3 O5 2.137318 1_554
Mg3 O16 2.137318 1_555
Mg3 O34 2.649729 1_455
Mg3 O33 2.649729 1_555
Mg3 O23 2.649729 1_564
Mg3 O18 2.649729 1_554
Fe0 O0 2.066801 1_455
Fe0 O4 2.066801 1_545
Fe0 O1 2.066801 1_555
Fe0 O3 2.066801 1_555
Fe1 O6 2.066801 1_555
Fe1 O2 2.066801 1_555
Fe1 O5 2.066801 1_655
Fe1 O7 2.066801 1_565
Fe2 O9 2.066801 1_555
Fe2 O11 2.066801 1_555
Fe2 O8 2.066801 1_655
Fe2 O12 2.066801 1_565
Fe3 O13 2.066801 1_455
Fe3 O16 2.066801 1_545
Fe3 O14 2.066801 1_555
Fe3 O10 2.066801 1_555
O0 Si0 1.619437 1_555
O1 Si1 1.619437 1_555
O2 Si2 1.619437 1_555
O3 Si3 1.619437 1_555
O4 Si4 1.619437 1_555
O5 Si5 1.619437 1_555
O6 Si6 1.619437 1_555
O7 Si7 1.619437 1_555
O8 Si8 1.619437 1_555
O9 Si9 1.619437 1_555
O10 Si10 1.619437 1_555
O11 Si11 1.619437 1_555
O12 Si12 1.619437 1_555
O13 Si13 1.619437 1_555
O14 Si14 1.619437 1_555
O15 Si8 1.631810 1_555
O15 Si12 1.642366 1_455
O16 Si15 1.619437 1_555
O17 Si1 1.631810 1_565
O17 Si3 1.642366 1_555
O18 Si2 1.631810 1_455
O18 Si6 1.642366 1_555
O19 Si3 1.631810 1_555
O19 Si0 1.642366 1_555
O20 Si4 1.631810 1_655
O20 Si1 1.642366 1_565
O21 Si5 1.631810 1_545
O21 Si2 1.642366 1_455
O22 Si6 1.631810 1_555
O22 Si7 1.642366 1_555
O23 Si7 1.631810 1_555
O23 Si5 1.642366 1_545
O24 Si15 1.621050 1_555
O24 Si9 1.621050 1_555
O25 Si14 1.621050 1_555
O25 Si11 1.621050 1_555
O26 Si12 1.621049 1_555
O26 Si13 1.621051 1_555
O27 Si8 1.621049 1_555
O27 Si10 1.621051 1_555
O28 Si7 1.621049 1_555
O28 Si1 1.621051 1_555
O29 Si6 1.621050 1_555
O29 Si3 1.621050 1_555
O30 Si5 1.621049 1_555
O30 Si4 1.621051 1_555
O31 Si2 1.621050 1_555
O31 Si0 1.621050 1_555
O32 Si15 1.631810 1_555
O32 Si13 1.642366 1_565
O33 Si14 1.631810 1_555
O33 Si15 1.642366 1_555
O34 Si13 1.631810 1_565
O34 Si10 1.642366 1_655
O35 Si12 1.631810 1_455
O35 Si9 1.642366 1_545
O36 Si11 1.631810 1_555
O36 Si8 1.642366 1_555
O37 Si10 1.631810 1_655
O37 Si14 1.642366 1_555
O38 Si9 1.631810 1_545
O38 Si11 1.642366 1_555
O39 Si0 1.631810 1_555
O39 Si4 1.642366 1_655
