# generated using pymatgen
data_NaCd3(RhO2)8
_symmetry_space_group_name_H-M   'P 1'
_cell_length_a   3.11807100
_cell_length_b   9.22677680
_cell_length_c   11.00448767
_cell_angle_alpha   90.25069583
_cell_angle_beta   90.00000000
_cell_angle_gamma   90.00000000
_symmetry_Int_Tables_number   1
_chemical_formula_structural   NaCd3(RhO2)8
_chemical_formula_sum   'Na1 Cd3 Rh8 O16'
_cell_volume   316.59327539
_cell_formula_units_Z   1
loop_
 _symmetry_equiv_pos_site_id
 _symmetry_equiv_pos_as_xyz
  1  'x, y, z'
loop_
 _atom_site_type_symbol
 _atom_site_label
 _atom_site_symmetry_multiplicity
 _atom_site_fract_x
 _atom_site_fract_y
 _atom_site_fract_z
 _atom_site_occupancy
  Na  Na0  1  0.75000000  0.73466000  0.15850700  1
  Cd  Cd0  1  0.75000000  0.23569000  0.33837000  1
  Cd  Cd1  1  0.25000000  0.26443600  0.83903000  1
  Cd  Cd2  1  0.25000000  0.76350000  0.66202200  1
  Rh  Rh0  1  0.75000000  0.09113900  0.59682800  1
  Rh  Rh1  1  0.75000000  0.59269000  0.90330200  1
  Rh  Rh2  1  0.25000000  0.90586900  0.39827900  1
  Rh  Rh3  1  0.25000000  0.41138100  0.09965000  1
  Rh  Rh4  1  0.75000000  0.04957500  0.11749800  1
  Rh  Rh5  1  0.75000000  0.55637600  0.38216300  1
  Rh  Rh6  1  0.25000000  0.94614100  0.88474400  1
  Rh  Rh7  1  0.25000000  0.44624800  0.61586600  1
  O  O0  1  0.75000000  0.08578300  0.93225700  1
  O  O1  1  0.75000000  0.58588500  0.56876800  1
  O  O2  1  0.25000000  0.91501800  0.06909600  1
  O  O3  1  0.25000000  0.41333800  0.42921300  1
  O  O4  1  0.75000000  0.96399200  0.29091300  1
  O  O5  1  0.75000000  0.44821000  0.21499600  1
  O  O6  1  0.25000000  0.04957000  0.71190800  1
  O  O7  1  0.25000000  0.54940800  0.78716000  1
  O  O8  1  0.75000000  0.30401300  0.66355300  1
  O  O9  1  0.75000000  0.80423000  0.83743500  1
  O  O10  1  0.25000000  0.69285000  0.33940600  1
  O  O11  1  0.25000000  0.19482400  0.16541400  1
  O  O12  1  0.75000000  0.38542300  0.96983800  1
  O  O13  1  0.75000000  0.88185200  0.52874700  1
  O  O14  1  0.25000000  0.61517500  0.02573600  1
  O  O15  1  0.25000000  0.11271900  0.46930100  1
loop_
_geom_bond_atom_site_label_1
_geom_bond_atom_site_label_2
_geom_bond_distance
_geom_bond_site_symmetry_2
Na0 O14 2.401388 1_655
Na0 O14 2.401388 1_555
Na0 O2 2.486429 1_555
Na0 O2 2.486429 1_655
Na0 O10 2.559106 1_655
Na0 O10 2.559106 1_555
Na0 O4 2.563880 1_555
Na0 O5 2.717776 1_555
Cd0 O5 2.389893 1_555
Cd0 O15 2.410033 1_555
Cd0 O15 2.410033 1_655
Cd0 O3 2.470288 1_555
Cd0 O3 2.470288 1_655
Cd0 O11 2.487772 1_655
Cd0 O11 2.487772 1_555
Cd0 O4 2.558478 1_545
Cd1 O12 2.394742 1_455
Cd1 O12 2.394742 1_555
Cd1 O6 2.421379 1_555
Cd1 O0 2.493008 1_555
Cd1 O0 2.493008 1_455
Cd1 O8 2.509782 1_555
Cd1 O8 2.509782 1_455
Cd1 O7 2.693056 1_555
Cd2 O13 2.405841 1_455
Cd2 O13 2.405841 1_555
Cd2 O7 2.412939 1_555
Cd2 O1 2.480866 1_455
Cd2 O1 2.480866 1_555
Cd2 O9 2.508316 1_455
Cd2 O9 2.508316 1_555
Cd2 O6 2.693635 1_565
O0 Rh4 2.067119 1_556
O0 Rh6 2.087622 1_545
O0 Rh6 2.087622 1_645
O1 Rh5 2.070283 1_555
O1 Rh7 2.089266 1_655
O1 Rh7 2.089266 1_555
O2 Rh6 2.050166 1_554
O2 Rh4 2.061528 1_565
O2 Rh4 2.061528 1_465
O3 Rh7 2.075030 1_555
O3 Rh5 2.108665 1_555
O3 Rh5 2.108665 1_455
O4 Rh2 2.029705 1_655
O4 Rh2 2.029705 1_555
O4 Rh4 2.068457 1_565
O5 Rh3 2.038007 1_555
O5 Rh3 2.038007 1_655
O5 Rh5 2.089035 1_555
O6 Rh0 2.045901 1_555
O6 Rh0 2.045901 1_455
O6 Rh6 2.131689 1_545
O7 Rh1 2.054046 1_555
O7 Rh1 2.054046 1_455
O7 Rh7 2.107967 1_555
O8 Rh0 2.093893 1_555
O8 Rh7 2.105782 1_655
O8 Rh7 2.105782 1_555
O9 Rh1 2.085045 1_555
O9 Rh6 2.100034 1_555
O9 Rh6 2.100034 1_655
O10 Rh5 2.059803 1_455
O10 Rh5 2.059803 1_555
O10 Rh2 2.066808 1_555
O11 Rh4 2.120973 1_455
O11 Rh4 2.120973 1_555
O11 Rh3 2.128119 1_555
O12 Rh1 2.050771 1_555
O12 Rh3 2.127349 1_656
O12 Rh3 2.127349 1_556
O13 Rh0 2.068228 1_565
O13 Rh2 2.131622 1_655
O13 Rh2 2.131622 1_555
O14 Rh3 2.052009 1_555
O14 Rh1 2.070379 1_454
O14 Rh1 2.070379 1_554
O15 Rh2 2.059218 1_545
O15 Rh0 2.107636 1_555
O15 Rh0 2.107636 1_455
