# generated using pymatgen
data_Ba4Mg(RhO3)4
_symmetry_space_group_name_H-M   'P 1'
_cell_length_a   5.83955000
_cell_length_b   5.83955031
_cell_length_c   10.21105100
_cell_angle_alpha   90.00000000
_cell_angle_beta   90.00000000
_cell_angle_gamma   119.99999827
_symmetry_Int_Tables_number   1
_chemical_formula_structural   Ba4Mg(RhO3)4
_chemical_formula_sum   'Ba4 Mg1 Rh4 O12'
_cell_volume   301.55037304
_cell_formula_units_Z   1
loop_
 _symmetry_equiv_pos_site_id
 _symmetry_equiv_pos_as_xyz
  1  'x, y, z'
loop_
 _atom_site_type_symbol
 _atom_site_label
 _atom_site_symmetry_multiplicity
 _atom_site_fract_x
 _atom_site_fract_y
 _atom_site_fract_z
 _atom_site_occupancy
  Ba  Ba0  1  0.66666700  0.33333300  0.75038700  1
  Ba  Ba1  1  0.33333300  0.66666700  0.25029900  1
  Ba  Ba2  1  0.00000000  0.00000000  0.44670600  1
  Ba  Ba3  1  0.00000000  0.00000000  0.05550000  1
  Mg  Mg0  1  0.00000000  0.00000000  0.75157700  1
  Rh  Rh0  1  0.33333300  0.66666700  0.89161600  1
  Rh  Rh1  1  0.66666700  0.33333300  0.38357600  1
  Rh  Rh2  1  0.66666700  0.33333300  0.11696300  1
  Rh  Rh3  1  0.33333300  0.66666700  0.60841800  1
  O  O0  1  0.18427700  0.36855400  0.74991500  1
  O  O1  1  0.81936200  0.18063800  0.25038900  1
  O  O2  1  0.36127800  0.18063800  0.25038900  1
  O  O3  1  0.63144600  0.81572300  0.74991500  1
  O  O4  1  0.18427700  0.81572300  0.74991500  1
  O  O5  1  0.81936200  0.63872200  0.25038900  1
  O  O6  1  0.50390900  0.00781900  0.50482900  1
  O  O7  1  0.50403000  0.49597000  0.99526900  1
  O  O8  1  0.50403000  0.00806000  0.99526900  1
  O  O9  1  0.50390900  0.49609100  0.50482900  1
  O  O10  1  0.99218100  0.49609100  0.50482900  1
  O  O11  1  0.99194000  0.49597000  0.99526900  1
loop_
_geom_bond_atom_site_label_1
_geom_bond_atom_site_label_2
_geom_bond_distance
_geom_bond_site_symmetry_2
Ba0 O0 2.925204 1_655
Ba0 O3 2.925204 1_545
Ba0 O4 2.925207 1_655
Ba0 O4 2.925207 1_545
Ba0 O0 2.925210 1_555
Ba0 O3 2.925210 1_555
Ba0 O11 2.993065 1_555
Ba0 O8 2.993065 1_555
Ba0 O7 2.993068 1_555
Ba0 O10 2.999503 1_555
Ba0 O6 2.999503 1_555
Ba0 O9 2.999509 1_555
Ba1 O5 2.923185 1_455
Ba1 O2 2.923185 1_565
Ba1 O1 2.923193 1_455
Ba1 O1 2.923193 1_565
Ba1 O5 2.923202 1_555
Ba1 O2 2.923202 1_555
Ba1 O9 3.119530 1_555
Ba1 O10 3.119530 1_455
Ba1 O6 3.119530 1_565
Ba1 O11 3.124458 1_454
Ba1 O8 3.124458 1_564
Ba1 O7 3.124461 1_554
Ba2 O1 2.712291 1_455
Ba2 O2 2.712298 1_555
Ba2 O5 2.712298 1_445
Ba2 O6 2.979743 1_555
Ba2 O10 2.979744 1_445
Ba2 O9 2.979746 1_555
Ba2 O9 2.979746 1_445
Ba2 O6 2.979749 1_455
Ba2 O10 2.979749 1_455
Ba2 Mg0 3.113053 1_555
Ba3 O1 2.701532 1_455
Ba3 O2 2.701539 1_555
Ba3 O5 2.701539 1_445
Ba3 O8 2.984125 1_454
Ba3 O8 2.984125 1_554
Ba3 O11 2.984125 1_454
Ba3 O7 2.984125 1_554
Ba3 O7 2.984125 1_444
Ba3 O11 2.984125 1_444
Ba3 Mg0 3.103373 1_554
Mg0 O4 1.863928 1_545
Mg0 O3 1.863928 1_445
Mg0 O0 1.863928 1_555
O0 Rh3 2.088169 1_555
O0 Rh0 2.089611 1_555
O1 Rh1 2.057856 1_555
O1 Rh2 2.059469 1_555
O2 Rh1 2.057852 1_555
O2 Rh2 2.059466 1_555
O3 Rh3 2.088169 1_555
O3 Rh0 2.089611 1_555
O4 Rh3 2.088166 1_555
O4 Rh0 2.089607 1_555
O5 Rh1 2.057852 1_555
O5 Rh2 2.059466 1_555
O6 Rh3 2.023712 1_545
O6 Rh1 2.059825 1_555
O7 Rh0 2.025097 1_555
O7 Rh2 2.061567 1_556
O8 Rh0 2.025092 1_545
O8 Rh2 2.061563 1_556
O9 Rh3 2.023712 1_555
O9 Rh1 2.059833 1_555
O10 Rh3 2.023712 1_655
O10 Rh1 2.059825 1_555
O11 Rh0 2.025092 1_655
O11 Rh2 2.061563 1_556
