# generated using pymatgen
data_NaLiMg30O31
_symmetry_space_group_name_H-M   'P 1'
_cell_length_a   8.52807600
_cell_length_b   8.54799200
_cell_length_c   8.56608800
_cell_angle_alpha   90.00000000
_cell_angle_beta   90.00000000
_cell_angle_gamma   90.00000000
_symmetry_Int_Tables_number   1
_chemical_formula_structural   NaLiMg30O31
_chemical_formula_sum   'Na1 Li1 Mg30 O31'
_cell_volume   624.45004419
_cell_formula_units_Z   1
loop_
 _symmetry_equiv_pos_site_id
 _symmetry_equiv_pos_as_xyz
  1  'x, y, z'
loop_
 _atom_site_type_symbol
 _atom_site_label
 _atom_site_symmetry_multiplicity
 _atom_site_fract_x
 _atom_site_fract_y
 _atom_site_fract_z
 _atom_site_occupancy
  Na  Na0  1  0.99755100  0.50000000  0.50000000  1
  Li  Li0  1  0.99735700  0.00000000  0.00000000  1
  Mg  Mg0  1  0.98006600  0.00000000  0.50000000  1
  Mg  Mg1  1  0.99862800  0.50000000  0.00000000  1
  Mg  Mg2  1  0.50154700  0.00000000  0.00000000  1
  Mg  Mg3  1  0.52057400  0.00000000  0.50000000  1
  Mg  Mg4  1  0.50142200  0.50000000  0.00000000  1
  Mg  Mg5  1  0.50105200  0.50000000  0.50000000  1
  Mg  Mg6  1  0.00066400  0.24863500  0.24781200  1
  Mg  Mg7  1  0.00066400  0.24863500  0.75218800  1
  Mg  Mg8  1  0.00066400  0.75136500  0.24781200  1
  Mg  Mg9  1  0.00066400  0.75136500  0.75218800  1
  Mg  Mg10  1  0.49953400  0.24957200  0.24989200  1
  Mg  Mg11  1  0.49953400  0.24957200  0.75010800  1
  Mg  Mg12  1  0.49953400  0.75042800  0.24989200  1
  Mg  Mg13  1  0.49953400  0.75042800  0.75010800  1
  Mg  Mg14  1  0.24416600  0.00000000  0.22652900  1
  Mg  Mg15  1  0.24416600  0.00000000  0.77347100  1
  Mg  Mg16  1  0.24777100  0.50000000  0.24741500  1
  Mg  Mg17  1  0.24777100  0.50000000  0.75258500  1
  Mg  Mg18  1  0.75538900  0.00000000  0.24413400  1
  Mg  Mg19  1  0.75538900  0.00000000  0.75586600  1
  Mg  Mg20  1  0.75249400  0.50000000  0.24948400  1
  Mg  Mg21  1  0.75249400  0.50000000  0.75051600  1
  Mg  Mg22  1  0.24649100  0.25061600  0.00000000  1
  Mg  Mg23  1  0.24637100  0.27203500  0.50000000  1
  Mg  Mg24  1  0.24649100  0.74938400  0.00000000  1
  Mg  Mg25  1  0.24637100  0.72796500  0.50000000  1
  Mg  Mg26  1  0.75426600  0.24849300  0.00000000  1
  Mg  Mg27  1  0.75313600  0.25388200  0.50000000  1
  Mg  Mg28  1  0.75426600  0.75150700  0.00000000  1
  Mg  Mg29  1  0.75313600  0.74611800  0.50000000  1
  O  O0  1  0.25840800  0.00000000  0.00000000  1
  O  O1  1  0.25393400  0.50000000  0.00000000  1
  O  O2  1  0.26373700  0.50000000  0.50000000  1
  O  O3  1  0.74249100  0.00000000  0.00000000  1
  O  O4  1  0.74867500  0.00000000  0.50000000  1
  O  O5  1  0.74655700  0.50000000  0.00000000  1
  O  O6  1  0.73617800  0.50000000  0.50000000  1
  O  O7  1  0.25046100  0.24482600  0.25510000  1
  O  O8  1  0.25046100  0.24482600  0.74490000  1
  O  O9  1  0.25046100  0.75517400  0.25510000  1
  O  O10  1  0.25046100  0.75517400  0.74490000  1
  O  O11  1  0.74975500  0.24829600  0.25200200  1
  O  O12  1  0.74975500  0.24829600  0.74799800  1
  O  O13  1  0.74975500  0.75170400  0.25200200  1
  O  O14  1  0.74975500  0.75170400  0.74799800  1
  O  O15  1  0.00586300  0.00000000  0.25961200  1
  O  O16  1  0.00586300  0.00000000  0.74038800  1
  O  O17  1  0.00164300  0.50000000  0.23858100  1
  O  O18  1  0.00164300  0.50000000  0.76141900  1
  O  O19  1  0.49281600  0.00000000  0.25700700  1
  O  O20  1  0.49281600  0.00000000  0.74299300  1
  O  O21  1  0.49851600  0.50000000  0.24958300  1
  O  O22  1  0.49851600  0.50000000  0.75041700  1
  O  O23  1  0.00152900  0.25229800  0.00000000  1
  O  O24  1  0.00820300  0.23346600  0.50000000  1
  O  O25  1  0.00152900  0.74770200  0.00000000  1
  O  O26  1  0.00820300  0.76653400  0.50000000  1
  O  O27  1  0.49864900  0.24896500  0.00000000  1
  O  O28  1  0.49278400  0.24152000  0.50000000  1
  O  O29  1  0.49864900  0.75103500  0.00000000  1
  O  O30  1  0.49278400  0.75848000  0.50000000  1
loop_
_geom_bond_atom_site_label_1
_geom_bond_atom_site_label_2
_geom_bond_distance
_geom_bond_site_symmetry_2
Na0 O6 2.229009 1_555
Na0 O18 2.239610 1_655
Na0 O17 2.239610 1_655
Na0 O2 2.270054 1_655
Na0 O26 2.280141 1_655
Na0 O24 2.280141 1_655
Li0 O23 2.156935 1_655
Li0 O25 2.156935 1_645
Li0 O3 2.173517 1_555
Li0 O15 2.225042 1_655
Li0 O16 2.225042 1_654
Li0 O0 2.226263 1_655
Mg0 O4 1.973320 1_555
Mg0 O24 2.010040 1_655
Mg0 O26 2.010040 1_645
Mg0 O16 2.070904 1_655
Mg0 O15 2.070904 1_655
Mg1 O17 2.043868 1_655
Mg1 O18 2.043868 1_654
Mg1 O25 2.117499 1_655
Mg1 O23 2.117499 1_655
Mg1 O5 2.149681 1_555
Mg1 O1 2.177269 1_655
Mg2 O3 2.054789 1_555
Mg2 O0 2.073508 1_555
Mg2 O29 2.128294 1_545
Mg2 O27 2.128294 1_555
Mg2 O20 2.202803 1_554
Mg2 O19 2.202803 1_555
Mg3 O4 1.945263 1_555
Mg3 O30 2.078069 1_545
Mg3 O28 2.078069 1_555
Mg3 O19 2.094917 1_555
Mg3 O20 2.094917 1_555
Mg4 O5 2.090530 1_555
Mg4 O1 2.110596 1_555
Mg4 O21 2.138094 1_555
Mg4 O22 2.138094 1_554
Mg4 O27 2.145975 1_555
Mg4 O29 2.145975 1_555
Mg5 O6 2.005172 1_555
Mg5 O2 2.023840 1_555
Mg5 O22 2.145203 1_555
Mg5 O21 2.145203 1_555
Mg5 O28 2.210610 1_555
Mg5 O30 2.210610 1_555
Mg6 O23 2.123023 1_555
Mg6 O15 2.128194 1_555
Mg6 O7 2.131451 1_555
Mg6 O11 2.140074 1_455
Mg6 O17 2.150137 1_555
Mg6 O24 2.165107 1_555
Mg7 O23 2.123023 1_556
Mg7 O16 2.128194 1_555
Mg7 O8 2.131451 1_555
Mg7 O12 2.140074 1_455
Mg7 O18 2.150137 1_555
Mg7 O24 2.165107 1_555
Mg8 O25 2.123023 1_555
Mg8 O15 2.128194 1_565
Mg8 O9 2.131451 1_555
Mg8 O13 2.140074 1_455
Mg8 O17 2.150137 1_555
Mg8 O26 2.165107 1_555
Mg9 O25 2.123023 1_556
Mg9 O16 2.128194 1_565
Mg9 O10 2.131451 1_555
Mg9 O14 2.140074 1_455
Mg9 O18 2.150137 1_555
Mg9 O26 2.165107 1_555
Mg10 O7 2.124969 1_555
Mg10 O11 2.134008 1_555
Mg10 O19 2.134979 1_555
Mg10 O27 2.140616 1_555
Mg10 O21 2.140676 1_555
Mg10 O28 2.144325 1_555
Mg11 O8 2.124969 1_555
Mg11 O12 2.134008 1_555
Mg11 O20 2.134979 1_555
Mg11 O27 2.140616 1_556
Mg11 O22 2.140676 1_555
Mg11 O28 2.144325 1_555
Mg12 O9 2.124969 1_555
Mg12 O13 2.134008 1_555
Mg12 O19 2.134979 1_565
Mg12 O29 2.140616 1_555
Mg12 O21 2.140676 1_555
Mg12 O30 2.144325 1_555
Mg13 O10 2.124969 1_555
Mg13 O14 2.134008 1_555
Mg13 O20 2.134979 1_565
Mg13 O29 2.140616 1_556
Mg13 O22 2.140676 1_555
Mg13 O30 2.144325 1_555
Mg14 O0 1.944265 1_555
Mg14 O15 2.051930 1_555
Mg14 O7 2.107717 1_555
Mg14 O9 2.107717 1_545
Mg14 O19 2.136518 1_555
Mg15 O0 1.944265 1_556
Mg15 O16 2.051930 1_555
Mg15 O8 2.107717 1_555
Mg15 O10 2.107717 1_545
Mg15 O20 2.136518 1_555
Mg16 O17 2.100362 1_555
Mg16 O1 2.120030 1_555
Mg16 O21 2.138453 1_555
Mg16 O2 2.167945 1_555
Mg16 O9 2.182339 1_555
Mg16 O7 2.182339 1_555
Mg17 O18 2.100362 1_555
Mg17 O1 2.120030 1_556
Mg17 O22 2.138453 1_555
Mg17 O2 2.167945 1_555
Mg17 O10 2.182339 1_555
Mg17 O8 2.182339 1_555
Mg18 O3 2.094164 1_555
Mg18 O11 2.124046 1_555
Mg18 O13 2.124046 1_545
Mg18 O15 2.140172 1_655
Mg18 O4 2.192518 1_555
Mg18 O19 2.241956 1_555
Mg19 O3 2.094164 1_556
Mg19 O12 2.124046 1_555
Mg19 O14 2.124046 1_545
Mg19 O16 2.140172 1_655
Mg19 O4 2.192518 1_555
Mg19 O20 2.241956 1_555
Mg20 O17 2.126813 1_655
Mg20 O5 2.137702 1_555
Mg20 O6 2.150448 1_555
Mg20 O13 2.151799 1_555
Mg20 O11 2.151799 1_555
Mg20 O21 2.165944 1_555
Mg21 O18 2.126813 1_655
Mg21 O5 2.137702 1_556
Mg21 O6 2.150448 1_555
Mg21 O14 2.151799 1_555
Mg21 O12 2.151799 1_555
Mg21 O22 2.165944 1_555
Mg22 O23 2.089104 1_555
Mg22 O1 2.132677 1_555
Mg22 O0 2.144673 1_555
Mg22 O27 2.150469 1_555
Mg22 O8 2.186032 1_554
Mg22 O7 2.186032 1_555
Mg23 O2 1.954263 1_555
Mg23 O24 2.057698 1_555
Mg23 O7 2.110977 1_555
Mg23 O8 2.110977 1_555
Mg23 O28 2.117556 1_555
Mg24 O25 2.089104 1_555
Mg24 O1 2.132677 1_555
Mg24 O0 2.144673 1_565
Mg24 O29 2.150469 1_555
Mg24 O10 2.186032 1_554
Mg24 O9 2.186032 1_555
Mg25 O2 1.954263 1_555
Mg25 O26 2.057698 1_555
Mg25 O10 2.110977 1_555
Mg25 O9 2.110977 1_555
Mg25 O30 2.117556 1_555
Mg26 O23 2.108928 1_655
Mg26 O3 2.126488 1_555
Mg26 O5 2.150885 1_555
Mg26 O11 2.159015 1_555
Mg26 O12 2.159015 1_554
Mg26 O27 2.179925 1_555
Mg27 O6 2.108779 1_555
Mg27 O12 2.125105 1_555
Mg27 O11 2.125105 1_555
Mg27 O4 2.170515 1_555
Mg27 O24 2.182220 1_655
Mg27 O28 2.222815 1_555
Mg28 O25 2.108928 1_655
Mg28 O3 2.126488 1_565
Mg28 O5 2.150885 1_555
Mg28 O13 2.159015 1_555
Mg28 O14 2.159015 1_554
Mg28 O29 2.179925 1_555
Mg29 O6 2.108779 1_555
Mg29 O14 2.125105 1_555
Mg29 O13 2.125105 1_555
Mg29 O4 2.170515 1_565
Mg29 O26 2.182220 1_655
Mg29 O30 2.222815 1_555
