# generated using pymatgen
data_Ho2(Al3Pd)3
_symmetry_space_group_name_H-M   'P 1'
_cell_length_a   7.63975965
_cell_length_b   7.63975965
_cell_length_c   9.42160500
_cell_angle_alpha   90.00000000
_cell_angle_beta   90.00000000
_cell_angle_gamma   119.68985153
_symmetry_Int_Tables_number   1
_chemical_formula_structural   Ho2(Al3Pd)3
_chemical_formula_sum   'Ho4 Al18 Pd6'
_cell_volume   477.70934146
_cell_formula_units_Z   2
loop_
 _symmetry_equiv_pos_site_id
 _symmetry_equiv_pos_as_xyz
  1  'x, y, z'
loop_
 _atom_site_type_symbol
 _atom_site_label
 _atom_site_symmetry_multiplicity
 _atom_site_fract_x
 _atom_site_fract_y
 _atom_site_fract_z
 _atom_site_occupancy
  Ho  Ho0  1  0.99459500  0.66948500  0.25000000  1
  Ho  Ho1  1  0.00540500  0.33051500  0.75000000  1
  Ho  Ho2  1  0.66948500  0.99459500  0.25000000  1
  Ho  Ho3  1  0.33051500  0.00540500  0.75000000  1
  Al  Al0  1  0.12678700  0.12678700  0.25000000  1
  Al  Al1  1  0.87321300  0.87321300  0.75000000  1
  Al  Al2  1  0.99996400  0.33420200  0.07656800  1
  Al  Al3  1  0.00003600  0.66579800  0.92343200  1
  Al  Al4  1  0.00003600  0.66579800  0.57656800  1
  Al  Al5  1  0.33420200  0.99996400  0.42343200  1
  Al  Al6  1  0.99996400  0.33420200  0.42343200  1
  Al  Al7  1  0.66579800  0.00003600  0.57656800  1
  Al  Al8  1  0.66579800  0.00003600  0.92343200  1
  Al  Al9  1  0.33420200  0.99996400  0.07656800  1
  Al  Al10  1  0.33355700  0.33355700  0.56025500  1
  Al  Al11  1  0.66644300  0.66644400  0.43974500  1
  Al  Al12  1  0.66644300  0.66644400  0.06025500  1
  Al  Al13  1  0.33355700  0.33355700  0.93974500  1
  Al  Al14  1  0.33696100  0.54640000  0.25000000  1
  Al  Al15  1  0.66303900  0.45360000  0.75000000  1
  Al  Al16  1  0.54640000  0.33696100  0.25000000  1
  Al  Al17  1  0.45360000  0.66303900  0.75000000  1
  Pd  Pd0  1  0.67157100  0.32842900  0.00000000  1
  Pd  Pd1  1  0.32842900  0.67157100  0.00000000  1
  Pd  Pd2  1  0.32842900  0.67157100  0.50000000  1
  Pd  Pd3  1  0.67157100  0.32842900  0.50000000  1
  Pd  Pd4  1  0.00000000  0.00000000  0.00000000  1
  Pd  Pd5  1  0.00000000  0.00000000  0.50000000  1
loop_
_geom_bond_atom_site_label_1
_geom_bond_atom_site_label_2
_geom_bond_distance
_geom_bond_site_symmetry_2
Ho0 Pd4 3.438348 1_665
Ho0 Pd5 3.438348 1_665
Ho0 Pd1 3.465906 1_655
Ho0 Pd2 3.465906 1_655
Ho0 Pd3 3.472378 1_555
Ho0 Pd0 3.472378 1_555
Ho1 Pd5 3.438348 1_555
Ho1 Pd4 3.438348 1_556
Ho1 Pd0 3.465906 1_456
Ho1 Pd3 3.465906 1_455
Ho1 Pd1 3.472378 1_556
Ho1 Pd2 3.472378 1_555
Ho2 Pd4 3.438348 1_665
Ho2 Pd5 3.438348 1_665
Ho2 Pd3 3.465906 1_565
Ho2 Pd0 3.465906 1_565
Ho2 Pd1 3.472378 1_555
Ho2 Pd2 3.472378 1_555
Ho3 Pd5 3.438348 1_555
Ho3 Pd4 3.438348 1_556
Ho3 Pd2 3.465906 1_545
Ho3 Pd1 3.465906 1_546
Ho3 Pd0 3.472378 1_556
Ho3 Pd3 3.472378 1_555
Al0 Pd5 2.548520 1_555
Al0 Pd4 2.548520 1_555
Al0 Ho2 3.119379 1_445
Al0 Ho0 3.119379 1_445
Al1 Pd4 2.548520 1_666
Al1 Pd5 2.548520 1_665
Al1 Ho3 3.119379 1_665
Al1 Ho1 3.119379 1_665
Al2 Pd0 2.589795 1_555
Al2 Pd4 2.653310 1_655
Al2 Pd1 2.655848 1_655
Al2 Ho2 3.047448 1_545
Al2 Ho0 3.055639 1_555
Al2 Ho1 3.077393 1_654
Al3 Pd1 2.589795 1_556
Al3 Pd4 2.653310 1_566
Al3 Pd0 2.655848 1_456
Al3 Ho3 3.047448 1_565
Al3 Ho1 3.055639 1_555
Al3 Ho0 3.077393 1_456
Al4 Pd2 2.589795 1_555
Al4 Pd5 2.653310 1_565
Al4 Pd3 2.655848 1_455
Al4 Ho3 3.047448 1_565
Al4 Ho1 3.055639 1_555
Al4 Ho0 3.077393 1_455
Al5 Pd2 2.589795 1_555
Al5 Pd5 2.653310 1_565
Al5 Pd3 2.655848 1_565
Al5 Ho0 3.047448 1_455
Al5 Ho2 3.055639 1_555
Al5 Ho3 3.077393 1_565
Al6 Pd3 2.589795 1_555
Al6 Pd5 2.653310 1_655
Al6 Pd2 2.655848 1_655
Al6 Ho2 3.047448 1_545
Al6 Ho0 3.055639 1_555
Al6 Ho1 3.077393 1_655
Al7 Pd3 2.589795 1_555
Al7 Pd5 2.653310 1_655
Al7 Pd2 2.655848 1_545
Al7 Ho1 3.047448 1_655
Al7 Ho3 3.055639 1_555
Al7 Ho2 3.077393 1_545
Al8 Pd0 2.589795 1_556
Al8 Pd4 2.653310 1_656
Al8 Pd1 2.655848 1_546
Al8 Ho1 3.047448 1_655
Al8 Ho3 3.055639 1_555
Al8 Ho2 3.077393 1_546
Al9 Pd1 2.589795 1_555
Al9 Pd4 2.653310 1_565
Al9 Pd0 2.655848 1_565
Al9 Ho0 3.047448 1_455
Al9 Ho2 3.055639 1_555
Al9 Ho3 3.077393 1_564
Al10 Pd5 2.622417 1_555
Al10 Pd3 2.663183 1_555
Al10 Pd2 2.663183 1_555
Al10 Al11 2.795995 1_555
Al10 Al15 2.843633 1_555
Al10 Al17 2.843633 1_555
Al10 Al5 2.858222 1_545
Al10 Al6 2.858222 1_455
Al10 Ho3 3.069815 1_555
Al10 Ho1 3.069815 1_555
Al11 Pd5 2.622413 1_665
Al11 Pd2 2.663179 1_555
Al11 Pd3 2.663191 1_555
Al11 Al14 2.843633 1_555
Al11 Al16 2.843639 1_555
Al11 Al7 2.858215 1_565
Al11 Al4 2.858226 1_655
Al11 Ho2 3.069809 1_555
Al11 Ho0 3.069818 1_555
Al12 Pd4 2.622413 1_665
Al12 Pd1 2.663179 1_555
Al12 Pd0 2.663191 1_555
Al12 Al13 2.795995 1_554
Al12 Al14 2.843633 1_555
Al12 Al16 2.843639 1_555
Al12 Al8 2.858215 1_564
Al12 Al3 2.858226 1_654
Al12 Ho2 3.069809 1_555
Al12 Ho0 3.069818 1_555
Al13 Pd4 2.622417 1_556
Al13 Pd0 2.663183 1_556
Al13 Pd1 2.663183 1_556
Al13 Al17 2.843633 1_555
Al13 Al15 2.843633 1_555
Al13 Al2 2.858222 1_456
Al13 Al9 2.858222 1_546
Al13 Ho3 3.069815 1_555
Al13 Ho1 3.069815 1_555
Al14 Pd1 2.555069 1_555
Al14 Pd2 2.555069 1_555
Al14 Ho2 3.092120 1_555
Al14 Ho0 3.187793 1_455
Al15 Pd0 2.555069 1_556
Al15 Pd3 2.555069 1_555
Al15 Ho3 3.092120 1_555
Al15 Ho1 3.187793 1_655
Al16 Pd3 2.555069 1_555
Al16 Pd0 2.555069 1_555
Al16 Ho0 3.092120 1_555
Al16 Ho2 3.187793 1_545
Al17 Pd1 2.555069 1_556
Al17 Pd2 2.555069 1_555
Al17 Ho1 3.092120 1_555
Al17 Ho3 3.187793 1_565
