# generated using pymatgen
data_K3B7PtO20
_symmetry_space_group_name_H-M   'P 1'
_cell_length_a   8.42465300
_cell_length_b   11.10107800
_cell_length_c   19.51436600
_cell_angle_alpha   90.00000000
_cell_angle_beta   90.00000000
_cell_angle_gamma   90.00000000
_symmetry_Int_Tables_number   1
_chemical_formula_structural   K3B7PtO20
_chemical_formula_sum   'K12 B28 Pt4 O80'
_cell_volume   1825.03678402
_cell_formula_units_Z   4
loop_
 _symmetry_equiv_pos_site_id
 _symmetry_equiv_pos_as_xyz
  1  'x, y, z'
loop_
 _atom_site_type_symbol
 _atom_site_label
 _atom_site_symmetry_multiplicity
 _atom_site_fract_x
 _atom_site_fract_y
 _atom_site_fract_z
 _atom_site_occupancy
  K  K0  1  0.11440900  0.52104300  0.88822100  1
  K  K1  1  0.38559100  0.97895700  0.38822100  1
  K  K2  1  0.88559100  0.02104300  0.11177900  1
  K  K3  1  0.61440900  0.47895700  0.61177900  1
  K  K4  1  0.88559100  0.47895700  0.11177900  1
  K  K5  1  0.61440900  0.02104300  0.61177900  1
  K  K6  1  0.11440900  0.97895700  0.88822100  1
  K  K7  1  0.38559100  0.52104300  0.38822100  1
  K  K8  1  0.21989700  0.75000000  0.58466900  1
  K  K9  1  0.28010300  0.75000000  0.08466900  1
  K  K10  1  0.78010300  0.25000000  0.41533100  1
  K  K11  1  0.71989700  0.25000000  0.91533100  1
  B  B0  1  0.93906000  0.40440000  0.73920900  1
  B  B1  1  0.56094000  0.09560000  0.23920900  1
  B  B2  1  0.06094000  0.90440000  0.26079100  1
  B  B3  1  0.43906000  0.59560000  0.76079100  1
  B  B4  1  0.06094000  0.59560000  0.26079100  1
  B  B5  1  0.43906000  0.90440000  0.76079100  1
  B  B6  1  0.93906000  0.09560000  0.73920900  1
  B  B7  1  0.56094000  0.40440000  0.23920900  1
  B  B8  1  0.20038400  0.41885800  0.55287200  1
  B  B9  1  0.29961600  0.08114200  0.05287200  1
  B  B10  1  0.79961600  0.91885800  0.44712800  1
  B  B11  1  0.70038400  0.58114200  0.94712800  1
  B  B12  1  0.79961600  0.58114200  0.44712800  1
  B  B13  1  0.70038400  0.91885800  0.94712800  1
  B  B14  1  0.20038400  0.08114200  0.55287200  1
  B  B15  1  0.29961600  0.41885800  0.05287200  1
  B  B16  1  0.16271800  0.25000000  0.74469900  1
  B  B17  1  0.33728200  0.25000000  0.24469900  1
  B  B18  1  0.83728200  0.75000000  0.25530100  1
  B  B19  1  0.66271800  0.75000000  0.75530100  1
  B  B20  1  0.45752000  0.25000000  0.73632300  1
  B  B21  1  0.04248000  0.25000000  0.23632300  1
  B  B22  1  0.54248000  0.75000000  0.26367700  1
  B  B23  1  0.95752000  0.75000000  0.76367700  1
  B  B24  1  0.32643600  0.25000000  0.62284700  1
  B  B25  1  0.17356400  0.25000000  0.12284700  1
  B  B26  1  0.67356400  0.75000000  0.37715300  1
  B  B27  1  0.82643600  0.75000000  0.87715300  1
  Pt  Pt0  1  0.96144400  0.25000000  0.61415300  1
  Pt  Pt1  1  0.53855600  0.25000000  0.11415300  1
  Pt  Pt2  1  0.03855600  0.75000000  0.38584700  1
  Pt  Pt3  1  0.46144400  0.75000000  0.88584700  1
  O  O0  1  0.87531800  0.37998200  0.67573200  1
  O  O1  1  0.62468200  0.12001800  0.17573200  1
  O  O2  1  0.12468200  0.87998200  0.32426800  1
  O  O3  1  0.37531800  0.62001800  0.82426800  1
  O  O4  1  0.12468200  0.62001800  0.32426800  1
  O  O5  1  0.37531800  0.87998200  0.82426800  1
  O  O6  1  0.87531800  0.12001800  0.67573200  1
  O  O7  1  0.62468200  0.37998200  0.17573200  1
  O  O8  1  0.04610000  0.37685100  0.55100000  1
  O  O9  1  0.45390000  0.12314900  0.05100000  1
  O  O10  1  0.95390000  0.87685100  0.44900000  1
  O  O11  1  0.54610000  0.62314900  0.94900000  1
  O  O12  1  0.95390000  0.62314900  0.44900000  1
  O  O13  1  0.54610000  0.87685100  0.94900000  1
  O  O14  1  0.04610000  0.12314900  0.55100000  1
  O  O15  1  0.45390000  0.37685100  0.05100000  1
  O  O16  1  0.17187800  0.25000000  0.66567000  1
  O  O17  1  0.32812200  0.25000000  0.16567000  1
  O  O18  1  0.82812200  0.75000000  0.33433000  1
  O  O19  1  0.67187800  0.75000000  0.83433000  1
  O  O20  1  0.07741000  0.35934700  0.76624700  1
  O  O21  1  0.42259000  0.14065300  0.26624700  1
  O  O22  1  0.92259000  0.85934700  0.23375300  1
  O  O23  1  0.57741000  0.64065300  0.73375300  1
  O  O24  1  0.92259000  0.64065300  0.23375300  1
  O  O25  1  0.57741000  0.85934700  0.73375300  1
  O  O26  1  0.07741000  0.14065300  0.76624700  1
  O  O27  1  0.42259000  0.35934700  0.26624700  1
  O  O28  1  0.32805000  0.35614400  0.57853500  1
  O  O29  1  0.17195000  0.14385600  0.07853500  1
  O  O30  1  0.67195000  0.85614400  0.42146500  1
  O  O31  1  0.82805000  0.64385600  0.92146500  1
  O  O32  1  0.67195000  0.64385600  0.42146500  1
  O  O33  1  0.82805000  0.85614400  0.92146500  1
  O  O34  1  0.32805000  0.14385600  0.57853500  1
  O  O35  1  0.17195000  0.35614400  0.07853500  1
  O  O36  1  0.31901900  0.25000000  0.77242200  1
  O  O37  1  0.18098100  0.25000000  0.27242200  1
  O  O38  1  0.68098100  0.75000000  0.22757800  1
  O  O39  1  0.81901900  0.75000000  0.72757800  1
  O  O40  1  0.46561600  0.25000000  0.66619400  1
  O  O41  1  0.03438400  0.25000000  0.16619400  1
  O  O42  1  0.53438400  0.75000000  0.33380600  1
  O  O43  1  0.96561600  0.75000000  0.83380600  1
  O  O44  1  0.85981000  0.48121600  0.78223000  1
  O  O45  1  0.64019000  0.01878400  0.28223000  1
  O  O46  1  0.14019000  0.98121600  0.21777000  1
  O  O47  1  0.35981000  0.51878400  0.71777000  1
  O  O48  1  0.14019000  0.51878400  0.21777000  1
  O  O49  1  0.35981000  0.98121600  0.71777000  1
  O  O50  1  0.85981000  0.01878400  0.78223000  1
  O  O51  1  0.64019000  0.48121600  0.28223000  1
  O  O52  1  0.59492000  0.25000000  0.77477800  1
  O  O53  1  0.90508000  0.25000000  0.27477800  1
  O  O54  1  0.40508000  0.75000000  0.22522200  1
  O  O55  1  0.09492000  0.75000000  0.72522200  1
  O  O56  1  0.23377300  0.52948400  0.52629200  1
  O  O57  1  0.26622700  0.97051600  0.02629200  1
  O  O58  1  0.76622700  0.02948400  0.47370800  1
  O  O59  1  0.73377300  0.47051600  0.97370800  1
  O  O60  1  0.76622700  0.47051600  0.47370800  1
  O  O61  1  0.73377300  0.02948400  0.97370800  1
  O  O62  1  0.23377300  0.97051600  0.52629200  1
  O  O63  1  0.26622700  0.52948400  0.02629200  1
  O  O64  1  0.77103700  0.25000000  0.56673900  1
  O  O65  1  0.72896300  0.25000000  0.06673900  1
  O  O66  1  0.22896300  0.75000000  0.43326100  1
  O  O67  1  0.27103700  0.75000000  0.93326100  1
  O  O68  1  0.37382500  0.30575400  0.90818000  1
  O  O69  1  0.12617500  0.19424600  0.40818000  1
  O  O70  1  0.62617500  0.80575400  0.09182000  1
  O  O71  1  0.87382500  0.69424600  0.59182000  1
  O  O72  1  0.62617500  0.69424600  0.09182000  1
  O  O73  1  0.87382500  0.80575400  0.59182000  1
  O  O74  1  0.37382500  0.19424600  0.90818000  1
  O  O75  1  0.12617500  0.30575400  0.40818000  1
  O  O76  1  0.05831200  0.25000000  0.92046200  1
  O  O77  1  0.44168800  0.25000000  0.42046200  1
  O  O78  1  0.94168800  0.75000000  0.07953800  1
  O  O79  1  0.55831200  0.75000000  0.57953800  1
loop_
_geom_bond_atom_site_label_1
_geom_bond_atom_site_label_2
_geom_bond_distance
_geom_bond_site_symmetry_2
K0 O3 2.756124 1_555
K0 O31 2.845986 1_455
K0 O63 2.984003 1_556
K0 O67 2.995626 1_555
K0 O20 2.997458 1_555
K0 O44 3.012335 1_455
K0 O43 3.026383 1_455
K0 O76 3.110063 1_555
K0 O68 3.261883 1_555
K1 O2 2.756124 1_555
K1 O30 2.845986 1_555
K1 O62 2.984003 1_555
K1 O66 2.995626 1_555
K1 O21 2.997458 1_565
K1 O45 3.012335 1_565
K1 O42 3.026383 1_555
K1 O77 3.110063 1_565
K1 O69 3.261883 1_565
K2 O1 2.756124 1_555
K2 O29 2.845986 1_655
K2 O61 2.984003 1_554
K2 O65 2.995626 1_555
K2 O22 2.997458 1_545
K2 O46 3.012335 1_645
K2 O41 3.026383 1_655
K2 O78 3.110063 1_545
K2 O70 3.261883 1_545
K3 O0 2.756124 1_555
K3 O28 2.845986 1_555
K3 O60 2.984003 1_555
K3 O64 2.995626 1_555
K3 O23 2.997458 1_555
K3 O47 3.012335 1_555
K3 O40 3.026383 1_555
K3 O79 3.110063 1_555
K3 O71 3.261883 1_555
K4 O7 2.756124 1_555
K4 O35 2.845986 1_655
K4 O59 2.984003 1_554
K4 O65 2.995626 1_555
K4 O24 2.997458 1_555
K4 O48 3.012335 1_655
K4 O41 3.026383 1_655
K4 O78 3.110063 1_555
K4 O72 3.261883 1_555
K5 O6 2.756124 1_555
K5 O34 2.845986 1_555
K5 O58 2.984003 1_555
K5 O64 2.995626 1_555
K5 O25 2.997458 1_545
K5 O49 3.012335 1_545
K5 O40 3.026383 1_555
K5 O79 3.110063 1_545
K5 O73 3.261883 1_545
K6 O5 2.756124 1_555
K6 O33 2.845986 1_455
K6 O57 2.984003 1_556
K6 O67 2.995626 1_555
K6 O26 2.997458 1_565
K6 O50 3.012335 1_465
K6 O43 3.026383 1_455
K6 O76 3.110063 1_565
K6 O74 3.261883 1_565
K7 O4 2.756124 1_555
K7 O32 2.845986 1_555
K7 O56 2.984003 1_555
K7 O66 2.995626 1_555
K7 O27 2.997458 1_555
K7 O51 3.012335 1_555
K7 O42 3.026383 1_555
K7 O77 3.110063 1_555
K7 O75 3.261883 1_555
K8 O62 2.702583 1_555
K8 O56 2.702583 1_555
K8 O79 2.852787 1_555
K8 O55 2.937948 1_555
K8 O66 2.955618 1_555
K8 O73 2.983773 1_455
K8 O71 2.983773 1_455
K9 O63 2.702583 1_555
K9 O57 2.702583 1_555
K9 O78 2.852787 1_455
K9 O54 2.937948 1_555
K9 O67 2.955618 1_554
K9 O72 2.983773 1_555
K9 O70 2.983773 1_555
K10 O60 2.702583 1_555
K10 O58 2.702583 1_555
K10 O77 2.852787 1_555
K10 O53 2.937948 1_555
K10 O64 2.955618 1_555
K10 O75 2.983773 1_655
K10 O69 2.983773 1_655
K11 O59 2.702583 1_555
K11 O61 2.702583 1_555
K11 O76 2.852787 1_655
K11 O52 2.937948 1_555
K11 O65 2.955618 1_556
K11 O74 2.983773 1_555
K11 O68 2.983773 1_555
B0 O44 1.370304 1_555
B0 O20 1.373695 1_655
B0 O0 1.377048 1_555
B1 O45 1.370304 1_555
B1 O21 1.373695 1_555
B1 O1 1.377048 1_555
B2 O46 1.370304 1_555
B2 O22 1.373695 1_455
B2 O2 1.377048 1_555
B3 O47 1.370304 1_555
B3 O23 1.373695 1_555
B3 O3 1.377048 1_555
B4 O48 1.370304 1_555
B4 O24 1.373695 1_455
B4 O4 1.377048 1_555
B5 O49 1.370304 1_555
B5 O25 1.373695 1_555
B5 O5 1.377048 1_555
B6 O50 1.370304 1_555
B6 O26 1.373695 1_655
B6 O6 1.377048 1_555
B7 O51 1.370304 1_555
B7 O27 1.373695 1_555
B7 O7 1.377048 1_555
B8 O56 1.362467 1_555
B8 O28 1.375599 1_555
B8 O8 1.381392 1_555
B9 O57 1.362467 1_545
B9 O29 1.375599 1_555
B9 O9 1.381392 1_555
B10 O58 1.362467 1_565
B10 O30 1.375599 1_555
B10 O10 1.381392 1_555
B11 O59 1.362467 1_555
B11 O31 1.375599 1_555
B11 O11 1.381392 1_555
B12 O60 1.362467 1_555
B12 O32 1.375599 1_555
B12 O12 1.381392 1_555
B13 O61 1.362467 1_565
B13 O33 1.375599 1_555
B13 O13 1.381392 1_555
B14 O62 1.362467 1_545
B14 O34 1.375599 1_555
B14 O14 1.381392 1_555
B15 O63 1.362467 1_555
B15 O35 1.375599 1_555
B15 O15 1.381392 1_555
B16 O36 1.423584 1_555
B16 O26 1.472009 1_555
B16 O20 1.472009 1_555
B16 O16 1.544130 1_555
B17 O37 1.423584 1_555
B17 O21 1.472009 1_555
B17 O27 1.472009 1_555
B17 O17 1.544130 1_555
B18 O38 1.423584 1_555
B18 O22 1.472009 1_555
B18 O24 1.472009 1_555
B18 O18 1.544130 1_555
B19 O39 1.423584 1_555
B19 O23 1.472009 1_555
B19 O25 1.472009 1_555
B19 O19 1.544130 1_555
B20 O36 1.362984 1_555
B20 O40 1.370222 1_555
B20 O52 1.379512 1_555
B21 O37 1.362984 1_555
B21 O41 1.370222 1_555
B21 O53 1.379512 1_455
B22 O38 1.362984 1_555
B22 O42 1.370222 1_555
B22 O54 1.379512 1_555
B23 O39 1.362984 1_555
B23 O43 1.370222 1_555
B23 O55 1.379512 1_655
B24 O40 1.445817 1_555
B24 O34 1.461625 1_555
B24 O28 1.461625 1_555
B24 O16 1.547188 1_555
B25 O41 1.445817 1_555
B25 O29 1.461625 1_555
B25 O35 1.461625 1_555
B25 O17 1.547188 1_555
B26 O42 1.445817 1_555
B26 O30 1.461625 1_555
B26 O32 1.461625 1_555
B26 O18 1.547188 1_555
B27 O43 1.445817 1_555
B27 O33 1.461625 1_555
B27 O31 1.461625 1_555
B27 O19 1.547188 1_555
O0 Pt0 2.013099 1_555
O1 Pt1 2.013099 1_555
O2 Pt2 2.013099 1_555
O3 Pt3 2.013099 1_555
O4 Pt2 2.013099 1_555
O5 Pt3 2.013099 1_555
O6 Pt0 2.013099 1_555
O7 Pt1 2.013099 1_555
O8 Pt0 2.002602 1_455
O9 Pt1 2.002602 1_555
O10 Pt2 2.002602 1_655
O11 Pt3 2.002602 1_555
O12 Pt2 2.002602 1_655
O13 Pt3 2.002602 1_555
O14 Pt0 2.002602 1_455
O15 Pt1 2.002602 1_555
O16 Pt0 2.038041 1_455
O17 Pt1 2.038041 1_555
O18 Pt2 2.038041 1_655
O19 Pt3 2.038041 1_555
O64 Pt0 1.851830 1_555
O65 Pt1 1.851830 1_555
O66 Pt2 1.851830 1_555
O67 Pt3 1.851830 1_555
O68 O74 1.237859 1_555
O69 O75 1.237859 1_555
O70 O72 1.237859 1_555
O71 O73 1.237859 1_555
