# generated using pymatgen
data_CaCrO6
_symmetry_space_group_name_H-M   'P 1'
_cell_length_a   5.97551000
_cell_length_b   11.51998700
_cell_length_c   16.72091600
_cell_angle_alpha   90.00000000
_cell_angle_beta   90.00000000
_cell_angle_gamma   90.00000000
_symmetry_Int_Tables_number   1
_chemical_formula_structural   CaCrO6
_chemical_formula_sum   'Ca8 Cr8 O48'
_cell_volume   1151.03102993
_cell_formula_units_Z   8
loop_
 _symmetry_equiv_pos_site_id
 _symmetry_equiv_pos_as_xyz
  1  'x, y, z'
loop_
 _atom_site_type_symbol
 _atom_site_label
 _atom_site_symmetry_multiplicity
 _atom_site_fract_x
 _atom_site_fract_y
 _atom_site_fract_z
 _atom_site_occupancy
  Ca  Ca0  1  0.51236200  0.75000000  0.93282100  1
  Ca  Ca1  1  0.48763800  0.25000000  0.06717900  1
  Ca  Ca2  1  0.51236200  0.25000000  0.56717900  1
  Ca  Ca3  1  0.48763800  0.75000000  0.43282100  1
  Ca  Ca4  1  0.84008300  0.25000000  0.81081500  1
  Ca  Ca5  1  0.15991700  0.75000000  0.18918500  1
  Ca  Ca6  1  0.84008300  0.75000000  0.68918500  1
  Ca  Ca7  1  0.15991700  0.25000000  0.31081500  1
  Cr  Cr0  1  0.29883500  0.43345500  0.90830000  1
  Cr  Cr1  1  0.70116500  0.93345500  0.09170000  1
  Cr  Cr2  1  0.29883500  0.56654500  0.59170000  1
  Cr  Cr3  1  0.70116500  0.06654500  0.40830000  1
  Cr  Cr4  1  0.70116500  0.56654500  0.09170000  1
  Cr  Cr5  1  0.29883500  0.06654500  0.90830000  1
  Cr  Cr6  1  0.70116500  0.43345500  0.40830000  1
  Cr  Cr7  1  0.29883500  0.93345500  0.59170000  1
  O  O0  1  0.11711300  0.38853600  0.84047000  1
  O  O1  1  0.88288700  0.88853600  0.15953000  1
  O  O2  1  0.11711300  0.61146400  0.65953000  1
  O  O3  1  0.88288700  0.11146400  0.34047000  1
  O  O4  1  0.88288700  0.61146400  0.15953000  1
  O  O5  1  0.11711300  0.11146400  0.84047000  1
  O  O6  1  0.88288700  0.38853600  0.34047000  1
  O  O7  1  0.11711300  0.88853600  0.65953000  1
  O  O8  1  0.23787900  0.37931500  0.99590700  1
  O  O9  1  0.76212100  0.87931500  0.00409300  1
  O  O10  1  0.23787900  0.62068500  0.50409300  1
  O  O11  1  0.76212100  0.12068500  0.49590700  1
  O  O12  1  0.76212100  0.62068500  0.00409300  1
  O  O13  1  0.23787900  0.12068500  0.99590700  1
  O  O14  1  0.76212100  0.37931500  0.49590700  1
  O  O15  1  0.23787900  0.87931500  0.50409300  1
  O  O16  1  0.57452500  0.38573600  0.88529200  1
  O  O17  1  0.42547500  0.88573600  0.11470800  1
  O  O18  1  0.57452500  0.61426400  0.61470800  1
  O  O19  1  0.42547500  0.11426400  0.38529200  1
  O  O20  1  0.42547500  0.61426400  0.11470800  1
  O  O21  1  0.57452500  0.11426400  0.88529200  1
  O  O22  1  0.42547500  0.38573600  0.38529200  1
  O  O23  1  0.57452500  0.88573600  0.61470800  1
  O  O24  1  0.31628000  0.57581300  0.91153800  1
  O  O25  1  0.68372000  0.07581300  0.08846200  1
  O  O26  1  0.31628000  0.42418700  0.58846200  1
  O  O27  1  0.68372000  0.92418700  0.41153800  1
  O  O28  1  0.68372000  0.42418700  0.08846200  1
  O  O29  1  0.31628000  0.92418700  0.91153800  1
  O  O30  1  0.68372000  0.57581300  0.41153800  1
  O  O31  1  0.31628000  0.07581300  0.58846200  1
  O  O32  1  0.60824800  0.75000000  0.79894700  1
  O  O33  1  0.39175200  0.25000000  0.20105300  1
  O  O34  1  0.60824800  0.25000000  0.70105300  1
  O  O35  1  0.39175200  0.75000000  0.29894700  1
  O  O36  1  0.38170000  0.75000000  0.07802200  1
  O  O37  1  0.61830000  0.25000000  0.92197800  1
  O  O38  1  0.38170000  0.25000000  0.42197800  1
  O  O39  1  0.61830000  0.75000000  0.57802200  1
  O  O40  1  0.96362900  0.30469100  0.64933100  1
  O  O41  1  0.03637100  0.80469100  0.35066900  1
  O  O42  1  0.96362900  0.69530900  0.85066900  1
  O  O43  1  0.03637100  0.19530900  0.14933100  1
  O  O44  1  0.03637100  0.69530900  0.35066900  1
  O  O45  1  0.96362900  0.19530900  0.64933100  1
  O  O46  1  0.03637100  0.30469100  0.14933100  1
  O  O47  1  0.96362900  0.80469100  0.85066900  1
loop_
_geom_bond_atom_site_label_1
_geom_bond_atom_site_label_2
_geom_bond_distance
_geom_bond_site_symmetry_2
Ca0 O32 2.310661 1_555
Ca0 O24 2.350760 1_555
Ca0 O29 2.350760 1_555
Ca0 O12 2.422153 1_556
Ca0 O9 2.422153 1_556
Ca0 O36 2.550348 1_556
Ca1 O33 2.310661 1_555
Ca1 O28 2.350760 1_555
Ca1 O25 2.350760 1_555
Ca1 O13 2.422153 1_554
Ca1 O8 2.422153 1_554
Ca1 O37 2.550348 1_554
Ca2 O34 2.310661 1_555
Ca2 O26 2.350760 1_555
Ca2 O31 2.350760 1_555
Ca2 O11 2.422153 1_555
Ca2 O14 2.422153 1_555
Ca2 O38 2.550348 1_555
Ca3 O35 2.310661 1_555
Ca3 O30 2.350760 1_555
Ca3 O27 2.350760 1_555
Ca3 O15 2.422153 1_555
Ca3 O10 2.422153 1_555
Ca3 O39 2.550348 1_555
Ca4 O37 2.282821 1_555
Ca4 O34 2.299467 1_555
Ca4 O0 2.352278 1_655
Ca4 O5 2.352278 1_655
Ca4 O21 2.552252 1_555
Ca4 O16 2.552252 1_555
Ca4 O45 2.869291 1_555
Ca4 O40 2.869291 1_555
Ca5 O36 2.282821 1_555
Ca5 O35 2.299467 1_555
Ca5 O4 2.352278 1_455
Ca5 O1 2.352278 1_455
Ca5 O20 2.552252 1_555
Ca5 O17 2.552252 1_555
Ca5 O41 2.869291 1_555
Ca5 O44 2.869291 1_555
Ca6 O39 2.282821 1_555
Ca6 O32 2.299467 1_555
Ca6 O7 2.352278 1_655
Ca6 O2 2.352278 1_655
Ca6 O18 2.552252 1_555
Ca6 O23 2.552252 1_555
Ca6 O47 2.869291 1_555
Ca6 O42 2.869291 1_555
Ca7 O38 2.282821 1_555
Ca7 O33 2.299467 1_555
Ca7 O6 2.352278 1_455
Ca7 O3 2.352278 1_455
Ca7 O22 2.552252 1_555
Ca7 O19 2.552252 1_555
Ca7 O46 2.869291 1_555
Ca7 O43 2.869291 1_555
Cr0 O8 1.633250 1_555
Cr0 O24 1.644164 1_555
Cr0 O0 1.653262 1_555
Cr0 O16 1.778788 1_555
Cr1 O9 1.633250 1_555
Cr1 O25 1.644164 1_565
Cr1 O1 1.653262 1_555
Cr1 O17 1.778788 1_555
Cr2 O10 1.633250 1_555
Cr2 O26 1.644164 1_555
Cr2 O2 1.653262 1_555
Cr2 O18 1.778788 1_555
Cr3 O11 1.633250 1_555
Cr3 O27 1.644164 1_545
Cr3 O3 1.653262 1_555
Cr3 O19 1.778788 1_555
Cr4 O12 1.633250 1_555
Cr4 O28 1.644164 1_555
Cr4 O4 1.653262 1_555
Cr4 O20 1.778788 1_555
Cr5 O13 1.633250 1_555
Cr5 O29 1.644164 1_545
Cr5 O5 1.653262 1_555
Cr5 O21 1.778788 1_555
Cr6 O14 1.633250 1_555
Cr6 O30 1.644164 1_555
Cr6 O6 1.653262 1_555
Cr6 O22 1.778788 1_555
Cr7 O15 1.633250 1_555
Cr7 O31 1.644164 1_565
Cr7 O7 1.653262 1_555
Cr7 O23 1.778788 1_555
O16 O37 1.699940 1_555
O17 O36 1.699940 1_555
O18 O39 1.699940 1_555
O19 O38 1.699940 1_555
O20 O36 1.699940 1_555
O21 O37 1.699940 1_555
O22 O38 1.699940 1_555
O23 O39 1.699940 1_555
O40 O45 1.260079 1_555
O41 O44 1.260079 1_555
O42 O47 1.260079 1_555
O43 O46 1.260079 1_555
