# generated using pymatgen
data_BeC2
_symmetry_space_group_name_H-M   'P 1'
_cell_length_a   3.36023800
_cell_length_b   3.36023800
_cell_length_c   5.17235300
_cell_angle_alpha   90.00000000
_cell_angle_beta   90.00000000
_cell_angle_gamma   90.00000000
_symmetry_Int_Tables_number   1
_chemical_formula_structural   BeC2
_chemical_formula_sum   'Be2 C4'
_cell_volume   58.40206918
_cell_formula_units_Z   2
loop_
 _symmetry_equiv_pos_site_id
 _symmetry_equiv_pos_as_xyz
  1  'x, y, z'
loop_
 _atom_site_type_symbol
 _atom_site_label
 _atom_site_symmetry_multiplicity
 _atom_site_fract_x
 _atom_site_fract_y
 _atom_site_fract_z
 _atom_site_occupancy
  Be  Be0  1  0.50000000  0.50000000  0.00000000  1
  Be  Be1  1  0.00000000  0.00000000  0.50000000  1
  C  C0  1  0.86783200  0.86783200  0.00000000  1
  C  C1  1  0.63216800  0.36783200  0.50000000  1
  C  C2  1  0.13216800  0.13216800  0.00000000  1
  C  C3  1  0.36783200  0.63216800  0.50000000  1
loop_
_geom_bond_atom_site_label_1
_geom_bond_atom_site_label_2
_geom_bond_distance
_geom_bond_site_symmetry_2
Be0 C0 1.747972 1_555
Be0 C2 1.747972 1_555
Be1 C3 1.747972 1_545
Be1 C1 1.747972 1_455
C0 C2 1.256150 1_665
C1 C3 1.256150 1_555
