# generated using pymatgen
data_Rb4Sn(SeO)4
_symmetry_space_group_name_H-M   'P 1'
_cell_length_a   8.67625137
_cell_length_b   9.02812824
_cell_length_c   11.41067118
_cell_angle_alpha   113.26106822
_cell_angle_beta   75.70272062
_cell_angle_gamma   106.90788595
_symmetry_Int_Tables_number   1
_chemical_formula_structural   Rb4Sn(SeO)4
_chemical_formula_sum   'Rb8 Sn2 Se8 O8'
_cell_volume   776.73107708
_cell_formula_units_Z   2
loop_
 _symmetry_equiv_pos_site_id
 _symmetry_equiv_pos_as_xyz
  1  'x, y, z'
loop_
 _atom_site_type_symbol
 _atom_site_label
 _atom_site_symmetry_multiplicity
 _atom_site_fract_x
 _atom_site_fract_y
 _atom_site_fract_z
 _atom_site_occupancy
  Rb  Rb0  1  0.48356400  0.81131000  0.26157900  1
  Rb  Rb1  1  0.51643600  0.18869000  0.73842100  1
  Rb  Rb2  1  0.10180000  0.86105500  0.53111000  1
  Rb  Rb3  1  0.89820000  0.13894500  0.46889000  1
  Rb  Rb4  1  0.81918600  0.61443900  0.00225700  1
  Rb  Rb5  1  0.18081400  0.38556100  0.99774300  1
  Rb  Rb6  1  0.79953700  0.03886900  0.85947200  1
  Rb  Rb7  1  0.20046300  0.96113100  0.14052800  1
  Sn  Sn0  1  0.64380900  0.32859900  0.25613200  1
  Sn  Sn1  1  0.35619100  0.67140100  0.74386800  1
  Se  Se0  1  0.79878200  0.63671000  0.34112100  1
  Se  Se1  1  0.20121800  0.36329000  0.65887900  1
  Se  Se2  1  0.89288500  0.17855900  0.18829200  1
  Se  Se3  1  0.10711500  0.82144100  0.81170800  1
  Se  Se4  1  0.45299600  0.24855800  0.45915700  1
  Se  Se5  1  0.54700400  0.75144200  0.54084300  1
  Se  Se6  1  0.50485400  0.29115100  0.07421900  1
  Se  Se7  1  0.49514600  0.70884900  0.92578100  1
  O  O0  1  0.99462100  0.61082200  0.19612800  1
  O  O1  1  0.00537900  0.38917800  0.80387200  1
  O  O2  1  0.69125300  0.93099800  0.61192300  1
  O  O3  1  0.30874700  0.06900200  0.38807800  1
  O  O4  1  0.82238800  0.97701600  0.19958200  1
  O  O5  1  0.17761200  0.02298400  0.80041800  1
  O  O6  1  0.14208300  0.70868500  0.24783300  1
  O  O7  1  0.85791700  0.29131500  0.75216700  1
loop_
_geom_bond_atom_site_label_1
_geom_bond_atom_site_label_2
_geom_bond_distance
_geom_bond_site_symmetry_2
Rb0 Se7 3.551326 1_554
Rb1 Se6 3.551326 1_556
Rb4 Se3 3.503134 1_654
Rb4 Se7 3.547584 1_554
Rb4 Se6 3.575978 1_555
Rb5 Se2 3.503134 1_456
Rb5 Se6 3.547584 1_556
Rb5 Se7 3.575978 1_555
Rb6 Se7 3.555434 1_545
Rb6 Se3 3.571482 1_645
Rb6 Se2 3.673378 1_556
Rb6 Se6 3.689678 1_556
Rb7 Se6 3.555434 1_565
Rb7 Se2 3.571482 1_465
Rb7 Se3 3.673378 1_554
Rb7 Se7 3.689678 1_554
Se0 Sn0 2.612249 1_555
Se1 Sn1 2.612249 1_555
Se2 Sn0 2.674417 1_555
Se3 Sn1 2.674417 1_555
Se4 Sn0 2.713294 1_555
Se5 Sn1 2.713294 1_555
Se6 Sn0 2.514193 1_555
Se7 Sn1 2.514193 1_555
O0 O6 1.438469 1_655
O0 Se0 2.053316 1_555
O0 Rb5 2.887658 1_654
O0 Rb4 2.993458 1_555
O0 Rb7 3.366615 1_655
O1 O7 1.438469 1_455
O1 Se1 2.053316 1_555
O1 Rb4 2.887658 1_456
O1 Rb5 2.993458 1_555
O1 Rb6 3.366615 1_455
O2 Se5 1.770534 1_555
O2 Rb1 2.848747 1_565
O2 Rb6 2.900995 1_565
O2 Rb3 2.902450 1_565
O3 Se4 1.770531 1_555
O3 Rb0 2.848748 1_545
O3 Rb7 2.901005 1_545
O3 Rb2 2.902442 1_545
O4 Se2 1.788957 1_565
O4 Rb0 2.937881 1_555
O4 Rb3 2.983918 1_565
O4 Rb4 3.153118 1_555
O4 Rb7 3.215650 1_655
O5 Se3 1.788957 1_545
O5 Rb1 2.937881 1_555
O5 Rb2 2.983918 1_545
O5 Rb5 3.153118 1_555
O5 Rb6 3.215650 1_455
O6 Rb7 2.859452 1_555
O6 Rb0 2.859912 1_555
O6 Rb2 2.944892 1_555
O6 Rb5 3.207470 1_554
O7 Rb6 2.859452 1_555
O7 Rb1 2.859912 1_555
O7 Rb3 2.944892 1_555
O7 Rb4 3.207470 1_556
