# generated using pymatgen
data_BaSrSmWO6
_symmetry_space_group_name_H-M   'P 1'
_cell_length_a   5.96825930
_cell_length_b   5.96825930
_cell_length_c   8.69370480
_cell_angle_alpha   90.00000000
_cell_angle_beta   90.00000000
_cell_angle_gamma   90.00000000
_symmetry_Int_Tables_number   1
_chemical_formula_structural   BaSrSmWO6
_chemical_formula_sum   'Ba2 Sr2 Sm2 W2 O12'
_cell_volume   309.67080015
_cell_formula_units_Z   2
loop_
 _symmetry_equiv_pos_site_id
 _symmetry_equiv_pos_as_xyz
  1  'x, y, z'
loop_
 _atom_site_type_symbol
 _atom_site_label
 _atom_site_symmetry_multiplicity
 _atom_site_fract_x
 _atom_site_fract_y
 _atom_site_fract_z
 _atom_site_occupancy
  Ba  Ba0  1  0.50000000  0.50000000  0.50000000  1
  Ba  Ba1  1  -0.00000000  -0.00000000  0.50000000  1
  Sr  Sr0  1  0.50000000  0.50000000  0.00000000  1
  Sr  Sr1  1  -0.00000000  -0.00000000  0.00000000  1
  Sm  Sm0  1  0.50000000  -0.00000000  0.75152981  1
  Sm  Sm1  1  0.00000000  0.50000000  0.24847019  1
  W  W0  1  0.50000000  -0.00000000  0.24151482  1
  W  W1  1  -0.00000000  0.50000000  0.75848518  1
  O  O0  1  0.50000000  -0.00000000  0.01095221  1
  O  O1  1  -0.00000000  0.50000000  0.98904779  1
  O  O2  1  0.50000000  -0.00000000  0.48123429  1
  O  O3  1  -0.00000000  0.50000000  0.51876571  1
  O  O4  1  0.71492440  0.67746644  0.75992855  1
  O  O5  1  0.28507560  0.32253356  0.75992855  1
  O  O6  1  0.82253356  0.21492440  0.75992855  1
  O  O7  1  0.17746644  0.78507560  0.75992855  1
  O  O8  1  0.78507560  0.17746644  0.24007145  1
  O  O9  1  0.21492440  0.82253356  0.24007145  1
  O  O10  1  0.67746644  0.71492440  0.24007145  1
  O  O11  1  0.32253356  0.28507560  0.24007145  1
loop_
_geom_bond_atom_site_label_1
_geom_bond_atom_site_label_2
_geom_bond_distance
_geom_bond_site_symmetry_2
Ba0 O10 2.806002 1_555
Ba0 O11 2.806002 1_555
Ba0 O4 2.806002 1_555
Ba0 O5 2.806002 1_555
Ba0 O2 2.988586 1_565
Ba0 O3 2.988586 1_655
Ba0 O2 2.988586 1_555
Ba0 O3 2.988586 1_555
Ba1 O7 2.806002 1_545
Ba1 O6 2.806002 1_455
Ba1 O9 2.806002 1_545
Ba1 O8 2.806002 1_455
Ba1 O3 2.988586 1_545
Ba1 O2 2.988586 1_455
Ba1 O2 2.988586 1_555
Ba1 O3 2.988586 1_555
O0 W0 2.004443 1_555
O0 Sm0 2.255342 1_554
O0 Sr0 2.985648 1_555
O0 Sr0 2.985648 1_545
O0 Sr1 2.985648 1_555
O0 Sr1 2.985648 1_655
O1 W1 2.004443 1_555
O1 Sm1 2.255342 1_556
O1 Sr0 2.985648 1_456
O1 Sr0 2.985648 1_556
O1 Sr1 2.985648 1_556
O1 Sr1 2.985648 1_566
O2 W0 2.084050 1_555
O2 Sm0 2.349869 1_555
O3 W1 2.084050 1_555
O3 Sm1 2.349869 1_555
O4 W1 2.004188 1_655
O4 Sm0 2.314346 1_565
O4 Sr0 2.668941 1_556
O5 W1 2.004188 1_555
O5 Sm0 2.314346 1_555
O5 Sr0 2.668941 1_556
O6 W1 2.004188 1_655
O6 Sm0 2.314346 1_555
O6 Sr1 2.668941 1_656
O7 W1 2.004188 1_555
O7 Sm0 2.314346 1_565
O7 Sr1 2.668941 1_566
O8 W0 2.004188 1_555
O8 Sm1 2.314346 1_655
O8 Sr1 2.668941 1_655
O9 W0 2.004188 1_565
O9 Sm1 2.314346 1_555
O9 Sr1 2.668941 1_565
O10 W0 2.004188 1_565
O10 Sm1 2.314346 1_655
O10 Sr0 2.668941 1_555
O11 W0 2.004188 1_555
O11 Sm1 2.314346 1_555
O11 Sr0 2.668941 1_555
