# generated using pymatgen
data_Ca2TiWO6
_symmetry_space_group_name_H-M   'P 1'
_cell_length_a   5.60168089
_cell_length_b   5.60168089
_cell_length_c   5.74858859
_cell_angle_alpha   59.89962840
_cell_angle_beta   59.89962840
_cell_angle_gamma   59.41678380
_symmetry_Int_Tables_number   1
_chemical_formula_structural   Ca2TiWO6
_chemical_formula_sum   'Ca2 Ti1 W1 O6'
_cell_volume   126.78776050
_cell_formula_units_Z   1
loop_
 _symmetry_equiv_pos_site_id
 _symmetry_equiv_pos_as_xyz
  1  'x, y, z'
loop_
 _atom_site_type_symbol
 _atom_site_label
 _atom_site_symmetry_multiplicity
 _atom_site_fract_x
 _atom_site_fract_y
 _atom_site_fract_z
 _atom_site_occupancy
  Ca  Ca0  1  0.74717600  0.74717600  0.78393600  1
  Ca  Ca1  1  0.24653000  0.24653000  0.27999200  1
  Ti  Ti0  1  0.49800600  0.49800600  0.48486500  1
  W  W0  1  0.99806700  0.99806700  0.98241200  1
  O  O0  1  0.74255000  0.74255000  0.23144100  1
  O  O1  1  0.25249800  0.25249800  0.69961200  1
  O  O2  1  0.74270500  0.26005900  0.22631000  1
  O  O3  1  0.26005900  0.74270500  0.22631000  1
  O  O4  1  0.74695200  0.24107100  0.71663300  1
  O  O5  1  0.24107100  0.74695200  0.71663300  1
loop_
_geom_bond_atom_site_label_1
_geom_bond_atom_site_label_2
_geom_bond_distance
_geom_bond_site_symmetry_2
Ca0 O0 2.546795 1_556
Ca0 O5 2.593704 1_655
Ca0 O4 2.593704 1_565
Ca0 O3 2.637953 1_556
Ca0 O2 2.637953 1_556
Ca0 O1 2.813446 1_565
Ca0 O1 2.813446 1_655
Ca0 O4 3.048186 1_555
Ca0 O5 3.048186 1_555
Ca1 O1 2.446215 1_555
Ca1 O4 2.664071 1_455
Ca1 O5 2.664071 1_545
Ca1 O3 2.675198 1_555
Ca1 O2 2.675198 1_555
Ca1 O0 2.792613 1_455
Ca1 O0 2.792613 1_545
Ca1 O3 2.949346 1_545
Ca1 O2 2.949346 1_455
Ca1 O4 3.041914 1_554
Ca1 O5 3.041914 1_554
O0 Ti0 1.944599 1_555
O0 W0 2.030016 1_554
O1 Ti0 1.955871 1_555
O1 W0 2.030877 1_445
O2 Ti0 1.987244 1_555
O2 W0 2.020355 1_544
O3 Ti0 1.987244 1_555
O3 W0 2.020355 1_454
O4 Ti0 1.920709 1_555
O4 W0 2.070548 1_545
O5 Ti0 1.920709 1_555
O5 W0 2.070548 1_455
