# generated using pymatgen
data_LaAs3
_symmetry_space_group_name_H-M   'P 1'
_cell_length_a   6.31388405
_cell_length_b   6.31388405
_cell_length_c   5.81982500
_cell_angle_alpha   90.00000000
_cell_angle_beta   90.00000000
_cell_angle_gamma   120.00000054
_symmetry_Int_Tables_number   1
_chemical_formula_structural   LaAs3
_chemical_formula_sum   'La2 As6'
_cell_volume   200.92489940
_cell_formula_units_Z   2
loop_
 _symmetry_equiv_pos_site_id
 _symmetry_equiv_pos_as_xyz
  1  'x, y, z'
loop_
 _atom_site_type_symbol
 _atom_site_label
 _atom_site_symmetry_multiplicity
 _atom_site_fract_x
 _atom_site_fract_y
 _atom_site_fract_z
 _atom_site_occupancy
  La  La0  1  0.66666700  0.33333300  0.25000000  1
  La  La1  1  0.33333300  0.66666700  0.75000000  1
  As  As0  1  0.80161800  0.19838200  0.75000000  1
  As  As1  1  0.39676400  0.19838200  0.75000000  1
  As  As2  1  0.80161800  0.60323600  0.75000000  1
  As  As3  1  0.19838200  0.80161800  0.25000000  1
  As  As4  1  0.19838200  0.39676400  0.25000000  1
  As  As5  1  0.60323600  0.80161800  0.25000000  1
loop_
_geom_bond_atom_site_label_1
_geom_bond_atom_site_label_2
_geom_bond_distance
_geom_bond_site_symmetry_2
As0 As1 2.556201 1_555
As0 As2 2.556201 1_555
As0 La1 3.175937 1_545
As0 La1 3.175937 1_655
As0 La0 3.262765 1_556
As0 La0 3.262765 1_555
As1 As2 2.556201 1_555
As1 La1 3.175935 1_545
As1 La1 3.175941 1_555
As1 La0 3.262767 1_556
As1 La0 3.262767 1_555
As2 La1 3.175935 1_655
As2 La1 3.175941 1_555
As2 La0 3.262767 1_556
As2 La0 3.262767 1_555
As3 As4 2.556201 1_555
As3 As5 2.556201 1_555
As3 La0 3.175937 1_455
As3 La0 3.175937 1_565
As3 La1 3.262765 1_554
As3 La1 3.262765 1_555
As4 As5 2.556201 1_555
As4 La0 3.175935 1_455
As4 La0 3.175941 1_555
As4 La1 3.262767 1_555
As4 La1 3.262767 1_554
As5 La0 3.175935 1_565
As5 La0 3.175941 1_555
As5 La1 3.262767 1_555
As5 La1 3.262767 1_554
