# generated using pymatgen
data_Ag3SbTe6
_symmetry_space_group_name_H-M   'P 1'
_cell_length_a   11.33089624
_cell_length_b   11.33089624
_cell_length_c   56.18388300
_cell_angle_alpha   90.00000000
_cell_angle_beta   90.00000000
_cell_angle_gamma   123.50413342
_symmetry_Int_Tables_number   1
_chemical_formula_structural   Ag3SbTe6
_chemical_formula_sum   'Ag3 Sb1 Te6'
_cell_volume   6014.86836327
_cell_formula_units_Z   1
loop_
 _symmetry_equiv_pos_site_id
 _symmetry_equiv_pos_as_xyz
  1  'x, y, z'
loop_
 _atom_site_type_symbol
 _atom_site_label
 _atom_site_symmetry_multiplicity
 _atom_site_fract_x
 _atom_site_fract_y
 _atom_site_fract_z
 _atom_site_occupancy
  Ag  Ag0  1  0.00000000  0.00000000  0.50000000  1
  Ag  Ag1  1  0.50000000  0.00000000  0.00000000  1
  Ag  Ag2  1  0.00000000  0.50000000  0.00000000  1
  Sb  Sb0  1  0.00000000  0.00000000  0.00000000  1
  Te  Te0  1  0.00000000  0.00000000  0.24999000  1
  Te  Te1  1  0.00000000  0.00000000  0.75001000  1
  Te  Te2  1  0.26327300  0.99588400  0.00000000  1
  Te  Te3  1  0.73672700  0.00411600  0.00000000  1
  Te  Te4  1  0.99588400  0.26327300  0.00000000  1
  Te  Te5  1  0.00411600  0.73672700  0.00000000  1
loop_
_geom_bond_atom_site_label_1
_geom_bond_atom_site_label_2
_geom_bond_distance
_geom_bond_site_symmetry_2
Ag1 Te2 2.656870 1_545
Ag1 Te3 2.656870 1_555
Ag2 Te4 2.656870 1_455
Ag2 Te5 2.656870 1_555
Sb0 Te3 3.009114 1_455
Sb0 Te5 3.009114 1_545
Sb0 Te4 3.009114 1_455
Sb0 Te2 3.009114 1_545
Te2 Te5 2.779602 1_555
Te3 Te4 2.779602 1_555
