# generated using pymatgen
data_Lu(MnSn)6
_symmetry_space_group_name_H-M   'P 1'
_cell_length_a   5.44116602
_cell_length_b   5.44245862
_cell_length_c   8.99853100
_cell_angle_alpha   90.00000000
_cell_angle_beta   90.00000000
_cell_angle_gamma   119.99213852
_symmetry_Int_Tables_number   1
_chemical_formula_structural   Lu(MnSn)6
_chemical_formula_sum   'Lu1 Mn6 Sn6'
_cell_volume   230.79359911
_cell_formula_units_Z   1
loop_
 _symmetry_equiv_pos_site_id
 _symmetry_equiv_pos_as_xyz
  1  'x, y, z'
loop_
 _atom_site_type_symbol
 _atom_site_label
 _atom_site_symmetry_multiplicity
 _atom_site_fract_x
 _atom_site_fract_y
 _atom_site_fract_z
 _atom_site_occupancy
  Lu  Lu0  1  0.99998100  0.00000000  0.00000000  1
  Mn  Mn0  1  0.49999500  0.00000000  0.24785800  1
  Mn  Mn1  1  0.49998900  0.50000300  0.24785600  1
  Mn  Mn2  1  0.99998600  0.49999700  0.24785600  1
  Mn  Mn3  1  0.49999500  0.00000000  0.75214200  1
  Mn  Mn4  1  0.49998900  0.50000300  0.75214400  1
  Mn  Mn5  1  0.99998600  0.49999700  0.75214400  1
  Sn  Sn0  1  0.33322800  0.66648900  0.00000000  1
  Sn  Sn1  1  0.66673800  0.33351100  0.00000000  1
  Sn  Sn2  1  0.33320800  0.66648300  0.50000000  1
  Sn  Sn3  1  0.66672500  0.33351700  0.50000000  1
  Sn  Sn4  1  0.99999100  0.00000000  0.33151900  1
  Sn  Sn5  1  0.99999100  0.00000000  0.66848100  1
loop_
_geom_bond_atom_site_label_1
_geom_bond_atom_site_label_2
_geom_bond_distance
_geom_bond_site_symmetry_2
Lu0 Sn4 2.983184 1_555
Lu0 Sn5 2.983184 1_554
Lu0 Sn1 3.141616 1_545
Lu0 Sn0 3.141616 1_655
Lu0 Sn0 3.142115 1_545
Lu0 Sn1 3.142119 1_555
Lu0 Sn1 3.142134 1_655
Lu0 Sn0 3.142138 1_645
Mn0 Sn0 2.728714 1_545
Mn0 Sn1 2.728714 1_555
Mn0 Sn3 2.760329 1_555
Mn0 Sn2 2.760329 1_545
Mn0 Sn4 2.822800 1_555
Mn0 Sn4 2.822842 1_455
Mn1 Sn1 2.727752 1_555
Mn1 Sn0 2.727768 1_555
Mn1 Sn3 2.759340 1_555
Mn1 Sn2 2.759444 1_555
Mn1 Sn4 2.823446 1_565
Mn1 Sn4 2.823452 1_455
Mn2 Sn0 2.727755 1_655
Mn2 Sn1 2.727771 1_555
Mn2 Sn2 2.759340 1_655
Mn2 Sn3 2.759445 1_555
Mn2 Sn4 2.823446 1_555
Mn2 Sn4 2.823451 1_565
Mn3 Sn0 2.728714 1_546
Mn3 Sn1 2.728714 1_556
Mn3 Sn3 2.760329 1_555
Mn3 Sn2 2.760329 1_545
Mn3 Sn5 2.822800 1_555
Mn3 Sn5 2.822842 1_455
Mn4 Sn1 2.727752 1_556
Mn4 Sn0 2.727768 1_556
Mn4 Sn3 2.759340 1_555
Mn4 Sn2 2.759444 1_555
Mn4 Sn5 2.823446 1_565
Mn4 Sn5 2.823452 1_455
Mn5 Sn0 2.727755 1_656
Mn5 Sn1 2.727771 1_556
Mn5 Sn2 2.759340 1_655
Mn5 Sn3 2.759445 1_555
Mn5 Sn5 2.823446 1_555
Mn5 Sn5 2.823451 1_565
Sn4 Sn5 3.032163 1_555
