# generated using pymatgen
data_Te4MoW3(SeS)2
_symmetry_space_group_name_H-M   'P 1'
_cell_length_a   3.39952524
_cell_length_b   3.39952524
_cell_length_c   38.76968200
_cell_angle_alpha   90.00000000
_cell_angle_beta   90.00000000
_cell_angle_gamma   119.99998522
_symmetry_Int_Tables_number   1
_chemical_formula_structural   Te4MoW3(SeS)2
_chemical_formula_sum   'Te4 Mo1 W3 Se2 S2'
_cell_volume   388.02479245
_cell_formula_units_Z   1
loop_
 _symmetry_equiv_pos_site_id
 _symmetry_equiv_pos_as_xyz
  1  'x, y, z'
loop_
 _atom_site_type_symbol
 _atom_site_label
 _atom_site_symmetry_multiplicity
 _atom_site_fract_x
 _atom_site_fract_y
 _atom_site_fract_z
 _atom_site_occupancy
  Te  Te0  1  0.00000000  0.00000000  0.33035700  1
  Te  Te1  1  0.00000000  0.00000000  0.70613100  1
  Te  Te2  1  0.00000000  0.00000000  0.23318900  1
  Te  Te3  1  0.00000000  0.00000000  0.60894300  1
  Mo  Mo0  1  0.00000000  0.00000000  0.09396100  1
  W  W0  1  0.00000000  0.00000000  0.46963600  1
  W  W1  1  0.33333300  0.66666700  0.28177400  1
  W  W2  1  0.33333300  0.66666700  0.65754000  1
  Se  Se0  1  0.33333300  0.66666700  0.42694400  1
  Se  Se1  1  0.33333300  0.66666700  0.51237000  1
  S  S0  1  0.33333300  0.66666700  0.05520600  1
  S  S1  1  0.33333300  0.66666700  0.13269700  1
loop_
_geom_bond_atom_site_label_1
_geom_bond_atom_site_label_2
_geom_bond_distance
_geom_bond_site_symmetry_2
Te0 W1 2.720294 1_545
Te0 W1 2.720297 1_555
Te0 W1 2.720297 1_445
Te1 W2 2.720509 1_545
Te1 W2 2.720511 1_555
Te1 W2 2.720511 1_445
Te2 W1 2.720348 1_545
Te2 W1 2.720350 1_555
Te2 W1 2.720350 1_445
Te3 W2 2.720670 1_545
Te3 W2 2.720672 1_445
Te3 W2 2.720672 1_555
Mo0 S1 2.471356 1_545
Mo0 S1 2.471358 1_555
Mo0 S1 2.471358 1_445
Mo0 S0 2.471803 1_545
Mo0 S0 2.471806 1_445
Mo0 S0 2.471806 1_555
Se0 W0 2.567448 1_565
Se0 W0 2.567450 1_555
Se0 W0 2.567450 1_665
Se1 W0 2.568498 1_565
Se1 W0 2.568500 1_555
Se1 W0 2.568500 1_665
