# generated using pymatgen
data_MnAlO3
_symmetry_space_group_name_H-M   'P 1'
_cell_length_a   6.02576293
_cell_length_b   6.00854868
_cell_length_c   10.61448202
_cell_angle_alpha   89.99296131
_cell_angle_beta   90.00154707
_cell_angle_gamma   127.36064077
_symmetry_Int_Tables_number   1
_chemical_formula_structural   MnAlO3
_chemical_formula_sum   'Mn6 Al6 O18'
_cell_volume   305.46087391
_cell_formula_units_Z   6
loop_
 _symmetry_equiv_pos_site_id
 _symmetry_equiv_pos_as_xyz
  1  'x, y, z'
loop_
 _atom_site_type_symbol
 _atom_site_label
 _atom_site_symmetry_multiplicity
 _atom_site_fract_x
 _atom_site_fract_y
 _atom_site_fract_z
 _atom_site_occupancy
  Mn  Mn0  1  0.65507400  0.98715500  0.49150200  1
  Mn  Mn1  1  0.68240500  0.68140400  0.01637100  1
  Mn  Mn2  1  0.01401100  0.34414000  0.99189700  1
  Mn  Mn3  1  0.98583800  0.65573000  0.49187200  1
  Mn  Mn4  1  0.31748000  0.31857700  0.51628300  1
  Mn  Mn5  1  0.34583200  0.01365500  0.99159700  1
  Al  Al0  1  0.64322500  0.33385200  0.23880800  1
  Al  Al1  1  0.35717000  0.66596700  0.73896000  1
  Al  Al2  1  0.66683500  0.35792800  0.73927600  1
  Al  Al3  1  0.33308300  0.64166000  0.23932600  1
  Al  Al4  1  0.96885300  0.97022800  0.75903100  1
  Al  Al5  1  0.03116500  0.02973600  0.25894400  1
  O  O0  1  0.74022500  0.39659200  0.04890900  1
  O  O1  1  0.26007500  0.60363700  0.54899900  1
  O  O2  1  0.60219300  0.26169100  0.54926600  1
  O  O3  1  0.39823800  0.73875700  0.04990400  1
  O  O4  1  0.06279300  0.06163600  0.93211600  1
  O  O5  1  0.93715800  0.93821500  0.43208300  1
  O  O6  1  0.44144400  0.00845500  0.82131600  1
  O  O7  1  0.37346500  0.37460200  0.34012100  1
  O  O8  1  0.99141200  0.55970800  0.32147500  1
  O  O9  1  0.00869000  0.44006600  0.82139900  1
  O  O10  1  0.62557400  0.62534400  0.84038200  1
  O  O11  1  0.55839800  0.99148100  0.32130500  1
  O  O12  1  0.29246600  0.04795100  0.16474500  1
  O  O13  1  0.29096600  0.29250000  0.69414000  1
  O  O14  1  0.95323600  0.70888700  0.66551100  1
  O  O15  1  0.04566300  0.29043600  0.16541800  1
  O  O16  1  0.70928700  0.70736500  0.19415800  1
  O  O17  1  0.70774700  0.95264200  0.66488800  1
loop_
_geom_bond_atom_site_label_1
_geom_bond_atom_site_label_2
_geom_bond_distance
_geom_bond_site_symmetry_2
Mn0 O17 1.900153 1_555
Mn0 O11 1.903150 1_555
Mn0 O2 1.958756 1_565
Mn0 O5 1.995046 1_555
Mn0 O1 2.165846 1_555
Mn1 O10 1.892195 1_554
Mn1 O16 1.892398 1_555
Mn1 O0 1.972997 1_555
Mn1 O3 1.973250 1_555
Mn1 O4 2.217499 1_664
Mn2 O15 1.899313 1_556
Mn2 O9 1.905412 1_555
Mn2 O0 1.954075 1_456
Mn2 O4 1.994040 1_555
Mn2 O3 2.167773 1_556
Mn3 O14 1.901025 1_555
Mn3 O8 1.905017 1_555
Mn3 O1 1.955510 1_655
Mn3 O5 1.993413 1_555
Mn3 O2 2.162836 1_555
Mn4 O13 1.893054 1_555
Mn4 O7 1.893564 1_555
Mn4 O1 1.973102 1_555
Mn4 O2 1.973412 1_555
Mn4 O5 2.217592 1_445
Mn5 O12 1.898476 1_556
Mn5 O6 1.903072 1_555
Mn5 O3 1.960554 1_546
Mn5 O4 1.996797 1_555
Mn5 O0 2.162374 1_556
Al0 O8 1.886311 1_555
Al0 O12 1.905240 1_555
Al0 O11 1.995831 1_545
Al0 O0 2.068616 1_555
Al0 O16 2.082142 1_555
Al0 O7 2.083719 1_555
Al1 O9 1.886290 1_555
Al1 O17 1.905605 1_555
Al1 O6 1.997234 1_565
Al1 O1 2.069390 1_555
Al1 O10 2.076839 1_555
Al1 O13 2.082012 1_555
Al2 O6 1.884292 1_555
Al2 O14 1.902913 1_555
Al2 O9 2.003226 1_655
Al2 O10 2.068957 1_555
Al2 O2 2.068983 1_555
Al2 O13 2.105515 1_555
Al3 O11 1.885594 1_555
Al3 O15 1.906046 1_555
Al3 O8 2.002790 1_455
Al3 O7 2.062076 1_555
Al3 O3 2.063699 1_555
Al3 O16 2.106766 1_555
Al4 O14 1.811369 1_555
Al4 O17 1.812005 1_555
Al4 O13 1.851927 1_665
Al4 O4 1.902703 1_665
Al4 O10 2.028778 1_555
Al5 O15 1.811183 1_555
Al5 O12 1.811576 1_555
Al5 O16 1.851310 1_445
Al5 O5 1.903278 1_445
Al5 O7 2.025766 1_555
