# generated using pymatgen
data_NdY3
_symmetry_space_group_name_H-M   'P 1'
_cell_length_a   7.35475764
_cell_length_b   7.35475764
_cell_length_c   5.89904178
_cell_angle_alpha   90.00000000
_cell_angle_beta   90.00000000
_cell_angle_gamma   120.00000597
_symmetry_Int_Tables_number   1
_chemical_formula_structural   NdY3
_chemical_formula_sum   'Nd2 Y6'
_cell_volume   276.34321776
_cell_formula_units_Z   2
loop_
 _symmetry_equiv_pos_site_id
 _symmetry_equiv_pos_as_xyz
  1  'x, y, z'
loop_
 _atom_site_type_symbol
 _atom_site_label
 _atom_site_symmetry_multiplicity
 _atom_site_fract_x
 _atom_site_fract_y
 _atom_site_fract_z
 _atom_site_occupancy
  Nd  Nd0  1  0.66666700  0.33333300  0.25000000  1
  Nd  Nd1  1  0.33333300  0.66666700  0.75000000  1
  Y  Y0  1  0.83500357  0.16499643  0.75000000  1
  Y  Y1  1  0.32999286  0.16499643  0.75000000  1
  Y  Y2  1  0.83500357  0.67000714  0.75000000  1
  Y  Y3  1  0.16499643  0.83500357  0.25000000  1
  Y  Y4  1  0.67000714  0.83500357  0.25000000  1
  Y  Y5  1  0.16499643  0.32999286  0.25000000  1
loop_
_geom_bond_atom_site_label_1
_geom_bond_atom_site_label_2
_geom_bond_distance
_geom_bond_site_symmetry_2
Nd0 Y0 3.646664 1_554
Nd0 Y0 3.646664 1_555
Nd0 Y2 3.646668 1_554
Nd0 Y2 3.646668 1_555
Nd0 Y1 3.646668 1_555
Nd0 Y1 3.646668 1_554
Nd0 Y4 3.677437 1_545
Nd0 Y5 3.677437 1_655
Nd0 Y3 3.677440 1_545
Nd0 Y3 3.677440 1_655
Nd0 Y5 3.677444 1_555
Nd0 Y4 3.677444 1_555
Nd1 Y3 3.646664 1_556
Nd1 Y3 3.646664 1_555
Nd1 Y4 3.646668 1_555
Nd1 Y4 3.646668 1_556
Nd1 Y5 3.646668 1_556
Nd1 Y5 3.646668 1_555
Nd1 Y1 3.677437 1_565
Nd1 Y2 3.677437 1_455
Nd1 Y0 3.677440 1_565
Nd1 Y0 3.677440 1_455
Nd1 Y1 3.677444 1_555
Nd1 Y2 3.677444 1_555
Y0 Y5 3.621807 1_655
Y0 Y4 3.621807 1_546
Y0 Y5 3.621807 1_656
Y0 Y4 3.621807 1_545
Y0 Y1 3.640526 1_655
Y0 Y2 3.640526 1_545
Y0 Y2 3.714231 1_555
Y0 Y1 3.714231 1_555
Y1 Y3 3.621807 1_546
Y1 Y3 3.621807 1_545
Y1 Y5 3.621807 1_556
Y1 Y5 3.621807 1_555
Y1 Y2 3.640526 1_445
Y1 Y2 3.714231 1_555
Y2 Y3 3.621807 1_655
Y2 Y3 3.621807 1_656
Y2 Y4 3.621807 1_555
Y2 Y4 3.621807 1_556
Y3 Y5 3.640526 1_565
Y3 Y4 3.640526 1_455
Y3 Y4 3.714231 1_555
Y3 Y5 3.714231 1_555
Y4 Y5 3.640526 1_665
Y4 Y5 3.714231 1_555
