# generated using pymatgen
data_Ca(BO3)2
_symmetry_space_group_name_H-M   'P 1'
_cell_length_a   12.52681000
_cell_length_b   6.89688400
_cell_length_c   11.36601471
_cell_angle_alpha   59.88857561
_cell_angle_beta   90.00000000
_cell_angle_gamma   90.00000000
_symmetry_Int_Tables_number   1
_chemical_formula_structural   Ca(BO3)2
_chemical_formula_sum   'Ca8 B16 O48'
_cell_volume   849.46119013
_cell_formula_units_Z   8
loop_
 _symmetry_equiv_pos_site_id
 _symmetry_equiv_pos_as_xyz
  1  'x, y, z'
loop_
 _atom_site_type_symbol
 _atom_site_label
 _atom_site_symmetry_multiplicity
 _atom_site_fract_x
 _atom_site_fract_y
 _atom_site_fract_z
 _atom_site_occupancy
  Ca  Ca0  1  0.24208800  0.92622200  0.26062100  1
  Ca  Ca1  1  0.25791200  0.92622200  0.76062100  1
  Ca  Ca2  1  0.75791200  0.07377800  0.73937900  1
  Ca  Ca3  1  0.74208800  0.07377800  0.23937900  1
  Ca  Ca4  1  0.09351400  0.58849600  0.64069300  1
  Ca  Ca5  1  0.40648600  0.58849600  0.14069300  1
  Ca  Ca6  1  0.90648600  0.41150400  0.35930700  1
  Ca  Ca7  1  0.59351400  0.41150400  0.85930700  1
  B  B0  1  0.48623400  0.07753800  0.16101200  1
  B  B1  1  0.01376600  0.07753800  0.66101200  1
  B  B2  1  0.51376600  0.92246200  0.83898800  1
  B  B3  1  0.98623400  0.92246200  0.33898800  1
  B  B4  1  0.34709500  0.35137900  0.98418400  1
  B  B5  1  0.15290500  0.35137900  0.48418400  1
  B  B6  1  0.65290500  0.64862100  0.01581600  1
  B  B7  1  0.84709500  0.64862100  0.51581600  1
  B  B8  1  0.33354500  0.46550600  0.73434200  1
  B  B9  1  0.16645500  0.46550600  0.23434200  1
  B  B10  1  0.66645500  0.53449400  0.26565800  1
  B  B11  1  0.83354500  0.53449400  0.76565800  1
  B  B12  1  0.19610100  0.18221500  0.91834600  1
  B  B13  1  0.30389900  0.18221500  0.41834600  1
  B  B14  1  0.80389900  0.81778500  0.08165400  1
  B  B15  1  0.69610100  0.81778500  0.58165400  1
  O  O0  1  0.42583900  0.28412600  0.09297900  1
  O  O1  1  0.07416100  0.28412600  0.59297900  1
  O  O2  1  0.57416100  0.71587400  0.90702100  1
  O  O3  1  0.92583900  0.71587400  0.40702100  1
  O  O4  1  0.42568700  0.87847800  0.19939500  1
  O  O5  1  0.07431300  0.87847800  0.69939500  1
  O  O6  1  0.57431300  0.12152200  0.80060500  1
  O  O7  1  0.92568700  0.12152200  0.30060500  1
  O  O8  1  0.40083700  0.42079900  0.85152300  1
  O  O9  1  0.09916300  0.42079900  0.35152300  1
  O  O10  1  0.59916300  0.57920100  0.14847700  1
  O  O11  1  0.90083700  0.57920100  0.64847700  1
  O  O12  1  0.39181900  0.45160200  0.62984400  1
  O  O13  1  0.10818100  0.45160200  0.12984400  1
  O  O14  1  0.60818100  0.54839800  0.37015600  1
  O  O15  1  0.89181900  0.54839800  0.87015600  1
  O  O16  1  0.34013400  0.96882600  0.43976400  1
  O  O17  1  0.15986600  0.96882600  0.93976400  1
  O  O18  1  0.65986600  0.03117400  0.56023600  1
  O  O19  1  0.84013400  0.03117400  0.06023600  1
  O  O20  1  0.27640400  0.67410800  0.67154500  1
  O  O21  1  0.22359600  0.67410800  0.17154500  1
  O  O22  1  0.72359600  0.32589200  0.32845500  1
  O  O23  1  0.77640400  0.32589200  0.82845500  1
  O  O24  1  0.26408100  0.18201500  0.02039000  1
  O  O25  1  0.23591900  0.18201500  0.52039000  1
  O  O26  1  0.73591900  0.81798500  0.97961000  1
  O  O27  1  0.76408100  0.81798500  0.47961000  1
  O  O28  1  0.24735600  0.28442500  0.77677900  1
  O  O29  1  0.25264400  0.28442500  0.27677900  1
  O  O30  1  0.75264400  0.71557500  0.22322100  1
  O  O31  1  0.74735600  0.71557500  0.72322100  1
  O  O32  1  0.19843000  0.56917900  0.45192100  1
  O  O33  1  0.30157000  0.56917900  0.95192100  1
  O  O34  1  0.80157000  0.43082100  0.54807900  1
  O  O35  1  0.69843000  0.43082100  0.04807900  1
  O  O36  1  0.10035900  0.31570000  0.88012900  1
  O  O37  1  0.39964100  0.31570000  0.38012900  1
  O  O38  1  0.89964100  0.68430000  0.11987100  1
  O  O39  1  0.60035900  0.68430000  0.61987100  1
  O  O40  1  0.08564900  0.91556900  0.40981600  1
  O  O41  1  0.41435100  0.91556900  0.90981600  1
  O  O42  1  0.91435100  0.08443100  0.59018400  1
  O  O43  1  0.58564900  0.08443100  0.09018400  1
  O  O44  1  0.04456500  0.96504500  0.21615400  1
  O  O45  1  0.45543500  0.96504500  0.71615400  1
  O  O46  1  0.95543500  0.03495500  0.78384600  1
  O  O47  1  0.54456500  0.03495500  0.28384600  1
loop_
_geom_bond_atom_site_label_1
_geom_bond_atom_site_label_2
_geom_bond_distance
_geom_bond_site_symmetry_2
Ca0 O32 2.391304 1_555
Ca0 O24 2.410484 1_565
Ca0 O21 2.422494 1_555
Ca0 O4 2.472287 1_555
Ca0 O44 2.512703 1_555
Ca0 O16 2.518134 1_555
Ca0 O40 2.568330 1_555
Ca0 O29 2.570942 1_565
Ca1 O33 2.391304 1_555
Ca1 O25 2.410484 1_565
Ca1 O20 2.422494 1_555
Ca1 O5 2.472287 1_555
Ca1 O45 2.512703 1_555
Ca1 O17 2.518134 1_555
Ca1 O41 2.568330 1_555
Ca1 O28 2.570942 1_565
Ca2 O34 2.391304 1_555
Ca2 O26 2.410484 1_545
Ca2 O23 2.422494 1_555
Ca2 O6 2.472287 1_555
Ca2 O46 2.512703 1_555
Ca2 O18 2.518134 1_555
Ca2 O42 2.568330 1_555
Ca2 O31 2.570942 1_545
Ca3 O35 2.391304 1_555
Ca3 O27 2.410484 1_545
Ca3 O22 2.422494 1_555
Ca3 O7 2.472287 1_555
Ca3 O47 2.512703 1_555
Ca3 O19 2.518134 1_555
Ca3 O43 2.568330 1_555
Ca3 O30 2.570942 1_545
Ca4 O36 2.411622 1_555
Ca4 O11 2.414922 1_455
Ca4 O5 2.416981 1_555
Ca4 O1 2.429364 1_555
Ca4 O20 2.434782 1_555
Ca4 O40 2.458657 1_555
Ca4 O32 2.575924 1_555
Ca4 O28 2.692523 1_555
Ca5 O37 2.411622 1_555
Ca5 O10 2.414922 1_555
Ca5 O4 2.416981 1_555
Ca5 O0 2.429364 1_555
Ca5 O21 2.434782 1_555
Ca5 O41 2.458657 1_554
Ca5 O33 2.575924 1_554
Ca5 O29 2.692523 1_555
Ca6 O38 2.411622 1_555
Ca6 O9 2.414922 1_655
Ca6 O7 2.416981 1_555
Ca6 O3 2.429364 1_555
Ca6 O22 2.434782 1_555
Ca6 O42 2.458657 1_555
Ca6 O34 2.575924 1_555
Ca6 O30 2.692523 1_555
Ca7 O39 2.411622 1_555
Ca7 O8 2.414922 1_555
Ca7 O6 2.416981 1_555
Ca7 O2 2.429364 1_555
Ca7 O23 2.434782 1_555
Ca7 O43 2.458657 1_556
Ca7 O35 2.575924 1_556
Ca7 O31 2.692523 1_555
B0 O4 1.431596 1_545
B0 O0 1.447392 1_555
B0 O47 1.468998 1_555
B0 O43 1.470660 1_555
B1 O5 1.431596 1_545
B1 O1 1.447392 1_555
B1 O46 1.468998 1_455
B1 O42 1.470660 1_455
B2 O6 1.431596 1_565
B2 O2 1.447392 1_555
B2 O45 1.468998 1_555
B2 O41 1.470660 1_555
B3 O7 1.431596 1_565
B3 O3 1.447392 1_555
B3 O44 1.468998 1_655
B3 O40 1.470660 1_655
B4 O24 1.460430 1_556
B4 O0 1.463472 1_556
B4 O33 1.470860 1_555
B4 O8 1.493869 1_555
B5 O25 1.460430 1_555
B5 O1 1.463472 1_555
B5 O32 1.470860 1_555
B5 O9 1.493869 1_555
B6 O26 1.460430 1_554
B6 O2 1.463472 1_554
B6 O35 1.470860 1_555
B6 O10 1.493869 1_555
B7 O27 1.460430 1_555
B7 O3 1.463472 1_555
B7 O34 1.470860 1_555
B7 O11 1.493869 1_555
B8 O20 1.435736 1_555
B8 O12 1.437724 1_555
B8 O8 1.472243 1_555
B8 O28 1.534166 1_555
B9 O21 1.435736 1_555
B9 O13 1.437724 1_555
B9 O9 1.472243 1_555
B9 O29 1.534166 1_555
B10 O22 1.435736 1_555
B10 O14 1.437724 1_555
B10 O10 1.472243 1_555
B10 O30 1.534166 1_555
B11 O23 1.435736 1_555
B11 O15 1.437724 1_555
B11 O11 1.472243 1_555
B11 O31 1.534166 1_555
B12 O24 1.438328 1_556
B12 O17 1.439366 1_545
B12 O36 1.439937 1_555
B12 O28 1.536272 1_555
B13 O25 1.438328 1_555
B13 O16 1.439366 1_545
B13 O37 1.439937 1_555
B13 O29 1.536272 1_555
B14 O26 1.438328 1_554
B14 O19 1.439366 1_565
B14 O38 1.439937 1_555
B14 O30 1.536272 1_555
B15 O27 1.438328 1_555
B15 O18 1.439366 1_565
B15 O39 1.439937 1_555
B15 O31 1.536272 1_555
