# generated using pymatgen
data_Ho(IO3)3
_symmetry_space_group_name_H-M   'P 1'
_cell_length_a   6.31664618
_cell_length_b   7.07046779
_cell_length_c   8.53660070
_cell_angle_alpha   90.00000000
_cell_angle_beta   90.00000000
_cell_angle_gamma   90.00000000
_symmetry_Int_Tables_number   1
_chemical_formula_structural   Ho(IO3)3
_chemical_formula_sum   'Ho2 I6 O18'
_cell_volume   381.25861594
_cell_formula_units_Z   2
loop_
 _symmetry_equiv_pos_site_id
 _symmetry_equiv_pos_as_xyz
  1  'x, y, z'
loop_
 _atom_site_type_symbol
 _atom_site_label
 _atom_site_symmetry_multiplicity
 _atom_site_fract_x
 _atom_site_fract_y
 _atom_site_fract_z
 _atom_site_occupancy
  Ho  Ho0  1  0.00000000  0.68171018  0.50000000  1
  Ho  Ho1  1  0.50000000  0.31828982  0.00000000  1
  I  I0  1  0.50000000  0.89066685  0.69093720  1
  I  I1  1  0.50000000  0.89066685  0.30906280  1
  I  I2  1  0.00000000  0.10933315  0.80906280  1
  I  I3  1  0.00000000  0.10933315  0.19093720  1
  I  I4  1  0.00000000  0.51031282  0.00000000  1
  I  I5  1  0.50000000  0.48968718  0.50000000  1
  O  O0  1  0.69183844  0.60917329  0.64154031  1
  O  O1  1  0.69183844  0.60917329  0.35845969  1
  O  O2  1  0.30816156  0.60917329  0.64154031  1
  O  O3  1  0.30816156  0.60917329  0.35845969  1
  O  O4  1  0.80816156  0.39082671  0.85845969  1
  O  O5  1  0.80816156  0.39082671  0.14154031  1
  O  O6  1  0.19183844  0.39082671  0.85845969  1
  O  O7  1  0.19183844  0.39082671  0.14154031  1
  O  O8  1  0.00000000  0.36359934  0.50000000  1
  O  O9  1  0.50000000  0.63640066  0.00000000  1
  O  O10  1  0.30969039  0.94451248  0.50000000  1
  O  O11  1  0.69030961  0.94451248  0.50000000  1
  O  O12  1  0.19030961  0.05548752  0.00000000  1
  O  O13  1  0.80969039  0.05548752  0.00000000  1
  O  O14  1  0.00000000  0.85797875  0.74582419  1
  O  O15  1  0.00000000  0.85797875  0.25417581  1
  O  O16  1  0.50000000  0.14202125  0.75417581  1
  O  O17  1  0.50000000  0.14202125  0.24582419  1
loop_
_geom_bond_atom_site_label_1
_geom_bond_atom_site_label_2
_geom_bond_distance
_geom_bond_site_symmetry_2
Ho0 O8 2.249192 1_555
Ho0 O1 2.347766 1_455
Ho0 O0 2.347766 1_455
Ho0 O2 2.347766 1_555
Ho0 O3 2.347766 1_555
Ho0 O14 2.440693 1_555
Ho0 O15 2.440693 1_555
Ho0 O10 2.698037 1_555
Ho0 O11 2.698037 1_455
Ho1 O9 2.249192 1_555
Ho1 O4 2.347766 1_554
Ho1 O5 2.347766 1_555
Ho1 O7 2.347766 1_555
Ho1 O6 2.347766 1_554
Ho1 O16 2.440693 1_554
Ho1 O17 2.440693 1_555
Ho1 O13 2.698037 1_555
Ho1 O12 2.698037 1_555
I0 O16 1.857376 1_565
I0 O11 2.060773 1_555
I0 O10 2.060773 1_555
I0 O2 2.368011 1_555
I0 O0 2.368011 1_555
I1 O17 1.857376 1_565
I1 O10 2.060773 1_555
I1 O11 2.060773 1_555
I1 O3 2.368011 1_555
I1 O1 2.368011 1_555
I2 O14 1.857376 1_545
I2 O13 2.060773 1_456
I2 O12 2.060773 1_556
I2 O6 2.368011 1_555
I2 O4 2.368011 1_455
I3 O15 1.857376 1_545
I3 O12 2.060773 1_555
I3 O13 2.060773 1_455
I3 O7 2.368011 1_555
I3 O5 2.368011 1_455
I4 O7 1.908415 1_555
I4 O6 1.908415 1_554
I4 O5 1.908415 1_455
I4 O4 1.908415 1_454
I5 O2 1.908415 1_555
I5 O3 1.908415 1_555
I5 O0 1.908415 1_555
I5 O1 1.908415 1_555
