# generated using pymatgen
data_K2SnF6
_symmetry_space_group_name_H-M   'P 1'
_cell_length_a   4.58208163
_cell_length_b   5.85648037
_cell_length_c   5.85640640
_cell_angle_alpha   120.00173865
_cell_angle_beta   89.99659754
_cell_angle_gamma   90.00142953
_symmetry_Int_Tables_number   1
_chemical_formula_structural   K2SnF6
_chemical_formula_sum   'K2 Sn1 F6'
_cell_volume   136.09862663
_cell_formula_units_Z   1
loop_
 _symmetry_equiv_pos_site_id
 _symmetry_equiv_pos_as_xyz
  1  'x, y, z'
loop_
 _atom_site_type_symbol
 _atom_site_label
 _atom_site_symmetry_multiplicity
 _atom_site_fract_x
 _atom_site_fract_y
 _atom_site_fract_z
 _atom_site_occupancy
  K  K0  1  0.69977698  0.66667062  0.33333198  1
  K  K1  1  0.30022632  0.33333012  0.66666734  1
  Sn  Sn0  1  -0.00000013  0.00000135  -0.00000077  1
  F  F0  1  0.76521157  0.16395446  0.32789914  1
  F  F1  1  0.23478002  0.83604971  0.67210328  1
  F  F2  1  0.76522260  0.16394426  0.83605449  1
  F  F3  1  0.23478435  0.83605159  0.16394841  1
  F  F4  1  0.76521581  0.67209959  0.83604629  1
  F  F5  1  0.23478148  0.32789730  0.16395085  1
loop_
_geom_bond_atom_site_label_1
_geom_bond_atom_site_label_2
_geom_bond_distance
_geom_bond_site_symmetry_2
F0 Sn0 1.980607 1_655
F0 K1 2.736977 1_555
F0 K0 2.943674 1_545
F0 K0 2.943684 1_555
F0 K1 2.993693 1_655
F1 Sn0 1.980570 1_566
F1 K0 2.737029 1_555
F1 K1 2.943668 1_565
F1 K1 2.943701 1_555
F1 K0 2.993658 1_455
F2 Sn0 1.980666 1_656
F2 K1 2.737204 1_555
F2 K0 2.943589 1_545
F2 K0 2.943591 1_556
F2 K1 2.993553 1_655
F3 Sn0 1.980732 1_565
F3 K0 2.737164 1_555
F3 K1 2.943585 1_554
F3 K1 2.943590 1_565
F3 K0 2.993542 1_455
F4 Sn0 1.980676 1_666
F4 K1 2.737090 1_555
F4 K0 2.943628 1_556
F4 K0 2.943660 1_555
F4 K1 2.993610 1_655
F5 Sn0 1.980645 1_555
F5 K0 2.737123 1_555
F5 K1 2.943630 1_554
F5 K1 2.943664 1_555
F5 K0 2.993598 1_455
