# generated using pymatgen
data_Ba4Nb2WO12
_symmetry_space_group_name_H-M   'P 1'
_cell_length_a   10.12285077
_cell_length_b   10.12285077
_cell_length_c   10.12285031
_cell_angle_alpha   33.72222992
_cell_angle_beta   33.72222992
_cell_angle_gamma   33.72223174
_symmetry_Int_Tables_number   1
_chemical_formula_structural   Ba4Nb2WO12
_chemical_formula_sum   'Ba4 Nb2 W1 O12'
_cell_volume   284.85053084
_cell_formula_units_Z   1
loop_
 _symmetry_equiv_pos_site_id
 _symmetry_equiv_pos_as_xyz
  1  'x, y, z'
loop_
 _atom_site_type_symbol
 _atom_site_label
 _atom_site_symmetry_multiplicity
 _atom_site_fract_x
 _atom_site_fract_y
 _atom_site_fract_z
 _atom_site_occupancy
  Ba  Ba0  1  0.28914300  0.28914300  0.28914300  1
  Ba  Ba1  1  0.71189200  0.71189200  0.71189200  1
  Ba  Ba2  1  0.13533400  0.13533400  0.13533400  1
  Ba  Ba3  1  0.86538500  0.86538500  0.86538500  1
  Nb  Nb0  1  0.00147100  0.00147100  0.00147100  1
  Nb  Nb1  1  0.42377300  0.42377300  0.42377300  1
  W  W0  1  0.58004000  0.58004000  0.58004000  1
  O  O0  1  0.29673500  0.78893300  0.78893300  1
  O  O1  1  0.78893300  0.78893300  0.29673500  1
  O  O2  1  0.78893300  0.29673500  0.78893300  1
  O  O3  1  0.71252700  0.20150800  0.20150800  1
  O  O4  1  0.20150800  0.20150800  0.71252700  1
  O  O5  1  0.20150800  0.71252700  0.20150800  1
  O  O6  1  0.12576400  0.61752500  0.61752500  1
  O  O7  1  0.61752500  0.61752500  0.12576400  1
  O  O8  1  0.61752500  0.12576400  0.61752500  1
  O  O9  1  0.86483000  0.38858800  0.38858800  1
  O  O10  1  0.38858800  0.38858800  0.86483000  1
  O  O11  1  0.38858800  0.86483000  0.38858800  1
loop_
_geom_bond_atom_site_label_1
_geom_bond_atom_site_label_2
_geom_bond_distance
_geom_bond_site_symmetry_2
Ba0 O10 2.788606 1_554
Ba0 O11 2.788606 1_545
Ba0 O9 2.788606 1_455
Ba0 O4 2.932977 1_555
Ba0 O5 2.932977 1_555
Ba0 O3 2.932977 1_555
Ba0 O0 2.937077 1_545
Ba0 O2 2.937077 1_455
Ba0 O2 2.937077 1_554
Ba0 O0 2.937077 1_554
Ba0 O1 2.937077 1_545
Ba0 O1 2.937077 1_455
Ba1 O7 2.753279 1_556
Ba1 O8 2.753279 1_565
Ba1 O6 2.753279 1_655
Ba1 O3 2.942671 1_565
Ba1 O5 2.942671 1_655
Ba1 O5 2.942671 1_556
Ba1 O3 2.942671 1_556
Ba1 O4 2.942671 1_655
Ba1 O4 2.942671 1_565
Ba1 O1 2.997621 1_555
Ba1 O2 2.997621 1_555
Ba1 O0 2.997621 1_555
Ba2 O11 2.867143 1_545
Ba2 O9 2.867143 1_455
Ba2 O10 2.867143 1_554
Ba2 O8 2.967759 1_554
Ba2 O6 2.967759 1_554
Ba2 O8 2.967759 1_455
Ba2 O6 2.967759 1_545
Ba2 O7 2.967759 1_545
Ba2 O7 2.967759 1_455
Ba2 O4 3.228599 1_554
Ba2 O5 3.228599 1_545
Ba2 O3 3.228599 1_455
Ba3 O6 2.829838 1_655
Ba3 O8 2.829838 1_565
Ba3 O7 2.829838 1_556
Ba3 O11 2.969645 1_556
Ba3 O9 2.969645 1_556
Ba3 O11 2.969645 1_655
Ba3 O9 2.969645 1_565
Ba3 O10 2.969645 1_565
Ba3 O10 2.969645 1_655
Ba3 O1 3.165081 1_556
Ba3 O0 3.165081 1_655
Ba3 O2 3.165081 1_565
Nb0 O3 1.967733 1_455
Nb0 O5 1.967733 1_545
Nb0 O4 1.967733 1_554
Nb0 O2 2.120645 1_454
Nb0 O0 2.120645 1_544
Nb0 O1 2.120645 1_445
Nb1 O7 1.873079 1_555
Nb1 O8 1.873079 1_555
Nb1 O6 1.873079 1_555
Nb1 O3 2.282413 1_555
Nb1 O5 2.282413 1_555
Nb1 O4 2.282413 1_555
O0 W0 2.104765 1_555
O1 W0 2.104765 1_555
O2 W0 2.104765 1_555
O9 W0 1.866242 1_555
O10 W0 1.866242 1_555
O11 W0 1.866242 1_555
