# generated using pymatgen
data_Fe5SiB2
_symmetry_space_group_name_H-M   'P 1'
_cell_length_a   5.50951100
_cell_length_b   5.50951100
_cell_length_c   6.44938653
_cell_angle_alpha   115.28585029
_cell_angle_beta   115.28585029
_cell_angle_gamma   90.00000000
_symmetry_Int_Tables_number   1
_chemical_formula_structural   Fe5SiB2
_chemical_formula_sum   'Fe10 Si2 B4'
_cell_volume   156.01620496
_cell_formula_units_Z   2
loop_
 _symmetry_equiv_pos_site_id
 _symmetry_equiv_pos_as_xyz
  1  'x, y, z'
loop_
 _atom_site_type_symbol
 _atom_site_label
 _atom_site_symmetry_multiplicity
 _atom_site_fract_x
 _atom_site_fract_y
 _atom_site_fract_z
 _atom_site_occupancy
  Fe  Fe0  1  0.03266800  0.53266800  0.72760900  1
  Fe  Fe1  1  0.69494100  0.19494100  0.72760900  1
  Fe  Fe2  1  0.19494100  0.03266800  0.72760900  1
  Fe  Fe3  1  0.53266800  0.69494100  0.72760900  1
  Fe  Fe4  1  0.96733200  0.46733200  0.27239100  1
  Fe  Fe5  1  0.30505900  0.80505900  0.27239100  1
  Fe  Fe6  1  0.80505900  0.96733200  0.27239100  1
  Fe  Fe7  1  0.46733200  0.30505900  0.27239100  1
  Fe  Fe8  1  0.50000000  0.50000000  0.00000000  1
  Fe  Fe9  1  0.00000000  0.00000000  0.00000000  1
  Si  Si0  1  0.25000000  0.25000000  0.50000000  1
  Si  Si1  1  0.75000000  0.75000000  0.50000000  1
  B  B0  1  0.38044700  0.88044700  0.00000000  1
  B  B1  1  0.61955300  0.11955300  0.00000000  1
  B  B2  1  0.11955300  0.38044700  0.00000000  1
  B  B3  1  0.88044700  0.61955300  0.00000000  1
loop_
_geom_bond_atom_site_label_1
_geom_bond_atom_site_label_2
_geom_bond_distance
_geom_bond_site_symmetry_2
Fe0 Si1 2.358509 1_455
Fe0 Si0 2.358509 1_555
Fe1 Si0 2.358509 1_555
Fe1 Si1 2.358509 1_545
Fe2 Si1 2.358509 1_445
Fe2 Si0 2.358509 1_555
Fe3 Si0 2.358509 1_555
Fe3 Si1 2.358509 1_555
Fe4 Si0 2.358509 1_655
Fe4 Si1 2.358509 1_555
Fe5 Si0 2.358509 1_565
Fe5 Si1 2.358509 1_555
Fe6 Si0 2.358509 1_665
Fe6 Si1 2.358509 1_555
Fe7 Si1 2.358509 1_555
Fe7 Si0 2.358509 1_555
Fe8 Si1 2.569885 1_555
Fe8 Si0 2.569885 1_554
Fe9 Si1 2.569885 1_444
Fe9 Si0 2.569885 1_555
B0 B1 1.863024 1_565
B0 Fe7 2.135161 1_565
B0 Fe6 2.135161 1_555
B0 Fe2 2.135161 1_564
B0 Fe3 2.135161 1_554
B0 Fe0 2.162843 1_554
B0 Fe5 2.162843 1_555
B0 Fe9 2.197134 1_565
B0 Fe8 2.197134 1_555
B1 Fe2 2.135161 1_554
B1 Fe3 2.135161 1_544
B1 Fe6 2.135161 1_545
B1 Fe7 2.135161 1_555
B1 Fe4 2.162843 1_555
B1 Fe1 2.162843 1_554
B1 Fe9 2.197134 1_655
B1 Fe8 2.197134 1_555
B2 B3 1.863024 1_455
B2 Fe5 2.135161 1_555
B2 Fe1 2.135161 1_454
B2 Fe4 2.135161 1_455
B2 Fe0 2.135161 1_554
B2 Fe7 2.162843 1_555
B2 Fe2 2.162843 1_554
B2 Fe9 2.197134 1_555
B2 Fe8 2.197134 1_555
B3 Fe5 2.135161 1_655
B3 Fe1 2.135161 1_554
B3 Fe0 2.135161 1_654
B3 Fe4 2.135161 1_555
B3 Fe3 2.162843 1_554
B3 Fe6 2.162843 1_555
B3 Fe9 2.197134 1_665
B3 Fe8 2.197134 1_555
