# generated using pymatgen
data_AlPO4
_symmetry_space_group_name_H-M   'P 1'
_cell_length_a   6.19983200
_cell_length_b   7.60132668
_cell_length_c   8.69773329
_cell_angle_alpha   98.36879828
_cell_angle_beta   104.48430676
_cell_angle_gamma   102.25244665
_symmetry_Int_Tables_number   1
_chemical_formula_structural   AlPO4
_chemical_formula_sum   'Al6 P6 O24'
_cell_volume   379.18778889
_cell_formula_units_Z   6
loop_
 _symmetry_equiv_pos_site_id
 _symmetry_equiv_pos_as_xyz
  1  'x, y, z'
loop_
 _atom_site_type_symbol
 _atom_site_label
 _atom_site_symmetry_multiplicity
 _atom_site_fract_x
 _atom_site_fract_y
 _atom_site_fract_z
 _atom_site_occupancy
  Al  Al0  1  0.23810600  0.31161500  0.58080800  1
  Al  Al1  1  0.76189400  0.68838500  0.41919200  1
  Al  Al2  1  0.53172500  0.10520700  0.78988100  1
  Al  Al3  1  0.46827500  0.89479300  0.21011900  1
  Al  Al4  1  0.01572500  0.70104900  0.97790800  1
  Al  Al5  1  0.98427500  0.29895100  0.02209200  1
  P  P0  1  0.99093500  0.99278200  0.74012600  1
  P  P1  1  0.00906500  0.00721800  0.25987400  1
  P  P2  1  0.80054000  0.40365200  0.65690800  1
  P  P3  1  0.19946000  0.59634800  0.34309200  1
  P  P4  1  0.47795200  0.69931000  0.86960300  1
  P  P5  1  0.52204800  0.30069000  0.13039700  1
  O  O0  1  0.05360600  0.85968800  0.84515800  1
  O  O1  1  0.94639400  0.14031200  0.15484200  1
  O  O2  1  0.22432400  0.12116700  0.73271100  1
  O  O3  1  0.77567600  0.87883300  0.26728900  1
  O  O4  1  0.86361600  0.11973500  0.82665400  1
  O  O5  1  0.13638400  0.88026500  0.17334600  1
  O  O6  1  0.82869000  0.90510000  0.57321900  1
  O  O7  1  0.17131000  0.09490000  0.42678100  1
  O  O8  1  0.93734500  0.47000500  0.84478200  1
  O  O9  1  0.06265500  0.52999500  0.15521800  1
  O  O10  1  0.73869700  0.56099100  0.58331700  1
  O  O11  1  0.26130300  0.43900900  0.41668300  1
  O  O12  1  0.93427200  0.30057900  0.56925800  1
  O  O13  1  0.06572800  0.69942100  0.43074200  1
  O  O14  1  0.56136100  0.26606300  0.64963600  1
  O  O15  1  0.43863900  0.73393700  0.35036400  1
  O  O16  1  0.64493000  0.26864000  0.98908500  1
  O  O17  1  0.35507000  0.73136000  0.01091500  1
  O  O18  1  0.47902800  0.86670100  0.78849000  1
  O  O19  1  0.52097200  0.13329900  0.21151000  1
  O  O20  1  0.71903500  0.69551500  0.96112600  1
  O  O21  1  0.28096500  0.30448500  0.03887400  1
  O  O22  1  0.34425400  0.52153100  0.74936800  1
  O  O23  1  0.65574600  0.47846900  0.25063200  1
loop_
_geom_bond_atom_site_label_1
_geom_bond_atom_site_label_2
_geom_bond_distance
_geom_bond_site_symmetry_2
Al0 O12 1.844273 1_455
Al0 O11 1.855313 1_555
Al0 O7 1.862914 1_555
Al0 O22 1.875976 1_555
Al0 O14 2.061434 1_555
Al0 O2 2.099842 1_555
Al1 O13 1.844273 1_655
Al1 O10 1.855313 1_555
Al1 O6 1.862914 1_555
Al1 O23 1.875976 1_555
Al1 O15 2.061434 1_555
Al1 O3 2.099842 1_555
Al2 O18 1.770298 1_545
Al2 O16 1.852829 1_555
Al2 O14 1.862166 1_555
Al2 O2 1.880378 1_555
Al2 O4 1.978017 1_555
Al3 O19 1.770298 1_565
Al3 O17 1.852829 1_555
Al3 O15 1.862166 1_555
Al3 O3 1.880378 1_555
Al3 O5 1.978017 1_555
Al4 O20 1.799343 1_455
Al4 O0 1.806423 1_555
Al4 O8 1.850840 1_455
Al4 O5 1.887393 1_556
Al4 O17 2.008654 1_556
Al4 O9 2.161816 1_556
Al5 O21 1.799343 1_655
Al5 O1 1.806423 1_555
Al5 O9 1.850840 1_655
Al5 O4 1.887393 1_554
Al5 O16 2.008654 1_554
Al5 O8 2.161816 1_554
O0 P0 1.505775 1_455
O1 P1 1.505775 1_655
O2 P0 1.586164 1_445
O3 P1 1.586164 1_665
O4 P0 1.590537 1_545
O5 P1 1.590537 1_565
O6 P0 1.505602 1_555
O7 P1 1.505602 1_555
O8 P2 1.590347 1_555
O9 P3 1.590347 1_555
O10 P2 1.510558 1_555
O11 P3 1.510558 1_555
O12 P2 1.516745 1_555
O13 P3 1.516745 1_555
O14 P2 1.603839 1_555
O15 P3 1.603839 1_555
O16 P5 1.615691 1_556
O17 P4 1.615691 1_554
O18 P4 1.541692 1_555
O19 P5 1.541692 1_555
O20 P4 1.516036 1_555
O21 P5 1.516036 1_555
O22 P4 1.512105 1_555
O23 P5 1.512105 1_555
