# generated using pymatgen
data_SiC
_symmetry_space_group_name_H-M   'P 1'
_cell_length_a   3.09819891
_cell_length_b   3.09819891
_cell_length_c   63.19012418
_cell_angle_alpha   88.59525935
_cell_angle_beta   88.59525935
_cell_angle_gamma   60.00001942
_symmetry_Int_Tables_number   1
_chemical_formula_structural   SiC
_chemical_formula_sum   'Si25 C25'
_cell_volume   525.07875642
_cell_formula_units_Z   25
loop_
 _symmetry_equiv_pos_site_id
 _symmetry_equiv_pos_as_xyz
  1  'x, y, z'
loop_
 _atom_site_type_symbol
 _atom_site_label
 _atom_site_symmetry_multiplicity
 _atom_site_fract_x
 _atom_site_fract_y
 _atom_site_fract_z
 _atom_site_occupancy
  Si  Si0  1  0.00001862  0.00001862  0.99994413  1
  Si  Si1  1  0.96002876  0.96002876  0.11991372  1
  Si  Si2  1  0.90686889  0.90686889  0.27939333  1
  Si  Si3  1  0.88005358  0.88005358  0.35983926  1
  Si  Si4  1  0.85317850  0.85317850  0.44046451  1
  Si  Si5  1  0.79996385  0.79996385  0.60010844  1
  Si  Si6  1  0.74668433  0.74668433  0.75994700  1
  Si  Si7  1  0.72002414  0.72002414  0.83992759  1
  Si  Si8  1  0.69334724  0.69334724  0.91995829  1
  Si  Si9  1  0.64001655  0.64001655  0.07995034  1
  Si  Si10  1  0.61340864  0.61340864  0.15977407  1
  Si  Si11  1  0.58683761  0.58683761  0.23948716  1
  Si  Si12  1  0.53326653  0.53326653  0.40020041  1
  Si  Si13  1  0.49320257  0.49320257  0.52039230  1
  Si  Si14  1  0.44000664  0.44000664  0.67998007  1
  Si  Si15  1  0.40001229  0.40001229  0.79996314  1
  Si  Si16  1  0.34669002  0.34669002  0.95992993  1
  Si  Si17  1  0.32001676  0.32001676  0.03994973  1
  Si  Si18  1  0.26678909  0.26678909  0.19963272  1
  Si  Si19  1  0.22681683  0.22681683  0.31954951  1
  Si  Si20  1  0.17317916  0.17317916  0.48046253  1
  Si  Si21  1  0.14659036  0.14659036  0.56022893  1
  Si  Si22  1  0.11999921  0.11999921  0.64000236  1
  Si  Si23  1  0.09333772  0.09333772  0.71998685  1
  Si  Si24  1  0.04002039  0.04002039  0.87993882  1
  C  C0  1  0.98996612  0.98996612  0.03010164  1
  C  C1  1  0.95000769  0.95000769  0.14997692  1
  C  C2  1  0.89683438  0.89683438  0.30949686  1
  C  C3  1  0.86995736  0.86995736  0.39012791  1
  C  C4  1  0.84314444  0.84314444  0.47056667  1
  C  C5  1  0.78993956  0.78993956  0.63018133  1
  C  C6  1  0.73666966  0.73666966  0.78999101  1
  C  C7  1  0.70999535  0.70999535  0.87001395  1
  C  C8  1  0.68333046  0.68333046  0.95000863  1
  C  C9  1  0.63001717  0.63001717  0.10994850  1
  C  C10  1  0.60342838  0.60342838  0.18971486  1
  C  C11  1  0.57683111  0.57683111  0.26950668  1
  C  C12  1  0.52315638  0.52315638  0.43053087  1
  C  C13  1  0.48318821  0.48318821  0.55043537  1
  C  C14  1  0.42997695  0.42997695  0.71006916  1
  C  C15  1  0.38995667  0.38995667  0.83012999  1
  C  C16  1  0.33667493  0.33667493  0.98997520  1
  C  C17  1  0.30999947  0.30999947  0.07000159  1
  C  C18  1  0.25677148  0.25677148  0.22968557  1
  C  C19  1  0.21671047  0.21671047  0.34986858  1
  C  C20  1  0.16318161  0.16318161  0.51045517  1
  C  C21  1  0.13660031  0.13660031  0.59019906  1
  C  C22  1  0.11000220  0.11000220  0.66999339  1
  C  C23  1  0.08333314  0.08333314  0.75000057  1
  C  C24  1  0.02996822  0.02996822  0.91009535  1
loop_
_geom_bond_atom_site_label_1
_geom_bond_atom_site_label_2
_geom_bond_distance
_geom_bond_site_symmetry_2
C0 Si17 1.893822 1_665
C0 Si17 1.893822 1_655
C0 Si17 1.893822 1_565
C0 Si0 1.904893 1_664
C1 Si10 1.892767 1_555
C1 Si10 1.892768 1_565
C1 Si10 1.892768 1_655
C1 Si1 1.898936 1_555
C2 Si19 1.898105 1_665
C2 Si19 1.898106 1_655
C2 Si19 1.898106 1_565
C2 Si2 1.901484 1_555
C3 Si12 1.898525 1_555
C3 Si12 1.898525 1_655
C3 Si12 1.898525 1_565
C3 Si3 1.913177 1_555
C4 Si20 1.894815 1_665
C4 Si20 1.894816 1_565
C4 Si20 1.894816 1_655
C4 Si4 1.901397 1_555
C5 Si22 1.893261 1_665
C5 Si22 1.893262 1_565
C5 Si22 1.893262 1_655
C5 Si5 1.899548 1_555
C6 Si15 1.896410 1_555
C6 Si15 1.896410 1_655
C6 Si15 1.896410 1_565
C6 Si6 1.897724 1_555
C7 Si24 1.895420 1_665
C7 Si24 1.895421 1_565
C7 Si24 1.895421 1_655
C7 Si7 1.900399 1_555
C8 Si16 1.895346 1_555
C8 Si16 1.895346 1_565
C8 Si16 1.895346 1_655
C8 Si8 1.898124 1_555
C9 Si9 1.894828 1_555
C9 Si1 1.896265 1_555
C9 Si1 1.896265 1_455
C9 Si1 1.896265 1_545
C10 Si10 1.891204 1_555
C10 Si18 1.895274 1_555
C10 Si18 1.895274 1_565
C10 Si18 1.895274 1_655
C11 Si2 1.894623 1_555
C11 Si2 1.894624 1_455
C11 Si2 1.894624 1_545
C11 Si11 1.896177 1_555
C12 Si4 1.895604 1_555
C12 Si4 1.895604 1_455
C12 Si4 1.895604 1_545
C12 Si12 1.915817 1_555
C13 Si21 1.892693 1_555
C13 Si21 1.892694 1_565
C13 Si21 1.892694 1_655
C13 Si13 1.897665 1_555
C14 Si23 1.895270 1_555
C14 Si23 1.895271 1_565
C14 Si23 1.895271 1_655
C14 Si14 1.900571 1_555
C15 Si7 1.892777 1_555
C15 Si7 1.892777 1_455
C15 Si7 1.892777 1_545
C15 Si15 1.905483 1_555
C16 Si0 1.896343 1_555
C16 Si0 1.896343 1_655
C16 Si0 1.896343 1_565
C16 Si16 1.897804 1_555
C17 Si9 1.895920 1_555
C17 Si9 1.895920 1_455
C17 Si9 1.895920 1_545
C17 Si17 1.898220 1_555
C18 Si11 1.892859 1_555
C18 Si11 1.892860 1_545
C18 Si11 1.892860 1_455
C18 Si18 1.898282 1_555
C19 Si3 1.896379 1_445
C19 Si3 1.896380 1_455
C19 Si3 1.896380 1_545
C19 Si19 1.915098 1_555
C20 Si20 1.894479 1_555
C20 Si13 1.895677 1_555
C20 Si13 1.895677 1_455
C20 Si13 1.895677 1_545
C21 Si21 1.893057 1_555
C21 Si5 1.895097 1_445
C21 Si5 1.895097 1_545
C21 Si5 1.895097 1_455
C22 Si22 1.894377 1_555
C22 Si14 1.896715 1_555
C22 Si14 1.896716 1_545
C22 Si14 1.896716 1_455
C23 Si23 1.895811 1_555
C23 Si6 1.895871 1_445
C23 Si6 1.895872 1_455
C23 Si6 1.895872 1_545
C24 Si8 1.894130 1_445
C24 Si8 1.894131 1_455
C24 Si8 1.894131 1_545
C24 Si24 1.904831 1_555
