# generated using pymatgen
data_U4Ni3(O13F7)2
_symmetry_space_group_name_H-M   'P 1'
_cell_length_a   8.47455000
_cell_length_b   12.18880200
_cell_length_c   17.06895085
_cell_angle_alpha   90.00000000
_cell_angle_beta   115.76925518
_cell_angle_gamma   90.00000000
_symmetry_Int_Tables_number   1
_chemical_formula_structural   U4Ni3(O13F7)2
_chemical_formula_sum   'U8 Ni6 O52 F28'
_cell_volume   1587.79116559
_cell_formula_units_Z   2
loop_
 _symmetry_equiv_pos_site_id
 _symmetry_equiv_pos_as_xyz
  1  'x, y, z'
loop_
 _atom_site_type_symbol
 _atom_site_label
 _atom_site_symmetry_multiplicity
 _atom_site_fract_x
 _atom_site_fract_y
 _atom_site_fract_z
 _atom_site_occupancy
  U  U0  1  0.50115600  0.77548700  0.17860300  1
  U  U1  1  0.49884400  0.27548700  0.32139700  1
  U  U2  1  0.49884400  0.22451300  0.82139700  1
  U  U3  1  0.50115600  0.72451300  0.67860300  1
  U  U4  1  0.50388700  0.75657500  0.94582300  1
  U  U5  1  0.49611300  0.25657500  0.55417700  1
  U  U6  1  0.49611300  0.24342500  0.05417700  1
  U  U7  1  0.50388700  0.74342500  0.44582300  1
  Ni  Ni0  1  0.01034300  0.47959100  0.66627800  1
  Ni  Ni1  1  0.98965700  0.97959100  0.83372200  1
  Ni  Ni2  1  0.98965700  0.52040900  0.33372200  1
  Ni  Ni3  1  0.01034300  0.02040900  0.16627800  1
  Ni  Ni4  1  0.00000000  0.50000000  0.00000000  1
  Ni  Ni5  1  0.00000000  0.00000000  0.50000000  1
  O  O0  1  0.56890300  0.63069900  0.18741900  1
  O  O1  1  0.43109700  0.13069900  0.31258100  1
  O  O2  1  0.43109700  0.36930100  0.81258100  1
  O  O3  1  0.56890300  0.86930100  0.68741900  1
  O  O4  1  0.43593800  0.91945600  0.16841000  1
  O  O5  1  0.56406200  0.41945600  0.33159000  1
  O  O6  1  0.56406200  0.08054400  0.83159000  1
  O  O7  1  0.43593800  0.58054400  0.66841000  1
  O  O8  1  0.43547400  0.90004700  0.92145900  1
  O  O9  1  0.56452600  0.40004700  0.57854100  1
  O  O10  1  0.56452600  0.09995300  0.07854100  1
  O  O11  1  0.43547400  0.59995300  0.42145900  1
  O  O12  1  0.57296400  0.61355700  0.97508300  1
  O  O13  1  0.42703600  0.11355700  0.52491700  1
  O  O14  1  0.42703600  0.38644300  0.02491700  1
  O  O15  1  0.57296400  0.88644300  0.47508300  1
  O  O16  1  0.12931600  0.51455600  0.78066500  1
  O  O17  1  0.87068400  0.01455600  0.71933500  1
  O  O18  1  0.87068400  0.48544400  0.21933500  1
  O  O19  1  0.12931600  0.98544400  0.28066500  1
  O  O20  1  0.03798300  0.33506800  0.69520400  1
  O  O21  1  0.96201700  0.83506800  0.80479600  1
  O  O22  1  0.96201700  0.66493200  0.30479600  1
  O  O23  1  0.03798300  0.16493200  0.19520400  1
  O  O24  1  0.85583200  0.50640200  0.71157800  1
  O  O25  1  0.14416800  0.00640200  0.78842200  1
  O  O26  1  0.14416800  0.49359800  0.28842200  1
  O  O27  1  0.85583200  0.99359800  0.21157800  1
  O  O28  1  0.98672200  0.61151500  0.61379800  1
  O  O29  1  0.01327800  0.11151500  0.88620200  1
  O  O30  1  0.01327800  0.38848500  0.38620200  1
  O  O31  1  0.98672200  0.88848500  0.11379800  1
  O  O32  1  0.87401800  0.46647300  0.55002500  1
  O  O33  1  0.12598200  0.96647300  0.94997500  1
  O  O34  1  0.12598200  0.53352700  0.44997500  1
  O  O35  1  0.87401800  0.03352700  0.05002500  1
  O  O36  1  0.18923200  0.42214700  0.64682500  1
  O  O37  1  0.81076800  0.92214700  0.85317500  1
  O  O38  1  0.81076800  0.57785300  0.35317500  1
  O  O39  1  0.18923200  0.07785300  0.14682500  1
  O  O40  1  0.00350400  0.43905700  0.90273600  1
  O  O41  1  0.99649600  0.93905700  0.59726400  1
  O  O42  1  0.99649600  0.56094300  0.09726400  1
  O  O43  1  0.00350400  0.06094300  0.40273600  1
  O  O44  1  0.79161800  0.47370400  0.00602300  1
  O  O45  1  0.20838200  0.97370400  0.49397700  1
  O  O46  1  0.20838200  0.52629600  0.99397700  1
  O  O47  1  0.79161800  0.02629600  0.50602300  1
  O  O48  1  0.93536200  0.62558100  0.93870200  1
  O  O49  1  0.06463800  0.12558100  0.56129800  1
  O  O50  1  0.06463800  0.37441900  0.06129800  1
  O  O51  1  0.93536200  0.87441900  0.43870200  1
  F  F0  1  0.51613100  0.73504400  0.81580000  1
  F  F1  1  0.48386900  0.23504400  0.68420000  1
  F  F2  1  0.48386900  0.26495600  0.18420000  1
  F  F3  1  0.51613100  0.76495600  0.31580000  1
  F  F4  1  0.24639200  0.73038100  0.15651400  1
  F  F5  1  0.75360800  0.23038100  0.34348600  1
  F  F6  1  0.75360800  0.26961900  0.84348600  1
  F  F7  1  0.24639200  0.76961900  0.65651400  1
  F  F8  1  0.34517800  0.75007100  0.02839900  1
  F  F9  1  0.65482200  0.25007100  0.47160100  1
  F  F10  1  0.65482200  0.24992900  0.97160100  1
  F  F11  1  0.34517800  0.74992900  0.52839900  1
  F  F12  1  0.65356400  0.80517700  0.09359400  1
  F  F13  1  0.34643600  0.30517700  0.40640600  1
  F  F14  1  0.34643600  0.19482300  0.90640600  1
  F  F15  1  0.65356400  0.69482300  0.59359400  1
  F  F16  1  0.75809600  0.83132700  0.26223500  1
  F  F17  1  0.24190400  0.33132700  0.23776500  1
  F  F18  1  0.24190400  0.16867300  0.73776500  1
  F  F19  1  0.75809600  0.66867300  0.76223500  1
  F  F20  1  0.24877400  0.70698400  0.85837300  1
  F  F21  1  0.75122600  0.20698400  0.64162700  1
  F  F22  1  0.75122600  0.29301600  0.14162700  1
  F  F23  1  0.24877400  0.79301600  0.35837300  1
  F  F24  1  0.76373500  0.79314000  0.97085000  1
  F  F25  1  0.23626500  0.29314000  0.52915000  1
  F  F26  1  0.23626500  0.20686000  0.02915000  1
  F  F27  1  0.76373500  0.70686000  0.47085000  1
loop_
_geom_bond_atom_site_label_1
_geom_bond_atom_site_label_2
_geom_bond_distance
_geom_bond_site_symmetry_2
Ni0 O28 1.808930 1_455
Ni0 O16 1.816220 1_555
Ni0 O24 1.816470 1_455
Ni0 O20 1.816917 1_555
Ni0 O32 1.817826 1_455
Ni0 O36 1.826594 1_555
Ni1 O29 1.808930 1_665
Ni1 O17 1.816220 1_565
Ni1 O25 1.816470 1_665
Ni1 O21 1.816917 1_555
Ni1 O33 1.817826 1_655
Ni1 O37 1.826594 1_555
Ni2 O30 1.808930 1_655
Ni2 O18 1.816220 1_555
Ni2 O26 1.816470 1_655
Ni2 O22 1.816917 1_555
Ni2 O34 1.817826 1_655
Ni2 O38 1.826594 1_555
Ni3 O31 1.808930 1_445
Ni3 O19 1.816220 1_545
Ni3 O27 1.816470 1_445
Ni3 O23 1.816917 1_555
Ni3 O35 1.817826 1_455
Ni3 O39 1.826594 1_555
Ni4 O48 1.799844 1_454
Ni4 O50 1.799844 1_555
Ni4 O42 1.830786 1_455
Ni4 O40 1.830786 1_554
Ni4 O46 1.841118 1_554
Ni4 O44 1.841118 1_455
Ni5 O49 1.799844 1_555
Ni5 O51 1.799844 1_445
Ni5 O43 1.830786 1_555
Ni5 O41 1.830786 1_445
Ni5 O45 1.841118 1_545
Ni5 O47 1.841118 1_455
O0 U0 1.841640 1_555
O1 U1 1.841640 1_555
O2 U2 1.841640 1_555
O3 U3 1.841640 1_555
O4 U0 1.825236 1_555
O5 U1 1.825236 1_555
O6 U2 1.825236 1_555
O7 U3 1.825236 1_555
O8 U4 1.832367 1_555
O9 U5 1.832367 1_555
O10 U6 1.832367 1_555
O11 U7 1.832367 1_555
O12 U4 1.837586 1_555
O13 U5 1.837586 1_555
O14 U6 1.837586 1_555
O15 U7 1.837586 1_555
F0 U4 2.281538 1_555
F0 U3 2.293086 1_555
F1 U5 2.281538 1_555
F1 U2 2.293086 1_555
F2 U6 2.281538 1_555
F2 U1 2.293086 1_555
F3 U7 2.281538 1_555
F3 U0 2.293086 1_555
F4 U0 2.097131 1_555
F5 U1 2.097131 1_555
F6 U2 2.097131 1_555
F7 U3 2.097131 1_555
F8 U4 2.334580 1_554
F8 U0 2.338747 1_555
F9 U5 2.334580 1_555
F9 U1 2.338747 1_555
F10 U6 2.334580 1_556
F10 U2 2.338747 1_555
F11 U7 2.334580 1_555
F11 U3 2.338747 1_555
F12 U0 2.352476 1_555
F12 U4 2.353722 1_554
F13 U1 2.352476 1_555
F13 U5 2.353722 1_555
F14 U2 2.352476 1_555
F14 U6 2.353722 1_556
F15 U3 2.352476 1_555
F15 U7 2.353722 1_555
F16 U0 2.130644 1_555
F17 U1 2.130644 1_555
F18 U2 2.130644 1_555
F19 U3 2.130644 1_555
F20 U4 2.112248 1_555
F21 U5 2.112248 1_555
F22 U6 2.112248 1_555
F23 U7 2.112248 1_555
F24 U4 2.100573 1_555
F25 U5 2.100573 1_555
F26 U6 2.100573 1_555
F27 U7 2.100573 1_555
