# generated using pymatgen
data_Ba2LiTbSnO6
_symmetry_space_group_name_H-M   'P 1'
_cell_length_a   6.02480157
_cell_length_b   6.45552807
_cell_length_c   6.46224044
_cell_angle_alpha   55.60124335
_cell_angle_beta   89.97262308
_cell_angle_gamma   117.74415521
_symmetry_Int_Tables_number   1
_chemical_formula_structural   Ba2LiTbSnO6
_chemical_formula_sum   'Ba2 Li1 Tb1 Sn1 O6'
_cell_volume   171.18074307
_cell_formula_units_Z   1
loop_
 _symmetry_equiv_pos_site_id
 _symmetry_equiv_pos_as_xyz
  1  'x, y, z'
loop_
 _atom_site_type_symbol
 _atom_site_label
 _atom_site_symmetry_multiplicity
 _atom_site_fract_x
 _atom_site_fract_y
 _atom_site_fract_z
 _atom_site_occupancy
  Ba  Ba0  1  0.75493000  0.50944700  0.75493000  1
  Ba  Ba1  1  0.20981200  0.42050700  0.20981200  1
  Li  Li0  1  0.37327400  0.74160600  0.37327400  1
  Tb  Tb0  1  0.99659400  0.99258100  0.99659400  1
  Sn  Sn0  1  0.51575700  0.03139000  0.51575700  1
  O  O0  1  0.26586400  0.00828600  0.26586400  1
  O  O1  1  0.74693600  0.00170100  0.74693600  1
  O  O2  1  0.26619300  0.53024800  0.74504900  1
  O  O3  1  0.74659700  0.49365800  0.25399300  1
  O  O4  1  0.25399300  0.00105400  0.74659700  1
  O  O5  1  0.74504900  0.00910400  0.26619300  1
loop_
_geom_bond_atom_site_label_1
_geom_bond_atom_site_label_2
_geom_bond_distance
_geom_bond_site_symmetry_2
Ba0 O2 3.008500 1_555
Ba0 O5 3.008500 1_565
Ba0 O0 3.015989 1_665
Ba0 O0 3.015989 1_556
Ba0 O2 3.019126 1_655
Ba0 O5 3.019126 1_556
Ba0 O3 3.168220 1_556
Ba0 O4 3.168220 1_665
Ba0 O1 3.171775 1_565
Ba0 O1 3.285285 1_555
Ba0 O3 3.295515 1_555
Ba0 O4 3.295515 1_555
Ba1 Li0 2.637590 1_555
Ba1 O2 2.647376 1_554
Ba1 O5 2.647376 1_455
Ba1 O0 2.659778 1_555
Ba1 O3 3.077588 1_455
Ba1 O4 3.077588 1_564
Ba1 O3 3.081355 1_555
Ba1 O4 3.081355 1_555
Ba1 O1 3.082568 1_455
Ba1 O1 3.082568 1_564
Li0 O5 1.877496 1_565
Li0 O2 1.877496 1_555
Li0 O0 1.884630 1_565
O0 Sn0 2.227586 1_555
O0 Tb0 2.391429 1_444
O1 Sn0 2.033591 1_555
O1 Tb0 2.201419 1_545
O2 Sn0 2.230489 1_565
O2 Tb0 2.387762 1_445
O3 Sn0 2.032471 1_555
O3 Tb0 2.199241 1_554
O4 Sn0 2.032471 1_555
O4 Tb0 2.199241 1_445
O5 Sn0 2.230489 1_555
O5 Tb0 2.387762 1_544
