# generated using pymatgen
data_SnSe
_symmetry_space_group_name_H-M   'P 1'
_cell_length_a   7.59288795
_cell_length_b   7.59288795
_cell_length_c   27.09868100
_cell_angle_alpha   90.00000000
_cell_angle_beta   90.00000000
_cell_angle_gamma   110.91303032
_symmetry_Int_Tables_number   1
_chemical_formula_structural   SnSe
_chemical_formula_sum   'Sn4 Se4'
_cell_volume   1459.37313793
_cell_formula_units_Z   4
loop_
 _symmetry_equiv_pos_site_id
 _symmetry_equiv_pos_as_xyz
  1  'x, y, z'
loop_
 _atom_site_type_symbol
 _atom_site_label
 _atom_site_symmetry_multiplicity
 _atom_site_fract_x
 _atom_site_fract_y
 _atom_site_fract_z
 _atom_site_occupancy
  Sn  Sn0  1  0.73381100  0.01030600  0.75000000  1
  Sn  Sn1  1  0.26618900  0.98969400  0.25000000  1
  Sn  Sn2  1  0.98969400  0.26618900  0.25000000  1
  Sn  Sn3  1  0.01030600  0.73381100  0.75000000  1
  Se  Se0  1  0.83034500  0.37242000  0.75000000  1
  Se  Se1  1  0.16965500  0.62758000  0.25000000  1
  Se  Se2  1  0.62758000  0.16965500  0.25000000  1
  Se  Se3  1  0.37242000  0.83034500  0.75000000  1
loop_
_geom_bond_atom_site_label_1
_geom_bond_atom_site_label_2
_geom_bond_distance
_geom_bond_site_symmetry_2
Se0 Sn0 2.580354 1_555
Se0 Sn3 2.592279 1_655
Se1 Sn1 2.580354 1_555
Se1 Sn2 2.592279 1_455
Se2 Sn2 2.580354 1_555
Se2 Sn1 2.592279 1_545
Se3 Sn3 2.580354 1_555
Se3 Sn0 2.592279 1_565
