# generated using pymatgen
data_LaMnO3
_symmetry_space_group_name_H-M   'P 1'
_cell_length_a   5.58273474
_cell_length_b   5.58158627
_cell_length_c   5.58272201
_cell_angle_alpha   60.00796122
_cell_angle_beta   89.97534049
_cell_angle_gamma   119.99205557
_symmetry_Int_Tables_number   1
_chemical_formula_structural   LaMnO3
_chemical_formula_sum   'La2 Mn2 O6'
_cell_volume   123.01173613
_cell_formula_units_Z   2
loop_
 _symmetry_equiv_pos_site_id
 _symmetry_equiv_pos_as_xyz
  1  'x, y, z'
loop_
 _atom_site_type_symbol
 _atom_site_label
 _atom_site_symmetry_multiplicity
 _atom_site_fract_x
 _atom_site_fract_y
 _atom_site_fract_z
 _atom_site_occupancy
  La  La0  1  0.00000200  0.00000100  0.00000100  1
  La  La1  1  0.49999600  0.00000200  0.49999500  1
  Mn  Mn0  1  0.25000300  0.49999800  0.25000200  1
  Mn  Mn1  1  0.74999500  0.49999700  0.75000100  1
  O  O0  1  0.48908000  0.49999800  0.01092100  1
  O  O1  1  0.01092400  0.50000400  0.48907700  1
  O  O2  1  0.48944100  0.50000000  0.48944100  1
  O  O3  1  0.01056200  0.50000100  0.01056000  1
  O  O4  1  0.48940600  0.97882100  0.01059300  1
  O  O5  1  0.01059100  0.02117700  0.48940800  1
loop_
_geom_bond_atom_site_label_1
_geom_bond_atom_site_label_2
_geom_bond_distance
_geom_bond_site_symmetry_2
La0 O3 2.792036 1_555
La0 O3 2.792042 1_545
La0 O2 2.792077 1_554
La0 O2 2.792082 1_445
La0 O5 2.792583 1_555
La0 O4 2.792584 1_545
La0 O5 2.792641 1_554
La0 O4 2.792653 1_445
La0 O1 2.792729 1_545
La0 O0 2.792731 1_555
La0 O1 2.792759 1_554
La0 O0 2.792761 1_445
La1 O2 2.792029 1_555
La1 O2 2.792046 1_545
La1 O3 2.792078 1_546
La1 O3 2.792084 1_655
La1 O4 2.792570 1_545
La1 O5 2.792575 1_555
La1 O4 2.792655 1_546
La1 O5 2.792661 1_655
La1 O0 2.792703 1_555
La1 O1 2.792712 1_545
La1 O1 2.792781 1_655
La1 O0 2.792783 1_546
Mn0 O0 1.887163 1_555
Mn0 O1 1.887171 1_555
Mn0 O5 1.889848 1_555
Mn0 O4 1.889855 1_555
Mn0 O2 1.890814 1_555
Mn0 O3 1.890838 1_555
Mn1 O4 2.057018 1_546
Mn1 O5 2.057033 1_665
Mn1 O2 2.057584 1_555
Mn1 O3 2.057632 1_656
Mn1 O0 2.059549 1_556
Mn1 O1 2.059588 1_655
