# generated using pymatgen
data_Y4(FeB2)3
_symmetry_space_group_name_H-M   'P 1'
_cell_length_a   5.34535592
_cell_length_b   5.34535600
_cell_length_c   7.94982080
_cell_angle_alpha   70.35487021
_cell_angle_beta   70.35487251
_cell_angle_gamma   59.99999953
_symmetry_Int_Tables_number   1
_chemical_formula_structural   Y4(FeB2)3
_chemical_formula_sum   'Y4 Fe3 B6'
_cell_volume   181.28899277
_cell_formula_units_Z   1
loop_
 _symmetry_equiv_pos_site_id
 _symmetry_equiv_pos_as_xyz
  1  'x, y, z'
loop_
 _atom_site_type_symbol
 _atom_site_label
 _atom_site_symmetry_multiplicity
 _atom_site_fract_x
 _atom_site_fract_y
 _atom_site_fract_z
 _atom_site_occupancy
  Y  Y0  1  0.74397700  0.74397700  0.76807000  1
  Y  Y1  1  0.25602300  0.25602300  0.23193000  1
  Y  Y2  1  0.58798700  0.58798700  0.23604000  1
  Y  Y3  1  0.41201300  0.41201300  0.76396000  1
  Fe  Fe0  1  0.00000000  0.00000000  0.00000000  1
  Fe  Fe1  1  0.88669700  0.88669700  0.33990800  1
  Fe  Fe2  1  0.11330300  0.11330300  0.66009200  1
  B  B0  1  0.50000000  0.16726200  0.50000000  1
  B  B1  1  0.83273800  0.50000000  0.50000000  1
  B  B2  1  0.16726200  0.83273800  0.50000000  1
  B  B3  1  0.16726200  0.50000000  0.50000000  1
  B  B4  1  0.83273800  0.16726200  0.50000000  1
  B  B5  1  0.50000000  0.83273800  0.50000000  1
loop_
_geom_bond_atom_site_label_1
_geom_bond_atom_site_label_2
_geom_bond_distance
_geom_bond_site_symmetry_2
Fe0 Fe2 2.490284 1_554
Fe0 Fe1 2.490284 1_445
Fe0 Y0 3.523001 1_444
Fe0 Y1 3.523001 1_555
Fe0 Y1 3.523005 1_545
Fe0 Y0 3.523005 1_454
Fe0 Y0 3.523005 1_544
Fe0 Y1 3.523005 1_455
Fe0 Y3 3.537623 1_554
Fe0 Y2 3.537623 1_445
Fe0 Y2 3.537627 1_545
Fe0 Y3 3.537627 1_454
Fe0 Y2 3.537627 1_455
Fe0 Y3 3.537627 1_544
B0 B3 1.778603 1_555
B0 B4 1.778603 1_555
B0 B5 1.788150 1_545
B0 Fe2 2.134502 1_555
B0 Fe1 2.134505 1_545
B0 Y3 2.627403 1_555
B0 Y2 2.627406 1_555
B0 Y0 2.652854 1_545
B0 Y1 2.652856 1_555
B1 B5 1.778603 1_555
B1 B4 1.778603 1_555
B1 B3 1.788150 1_655
B1 Fe1 2.134502 1_555
B1 Fe2 2.134504 1_655
B1 Y2 2.627403 1_555
B1 Y3 2.627406 1_555
B1 Y1 2.652854 1_655
B1 Y0 2.652856 1_555
B2 B5 1.778603 1_555
B2 B3 1.778603 1_555
B2 B4 1.788150 1_465
B2 Fe1 2.134507 1_455
B2 Fe2 2.134507 1_565
B2 Y3 2.627404 1_555
B2 Y2 2.627405 1_555
B2 Y1 2.652852 1_565
B2 Y0 2.652852 1_455
B3 Fe2 2.134502 1_555
B3 Fe1 2.134504 1_455
B3 Y3 2.627403 1_555
B3 Y2 2.627406 1_555
B3 Y0 2.652854 1_455
B3 Y1 2.652856 1_555
B4 Fe2 2.134507 1_655
B4 Fe1 2.134507 1_545
B4 Y2 2.627404 1_555
B4 Y3 2.627405 1_555
B4 Y0 2.652852 1_545
B4 Y1 2.652852 1_655
B5 Fe1 2.134502 1_555
B5 Fe2 2.134505 1_565
B5 Y2 2.627403 1_555
B5 Y3 2.627406 1_555
B5 Y1 2.652854 1_565
B5 Y0 2.652856 1_555
