# generated using pymatgen
data_EuMgSi
_symmetry_space_group_name_H-M   'P 1'
_cell_length_a   4.50479000
_cell_length_b   7.59580238
_cell_length_c   8.37156574
_cell_angle_alpha   89.99987689
_cell_angle_beta   90.00000000
_cell_angle_gamma   90.00000000
_symmetry_Int_Tables_number   1
_chemical_formula_structural   EuMgSi
_chemical_formula_sum   'Eu4 Mg4 Si4'
_cell_volume   286.45400553
_cell_formula_units_Z   4
loop_
 _symmetry_equiv_pos_site_id
 _symmetry_equiv_pos_as_xyz
  1  'x, y, z'
loop_
 _atom_site_type_symbol
 _atom_site_label
 _atom_site_symmetry_multiplicity
 _atom_site_fract_x
 _atom_site_fract_y
 _atom_site_fract_z
 _atom_site_occupancy
  Eu  Eu0  1  0.25000000  0.01602554  0.31658239  1
  Eu  Eu1  1  0.25000000  0.51602637  0.18342133  1
  Eu  Eu2  1  0.75000000  0.98396946  0.68348732  1
  Eu  Eu3  1  0.75000000  0.48396910  0.81650689  1
  Mg  Mg0  1  0.25000000  0.14469770  0.93575091  1
  Mg  Mg1  1  0.25000000  0.64470039  0.56424881  1
  Mg  Mg2  1  0.75000000  0.85531278  0.06418341  1
  Mg  Mg3  1  0.75000000  0.35530899  0.43581791  1
  Si  Si0  1  0.25000000  0.27694327  0.61058882  1
  Si  Si1  1  0.25000000  0.77694747  0.88941027  1
  Si  Si2  1  0.75000000  0.72305190  0.38946690  1
  Si  Si3  1  0.75000000  0.22304703  0.11053405  1
loop_
_geom_bond_atom_site_label_1
_geom_bond_atom_site_label_2
_geom_bond_distance
_geom_bond_site_symmetry_2
Eu0 Si0 3.160037 1_555
Eu0 Si2 3.224568 1_445
Eu0 Si2 3.224568 1_545
Eu0 Si3 3.243679 1_455
Eu0 Si3 3.243679 1_555
Eu1 Si1 3.160077 1_554
Eu1 Si3 3.224604 1_555
Eu1 Si3 3.224604 1_455
Eu1 Si2 3.243685 1_455
Eu1 Si2 3.243685 1_555
Eu2 Si2 3.160128 1_555
Eu2 Si0 3.224591 1_565
Eu2 Si0 3.224591 1_665
Eu2 Si1 3.243123 1_555
Eu2 Si1 3.243123 1_655
Eu3 Si3 3.160187 1_556
Eu3 Si1 3.224625 1_555
Eu3 Si1 3.224625 1_655
Eu3 Si0 3.243119 1_655
Eu3 Si0 3.243119 1_555
Mg0 Si3 2.751080 1_556
Mg0 Si3 2.751080 1_456
Mg0 Si1 2.820169 1_545
Mg0 Si0 2.901542 1_555
Mg1 Si2 2.751077 1_455
Mg1 Si2 2.751077 1_555
Mg1 Si0 2.820219 1_555
Mg1 Si1 2.901545 1_555
Mg2 Si1 2.751062 1_654
Mg2 Si1 2.751062 1_554
Mg2 Si3 2.820060 1_565
Mg2 Si2 2.902536 1_555
Mg3 Si0 2.751051 1_655
Mg3 Si0 2.751051 1_555
Mg3 Si2 2.820124 1_555
Mg3 Si3 2.902545 1_555
