# generated using pymatgen
data_Rb2SiO3
_symmetry_space_group_name_H-M   'P 1'
_cell_length_a   13.34671866
_cell_length_b   6.52964022
_cell_length_c   16.35244221
_cell_angle_alpha   72.14702016
_cell_angle_beta   90.00000000
_cell_angle_gamma   90.00000000
_symmetry_Int_Tables_number   1
_chemical_formula_structural   Rb2SiO3
_chemical_formula_sum   'Rb24 Si12 O36'
_cell_volume   1356.47944089
_cell_formula_units_Z   12
loop_
 _symmetry_equiv_pos_site_id
 _symmetry_equiv_pos_as_xyz
  1  'x, y, z'
loop_
 _atom_site_type_symbol
 _atom_site_label
 _atom_site_symmetry_multiplicity
 _atom_site_fract_x
 _atom_site_fract_y
 _atom_site_fract_z
 _atom_site_occupancy
  Rb  Rb0  1  0.37666543  0.10472816  0.13647379  1
  Rb  Rb1  1  0.15669786  0.55910136  0.99175049  1
  Rb  Rb2  1  0.34330214  0.55910136  0.49175049  1
  Rb  Rb3  1  0.84330214  0.44089864  0.00824951  1
  Rb  Rb4  1  0.62333457  0.89527184  0.86352621  1
  Rb  Rb5  1  0.12333457  0.10472816  0.63647379  1
  Rb  Rb6  1  0.65669786  0.44089864  0.50824951  1
  Rb  Rb7  1  0.87666543  0.89527184  0.36352621  1
  Rb  Rb8  1  0.31030754  0.87095225  0.80258025  1
  Rb  Rb9  1  0.81030754  0.12904775  0.69741975  1
  Rb  Rb10  1  0.68969246  0.12904775  0.19741975  1
  Rb  Rb11  1  0.18969246  0.87095225  0.30258025  1
  Rb  Rb12  1  0.01298108  0.65150963  0.78082155  1
  Rb  Rb13  1  0.51298108  0.34849037  0.71917845  1
  Rb  Rb14  1  0.98701892  0.34849037  0.21917845  1
  Rb  Rb15  1  0.48701892  0.65150963  0.28082155  1
  Rb  Rb16  1  0.08588223  0.72031078  0.52957118  1
  Rb  Rb17  1  0.58588223  0.27968922  0.97042882  1
  Rb  Rb18  1  0.91411777  0.27968922  0.47042882  1
  Rb  Rb19  1  0.41411777  0.72031078  0.02957118  1
  Rb  Rb20  1  0.10759763  0.00426231  0.08296031  1
  Rb  Rb21  1  0.60759763  -0.00426231  0.41703969  1
  Rb  Rb22  1  0.89240237  -0.00426231  0.91703969  1
  Rb  Rb23  1  0.39240237  0.00426231  0.58296031  1
  Si  Si0  1  0.84999922  0.72964559  0.60555856  1
  Si  Si1  1  0.34999922  0.27035441  0.89444144  1
  Si  Si2  1  0.15000078  0.27035441  0.39444144  1
  Si  Si3  1  0.65000078  0.72964559  0.10555856  1
  Si  Si4  1  0.63052641  0.83468326  0.63682271  1
  Si  Si5  1  0.13052641  0.16531674  0.86317729  1
  Si  Si6  1  0.36947359  0.16531674  0.36317729  1
  Si  Si7  1  0.86947359  0.83468326  0.13682271  1
  Si  Si8  1  0.75791248  0.54567422  0.78495001  1
  Si  Si9  1  0.25791248  0.45432578  0.71504999  1
  Si  Si10  1  0.24208752  0.45432578  0.21504999  1
  Si  Si11  1  0.74208752  0.54567422  0.28495001  1
  O  O0  1  0.93741728  0.89406488  0.61200883  1
  O  O1  1  0.43741728  0.10593512  0.88799117  1
  O  O2  1  0.06258272  0.10593512  0.38799117  1
  O  O3  1  0.56258272  0.89406488  0.11200883  1
  O  O4  1  0.86657343  0.60213324  0.53709058  1
  O  O5  1  0.36657343  0.39786676  0.96290942  1
  O  O6  1  0.13342657  0.39786676  0.46290942  1
  O  O7  1  0.63342657  0.60213324  0.03709058  1
  O  O8  1  0.09719890  0.93749044  0.85387813  1
  O  O9  1  0.59719890  0.06250956  0.64612187  1
  O  O10  1  0.90280110  0.06250956  0.14612187  1
  O  O11  1  0.40280110  0.93749044  0.35387813  1
  O  O12  1  0.55493853  0.72498086  0.58627313  1
  O  O13  1  0.05493853  0.27501914  0.91372687  1
  O  O14  1  0.44506147  0.27501914  0.41372687  1
  O  O15  1  0.94506147  0.72498086  0.08627313  1
  O  O16  1  0.80591008  0.69508809  0.83688287  1
  O  O17  1  0.84648693  0.66583265  0.23548950  1
  O  O18  1  0.19408992  0.30491191  0.16311713  1
  O  O19  1  0.69408992  0.69508809  0.33688287  1
  O  O20  1  0.73357373  0.29994013  0.83811827  1
  O  O21  1  0.23357373  0.70005987  0.66188173  1
  O  O22  1  0.26642627  0.70005987  0.16188173  1
  O  O23  1  0.76642627  0.29994013  0.33811827  1
  O  O24  1  0.83255720  0.54811701  0.70225991  1
  O  O25  1  0.33255720  0.45188299  0.79774009  1
  O  O26  1  0.16744280  0.45188299  0.29774009  1
  O  O27  1  0.66744280  0.54811701  0.20225991  1
  O  O28  1  0.74227158  0.86885985  0.58668834  1
  O  O29  1  0.24227158  0.13114015  0.91331166  1
  O  O30  1  0.25772842  0.13114015  0.41331166  1
  O  O31  1  0.75772842  0.86885985  0.08668834  1
  O  O32  1  0.65351307  0.66583265  0.73548950  1
  O  O33  1  0.15351307  0.33416735  0.76451050  1
  O  O34  1  0.34648693  0.33416735  0.26451050  1
  O  O35  1  0.30591008  0.30491191  0.66311713  1
loop_
_geom_bond_atom_site_label_1
_geom_bond_atom_site_label_2
_geom_bond_distance
_geom_bond_site_symmetry_2
O0 Si0 1.610735 1_555
O0 Rb16 2.822882 1_655
O0 Rb18 2.867508 1_565
O0 Rb12 2.909496 1_655
O0 Rb9 2.914967 1_565
O0 Rb5 2.923508 1_665
O1 Si1 1.610735 1_555
O1 Rb17 2.822882 1_555
O1 Rb19 2.867508 1_546
O1 Rb13 2.909496 1_555
O1 Rb8 2.914967 1_545
O1 Rb4 2.923508 1_545
O2 Si2 1.610735 1_555
O2 Rb18 2.822882 1_455
O2 Rb16 2.867508 1_545
O2 Rb14 2.909496 1_455
O2 Rb11 2.914967 1_545
O2 Rb7 2.923508 1_445
O3 Si3 1.610735 1_555
O3 Rb19 2.822882 1_555
O3 Rb17 2.867508 1_564
O3 Rb15 2.909496 1_555
O3 Rb10 2.914967 1_565
O3 Rb0 2.923508 1_565
O4 Si0 1.602280 1_555
O4 Rb18 2.726002 1_555
O4 Rb7 2.899359 1_555
O4 Rb16 3.019939 1_655
O4 Rb6 3.079239 1_555
O5 Si1 1.602280 1_555
O5 Rb19 2.726002 1_556
O5 Rb0 2.899359 1_556
O5 Rb17 3.019939 1_555
O5 Rb1 3.079239 1_555
O6 Si2 1.602280 1_555
O6 Rb16 2.726002 1_555
O6 Rb5 2.899359 1_555
O6 Rb18 3.019939 1_455
O6 Rb2 3.079239 1_555
O7 Si3 1.602280 1_555
O7 Rb17 2.726002 1_554
O7 Rb4 2.899359 1_554
O7 Rb19 3.019939 1_555
O7 Rb3 3.079239 1_555
O8 Si5 1.603967 1_565
O8 Rb12 2.746905 1_555
O8 Rb1 2.898739 1_555
O8 Rb22 2.987231 1_465
O8 Rb8 3.034129 1_555
O8 Rb5 3.401833 1_565
O9 Si4 1.603967 1_545
O9 Rb13 2.746905 1_555
O9 Rb6 2.898739 1_555
O9 Rb23 2.987231 1_555
O9 Rb9 3.034129 1_555
O9 Rb4 3.401833 1_545
O10 Si7 1.603967 1_545
O10 Rb14 2.746905 1_555
O10 Rb3 2.898739 1_555
O10 Rb20 2.987231 1_655
O10 Rb10 3.034129 1_555
O10 Rb7 3.401833 1_545
O11 Si6 1.603967 1_565
O11 Rb15 2.746905 1_555
O11 Rb2 2.898739 1_555
O11 Rb21 2.987231 1_565
O11 Rb11 3.034129 1_555
O11 Rb0 3.401833 1_565
O12 Si4 1.605374 1_555
O12 Rb13 2.793649 1_555
O12 Rb23 2.823805 1_565
O12 Rb21 2.877168 1_565
O12 Rb6 2.892134 1_555
O13 Si5 1.605374 1_555
O13 Rb12 2.793649 1_555
O13 Rb22 2.823805 1_455
O13 Rb20 2.877168 1_556
O13 Rb1 2.892134 1_555
O14 Si6 1.605374 1_555
O14 Rb15 2.793649 1_555
O14 Rb21 2.823805 1_555
O14 Rb23 2.877168 1_555
O14 Rb2 2.892134 1_555
O15 Si7 1.605374 1_555
O15 Rb14 2.793649 1_555
O15 Rb20 2.823805 1_665
O15 Rb22 2.877168 1_564
O15 Rb3 2.892134 1_555
O16 Si8 1.609787 1_555
O16 Rb3 2.829264 1_556
O16 Rb4 2.861032 1_555
O16 Rb22 2.912448 1_565
O16 Rb12 2.952874 1_655
O16 Rb9 3.044896 1_565
O17 Si7 1.679936 1_555
O17 Si11 1.679936 1_555
O17 Rb14 2.867365 1_555
O17 Rb7 2.951883 1_555
O18 Si10 1.609787 1_555
O18 Rb1 2.829264 1_554
O18 Rb0 2.861032 1_555
O18 Rb20 2.912448 1_555
O18 Rb14 2.952874 1_455
O18 Rb11 3.044896 1_545
O19 Si11 1.609787 1_555
O19 Rb6 2.829264 1_555
O19 Rb7 2.861032 1_555
O19 Rb21 2.912448 1_565
O19 Rb15 2.952874 1_555
O19 Rb10 3.044896 1_565
O20 Si8 1.606441 1_555
O20 Rb17 2.899802 1_555
O20 Rb22 2.921127 1_555
O20 Rb4 2.940450 1_545
O20 Rb9 3.026833 1_555
O21 Si9 1.606441 1_555
O21 Rb16 2.899802 1_555
O21 Rb23 2.921127 1_565
O21 Rb5 2.940450 1_565
O21 Rb8 3.026833 1_555
O22 Si10 1.606441 1_555
O22 Rb19 2.899802 1_555
O22 Rb20 2.921127 1_565
O22 Rb0 2.940450 1_565
O22 Rb11 3.026833 1_555
O23 Si11 1.606441 1_555
O23 Rb18 2.899802 1_555
O23 Rb21 2.921127 1_555
O23 Rb7 2.940450 1_545
O23 Rb10 3.026833 1_555
O24 Si8 1.675701 1_555
O24 Si0 1.676434 1_555
O24 Rb9 2.777584 1_555
O24 Rb12 2.904608 1_655
O25 Si9 1.675701 1_555
O25 Si1 1.676434 1_555
O25 Rb8 2.777584 1_555
O25 Rb13 2.904608 1_555
O26 Si10 1.675701 1_555
O26 Si2 1.676434 1_555
O26 Rb11 2.777584 1_555
O26 Rb14 2.904608 1_455
O27 Si11 1.675701 1_555
O27 Si3 1.676434 1_555
O27 Rb10 2.777584 1_555
O27 Rb15 2.904608 1_555
O28 Si0 1.678346 1_555
O28 Si4 1.683477 1_555
O28 Rb9 2.979249 1_565
O28 Rb21 3.194372 1_565
O29 Si1 1.678346 1_555
O29 Si5 1.683477 1_555
O29 Rb8 2.979249 1_545
O29 Rb20 3.194372 1_556
O30 Si2 1.678346 1_555
O30 Si6 1.683477 1_555
O30 Rb11 2.979249 1_545
O30 Rb23 3.194372 1_555
O31 Si3 1.678346 1_555
O31 Si7 1.683477 1_555
O31 Rb10 2.979249 1_565
O31 Rb22 3.194372 1_564
O32 Si4 1.679936 1_555
O32 Si8 1.679936 1_555
O32 Rb13 2.867365 1_555
O32 Rb4 2.951883 1_555
O33 Si5 1.679936 1_555
O33 Si9 1.679936 1_555
O33 Rb12 2.867365 1_555
O33 Rb5 2.951883 1_555
O34 Si6 1.679936 1_555
O34 Si10 1.679936 1_555
O34 Rb15 2.867365 1_555
O34 Rb0 2.951883 1_555
O35 Si9 1.609787 1_555
O35 Rb2 2.829264 1_555
O35 Rb5 2.861032 1_555
O35 Rb23 2.912448 1_555
O35 Rb13 2.952874 1_555
O35 Rb8 3.044896 1_545
