# generated using pymatgen
data_Cs2SbF5
_symmetry_space_group_name_H-M   'P 1'
_cell_length_a   6.70170000
_cell_length_b   8.50460000
_cell_length_c   13.05683100
_cell_angle_alpha   90.00000000
_cell_angle_beta   90.00000000
_cell_angle_gamma   90.00000000
_symmetry_Int_Tables_number   1
_chemical_formula_structural   Cs2SbF5
_chemical_formula_sum   'Cs8 Sb4 F20'
_cell_volume   744.17771029
_cell_formula_units_Z   4
loop_
 _symmetry_equiv_pos_site_id
 _symmetry_equiv_pos_as_xyz
  1  'x, y, z'
loop_
 _atom_site_type_symbol
 _atom_site_label
 _atom_site_symmetry_multiplicity
 _atom_site_fract_x
 _atom_site_fract_y
 _atom_site_fract_z
 _atom_site_occupancy
  Cs  Cs0  1  0.25000000  0.00137200  0.22292600  1
  Cs  Cs1  1  0.75000000  0.99862800  0.77707400  1
  Cs  Cs2  1  0.75000000  0.49862800  0.72292600  1
  Cs  Cs3  1  0.25000000  0.50137200  0.27707400  1
  Cs  Cs4  1  0.25000000  0.65928900  0.91936800  1
  Cs  Cs5  1  0.75000000  0.34071100  0.08063200  1
  Cs  Cs6  1  0.75000000  0.84071100  0.41936800  1
  Cs  Cs7  1  0.25000000  0.15928900  0.58063200  1
  Sb  Sb0  1  0.25000000  0.67246200  0.56405600  1
  Sb  Sb1  1  0.75000000  0.32753800  0.43594400  1
  Sb  Sb2  1  0.75000000  0.82753800  0.06405600  1
  Sb  Sb3  1  0.25000000  0.17246200  0.93594400  1
  F  F0  1  0.25000000  0.81552900  0.41439700  1
  F  F1  1  0.75000000  0.18447100  0.58560300  1
  F  F2  1  0.75000000  0.68447100  0.91439700  1
  F  F3  1  0.25000000  0.31552900  0.08560300  1
  F  F4  1  0.02389400  0.81657800  0.62483000  1
  F  F5  1  0.97610600  0.18342200  0.37517000  1
  F  F6  1  0.97610600  0.68342200  0.12483000  1
  F  F7  1  0.52389400  0.18342200  0.37517000  1
  F  F8  1  0.02389400  0.31657800  0.87517000  1
  F  F9  1  0.47610600  0.81657800  0.62483000  1
  F  F10  1  0.47610600  0.31657800  0.87517000  1
  F  F11  1  0.52389400  0.68342200  0.12483000  1
  F  F12  1  0.00000000  0.50000000  0.50000000  1
  F  F13  1  0.00000000  0.00000000  0.00000000  1
  F  F14  1  0.50000000  0.50000000  0.50000000  1
  F  F15  1  0.50000000  0.00000000  0.00000000  1
  F  F16  1  0.25000000  0.53856000  0.70006800  1
  F  F17  1  0.75000000  0.46144000  0.29993200  1
  F  F18  1  0.75000000  0.96144000  0.20006800  1
  F  F19  1  0.25000000  0.03856000  0.79993200  1
loop_
_geom_bond_atom_site_label_1
_geom_bond_atom_site_label_2
_geom_bond_distance
_geom_bond_site_symmetry_2
Cs0 F0 2.957713 1_545
Cs0 F7 3.117343 1_555
Cs0 F5 3.117343 1_455
Cs0 F3 3.217649 1_555
Cs0 F13 3.358482 1_555
Cs0 F15 3.358482 1_555
Cs0 F18 3.381213 1_445
Cs0 F18 3.381213 1_545
Cs0 F11 3.510212 1_545
Cs0 F6 3.510212 1_445
Cs1 F1 2.957713 1_565
Cs1 F9 3.117343 1_555
Cs1 F4 3.117343 1_655
Cs1 F2 3.217649 1_555
Cs1 F13 3.358482 1_666
Cs1 F15 3.358482 1_566
Cs1 F19 3.381213 1_565
Cs1 F19 3.381213 1_665
Cs1 F10 3.510212 1_565
Cs1 F8 3.510212 1_665
Cs2 F2 2.957713 1_555
Cs2 F10 3.117343 1_555
Cs2 F8 3.117343 1_655
Cs2 F1 3.217649 1_555
Cs2 F12 3.358482 1_655
Cs2 F14 3.358482 1_555
Cs2 F16 3.381213 1_655
Cs2 F16 3.381213 1_555
Cs2 F4 3.510212 1_655
Cs2 F9 3.510212 1_555
Cs3 F3 2.957713 1_555
Cs3 F11 3.117343 1_555
Cs3 F6 3.117343 1_455
Cs3 F0 3.217649 1_555
Cs3 F14 3.358482 1_555
Cs3 F12 3.358482 1_555
Cs3 F17 3.381213 1_555
Cs3 F17 3.381213 1_455
Cs3 F7 3.510212 1_555
Cs3 F5 3.510212 1_455
Cs4 F16 3.041885 1_555
Cs4 F11 3.257019 1_556
Cs4 F6 3.257019 1_456
Cs4 F10 3.335289 1_555
Cs4 F8 3.335289 1_555
Cs4 F2 3.358314 1_555
Cs4 F2 3.358314 1_455
Cs4 F13 3.508786 1_566
Cs4 F15 3.508786 1_566
Cs4 F19 3.582745 1_565
Cs4 F3 3.641178 1_556
Cs5 F17 3.041885 1_555
Cs5 F10 3.257019 1_554
Cs5 F8 3.257019 1_654
Cs5 F6 3.335289 1_555
Cs5 F11 3.335289 1_555
Cs5 F3 3.358314 1_655
Cs5 F3 3.358314 1_555
Cs5 F13 3.508786 1_655
Cs5 F15 3.508786 1_555
Cs5 F18 3.582745 1_545
Cs5 F2 3.641178 1_554
Cs6 F18 3.041885 1_555
Cs6 F9 3.257019 1_555
Cs6 F4 3.257019 1_655
Cs6 F5 3.335289 1_565
Cs6 F7 3.335289 1_565
Cs6 F0 3.358314 1_555
Cs6 F0 3.358314 1_655
Cs6 F14 3.508786 1_555
Cs6 F12 3.508786 1_655
Cs6 F17 3.582745 1_555
Cs6 F1 3.641178 1_565
Cs7 F19 3.041885 1_555
Cs7 F7 3.257019 1_555
Cs7 F5 3.257019 1_455
Cs7 F4 3.335289 1_545
Cs7 F9 3.335289 1_545
Cs7 F1 3.358314 1_455
Cs7 F1 3.358314 1_555
Cs7 F12 3.508786 1_555
Cs7 F14 3.508786 1_555
Cs7 F16 3.582745 1_555
Cs7 F0 3.641178 1_545
F0 Sb0 2.301918 1_555
F1 Sb1 2.301918 1_555
F2 Sb2 2.301918 1_556
F3 Sb3 2.301918 1_554
F4 Sb0 2.104281 1_555
F5 Sb1 2.104281 1_555
F6 Sb2 2.104281 1_555
F7 Sb1 2.104281 1_555
F8 Sb3 2.104281 1_555
F9 Sb0 2.104281 1_555
F10 Sb3 2.104281 1_555
F11 Sb2 2.104281 1_555
F12 Sb0 2.378619 1_555
F12 Sb1 2.378619 1_455
F13 Sb2 2.378619 1_445
F13 Sb3 2.378619 1_554
F14 Sb0 2.378619 1_555
F14 Sb1 2.378619 1_555
F15 Sb2 2.378619 1_545
F15 Sb3 2.378619 1_554
F16 Sb0 2.109644 1_555
F17 Sb1 2.109644 1_555
F18 Sb2 2.109644 1_555
F19 Sb3 2.109644 1_555
