# generated using pymatgen
data_Ba2NaSr2(SbO4)3
_symmetry_space_group_name_H-M   'P 1'
_cell_length_a   8.33626940
_cell_length_b   8.33626940
_cell_length_c   8.27558400
_cell_angle_alpha   90.00000000
_cell_angle_beta   90.00000000
_cell_angle_gamma   90.49104576
_symmetry_Int_Tables_number   1
_chemical_formula_structural   Ba2NaSr2(SbO4)3
_chemical_formula_sum   'Ba4 Na2 Sr4 Sb6 O24'
_cell_volume   575.07724476
_cell_formula_units_Z   2
loop_
 _symmetry_equiv_pos_site_id
 _symmetry_equiv_pos_as_xyz
  1  'x, y, z'
loop_
 _atom_site_type_symbol
 _atom_site_label
 _atom_site_symmetry_multiplicity
 _atom_site_fract_x
 _atom_site_fract_y
 _atom_site_fract_z
 _atom_site_occupancy
  Ba  Ba0  1  0.24988000  0.24988000  0.25412900  1
  Ba  Ba1  1  0.75012000  0.75012000  0.74587100  1
  Ba  Ba2  1  0.25012000  0.25012000  0.75412900  1
  Ba  Ba3  1  0.74988000  0.74988000  0.24587100  1
  Na  Na0  1  0.00000000  0.00000000  0.00000000  1
  Na  Na1  1  0.50000000  0.50000000  0.50000000  1
  Sr  Sr0  1  0.24710100  0.74710100  0.25000000  1
  Sr  Sr1  1  0.25289900  0.75289900  0.75000000  1
  Sr  Sr2  1  0.75289900  0.25289900  0.75000000  1
  Sr  Sr3  1  0.74710100  0.24710100  0.25000000  1
  Sb  Sb0  1  0.00000000  0.50000000  0.00000000  1
  Sb  Sb1  1  0.50000000  0.00000000  0.00000000  1
  Sb  Sb2  1  0.00000000  0.50000000  0.50000000  1
  Sb  Sb3  1  0.50000000  0.00000000  0.50000000  1
  Sb  Sb4  1  0.50000000  0.50000000  0.00000000  1
  Sb  Sb5  1  0.00000000  0.00000000  0.50000000  1
  O  O0  1  0.96917000  0.46917000  0.25000000  1
  O  O1  1  0.53083000  0.03083000  0.75000000  1
  O  O2  1  0.03083000  0.53083000  0.75000000  1
  O  O3  1  0.46917000  0.96917000  0.25000000  1
  O  O4  1  0.01731400  0.01731400  0.27063100  1
  O  O5  1  0.98268600  0.98268600  0.72936900  1
  O  O6  1  0.48268600  0.48268600  0.77063100  1
  O  O7  1  0.51731400  0.51731400  0.22936900  1
  O  O8  1  0.00577700  0.72831900  0.02508200  1
  O  O9  1  0.27168100  0.99422300  0.97491800  1
  O  O10  1  0.77168100  0.49422300  0.52508200  1
  O  O11  1  0.50577700  0.22831900  0.47491800  1
  O  O12  1  0.99422300  0.27168100  0.97491800  1
  O  O13  1  0.72831900  0.00577700  0.02508200  1
  O  O14  1  0.22831900  0.50577700  0.47491800  1
  O  O15  1  0.49422300  0.77168100  0.52508200  1
  O  O16  1  0.00328500  0.74978200  0.47434100  1
  O  O17  1  0.25021800  0.99671500  0.52565900  1
  O  O18  1  0.75021800  0.49671500  0.97434100  1
  O  O19  1  0.50328500  0.24978200  0.02565900  1
  O  O20  1  0.99671500  0.25021800  0.52565900  1
  O  O21  1  0.74978200  0.00328500  0.47434100  1
  O  O22  1  0.24978200  0.50328500  0.02565900  1
  O  O23  1  0.49671500  0.75021800  0.97434100  1
loop_
_geom_bond_atom_site_label_1
_geom_bond_atom_site_label_2
_geom_bond_distance
_geom_bond_site_symmetry_2
Ba0 O4 2.733422 1_555
Ba0 O14 2.815677 1_555
Ba0 O11 2.815677 1_555
Ba0 O22 2.835016 1_555
Ba0 O19 2.835016 1_555
Ba0 O0 2.981987 1_455
Ba0 O3 2.981987 1_545
Ba0 O17 3.082764 1_545
Ba0 O20 3.082764 1_455
Ba0 O7 3.145991 1_555
Ba0 O12 3.149733 1_454
Ba0 O9 3.149733 1_544
Ba1 O5 2.733422 1_555
Ba1 O10 2.815677 1_555
Ba1 O15 2.815677 1_555
Ba1 O23 2.835016 1_555
Ba1 O18 2.835016 1_555
Ba1 O2 2.981987 1_655
Ba1 O1 2.981987 1_565
Ba1 O21 3.082764 1_565
Ba1 O16 3.082764 1_655
Ba1 O6 3.145991 1_555
Ba1 O13 3.149733 1_566
Ba1 O8 3.149733 1_656
Ba2 O6 2.733422 1_555
Ba2 O9 2.815677 1_545
Ba2 O12 2.815677 1_455
Ba2 O17 2.835016 1_545
Ba2 O20 2.835016 1_455
Ba2 O1 2.981987 1_555
Ba2 O2 2.981987 1_555
Ba2 O22 3.082764 1_556
Ba2 O19 3.082764 1_556
Ba2 O5 3.145991 1_445
Ba2 O14 3.149733 1_555
Ba2 O11 3.149733 1_555
Ba3 O7 2.733422 1_555
Ba3 O13 2.815677 1_565
Ba3 O8 2.815677 1_655
Ba3 O21 2.835016 1_565
Ba3 O16 2.835016 1_655
Ba3 O0 2.981987 1_555
Ba3 O3 2.981987 1_555
Ba3 O23 3.082764 1_554
Ba3 O18 3.082764 1_554
Ba3 O4 3.145991 1_665
Ba3 O15 3.149733 1_555
Ba3 O10 3.149733 1_555
Na0 O4 2.248833 1_555
Na0 O5 2.248833 1_444
Na0 O12 2.275219 1_454
Na0 O9 2.275219 1_544
Na0 O8 2.275219 1_545
Na0 O13 2.275219 1_455
Na1 O7 2.248833 1_555
Na1 O6 2.248833 1_555
Na1 O15 2.275219 1_555
Na1 O10 2.275219 1_555
Na1 O11 2.275219 1_555
Na1 O14 2.275219 1_555
O0 Sb2 2.100310 1_655
O0 Sb0 2.100310 1_655
O0 Sr3 2.606788 1_555
O0 Sr0 3.262531 1_655
O1 Sb3 2.100310 1_555
O1 Sb1 2.100310 1_556
O1 Sr2 2.606788 1_555
O1 Sr1 3.262531 1_545
O2 Sb2 2.100310 1_555
O2 Sb0 2.100310 1_556
O2 Sr1 2.606788 1_555
O2 Sr2 3.262531 1_455
O3 Sb3 2.100310 1_565
O3 Sb1 2.100310 1_565
O3 Sr0 2.606788 1_555
O3 Sr3 3.262531 1_565
O4 Sb5 1.909012 1_555
O4 Sr0 2.974318 1_545
O4 Sr3 2.974318 1_455
O5 Sb5 1.909012 1_665
O5 Sr1 2.974318 1_655
O5 Sr2 2.974318 1_565
O6 Sb4 1.909012 1_556
O6 Sr1 2.974318 1_555
O6 Sr2 2.974318 1_555
O7 Sb4 1.909012 1_555
O7 Sr3 2.974318 1_555
O7 Sr0 2.974318 1_555
O8 Sb0 1.914809 1_555
O8 Sr0 2.744223 1_555
O8 Sr1 3.075866 1_554
O9 Sb1 1.914809 1_566
O9 Sr1 2.744223 1_555
O9 Sr0 3.075866 1_556
O10 Sb2 1.914809 1_655
O10 Sr2 2.744223 1_555
O10 Sr3 3.075866 1_555
O11 Sb3 1.914809 1_555
O11 Sr3 2.744223 1_555
O11 Sr2 3.075866 1_555
O12 Sb0 1.914809 1_656
O12 Sr2 2.744223 1_555
O12 Sr3 3.075866 1_556
O13 Sb1 1.914809 1_555
O13 Sr3 2.744223 1_555
O13 Sr2 3.075866 1_554
O14 Sb2 1.914809 1_555
O14 Sr0 2.744223 1_555
O14 Sr1 3.075866 1_555
O15 Sb3 1.914809 1_565
O15 Sr1 2.744223 1_555
O15 Sr0 3.075866 1_555
O16 Sb2 2.092995 1_555
O16 Sb5 2.097077 1_565
O16 Sr0 2.753032 1_555
O16 Sr1 3.087675 1_555
O17 Sb3 2.092995 1_565
O17 Sb5 2.097077 1_565
O17 Sr1 2.753032 1_555
O17 Sr0 3.087675 1_555
O18 Sb0 2.092995 1_656
O18 Sb4 2.097077 1_556
O18 Sr2 2.753032 1_555
O18 Sr3 3.087675 1_556
O19 Sb1 2.092995 1_555
O19 Sb4 2.097077 1_555
O19 Sr3 2.753032 1_555
O19 Sr2 3.087675 1_554
O20 Sb2 2.092995 1_655
O20 Sb5 2.097077 1_655
O20 Sr2 2.753032 1_555
O20 Sr3 3.087675 1_555
O21 Sb3 2.092995 1_555
O21 Sb5 2.097077 1_655
O21 Sr3 2.753032 1_555
O21 Sr2 3.087675 1_555
O22 Sb0 2.092995 1_555
O22 Sb4 2.097077 1_555
O22 Sr0 2.753032 1_555
O22 Sr1 3.087675 1_554
O23 Sb1 2.092995 1_566
O23 Sb4 2.097077 1_556
O23 Sr1 2.753032 1_555
O23 Sr0 3.087675 1_556
