# generated using pymatgen
data_LiMg14V
_symmetry_space_group_name_H-M   'P 1'
_cell_length_a   6.34374168
_cell_length_b   6.34374117
_cell_length_c   10.10142465
_cell_angle_alpha   90.00000000
_cell_angle_beta   90.00000000
_cell_angle_gamma   120.00000266
_symmetry_Int_Tables_number   1
_chemical_formula_structural   LiMg14V
_chemical_formula_sum   'Li1 Mg14 V1'
_cell_volume   352.04987439
_cell_formula_units_Z   1
loop_
 _symmetry_equiv_pos_site_id
 _symmetry_equiv_pos_as_xyz
  1  'x, y, z'
loop_
 _atom_site_type_symbol
 _atom_site_label
 _atom_site_symmetry_multiplicity
 _atom_site_fract_x
 _atom_site_fract_y
 _atom_site_fract_z
 _atom_site_occupancy
  Li  Li0  1  0.16666700  0.33333300  0.62500000  1
  Mg  Mg0  1  0.16845318  0.83422609  0.12500000  1
  Mg  Mg1  1  0.16911992  0.83455946  0.62500000  1
  Mg  Mg2  1  0.66577391  0.33154682  0.12500000  1
  Mg  Mg3  1  0.66544054  0.33088008  0.62500000  1
  Mg  Mg4  1  0.66577391  0.83422609  0.12500000  1
  Mg  Mg5  1  0.66544054  0.83455946  0.62500000  1
  Mg  Mg6  1  0.32920100  0.17079900  0.37219199  1
  Mg  Mg7  1  0.32920100  0.17079900  0.87780801  1
  Mg  Mg8  1  0.32920100  0.65840299  0.37219199  1
  Mg  Mg9  1  0.32920100  0.65840299  0.87780801  1
  Mg  Mg10  1  0.84159701  0.17079900  0.37219199  1
  Mg  Mg11  1  0.84159701  0.17079900  0.87780801  1
  Mg  Mg12  1  0.83333300  0.66666700  0.37532940  1
  Mg  Mg13  1  0.83333300  0.66666700  0.87467060  1
  V  V0  1  0.16666700  0.33333300  0.12500000  1
loop_
_geom_bond_atom_site_label_1
_geom_bond_atom_site_label_2
_geom_bond_distance
_geom_bond_site_symmetry_2
Li0 Mg6 3.116220 1_555
Li0 Mg7 3.116220 1_555
Li0 Mg8 3.116227 1_555
Li0 Mg9 3.116227 1_555
Li0 Mg11 3.116227 1_455
Li0 Mg10 3.116227 1_455
Li0 Mg1 3.171899 1_555
Li0 Mg5 3.171899 1_555
Li0 Mg5 3.171899 1_445
Li0 Mg1 3.171899 1_545
Li0 Mg3 3.171899 1_455
Li0 Mg3 3.171899 1_555
Mg0 Mg9 3.107459 1_554
Mg0 Mg8 3.107459 1_555
Mg0 Mg6 3.107466 1_565
Mg0 Mg7 3.107466 1_564
Mg0 Mg13 3.127919 1_454
Mg0 Mg12 3.127919 1_455
Mg0 Mg2 3.154874 1_565
Mg0 Mg4 3.154874 1_555
Mg0 V0 3.171886 1_555
Mg0 V0 3.171886 1_565
Mg0 Mg2 3.188867 1_455
Mg0 Mg4 3.188867 1_455
Mg1 Mg13 3.124703 1_455
Mg1 Mg12 3.124703 1_455
Mg1 Mg3 3.148530 1_565
Mg1 Mg5 3.148530 1_555
Mg1 Mg8 3.152201 1_555
Mg1 Mg9 3.152201 1_555
Mg1 Mg7 3.152207 1_565
Mg1 Mg6 3.152207 1_565
Mg1 Mg3 3.195212 1_455
Mg1 Mg5 3.195212 1_455
Mg2 Mg7 3.107466 1_554
Mg2 Mg6 3.107466 1_555
Mg2 Mg4 3.154874 1_545
Mg2 V0 3.171886 1_655
Mg2 V0 3.171886 1_555
Mg2 Mg4 3.188867 1_555
Mg3 Mg5 3.148530 1_545
Mg3 Mg6 3.152207 1_555
Mg3 Mg7 3.152207 1_555
Mg3 Mg5 3.195212 1_555
Mg4 Mg8 3.107465 1_555
Mg4 Mg9 3.107465 1_554
Mg4 V0 3.171886 1_555
Mg4 V0 3.171886 1_665
Mg5 Mg8 3.152207 1_555
Mg5 Mg9 3.152207 1_555
Mg6 V0 3.069903 1_555
Mg6 Mg8 3.093234 1_555
Mg6 Mg8 3.250508 1_545
Mg7 V0 3.069903 1_556
Mg7 Mg9 3.093234 1_555
Mg7 Mg9 3.250508 1_545
Mg8 V0 3.069909 1_555
Mg9 V0 3.069909 1_556
Mg10 V0 3.069909 1_655
Mg10 Mg8 3.093234 1_655
Mg10 Mg6 3.093234 1_655
Mg10 Mg2 3.107459 1_555
Mg10 Mg4 3.107465 1_545
Mg10 Mg3 3.152201 1_555
Mg10 Mg5 3.152207 1_545
Mg10 Mg12 3.172354 1_545
Mg10 Mg12 3.172354 1_555
Mg10 Mg8 3.250508 1_545
Mg10 Mg6 3.250508 1_555
Mg11 V0 3.069909 1_656
Mg11 Mg9 3.093234 1_655
Mg11 Mg7 3.093234 1_655
Mg11 Mg2 3.107459 1_556
Mg11 Mg4 3.107465 1_546
Mg11 Mg3 3.152201 1_555
Mg11 Mg5 3.152207 1_545
Mg11 Mg13 3.172354 1_545
Mg11 Mg13 3.172354 1_555
Mg11 Mg9 3.250508 1_545
Mg11 Mg7 3.250508 1_555
Mg12 Mg5 3.124696 1_555
Mg12 Mg3 3.124703 1_555
Mg12 Mg4 3.127913 1_555
Mg12 Mg2 3.127919 1_555
Mg12 Mg6 3.172354 1_665
Mg12 Mg6 3.172354 1_555
Mg12 Mg8 3.172354 1_555
Mg12 Mg8 3.172354 1_655
Mg13 Mg5 3.124696 1_555
Mg13 Mg3 3.124703 1_555
Mg13 Mg4 3.127913 1_556
Mg13 Mg2 3.127919 1_556
Mg13 Mg7 3.172354 1_665
Mg13 Mg7 3.172354 1_555
Mg13 Mg9 3.172354 1_555
Mg13 Mg9 3.172354 1_655
