# generated using pymatgen
data_Nb5Ni41B12
_symmetry_space_group_name_H-M   'P 1'
_cell_length_a   12.92753328
_cell_length_b   12.92753328
_cell_length_c   12.92753342
_cell_angle_alpha   33.53143670
_cell_angle_beta   33.53143670
_cell_angle_gamma   33.53143916
_symmetry_Int_Tables_number   1
_chemical_formula_structural   Nb5Ni41B12
_chemical_formula_sum   'Nb5 Ni41 B12'
_cell_volume   587.17839035
_cell_formula_units_Z   1
loop_
 _symmetry_equiv_pos_site_id
 _symmetry_equiv_pos_as_xyz
  1  'x, y, z'
loop_
 _atom_site_type_symbol
 _atom_site_label
 _atom_site_symmetry_multiplicity
 _atom_site_fract_x
 _atom_site_fract_y
 _atom_site_fract_z
 _atom_site_occupancy
  Nb  Nb0  1  0.62484900  0.62484900  0.62484900  1
  Nb  Nb1  1  0.12530000  0.12530000  0.12530000  1
  Nb  Nb2  1  0.87470000  0.87470000  0.87470000  1
  Nb  Nb3  1  0.37515100  0.37515100  0.37515100  1
  Nb  Nb4  1  0.00000000  0.00000000  0.00000000  1
  Ni  Ni0  1  0.42249800  0.96246800  0.42249800  1
  Ni  Ni1  1  0.92330600  0.46133800  0.92330600  1
  Ni  Ni2  1  0.42249800  0.42249800  0.96246800  1
  Ni  Ni3  1  0.92330600  0.92330600  0.46133800  1
  Ni  Ni4  1  0.19242000  0.19242000  0.19242000  1
  Ni  Ni5  1  0.69236000  0.69236000  0.69236000  1
  Ni  Ni6  1  0.96246800  0.42249800  0.42249800  1
  Ni  Ni7  1  0.46133800  0.92330600  0.92330600  1
  Ni  Ni8  1  0.07669400  0.53866200  0.07669400  1
  Ni  Ni9  1  0.57750200  0.03753200  0.57750200  1
  Ni  Ni10  1  0.07669400  0.07669400  0.53866200  1
  Ni  Ni11  1  0.57750200  0.57750200  0.03753200  1
  Ni  Ni12  1  0.30764000  0.30764000  0.30764000  1
  Ni  Ni13  1  0.80758000  0.80758000  0.80758000  1
  Ni  Ni14  1  0.53866200  0.07669400  0.07669400  1
  Ni  Ni15  1  0.03753200  0.57750200  0.57750200  1
  Ni  Ni16  1  0.00000000  0.34349000  0.65651000  1
  Ni  Ni17  1  0.50000000  0.84089300  0.15910700  1
  Ni  Ni18  1  0.65651000  0.34349000  0.00000000  1
  Ni  Ni19  1  0.15910700  0.84089300  0.50000000  1
  Ni  Ni20  1  0.82642300  0.17334900  0.82642300  1
  Ni  Ni21  1  0.33113800  0.66942500  0.33113800  1
  Ni  Ni22  1  0.00000000  0.65651000  0.34349000  1
  Ni  Ni23  1  0.50000000  0.15910700  0.84089300  1
  Ni  Ni24  1  0.82642300  0.82642300  0.17334900  1
  Ni  Ni25  1  0.33113800  0.33113800  0.66942500  1
  Ni  Ni26  1  0.65651000  0.00000000  0.34349000  1
  Ni  Ni27  1  0.15910700  0.50000000  0.84089300  1
  Ni  Ni28  1  0.33057500  0.66886200  0.66886200  1
  Ni  Ni29  1  0.82665100  0.17357700  0.17357700  1
  Ni  Ni30  1  0.66886200  0.66886200  0.33057500  1
  Ni  Ni31  1  0.17357700  0.17357700  0.82665100  1
  Ni  Ni32  1  0.66886200  0.33057500  0.66886200  1
  Ni  Ni33  1  0.17357700  0.82665100  0.17357700  1
  Ni  Ni34  1  0.17334900  0.82642300  0.82642300  1
  Ni  Ni35  1  0.66942500  0.33113800  0.33113800  1
  Ni  Ni36  1  0.34349000  0.65651000  0.00000000  1
  Ni  Ni37  1  0.84089300  0.15910700  0.50000000  1
  Ni  Ni38  1  0.84089300  0.50000000  0.15910700  1
  Ni  Ni39  1  0.34349000  0.00000000  0.65651000  1
  Ni  Ni40  1  0.50000000  0.50000000  0.50000000  1
  B  B0  1  0.36585600  0.90228600  0.36585600  1
  B  B1  1  0.86679000  0.39993200  0.86679000  1
  B  B2  1  0.60006800  0.13321000  0.13321000  1
  B  B3  1  0.09771400  0.63414400  0.63414400  1
  B  B4  1  0.13321000  0.13321000  0.60006800  1
  B  B5  1  0.63414400  0.63414400  0.09771400  1
  B  B6  1  0.13321000  0.60006800  0.13321000  1
  B  B7  1  0.63414400  0.09771400  0.63414400  1
  B  B8  1  0.36585600  0.36585600  0.90228600  1
  B  B9  1  0.86679000  0.86679000  0.39993200  1
  B  B10  1  0.90228600  0.36585600  0.36585600  1
  B  B11  1  0.39993200  0.86679000  0.86679000  1
loop_
_geom_bond_atom_site_label_1
_geom_bond_atom_site_label_2
_geom_bond_distance
_geom_bond_site_symmetry_2
Nb0 Ni2 2.464680 1_555
Nb0 Ni6 2.464680 1_555
Nb0 Ni0 2.464680 1_555
Nb0 Ni5 2.468743 1_555
Nb1 Ni4 2.454445 1_555
Nb1 Ni3 2.460346 1_445
Nb1 Ni1 2.460347 1_454
Nb1 Ni7 2.460347 1_544
Nb2 Ni13 2.454445 1_555
Nb2 Ni10 2.460346 1_665
Nb2 Ni8 2.460347 1_656
Nb2 Ni14 2.460347 1_566
Nb3 Ni11 2.464680 1_555
Nb3 Ni9 2.464680 1_555
Nb3 Ni15 2.464680 1_555
Nb3 Ni12 2.468743 1_555
Nb4 Ni22 2.561792 1_545
Nb4 Ni16 2.561792 1_554
Nb4 Ni26 2.561792 1_455
Nb4 Ni39 2.561792 1_554
Nb4 Ni18 2.561792 1_455
Nb4 Ni36 2.561792 1_545
Nb4 Ni31 2.592278 1_554
Nb4 Ni24 2.592278 1_445
Nb4 Ni33 2.592278 1_545
Nb4 Ni29 2.592278 1_455
Nb4 Ni20 2.592278 1_454
Nb4 Ni34 2.592278 1_544
Ni17 Ni40 2.542423 1_555
Ni19 Ni40 2.542423 1_555
Ni21 Ni40 2.516005 1_555
Ni23 Ni40 2.542423 1_555
Ni25 Ni40 2.516005 1_555
Ni27 Ni40 2.542423 1_555
Ni28 Ni40 2.516005 1_555
Ni30 Ni40 2.516005 1_555
Ni32 Ni40 2.516005 1_555
Ni35 Ni40 2.516005 1_555
Ni37 Ni40 2.542423 1_555
Ni38 Ni40 2.542423 1_555
B0 Ni28 2.065763 1_555
B0 Ni30 2.065763 1_555
B0 Ni19 2.072552 1_555
B0 Ni17 2.072552 1_555
B0 Ni4 2.112525 1_565
B0 Ni0 2.114490 1_555
B0 Ni14 2.114581 1_565
B0 Ni10 2.114581 1_565
B1 Ni18 2.072473 1_556
B1 Ni16 2.072473 1_655
B1 Ni29 2.076912 1_556
B1 Ni31 2.076912 1_655
B1 Ni15 2.121453 1_655
B1 Ni11 2.121453 1_556
B1 Ni5 2.124697 1_555
B1 Ni1 2.126388 1_555
B2 Ni18 2.072473 1_555
B2 Ni26 2.072473 1_555
B2 Ni20 2.076912 1_554
B2 Ni24 2.076912 1_545
B2 Ni0 2.121453 1_545
B2 Ni2 2.121453 1_554
B2 Ni12 2.124697 1_555
B2 Ni14 2.126388 1_555
B3 Ni21 2.065763 1_555
B3 Ni25 2.065763 1_555
B3 Ni19 2.072552 1_555
B3 Ni27 2.072552 1_555
B3 Ni13 2.112525 1_455
B3 Ni15 2.114490 1_555
B3 Ni1 2.114581 1_455
B3 Ni3 2.114581 1_455
B4 Ni16 2.072473 1_555
B4 Ni39 2.072473 1_555
B4 Ni34 2.076912 1_545
B4 Ni20 2.076912 1_455
B4 Ni6 2.121453 1_455
B4 Ni0 2.121453 1_545
B4 Ni12 2.124697 1_555
B4 Ni10 2.126388 1_555
B5 Ni21 2.065763 1_555
B5 Ni35 2.065763 1_555
B5 Ni38 2.072552 1_555
B5 Ni17 2.072552 1_555
B5 Ni13 2.112525 1_554
B5 Ni11 2.114490 1_555
B5 Ni1 2.114581 1_554
B5 Ni7 2.114581 1_554
B6 Ni36 2.072473 1_555
B6 Ni22 2.072473 1_555
B6 Ni34 2.076912 1_554
B6 Ni24 2.076912 1_455
B6 Ni6 2.121453 1_455
B6 Ni2 2.121453 1_554
B6 Ni12 2.124697 1_555
B6 Ni8 2.126388 1_555
B7 Ni35 2.065763 1_555
B7 Ni25 2.065763 1_555
B7 Ni37 2.072552 1_555
B7 Ni23 2.072552 1_555
B7 Ni13 2.112525 1_545
B7 Ni9 2.114490 1_555
B7 Ni7 2.114581 1_545
B7 Ni3 2.114581 1_545
B8 Ni28 2.065763 1_555
B8 Ni32 2.065763 1_555
B8 Ni23 2.072552 1_555
B8 Ni27 2.072552 1_555
B8 Ni4 2.112525 1_556
B8 Ni2 2.114490 1_555
B8 Ni14 2.114581 1_556
B8 Ni8 2.114581 1_556
B9 Ni26 2.072473 1_565
B9 Ni22 2.072473 1_655
B9 Ni33 2.076912 1_655
B9 Ni29 2.076912 1_565
B9 Ni9 2.121453 1_565
B9 Ni15 2.121453 1_655
B9 Ni5 2.124697 1_555
B9 Ni3 2.126388 1_555
B10 Ni32 2.065763 1_555
B10 Ni30 2.065763 1_555
B10 Ni37 2.072552 1_555
B10 Ni38 2.072552 1_555
B10 Ni4 2.112525 1_655
B10 Ni6 2.114490 1_555
B10 Ni8 2.114581 1_655
B10 Ni10 2.114581 1_655
B11 Ni36 2.072473 1_556
B11 Ni39 2.072473 1_565
B11 Ni33 2.076912 1_556
B11 Ni31 2.076912 1_565
B11 Ni9 2.121453 1_565
B11 Ni11 2.121453 1_556
B11 Ni5 2.124697 1_555
B11 Ni7 2.126388 1_555
