# generated using pymatgen
data_Y2(Ga3Ir)3
_symmetry_space_group_name_H-M   'P 1'
_cell_length_a   7.50330599
_cell_length_b   7.50330599
_cell_length_c   9.47298518
_cell_angle_alpha   90.00000000
_cell_angle_beta   90.00000000
_cell_angle_gamma   119.80510010
_symmetry_Int_Tables_number   1
_chemical_formula_structural   Y2(Ga3Ir)3
_chemical_formula_sum   'Y4 Ga18 Ir6'
_cell_volume   462.77766220
_cell_formula_units_Z   2
loop_
 _symmetry_equiv_pos_site_id
 _symmetry_equiv_pos_as_xyz
  1  'x, y, z'
loop_
 _atom_site_type_symbol
 _atom_site_label
 _atom_site_symmetry_multiplicity
 _atom_site_fract_x
 _atom_site_fract_y
 _atom_site_fract_z
 _atom_site_occupancy
  Y  Y0  1  0.99770087  0.66917480  0.25000000  1
  Y  Y1  1  0.00229913  0.33082520  0.75000000  1
  Y  Y2  1  0.66917480  0.99770087  0.25000000  1
  Y  Y3  1  0.33082520  0.00229913  0.75000000  1
  Ga  Ga0  1  0.13017684  0.13017684  0.25000000  1
  Ga  Ga1  1  0.86982316  0.86982316  0.75000000  1
  Ga  Ga2  1  0.00111458  0.33448577  0.07856763  1
  Ga  Ga3  1  -0.00111458  0.66551423  0.92143237  1
  Ga  Ga4  1  -0.00111458  0.66551423  0.57856763  1
  Ga  Ga5  1  0.33448577  0.00111458  0.42143237  1
  Ga  Ga6  1  0.00111458  0.33448577  0.42143237  1
  Ga  Ga7  1  0.66551423  -0.00111458  0.57856763  1
  Ga  Ga8  1  0.66551423  -0.00111458  0.92143237  1
  Ga  Ga9  1  0.33448577  0.00111458  0.07856763  1
  Ga  Ga10  1  0.33392553  0.33392553  0.56620991  1
  Ga  Ga11  1  0.66607447  0.66607447  0.43379009  1
  Ga  Ga12  1  0.66607447  0.66607447  0.06620991  1
  Ga  Ga13  1  0.33392553  0.33392553  0.93379009  1
  Ga  Ga14  1  0.33813169  0.54416900  0.25000000  1
  Ga  Ga15  1  0.66186831  0.45583100  0.75000000  1
  Ga  Ga16  1  0.54416900  0.33813169  0.25000000  1
  Ga  Ga17  1  0.45583100  0.66186831  0.75000000  1
  Ir  Ir0  1  0.67134475  0.32865525  -0.00000000  1
  Ir  Ir1  1  0.32865525  0.67134475  -0.00000000  1
  Ir  Ir2  1  0.32865525  0.67134475  0.50000000  1
  Ir  Ir3  1  0.67134475  0.32865525  0.50000000  1
  Ir  Ir4  1  -0.00000000  0.00000000  -0.00000000  1
  Ir  Ir5  1  -0.00000000  0.00000000  0.50000000  1
loop_
_geom_bond_atom_site_label_1
_geom_bond_atom_site_label_2
_geom_bond_distance
_geom_bond_site_symmetry_2
Ga0 Ir5 2.562864 1_555
Ga0 Ir4 2.562864 1_555
Ga0 Ga14 2.695461 1_555
Ga0 Ga16 2.695461 1_555
Ga0 Ga6 2.720466 1_555
Ga0 Ga9 2.720466 1_555
Ga0 Ga2 2.720466 1_555
Ga0 Ga5 2.720466 1_555
Ga0 Y2 3.087875 1_445
Ga0 Y0 3.087875 1_445
Ga1 Ir5 2.562864 1_665
Ga1 Ir4 2.562864 1_666
Ga1 Ga17 2.695461 1_555
Ga1 Ga15 2.695461 1_555
Ga1 Ga7 2.720466 1_565
Ga1 Ga3 2.720466 1_655
Ga1 Ga4 2.720466 1_655
Ga1 Ga8 2.720466 1_565
Ga1 Y3 3.087875 1_665
Ga1 Y1 3.087875 1_665
Ga2 Ir0 2.563341 1_455
Ga2 Ir1 2.609076 1_555
Ga2 Ir4 2.613806 1_555
Ga2 Ga3 2.902866 1_554
Ga2 Ga8 2.931559 1_454
Ga2 Y2 2.994929 1_445
Ga2 Y0 3.001399 1_455
Ga2 Y1 3.112689 1_554
Ga3 Ir1 2.563341 1_556
Ga3 Ir0 2.609076 1_456
Ga3 Ir4 2.613806 1_566
Ga3 Ga9 2.931559 1_566
Ga3 Y3 2.994929 1_565
Ga3 Y1 3.001399 1_555
Ga3 Y0 3.112689 1_456
Ga4 Ir2 2.563341 1_555
Ga4 Ir3 2.609076 1_455
Ga4 Ir5 2.613806 1_565
Ga4 Ga6 2.902866 1_555
Ga4 Ga5 2.931559 1_565
Ga4 Y3 2.994929 1_565
Ga4 Y1 3.001399 1_555
Ga4 Y0 3.112689 1_455
Ga5 Ir2 2.563341 1_545
Ga5 Ir3 2.609076 1_555
Ga5 Ir5 2.613806 1_555
Ga5 Ga7 2.902866 1_555
Ga5 Y0 2.994929 1_445
Ga5 Y2 3.001399 1_545
Ga5 Y3 3.112689 1_555
Ga6 Ir3 2.563341 1_455
Ga6 Ir2 2.609076 1_555
Ga6 Ir5 2.613806 1_555
Ga6 Ga7 2.931559 1_455
Ga6 Y2 2.994929 1_445
Ga6 Y0 3.001399 1_455
Ga6 Y1 3.112689 1_555
Ga7 Ir3 2.563341 1_555
Ga7 Ir2 2.609076 1_545
Ga7 Ir5 2.613806 1_655
Ga7 Y1 2.994929 1_655
Ga7 Y3 3.001399 1_555
Ga7 Y2 3.112689 1_545
Ga8 Ir0 2.563341 1_556
Ga8 Ir1 2.609076 1_546
Ga8 Ir4 2.613806 1_656
Ga8 Ga9 2.902866 1_556
Ga8 Y1 2.994929 1_655
Ga8 Y3 3.001399 1_555
Ga8 Y2 3.112689 1_546
Ga9 Ir1 2.563341 1_545
Ga9 Ir0 2.609076 1_555
Ga9 Ir4 2.613806 1_555
Ga9 Y0 2.994929 1_445
Ga9 Y2 3.001399 1_545
Ga9 Y3 3.112689 1_554
Ga10 Ir5 2.590013 1_555
Ga10 Ir2 2.627600 1_555
Ga10 Ir3 2.627600 1_555
Ga10 Ga17 2.772226 1_555
Ga10 Ga15 2.772226 1_555
Ga10 Ga11 2.796661 1_555
Ga10 Ga5 2.850845 1_555
Ga10 Ga6 2.850845 1_555
Ga10 Y1 3.027512 1_555
Ga10 Y3 3.027512 1_555
Ga11 Ir5 2.590013 1_665
Ga11 Ir2 2.627600 1_555
Ga11 Ir3 2.627600 1_555
Ga11 Ga16 2.772226 1_555
Ga11 Ga14 2.772226 1_555
Ga11 Ga7 2.850845 1_565
Ga11 Ga4 2.850845 1_655
Ga11 Y0 3.027512 1_555
Ga11 Y2 3.027512 1_555
Ga12 Ir4 2.590013 1_665
Ga12 Ir1 2.627600 1_555
Ga12 Ir0 2.627600 1_555
Ga12 Ga16 2.772226 1_555
Ga12 Ga14 2.772226 1_555
Ga12 Ga13 2.796661 1_554
Ga12 Ga8 2.850845 1_564
Ga12 Ga3 2.850845 1_654
Ga12 Y0 3.027512 1_555
Ga12 Y2 3.027512 1_555
Ga13 Ir4 2.590013 1_556
Ga13 Ir1 2.627600 1_556
Ga13 Ir0 2.627600 1_556
Ga13 Ga17 2.772226 1_555
Ga13 Ga15 2.772226 1_555
Ga13 Ga2 2.850845 1_556
Ga13 Ga9 2.850845 1_556
Ga13 Y1 3.027512 1_555
Ga13 Y3 3.027512 1_555
Ga14 Ir1 2.567424 1_555
Ga14 Ir2 2.567424 1_555
Ga14 Ga16 2.675050 1_555
Ga14 Ga2 2.748111 1_555
Ga14 Ga6 2.748111 1_555
Ga14 Y2 3.057333 1_555
Ga14 Y0 3.128298 1_455
Ga15 Ir3 2.567424 1_555
Ga15 Ir0 2.567424 1_556
Ga15 Ga17 2.675050 1_555
Ga15 Ga3 2.748111 1_655
Ga15 Ga4 2.748111 1_655
Ga15 Y3 3.057333 1_555
Ga15 Y1 3.128298 1_655
Ga16 Ir3 2.567424 1_555
Ga16 Ir0 2.567424 1_555
Ga16 Ga5 2.748111 1_555
Ga16 Ga9 2.748111 1_555
Ga16 Y0 3.057333 1_555
Ga16 Y2 3.128298 1_545
Ga17 Ir2 2.567424 1_555
Ga17 Ir1 2.567424 1_556
Ga17 Ga7 2.748111 1_565
Ga17 Ga8 2.748111 1_565
Ga17 Y1 3.057333 1_555
Ga17 Y3 3.128298 1_565
