# generated using pymatgen
data_Zn2Sn2O5
_symmetry_space_group_name_H-M   'P 1'
_cell_length_a   3.30615200
_cell_length_b   6.35679200
_cell_length_c   12.05558000
_cell_angle_alpha   90.00000000
_cell_angle_beta   90.00000000
_cell_angle_gamma   90.00000000
_symmetry_Int_Tables_number   1
_chemical_formula_structural   Zn2Sn2O5
_chemical_formula_sum   'Zn4 Sn4 O10'
_cell_volume   253.36634523
_cell_formula_units_Z   2
loop_
 _symmetry_equiv_pos_site_id
 _symmetry_equiv_pos_as_xyz
  1  'x, y, z'
loop_
 _atom_site_type_symbol
 _atom_site_label
 _atom_site_symmetry_multiplicity
 _atom_site_fract_x
 _atom_site_fract_y
 _atom_site_fract_z
 _atom_site_occupancy
  Zn  Zn0  1  0.50000000  0.32394400  0.84268100  1
  Zn  Zn1  1  0.50000000  0.66874600  0.65484800  1
  Zn  Zn2  1  0.50000000  0.82394400  0.15731900  1
  Zn  Zn3  1  0.50000000  0.16874600  0.34515200  1
  Sn  Sn0  1  0.00000000  0.34255700  0.10366000  1
  Sn  Sn1  1  0.00000000  0.65115500  0.39713700  1
  Sn  Sn2  1  0.00000000  0.15115500  0.60286300  1
  Sn  Sn3  1  0.00000000  0.84255700  0.89634000  1
  O  O0  1  0.00000000  0.50795800  0.24609100  1
  O  O1  1  0.00000000  0.25369700  0.43063700  1
  O  O2  1  0.00000000  0.75369700  0.56936300  1
  O  O3  1  0.00000000  0.25248100  0.93412900  1
  O  O4  1  0.50000000  0.34390700  0.66625500  1
  O  O5  1  0.50000000  0.65544100  0.83382400  1
  O  O6  1  0.00000000  0.75248100  0.06587100  1
  O  O7  1  0.50000000  0.15544100  0.16617600  1
  O  O8  1  0.00000000  0.00795800  0.75390900  1
  O  O9  1  0.50000000  0.84390700  0.33374500  1
loop_
_geom_bond_atom_site_label_1
_geom_bond_atom_site_label_2
_geom_bond_distance
_geom_bond_site_symmetry_2
O0 Sn0 2.013424 1_555
O0 Sn1 2.035791 1_555
O1 Zn3 2.021473 1_455
O1 Zn3 2.021473 1_555
O1 Sn2 2.176201 1_555
O1 Sn1 2.558632 1_555
O2 Zn1 2.021473 1_555
O2 Zn1 2.021473 1_455
O2 Sn1 2.176201 1_555
O2 Sn2 2.558632 1_565
O3 Zn0 2.038245 1_555
O3 Zn0 2.038245 1_455
O3 Sn0 2.122489 1_556
O3 Sn3 2.645325 1_545
O4 Zn1 2.069508 1_555
O4 Zn0 2.130700 1_555
O4 Sn2 2.195000 1_555
O4 Sn2 2.195000 1_655
O5 Zn0 2.109961 1_555
O5 Zn1 2.159316 1_555
O5 Sn3 2.171516 1_655
O5 Sn3 2.171516 1_555
O6 Zn2 2.038245 1_555
O6 Zn2 2.038245 1_455
O6 Sn3 2.122489 1_554
O6 Sn0 2.645325 1_555
O7 Zn2 2.109961 1_545
O7 Zn3 2.159316 1_555
O7 Sn0 2.171516 1_555
O7 Sn0 2.171516 1_655
O8 Sn3 2.013424 1_545
O8 Sn2 2.035791 1_555
O9 Zn3 2.069508 1_565
O9 Zn2 2.130700 1_555
O9 Sn1 2.195000 1_655
O9 Sn1 2.195000 1_555
