# generated using pymatgen
data_Mg30CdNiO32
_symmetry_space_group_name_H-M   'P 1'
_cell_length_a   8.55580500
_cell_length_b   8.55580500
_cell_length_c   8.55922600
_cell_angle_alpha   90.00000000
_cell_angle_beta   90.00000000
_cell_angle_gamma   90.00000000
_symmetry_Int_Tables_number   1
_chemical_formula_structural   Mg30CdNiO32
_chemical_formula_sum   'Mg30 Cd1 Ni1 O32'
_cell_volume   626.55074294
_cell_formula_units_Z   1
loop_
 _symmetry_equiv_pos_site_id
 _symmetry_equiv_pos_as_xyz
  1  'x, y, z'
loop_
 _atom_site_type_symbol
 _atom_site_label
 _atom_site_symmetry_multiplicity
 _atom_site_fract_x
 _atom_site_fract_y
 _atom_site_fract_z
 _atom_site_occupancy
  Mg  Mg0  1  0.00000000  0.50000000  0.00000000  1
  Mg  Mg1  1  0.00000000  0.50000000  0.50000000  1
  Mg  Mg2  1  0.50000000  0.00000000  0.00000000  1
  Mg  Mg3  1  0.50000000  0.00000000  0.50000000  1
  Mg  Mg4  1  0.50000000  0.50000000  0.00000000  1
  Mg  Mg5  1  0.50000000  0.50000000  0.50000000  1
  Mg  Mg6  1  0.00000000  0.25184200  0.24697700  1
  Mg  Mg7  1  0.00000000  0.25184200  0.75302300  1
  Mg  Mg8  1  0.00000000  0.74815800  0.24697700  1
  Mg  Mg9  1  0.00000000  0.74815800  0.75302300  1
  Mg  Mg10  1  0.50000000  0.24999600  0.24958400  1
  Mg  Mg11  1  0.50000000  0.24999600  0.75041600  1
  Mg  Mg12  1  0.50000000  0.75000400  0.24958400  1
  Mg  Mg13  1  0.50000000  0.75000400  0.75041600  1
  Mg  Mg14  1  0.25184200  0.00000000  0.24697700  1
  Mg  Mg15  1  0.25184200  0.00000000  0.75302300  1
  Mg  Mg16  1  0.24999600  0.50000000  0.24958400  1
  Mg  Mg17  1  0.24999600  0.50000000  0.75041600  1
  Mg  Mg18  1  0.74815800  0.00000000  0.24697700  1
  Mg  Mg19  1  0.74815800  0.00000000  0.75302300  1
  Mg  Mg20  1  0.75000400  0.50000000  0.24958400  1
  Mg  Mg21  1  0.75000400  0.50000000  0.75041600  1
  Mg  Mg22  1  0.24944500  0.24944500  0.00000000  1
  Mg  Mg23  1  0.25229900  0.25229900  0.50000000  1
  Mg  Mg24  1  0.24944500  0.75055500  0.00000000  1
  Mg  Mg25  1  0.25229900  0.74770100  0.50000000  1
  Mg  Mg26  1  0.75055500  0.24944500  0.00000000  1
  Mg  Mg27  1  0.74770100  0.25229900  0.50000000  1
  Mg  Mg28  1  0.75055500  0.75055500  0.00000000  1
  Mg  Mg29  1  0.74770100  0.74770100  0.50000000  1
  Cd  Cd0  1  0.00000000  0.00000000  0.50000000  1
  Ni  Ni0  1  0.00000000  0.00000000  0.00000000  1
  O  O0  1  0.25313300  0.00000000  0.00000000  1
  O  O1  1  0.26374400  0.00000000  0.50000000  1
  O  O2  1  0.25029500  0.50000000  0.00000000  1
  O  O3  1  0.25197700  0.50000000  0.50000000  1
  O  O4  1  0.74686700  0.00000000  0.00000000  1
  O  O5  1  0.73625600  0.00000000  0.50000000  1
  O  O6  1  0.74970500  0.50000000  0.00000000  1
  O  O7  1  0.74802300  0.50000000  0.50000000  1
  O  O8  1  0.24937300  0.24937300  0.25010300  1
  O  O9  1  0.24937300  0.24937300  0.74989700  1
  O  O10  1  0.24937300  0.75062700  0.25010300  1
  O  O11  1  0.24937300  0.75062700  0.74989700  1
  O  O12  1  0.75062700  0.24937300  0.25010300  1
  O  O13  1  0.75062700  0.24937300  0.74989700  1
  O  O14  1  0.75062700  0.75062700  0.25010300  1
  O  O15  1  0.75062700  0.75062700  0.74989700  1
  O  O16  1  0.00000000  0.00000000  0.23622400  1
  O  O17  1  0.00000000  0.00000000  0.76377600  1
  O  O18  1  0.00000000  0.50000000  0.24779700  1
  O  O19  1  0.00000000  0.50000000  0.75220300  1
  O  O20  1  0.50000000  0.00000000  0.24779700  1
  O  O21  1  0.50000000  0.00000000  0.75220300  1
  O  O22  1  0.50000000  0.50000000  0.24946300  1
  O  O23  1  0.50000000  0.50000000  0.75053700  1
  O  O24  1  0.00000000  0.25313300  0.00000000  1
  O  O25  1  0.00000000  0.26374400  0.50000000  1
  O  O26  1  0.00000000  0.74686700  0.00000000  1
  O  O27  1  0.00000000  0.73625600  0.50000000  1
  O  O28  1  0.50000000  0.25029500  0.00000000  1
  O  O29  1  0.50000000  0.25197700  0.50000000  1
  O  O30  1  0.50000000  0.74970500  0.00000000  1
  O  O31  1  0.50000000  0.74802300  0.50000000  1
loop_
_geom_bond_atom_site_label_1
_geom_bond_atom_site_label_2
_geom_bond_distance
_geom_bond_site_symmetry_2
Mg0 O26 2.112146 1_555
Mg0 O24 2.112146 1_555
Mg0 O18 2.120951 1_555
Mg0 O19 2.120951 1_554
Mg0 O2 2.141475 1_555
Mg0 O6 2.141475 1_455
Mg1 O27 2.021360 1_555
Mg1 O25 2.021360 1_555
Mg1 O3 2.155866 1_555
Mg1 O7 2.155866 1_455
Mg1 O19 2.158662 1_555
Mg1 O18 2.158662 1_555
Mg2 O4 2.112146 1_555
Mg2 O0 2.112146 1_555
Mg2 O20 2.120951 1_555
Mg2 O21 2.120951 1_554
Mg2 O28 2.141475 1_555
Mg2 O30 2.141475 1_545
Mg3 O1 2.021360 1_555
Mg3 O5 2.021360 1_555
Mg3 O29 2.155866 1_555
Mg3 O31 2.155866 1_545
Mg3 O21 2.158662 1_555
Mg3 O20 2.158662 1_555
Mg4 O22 2.135210 1_555
Mg4 O23 2.135210 1_554
Mg4 O6 2.136427 1_555
Mg4 O30 2.136427 1_555
Mg4 O2 2.136427 1_555
Mg4 O28 2.136427 1_555
Mg5 O31 2.122036 1_555
Mg5 O3 2.122036 1_555
Mg5 O7 2.122036 1_555
Mg5 O29 2.122036 1_555
Mg5 O22 2.144403 1_555
Mg5 O23 2.144403 1_555
Mg6 O24 2.113961 1_555
Mg6 O18 2.123203 1_555
Mg6 O8 2.133859 1_555
Mg6 O12 2.133859 1_455
Mg6 O16 2.156676 1_555
Mg6 O25 2.168074 1_555
Mg7 O24 2.113961 1_556
Mg7 O19 2.123203 1_555
Mg7 O9 2.133859 1_555
Mg7 O13 2.133859 1_455
Mg7 O17 2.156676 1_555
Mg7 O25 2.168074 1_555
Mg8 O26 2.113961 1_555
Mg8 O18 2.123203 1_555
Mg8 O10 2.133859 1_555
Mg8 O14 2.133859 1_455
Mg8 O16 2.156676 1_565
Mg8 O27 2.168074 1_555
Mg9 O26 2.113961 1_556
Mg9 O19 2.123203 1_555
Mg9 O11 2.133859 1_555
Mg9 O15 2.133859 1_455
Mg9 O17 2.156676 1_565
Mg9 O27 2.168074 1_555
Mg10 O28 2.136247 1_555
Mg10 O20 2.138972 1_555
Mg10 O22 2.138986 1_555
Mg10 O29 2.143434 1_555
Mg10 O12 2.144327 1_555
Mg10 O8 2.144327 1_555
Mg11 O28 2.136247 1_556
Mg11 O21 2.138972 1_555
Mg11 O23 2.138986 1_555
Mg11 O29 2.143434 1_555
Mg11 O13 2.144327 1_555
Mg11 O9 2.144327 1_555
Mg12 O30 2.136247 1_555
Mg12 O20 2.138972 1_565
Mg12 O22 2.138986 1_555
Mg12 O31 2.143434 1_555
Mg12 O14 2.144327 1_555
Mg12 O10 2.144327 1_555
Mg13 O30 2.136247 1_556
Mg13 O21 2.138972 1_565
Mg13 O23 2.138986 1_555
Mg13 O31 2.143434 1_555
Mg13 O15 2.144327 1_555
Mg13 O11 2.144327 1_555
Mg14 O0 2.113961 1_555
Mg14 O20 2.123203 1_555
Mg14 O8 2.133859 1_555
Mg14 O10 2.133859 1_545
Mg14 O16 2.156676 1_555
Mg14 O1 2.168074 1_555
Mg15 O0 2.113961 1_556
Mg15 O21 2.123203 1_555
Mg15 O9 2.133859 1_555
Mg15 O11 2.133859 1_545
Mg15 O17 2.156676 1_555
Mg15 O1 2.168074 1_555
Mg16 O2 2.136247 1_555
Mg16 O18 2.138972 1_555
Mg16 O22 2.138986 1_555
Mg16 O3 2.143434 1_555
Mg16 O10 2.144327 1_555
Mg16 O8 2.144327 1_555
Mg17 O2 2.136247 1_556
Mg17 O19 2.138972 1_555
Mg17 O23 2.138986 1_555
Mg17 O3 2.143434 1_555
Mg17 O11 2.144327 1_555
Mg17 O9 2.144327 1_555
Mg18 O4 2.113961 1_555
Mg18 O20 2.123203 1_555
Mg18 O12 2.133859 1_555
Mg18 O14 2.133859 1_545
Mg18 O16 2.156676 1_655
Mg18 O5 2.168074 1_555
Mg19 O4 2.113961 1_556
Mg19 O21 2.123203 1_555
Mg19 O13 2.133859 1_555
Mg19 O15 2.133859 1_545
Mg19 O17 2.156676 1_655
Mg19 O5 2.168074 1_555
Mg20 O6 2.136247 1_555
Mg20 O18 2.138972 1_655
Mg20 O22 2.138986 1_555
Mg20 O7 2.143434 1_555
Mg20 O14 2.144327 1_555
Mg20 O12 2.144327 1_555
Mg21 O6 2.136247 1_556
Mg21 O19 2.138972 1_655
Mg21 O23 2.138986 1_555
Mg21 O7 2.143434 1_555
Mg21 O15 2.144327 1_555
Mg21 O13 2.144327 1_555
Mg22 O0 2.134436 1_555
Mg22 O24 2.134436 1_555
Mg22 O8 2.140688 1_555
Mg22 O9 2.140688 1_554
Mg22 O28 2.143712 1_555
Mg22 O2 2.143712 1_555
Mg23 O29 2.119283 1_555
Mg23 O3 2.119283 1_555
Mg23 O9 2.139218 1_555
Mg23 O8 2.139218 1_555
Mg23 O1 2.160841 1_555
Mg23 O25 2.160841 1_555
Mg24 O26 2.134436 1_555
Mg24 O0 2.134436 1_565
Mg24 O10 2.140688 1_555
Mg24 O11 2.140688 1_554
Mg24 O2 2.143712 1_555
Mg24 O30 2.143712 1_555
Mg25 O3 2.119283 1_555
Mg25 O31 2.119283 1_555
Mg25 O11 2.139218 1_555
Mg25 O10 2.139218 1_555
Mg25 O27 2.160841 1_555
Mg25 O1 2.160841 1_565
Mg26 O4 2.134436 1_555
Mg26 O24 2.134436 1_655
Mg26 O12 2.140688 1_555
Mg26 O13 2.140688 1_554
Mg26 O28 2.143712 1_555
Mg26 O6 2.143712 1_555
Mg27 O29 2.119283 1_555
Mg27 O7 2.119283 1_555
Mg27 O13 2.139218 1_555
Mg27 O12 2.139218 1_555
Mg27 O5 2.160841 1_555
Mg27 O25 2.160841 1_655
Mg28 O26 2.134436 1_655
Mg28 O4 2.134436 1_565
Mg28 O14 2.140688 1_555
Mg28 O15 2.140688 1_554
Mg28 O6 2.143712 1_555
Mg28 O30 2.143712 1_555
Mg29 O31 2.119283 1_555
Mg29 O7 2.119283 1_555
Mg29 O15 2.139218 1_555
Mg29 O14 2.139218 1_555
Mg29 O27 2.160841 1_655
Mg29 O5 2.160841 1_565
Cd0 O27 2.256542 1_545
Cd0 O1 2.256542 1_555
Cd0 O5 2.256542 1_455
Cd0 O25 2.256542 1_555
Cd0 O17 2.257718 1_555
Cd0 O16 2.257718 1_555
Ni0 O16 2.021895 1_555
Ni0 O17 2.021895 1_554
Ni0 O24 2.165757 1_555
Ni0 O0 2.165757 1_555
Ni0 O26 2.165757 1_545
Ni0 O4 2.165757 1_455
