# generated using pymatgen
data_LiMg2
_symmetry_space_group_name_H-M   'P 1'
_cell_length_a   6.29989184
_cell_length_b   6.29989184
_cell_length_c   30.45979392
_cell_angle_alpha   90.00000000
_cell_angle_beta   90.00000000
_cell_angle_gamma   120.00002139
_symmetry_Int_Tables_number   1
_chemical_formula_structural   LiMg2
_chemical_formula_sum   'Li16 Mg32'
_cell_volume   1046.94456098
_cell_formula_units_Z   16
loop_
 _symmetry_equiv_pos_site_id
 _symmetry_equiv_pos_as_xyz
  1  'x, y, z'
loop_
 _atom_site_type_symbol
 _atom_site_label
 _atom_site_symmetry_multiplicity
 _atom_site_fract_x
 _atom_site_fract_y
 _atom_site_fract_z
 _atom_site_occupancy
  Li  Li0_0  1  0.16666650  0.33333350  0.29124153  1
  Li  Li0_1  1  0.16666650  0.33333350  0.79124154  1
  Li  Li0_2  1  0.16666650  0.83333350  0.29124153  1
  Li  Li0_3  1  0.16666650  0.83333350  0.79124154  1
  Li  Li0_4  1  0.66666650  0.33333350  0.29124153  1
  Li  Li0_5  1  0.66666650  0.33333350  0.79124154  1
  Li  Li0_6  1  0.66666650  0.83333350  0.29124153  1
  Li  Li0_7  1  0.66666650  0.83333350  0.79124154  1
  Li  Li1_0  1  0.33333350  0.16666650  0.20875847  1
  Li  Li1_1  1  0.33333350  0.16666650  0.70875847  1
  Li  Li1_2  1  0.33333350  0.66666650  0.20875847  1
  Li  Li1_3  1  0.33333350  0.66666650  0.70875847  1
  Li  Li1_4  1  0.83333350  0.16666650  0.20875847  1
  Li  Li1_5  1  0.83333350  0.16666650  0.70875847  1
  Li  Li1_6  1  0.83333350  0.66666650  0.20875847  1
  Li  Li1_7  1  0.83333350  0.66666650  0.70875847  1
  Mg  Mg0_0  1  0.16666650  0.33333350  0.45798967  1
  Mg  Mg0_1  1  0.16666650  0.33333350  0.95798967  1
  Mg  Mg0_2  1  0.16666650  0.83333350  0.45798967  1
  Mg  Mg0_3  1  0.16666650  0.83333350  0.95798967  1
  Mg  Mg0_4  1  0.66666650  0.33333350  0.45798967  1
  Mg  Mg0_5  1  0.66666650  0.33333350  0.95798967  1
  Mg  Mg0_6  1  0.66666650  0.83333350  0.45798967  1
  Mg  Mg0_7  1  0.66666650  0.83333350  0.95798967  1
  Mg  Mg1_0  1  0.33333350  0.16666650  0.37306095  1
  Mg  Mg1_1  1  0.33333350  0.16666650  0.87306095  1
  Mg  Mg1_2  1  0.33333350  0.66666650  0.37306095  1
  Mg  Mg1_3  1  0.33333350  0.66666650  0.87306095  1
  Mg  Mg1_4  1  0.83333350  0.16666650  0.37306095  1
  Mg  Mg1_5  1  0.83333350  0.16666650  0.87306095  1
  Mg  Mg1_6  1  0.83333350  0.66666650  0.37306095  1
  Mg  Mg1_7  1  0.83333350  0.66666650  0.87306095  1
  Mg  Mg2_0  1  0.16666650  0.33333350  0.12693905  1
  Mg  Mg2_1  1  0.16666650  0.33333350  0.62693905  1
  Mg  Mg2_2  1  0.16666650  0.83333350  0.12693905  1
  Mg  Mg2_3  1  0.16666650  0.83333350  0.62693905  1
  Mg  Mg2_4  1  0.66666650  0.33333350  0.12693905  1
  Mg  Mg2_5  1  0.66666650  0.33333350  0.62693905  1
  Mg  Mg2_6  1  0.66666650  0.83333350  0.12693905  1
  Mg  Mg2_7  1  0.66666650  0.83333350  0.62693905  1
  Mg  Mg3_0  1  0.33333350  0.16666650  0.04201034  1
  Mg  Mg3_1  1  0.33333350  0.16666650  0.54201034  1
  Mg  Mg3_2  1  0.33333350  0.66666650  0.04201034  1
  Mg  Mg3_3  1  0.33333350  0.66666650  0.54201034  1
  Mg  Mg3_4  1  0.83333350  0.16666650  0.04201034  1
  Mg  Mg3_5  1  0.83333350  0.16666650  0.54201034  1
  Mg  Mg3_6  1  0.83333350  0.66666650  0.04201034  1
  Mg  Mg3_7  1  0.83333350  0.66666650  0.54201034  1
loop_
_geom_bond_atom_site_label_1
_geom_bond_atom_site_label_2
_geom_bond_distance
_geom_bond_site_symmetry_2
Li0_0 Mg1_4 3.085199 1_455
Li0_0 Mg1_2 3.085199 1_555
Li0_0 Mg1_0 3.085202 1_555
Li0_0 Li1_4 3.101551 1_455
Li0_0 Li1_2 3.101551 1_555
Li0_0 Li1_0 3.101555 1_555
Li0_0 Li0_6 3.149945 1_445
Li0_0 Li0_6 3.149945 1_555
Li0_0 Li0_2 3.149946 1_545
Li0_0 Li0_4 3.149946 1_455
Li0_0 Li0_4 3.149946 1_555
Li0_0 Li0_2 3.149946 1_555
Li0_1 Mg1_5 3.085199 1_455
Li0_1 Mg1_3 3.085199 1_555
Li0_1 Mg1_1 3.085202 1_555
Li0_1 Li1_5 3.101551 1_455
Li0_1 Li1_3 3.101551 1_555
Li0_1 Li1_1 3.101555 1_555
Li0_1 Li0_7 3.149945 1_445
Li0_1 Li0_7 3.149945 1_555
Li0_1 Li0_3 3.149946 1_545
Li0_1 Li0_5 3.149946 1_455
Li0_1 Li0_5 3.149946 1_555
Li0_1 Li0_3 3.149946 1_555
Li0_2 Mg1_6 3.085199 1_455
Li0_2 Mg1_0 3.085199 1_565
Li0_2 Mg1_2 3.085202 1_555
Li0_2 Li1_6 3.101551 1_455
Li0_2 Li1_0 3.101551 1_565
Li0_2 Li1_2 3.101555 1_555
Li0_2 Li0_4 3.149945 1_565
Li0_2 Li0_4 3.149945 1_455
Li0_2 Li0_6 3.149946 1_455
Li0_2 Li0_6 3.149946 1_555
Li0_3 Mg1_1 3.085199 1_565
Li0_3 Mg1_7 3.085199 1_455
Li0_3 Mg1_3 3.085202 1_555
Li0_3 Li1_7 3.101551 1_455
Li0_3 Li1_1 3.101551 1_565
Li0_3 Li1_3 3.101555 1_555
Li0_3 Li0_5 3.149945 1_565
Li0_3 Li0_5 3.149945 1_455
Li0_3 Li0_7 3.149946 1_455
Li0_3 Li0_7 3.149946 1_555
Li0_4 Mg1_0 3.085199 1_555
Li0_4 Mg1_6 3.085199 1_555
Li0_4 Mg1_4 3.085202 1_555
Li0_4 Li1_6 3.101551 1_555
Li0_4 Li1_0 3.101551 1_555
Li0_4 Li1_4 3.101555 1_555
Li0_4 Li0_6 3.149946 1_545
Li0_4 Li0_6 3.149946 1_555
Li0_5 Mg1_1 3.085199 1_555
Li0_5 Mg1_7 3.085199 1_555
Li0_5 Mg1_5 3.085202 1_555
Li0_5 Li1_1 3.101551 1_555
Li0_5 Li1_7 3.101551 1_555
Li0_5 Li1_5 3.101555 1_555
Li0_5 Li0_7 3.149946 1_555
Li0_5 Li0_7 3.149946 1_545
Li0_6 Mg1_4 3.085199 1_565
Li0_6 Mg1_2 3.085199 1_555
Li0_6 Mg1_6 3.085202 1_555
Li0_6 Li1_4 3.101551 1_565
Li0_6 Li1_2 3.101551 1_555
Li0_6 Li1_6 3.101555 1_555
Li0_7 Mg1_5 3.085199 1_565
Li0_7 Mg1_3 3.085199 1_555
Li0_7 Mg1_7 3.085202 1_555
Li0_7 Li1_5 3.101551 1_565
Li0_7 Li1_3 3.101551 1_555
Li0_7 Li1_7 3.101555 1_555
Li1_0 Mg2_2 3.085199 1_545
Li1_0 Mg2_4 3.085199 1_555
Li1_0 Mg2_0 3.085202 1_555
Li1_0 Li1_6 3.149945 1_445
Li1_0 Li1_6 3.149945 1_555
Li1_0 Li1_4 3.149946 1_455
Li1_0 Li1_2 3.149946 1_545
Li1_0 Li1_4 3.149946 1_555
Li1_0 Li1_2 3.149946 1_555
Li1_1 Mg2_3 3.085199 1_545
Li1_1 Mg2_5 3.085199 1_555
Li1_1 Mg2_1 3.085202 1_555
Li1_1 Li1_7 3.149945 1_445
Li1_1 Li1_7 3.149945 1_555
Li1_1 Li1_5 3.149946 1_455
Li1_1 Li1_3 3.149946 1_545
Li1_1 Li1_3 3.149946 1_555
Li1_1 Li1_5 3.149946 1_555
Li1_2 Mg2_0 3.085199 1_555
Li1_2 Mg2_6 3.085199 1_555
Li1_2 Mg2_2 3.085202 1_555
Li1_2 Li1_4 3.149945 1_455
Li1_2 Li1_4 3.149945 1_565
Li1_2 Li1_6 3.149946 1_455
Li1_2 Li1_6 3.149946 1_555
Li1_3 Mg2_1 3.085199 1_555
Li1_3 Mg2_7 3.085199 1_555
Li1_3 Mg2_3 3.085202 1_555
Li1_3 Li1_5 3.149945 1_455
Li1_3 Li1_5 3.149945 1_565
Li1_3 Li1_7 3.149946 1_455
Li1_3 Li1_7 3.149946 1_555
Li1_4 Mg2_0 3.085199 1_655
Li1_4 Mg2_6 3.085199 1_545
Li1_4 Mg2_4 3.085202 1_555
Li1_4 Li1_6 3.149946 1_545
Li1_4 Li1_6 3.149946 1_555
Li1_5 Mg2_7 3.085199 1_545
Li1_5 Mg2_1 3.085199 1_655
Li1_5 Mg2_5 3.085202 1_555
Li1_5 Li1_7 3.149946 1_545
Li1_5 Li1_7 3.149946 1_555
Li1_6 Mg2_2 3.085199 1_655
Li1_6 Mg2_4 3.085199 1_555
Li1_6 Mg2_6 3.085202 1_555
Li1_7 Mg2_3 3.085199 1_655
Li1_7 Mg2_5 3.085199 1_555
Li1_7 Mg2_7 3.085202 1_555
Mg0_0 Mg3_5 3.139610 1_455
Mg0_0 Mg3_3 3.139610 1_555
Mg0_0 Mg3_1 3.139613 1_555
Mg0_0 Mg0_6 3.149945 1_445
Mg0_0 Mg0_6 3.149945 1_555
Mg0_0 Mg0_2 3.149946 1_545
Mg0_0 Mg0_4 3.149946 1_455
Mg0_0 Mg0_2 3.149946 1_555
Mg0_0 Mg0_4 3.149946 1_555
Mg0_0 Mg1_4 3.162197 1_455
Mg0_0 Mg1_2 3.162197 1_555
Mg0_0 Mg1_0 3.162200 1_555
Mg0_1 Mg3_4 3.139610 1_456
Mg0_1 Mg3_2 3.139610 1_556
Mg0_1 Mg3_0 3.139613 1_556
Mg0_1 Mg0_7 3.149945 1_445
Mg0_1 Mg0_7 3.149945 1_555
Mg0_1 Mg0_3 3.149946 1_545
Mg0_1 Mg0_5 3.149946 1_455
Mg0_1 Mg0_5 3.149946 1_555
Mg0_1 Mg0_3 3.149946 1_555
Mg0_1 Mg1_5 3.162197 1_455
Mg0_1 Mg1_3 3.162197 1_555
Mg0_1 Mg1_1 3.162200 1_555
Mg0_2 Mg3_7 3.139610 1_455
Mg0_2 Mg3_1 3.139610 1_565
Mg0_2 Mg3_3 3.139613 1_555
Mg0_2 Mg0_4 3.149945 1_565
Mg0_2 Mg0_4 3.149945 1_455
Mg0_2 Mg0_6 3.149946 1_455
Mg0_2 Mg0_6 3.149946 1_555
Mg0_2 Mg1_0 3.162197 1_565
Mg0_2 Mg1_6 3.162197 1_455
Mg0_2 Mg1_2 3.162200 1_555
Mg0_3 Mg3_6 3.139610 1_456
Mg0_3 Mg3_0 3.139610 1_566
Mg0_3 Mg3_2 3.139613 1_556
Mg0_3 Mg0_5 3.149945 1_565
Mg0_3 Mg0_5 3.149945 1_455
Mg0_3 Mg0_7 3.149946 1_455
Mg0_3 Mg0_7 3.149946 1_555
Mg0_3 Mg1_7 3.162197 1_455
Mg0_3 Mg1_1 3.162197 1_565
Mg0_3 Mg1_3 3.162200 1_555
Mg0_4 Mg3_1 3.139610 1_555
Mg0_4 Mg3_7 3.139610 1_555
Mg0_4 Mg3_5 3.139613 1_555
Mg0_4 Mg0_6 3.149946 1_555
Mg0_4 Mg0_6 3.149946 1_545
Mg0_4 Mg1_0 3.162197 1_555
Mg0_4 Mg1_6 3.162197 1_555
Mg0_4 Mg1_4 3.162200 1_555
Mg0_5 Mg3_0 3.139610 1_556
Mg0_5 Mg3_6 3.139610 1_556
Mg0_5 Mg3_4 3.139613 1_556
Mg0_5 Mg0_7 3.149946 1_545
Mg0_5 Mg0_7 3.149946 1_555
Mg0_5 Mg1_1 3.162197 1_555
Mg0_5 Mg1_7 3.162197 1_555
Mg0_5 Mg1_5 3.162200 1_555
Mg0_6 Mg3_5 3.139610 1_565
Mg0_6 Mg3_3 3.139610 1_555
Mg0_6 Mg3_7 3.139613 1_555
Mg0_6 Mg1_4 3.162197 1_565
Mg0_6 Mg1_2 3.162197 1_555
Mg0_6 Mg1_6 3.162200 1_555
Mg0_7 Mg3_4 3.139610 1_566
Mg0_7 Mg3_2 3.139610 1_556
Mg0_7 Mg3_6 3.139613 1_556
Mg0_7 Mg1_5 3.162197 1_565
Mg0_7 Mg1_3 3.162197 1_555
Mg0_7 Mg1_7 3.162200 1_555
Mg1_0 Mg1_6 3.149945 1_445
Mg1_0 Mg1_6 3.149945 1_555
Mg1_0 Mg1_2 3.149946 1_545
Mg1_0 Mg1_4 3.149946 1_455
Mg1_0 Mg1_2 3.149946 1_555
Mg1_0 Mg1_4 3.149946 1_555
Mg1_1 Mg1_7 3.149945 1_445
Mg1_1 Mg1_7 3.149945 1_555
Mg1_1 Mg1_5 3.149946 1_455
Mg1_1 Mg1_3 3.149946 1_545
Mg1_1 Mg1_5 3.149946 1_555
Mg1_1 Mg1_3 3.149946 1_555
Mg1_2 Mg1_4 3.149945 1_455
Mg1_2 Mg1_4 3.149945 1_565
Mg1_2 Mg1_6 3.149946 1_455
Mg1_2 Mg1_6 3.149946 1_555
Mg1_3 Mg1_5 3.149945 1_455
Mg1_3 Mg1_5 3.149945 1_565
Mg1_3 Mg1_7 3.149946 1_455
Mg1_3 Mg1_7 3.149946 1_555
Mg1_4 Mg1_6 3.149946 1_545
Mg1_4 Mg1_6 3.149946 1_555
Mg1_5 Mg1_7 3.149946 1_545
Mg1_5 Mg1_7 3.149946 1_555
Mg2_0 Mg2_6 3.149945 1_445
Mg2_0 Mg2_6 3.149945 1_555
Mg2_0 Mg2_2 3.149946 1_545
Mg2_0 Mg2_4 3.149946 1_455
Mg2_0 Mg2_4 3.149946 1_555
Mg2_0 Mg2_2 3.149946 1_555
Mg2_0 Mg3_4 3.162197 1_455
Mg2_0 Mg3_2 3.162197 1_555
Mg2_0 Mg3_0 3.162200 1_555
Mg2_1 Mg2_7 3.149945 1_445
Mg2_1 Mg2_7 3.149945 1_555
Mg2_1 Mg2_5 3.149946 1_455
Mg2_1 Mg2_3 3.149946 1_545
Mg2_1 Mg2_3 3.149946 1_555
Mg2_1 Mg2_5 3.149946 1_555
Mg2_1 Mg3_5 3.162197 1_455
Mg2_1 Mg3_3 3.162197 1_555
Mg2_1 Mg3_1 3.162200 1_555
Mg2_2 Mg2_4 3.149945 1_455
Mg2_2 Mg2_4 3.149945 1_565
Mg2_2 Mg2_6 3.149946 1_455
Mg2_2 Mg2_6 3.149946 1_555
Mg2_2 Mg3_6 3.162197 1_455
Mg2_2 Mg3_0 3.162197 1_565
Mg2_2 Mg3_2 3.162200 1_555
Mg2_3 Mg2_5 3.149945 1_455
Mg2_3 Mg2_5 3.149945 1_565
Mg2_3 Mg2_7 3.149946 1_455
Mg2_3 Mg2_7 3.149946 1_555
Mg2_3 Mg3_7 3.162197 1_455
Mg2_3 Mg3_1 3.162197 1_565
Mg2_3 Mg3_3 3.162200 1_555
Mg2_4 Mg2_6 3.149946 1_555
Mg2_4 Mg2_6 3.149946 1_545
Mg2_4 Mg3_0 3.162197 1_555
Mg2_4 Mg3_6 3.162197 1_555
Mg2_4 Mg3_4 3.162200 1_555
Mg2_5 Mg2_7 3.149946 1_555
Mg2_5 Mg2_7 3.149946 1_545
Mg2_5 Mg3_1 3.162197 1_555
Mg2_5 Mg3_7 3.162197 1_555
Mg2_5 Mg3_5 3.162200 1_555
Mg2_6 Mg3_4 3.162197 1_565
Mg2_6 Mg3_2 3.162197 1_555
Mg2_6 Mg3_6 3.162200 1_555
Mg2_7 Mg3_5 3.162197 1_565
Mg2_7 Mg3_3 3.162197 1_555
Mg2_7 Mg3_7 3.162200 1_555
Mg3_0 Mg3_6 3.149945 1_445
Mg3_0 Mg3_6 3.149945 1_555
Mg3_0 Mg3_4 3.149946 1_455
Mg3_0 Mg3_2 3.149946 1_545
Mg3_0 Mg3_2 3.149946 1_555
Mg3_0 Mg3_4 3.149946 1_555
Mg3_1 Mg3_7 3.149945 1_445
Mg3_1 Mg3_7 3.149945 1_555
Mg3_1 Mg3_5 3.149946 1_455
Mg3_1 Mg3_3 3.149946 1_545
Mg3_1 Mg3_5 3.149946 1_555
Mg3_1 Mg3_3 3.149946 1_555
Mg3_2 Mg3_4 3.149945 1_455
Mg3_2 Mg3_4 3.149945 1_565
Mg3_2 Mg3_6 3.149946 1_455
Mg3_2 Mg3_6 3.149946 1_555
Mg3_3 Mg3_5 3.149945 1_455
Mg3_3 Mg3_5 3.149945 1_565
Mg3_3 Mg3_7 3.149946 1_455
Mg3_3 Mg3_7 3.149946 1_555
Mg3_4 Mg3_6 3.149946 1_545
Mg3_4 Mg3_6 3.149946 1_555
Mg3_5 Mg3_7 3.149946 1_545
Mg3_5 Mg3_7 3.149946 1_555
