# generated using pymatgen
data_Cr3O7
_symmetry_space_group_name_H-M   'P 1'
_cell_length_a   5.28754900
_cell_length_b   10.53880000
_cell_length_c   11.26393300
_cell_angle_alpha   90.00000000
_cell_angle_beta   90.00000000
_cell_angle_gamma   90.00000000
_symmetry_Int_Tables_number   1
_chemical_formula_structural   Cr3O7
_chemical_formula_sum   'Cr12 O28'
_cell_volume   627.67614913
_cell_formula_units_Z   4
loop_
 _symmetry_equiv_pos_site_id
 _symmetry_equiv_pos_as_xyz
  1  'x, y, z'
loop_
 _atom_site_type_symbol
 _atom_site_label
 _atom_site_symmetry_multiplicity
 _atom_site_fract_x
 _atom_site_fract_y
 _atom_site_fract_z
 _atom_site_occupancy
  Cr  Cr0  1  0.29473800  0.02007200  0.30304700  1
  Cr  Cr1  1  0.79473800  0.97992800  0.19695300  1
  Cr  Cr2  1  0.70526200  0.52007200  0.69695300  1
  Cr  Cr3  1  0.20526200  0.47992800  0.80304700  1
  Cr  Cr4  1  0.29622200  0.75000000  0.22636800  1
  Cr  Cr5  1  0.79622200  0.25000000  0.27363200  1
  Cr  Cr6  1  0.70377800  0.25000000  0.77363200  1
  Cr  Cr7  1  0.20377800  0.75000000  0.72636800  1
  Cr  Cr8  1  0.79473800  0.52007200  0.19695300  1
  Cr  Cr9  1  0.29473800  0.47992800  0.30304700  1
  Cr  Cr10  1  0.20526200  0.02007200  0.80304700  1
  Cr  Cr11  1  0.70526200  0.97992800  0.69695300  1
  O  O0  1  0.93702800  0.11360500  0.73112600  1
  O  O1  1  0.43702800  0.88639500  0.76887400  1
  O  O2  1  0.06297200  0.61360500  0.26887400  1
  O  O3  1  0.56297200  0.38639500  0.23112600  1
  O  O4  1  0.06297200  0.88639500  0.26887400  1
  O  O5  1  0.56297200  0.11360500  0.23112600  1
  O  O6  1  0.93702800  0.38639500  0.73112600  1
  O  O7  1  0.43702800  0.61360500  0.76887400  1
  O  O8  1  0.46834800  0.11311700  0.72719700  1
  O  O9  1  0.96834800  0.88688300  0.77280300  1
  O  O10  1  0.53165200  0.61311700  0.27280300  1
  O  O11  1  0.03165200  0.38688400  0.22719700  1
  O  O12  1  0.53165200  0.88688300  0.27280300  1
  O  O13  1  0.03165200  0.11311700  0.22719700  1
  O  O14  1  0.46834800  0.38688400  0.72719700  1
  O  O15  1  0.96834800  0.61311700  0.77280300  1
  O  O16  1  0.19045300  0.75000000  0.58198200  1
  O  O17  1  0.69045300  0.25000000  0.91801800  1
  O  O18  1  0.80954700  0.25000000  0.41801800  1
  O  O19  1  0.30954700  0.75000000  0.08198200  1
  O  O20  1  0.21485900  0.44259300  0.93893200  1
  O  O21  1  0.71485900  0.55740600  0.56106800  1
  O  O22  1  0.78514100  0.94259400  0.06106800  1
  O  O23  1  0.28514100  0.05740700  0.43893200  1
  O  O24  1  0.78514100  0.55740600  0.06106800  1
  O  O25  1  0.28514100  0.44259300  0.43893200  1
  O  O26  1  0.21485900  0.05740700  0.93893200  1
  O  O27  1  0.71485900  0.94259400  0.56106800  1
loop_
_geom_bond_atom_site_label_1
_geom_bond_atom_site_label_2
_geom_bond_distance
_geom_bond_site_symmetry_2
Cr0 O23 1.581179 1_555
Cr0 O13 1.904362 1_555
Cr0 O4 1.906477 1_545
Cr0 O5 1.907751 1_555
Cr0 O12 1.911946 1_545
Cr1 O22 1.581176 1_555
Cr1 O12 1.904362 1_555
Cr1 O5 1.906477 1_565
Cr1 O4 1.907751 1_655
Cr1 O13 1.911946 1_665
Cr2 O21 1.581176 1_555
Cr2 O15 1.904362 1_555
Cr2 O6 1.906477 1_555
Cr2 O7 1.907751 1_555
Cr2 O14 1.911938 1_555
Cr3 O20 1.581179 1_555
Cr3 O14 1.904356 1_555
Cr3 O7 1.906477 1_555
Cr3 O6 1.907751 1_455
Cr3 O15 1.911946 1_455
Cr4 O19 1.627880 1_555
Cr4 O4 1.953599 1_555
Cr4 O2 1.953599 1_555
Cr4 O12 1.975920 1_555
Cr4 O10 1.975920 1_555
Cr5 O18 1.627880 1_555
Cr5 O3 1.953599 1_555
Cr5 O5 1.953599 1_555
Cr5 O13 1.975920 1_655
Cr5 O11 1.975928 1_655
Cr6 O17 1.627880 1_555
Cr6 O6 1.953599 1_555
Cr6 O0 1.953599 1_555
Cr6 O8 1.975920 1_555
Cr6 O14 1.975928 1_555
Cr7 O16 1.627880 1_555
Cr7 O1 1.953599 1_555
Cr7 O7 1.953599 1_555
Cr7 O15 1.975920 1_455
Cr7 O9 1.975920 1_455
Cr8 O24 1.581176 1_555
Cr8 O10 1.904362 1_555
Cr8 O3 1.906477 1_555
Cr8 O2 1.907751 1_655
Cr8 O11 1.911938 1_655
Cr9 O25 1.581179 1_555
Cr9 O11 1.904356 1_555
Cr9 O2 1.906477 1_555
Cr9 O3 1.907751 1_555
Cr9 O10 1.911946 1_555
Cr10 O26 1.581179 1_555
Cr10 O8 1.904362 1_555
Cr10 O1 1.906477 1_545
Cr10 O0 1.907751 1_455
Cr10 O9 1.911946 1_445
Cr11 O27 1.581176 1_555
Cr11 O9 1.904362 1_555
Cr11 O0 1.906477 1_565
Cr11 O1 1.907751 1_555
Cr11 O8 1.911946 1_565
