# generated using pymatgen
data_V3(PO4)2
_symmetry_space_group_name_H-M   'P 1'
_cell_length_a   8.79028000
_cell_length_b   9.34978755
_cell_length_c   9.70916837
_cell_angle_alpha   116.71194700
_cell_angle_beta   92.42121133
_cell_angle_gamma   113.47215075
_symmetry_Int_Tables_number   1
_chemical_formula_structural   V3(PO4)2
_chemical_formula_sum   'V12 P8 O32'
_cell_volume   629.53075111
_cell_formula_units_Z   4
loop_
 _symmetry_equiv_pos_site_id
 _symmetry_equiv_pos_as_xyz
  1  'x, y, z'
loop_
 _atom_site_type_symbol
 _atom_site_label
 _atom_site_symmetry_multiplicity
 _atom_site_fract_x
 _atom_site_fract_y
 _atom_site_fract_z
 _atom_site_occupancy
  V  V0  1  0.00152900  0.73364400  0.53462500  1
  V  V1  1  0.06983900  0.44750000  0.89229800  1
  V  V2  1  0.11451900  0.02652800  0.16224300  1
  V  V3  1  0.40312200  0.47710500  0.32361600  1
  V  V4  1  0.51885600  0.06721700  0.82568200  1
  V  V5  1  0.39833700  0.73832200  0.73758100  1
  V  V6  1  0.60166300  0.26167800  0.26241900  1
  V  V7  1  0.48114400  0.93278300  0.17431800  1
  V  V8  1  0.59687800  0.52289500  0.67638400  1
  V  V9  1  0.88548100  0.97347200  0.83775700  1
  V  V10  1  0.93016100  0.55250000  0.10770200  1
  V  V11  1  0.99847100  0.26635600  0.46537500  1
  P  P0  1  0.17565100  0.75299500  0.93190200  1
  P  P1  1  0.27477700  0.11320900  0.44991400  1
  P  P2  1  0.23626000  0.66607000  0.39785200  1
  P  P3  1  0.31658300  0.26712900  0.90376100  1
  P  P4  1  0.68341700  0.73287100  0.09623900  1
  P  P5  1  0.76374000  0.33393000  0.60214800  1
  P  P6  1  0.72522300  0.88679100  0.55008600  1
  P  P7  1  0.82434900  0.24700500  0.06809800  1
  O  O0  1  0.07217600  0.53682500  0.34623200  1
  O  O1  1  0.00525000  0.77858500  0.91596700  1
  O  O2  1  0.22653500  0.25136400  0.45765800  1
  O  O3  1  0.19016200  0.57679800  0.07993800  1
  O  O4  1  0.16132300  0.72244600  0.78415500  1
  O  O5  1  0.32605100  0.90273700  0.95073000  1
  O  O6  1  0.11017100  0.98697500  0.39385000  1
  O  O7  1  0.13165800  0.14626900  0.89797100  1
  O  O8  1  0.38640100  0.01284200  0.61250300  1
  O  O9  1  0.22150700  0.68711400  0.53513500  1
  O  O10  1  0.36902500  0.22069900  0.31352000  1
  O  O11  1  0.30855400  0.44471500  0.87550500  1
  O  O12  1  0.60049500  0.39629800  0.54742200  1
  O  O13  1  0.59569300  0.71075100  0.21427200  1
  O  O14  1  0.24905700  0.83628600  0.24848100  1
  O  O15  1  0.57911300  0.82144200  0.91904400  1
  O  O16  1  0.42088700  0.17855800  0.08095600  1
  O  O17  1  0.75094300  0.16371400  0.75151900  1
  O  O18  1  0.40430700  0.28924900  0.78572800  1
  O  O19  1  0.39950500  0.60370200  0.45257800  1
  O  O20  1  0.69144600  0.55528500  0.12449500  1
  O  O21  1  0.63097500  0.77930100  0.68648000  1
  O  O22  1  0.77849300  0.31288600  0.46486500  1
  O  O23  1  0.61359900  0.98715800  0.38749700  1
  O  O24  1  0.86834200  0.85373100  0.10202900  1
  O  O25  1  0.88982900  0.01302500  0.60615000  1
  O  O26  1  0.67394900  0.09726300  0.04927000  1
  O  O27  1  0.83867700  0.27755400  0.21584500  1
  O  O28  1  0.80983800  0.42320300  0.92006200  1
  O  O29  1  0.77346500  0.74863600  0.54234200  1
  O  O30  1  0.99475000  0.22141500  0.08403300  1
  O  O31  1  0.92782400  0.46317500  0.65376800  1
loop_
_geom_bond_atom_site_label_1
_geom_bond_atom_site_label_2
_geom_bond_distance
_geom_bond_site_symmetry_2
O0 P2 1.340824 1_555
O0 V0 2.257884 1_555
O1 P0 1.619875 1_555
O1 V2 2.250118 1_566
O2 P1 1.485179 1_555
O2 V11 2.066730 1_455
O3 V1 1.654635 1_554
O3 V10 2.245262 1_455
O4 P0 1.320213 1_555
O4 V5 2.112046 1_555
O5 P0 1.420007 1_555
O5 V5 2.253636 1_555
O5 V7 2.355151 1_556
O5 V4 2.547079 1_565
O6 P1 1.333566 1_565
O7 P3 1.547377 1_555
O7 V9 1.973237 1_445
O8 V4 2.068086 1_555
O9 P2 1.277232 1_555
O9 V0 2.144673 1_555
O9 V5 2.193587 1_555
O10 P1 2.018916 1_555
O10 V6 2.051163 1_555
O10 V2 2.132579 1_555
O10 V3 2.249567 1_555
O11 P3 1.827121 1_555
O11 V1 2.121095 1_555
O12 V8 1.292588 1_555
O12 P5 1.887381 1_555
O12 V6 2.474459 1_555
O13 P4 1.453072 1_555
O14 V7 2.176338 1_555
O15 V5 1.944729 1_555
O15 V7 2.557967 1_556
O16 V6 1.944729 1_555
O16 V4 2.557967 1_554
O17 V4 2.176338 1_555
O18 P3 1.453072 1_555
O19 V3 1.292588 1_555
O19 P2 1.887381 1_555
O19 V5 2.474459 1_555
O20 P4 1.827121 1_555
O20 V10 2.121095 1_555
O21 P6 2.018916 1_555
O21 V5 2.051163 1_555
O21 V9 2.132579 1_555
O21 V8 2.249567 1_555
O22 P5 1.277232 1_555
O22 V11 2.144673 1_555
O22 V6 2.193587 1_555
O23 V7 2.068086 1_555
O24 P4 1.547377 1_555
O24 V2 1.973237 1_665
O25 P6 1.333566 1_545
O26 P7 1.420007 1_555
O26 V6 2.253636 1_555
O26 V4 2.355151 1_554
O26 V7 2.547079 1_545
O27 P7 1.320213 1_555
O27 V6 2.112046 1_555
O28 V10 1.654635 1_556
O28 V1 2.245264 1_655
O29 P6 1.485179 1_555
O29 V0 2.066730 1_655
O30 P7 1.619875 1_555
O30 V9 2.250118 1_544
O31 P5 1.340824 1_555
O31 V11 2.257884 1_555
