# generated using pymatgen
data_MgFe4(PO4)4
_symmetry_space_group_name_H-M   'P 1'
_cell_length_a   8.62073030
_cell_length_b   9.15979920
_cell_length_c   5.21534024
_cell_angle_alpha   87.53839837
_cell_angle_beta   108.18879723
_cell_angle_gamma   90.76690558
_symmetry_Int_Tables_number   1
_chemical_formula_structural   MgFe4(PO4)4
_chemical_formula_sum   'Mg1 Fe4 P4 O16'
_cell_volume   390.88630688
_cell_formula_units_Z   1
loop_
 _symmetry_equiv_pos_site_id
 _symmetry_equiv_pos_as_xyz
  1  'x, y, z'
loop_
 _atom_site_type_symbol
 _atom_site_label
 _atom_site_symmetry_multiplicity
 _atom_site_fract_x
 _atom_site_fract_y
 _atom_site_fract_z
 _atom_site_occupancy
  Mg  Mg0  1  0.60415600  0.65827700  0.84998500  1
  Fe  Fe0  1  0.20755300  0.47594700  0.46642100  1
  Fe  Fe1  1  0.29369100  0.98880900  0.04405300  1
  Fe  Fe2  1  0.69649000  0.03726800  0.84764800  1
  Fe  Fe3  1  0.84558200  0.51793400  0.62074800  1
  P  P0  1  0.22959500  0.65175000  0.91042100  1
  P  P1  1  0.29855700  0.14874300  0.60833000  1
  P  P2  1  0.65210800  0.84439200  0.35997700  1
  P  P3  1  0.82528500  0.35762700  0.14372200  1
  O  O0  1  0.08652100  0.56355400  0.70765300  1
  O  O1  1  0.16504700  0.12123000  0.74491500  1
  O  O2  1  0.17884300  0.81178500  0.89212700  1
  O  O3  1  0.24986400  0.09288900  0.32167800  1
  O  O4  1  0.36928700  0.62080200  0.78806000  1
  O  O5  1  0.27078800  0.58642400  0.19903300  1
  O  O6  1  0.34521800  0.31326800  0.60219100  1
  O  O7  1  0.44720300  0.06106200  0.81148300  1
  O  O8  1  0.46823700  0.87665400  0.29429700  1
  O  O9  1  0.68173100  0.69371100  0.52446500  1
  O  O10  1  0.75018600  0.48763800  0.93368600  1
  O  O11  1  0.75021400  0.36375400  0.37390300  1
  O  O12  1  0.75376600  0.96279100  0.53480600  1
  O  O13  1  0.80049500  0.21394800  0.00478700  1
  O  O14  1  0.69245900  0.82833900  0.08868700  1
  O  O15  1  0.01212400  0.39283400  0.25192400  1
loop_
_geom_bond_atom_site_label_1
_geom_bond_atom_site_label_2
_geom_bond_distance
_geom_bond_site_symmetry_2
Mg0 O10 1.967070 1_555
Mg0 O4 1.975955 1_555
Mg0 O9 2.022474 1_555
Mg0 O14 2.024606 1_556
Fe0 O15 1.879250 1_555
Fe0 O6 1.887410 1_555
Fe0 O5 1.898550 1_555
Fe0 O0 2.060115 1_555
Fe0 O4 2.280328 1_555
Fe1 O3 1.902053 1_565
Fe1 O8 1.929522 1_555
Fe1 O2 1.953195 1_554
Fe1 O1 1.982017 1_564
Fe1 O7 2.137819 1_564
Fe2 O13 1.926382 1_556
Fe2 O12 1.994694 1_545
Fe2 O7 2.111253 1_555
Fe2 O14 2.250061 1_546
Fe3 O11 1.947324 1_555
Fe3 O0 2.024741 1_655
Fe3 O10 2.051808 1_555
Fe3 O9 2.094836 1_555
O0 P0 1.588915 1_555
O1 P1 1.544113 1_555
O2 P0 1.525926 1_555
O3 P1 1.530070 1_555
O4 P0 1.562773 1_555
O5 P0 1.531154 1_554
O6 P1 1.556148 1_555
O7 P1 1.586357 1_555
O8 P2 1.543400 1_555
O9 P2 1.573872 1_555
O10 P3 1.582114 1_556
O11 P3 1.534565 1_555
O12 P2 1.528461 1_555
O13 P3 1.510120 1_555
O14 P2 1.571936 1_555
O15 P3 1.565582 1_455
