# generated using pymatgen
data_CuPNO5
_symmetry_space_group_name_H-M   'P 1'
_cell_length_a   7.62841300
_cell_length_b   7.93777900
_cell_length_c   8.65406244
_cell_angle_alpha   79.08044508
_cell_angle_beta   90.00000000
_cell_angle_gamma   90.00000000
_symmetry_Int_Tables_number   1
_chemical_formula_structural   CuPNO5
_chemical_formula_sum   'Cu4 P4 N4 O20'
_cell_volume   514.53850855
_cell_formula_units_Z   4
loop_
 _symmetry_equiv_pos_site_id
 _symmetry_equiv_pos_as_xyz
  1  'x, y, z'
loop_
 _atom_site_type_symbol
 _atom_site_label
 _atom_site_symmetry_multiplicity
 _atom_site_fract_x
 _atom_site_fract_y
 _atom_site_fract_z
 _atom_site_occupancy
  Cu  Cu0  1  0.72710700  0.58761900  0.01366800  1
  Cu  Cu1  1  0.22710700  0.91238100  0.98633200  1
  Cu  Cu2  1  0.27289300  0.41238100  0.98633200  1
  Cu  Cu3  1  0.77289300  0.08761900  0.01366800  1
  P  P0  1  0.53170200  0.82290700  0.19634600  1
  P  P1  1  0.03170200  0.67709300  0.80365400  1
  P  P2  1  0.46829800  0.17709300  0.80365400  1
  P  P3  1  0.96829800  0.32290700  0.19634600  1
  N  N0  1  0.30698700  0.62709800  0.43527700  1
  N  N1  1  0.80698700  0.87290200  0.56472300  1
  N  N2  1  0.69301300  0.37290200  0.56472300  1
  N  N3  1  0.19301300  0.12709800  0.43527700  1
  O  O0  1  0.86599100  0.56303600  0.84239200  1
  O  O1  1  0.36599100  0.93696400  0.15760800  1
  O  O2  1  0.13400900  0.43696400  0.15760800  1
  O  O3  1  0.63400900  0.06303600  0.84239200  1
  O  O4  1  0.51328700  0.71950600  0.37063200  1
  O  O5  1  0.01328700  0.78049400  0.62936800  1
  O  O6  1  0.48671300  0.28049400  0.62936800  1
  O  O7  1  0.98671300  0.21950600  0.37063200  1
  O  O8  1  0.53375100  0.69682900  0.07901100  1
  O  O9  1  0.03375100  0.80317100  0.92098900  1
  O  O10  1  0.46624900  0.30317100  0.92098900  1
  O  O11  1  0.96624900  0.19682900  0.07901100  1
  O  O12  1  0.70137900  0.92805900  0.19605300  1
  O  O13  1  0.20137900  0.57194100  0.80394700  1
  O  O14  1  0.29862100  0.07194100  0.80394700  1
  O  O15  1  0.79862100  0.42805900  0.19605300  1
  O  O16  1  0.69102900  0.82785500  0.64471100  1
  O  O17  1  0.19102900  0.67214500  0.35528900  1
  O  O18  1  0.30897100  0.17214500  0.35528900  1
  O  O19  1  0.80897100  0.32785500  0.64471100  1
loop_
_geom_bond_atom_site_label_1
_geom_bond_atom_site_label_2
_geom_bond_distance
_geom_bond_site_symmetry_2
Cu0 O8 1.852729 1_555
Cu0 O0 1.862025 1_554
Cu0 O15 1.906737 1_555
Cu1 O9 1.852729 1_555
Cu1 O1 1.862025 1_556
Cu1 O14 1.906737 1_565
Cu2 O10 1.852729 1_555
Cu2 O2 1.862025 1_556
Cu2 O13 1.906737 1_555
Cu3 O11 1.852729 1_555
Cu3 O3 1.862025 1_554
Cu3 O12 1.906737 1_545
N0 O17 1.138300 1_555
N0 O4 1.781070 1_555
N1 O16 1.138300 1_555
N1 O5 1.781070 1_655
N2 O19 1.138300 1_555
N2 O6 1.781070 1_555
N3 O18 1.138300 1_555
N3 O7 1.781070 1_455
O0 P1 1.554044 1_655
O1 P0 1.554044 1_555
O2 P3 1.554044 1_455
O3 P2 1.554044 1_555
O4 P0 1.580919 1_555
O5 P1 1.580919 1_555
O6 P2 1.580919 1_555
O7 P3 1.580919 1_555
O8 P0 1.554958 1_555
O9 P1 1.554958 1_555
O10 P2 1.554958 1_555
O11 P3 1.554958 1_555
O12 P0 1.539892 1_555
O13 P1 1.539892 1_555
O14 P2 1.539892 1_555
O15 P3 1.539892 1_555
