# generated using pymatgen
data_KH2OsBr4N
_symmetry_space_group_name_H-M   'P 1'
_cell_length_a   7.71860700
_cell_length_b   9.20168193
_cell_length_c   9.20168193
_cell_angle_alpha   120.52218060
_cell_angle_beta   90.00000000
_cell_angle_gamma   90.00000000
_symmetry_Int_Tables_number   1
_chemical_formula_structural   KH2OsBr4N
_chemical_formula_sum   'K2 H4 Os2 Br8 N2'
_cell_volume   562.98221286
_cell_formula_units_Z   2
loop_
 _symmetry_equiv_pos_site_id
 _symmetry_equiv_pos_as_xyz
  1  'x, y, z'
loop_
 _atom_site_type_symbol
 _atom_site_label
 _atom_site_symmetry_multiplicity
 _atom_site_fract_x
 _atom_site_fract_y
 _atom_site_fract_z
 _atom_site_occupancy
  K  K0  1  0.72811500  0.30941500  0.69058500  1
  K  K1  1  0.22811500  0.69058500  0.30941500  1
  H  H0  1  0.74145900  0.65763500  0.34236500  1
  H  H1  1  0.24145900  0.34236500  0.65763500  1
  H  H2  1  0.94690100  0.78200600  0.21799400  1
  H  H3  1  0.44690100  0.21799400  0.78200600  1
  Os  Os0  1  0.73367500  0.81982500  0.18017500  1
  Os  Os1  1  0.23367500  0.18017500  0.81982500  1
  Br  Br0  1  0.74568400  0.50709900  0.13353600  1
  Br  Br1  1  0.24568400  0.49290100  0.86646400  1
  Br  Br2  1  0.24568400  0.13353600  0.50709900  1
  Br  Br3  1  0.74568400  0.86646400  0.49290100  1
  Br  Br4  1  0.78968900  0.73738200  0.88548100  1
  Br  Br5  1  0.28968900  0.26261800  0.11451900  1
  Br  Br6  1  0.28968900  0.88548100  0.73738200  1
  Br  Br7  1  0.78968900  0.11451900  0.26261800  1
  N  N0  1  0.51710400  0.80198900  0.19801100  1
  N  N1  1  0.01710400  0.19801100  0.80198900  1
loop_
_geom_bond_atom_site_label_1
_geom_bond_atom_site_label_2
_geom_bond_distance
_geom_bond_site_symmetry_2
K0 N1 2.853875 1_655
K1 N0 2.853875 1_555
H2 Os0 1.753254 1_555
H2 K1 2.616400 1_655
H3 Os1 1.753254 1_555
H3 K0 2.616400 1_555
Br0 H0 1.705466 1_555
Br0 K0 3.522680 1_554
Br1 H1 1.705466 1_555
Br1 K1 3.522680 1_556
Br2 H1 1.705466 1_555
Br2 K1 3.522680 1_545
Br3 H0 1.705466 1_555
Br3 K0 3.522680 1_565
Br4 Os0 2.454817 1_556
Br4 K0 3.431693 1_555
Br5 Os1 2.454817 1_554
Br5 K1 3.431693 1_555
Br6 Os1 2.454817 1_565
Br6 K1 3.431693 1_555
Br7 Os0 2.454817 1_545
Br7 K0 3.431693 1_555
N0 Os0 1.695749 1_555
N1 Os1 1.695749 1_555
