# generated using pymatgen
data_CeMg14Sn
_symmetry_space_group_name_H-M   'P 1'
_cell_length_a   6.39902460
_cell_length_b   6.39902408
_cell_length_c   10.51181491
_cell_angle_alpha   90.00000000
_cell_angle_beta   90.00000000
_cell_angle_gamma   120.00000270
_symmetry_Int_Tables_number   1
_chemical_formula_structural   CeMg14Sn
_chemical_formula_sum   'Ce1 Mg14 Sn1'
_cell_volume   372.76561870
_cell_formula_units_Z   1
loop_
 _symmetry_equiv_pos_site_id
 _symmetry_equiv_pos_as_xyz
  1  'x, y, z'
loop_
 _atom_site_type_symbol
 _atom_site_label
 _atom_site_symmetry_multiplicity
 _atom_site_fract_x
 _atom_site_fract_y
 _atom_site_fract_z
 _atom_site_occupancy
  Ce  Ce0  1  0.16666700  0.33333300  0.62500000  1
  Mg  Mg0  1  0.16163629  0.83081765  0.12500000  1
  Mg  Mg1  1  0.17791189  0.83895545  0.62500000  1
  Mg  Mg2  1  0.66918235  0.33836371  0.12500000  1
  Mg  Mg3  1  0.66104455  0.32208811  0.62500000  1
  Mg  Mg4  1  0.66918235  0.83081765  0.12500000  1
  Mg  Mg5  1  0.66104455  0.83895545  0.62500000  1
  Mg  Mg6  1  0.33309232  0.16690768  0.36991555  1
  Mg  Mg7  1  0.33309232  0.16690768  0.88008445  1
  Mg  Mg8  1  0.33309232  0.66618565  0.36991555  1
  Mg  Mg9  1  0.33309232  0.66618565  0.88008445  1
  Mg  Mg10  1  0.83381435  0.16690768  0.36991555  1
  Mg  Mg11  1  0.83381435  0.16690768  0.88008445  1
  Mg  Mg12  1  0.83333300  0.66666700  0.38792042  1
  Mg  Mg13  1  0.83333300  0.66666700  0.86207958  1
  Sn  Sn0  1  0.16666700  0.33333300  0.12500000  1
loop_
_geom_bond_atom_site_label_1
_geom_bond_atom_site_label_2
_geom_bond_distance
_geom_bond_site_symmetry_2
Ce0 Mg1 3.200119 1_545
Ce0 Mg5 3.200119 1_555
Ce0 Mg5 3.200119 1_445
Ce0 Mg1 3.200119 1_555
Ce0 Mg3 3.200119 1_555
Ce0 Mg3 3.200119 1_455
Ce0 Mg6 3.254585 1_555
Ce0 Mg7 3.254585 1_555
Ce0 Mg8 3.254592 1_555
Ce0 Mg9 3.254592 1_555
Ce0 Mg11 3.254592 1_455
Ce0 Mg10 3.254592 1_455
Mg0 Mg2 3.151225 1_455
Mg0 Mg4 3.151225 1_455
Mg0 Mg9 3.177654 1_554
Mg0 Mg8 3.177654 1_555
Mg0 Mg6 3.177661 1_565
Mg0 Mg7 3.177661 1_564
Mg0 Sn0 3.199633 1_565
Mg0 Sn0 3.199634 1_555
Mg0 Mg2 3.247799 1_565
Mg0 Mg4 3.247800 1_555
Mg0 Mg12 3.308854 1_455
Mg0 Mg13 3.308854 1_454
Mg1 Mg3 3.091578 1_565
Mg1 Mg5 3.091578 1_555
Mg1 Mg13 3.139612 1_455
Mg1 Mg12 3.139612 1_455
Mg1 Mg8 3.239760 1_555
Mg1 Mg9 3.239760 1_555
Mg1 Mg6 3.239766 1_565
Mg1 Mg7 3.239766 1_565
Mg1 Mg3 3.307447 1_455
Mg1 Mg5 3.307447 1_455
Mg2 Mg4 3.151225 1_555
Mg2 Mg7 3.177661 1_554
Mg2 Mg6 3.177661 1_555
Mg2 Sn0 3.199634 1_555
Mg2 Sn0 3.199634 1_655
Mg2 Mg4 3.247799 1_545
Mg3 Mg5 3.091578 1_545
Mg3 Mg6 3.239767 1_555
Mg3 Mg7 3.239767 1_555
Mg3 Mg5 3.307447 1_555
Mg4 Mg9 3.177661 1_554
Mg4 Mg8 3.177661 1_555
Mg4 Sn0 3.199633 1_665
Mg4 Sn0 3.199633 1_555
Mg5 Mg8 3.239766 1_555
Mg5 Mg9 3.239766 1_555
Mg6 Sn0 3.167097 1_555
Mg6 Mg8 3.194892 1_555
Mg6 Mg8 3.204132 1_545
Mg7 Sn0 3.167097 1_556
Mg7 Mg9 3.194892 1_555
Mg7 Mg9 3.204132 1_545
Mg8 Sn0 3.167103 1_555
Mg9 Sn0 3.167103 1_556
Mg10 Sn0 3.167103 1_655
Mg10 Mg2 3.177654 1_555
Mg10 Mg4 3.177661 1_545
Mg10 Mg8 3.194892 1_655
Mg10 Mg6 3.194892 1_655
Mg10 Mg8 3.204132 1_545
Mg10 Mg6 3.204133 1_555
Mg10 Mg12 3.205106 1_555
Mg10 Mg12 3.205106 1_545
Mg10 Mg3 3.239760 1_555
Mg10 Mg5 3.239766 1_545
Mg11 Sn0 3.167103 1_656
Mg11 Mg2 3.177654 1_556
Mg11 Mg4 3.177661 1_546
Mg11 Mg9 3.194892 1_655
Mg11 Mg7 3.194892 1_655
Mg11 Mg9 3.204132 1_545
Mg11 Mg7 3.204133 1_555
Mg11 Mg13 3.205106 1_555
Mg11 Mg13 3.205106 1_545
Mg11 Mg3 3.239760 1_555
Mg11 Mg5 3.239766 1_545
Mg12 Mg5 3.139605 1_555
Mg12 Mg3 3.139611 1_555
Mg12 Mg6 3.205106 1_665
Mg12 Mg6 3.205106 1_555
Mg12 Mg8 3.205106 1_655
Mg12 Mg8 3.205106 1_555
Mg12 Mg4 3.308848 1_555
Mg12 Mg2 3.308854 1_555
Mg13 Mg5 3.139605 1_555
Mg13 Mg3 3.139611 1_555
Mg13 Mg7 3.205106 1_665
Mg13 Mg7 3.205106 1_555
Mg13 Mg9 3.205106 1_655
Mg13 Mg9 3.205106 1_555
Mg13 Mg4 3.308848 1_556
Mg13 Mg2 3.308854 1_556
