# generated using pymatgen
data_Na3NpO6
_symmetry_space_group_name_H-M   'P 1'
_cell_length_a   10.86600424
_cell_length_b   11.73099262
_cell_length_c   5.99846950
_cell_angle_alpha   66.76512946
_cell_angle_beta   82.55727772
_cell_angle_gamma   30.46636676
_symmetry_Int_Tables_number   1
_chemical_formula_structural   Na3NpO6
_chemical_formula_sum   'Na6 Np2 O12'
_cell_volume   317.81239705
_cell_formula_units_Z   2
loop_
 _symmetry_equiv_pos_site_id
 _symmetry_equiv_pos_as_xyz
  1  'x, y, z'
loop_
 _atom_site_type_symbol
 _atom_site_label
 _atom_site_symmetry_multiplicity
 _atom_site_fract_x
 _atom_site_fract_y
 _atom_site_fract_z
 _atom_site_occupancy
  Na  Na0  1  0.58633200  0.91133500  0.90760000  1
  Na  Na1  1  0.34076800  0.65776700  0.66416700  1
  Na  Na2  1  0.83533000  0.48078400  0.63111300  1
  Na  Na3  1  0.04916100  0.63633900  0.47493400  1
  Na  Na4  1  0.61698900  0.19716900  0.41779200  1
  Na  Na5  1  0.77296300  0.40974800  0.20234000  1
  Np  Np0  1  0.26169200  0.23911100  0.23276400  1
  Np  Np1  1  0.01442100  0.98568800  0.98845700  1
  O  O0  1  0.47645200  0.91451500  0.56005400  1
  O  O1  1  0.04330700  0.56726100  0.90933000  1
  O  O2  1  0.68670900  0.20389500  0.77398300  1
  O  O3  1  0.33881300  0.77127700  0.20660000  1
  O  O4  1  0.19180500  0.20405500  0.00646700  1
  O  O5  1  0.59202600  0.01678300  0.19692100  1
  O  O6  1  0.23834600  0.65450100  0.06250700  1
  O  O7  1  0.05215700  0.05380600  0.65796300  1
  O  O8  1  0.92261200  0.46830600  0.26196600  1
  O  O9  1  0.34045200  0.26676400  0.46679700  1
  O  O10  1  0.98416000  0.90862700  0.32795700  1
  O  O11  1  0.78292700  0.32620600  0.90574200  1
loop_
_geom_bond_atom_site_label_1
_geom_bond_atom_site_label_2
_geom_bond_distance
_geom_bond_site_symmetry_2
Na0 O8 2.332320 1_556
Na0 O9 2.332958 1_565
Na0 O4 2.468324 1_566
Na0 O0 2.505951 1_555
Na0 O1 2.525544 1_655
Na0 O5 2.529726 1_566
Na1 O10 2.329555 1_455
Na1 O11 2.335395 1_555
Na1 O7 2.489651 1_565
Na1 O6 2.502354 1_556
Na1 O2 2.507070 1_555
Na1 O3 2.527776 1_555
Na2 O8 2.301403 1_555
Na2 O4 2.329723 1_656
Na2 O11 2.346542 1_555
Na2 O0 2.406833 1_555
Na3 O9 2.299647 1_555
Na3 O5 2.330417 1_465
Na3 O10 2.351459 1_455
Na3 O1 2.414612 1_555
Na4 O10 2.295122 1_545
Na4 O6 2.334914 1_555
Na4 O9 2.348109 1_555
Na4 O2 2.408446 1_555
Na5 O11 2.297911 1_554
Na5 O7 2.327085 1_655
Na5 O8 2.348211 1_555
Na5 O3 2.409730 1_555
Np0 O1 1.940831 1_554
Np0 O0 1.941672 1_545
Np0 O4 1.958132 1_555
Np0 O5 1.958782 1_555
Np0 O9 1.989358 1_555
Np0 O8 1.990529 1_455
Np1 O2 1.939850 1_465
Np1 O3 1.943679 1_556
Np1 O6 1.958167 1_556
Np1 O7 1.959886 1_565
Np1 O10 1.989721 1_456
Np1 O11 1.992110 1_465
