# generated using pymatgen
data_Cd5(PO5)4
_symmetry_space_group_name_H-M   'P 1'
_cell_length_a   10.20250887
_cell_length_b   10.20250887
_cell_length_c   9.79300099
_cell_angle_alpha   85.44003753
_cell_angle_beta   85.44003753
_cell_angle_gamma   53.51750473
_symmetry_Int_Tables_number   1
_chemical_formula_structural   Cd5(PO5)4
_chemical_formula_sum   'Cd10 P8 O40'
_cell_volume   816.35358582
_cell_formula_units_Z   2
loop_
 _symmetry_equiv_pos_site_id
 _symmetry_equiv_pos_as_xyz
  1  'x, y, z'
loop_
 _atom_site_type_symbol
 _atom_site_label
 _atom_site_symmetry_multiplicity
 _atom_site_fract_x
 _atom_site_fract_y
 _atom_site_fract_z
 _atom_site_occupancy
  Cd  Cd0  1  0.12950800  0.87049200  0.25000000  1
  Cd  Cd1  1  0.87049200  0.12950800  0.75000000  1
  Cd  Cd2  1  0.73481500  0.59202300  0.18800700  1
  Cd  Cd3  1  0.40797700  0.26518500  0.31199300  1
  Cd  Cd4  1  0.26518500  0.40797700  0.81199300  1
  Cd  Cd5  1  0.59202400  0.73481500  0.68800700  1
  Cd  Cd6  1  0.81079400  0.84000600  0.36923800  1
  Cd  Cd7  1  0.15999400  0.18920600  0.13076200  1
  Cd  Cd8  1  0.18920600  0.15999400  0.63076200  1
  Cd  Cd9  1  0.84000600  0.81079400  0.86923800  1
  P  P0  1  0.89507200  0.26872700  0.40781500  1
  P  P1  1  0.73127300  0.10492800  0.09218500  1
  P  P2  1  0.10492800  0.73127300  0.59218500  1
  P  P3  1  0.26872700  0.89507200  0.90781500  1
  P  P4  1  0.09703300  0.57431200  0.12298600  1
  P  P5  1  0.42568800  0.90296700  0.37701400  1
  P  P6  1  0.90296700  0.42568800  0.87701400  1
  P  P7  1  0.57431200  0.09703300  0.62298600  1
  O  O0  1  0.87632800  0.43077900  0.37359700  1
  O  O1  1  0.56922100  0.12367200  0.12640300  1
  O  O2  1  0.12367200  0.56922100  0.62640300  1
  O  O3  1  0.43077900  0.87632800  0.87359700  1
  O  O4  1  0.72508900  0.30386300  0.40717800  1
  O  O5  1  0.69613700  0.27491100  0.09282200  1
  O  O6  1  0.27491100  0.69613700  0.59282200  1
  O  O7  1  0.30386300  0.72508900  0.90717800  1
  O  O8  1  0.00837900  0.14727300  0.29459300  1
  O  O9  1  0.85272700  0.99162100  0.20540700  1
  O  O10  1  0.99162100  0.85272700  0.70540700  1
  O  O11  1  0.14727300  0.00837900  0.79459300  1
  O  O12  1  0.96888400  0.19499900  0.55009500  1
  O  O13  1  0.80500100  0.03111600  0.94990500  1
  O  O14  1  0.03111600  0.80500100  0.44990500  1
  O  O15  1  0.19499900  0.96888400  0.05009500  1
  O  O16  1  0.08480600  0.60144600  0.96505200  1
  O  O17  1  0.39855400  0.91519400  0.53494800  1
  O  O18  1  0.91519400  0.39855400  0.03494800  1
  O  O19  1  0.60144600  0.08480600  0.46505200  1
  O  O20  1  0.18554600  0.63646400  0.18239600  1
  O  O21  1  0.36353600  0.81445400  0.31760400  1
  O  O22  1  0.81445400  0.36353600  0.81760400  1
  O  O23  1  0.63646400  0.18554600  0.68239600  1
  O  O24  1  0.19933000  0.38632700  0.15907000  1
  O  O25  1  0.61367300  0.80067000  0.34093000  1
  O  O26  1  0.80067000  0.61367300  0.84093000  1
  O  O27  1  0.38632700  0.19933000  0.65907000  1
  O  O28  1  0.92059000  0.66403100  0.18762300  1
  O  O29  1  0.33596900  0.07941000  0.31237700  1
  O  O30  1  0.07941000  0.33596900  0.81237700  1
  O  O31  1  0.66403100  0.92059000  0.68762300  1
  O  O32  1  0.51204900  0.58604900  0.18974100  1
  O  O33  1  0.41395100  0.48795100  0.31025900  1
  O  O34  1  0.48795100  0.41395100  0.81025900  1
  O  O35  1  0.58604900  0.51204900  0.68974100  1
  O  O36  1  0.80553100  0.65483600  0.52541800  1
  O  O37  1  0.34516400  0.19446900  0.97458200  1
  O  O38  1  0.19446900  0.34516400  0.47458200  1
  O  O39  1  0.65483600  0.80553100  0.02541800  1
loop_
_geom_bond_atom_site_label_1
_geom_bond_atom_site_label_2
_geom_bond_distance
_geom_bond_site_symmetry_2
Cd0 O20 2.243659 1_555
Cd0 O21 2.243659 1_555
Cd0 O14 2.358767 1_555
Cd0 O15 2.358767 1_555
Cd0 O9 2.377504 1_455
Cd0 O8 2.377504 1_565
Cd1 O23 2.243659 1_555
Cd1 O22 2.243659 1_555
Cd1 O13 2.358767 1_555
Cd1 O12 2.358767 1_555
Cd1 O10 2.377504 1_545
Cd1 O11 2.377504 1_655
Cd2 O0 2.282868 1_555
Cd2 O18 2.289503 1_555
Cd2 O32 2.308229 1_555
Cd2 O25 2.320710 1_555
Cd2 O39 2.342543 1_555
Cd2 O28 2.405504 1_555
Cd3 O1 2.282868 1_555
Cd3 O19 2.289503 1_555
Cd3 O33 2.308229 1_555
Cd3 O24 2.320710 1_555
Cd3 O38 2.342543 1_555
Cd3 O29 2.405504 1_555
Cd4 O2 2.282868 1_555
Cd4 O16 2.289503 1_555
Cd4 O34 2.308229 1_555
Cd4 O27 2.320710 1_555
Cd4 O37 2.342543 1_555
Cd4 O30 2.405504 1_555
Cd5 O3 2.282871 1_555
Cd5 O17 2.289507 1_555
Cd5 O35 2.308236 1_555
Cd5 O26 2.320703 1_555
Cd5 O36 2.342537 1_555
Cd5 O31 2.405496 1_555
Cd6 O14 2.255488 1_655
Cd6 O25 2.312721 1_555
Cd6 O19 2.321782 1_565
Cd6 O9 2.330897 1_555
Cd6 O28 2.332562 1_555
Cd6 O36 2.357831 1_555
Cd7 O15 2.255488 1_545
Cd7 O24 2.312721 1_555
Cd7 O18 2.321782 1_455
Cd7 O8 2.330897 1_555
Cd7 O29 2.332562 1_555
Cd7 O37 2.357831 1_554
Cd8 O12 2.255488 1_455
Cd8 O27 2.312721 1_555
Cd8 O17 2.321782 1_545
Cd8 O11 2.330897 1_555
Cd8 O30 2.332562 1_555
Cd8 O38 2.357831 1_555
Cd9 O13 2.255488 1_565
Cd9 O26 2.312721 1_555
Cd9 O16 2.321782 1_655
Cd9 O10 2.330897 1_555
Cd9 O31 2.332562 1_555
Cd9 O39 2.357831 1_556
O0 P0 1.558364 1_555
O1 P1 1.558364 1_555
O2 P2 1.558364 1_555
O3 P3 1.558364 1_555
O4 P0 1.548632 1_555
O5 P1 1.548632 1_555
O6 P2 1.548632 1_555
O7 P3 1.548632 1_555
O8 P0 1.553212 1_455
O9 P1 1.553212 1_565
O10 P2 1.553212 1_655
O11 P3 1.553212 1_545
O12 P0 1.549492 1_555
O13 P1 1.549492 1_556
O14 P2 1.549492 1_555
O15 P3 1.549492 1_554
O16 P4 1.551080 1_556
O17 P5 1.551080 1_555
O18 P6 1.551080 1_554
O19 P7 1.551080 1_555
O20 P4 1.542479 1_555
O21 P5 1.542479 1_555
O22 P6 1.542479 1_555
O23 P7 1.542479 1_555
O24 P4 1.569429 1_555
O25 P5 1.569429 1_555
O26 P6 1.569429 1_555
O27 P7 1.569429 1_555
O28 P4 1.559040 1_655
O29 P5 1.559040 1_545
O30 P6 1.559040 1_455
O31 P7 1.559040 1_565
