# generated using pymatgen
data_Si
_symmetry_space_group_name_H-M   'P 1'
_cell_length_a   10.37830198
_cell_length_b   10.37830198
_cell_length_c   10.37830198
_cell_angle_alpha   60.00000000
_cell_angle_beta   60.00000000
_cell_angle_gamma   60.00000000
_symmetry_Int_Tables_number   1
_chemical_formula_structural   Si
_chemical_formula_sum   Si34
_cell_volume   790.43090544
_cell_formula_units_Z   34
loop_
 _symmetry_equiv_pos_site_id
 _symmetry_equiv_pos_as_xyz
  1  'x, y, z'
loop_
 _atom_site_type_symbol
 _atom_site_label
 _atom_site_symmetry_multiplicity
 _atom_site_fract_x
 _atom_site_fract_y
 _atom_site_fract_z
 _atom_site_occupancy
  Si  Si0  1  0.50000000  0.50000000  0.50000000  1
  Si  Si1  1  0.75000000  0.75000000  0.75000000  1
  Si  Si2  1  0.38925729  0.38925729  0.38925729  1
  Si  Si3  1  0.41777186  0.86074271  0.86074271  1
  Si  Si4  1  0.86074271  0.41777186  0.86074271  1
  Si  Si5  1  0.86074271  0.86074271  0.41777186  1
  Si  Si6  1  0.38925729  0.83222814  0.38925729  1
  Si  Si7  1  0.38925729  0.38925729  0.83222814  1
  Si  Si8  1  0.83222814  0.38925729  0.38925729  1
  Si  Si9  1  0.86074271  0.86074271  0.86074271  1
  Si  Si10  1  0.36435640  0.75323992  0.75323992  1
  Si  Si11  1  0.12083523  0.49676008  0.88564360  1
  Si  Si12  1  0.49676008  0.12083523  0.49676008  1
  Si  Si13  1  0.49676008  0.49676008  0.12083523  1
  Si  Si14  1  0.12083523  0.88564360  0.49676008  1
  Si  Si15  1  0.49676008  0.88564360  0.12083523  1
  Si  Si16  1  0.49676008  0.12083523  0.88564360  1
  Si  Si17  1  0.75323992  0.36435640  0.75323992  1
  Si  Si18  1  0.75323992  0.75323992  0.36435640  1
  Si  Si19  1  0.36435640  0.12916477  0.75323992  1
  Si  Si20  1  0.36435640  0.75323992  0.12916477  1
  Si  Si21  1  0.75323992  0.12916477  0.75323992  1
  Si  Si22  1  0.12916477  0.36435640  0.75323992  1
  Si  Si23  1  0.12916477  0.75323992  0.36435640  1
  Si  Si24  1  0.75323992  0.75323992  0.12916477  1
  Si  Si25  1  0.88564360  0.12083523  0.49676008  1
  Si  Si26  1  0.88564360  0.49676008  0.12083523  1
  Si  Si27  1  0.12083523  0.49676008  0.49676008  1
  Si  Si28  1  0.88564360  0.49676008  0.49676008  1
  Si  Si29  1  0.49676008  0.88564360  0.49676008  1
  Si  Si30  1  0.49676008  0.49676008  0.88564360  1
  Si  Si31  1  0.75323992  0.36435640  0.12916477  1
  Si  Si32  1  0.75323992  0.12916477  0.36435640  1
  Si  Si33  1  0.12916477  0.75323992  0.75323992  1
loop_
_geom_bond_atom_site_label_1
_geom_bond_atom_site_label_2
_geom_bond_distance
_geom_bond_site_symmetry_2
Si0 Si2 2.815251 1_555
Si0 Si7 2.815251 1_555
Si0 Si8 2.815251 1_555
Si0 Si6 2.815251 1_555
Si1 Si9 2.815251 1_555
Si1 Si3 2.815251 1_555
Si1 Si5 2.815251 1_555
Si1 Si4 2.815251 1_555
Si2 Si27 2.297539 1_555
Si10 Si3 2.297532 1_555
Si10 Si29 2.331225 1_555
Si10 Si30 2.331225 1_555
Si10 Si33 2.440890 1_555
Si11 Si7 2.297541 1_555
Si11 Si22 2.331214 1_555
Si11 Si33 2.331232 1_555
Si11 Si26 2.440890 1_456
Si12 Si2 2.297539 1_555
Si12 Si19 2.331232 1_555
Si12 Si32 2.331232 1_555
Si12 Si29 2.440890 1_545
Si13 Si2 2.297539 1_555
Si13 Si20 2.331232 1_555
Si13 Si31 2.331232 1_555
Si13 Si30 2.440890 1_554
Si14 Si6 2.297541 1_555
Si14 Si23 2.331214 1_555
Si14 Si33 2.331232 1_555
Si14 Si25 2.440890 1_465
Si15 Si6 2.297541 1_555
Si15 Si20 2.331214 1_555
Si15 Si24 2.331232 1_555
Si15 Si16 2.440890 1_564
Si16 Si7 2.297541 1_555
Si16 Si19 2.331214 1_555
Si16 Si21 2.331232 1_555
Si17 Si4 2.297532 1_555
Si17 Si28 2.331225 1_555
Si17 Si30 2.331225 1_555
Si17 Si21 2.440890 1_555
Si18 Si5 2.297532 1_555
Si18 Si28 2.331225 1_555
Si18 Si29 2.331225 1_555
Si18 Si24 2.440890 1_555
Si19 Si3 2.297541 1_545
Si19 Si22 2.440890 1_555
Si20 Si3 2.297541 1_554
Si20 Si23 2.440890 1_555
Si21 Si9 2.297539 1_545
Si21 Si25 2.331232 1_555
Si22 Si4 2.297541 1_455
Si22 Si27 2.331232 1_555
Si23 Si5 2.297541 1_455
Si23 Si27 2.331232 1_555
Si24 Si9 2.297539 1_554
Si24 Si26 2.331232 1_555
Si25 Si8 2.297541 1_555
Si25 Si32 2.331214 1_555
Si26 Si8 2.297541 1_555
Si26 Si31 2.331214 1_555
Si27 Si28 2.440890 1_455
Si28 Si8 2.297532 1_555
Si29 Si6 2.297532 1_555
Si30 Si7 2.297532 1_555
Si31 Si4 2.297541 1_554
Si31 Si32 2.440890 1_555
Si32 Si5 2.297541 1_545
Si33 Si9 2.297539 1_455
