# generated using pymatgen
data_ErSe2
_symmetry_space_group_name_H-M   'P 1'
_cell_length_a   7.50623797
_cell_length_b   7.50623797
_cell_length_c   7.50623797
_cell_angle_alpha   149.33798483
_cell_angle_beta   137.60695705
_cell_angle_gamma   53.22116534
_symmetry_Int_Tables_number   1
_chemical_formula_structural   ErSe2
_chemical_formula_sum   'Er2 Se4'
_cell_volume   144.59139497
_cell_formula_units_Z   2
loop_
 _symmetry_equiv_pos_site_id
 _symmetry_equiv_pos_as_xyz
  1  'x, y, z'
loop_
 _atom_site_type_symbol
 _atom_site_label
 _atom_site_symmetry_multiplicity
 _atom_site_fract_x
 _atom_site_fract_y
 _atom_site_fract_z
 _atom_site_occupancy
  Er  Er0  1  0.85791759  0.85791759  0.00000000  1
  Er  Er1  1  0.14208241  0.14208241  -0.00000000  1
  Se  Se0  1  0.71272551  0.21272551  0.50000000  1
  Se  Se1  1  0.28727449  0.78727449  0.50000000  1
  Se  Se2  1  0.75804058  0.50000000  0.25804058  1
  Se  Se3  1  0.24195942  0.50000000  0.74195942  1
loop_
_geom_bond_atom_site_label_1
_geom_bond_atom_site_label_2
_geom_bond_distance
_geom_bond_site_symmetry_2
Er0 Se0 2.781458 1_554
Er0 Se0 2.781458 1_565
Er0 Se1 2.874881 1_655
Er0 Se1 2.874881 1_554
Er0 Se3 3.049671 1_665
Er0 Se2 3.049671 1_554
Er0 Se3 3.049671 1_654
Er0 Se2 3.049671 1_565
Er1 Se1 2.781458 1_544
Er1 Se1 2.781458 1_555
Er1 Se0 2.874881 1_555
Er1 Se0 2.874881 1_454
Er1 Se3 3.049671 1_555
Er1 Se3 3.049671 1_544
Er1 Se2 3.049671 1_444
Er1 Se2 3.049671 1_455
Se2 Se3 2.626726 1_655
Se2 Se3 2.801304 1_554
