# generated using pymatgen
data_CuTeO5
_symmetry_space_group_name_H-M   'P 1'
_cell_length_a   5.22446300
_cell_length_b   7.08848200
_cell_length_c   10.52244600
_cell_angle_alpha   90.00000000
_cell_angle_beta   90.00000000
_cell_angle_gamma   90.00000000
_symmetry_Int_Tables_number   1
_chemical_formula_structural   CuTeO5
_chemical_formula_sum   'Cu4 Te4 O20'
_cell_volume   389.68312953
_cell_formula_units_Z   4
loop_
 _symmetry_equiv_pos_site_id
 _symmetry_equiv_pos_as_xyz
  1  'x, y, z'
loop_
 _atom_site_type_symbol
 _atom_site_label
 _atom_site_symmetry_multiplicity
 _atom_site_fract_x
 _atom_site_fract_y
 _atom_site_fract_z
 _atom_site_occupancy
  Cu  Cu0  1  0.45229600  0.65535400  0.33728500  1
  Cu  Cu1  1  0.04770400  0.15535400  0.66271500  1
  Cu  Cu2  1  0.95229600  0.34464600  0.16271500  1
  Cu  Cu3  1  0.54770400  0.84464600  0.83728500  1
  Te  Te0  1  0.61190600  0.94448300  0.10810600  1
  Te  Te1  1  0.88809400  0.44448300  0.89189400  1
  Te  Te2  1  0.11190600  0.05551700  0.39189400  1
  Te  Te3  1  0.38809400  0.55551700  0.60810600  1
  O  O0  1  0.24334400  0.30000100  0.28239100  1
  O  O1  1  0.25665600  0.80000100  0.71760900  1
  O  O2  1  0.74334400  0.69999900  0.21760900  1
  O  O3  1  0.75665600  0.19999900  0.78239100  1
  O  O4  1  0.91115500  0.08613200  0.20806800  1
  O  O5  1  0.58884500  0.58613200  0.79193200  1
  O  O6  1  0.41115500  0.91386800  0.29193200  1
  O  O7  1  0.08884500  0.41386800  0.70806800  1
  O  O8  1  0.19016800  0.64212200  0.46130900  1
  O  O9  1  0.30983200  0.14212200  0.53869100  1
  O  O10  1  0.69016800  0.35787800  0.03869100  1
  O  O11  1  0.80983200  0.85787800  0.96130900  1
  O  O12  1  0.96434600  0.60483000  0.19584900  1
  O  O13  1  0.53565400  0.10483000  0.80415100  1
  O  O14  1  0.46434600  0.39517000  0.30415100  1
  O  O15  1  0.03565400  0.89517000  0.69584900  1
  O  O16  1  0.31548100  0.88322400  0.02209500  1
  O  O17  1  0.18451900  0.38322400  0.97790500  1
  O  O18  1  0.81548100  0.11677600  0.47790500  1
  O  O19  1  0.68451900  0.61677600  0.52209500  1
loop_
_geom_bond_atom_site_label_1
_geom_bond_atom_site_label_2
_geom_bond_distance
_geom_bond_site_symmetry_2
Cu0 O14 1.878030 1_555
Cu0 O8 1.894040 1_555
Cu0 O6 1.905753 1_555
Cu0 O2 1.999520 1_555
Cu0 O19 2.308335 1_555
Cu1 O15 1.878030 1_545
Cu1 O9 1.894040 1_555
Cu1 O7 1.905753 1_555
Cu1 O3 1.999520 1_455
Cu1 O18 2.308335 1_455
Cu2 O12 1.878030 1_555
Cu2 O10 1.894040 1_555
Cu2 O4 1.905753 1_555
Cu2 O0 1.999520 1_655
Cu2 O17 2.308335 1_654
Cu3 O13 1.878030 1_565
Cu3 O11 1.894040 1_555
Cu3 O5 1.905753 1_555
Cu3 O1 1.999520 1_555
Cu3 O16 2.308335 1_556
O0 O14 1.356708 1_555
O0 Te2 2.191475 1_555
O1 O15 1.356708 1_555
O1 Te3 2.191475 1_555
O2 Te0 2.191475 1_555
O3 Te1 2.191475 1_555
O4 Te0 2.135138 1_545
O4 Te2 2.211023 1_655
O5 Te1 2.135138 1_555
O5 Te3 2.211023 1_555
O6 Te2 2.135138 1_565
O6 Te0 2.211023 1_555
O7 Te3 2.135138 1_555
O7 Te1 2.211023 1_455
O8 Te3 1.957583 1_555
O9 Te2 1.957583 1_555
O10 Te1 1.957583 1_554
O11 Te0 1.957583 1_556
O12 O2 1.356708 1_555
O13 O3 1.356708 1_555
O16 Te0 1.845540 1_555
O17 Te1 1.845540 1_455
O18 Te2 1.845540 1_655
O19 Te3 1.845540 1_555
