# generated using pymatgen
data_Li3MnF6
_symmetry_space_group_name_H-M   'P 1'
_cell_length_a   5.48919800
_cell_length_b   5.48919807
_cell_length_c   5.48919768
_cell_angle_alpha   59.99999794
_cell_angle_beta   59.99999809
_cell_angle_gamma   60.00000045
_symmetry_Int_Tables_number   1
_chemical_formula_structural   Li3MnF6
_chemical_formula_sum   'Li3 Mn1 F6'
_cell_volume   116.95307920
_cell_formula_units_Z   1
loop_
 _symmetry_equiv_pos_site_id
 _symmetry_equiv_pos_as_xyz
  1  'x, y, z'
loop_
 _atom_site_type_symbol
 _atom_site_label
 _atom_site_symmetry_multiplicity
 _atom_site_fract_x
 _atom_site_fract_y
 _atom_site_fract_z
 _atom_site_occupancy
  Li  Li0  1  0.25000000  0.25000000  0.25000000  1
  Li  Li1  1  0.75000000  0.75000000  0.75000000  1
  Li  Li2  1  0.50000000  0.50000000  0.50000000  1
  Mn  Mn0  1  0.00000000  0.00000000  0.00000000  1
  F  F0  1  0.24818400  0.75181600  0.24818400  1
  F  F1  1  0.75181600  0.75181600  0.24818400  1
  F  F2  1  0.75181600  0.24818400  0.75181600  1
  F  F3  1  0.75181600  0.24818400  0.24818400  1
  F  F4  1  0.24818400  0.75181600  0.75181600  1
  F  F5  1  0.24818400  0.24818400  0.75181600  1
loop_
_geom_bond_atom_site_label_1
_geom_bond_atom_site_label_2
_geom_bond_distance
_geom_bond_site_symmetry_2
F0 Mn0 1.926627 1_565
F0 Li2 1.954822 1_555
F1 Mn0 1.926627 1_665
F1 Li2 1.954822 1_555
F2 Mn0 1.926627 1_656
F2 Li2 1.954822 1_555
F3 Mn0 1.926627 1_655
F3 Li2 1.954822 1_555
F4 Mn0 1.926627 1_566
F4 Li2 1.954822 1_555
F5 Mn0 1.926627 1_556
F5 Li2 1.954822 1_555
