# generated using pymatgen
data_CeRhC2
_symmetry_space_group_name_H-M   'P 1'
_cell_length_a   3.87871300
_cell_length_b   3.87871300
_cell_length_c   15.44647800
_cell_angle_alpha   90.00000000
_cell_angle_beta   90.00000000
_cell_angle_gamma   90.00000000
_symmetry_Int_Tables_number   1
_chemical_formula_structural   CeRhC2
_chemical_formula_sum   'Ce4 Rh4 C8'
_cell_volume   232.38321816
_cell_formula_units_Z   4
loop_
 _symmetry_equiv_pos_site_id
 _symmetry_equiv_pos_as_xyz
  1  'x, y, z'
loop_
 _atom_site_type_symbol
 _atom_site_label
 _atom_site_symmetry_multiplicity
 _atom_site_fract_x
 _atom_site_fract_y
 _atom_site_fract_z
 _atom_site_occupancy
  Ce  Ce0  1  0.14443900  0.85140300  0.62408800  1
  Ce  Ce1  1  0.85556100  0.14859700  0.12408800  1
  Ce  Ce2  1  0.85140300  0.85556100  0.37408800  1
  Ce  Ce3  1  0.14859700  0.14443900  0.87408800  1
  Rh  Rh0  1  0.35424900  0.65547500  0.21947400  1
  Rh  Rh1  1  0.64575100  0.34452500  0.71947400  1
  Rh  Rh2  1  0.65547500  0.64575100  0.96947400  1
  Rh  Rh3  1  0.34452500  0.35424900  0.46947400  1
  C  C0  1  0.33537300  0.35180700  0.33618700  1
  C  C1  1  0.66462700  0.64819300  0.83618700  1
  C  C2  1  0.35180700  0.66462700  0.08618700  1
  C  C3  1  0.64819300  0.33537300  0.58618700  1
  C  C4  1  0.35031500  0.14768300  0.26425100  1
  C  C5  1  0.64968500  0.85231700  0.76425100  1
  C  C6  1  0.14768300  0.64968500  0.01425100  1
  C  C7  1  0.85231700  0.35031500  0.51425100  1
loop_
_geom_bond_atom_site_label_1
_geom_bond_atom_site_label_2
_geom_bond_distance
_geom_bond_site_symmetry_2
Ce0 Rh1 3.093634 1_465
Ce0 Rh1 3.100008 1_565
Ce0 Rh1 3.126903 1_455
Ce0 Rh1 3.133209 1_555
Ce0 Rh3 3.166134 1_555
Ce0 Rh3 3.179628 1_565
Ce1 Rh0 3.093634 1_645
Ce1 Rh0 3.100008 1_545
Ce1 Rh0 3.126903 1_655
Ce1 Rh0 3.133209 1_555
Ce1 Rh2 3.166134 1_554
Ce1 Rh2 3.179628 1_544
Ce2 Rh3 3.093634 1_665
Ce2 Rh3 3.100008 1_655
Ce2 Rh3 3.126903 1_565
Ce2 Rh3 3.133209 1_555
Ce2 Rh0 3.166134 1_555
Ce2 Rh0 3.179628 1_655
Ce3 Rh2 3.093634 1_445
Ce3 Rh2 3.100008 1_455
Ce3 Rh2 3.126903 1_545
Ce3 Rh2 3.133209 1_555
Ce3 Rh1 3.166134 1_555
Ce3 Rh1 3.179628 1_455
C0 C4 1.365606 1_555
C0 Rh3 2.059143 1_555
C0 Rh0 2.154710 1_555
C0 Ce2 2.751615 1_445
C0 Ce2 2.772064 1_455
C0 Ce2 2.837905 1_545
C0 Ce2 2.857737 1_555
C1 C5 1.365606 1_555
C1 Rh2 2.059143 1_555
C1 Rh1 2.154710 1_555
C1 Ce3 2.751615 1_665
C1 Ce3 2.772064 1_655
C1 Ce3 2.837905 1_565
C1 Ce3 2.857737 1_555
C2 C6 1.365606 1_555
C2 Rh0 2.059143 1_555
C2 Rh2 2.154710 1_554
C2 Ce1 2.751615 1_465
C2 Ce1 2.772064 1_565
C2 Ce1 2.837905 1_455
C2 Ce1 2.857737 1_555
C3 C7 1.365606 1_555
C3 Rh1 2.059143 1_555
C3 Rh3 2.154710 1_555
C3 Ce0 2.751615 1_645
C3 Ce0 2.772064 1_545
C3 Ce0 2.837905 1_655
C3 Ce0 2.857737 1_555
C4 Rh0 2.030616 1_545
C4 Rh0 2.087547 1_555
C4 Ce2 2.811940 1_445
C4 Ce2 2.817755 1_545
C4 Ce1 2.893085 1_455
C4 Ce1 2.920237 1_555
C5 Rh1 2.030616 1_565
C5 Rh1 2.087547 1_555
C5 Ce3 2.811940 1_665
C5 Ce3 2.817755 1_565
C5 Ce0 2.893085 1_655
C5 Ce0 2.920237 1_555
C6 Rh2 2.030616 1_454
C6 Rh2 2.087547 1_554
C6 Ce1 2.811940 1_465
C6 Ce1 2.817755 1_455
C6 Ce3 2.893085 1_564
C6 Ce3 2.920237 1_554
C7 Rh3 2.030616 1_655
C7 Rh3 2.087547 1_555
C7 Ce0 2.811940 1_645
C7 Ce0 2.817755 1_655
C7 Ce2 2.893085 1_545
C7 Ce2 2.920237 1_555
