# generated using pymatgen
data_LiMn4O8
_symmetry_space_group_name_H-M   'P 1'
_cell_length_a   6.03702807
_cell_length_b   5.81447450
_cell_length_c   5.85039654
_cell_angle_alpha   60.08677180
_cell_angle_beta   59.06817176
_cell_angle_gamma   61.31453202
_symmetry_Int_Tables_number   1
_chemical_formula_structural   LiMn4O8
_chemical_formula_sum   'Li1 Mn4 O8'
_cell_volume   145.61514322
_cell_formula_units_Z   1
loop_
 _symmetry_equiv_pos_site_id
 _symmetry_equiv_pos_as_xyz
  1  'x, y, z'
loop_
 _atom_site_type_symbol
 _atom_site_label
 _atom_site_symmetry_multiplicity
 _atom_site_fract_x
 _atom_site_fract_y
 _atom_site_fract_z
 _atom_site_occupancy
  Li  Li0  1  0.13630000  0.11715300  0.12810900  1
  Mn  Mn0  1  0.50020200  0.50176900  0.50084500  1
  Mn  Mn1  1  0.99807700  0.50092200  0.49985800  1
  Mn  Mn2  1  0.50234300  0.50040000  0.99698300  1
  Mn  Mn3  1  0.50004800  0.99753900  0.50083200  1
  O  O0  1  0.29918200  0.72664700  0.74651100  1
  O  O1  1  0.72461100  0.74468300  0.72818700  1
  O  O2  1  0.72307600  0.30221700  0.72994600  1
  O  O3  1  0.70224700  0.75872000  0.28229600  1
  O  O4  1  0.27125000  0.25656000  0.26900300  1
  O  O5  1  0.70648600  0.27041300  0.25417600  1
  O  O6  1  0.28842500  0.24497800  0.72025200  1
  O  O7  1  0.27274900  0.70299900  0.26800000  1
loop_
_geom_bond_atom_site_label_1
_geom_bond_atom_site_label_2
_geom_bond_distance
_geom_bond_site_symmetry_2
Li0 O6 1.929529 1_554
Li0 O7 1.992576 1_545
Li0 O4 1.997734 1_555
Li0 O5 2.130573 1_455
Mn0 O3 1.896221 1_555
Mn0 O6 1.935337 1_555
Mn0 O2 1.938370 1_555
Mn0 O0 1.950899 1_555
Mn0 O7 1.975125 1_555
Mn0 O5 1.980770 1_555
Mn1 O1 1.973236 1_555
Mn1 O2 1.973802 1_555
Mn1 O4 1.984260 1_655
Mn1 O7 1.984597 1_655
Mn1 O6 2.203429 1_655
Mn1 O3 2.218233 1_555
Mn2 O1 1.929659 1_555
Mn2 O2 1.930152 1_555
Mn2 O0 1.938607 1_555
Mn2 O4 1.963454 1_556
Mn2 O7 1.964428 1_556
Mn2 O5 1.971941 1_556
Mn3 O3 1.895243 1_555
Mn3 O6 1.934293 1_565
Mn3 O1 1.938703 1_555
Mn3 O0 1.949648 1_555
Mn3 O4 1.976661 1_565
Mn3 O5 1.979596 1_565
