# generated using pymatgen
data_Mn12Pt4N
_symmetry_space_group_name_H-M   'P 1'
_cell_length_a   4.19785020
_cell_length_b   5.26374117
_cell_length_c   9.30672508
_cell_angle_alpha   90.01162172
_cell_angle_beta   89.84000596
_cell_angle_gamma   89.98422417
_symmetry_Int_Tables_number   1
_chemical_formula_structural   Mn12Pt4N
_chemical_formula_sum   'Mn12 Pt4 N1'
_cell_volume   205.64427777
_cell_formula_units_Z   1
loop_
 _symmetry_equiv_pos_site_id
 _symmetry_equiv_pos_as_xyz
  1  'x, y, z'
loop_
 _atom_site_type_symbol
 _atom_site_label
 _atom_site_symmetry_multiplicity
 _atom_site_fract_x
 _atom_site_fract_y
 _atom_site_fract_z
 _atom_site_occupancy
  Mn  Mn0  1  0.76469100  0.00003800  0.17057100  1
  Mn  Mn1  1  0.75248900  0.50056900  0.64539400  1
  Mn  Mn2  1  0.75206800  0.72722600  0.42757900  1
  Mn  Mn3  1  0.75972800  0.25777800  0.91396700  1
  Mn  Mn4  1  0.75211900  0.27223500  0.42692800  1
  Mn  Mn5  1  0.76020700  0.74197600  0.91378100  1
  Mn  Mn6  1  0.24751100  0.49943100  0.35460600  1
  Mn  Mn7  1  0.23530900  0.99996200  0.82942900  1
  Mn  Mn8  1  0.24027200  0.74222200  0.08603300  1
  Mn  Mn9  1  0.24793200  0.27277400  0.57242100  1
  Mn  Mn10  1  0.23979300  0.25802400  0.08621900  1
  Mn  Mn11  1  0.24788100  0.72776500  0.57307200  1
  Pt  Pt0  1  0.74624000  0.49998500  0.17743700  1
  Pt  Pt1  1  0.74761000  0.00005300  0.65845600  1
  Pt  Pt2  1  0.25239000  0.99994700  0.34154400  1
  Pt  Pt3  1  0.25376000  0.50001500  0.82256200  1
  N  N0  1  0.50000000  0.00000000  0.00000000  1
loop_
_geom_bond_atom_site_label_1
_geom_bond_atom_site_label_2
_geom_bond_distance
_geom_bond_site_symmetry_2
Mn0 N0 1.940229 1_555
Mn0 Pt2 2.596438 1_645
Mn0 Pt0 2.633467 1_555
Mn0 Pt0 2.634093 1_545
Mn0 Pt2 2.671652 1_545
Mn0 Mn4 2.783119 1_555
Mn0 Mn2 2.790495 1_545
Mn1 Mn2 2.352386 1_555
Mn1 Mn4 2.361670 1_555
Mn1 Mn11 2.490332 1_655
Mn1 Mn9 2.492974 1_655
Mn1 Mn11 2.525307 1_555
Mn1 Mn9 2.528679 1_555
Mn1 Pt1 2.632010 1_565
Mn1 Pt1 2.637497 1_555
Mn1 Pt3 2.661310 1_555
Mn1 Pt3 2.676942 1_655
Mn1 Mn5 2.802490 1_555
Mn1 Mn3 2.807767 1_555
Mn2 Mn4 2.394961 1_555
Mn2 Mn6 2.492974 1_655
Mn2 Mn6 2.528679 1_555
Mn2 Pt1 2.584215 1_565
Mn2 Pt0 2.617278 1_555
Mn2 Pt2 2.665667 1_655
Mn2 Pt2 2.666436 1_555
Mn2 Mn4 2.868794 1_565
Mn3 N0 1.915031 1_556
Mn3 Pt3 2.577297 1_655
Mn3 Pt3 2.621029 1_555
Mn3 Pt1 2.738082 1_555
Mn3 Pt0 2.763882 1_556
Mn4 Mn9 2.486212 1_655
Mn4 Mn6 2.490332 1_655
Mn4 Mn9 2.509395 1_555
Mn4 Mn6 2.525307 1_555
Mn4 Pt1 2.587863 1_555
Mn4 Pt0 2.613547 1_555
Mn4 Pt2 2.661673 1_645
Mn4 Pt2 2.663999 1_545
Mn5 N0 1.917157 1_566
Mn5 Pt3 2.573659 1_655
Mn5 Pt3 2.621790 1_555
Mn5 Pt1 2.738005 1_565
Mn5 Pt0 2.765404 1_556
Mn6 Mn9 2.352386 1_555
Mn6 Pt2 2.632010 1_545
Mn6 Pt2 2.637497 1_555
Mn6 Pt0 2.661316 1_555
Mn6 Pt0 2.676947 1_455
Mn6 Mn8 2.807767 1_555
Mn7 N0 1.940229 1_566
Mn7 Pt1 2.596438 1_465
Mn7 Pt3 2.633467 1_555
Mn7 Pt3 2.634093 1_565
Mn7 Pt1 2.671652 1_565
Mn7 Mn9 2.790495 1_565
Mn8 N0 1.915031 1_565
Mn8 Pt0 2.577294 1_455
Mn8 Pt0 2.621026 1_555
Mn8 Pt2 2.738082 1_555
Mn8 Pt3 2.763890 1_554
Mn9 Pt2 2.584215 1_545
Mn9 Pt3 2.617270 1_555
Mn9 Pt1 2.665667 1_455
Mn9 Pt1 2.666436 1_555
Mn10 N0 1.917157 1_555
Mn10 Pt0 2.573656 1_455
Mn10 Pt0 2.621787 1_555
Mn10 Pt2 2.738005 1_545
Mn10 Pt3 2.765412 1_554
Mn10 Mn6 2.802490 1_555
Mn11 Mn6 2.361670 1_555
Mn11 Mn9 2.394961 1_555
Mn11 Mn2 2.486212 1_455
Mn11 Mn2 2.509395 1_555
Mn11 Pt2 2.587863 1_555
Mn11 Pt3 2.613539 1_555
Mn11 Pt1 2.661673 1_465
Mn11 Pt1 2.663999 1_565
Mn11 Mn7 2.783119 1_555
Mn11 Mn9 2.868794 1_565
