# generated using pymatgen
data_CrBr2
_symmetry_space_group_name_H-M   'P 1'
_cell_length_a   6.74198700
_cell_length_b   6.74198700
_cell_length_c   3.74806100
_cell_angle_alpha   90.00000000
_cell_angle_beta   90.00000000
_cell_angle_gamma   90.00000000
_symmetry_Int_Tables_number   1
_chemical_formula_structural   CrBr2
_chemical_formula_sum   'Cr2 Br4'
_cell_volume   170.36582160
_cell_formula_units_Z   2
loop_
 _symmetry_equiv_pos_site_id
 _symmetry_equiv_pos_as_xyz
  1  'x, y, z'
loop_
 _atom_site_type_symbol
 _atom_site_label
 _atom_site_symmetry_multiplicity
 _atom_site_fract_x
 _atom_site_fract_y
 _atom_site_fract_z
 _atom_site_occupancy
  Cr  Cr0  1  0.00000000  0.00000000  0.00000000  1
  Cr  Cr1  1  0.50000000  0.50000000  0.50000000  1
  Br  Br0  1  0.31801900  0.31801900  0.00000000  1
  Br  Br1  1  0.68198100  0.68198100  0.00000000  1
  Br  Br2  1  0.18198100  0.81801900  0.50000000  1
  Br  Br3  1  0.81801900  0.18198100  0.50000000  1
loop_
_geom_bond_atom_site_label_1
_geom_bond_atom_site_label_2
_geom_bond_distance
_geom_bond_site_symmetry_2
Br0 Cr1 2.553943 1_555
Br0 Cr1 2.553943 1_554
Br0 Cr0 3.032187 1_555
Br1 Cr1 2.553943 1_555
Br1 Cr1 2.553943 1_554
Br1 Cr0 3.032187 1_665
Br2 Cr0 2.553943 1_565
Br2 Cr0 2.553943 1_566
Br2 Cr1 3.032187 1_555
Br3 Cr0 2.553943 1_656
Br3 Cr0 2.553943 1_655
Br3 Cr1 3.032187 1_555
