# generated using pymatgen
data_Ba6Sm2Ga4O15
_symmetry_space_group_name_H-M   'P 1'
_cell_length_a   6.09238600
_cell_length_b   8.11720906
_cell_length_c   18.78267479
_cell_angle_alpha   91.06882161
_cell_angle_beta   90.00000000
_cell_angle_gamma   90.00000000
_symmetry_Int_Tables_number   1
_chemical_formula_structural   Ba6Sm2Ga4O15
_chemical_formula_sum   'Ba12 Sm4 Ga8 O30'
_cell_volume   928.70121313
_cell_formula_units_Z   2
loop_
 _symmetry_equiv_pos_site_id
 _symmetry_equiv_pos_as_xyz
  1  'x, y, z'
loop_
 _atom_site_type_symbol
 _atom_site_label
 _atom_site_symmetry_multiplicity
 _atom_site_fract_x
 _atom_site_fract_y
 _atom_site_fract_z
 _atom_site_occupancy
  Ba  Ba0  1  0.75591200  0.49877000  0.42057800  1
  Ba  Ba1  1  0.24408800  0.50123000  0.57942200  1
  Ba  Ba2  1  0.75591200  0.50123000  0.07942200  1
  Ba  Ba3  1  0.24408800  0.49877000  0.92057800  1
  Ba  Ba4  1  0.74199100  0.96920900  0.40949400  1
  Ba  Ba5  1  0.25800900  0.03079100  0.59050600  1
  Ba  Ba6  1  0.74199100  0.03079100  0.09050600  1
  Ba  Ba7  1  0.25800900  0.96920900  0.90949400  1
  Ba  Ba8  1  0.72378100  0.00000000  0.75000000  1
  Ba  Ba9  1  0.27621900  0.00000000  0.25000000  1
  Ba  Ba10  1  0.66643000  0.50000000  0.75000000  1
  Ba  Ba11  1  0.33357000  0.50000000  0.25000000  1
  Sm  Sm0  1  0.74413700  0.75145700  0.59035000  1
  Sm  Sm1  1  0.25586300  0.24854300  0.40965000  1
  Sm  Sm2  1  0.74413700  0.24854300  0.90965000  1
  Sm  Sm3  1  0.25586300  0.75145700  0.09035000  1
  Ga  Ga0  1  0.75403500  0.75366100  0.94002600  1
  Ga  Ga1  1  0.24596500  0.24633900  0.05997400  1
  Ga  Ga2  1  0.75403500  0.24633900  0.55997400  1
  Ga  Ga3  1  0.24596500  0.75366100  0.44002600  1
  Ga  Ga4  1  0.77724000  0.77089500  0.23559200  1
  Ga  Ga5  1  0.22276000  0.22910500  0.76440800  1
  Ga  Ga6  1  0.77724000  0.22910500  0.26440800  1
  Ga  Ga7  1  0.22276000  0.77089500  0.73559200  1
  O  O0  1  0.21062300  0.00000000  0.75000000  1
  O  O1  1  0.78937700  0.00000000  0.25000000  1
  O  O2  1  0.49420800  0.76523100  0.49958900  1
  O  O3  1  0.50579200  0.23476800  0.50041100  1
  O  O4  1  0.49420800  0.23476800  0.00041100  1
  O  O5  1  0.50579200  0.76523100  0.99958900  1
  O  O6  1  0.75976800  0.95050700  0.88978000  1
  O  O7  1  0.24023200  0.04949300  0.11022000  1
  O  O8  1  0.75976800  0.04949300  0.61022000  1
  O  O9  1  0.24023200  0.95050700  0.38978000  1
  O  O10  1  0.99825800  0.76300300  0.50114100  1
  O  O11  1  0.00174200  0.23699700  0.49885900  1
  O  O12  1  0.99825800  0.23699700  0.99885900  1
  O  O13  1  0.00174200  0.76300300  0.00114100  1
  O  O14  1  0.32354400  0.69022200  0.81959800  1
  O  O15  1  0.67645600  0.30977800  0.18040200  1
  O  O16  1  0.32354400  0.30977800  0.68040200  1
  O  O17  1  0.67645600  0.69022200  0.31959800  1
  O  O18  1  0.44362400  0.74684600  0.66577300  1
  O  O19  1  0.55637600  0.25315400  0.33422700  1
  O  O20  1  0.44362400  0.25315400  0.83422700  1
  O  O21  1  0.55637600  0.74684600  0.16577300  1
  O  O22  1  0.95319800  0.72729600  0.69380600  1
  O  O23  1  0.04680200  0.27270400  0.30619400  1
  O  O24  1  0.95319800  0.27270400  0.80619400  1
  O  O25  1  0.04680200  0.72729600  0.19380600  1
  O  O26  1  0.75704900  0.53564800  0.90565600  1
  O  O27  1  0.24295100  0.46435200  0.09434400  1
  O  O28  1  0.75704900  0.46435200  0.59434400  1
  O  O29  1  0.24295100  0.53564800  0.40565600  1
loop_
_geom_bond_atom_site_label_1
_geom_bond_atom_site_label_2
_geom_bond_distance
_geom_bond_site_symmetry_2
Ba0 O17 2.521261 1_555
Ba0 O19 2.821816 1_555
Ba0 O10 2.991475 1_555
Ba0 O29 2.995955 1_655
Ba0 O11 3.006086 1_655
Ba0 O3 3.046742 1_555
Ba0 O2 3.050075 1_555
Ba0 O29 3.152443 1_555
Ba0 O28 3.280921 1_555
Ba0 O23 3.313120 1_655
Ba1 O16 2.521261 1_555
Ba1 O18 2.821816 1_555
Ba1 O11 2.991475 1_555
Ba1 O28 2.995955 1_455
Ba1 O10 3.006086 1_455
Ba1 O2 3.046736 1_555
Ba1 O3 3.050081 1_555
Ba1 O28 3.152443 1_555
Ba1 O29 3.280921 1_555
Ba1 O22 3.313120 1_455
Ba2 O15 2.521261 1_555
Ba2 O21 2.821816 1_555
Ba2 O12 2.991475 1_554
Ba2 O27 2.995955 1_655
Ba2 O13 3.006086 1_655
Ba2 O5 3.046736 1_554
Ba2 O4 3.050081 1_555
Ba2 O27 3.152443 1_555
Ba2 O26 3.280921 1_554
Ba2 O25 3.313120 1_655
Ba3 O14 2.521261 1_555
Ba3 O20 2.821816 1_555
Ba3 O13 2.991475 1_556
Ba3 O26 2.995955 1_455
Ba3 O12 3.006086 1_455
Ba3 O4 3.046742 1_556
Ba3 O5 3.050075 1_555
Ba3 O26 3.152443 1_555
Ba3 O27 3.280921 1_556
Ba3 O24 3.313120 1_455
Ba4 O2 2.826387 1_555
Ba4 O17 2.827745 1_555
Ba4 O10 2.882686 1_555
Ba4 O19 2.951481 1_565
Ba4 O1 3.024584 1_565
Ba4 O9 3.061401 1_655
Ba4 O3 3.081584 1_565
Ba4 O9 3.082654 1_555
Ba4 O11 3.148101 1_665
Ba5 O3 2.826382 1_555
Ba5 O16 2.827745 1_555
Ba5 O11 2.882686 1_555
Ba5 O18 2.951481 1_545
Ba5 O0 3.024584 1_555
Ba5 O8 3.061401 1_455
Ba5 O2 3.081589 1_545
Ba5 O8 3.082654 1_555
Ba5 O10 3.148101 1_445
Ba6 O4 2.826382 1_555
Ba6 O15 2.827745 1_555
Ba6 O12 2.882686 1_554
Ba6 O21 2.951481 1_545
Ba6 O1 3.024584 1_555
Ba6 O7 3.061401 1_655
Ba6 O5 3.081589 1_544
Ba6 O7 3.082654 1_555
Ba6 O13 3.148101 1_645
Ba7 O5 2.826387 1_555
Ba7 O14 2.827745 1_555
Ba7 O13 2.882686 1_556
Ba7 O20 2.951481 1_565
Ba7 O0 3.024584 1_565
Ba7 O6 3.061401 1_455
Ba7 O4 3.081584 1_566
Ba7 O6 3.082654 1_555
Ba7 O12 3.148101 1_465
Ba8 O8 2.672408 1_555
Ba8 O6 2.672408 1_545
Ba8 O24 2.807209 1_555
Ba8 O22 2.807209 1_545
Ba8 O0 2.966029 1_655
Ba8 O20 3.085020 1_555
Ba8 O18 3.085020 1_545
Ba8 O0 3.126357 1_555
Ba9 O7 2.672408 1_555
Ba9 O9 2.672408 1_545
Ba9 O23 2.807209 1_555
Ba9 O25 2.807209 1_545
Ba9 O1 2.966029 1_455
Ba9 O19 3.085020 1_555
Ba9 O21 3.085020 1_545
Ba9 O1 3.126357 1_555
Ba10 O24 2.764615 1_555
Ba10 O22 2.764615 1_555
Ba10 O14 2.895102 1_555
Ba10 O16 2.895102 1_555
Ba10 O20 2.911772 1_555
Ba10 O18 2.911772 1_555
Ba10 O26 2.984060 1_555
Ba10 O28 2.984060 1_555
Ba11 O23 2.764615 1_555
Ba11 O25 2.764615 1_555
Ba11 O17 2.895102 1_555
Ba11 O15 2.895102 1_555
Ba11 O19 2.911772 1_555
Ba11 O21 2.911772 1_555
Ba11 O29 2.984060 1_555
Ba11 O27 2.984060 1_555
Ga0 O6 1.871161 1_555
Ga0 O26 1.872472 1_555
Ga0 O5 1.882508 1_555
Ga0 O13 1.896747 1_656
Ga1 O7 1.871161 1_555
Ga1 O27 1.872472 1_555
Ga1 O4 1.882509 1_555
Ga1 O12 1.896747 1_454
Ga2 O8 1.871161 1_555
Ga2 O28 1.872472 1_555
Ga2 O3 1.882509 1_555
Ga2 O11 1.896747 1_655
Ga3 O9 1.871161 1_555
Ga3 O29 1.872472 1_555
Ga3 O2 1.882508 1_555
Ga3 O10 1.896747 1_455
Ga4 O17 1.825927 1_555
Ga4 O25 1.851472 1_655
Ga4 O1 1.875736 1_565
Ga4 O21 1.886506 1_555
Ga5 O16 1.825927 1_555
Ga5 O24 1.851472 1_455
Ga5 O0 1.875736 1_555
Ga5 O20 1.886506 1_555
Ga6 O15 1.825927 1_555
Ga6 O23 1.851472 1_655
Ga6 O1 1.875736 1_555
Ga6 O19 1.886506 1_555
Ga7 O14 1.825927 1_555
Ga7 O22 1.851472 1_455
Ga7 O0 1.875736 1_565
Ga7 O18 1.886506 1_555
O2 Sm0 2.290030 1_555
O3 Sm1 2.290030 1_555
O4 Sm2 2.290030 1_554
O5 Sm3 2.290030 1_556
O6 Sm2 2.442806 1_565
O7 Sm3 2.442806 1_545
O8 Sm0 2.442806 1_545
O9 Sm1 2.442806 1_565
O10 Sm0 2.284547 1_555
O11 Sm1 2.284547 1_555
O12 Sm2 2.284547 1_555
O13 Sm3 2.284547 1_555
O18 Sm0 2.315652 1_555
O19 Sm1 2.315652 1_555
O20 Sm2 2.315652 1_555
O21 Sm3 2.315652 1_555
O22 Sm0 2.334715 1_555
O23 Sm1 2.334715 1_555
O24 Sm2 2.334715 1_555
O25 Sm3 2.334715 1_555
O26 Sm2 2.334422 1_555
O27 Sm3 2.334422 1_555
O28 Sm0 2.334422 1_555
O29 Sm1 2.334422 1_555
