# generated using pymatgen
data_YMg6Ti
_symmetry_space_group_name_H-M   'P 1'
_cell_length_a   5.15644200
_cell_length_b   6.51070000
_cell_length_c   11.26301300
_cell_angle_alpha   90.00000000
_cell_angle_beta   90.00000000
_cell_angle_gamma   90.00000000
_symmetry_Int_Tables_number   1
_chemical_formula_structural   YMg6Ti
_chemical_formula_sum   'Y2 Mg12 Ti2'
_cell_volume   378.12240100
_cell_formula_units_Z   2
loop_
 _symmetry_equiv_pos_site_id
 _symmetry_equiv_pos_as_xyz
  1  'x, y, z'
loop_
 _atom_site_type_symbol
 _atom_site_label
 _atom_site_symmetry_multiplicity
 _atom_site_fract_x
 _atom_site_fract_y
 _atom_site_fract_z
 _atom_site_occupancy
  Y  Y0  1  0.50000000  0.00000000  0.83453200  1
  Y  Y1  1  0.50000000  0.50000000  0.33453200  1
  Mg  Mg0  1  0.50000000  0.24810200  0.58279200  1
  Mg  Mg1  1  0.50000000  0.75189800  0.58279200  1
  Mg  Mg2  1  0.00000000  0.23640000  0.41253400  1
  Mg  Mg3  1  0.00000000  0.76360000  0.41253400  1
  Mg  Mg4  1  0.00000000  0.00000000  0.66238500  1
  Mg  Mg5  1  0.00000000  0.00000000  0.17332400  1
  Mg  Mg6  1  0.50000000  0.74810200  0.08279200  1
  Mg  Mg7  1  0.50000000  0.25189800  0.08279200  1
  Mg  Mg8  1  0.00000000  0.73640000  0.91253400  1
  Mg  Mg9  1  0.00000000  0.26360000  0.91253400  1
  Mg  Mg10  1  0.00000000  0.50000000  0.16238500  1
  Mg  Mg11  1  0.00000000  0.50000000  0.67332400  1
  Ti  Ti0  1  0.50000000  0.00000000  0.33911200  1
  Ti  Ti1  1  0.50000000  0.50000000  0.83911200  1
loop_
_geom_bond_atom_site_label_1
_geom_bond_atom_site_label_2
_geom_bond_distance
_geom_bond_site_symmetry_2
Mg0 Mg4 3.171768 1_655
Mg0 Mg4 3.171768 1_555
Mg0 Ti0 3.184638 1_555
Mg0 Mg2 3.214076 1_655
Mg0 Mg2 3.214076 1_555
Mg0 Mg11 3.221280 1_655
Mg0 Mg11 3.221280 1_555
Mg0 Mg1 3.230635 1_545
Mg0 Y1 3.241634 1_555
Mg0 Y0 3.263199 1_555
Mg0 Mg1 3.280065 1_555
Mg0 Ti1 3.320256 1_555
Mg1 Mg4 3.171768 1_665
Mg1 Mg4 3.171768 1_565
Mg1 Ti0 3.184638 1_565
Mg1 Mg3 3.214076 1_655
Mg1 Mg3 3.214076 1_555
Mg1 Mg11 3.221280 1_655
Mg1 Mg11 3.221280 1_555
Mg1 Y1 3.241634 1_555
Mg1 Y0 3.263199 1_565
Mg1 Ti1 3.320256 1_555
Mg2 Mg3 3.078259 1_545
Mg2 Mg5 3.102865 1_555
Mg2 Ti0 3.114481 1_455
Mg2 Ti0 3.114481 1_555
Mg2 Mg4 3.207482 1_555
Mg2 Y1 3.219389 1_455
Mg2 Y1 3.219389 1_555
Mg2 Mg3 3.432441 1_555
Mg3 Mg5 3.102865 1_565
Mg3 Ti0 3.114481 1_465
Mg3 Ti0 3.114481 1_565
Mg3 Mg4 3.207482 1_565
Mg3 Y1 3.219389 1_555
Mg3 Y1 3.219389 1_455
Mg4 Y0 3.225916 1_455
Mg4 Y0 3.225916 1_555
Mg4 Mg9 3.298990 1_555
Mg4 Mg8 3.298990 1_545
Mg5 Ti0 3.183383 1_455
Mg5 Ti0 3.183383 1_555
Mg5 Mg7 3.221280 1_555
Mg5 Mg7 3.221280 1_455
Mg5 Mg6 3.221280 1_545
Mg5 Mg6 3.221280 1_445
Mg5 Mg8 3.401916 1_544
Mg5 Mg9 3.401916 1_554
Mg6 Ti1 3.184638 1_554
Mg6 Mg8 3.214076 1_654
Mg6 Mg8 3.214076 1_554
Mg6 Mg7 3.230635 1_555
Mg6 Y0 3.241634 1_564
Mg6 Y1 3.263199 1_555
Mg6 Mg7 3.280065 1_565
Mg6 Ti0 3.320256 1_565
Mg7 Ti1 3.184638 1_554
Mg7 Mg9 3.214076 1_554
Mg7 Mg9 3.214076 1_654
Mg7 Y0 3.241634 1_554
Mg7 Y1 3.263199 1_555
Mg7 Ti0 3.320256 1_555
Mg8 Mg9 3.078259 1_555
Mg8 Ti1 3.114481 1_555
Mg8 Ti1 3.114481 1_455
Mg8 Y0 3.219389 1_565
Mg8 Y0 3.219389 1_465
Mg8 Mg9 3.432441 1_565
Mg9 Ti1 3.114481 1_455
Mg9 Ti1 3.114481 1_555
Mg9 Y0 3.219389 1_455
Mg9 Y0 3.219389 1_555
Mg10 Mg6 3.171768 1_455
Mg10 Mg6 3.171768 1_555
Mg10 Mg7 3.171768 1_455
Mg10 Mg7 3.171768 1_555
Mg10 Mg9 3.207482 1_554
Mg10 Mg8 3.207482 1_554
Mg10 Y1 3.225916 1_455
Mg10 Y1 3.225916 1_555
Mg10 Mg5 3.257681 1_555
Mg10 Mg5 3.257681 1_565
Mg10 Mg3 3.298990 1_555
Mg10 Mg2 3.298990 1_555
Mg11 Mg9 3.102865 1_555
Mg11 Mg8 3.102865 1_555
Mg11 Ti1 3.183383 1_455
Mg11 Ti1 3.183383 1_555
Mg11 Mg4 3.257681 1_555
Mg11 Mg4 3.257681 1_565
Mg11 Mg2 3.401916 1_555
Mg11 Mg3 3.401916 1_555
Ti0 Y1 3.255759 1_545
Ti0 Y1 3.255759 1_555
Ti1 Y0 3.255759 1_555
Ti1 Y0 3.255759 1_565
