# generated using pymatgen
data_RbCoCuF6
_symmetry_space_group_name_H-M   'P 1'
_cell_length_a   7.30577303
_cell_length_b   7.30577303
_cell_length_c   7.30577303
_cell_angle_alpha   120.60457881
_cell_angle_beta   119.50977451
_cell_angle_gamma   89.90361505
_symmetry_Int_Tables_number   1
_chemical_formula_structural   RbCoCuF6
_chemical_formula_sum   'Rb2 Co2 Cu2 F12'
_cell_volume   275.45947372
_cell_formula_units_Z   2
loop_
 _symmetry_equiv_pos_site_id
 _symmetry_equiv_pos_as_xyz
  1  'x, y, z'
loop_
 _atom_site_type_symbol
 _atom_site_label
 _atom_site_symmetry_multiplicity
 _atom_site_fract_x
 _atom_site_fract_y
 _atom_site_fract_z
 _atom_site_occupancy
  Rb  Rb0  1  0.87278200  0.62278200  0.25000000  1
  Rb  Rb1  1  0.12721800  0.37721800  0.75000000  1
  Co  Co0  1  0.50000000  0.00000000  0.50000000  1
  Co  Co1  1  0.00000000  0.00000000  0.00000000  1
  Cu  Cu0  1  0.50000000  0.00000000  0.00000000  1
  Cu  Cu1  1  0.50000000  0.50000000  0.50000000  1
  F  F0  1  0.82106600  0.07106600  0.75000000  1
  F  F1  1  0.42692000  0.67692000  0.75000000  1
  F  F2  1  0.83042300  0.68118600  0.75669500  1
  F  F3  1  0.42449000  0.07372700  0.74330500  1
  F  F4  1  0.83042300  0.07372700  0.14923700  1
  F  F5  1  0.42449000  0.68118600  0.35076300  1
  F  F6  1  0.17893400  0.92893400  0.25000000  1
  F  F7  1  0.57308000  0.32308000  0.25000000  1
  F  F8  1  0.16957700  0.31881400  0.24330500  1
  F  F9  1  0.57551000  0.92627300  0.25669500  1
  F  F10  1  0.16957700  0.92627300  0.85076300  1
  F  F11  1  0.57551000  0.31881400  0.64923700  1
loop_
_geom_bond_atom_site_label_1
_geom_bond_atom_site_label_2
_geom_bond_distance
_geom_bond_site_symmetry_2
Co0 F11 1.934990 1_555
Co0 F5 1.934990 1_545
Co0 F3 1.934997 1_555
Co0 F9 1.934997 1_545
Co0 F6 1.981283 1_545
Co0 F0 1.981283 1_555
Co1 F8 1.934990 1_555
Co1 F2 1.934990 1_444
Co1 F4 1.934990 1_455
Co1 F10 1.934990 1_544
Co1 F0 1.981283 1_454
Co1 F6 1.981283 1_545
Cu0 F7 1.961169 1_555
Cu0 F1 1.961169 1_544
Cu0 F9 2.029718 1_545
Cu0 F3 2.029718 1_554
Cu0 F10 2.029725 1_544
Cu0 F4 2.029725 1_555
Cu1 F1 1.961169 1_555
Cu1 F7 1.961169 1_555
Cu1 F2 2.029725 1_555
Cu1 F8 2.029725 1_555
Cu1 F5 2.029725 1_555
Cu1 F11 2.029725 1_555
F0 Rb1 3.165798 1_655
F1 Rb1 3.099101 1_555
F2 Rb1 3.100528 1_655
F3 Rb1 3.100528 1_555
F4 Rb1 3.100528 1_655
F5 Rb1 3.100528 1_554
F6 Rb0 3.165798 1_455
F7 Rb0 3.099101 1_555
F8 Rb0 3.100528 1_455
F9 Rb0 3.100528 1_555
F10 Rb0 3.100528 1_455
F11 Rb0 3.100528 1_556
