# generated using pymatgen
data_CsCoO2
_symmetry_space_group_name_H-M   'P 1'
_cell_length_a   6.05463979
_cell_length_b   6.86464510
_cell_length_c   8.19905935
_cell_angle_alpha   89.99938430
_cell_angle_beta   90.00012022
_cell_angle_gamma   116.15169952
_symmetry_Int_Tables_number   1
_chemical_formula_structural   CsCoO2
_chemical_formula_sum   'Cs4 Co4 O8'
_cell_volume   305.89184970
_cell_formula_units_Z   4
loop_
 _symmetry_equiv_pos_site_id
 _symmetry_equiv_pos_as_xyz
  1  'x, y, z'
loop_
 _atom_site_type_symbol
 _atom_site_label
 _atom_site_symmetry_multiplicity
 _atom_site_fract_x
 _atom_site_fract_y
 _atom_site_fract_z
 _atom_site_occupancy
  Cs  Cs0  1  0.16402480  0.32797184  0.56712144  1
  Cs  Cs1  1  0.83597050  0.67201351  0.43294746  1
  Cs  Cs2  1  0.33597105  0.67201999  0.06705774  1
  Cs  Cs3  1  0.66402053  0.32796890  0.93287214  1
  Co  Co0  1  0.45566344  0.91114476  0.63921742  1
  Co  Co1  1  0.54433895  0.08884504  0.36075644  1
  Co  Co2  1  0.04434710  0.08886563  0.13925694  1
  Co  Co3  1  0.95565686  0.91113784  0.86078422  1
  O  O0  1  0.10156145  0.20321924  0.92452912  1
  O  O1  1  0.89843176  0.79678516  0.07547620  1
  O  O2  1  0.39843967  0.79679944  0.42452388  1
  O  O3  1  0.60156262  0.20321568  0.57546717  1
  O  O4  1  0.16459464  0.82930730  0.74994377  1
  O  O5  1  0.33541413  0.17069945  0.24994517  1
  O  O6  1  0.83542909  0.17070201  0.25005182  1
  O  O7  1  0.66457441  0.82930522  0.75005006  1
loop_
_geom_bond_atom_site_label_1
_geom_bond_atom_site_label_2
_geom_bond_distance
_geom_bond_site_symmetry_2
Cs0 O0 3.029547 1_555
Cs0 O2 3.116484 1_555
Cs0 O3 3.123445 1_555
Cs0 O3 3.124851 1_455
Cs0 O6 3.160495 1_455
Cs0 O5 3.161151 1_555
Cs1 O1 3.030081 1_555
Cs1 O3 3.116075 1_555
Cs1 O2 3.123551 1_555
Cs1 O2 3.124864 1_655
Cs1 O4 3.160094 1_655
Cs1 O7 3.160739 1_555
Cs2 O2 3.030069 1_555
Cs2 O0 3.116143 1_554
Cs2 O1 3.123508 1_455
Cs2 O1 3.124843 1_555
Cs2 O7 3.160094 1_554
Cs2 O4 3.160721 1_554
Cs3 O3 3.029543 1_555
Cs3 O1 3.116463 1_556
Cs3 O0 3.123435 1_655
Cs3 O0 3.124842 1_555
Cs3 O5 3.160537 1_556
Cs3 O6 3.161189 1_556
Co0 O7 1.835131 1_555
Co0 O4 1.836527 1_555
Co0 O3 1.874077 1_565
Co0 O2 1.896068 1_555
Co1 O5 1.835175 1_555
Co1 O6 1.836530 1_555
Co1 O2 1.873966 1_545
Co1 O3 1.896256 1_555
Co2 O6 1.835008 1_455
Co2 O5 1.836369 1_555
Co2 O1 1.874214 1_445
Co2 O0 1.896333 1_554
Co3 O4 1.835267 1_655
Co3 O7 1.836633 1_555
Co3 O0 1.874137 1_665
Co3 O1 1.896058 1_556
