# generated using pymatgen
data_Yb2Te3
_symmetry_space_group_name_H-M   'P 1'
_cell_length_a   14.47545365
_cell_length_b   13.80394939
_cell_length_c   7.68301678
_cell_angle_alpha   79.11936406
_cell_angle_beta   69.46651412
_cell_angle_gamma   31.41412181
_symmetry_Int_Tables_number   1
_chemical_formula_structural   Yb2Te3
_chemical_formula_sum   'Yb8 Te12'
_cell_volume   729.86105324
_cell_formula_units_Z   4
loop_
 _symmetry_equiv_pos_site_id
 _symmetry_equiv_pos_as_xyz
  1  'x, y, z'
loop_
 _atom_site_type_symbol
 _atom_site_label
 _atom_site_symmetry_multiplicity
 _atom_site_fract_x
 _atom_site_fract_y
 _atom_site_fract_z
 _atom_site_occupancy
  Yb  Yb0  1  0.33373800  0.33373800  0.16626200  1
  Yb  Yb1  1  0.16626200  0.16626200  0.33373800  1
  Yb  Yb2  1  0.91626200  0.91626200  0.08373800  1
  Yb  Yb3  1  0.08373800  0.08373800  0.91626200  1
  Yb  Yb4  1  0.99817000  0.99817000  0.50183000  1
  Yb  Yb5  1  0.50183000  0.50183000  0.99817000  1
  Yb  Yb6  1  0.25183000  0.25183000  0.74817000  1
  Yb  Yb7  1  0.74817000  0.74817000  0.25183000  1
  Te  Te0  1  0.99125200  0.50874800  0.50874800  1
  Te  Te1  1  0.50874800  0.99125200  0.99125200  1
  Te  Te2  1  0.25874800  0.74125200  0.74125200  1
  Te  Te3  1  0.74125200  0.25874800  0.25874800  1
  Te  Te4  1  0.66457300  0.16736200  0.83102800  1
  Te  Te5  1  0.83102800  0.33703700  0.66457300  1
  Te  Te6  1  0.33703700  0.83102800  0.16736200  1
  Te  Te7  1  0.16736200  0.66457300  0.33703700  1
  Te  Te8  1  0.58542700  0.08263800  0.41897200  1
  Te  Te9  1  0.41897200  0.91296300  0.58542700  1
  Te  Te10  1  0.91296300  0.41897200  0.08263800  1
  Te  Te11  1  0.08263800  0.58542700  0.91296300  1
loop_
_geom_bond_atom_site_label_1
_geom_bond_atom_site_label_2
_geom_bond_distance
_geom_bond_site_symmetry_2
Te0 Yb7 3.124216 1_555
Te0 Yb6 3.124216 1_655
Te0 Yb0 3.185014 1_655
Te0 Yb1 3.185014 1_655
Te1 Yb7 3.124216 1_556
Te1 Yb6 3.124216 1_565
Te1 Yb0 3.185014 1_566
Te1 Yb1 3.185014 1_566
Te2 Yb5 3.124216 1_555
Te2 Yb4 3.124216 1_455
Te2 Yb2 3.185014 1_456
Te2 Yb3 3.185014 1_565
Te3 Yb4 3.124216 1_545
Te3 Yb5 3.124216 1_554
Te3 Yb2 3.185014 1_545
Te3 Yb3 3.185014 1_654
Te4 Yb4 3.095593 1_545
Te4 Yb0 3.106475 1_556
Te4 Yb2 3.150362 1_546
Te4 Yb5 3.172813 1_555
Te5 Yb5 3.095593 1_555
Te5 Yb1 3.106475 1_655
Te5 Yb3 3.150362 1_655
Te5 Yb4 3.172813 1_545
Te6 Yb5 3.095593 1_554
Te6 Yb1 3.106475 1_565
Te6 Yb3 3.150362 1_564
Te6 Yb4 3.172813 1_455
Te7 Yb4 3.095593 1_455
Te7 Yb0 3.106475 1_555
Te7 Yb2 3.150362 1_455
Te7 Yb5 3.172813 1_554
Te8 Yb6 3.095593 1_555
Te8 Yb2 3.106475 1_545
Te8 Yb0 3.150362 1_555
Te8 Yb7 3.172813 1_545
Te9 Yb7 3.095593 1_555
Te9 Yb3 3.106475 1_565
Te9 Yb1 3.150362 1_565
Te9 Yb6 3.172813 1_565
Te10 Yb7 3.095593 1_555
Te10 Yb3 3.106475 1_654
Te10 Yb1 3.150362 1_655
Te10 Yb6 3.172813 1_654
Te11 Yb6 3.095593 1_555
Te11 Yb2 3.106475 1_456
Te11 Yb0 3.150362 1_556
Te11 Yb7 3.172813 1_456
