# generated using pymatgen
data_Fe5O7
_symmetry_space_group_name_H-M   'P 1'
_cell_length_a   5.27513453
_cell_length_b   5.27513453
_cell_length_c   19.08061000
_cell_angle_alpha   90.00000000
_cell_angle_beta   90.00000000
_cell_angle_gamma   146.99173391
_symmetry_Int_Tables_number   1
_chemical_formula_structural   Fe5O7
_chemical_formula_sum   'Fe10 O14'
_cell_volume   289.24413710
_cell_formula_units_Z   2
loop_
 _symmetry_equiv_pos_site_id
 _symmetry_equiv_pos_as_xyz
  1  'x, y, z'
loop_
 _atom_site_type_symbol
 _atom_site_label
 _atom_site_symmetry_multiplicity
 _atom_site_fract_x
 _atom_site_fract_y
 _atom_site_fract_z
 _atom_site_occupancy
  Fe  Fe0  1  0.73688900  0.26311100  0.57461300  1
  Fe  Fe1  1  0.00000000  0.00000000  0.50000000  1
  Fe  Fe2  1  0.00000000  0.00000000  0.00000000  1
  Fe  Fe3  1  0.26311100  0.73688900  0.42538700  1
  Fe  Fe4  1  0.26311100  0.73688900  0.07461300  1
  Fe  Fe5  1  0.73688900  0.26311100  0.92538700  1
  Fe  Fe6  1  0.52450600  0.47549400  0.16165800  1
  Fe  Fe7  1  0.47549400  0.52450600  0.83834200  1
  Fe  Fe8  1  0.47549400  0.52450600  0.66165800  1
  Fe  Fe9  1  0.52450600  0.47549400  0.33834200  1
  O  O0  1  0.35137600  0.64862400  0.97347800  1
  O  O1  1  0.64862400  0.35137600  0.02652200  1
  O  O2  1  0.64862400  0.35137600  0.47347800  1
  O  O3  1  0.35137600  0.64862400  0.52652200  1
  O  O4  1  0.85249600  0.14750400  0.84542700  1
  O  O5  1  0.14750400  0.85249600  0.15457300  1
  O  O6  1  0.14750400  0.85249600  0.34542700  1
  O  O7  1  0.85249600  0.14750400  0.65457300  1
  O  O8  1  0.10103000  0.89897000  0.90023000  1
  O  O9  1  0.89897000  0.10103000  0.09977000  1
  O  O10  1  0.89897000  0.10103000  0.40023000  1
  O  O11  1  0.10103000  0.89897000  0.59977000  1
  O  O12  1  0.54601100  0.45398900  0.75000000  1
  O  O13  1  0.45398900  0.54601100  0.25000000  1
loop_
_geom_bond_atom_site_label_1
_geom_bond_atom_site_label_2
_geom_bond_distance
_geom_bond_site_symmetry_2
Fe0 O7 1.922314 1_555
Fe0 O11 2.089222 1_545
Fe0 O11 2.089222 1_655
Fe0 O3 2.104509 1_655
Fe0 O3 2.104509 1_545
Fe0 O2 2.126263 1_555
Fe1 O10 2.160650 1_455
Fe1 O11 2.160650 1_545
Fe1 O3 2.182227 1_555
Fe1 O3 2.182227 1_445
Fe1 O2 2.182227 1_555
Fe1 O2 2.182227 1_445
Fe2 O8 2.160650 1_544
Fe2 O9 2.160650 1_455
Fe2 O1 2.182227 1_555
Fe2 O0 2.182227 1_554
Fe2 O0 2.182227 1_444
Fe2 O1 2.182227 1_445
Fe3 O6 1.922314 1_555
Fe3 O10 2.089222 1_455
Fe3 O10 2.089222 1_565
Fe3 O2 2.104509 1_565
Fe3 O2 2.104509 1_455
Fe3 O3 2.126263 1_555
Fe4 O5 1.922314 1_555
Fe4 O9 2.089222 1_455
Fe4 O9 2.089222 1_565
Fe4 O1 2.104509 1_565
Fe4 O1 2.104509 1_455
Fe4 O0 2.126263 1_554
Fe5 O4 1.922314 1_555
Fe5 O8 2.089222 1_545
Fe5 O8 2.089222 1_655
Fe5 O0 2.104509 1_655
Fe5 O0 2.104509 1_545
Fe5 O1 2.126263 1_556
Fe6 O13 1.830339 1_555
Fe6 O5 1.952449 1_545
Fe6 O5 1.952449 1_655
Fe6 O9 2.291890 1_455
Fe6 O9 2.291890 1_565
Fe7 O12 1.830339 1_555
Fe7 O4 1.952449 1_455
Fe7 O4 1.952449 1_565
Fe7 O8 2.291890 1_545
Fe7 O8 2.291890 1_655
Fe8 O12 1.830339 1_555
Fe8 O7 1.952449 1_455
Fe8 O7 1.952449 1_565
Fe8 O11 2.291890 1_545
Fe8 O11 2.291890 1_655
Fe9 O13 1.830339 1_555
Fe9 O6 1.952449 1_545
Fe9 O6 1.952449 1_655
Fe9 O10 2.291890 1_455
Fe9 O10 2.291890 1_565
