# generated using pymatgen
data_V2Zn3(Si2O7)2
_symmetry_space_group_name_H-M   'P 1'
_cell_length_a   9.11615935
_cell_length_b   9.11615935
_cell_length_c   9.86016030
_cell_angle_alpha   61.23978577
_cell_angle_beta   61.23978577
_cell_angle_gamma   50.40376669
_symmetry_Int_Tables_number   1
_chemical_formula_structural   V2Zn3(Si2O7)2
_chemical_formula_sum   'V4 Zn6 Si8 O28'
_cell_volume   534.73737677
_cell_formula_units_Z   2
loop_
 _symmetry_equiv_pos_site_id
 _symmetry_equiv_pos_as_xyz
  1  'x, y, z'
loop_
 _atom_site_type_symbol
 _atom_site_label
 _atom_site_symmetry_multiplicity
 _atom_site_fract_x
 _atom_site_fract_y
 _atom_site_fract_z
 _atom_site_occupancy
  V  V0  1  0.80065200  0.19934800  0.75000000  1
  V  V1  1  0.19934800  0.80065200  0.25000000  1
  V  V2  1  0.00000000  0.00000000  0.00000000  1
  V  V3  1  0.00000000  0.00000000  0.50000000  1
  Zn  Zn0  1  0.06427400  0.28124500  0.09536900  1
  Zn  Zn1  1  0.71875500  0.93572600  0.40463100  1
  Zn  Zn2  1  0.28124500  0.06427400  0.59536900  1
  Zn  Zn3  1  0.39465000  0.60535000  0.75000000  1
  Zn  Zn4  1  0.93572600  0.71875500  0.90463100  1
  Zn  Zn5  1  0.60535000  0.39465000  0.25000000  1
  Si  Si0  1  0.52701600  0.10769600  0.70938700  1
  Si  Si1  1  0.10769600  0.52701600  0.20938700  1
  Si  Si2  1  0.52371300  0.23383500  0.10070500  1
  Si  Si3  1  0.23383500  0.52371300  0.60070500  1
  Si  Si4  1  0.89230400  0.47298400  0.79061300  1
  Si  Si5  1  0.47628700  0.76616500  0.89929500  1
  Si  Si6  1  0.76616500  0.47628700  0.39929500  1
  Si  Si7  1  0.47298400  0.89230400  0.29061300  1
  O  O0  1  0.84228600  0.29277700  0.33405900  1
  O  O1  1  0.95499400  0.87983200  0.41791100  1
  O  O2  1  0.46072200  0.64425400  0.08704400  1
  O  O3  1  0.87983200  0.95499400  0.91791100  1
  O  O4  1  0.25723200  0.93661000  0.32452900  1
  O  O5  1  0.05286700  0.50669800  0.62605900  1
  O  O6  1  0.64425400  0.46072200  0.58704400  1
  O  O7  1  0.06339000  0.74276800  0.17547100  1
  O  O8  1  0.94713300  0.49330200  0.37394100  1
  O  O9  1  0.64119200  0.66815800  0.26713100  1
  O  O10  1  0.04500600  0.12016800  0.58208900  1
  O  O11  1  0.74276800  0.06339000  0.67547100  1
  O  O12  1  0.49330200  0.94713300  0.87394100  1
  O  O13  1  0.29277700  0.84228600  0.83405900  1
  O  O14  1  0.66815800  0.64119200  0.76713100  1
  O  O15  1  0.93661000  0.25723200  0.82452900  1
  O  O16  1  0.90098100  0.50742900  0.93434600  1
  O  O17  1  0.35880800  0.33184200  0.73286900  1
  O  O18  1  0.49257100  0.09901900  0.56565400  1
  O  O19  1  0.33184200  0.35880800  0.23286900  1
  O  O20  1  0.50669800  0.05286700  0.12605900  1
  O  O21  1  0.12016800  0.04500600  0.08208900  1
  O  O22  1  0.50742900  0.90098100  0.43434600  1
  O  O23  1  0.53927800  0.35574600  0.91295600  1
  O  O24  1  0.09901900  0.49257100  0.06565400  1
  O  O25  1  0.35574600  0.53927800  0.41295600  1
  O  O26  1  0.70722300  0.15771500  0.16594100  1
  O  O27  1  0.15771400  0.70722300  0.66594100  1
loop_
_geom_bond_atom_site_label_1
_geom_bond_atom_site_label_2
_geom_bond_distance
_geom_bond_site_symmetry_2
O0 Si6 1.679300 1_555
O0 Zn5 2.154016 1_555
O0 Zn0 2.242569 1_655
O0 V3 2.244457 1_655
O1 Zn1 1.929525 1_555
O1 V3 1.941464 1_665
O1 V1 1.943084 1_655
O2 Si5 1.628119 1_554
O2 Zn5 2.047842 1_555
O2 V1 2.116996 1_555
O3 Zn4 1.929525 1_555
O3 V2 1.941464 1_666
O3 V0 1.943084 1_565
O4 Si7 1.621038 1_555
O4 V3 2.038828 1_565
O4 V1 2.106642 1_555
O5 Si4 1.636385 1_455
O5 Si3 1.643225 1_555
O6 Si6 1.628119 1_555
O6 Zn3 2.047842 1_555
O6 V0 2.116996 1_555
O7 Si1 1.621038 1_555
O7 V2 2.038828 1_565
O7 V1 2.106642 1_555
O8 Si1 1.636385 1_655
O8 Si6 1.643225 1_555
O9 Si7 1.643076 1_555
O9 Si6 1.658497 1_555
O10 Zn2 1.929525 1_555
O10 V3 1.941464 1_555
O10 V0 1.943084 1_455
O11 Si0 1.621038 1_555
O11 V3 2.038828 1_655
O11 V0 2.106642 1_555
O12 Si0 1.636385 1_565
O12 Si5 1.643225 1_555
O13 Si5 1.679300 1_555
O13 Zn3 2.154016 1_555
O13 Zn2 2.242569 1_565
O13 V2 2.244457 1_566
O14 Si4 1.643076 1_555
O14 Si5 1.658497 1_555
O15 Si4 1.621038 1_555
O15 V2 2.038828 1_656
O15 V0 2.106642 1_555
O16 Si4 1.637430 1_555
O16 Zn4 2.010691 1_555
O16 Zn0 2.049311 1_656
O17 Si0 1.643076 1_555
O17 Si3 1.658497 1_555
O18 Si0 1.637430 1_555
O18 Zn2 2.010691 1_555
O18 Zn1 2.049311 1_545
O19 Si1 1.643076 1_555
O19 Si2 1.658497 1_555
O20 Si7 1.636385 1_545
O20 Si2 1.643225 1_555
O21 Zn0 1.929525 1_555
O21 V2 1.941464 1_555
O21 V1 1.943084 1_545
O22 Si7 1.637430 1_555
O22 Zn1 2.010691 1_555
O22 Zn2 2.049311 1_565
O23 Si2 1.628119 1_556
O23 Zn3 2.047842 1_555
O23 V0 2.116996 1_555
O24 Si1 1.637430 1_555
O24 Zn0 2.010691 1_555
O24 Zn4 2.049311 1_454
O25 Si3 1.628119 1_555
O25 Zn5 2.047842 1_555
O25 V1 2.116996 1_555
O26 Si2 1.679303 1_555
O26 Zn5 2.154008 1_555
O26 Zn1 2.242573 1_545
O26 V2 2.244459 1_655
O27 Si3 1.679300 1_555
O27 Zn3 2.154016 1_555
O27 Zn4 2.242569 1_455
O27 V3 2.244457 1_565
