# generated using pymatgen
data_Mg4Si7
_symmetry_space_group_name_H-M   'P 1'
_cell_length_a   4.26578300
_cell_length_b   7.12765659
_cell_length_c   13.65444234
_cell_angle_alpha   87.18664851
_cell_angle_beta   84.17472004
_cell_angle_gamma   83.12806499
_symmetry_Int_Tables_number   1
_chemical_formula_structural   Mg4Si7
_chemical_formula_sum   'Mg8 Si14'
_cell_volume   409.76594557
_cell_formula_units_Z   2
loop_
 _symmetry_equiv_pos_site_id
 _symmetry_equiv_pos_as_xyz
  1  'x, y, z'
loop_
 _atom_site_type_symbol
 _atom_site_label
 _atom_site_symmetry_multiplicity
 _atom_site_fract_x
 _atom_site_fract_y
 _atom_site_fract_z
 _atom_site_occupancy
  Mg  Mg0  1  0.82971200  0.13393600  0.08141200  1
  Mg  Mg1  1  0.66759700  0.36656500  0.48965900  1
  Mg  Mg2  1  0.14464500  0.19248400  0.64736000  1
  Mg  Mg3  1  0.19713900  0.57377200  0.34050300  1
  Mg  Mg4  1  0.72586500  0.55744200  0.15491100  1
  Mg  Mg5  1  0.09512000  0.48164800  0.80825500  1
  Mg  Mg6  1  0.11398600  0.65169200  0.57183500  1
  Mg  Mg7  1  0.20587400  0.06482700  0.42094600  1
  Si  Si0  1  0.29578000  0.41825600  0.04134700  1
  Si  Si1  1  0.44052100  0.84909800  0.01752800  1
  Si  Si2  1  0.00085900  0.70905800  0.96681600  1
  Si  Si3  1  0.36357700  0.15582300  0.93492200  1
  Si  Si4  1  0.64609000  0.75376700  0.43821200  1
  Si  Si5  1  0.68689300  0.98112700  0.56281300  1
  Si  Si6  1  0.87863100  0.16297700  0.84977100  1
  Si  Si7  1  0.30314400  0.90574600  0.19222900  1
  Si  Si8  1  0.72460500  0.26010000  0.30080500  1
  Si  Si9  1  0.00889700  0.86016800  0.79559500  1
  Si  Si10  1  0.60037500  0.46270900  0.67885800  1
  Si  Si11  1  0.25166800  0.25675000  0.20908300  1
  Si  Si12  1  0.76917900  0.91221100  0.28035300  1
  Si  Si13  1  0.55705200  0.79347500  0.71326500  1
loop_
_geom_bond_atom_site_label_1
_geom_bond_atom_site_label_2
_geom_bond_distance
_geom_bond_site_symmetry_2
Mg0 Si11 2.865137 1_655
Mg0 Si3 2.888138 1_654
Mg0 Si7 2.933646 1_645
Mg0 Si0 2.938250 1_555
Mg0 Si11 2.940444 1_555
Mg0 Si3 2.946464 1_554
Mg0 Si1 2.985534 1_545
Mg0 Si0 2.998898 1_655
Mg0 Si12 3.078492 1_545
Mg0 Si8 3.143112 1_555
Mg0 Si6 3.146839 1_554
Mg0 Si7 3.150117 1_545
Mg0 Si1 3.180938 1_645
Mg0 Mg4 3.194143 1_555
Mg1 Si10 2.683695 1_555
Mg1 Si8 2.702831 1_555
Mg1 Si4 2.807277 1_555
Mg1 Si5 2.871448 1_545
Mg1 Mg7 3.058948 1_655
Mg1 Mg7 3.312398 1_555
Mg2 Si5 2.783432 1_545
Mg2 Si10 2.844943 1_455
Mg2 Si6 2.886862 1_455
Mg2 Si5 2.957600 1_445
Mg2 Si10 2.970035 1_555
Mg2 Si9 3.108420 1_545
Mg2 Mg7 3.241791 1_555
Mg3 Si4 2.785902 1_455
Mg3 Si4 2.892800 1_555
Mg3 Si11 2.927055 1_555
Mg3 Si12 2.980341 1_455
Mg3 Si8 3.003782 1_555
Mg3 Si7 3.082581 1_555
Mg3 Mg4 3.213779 1_555
Mg3 Mg4 3.405305 1_455
Mg4 Si0 2.814022 1_555
Mg4 Si8 2.836591 1_555
Mg4 Si0 2.847411 1_655
Mg4 Si7 2.922491 1_555
Mg4 Si2 2.925676 1_654
Mg4 Si1 2.966016 1_555
Mg4 Si11 3.033519 1_655
Mg4 Si11 3.132170 1_555
Mg4 Si12 3.156480 1_555
Mg5 Si6 2.569561 1_455
Mg5 Si10 2.639336 1_555
Mg5 Si9 2.678398 1_555
Mg5 Si2 2.736477 1_555
Mg5 Si10 2.905612 1_455
Mg5 Si3 3.011240 1_555
Mg6 Si5 2.800260 1_455
Mg6 Si10 2.829894 1_555
Mg6 Si4 2.846667 1_455
Mg6 Si4 2.904254 1_555
Mg6 Si10 2.934841 1_455
Mg6 Si13 3.013398 1_455
Mg6 Si13 3.116462 1_555
Mg7 Si4 2.745880 1_545
Mg7 Si5 2.888182 1_445
Mg7 Si8 2.935780 1_455
Mg7 Si5 2.952825 1_545
Mg7 Si12 3.047264 1_545
Mg7 Si8 3.049721 1_555
Mg7 Si12 3.123243 1_445
Mg7 Si11 3.136709 1_555
Si0 Si3 2.397147 1_554
Si0 Si11 2.512325 1_555
Si0 Si2 2.518622 1_554
Si1 Si2 2.402656 1_554
Si1 Si3 2.412664 1_564
Si1 Si7 2.439458 1_555
Si1 Si2 2.519953 1_654
Si2 Si9 2.524384 1_555
Si3 Si6 2.384150 1_555
Si3 Si6 2.468002 1_455
Si4 Si5 2.439127 1_555
Si6 Si9 2.302309 1_645
Si10 Si13 2.408304 1_555
Si11 Si8 2.458175 1_455
Si11 Si8 2.483255 1_555
Si11 Si7 2.505027 1_545
Si12 Si4 2.422886 1_555
Si12 Si7 2.432102 1_555
Si12 Si7 2.462165 1_655
Si12 Si8 2.491404 1_565
Si13 Si9 2.432374 1_655
Si13 Si5 2.447982 1_555
Si13 Si9 2.492047 1_555
