# generated using pymatgen
data_TaNbAl6
_symmetry_space_group_name_H-M   'P 1'
_cell_length_a   3.83373877
_cell_length_b   3.83373877
_cell_length_c   8.53556644
_cell_angle_alpha   90.00000000
_cell_angle_beta   90.00000000
_cell_angle_gamma   90.00000000
_symmetry_Int_Tables_number   1
_chemical_formula_structural   TaNbAl6
_chemical_formula_sum   'Ta1 Nb1 Al6'
_cell_volume   125.45193977
_cell_formula_units_Z   1
loop_
 _symmetry_equiv_pos_site_id
 _symmetry_equiv_pos_as_xyz
  1  'x, y, z'
loop_
 _atom_site_type_symbol
 _atom_site_label
 _atom_site_symmetry_multiplicity
 _atom_site_fract_x
 _atom_site_fract_y
 _atom_site_fract_z
 _atom_site_occupancy
  Ta  Ta0  1  0.50000000  0.50000000  0.50000000  1
  Nb  Nb0  1  0.00000000  -0.00000000  0.00000000  1
  Al  Al0  1  0.50000000  0.50000000  0.00000000  1
  Al  Al1  1  0.00000000  -0.00000000  0.50000000  1
  Al  Al2  1  0.00000000  0.50000000  0.25109726  1
  Al  Al3  1  0.50000000  -0.00000000  0.74890274  1
  Al  Al4  1  0.50000000  0.00000000  0.25109726  1
  Al  Al5  1  -0.00000000  0.50000000  0.74890274  1
loop_
_geom_bond_atom_site_label_1
_geom_bond_atom_site_label_2
_geom_bond_distance
_geom_bond_site_symmetry_2
Al0 Nb0 2.710863 1_555
Al0 Nb0 2.710863 1_655
Al0 Nb0 2.710863 1_565
Al0 Nb0 2.710863 1_665
Al0 Al2 2.875403 1_655
Al0 Al3 2.875403 1_564
Al0 Al4 2.875403 1_565
Al0 Al4 2.875403 1_555
Al0 Al3 2.875403 1_554
Al0 Al2 2.875403 1_555
Al0 Al5 2.875403 1_654
Al0 Al5 2.875403 1_554
Al1 Ta0 2.710863 1_455
Al1 Ta0 2.710863 1_445
Al1 Ta0 2.710863 1_545
Al1 Ta0 2.710863 1_555
Al1 Al4 2.861468 1_555
Al1 Al5 2.861468 1_555
Al1 Al2 2.861468 1_555
Al1 Al4 2.861468 1_455
Al1 Al2 2.861468 1_545
Al1 Al3 2.861468 1_455
Al1 Al5 2.861468 1_545
Al1 Al3 2.861468 1_555
Al2 Al4 2.710863 1_455
Al2 Al4 2.710863 1_565
Al2 Al4 2.710863 1_555
Al2 Al4 2.710863 1_465
Al2 Ta0 2.861468 1_555
Al2 Ta0 2.861468 1_455
Al2 Nb0 2.875403 1_555
Al2 Nb0 2.875403 1_565
Al3 Al5 2.710863 1_645
Al3 Al5 2.710863 1_655
Al3 Al5 2.710863 1_555
Al3 Al5 2.710863 1_545
Al3 Ta0 2.861468 1_545
Al3 Ta0 2.861468 1_555
Al3 Nb0 2.875403 1_656
Al3 Nb0 2.875403 1_556
Al4 Ta0 2.861468 1_545
Al4 Ta0 2.861468 1_555
Al4 Nb0 2.875403 1_555
Al4 Nb0 2.875403 1_655
Al5 Ta0 2.861468 1_555
Al5 Ta0 2.861468 1_455
Al5 Nb0 2.875403 1_566
Al5 Nb0 2.875403 1_556
