# generated using pymatgen
data_Ce2Mg
_symmetry_space_group_name_H-M   'P 1'
_cell_length_a   10.89977594
_cell_length_b   10.89977594
_cell_length_c   19.22350720
_cell_angle_alpha   69.23465383
_cell_angle_beta   69.23465383
_cell_angle_gamma   34.04929057
_symmetry_Int_Tables_number   1
_chemical_formula_structural   Ce2Mg
_chemical_formula_sum   'Ce32 Mg16'
_cell_volume   1187.58882017
_cell_formula_units_Z   16
loop_
 _symmetry_equiv_pos_site_id
 _symmetry_equiv_pos_as_xyz
  1  'x, y, z'
loop_
 _atom_site_type_symbol
 _atom_site_label
 _atom_site_symmetry_multiplicity
 _atom_site_fract_x
 _atom_site_fract_y
 _atom_site_fract_z
 _atom_site_occupancy
  Ce  Ce0_0  1  0.15590531  0.15590531  0.05558952  1
  Ce  Ce0_1  1  0.15590531  0.15590531  0.55558952  1
  Ce  Ce0_2  1  0.15590531  0.65590531  0.05558952  1
  Ce  Ce0_3  1  0.15590531  0.65590531  0.55558952  1
  Ce  Ce0_4  1  0.65590531  0.15590531  0.05558952  1
  Ce  Ce0_5  1  0.65590531  0.15590531  0.55558952  1
  Ce  Ce0_6  1  0.65590531  0.65590531  0.05558952  1
  Ce  Ce0_7  1  0.65590531  0.65590531  0.55558952  1
  Ce  Ce1_0  1  0.00863579  0.00863579  0.10808451  1
  Ce  Ce1_1  1  0.00863579  0.00863579  0.60808451  1
  Ce  Ce1_2  1  0.00863579  0.50863579  0.10808452  1
  Ce  Ce1_3  1  0.00863579  0.50863579  0.60808451  1
  Ce  Ce1_4  1  0.50863579  0.00863579  0.10808452  1
  Ce  Ce1_5  1  0.50863579  0.00863579  0.60808451  1
  Ce  Ce1_6  1  0.50863579  0.50863579  0.10808451  1
  Ce  Ce1_7  1  0.50863579  0.50863579  0.60808451  1
  Ce  Ce2_0  1  0.49136421  0.49136421  0.39191548  1
  Ce  Ce2_1  1  0.49136421  0.49136421  0.89191548  1
  Ce  Ce2_2  1  0.49136421  0.99136421  0.39191549  1
  Ce  Ce2_3  1  0.49136421  0.99136421  0.89191548  1
  Ce  Ce2_4  1  0.99136421  0.49136421  0.39191549  1
  Ce  Ce2_5  1  0.99136421  0.49136421  0.89191548  1
  Ce  Ce2_6  1  0.99136421  0.99136421  0.39191548  1
  Ce  Ce2_7  1  0.99136421  0.99136421  0.89191548  1
  Ce  Ce3_0  1  0.34409469  0.34409469  0.44441047  1
  Ce  Ce3_1  1  0.34409469  0.34409469  0.94441047  1
  Ce  Ce3_2  1  0.34409469  0.84409469  0.44441048  1
  Ce  Ce3_3  1  0.34409469  0.84409469  0.94441047  1
  Ce  Ce3_4  1  0.84409469  0.34409469  0.44441048  1
  Ce  Ce3_5  1  0.84409469  0.34409469  0.94441047  1
  Ce  Ce3_6  1  0.84409469  0.84409469  0.44441047  1
  Ce  Ce3_7  1  0.84409469  0.84409469  0.94441047  1
  Mg  Mg0_0  1  0.32841592  0.32841592  0.22089746  1
  Mg  Mg0_1  1  0.32841592  0.32841592  0.72089746  1
  Mg  Mg0_2  1  0.32841592  0.82841592  0.22089746  1
  Mg  Mg0_3  1  0.32841592  0.82841592  0.72089746  1
  Mg  Mg0_4  1  0.82841592  0.32841592  0.22089746  1
  Mg  Mg0_5  1  0.82841592  0.32841592  0.72089746  1
  Mg  Mg0_6  1  0.82841592  0.82841592  0.22089746  1
  Mg  Mg0_7  1  0.82841592  0.82841592  0.72089746  1
  Mg  Mg1_0  1  0.17158409  0.17158409  0.27910254  1
  Mg  Mg1_1  1  0.17158409  0.17158409  0.77910254  1
  Mg  Mg1_2  1  0.17158409  0.67158408  0.27910254  1
  Mg  Mg1_3  1  0.17158409  0.67158408  0.77910254  1
  Mg  Mg1_4  1  0.67158408  0.17158409  0.27910254  1
  Mg  Mg1_5  1  0.67158408  0.17158409  0.77910254  1
  Mg  Mg1_6  1  0.67158409  0.67158409  0.27910254  1
  Mg  Mg1_7  1  0.67158409  0.67158409  0.77910254  1
loop_
_geom_bond_atom_site_label_1
_geom_bond_atom_site_label_2
_geom_bond_distance
_geom_bond_site_symmetry_2
Ce0_0 Ce1_0 2.853827 1_555
Ce0_0 Ce1_4 3.122858 1_555
Ce0_0 Ce1_2 3.122858 1_555
Ce0_0 Ce0_6 3.191269 1_455
Ce0_0 Ce0_6 3.191269 1_545
Ce0_0 Ce3_3 3.288753 1_544
Ce0_0 Ce3_5 3.288753 1_454
Ce0_0 Mg0_2 3.383336 1_545
Ce0_0 Mg0_4 3.383336 1_455
Ce0_0 Ce2_5 3.385642 1_454
Ce0_0 Ce2_3 3.385642 1_544
Ce0_0 Ce3_1 3.706478 1_554
Ce0_1 Ce1_1 2.853827 1_555
Ce0_1 Ce1_5 3.122858 1_555
Ce0_1 Ce1_3 3.122858 1_555
Ce0_1 Ce0_7 3.191269 1_455
Ce0_1 Ce0_7 3.191269 1_545
Ce0_1 Ce3_2 3.288753 1_545
Ce0_1 Ce3_4 3.288753 1_455
Ce0_1 Mg0_5 3.383336 1_455
Ce0_1 Mg0_3 3.383336 1_545
Ce0_1 Ce2_4 3.385642 1_455
Ce0_1 Ce2_2 3.385642 1_545
Ce0_1 Ce3_0 3.706478 1_555
Ce0_2 Ce1_2 2.853827 1_555
Ce0_2 Ce1_6 3.122858 1_555
Ce0_2 Ce1_0 3.122858 1_565
Ce0_2 Ce0_4 3.191269 1_555
Ce0_2 Ce0_4 3.191269 1_465
Ce0_2 Ce3_1 3.288753 1_554
Ce0_2 Ce3_7 3.288753 1_454
Ce0_2 Mg0_0 3.383336 1_555
Ce0_2 Mg0_6 3.383336 1_455
Ce0_2 Ce2_1 3.385642 1_554
Ce0_2 Ce2_7 3.385642 1_454
Ce0_2 Ce3_3 3.706478 1_554
Ce0_3 Ce1_3 2.853827 1_555
Ce0_3 Ce1_1 3.122858 1_565
Ce0_3 Ce1_7 3.122858 1_555
Ce0_3 Ce0_5 3.191269 1_555
Ce0_3 Ce0_5 3.191269 1_465
Ce0_3 Ce3_0 3.288753 1_555
Ce0_3 Ce3_6 3.288753 1_455
Ce0_3 Mg0_7 3.383336 1_455
Ce0_3 Mg0_1 3.383336 1_555
Ce0_3 Ce2_0 3.385642 1_555
Ce0_3 Ce2_6 3.385642 1_455
Ce0_3 Ce3_2 3.706478 1_555
Ce0_4 Ce1_4 2.853827 1_555
Ce0_4 Ce1_6 3.122858 1_555
Ce0_4 Ce1_0 3.122858 1_655
Ce0_4 Ce3_1 3.288753 1_554
Ce0_4 Ce3_7 3.288753 1_544
Ce0_4 Mg0_0 3.383336 1_555
Ce0_4 Mg0_6 3.383336 1_545
Ce0_4 Ce2_1 3.385642 1_554
Ce0_4 Ce2_7 3.385642 1_544
Ce0_4 Ce3_5 3.706478 1_554
Ce0_5 Ce1_5 2.853827 1_555
Ce0_5 Ce1_1 3.122858 1_655
Ce0_5 Ce1_7 3.122858 1_555
Ce0_5 Ce3_6 3.288753 1_545
Ce0_5 Ce3_0 3.288753 1_555
Ce0_5 Mg0_7 3.383336 1_545
Ce0_5 Mg0_1 3.383336 1_555
Ce0_5 Ce2_0 3.385642 1_555
Ce0_5 Ce2_6 3.385642 1_545
Ce0_5 Ce3_4 3.706478 1_555
Ce0_6 Ce1_6 2.853827 1_555
Ce0_6 Ce1_4 3.122858 1_565
Ce0_6 Ce1_2 3.122858 1_655
Ce0_6 Ce3_3 3.288753 1_554
Ce0_6 Ce3_5 3.288753 1_554
Ce0_6 Mg0_4 3.383336 1_555
Ce0_6 Mg0_2 3.383336 1_555
Ce0_6 Ce2_3 3.385642 1_554
Ce0_6 Ce2_5 3.385642 1_554
Ce0_6 Ce3_7 3.706478 1_554
Ce0_7 Ce1_7 2.853827 1_555
Ce0_7 Ce1_3 3.122858 1_655
Ce0_7 Ce1_5 3.122858 1_565
Ce0_7 Ce3_4 3.288753 1_555
Ce0_7 Ce3_2 3.288753 1_555
Ce0_7 Mg0_3 3.383336 1_555
Ce0_7 Mg0_5 3.383336 1_555
Ce0_7 Ce2_2 3.385642 1_555
Ce0_7 Ce2_4 3.385642 1_555
Ce0_7 Ce3_6 3.706478 1_555
Ce1_0 Ce1_6 3.191269 1_455
Ce1_0 Ce1_6 3.191269 1_545
Ce1_0 Ce3_3 3.385642 1_544
Ce1_0 Ce3_5 3.385642 1_454
Ce1_0 Mg0_4 3.421105 1_455
Ce1_0 Mg0_2 3.421105 1_545
Ce1_0 Mg1_4 3.496119 1_455
Ce1_0 Mg1_2 3.496119 1_545
Ce1_0 Mg0_6 3.573983 1_445
Ce1_1 Ce1_7 3.191269 1_455
Ce1_1 Ce1_7 3.191269 1_545
Ce1_1 Ce3_2 3.385642 1_545
Ce1_1 Ce3_4 3.385642 1_455
Ce1_1 Mg0_3 3.421105 1_545
Ce1_1 Mg0_5 3.421105 1_455
Ce1_1 Mg1_5 3.496119 1_455
Ce1_1 Mg1_3 3.496119 1_545
Ce1_1 Mg0_7 3.573983 1_445
Ce1_2 Ce1_4 3.191269 1_555
Ce1_2 Ce1_4 3.191269 1_465
Ce1_2 Ce3_1 3.385642 1_554
Ce1_2 Ce3_7 3.385642 1_454
Ce1_2 Mg0_6 3.421105 1_455
Ce1_2 Mg0_0 3.421105 1_555
Ce1_2 Mg1_6 3.496119 1_455
Ce1_2 Mg1_0 3.496119 1_555
Ce1_2 Mg0_4 3.573983 1_455
Ce1_3 Ce1_5 3.191269 1_555
Ce1_3 Ce1_5 3.191269 1_465
Ce1_3 Ce3_0 3.385642 1_555
Ce1_3 Ce3_6 3.385642 1_455
Ce1_3 Mg0_1 3.421105 1_555
Ce1_3 Mg0_7 3.421105 1_455
Ce1_3 Mg1_7 3.496119 1_455
Ce1_3 Mg1_1 3.496119 1_555
Ce1_3 Mg0_5 3.573983 1_455
Ce1_4 Ce3_1 3.385642 1_554
Ce1_4 Ce3_7 3.385642 1_544
Ce1_4 Mg0_6 3.421105 1_545
Ce1_4 Mg0_0 3.421105 1_555
Ce1_4 Mg1_6 3.496119 1_545
Ce1_4 Mg1_0 3.496119 1_555
Ce1_4 Mg0_2 3.573983 1_545
Ce1_5 Ce3_0 3.385642 1_555
Ce1_5 Ce3_6 3.385642 1_545
Ce1_5 Mg0_1 3.421105 1_555
Ce1_5 Mg0_7 3.421105 1_545
Ce1_5 Mg1_1 3.496119 1_555
Ce1_5 Mg1_7 3.496119 1_545
Ce1_5 Mg0_3 3.573983 1_545
Ce1_6 Ce3_5 3.385642 1_554
Ce1_6 Ce3_3 3.385642 1_554
Ce1_6 Mg0_4 3.421105 1_555
Ce1_6 Mg0_2 3.421105 1_555
Ce1_6 Mg1_4 3.496119 1_555
Ce1_6 Mg1_2 3.496119 1_555
Ce1_6 Mg0_0 3.573983 1_555
Ce1_7 Ce3_4 3.385642 1_555
Ce1_7 Ce3_2 3.385642 1_555
Ce1_7 Mg0_3 3.421105 1_555
Ce1_7 Mg0_5 3.421105 1_555
Ce1_7 Mg1_5 3.496119 1_555
Ce1_7 Mg1_3 3.496119 1_555
Ce1_7 Mg0_1 3.573983 1_555
Ce2_0 Ce3_0 2.853827 1_555
Ce2_0 Ce3_4 3.122858 1_555
Ce2_0 Ce3_2 3.122858 1_555
Ce2_0 Ce2_6 3.191269 1_455
Ce2_0 Ce2_6 3.191269 1_545
Ce2_0 Mg1_2 3.421105 1_555
Ce2_0 Mg1_4 3.421105 1_555
Ce2_0 Mg0_4 3.496119 1_555
Ce2_0 Mg0_2 3.496119 1_555
Ce2_0 Mg1_6 3.573983 1_555
Ce2_1 Ce3_1 2.853827 1_555
Ce2_1 Ce3_5 3.122858 1_555
Ce2_1 Ce3_3 3.122858 1_555
Ce2_1 Ce2_7 3.191269 1_545
Ce2_1 Ce2_7 3.191269 1_455
Ce2_1 Mg1_3 3.421105 1_555
Ce2_1 Mg1_5 3.421105 1_555
Ce2_1 Mg0_3 3.496119 1_555
Ce2_1 Mg0_5 3.496119 1_555
Ce2_1 Mg1_7 3.573983 1_555
Ce2_2 Ce3_2 2.853827 1_555
Ce2_2 Ce3_0 3.122858 1_565
Ce2_2 Ce3_6 3.122858 1_555
Ce2_2 Ce2_4 3.191269 1_465
Ce2_2 Ce2_4 3.191269 1_555
Ce2_2 Mg1_6 3.421105 1_555
Ce2_2 Mg1_0 3.421105 1_565
Ce2_2 Mg0_6 3.496119 1_555
Ce2_2 Mg0_0 3.496119 1_565
Ce2_2 Mg1_4 3.573983 1_565
Ce2_3 Ce3_3 2.853827 1_555
Ce2_3 Ce3_1 3.122858 1_565
Ce2_3 Ce3_7 3.122858 1_555
Ce2_3 Ce2_5 3.191269 1_465
Ce2_3 Ce2_5 3.191269 1_555
Ce2_3 Mg1_7 3.421105 1_555
Ce2_3 Mg1_1 3.421105 1_565
Ce2_3 Mg0_7 3.496119 1_555
Ce2_3 Mg0_1 3.496119 1_565
Ce2_3 Mg1_5 3.573983 1_565
Ce2_4 Ce3_4 2.853827 1_555
Ce2_4 Ce3_0 3.122858 1_655
Ce2_4 Ce3_6 3.122858 1_555
Ce2_4 Mg1_6 3.421105 1_555
Ce2_4 Mg1_0 3.421105 1_655
Ce2_4 Mg0_6 3.496119 1_555
Ce2_4 Mg0_0 3.496119 1_655
Ce2_4 Mg1_2 3.573983 1_655
Ce2_5 Ce3_5 2.853827 1_555
Ce2_5 Ce3_1 3.122858 1_655
Ce2_5 Ce3_7 3.122858 1_555
Ce2_5 Mg1_7 3.421105 1_555
Ce2_5 Mg1_1 3.421105 1_655
Ce2_5 Mg0_7 3.496119 1_555
Ce2_5 Mg0_1 3.496119 1_655
Ce2_5 Mg1_3 3.573983 1_655
Ce2_6 Ce3_6 2.853827 1_555
Ce2_6 Ce3_2 3.122858 1_655
Ce2_6 Ce3_4 3.122858 1_565
Ce2_6 Mg1_4 3.421105 1_565
Ce2_6 Mg1_2 3.421105 1_655
Ce2_6 Mg0_2 3.496119 1_655
Ce2_6 Mg0_4 3.496119 1_565
Ce2_6 Mg1_0 3.573983 1_665
Ce2_7 Ce3_7 2.853827 1_555
Ce2_7 Ce3_5 3.122858 1_565
Ce2_7 Ce3_3 3.122858 1_655
Ce2_7 Mg1_5 3.421105 1_565
Ce2_7 Mg1_3 3.421105 1_655
Ce2_7 Mg0_5 3.496119 1_565
Ce2_7 Mg0_3 3.496119 1_655
Ce2_7 Mg1_1 3.573983 1_665
Ce3_0 Ce3_6 3.191269 1_545
Ce3_0 Ce3_6 3.191269 1_455
Ce3_0 Mg1_4 3.383336 1_555
Ce3_0 Mg1_2 3.383336 1_555
Ce3_1 Ce3_7 3.191269 1_455
Ce3_1 Ce3_7 3.191269 1_545
Ce3_1 Mg1_5 3.383336 1_555
Ce3_1 Mg1_3 3.383336 1_555
Ce3_2 Ce3_4 3.191269 1_465
Ce3_2 Ce3_4 3.191269 1_555
Ce3_2 Mg1_0 3.383336 1_565
Ce3_2 Mg1_6 3.383336 1_555
Ce3_3 Ce3_5 3.191269 1_555
Ce3_3 Ce3_5 3.191269 1_465
Ce3_3 Mg1_1 3.383336 1_565
Ce3_3 Mg1_7 3.383336 1_555
Ce3_4 Mg1_6 3.383336 1_555
Ce3_4 Mg1_0 3.383336 1_655
Ce3_5 Mg1_7 3.383336 1_555
Ce3_5 Mg1_1 3.383336 1_655
Ce3_6 Mg1_4 3.383336 1_565
Ce3_6 Mg1_2 3.383336 1_655
Ce3_7 Mg1_3 3.383336 1_655
Ce3_7 Mg1_5 3.383336 1_565
Mg0_0 Mg1_2 3.029994 1_555
Mg0_0 Mg1_4 3.029994 1_555
Mg0_0 Mg1_0 3.037448 1_555
Mg0_0 Mg0_6 3.191269 1_455
Mg0_0 Mg0_6 3.191269 1_545
Mg0_1 Mg1_3 3.029994 1_555
Mg0_1 Mg1_5 3.029994 1_555
Mg0_1 Mg1_1 3.037448 1_555
Mg0_1 Mg0_7 3.191269 1_455
Mg0_1 Mg0_7 3.191269 1_545
Mg0_2 Mg1_0 3.029994 1_565
Mg0_2 Mg1_6 3.029994 1_555
Mg0_2 Mg1_2 3.037448 1_555
Mg0_2 Mg0_4 3.191269 1_465
Mg0_2 Mg0_4 3.191269 1_555
Mg0_3 Mg1_7 3.029994 1_555
Mg0_3 Mg1_1 3.029994 1_565
Mg0_3 Mg1_3 3.037448 1_555
Mg0_3 Mg0_5 3.191269 1_555
Mg0_3 Mg0_5 3.191269 1_465
Mg0_4 Mg1_0 3.029994 1_655
Mg0_4 Mg1_6 3.029994 1_555
Mg0_4 Mg1_4 3.037448 1_555
Mg0_5 Mg1_7 3.029994 1_555
Mg0_5 Mg1_1 3.029994 1_655
Mg0_5 Mg1_5 3.037448 1_555
Mg0_6 Mg1_2 3.029994 1_655
Mg0_6 Mg1_4 3.029994 1_565
Mg0_6 Mg1_6 3.037448 1_555
Mg0_7 Mg1_5 3.029994 1_565
Mg0_7 Mg1_3 3.029994 1_655
Mg0_7 Mg1_7 3.037448 1_555
Mg1_0 Mg1_6 3.191269 1_455
Mg1_0 Mg1_6 3.191269 1_545
Mg1_1 Mg1_7 3.191269 1_455
Mg1_1 Mg1_7 3.191269 1_545
Mg1_2 Mg1_4 3.191269 1_555
Mg1_2 Mg1_4 3.191269 1_465
Mg1_3 Mg1_5 3.191269 1_555
Mg1_3 Mg1_5 3.191269 1_465
