# generated using pymatgen
data_BaCaSmSbO6
_symmetry_space_group_name_H-M   'P 1'
_cell_length_a   5.94718645
_cell_length_b   5.99923615
_cell_length_c   8.46735795
_cell_angle_alpha   90.42670641
_cell_angle_beta   89.48784602
_cell_angle_gamma   89.90836807
_symmetry_Int_Tables_number   1
_chemical_formula_structural   BaCaSmSbO6
_chemical_formula_sum   'Ba2 Ca2 Sm2 Sb2 O12'
_cell_volume   302.08240756
_cell_formula_units_Z   2
loop_
 _symmetry_equiv_pos_site_id
 _symmetry_equiv_pos_as_xyz
  1  'x, y, z'
loop_
 _atom_site_type_symbol
 _atom_site_label
 _atom_site_symmetry_multiplicity
 _atom_site_fract_x
 _atom_site_fract_y
 _atom_site_fract_z
 _atom_site_occupancy
  Ba  Ba0  1  0.99494987  0.02703955  0.25033834  1
  Ba  Ba1  1  0.00505013  0.97296045  0.74966166  1
  Ca  Ca0  1  0.50712399  0.53923098  0.25403641  1
  Ca  Ca1  1  0.49287601  0.46076902  0.74596359  1
  Sm  Sm0  1  0.50000000  0.00000000  0.00000000  1
  Sm  Sm1  1  0.00000000  0.50000000  0.50000000  1
  Sb  Sb0  1  0.00000000  0.50000000  0.00000000  1
  Sb  Sb1  1  0.50000000  0.00000000  0.50000000  1
  O  O0  1  0.19929930  0.23377255  0.96387136  1
  O  O1  1  0.31544758  0.72140324  0.55197843  1
  O  O2  1  0.80070070  0.76622745  0.03612864  1
  O  O3  1  0.68455242  0.27859676  0.44802157  1
  O  O4  1  0.27091274  0.69180766  0.94103024  1
  O  O5  1  0.23052503  0.19891526  0.52495295  1
  O  O6  1  0.72908726  0.30819234  0.05896976  1
  O  O7  1  0.76947497  0.80108474  0.47504705  1
  O  O8  1  0.44167160  0.94283777  0.26777314  1
  O  O9  1  0.10265725  0.50416839  0.23088278  1
  O  O10  1  0.55832840  0.05716223  0.73222686  1
  O  O11  1  0.89734275  0.49583161  0.76911722  1
loop_
_geom_bond_atom_site_label_1
_geom_bond_atom_site_label_2
_geom_bond_distance
_geom_bond_site_symmetry_2
Ba0 O2 2.659620 1_545
Ba0 O7 2.693418 1_545
Ba0 O8 2.709068 1_645
Ba0 O6 2.837002 1_555
Ba0 O3 2.895727 1_555
Ba0 O5 2.908612 1_655
Ba0 O9 2.939700 1_655
Ba0 O0 2.982568 1_654
Ba0 O9 3.203299 1_645
Ba0 O8 3.331931 1_545
Ba1 O0 2.659620 1_565
Ba1 O5 2.693418 1_565
Ba1 O10 2.709068 1_465
Ba1 O4 2.837002 1_555
Ba1 O1 2.895727 1_555
Ba1 O7 2.908612 1_455
Ba1 O11 2.939700 1_455
Ba1 O2 2.982568 1_456
Ba1 O11 3.203299 1_465
Ba1 O10 3.331931 1_565
Ca0 O9 2.424511 1_555
Ca0 O8 2.453545 1_555
Ca0 O6 2.512544 1_555
Ca0 O3 2.514004 1_555
Ca0 O2 2.880055 1_555
Ca0 O7 2.901806 1_555
Ca0 O1 2.960040 1_555
Ca1 O11 2.424511 1_555
Ca1 O10 2.453545 1_555
Ca1 O4 2.512544 1_555
Ca1 O1 2.514004 1_555
Ca1 O0 2.880055 1_555
Ca1 O5 2.901806 1_555
Ca1 O3 2.960040 1_555
O0 Sb0 2.007376 1_556
O0 Sm0 2.294933 1_556
O1 Sb1 2.049395 1_565
O1 Sm1 2.343384 1_555
O2 Sb0 2.007376 1_655
O2 Sm0 2.294933 1_565
O3 Sb1 2.049395 1_555
O3 Sm1 2.343384 1_655
O4 Sb0 2.041910 1_556
O4 Sm0 2.351699 1_566
O5 Sb1 2.005283 1_555
O5 Sm1 2.278113 1_555
O6 Sb0 2.041910 1_655
O6 Sm0 2.351699 1_555
O7 Sb1 2.005283 1_565
O7 Sm1 2.278113 1_655
O8 Sb1 2.026571 1_565
O8 Sm0 2.318755 1_565
O9 Sb0 2.053270 1_555
O9 Sm1 2.354128 1_555
O10 Sb1 2.026571 1_555
O10 Sm0 2.318755 1_556
O11 Sb0 2.053270 1_656
O11 Sm1 2.354128 1_655
