# generated using pymatgen
data_CdGe4C8(S5N)2
_symmetry_space_group_name_H-M   'P 1'
_cell_length_a   8.25566600
_cell_length_b   8.25566600
_cell_length_c   10.32158829
_cell_angle_alpha   113.57331917
_cell_angle_beta   113.57331917
_cell_angle_gamma   90.00000000
_symmetry_Int_Tables_number   1
_chemical_formula_structural   CdGe4C8(S5N)2
_chemical_formula_sum   'Cd1 Ge4 C8 S10 N2'
_cell_volume   580.15618341
_cell_formula_units_Z   1
loop_
 _symmetry_equiv_pos_site_id
 _symmetry_equiv_pos_as_xyz
  1  'x, y, z'
loop_
 _atom_site_type_symbol
 _atom_site_label
 _atom_site_symmetry_multiplicity
 _atom_site_fract_x
 _atom_site_fract_y
 _atom_site_fract_z
 _atom_site_occupancy
  Cd  Cd0  1  0.25000000  0.75000000  0.50000000  1
  Ge  Ge0  1  0.40704000  0.44137500  0.14556300  1
  Ge  Ge1  1  0.73852300  0.70418800  0.14556300  1
  Ge  Ge2  1  0.29581200  0.59296000  0.85443700  1
  Ge  Ge3  1  0.55862500  0.26147700  0.85443700  1
  C  C0  1  0.84976800  0.96142700  0.84149600  1
  C  C1  1  0.99172800  0.88007000  0.84149600  1
  C  C2  1  0.11993000  0.15023200  0.15850400  1
  C  C3  1  0.03857300  0.00827200  0.15850400  1
  C  C4  1  0.59176700  0.14864900  0.46824500  1
  C  C5  1  0.87647800  0.31959600  0.46824500  1
  C  C6  1  0.68040400  0.40823300  0.53175500  1
  C  C7  1  0.85135100  0.12352200  0.53175500  1
  S  S0  1  0.44533900  0.18139300  0.99021800  1
  S  S1  1  0.54487900  0.80882500  0.99021800  1
  S  S2  1  0.19117500  0.55466100  0.00978200  1
  S  S3  1  0.81860700  0.45512100  0.00978200  1
  S  S4  1  0.25244800  0.35580700  0.27215300  1
  S  S5  1  0.01970500  0.91634700  0.27215300  1
  S  S6  1  0.08365300  0.74755200  0.72784700  1
  S  S7  1  0.64419300  0.98029500  0.72784700  1
  S  S8  1  0.65812000  0.65812000  0.31624000  1
  S  S9  1  0.34188000  0.34188000  0.68376000  1
  N  N0  1  0.00000000  0.00000000  0.00000000  1
  N  N1  1  0.75000000  0.25000000  0.50000000  1
loop_
_geom_bond_atom_site_label_1
_geom_bond_atom_site_label_2
_geom_bond_distance
_geom_bond_site_symmetry_2
Cd0 S4 3.168324 1_555
Cd0 S7 3.168324 1_555
Cd0 S6 3.168330 1_555
Cd0 S5 3.168330 1_555
Ge0 S0 2.220469 1_554
Ge0 S2 2.250655 1_555
Ge0 S8 2.271537 1_555
Ge0 S4 2.430467 1_555
Ge1 S1 2.220469 1_554
Ge1 S3 2.250655 1_555
Ge1 S8 2.271537 1_555
Ge1 S5 2.430471 1_655
Ge2 S2 2.220469 1_556
Ge2 S1 2.250655 1_555
Ge2 S9 2.271537 1_555
Ge2 S6 2.430471 1_555
Ge3 S3 2.220469 1_556
Ge3 S0 2.250655 1_555
Ge3 S9 2.271537 1_555
Ge3 S7 2.430467 1_545
C0 C1 1.350795 1_555
C0 N0 1.508822 1_666
C0 S7 1.683574 1_555
C1 N0 1.508820 1_666
C1 S6 1.683571 1_655
C2 C3 1.350795 1_555
C2 N0 1.508820 1_555
C2 S4 1.683577 1_555
C3 N0 1.508822 1_555
C3 S5 1.683568 1_545
C4 N1 1.397205 1_555
C5 N1 1.397205 1_555
C6 N1 1.397205 1_555
C7 N1 1.397205 1_555
