# generated using pymatgen
data_FeOF
_symmetry_space_group_name_H-M   'P 1'
_cell_length_a   3.09544200
_cell_length_b   14.22676700
_cell_length_c   14.22825778
_cell_angle_alpha   89.91465384
_cell_angle_beta   90.00000000
_cell_angle_gamma   90.00000000
_symmetry_Int_Tables_number   1
_chemical_formula_structural   FeOF
_chemical_formula_sum   'Fe18 O18 F18'
_cell_volume   626.58520069
_cell_formula_units_Z   18
loop_
 _symmetry_equiv_pos_site_id
 _symmetry_equiv_pos_as_xyz
  1  'x, y, z'
loop_
 _atom_site_type_symbol
 _atom_site_label
 _atom_site_symmetry_multiplicity
 _atom_site_fract_x
 _atom_site_fract_y
 _atom_site_fract_z
 _atom_site_occupancy
  Fe  Fe0  1  0.00000000  0.00556100  0.98490400  1
  Fe  Fe1  1  0.00000000  0.98735500  0.66824700  1
  Fe  Fe2  1  0.00000000  0.98694300  0.34380000  1
  Fe  Fe3  1  0.50000000  0.84620100  0.83706900  1
  Fe  Fe4  1  0.50000000  0.83751100  0.51200300  1
  Fe  Fe5  1  0.50000000  0.82461800  0.15033400  1
  Fe  Fe6  1  0.00000000  0.65515800  0.00348900  1
  Fe  Fe7  1  0.00000000  0.66349100  0.65732200  1
  Fe  Fe8  1  0.00000000  0.66038400  0.33009000  1
  Fe  Fe9  1  0.50000000  0.49914700  0.51542500  1
  Fe  Fe10  1  0.50000000  0.51934600  0.83110500  1
  Fe  Fe11  1  0.50000000  0.51243600  0.16919500  1
  Fe  Fe12  1  0.00000000  0.32195900  0.00072100  1
  Fe  Fe13  1  0.00000000  0.33517000  0.65746300  1
  Fe  Fe14  1  0.00000000  0.32049800  0.33600700  1
  Fe  Fe15  1  0.50000000  0.17154100  0.84408000  1
  Fe  Fe16  1  0.50000000  0.18091700  0.50523500  1
  Fe  Fe17  1  0.50000000  0.17967600  0.16886400  1
  O  O0  1  0.50000000  0.93786600  0.73377300  1
  O  O1  1  0.50000000  0.92693900  0.39522700  1
  O  O2  1  0.00000000  0.89626500  0.90525900  1
  O  O3  1  0.00000000  0.90291000  0.56160300  1
  O  O4  1  0.00000000  0.76791200  0.09738800  1
  O  O5  1  0.50000000  0.73251400  0.59964100  1
  O  O6  1  0.50000000  0.60289900  0.72505600  1
  O  O7  1  0.50000000  0.60020300  0.06670000  1
  O  O8  1  0.00000000  0.56625100  0.89755000  1
  O  O9  1  0.00000000  0.56503500  0.55744800  1
  O  O10  1  0.00000000  0.56487300  0.23593900  1
  O  O11  1  0.50000000  0.39531700  0.60297000  1
  O  O12  1  0.50000000  0.26928900  0.40017500  1
  O  O13  1  0.50000000  0.26782100  0.06470700  1
  O  O14  1  0.00000000  0.23629500  0.89373900  1
  O  O15  1  0.00000000  0.22891400  0.56921200  1
  O  O16  1  0.00000000  0.22967000  0.23329100  1
  O  O17  1  0.50000000  0.06803400  0.93435500  1
  F  F0  1  0.50000000  0.94129600  0.06976800  1
  F  F1  1  0.00000000  0.89616200  0.22635000  1
  F  F2  1  0.00000000  0.77088100  0.77304900  1
  F  F3  1  0.00000000  0.76198700  0.42865200  1
  F  F4  1  0.50000000  0.73074200  0.93340400  1
  F  F5  1  0.50000000  0.73579900  0.26818100  1
  F  F6  1  0.50000000  0.59958200  0.39769800  1
  F  F7  1  0.00000000  0.43053500  0.77116500  1
  F  F8  1  0.00000000  0.43648000  0.42897000  1
  F  F9  1  0.00000000  0.43414000  0.10467000  1
  F  F10  1  0.50000000  0.40011700  0.93815500  1
  F  F11  1  0.50000000  0.39872800  0.26604400  1
  F  F12  1  0.50000000  0.26686800  0.73208300  1
  F  F13  1  0.00000000  0.10607700  0.76361700  1
  F  F14  1  0.00000000  0.10004300  0.43390400  1
  F  F15  1  0.00000000  0.09775400  0.10527700  1
  F  F16  1  0.50000000  0.06651300  0.60004400  1
  F  F17  1  0.50000000  0.05937600  0.26958100  1
loop_
_geom_bond_atom_site_label_1
_geom_bond_atom_site_label_2
_geom_bond_distance
_geom_bond_site_symmetry_2
Fe0 O17 1.923737 1_455
Fe0 O17 1.923737 1_555
Fe0 O2 1.925413 1_545
Fe1 O3 1.936781 1_555
Fe1 O0 1.938664 1_555
Fe1 O0 1.938664 1_455
Fe2 O1 1.912519 1_455
Fe2 O1 1.912519 1_555
Fe3 O2 1.961156 1_555
Fe3 O2 1.961156 1_655
Fe3 O0 1.963426 1_555
Fe4 O3 1.939359 1_555
Fe4 O3 1.939359 1_655
Fe4 O5 1.944388 1_555
Fe4 O1 2.091177 1_555
Fe5 O4 1.901471 1_655
Fe5 O4 1.901471 1_555
Fe6 O7 1.952817 1_555
Fe6 O7 1.952817 1_455
Fe6 O8 1.969158 1_554
Fe6 O4 2.089150 1_555
Fe7 O9 1.996811 1_555
Fe7 O5 2.007701 1_555
Fe7 O5 2.007701 1_455
Fe7 O6 2.016146 1_555
Fe7 O6 2.016146 1_455
Fe8 O10 1.909538 1_555
Fe9 O9 1.906116 1_555
Fe9 O9 1.906116 1_655
Fe9 O11 1.930825 1_555
Fe10 O6 1.919478 1_555
Fe10 O8 1.932975 1_555
Fe10 O8 1.932975 1_655
Fe11 O7 1.918435 1_555
Fe11 O10 1.963649 1_655
Fe11 O10 1.963649 1_555
Fe12 O14 1.951359 1_554
Fe12 O13 1.953309 1_555
Fe12 O13 1.953309 1_455
Fe13 O11 1.930501 1_555
Fe13 O11 1.930501 1_455
Fe13 O15 1.966598 1_555
Fe14 O12 1.938503 1_455
Fe14 O12 1.938503 1_555
Fe14 O16 1.952248 1_555
Fe15 O14 1.935275 1_555
Fe15 O14 1.935275 1_655
Fe15 O17 1.952602 1_555
Fe16 O15 1.921504 1_655
Fe16 O15 1.921504 1_555
Fe16 O12 1.951810 1_555
Fe17 O16 1.934832 1_555
Fe17 O16 1.934832 1_655
Fe17 O13 1.939915 1_555
F0 Fe5 2.015888 1_555
F0 Fe0 2.164727 1_564
F0 Fe0 2.164727 1_664
F1 Fe2 2.113542 1_555
F1 Fe5 2.145815 1_555
F1 Fe5 2.145815 1_455
F2 Fe3 2.091964 1_555
F2 Fe3 2.091964 1_455
F2 Fe7 2.247883 1_555
F3 Fe8 2.015462 1_555
F3 Fe4 2.227141 1_555
F3 Fe4 2.227141 1_455
F4 Fe6 2.131416 1_556
F4 Fe6 2.131416 1_656
F4 Fe3 2.137806 1_555
F5 Fe8 2.078382 1_655
F5 Fe8 2.078382 1_555
F5 Fe5 2.098072 1_555
F6 Fe8 2.016569 1_555
F6 Fe8 2.016569 1_655
F6 Fe9 2.200072 1_555
F7 Fe13 2.112933 1_555
F7 Fe10 2.173110 1_555
F7 Fe10 2.173110 1_455
F8 Fe14 2.116295 1_555
F8 Fe9 2.169498 1_555
F8 Fe9 2.169498 1_455
F9 Fe11 2.117103 1_555
F9 Fe11 2.117103 1_455
F9 Fe12 2.177531 1_555
F10 Fe12 2.102702 1_656
F10 Fe12 2.102702 1_556
F10 Fe10 2.278044 1_555
F11 Fe11 2.123480 1_555
F11 Fe14 2.149824 1_555
F11 Fe14 2.149824 1_655
F12 Fe15 2.090966 1_555
F12 Fe13 2.112779 1_555
F12 Fe13 2.112779 1_655
F13 Fe15 2.139320 1_555
F13 Fe15 2.139320 1_455
F13 Fe1 2.168170 1_545
F14 Fe2 2.058825 1_545
F14 Fe16 2.180091 1_555
F14 Fe16 2.180091 1_455
F15 Fe17 2.139037 1_455
F15 Fe17 2.139037 1_555
F15 Fe0 2.158783 1_554
F16 Fe16 2.112404 1_555
F16 Fe1 2.145256 1_645
F16 Fe1 2.145256 1_545
F17 Fe2 2.137581 1_645
F17 Fe2 2.137581 1_545
F17 Fe17 2.230566 1_555
