# generated using pymatgen
data_BaMg6Ni
_symmetry_space_group_name_H-M   'P 1'
_cell_length_a   8.04279233
_cell_length_b   8.04279233
_cell_length_c   4.50699300
_cell_angle_alpha   90.00000000
_cell_angle_beta   90.00000000
_cell_angle_gamma   134.17723391
_symmetry_Int_Tables_number   1
_chemical_formula_structural   BaMg6Ni
_chemical_formula_sum   'Ba1 Mg6 Ni1'
_cell_volume   209.09003964
_cell_formula_units_Z   1
loop_
 _symmetry_equiv_pos_site_id
 _symmetry_equiv_pos_as_xyz
  1  'x, y, z'
loop_
 _atom_site_type_symbol
 _atom_site_label
 _atom_site_symmetry_multiplicity
 _atom_site_fract_x
 _atom_site_fract_y
 _atom_site_fract_z
 _atom_site_occupancy
  Ba  Ba0  1  0.27944500  0.72055500  0.50000000  1
  Mg  Mg0  1  0.20639200  0.30041200  0.00000000  1
  Mg  Mg1  1  0.69958800  0.79360800  0.00000000  1
  Mg  Mg2  1  0.69050900  0.30949100  0.00000000  1
  Mg  Mg3  1  0.31716400  0.16515400  0.50000000  1
  Mg  Mg4  1  0.83484600  0.68283600  0.50000000  1
  Mg  Mg5  1  0.87048400  0.12951600  0.50000000  1
  Ni  Ni0  1  0.10157200  0.89842800  0.00000000  1
loop_
_geom_bond_atom_site_label_1
_geom_bond_atom_site_label_2
_geom_bond_distance
_geom_bond_site_symmetry_2
Ba0 Mg3 3.371435 1_565
Ba0 Mg4 3.371435 1_455
Ba0 Mg5 3.409307 1_565
Ba0 Mg5 3.409307 1_455
Ba0 Ni0 3.467554 1_556
Ba0 Ni0 3.467554 1_555
Ba0 Mg0 3.751634 1_556
Ba0 Mg0 3.751634 1_555
Ba0 Mg1 3.751634 1_555
Ba0 Mg1 3.751634 1_556
Ba0 Mg2 4.076583 1_566
Ba0 Mg2 4.076583 1_565
Ba0 Mg2 4.076583 1_456
Ba0 Mg2 4.076583 1_455
Mg0 Ni0 2.713783 1_545
Mg0 Mg5 3.015091 1_455
Mg0 Mg5 3.015091 1_454
Mg1 Ni0 2.713783 1_655
Mg1 Mg5 3.015091 1_565
Mg1 Mg5 3.015091 1_564
Mg2 Mg3 3.253296 1_554
Mg2 Mg3 3.253296 1_555
Mg2 Mg4 3.253296 1_555
Mg2 Mg4 3.253296 1_554
Mg2 Ni0 3.397105 1_545
Mg2 Ni0 3.397105 1_655
Mg2 Mg5 3.491283 1_554
Mg2 Mg5 3.491283 1_555
Mg3 Ni0 2.739057 1_546
Mg3 Ni0 2.739057 1_545
Mg3 Mg5 3.399030 1_455
Mg4 Ni0 2.739057 1_655
Mg4 Ni0 2.739057 1_656
Mg4 Mg5 3.399030 1_565
