# generated using pymatgen
data_YTh9MgO20
_symmetry_space_group_name_H-M   'P 1'
_cell_length_a   8.02279905
_cell_length_b   20.05748694
_cell_length_c   10.60873611
_cell_angle_alpha   18.97689796
_cell_angle_beta   55.17228477
_cell_angle_gamma   59.70874387
_symmetry_Int_Tables_number   1
_chemical_formula_structural   YTh9MgO20
_chemical_formula_sum   'Y1 Th9 Mg1 O20'
_cell_volume   451.60794588
_cell_formula_units_Z   1
loop_
 _symmetry_equiv_pos_site_id
 _symmetry_equiv_pos_as_xyz
  1  'x, y, z'
loop_
 _atom_site_type_symbol
 _atom_site_label
 _atom_site_symmetry_multiplicity
 _atom_site_fract_x
 _atom_site_fract_y
 _atom_site_fract_z
 _atom_site_occupancy
  Y  Y0  1  0.00588680  0.01300527  0.97160658  1
  Th  Th0  1  0.01299637  0.20085250  0.97468680  1
  Th  Th1  1  0.49917605  0.99821911  0.00592296  1
  Th  Th2  1  0.02672658  0.43916336  0.93595542  1
  Th  Th3  1  0.50306882  0.20286185  0.98908775  1
  Th  Th4  1  0.00064901  0.60718531  0.98804670  1
  Th  Th5  1  0.49824370  0.40470877  0.99108465  1
  Th  Th6  1  0.01688659  0.78396425  0.02615904  1
  Th  Th7  1  0.51179833  0.60761849  0.97884656  1
  Th  Th8  1  0.50933297  0.81461617  0.97055607  1
  Mg  Mg0  1  0.80918044  0.13926591  0.41960807  1
  O  O0  1  0.12597981  0.14614521  0.25373523  1
  O  O1  1  0.13109400  0.36423776  0.22271076  1
  O  O2  1  0.62648286  0.15934807  0.22028371  1
  O  O3  1  0.36579894  0.05542776  0.74264804  1
  O  O4  1  0.13062718  0.55189812  0.24261985  1
  O  O5  1  0.64181701  0.35463015  0.23038039  1
  O  O6  1  0.38053360  0.25546283  0.73174481  1
  O  O7  1  0.13021768  0.76101361  0.22700593  1
  O  O8  1  0.88019638  0.06272011  0.71228255  1
  O  O9  1  0.13158691  0.95263956  0.24125621  1
  O  O10  1  0.62892375  0.55222760  0.24269639  1
  O  O11  1  0.38001819  0.46274421  0.72537260  1
  O  O12  1  0.88282834  0.25413959  0.73349952  1
  O  O13  1  0.37922102  0.65197508  0.74541147  1
  O  O14  1  0.63438924  0.74519492  0.25720017  1
  O  O15  1  0.62525837  0.95506998  0.23731991  1
  O  O16  1  0.88720745  0.43819900  0.76986580  1
  O  O17  1  0.38110172  0.84794601  0.74975139  1
  O  O18  1  0.88130631  0.66485532  0.72258091  1
  O  O19  1  0.88146556  0.85266412  0.74007376  1
loop_
_geom_bond_atom_site_label_1
_geom_bond_atom_site_label_2
_geom_bond_distance
_geom_bond_site_symmetry_2
Mg0 O0 2.088396 1_655
Mg0 O8 2.108215 1_555
Mg0 O16 2.132342 1_554
Mg0 O5 2.306402 1_555
Mg0 O19 2.620385 1_545
Mg0 O14 2.741043 1_546
O0 Th3 2.461414 1_554
O0 Th6 2.514671 1_546
O0 Th0 2.589862 1_554
O0 Th2 2.722655 1_554
O1 Th2 2.282008 1_554
O1 Th5 2.396989 1_554
O1 Th4 2.434333 1_554
O1 Y0 2.434369 1_555
O2 Th3 2.368816 1_554
O2 Th8 2.443103 1_545
O2 Th5 2.511582 1_554
O2 Th0 2.524027 1_654
O3 Y0 2.349482 1_555
O3 Th5 2.443213 1_554
O3 Th8 2.446167 1_545
O3 Th1 2.525140 1_546
O4 Th6 2.380083 1_555
O4 Th0 2.385852 1_555
O4 Th4 2.448869 1_554
O4 Th7 2.487922 1_554
O5 Th5 2.475986 1_554
O5 Th7 2.487538 1_554
O5 Th1 2.522909 1_546
O5 Th2 2.532871 1_654
O6 Th0 2.403229 1_555
O6 Th1 2.410865 1_546
O6 Th7 2.447727 1_554
O6 Th3 2.470743 1_555
O7 Th2 2.318774 1_555
O7 Th6 2.348231 1_555
O7 Y0 2.446020 1_564
O7 Th8 2.474615 1_554
O8 Th1 2.492516 1_546
O8 Th6 2.515048 1_646
O8 Th2 2.550802 1_654
O8 Y0 2.558463 1_655
O9 Th0 2.314185 1_564
O9 Th1 2.399826 1_555
O9 Th4 2.427835 1_555
O9 Y0 2.485742 1_564
O10 Th3 2.426110 1_555
O10 Th4 2.426712 1_654
O10 Th7 2.453960 1_554
O10 Th8 2.507319 1_554
O11 Th2 2.317247 1_555
O11 Th5 2.436169 1_555
O11 Th8 2.453429 1_554
O11 Th3 2.520928 1_555
O12 Th0 2.352390 1_655
O12 Y0 2.381777 1_655
O12 Th4 2.424612 1_654
O12 Th3 2.478547 1_555
O13 Th1 2.403638 1_555
O13 Th5 2.433086 1_555
O13 Th7 2.437769 1_555
O13 Th4 2.471158 1_555
O14 Th5 2.387209 1_555
O14 Th1 2.490249 1_555
O14 Th6 2.498093 1_655
O14 Th8 2.502013 1_554
O15 Th1 2.394448 1_555
O15 Th7 2.411200 1_555
O15 Th3 2.424323 1_564
O15 Y0 2.484703 1_664
O16 Th6 2.417502 1_655
O16 Th5 2.542620 1_555
O16 Th0 2.548953 1_655
O16 Th2 2.587856 1_655
O17 Th6 2.379587 1_556
O17 Th7 2.428340 1_555
O17 Th8 2.467689 1_555
O17 Th3 2.472628 1_564
O18 Th2 2.299074 1_655
O18 Th7 2.412865 1_555
O18 Y0 2.441273 1_664
O18 Th4 2.446961 1_655
O19 Th4 2.388295 1_655
O19 Th8 2.430134 1_555
O19 Th0 2.493097 1_664
O19 Th6 2.576224 1_656
