# generated using pymatgen
data_DyCoB4
_symmetry_space_group_name_H-M   'P 1'
_cell_length_a   3.39546406
_cell_length_b   5.88527890
_cell_length_c   11.39915091
_cell_angle_alpha   90.00005067
_cell_angle_beta   89.99997797
_cell_angle_gamma   90.00001555
_symmetry_Int_Tables_number   1
_chemical_formula_structural   DyCoB4
_chemical_formula_sum   'Dy4 Co4 B16'
_cell_volume   227.79211648
_cell_formula_units_Z   4
loop_
 _symmetry_equiv_pos_site_id
 _symmetry_equiv_pos_as_xyz
  1  'x, y, z'
loop_
 _atom_site_type_symbol
 _atom_site_label
 _atom_site_symmetry_multiplicity
 _atom_site_fract_x
 _atom_site_fract_y
 _atom_site_fract_z
 _atom_site_occupancy
  Dy  Dy0  1  0.50000020  0.37315146  0.15024222  1
  Dy  Dy1  1  0.50000029  0.62684762  0.84977002  1
  Dy  Dy2  1  0.50000018  0.12684685  0.65021885  1
  Dy  Dy3  1  0.50000018  0.87315376  0.34976919  1
  Co  Co0  1  0.49999785  0.36656910  0.41143487  1
  Co  Co1  1  0.50000119  0.63343247  0.58856211  1
  Co  Co2  1  0.49999812  0.13343188  0.91143315  1
  Co  Co3  1  0.49999806  0.86656176  0.08857017  1
  B  B0  1  -0.00000010  0.11200044  0.04620560  1
  B  B1  1  -0.00000013  0.88799991  0.95380622  1
  B  B2  1  0.00000016  0.38800113  0.54618985  1
  B  B3  1  0.00000000  0.61200225  0.45379884  1
  B  B4  1  -0.00000005  0.13931855  0.46720986  1
  B  B5  1  0.00000019  0.86068512  0.53277542  1
  B  B6  1  0.00000003  0.36068238  0.96722266  1
  B  B7  1  -0.00000003  0.63931912  0.03279078  1
  B  B8  1  0.00000075  0.02205529  0.19000683  1
  B  B9  1  0.00000069  0.97794484  0.80999769  1
  B  B10  1  0.00000115  0.47794211  0.68999457  1
  B  B11  1  0.00000065  0.52205530  0.31000078  1
  B  B12  1  0.00000009  0.21734225  0.31600940  1
  B  B13  1  0.00000047  0.78265749  0.68398610  1
  B  B14  1  0.00000003  0.28265639  0.81600663  1
  B  B15  1  0.00000003  0.71734153  0.18399918  1
loop_
_geom_bond_atom_site_label_1
_geom_bond_atom_site_label_2
_geom_bond_distance
_geom_bond_site_symmetry_2
B0 B1 1.687399 1_544
B0 B6 1.718321 1_554
B0 B8 1.722565 1_555
B0 Co3 2.280788 1_545
B0 Co3 2.280797 1_445
B0 Co2 2.293114 1_554
B0 Co2 2.293124 1_454
B0 Dy0 2.578938 1_455
B0 Dy0 2.578939 1_555
B1 B7 1.718325 1_556
B1 B9 1.722644 1_555
B1 Co2 2.280783 1_565
B1 Co2 2.280793 1_465
B1 Co3 2.293052 1_556
B1 Co3 2.293060 1_456
B1 Dy1 2.578940 1_455
B1 Dy1 2.578942 1_555
B2 B3 1.687343 1_555
B2 B4 1.718305 1_555
B2 Co1 2.280781 1_455
B2 Co1 2.280786 1_555
B2 Co0 2.292979 1_555
B2 Co0 2.292992 1_455
B2 Dy2 2.578911 1_455
B2 Dy2 2.578912 1_555
B3 B5 1.718286 1_555
B3 Co0 2.280765 1_555
B3 Co0 2.280775 1_455
B3 Co1 2.293045 1_455
B3 Co1 2.293052 1_555
B3 Dy3 2.578905 1_555
B3 Dy3 2.578905 1_455
B4 B5 1.802126 1_545
B4 Co0 2.252825 1_555
B4 Co0 2.252837 1_455
B4 Dy3 2.669878 1_445
B4 Dy3 2.669879 1_545
B4 Dy2 2.690666 1_455
B4 Dy2 2.690668 1_555
B5 Co1 2.252873 1_455
B5 Co1 2.252879 1_555
B5 Dy2 2.669884 1_465
B5 Dy2 2.669884 1_565
B5 Dy3 2.690642 1_555
B5 Dy3 2.690643 1_455
B6 B7 1.802154 1_556
B6 Co2 2.252872 1_555
B6 Co2 2.252882 1_455
B6 Dy1 2.669950 1_555
B6 Dy1 2.669950 1_455
B6 Dy0 2.690760 1_456
B6 Dy0 2.690761 1_556
B7 Co3 2.252812 1_555
B7 Co3 2.252822 1_455
B7 Dy0 2.669950 1_455
B7 Dy0 2.669952 1_555
B7 Dy1 2.690771 1_454
B7 Dy1 2.690772 1_554
B8 Co3 2.248715 1_545
B8 Co3 2.248729 1_445
B8 Dy3 2.639479 1_545
B8 Dy3 2.639480 1_445
B8 Dy0 2.712442 1_555
B8 Dy0 2.712446 1_455
B9 Co2 2.248693 1_565
B9 Co2 2.248706 1_465
B9 Dy2 2.639608 1_565
B9 Dy2 2.639612 1_465
B9 Dy1 2.712463 1_555
B9 Dy1 2.712464 1_455
B10 B2 1.722595 1_555
B10 B13 1.794643 1_555
B10 B14 1.839633 1_555
B10 Co1 2.248691 1_555
B10 Co1 2.248691 1_455
B10 Dy1 2.639588 1_555
B10 Dy1 2.639591 1_455
B10 Dy2 2.712459 1_555
B10 Dy2 2.712462 1_455
B11 B3 1.722533 1_555
B11 B12 1.794629 1_555
B11 B15 1.839542 1_555
B11 Co0 2.248684 1_555
B11 Co0 2.248697 1_455
B11 Dy0 2.639452 1_555
B11 Dy0 2.639454 1_455
B11 Dy3 2.712460 1_555
B11 Dy3 2.712462 1_455
B12 B4 1.783678 1_555
B12 B8 1.839552 1_555
B12 Co0 2.199277 1_555
B12 Co0 2.199288 1_455
B12 Dy3 2.670885 1_445
B12 Dy3 2.670886 1_545
B12 Dy0 2.700695 1_555
B12 Dy0 2.700696 1_455
B13 B5 1.783796 1_555
B13 B9 1.839634 1_555
B13 Co1 2.199268 1_455
B13 Co1 2.199271 1_555
B13 Dy2 2.670901 1_565
B13 Dy2 2.670903 1_465
B13 Dy1 2.700830 1_455
B13 Dy1 2.700831 1_555
B14 B6 1.783852 1_555
B14 B9 1.794620 1_545
B14 Co2 2.199279 1_555
B14 Co2 2.199288 1_455
B14 Dy1 2.670903 1_455
B14 Dy1 2.670904 1_555
B14 Dy2 2.700860 1_455
B14 Dy2 2.700860 1_555
B15 B7 1.783762 1_555
B15 B8 1.794632 1_565
B15 Co3 2.199282 1_555
B15 Co3 2.199293 1_455
B15 Dy0 2.670887 1_455
B15 Dy0 2.670888 1_555
B15 Dy3 2.700723 1_455
B15 Dy3 2.700724 1_555
