# generated using pymatgen
data_Sr2CrO4
_symmetry_space_group_name_H-M   'P 1'
_cell_length_a   5.81040999
_cell_length_b   10.02839088
_cell_length_c   14.16261590
_cell_angle_alpha   90.00000000
_cell_angle_beta   90.00000000
_cell_angle_gamma   90.00000000
_symmetry_Int_Tables_number   1
_chemical_formula_structural   Sr2CrO4
_chemical_formula_sum   'Sr16 Cr8 O32'
_cell_volume   825.24235179
_cell_formula_units_Z   8
loop_
 _symmetry_equiv_pos_site_id
 _symmetry_equiv_pos_as_xyz
  1  'x, y, z'
loop_
 _atom_site_type_symbol
 _atom_site_label
 _atom_site_symmetry_multiplicity
 _atom_site_fract_x
 _atom_site_fract_y
 _atom_site_fract_z
 _atom_site_occupancy
  Sr  Sr0  1  0.72806237  0.77823161  0.04791237  1
  Sr  Sr1  1  0.27193763  0.27823161  0.95208763  1
  Sr  Sr2  1  0.77193763  0.77823161  0.54791237  1
  Sr  Sr3  1  0.22806237  0.27823161  0.45208763  1
  Sr  Sr4  1  0.68973470  0.41372630  0.12001993  1
  Sr  Sr5  1  0.31026530  0.91372630  0.87998007  1
  Sr  Sr6  1  0.81026530  0.41372630  0.62001993  1
  Sr  Sr7  1  0.18973470  0.91372630  0.37998007  1
  Sr  Sr8  1  0.68954872  0.13876807  0.29525125  1
  Sr  Sr9  1  0.31045128  0.63876807  0.70474875  1
  Sr  Sr10  1  0.81045128  0.13876807  0.79525125  1
  Sr  Sr11  1  0.18954872  0.63876807  0.20474875  1
  Sr  Sr12  1  0.72183048  0.50239370  0.36981444  1
  Sr  Sr13  1  0.27816952  0.00239370  0.63018556  1
  Sr  Sr14  1  0.77816952  0.50239370  0.86981444  1
  Sr  Sr15  1  0.22183048  0.00239370  0.13018556  1
  Cr  Cr0  1  0.19446677  0.28570353  0.22848401  1
  Cr  Cr1  1  0.80553323  0.78570353  0.77151599  1
  Cr  Cr2  1  0.30553323  0.28570353  0.72848401  1
  Cr  Cr3  1  0.69446677  0.78570353  0.27151599  1
  Cr  Cr4  1  0.27656228  0.62841306  0.47558267  1
  Cr  Cr5  1  0.72343772  0.12841306  0.52441733  1
  Cr  Cr6  1  0.22343772  0.62841306  0.97558267  1
  Cr  Cr7  1  0.77656228  0.12841306  0.02441733  1
  O  O0  1  0.05494984  0.51110208  0.48702786  1
  O  O1  1  0.94505016  0.01110208  0.51297214  1
  O  O2  1  0.44505016  0.51110208  0.98702786  1
  O  O3  1  0.55494984  0.01110208  0.01297214  1
  O  O4  1  0.52572152  0.55816532  0.53042779  1
  O  O5  1  0.47427848  0.05816532  0.46957221  1
  O  O6  1  0.97427848  0.55816532  0.03042779  1
  O  O7  1  0.02572152  0.05816532  0.96957221  1
  O  O8  1  0.94377734  0.84847462  0.20613903  1
  O  O9  1  0.05622266  0.34847462  0.79386097  1
  O  O10  1  0.55622266  0.84847462  0.70613903  1
  O  O11  1  0.44377734  0.34847462  0.29386097  1
  O  O12  1  0.27897029  0.77291294  0.04533614  1
  O  O13  1  0.72102971  0.27291294  0.95466386  1
  O  O14  1  0.22102971  0.77291294  0.54533614  1
  O  O15  1  0.77897029  0.27291294  0.45466386  1
  O  O16  1  0.63927560  0.64248131  0.19947425  1
  O  O17  1  0.36072440  0.14248131  0.80052575  1
  O  O18  1  0.86072440  0.64248131  0.69947425  1
  O  O19  1  0.13927560  0.14248131  0.30052575  1
  O  O20  1  0.36502355  0.67866685  0.36126697  1
  O  O21  1  0.63497645  0.17866685  0.63873303  1
  O  O22  1  0.13497645  0.67866685  0.86126697  1
  O  O23  1  0.86502355  0.17866685  0.13873303  1
  O  O24  1  0.34277992  0.25155097  0.12252114  1
  O  O25  1  0.65722008  0.75155097  0.87747886  1
  O  O26  1  0.15722008  0.25155097  0.62252114  1
  O  O27  1  0.84277992  0.75155097  0.37747886  1
  O  O28  1  0.99844769  0.41971063  0.24430519  1
  O  O29  1  0.00155231  0.91971063  0.75569481  1
  O  O30  1  0.50155231  0.41971063  0.74430519  1
  O  O31  1  0.49844769  0.91971063  0.25569481  1
loop_
_geom_bond_atom_site_label_1
_geom_bond_atom_site_label_2
_geom_bond_distance
_geom_bond_site_symmetry_2
Cr0 O24 1.764106 1_555
Cr0 O28 1.775787 1_455
Cr0 O19 1.790747 1_555
Cr0 O11 1.830847 1_555
Cr0 O23 2.536154 1_455
Cr1 O25 1.764106 1_555
Cr1 O29 1.775787 1_655
Cr1 O18 1.790747 1_555
Cr1 O10 1.830847 1_555
Cr1 O22 2.536154 1_655
Cr2 O26 1.764106 1_555
Cr2 O30 1.775787 1_555
Cr2 O17 1.790747 1_555
Cr2 O9 1.830847 1_555
Cr2 O21 2.536154 1_555
Cr3 O27 1.764106 1_555
Cr3 O31 1.775787 1_555
Cr3 O16 1.790747 1_555
Cr3 O8 1.830847 1_555
Cr3 O20 2.536154 1_555
Cr4 O0 1.751671 1_555
Cr4 O20 1.771825 1_555
Cr4 O14 1.783238 1_555
Cr4 O4 1.787598 1_555
Cr5 O1 1.751671 1_555
Cr5 O21 1.771825 1_555
Cr5 O15 1.783238 1_555
Cr5 O5 1.787598 1_555
Cr6 O2 1.751671 1_555
Cr6 O22 1.771825 1_555
Cr6 O12 1.783238 1_556
Cr6 O6 1.787598 1_456
Cr7 O3 1.751671 1_555
Cr7 O23 1.771825 1_555
Cr7 O13 1.783238 1_554
Cr7 O7 1.787598 1_654
O0 Sr12 2.551427 1_455
O0 Sr6 2.553920 1_455
O0 Sr3 2.590428 1_555
O1 Sr13 2.551427 1_655
O1 Sr7 2.553920 1_645
O1 Sr2 2.590428 1_545
O2 Sr14 2.551427 1_555
O2 Sr4 2.553920 1_556
O2 Sr1 2.590428 1_555
O3 Sr15 2.551427 1_555
O3 Sr5 2.553920 1_544
O3 Sr0 2.590428 1_545
O4 Sr6 2.538027 1_555
O4 Sr12 2.604899 1_555
O4 Sr2 2.641673 1_555
O4 Sr9 2.883240 1_555
O5 Sr7 2.538027 1_545
O5 Sr13 2.604899 1_555
O5 Sr3 2.641673 1_555
O5 Sr8 2.883240 1_555
O6 Sr4 2.538027 1_555
O6 Sr14 2.604899 1_554
O6 Sr0 2.641673 1_555
O6 Sr11 2.883240 1_655
O7 Sr5 2.538027 1_545
O7 Sr15 2.604899 1_556
O7 Sr1 2.641673 1_555
O7 Sr10 2.883240 1_455
O8 Sr15 2.479896 1_665
O8 Sr11 2.542116 1_655
O8 Sr0 2.662490 1_555
O8 Sr7 2.920997 1_655
O9 Sr14 2.479896 1_455
O9 Sr10 2.542116 1_455
O9 Sr1 2.662490 1_555
O9 Sr6 2.920997 1_455
O10 Sr13 2.479896 1_565
O10 Sr9 2.542116 1_555
O10 Sr2 2.662490 1_555
O10 Sr5 2.920997 1_555
O11 Sr12 2.479896 1_555
O11 Sr8 2.542116 1_555
O11 Sr3 2.662490 1_555
O11 Sr4 2.920997 1_555
O12 Sr0 2.610209 1_555
O12 Sr15 2.617322 1_565
O12 Sr11 2.678971 1_555
O12 Sr5 2.740722 1_554
O13 Sr1 2.610209 1_555
O13 Sr14 2.617322 1_555
O13 Sr10 2.678971 1_555
O13 Sr4 2.740722 1_556
O14 Sr2 2.610209 1_455
O14 Sr13 2.617322 1_565
O14 Sr9 2.678971 1_555
O14 Sr7 2.740722 1_555
O15 Sr3 2.610209 1_655
O15 Sr12 2.617322 1_555
O15 Sr8 2.678971 1_555
O15 Sr6 2.740722 1_555
O16 Sr4 2.571937 1_555
O16 Sr0 2.593636 1_555
O16 Sr11 2.614430 1_555
O16 Sr12 2.832610 1_555
O17 Sr5 2.571937 1_545
O17 Sr1 2.593636 1_555
O17 Sr10 2.614430 1_555
O17 Sr13 2.832610 1_555
O18 Sr6 2.571937 1_555
O18 Sr2 2.593636 1_555
O18 Sr9 2.614430 1_655
O18 Sr14 2.832610 1_555
O19 Sr7 2.571937 1_545
O19 Sr3 2.593636 1_555
O19 Sr8 2.614430 1_455
O19 Sr15 2.832610 1_555
O20 Sr11 2.472536 1_555
O20 Sr7 2.581529 1_555
O20 Sr12 2.727211 1_555
O21 Sr10 2.472536 1_555
O21 Sr6 2.581529 1_555
O21 Sr13 2.727211 1_555
O22 Sr9 2.472536 1_555
O22 Sr5 2.581529 1_555
O22 Sr14 2.727211 1_455
O23 Sr8 2.472536 1_555
O23 Sr4 2.581529 1_555
O23 Sr15 2.727211 1_655
O24 Sr1 2.463205 1_554
O24 Sr4 2.590434 1_555
O24 Sr15 2.597864 1_555
O25 Sr0 2.463205 1_556
O25 Sr5 2.590434 1_555
O25 Sr14 2.597864 1_555
O26 Sr3 2.463205 1_555
O26 Sr6 2.590434 1_455
O26 Sr13 2.597864 1_555
O27 Sr2 2.463205 1_555
O27 Sr7 2.590434 1_655
O27 Sr12 2.597864 1_555
O28 Sr4 2.513853 1_555
O28 Sr11 2.524418 1_655
O28 Sr12 2.535836 1_555
O29 Sr5 2.513853 1_555
O29 Sr10 2.524418 1_465
O29 Sr13 2.535836 1_565
O30 Sr6 2.513853 1_555
O30 Sr9 2.524418 1_555
O30 Sr14 2.535836 1_555
O31 Sr7 2.513853 1_555
O31 Sr8 2.524418 1_565
O31 Sr15 2.535836 1_565
