# generated using pymatgen
data_CeSe2
_symmetry_space_group_name_H-M   'P 1'
_cell_length_a   12.30447232
_cell_length_b   12.30447232
_cell_length_c   14.76611546
_cell_angle_alpha   53.98209132
_cell_angle_beta   53.98209132
_cell_angle_gamma   39.08690094
_symmetry_Int_Tables_number   1
_chemical_formula_structural   CeSe2
_chemical_formula_sum   'Ce6 Se12'
_cell_volume   1101.46025866
_cell_formula_units_Z   6
loop_
 _symmetry_equiv_pos_site_id
 _symmetry_equiv_pos_as_xyz
  1  'x, y, z'
loop_
 _atom_site_type_symbol
 _atom_site_label
 _atom_site_symmetry_multiplicity
 _atom_site_fract_x
 _atom_site_fract_y
 _atom_site_fract_z
 _atom_site_occupancy
  Ce  Ce0  1  0.01210100  0.98789900  0.25000000  1
  Ce  Ce1  1  0.98789900  0.01210100  0.75000000  1
  Ce  Ce2  1  0.57872900  0.08605400  0.65720300  1
  Ce  Ce3  1  0.91394600  0.42127100  0.84279700  1
  Ce  Ce4  1  0.42127100  0.91394600  0.34279700  1
  Ce  Ce5  1  0.08605400  0.57872900  0.15720300  1
  Se  Se0  1  0.64804100  0.78070900  0.81625700  1
  Se  Se1  1  0.21929100  0.35195900  0.68374300  1
  Se  Se2  1  0.35195900  0.21929100  0.18374300  1
  Se  Se3  1  0.78070900  0.64804100  0.31625700  1
  Se  Se4  1  0.71955900  0.07134400  0.43401500  1
  Se  Se5  1  0.92865600  0.28044100  0.06598500  1
  Se  Se6  1  0.28044100  0.92865600  0.56598500  1
  Se  Se7  1  0.07134400  0.71955900  0.93401500  1
  Se  Se8  1  0.71335300  0.13864200  0.70769200  1
  Se  Se9  1  0.86135800  0.28664700  0.79230800  1
  Se  Se10  1  0.28664700  0.86135800  0.29230800  1
  Se  Se11  1  0.13864200  0.71335300  0.20769200  1
loop_
_geom_bond_atom_site_label_1
_geom_bond_atom_site_label_2
_geom_bond_distance
_geom_bond_site_symmetry_2
Ce0 Se11 2.720147 1_555
Ce0 Se10 2.720147 1_555
Ce0 Se4 2.726739 1_465
Ce0 Se5 2.726739 1_465
Ce1 Se8 2.720147 1_555
Ce1 Se9 2.720147 1_555
Ce1 Se7 2.726739 1_645
Ce1 Se6 2.726739 1_645
Ce2 Se0 2.713484 1_545
Ce2 Se4 2.719363 1_555
Ce2 Se8 2.720677 1_555
Ce2 Se1 2.724853 1_555
Ce3 Se1 2.713484 1_655
Ce3 Se5 2.719363 1_556
Ce3 Se9 2.720677 1_555
Ce3 Se0 2.724853 1_555
Ce4 Se2 2.713484 1_565
Ce4 Se6 2.719363 1_555
Ce4 Se10 2.720677 1_555
Ce4 Se3 2.724853 1_555
Ce5 Se3 2.713484 1_455
Ce5 Se7 2.719363 1_554
Ce5 Se11 2.720677 1_555
Ce5 Se2 2.724853 1_555
