# generated using pymatgen
data_K5Na3Ta3Nb5O20
_symmetry_space_group_name_H-M   'P 1'
_cell_length_a   11.49884390
_cell_length_b   11.51270857
_cell_length_c   17.80944120
_cell_angle_alpha   108.99397442
_cell_angle_beta   108.70007065
_cell_angle_gamma   90.27117390
_symmetry_Int_Tables_number   1
_chemical_formula_structural   K5Na3Ta3Nb5O20
_chemical_formula_sum   'K20 Na12 Ta12 Nb20 O80'
_cell_volume   2095.89140601
_cell_formula_units_Z   4
loop_
 _symmetry_equiv_pos_site_id
 _symmetry_equiv_pos_as_xyz
  1  'x, y, z'
loop_
 _atom_site_type_symbol
 _atom_site_label
 _atom_site_symmetry_multiplicity
 _atom_site_fract_x
 _atom_site_fract_y
 _atom_site_fract_z
 _atom_site_occupancy
  K  K0  1  0.30647053  0.05765411  0.12295732  1
  K  K1  1  0.30850625  0.55700293  0.12066709  1
  K  K2  1  0.79779159  0.06093480  0.11192220  1
  K  K3  1  0.80998194  0.56040995  0.12304703  1
  K  K4  1  0.81327466  0.57084169  0.62575993  1
  K  K5  1  0.20034208  0.93874705  0.38697730  1
  K  K6  1  0.19016142  0.92712016  0.87670854  1
  K  K7  1  0.69367603  0.44526145  0.38446279  1
  K  K8  1  0.68346616  0.42710594  0.87783518  1
  K  K9  1  0.69394752  0.93885557  0.37843697  1
  K  K10  1  0.68748485  0.92058881  0.87390044  1
  K  K11  1  0.05587486  0.30655916  0.12246113  1
  K  K12  1  0.06247501  0.80034667  0.11686123  1
  K  K13  1  0.55663758  0.31209893  0.12080366  1
  K  K14  1  0.56171294  0.81040933  0.12315653  1
  K  K15  1  0.43666554  0.18648590  0.38002489  1
  K  K16  1  0.44494221  0.68938425  0.38390605  1
  K  K17  1  0.44393461  0.70367426  0.88963040  1
  K  K18  1  0.94299365  0.69093343  0.38134620  1
  K  K19  1  0.93335091  0.69066560  0.87292719  1
  Na  Na0  1  0.29700835  0.07762110  0.60514284  1
  Na  Na1  1  0.30236935  0.56647174  0.60227398  1
  Na  Na2  1  0.80105988  0.06381891  0.59888612  1
  Na  Na3  1  0.20035596  0.44185931  0.39126755  1
  Na  Na4  1  0.19610140  0.42761643  0.89429038  1
  Na  Na5  1  0.05011296  0.28133476  0.60599474  1
  Na  Na6  1  0.05765562  0.79373947  0.60969055  1
  Na  Na7  1  0.54993513  0.29286501  0.60554273  1
  Na  Na8  1  0.55770431  0.79213427  0.61001891  1
  Na  Na9  1  0.44086418  0.21116654  0.89526340  1
  Na  Na10  1  0.95156171  0.21114167  0.40134995  1
  Na  Na11  1  0.94598886  0.21115432  0.89870637  1
  Ta  Ta0  1  0.99848826  0.99711116  0.99969353  1
  Ta  Ta1  1  0.99820494  0.49618601  0.99865357  1
  Ta  Ta2  1  0.49799416  0.00008098  0.99951855  1
  Ta  Ta3  1  0.50509691  0.00187384  0.50486352  1
  Ta  Ta4  1  0.49719058  0.49920079  0.99847612  1
  Ta  Ta5  1  0.50539870  0.50118696  0.50409602  1
  Ta  Ta6  1  0.24723592  0.24658265  0.99886836  1
  Ta  Ta7  1  0.24801649  0.74524100  0.99752125  1
  Ta  Ta8  1  0.25588419  0.75284437  0.50449540  1
  Ta  Ta9  1  0.74582254  0.24635937  0.99781592  1
  Ta  Ta10  1  0.75480688  0.25026519  0.50166606  1
  Ta  Ta11  1  0.74988136  0.74721896  0.00049681  1
  Nb  Nb0  1  0.00364957  0.00060928  0.50191319  1
  Nb  Nb1  1  0.00694697  0.50276888  0.50553187  1
  Nb  Nb2  1  0.25232578  0.25462426  0.50343048  1
  Nb  Nb3  1  0.75849704  0.75301502  0.50441807  1
  Nb  Nb4  1  0.10754101  0.09812671  0.25425954  1
  Nb  Nb5  1  0.08506687  0.08910305  0.74721540  1
  Nb  Nb6  1  0.12441626  0.61067358  0.25316451  1
  Nb  Nb7  1  0.14319403  0.56407426  0.74964483  1
  Nb  Nb8  1  0.62264497  0.11346005  0.25159994  1
  Nb  Nb9  1  0.58204034  0.08553992  0.74646322  1
  Nb  Nb10  1  0.62156777  0.61471452  0.25245437  1
  Nb  Nb11  1  0.58993076  0.57961911  0.74660168  1
  Nb  Nb12  1  0.37231044  0.38556668  0.25317693  1
  Nb  Nb13  1  0.34640425  0.42391974  0.74760353  1
  Nb  Nb14  1  0.37145611  0.88128712  0.25117266  1
  Nb  Nb15  1  0.37161189  0.92777710  0.74574115  1
  Nb  Nb16  1  0.86917865  0.38430695  0.25386842  1
  Nb  Nb17  1  0.86757948  0.38633961  0.74753778  1
  Nb  Nb18  1  0.89570931  0.92105383  0.25339823  1
  Nb  Nb19  1  0.87506601  0.93814095  0.74845404  1
  O  O0  1  0.12726969  0.12967713  0.50313078  1
  O  O1  1  0.11728679  0.11832600  0.99263197  1
  O  O2  1  0.13368357  0.62899611  0.50410376  1
  O  O3  1  0.11822072  0.61256564  0.98603136  1
  O  O4  1  0.62775254  0.12570465  0.50249221  1
  O  O5  1  0.61485843  0.11897586  0.98827445  1
  O  O6  1  0.62750699  0.62763605  0.50647070  1
  O  O7  1  0.62473783  0.62314671  0.99923105  1
  O  O8  1  0.12209486  0.36884801  0.99670924  1
  O  O9  1  0.13315221  0.38012847  0.50861677  1
  O  O10  1  0.12006711  0.86946444  0.99493296  1
  O  O11  1  0.14175578  0.88212910  0.51797012  1
  O  O12  1  0.61805342  0.36927541  0.99473780  1
  O  O13  1  0.63323659  0.37932783  0.51420839  1
  O  O14  1  0.62366466  0.87412446  0.99905688  1
  O  O15  1  0.63706447  0.88919148  0.52087175  1
  O  O16  1  0.38014543  0.12441946  0.50373247  1
  O  O17  1  0.36833639  0.11934064  0.98781664  1
  O  O18  1  0.37727748  0.62210730  0.50079731  1
  O  O19  1  0.36818824  0.61804456  0.99255663  1
  O  O20  1  0.87403343  0.12465131  0.49435310  1
  O  O21  1  0.86801423  0.11736721  0.98754469  1
  O  O22  1  0.88128144  0.62866950  0.50413953  1
  O  O23  1  0.87104694  0.61789867  0.99220547  1
  O  O24  1  0.36869753  0.36966516  0.99353315  1
  O  O25  1  0.38150881  0.38053242  0.50928306  1
  O  O26  1  0.37212613  0.87460260  0.99816789  1
  O  O27  1  0.38842724  0.88132126  0.51637774  1
  O  O28  1  0.87119366  0.36942838  0.99718872  1
  O  O29  1  0.88544261  0.37756525  0.51538878  1
  O  O30  1  0.86946723  0.86843866  0.99024891  1
  O  O31  1  0.88366406  0.88080668  0.50812973  1
  O  O32  1  0.05176510  0.05682869  0.12153247  1
  O  O33  1  0.06140813  0.09338817  0.63715670  1
  O  O34  1  0.06231343  0.56148647  0.12177860  1
  O  O35  1  0.09119185  0.59002477  0.64368367  1
  O  O36  1  0.55708743  0.06816826  0.12037119  1
  O  O37  1  0.56399603  0.09980846  0.63958241  1
  O  O38  1  0.55635376  0.56326022  0.12147302  1
  O  O39  1  0.56270708  0.57978466  0.63412964  1
  O  O40  1  0.44328962  0.42899446  0.37886022  1
  O  O41  1  0.43051748  0.43396902  0.86480357  1
  O  O42  1  0.44274335  0.92906092  0.38140912  1
  O  O43  1  0.43417759  0.91955820  0.85651726  1
  O  O44  1  0.93791879  0.42609862  0.37796928  1
  O  O45  1  0.93293519  0.40337206  0.86593905  1
  O  O46  1  0.94914362  0.93289056  0.37214539  1
  O  O47  1  0.93701081  0.91993479  0.85636065  1
  O  O48  1  0.30790385  0.30382204  0.12131368  1
  O  O49  1  0.31940576  0.30652773  0.63702810  1
  O  O50  1  0.30698428  0.80099788  0.11990437  1
  O  O51  1  0.34022125  0.79720061  0.64118666  1
  O  O52  1  0.80471963  0.30117920  0.11980128  1
  O  O53  1  0.82608091  0.28090658  0.63189952  1
  O  O54  1  0.82225674  0.81649230  0.12461450  1
  O  O55  1  0.84902187  0.80925458  0.64596292  1
  O  O56  1  0.18896749  0.19245550  0.37444621  1
  O  O57  1  0.17484166  0.18814748  0.86299617  1
  O  O58  1  0.19257182  0.69797579  0.38116489  1
  O  O59  1  0.19419263  0.68709057  0.86184704  1
  O  O60  1  0.68926902  0.19951127  0.37762961  1
  O  O61  1  0.67324642  0.18492752  0.86136108  1
  O  O62  1  0.68693802  0.69574973  0.37829011  1
  O  O63  1  0.67197900  0.67644441  0.86624675  1
  O  O64  1  0.49175205  0.00266345  0.25091533  1
  O  O65  1  0.40894131  0.09972099  0.74788641  1
  O  O66  1  0.49437453  0.49743997  0.25010237  1
  O  O67  1  0.41574283  0.57749668  0.73781541  1
  O  O68  1  0.94453975  0.09931154  0.26425455  1
  O  O69  1  0.91119522  0.11010232  0.74799936  1
  O  O70  1  0.99306347  0.49916905  0.25176734  1
  O  O71  1  0.97442567  0.51419697  0.74817967  1
  O  O72  1  0.23431030  0.47772690  0.25605619  1
  O  O73  1  0.17203496  0.39088775  0.74941138  1
  O  O74  1  0.23818720  0.98566246  0.24939422  1
  O  O75  1  0.19713557  0.95465417  0.73580054  1
  O  O76  1  0.74437445  0.49559273  0.25084314  1
  O  O77  1  0.71854161  0.46334193  0.74035162  1
  O  O78  1  0.73691839  0.99184125  0.24655985  1
  O  O79  1  0.69848010  0.95762850  0.73628894  1
loop_
_geom_bond_atom_site_label_1
_geom_bond_atom_site_label_2
_geom_bond_distance
_geom_bond_site_symmetry_2
K0 O64 2.823431 1_555
K0 O26 2.827119 1_544
K0 O48 2.843746 1_555
K0 O10 2.844933 1_544
K0 O36 2.899484 1_555
K0 O1 2.905070 1_554
K0 O32 2.920725 1_555
K0 O50 2.937631 1_545
K0 O74 2.952343 1_545
K0 O17 3.001453 1_554
K1 O50 2.813603 1_555
K1 O8 2.823017 1_554
K1 O34 2.837937 1_555
K1 O24 2.845608 1_554
K1 O38 2.845843 1_555
K1 O19 2.865936 1_554
K1 O66 2.869774 1_555
K1 O48 2.918550 1_555
K1 O3 2.931492 1_554
K1 O72 3.181041 1_555
K2 O68 2.584563 1_555
K2 O14 2.690607 1_544
K2 O52 2.722893 1_555
K2 O5 2.778741 1_554
K2 O36 2.819838 1_555
K2 O21 2.838926 1_554
K2 O32 2.871644 1_655
K2 O30 2.884917 1_544
K2 O54 2.903572 1_545
K2 O78 3.030643 1_545
K3 O7 2.821492 1_554
K3 O70 2.855845 1_555
K3 O28 2.858707 1_554
K3 O12 2.895097 1_554
K3 O23 2.899949 1_554
K3 O38 2.908008 1_555
K3 O34 2.908841 1_655
K3 O76 2.916722 1_555
K3 O54 2.941523 1_555
K3 O52 2.966089 1_555
K4 O71 2.637954 1_555
K4 O55 2.661552 1_555
K4 O6 2.740688 1_555
K4 O13 2.749955 1_555
K4 O29 2.778489 1_555
K4 O22 2.786776 1_555
K4 O39 2.933012 1_555
K4 O35 3.107514 1_655
K4 O77 3.152789 1_555
K5 O16 2.734197 1_565
K5 O58 2.739934 1_555
K5 O46 2.813364 1_455
K5 O42 2.822142 1_555
K5 O0 2.826508 1_565
K5 O74 2.833368 1_555
K5 O27 2.869647 1_555
K5 O11 2.883512 1_555
K5 O56 3.001270 1_565
K6 O75 2.655388 1_555
K6 O59 2.691006 1_555
K6 O26 2.717314 1_555
K6 O10 2.741584 1_555
K6 O17 2.741796 1_565
K6 O47 2.813098 1_455
K6 O1 2.824663 1_565
K6 O43 2.939203 1_555
K6 O57 3.094612 1_565
K7 O22 2.781019 1_555
K7 O60 2.791523 1_555
K7 O6 2.795410 1_555
K7 O76 2.850002 1_555
K7 O40 2.851855 1_555
K7 O44 2.854346 1_555
K7 O62 2.921882 1_555
K7 O13 2.926603 1_555
K7 O66 2.961608 1_555
K7 O29 2.967992 1_555
K8 O12 2.691719 1_555
K8 O61 2.704786 1_555
K8 O28 2.758449 1_555
K8 O77 2.761963 1_555
K8 O23 2.802093 1_555
K8 O7 2.828158 1_555
K8 O41 2.846298 1_555
K8 O63 2.944811 1_555
K8 O45 2.950913 1_555
K9 O20 2.732715 1_565
K9 O78 2.793985 1_555
K9 O62 2.798712 1_555
K9 O4 2.843976 1_565
K9 O31 2.885865 1_555
K9 O42 2.908286 1_555
K9 O64 2.969755 1_565
K9 O46 2.972552 1_555
K9 O60 3.006217 1_565
K9 O15 3.032166 1_555
K10 O30 2.659755 1_555
K10 O79 2.661321 1_555
K10 O14 2.759402 1_555
K10 O63 2.771469 1_555
K10 O21 2.795467 1_565
K10 O43 2.828268 1_555
K10 O5 2.853690 1_565
K10 O47 2.983904 1_555
K10 O61 3.124377 1_565
K11 O72 2.744715 1_555
K11 O28 2.835274 1_454
K11 O32 2.869812 1_555
K11 O8 2.871150 1_554
K11 O52 2.873198 1_455
K11 O1 2.888064 1_554
K11 O21 2.899039 1_454
K11 O48 2.904906 1_555
K11 O70 2.915420 1_455
K11 O34 2.939563 1_555
K12 O34 2.779675 1_555
K12 O50 2.794596 1_555
K12 O74 2.797951 1_555
K12 O10 2.798025 1_554
K12 O54 2.813587 1_455
K12 O23 2.823679 1_454
K12 O3 2.864516 1_554
K12 O30 2.929640 1_454
K12 O32 2.931082 1_565
K13 O36 2.805839 1_555
K13 O12 2.819062 1_554
K13 O76 2.837745 1_555
K13 O24 2.845613 1_554
K13 O52 2.861531 1_555
K13 O48 2.864309 1_555
K13 O66 2.870787 1_555
K13 O38 2.887710 1_555
K13 O17 2.909864 1_554
K13 O5 2.928106 1_554
K14 O78 2.717483 1_555
K14 O7 2.826182 1_554
K14 O14 2.826700 1_554
K14 O38 2.835907 1_555
K14 O26 2.868465 1_554
K14 O50 2.911831 1_555
K14 O19 2.923682 1_554
K14 O64 2.938638 1_565
K14 O36 2.984458 1_565
K14 O54 2.988019 1_555
K15 O16 2.779464 1_555
K15 O40 2.799608 1_555
K15 O64 2.818885 1_555
K15 O56 2.819914 1_555
K15 O4 2.830154 1_555
K15 O25 2.879989 1_555
K15 O60 2.922462 1_555
K15 O13 2.963818 1_555
K15 O42 2.972739 1_545
K15 O74 3.001786 1_545
K16 O18 2.760718 1_555
K16 O42 2.774224 1_555
K16 O6 2.786197 1_555
K16 O62 2.817790 1_555
K16 O66 2.887478 1_555
K16 O58 2.889395 1_555
K16 O27 2.911082 1_555
K16 O40 2.969546 1_555
K16 O15 2.994329 1_555
K16 O72 3.128045 1_555
K17 O67 2.530295 1_555
K17 O14 2.609510 1_555
K17 O26 2.617914 1_555
K17 O19 2.698619 1_555
K17 O43 2.729821 1_555
K17 O59 2.747791 1_555
K17 O7 2.754248 1_555
K17 O63 2.787638 1_555
K17 O41 2.986405 1_555
K18 O22 2.794735 1_555
K18 O2 2.837563 1_655
K18 O70 2.842312 1_555
K18 O46 2.844996 1_555
K18 O31 2.851515 1_555
K18 O58 2.871688 1_655
K18 O62 2.928472 1_555
K18 O76 2.969986 1_555
K18 O11 2.981502 1_655
K18 O44 3.029838 1_555
K19 O71 2.651477 1_555
K19 O30 2.703504 1_555
K19 O47 2.751303 1_555
K19 O10 2.761070 1_655
K19 O3 2.799325 1_655
K19 O23 2.802900 1_555
K19 O63 2.971063 1_555
K19 O59 3.067949 1_655
K19 O45 3.269062 1_555
K19 O77 3.271401 1_555
Na0 O65 2.379453 1_555
Na0 O0 2.432159 1_555
Na0 O16 2.490318 1_555
Na0 O49 2.501890 1_555
Na0 O11 2.563783 1_545
Na0 O27 2.733865 1_545
Na0 O37 2.924004 1_555
Na0 O33 2.936859 1_555
Na1 O67 2.307322 1_555
Na1 O2 2.448500 1_555
Na1 O18 2.482900 1_555
Na1 O51 2.514572 1_555
Na1 O9 2.592440 1_555
Na1 O25 2.613507 1_555
Na1 O35 2.745620 1_555
Na1 O39 2.856032 1_555
Na2 O53 2.367067 1_555
Na2 O69 2.419930 1_555
Na2 O15 2.448295 1_545
Na2 O4 2.458052 1_555
Na2 O20 2.550541 1_555
Na2 O31 2.596272 1_545
Na2 O33 2.841413 1_655
Na3 O18 2.651510 1_555
Na3 O72 2.714814 1_555
Na3 O25 2.725362 1_555
Na3 O2 2.730023 1_555
Na3 O9 2.732628 1_555
Na3 O56 2.786161 1_555
Na3 O40 2.872730 1_555
Na3 O44 2.950293 1_455
Na4 O73 2.396606 1_555
Na4 O24 2.457380 1_555
Na4 O8 2.510421 1_555
Na4 O3 2.587851 1_555
Na4 O57 2.622432 1_555
Na4 O19 2.650587 1_555
Na4 O45 2.900117 1_455
Na4 O41 2.911655 1_555
Na5 O73 2.381217 1_555
Na5 O33 2.396853 1_555
Na5 O0 2.483238 1_555
Na5 O20 2.521110 1_455
Na5 O29 2.577001 1_455
Na5 O9 2.747461 1_555
Na5 O53 2.759105 1_455
Na5 O49 2.961078 1_555
Na6 O75 2.449958 1_555
Na6 O22 2.540051 1_455
Na6 O2 2.577955 1_555
Na6 O11 2.593190 1_555
Na6 O35 2.607446 1_555
Na6 O55 2.669707 1_455
Na6 O31 2.675413 1_455
Na7 O37 2.480171 1_555
Na7 O16 2.503104 1_555
Na7 O13 2.568714 1_555
Na7 O4 2.577356 1_555
Na7 O25 2.593115 1_555
Na7 O77 2.699445 1_555
Na7 O49 2.875010 1_555
Na8 O79 2.480957 1_555
Na8 O6 2.514318 1_555
Na8 O15 2.583823 1_555
Na8 O27 2.583865 1_555
Na8 O18 2.610563 1_555
Na8 O39 2.614032 1_555
Na8 O51 2.726896 1_555
Na9 O65 2.419843 1_555
Na9 O24 2.438869 1_555
Na9 O12 2.480804 1_555
Na9 O17 2.556857 1_555
Na9 O5 2.629207 1_555
Na9 O41 2.784822 1_555
Na9 O61 2.918823 1_555
Na9 O57 2.919530 1_555
Na10 O68 2.334923 1_555
Na10 O20 2.557673 1_555
Na10 O9 2.603639 1_655
Na10 O29 2.616259 1_555
Na10 O44 2.637211 1_555
Na10 O0 2.650221 1_655
Na10 O60 2.904372 1_555
Na10 O56 2.916394 1_655
Na11 O69 2.447831 1_555
Na11 O28 2.457227 1_555
Na11 O45 2.459231 1_555
Na11 O8 2.465605 1_655
Na11 O21 2.546664 1_555
Na11 O1 2.625056 1_655
Na11 O57 2.893052 1_655
Na11 O61 2.981979 1_555
Nb0 O31 1.999371 1_445
Nb0 O0 2.041648 1_555
Nb0 O46 2.058032 1_445
Nb0 O20 2.072561 1_455
Nb0 O11 2.108909 1_545
Nb0 O33 2.162466 1_555
Nb1 O44 2.025358 1_455
Nb1 O9 2.030107 1_555
Nb1 O22 2.051788 1_455
Nb1 O2 2.064960 1_555
Nb1 O29 2.088904 1_455
Nb1 O35 2.203347 1_555
Nb2 O9 1.996788 1_555
Nb2 O25 2.024996 1_555
Nb2 O0 2.026721 1_555
Nb2 O56 2.042447 1_555
Nb2 O16 2.104363 1_555
Nb2 O49 2.122840 1_555
Nb3 O62 2.000781 1_555
Nb3 O22 2.015384 1_555
Nb3 O31 2.023868 1_555
Nb3 O6 2.098262 1_555
Nb3 O15 2.116019 1_555
Nb3 O55 2.259636 1_555
Nb4 O68 1.938446 1_455
Nb4 O56 1.956976 1_555
Nb4 O74 1.992393 1_545
Nb4 O32 2.125638 1_555
Nb5 O33 1.907752 1_555
Nb5 O57 1.926425 1_555
Nb5 O69 2.018963 1_455
Nb5 O75 2.019880 1_545
Nb6 O70 1.966375 1_455
Nb6 O72 1.992492 1_555
Nb6 O58 2.043664 1_555
Nb6 O34 2.089975 1_555
Nb7 O35 1.911311 1_555
Nb7 O59 1.934231 1_555
Nb7 O71 2.010902 1_455
Nb7 O73 2.021675 1_555
Nb8 O78 1.925195 1_545
Nb8 O64 1.962789 1_555
Nb8 O60 2.012213 1_555
Nb8 O36 2.091782 1_555
Nb9 O37 1.908902 1_555
Nb9 O61 1.919582 1_555
Nb9 O79 1.998664 1_545
Nb9 O65 2.005461 1_555
Nb10 O66 1.966975 1_555
Nb10 O76 1.973430 1_555
Nb10 O62 2.002492 1_555
Nb10 O38 2.080715 1_555
Nb11 O39 1.926312 1_555
Nb11 O63 1.956500 1_555
Nb11 O67 1.957806 1_555
Nb11 O77 2.004692 1_555
Nb12 O72 1.918110 1_555
Nb12 O66 1.926138 1_555
Nb12 O40 2.005626 1_555
Nb12 O48 2.094927 1_555
Nb13 O49 1.916392 1_555
Nb13 O41 1.962851 1_555
Nb13 O67 2.017086 1_555
Nb13 O73 2.051343 1_555
Nb14 O74 1.950487 1_555
Nb14 O64 1.963676 1_565
Nb14 O42 2.073743 1_555
Nb14 O50 2.084449 1_555
Nb15 O51 1.897154 1_555
Nb15 O43 1.905454 1_555
Nb15 O75 1.991485 1_555
Nb15 O65 2.009104 1_565
Nb16 O76 1.927864 1_555
Nb16 O70 1.956508 1_555
Nb16 O44 1.981185 1_555
Nb16 O52 2.130083 1_555
Nb17 O71 1.907686 1_555
Nb17 O53 1.918215 1_555
Nb17 O77 1.920117 1_555
Nb17 O45 1.939840 1_555
Nb18 O46 1.961365 1_555
Nb18 O78 1.987219 1_555
Nb18 O68 2.055601 1_565
Nb18 O54 2.091389 1_555
Nb19 O55 1.872281 1_555
Nb19 O47 1.905337 1_555
Nb19 O79 1.993540 1_555
Nb19 O69 2.024066 1_565
O1 Ta0 2.008907 1_445
O1 Ta6 2.047290 1_555
O2 Ta8 1.993942 1_555
O3 Ta1 2.031677 1_455
O3 Ta7 2.044914 1_555
O4 Ta3 2.020340 1_555
O4 Ta10 2.049097 1_555
O5 Ta2 2.013230 1_555
O5 Ta9 2.024898 1_555
O6 Ta5 1.998766 1_555
O7 Ta11 2.012555 1_556
O7 Ta4 2.035309 1_555
O8 Ta6 2.018022 1_555
O8 Ta1 2.048948 1_455
O10 Ta0 2.033615 1_455
O10 Ta7 2.057043 1_555
O11 Ta8 1.995783 1_555
O12 Ta9 2.045134 1_555
O12 Ta4 2.046341 1_555
O13 Ta5 2.043462 1_555
O13 Ta10 2.053215 1_555
O14 Ta2 2.052015 1_565
O14 Ta11 2.064523 1_556
O15 Ta3 2.012191 1_565
O16 Ta3 2.018506 1_555
O17 Ta6 2.032522 1_555
O17 Ta2 2.039066 1_555
O18 Ta5 2.032008 1_555
O18 Ta8 2.057323 1_555
O19 Ta7 2.018639 1_555
O19 Ta4 2.023946 1_555
O20 Ta10 1.999635 1_555
O21 Ta9 2.054450 1_555
O21 Ta0 2.054502 1_545
O23 Ta1 2.032505 1_555
O23 Ta11 2.046472 1_556
O24 Ta6 2.030182 1_555
O24 Ta4 2.055504 1_555
O25 Ta5 2.028956 1_555
O26 Ta2 2.029159 1_565
O26 Ta7 2.052559 1_555
O27 Ta3 2.027836 1_565
O27 Ta8 2.030647 1_555
O28 Ta9 2.021678 1_555
O28 Ta1 2.047908 1_555
O29 Ta10 1.993667 1_555
O30 Ta0 2.020094 1_555
O30 Ta11 2.044596 1_556
O32 Ta0 1.931038 1_444
O34 Ta1 1.949893 1_454
O36 Ta2 1.915094 1_554
O37 Ta3 2.162485 1_555
O38 Ta4 1.947597 1_554
O39 Ta5 2.065873 1_555
O40 Ta5 1.985379 1_555
O41 Ta4 2.116512 1_555
O42 Ta3 1.958214 1_565
O43 Ta2 2.267663 1_565
O45 Ta1 2.121902 1_555
O47 Ta0 2.272863 1_555
O48 Ta6 1.939342 1_554
O50 Ta7 1.939036 1_554
O51 Ta8 2.190844 1_555
O52 Ta9 1.933054 1_554
O53 Ta10 2.102723 1_555
O54 Ta11 1.970122 1_555
O57 Ta6 2.155084 1_555
O58 Ta8 1.954624 1_555
O59 Ta7 2.157273 1_555
O60 Ta10 1.969078 1_555
O61 Ta9 2.162777 1_555
O63 Ta11 2.129427 1_556
