# generated using pymatgen
data_Hf7P4
_symmetry_space_group_name_H-M   'P 1'
_cell_length_a   3.51971113
_cell_length_b   8.01289669
_cell_length_c   14.65632674
_cell_angle_alpha   104.11284633
_cell_angle_beta   90.00000000
_cell_angle_gamma   102.68717796
_symmetry_Int_Tables_number   1
_chemical_formula_structural   Hf7P4
_chemical_formula_sum   'Hf14 P8'
_cell_volume   390.46257894
_cell_formula_units_Z   2
loop_
 _symmetry_equiv_pos_site_id
 _symmetry_equiv_pos_as_xyz
  1  'x, y, z'
loop_
 _atom_site_type_symbol
 _atom_site_label
 _atom_site_symmetry_multiplicity
 _atom_site_fract_x
 _atom_site_fract_y
 _atom_site_fract_z
 _atom_site_occupancy
  Hf  Hf0  1  0.33906413  0.67812627  0.02970129  1
  Hf  Hf1  1  0.66093587  0.32187373  0.97029871  1
  Hf  Hf2  1  0.00309044  0.00618188  0.66905689  1
  Hf  Hf3  1  0.99690956  0.99381812  0.33094311  1
  Hf  Hf4  1  0.17693348  0.35386695  0.54143090  1
  Hf  Hf5  1  0.82306652  0.64613305  0.45856910  1
  Hf  Hf6  1  0.79519851  0.59039903  0.20295897  1
  Hf  Hf7  1  0.20480149  0.40960097  0.79704103  1
  Hf  Hf8  1  0.80348218  0.60696636  0.68879483  1
  Hf  Hf9  1  0.19651782  0.39303364  0.31120517  1
  Hf  Hf10  1  0.57014273  0.14028446  0.16738583  1
  Hf  Hf11  1  0.42985727  0.85971554  0.83261417  1
  Hf  Hf12  1  0.50000000  0.00000000  0.50000000  1
  Hf  Hf13  1  0.00000000  0.00000000  0.00000000  1
  P  P0  1  0.93747036  0.87493871  0.14748932  1
  P  P1  1  0.06252964  0.12506129  0.85251068  1
  P  P2  1  0.62956299  0.25912397  0.66065335  1
  P  P3  1  0.37043701  0.74087603  0.33934665  1
  P  P4  1  0.62527352  0.25054505  0.40066711  1
  P  P5  1  0.37472648  0.74945495  0.59933289  1
  P  P6  1  0.82216413  0.64432927  0.88934041  1
  P  P7  1  0.17783587  0.35567073  0.11065959  1
loop_
_geom_bond_atom_site_label_1
_geom_bond_atom_site_label_2
_geom_bond_distance
_geom_bond_site_symmetry_2
Hf0 P0 2.667724 1_455
Hf0 P0 2.667724 1_555
Hf0 P6 2.669674 1_554
Hf0 P6 2.669681 1_454
Hf0 P7 3.042532 1_555
Hf1 P1 2.667724 1_655
Hf1 P1 2.667724 1_555
Hf1 P7 2.669674 1_556
Hf1 P7 2.669681 1_656
Hf1 P6 3.042532 1_555
Hf2 P1 2.616108 1_555
Hf2 P2 2.672778 1_455
Hf2 P2 2.672785 1_555
Hf2 P5 2.672798 1_545
Hf2 P5 2.672800 1_445
Hf3 P0 2.616108 1_555
Hf3 P3 2.672778 1_655
Hf3 P3 2.672785 1_555
Hf3 P4 2.672798 1_565
Hf3 P4 2.672800 1_665
Hf4 P4 2.678208 1_455
Hf4 P4 2.678212 1_555
Hf4 P2 2.710313 1_455
Hf4 P2 2.710317 1_555
Hf4 P5 2.995223 1_555
Hf5 P5 2.678208 1_655
Hf5 P5 2.678212 1_555
Hf5 P3 2.710313 1_655
Hf5 P3 2.710317 1_555
Hf5 P4 2.995223 1_555
Hf6 P0 2.551952 1_555
Hf6 P7 2.655792 1_555
Hf6 P7 2.655799 1_655
Hf6 P3 2.702072 1_655
Hf6 P3 2.702072 1_555
Hf7 P1 2.551952 1_555
Hf7 P6 2.655792 1_555
Hf7 P6 2.655799 1_455
Hf7 P2 2.702072 1_455
Hf7 P2 2.702072 1_555
Hf8 P5 2.605197 1_555
Hf8 P5 2.605197 1_655
Hf8 P2 2.646392 1_555
Hf8 P6 2.880180 1_555
Hf9 P4 2.605197 1_555
Hf9 P4 2.605197 1_455
Hf9 P3 2.646392 1_555
Hf9 P7 2.880180 1_555
Hf10 P0 2.679995 1_445
Hf10 P0 2.679998 1_545
Hf10 P7 2.706104 1_555
Hf10 P7 2.706104 1_655
Hf10 P4 3.310543 1_555
Hf11 P1 2.679995 1_665
Hf11 P1 2.679998 1_565
Hf11 P6 2.706104 1_555
Hf11 P6 2.706104 1_455
Hf11 P5 3.310543 1_555
Hf12 P3 2.695022 1_545
Hf12 P2 2.695022 1_555
Hf12 P5 2.716773 1_545
Hf12 P4 2.716773 1_555
Hf13 P0 2.585515 1_445
Hf13 P1 2.585515 1_554
Hf13 P7 2.847241 1_555
Hf13 P6 2.847241 1_444
