# generated using pymatgen
data_HfMg30NiO32
_symmetry_space_group_name_H-M   'P 1'
_cell_length_a   8.61948900
_cell_length_b   8.61948900
_cell_length_c   8.56097200
_cell_angle_alpha   90.00000000
_cell_angle_beta   90.00000000
_cell_angle_gamma   90.00000000
_symmetry_Int_Tables_number   1
_chemical_formula_structural   HfMg30NiO32
_chemical_formula_sum   'Hf1 Mg30 Ni1 O32'
_cell_volume   636.04247103
_cell_formula_units_Z   1
loop_
 _symmetry_equiv_pos_site_id
 _symmetry_equiv_pos_as_xyz
  1  'x, y, z'
loop_
 _atom_site_type_symbol
 _atom_site_label
 _atom_site_symmetry_multiplicity
 _atom_site_fract_x
 _atom_site_fract_y
 _atom_site_fract_z
 _atom_site_occupancy
  Hf  Hf0  1  0.50000000  0.50000000  0.00000000  1
  Mg  Mg0  1  0.50000000  0.00000000  0.00000000  1
  Mg  Mg1  1  0.00000000  0.50000000  0.00000000  1
  Mg  Mg2  1  0.00000000  0.00000000  0.50000000  1
  Mg  Mg3  1  0.50000000  0.00000000  0.50000000  1
  Mg  Mg4  1  0.00000000  0.50000000  0.50000000  1
  Mg  Mg5  1  0.50000000  0.50000000  0.50000000  1
  Mg  Mg6  1  0.23915200  0.23915200  0.00000000  1
  Mg  Mg7  1  0.76084800  0.23915200  0.00000000  1
  Mg  Mg8  1  0.23915200  0.76084800  0.00000000  1
  Mg  Mg9  1  0.76084800  0.76084800  0.00000000  1
  Mg  Mg10  1  0.24765200  0.24765200  0.50000000  1
  Mg  Mg11  1  0.75234800  0.24765200  0.50000000  1
  Mg  Mg12  1  0.24765200  0.75234800  0.50000000  1
  Mg  Mg13  1  0.75234800  0.75234800  0.50000000  1
  Mg  Mg14  1  0.24644100  0.00000000  0.24834700  1
  Mg  Mg15  1  0.75355900  0.00000000  0.24834700  1
  Mg  Mg16  1  0.24203800  0.50000000  0.25583800  1
  Mg  Mg17  1  0.75796200  0.50000000  0.25583800  1
  Mg  Mg18  1  0.24644100  0.00000000  0.75165300  1
  Mg  Mg19  1  0.75355900  0.00000000  0.75165300  1
  Mg  Mg20  1  0.24203800  0.50000000  0.74416200  1
  Mg  Mg21  1  0.75796200  0.50000000  0.74416200  1
  Mg  Mg22  1  0.00000000  0.24644100  0.24834700  1
  Mg  Mg23  1  0.50000000  0.24203800  0.25583800  1
  Mg  Mg24  1  0.00000000  0.75355900  0.24834700  1
  Mg  Mg25  1  0.50000000  0.75796200  0.25583800  1
  Mg  Mg26  1  0.00000000  0.24644100  0.75165300  1
  Mg  Mg27  1  0.50000000  0.24203800  0.74416200  1
  Mg  Mg28  1  0.00000000  0.75355900  0.75165300  1
  Mg  Mg29  1  0.50000000  0.75796200  0.74416200  1
  Ni  Ni0  1  0.00000000  0.00000000  0.00000000  1
  O  O0  1  0.00000000  0.00000000  0.25790800  1
  O  O1  1  0.50000000  0.00000000  0.25200700  1
  O  O2  1  0.00000000  0.50000000  0.25200700  1
  O  O3  1  0.50000000  0.50000000  0.24528400  1
  O  O4  1  0.00000000  0.00000000  0.74209200  1
  O  O5  1  0.50000000  0.00000000  0.74799300  1
  O  O6  1  0.00000000  0.50000000  0.74799300  1
  O  O7  1  0.50000000  0.50000000  0.75471600  1
  O  O8  1  0.25085300  0.25085300  0.24885800  1
  O  O9  1  0.74914700  0.25085300  0.24885800  1
  O  O10  1  0.25085300  0.74914700  0.24885800  1
  O  O11  1  0.74914700  0.74914700  0.24885800  1
  O  O12  1  0.25085300  0.25085300  0.75114200  1
  O  O13  1  0.74914700  0.25085300  0.75114200  1
  O  O14  1  0.25085300  0.74914700  0.75114200  1
  O  O15  1  0.74914700  0.74914700  0.75114200  1
  O  O16  1  0.26738100  0.00000000  0.00000000  1
  O  O17  1  0.73261900  0.00000000  0.00000000  1
  O  O18  1  0.25713600  0.50000000  0.00000000  1
  O  O19  1  0.74286400  0.50000000  0.00000000  1
  O  O20  1  0.25178700  0.00000000  0.50000000  1
  O  O21  1  0.74821300  0.00000000  0.50000000  1
  O  O22  1  0.25240100  0.50000000  0.50000000  1
  O  O23  1  0.74759900  0.50000000  0.50000000  1
  O  O24  1  0.00000000  0.26738100  0.00000000  1
  O  O25  1  0.50000000  0.25713600  0.00000000  1
  O  O26  1  0.00000000  0.73261900  0.00000000  1
  O  O27  1  0.50000000  0.74286400  0.00000000  1
  O  O28  1  0.00000000  0.25178700  0.50000000  1
  O  O29  1  0.50000000  0.25240100  0.50000000  1
  O  O30  1  0.00000000  0.74821300  0.50000000  1
  O  O31  1  0.50000000  0.74759900  0.50000000  1
loop_
_geom_bond_atom_site_label_1
_geom_bond_atom_site_label_2
_geom_bond_distance
_geom_bond_site_symmetry_2
Hf0 O27 2.093364 1_555
Hf0 O19 2.093364 1_555
Hf0 O25 2.093364 1_555
Hf0 O18 2.093364 1_555
Hf0 O7 2.099869 1_554
Hf0 O3 2.099869 1_555
Mg0 O17 2.005057 1_555
Mg0 O16 2.005057 1_555
Mg0 O1 2.157425 1_555
Mg0 O5 2.157425 1_554
Mg0 O25 2.216381 1_555
Mg0 O27 2.216381 1_545
Mg1 O24 2.005057 1_555
Mg1 O26 2.005057 1_555
Mg1 O6 2.157425 1_554
Mg1 O2 2.157425 1_555
Mg1 O18 2.216381 1_555
Mg1 O19 2.216381 1_455
Mg2 O0 2.072543 1_555
Mg2 O4 2.072543 1_555
Mg2 O30 2.170275 1_545
Mg2 O21 2.170275 1_455
Mg2 O20 2.170275 1_555
Mg2 O28 2.170275 1_555
Mg3 O1 2.123061 1_555
Mg3 O5 2.123061 1_555
Mg3 O21 2.139469 1_555
Mg3 O20 2.139469 1_555
Mg3 O29 2.175568 1_555
Mg3 O31 2.175568 1_545
Mg4 O2 2.123061 1_555
Mg4 O6 2.123061 1_555
Mg4 O30 2.139469 1_555
Mg4 O28 2.139469 1_555
Mg4 O23 2.175568 1_455
Mg4 O22 2.175568 1_555
Mg5 O23 2.134177 1_555
Mg5 O22 2.134177 1_555
Mg5 O29 2.134177 1_555
Mg5 O31 2.134177 1_555
Mg5 O3 2.180617 1_555
Mg5 O7 2.180617 1_555
Mg6 O16 2.075679 1_555
Mg6 O24 2.075679 1_555
Mg6 O8 2.135236 1_555
Mg6 O12 2.135236 1_554
Mg6 O25 2.253714 1_555
Mg6 O18 2.253714 1_555
Mg7 O17 2.075679 1_555
Mg7 O24 2.075679 1_655
Mg7 O9 2.135236 1_555
Mg7 O13 2.135236 1_554
Mg7 O19 2.253714 1_555
Mg7 O25 2.253714 1_555
Mg8 O26 2.075679 1_555
Mg8 O16 2.075679 1_565
Mg8 O10 2.135236 1_555
Mg8 O14 2.135236 1_554
Mg8 O27 2.253714 1_555
Mg8 O18 2.253714 1_555
Mg9 O17 2.075679 1_565
Mg9 O26 2.075679 1_655
Mg9 O11 2.135236 1_555
Mg9 O15 2.135236 1_554
Mg9 O19 2.253714 1_555
Mg9 O27 2.253714 1_555
Mg10 O20 2.134931 1_555
Mg10 O28 2.134931 1_555
Mg10 O8 2.150374 1_555
Mg10 O12 2.150374 1_555
Mg10 O29 2.175496 1_555
Mg10 O22 2.175496 1_555
Mg11 O28 2.134931 1_655
Mg11 O21 2.134931 1_555
Mg11 O9 2.150374 1_555
Mg11 O13 2.150374 1_555
Mg11 O29 2.175496 1_555
Mg11 O23 2.175496 1_555
Mg12 O20 2.134931 1_565
Mg12 O30 2.134931 1_555
Mg12 O14 2.150374 1_555
Mg12 O10 2.150374 1_555
Mg12 O31 2.175496 1_555
Mg12 O22 2.175496 1_555
Mg13 O21 2.134931 1_565
Mg13 O30 2.134931 1_655
Mg13 O11 2.150374 1_555
Mg13 O15 2.150374 1_555
Mg13 O31 2.175496 1_555
Mg13 O23 2.175496 1_555
Mg14 O0 2.125772 1_555
Mg14 O16 2.133739 1_555
Mg14 O20 2.154887 1_555
Mg14 O8 2.162564 1_555
Mg14 O10 2.162564 1_545
Mg14 O1 2.185774 1_555
Mg15 O0 2.125772 1_655
Mg15 O17 2.133739 1_555
Mg15 O21 2.154887 1_555
Mg15 O9 2.162564 1_555
Mg15 O11 2.162564 1_545
Mg15 O1 2.185774 1_555
Mg16 O2 2.086502 1_555
Mg16 O22 2.092172 1_555
Mg16 O8 2.149694 1_555
Mg16 O10 2.149694 1_555
Mg16 O18 2.194085 1_555
Mg16 O3 2.225336 1_555
Mg17 O2 2.086502 1_655
Mg17 O23 2.092172 1_555
Mg17 O11 2.149694 1_555
Mg17 O9 2.149694 1_555
Mg17 O19 2.194085 1_555
Mg17 O3 2.225336 1_555
Mg18 O4 2.125772 1_555
Mg18 O16 2.133739 1_556
Mg18 O20 2.154887 1_555
Mg18 O14 2.162564 1_545
Mg18 O12 2.162564 1_555
Mg18 O5 2.185774 1_555
Mg19 O4 2.125772 1_655
Mg19 O17 2.133739 1_556
Mg19 O21 2.154887 1_555
Mg19 O15 2.162564 1_545
Mg19 O13 2.162564 1_555
Mg19 O5 2.185774 1_555
Mg20 O6 2.086502 1_555
Mg20 O22 2.092172 1_555
Mg20 O14 2.149694 1_555
Mg20 O12 2.149694 1_555
Mg20 O18 2.194085 1_556
Mg20 O7 2.225336 1_555
Mg21 O6 2.086502 1_655
Mg21 O23 2.092172 1_555
Mg21 O15 2.149694 1_555
Mg21 O13 2.149694 1_555
Mg21 O19 2.194085 1_556
Mg21 O7 2.225336 1_555
Mg22 O0 2.125772 1_555
Mg22 O24 2.133739 1_555
Mg22 O28 2.154887 1_555
Mg22 O9 2.162564 1_455
Mg22 O8 2.162564 1_555
Mg22 O2 2.185774 1_555
Mg23 O1 2.086502 1_555
Mg23 O29 2.092172 1_555
Mg23 O8 2.149694 1_555
Mg23 O9 2.149694 1_555
Mg23 O25 2.194085 1_555
Mg23 O3 2.225336 1_555
Mg24 O0 2.125772 1_565
Mg24 O26 2.133739 1_555
Mg24 O30 2.154887 1_555
Mg24 O10 2.162564 1_555
Mg24 O11 2.162564 1_455
Mg24 O2 2.185774 1_555
Mg25 O1 2.086502 1_565
Mg25 O31 2.092172 1_555
Mg25 O11 2.149694 1_555
Mg25 O10 2.149694 1_555
Mg25 O27 2.194085 1_555
Mg25 O3 2.225336 1_555
Mg26 O4 2.125772 1_555
Mg26 O24 2.133739 1_556
Mg26 O28 2.154887 1_555
Mg26 O13 2.162564 1_455
Mg26 O12 2.162564 1_555
Mg26 O6 2.185774 1_555
Mg27 O5 2.086502 1_555
Mg27 O29 2.092172 1_555
Mg27 O13 2.149694 1_555
Mg27 O12 2.149694 1_555
Mg27 O25 2.194085 1_556
Mg27 O7 2.225336 1_555
Mg28 O4 2.125772 1_565
Mg28 O26 2.133739 1_556
Mg28 O30 2.154887 1_555
Mg28 O14 2.162564 1_555
Mg28 O15 2.162564 1_455
Mg28 O6 2.185774 1_555
Mg29 O5 2.086502 1_565
Mg29 O31 2.092172 1_555
Mg29 O14 2.149694 1_555
Mg29 O15 2.149694 1_555
Mg29 O27 2.194085 1_556
Mg29 O7 2.225336 1_555
Ni0 O4 2.207943 1_554
Ni0 O0 2.207943 1_555
Ni0 O24 2.304688 1_555
Ni0 O16 2.304688 1_555
Ni0 O17 2.304688 1_455
Ni0 O26 2.304688 1_545
