# generated using pymatgen
data_SNClO4
_symmetry_space_group_name_H-M   'P 1'
_cell_length_a   6.80469000
_cell_length_b   8.00014025
_cell_length_c   9.59198562
_cell_angle_alpha   108.73566534
_cell_angle_beta   90.00000000
_cell_angle_gamma   90.00000000
_symmetry_Int_Tables_number   1
_chemical_formula_structural   SNClO4
_chemical_formula_sum   'S4 N4 Cl4 O16'
_cell_volume   494.50338414
_cell_formula_units_Z   4
loop_
 _symmetry_equiv_pos_site_id
 _symmetry_equiv_pos_as_xyz
  1  'x, y, z'
loop_
 _atom_site_type_symbol
 _atom_site_label
 _atom_site_symmetry_multiplicity
 _atom_site_fract_x
 _atom_site_fract_y
 _atom_site_fract_z
 _atom_site_occupancy
  S  S0  1  0.43668200  0.70015000  0.21732000  1
  S  S1  1  0.93668200  0.79985000  0.78268000  1
  S  S2  1  0.56331800  0.29985000  0.78268000  1
  S  S3  1  0.06331800  0.20015000  0.21732000  1
  N  N0  1  0.87141800  0.75778000  0.24027500  1
  N  N1  1  0.37141800  0.74222000  0.75972500  1
  N  N2  1  0.12858100  0.24222000  0.75972500  1
  N  N3  1  0.62858200  0.25778000  0.24027500  1
  Cl  Cl0  1  0.25441600  0.80992400  0.40190000  1
  Cl  Cl1  1  0.75441600  0.69007600  0.59810000  1
  Cl  Cl2  1  0.74558400  0.19007600  0.59810000  1
  Cl  Cl3  1  0.24558400  0.30992400  0.40190000  1
  O  O0  1  0.29805800  0.62482200  0.09911000  1
  O  O1  1  0.79805800  0.87517800  0.90089000  1
  O  O2  1  0.70194200  0.37517800  0.90089000  1
  O  O3  1  0.20194200  0.12482200  0.09911000  1
  O  O4  1  0.56129900  0.57573600  0.26008100  1
  O  O5  1  0.06129900  0.92426400  0.73991900  1
  O  O6  1  0.43870100  0.42426400  0.73991900  1
  O  O7  1  0.93870100  0.07573600  0.26008100  1
  O  O8  1  0.54986500  0.85063800  0.20390900  1
  O  O9  1  0.04986500  0.64936200  0.79609100  1
  O  O10  1  0.45013500  0.14936200  0.79609100  1
  O  O11  1  0.95013500  0.35063800  0.20390900  1
  O  O12  1  0.92525200  0.67498200  0.13038600  1
  O  O13  1  0.42525200  0.82501800  0.86961400  1
  O  O14  1  0.07474800  0.32501800  0.86961400  1
  O  O15  1  0.57474800  0.17498200  0.13038600  1
loop_
_geom_bond_atom_site_label_1
_geom_bond_atom_site_label_2
_geom_bond_distance
_geom_bond_site_symmetry_2
N0 O12 1.111514 1_555
N1 O13 1.111514 1_555
N2 O14 1.111511 1_555
N3 O15 1.111514 1_555
Cl0 S0 2.108384 1_555
Cl1 S1 2.108384 1_555
Cl2 S2 2.108384 1_555
Cl3 S3 2.108384 1_555
O0 S0 1.449023 1_555
O1 S1 1.449023 1_555
O2 S2 1.449023 1_555
O3 S3 1.449023 1_555
O4 S0 1.462957 1_555
O5 S1 1.462957 1_455
O6 S2 1.462957 1_555
O7 S3 1.462957 1_655
O8 S0 1.469232 1_555
O9 S1 1.469232 1_455
O10 S2 1.469232 1_555
O11 S3 1.469232 1_655
