# generated using pymatgen
data_Ca(InCu)6
_symmetry_space_group_name_H-M   'P 1'
_cell_length_a   7.05845453
_cell_length_b   7.05845453
_cell_length_c   7.05845453
_cell_angle_alpha   135.36275082
_cell_angle_beta   98.72017130
_cell_angle_gamma   97.86397742
_symmetry_Int_Tables_number   1
_chemical_formula_structural   Ca(InCu)6
_chemical_formula_sum   'Ca1 In6 Cu6'
_cell_volume   228.56663372
_cell_formula_units_Z   1
loop_
 _symmetry_equiv_pos_site_id
 _symmetry_equiv_pos_as_xyz
  1  'x, y, z'
loop_
 _atom_site_type_symbol
 _atom_site_label
 _atom_site_symmetry_multiplicity
 _atom_site_fract_x
 _atom_site_fract_y
 _atom_site_fract_z
 _atom_site_occupancy
  Ca  Ca0  1  0.00000000  0.00000000  0.00000000  1
  In  In0  1  0.66297768  0.00000000  0.66297768  1
  In  In1  1  0.33702232  0.00000000  0.33702232  1
  In  In2  1  0.65782185  0.65782185  0.00000000  1
  In  In3  1  0.34217815  0.34217815  -0.00000000  1
  In  In4  1  0.18292775  0.68292775  0.50000000  1
  In  In5  1  0.81707225  0.31707225  0.50000000  1
  Cu  Cu0  1  0.00000000  0.00000000  0.50000000  1
  Cu  Cu1  1  0.00000000  0.50000000  0.00000000  1
  Cu  Cu2  1  0.50000000  0.50000000  0.50000000  1
  Cu  Cu3  1  0.50000000  0.00000000  0.00000000  1
  Cu  Cu4  1  0.23758450  0.50000000  0.73758450  1
  Cu  Cu5  1  0.76241550  0.50000000  0.26241550  1
loop_
_geom_bond_atom_site_label_1
_geom_bond_atom_site_label_2
_geom_bond_distance
_geom_bond_site_symmetry_2
Ca0 In0 3.098713 1_454
Ca0 In1 3.098713 1_555
Ca0 In4 3.172252 1_555
Ca0 In5 3.172252 1_455
Ca0 In5 3.172252 1_444
Ca0 In4 3.172252 1_544
Ca0 In2 3.173417 1_445
Ca0 In3 3.173417 1_555
Ca0 Cu5 3.457869 1_455
Ca0 Cu4 3.457869 1_544
Ca0 Cu5 3.457869 1_444
Ca0 Cu4 3.457869 1_555
Ca0 Cu1 3.529227 1_545
Ca0 Cu2 3.529227 1_444
Ca0 Cu1 3.529227 1_555
Ca0 Cu0 3.529227 1_555
Ca0 Cu3 3.529227 1_455
Ca0 Cu0 3.529227 1_554
Ca0 Cu2 3.529227 1_555
Ca0 Cu3 3.529227 1_555
In0 In1 2.996959 1_555
Cu0 Cu4 2.680472 1_555
Cu0 Cu5 2.680472 1_445
Cu0 Cu1 2.680497 1_545
Cu0 Cu1 2.680497 1_556
Cu0 In5 2.732534 1_455
Cu0 In4 2.732534 1_545
Cu0 In3 2.794749 1_556
Cu0 In2 2.794749 1_445
Cu0 In0 2.795011 1_455
Cu0 In1 2.795011 1_555
Cu1 Cu4 2.680472 1_554
Cu1 Cu5 2.680472 1_455
Cu1 In4 2.732534 1_555
Cu1 In5 2.732534 1_454
Cu1 In2 2.794749 1_455
Cu1 In3 2.794749 1_555
Cu1 In0 2.795011 1_454
Cu1 In1 2.795011 1_565
Cu2 Cu4 2.680472 1_555
Cu2 Cu5 2.680472 1_555
Cu2 Cu3 2.680497 1_555
Cu2 Cu3 2.680497 1_566
Cu2 In4 2.732534 1_555
Cu2 In5 2.732534 1_555
Cu2 In3 2.794749 1_555
Cu2 In2 2.794749 1_556
Cu2 In0 2.795011 1_565
Cu2 In1 2.795011 1_555
Cu3 Cu5 2.680472 1_555
Cu3 Cu4 2.680472 1_544
Cu3 In4 2.732534 1_544
Cu3 In5 2.732534 1_555
Cu3 In2 2.794749 1_545
Cu3 In3 2.794749 1_555
Cu3 In1 2.795011 1_555
Cu3 In0 2.795011 1_554
Cu4 In4 2.765848 1_555
Cu4 In5 2.765848 1_455
Cu4 In2 2.821999 1_556
Cu4 In3 2.821999 1_556
Cu4 In1 2.832128 1_555
Cu4 In1 2.832128 1_566
Cu5 In4 2.765848 1_655
Cu5 In5 2.765848 1_555
Cu5 In3 2.821999 1_555
Cu5 In2 2.821999 1_555
Cu5 In0 2.832128 1_565
Cu5 In0 2.832128 1_554
