# generated using pymatgen
data_ZnCoO2
_symmetry_space_group_name_H-M   'P 1'
_cell_length_a   2.88811100
_cell_length_b   8.24902987
_cell_length_c   8.59226886
_cell_angle_alpha   82.19053873
_cell_angle_beta   80.91457085
_cell_angle_gamma   80.12369166
_symmetry_Int_Tables_number   1
_chemical_formula_structural   ZnCoO2
_chemical_formula_sum   'Zn4 Co4 O8'
_cell_volume   197.89018369
_cell_formula_units_Z   4
loop_
 _symmetry_equiv_pos_site_id
 _symmetry_equiv_pos_as_xyz
  1  'x, y, z'
loop_
 _atom_site_type_symbol
 _atom_site_label
 _atom_site_symmetry_multiplicity
 _atom_site_fract_x
 _atom_site_fract_y
 _atom_site_fract_z
 _atom_site_occupancy
  Zn  Zn0  1  0.64518100  0.26411500  0.92600800  1
  Zn  Zn1  1  0.35481900  0.73588500  0.07399200  1
  Zn  Zn2  1  0.91894600  0.37244200  0.28450000  1
  Zn  Zn3  1  0.08105400  0.62755800  0.71550000  1
  Co  Co0  1  0.37051300  0.94487600  0.81197500  1
  Co  Co1  1  0.79282300  0.30606900  0.61278300  1
  Co  Co2  1  0.20717700  0.69393100  0.38721700  1
  Co  Co3  1  0.62948700  0.05512400  0.18802500  1
  O  O0  1  0.18349100  0.91012200  0.23725700  1
  O  O1  1  0.63164900  0.67811400  0.55367700  1
  O  O2  1  0.36835100  0.32188600  0.44632300  1
  O  O3  1  0.81650900  0.08987800  0.76274300  1
  O  O4  1  0.92878000  0.78223300  0.88388000  1
  O  O5  1  0.15379600  0.38875000  0.78563700  1
  O  O6  1  0.07122000  0.21776700  0.11612000  1
  O  O7  1  0.84620400  0.61125000  0.21436300  1
loop_
_geom_bond_atom_site_label_1
_geom_bond_atom_site_label_2
_geom_bond_distance
_geom_bond_site_symmetry_2
Co0 O3 1.867557 1_565
Co0 O3 1.894587 1_465
Co0 O4 1.980481 1_455
Co0 O4 2.031902 1_555
Co1 O2 2.003433 1_555
Co1 O2 2.024460 1_655
Co1 O3 2.051054 1_555
Co1 O5 2.183137 1_655
Co1 O5 2.248331 1_555
Co2 O1 2.003433 1_555
Co2 O1 2.024460 1_455
Co2 O0 2.051054 1_555
Co2 O7 2.183137 1_455
Co2 O7 2.248331 1_555
Co3 O0 1.867557 1_545
Co3 O0 1.894587 1_645
Co3 O6 1.980481 1_655
Co3 O6 2.031902 1_555
O0 Zn1 2.088845 1_555
O1 Zn3 2.001878 1_555
O1 Zn3 2.004622 1_655
O2 Zn2 2.001878 1_555
O2 Zn2 2.004622 1_455
O3 Zn0 2.088845 1_555
O4 Zn3 2.005675 1_655
O4 Zn1 2.152241 1_656
O4 Zn1 2.180563 1_556
O5 Zn3 1.965539 1_555
O5 Zn0 2.056412 1_555
O5 Zn0 2.071487 1_455
O6 Zn2 2.005675 1_455
O6 Zn0 2.152241 1_454
O6 Zn0 2.180563 1_554
O7 Zn2 1.965539 1_555
O7 Zn1 2.056412 1_555
O7 Zn1 2.071487 1_655
