# generated using pymatgen
data_Er2Ni2Sn
_symmetry_space_group_name_H-M   'P 1'
_cell_length_a   7.25842329
_cell_length_b   7.25842328
_cell_length_c   3.60367490
_cell_angle_alpha   90.00000000
_cell_angle_beta   90.00000000
_cell_angle_gamma   90.00000000
_symmetry_Int_Tables_number   1
_chemical_formula_structural   Er2Ni2Sn
_chemical_formula_sum   'Er4 Ni4 Sn2'
_cell_volume   189.85856194
_cell_formula_units_Z   2
loop_
 _symmetry_equiv_pos_site_id
 _symmetry_equiv_pos_as_xyz
  1  'x, y, z'
loop_
 _atom_site_type_symbol
 _atom_site_label
 _atom_site_symmetry_multiplicity
 _atom_site_fract_x
 _atom_site_fract_y
 _atom_site_fract_z
 _atom_site_occupancy
  Er  Er0  1  0.67389456  0.17389148  0.50000000  1
  Er  Er1  1  0.32610815  0.82610477  0.50000000  1
  Er  Er2  1  0.17389456  0.32610852  0.50000000  1
  Er  Er3  1  0.82610815  0.67389523  0.50000000  1
  Ni  Ni0  1  0.87911048  0.37910761  0.00000000  1
  Ni  Ni1  1  0.12088759  0.62088386  -0.00000000  1
  Ni  Ni2  1  0.37911048  0.12089239  0.00000000  1
  Ni  Ni3  1  0.62088759  0.87911614  -0.00000000  1
  Sn  Sn0  1  0.49999922  0.50000382  -0.00000000  1
  Sn  Sn1  1  -0.00000078  -0.00000382  -0.00000000  1
loop_
_geom_bond_atom_site_label_1
_geom_bond_atom_site_label_2
_geom_bond_distance
_geom_bond_site_symmetry_2
Er0 Ni0 2.772022 1_555
Er0 Ni0 2.772022 1_556
Er0 Ni3 2.823571 1_545
Er0 Ni3 2.823571 1_546
Er0 Ni2 2.823612 1_556
Er0 Ni2 2.823612 1_555
Er0 Sn1 3.231485 1_655
Er0 Sn1 3.231485 1_656
Er0 Sn0 3.231526 1_555
Er0 Sn0 3.231526 1_556
Er1 Ni1 2.772059 1_555
Er1 Ni1 2.772059 1_556
Er1 Ni3 2.823598 1_556
Er1 Ni3 2.823598 1_555
Er1 Ni2 2.823634 1_565
Er1 Ni2 2.823634 1_566
Er1 Sn0 3.231454 1_556
Er1 Sn0 3.231454 1_555
Er1 Sn1 3.231497 1_565
Er1 Sn1 3.231497 1_566
Er2 Ni2 2.772022 1_556
Er2 Ni2 2.772022 1_555
Er2 Ni1 2.823571 1_556
Er2 Ni1 2.823571 1_555
Er2 Ni0 2.823612 1_456
Er2 Ni0 2.823612 1_455
Er2 Sn0 3.231485 1_555
Er2 Sn0 3.231485 1_556
Er2 Sn1 3.231526 1_556
Er2 Sn1 3.231526 1_555
Er3 Ni3 2.772059 1_556
Er3 Ni3 2.772059 1_555
Er3 Ni1 2.823598 1_656
Er3 Ni1 2.823598 1_655
Er3 Ni0 2.823634 1_555
Er3 Ni0 2.823634 1_556
Er3 Sn1 3.231454 1_666
Er3 Sn1 3.231454 1_665
Er3 Sn0 3.231497 1_556
Er3 Sn0 3.231497 1_555
Ni0 Ni1 2.481828 1_655
Ni0 Sn1 2.888265 1_655
Ni0 Sn0 2.888280 1_555
Ni1 Sn0 2.888247 1_555
Ni1 Sn1 2.888270 1_565
Ni2 Ni3 2.481828 1_545
Ni2 Sn0 2.888265 1_555
Ni2 Sn1 2.888280 1_555
Ni3 Sn1 2.888247 1_665
Ni3 Sn0 2.888270 1_555
