# generated using pymatgen
data_Li5Co3O8
_symmetry_space_group_name_H-M   'P 1'
_cell_length_a   2.79705051
_cell_length_b   5.68612060
_cell_length_c   7.93869529
_cell_angle_alpha   89.33824953
_cell_angle_beta   90.00000000
_cell_angle_gamma   90.00000000
_symmetry_Int_Tables_number   1
_chemical_formula_structural   Li5Co3O8
_chemical_formula_sum   'Li5 Co3 O8'
_cell_volume   126.25149828
_cell_formula_units_Z   1
loop_
 _symmetry_equiv_pos_site_id
 _symmetry_equiv_pos_as_xyz
  1  'x, y, z'
loop_
 _atom_site_type_symbol
 _atom_site_label
 _atom_site_symmetry_multiplicity
 _atom_site_fract_x
 _atom_site_fract_y
 _atom_site_fract_z
 _atom_site_occupancy
  Li  Li0  1  -0.00000000  0.25987808  0.26565038  1
  Li  Li1  1  0.50000000  0.50000000  0.00000000  1
  Li  Li2  1  -0.00000000  0.74012192  0.73434962  1
  Li  Li3  1  0.50000000  0.00000000  0.50000000  1
  Li  Li4  1  0.50000000  0.50000000  0.50000000  1
  Co  Co0  1  -0.00000000  0.25512848  0.74425759  1
  Co  Co1  1  -0.00000000  0.74487152  0.25574241  1
  Co  Co2  1  0.50000000  0.00000000  0.00000000  1
  O  O0  1  -0.00000000  0.77389582  0.01222365  1
  O  O1  1  0.50000000  0.02293783  0.76105489  1
  O  O2  1  -0.00000000  0.24738399  0.51976173  1
  O  O3  1  0.50000000  0.52462846  0.24768514  1
  O  O4  1  -0.00000000  0.75261601  0.48023827  1
  O  O5  1  0.50000000  0.97706217  0.23894511  1
  O  O6  1  -0.00000000  0.22610418  0.98777635  1
  O  O7  1  0.50000000  0.47537154  0.75231486  1
loop_
_geom_bond_atom_site_label_1
_geom_bond_atom_site_label_2
_geom_bond_distance
_geom_bond_site_symmetry_2
Li0 O2 2.017743 1_555
Li0 O3 2.058517 1_555
Li0 O3 2.058517 1_455
Li0 O5 2.143539 1_445
Li0 O5 2.143539 1_545
Li0 O6 2.216509 1_554
Li1 O7 1.972890 1_554
Li1 O3 1.972890 1_555
Li1 O6 2.096256 1_654
Li1 O6 2.096256 1_554
Li1 O0 2.096256 1_555
Li1 O0 2.096256 1_655
Li2 O4 2.017743 1_555
Li2 O7 2.058517 1_455
Li2 O7 2.058517 1_555
Li2 O1 2.143539 1_565
Li2 O1 2.143539 1_465
Li2 O0 2.216509 1_556
Li3 O2 1.991045 1_555
Li3 O4 1.991045 1_545
Li3 O4 1.991045 1_645
Li3 O2 1.991045 1_655
Li3 O5 2.078038 1_545
Li3 O1 2.078038 1_555
Li4 O3 2.006326 1_555
Li4 O7 2.006326 1_555
Li4 O2 2.009612 1_555
Li4 O2 2.009612 1_655
Li4 O4 2.009612 1_555
Li4 O4 2.009612 1_655
Co0 O2 1.783257 1_555
Co0 O7 1.878867 1_455
Co0 O7 1.878867 1_555
Co0 O1 1.926833 1_555
Co0 O1 1.926833 1_455
Co0 O6 1.938353 1_555
Co1 O4 1.783257 1_555
Co1 O3 1.878867 1_455
Co1 O3 1.878867 1_555
Co1 O5 1.926833 1_555
Co1 O5 1.926833 1_455
Co1 O0 1.938353 1_555
Co2 O1 1.899888 1_554
Co2 O5 1.899888 1_545
Co2 O6 1.901399 1_654
Co2 O0 1.901399 1_645
Co2 O6 1.901399 1_554
Co2 O0 1.901399 1_545
