# generated using pymatgen
data_La(BC)2
_symmetry_space_group_name_H-M   'P 1'
_cell_length_a   3.99030645
_cell_length_b   5.39054888
_cell_length_c   5.39054888
_cell_angle_alpha   90.00000000
_cell_angle_beta   90.00000000
_cell_angle_gamma   90.00000000
_symmetry_Int_Tables_number   1
_chemical_formula_structural   La(BC)2
_chemical_formula_sum   'La2 B4 C4'
_cell_volume   115.95039357
_cell_formula_units_Z   2
loop_
 _symmetry_equiv_pos_site_id
 _symmetry_equiv_pos_as_xyz
  1  'x, y, z'
loop_
 _atom_site_type_symbol
 _atom_site_label
 _atom_site_symmetry_multiplicity
 _atom_site_fract_x
 _atom_site_fract_y
 _atom_site_fract_z
 _atom_site_occupancy
  La  La0  1  -0.00000000  0.50000000  0.50000000  1
  La  La1  1  0.00000000  0.00000000  -0.00000000  1
  B  B0  1  0.50000000  0.63758691  0.13758691  1
  B  B1  1  0.50000000  0.86241309  0.63758691  1
  B  B2  1  0.50000000  0.36241309  0.86241309  1
  B  B3  1  0.50000000  0.13758691  0.36241309  1
  C  C0  1  0.50000000  0.66119183  0.83880817  1
  C  C1  1  0.50000000  0.83880817  0.33880817  1
  C  C2  1  0.50000000  0.16119183  0.66119183  1
  C  C3  1  0.50000000  0.33880817  0.16119183  1
loop_
_geom_bond_atom_site_label_1
_geom_bond_atom_site_label_2
_geom_bond_distance
_geom_bond_site_symmetry_2
B0 C1 1.533988 1_555
B0 C3 1.615600 1_555
B0 C0 1.615600 1_554
B0 La1 2.889167 1_665
B0 La1 2.889167 1_565
B0 La0 2.889167 1_655
B0 La0 2.889167 1_555
B1 C0 1.533988 1_555
B1 C1 1.615600 1_555
B1 C2 1.615600 1_565
B1 La0 2.889167 1_555
B1 La0 2.889167 1_655
B1 La1 2.889167 1_566
B1 La1 2.889167 1_666
B2 C2 1.533988 1_555
B2 C3 1.615600 1_556
B2 C0 1.615600 1_555
B2 La1 2.889167 1_556
B2 La1 2.889167 1_656
B2 La0 2.889167 1_655
B2 La0 2.889167 1_555
B3 C3 1.533988 1_555
B3 C1 1.615600 1_545
B3 C2 1.615600 1_555
B3 La0 2.889167 1_555
B3 La0 2.889167 1_655
B3 La1 2.889167 1_555
B3 La1 2.889167 1_655
C0 La1 2.840993 1_666
C0 La1 2.840993 1_566
C0 La0 2.840993 1_555
C0 La0 2.840993 1_655
C1 La0 2.840993 1_555
C1 La0 2.840993 1_655
C1 La1 2.840993 1_565
C1 La1 2.840993 1_665
C2 La0 2.840993 1_555
C2 La1 2.840993 1_556
C2 La0 2.840993 1_655
C2 La1 2.840993 1_656
C3 La0 2.840993 1_555
C3 La0 2.840993 1_655
C3 La1 2.840993 1_555
C3 La1 2.840993 1_655
