# generated using pymatgen
data_Li(CrS2)2
_symmetry_space_group_name_H-M   'P 1'
_cell_length_a   5.77761800
_cell_length_b   6.87130700
_cell_length_c   11.90397400
_cell_angle_alpha   90.00000000
_cell_angle_beta   90.00000000
_cell_angle_gamma   90.00000000
_symmetry_Int_Tables_number   1
_chemical_formula_structural   Li(CrS2)2
_chemical_formula_sum   'Li4 Cr8 S16'
_cell_volume   472.58523233
_cell_formula_units_Z   4
loop_
 _symmetry_equiv_pos_site_id
 _symmetry_equiv_pos_as_xyz
  1  'x, y, z'
loop_
 _atom_site_type_symbol
 _atom_site_label
 _atom_site_symmetry_multiplicity
 _atom_site_fract_x
 _atom_site_fract_y
 _atom_site_fract_z
 _atom_site_occupancy
  Li  Li0  1  0.91004800  0.25000000  0.09200400  1
  Li  Li1  1  0.08995200  0.75000000  0.90799600  1
  Li  Li2  1  0.41004800  0.75000000  0.40799600  1
  Li  Li3  1  0.58995200  0.25000000  0.59200400  1
  Cr  Cr0  1  0.50000000  0.00000000  0.00000000  1
  Cr  Cr1  1  0.00000000  0.00000000  0.50000000  1
  Cr  Cr2  1  0.00000000  0.50000000  0.50000000  1
  Cr  Cr3  1  0.50000000  0.50000000  0.00000000  1
  Cr  Cr4  1  0.01376100  0.75000000  0.24104300  1
  Cr  Cr5  1  0.98623900  0.25000000  0.75895700  1
  Cr  Cr6  1  0.51376100  0.25000000  0.25895700  1
  Cr  Cr7  1  0.48623900  0.75000000  0.74104300  1
  S  S0  1  0.71822900  0.98942300  0.17194600  1
  S  S1  1  0.28177100  0.01057700  0.82805400  1
  S  S2  1  0.21822900  0.01057700  0.32805400  1
  S  S3  1  0.78177100  0.98942300  0.67194600  1
  S  S4  1  0.78177100  0.51057700  0.67194600  1
  S  S5  1  0.21822900  0.48942300  0.32805400  1
  S  S6  1  0.28177100  0.48942300  0.82805400  1
  S  S7  1  0.71822900  0.51057700  0.17194600  1
  S  S8  1  0.26177800  0.75000000  0.08267400  1
  S  S9  1  0.73822200  0.25000000  0.91732600  1
  S  S10  1  0.76177800  0.25000000  0.41732600  1
  S  S11  1  0.23822200  0.75000000  0.58267400  1
  S  S12  1  0.30269300  0.25000000  0.08853100  1
  S  S13  1  0.69730700  0.75000000  0.91146900  1
  S  S14  1  0.80269300  0.75000000  0.41146900  1
  S  S15  1  0.19730700  0.25000000  0.58853100  1
loop_
_geom_bond_atom_site_label_1
_geom_bond_atom_site_label_2
_geom_bond_distance
_geom_bond_site_symmetry_2
Li0 S12 2.268930 1_655
Li0 S9 2.304190 1_554
Li0 S7 2.310787 1_555
Li0 S0 2.310787 1_545
Li1 S13 2.268930 1_455
Li1 S8 2.304190 1_556
Li1 S6 2.310787 1_555
Li1 S1 2.310787 1_565
Li2 S14 2.268930 1_555
Li2 S11 2.304190 1_555
Li2 S5 2.310787 1_555
Li2 S2 2.310787 1_565
Li3 S15 2.268930 1_555
Li3 S10 2.304190 1_555
Li3 S4 2.310787 1_555
Li3 S3 2.310787 1_545
Cr0 S13 2.315403 1_544
Cr0 S12 2.315403 1_555
Cr0 S0 2.405112 1_545
Cr0 S1 2.405112 1_554
Cr0 S9 2.411189 1_554
Cr0 S8 2.411189 1_545
Cr1 S15 2.315403 1_555
Cr1 S14 2.315403 1_445
Cr1 S3 2.405112 1_445
Cr1 S2 2.405112 1_555
Cr1 S11 2.411189 1_545
Cr1 S10 2.411189 1_455
Cr2 S15 2.315403 1_555
Cr2 S14 2.315403 1_455
Cr2 S4 2.405112 1_455
Cr2 S5 2.405112 1_555
Cr2 S11 2.411189 1_555
Cr2 S10 2.411189 1_455
Cr3 S13 2.315403 1_554
Cr3 S12 2.315403 1_555
Cr3 S7 2.405112 1_555
Cr3 S6 2.405112 1_554
Cr3 S9 2.411189 1_554
Cr3 S8 2.411189 1_555
Cr4 S14 2.367049 1_455
Cr4 S8 2.367994 1_555
Cr4 S5 2.382079 1_555
Cr4 S2 2.382079 1_565
Cr4 S0 2.509686 1_455
Cr4 S7 2.509686 1_455
Cr5 S15 2.367049 1_655
Cr5 S9 2.367994 1_555
Cr5 S4 2.382079 1_555
Cr5 S3 2.382079 1_545
Cr5 S6 2.509686 1_655
Cr5 S1 2.509686 1_655
Cr6 S12 2.367049 1_555
Cr6 S10 2.367994 1_555
Cr6 S7 2.382079 1_555
Cr6 S0 2.382079 1_545
Cr6 S5 2.509686 1_555
Cr6 S2 2.509686 1_555
Cr7 S13 2.367049 1_555
Cr7 S11 2.367994 1_555
Cr7 S6 2.382079 1_555
Cr7 S1 2.382079 1_565
Cr7 S3 2.509686 1_555
Cr7 S4 2.509686 1_555
