# generated using pymatgen
data_Mg10TiSn(BO5)4
_symmetry_space_group_name_H-M   'P 1'
_cell_length_a   6.15114700
_cell_length_b   9.89246635
_cell_length_c   12.83385399
_cell_angle_alpha   85.62198446
_cell_angle_beta   76.39143602
_cell_angle_gamma   71.96661930
_symmetry_Int_Tables_number   1
_chemical_formula_structural   Mg10TiSn(BO5)4
_chemical_formula_sum   'Mg20 Ti2 Sn2 B8 O40'
_cell_volume   721.72513853
_cell_formula_units_Z   2
loop_
 _symmetry_equiv_pos_site_id
 _symmetry_equiv_pos_as_xyz
  1  'x, y, z'
loop_
 _atom_site_type_symbol
 _atom_site_label
 _atom_site_symmetry_multiplicity
 _atom_site_fract_x
 _atom_site_fract_y
 _atom_site_fract_z
 _atom_site_occupancy
  Mg  Mg0  1  0.89745200  0.99996800  0.71732700  1
  Mg  Mg1  1  0.10254800  0.00003200  0.28267300  1
  Mg  Mg2  1  0.75388200  0.99478000  0.49934200  1
  Mg  Mg3  1  0.24611800  0.00522000  0.50065800  1
  Mg  Mg4  1  0.76010900  0.00120200  0.99907000  1
  Mg  Mg5  1  0.23989100  0.99879800  0.00093000  1
  Mg  Mg6  1  0.75202400  0.49984100  0.49982500  1
  Mg  Mg7  1  0.24797600  0.50015900  0.50017500  1
  Mg  Mg8  1  0.59901300  0.49503800  0.78099200  1
  Mg  Mg9  1  0.40098700  0.50496200  0.21900800  1
  Mg  Mg10  1  0.75709300  0.48795900  0.99768200  1
  Mg  Mg11  1  0.24290700  0.51204100  0.00231800  1
  Mg  Mg12  1  0.39304400  0.00048500  0.71779000  1
  Mg  Mg13  1  0.60695600  0.99951500  0.28221000  1
  Mg  Mg14  1  0.89159800  0.50480200  0.21939600  1
  Mg  Mg15  1  0.10840200  0.49519800  0.78060400  1
  Mg  Mg16  1  0.17240300  0.76386800  0.88012400  1
  Mg  Mg17  1  0.82759700  0.23613200  0.11987600  1
  Mg  Mg18  1  0.93903400  0.73861700  0.38184300  1
  Mg  Mg19  1  0.06096600  0.26138300  0.61815700  1
  Ti  Ti0  1  0.43614600  0.73918200  0.38694300  1
  Ti  Ti1  1  0.56385400  0.26081800  0.61305700  1
  Sn  Sn0  1  0.67301200  0.76006200  0.88396400  1
  Sn  Sn1  1  0.32698800  0.23993800  0.11603600  1
  B  B0  1  0.45585000  0.23064700  0.85921300  1
  B  B1  1  0.54415000  0.76935300  0.14078700  1
  B  B2  1  0.81913100  0.72298500  0.63665900  1
  B  B3  1  0.18086900  0.27701500  0.36334100  1
  B  B4  1  0.96072600  0.22122800  0.85829400  1
  B  B5  1  0.03927400  0.77877200  0.14170600  1
  B  B6  1  0.31397000  0.72782800  0.64040700  1
  B  B7  1  0.68603000  0.27217200  0.35959300  1
  O  O0  1  0.48595700  0.61210700  0.92184700  1
  O  O1  1  0.51404300  0.38789300  0.07815300  1
  O  O2  1  0.94983400  0.85452000  0.23772600  1
  O  O3  1  0.05016600  0.14548000  0.76227400  1
  O  O4  1  0.24271200  0.87544100  0.64236200  1
  O  O5  1  0.75728800  0.12455900  0.35763800  1
  O  O6  1  0.95099900  0.14938000  0.95633000  1
  O  O7  1  0.04900100  0.85062000  0.04367000  1
  O  O8  1  0.86408600  0.89840900  0.85633100  1
  O  O9  1  0.13591400  0.10159100  0.14366900  1
  O  O10  1  0.40153700  0.65412700  0.54144400  1
  O  O11  1  0.59846300  0.34587300  0.45855600  1
  O  O12  1  0.58038200  0.88311200  0.42361900  1
  O  O13  1  0.41961800  0.11688800  0.57638100  1
  O  O14  1  0.45514100  0.84255100  0.23883300  1
  O  O15  1  0.54485900  0.15744900  0.76116700  1
  O  O16  1  0.30064100  0.64884600  0.73411000  1
  O  O17  1  0.69935900  0.35115400  0.26589000  1
  O  O18  1  0.74690200  0.86976300  0.64210700  1
  O  O19  1  0.25309800  0.13023700  0.35789300  1
  O  O20  1  0.37528900  0.37686700  0.86030400  1
  O  O21  1  0.62471100  0.62313300  0.13969600  1
  O  O22  1  0.74660700  0.61103500  0.35767300  1
  O  O23  1  0.25339300  0.38896500  0.64232700  1
  O  O24  1  0.71571000  0.38959700  0.64230000  1
  O  O25  1  0.28429000  0.61040300  0.35770000  1
  O  O26  1  0.89140900  0.11742100  0.57661300  1
  O  O27  1  0.10859100  0.88257900  0.42338700  1
  O  O28  1  0.90609500  0.64674500  0.54177200  1
  O  O29  1  0.09390500  0.35325500  0.45822800  1
  O  O30  1  0.45370700  0.14921600  0.95370200  1
  O  O31  1  0.54629300  0.85078400  0.04629800  1
  O  O32  1  0.37194300  0.89823700  0.85675300  1
  O  O33  1  0.62805700  0.10176300  0.14324700  1
  O  O34  1  0.88217700  0.36952000  0.85390900  1
  O  O35  1  0.11782300  0.63048000  0.14609100  1
  O  O36  1  0.97182200  0.61269400  0.92164900  1
  O  O37  1  0.02817800  0.38730600  0.07835100  1
  O  O38  1  0.80276000  0.64431900  0.73354600  1
  O  O39  1  0.19724000  0.35568100  0.26645400  1
loop_
_geom_bond_atom_site_label_1
_geom_bond_atom_site_label_2
_geom_bond_distance
_geom_bond_site_symmetry_2
Mg0 O8 1.978818 1_555
Mg0 O26 2.072963 1_565
Mg0 O3 2.122781 1_665
Mg0 O4 2.133797 1_655
Mg0 O18 2.190345 1_555
Mg0 O15 2.216999 1_565
Mg1 O9 1.978818 1_555
Mg1 O27 2.072963 1_545
Mg1 O2 2.122781 1_445
Mg1 O5 2.133797 1_455
Mg1 O19 2.190345 1_555
Mg1 O14 2.216999 1_545
Mg2 O13 2.086199 1_565
Mg2 O26 2.094009 1_565
Mg2 O18 2.130327 1_555
Mg2 O5 2.144358 1_565
Mg2 O27 2.146549 1_655
Mg2 O12 2.164620 1_555
Mg3 O12 2.086199 1_545
Mg3 O27 2.094009 1_545
Mg3 O19 2.130327 1_555
Mg3 O4 2.144358 1_545
Mg3 O26 2.146549 1_455
Mg3 O13 2.164620 1_555
Mg4 O8 2.032070 1_545
Mg4 O33 2.036333 1_556
Mg4 O7 2.100940 1_646
Mg4 O6 2.113794 1_555
Mg4 O30 2.170890 1_555
Mg4 O31 2.238345 1_546
Mg5 O9 2.032070 1_565
Mg5 O32 2.036333 1_554
Mg5 O6 2.100940 1_464
Mg5 O7 2.113794 1_555
Mg5 O31 2.170890 1_555
Mg5 O30 2.238345 1_564
Mg6 O24 2.058366 1_555
Mg6 O22 2.058856 1_555
Mg6 O29 2.124156 1_655
Mg6 O28 2.124178 1_555
Mg6 O11 2.177612 1_555
Mg6 O10 2.192714 1_555
Mg7 O25 2.058366 1_555
Mg7 O23 2.058856 1_555
Mg7 O28 2.124156 1_455
Mg7 O29 2.124178 1_555
Mg7 O10 2.177612 1_555
Mg7 O11 2.192714 1_555
Mg8 O24 1.997531 1_555
Mg8 O0 2.078954 1_555
Mg8 O20 2.109897 1_555
Mg8 O16 2.167127 1_555
Mg8 O34 2.168385 1_555
Mg8 O38 2.184444 1_555
Mg9 O25 1.997531 1_555
Mg9 O1 2.078954 1_555
Mg9 O21 2.109897 1_555
Mg9 O17 2.167127 1_555
Mg9 O35 2.168385 1_555
Mg9 O39 2.184444 1_555
Mg10 O1 2.077319 1_556
Mg10 O36 2.106686 1_555
Mg10 O37 2.114421 1_656
Mg10 O34 2.115002 1_555
Mg10 O0 2.133132 1_555
Mg10 O21 2.184615 1_556
Mg11 O0 2.077319 1_554
Mg11 O37 2.106686 1_555
Mg11 O36 2.114421 1_454
Mg11 O35 2.115002 1_555
Mg11 O1 2.133132 1_555
Mg11 O20 2.184615 1_554
Mg12 O32 1.979273 1_545
Mg12 O13 2.074649 1_555
Mg12 O3 2.125316 1_555
Mg12 O4 2.152813 1_545
Mg12 O18 2.192623 1_545
Mg12 O15 2.206219 1_555
Mg13 O33 1.979273 1_565
Mg13 O12 2.074649 1_555
Mg13 O2 2.125316 1_555
Mg13 O5 2.152813 1_565
Mg13 O19 2.192623 1_565
Mg13 O14 2.206219 1_555
Mg14 O22 2.002190 1_555
Mg14 O37 2.081936 1_655
Mg14 O21 2.128176 1_555
Mg14 O35 2.154926 1_655
Mg14 O17 2.169541 1_555
Mg14 O39 2.180967 1_655
Mg15 O23 2.002190 1_555
Mg15 O36 2.081936 1_455
Mg15 O20 2.128176 1_555
Mg15 O34 2.154926 1_455
Mg15 O16 2.169541 1_555
Mg15 O38 2.180967 1_455
Mg16 O8 2.027077 1_455
Mg16 O32 2.034547 1_555
Mg16 O16 2.121968 1_555
Mg16 O36 2.180380 1_455
Mg16 O0 2.197963 1_555
Mg16 O7 2.200026 1_556
Mg17 O9 2.027077 1_655
Mg17 O33 2.034547 1_555
Mg17 O17 2.121968 1_555
Mg17 O37 2.180380 1_655
Mg17 O1 2.197963 1_555
Mg17 O6 2.200026 1_554
Mg18 O22 2.060973 1_555
Mg18 O25 2.073047 1_655
Mg18 O2 2.098936 1_555
Mg18 O27 2.167364 1_655
Mg18 O28 2.171023 1_555
Mg18 O12 2.192171 1_555
Mg19 O23 2.060973 1_555
Mg19 O24 2.073047 1_455
Mg19 O3 2.098936 1_555
Mg19 O26 2.167364 1_455
Mg19 O29 2.171023 1_555
Mg19 O13 2.192171 1_555
B0 O20 1.376257 1_555
B0 O30 1.403404 1_555
B0 O15 1.406019 1_555
B1 O21 1.376257 1_555
B1 O31 1.403404 1_555
B1 O14 1.406019 1_555
B2 O18 1.382767 1_555
B2 O28 1.386295 1_555
B2 O38 1.415531 1_555
B3 O19 1.382767 1_555
B3 O29 1.386295 1_555
B3 O39 1.415531 1_555
B4 O6 1.395042 1_555
B4 O3 1.396231 1_655
B4 O34 1.396416 1_555
B5 O7 1.395042 1_555
B5 O2 1.396231 1_455
B5 O35 1.396416 1_555
B6 O16 1.383179 1_555
B6 O4 1.388969 1_555
B6 O10 1.418130 1_555
B7 O17 1.383179 1_555
B7 O5 1.388969 1_555
B7 O11 1.418130 1_555
O0 Sn0 2.091243 1_555
O1 Sn1 2.091243 1_555
O8 Sn0 2.026296 1_555
O9 Sn1 2.026296 1_555
O10 Ti0 2.083866 1_555
O11 Ti1 2.083866 1_555
O12 Ti0 2.029024 1_555
O13 Ti1 2.029024 1_555
O14 Ti0 2.084500 1_555
O15 Ti1 2.084500 1_555
O22 Ti0 1.905602 1_555
O23 Ti1 1.905602 1_555
O24 Ti1 1.900270 1_555
O25 Ti0 1.900270 1_555
O26 Ti1 2.044225 1_555
O27 Ti0 2.044225 1_555
O30 Sn1 2.200367 1_556
O31 Sn0 2.200367 1_554
O32 Sn0 2.020924 1_555
O33 Sn1 2.020924 1_555
O36 Sn0 2.095037 1_555
O37 Sn1 2.095037 1_555
O38 Sn0 2.172839 1_555
O39 Sn1 2.172839 1_555
