# generated using pymatgen
data_Sc4TaFe19P12
_symmetry_space_group_name_H-M   'P 1'
_cell_length_a   3.60744900
_cell_length_b   10.19555194
_cell_length_c   11.74567707
_cell_angle_alpha   89.51565264
_cell_angle_beta   90.00000000
_cell_angle_gamma   90.00000000
_symmetry_Int_Tables_number   1
_chemical_formula_structural   Sc4TaFe19P12
_chemical_formula_sum   'Sc4 Ta1 Fe19 P12'
_cell_volume   431.98978775
_cell_formula_units_Z   1
loop_
 _symmetry_equiv_pos_site_id
 _symmetry_equiv_pos_as_xyz
  1  'x, y, z'
loop_
 _atom_site_type_symbol
 _atom_site_label
 _atom_site_symmetry_multiplicity
 _atom_site_fract_x
 _atom_site_fract_y
 _atom_site_fract_z
 _atom_site_occupancy
  Sc  Sc0  1  0.25000000  0.57788900  0.70374400  1
  Sc  Sc1  1  0.25000000  0.91868400  0.20801700  1
  Sc  Sc2  1  0.75000000  0.42187800  0.29570200  1
  Sc  Sc3  1  0.75000000  0.08504700  0.79118800  1
  Ta  Ta0  1  0.25000000  0.70404100  0.98942000  1
  Fe  Fe0  1  0.25000000  0.21891900  0.17831200  1
  Fe  Fe1  1  0.25000000  0.27795600  0.67446800  1
  Fe  Fe2  1  0.75000000  0.78444000  0.81859900  1
  Fe  Fe3  1  0.75000000  0.72078100  0.33041700  1
  Fe  Fe4  1  0.25000000  0.87682200  0.69857700  1
  Fe  Fe5  1  0.25000000  0.62041700  0.20417200  1
  Fe  Fe6  1  0.75000000  0.12466400  0.29928900  1
  Fe  Fe7  1  0.75000000  0.37484100  0.79835900  1
  Fe  Fe8  1  0.25000000  0.40604200  0.48976000  1
  Fe  Fe9  1  0.25000000  0.09791500  0.98954100  1
  Fe  Fe10  1  0.75000000  0.59154200  0.51220500  1
  Fe  Fe11  1  0.75000000  0.90982200  0.00956500  1
  Fe  Fe12  1  0.25000000  0.45744500  0.93281800  1
  Fe  Fe13  1  0.25000000  0.03795500  0.43168600  1
  Fe  Fe14  1  0.75000000  0.53114700  0.06780400  1
  Fe  Fe15  1  0.75000000  0.96314600  0.56740400  1
  Fe  Fe16  1  0.25000000  0.79189800  0.48988000  1
  Fe  Fe17  1  0.75000000  0.29276800  0.01103800  1
  Fe  Fe18  1  0.75000000  0.20726400  0.51128200  1
  P  P0  1  0.25000000  0.42175200  0.11735200  1
  P  P1  1  0.25000000  0.07956100  0.61329000  1
  P  P2  1  0.75000000  0.57021700  0.87885200  1
  P  P3  1  0.75000000  0.92156900  0.38577800  1
  P  P4  1  0.25000000  0.26129200  0.86579800  1
  P  P5  1  0.25000000  0.24005300  0.37124600  1
  P  P6  1  0.75000000  0.73513200  0.14300400  1
  P  P7  1  0.75000000  0.75986600  0.62585500  1
  P  P8  1  0.25000000  0.59874100  0.39373200  1
  P  P9  1  0.25000000  0.91905800  0.88715000  1
  P  P10  1  0.75000000  0.39880700  0.60793200  1
  P  P11  1  0.75000000  0.10063200  0.10676300  1
loop_
_geom_bond_atom_site_label_1
_geom_bond_atom_site_label_2
_geom_bond_distance
_geom_bond_site_symmetry_2
Fe0 P0 2.182715 1_555
Fe0 P5 2.278174 1_555
Fe0 P11 2.330505 1_455
Fe0 P11 2.330505 1_555
Fe1 P1 2.152308 1_555
Fe1 P4 2.252281 1_555
Fe1 P10 2.316479 1_555
Fe1 P10 2.316479 1_455
Fe2 P7 2.279835 1_555
Fe2 P2 2.290221 1_555
Fe2 P9 2.409188 1_555
Fe2 P9 2.409188 1_655
Fe2 Ta0 2.814821 1_655
Fe2 Ta0 2.814821 1_555
Fe3 P3 2.153168 1_555
Fe3 P6 2.204915 1_555
Fe3 P8 2.310634 1_655
Fe3 P8 2.310634 1_555
Fe4 P9 2.259960 1_555
Fe4 P1 2.289354 1_565
Fe4 P7 2.328549 1_555
Fe4 P7 2.328549 1_455
Fe5 P8 2.235592 1_555
Fe5 P6 2.263476 1_555
Fe5 P6 2.263476 1_455
Fe5 P0 2.275407 1_555
Fe5 Ta0 2.655766 1_554
Fe6 P11 2.276642 1_555
Fe6 P3 2.298714 1_545
Fe6 P5 2.317027 1_655
Fe6 P5 2.317027 1_555
Fe7 P2 2.212156 1_555
Fe7 P10 2.247947 1_555
Fe7 P4 2.281584 1_655
Fe7 P4 2.281584 1_555
Fe8 P5 2.200367 1_555
Fe8 P8 2.257136 1_555
Fe8 P10 2.276775 1_555
Fe8 P10 2.276775 1_455
Fe9 P9 2.192890 1_545
Fe9 P4 2.201406 1_555
Fe9 P11 2.269483 1_456
Fe9 P11 2.269483 1_556
Fe10 P7 2.183087 1_555
Fe10 P10 2.255716 1_555
Fe10 P8 2.278921 1_555
Fe10 P8 2.278921 1_655
Fe11 P11 2.263970 1_565
Fe11 P9 2.308117 1_554
Fe11 P9 2.308117 1_654
Fe11 P6 2.362522 1_555
Fe11 Ta0 2.778420 1_554
Fe11 Ta0 2.778420 1_654
Fe12 P4 2.155422 1_555
Fe12 P0 2.194778 1_556
Fe12 P2 2.228198 1_555
Fe12 P2 2.228198 1_455
Fe12 Ta0 2.606026 1_555
Fe13 P5 2.173684 1_555
Fe13 P1 2.178346 1_555
Fe13 P3 2.227794 1_545
Fe13 P3 2.227794 1_445
Fe14 P0 2.196618 1_555
Fe14 P0 2.196618 1_655
Fe14 P2 2.251517 1_554
Fe14 P6 2.266396 1_555
Fe14 Ta0 2.679722 1_554
Fe14 Ta0 2.679722 1_654
Fe15 P7 2.177788 1_555
Fe15 P3 2.178540 1_555
Fe15 P1 2.227888 1_565
Fe15 P1 2.227888 1_665
Fe16 P8 2.278438 1_555
Fe16 P7 2.429413 1_455
Fe16 P7 2.429413 1_555
Fe16 P3 2.543436 1_555
Fe16 P3 2.543436 1_455
Fe17 P11 2.250412 1_555
Fe17 P4 2.505175 1_554
Fe17 P4 2.505175 1_654
Fe17 P0 2.563182 1_555
Fe17 P0 2.563182 1_655
Fe18 P10 2.267150 1_555
Fe18 P5 2.461972 1_655
Fe18 P5 2.461972 1_555
Fe18 P1 2.521474 1_655
Fe18 P1 2.521474 1_555
P0 Sc2 2.764386 1_455
P0 Sc2 2.764386 1_555
P1 Sc3 2.761281 1_455
P1 Sc3 2.761281 1_555
P2 Ta0 2.613734 1_555
P2 Ta0 2.613734 1_655
P2 Sc0 2.736255 1_555
P2 Sc0 2.736255 1_655
P3 Sc1 2.759484 1_555
P3 Sc1 2.759484 1_655
P4 Sc3 2.697578 1_555
P4 Sc3 2.697578 1_455
P5 Sc2 2.729384 1_555
P5 Sc2 2.729384 1_455
P6 Ta0 2.572509 1_554
P6 Ta0 2.572509 1_654
P6 Sc1 2.713465 1_655
P6 Sc1 2.713465 1_555
P7 Sc0 2.739350 1_555
P7 Sc0 2.739350 1_655
P8 Sc2 2.804621 1_555
P8 Sc2 2.804621 1_455
P9 Ta0 2.490833 1_555
P9 Sc3 2.712132 1_565
P9 Sc3 2.712132 1_465
P10 Sc0 2.808616 1_655
P10 Sc0 2.808616 1_555
P11 Sc1 2.841091 1_545
P11 Sc1 2.841091 1_645
