# generated using pymatgen
data_Li3VSi2O7
_symmetry_space_group_name_H-M   'P 1'
_cell_length_a   8.59754833
_cell_length_b   8.61494728
_cell_length_c   13.15185563
_cell_angle_alpha   89.71787247
_cell_angle_beta   90.01285907
_cell_angle_gamma   120.12799625
_symmetry_Int_Tables_number   1
_chemical_formula_structural   Li3VSi2O7
_chemical_formula_sum   'Li18 V6 Si12 O42'
_cell_volume   842.51296989
_cell_formula_units_Z   6
loop_
 _symmetry_equiv_pos_site_id
 _symmetry_equiv_pos_as_xyz
  1  'x, y, z'
loop_
 _atom_site_type_symbol
 _atom_site_label
 _atom_site_symmetry_multiplicity
 _atom_site_fract_x
 _atom_site_fract_y
 _atom_site_fract_z
 _atom_site_occupancy
  Li  Li0  1  0.02533100  0.68868700  0.90061500  1
  Li  Li1  1  0.02222100  0.69401300  0.56608100  1
  Li  Li2  1  0.33405200  0.66773900  0.22851100  1
  Li  Li3  1  0.33018500  0.66242500  0.72907000  1
  Li  Li4  1  0.00057000  0.99965600  0.43568400  1
  Li  Li5  1  0.99955600  0.99806700  0.93584500  1
  Li  Li6  1  0.30767000  0.33110700  0.56390300  1
  Li  Li7  1  0.31044700  0.33525800  0.89977500  1
  Li  Li8  1  0.66731100  0.97503300  0.90066100  1
  Li  Li9  1  0.67269900  0.97810900  0.56746300  1
  Li  Li10  1  0.32722800  0.02268600  0.06664400  1
  Li  Li11  1  0.33358900  0.02381800  0.39785700  1
  Li  Li12  1  0.68885000  0.66333600  0.40132000  1
  Li  Li13  1  0.69352100  0.67098900  0.06491200  1
  Li  Li14  1  0.65890000  0.32732300  0.23234700  1
  Li  Li15  1  0.66600300  0.33280000  0.72875300  1
  Li  Li16  1  0.97751900  0.30830500  0.06561200  1
  Li  Li17  1  0.97570500  0.30897400  0.40111400  1
  V  V0  1  0.99625100  0.99637200  0.22758900  1
  V  V1  1  0.00423300  0.00387300  0.72780900  1
  V  V2  1  0.33358000  0.66717000  0.51032600  1
  V  V3  1  0.33482400  0.66767600  0.95607300  1
  V  V4  1  0.66609200  0.33263600  0.45658600  1
  V  V5  1  0.66591100  0.33324600  0.01040300  1
  Si  Si0  1  0.02623200  0.67357200  0.34549200  1
  Si  Si1  1  0.02386500  0.67169400  0.12139700  1
  Si  Si2  1  0.32644300  0.35268300  0.12135700  1
  Si  Si3  1  0.32453300  0.35145000  0.34447900  1
  Si  Si4  1  0.64926600  0.97695100  0.12171900  1
  Si  Si5  1  0.64917100  0.97458500  0.34561100  1
  Si  Si6  1  0.35132300  0.02600600  0.84584100  1
  Si  Si7  1  0.35182500  0.02345300  0.62140700  1
  Si  Si8  1  0.67550900  0.64834900  0.84468000  1
  Si  Si9  1  0.67355100  0.64868500  0.62157000  1
  Si  Si10  1  0.97529100  0.32759200  0.62151400  1
  Si  Si11  1  0.97381800  0.32648900  0.84540100  1
  O  O0  1  0.13184800  0.92697300  0.84148200  1
  O  O1  1  0.13329300  0.92417900  0.62739300  1
  O  O2  1  0.12870800  0.69412700  0.23344100  1
  O  O3  1  0.18624200  0.75586200  0.03689700  1
  O  O4  1  0.18820900  0.75779300  0.43012200  1
  O  O5  1  0.11788100  0.54109200  0.60494900  1
  O  O6  1  0.11894700  0.53899000  0.85920200  1
  O  O7  1  0.07035300  0.20403800  0.84213200  1
  O  O8  1  0.42166800  0.88374900  0.86282000  1
  O  O9  1  0.07582400  0.21042200  0.62850700  1
  O  O10  1  0.42356300  0.88235700  0.60681200  1
  O  O11  1  0.24489800  0.43442800  0.03671900  1
  O  O12  1  0.24147800  0.42722000  0.43054000  1
  O  O13  1  0.30475700  0.43583400  0.23283200  1
  O  O14  1  0.20312800  0.13214300  0.33936700  1
  O  O15  1  0.56786600  0.87063100  0.23403100  1
  O  O16  1  0.20734800  0.13514800  0.12782000  1
  O  O17  1  0.57064700  0.81227800  0.43081600  1
  O  O18  1  0.57287800  0.81599300  0.03703400  1
  O  O19  1  0.46000400  0.57848900  0.60596400  1
  O  O20  1  0.46261400  0.58088500  0.86035100  1
  O  O21  1  0.53772000  0.41964000  0.35949700  1
  O  O22  1  0.54015300  0.42336900  0.10541400  1
  O  O23  1  0.43107200  0.18708700  0.53681700  1
  O  O24  1  0.42832700  0.18828900  0.92958300  1
  O  O25  1  0.79296000  0.86629600  0.62851300  1
  O  O26  1  0.43309200  0.12857800  0.73331000  1
  O  O27  1  0.79753000  0.86736500  0.83965800  1
  O  O28  1  0.69433700  0.56414200  0.73330100  1
  O  O29  1  0.75934600  0.57059700  0.92973500  1
  O  O30  1  0.75573500  0.56964400  0.53673300  1
  O  O31  1  0.57492200  0.11668700  0.10657000  1
  O  O32  1  0.92586100  0.79148200  0.12766800  1
  O  O33  1  0.57972400  0.11793700  0.35965300  1
  O  O34  1  0.92912300  0.79539100  0.34159700  1
  O  O35  1  0.88246300  0.46105700  0.36252500  1
  O  O36  1  0.88109600  0.45848100  0.10628300  1
  O  O37  1  0.81134900  0.24207900  0.93003500  1
  O  O38  1  0.81316200  0.24265600  0.53726400  1
  O  O39  1  0.87027500  0.30470000  0.73335500  1
  O  O40  1  0.86774800  0.07865200  0.12850300  1
  O  O41  1  0.86877400  0.07243600  0.34182200  1
loop_
_geom_bond_atom_site_label_1
_geom_bond_atom_site_label_2
_geom_bond_distance
_geom_bond_site_symmetry_2
Li0 O6 1.912257 1_555
Li0 O0 1.937770 1_555
Li0 O29 2.017990 1_455
Li0 O3 2.160270 1_556
Li1 O1 1.899595 1_555
Li1 O5 1.937560 1_555
Li1 O30 2.021288 1_455
Li1 O4 2.177188 1_555
Li2 O13 1.884628 1_555
Li2 O15 1.890864 1_555
Li2 O2 1.890980 1_555
Li3 O5 2.277993 1_555
Li3 O19 2.283100 1_555
Li3 O10 2.294213 1_555
Li3 O6 2.324441 1_555
Li3 O20 2.358168 1_555
Li3 O8 2.423911 1_555
Li4 O41 1.976345 1_465
Li4 O14 1.982819 1_565
Li4 O34 1.985236 1_455
Li5 O0 1.978990 1_655
Li5 O7 1.983106 1_665
Li5 O27 1.983635 1_555
Li6 O9 1.920360 1_555
Li6 O19 1.942304 1_555
Li6 O23 2.029258 1_555
Li6 O12 2.131703 1_555
Li7 O20 1.915345 1_555
Li7 O7 1.943932 1_555
Li7 O24 2.016682 1_555
Li7 O11 2.188674 1_556
Li8 O8 1.913762 1_555
Li8 O27 1.951326 1_555
Li8 O37 2.030776 1_565
Li8 O18 2.147792 1_556
Li9 O25 1.906158 1_555
Li9 O10 1.938769 1_555
Li9 O38 2.009633 1_565
Li9 O17 2.192452 1_555
Li10 O16 1.912798 1_555
Li10 O31 1.933657 1_555
Li10 O3 2.029237 1_545
Li10 O24 2.184214 1_554
Li11 O33 1.913639 1_555
Li11 O14 1.940116 1_555
Li11 O4 2.027240 1_545
Li11 O23 2.205017 1_555
Li12 O21 1.916005 1_555
Li12 O34 1.952254 1_555
Li12 O17 2.035629 1_555
Li12 O30 2.145978 1_555
Li13 O32 1.917056 1_555
Li13 O22 1.933519 1_555
Li13 O18 2.016639 1_555
Li13 O29 2.176213 1_554
Li14 O33 2.293179 1_555
Li14 O31 2.294408 1_555
Li14 O22 2.312468 1_555
Li14 O21 2.315186 1_555
Li14 O36 2.343309 1_555
Li14 O35 2.397488 1_555
Li15 O28 1.883814 1_555
Li15 O26 1.889746 1_555
Li15 O39 1.890302 1_555
Li16 O40 1.897083 1_555
Li16 O36 1.931543 1_555
Li16 O11 2.024448 1_655
Li16 O37 2.176373 1_554
Li17 O35 1.914277 1_555
Li17 O41 1.934020 1_555
Li17 O12 2.018785 1_655
Li17 O38 2.162227 1_555
O0 Si6 1.635872 1_565
O0 V1 2.144046 1_565
O1 Si7 1.629111 1_565
O1 V1 2.054519 1_565
O2 Si0 1.679499 1_555
O2 Si1 1.687794 1_555
O3 Si1 1.639007 1_555
O3 V3 2.078888 1_554
O4 Si0 1.642431 1_555
O4 V2 2.062789 1_555
O5 Si10 1.632779 1_455
O5 V2 2.033032 1_555
O6 Si11 1.628292 1_455
O6 V3 2.060161 1_555
O7 Si11 1.637958 1_455
O7 V1 2.144417 1_555
O8 Si6 1.630610 1_565
O8 V3 2.027163 1_555
O9 Si10 1.627683 1_455
O9 V1 2.031944 1_555
O10 Si7 1.627800 1_565
O10 V2 2.056322 1_555
O11 Si2 1.647459 1_555
O11 V3 2.044575 1_554
O12 Si3 1.640929 1_555
O12 V2 2.092617 1_555
O13 Si3 1.681350 1_555
O13 Si2 1.685796 1_555
O14 Si3 1.638622 1_555
O14 V0 2.149447 1_445
O15 Si5 1.681729 1_555
O15 Si4 1.689447 1_555
O16 Si2 1.624771 1_555
O16 V0 2.062134 1_445
O17 Si5 1.644369 1_555
O17 V2 2.059312 1_555
O18 Si4 1.641724 1_555
O18 V3 2.083861 1_554
O19 Si9 1.632524 1_555
O19 V2 2.042238 1_555
O20 Si8 1.631443 1_555
O20 V3 2.045871 1_555
O21 Si3 1.632074 1_555
O21 V4 2.056888 1_555
O22 Si2 1.632933 1_555
O22 V5 2.045999 1_555
O23 Si7 1.646166 1_555
O23 V4 2.052558 1_555
O24 Si6 1.640595 1_555
O24 V5 2.076798 1_556
O25 Si9 1.626777 1_555
O25 V1 2.064605 1_665
O26 Si6 1.682085 1_555
O26 Si7 1.688731 1_555
O27 Si8 1.636069 1_555
O27 V1 2.142720 1_665
O28 Si8 1.681273 1_555
O28 Si9 1.685750 1_555
O29 Si8 1.642097 1_555
O29 V5 2.069310 1_556
O30 Si9 1.642769 1_555
O30 V4 2.077301 1_555
O31 Si4 1.633226 1_545
O31 V5 2.050452 1_555
O32 Si1 1.629566 1_655
O32 V0 2.039363 1_555
O33 Si5 1.630420 1_545
O33 V4 2.059555 1_555
O34 Si0 1.637099 1_655
O34 V0 2.133285 1_555
O35 Si0 1.629180 1_655
O35 V4 2.033822 1_555
O36 Si1 1.631019 1_655
O36 V5 2.045844 1_555
O37 Si11 1.640721 1_555
O37 V5 2.071772 1_556
O38 Si10 1.639988 1_555
O38 V4 2.073840 1_555
O39 Si11 1.683342 1_555
O39 Si10 1.684242 1_555
O40 Si4 1.628676 1_545
O40 V0 2.048832 1_545
O41 Si5 1.636982 1_545
O41 V0 2.149216 1_545
