# generated using pymatgen
data_Nd6Si4Ni7
_symmetry_space_group_name_H-M   'P 1'
_cell_length_a   5.94537800
_cell_length_b   7.51714800
_cell_length_c   29.98988200
_cell_angle_alpha   90.00000000
_cell_angle_beta   90.00000000
_cell_angle_gamma   90.00000000
_symmetry_Int_Tables_number   1
_chemical_formula_structural   Nd6Si4Ni7
_chemical_formula_sum   'Nd24 Si16 Ni28'
_cell_volume   1340.31639371
_cell_formula_units_Z   4
loop_
 _symmetry_equiv_pos_site_id
 _symmetry_equiv_pos_as_xyz
  1  'x, y, z'
loop_
 _atom_site_type_symbol
 _atom_site_label
 _atom_site_symmetry_multiplicity
 _atom_site_fract_x
 _atom_site_fract_y
 _atom_site_fract_z
 _atom_site_occupancy
  Nd  Nd0  1  0.11342300  0.38280700  0.07928500  1
  Nd  Nd1  1  0.88657700  0.61719300  0.92071500  1
  Nd  Nd2  1  0.88657700  0.61719300  0.57928500  1
  Nd  Nd3  1  0.88657700  0.88280700  0.42071500  1
  Nd  Nd4  1  0.11342300  0.38280700  0.42071500  1
  Nd  Nd5  1  0.11342300  0.11719300  0.57928500  1
  Nd  Nd6  1  0.11342300  0.11719300  0.92071500  1
  Nd  Nd7  1  0.88657700  0.88280700  0.07928500  1
  Nd  Nd8  1  0.62267500  0.25000000  0.00000000  1
  Nd  Nd9  1  0.37732500  0.75000000  0.00000000  1
  Nd  Nd10  1  0.37732500  0.75000000  0.50000000  1
  Nd  Nd11  1  0.62267500  0.25000000  0.50000000  1
  Nd  Nd12  1  0.12680100  0.02021400  0.25000000  1
  Nd  Nd13  1  0.87319900  0.97978600  0.75000000  1
  Nd  Nd14  1  0.87319900  0.52021400  0.25000000  1
  Nd  Nd15  1  0.12680100  0.47978600  0.75000000  1
  Nd  Nd16  1  0.39352300  0.38880300  0.18169100  1
  Nd  Nd17  1  0.60647700  0.61119700  0.81830900  1
  Nd  Nd18  1  0.60647700  0.61119700  0.68169100  1
  Nd  Nd19  1  0.60647700  0.88880300  0.31830900  1
  Nd  Nd20  1  0.39352300  0.38880300  0.31830900  1
  Nd  Nd21  1  0.39352300  0.11119700  0.68169100  1
  Nd  Nd22  1  0.39352300  0.11119700  0.81830900  1
  Nd  Nd23  1  0.60647700  0.88880300  0.18169100  1
  Si  Si0  1  0.11123500  0.73084400  0.17309500  1
  Si  Si1  1  0.88876500  0.26915600  0.82690500  1
  Si  Si2  1  0.88876500  0.26915600  0.67309500  1
  Si  Si3  1  0.88876500  0.23084400  0.32690500  1
  Si  Si4  1  0.11123500  0.73084400  0.32690500  1
  Si  Si5  1  0.11123500  0.76915600  0.67309500  1
  Si  Si6  1  0.11123500  0.76915600  0.82690500  1
  Si  Si7  1  0.88876500  0.23084400  0.17309500  1
  Si  Si8  1  0.39206300  0.03704800  0.08253200  1
  Si  Si9  1  0.60793700  0.96295200  0.91746800  1
  Si  Si10  1  0.60793700  0.96295200  0.58253200  1
  Si  Si11  1  0.60793700  0.53704800  0.41746800  1
  Si  Si12  1  0.39206300  0.03704800  0.41746800  1
  Si  Si13  1  0.39206300  0.46295200  0.58253200  1
  Si  Si14  1  0.39206300  0.46295200  0.91746800  1
  Si  Si15  1  0.60793700  0.53704800  0.08253200  1
  Ni  Ni0  1  0.68528900  0.17558700  0.25000000  1
  Ni  Ni1  1  0.31471100  0.82441300  0.75000000  1
  Ni  Ni2  1  0.31471100  0.67558700  0.25000000  1
  Ni  Ni3  1  0.68528900  0.32441300  0.75000000  1
  Ni  Ni4  1  0.64668100  0.24275300  0.10982500  1
  Ni  Ni5  1  0.35331900  0.75724700  0.89017500  1
  Ni  Ni6  1  0.35331900  0.75724700  0.60982500  1
  Ni  Ni7  1  0.35331900  0.74275300  0.39017500  1
  Ni  Ni8  1  0.64668100  0.24275300  0.39017500  1
  Ni  Ni9  1  0.64668100  0.25724700  0.60982500  1
  Ni  Ni10  1  0.64668100  0.25724700  0.89017500  1
  Ni  Ni11  1  0.35331900  0.74275300  0.10982500  1
  Ni  Ni12  1  0.14927200  0.09429400  0.01835800  1
  Ni  Ni13  1  0.85072800  0.90570600  0.98164200  1
  Ni  Ni14  1  0.85072800  0.90570600  0.51835800  1
  Ni  Ni15  1  0.85072800  0.59429400  0.48164200  1
  Ni  Ni16  1  0.14927200  0.09429400  0.48164200  1
  Ni  Ni17  1  0.14927200  0.40570600  0.51835800  1
  Ni  Ni18  1  0.14927200  0.40570600  0.98164200  1
  Ni  Ni19  1  0.85072800  0.59429400  0.01835800  1
  Ni  Ni20  1  0.15922200  0.02974400  0.14806800  1
  Ni  Ni21  1  0.84077800  0.97025600  0.85193200  1
  Ni  Ni22  1  0.84077800  0.97025600  0.64806800  1
  Ni  Ni23  1  0.84077800  0.52974400  0.35193200  1
  Ni  Ni24  1  0.15922200  0.02974400  0.35193200  1
  Ni  Ni25  1  0.15922200  0.47025600  0.64806800  1
  Ni  Ni26  1  0.15922200  0.47025600  0.85193200  1
  Ni  Ni27  1  0.84077800  0.52974400  0.14806800  1
loop_
_geom_bond_atom_site_label_1
_geom_bond_atom_site_label_2
_geom_bond_distance
_geom_bond_site_symmetry_2
Nd0 Ni12 2.843894 1_555
Nd0 Ni27 2.846526 1_455
Nd0 Ni19 2.881895 1_455
Nd0 Ni18 2.941090 1_554
Nd0 Si8 3.083716 1_555
Nd0 Ni4 3.106066 1_455
Nd0 Si15 3.161936 1_555
Nd0 Ni11 3.192849 1_555
Nd0 Si15 3.222681 1_455
Nd0 Si7 3.317211 1_455
Nd0 Ni4 3.463932 1_555
Nd1 Ni13 2.843894 1_555
Nd1 Ni26 2.846526 1_655
Nd1 Ni18 2.881895 1_655
Nd1 Ni19 2.941090 1_556
Nd1 Si9 3.083716 1_555
Nd1 Ni5 3.106066 1_655
Nd1 Si14 3.161936 1_555
Nd1 Ni10 3.192849 1_555
Nd1 Si14 3.222681 1_655
Nd1 Si6 3.317211 1_655
Nd1 Ni5 3.463932 1_555
Nd2 Ni14 2.843894 1_555
Nd2 Ni25 2.846526 1_655
Nd2 Ni17 2.881895 1_655
Nd2 Ni15 2.941090 1_555
Nd2 Si10 3.083716 1_555
Nd2 Ni6 3.106066 1_655
Nd2 Si13 3.161936 1_555
Nd2 Ni9 3.192849 1_555
Nd2 Si13 3.222681 1_655
Nd2 Si5 3.317211 1_655
Nd2 Ni6 3.463932 1_555
Nd3 Ni15 2.843894 1_555
Nd3 Ni24 2.846526 1_665
Nd3 Ni16 2.881895 1_665
Nd3 Ni14 2.941090 1_555
Nd3 Si11 3.083716 1_555
Nd3 Ni7 3.106066 1_655
Nd3 Si12 3.161936 1_565
Nd3 Ni8 3.192849 1_565
Nd3 Si12 3.222681 1_665
Nd3 Si4 3.317211 1_655
Nd3 Ni7 3.463932 1_555
Nd4 Ni16 2.843894 1_555
Nd4 Ni23 2.846526 1_455
Nd4 Ni15 2.881895 1_455
Nd4 Ni17 2.941090 1_555
Nd4 Si12 3.083716 1_555
Nd4 Ni8 3.106066 1_455
Nd4 Si11 3.161936 1_555
Nd4 Ni7 3.192849 1_555
Nd4 Si11 3.222681 1_455
Nd4 Si3 3.317211 1_455
Nd4 Ni8 3.463932 1_555
Nd5 Ni17 2.843894 1_555
Nd5 Ni22 2.846526 1_445
Nd5 Ni14 2.881895 1_445
Nd5 Ni16 2.941090 1_555
Nd5 Si13 3.083716 1_555
Nd5 Ni9 3.106066 1_455
Nd5 Si10 3.161936 1_545
Nd5 Ni6 3.192849 1_545
Nd5 Si10 3.222681 1_445
Nd5 Si2 3.317211 1_455
Nd5 Ni9 3.463932 1_555
Nd6 Ni18 2.843894 1_555
Nd6 Ni21 2.846526 1_445
Nd6 Ni13 2.881895 1_445
Nd6 Ni12 2.941090 1_556
Nd6 Si14 3.083716 1_555
Nd6 Ni10 3.106066 1_455
Nd6 Si9 3.161936 1_545
Nd6 Ni5 3.192849 1_545
Nd6 Si9 3.222681 1_445
Nd6 Si1 3.317211 1_455
Nd6 Ni10 3.463932 1_555
Nd7 Ni19 2.843894 1_555
Nd7 Ni20 2.846526 1_665
Nd7 Ni12 2.881895 1_665
Nd7 Ni13 2.941090 1_554
Nd7 Si15 3.083716 1_555
Nd7 Ni11 3.106066 1_655
Nd7 Si8 3.161936 1_565
Nd7 Ni4 3.192849 1_565
Nd7 Si8 3.222681 1_665
Nd7 Si0 3.317211 1_655
Nd7 Ni11 3.463932 1_555
Nd8 Ni19 2.973176 1_555
Nd8 Ni13 2.973176 1_544
Nd8 Ni18 3.097555 1_554
Nd8 Ni12 3.097555 1_555
Nd8 Si8 3.250942 1_555
Nd8 Si14 3.250942 1_554
Nd8 Si15 3.284805 1_555
Nd8 Si9 3.284805 1_544
Nd8 Ni4 3.297180 1_555
Nd8 Ni10 3.297180 1_554
Nd8 Ni18 3.387495 1_654
Nd8 Ni12 3.387495 1_655
Nd9 Ni12 2.973176 1_565
Nd9 Ni18 2.973176 1_554
Nd9 Ni19 3.097555 1_555
Nd9 Ni13 3.097555 1_554
Nd9 Si9 3.250942 1_554
Nd9 Si15 3.250942 1_555
Nd9 Si8 3.284805 1_565
Nd9 Si14 3.284805 1_554
Nd9 Ni11 3.297180 1_555
Nd9 Ni5 3.297180 1_554
Nd9 Ni19 3.387495 1_455
Nd9 Ni13 3.387495 1_454
Nd10 Ni16 2.973176 1_565
Nd10 Ni17 2.973176 1_555
Nd10 Ni14 3.097555 1_555
Nd10 Ni15 3.097555 1_555
Nd10 Si10 3.250942 1_555
Nd10 Si11 3.250942 1_555
Nd10 Si13 3.284805 1_555
Nd10 Si12 3.284805 1_565
Nd10 Ni6 3.297180 1_555
Nd10 Ni7 3.297180 1_555
Nd10 Ni14 3.387495 1_455
Nd10 Ni15 3.387495 1_455
Nd11 Ni14 2.973176 1_545
Nd11 Ni15 2.973176 1_555
Nd11 Ni17 3.097555 1_555
Nd11 Ni16 3.097555 1_555
Nd11 Si13 3.250942 1_555
Nd11 Si12 3.250942 1_555
Nd11 Si10 3.284805 1_545
Nd11 Si11 3.284805 1_555
Nd11 Ni9 3.297180 1_555
Nd11 Ni8 3.297180 1_555
Nd11 Ni17 3.387495 1_655
Nd11 Ni16 3.387495 1_655
Nd12 Ni2 2.821241 1_545
Nd12 Ni0 2.873069 1_455
Nd12 Ni24 3.063837 1_555
Nd12 Ni20 3.063837 1_555
Nd12 Si3 3.135146 1_455
Nd12 Si7 3.135146 1_455
Nd12 Si4 3.171683 1_545
Nd12 Si0 3.171683 1_545
Nd12 Ni0 3.519849 1_555
Nd13 Ni3 2.821241 1_565
Nd13 Ni1 2.873069 1_655
Nd13 Ni21 3.063837 1_555
Nd13 Ni22 3.063837 1_555
Nd13 Si5 3.135146 1_655
Nd13 Si6 3.135146 1_655
Nd13 Si1 3.171683 1_565
Nd13 Si2 3.171683 1_565
Nd13 Ni1 3.519849 1_555
Nd14 Ni0 2.821241 1_555
Nd14 Ni2 2.873069 1_655
Nd14 Ni23 3.063837 1_555
Nd14 Ni27 3.063837 1_555
Nd14 Si4 3.135146 1_655
Nd14 Si0 3.135146 1_655
Nd14 Si3 3.171683 1_555
Nd14 Si7 3.171683 1_555
Nd14 Ni2 3.519849 1_555
Nd15 Ni1 2.821241 1_555
Nd15 Ni3 2.873069 1_455
Nd15 Ni26 3.063837 1_555
Nd15 Ni25 3.063837 1_555
Nd15 Si1 3.135146 1_455
Nd15 Si2 3.135146 1_455
Nd15 Si6 3.171683 1_555
Nd15 Si5 3.171683 1_555
Nd15 Ni3 3.519849 1_555
Nd16 Ni4 2.848831 1_555
Nd16 Ni2 3.010597 1_555
Nd16 Ni27 3.034809 1_555
Nd16 Si0 3.081251 1_555
Nd16 Ni0 3.126437 1_555
Nd16 Si7 3.185259 1_555
Nd16 Ni20 3.200372 1_555
Nd16 Si7 3.237629 1_455
Nd16 Si15 3.422013 1_555
Nd16 Ni11 3.432425 1_555
Nd17 Ni5 2.848831 1_555
Nd17 Ni3 3.010597 1_555
Nd17 Ni26 3.034809 1_555
Nd17 Si1 3.081251 1_555
Nd17 Ni1 3.126437 1_555
Nd17 Si6 3.185259 1_555
Nd17 Ni21 3.200372 1_555
Nd17 Si6 3.237629 1_655
Nd17 Si14 3.422013 1_555
Nd17 Ni10 3.432425 1_555
Nd18 Ni6 2.848831 1_555
Nd18 Ni3 3.010597 1_555
Nd18 Ni25 3.034809 1_555
Nd18 Si2 3.081251 1_555
Nd18 Ni1 3.126437 1_555
Nd18 Si5 3.185259 1_555
Nd18 Ni22 3.200372 1_555
Nd18 Si5 3.237629 1_655
Nd18 Si13 3.422013 1_555
Nd18 Ni9 3.432425 1_555
Nd19 Ni7 2.848831 1_555
Nd19 Ni0 3.010597 1_565
Nd19 Ni24 3.034809 1_565
Nd19 Si3 3.081251 1_565
Nd19 Ni2 3.126437 1_555
Nd19 Si4 3.185259 1_555
Nd19 Ni23 3.200372 1_555
Nd19 Si4 3.237629 1_655
Nd19 Si12 3.422013 1_565
Nd19 Ni8 3.432425 1_565
Nd20 Ni8 2.848831 1_555
Nd20 Ni2 3.010597 1_555
Nd20 Ni23 3.034809 1_555
Nd20 Si4 3.081251 1_555
Nd20 Ni0 3.126437 1_555
Nd20 Si3 3.185259 1_555
Nd20 Ni24 3.200372 1_555
Nd20 Si3 3.237629 1_455
Nd20 Si11 3.422013 1_555
Nd20 Ni7 3.432425 1_555
Nd21 Ni9 2.848831 1_555
Nd21 Ni1 3.010597 1_545
Nd21 Ni22 3.034809 1_545
Nd21 Si5 3.081251 1_545
Nd21 Ni3 3.126437 1_555
Nd21 Si2 3.185259 1_555
Nd21 Ni25 3.200372 1_555
Nd21 Si2 3.237629 1_455
Nd21 Si10 3.422013 1_545
Nd21 Ni6 3.432425 1_545
Nd22 Ni10 2.848831 1_555
Nd22 Ni1 3.010597 1_545
Nd22 Ni21 3.034809 1_545
Nd22 Si6 3.081251 1_545
Nd22 Ni3 3.126437 1_555
Nd22 Si1 3.185259 1_555
Nd22 Ni26 3.200372 1_555
Nd22 Si1 3.237629 1_455
Nd22 Si9 3.422013 1_545
Nd22 Ni5 3.432425 1_545
Nd23 Ni11 2.848831 1_555
Nd23 Ni0 3.010597 1_565
Nd23 Ni20 3.034809 1_565
Nd23 Si7 3.081251 1_565
Nd23 Ni2 3.126437 1_555
Nd23 Si0 3.185259 1_555
Nd23 Ni27 3.200372 1_555
Nd23 Si0 3.237629 1_655
Nd23 Si8 3.422013 1_565
Nd23 Ni4 3.432425 1_565
Ni0 Si7 2.637302 1_555
Ni0 Si3 2.637302 1_555
Ni1 Si6 2.637302 1_555
Ni1 Si5 2.637302 1_555
Ni2 Si0 2.637302 1_555
Ni2 Si4 2.637302 1_555
Ni3 Si1 2.637302 1_555
Ni3 Si2 2.637302 1_555
Ni4 Si8 2.313579 1_555
Ni4 Si15 2.370045 1_555
Ni4 Si7 2.383254 1_555
Ni5 Si9 2.313579 1_555
Ni5 Si14 2.370045 1_555
Ni5 Si6 2.383254 1_555
Ni6 Si10 2.313579 1_555
Ni6 Si13 2.370045 1_555
Ni6 Si5 2.383254 1_555
Ni7 Si11 2.313579 1_555
Ni7 Si12 2.370045 1_565
Ni7 Si4 2.383254 1_555
Ni8 Si12 2.313579 1_555
Ni8 Si11 2.370045 1_555
Ni8 Si3 2.383254 1_555
Ni9 Si13 2.313579 1_555
Ni9 Si10 2.370045 1_545
Ni9 Si2 2.383254 1_555
Ni10 Si14 2.313579 1_555
Ni10 Si9 2.370045 1_545
Ni10 Si1 2.383254 1_555
Ni10 Ni21 2.702079 1_545
Ni11 Si15 2.313579 1_555
Ni11 Si8 2.370045 1_565
Ni11 Si0 2.383254 1_555
Ni11 Ni20 2.702079 1_565
Ni12 Si8 2.443931 1_555
Ni12 Ni13 2.524406 1_444
Ni12 Ni18 2.586966 1_554
Ni13 Si9 2.443931 1_555
Ni13 Ni19 2.586966 1_556
Ni14 Si10 2.443931 1_555
Ni14 Ni16 2.524406 1_665
Ni14 Ni15 2.586966 1_555
Ni15 Si11 2.443931 1_555
Ni15 Ni17 2.524406 1_655
Ni16 Si12 2.443931 1_555
Ni16 Ni17 2.586966 1_555
Ni17 Si13 2.443931 1_555
Ni18 Si14 2.443931 1_555
Ni18 Ni19 2.524406 1_456
Ni19 Si15 2.443931 1_555
Ni20 Si7 2.331123 1_455
Ni20 Si0 2.386039 1_545
Ni20 Si8 2.404629 1_555
Ni21 Si6 2.331123 1_655
Ni21 Si1 2.386039 1_565
Ni21 Si9 2.404629 1_555
Ni22 Si5 2.331123 1_655
Ni22 Si2 2.386039 1_565
Ni22 Si10 2.404629 1_555
Ni22 Ni9 2.702079 1_565
Ni23 Si4 2.331123 1_655
Ni23 Si3 2.386039 1_555
Ni23 Si11 2.404629 1_555
Ni23 Ni8 2.702079 1_555
Ni24 Si3 2.331123 1_455
Ni24 Si4 2.386039 1_545
Ni24 Si12 2.404629 1_555
Ni24 Ni7 2.702079 1_545
Ni25 Si2 2.331123 1_455
Ni25 Si5 2.386039 1_555
Ni25 Si13 2.404629 1_555
Ni25 Ni6 2.702079 1_555
Ni26 Si1 2.331123 1_455
Ni26 Si6 2.386039 1_555
Ni26 Si14 2.404629 1_555
Ni26 Ni5 2.702079 1_555
Ni27 Si0 2.331123 1_655
Ni27 Si7 2.386039 1_555
Ni27 Si15 2.404629 1_555
Ni27 Ni4 2.702079 1_555
