# generated using pymatgen
data_Fe3Cu
_symmetry_space_group_name_H-M   'P 1'
_cell_length_a   3.97113855
_cell_length_b   3.97113855
_cell_length_c   3.97113855
_cell_angle_alpha   60.00000000
_cell_angle_beta   60.00000000
_cell_angle_gamma   60.00000000
_symmetry_Int_Tables_number   1
_chemical_formula_structural   Fe3Cu
_chemical_formula_sum   'Fe3 Cu1'
_cell_volume   44.28229510
_cell_formula_units_Z   1
loop_
 _symmetry_equiv_pos_site_id
 _symmetry_equiv_pos_as_xyz
  1  'x, y, z'
loop_
 _atom_site_type_symbol
 _atom_site_label
 _atom_site_symmetry_multiplicity
 _atom_site_fract_x
 _atom_site_fract_y
 _atom_site_fract_z
 _atom_site_occupancy
  Fe  Fe0  1  0.25000000  0.25000000  0.25000000  1
  Fe  Fe1  1  0.75000000  0.75000000  0.75000000  1
  Fe  Fe2  1  0.50000000  0.50000000  0.50000000  1
  Cu  Cu0  1  0.00000000  0.00000000  0.00000000  1
loop_
_geom_bond_atom_site_label_1
_geom_bond_atom_site_label_2
_geom_bond_distance
_geom_bond_site_symmetry_2
Fe0 Fe2 2.431816 1_455
Fe0 Fe2 2.431816 1_554
Fe0 Fe2 2.431816 1_555
Fe0 Fe2 2.431816 1_545
Fe1 Fe2 2.431816 1_555
Fe1 Fe2 2.431816 1_556
Fe1 Fe2 2.431816 1_565
Fe1 Fe2 2.431816 1_655
Cu0 Fe0 2.431816 1_555
Cu0 Fe1 2.431816 1_445
Cu0 Fe0 2.431816 1_545
Cu0 Fe0 2.431816 1_554
Cu0 Fe1 2.431816 1_544
Cu0 Fe0 2.431816 1_455
Cu0 Fe1 2.431816 1_444
Cu0 Fe1 2.431816 1_454
Cu0 Fe2 2.808019 1_544
Cu0 Fe2 2.808019 1_445
Cu0 Fe2 2.808019 1_454
Cu0 Fe2 2.808019 1_545
Cu0 Fe2 2.808019 1_455
Cu0 Fe2 2.808019 1_554
