# generated using pymatgen
data_Mo3C8S13N2
_symmetry_space_group_name_H-M   'P 1'
_cell_length_a   5.88250400
_cell_length_b   10.83266608
_cell_length_c   10.84355615
_cell_angle_alpha   119.85889186
_cell_angle_beta   90.11740734
_cell_angle_gamma   90.17935594
_symmetry_Int_Tables_number   1
_chemical_formula_structural   Mo3C8S13N2
_chemical_formula_sum   'Mo3 C8 S13 N2'
_cell_volume   599.25247247
_cell_formula_units_Z   1
loop_
 _symmetry_equiv_pos_site_id
 _symmetry_equiv_pos_as_xyz
  1  'x, y, z'
loop_
 _atom_site_type_symbol
 _atom_site_label
 _atom_site_symmetry_multiplicity
 _atom_site_fract_x
 _atom_site_fract_y
 _atom_site_fract_z
 _atom_site_occupancy
  Mo  Mo0  1  0.41028600  0.81231300  0.47885100  1
  Mo  Mo1  1  0.40866500  0.52146500  0.33365100  1
  Mo  Mo2  1  0.40895600  0.66720800  0.18832400  1
  C  C0  1  0.97227000  0.90838400  0.90388400  1
  C  C1  1  0.97983400  0.09632900  0.00367900  1
  C  C2  1  0.94088000  0.99659100  0.09060600  1
  C  C3  1  0.15171900  0.99724400  0.01183100  1
  C  C4  1  0.98122100  0.23741200  0.57399200  1
  C  C5  1  0.93876300  0.42349800  0.66353300  1
  C  C6  1  0.97675900  0.33512900  0.76192400  1
  C  C7  1  0.15163600  0.34896200  0.66811300  1
  S  S0  1  0.17222600  0.99731700  0.66391800  1
  S  S1  1  0.16800900  0.33587800  0.33236200  1
  S  S2  1  0.16861900  0.66685900  0.00353100  1
  S  S3  1  0.49890400  0.03704000  0.70380600  1
  S  S4  1  0.49362700  0.29564900  0.33320000  1
  S  S5  1  0.49421300  0.66720500  0.96286900  1
  S  S6  1  0.10545100  0.66676300  0.33337500  1
  S  S7  1  0.38088700  0.93334800  0.33332100  1
  S  S8  1  0.38028200  0.66659800  0.59962200  1
  S  S9  1  0.37811100  0.40095200  0.06784600  1
  S  S10  1  0.68746200  0.84804300  0.33355300  1
  S  S11  1  0.68705000  0.66681200  0.51452100  1
  S  S12  1  0.68559400  0.48692000  0.15361900  1
  N  N0  1  0.78357900  0.00333400  0.98781600  1
  N  N1  1  0.78573700  0.31604600  0.66485500  1
loop_
_geom_bond_atom_site_label_1
_geom_bond_atom_site_label_2
_geom_bond_distance
_geom_bond_site_symmetry_2
Mo0 S6 2.384128 1_555
Mo0 S10 2.429906 1_555
Mo0 S11 2.430025 1_555
Mo0 S0 2.455427 1_555
Mo0 S3 2.494436 1_565
Mo0 S8 2.509046 1_555
Mo0 S7 2.509935 1_555
Mo1 S6 2.383496 1_555
Mo1 S12 2.427810 1_555
Mo1 S11 2.429656 1_555
Mo1 S1 2.449515 1_555
Mo1 S4 2.495878 1_555
Mo1 S9 2.508744 1_555
Mo1 S8 2.511212 1_555
Mo2 S6 2.383377 1_555
Mo2 S12 2.427878 1_555
Mo2 S10 2.428793 1_555
Mo2 S2 2.448444 1_555
Mo2 S5 2.496637 1_554
Mo2 S7 2.510289 1_555
Mo2 S9 2.510459 1_555
C0 N0 1.482388 1_565
C0 C3 1.509197 1_656
C1 N0 1.482085 1_554
C1 C3 1.511013 1_645
C2 N0 1.476881 1_564
C2 C3 1.509391 1_655
C4 N1 1.481147 1_555
C4 C7 1.505647 1_655
C5 N1 1.474960 1_555
C5 C7 1.506145 1_655
C6 N1 1.479985 1_555
C6 C7 1.506851 1_655
S0 S3 1.967538 1_565
S1 S4 1.966732 1_555
S2 S5 1.966696 1_554
S10 S7 2.029536 1_555
S11 S8 2.029024 1_555
S12 S9 2.030778 1_555
