# generated using pymatgen
data_CaAl2(SiO6)2
_symmetry_space_group_name_H-M   'P 1'
_cell_length_a   10.73267500
_cell_length_b   9.42709100
_cell_length_c   10.26826893
_cell_angle_alpha   88.24330472
_cell_angle_beta   90.00000000
_cell_angle_gamma   90.00000000
_symmetry_Int_Tables_number   1
_chemical_formula_structural   CaAl2(SiO6)2
_chemical_formula_sum   'Ca4 Al8 Si8 O48'
_cell_volume   1038.43364952
_cell_formula_units_Z   4
loop_
 _symmetry_equiv_pos_site_id
 _symmetry_equiv_pos_as_xyz
  1  'x, y, z'
loop_
 _atom_site_type_symbol
 _atom_site_label
 _atom_site_symmetry_multiplicity
 _atom_site_fract_x
 _atom_site_fract_y
 _atom_site_fract_z
 _atom_site_occupancy
  Ca  Ca0  1  0.58414100  0.28699600  0.96098600  1
  Ca  Ca1  1  0.08414100  0.71300400  0.03901400  1
  Ca  Ca2  1  0.42375400  0.72291300  0.54184100  1
  Ca  Ca3  1  0.92375400  0.27708700  0.45815900  1
  Al  Al0  1  0.62116000  0.91606100  0.09515600  1
  Al  Al1  1  0.12116000  0.08393900  0.90484400  1
  Al  Al2  1  0.38390600  0.08224800  0.41952100  1
  Al  Al3  1  0.88390600  0.91775200  0.58047900  1
  Al  Al4  1  0.34292400  0.42914300  0.10482800  1
  Al  Al5  1  0.84292400  0.57085700  0.89517200  1
  Al  Al6  1  0.65518000  0.57204800  0.39325400  1
  Al  Al7  1  0.15518000  0.42795200  0.60674600  1
  Si  Si0  1  0.61913000  0.57932700  0.08039000  1
  Si  Si1  1  0.11913000  0.42067300  0.91961000  1
  Si  Si2  1  0.37825700  0.42314800  0.41668400  1
  Si  Si3  1  0.87825700  0.57685200  0.58331600  1
  Si  Si4  1  0.37658800  0.09431900  0.09894800  1
  Si  Si5  1  0.87658800  0.90568100  0.90105200  1
  Si  Si6  1  0.64443100  0.91431000  0.41094900  1
  Si  Si7  1  0.14443100  0.08569000  0.58905100  1
  O  O0  1  0.65883500  0.94108300  0.25461400  1
  O  O1  1  0.15883500  0.05891700  0.74538600  1
  O  O2  1  0.35640700  0.06667200  0.25024800  1
  O  O3  1  0.85640700  0.93332800  0.74975200  1
  O  O4  1  0.59824000  0.74609100  0.04514500  1
  O  O5  1  0.09824000  0.25390900  0.95485500  1
  O  O6  1  0.41379900  0.25933100  0.45119700  1
  O  O7  1  0.91379900  0.74066900  0.54880300  1
  O  O8  1  0.67322000  0.55326300  0.22652000  1
  O  O9  1  0.17322000  0.44673700  0.77348000  1
  O  O10  1  0.32257900  0.43954000  0.27049400  1
  O  O11  1  0.82257900  0.56046000  0.72950600  1
  O  O12  1  0.86822300  0.74386300  0.95794700  1
  O  O13  1  0.36822300  0.25613700  0.04205300  1
  O  O14  1  0.13605100  0.25529600  0.54835400  1
  O  O15  1  0.63605100  0.74470400  0.45164600  1
  O  O16  1  0.50870000  0.04051100  0.03967300  1
  O  O17  1  0.00870000  0.95948900  0.96032700  1
  O  O18  1  0.50593800  0.96432800  0.46380300  1
  O  O19  1  0.00593800  0.03567200  0.53619700  1
  O  O20  1  0.75346600  0.98365400  0.98555200  1
  O  O21  1  0.25346600  0.01634600  0.01444800  1
  O  O22  1  0.26060000  0.01167000  0.51484600  1
  O  O23  1  0.76060000  0.98833000  0.48515400  1
  O  O24  1  0.71086100  0.49811100  0.97469600  1
  O  O25  1  0.21086100  0.50188900  0.02530400  1
  O  O26  1  0.28225300  0.50302500  0.51891800  1
  O  O27  1  0.78225300  0.49697500  0.48108200  1
  O  O28  1  0.49144000  0.48830400  0.05571000  1
  O  O29  1  0.99144000  0.51169600  0.94429000  1
  O  O30  1  0.50272400  0.52096600  0.44010600  1
  O  O31  1  0.00272400  0.47903400  0.55989400  1
  O  O32  1  0.56338800  0.82455000  0.74906600  1
  O  O33  1  0.06338800  0.17545000  0.25093400  1
  O  O34  1  0.43107800  0.27178800  0.69552700  1
  O  O35  1  0.93107800  0.72821200  0.30447300  1
  O  O36  1  0.50666300  0.36554700  0.72445400  1
  O  O37  1  0.00666300  0.63445300  0.27554600  1
  O  O38  1  0.34588400  0.67182900  0.75948700  1
  O  O39  1  0.84588400  0.32817100  0.24051300  1
  O  O40  1  0.66296500  0.13405500  0.72343500  1
  O  O41  1  0.16296500  0.86594500  0.27656500  1
  O  O42  1  0.47944800  0.89641300  0.79595300  1
  O  O43  1  0.97944800  0.10358700  0.20404700  1
  O  O44  1  0.75771500  0.13556200  0.96748400  1
  O  O45  1  0.25771500  0.86443800  0.03251600  1
  O  O46  1  0.23695200  0.79386200  0.34204700  1
  O  O47  1  0.73695200  0.20613800  0.65795300  1
loop_
_geom_bond_atom_site_label_1
_geom_bond_atom_site_label_2
_geom_bond_distance
_geom_bond_site_symmetry_2
Ca0 O44 2.346710 1_555
Ca0 O28 2.377090 1_556
Ca0 O24 2.418184 1_555
Ca0 O13 2.476478 1_556
Ca0 O16 2.567605 1_556
Ca0 O36 2.651131 1_555
Ca0 O40 2.993319 1_555
Ca1 O45 2.346710 1_555
Ca1 O29 2.377090 1_454
Ca1 O25 2.418184 1_555
Ca1 O12 2.476478 1_454
Ca1 O17 2.567605 1_554
Ca1 O37 2.651131 1_555
Ca1 O41 2.993319 1_555
Ca2 O30 2.357099 1_555
Ca2 O38 2.420528 1_555
Ca2 O15 2.465748 1_555
Ca2 O18 2.547110 1_555
Ca2 O26 2.586243 1_555
Ca2 O32 2.795834 1_555
Ca2 O46 2.931143 1_555
Ca3 O31 2.357099 1_655
Ca3 O39 2.420528 1_555
Ca3 O14 2.465748 1_655
Ca3 O19 2.547110 1_655
Ca3 O27 2.586243 1_555
Ca3 O33 2.795834 1_655
Ca3 O47 2.931143 1_555
Al0 O0 1.709902 1_555
Al0 O4 1.715258 1_555
Al0 O16 1.765457 1_565
Al0 O20 1.909209 1_554
Al1 O1 1.709902 1_555
Al1 O5 1.715258 1_555
Al1 O17 1.765457 1_545
Al1 O21 1.909209 1_556
Al2 O6 1.740356 1_555
Al2 O22 1.764156 1_555
Al2 O18 1.768305 1_545
Al2 O2 1.773541 1_555
Al3 O7 1.740356 1_555
Al3 O23 1.764156 1_555
Al3 O19 1.768305 1_665
Al3 O3 1.773541 1_555
Al4 O10 1.720831 1_555
Al4 O28 1.757535 1_555
Al4 O25 1.764015 1_555
Al4 O13 1.792667 1_555
Al5 O11 1.720831 1_555
Al5 O29 1.757535 1_555
Al5 O24 1.764015 1_555
Al5 O12 1.792667 1_555
Al6 O8 1.737417 1_555
Al6 O15 1.763721 1_555
Al6 O30 1.768187 1_555
Al6 O27 1.770620 1_555
Al7 O9 1.737417 1_555
Al7 O14 1.763721 1_555
Al7 O31 1.768187 1_555
Al7 O26 1.770620 1_555
O0 Si6 1.624720 1_555
O1 Si7 1.624720 1_555
O2 Si4 1.582294 1_555
O3 Si5 1.582294 1_555
O4 Si0 1.617979 1_555
O5 Si1 1.617979 1_555
O6 Si2 1.619403 1_555
O7 Si3 1.619403 1_555
O8 Si0 1.620583 1_555
O9 Si1 1.620583 1_555
O10 Si2 1.618675 1_555
O11 Si3 1.618675 1_555
O12 Si5 1.619195 1_555
O13 Si4 1.619195 1_555
O14 Si7 1.642622 1_555
O15 Si6 1.642622 1_555
O16 Si4 1.630084 1_555
O17 Si5 1.630084 1_455
O18 Si6 1.655885 1_555
O19 Si7 1.655885 1_555
O20 O44 1.439090 1_565
O20 Si5 1.754547 1_555
O21 O45 1.439090 1_545
O21 Si4 1.754547 1_555
O22 Si7 1.629298 1_555
O23 Si6 1.629298 1_555
O24 Si0 1.668615 1_556
O25 Si1 1.668615 1_554
O26 Si2 1.667086 1_555
O27 Si3 1.667086 1_555
O28 Si0 1.640734 1_555
O29 Si1 1.640734 1_655
O30 Si2 1.645087 1_555
O31 Si3 1.645087 1_455
O32 O42 1.233841 1_555
O33 O43 1.233841 1_455
O34 O36 1.242437 1_555
O35 O37 1.242437 1_655
O40 O47 1.231429 1_555
O41 O46 1.231429 1_555
