# generated using pymatgen
data_NaSrN
_symmetry_space_group_name_H-M   'P 1'
_cell_length_a   9.05090300
_cell_length_b   4.26737500
_cell_length_c   6.21796000
_cell_angle_alpha   90.00000000
_cell_angle_beta   90.00000000
_cell_angle_gamma   90.00000000
_symmetry_Int_Tables_number   1
_chemical_formula_structural   NaSrN
_chemical_formula_sum   'Na4 Sr4 N4'
_cell_volume   240.15998238
_cell_formula_units_Z   4
loop_
 _symmetry_equiv_pos_site_id
 _symmetry_equiv_pos_as_xyz
  1  'x, y, z'
loop_
 _atom_site_type_symbol
 _atom_site_label
 _atom_site_symmetry_multiplicity
 _atom_site_fract_x
 _atom_site_fract_y
 _atom_site_fract_z
 _atom_site_occupancy
  Na  Na0  1  0.58733100  0.25000000  0.95630300  1
  Na  Na1  1  0.08733100  0.25000000  0.54369700  1
  Na  Na2  1  0.41266900  0.75000000  0.04369700  1
  Na  Na3  1  0.91266900  0.75000000  0.45630300  1
  Sr  Sr0  1  0.64681300  0.25000000  0.47263800  1
  Sr  Sr1  1  0.14681300  0.25000000  0.02736200  1
  Sr  Sr2  1  0.35318700  0.75000000  0.52736200  1
  Sr  Sr3  1  0.85318700  0.75000000  0.97263800  1
  N  N0  1  0.88226500  0.25000000  0.22352200  1
  N  N1  1  0.38226500  0.25000000  0.27647800  1
  N  N2  1  0.11773500  0.75000000  0.77647800  1
  N  N3  1  0.61773500  0.75000000  0.72352200  1
loop_
_geom_bond_atom_site_label_1
_geom_bond_atom_site_label_2
_geom_bond_distance
_geom_bond_site_symmetry_2
N0 Na3 2.592948 1_555
N0 Na3 2.592948 1_545
N0 Sr0 2.634534 1_555
N0 Sr3 2.656209 1_554
N0 Sr3 2.656209 1_544
N0 Sr1 2.687164 1_655
N0 Na1 2.721816 1_655
N1 Na2 2.592948 1_545
N1 Na2 2.592948 1_555
N1 Sr1 2.634534 1_555
N1 Sr2 2.656209 1_555
N1 Sr2 2.656209 1_545
N1 Sr0 2.687164 1_555
N1 Na0 2.721816 1_554
N2 Na1 2.592948 1_565
N2 Na1 2.592948 1_555
N2 Sr2 2.634534 1_555
N2 Sr1 2.656209 1_556
N2 Sr1 2.656209 1_566
N2 Sr3 2.687164 1_455
N2 Na3 2.721816 1_455
N3 Na0 2.592948 1_565
N3 Na0 2.592948 1_555
N3 Sr3 2.634534 1_555
N3 Sr0 2.656209 1_555
N3 Sr0 2.656209 1_565
N3 Sr2 2.687164 1_555
N3 Na2 2.721816 1_556
