# generated using pymatgen
data_PrCdAu
_symmetry_space_group_name_H-M   'P 1'
_cell_length_a   7.96589913
_cell_length_b   7.96589913
_cell_length_c   4.01098589
_cell_angle_alpha   90.00000000
_cell_angle_beta   90.00000000
_cell_angle_gamma   119.99998646
_symmetry_Int_Tables_number   1
_chemical_formula_structural   PrCdAu
_chemical_formula_sum   'Pr3 Cd3 Au3'
_cell_volume   220.42021956
_cell_formula_units_Z   3
loop_
 _symmetry_equiv_pos_site_id
 _symmetry_equiv_pos_as_xyz
  1  'x, y, z'
loop_
 _atom_site_type_symbol
 _atom_site_label
 _atom_site_symmetry_multiplicity
 _atom_site_fract_x
 _atom_site_fract_y
 _atom_site_fract_z
 _atom_site_occupancy
  Pr  Pr0  1  0.59450112  1.00000000  0.00000000  1
  Pr  Pr1  1  1.00000000  0.59450112  -0.00000000  1
  Pr  Pr2  1  0.40549888  0.40549888  -0.00000000  1
  Cd  Cd0  1  0.25639772  1.00000000  0.50000000  1
  Cd  Cd1  1  1.00000000  0.25639772  0.50000000  1
  Cd  Cd2  1  0.74360228  0.74360228  0.50000000  1
  Au  Au0  1  0.33333300  0.66666700  0.50000000  1
  Au  Au1  1  0.66666700  0.33333300  0.50000000  1
  Au  Au2  1  -0.00000000  -0.00000000  0.00000000  1
loop_
_geom_bond_atom_site_label_1
_geom_bond_atom_site_label_2
_geom_bond_distance
_geom_bond_site_symmetry_2
Cd0 Pr0 3.357954 1_556
Cd0 Pr0 3.357954 1_555
Cd0 Pr2 3.468444 1_566
Cd0 Pr2 3.468444 1_565
Cd0 Pr1 3.468444 1_456
Cd0 Pr1 3.468444 1_455
Cd1 Pr1 3.357954 1_556
Cd1 Pr1 3.357954 1_555
Cd1 Pr2 3.468444 1_655
Cd1 Pr2 3.468444 1_656
Cd1 Pr0 3.468444 1_545
Cd1 Pr0 3.468444 1_546
Cd2 Pr2 3.357954 1_556
Cd2 Pr2 3.357954 1_555
Cd2 Pr1 3.468444 1_556
Cd2 Pr1 3.468444 1_555
Cd2 Pr0 3.468444 1_555
Cd2 Pr0 3.468444 1_556
Au0 Cd0 3.008907 1_555
Au0 Cd1 3.008913 1_455
Au0 Cd2 3.008915 1_555
Au0 Pr1 3.142712 1_456
Au0 Pr1 3.142712 1_455
Au0 Pr0 3.142714 1_556
Au0 Pr0 3.142714 1_555
Au0 Pr2 3.142717 1_555
Au0 Pr2 3.142717 1_556
Au1 Cd1 3.008907 1_555
Au1 Cd0 3.008913 1_545
Au1 Cd2 3.008915 1_555
Au1 Pr0 3.142712 1_546
Au1 Pr0 3.142712 1_545
Au1 Pr1 3.142714 1_556
Au1 Pr1 3.142714 1_555
Au1 Pr2 3.142717 1_555
Au1 Pr2 3.142717 1_556
Au2 Cd1 2.862439 1_455
Au2 Cd0 2.862439 1_544
Au2 Cd1 2.862439 1_454
Au2 Cd0 2.862439 1_545
Au2 Cd2 2.862439 1_445
Au2 Cd2 2.862439 1_444
Au2 Pr0 3.230163 1_445
Au2 Pr1 3.230163 1_445
Au2 Pr2 3.230164 1_555
