# generated using pymatgen
data_Li2ZnGe3
_symmetry_space_group_name_H-M   'P 1'
_cell_length_a   4.22187028
_cell_length_b   4.22187028
_cell_length_c   6.81348600
_cell_angle_alpha   90.00000000
_cell_angle_beta   90.00000000
_cell_angle_gamma   120.00000446
_symmetry_Int_Tables_number   1
_chemical_formula_structural   Li2ZnGe3
_chemical_formula_sum   'Li2 Zn1 Ge3'
_cell_volume   105.17432934
_cell_formula_units_Z   1
loop_
 _symmetry_equiv_pos_site_id
 _symmetry_equiv_pos_as_xyz
  1  'x, y, z'
loop_
 _atom_site_type_symbol
 _atom_site_label
 _atom_site_symmetry_multiplicity
 _atom_site_fract_x
 _atom_site_fract_y
 _atom_site_fract_z
 _atom_site_occupancy
  Li  Li0  1  0.33333300  0.66666700  0.71815400  1
  Li  Li1  1  0.33333300  0.66666700  0.28050900  1
  Zn  Zn0  1  0.00000000  0.00000000  0.53984400  1
  Ge  Ge0  1  0.66666700  0.33333300  0.45747100  1
  Ge  Ge1  1  0.66666700  0.33333300  0.07180400  1
  Ge  Ge2  1  0.00000000  0.00000000  0.93221800  1
loop_
_geom_bond_atom_site_label_1
_geom_bond_atom_site_label_2
_geom_bond_distance
_geom_bond_site_symmetry_2
Li0 Zn0 2.723490 1_565
Li0 Zn0 2.723493 1_555
Li0 Zn0 2.723493 1_665
Li1 Zn0 3.010579 1_565
Li1 Zn0 3.010582 1_555
Li1 Zn0 3.010582 1_665
Ge0 Zn0 2.501276 1_655
Ge0 Zn0 2.501280 1_555
Ge0 Zn0 2.501280 1_665
Ge0 Ge1 2.627737 1_555
Ge0 Li1 2.719405 1_545
Ge0 Li1 2.719405 1_655
Ge0 Li1 2.719412 1_555
Ge0 Li0 3.015979 1_655
Ge0 Li0 3.015979 1_545
Ge0 Li0 3.015985 1_555
Ge1 Ge2 2.616470 1_654
Ge1 Ge2 2.616473 1_554
Ge1 Ge2 2.616473 1_664
Ge1 Li1 2.821966 1_545
Ge1 Li1 2.821966 1_655
Ge1 Li1 2.821972 1_555
Ge2 Zn0 2.673435 1_555
Ge2 Li0 2.840541 1_545
Ge2 Li0 2.840544 1_555
Ge2 Li0 2.840544 1_445
