# generated using pymatgen
data_CrN2
_symmetry_space_group_name_H-M   'P 1'
_cell_length_a   5.28694100
_cell_length_b   5.73269152
_cell_length_c   6.57574666
_cell_angle_alpha   90.54232583
_cell_angle_beta   92.04580552
_cell_angle_gamma   91.24784060
_symmetry_Int_Tables_number   1
_chemical_formula_structural   CrN2
_chemical_formula_sum   'Cr4 N8'
_cell_volume   199.11564134
_cell_formula_units_Z   4
loop_
 _symmetry_equiv_pos_site_id
 _symmetry_equiv_pos_as_xyz
  1  'x, y, z'
loop_
 _atom_site_type_symbol
 _atom_site_label
 _atom_site_symmetry_multiplicity
 _atom_site_fract_x
 _atom_site_fract_y
 _atom_site_fract_z
 _atom_site_occupancy
  Cr  Cr0  1  0.20039100  0.24285000  0.11312000  1
  Cr  Cr1  1  0.86779600  0.48811500  0.83900000  1
  Cr  Cr2  1  0.48458100  0.73453200  0.11243100  1
  Cr  Cr3  1  0.34777700  0.49471600  0.50846900  1
  N  N0  1  0.34578200  0.99120200  0.03590400  1
  N  N1  1  0.62414700  0.43455700  0.67858900  1
  N  N2  1  0.32334700  0.49378700  0.00885500  1
  N  N3  1  0.22153600  0.25034100  0.37895100  1
  N  N4  1  0.47377000  0.72923400  0.38026900  1
  N  N5  1  0.77592800  0.71757000  0.00575700  1
  N  N6  1  0.89781800  0.24414500  0.00289200  1
  N  N7  1  0.11844600  0.56965900  0.66718200  1
loop_
_geom_bond_atom_site_label_1
_geom_bond_atom_site_label_2
_geom_bond_distance
_geom_bond_site_symmetry_2
Cr0 N2 1.723899 1_555
Cr0 N0 1.729775 1_545
Cr0 N6 1.732704 1_455
Cr0 N3 1.747682 1_555
Cr1 N1 1.657076 1_555
Cr1 N6 1.780096 1_556
Cr1 N5 1.790849 1_556
Cr1 N7 1.827851 1_655
Cr2 N5 1.719450 1_555
Cr2 N2 1.727647 1_555
Cr2 N0 1.729582 1_555
Cr2 N4 1.764727 1_555
Cr3 N7 1.687720 1_555
Cr3 N4 1.727538 1_555
Cr3 N3 1.740550 1_555
Cr3 N1 1.848747 1_555
