# generated using pymatgen
data_NbAgWO7
_symmetry_space_group_name_H-M   'P 1'
_cell_length_a   7.46287061
_cell_length_b   7.46287061
_cell_length_c   7.46287061
_cell_angle_alpha   121.21565356
_cell_angle_beta   119.00486735
_cell_angle_gamma   89.81982743
_symmetry_Int_Tables_number   1
_chemical_formula_structural   NbAgWO7
_chemical_formula_sum   'Nb2 Ag2 W2 O14'
_cell_volume   293.27369064
_cell_formula_units_Z   2
loop_
 _symmetry_equiv_pos_site_id
 _symmetry_equiv_pos_as_xyz
  1  'x, y, z'
loop_
 _atom_site_type_symbol
 _atom_site_label
 _atom_site_symmetry_multiplicity
 _atom_site_fract_x
 _atom_site_fract_y
 _atom_site_fract_z
 _atom_site_occupancy
  Nb  Nb0  1  0.50000000  0.50000000  0.00000000  1
  Nb  Nb1  1  0.00000000  0.50000000  0.50000000  1
  Ag  Ag0  1  0.00000000  0.00000000  0.50000000  1
  Ag  Ag1  1  0.00000000  0.50000000  0.00000000  1
  W  W0  1  0.50000000  0.50000000  0.50000000  1
  W  W1  1  0.50000000  0.00000000  0.00000000  1
  O  O0  1  0.07433800  0.82433800  0.25000000  1
  O  O1  1  0.92566200  0.17566200  0.75000000  1
  O  O2  1  0.44295800  0.19295800  0.25000000  1
  O  O3  1  0.81899700  0.56899700  0.25000000  1
  O  O4  1  0.44170300  0.56000800  0.25644000  1
  O  O5  1  0.80356800  0.18526400  0.24356000  1
  O  O6  1  0.44170300  0.18526400  0.88169500  1
  O  O7  1  0.80356800  0.56000800  0.61830500  1
  O  O8  1  0.55704200  0.80704200  0.75000000  1
  O  O9  1  0.18100300  0.43100300  0.75000000  1
  O  O10  1  0.55829700  0.43999200  0.74356000  1
  O  O11  1  0.19643200  0.81473600  0.75644000  1
  O  O12  1  0.55829700  0.81473600  0.11830500  1
  O  O13  1  0.19643200  0.43999200  0.38169500  1
loop_
_geom_bond_atom_site_label_1
_geom_bond_atom_site_label_2
_geom_bond_distance
_geom_bond_site_symmetry_2
Nb0 O6 1.992541 1_554
Nb0 O12 1.992541 1_555
Nb0 O4 1.992548 1_555
Nb0 O10 1.992548 1_554
Nb0 O3 2.029306 1_555
Nb0 O9 2.029306 1_554
Nb1 O11 1.992543 1_555
Nb1 O5 1.992543 1_455
Nb1 O13 1.992548 1_555
Nb1 O7 1.992548 1_455
Nb1 O3 2.029306 1_455
Nb1 O9 2.029306 1_555
Ag0 O0 1.992802 1_545
Ag0 O1 1.992802 1_455
Ag1 O1 1.992802 1_454
Ag1 O0 1.992802 1_555
O2 W1 1.928043 1_555
O2 W0 1.928043 1_555
O4 W0 1.941476 1_555
O5 W1 1.941478 1_555
O6 W1 1.941483 1_556
O7 W0 1.941476 1_555
O8 W0 1.928043 1_555
O8 W1 1.928043 1_566
O10 W0 1.941476 1_555
O11 W1 1.941478 1_566
O12 W1 1.941483 1_565
O13 W0 1.941476 1_555
