# generated using pymatgen
data_Zn3H24C12Br11O6
_symmetry_space_group_name_H-M   'P 1'
_cell_length_a   8.21114800
_cell_length_b   14.00222009
_cell_length_c   16.79960928
_cell_angle_alpha   73.91839792
_cell_angle_beta   76.77499850
_cell_angle_gamma   74.85895910
_symmetry_Int_Tables_number   1
_chemical_formula_structural   Zn3H24C12Br11O6
_chemical_formula_sum   'Zn6 H48 C24 Br22 O12'
_cell_volume   1765.85089323
_cell_formula_units_Z   2
loop_
 _symmetry_equiv_pos_site_id
 _symmetry_equiv_pos_as_xyz
  1  'x, y, z'
loop_
 _atom_site_type_symbol
 _atom_site_label
 _atom_site_symmetry_multiplicity
 _atom_site_fract_x
 _atom_site_fract_y
 _atom_site_fract_z
 _atom_site_occupancy
  Zn  Zn0  1  0.88901200  0.33492000  0.22678100  1
  Zn  Zn1  1  0.11098800  0.66508000  0.77321900  1
  Zn  Zn2  1  0.94952000  0.05191900  0.23519100  1
  Zn  Zn3  1  0.05048000  0.94808100  0.76480900  1
  Zn  Zn4  1  0.84776200  0.81335400  0.27296300  1
  Zn  Zn5  1  0.15223800  0.18664600  0.72703700  1
  H  H0  1  0.53617900  0.56715200  0.11555600  1
  H  H1  1  0.46382100  0.43284800  0.88444400  1
  H  H2  1  0.48052800  0.45298800  0.18482700  1
  H  H3  1  0.51947200  0.54701200  0.81517300  1
  H  H4  1  0.50251700  0.56808600  0.26846800  1
  H  H5  1  0.49748300  0.43191400  0.73153200  1
  H  H6  1  0.71602700  0.57582000  0.21356400  1
  H  H7  1  0.28397300  0.42418000  0.78643600  1
  H  H8  1  0.81387300  0.49828500  0.35041700  1
  H  H9  1  0.18612700  0.50171500  0.64958300  1
  H  H10  1  0.60342900  0.48027700  0.40350800  1
  H  H11  1  0.39657100  0.51972300  0.59649200  1
  H  H12  1  0.70567000  0.29368500  0.43604900  1
  H  H13  1  0.29433000  0.70631500  0.56395100  1
  H  H14  1  0.84548200  0.34952700  0.46909600  1
  H  H15  1  0.15451800  0.65047300  0.53090400  1
  H  H16  1  0.06668000  0.22040500  0.45821200  1
  H  H17  1  0.93332000  0.77959500  0.54178800  1
  H  H18  1  0.19909900  0.24784400  0.35814100  1
  H  H19  1  0.80090100  0.75215600  0.64185900  1
  H  H20  1  0.17746000  0.06205600  0.41239200  1
  H  H21  1  0.82254000  0.93794400  0.58760800  1
  H  H22  1  0.95374500  0.09985500  0.40666600  1
  H  H23  1  0.04625500  0.90014500  0.59333400  1
  H  H24  1  0.37608600  0.11222500  0.27666900  1
  H  H25  1  0.62391400  0.88777500  0.72333100  1
  H  H26  1  0.31893900  0.99454800  0.28428300  1
  H  H27  1  0.68106100  0.00545200  0.71571700  1
  H  H28  1  0.42540500  0.06138400  0.13617400  1
  H  H29  1  0.57459500  0.93861600  0.86382600  1
  H  H30  1  0.29875400  0.18698000  0.14017300  1
  H  H31  1  0.70124600  0.81302000  0.85982700  1
  H  H32  1  0.28983600  0.07435100  0.02093900  1
  H  H33  1  0.71016400  0.92564900  0.97906100  1
  H  H34  1  0.06871500  0.06840700  0.04376900  1
  H  H35  1  0.93128500  0.93159300  0.95623100  1
  H  H36  1  0.12302400  0.22851900  0.94670100  1
  H  H37  1  0.87697600  0.77148100  0.05329900  1
  H  H38  1  0.20882400  0.26040800  0.02198000  1
  H  H39  1  0.79117600  0.73959200  0.97802000  1
  H  H40  1  0.98360200  0.40994000  0.00289700  1
  H  H41  1  0.01639800  0.59006000  0.99710300  1
  H  H42  1  0.87573900  0.36460300  0.94438400  1
  H  H43  1  0.12426100  0.63539700  0.05561600  1
  H  H44  1  0.63208800  0.35504900  0.07390500  1
  H  H45  1  0.36791200  0.64495100  0.92609500  1
  H  H46  1  0.66021700  0.47798800  0.01027200  1
  H  H47  1  0.33978300  0.52201200  0.98972800  1
  C  C0  1  0.58068300  0.49829700  0.16270900  1
  C  C1  1  0.41931700  0.50170300  0.83729100  1
  C  C2  1  0.61994600  0.52783300  0.23490600  1
  C  C3  1  0.38005400  0.47216700  0.76509400  1
  C  C4  1  0.72355800  0.44717400  0.36675900  1
  C  C5  1  0.27644200  0.55282600  0.63324100  1
  C  C6  1  0.80034800  0.34259800  0.41453800  1
  C  C7  1  0.19965200  0.65740200  0.58546200  1
  C  C8  1  0.07919600  0.22371700  0.39089800  1
  C  C9  1  0.92080400  0.77628300  0.60910200  1
  C  C10  1  0.07908700  0.11970000  0.38017800  1
  C  C11  1  0.92091300  0.88030000  0.61982200  1
  C  C12  1  0.28803600  0.07752200  0.25890200  1
  C  C13  1  0.71196400  0.92247800  0.74109800  1
  C  C14  1  0.30433800  0.10491700  0.16441300  1
  C  C15  1  0.69566200  0.89508300  0.83558700  1
  C  C16  1  0.16184800  0.10644800  0.05237200  1
  C  C17  1  0.83815200  0.89355200  0.94762800  1
  C  C18  1  0.11653500  0.21958500  0.01489400  1
  C  C19  1  0.88346500  0.78041500  0.98510600  1
  C  C20  1  0.88967700  0.36358300  0.00853700  1
  C  C21  1  0.11032300  0.63641700  0.99146300  1
  C  C22  1  0.71818600  0.40922700  0.05367200  1
  C  C23  1  0.28181400  0.59077300  0.94632800  1
  Br  Br0  1  0.15301300  0.37988900  0.16201100  1
  Br  Br1  1  0.84698700  0.62011100  0.83798900  1
  Br  Br2  1  0.72312100  0.20016800  0.25572000  1
  Br  Br3  1  0.27687900  0.79983200  0.74428000  1
  Br  Br4  1  0.98838300  0.89262100  0.34774700  1
  Br  Br5  1  0.01161700  0.10737900  0.65225300  1
  Br  Br6  1  0.81499200  0.96948200  0.15595200  1
  Br  Br7  1  0.18500800  0.03051800  0.84404800  1
  Br  Br8  1  0.02438300  0.65895200  0.24061200  1
  Br  Br9  1  0.97561700  0.34104800  0.75938800  1
  Br  Br10  1  0.55673100  0.79047800  0.33676800  1
  Br  Br11  1  0.44326900  0.20952200  0.66323200  1
  Br  Br12  1  0.43569000  0.80799000  0.16866700  1
  Br  Br13  1  0.56431000  0.19201000  0.83133300  1
  Br  Br14  1  0.33593800  0.81838400  0.04360500  1
  Br  Br15  1  0.66406200  0.18161600  0.95639500  1
  Br  Br16  1  0.50667500  0.94049500  0.45964800  1
  Br  Br17  1  0.49332500  0.05950500  0.54035200  1
  Br  Br18  1  0.29062200  0.37502300  0.49580900  1
  Br  Br19  1  0.70937800  0.62497700  0.50419100  1
  Br  Br20  1  0.17197300  0.50398600  0.38343300  1
  Br  Br21  1  0.82802700  0.49601400  0.61656700  1
  O  O0  1  0.73754700  0.43961300  0.12587100  1
  O  O1  1  0.26245300  0.56038700  0.87412900  1
  O  O2  1  0.68762400  0.43391900  0.29053800  1
  O  O3  1  0.31237600  0.56608100  0.70946200  1
  O  O4  1  0.94274400  0.30125000  0.35675400  1
  O  O5  1  0.05725600  0.69875000  0.64324600  1
  O  O6  1  0.11206700  0.11750200  0.29199200  1
  O  O7  1  0.88793300  0.88249800  0.70800800  1
  O  O8  1  0.16297900  0.07919400  0.14226900  1
  O  O9  1  0.83702100  0.92080600  0.85773100  1
  O  O10  1  0.94809100  0.26109100  0.05262600  1
  O  O11  1  0.05190900  0.73890900  0.94737400  1
loop_
_geom_bond_atom_site_label_1
_geom_bond_atom_site_label_2
_geom_bond_distance
_geom_bond_site_symmetry_2
C0 H0 1.102661 1_555
C0 H2 1.104093 1_555
C0 O0 1.442685 1_555
C1 H1 1.102661 1_555
C1 H3 1.104093 1_555
C1 O1 1.442685 1_555
C2 H4 1.099419 1_555
C2 H6 1.102942 1_555
C2 O2 1.444485 1_555
C3 H5 1.099419 1_555
C3 H7 1.102942 1_555
C3 O3 1.444485 1_555
C4 H10 1.100013 1_555
C4 H8 1.101249 1_555
C4 O2 1.447165 1_555
C5 H11 1.100013 1_555
C5 H9 1.101249 1_555
C5 O3 1.447165 1_555
C6 H14 1.100135 1_555
C6 H12 1.102961 1_555
C6 O4 1.443283 1_555
C7 H15 1.100135 1_555
C7 H13 1.102961 1_555
C7 O5 1.443283 1_555
C8 H18 1.099610 1_555
C8 H16 1.100814 1_555
C8 O4 1.441049 1_455
C9 H19 1.099610 1_555
C9 H17 1.100814 1_555
C9 O5 1.441049 1_655
C10 H22 1.098102 1_455
C10 H20 1.101934 1_555
C10 O6 1.451357 1_555
C11 H23 1.098102 1_655
C11 H21 1.101934 1_555
C11 O7 1.451357 1_555
C12 H24 1.100245 1_555
C12 H26 1.103209 1_545
C12 O6 1.446551 1_555
C13 H25 1.100245 1_555
C13 H27 1.103209 1_565
C13 O7 1.446551 1_555
C14 H30 1.100030 1_555
C14 H28 1.101240 1_555
C14 O8 1.451065 1_555
C15 H31 1.100030 1_555
C15 H29 1.101240 1_555
C15 O9 1.451065 1_555
C16 H34 1.093359 1_555
C16 H32 1.102775 1_555
C16 O8 1.453202 1_555
C17 H35 1.093359 1_555
C17 H33 1.102775 1_555
C17 O9 1.453202 1_555
C18 H38 1.104730 1_555
C18 H36 1.107736 1_554
C18 O10 1.426751 1_455
C19 H39 1.104730 1_555
C19 H37 1.107736 1_556
C19 O11 1.426751 1_655
C20 H40 1.104135 1_555
C20 H42 1.105392 1_554
C20 O10 1.432583 1_555
C21 H41 1.104135 1_555
C21 H43 1.105392 1_556
C21 O11 1.432583 1_555
C22 H46 1.102558 1_555
C22 H44 1.103714 1_555
C22 O0 1.444620 1_555
C23 H47 1.102558 1_555
C23 H45 1.103714 1_555
C23 O1 1.444620 1_555
Br0 Zn0 2.352408 1_455
Br1 Zn1 2.352408 1_655
Br2 Zn2 2.443606 1_555
Br2 Zn0 2.486637 1_555
Br3 Zn3 2.443606 1_555
Br3 Zn1 2.486637 1_555
Br4 Zn2 2.494027 1_565
Br4 Zn4 2.499861 1_555
Br5 Zn3 2.494027 1_545
Br5 Zn5 2.499861 1_555
Br6 Zn4 2.503929 1_555
Br6 Zn2 2.552422 1_565
Br7 Zn5 2.503929 1_555
Br7 Zn3 2.552422 1_545
Br8 Zn4 2.392729 1_455
Br9 Zn5 2.392729 1_655
Br10 Zn4 2.449460 1_555
Br11 Zn5 2.449460 1_555
Br12 Br14 2.379486 1_555
Br13 Br15 2.379486 1_555
Br16 Br17 2.390681 1_565
Br18 Br20 2.409955 1_555
Br19 Br21 2.409955 1_555
Br20 Br8 3.001036 1_555
Br21 Br9 3.001036 1_555
O0 Zn0 2.281472 1_555
O1 Zn1 2.281472 1_555
O2 Zn0 2.148951 1_555
O3 Zn1 2.148951 1_555
O4 Zn0 2.224050 1_555
O5 Zn1 2.224050 1_555
O6 Zn2 2.289926 1_455
O7 Zn3 2.289926 1_655
O8 Zn2 2.102933 1_455
O9 Zn3 2.102933 1_655
