# generated using pymatgen
data_Ce2Si2Ni15
_symmetry_space_group_name_H-M   'P 1'
_cell_length_a   8.29601634
_cell_length_b   8.29601634
_cell_length_c   8.24487900
_cell_angle_alpha   90.00000000
_cell_angle_beta   90.00000000
_cell_angle_gamma   120.00000272
_symmetry_Int_Tables_number   1
_chemical_formula_structural   Ce2Si2Ni15
_chemical_formula_sum   'Ce4 Si4 Ni30'
_cell_volume   491.42144417
_cell_formula_units_Z   2
loop_
 _symmetry_equiv_pos_site_id
 _symmetry_equiv_pos_as_xyz
  1  'x, y, z'
loop_
 _atom_site_type_symbol
 _atom_site_label
 _atom_site_symmetry_multiplicity
 _atom_site_fract_x
 _atom_site_fract_y
 _atom_site_fract_z
 _atom_site_occupancy
  Ce  Ce0  1  0.00000000  0.00000000  0.25000000  1
  Ce  Ce1  1  0.00000000  0.00000000  0.75000000  1
  Ce  Ce2  1  0.33333300  0.66666700  0.75000000  1
  Ce  Ce3  1  0.66666700  0.33333300  0.25000000  1
  Si  Si0  1  0.33333300  0.66666700  0.39586300  1
  Si  Si1  1  0.66666700  0.33333300  0.60413700  1
  Si  Si2  1  0.66666700  0.33333300  0.89586300  1
  Si  Si3  1  0.33333300  0.66666700  0.10413700  1
  Ni  Ni0  1  0.50000000  0.50000000  0.50000000  1
  Ni  Ni1  1  0.50000000  0.00000000  0.50000000  1
  Ni  Ni2  1  0.00000000  0.50000000  0.50000000  1
  Ni  Ni3  1  0.50000000  0.50000000  0.00000000  1
  Ni  Ni4  1  0.50000000  0.00000000  0.00000000  1
  Ni  Ni5  1  0.00000000  0.50000000  0.00000000  1
  Ni  Ni6  1  0.32896200  0.36403700  0.25000000  1
  Ni  Ni7  1  0.63596300  0.96492400  0.25000000  1
  Ni  Ni8  1  0.03507600  0.67103800  0.25000000  1
  Ni  Ni9  1  0.63596300  0.67103800  0.25000000  1
  Ni  Ni10  1  0.03507600  0.36403700  0.25000000  1
  Ni  Ni11  1  0.32896200  0.96492400  0.25000000  1
  Ni  Ni12  1  0.67103800  0.63596300  0.75000000  1
  Ni  Ni13  1  0.36403700  0.03507600  0.75000000  1
  Ni  Ni14  1  0.96492400  0.32896200  0.75000000  1
  Ni  Ni15  1  0.36403700  0.32896200  0.75000000  1
  Ni  Ni16  1  0.96492400  0.63596300  0.75000000  1
  Ni  Ni17  1  0.67103800  0.03507600  0.75000000  1
  Ni  Ni18  1  0.16763500  0.83236500  0.51645300  1
  Ni  Ni19  1  0.16763500  0.33526900  0.51645300  1
  Ni  Ni20  1  0.66473100  0.83236500  0.51645300  1
  Ni  Ni21  1  0.83236500  0.16763500  0.48354700  1
  Ni  Ni22  1  0.83236500  0.66473100  0.48354700  1
  Ni  Ni23  1  0.33526900  0.16763500  0.48354700  1
  Ni  Ni24  1  0.83236500  0.16763500  0.01645300  1
  Ni  Ni25  1  0.83236500  0.66473100  0.01645300  1
  Ni  Ni26  1  0.33526900  0.16763500  0.01645300  1
  Ni  Ni27  1  0.16763500  0.83236500  0.98354700  1
  Ni  Ni28  1  0.16763500  0.33526900  0.98354700  1
  Ni  Ni29  1  0.66473100  0.83236500  0.98354700  1
loop_
_geom_bond_atom_site_label_1
_geom_bond_atom_site_label_2
_geom_bond_distance
_geom_bond_site_symmetry_2
Ce0 Ni10 2.885587 1_555
Ce0 Ni7 2.885587 1_445
Ce0 Ni6 2.885590 1_555
Ce0 Ni9 2.885590 1_445
Ce0 Ni11 2.885595 1_545
Ce0 Ni8 2.885595 1_545
Ce0 Ni25 3.083818 1_445
Ce0 Ni22 3.083818 1_445
Ce0 Ni26 3.083818 1_555
Ce0 Ni23 3.083818 1_555
Ce0 Ni21 3.083824 1_455
Ce0 Ni24 3.083824 1_455
Ce0 Ni28 3.260119 1_554
Ce0 Ni19 3.260119 1_555
Ce0 Ni29 3.260119 1_444
Ce0 Ni20 3.260119 1_445
Ce0 Ni27 3.260125 1_544
Ce0 Ni18 3.260125 1_545
Ce1 Ni13 2.885587 1_555
Ce1 Ni16 2.885587 1_445
Ce1 Ni15 2.885590 1_555
Ce1 Ni12 2.885590 1_445
Ce1 Ni17 2.885595 1_455
Ce1 Ni14 2.885595 1_455
Ce1 Ni19 3.083818 1_555
Ce1 Ni28 3.083818 1_555
Ce1 Ni20 3.083818 1_445
Ce1 Ni29 3.083818 1_445
Ce1 Ni27 3.083824 1_545
Ce1 Ni18 3.083824 1_545
Ce1 Ni23 3.260119 1_555
Ce1 Ni22 3.260119 1_445
Ce1 Ni26 3.260119 1_556
Ce1 Ni25 3.260119 1_446
Ce1 Ni21 3.260125 1_455
Ce1 Ni24 3.260125 1_456
Ce2 Si3 2.919817 1_556
Ce2 Si0 2.919817 1_555
Ce2 Ni14 2.937262 1_455
Ce2 Ni17 2.937262 1_565
Ce2 Ni16 2.937262 1_455
Ce2 Ni13 2.937262 1_565
Ce2 Ni15 2.937262 1_555
Ce2 Ni12 2.937262 1_555
Ce2 Ni18 3.062133 1_555
Ce2 Ni27 3.062133 1_555
Ce2 Ni20 3.062144 1_555
Ce2 Ni29 3.062144 1_555
Ce2 Ni28 3.062144 1_555
Ce2 Ni19 3.062144 1_555
Ce2 Ni2 3.159737 1_555
Ce2 Ni5 3.159737 1_556
Ce2 Ni4 3.159737 1_566
Ce2 Ni1 3.159737 1_565
Ce2 Ni3 3.159743 1_556
Ce2 Ni0 3.159743 1_555
Ce3 Si2 2.919817 1_554
Ce3 Si1 2.919817 1_555
Ce3 Ni11 2.937262 1_545
Ce3 Ni8 2.937262 1_655
Ce3 Ni7 2.937262 1_545
Ce3 Ni10 2.937262 1_655
Ce3 Ni6 2.937262 1_555
Ce3 Ni9 2.937262 1_555
Ce3 Ni21 3.062133 1_555
Ce3 Ni24 3.062133 1_555
Ce3 Ni25 3.062144 1_555
Ce3 Ni22 3.062144 1_555
Ce3 Ni26 3.062144 1_555
Ce3 Ni23 3.062144 1_555
Ce3 Ni4 3.159737 1_555
Ce3 Ni5 3.159737 1_655
Ce3 Ni1 3.159737 1_555
Ce3 Ni2 3.159737 1_655
Ce3 Ni3 3.159743 1_555
Ce3 Ni0 3.159743 1_555
Si0 Si3 2.405246 1_555
Si1 Si2 2.405246 1_555
Ni0 Ni20 2.391777 1_555
Ni0 Ni22 2.391777 1_555
Ni0 Ni19 2.391777 1_555
Ni0 Ni23 2.391777 1_555
Ni0 Ni12 2.435936 1_555
Ni0 Ni9 2.435936 1_555
Ni0 Ni6 2.435936 1_555
Ni0 Ni15 2.435936 1_555
Ni0 Si0 2.544118 1_555
Ni0 Si1 2.544118 1_555
Ni1 Ni18 2.391777 1_545
Ni1 Ni21 2.391777 1_555
Ni1 Ni20 2.391784 1_545
Ni1 Ni23 2.391784 1_555
Ni1 Ni17 2.435935 1_555
Ni1 Ni11 2.435935 1_545
Ni1 Ni7 2.435939 1_545
Ni1 Ni13 2.435939 1_555
Ni1 Si0 2.544111 1_545
Ni1 Si1 2.544111 1_555
Ni2 Ni21 2.391777 1_455
Ni2 Ni22 2.391784 1_455
Ni2 Ni8 2.435935 1_555
Ni2 Si0 2.544111 1_555
Ni2 Si1 2.544111 1_455
Ni3 Ni9 2.435936 1_555
Ni3 Ni6 2.435936 1_555
Ni3 Si3 2.544118 1_555
Ni3 Si2 2.544118 1_554
Ni4 Ni7 2.435939 1_545
Ni4 Si3 2.544111 1_545
Ni4 Si2 2.544111 1_554
Ni5 Ni8 2.435935 1_555
Ni5 Si3 2.544111 1_555
Ni5 Si2 2.544111 1_454
Ni6 Ni9 2.546885 1_555
Ni6 Si3 2.767636 1_555
Ni6 Si0 2.767636 1_555
Ni7 Ni9 2.438083 1_555
Ni7 Si3 2.767628 1_555
Ni7 Si0 2.767628 1_555
Ni8 Si0 2.767621 1_555
Ni8 Si3 2.767621 1_555
Ni9 Si3 2.767636 1_555
Ni9 Si0 2.767636 1_555
Ni10 Ni2 2.435939 1_555
Ni10 Ni5 2.435939 1_555
Ni10 Ni6 2.438083 1_555
Ni10 Ni19 2.520919 1_555
Ni10 Ni28 2.520919 1_554
Ni10 Ni24 2.539807 1_455
Ni10 Ni21 2.539807 1_455
Ni10 Ni8 2.546885 1_555
Ni10 Si3 2.767628 1_555
Ni10 Si0 2.767628 1_555
Ni11 Ni4 2.435935 1_565
Ni11 Ni8 2.438083 1_555
Ni11 Ni18 2.520919 1_555
Ni11 Ni27 2.520919 1_554
Ni11 Ni23 2.539813 1_565
Ni11 Ni26 2.539813 1_565
Ni11 Ni7 2.546885 1_555
Ni11 Si3 2.767621 1_555
Ni11 Si0 2.767621 1_555
Ni12 Ni3 2.435936 1_556
Ni12 Ni16 2.438083 1_555
Ni12 Ni22 2.520919 1_555
Ni12 Ni25 2.520919 1_556
Ni12 Ni29 2.539802 1_555
Ni12 Ni20 2.539802 1_555
Ni12 Ni15 2.546885 1_555
Ni12 Si1 2.767636 1_555
Ni12 Si2 2.767636 1_555
Ni13 Ni4 2.435939 1_556
Ni13 Ni15 2.438083 1_555
Ni13 Ni23 2.520919 1_555
Ni13 Ni26 2.520919 1_556
Ni13 Ni27 2.539807 1_545
Ni13 Ni18 2.539807 1_545
Ni13 Ni17 2.546885 1_555
Ni13 Si1 2.767628 1_555
Ni13 Si2 2.767628 1_555
Ni14 Ni2 2.435935 1_655
Ni14 Ni5 2.435935 1_656
Ni14 Ni17 2.438083 1_555
Ni14 Ni21 2.520919 1_555
Ni14 Ni24 2.520919 1_556
Ni14 Ni19 2.539813 1_655
Ni14 Ni28 2.539813 1_655
Ni14 Ni16 2.546885 1_555
Ni14 Si1 2.767621 1_555
Ni14 Si2 2.767621 1_555
Ni15 Ni3 2.435936 1_556
Ni15 Ni23 2.520919 1_555
Ni15 Ni26 2.520919 1_556
Ni15 Ni28 2.539802 1_555
Ni15 Ni19 2.539802 1_555
Ni15 Si1 2.767636 1_555
Ni15 Si2 2.767636 1_555
Ni16 Ni2 2.435939 1_655
Ni16 Ni5 2.435939 1_656
Ni16 Ni22 2.520919 1_555
Ni16 Ni25 2.520919 1_556
Ni16 Ni27 2.539807 1_655
Ni16 Ni18 2.539807 1_655
Ni16 Si1 2.767628 1_555
Ni16 Si2 2.767628 1_555
Ni17 Ni4 2.435935 1_556
Ni17 Ni21 2.520919 1_555
Ni17 Ni24 2.520919 1_556
Ni17 Ni29 2.539813 1_545
Ni17 Ni20 2.539813 1_545
Ni17 Si1 2.767621 1_555
Ni17 Si2 2.767621 1_555
Ni18 Ni2 2.391777 1_555
Ni18 Ni23 2.423998 1_565
Ni18 Ni22 2.423998 1_455
Ni18 Ni8 2.520919 1_555
Ni18 Si0 2.580191 1_555
Ni19 Ni2 2.391784 1_555
Ni19 Ni23 2.423984 1_555
Ni19 Ni21 2.423998 1_455
Ni19 Ni6 2.520919 1_555
Ni19 Si0 2.580204 1_555
Ni20 Ni22 2.423984 1_555
Ni20 Ni21 2.423998 1_565
Ni20 Ni9 2.520919 1_555
Ni20 Ni7 2.520919 1_555
Ni20 Si0 2.580204 1_555
Ni21 Ni7 2.539807 1_545
Ni21 Si1 2.580191 1_555
Ni22 Ni9 2.539802 1_555
Ni22 Ni8 2.539813 1_655
Ni22 Si1 2.580204 1_555
Ni23 Ni6 2.539802 1_555
Ni23 Si1 2.580204 1_555
Ni24 Ni5 2.391777 1_655
Ni24 Ni4 2.391777 1_555
Ni24 Ni29 2.423998 1_544
Ni24 Ni28 2.423998 1_654
Ni24 Ni7 2.539807 1_545
Ni24 Si2 2.580191 1_554
Ni25 Ni3 2.391777 1_555
Ni25 Ni5 2.391784 1_655
Ni25 Ni29 2.423984 1_554
Ni25 Ni27 2.423998 1_654
Ni25 Ni9 2.539802 1_555
Ni25 Ni8 2.539813 1_655
Ni25 Si2 2.580204 1_554
Ni26 Ni3 2.391777 1_555
Ni26 Ni4 2.391784 1_555
Ni26 Ni28 2.423984 1_554
Ni26 Ni27 2.423998 1_544
Ni26 Ni6 2.539802 1_555
Ni26 Si2 2.580204 1_554
Ni27 Ni5 2.391777 1_556
Ni27 Ni4 2.391777 1_566
Ni27 Ni8 2.520919 1_556
Ni27 Si3 2.580191 1_556
Ni28 Ni3 2.391777 1_556
Ni28 Ni5 2.391784 1_556
Ni28 Ni6 2.520919 1_556
Ni28 Si3 2.580204 1_556
Ni29 Ni3 2.391777 1_556
Ni29 Ni4 2.391784 1_566
Ni29 Ni9 2.520919 1_556
Ni29 Ni7 2.520919 1_556
Ni29 Si3 2.580204 1_556
