# generated using pymatgen
data_Sm3(Al3Os)4
_symmetry_space_group_name_H-M   'P 1'
_cell_length_a   8.82728901
_cell_length_b   8.82727044
_cell_length_c   9.60202939
_cell_angle_alpha   90.00010324
_cell_angle_beta   89.99986941
_cell_angle_gamma   120.00138784
_symmetry_Int_Tables_number   1
_chemical_formula_structural   Sm3(Al3Os)4
_chemical_formula_sum   'Sm6 Al24 Os8'
_cell_volume   647.94980984
_cell_formula_units_Z   2
loop_
 _symmetry_equiv_pos_site_id
 _symmetry_equiv_pos_as_xyz
  1  'x, y, z'
loop_
 _atom_site_type_symbol
 _atom_site_label
 _atom_site_symmetry_multiplicity
 _atom_site_fract_x
 _atom_site_fract_y
 _atom_site_fract_z
 _atom_site_occupancy
  Sm  Sm0  1  0.19288784  0.38577861  0.24999662  1
  Sm  Sm1  1  0.80710981  0.61422626  0.75000288  1
  Sm  Sm2  1  0.61422119  0.80711163  0.24999602  1
  Sm  Sm3  1  0.38577352  0.19289048  0.75000291  1
  Sm  Sm4  1  0.19290653  0.80709254  0.24999548  1
  Sm  Sm5  1  0.80709380  0.19290836  0.75000289  1
  Al  Al0  1  0.33334471  0.66665309  0.00798098  1
  Al  Al1  1  0.66666514  0.33333509  0.99203034  1
  Al  Al2  1  0.66666521  0.33333499  0.50797149  1
  Al  Al3  1  0.33334021  0.66665201  0.49202023  1
  Al  Al4  1  0.16330466  0.32661845  0.57387754  1
  Al  Al5  1  0.83668967  0.67338244  0.42611892  1
  Al  Al6  1  0.67338066  0.83669483  0.57387759  1
  Al  Al7  1  0.83669124  0.67338298  0.07388130  1
  Al  Al8  1  0.32661732  0.16331050  0.42611902  1
  Al  Al9  1  0.16330476  0.32661141  0.92612066  1
  Al  Al10  1  0.16330682  0.83669751  0.57387391  1
  Al  Al11  1  0.32661739  0.16330930  0.07388116  1
  Al  Al12  1  0.83669426  0.16330607  0.42611665  1
  Al  Al13  1  0.67338777  0.83669616  0.92612429  1
  Al  Al14  1  0.83669519  0.16330585  0.07388376  1
  Al  Al15  1  0.16331041  0.83668954  0.92611851  1
  Al  Al16  1  0.56204371  0.12408471  0.24999996  1
  Al  Al17  1  0.43795252  0.87591649  0.75000091  1
  Al  Al18  1  0.87591439  0.43795521  0.24999991  1
  Al  Al19  1  0.12408428  0.56204851  0.75000100  1
  Al  Al20  1  0.56204025  0.43795954  0.24999989  1
  Al  Al21  1  0.43795591  0.56204499  0.75000207  1
  Al  Al22  1  0.00002272  -0.00002233  0.24999810  1
  Al  Al23  1  -0.00002585  0.00002613  0.75000257  1
  Os  Os0  1  0.49999840  -0.00000299  0.00000214  1
  Os  Os1  1  0.00000203  0.50000160  0.00000248  1
  Os  Os2  1  0.49999607  -0.00000344  0.49999839  1
  Os  Os3  1  0.50000348  0.49999906  0.00000203  1
  Os  Os4  1  0.00000131  0.50000299  0.49999824  1
  Os  Os5  1  0.50000240  0.49999805  0.49999868  1
  Os  Os6  1  0.00000215  0.00000106  0.00000066  1
  Os  Os7  1  -0.00000189  0.00000234  0.49999982  1
loop_
_geom_bond_atom_site_label_1
_geom_bond_atom_site_label_2
_geom_bond_distance
_geom_bond_site_symmetry_2
Sm0 Sm4 3.718970 1_555
Sm0 Sm2 3.719148 1_555
Sm1 Sm5 3.719016 1_555
Sm1 Sm3 3.719173 1_555
Sm2 Sm4 3.718982 1_555
Sm3 Sm5 3.719037 1_555
Al0 Os3 2.549228 1_555
Al0 Os1 2.549406 1_555
Al0 Os0 2.549410 1_565
Al0 Al9 2.715700 1_554
Al0 Al13 2.715704 1_554
Al0 Al15 2.715976 1_554
Al0 Al21 2.948602 1_554
Al0 Al19 2.948769 1_554
Al0 Al17 2.948779 1_554
Al0 Sm0 3.163940 1_555
Al0 Sm2 3.163951 1_555
Al0 Sm4 3.163976 1_555
Al1 Os3 2.549324 1_556
Al1 Os1 2.549360 1_656
Al1 Os0 2.549364 1_556
Al1 Al7 2.715719 1_556
Al1 Al11 2.715722 1_556
Al1 Al14 2.715867 1_556
Al1 Al18 2.948639 1_556
Al1 Al16 2.948641 1_556
Al1 Al20 2.948651 1_556
Al1 Sm5 3.163952 1_555
Al1 Sm1 3.164110 1_555
Al1 Sm3 3.164117 1_555
Al2 Os5 2.549327 1_555
Al2 Os4 2.549354 1_655
Al2 Os2 2.549367 1_555
Al2 Al5 2.715722 1_555
Al2 Al8 2.715730 1_555
Al2 Al20 2.948674 1_555
Al2 Sm5 3.163986 1_555
Al2 Sm1 3.164136 1_555
Al2 Sm3 3.164140 1_555
Al3 Os5 2.549254 1_555
Al3 Os4 2.549377 1_555
Al3 Os2 2.549415 1_565
Al3 Al4 2.715633 1_555
Al3 Al6 2.715689 1_555
Al3 Sm0 3.163988 1_555
Al3 Sm2 3.164034 1_555
Al3 Sm4 3.164038 1_555
Al4 Os7 2.595643 1_555
Al4 Os4 2.670220 1_555
Al4 Os5 2.670237 1_555
Al4 Al8 2.871850 1_555
Al4 Sm0 3.142626 1_555
Al4 Sm3 3.229285 1_555
Al4 Sm5 3.229359 1_455
Al5 Os7 2.595679 1_665
Al5 Os5 2.670163 1_555
Al5 Os4 2.670243 1_655
Al5 Al6 2.871856 1_555
Al5 Sm1 3.142651 1_555
Al5 Sm2 3.229277 1_555
Al5 Sm4 3.229391 1_655
Al6 Os7 2.595657 1_665
Al6 Os2 2.670208 1_565
Al6 Os5 2.670225 1_555
Al6 Sm2 3.142632 1_555
Al6 Sm1 3.229288 1_555
Al6 Sm5 3.229370 1_565
Al7 Os6 2.595666 1_665
Al7 Os3 2.670168 1_555
Al7 Os1 2.670246 1_655
Al7 Sm1 3.142598 1_554
Al7 Sm2 3.229237 1_555
Al7 Sm4 3.229339 1_655
Al8 Os7 2.595678 1_555
Al8 Os5 2.670161 1_555
Al8 Os2 2.670254 1_555
Al8 Sm3 3.142651 1_555
Al8 Sm0 3.229272 1_555
Al8 Sm4 3.229394 1_545
Al9 Os6 2.595607 1_556
Al9 Os3 2.670254 1_556
Al9 Os1 2.670261 1_556
Al9 Sm0 3.142586 1_556
Al9 Sm3 3.229198 1_555
Al9 Sm5 3.229334 1_455
Al10 Os7 2.595669 1_565
Al10 Os2 2.670170 1_565
Al10 Os4 2.670204 1_555
Al10 Al3 2.716007 1_555
Al10 Al17 2.831643 1_555
Al10 Al19 2.831652 1_555
Al10 Al8 2.871738 1_565
Al10 Al5 2.871771 1_455
Al10 Al23 3.016001 1_565
Al10 Sm4 3.142652 1_555
Al10 Sm3 3.229216 1_565
Al10 Sm1 3.229247 1_455
Al11 Os6 2.595650 1_555
Al11 Os3 2.670177 1_555
Al11 Os0 2.670255 1_555
Al11 Al20 2.831569 1_555
Al11 Al16 2.831629 1_555
Al11 Al15 2.871818 1_544
Al11 Al9 2.871826 1_554
Al11 Al22 3.015476 1_555
Al11 Sm3 3.142596 1_554
Al11 Sm0 3.229239 1_555
Al11 Sm4 3.229342 1_545
Al12 Os7 2.595649 1_655
Al12 Os4 2.670237 1_655
Al12 Os2 2.670251 1_555
Al12 Al2 2.715857 1_555
Al12 Al18 2.831601 1_555
Al12 Al16 2.831612 1_555
Al12 Al4 2.871755 1_655
Al12 Al6 2.871755 1_545
Al12 Al22 3.015918 1_655
Al12 Sm5 3.142724 1_555
Al12 Sm0 3.229184 1_655
Al12 Sm2 3.229190 1_545
Al13 Os6 2.595633 1_666
Al13 Os3 2.670226 1_556
Al13 Os0 2.670231 1_566
Al13 Al21 2.831617 1_555
Al13 Al17 2.831700 1_555
Al13 Al14 2.871736 1_566
Al13 Al7 2.871822 1_556
Al13 Al23 3.015449 1_665
Al13 Sm2 3.142545 1_556
Al13 Sm1 3.229229 1_555
Al13 Sm5 3.229351 1_565
Al14 Os6 2.595677 1_655
Al14 Os1 2.670228 1_655
Al14 Os0 2.670243 1_555
Al14 Al18 2.831597 1_555
Al14 Al16 2.831610 1_555
Al14 Al9 2.871756 1_654
Al14 Al22 3.015895 1_655
Al14 Sm5 3.142676 1_554
Al14 Sm0 3.229146 1_655
Al14 Sm2 3.229149 1_545
Al15 Os6 2.595733 1_566
Al15 Os1 2.670177 1_556
Al15 Os0 2.670182 1_566
Al15 Al19 2.831528 1_555
Al15 Al17 2.831537 1_555
Al15 Al7 2.871818 1_456
Al15 Al23 3.016012 1_565
Al15 Sm4 3.142627 1_556
Al15 Sm3 3.229193 1_565
Al15 Sm1 3.229197 1_455
Al16 Os0 2.581116 1_555
Al16 Os2 2.581124 1_555
Al16 Al18 2.770565 1_555
Al16 Al20 2.770673 1_555
Al16 Al8 2.831630 1_555
Al16 Al2 2.948654 1_555
Al16 Sm4 3.054390 1_545
Al16 Sm2 3.054465 1_545
Al17 Os0 2.581126 1_566
Al17 Os2 2.581138 1_565
Al17 Al19 2.770543 1_555
Al17 Al21 2.770644 1_555
Al17 Al6 2.831649 1_555
Al17 Al3 2.948786 1_555
Al17 Sm5 3.054411 1_565
Al17 Sm3 3.054482 1_565
Al18 Os1 2.581112 1_655
Al18 Os4 2.581121 1_655
Al18 Al20 2.770677 1_555
Al18 Al5 2.831628 1_555
Al18 Al7 2.831628 1_555
Al18 Al2 2.948650 1_555
Al18 Sm4 3.054389 1_655
Al18 Sm0 3.054469 1_655
Al19 Os1 2.581133 1_556
Al19 Os4 2.581150 1_555
Al19 Al21 2.770651 1_555
Al19 Al4 2.831655 1_555
Al19 Al9 2.831688 1_555
Al19 Al3 2.948752 1_555
Al19 Sm5 3.054398 1_455
Al19 Sm1 3.054484 1_455
Al20 Os3 2.581095 1_555
Al20 Os5 2.581099 1_555
Al20 Al8 2.831566 1_555
Al20 Al5 2.831569 1_555
Al20 Al7 2.831573 1_555
Al20 Sm2 3.054447 1_555
Al20 Sm0 3.054457 1_555
Al21 Os3 2.581162 1_556
Al21 Os5 2.581188 1_555
Al21 Al9 2.831601 1_555
Al21 Al6 2.831605 1_555
Al21 Al4 2.831618 1_555
Al21 Al3 2.948646 1_555
Al21 Sm3 3.054463 1_555
Al21 Sm1 3.054469 1_555
Al22 Os6 2.400483 1_555
Al22 Os7 2.400524 1_555
Al22 Sm4 2.949089 1_545
Al22 Sm0 2.949268 1_555
Al22 Sm2 2.949279 1_445
Al22 Al7 3.015472 1_445
Al22 Al5 3.015499 1_445
Al22 Al8 3.015501 1_555
Al23 Os6 2.400489 1_556
Al23 Os7 2.400534 1_555
Al23 Sm5 2.949040 1_455
Al23 Sm1 2.949260 1_445
Al23 Sm3 2.949262 1_555
Al23 Al9 3.015420 1_555
Al23 Al4 3.015504 1_555
Al23 Al6 3.015516 1_445
Os0 Sm4 3.375486 1_545
Os0 Sm5 3.375550 1_554
Os0 Sm2 3.375595 1_545
Os0 Sm3 3.375688 1_554
Os1 Sm4 3.375478 1_555
Os1 Sm5 3.375538 1_454
Os1 Sm0 3.375602 1_555
Os1 Sm1 3.375684 1_454
Os2 Sm4 3.375544 1_545
Os2 Sm5 3.375602 1_555
Os2 Sm2 3.375654 1_545
Os2 Sm3 3.375708 1_555
Os3 Sm1 3.375584 1_554
Os3 Sm2 3.375591 1_555
Os3 Sm3 3.375592 1_554
Os3 Sm0 3.375613 1_555
Os4 Sm4 3.375540 1_555
Os4 Sm5 3.375580 1_455
Os4 Sm0 3.375656 1_555
Os4 Sm1 3.375699 1_455
Os5 Sm3 3.375626 1_555
Os5 Sm1 3.375630 1_555
Os5 Sm2 3.375659 1_555
Os5 Sm0 3.375665 1_555
