# generated using pymatgen
data_CsLiMg6O7
_symmetry_space_group_name_H-M   'P 1'
_cell_length_a   8.22340186
_cell_length_b   4.63916290
_cell_length_c   4.63916290
_cell_angle_alpha   90.00000000
_cell_angle_beta   90.00000000
_cell_angle_gamma   90.00000000
_symmetry_Int_Tables_number   1
_chemical_formula_structural   CsLiMg6O7
_chemical_formula_sum   'Cs1 Li1 Mg6 O7'
_cell_volume   176.98267669
_cell_formula_units_Z   1
loop_
 _symmetry_equiv_pos_site_id
 _symmetry_equiv_pos_as_xyz
  1  'x, y, z'
loop_
 _atom_site_type_symbol
 _atom_site_label
 _atom_site_symmetry_multiplicity
 _atom_site_fract_x
 _atom_site_fract_y
 _atom_site_fract_z
 _atom_site_occupancy
  Cs  Cs0  1  0.41472510  -0.00000000  -0.00000000  1
  Li  Li0  1  0.97521961  0.00000000  -0.00000000  1
  Mg  Mg0  1  0.00429933  0.50000000  0.50000000  1
  Mg  Mg1  1  0.51896268  0.50000000  0.50000000  1
  Mg  Mg2  1  0.24690937  0.00000000  0.50000000  1
  Mg  Mg3  1  0.75923990  0.00000000  0.50000000  1
  Mg  Mg4  1  0.24690937  0.50000000  -0.00000000  1
  Mg  Mg5  1  0.75923990  0.50000000  -0.00000000  1
  O  O0  1  0.75452418  0.00000000  0.00000000  1
  O  O1  1  0.26101428  0.50000000  0.50000000  1
  O  O2  1  0.76116572  0.50000000  0.50000000  1
  O  O3  1  0.01575210  0.00000000  0.50000000  1
  O  O4  1  0.50814317  -0.00000000  0.50000000  1
  O  O5  1  0.01575210  0.50000000  -0.00000000  1
  O  O6  1  0.50814317  0.50000000  -0.00000000  1
loop_
_geom_bond_atom_site_label_1
_geom_bond_atom_site_label_2
_geom_bond_distance
_geom_bond_site_symmetry_2
Cs0 O6 2.443483 1_555
Cs0 O4 2.443483 1_555
Cs0 O4 2.443483 1_554
Cs0 O6 2.443483 1_545
Cs0 Mg2 2.699056 1_554
Cs0 Mg4 2.699056 1_555
Cs0 Mg2 2.699056 1_555
Cs0 Mg4 2.699056 1_545
Cs0 O0 2.794304 1_555
Li0 O0 1.814867 1_555
Li0 O5 2.343407 1_655
Li0 O3 2.343407 1_654
Li0 O3 2.343407 1_655
Li0 O5 2.343407 1_645
Mg0 O2 1.999385 1_455
Mg0 O1 2.111070 1_555
Mg0 O3 2.321493 1_565
Mg0 O5 2.321493 1_556
Mg0 O5 2.321493 1_555
Mg0 O3 2.321493 1_555
Mg1 O2 1.991733 1_555
Mg1 O1 2.121213 1_555
Mg1 O4 2.321287 1_555
Mg1 O4 2.321287 1_565
Mg1 O6 2.321287 1_556
Mg1 O6 2.321287 1_555
Mg2 O3 1.900899 1_555
Mg2 O4 2.148231 1_555
Mg2 O1 2.322480 1_545
Mg2 O1 2.322480 1_555
Mg3 O4 2.064869 1_555
Mg3 O3 2.109403 1_655
Mg3 O2 2.319636 1_555
Mg3 O2 2.319636 1_545
Mg3 O0 2.319906 1_555
Mg3 O0 2.319906 1_556
Mg4 O5 1.900899 1_555
Mg4 O6 2.148231 1_555
Mg4 O1 2.322480 1_555
Mg4 O1 2.322480 1_554
Mg5 O6 2.064869 1_555
Mg5 O5 2.109403 1_655
Mg5 O2 2.319636 1_555
Mg5 O2 2.319636 1_554
Mg5 O0 2.319906 1_555
Mg5 O0 2.319906 1_565
