# generated using pymatgen
data_BaZnTe2O7
_symmetry_space_group_name_H-M   'P 1'
_cell_length_a   8.67883126
_cell_length_b   8.67883126
_cell_length_c   5.63447100
_cell_angle_alpha   90.00000000
_cell_angle_beta   90.00000000
_cell_angle_gamma   129.46510905
_symmetry_Int_Tables_number   1
_chemical_formula_structural   BaZnTe2O7
_chemical_formula_sum   'Ba2 Zn2 Te4 O14'
_cell_volume   327.64200018
_cell_formula_units_Z   2
loop_
 _symmetry_equiv_pos_site_id
 _symmetry_equiv_pos_as_xyz
  1  'x, y, z'
loop_
 _atom_site_type_symbol
 _atom_site_label
 _atom_site_symmetry_multiplicity
 _atom_site_fract_x
 _atom_site_fract_y
 _atom_site_fract_z
 _atom_site_occupancy
  Ba  Ba0  1  0.91816900  0.33887600  0.75000000  1
  Ba  Ba1  1  0.33887600  0.91816900  0.25000000  1
  Zn  Zn0  1  0.53194500  0.76050100  0.75000000  1
  Zn  Zn1  1  0.76050100  0.53194500  0.25000000  1
  Te  Te0  1  0.96708400  0.81248900  0.75000000  1
  Te  Te1  1  0.81248900  0.96708400  0.25000000  1
  Te  Te2  1  0.44765900  0.30039900  0.75000000  1
  Te  Te3  1  0.30039900  0.44765900  0.25000000  1
  O  O0  1  0.26456400  0.99583000  0.75000000  1
  O  O1  1  0.99583000  0.26456400  0.25000000  1
  O  O2  1  0.58178800  0.29375100  0.49305800  1
  O  O3  1  0.29375100  0.58178800  0.50694200  1
  O  O4  1  0.58178800  0.29375100  0.00694200  1
  O  O5  1  0.29375100  0.58178800  0.99305800  1
  O  O6  1  0.67672000  0.64464100  0.75000000  1
  O  O7  1  0.64464100  0.67672000  0.25000000  1
  O  O8  1  0.97587500  0.66432600  0.50649800  1
  O  O9  1  0.66432600  0.97587500  0.49350200  1
  O  O10  1  0.97587500  0.66432600  0.99350200  1
  O  O11  1  0.66432600  0.97587500  0.00649800  1
  O  O12  1  0.00168000  0.00168000  0.50000000  1
  O  O13  1  0.00168000  0.00168000  0.00000000  1
loop_
_geom_bond_atom_site_label_1
_geom_bond_atom_site_label_2
_geom_bond_distance
_geom_bond_site_symmetry_2
Ba0 O11 2.836259 1_546
Ba0 O9 2.836259 1_545
Ba0 O5 2.865210 1_655
Ba0 O3 2.865210 1_655
Ba0 O10 2.883214 1_555
Ba0 O8 2.883214 1_555
Ba0 O4 3.052662 1_556
Ba0 O2 3.052662 1_555
Ba0 O1 3.059353 1_555
Ba0 O1 3.059353 1_556
Ba1 O8 2.836259 1_455
Ba1 O10 2.836259 1_454
Ba1 O2 2.865210 1_565
Ba1 O4 2.865210 1_565
Ba1 O9 2.883214 1_555
Ba1 O11 2.883214 1_555
Ba1 O5 3.052662 1_554
Ba1 O3 3.052662 1_555
Ba1 O0 3.059353 1_554
Ba1 O0 3.059353 1_555
O0 Te0 1.993786 1_455
O0 Te2 2.042691 1_565
O1 Te1 1.993786 1_545
O1 Te3 2.042691 1_655
O2 Te2 1.881416 1_555
O2 Zn1 2.116307 1_555
O3 Te3 1.881416 1_555
O3 Zn0 2.116307 1_555
O4 Te2 1.881416 1_554
O4 Zn1 2.116307 1_555
O5 Te3 1.881416 1_556
O5 Zn0 2.116307 1_555
O6 Te0 1.950883 1_555
O6 Zn0 2.048393 1_555
O6 Te2 2.308194 1_555
O7 Te1 1.950883 1_555
O7 Zn1 2.048393 1_555
O7 Te3 2.308194 1_555
O8 Te0 1.914791 1_555
O8 Zn1 2.042692 1_555
O9 Te1 1.914791 1_555
O9 Zn0 2.042692 1_555
O10 Te0 1.914791 1_555
O10 Zn1 2.042692 1_556
O11 Te1 1.914791 1_555
O11 Zn0 2.042692 1_554
O12 Te0 2.035599 1_445
O12 Te1 2.035599 1_445
O13 Te0 2.035599 1_444
O13 Te1 2.035599 1_445
