# generated using pymatgen
data_Mg14TiCdO16
_symmetry_space_group_name_H-M   'P 1'
_cell_length_a   8.64472275
_cell_length_b   8.68095038
_cell_length_c   4.31485149
_cell_angle_alpha   90.00000000
_cell_angle_beta   90.00000000
_cell_angle_gamma   90.00000000
_symmetry_Int_Tables_number   1
_chemical_formula_structural   Mg14TiCdO16
_chemical_formula_sum   'Mg14 Ti1 Cd1 O16'
_cell_volume   323.80548103
_cell_formula_units_Z   1
loop_
 _symmetry_equiv_pos_site_id
 _symmetry_equiv_pos_as_xyz
  1  'x, y, z'
loop_
 _atom_site_type_symbol
 _atom_site_label
 _atom_site_symmetry_multiplicity
 _atom_site_fract_x
 _atom_site_fract_y
 _atom_site_fract_z
 _atom_site_occupancy
  Mg  Mg0  1  0.50000000  0.00000000  0.00000000  1
  Mg  Mg1  1  0.50000000  0.50000000  0.00000000  1
  Mg  Mg2  1  -0.00000000  0.24836628  0.50000000  1
  Mg  Mg3  1  -0.00000000  0.75163372  0.50000000  1
  Mg  Mg4  1  0.50000000  0.25036015  0.50000000  1
  Mg  Mg5  1  0.50000000  0.74963985  0.50000000  1
  Mg  Mg6  1  0.25264325  0.00000000  0.50000000  1
  Mg  Mg7  1  0.25540167  0.50000000  0.50000000  1
  Mg  Mg8  1  0.74735675  0.00000000  0.50000000  1
  Mg  Mg9  1  0.74459833  0.50000000  0.50000000  1
  Mg  Mg10  1  0.25392866  0.24974325  -0.00000000  1
  Mg  Mg11  1  0.25392866  0.75025675  -0.00000000  1
  Mg  Mg12  1  0.74607134  0.24974325  0.00000000  1
  Mg  Mg13  1  0.74607134  0.75025675  0.00000000  1
  Ti  Ti0  1  -0.00000000  0.00000000  0.00000000  1
  Cd  Cd0  1  -0.00000000  0.50000000  0.00000000  1
  O  O0  1  0.25473302  0.00000000  -0.00000000  1
  O  O1  1  0.26753040  0.50000000  -0.00000000  1
  O  O2  1  0.74526698  0.00000000  0.00000000  1
  O  O3  1  0.73246960  0.50000000  0.00000000  1
  O  O4  1  0.24864490  0.24985987  0.50000000  1
  O  O5  1  0.24864490  0.75014013  0.50000000  1
  O  O6  1  0.75135510  0.24985987  0.50000000  1
  O  O7  1  0.75135510  0.75014013  0.50000000  1
  O  O8  1  -0.00000000  0.00000000  0.50000000  1
  O  O9  1  -0.00000000  0.50000000  0.50000000  1
  O  O10  1  0.50000000  0.00000000  0.50000000  1
  O  O11  1  0.50000000  0.50000000  0.50000000  1
  O  O12  1  -0.00000000  0.23723788  0.00000000  1
  O  O13  1  -0.00000000  0.76276212  0.00000000  1
  O  O14  1  0.50000000  0.24703857  -0.00000000  1
  O  O15  1  0.50000000  0.75296143  0.00000000  1
loop_
_geom_bond_atom_site_label_1
_geom_bond_atom_site_label_2
_geom_bond_distance
_geom_bond_site_symmetry_2
Mg0 O0 2.120265 1_555
Mg0 O2 2.120265 1_555
Mg0 O15 2.144530 1_545
Mg0 O14 2.144530 1_555
Mg0 O10 2.157426 1_554
Mg0 O10 2.157426 1_555
Mg1 O1 2.009635 1_555
Mg1 O3 2.009635 1_555
Mg1 O11 2.157426 1_554
Mg1 O11 2.157426 1_555
Mg1 O14 2.195946 1_555
Mg1 O15 2.195946 1_555
Mg2 O6 2.149505 1_455
Mg2 O4 2.149505 1_555
Mg2 O8 2.156055 1_555
Mg2 O12 2.159588 1_556
Mg2 O12 2.159588 1_555
Mg2 O9 2.184420 1_555
Mg3 O7 2.149505 1_455
Mg3 O5 2.149505 1_555
Mg3 O8 2.156055 1_565
Mg3 O13 2.159588 1_555
Mg3 O13 2.159588 1_556
Mg3 O9 2.184420 1_555
Mg4 O14 2.157618 1_556
Mg4 O14 2.157618 1_555
Mg4 O11 2.167111 1_555
Mg4 O6 2.172899 1_555
Mg4 O4 2.172899 1_555
Mg4 O10 2.173364 1_555
Mg5 O15 2.157618 1_556
Mg5 O15 2.157618 1_555
Mg5 O11 2.167111 1_555
Mg5 O5 2.172899 1_555
Mg5 O7 2.172899 1_555
Mg5 O10 2.173364 1_565
Mg6 O10 2.138331 1_555
Mg6 O0 2.157501 1_556
Mg6 O0 2.157501 1_555
Mg6 O5 2.169297 1_545
Mg6 O4 2.169297 1_555
Mg6 O8 2.184031 1_555
Mg7 O11 2.114485 1_555
Mg7 O1 2.159972 1_556
Mg7 O1 2.159972 1_555
Mg7 O4 2.172240 1_555
Mg7 O5 2.172240 1_555
Mg7 O9 2.207877 1_555
Mg8 O10 2.138331 1_555
Mg8 O2 2.157501 1_555
Mg8 O2 2.157501 1_556
Mg8 O7 2.169297 1_545
Mg8 O6 2.169297 1_555
Mg8 O8 2.184031 1_655
Mg9 O11 2.114485 1_555
Mg9 O3 2.159972 1_556
Mg9 O3 2.159972 1_555
Mg9 O6 2.172240 1_555
Mg9 O7 2.172240 1_555
Mg9 O9 2.207877 1_655
Mg10 O14 2.127348 1_555
Mg10 O4 2.157909 1_554
Mg10 O4 2.157909 1_555
Mg10 O0 2.168020 1_555
Mg10 O1 2.175646 1_555
Mg10 O12 2.197826 1_555
Mg11 O15 2.127348 1_555
Mg11 O5 2.157909 1_555
Mg11 O5 2.157909 1_554
Mg11 O0 2.168020 1_565
Mg11 O1 2.175646 1_555
Mg11 O13 2.197826 1_555
Mg12 O14 2.127348 1_555
Mg12 O6 2.157909 1_555
Mg12 O6 2.157909 1_554
Mg12 O2 2.168020 1_555
Mg12 O3 2.175646 1_555
Mg12 O12 2.197826 1_655
Mg13 O15 2.127348 1_555
Mg13 O7 2.157909 1_555
Mg13 O7 2.157909 1_554
Mg13 O2 2.168020 1_565
Mg13 O3 2.175646 1_555
Mg13 O13 2.197826 1_655
Cd0 O9 2.157426 1_554
Cd0 O9 2.157426 1_555
Cd0 O13 2.281025 1_555
Cd0 O12 2.281025 1_555
Cd0 O3 2.312726 1_455
Cd0 O1 2.312726 1_555
O0 Ti0 2.202096 1_555
O2 Ti0 2.202096 1_655
O8 Ti0 2.157426 1_555
O8 Ti0 2.157426 1_556
O12 Ti0 2.059450 1_555
O13 Ti0 2.059450 1_565
