# generated using pymatgen
data_Sr5ZrTi4O15
_symmetry_space_group_name_H-M   'P 1'
_cell_length_a   4.01397200
_cell_length_b   4.01397200
_cell_length_c   19.93764000
_cell_angle_alpha   90.00000000
_cell_angle_beta   90.00000000
_cell_angle_gamma   90.00000000
_symmetry_Int_Tables_number   1
_chemical_formula_structural   Sr5ZrTi4O15
_chemical_formula_sum   'Sr5 Zr1 Ti4 O15'
_cell_volume   321.23468181
_cell_formula_units_Z   1
loop_
 _symmetry_equiv_pos_site_id
 _symmetry_equiv_pos_as_xyz
  1  'x, y, z'
loop_
 _atom_site_type_symbol
 _atom_site_label
 _atom_site_symmetry_multiplicity
 _atom_site_fract_x
 _atom_site_fract_y
 _atom_site_fract_z
 _atom_site_occupancy
  Sr  Sr0  1  0.50000000  0.50000000  0.10943100  1
  Sr  Sr1  1  0.50000000  0.50000000  0.30317100  1
  Sr  Sr2  1  0.50000000  0.50000000  0.50000000  1
  Sr  Sr3  1  0.50000000  0.50000000  0.69682900  1
  Sr  Sr4  1  0.50000000  0.50000000  0.89056900  1
  Zr  Zr0  1  0.00000000  0.00000000  0.00000000  1
  Ti  Ti0  1  0.00000000  0.00000000  0.20422800  1
  Ti  Ti1  1  0.00000000  0.00000000  0.40106000  1
  Ti  Ti2  1  0.00000000  0.00000000  0.59894000  1
  Ti  Ti3  1  0.00000000  0.00000000  0.79577200  1
  O  O0  1  0.00000000  0.00000000  0.10772600  1
  O  O1  1  0.00000000  0.00000000  0.30309800  1
  O  O2  1  0.00000000  0.00000000  0.50000000  1
  O  O3  1  0.00000000  0.00000000  0.69690200  1
  O  O4  1  0.00000000  0.00000000  0.89227400  1
  O  O5  1  0.00000000  0.50000000  0.00000000  1
  O  O6  1  0.00000000  0.50000000  0.20444400  1
  O  O7  1  0.00000000  0.50000000  0.40087500  1
  O  O8  1  0.00000000  0.50000000  0.59912500  1
  O  O9  1  0.00000000  0.50000000  0.79555600  1
  O  O10  1  0.50000000  0.00000000  0.00000000  1
  O  O11  1  0.50000000  0.00000000  0.20444400  1
  O  O12  1  0.50000000  0.00000000  0.40087500  1
  O  O13  1  0.50000000  0.00000000  0.59912500  1
  O  O14  1  0.50000000  0.00000000  0.79555600  1
loop_
_geom_bond_atom_site_label_1
_geom_bond_atom_site_label_2
_geom_bond_distance
_geom_bond_site_symmetry_2
O0 Ti0 1.924022 1_555
O0 Zr0 2.147802 1_555
O0 Sr0 2.838510 1_545
O0 Sr0 2.838510 1_455
O0 Sr0 2.838510 1_555
O0 Sr0 2.838510 1_445
O1 Ti1 1.953131 1_555
O1 Ti0 1.971234 1_555
O1 Sr1 2.838307 1_445
O1 Sr1 2.838307 1_545
O1 Sr1 2.838307 1_455
O1 Sr1 2.838307 1_555
O2 Ti1 1.972630 1_555
O2 Ti2 1.972630 1_555
O2 Sr2 2.838307 1_455
O2 Sr2 2.838307 1_555
O2 Sr2 2.838307 1_445
O2 Sr2 2.838307 1_545
O3 Ti2 1.953131 1_555
O3 Ti3 1.971234 1_555
O3 Sr3 2.838307 1_445
O3 Sr3 2.838307 1_455
O3 Sr3 2.838307 1_555
O3 Sr3 2.838307 1_545
O4 Ti3 1.924022 1_555
O4 Zr0 2.147802 1_556
O4 Sr4 2.838510 1_555
O4 Sr4 2.838510 1_445
O4 Sr4 2.838510 1_455
O4 Sr4 2.838510 1_545
O5 Zr0 2.006986 1_555
O5 Zr0 2.006986 1_565
O5 Sr0 2.964494 1_455
O5 Sr0 2.964494 1_555
O5 Sr4 2.964494 1_554
O5 Sr4 2.964494 1_454
O6 Ti0 2.006991 1_555
O6 Ti0 2.006991 1_565
O6 Sr0 2.759800 1_455
O6 Sr0 2.759800 1_555
O6 Sr1 2.811143 1_455
O6 Sr1 2.811143 1_555
O7 Ti1 2.006989 1_565
O7 Ti1 2.006989 1_555
O7 Sr1 2.796900 1_455
O7 Sr1 2.796900 1_555
O7 Sr2 2.816705 1_455
O7 Sr2 2.816705 1_555
O8 Ti2 2.006989 1_555
O8 Ti2 2.006989 1_565
O8 Sr3 2.796900 1_455
O8 Sr3 2.796900 1_555
O8 Sr2 2.816705 1_455
O8 Sr2 2.816705 1_555
O9 Ti3 2.006991 1_565
O9 Ti3 2.006991 1_555
O9 Sr4 2.759800 1_455
O9 Sr4 2.759800 1_555
O9 Sr3 2.811143 1_555
O9 Sr3 2.811143 1_455
O10 Zr0 2.006986 1_555
O10 Zr0 2.006986 1_655
O10 Sr0 2.964494 1_545
O10 Sr0 2.964494 1_555
O10 Sr4 2.964494 1_554
O10 Sr4 2.964494 1_544
O11 Ti0 2.006991 1_555
O11 Ti0 2.006991 1_655
O11 Sr0 2.759800 1_545
O11 Sr0 2.759800 1_555
O11 Sr1 2.811143 1_545
O11 Sr1 2.811143 1_555
O12 Ti1 2.006989 1_655
O12 Ti1 2.006989 1_555
O12 Sr1 2.796900 1_555
O12 Sr1 2.796900 1_545
O12 Sr2 2.816705 1_545
O12 Sr2 2.816705 1_555
O13 Ti2 2.006989 1_555
O13 Ti2 2.006989 1_655
O13 Sr3 2.796900 1_545
O13 Sr3 2.796900 1_555
O13 Sr2 2.816705 1_545
O13 Sr2 2.816705 1_555
O14 Ti3 2.006991 1_655
O14 Ti3 2.006991 1_555
O14 Sr4 2.759800 1_545
O14 Sr4 2.759800 1_555
O14 Sr3 2.811143 1_555
O14 Sr3 2.811143 1_545
