# generated using pymatgen
data_NdMn5(CuO6)2
_symmetry_space_group_name_H-M   'P 1'
_cell_length_a   6.50002486
_cell_length_b   6.50002486
_cell_length_c   6.50002486
_cell_angle_alpha   110.61949185
_cell_angle_beta   109.34667822
_cell_angle_gamma   108.45481840
_symmetry_Int_Tables_number   1
_chemical_formula_structural   NdMn5(CuO6)2
_chemical_formula_sum   'Nd1 Mn5 Cu2 O12'
_cell_volume   211.33248462
_cell_formula_units_Z   1
loop_
 _symmetry_equiv_pos_site_id
 _symmetry_equiv_pos_as_xyz
  1  'x, y, z'
loop_
 _atom_site_type_symbol
 _atom_site_label
 _atom_site_symmetry_multiplicity
 _atom_site_fract_x
 _atom_site_fract_y
 _atom_site_fract_z
 _atom_site_occupancy
  Nd  Nd0  1  0.00000000  0.00000000  0.00000000  1
  Mn  Mn0  1  0.00000000  0.50000000  0.00000000  1
  Mn  Mn1  1  0.50000000  0.50000000  0.50000000  1
  Mn  Mn2  1  0.00000000  0.00000000  0.50000000  1
  Mn  Mn3  1  0.50000000  0.00000000  0.00000000  1
  Mn  Mn4  1  0.50000000  0.50000000  0.00000000  1
  Cu  Cu0  1  0.50000000  0.00000000  0.50000000  1
  Cu  Cu1  1  0.00000000  0.50000000  0.50000000  1
  O  O0  1  0.31234900  0.82389100  0.13624000  1
  O  O1  1  0.31234900  0.17610900  0.48845700  1
  O  O2  1  0.68765100  0.82389100  0.51154300  1
  O  O3  1  0.68765100  0.17610900  0.86376000  1
  O  O4  1  0.16867600  0.86388800  0.69521100  1
  O  O5  1  0.83132400  0.52653500  0.69521100  1
  O  O6  1  0.16867600  0.47346500  0.30478900  1
  O  O7  1  0.83132400  0.13611200  0.30478900  1
  O  O8  1  0.47372000  0.30210200  0.17161800  1
  O  O9  1  0.13048400  0.30210200  0.82838200  1
  O  O10  1  0.86951600  0.69789800  0.17161800  1
  O  O11  1  0.52628000  0.69789800  0.82838200  1
loop_
_geom_bond_atom_site_label_1
_geom_bond_atom_site_label_2
_geom_bond_distance
_geom_bond_site_symmetry_2
Nd0 O4 2.593940 1_544
Nd0 O7 2.593940 1_455
Nd0 O6 2.593942 1_555
Nd0 O5 2.593942 1_444
Nd0 O10 2.633439 1_445
Nd0 O8 2.633439 1_555
Nd0 O11 2.633439 1_444
Nd0 O9 2.633439 1_554
Nd0 O2 2.685278 1_444
Nd0 O1 2.685278 1_555
Nd0 O0 2.685283 1_545
Nd0 O3 2.685283 1_454
Mn0 O9 1.981254 1_554
Mn0 O10 1.981254 1_455
Mn0 O5 2.019396 1_454
Mn0 O6 2.019396 1_555
Mn0 O0 2.031752 1_555
Mn0 O3 2.031752 1_454
Mn1 O11 1.981254 1_555
Mn1 O8 1.981254 1_555
Mn1 O5 2.019396 1_555
Mn1 O6 2.019396 1_555
Mn1 O1 2.031749 1_555
Mn1 O2 2.031749 1_555
Mn2 O9 1.981254 1_555
Mn2 O10 1.981254 1_445
Mn2 O4 2.019391 1_545
Mn2 O7 2.019391 1_455
Mn2 O2 2.031756 1_445
Mn2 O1 2.031756 1_555
Mn3 O11 1.981254 1_544
Mn3 O8 1.981254 1_555
Mn3 O7 2.019398 1_555
Mn3 O4 2.019398 1_544
Mn3 O0 2.031752 1_545
Mn3 O3 2.031752 1_554
Mn4 O10 1.981424 1_555
Mn4 O8 1.981424 1_555
Mn4 O9 1.981424 1_554
Mn4 O11 1.981424 1_554
Cu0 O0 1.920310 1_545
Cu0 O3 1.920310 1_555
Cu0 O1 1.920311 1_555
Cu0 O2 1.920311 1_545
Cu1 O6 1.931120 1_555
Cu1 O5 1.931120 1_455
Cu1 O7 1.931125 1_455
Cu1 O4 1.931125 1_555
