# generated using pymatgen
data_Li2VSi2O7
_symmetry_space_group_name_H-M   'P 1'
_cell_length_a   8.57121200
_cell_length_b   8.58442528
_cell_length_c   12.97702517
_cell_angle_alpha   91.02500719
_cell_angle_beta   89.88061812
_cell_angle_gamma   119.88371948
_symmetry_Int_Tables_number   1
_chemical_formula_structural   Li2VSi2O7
_chemical_formula_sum   'Li12 V6 Si12 O42'
_cell_volume   827.72094186
_cell_formula_units_Z   6
loop_
 _symmetry_equiv_pos_site_id
 _symmetry_equiv_pos_as_xyz
  1  'x, y, z'
loop_
 _atom_site_type_symbol
 _atom_site_label
 _atom_site_symmetry_multiplicity
 _atom_site_fract_x
 _atom_site_fract_y
 _atom_site_fract_z
 _atom_site_occupancy
  Li  Li0  1  0.97078900  0.31062400  0.89655600  1
  Li  Li1  1  0.69730400  0.66571900  0.89904700  1
  Li  Li2  1  0.33222700  0.02698400  0.89911800  1
  Li  Li3  1  0.33506700  0.03196700  0.56433000  1
  Li  Li4  1  0.65928800  0.97503700  0.39439300  1
  Li  Li5  1  0.31115000  0.32937200  0.39392300  1
  Li  Li6  1  0.33345100  0.65771200  0.22959300  1
  Li  Li7  1  0.33651300  0.66438700  0.72309100  1
  Li  Li8  1  0.98838000  0.00394400  0.45453200  1
  Li  Li9  1  0.00671700  0.01964200  0.96682800  1
  Li  Li10  1  0.02357700  0.69146000  0.39386100  1
  Li  Li11  1  0.02730400  0.69233600  0.06947200  1
  V  V0  1  0.99663000  0.99926400  0.72695200  1
  V  V1  1  0.67563600  0.34127400  0.51437900  1
  V  V2  1  0.66774400  0.32986700  0.95544300  1
  V  V3  1  0.99543700  0.00119900  0.22457500  1
  V  V4  1  0.34150600  0.66853000  0.01359400  1
  V  V5  1  0.33688200  0.66595500  0.45684200  1
  Si  Si0  1  0.96990900  0.32465400  0.12180900  1
  Si  Si1  1  0.96197800  0.32318100  0.34571600  1
  Si  Si2  1  0.67586700  0.63975700  0.34733000  1
  Si  Si3  1  0.66948800  0.63700800  0.12538300  1
  Si  Si4  1  0.36092400  0.03374900  0.12096100  1
  Si  Si5  1  0.35177700  0.02695300  0.34233300  1
  Si  Si6  1  0.64708500  0.97569400  0.62005800  1
  Si  Si7  1  0.64238700  0.96532300  0.84733400  1
  Si  Si8  1  0.33338200  0.35870600  0.61952400  1
  Si  Si9  1  0.32786600  0.36064400  0.84857200  1
  Si  Si10  1  0.02846800  0.67413600  0.84638100  1
  Si  Si11  1  0.02970200  0.66994200  0.62125900  1
  O  O0  1  0.86270000  0.05892700  0.84073500  1
  O  O1  1  0.86405200  0.05577800  0.63126600  1
  O  O2  1  0.87165600  0.30952200  0.23228300  1
  O  O3  1  0.82017200  0.26290600  0.02868200  1
  O  O4  1  0.79133400  0.24087400  0.42497000  1
  O  O5  1  0.88058300  0.46570100  0.59814100  1
  O  O6  1  0.87666600  0.46695100  0.86730900  1
  O  O7  1  0.93860600  0.80352300  0.83807100  1
  O  O8  1  0.95235100  0.80886700  0.63836400  1
  O  O9  1  0.58111400  0.11336200  0.86927400  1
  O  O10  1  0.58508400  0.11977200  0.59603000  1
  O  O11  1  0.76401900  0.56076700  0.42796700  1
  O  O12  1  0.75759900  0.57138800  0.03422800  1
  O  O13  1  0.68502000  0.55366700  0.23424800  1
  O  O14  1  0.44258100  0.12492800  0.23362100  1
  O  O15  1  0.79677400  0.86107600  0.34336600  1
  O  O16  1  0.80295800  0.85729000  0.14037600  1
  O  O17  1  0.45233100  0.18404300  0.03289600  1
  O  O18  1  0.42292600  0.18130200  0.43274500  1
  O  O19  1  0.53701300  0.40613200  0.59375300  1
  O  O20  1  0.53299700  0.41483700  0.87536300  1
  O  O21  1  0.46155600  0.58007100  0.36299100  1
  O  O22  1  0.46418200  0.59497700  0.10661800  1
  O  O23  1  0.55732400  0.79224800  0.92368500  1
  O  O24  1  0.55659300  0.81565200  0.53037800  1
  O  O25  1  0.19879600  0.14191800  0.62637900  1
  O  O26  1  0.19503600  0.14212200  0.84033300  1
  O  O27  1  0.55822000  0.87469800  0.73109300  1
  O  O28  1  0.32846900  0.44562300  0.73390800  1
  O  O29  1  0.26922300  0.45947000  0.53775200  1
  O  O30  1  0.24057500  0.45470900  0.92356200  1
  O  O31  1  0.40036200  0.86557400  0.10023300  1
  O  O32  1  0.40312800  0.86700400  0.35976300  1
  O  O33  1  0.05281300  0.18821300  0.12502600  1
  O  O34  1  0.05707800  0.19557100  0.34172700  1
  O  O35  1  0.12058400  0.53330800  0.36675000  1
  O  O36  1  0.12490800  0.53574600  0.10639400  1
  O  O37  1  0.18993100  0.76059200  0.93289700  1
  O  O38  1  0.19344500  0.75908700  0.53643900  1
  O  O39  1  0.12799100  0.67932300  0.73447300  1
  O  O40  1  0.14032600  0.94371300  0.12429500  1
  O  O41  1  0.13055800  0.93417600  0.33245200  1
loop_
_geom_bond_atom_site_label_1
_geom_bond_atom_site_label_2
_geom_bond_distance
_geom_bond_site_symmetry_2
Li0 O6 1.922011 1_555
Li0 O0 2.000911 1_555
Li0 O30 2.034117 1_655
Li0 O3 2.064753 1_556
Li1 O20 1.916213 1_555
Li1 O7 1.972767 1_555
Li1 O23 2.001528 1_555
Li1 O12 2.114670 1_556
Li2 O9 1.918646 1_555
Li2 O26 2.032355 1_555
Li2 O37 2.040485 1_545
Li2 O17 2.105237 1_556
Li3 O10 1.926812 1_555
Li3 O25 1.992723 1_555
Li3 O38 2.056662 1_545
Li3 O18 2.058473 1_555
Li4 O32 1.960320 1_555
Li4 O15 1.976503 1_555
Li4 O4 2.010456 1_565
Li4 O24 2.154238 1_555
Li5 O21 1.928399 1_555
Li5 O34 2.001569 1_555
Li5 O18 2.006436 1_555
Li5 O29 2.276555 1_555
Li6 O22 2.157653 1_555
Li6 O36 2.221350 1_555
Li6 O32 2.294448 1_555
Li6 O31 2.326880 1_555
Li6 O21 2.329176 1_555
Li6 O35 2.397967 1_555
Li7 O28 1.852450 1_555
Li7 O27 1.859238 1_555
Li7 O39 1.859899 1_555
Li8 O15 2.054720 1_545
Li8 O34 2.076786 1_655
Li8 O41 2.244747 1_645
Li9 O0 2.181278 1_455
Li9 O26 2.182899 1_555
Li9 O7 2.321319 1_445
Li9 O33 2.406674 1_556
Li9 O40 2.590992 1_546
Li10 O35 1.940328 1_555
Li10 O11 1.982544 1_455
Li10 O41 1.992409 1_555
Li10 O38 2.238479 1_555
Li11 O36 1.970213 1_555
Li11 O40 1.991502 1_555
Li11 O12 2.055925 1_455
Li11 O37 2.154176 1_554
O0 Si7 1.645793 1_545
O0 V0 2.076558 1_545
O1 Si6 1.635763 1_545
O1 V0 1.909271 1_545
O2 Si0 1.635232 1_555
O2 Si1 1.639529 1_555
O3 Si0 1.641430 1_555
O3 V2 1.927104 1_554
O4 Si1 1.638965 1_555
O4 V1 1.970679 1_555
O5 Si11 1.596050 1_655
O5 V1 1.872144 1_555
O6 Si10 1.624743 1_655
O6 V2 1.959417 1_555
O7 Si10 1.641854 1_655
O7 V0 2.097888 1_555
O8 Si11 1.639792 1_655
O8 V0 1.858366 1_555
O9 Si7 1.619689 1_545
O9 V2 1.951912 1_555
O10 Si6 1.605875 1_545
O10 V1 1.984626 1_555
O11 Si2 1.632456 1_555
O11 V1 2.007817 1_555
O12 Si3 1.638089 1_555
O12 V2 2.067210 1_554
O13 Si3 1.630113 1_555
O13 Si2 1.650540 1_555
O14 Si4 1.630139 1_555
O14 Si5 1.639803 1_555
O15 Si2 1.651518 1_555
O15 V3 2.176497 1_565
O16 Si3 1.659677 1_555
O16 V3 1.835784 1_565
O17 Si4 1.620557 1_555
O17 V2 1.928839 1_554
O18 Si5 1.626737 1_555
O18 V1 2.166390 1_555
O19 Si8 1.618100 1_555
O19 V1 1.848324 1_555
O20 Si9 1.615650 1_555
O20 V2 1.953838 1_555
O21 Si2 1.656005 1_555
O21 V5 1.978965 1_555
O22 Si3 1.628512 1_555
O22 V4 1.911990 1_555
O23 Si7 1.640411 1_555
O23 V4 1.997184 1_556
O24 Si6 1.651724 1_555
O24 V5 1.913255 1_555
O25 Si8 1.633465 1_555
O25 V0 2.034424 1_445
O26 Si9 1.640644 1_555
O26 V0 2.104394 1_445
O27 Si6 1.670362 1_555
O27 Si7 1.674638 1_555
O28 Si8 1.659291 1_555
O28 Si9 1.667745 1_555
O29 Si8 1.638894 1_555
O29 V5 1.902741 1_555
O30 Si9 1.652191 1_555
O30 V4 1.956466 1_556
O31 Si4 1.656161 1_565
O31 V4 1.861126 1_555
O32 Si5 1.656488 1_565
O32 V5 1.996615 1_555
O33 Si0 1.646141 1_455
O33 V3 1.942390 1_455
O34 Si1 1.659735 1_455
O34 V3 2.099681 1_455
O35 Si1 1.648249 1_455
O35 V5 1.989553 1_555
O36 Si0 1.643661 1_455
O36 V4 2.031563 1_555
O37 Si10 1.636995 1_555
O37 V4 2.113646 1_556
O38 Si11 1.649359 1_555
O38 V5 2.040156 1_555
O39 Si10 1.672701 1_555
O39 Si11 1.675718 1_555
O40 Si4 1.648921 1_565
O40 V3 2.015002 1_465
O41 Si5 1.654854 1_565
O41 V3 2.081275 1_465
