# generated using pymatgen
data_HfMg14ZnO16
_symmetry_space_group_name_H-M   'P 1'
_cell_length_a   8.67998873
_cell_length_b   8.79394502
_cell_length_c   4.29287374
_cell_angle_alpha   90.00000000
_cell_angle_beta   90.00000000
_cell_angle_gamma   90.00000000
_symmetry_Int_Tables_number   1
_chemical_formula_structural   HfMg14ZnO16
_chemical_formula_sum   'Hf1 Mg14 Zn1 O16'
_cell_volume   327.68082076
_cell_formula_units_Z   1
loop_
 _symmetry_equiv_pos_site_id
 _symmetry_equiv_pos_as_xyz
  1  'x, y, z'
loop_
 _atom_site_type_symbol
 _atom_site_label
 _atom_site_symmetry_multiplicity
 _atom_site_fract_x
 _atom_site_fract_y
 _atom_site_fract_z
 _atom_site_occupancy
  Hf  Hf0  1  0.00000000  0.50000000  0.00000000  1
  Mg  Mg0  1  0.50000000  0.00000000  0.00000000  1
  Mg  Mg1  1  0.50000000  0.50000000  0.00000000  1
  Mg  Mg2  1  0.00000000  0.23703564  0.50000000  1
  Mg  Mg3  1  0.00000000  0.76296436  0.50000000  1
  Mg  Mg4  1  0.50000000  0.24766525  0.50000000  1
  Mg  Mg5  1  0.50000000  0.75233475  0.50000000  1
  Mg  Mg6  1  0.25188055  0.00000000  0.50000000  1
  Mg  Mg7  1  0.25892046  0.50000000  0.50000000  1
  Mg  Mg8  1  0.74811945  0.00000000  0.50000000  1
  Mg  Mg9  1  0.74107954  0.50000000  0.50000000  1
  Mg  Mg10  1  0.25540368  0.24077224  0.00000000  1
  Mg  Mg11  1  0.25540368  0.75922776  0.00000000  1
  Mg  Mg12  1  0.74459632  0.24077224  -0.00000000  1
  Mg  Mg13  1  0.74459632  0.75922776  -0.00000000  1
  Zn  Zn0  1  0.00000000  0.00000000  0.00000000  1
  O  O0  1  0.26888897  0.00000000  0.00000000  1
  O  O1  1  0.25141925  0.50000000  0.00000000  1
  O  O2  1  0.73111103  0.00000000  -0.00000000  1
  O  O3  1  0.74858075  0.50000000  -0.00000000  1
  O  O4  1  0.25042585  0.25222768  0.50000000  1
  O  O5  1  0.25042585  0.74777232  0.50000000  1
  O  O6  1  0.74957415  0.25222768  0.50000000  1
  O  O7  1  0.74957415  0.74777232  0.50000000  1
  O  O8  1  0.00000000  0.00000000  0.50000000  1
  O  O9  1  0.00000000  0.50000000  0.50000000  1
  O  O10  1  0.50000000  0.00000000  0.50000000  1
  O  O11  1  0.50000000  0.50000000  0.50000000  1
  O  O12  1  0.00000000  0.26305691  0.00000000  1
  O  O13  1  -0.00000000  0.73694309  -0.00000000  1
  O  O14  1  0.50000000  0.25599050  0.00000000  1
  O  O15  1  0.50000000  0.74400950  0.00000000  1
loop_
_geom_bond_atom_site_label_1
_geom_bond_atom_site_label_2
_geom_bond_distance
_geom_bond_site_symmetry_2
Hf0 O12 2.083665 1_555
Hf0 O13 2.083665 1_555
Hf0 O9 2.146437 1_554
Hf0 O9 2.146437 1_555
Hf0 O3 2.182316 1_455
Hf0 O1 2.182316 1_555
Mg0 O2 2.006041 1_555
Mg0 O0 2.006041 1_555
Mg0 O10 2.146437 1_555
Mg0 O10 2.146437 1_554
Mg0 O14 2.251166 1_555
Mg0 O15 2.251166 1_545
Mg1 O14 2.145806 1_555
Mg1 O15 2.145806 1_555
Mg1 O11 2.146437 1_554
Mg1 O11 2.146437 1_555
Mg1 O3 2.157678 1_555
Mg1 O1 2.157678 1_555
Mg2 O8 2.084478 1_555
Mg2 O12 2.158600 1_556
Mg2 O12 2.158600 1_555
Mg2 O6 2.177795 1_455
Mg2 O4 2.177795 1_555
Mg2 O9 2.312494 1_555
Mg3 O8 2.084478 1_565
Mg3 O13 2.158600 1_555
Mg3 O13 2.158600 1_556
Mg3 O7 2.177795 1_455
Mg3 O5 2.177795 1_555
Mg3 O9 2.312494 1_555
Mg4 O14 2.147685 1_556
Mg4 O14 2.147685 1_555
Mg4 O4 2.166672 1_555
Mg4 O6 2.166672 1_555
Mg4 O10 2.177955 1_555
Mg4 O11 2.219018 1_555
Mg5 O15 2.147685 1_556
Mg5 O15 2.147685 1_555
Mg5 O5 2.166672 1_555
Mg5 O7 2.166672 1_555
Mg5 O10 2.177955 1_565
Mg5 O11 2.219018 1_555
Mg6 O0 2.151508 1_555
Mg6 O0 2.151508 1_556
Mg6 O10 2.153674 1_555
Mg6 O8 2.186320 1_555
Mg6 O5 2.218112 1_545
Mg6 O4 2.218112 1_555
Mg7 O11 2.092568 1_555
Mg7 O1 2.147424 1_556
Mg7 O1 2.147424 1_555
Mg7 O4 2.180143 1_555
Mg7 O5 2.180143 1_555
Mg7 O9 2.247427 1_555
Mg8 O2 2.151508 1_556
Mg8 O2 2.151508 1_555
Mg8 O10 2.153674 1_555
Mg8 O8 2.186320 1_655
Mg8 O7 2.218112 1_545
Mg8 O6 2.218112 1_555
Mg9 O11 2.092568 1_555
Mg9 O3 2.147424 1_556
Mg9 O3 2.147424 1_555
Mg9 O6 2.180143 1_555
Mg9 O7 2.180143 1_555
Mg9 O9 2.247427 1_655
Mg10 O0 2.120571 1_555
Mg10 O14 2.127307 1_555
Mg10 O4 2.149234 1_554
Mg10 O4 2.149234 1_555
Mg10 O12 2.225546 1_555
Mg10 O1 2.279897 1_555
Mg11 O0 2.120571 1_565
Mg11 O15 2.127307 1_555
Mg11 O5 2.149234 1_554
Mg11 O5 2.149234 1_555
Mg11 O13 2.225546 1_555
Mg11 O1 2.279897 1_555
Mg12 O2 2.120571 1_555
Mg12 O14 2.127307 1_555
Mg12 O6 2.149234 1_554
Mg12 O6 2.149234 1_555
Mg12 O12 2.225546 1_655
Mg12 O3 2.279897 1_555
Mg13 O2 2.120571 1_565
Mg13 O15 2.127307 1_555
Mg13 O7 2.149234 1_554
Mg13 O7 2.149234 1_555
Mg13 O13 2.225546 1_655
Mg13 O3 2.279897 1_555
O0 Zn0 2.333953 1_555
O2 Zn0 2.333953 1_655
O8 Zn0 2.146437 1_556
O8 Zn0 2.146437 1_555
O12 Zn0 2.313308 1_555
O13 Zn0 2.313308 1_565
