# generated using pymatgen
data_Cs2LiAl3F12
_symmetry_space_group_name_H-M   'P 1'
_cell_length_a   7.21481445
_cell_length_b   7.21481445
_cell_length_c   7.21481420
_cell_angle_alpha   58.87185224
_cell_angle_beta   58.87185224
_cell_angle_gamma   58.87185080
_symmetry_Int_Tables_number   1
_chemical_formula_structural   Cs2LiAl3F12
_chemical_formula_sum   'Cs2 Li1 Al3 F12'
_cell_volume   258.71980312
_cell_formula_units_Z   1
loop_
 _symmetry_equiv_pos_site_id
 _symmetry_equiv_pos_as_xyz
  1  'x, y, z'
loop_
 _atom_site_type_symbol
 _atom_site_label
 _atom_site_symmetry_multiplicity
 _atom_site_fract_x
 _atom_site_fract_y
 _atom_site_fract_z
 _atom_site_occupancy
  Cs  Cs0  1  0.62733000  0.62733000  0.62733000  1
  Cs  Cs1  1  0.37267000  0.37267000  0.37267000  1
  Li  Li0  1  0.00000000  0.00000000  0.00000000  1
  Al  Al0  1  0.50000000  0.00000000  0.00000000  1
  Al  Al1  1  0.00000000  0.50000000  0.00000000  1
  Al  Al2  1  0.00000000  0.00000000  0.50000000  1
  F  F0  1  0.93018100  0.30652000  0.30652000  1
  F  F1  1  0.07165700  0.07165700  0.65054300  1
  F  F2  1  0.07165700  0.65054300  0.07165700  1
  F  F3  1  0.92834300  0.34945700  0.92834300  1
  F  F4  1  0.92834300  0.92834300  0.34945700  1
  F  F5  1  0.65054300  0.07165700  0.07165700  1
  F  F6  1  0.30652000  0.30652000  0.93018100  1
  F  F7  1  0.30652000  0.93018100  0.30652000  1
  F  F8  1  0.69348000  0.06981900  0.69348000  1
  F  F9  1  0.06981900  0.69348000  0.69348000  1
  F  F10  1  0.69348000  0.69348000  0.06981900  1
  F  F11  1  0.34945700  0.92834300  0.92834300  1
loop_
_geom_bond_atom_site_label_1
_geom_bond_atom_site_label_2
_geom_bond_distance
_geom_bond_site_symmetry_2
Cs0 F11 3.053777 1_555
Cs0 F3 3.053777 1_555
Cs0 F4 3.053777 1_555
Cs0 F7 3.251165 1_555
Cs0 F0 3.251165 1_555
Cs0 F6 3.251165 1_555
Cs1 F5 3.053777 1_555
Cs1 F2 3.053777 1_555
Cs1 F1 3.053777 1_555
Cs1 F9 3.251165 1_555
Cs1 F8 3.251165 1_555
Cs1 F10 3.251165 1_555
Al0 F5 1.775313 1_555
Al0 F11 1.775313 1_544
Al0 F8 1.864542 1_554
Al0 F7 1.864542 1_545
Al0 F10 1.864542 1_545
Al0 F6 1.864542 1_554
Al1 F2 1.775313 1_555
Al1 F3 1.775313 1_454
Al1 F9 1.864542 1_554
Al1 F0 1.864542 1_455
Al1 F10 1.864542 1_455
Al1 F6 1.864542 1_554
Al2 F1 1.775313 1_555
Al2 F4 1.775313 1_445
Al2 F8 1.864542 1_455
Al2 F9 1.864542 1_545
Al2 F0 1.864542 1_455
Al2 F7 1.864542 1_545
F1 Li0 2.114793 1_556
F2 Li0 2.114793 1_565
F3 Li0 2.114793 1_656
F4 Li0 2.114793 1_665
F5 Li0 2.114793 1_655
F11 Li0 2.114793 1_566
