# generated using pymatgen
data_Sm6Al39Cr8
_symmetry_space_group_name_H-M   'P 1'
_cell_length_a   10.94585885
_cell_length_b   10.94585885
_cell_length_c   17.43860442
_cell_angle_alpha   90.00000000
_cell_angle_beta   90.00000000
_cell_angle_gamma   120.00000028
_symmetry_Int_Tables_number   1
_chemical_formula_structural   Sm6Al39Cr8
_chemical_formula_sum   'Sm12 Al78 Cr16'
_cell_volume   1809.43106976
_cell_formula_units_Z   2
loop_
 _symmetry_equiv_pos_site_id
 _symmetry_equiv_pos_as_xyz
  1  'x, y, z'
loop_
 _atom_site_type_symbol
 _atom_site_label
 _atom_site_symmetry_multiplicity
 _atom_site_fract_x
 _atom_site_fract_y
 _atom_site_fract_z
 _atom_site_occupancy
  Sm  Sm0  1  0.46722684  0.46722684  0.90314625  1
  Sm  Sm1  1  0.53277316  0.53277316  0.09685375  1
  Sm  Sm2  1  0.00000000  0.53277316  0.90314625  1
  Sm  Sm3  1  0.53277316  0.53277316  0.40314625  1
  Sm  Sm4  1  0.00000000  0.53277316  0.59685375  1
  Sm  Sm5  1  1.00000000  0.46722684  0.09685375  1
  Sm  Sm6  1  0.46722684  0.46722684  0.59685375  1
  Sm  Sm7  1  1.00000000  0.46722684  0.40314625  1
  Sm  Sm8  1  0.53277316  0.00000000  0.90314625  1
  Sm  Sm9  1  0.46722684  1.00000000  0.09685375  1
  Sm  Sm10  1  0.46722684  1.00000000  0.40314625  1
  Sm  Sm11  1  0.53277316  0.00000000  0.59685375  1
  Al  Al0  1  0.84708059  0.45137435  0.75000000  1
  Al  Al1  1  0.15291941  0.54862565  0.25000000  1
  Al  Al2  1  0.60429377  0.15291941  0.75000000  1
  Al  Al3  1  0.39570623  0.54862565  0.75000000  1
  Al  Al4  1  0.39570623  0.84708059  0.25000000  1
  Al  Al5  1  0.60429377  0.45137435  0.25000000  1
  Al  Al6  1  0.54862565  0.39570623  0.75000000  1
  Al  Al7  1  0.45137435  0.84708059  0.75000000  1
  Al  Al8  1  0.45137435  0.60429377  0.25000000  1
  Al  Al9  1  0.54862565  0.15291941  0.25000000  1
  Al  Al10  1  0.15291941  0.60429377  0.75000000  1
  Al  Al11  1  0.84708059  0.39570623  0.25000000  1
  Al  Al12  1  0.84533933  0.84533933  0.38472578  1
  Al  Al13  1  0.15466067  0.15466067  0.61527422  1
  Al  Al14  1  1.00000000  0.15466067  0.38472578  1
  Al  Al15  1  0.15466067  0.15466067  0.88472578  1
  Al  Al16  1  1.00000000  0.15466067  0.11527422  1
  Al  Al17  1  0.00000000  0.84533933  0.61527422  1
  Al  Al18  1  0.84533933  0.84533933  0.11527422  1
  Al  Al19  1  0.00000000  0.84533933  0.88472578  1
  Al  Al20  1  0.15466067  1.00000000  0.38472578  1
  Al  Al21  1  0.84533933  0.00000000  0.61527422  1
  Al  Al22  1  0.84533933  0.00000000  0.88472578  1
  Al  Al23  1  0.15466067  1.00000000  0.11527422  1
  Al  Al24  1  0.75053341  0.24946659  0.00000000  1
  Al  Al25  1  0.24946659  0.75053341  0.00000000  1
  Al  Al26  1  0.49893318  0.24946659  -0.00000000  1
  Al  Al27  1  0.24946659  0.75053341  0.50000000  1
  Al  Al28  1  0.50106682  0.75053341  0.50000000  1
  Al  Al29  1  0.50106682  0.75053341  0.00000000  1
  Al  Al30  1  0.75053341  0.24946659  0.50000000  1
  Al  Al31  1  0.49893318  0.24946659  0.50000000  1
  Al  Al32  1  0.75053341  0.50106682  0.00000000  1
  Al  Al33  1  0.24946659  0.49893318  -0.00000000  1
  Al  Al34  1  0.24946659  0.49893318  0.50000000  1
  Al  Al35  1  0.75053341  0.50106682  0.50000000  1
  Al  Al36  1  0.84944424  0.84944424  0.75000000  1
  Al  Al37  1  0.15055576  0.15055576  0.25000000  1
  Al  Al38  1  0.00000000  0.15055576  0.75000000  1
  Al  Al39  1  1.00000000  0.84944424  0.25000000  1
  Al  Al40  1  0.15055576  0.00000000  0.75000000  1
  Al  Al41  1  0.84944424  1.00000000  0.25000000  1
  Al  Al42  1  0.75032724  0.75032724  0.97082520  1
  Al  Al43  1  0.24967276  0.24967276  0.02917480  1
  Al  Al44  1  1.00000000  0.24967276  0.97082520  1
  Al  Al45  1  0.24967276  0.24967276  0.47082520  1
  Al  Al46  1  1.00000000  0.24967276  0.52917480  1
  Al  Al47  1  0.00000000  0.75032724  0.02917480  1
  Al  Al48  1  0.75032724  0.75032724  0.52917480  1
  Al  Al49  1  0.00000000  0.75032724  0.47082520  1
  Al  Al50  1  0.24967276  1.00000000  0.97082520  1
  Al  Al51  1  0.75032724  0.00000000  0.02917480  1
  Al  Al52  1  0.75032724  0.00000000  0.47082520  1
  Al  Al53  1  0.24967276  1.00000000  0.52917480  1
  Al  Al54  1  0.83566041  0.23172821  0.83767985  1
  Al  Al55  1  0.16433959  0.76827179  0.16232015  1
  Al  Al56  1  0.39606780  0.16433959  0.83767985  1
  Al  Al57  1  0.16433959  0.76827179  0.33767985  1
  Al  Al58  1  0.60393220  0.76827179  0.66232015  1
  Al  Al59  1  0.60393220  0.83566041  0.16232015  1
  Al  Al60  1  0.83566041  0.23172821  0.66232015  1
  Al  Al61  1  0.39606780  0.23172821  0.33767985  1
  Al  Al62  1  0.76827179  0.60393220  0.83767985  1
  Al  Al63  1  0.60393220  0.83566041  0.33767985  1
  Al  Al64  1  0.23172821  0.83566041  0.66232015  1
  Al  Al65  1  0.23172821  0.39606780  0.16232015  1
  Al  Al66  1  0.39606780  0.16433959  0.66232015  1
  Al  Al67  1  0.76827179  0.16433959  0.33767985  1
  Al  Al68  1  0.39606780  0.23172821  0.16232015  1
  Al  Al69  1  0.60393220  0.76827179  0.83767985  1
  Al  Al70  1  0.23172821  0.39606780  0.33767985  1
  Al  Al71  1  0.76827179  0.16433959  0.16232015  1
  Al  Al72  1  0.76827179  0.60393220  0.66232015  1
  Al  Al73  1  0.23172821  0.83566041  0.83767985  1
  Al  Al74  1  0.16433959  0.39606780  0.66232015  1
  Al  Al75  1  0.83566041  0.60393220  0.33767985  1
  Al  Al76  1  0.83566041  0.60393220  0.16232015  1
  Al  Al77  1  0.16433959  0.39606780  0.83767985  1
  Cr  Cr0  1  0.66666700  0.33333300  0.86781763  1
  Cr  Cr1  1  0.33333300  0.66666700  0.13218237  1
  Cr  Cr2  1  0.33333300  0.66666700  0.36781763  1
  Cr  Cr3  1  0.33333300  0.66666700  0.63218237  1
  Cr  Cr4  1  0.66666700  0.33333300  0.63218237  1
  Cr  Cr5  1  0.66666700  0.33333300  0.36781763  1
  Cr  Cr6  1  0.66666700  0.33333300  0.13218237  1
  Cr  Cr7  1  0.33333300  0.66666700  0.86781763  1
  Cr  Cr8  1  -0.00000000  -0.00000000  0.00000000  1
  Cr  Cr9  1  -0.00000000  -0.00000000  0.50000000  1
  Cr  Cr10  1  0.25789981  0.25789981  0.75000000  1
  Cr  Cr11  1  0.74210019  0.74210019  0.25000000  1
  Cr  Cr12  1  0.00000000  0.74210019  0.75000000  1
  Cr  Cr13  1  1.00000000  0.25789981  0.25000000  1
  Cr  Cr14  1  0.74210019  0.00000000  0.75000000  1
  Cr  Cr15  1  0.25789981  1.00000000  0.25000000  1
loop_
_geom_bond_atom_site_label_1
_geom_bond_atom_site_label_2
_geom_bond_distance
_geom_bond_site_symmetry_2
Sm0 Sm1 3.453340 1_556
Sm2 Sm5 3.453340 1_456
Sm3 Sm6 3.453340 1_555
Sm4 Sm7 3.453340 1_455
Sm8 Sm9 3.453340 1_546
Sm10 Sm11 3.453340 1_565
Al0 Cr0 2.690525 1_555
Al0 Cr4 2.690525 1_555
Al0 Al62 2.703884 1_555
Al0 Al72 2.703884 1_555
Al0 Cr12 2.757145 1_655
Al0 Al60 2.798790 1_555
Al0 Al54 2.798790 1_555
Al0 Al10 2.899166 1_655
Al0 Al2 3.008815 1_555
Al0 Al6 3.008815 1_555
Al0 Sm4 3.039181 1_655
Al0 Sm2 3.039181 1_655
Al1 Cr1 2.690525 1_555
Al1 Cr2 2.690525 1_555
Al1 Al70 2.703884 1_555
Al1 Al65 2.703884 1_555
Al1 Cr13 2.757145 1_455
Al1 Al57 2.798790 1_555
Al1 Al55 2.798790 1_555
Al1 Al11 2.899166 1_455
Al1 Al4 3.008815 1_555
Al1 Al8 3.008815 1_555
Al1 Sm5 3.039181 1_455
Al1 Sm7 3.039181 1_455
Al2 Cr0 2.690524 1_555
Al2 Cr4 2.690524 1_555
Al2 Al60 2.703884 1_555
Al2 Al54 2.703884 1_555
Al2 Cr14 2.757145 1_555
Al2 Al66 2.798790 1_555
Al2 Al56 2.798790 1_555
Al2 Al7 2.899166 1_545
Al2 Al6 3.008815 1_555
Al2 Sm8 3.039181 1_555
Al2 Sm11 3.039181 1_555
Al3 Cr3 2.690531 1_555
Al3 Cr7 2.690531 1_555
Al3 Al74 2.703884 1_555
Al3 Al77 2.703884 1_555
Al3 Cr10 2.757145 1_555
Al3 Al69 2.798790 1_555
Al3 Al58 2.798790 1_555
Al3 Al6 2.899166 1_555
Al3 Al7 3.008815 1_555
Al3 Sm6 3.039181 1_555
Al3 Sm0 3.039181 1_555
Al4 Cr2 2.690524 1_555
Al4 Cr1 2.690524 1_555
Al4 Al55 2.703884 1_555
Al4 Al57 2.703884 1_555
Al4 Cr15 2.757145 1_555
Al4 Al63 2.798790 1_555
Al4 Al59 2.798790 1_555
Al4 Al9 2.899166 1_565
Al4 Al8 3.008815 1_555
Al4 Sm9 3.039181 1_555
Al4 Sm10 3.039181 1_555
Al5 Cr5 2.690531 1_555
Al5 Cr6 2.690531 1_555
Al5 Al76 2.703884 1_555
Al5 Al75 2.703884 1_555
Al5 Cr11 2.757145 1_555
Al5 Al68 2.798790 1_555
Al5 Al61 2.798790 1_555
Al5 Al8 2.899166 1_555
Al5 Al9 3.008815 1_555
Al5 Sm1 3.039181 1_555
Al5 Sm3 3.039181 1_555
Al6 Cr0 2.690531 1_555
Al6 Cr4 2.690531 1_555
Al6 Al66 2.703884 1_555
Al6 Cr10 2.757145 1_555
Al6 Al72 2.798790 1_555
Al6 Al62 2.798790 1_555
Al6 Sm6 3.039181 1_555
Al6 Sm0 3.039181 1_555
Al7 Cr7 2.690525 1_555
Al7 Cr3 2.690525 1_555
Al7 Cr14 2.757145 1_565
Al7 Al73 2.798790 1_555
Al7 Sm8 3.039181 1_565
Al7 Sm11 3.039181 1_565
Al8 Cr2 2.690531 1_555
Al8 Cr1 2.690531 1_555
Al8 Cr11 2.757145 1_555
Al8 Sm1 3.039181 1_555
Al8 Sm3 3.039181 1_555
Al9 Cr5 2.690525 1_555
Al9 Cr6 2.690525 1_555
Al9 Cr15 2.757145 1_545
Al9 Sm10 3.039181 1_545
Al9 Sm9 3.039181 1_545
Al10 Cr3 2.690524 1_555
Al10 Cr7 2.690524 1_555
Al10 Al64 2.703884 1_555
Al10 Al73 2.703884 1_555
Al10 Cr12 2.757145 1_555
Al10 Al74 2.798790 1_555
Al10 Al77 2.798790 1_555
Al10 Al7 3.008815 1_555
Al10 Al3 3.008815 1_555
Al10 Sm2 3.039181 1_555
Al10 Sm4 3.039181 1_555
Al11 Cr5 2.690524 1_555
Al11 Cr6 2.690524 1_555
Al11 Al67 2.703884 1_555
Al11 Al71 2.703884 1_555
Al11 Cr13 2.757145 1_555
Al11 Al75 2.798790 1_555
Al11 Al76 2.798790 1_555
Al11 Al9 3.008815 1_555
Al11 Al5 3.008815 1_555
Al11 Sm5 3.039181 1_555
Al11 Sm7 3.039181 1_555
Al12 Cr11 2.607070 1_555
Al12 Cr9 2.628094 1_665
Al12 Al75 2.717845 1_555
Al12 Al63 2.717845 1_555
Al12 Al48 2.725231 1_555
Al12 Al49 2.821776 1_655
Al12 Al52 2.821776 1_565
Al12 Al41 2.882996 1_555
Al12 Al39 2.882996 1_555
Al12 Al14 2.932178 1_565
Al12 Al20 2.932178 1_655
Al12 Sm3 3.436352 1_555
Al13 Cr10 2.607070 1_555
Al13 Cr9 2.628094 1_555
Al13 Al74 2.717845 1_555
Al13 Al66 2.717845 1_555
Al13 Al45 2.725231 1_555
Al13 Al46 2.821776 1_455
Al13 Al53 2.821776 1_545
Al13 Al40 2.882996 1_555
Al13 Al38 2.882996 1_555
Al13 Al17 2.932178 1_545
Al13 Al21 2.932178 1_455
Al13 Sm6 3.436352 1_555
Al14 Cr13 2.607070 1_555
Al14 Cr9 2.628094 1_655
Al14 Al70 2.717845 1_655
Al14 Al67 2.717845 1_555
Al14 Al46 2.725231 1_555
Al14 Al52 2.821776 1_555
Al14 Al45 2.821776 1_655
Al14 Al41 2.882996 1_545
Al14 Al37 2.882996 1_655
Al14 Al20 2.932178 1_645
Al14 Sm7 3.436352 1_555
Al15 Cr10 2.607070 1_555
Al15 Cr8 2.628094 1_556
Al15 Al56 2.717845 1_555
Al15 Al77 2.717845 1_555
Al15 Al43 2.725231 1_556
Al15 Al50 2.821776 1_545
Al15 Al44 2.821776 1_455
Al15 Al38 2.882996 1_555
Al15 Al40 2.882996 1_555
Al15 Al19 2.932178 1_545
Al15 Al22 2.932178 1_455
Al15 Sm0 3.436352 1_555
Al16 Cr13 2.607070 1_555
Al16 Cr8 2.628094 1_655
Al16 Al65 2.717845 1_655
Al16 Al71 2.717845 1_555
Al16 Al44 2.725231 1_554
Al16 Al51 2.821776 1_555
Al16 Al43 2.821776 1_655
Al16 Al41 2.882996 1_545
Al16 Al37 2.882996 1_655
Al16 Al18 2.932178 1_545
Al16 Al23 2.932178 1_645
Al16 Sm5 3.436352 1_555
Al17 Cr12 2.607070 1_555
Al17 Cr9 2.628094 1_565
Al17 Al72 2.717845 1_455
Al17 Al64 2.717845 1_555
Al17 Al49 2.725231 1_555
Al17 Al53 2.821776 1_555
Al17 Al48 2.821776 1_455
Al17 Al40 2.882996 1_565
Al17 Al36 2.882996 1_455
Al17 Al21 2.932178 1_465
Al17 Sm4 3.436352 1_555
Al18 Cr11 2.607070 1_555
Al18 Cr8 2.628094 1_665
Al18 Al59 2.717845 1_555
Al18 Al76 2.717845 1_555
Al18 Al42 2.725231 1_554
Al18 Al47 2.821776 1_655
Al18 Al51 2.821776 1_565
Al18 Al41 2.882996 1_555
Al18 Al39 2.882996 1_555
Al18 Al23 2.932178 1_655
Al18 Sm1 3.436352 1_555
Al19 Cr12 2.607070 1_555
Al19 Cr8 2.628094 1_566
Al19 Al62 2.717845 1_455
Al19 Al73 2.717845 1_555
Al19 Al47 2.725231 1_556
Al19 Al50 2.821776 1_555
Al19 Al42 2.821776 1_455
Al19 Al40 2.882996 1_565
Al19 Al36 2.882996 1_455
Al19 Al22 2.932178 1_465
Al19 Sm2 3.436352 1_555
Al20 Cr15 2.607070 1_555
Al20 Cr9 2.628094 1_565
Al20 Al61 2.717845 1_565
Al20 Al57 2.717845 1_555
Al20 Al53 2.725231 1_555
Al20 Al49 2.821776 1_555
Al20 Al45 2.821776 1_565
Al20 Al39 2.882996 1_455
Al20 Al37 2.882996 1_565
Al20 Sm10 3.436352 1_555
Al21 Cr14 2.607070 1_555
Al21 Cr9 2.628094 1_655
Al21 Al58 2.717845 1_545
Al21 Al60 2.717845 1_555
Al21 Al52 2.725231 1_555
Al21 Al46 2.821776 1_555
Al21 Al48 2.821776 1_545
Al21 Al38 2.882996 1_655
Al21 Al36 2.882996 1_545
Al21 Sm11 3.436352 1_555
Al22 Cr14 2.607070 1_555
Al22 Cr8 2.628094 1_656
Al22 Al69 2.717845 1_545
Al22 Al54 2.717845 1_555
Al22 Al51 2.725231 1_556
Al22 Al44 2.821776 1_555
Al22 Al42 2.821776 1_545
Al22 Al38 2.882996 1_655
Al22 Al36 2.882996 1_545
Al22 Sm8 3.436352 1_555
Al23 Cr15 2.607070 1_555
Al23 Cr8 2.628094 1_565
Al23 Al68 2.717845 1_565
Al23 Al55 2.717845 1_555
Al23 Al50 2.725231 1_554
Al23 Al47 2.821776 1_555
Al23 Al43 2.821776 1_565
Al23 Al39 2.882996 1_455
Al23 Al37 2.882996 1_565
Al23 Sm9 3.436352 1_555
Al24 Al32 2.753981 1_555
Al24 Al26 2.753981 1_555
Al24 Al51 2.776510 1_555
Al24 Al44 2.776510 1_554
Al24 Cr0 2.800266 1_554
Al24 Cr6 2.800266 1_555
Al24 Al71 3.016513 1_555
Al24 Al54 3.016513 1_554
Al24 Sm8 3.079252 1_554
Al24 Sm5 3.079252 1_555
Al24 Sm2 3.384918 1_654
Al24 Sm9 3.384918 1_545
Al25 Al29 2.753981 1_555
Al25 Al33 2.753981 1_555
Al25 Al47 2.776510 1_555
Al25 Al50 2.776510 1_554
Al25 Cr7 2.800266 1_554
Al25 Cr1 2.800266 1_555
Al25 Al55 3.016513 1_555
Al25 Al73 3.016513 1_554
Al25 Sm9 3.079252 1_555
Al25 Sm2 3.079252 1_554
Al25 Sm8 3.384918 1_564
Al25 Sm5 3.384918 1_455
Al26 Al32 2.753981 1_555
Al26 Al50 2.776510 1_544
Al26 Al43 2.776510 1_555
Al26 Cr0 2.800272 1_554
Al26 Cr6 2.800272 1_555
Al26 Al56 3.016513 1_554
Al26 Al68 3.016513 1_555
Al26 Sm9 3.079252 1_545
Al26 Sm0 3.079252 1_554
Al26 Sm1 3.384918 1_555
Al26 Sm8 3.384918 1_554
Al27 Al28 2.753981 1_555
Al27 Al34 2.753981 1_555
Al27 Al53 2.776510 1_555
Al27 Al49 2.776510 1_555
Al27 Cr2 2.800266 1_555
Al27 Cr3 2.800266 1_555
Al27 Al64 3.016513 1_555
Al27 Al57 3.016513 1_555
Al27 Sm10 3.079252 1_555
Al27 Sm4 3.079252 1_555
Al27 Sm11 3.384918 1_565
Al27 Sm7 3.384918 1_455
Al28 Al34 2.753981 1_555
Al28 Al52 2.776510 1_565
Al28 Al48 2.776510 1_555
Al28 Cr2 2.800272 1_555
Al28 Cr3 2.800272 1_555
Al28 Al63 3.016513 1_555
Al28 Al58 3.016513 1_555
Al28 Sm11 3.079252 1_565
Al28 Sm3 3.079252 1_555
Al28 Sm6 3.384918 1_555
Al28 Sm10 3.384918 1_555
Al29 Al33 2.753981 1_555
Al29 Al51 2.776510 1_565
Al29 Al42 2.776510 1_554
Al29 Cr1 2.800272 1_555
Al29 Cr7 2.800272 1_554
Al29 Al59 3.016513 1_555
Al29 Al69 3.016513 1_554
Al29 Sm8 3.079252 1_564
Al29 Sm1 3.079252 1_555
Al29 Sm0 3.384918 1_554
Al29 Sm9 3.384918 1_555
Al30 Al35 2.753981 1_555
Al30 Al31 2.753981 1_555
Al30 Al46 2.776510 1_555
Al30 Al52 2.776510 1_555
Al30 Cr4 2.800266 1_555
Al30 Cr5 2.800266 1_555
Al30 Al60 3.016513 1_555
Al30 Al67 3.016513 1_555
Al30 Sm7 3.079252 1_555
Al30 Sm11 3.079252 1_555
Al30 Sm4 3.384918 1_655
Al30 Sm10 3.384918 1_545
Al31 Al35 2.753981 1_555
Al31 Al53 2.776510 1_545
Al31 Al45 2.776510 1_555
Al31 Cr4 2.800272 1_555
Al31 Cr5 2.800272 1_555
Al31 Al66 3.016513 1_555
Al31 Al61 3.016513 1_555
Al31 Sm10 3.079252 1_545
Al31 Sm6 3.079252 1_555
Al31 Sm3 3.384918 1_555
Al31 Sm11 3.384918 1_555
Al32 Al47 2.776510 1_655
Al32 Al42 2.776510 1_554
Al32 Cr6 2.800272 1_555
Al32 Cr0 2.800272 1_554
Al32 Al76 3.016513 1_555
Al32 Al62 3.016513 1_554
Al32 Sm2 3.079252 1_654
Al32 Sm1 3.079252 1_555
Al32 Sm0 3.384918 1_554
Al32 Sm5 3.384918 1_555
Al33 Al44 2.776510 1_454
Al33 Al43 2.776510 1_555
Al33 Cr7 2.800272 1_554
Al33 Cr1 2.800272 1_555
Al33 Al77 3.016513 1_554
Al33 Al65 3.016513 1_555
Al33 Sm5 3.079252 1_455
Al33 Sm0 3.079252 1_554
Al33 Sm1 3.384918 1_555
Al33 Sm2 3.384918 1_554
Al34 Al46 2.776510 1_455
Al34 Al45 2.776510 1_555
Al34 Cr2 2.800272 1_555
Al34 Cr3 2.800272 1_555
Al34 Al74 3.016513 1_555
Al34 Al70 3.016513 1_555
Al34 Sm7 3.079252 1_455
Al34 Sm6 3.079252 1_555
Al34 Sm3 3.384918 1_555
Al34 Sm4 3.384918 1_555
Al35 Al49 2.776510 1_655
Al35 Al48 2.776510 1_555
Al35 Cr5 2.800272 1_555
Al35 Cr4 2.800272 1_555
Al35 Al75 3.016513 1_555
Al35 Al72 3.016513 1_555
Al35 Sm4 3.079252 1_655
Al35 Sm3 3.079252 1_555
Al35 Sm6 3.384918 1_555
Al35 Sm7 3.384918 1_555
Al36 Cr14 2.456146 1_565
Al36 Cr12 2.456146 1_655
Al36 Al58 2.821597 1_555
Al36 Al62 2.821597 1_555
Al36 Al72 2.821597 1_555
Al36 Al69 2.821597 1_555
Al36 Al38 2.854354 1_665
Al36 Al40 2.854354 1_665
Al37 Cr15 2.456146 1_545
Al37 Cr13 2.456146 1_455
Al37 Al70 2.821597 1_555
Al37 Al65 2.821597 1_555
Al37 Al68 2.821597 1_555
Al37 Al61 2.821597 1_555
Al37 Al39 2.854354 1_445
Al37 Al41 2.854354 1_445
Al38 Cr14 2.456146 1_455
Al38 Cr10 2.456146 1_555
Al38 Al74 2.821597 1_555
Al38 Al77 2.821597 1_555
Al38 Al60 2.821597 1_455
Al38 Al54 2.821597 1_455
Al38 Al40 2.854354 1_555
Al39 Cr15 2.456146 1_655
Al39 Cr11 2.456146 1_555
Al39 Al76 2.821597 1_555
Al39 Al75 2.821597 1_555
Al39 Al57 2.821597 1_655
Al39 Al55 2.821597 1_655
Al39 Al41 2.854354 1_555
Al40 Cr12 2.456146 1_545
Al40 Cr10 2.456146 1_555
Al40 Al56 2.821597 1_555
Al40 Al66 2.821597 1_555
Al40 Al64 2.821597 1_545
Al40 Al73 2.821597 1_545
Al41 Cr13 2.456146 1_565
Al41 Cr11 2.456146 1_555
Al41 Al63 2.821597 1_555
Al41 Al59 2.821597 1_555
Al41 Al67 2.821597 1_565
Al41 Al71 2.821597 1_565
Al42 Cr8 2.779837 1_666
Al42 Al69 2.883080 1_555
Al42 Al62 2.883080 1_555
Al42 Al51 2.916166 1_566
Al42 Al47 2.916166 1_656
Al42 Sm1 3.240498 1_556
Al42 Sm0 3.315924 1_555
Al43 Cr8 2.779837 1_555
Al43 Al65 2.883080 1_555
Al43 Al68 2.883080 1_555
Al43 Al44 2.916166 1_454
Al43 Al50 2.916166 1_544
Al43 Sm0 3.240498 1_554
Al43 Sm1 3.315924 1_555
Al44 Cr8 2.779837 1_656
Al44 Al77 2.883080 1_655
Al44 Al54 2.883080 1_555
Al44 Al51 2.916166 1_556
Al44 Sm5 3.240498 1_556
Al44 Sm2 3.315924 1_655
Al45 Cr9 2.779837 1_555
Al45 Al70 2.883080 1_555
Al45 Al61 2.883080 1_555
Al45 Al53 2.916166 1_545
Al45 Al46 2.916166 1_455
Al45 Sm6 3.240498 1_555
Al45 Sm3 3.315924 1_555
Al46 Cr9 2.779837 1_655
Al46 Al74 2.883080 1_655
Al46 Al60 2.883080 1_555
Al46 Al52 2.916166 1_555
Al46 Sm7 3.240498 1_555
Al46 Sm4 3.315924 1_655
Al47 Cr8 2.779837 1_565
Al47 Al76 2.883080 1_455
Al47 Al55 2.883080 1_555
Al47 Al50 2.916166 1_554
Al47 Sm2 3.240498 1_554
Al47 Sm5 3.315924 1_455
Al48 Cr9 2.779837 1_665
Al48 Al58 2.883080 1_555
Al48 Al72 2.883080 1_555
Al48 Al52 2.916166 1_565
Al48 Al49 2.916166 1_655
Al48 Sm3 3.240498 1_555
Al48 Sm6 3.315924 1_555
Al49 Cr9 2.779837 1_565
Al49 Al75 2.883080 1_455
Al49 Al57 2.883080 1_555
Al49 Al53 2.916166 1_555
Al49 Sm4 3.240498 1_555
Al49 Sm7 3.315924 1_455
Al50 Cr8 2.779837 1_566
Al50 Al56 2.883080 1_565
Al50 Al73 2.883080 1_555
Al50 Sm9 3.240498 1_556
Al50 Sm8 3.315924 1_565
Al51 Cr8 2.779837 1_655
Al51 Al59 2.883080 1_545
Al51 Al71 2.883080 1_555
Al51 Sm8 3.240498 1_554
Al51 Sm9 3.315924 1_545
Al52 Cr9 2.779837 1_655
Al52 Al63 2.883080 1_545
Al52 Al67 2.883080 1_555
Al52 Sm11 3.240498 1_555
Al52 Sm10 3.315924 1_545
Al53 Cr9 2.779837 1_565
Al53 Al66 2.883080 1_565
Al53 Al64 2.883080 1_555
Al53 Sm10 3.240498 1_555
Al53 Sm11 3.315924 1_565
Al54 Cr0 2.644241 1_555
Al54 Cr14 2.687513 1_555
Al54 Al60 3.058028 1_555
Al54 Sm2 3.077329 1_655
Al54 Al77 3.115679 1_655
Al54 Sm8 3.212370 1_555
Al55 Cr1 2.644241 1_555
Al55 Cr15 2.687513 1_555
Al55 Al57 3.058028 1_555
Al55 Sm5 3.077329 1_455
Al55 Al76 3.115679 1_455
Al55 Sm9 3.212370 1_555
Al56 Cr0 2.644249 1_555
Al56 Cr10 2.687513 1_555
Al56 Al6 2.703884 1_555
Al56 Al66 3.058028 1_555
Al56 Sm8 3.077329 1_555
Al56 Al73 3.115679 1_545
Al56 Sm0 3.212370 1_555
Al57 Cr2 2.644241 1_555
Al57 Cr15 2.687513 1_555
Al57 Sm7 3.077329 1_455
Al57 Al75 3.115679 1_455
Al57 Sm10 3.212370 1_555
Al58 Cr3 2.644250 1_555
Al58 Cr14 2.687513 1_565
Al58 Al7 2.703884 1_555
Al58 Al69 3.058028 1_555
Al58 Sm6 3.077329 1_555
Al58 Al72 3.115679 1_555
Al58 Sm11 3.212370 1_565
Al59 Cr1 2.644249 1_555
Al59 Cr11 2.687513 1_555
Al59 Al8 2.703884 1_555
Al59 Al63 3.058028 1_555
Al59 Sm9 3.077329 1_555
Al59 Al71 3.115679 1_565
Al59 Sm1 3.212370 1_555
Al60 Cr4 2.644241 1_555
Al60 Cr14 2.687513 1_555
Al60 Sm4 3.077329 1_655
Al60 Al74 3.115679 1_655
Al60 Sm11 3.212370 1_555
Al61 Cr5 2.644250 1_555
Al61 Cr15 2.687513 1_545
Al61 Al9 2.703884 1_555
Al61 Al68 3.058028 1_555
Al61 Sm3 3.077329 1_555
Al61 Al70 3.115679 1_555
Al61 Sm10 3.212370 1_545
Al62 Cr0 2.644250 1_555
Al62 Cr12 2.687513 1_655
Al62 Al72 3.058028 1_555
Al62 Sm0 3.077329 1_555
Al62 Al69 3.115679 1_555
Al62 Sm2 3.212370 1_655
Al63 Cr2 2.644249 1_555
Al63 Cr11 2.687513 1_555
Al63 Al8 2.703884 1_555
Al63 Sm10 3.077329 1_555
Al63 Al67 3.115679 1_565
Al63 Sm3 3.212370 1_555
Al64 Cr3 2.644241 1_555
Al64 Cr12 2.687513 1_555
Al64 Al7 2.798790 1_555
Al64 Al73 3.058028 1_555
Al64 Sm11 3.077329 1_565
Al64 Al66 3.115679 1_565
Al64 Sm4 3.212370 1_555
Al65 Cr1 2.644250 1_555
Al65 Cr13 2.687513 1_455
Al65 Al8 2.798790 1_555
Al65 Al70 3.058028 1_555
Al65 Sm1 3.077329 1_555
Al65 Al68 3.115679 1_555
Al65 Sm5 3.212370 1_455
Al66 Cr4 2.644249 1_555
Al66 Cr10 2.687513 1_555
Al66 Sm11 3.077329 1_555
Al66 Sm6 3.212370 1_555
Al67 Cr5 2.644241 1_555
Al67 Cr13 2.687513 1_555
Al67 Al9 2.798790 1_555
Al67 Al71 3.058028 1_555
Al67 Sm10 3.077329 1_545
Al67 Sm7 3.212370 1_555
Al68 Cr6 2.644250 1_555
Al68 Cr15 2.687513 1_545
Al68 Al9 2.703884 1_555
Al68 Sm1 3.077329 1_555
Al68 Sm9 3.212370 1_545
Al69 Cr7 2.644250 1_555
Al69 Cr14 2.687513 1_565
Al69 Al7 2.703884 1_555
Al69 Sm0 3.077329 1_555
Al69 Sm8 3.212370 1_565
Al70 Cr2 2.644250 1_555
Al70 Cr13 2.687513 1_455
Al70 Al8 2.798790 1_555
Al70 Sm3 3.077329 1_555
Al70 Sm7 3.212370 1_455
Al71 Cr6 2.644241 1_555
Al71 Cr13 2.687513 1_555
Al71 Al9 2.798790 1_555
Al71 Sm9 3.077329 1_545
Al71 Sm5 3.212370 1_555
Al72 Cr4 2.644250 1_555
Al72 Cr12 2.687513 1_655
Al72 Sm6 3.077329 1_555
Al72 Sm4 3.212370 1_655
Al73 Cr7 2.644241 1_555
Al73 Cr12 2.687513 1_555
Al73 Sm8 3.077329 1_565
Al73 Sm2 3.212370 1_555
Al74 Cr3 2.644249 1_555
Al74 Cr10 2.687513 1_555
Al74 Al77 3.058028 1_555
Al74 Sm4 3.077329 1_555
Al74 Sm6 3.212370 1_555
Al75 Cr5 2.644249 1_555
Al75 Cr11 2.687513 1_555
Al75 Al76 3.058028 1_555
Al75 Sm7 3.077329 1_555
Al75 Sm3 3.212370 1_555
Al76 Cr6 2.644249 1_555
Al76 Cr11 2.687513 1_555
Al76 Sm5 3.077329 1_555
Al76 Sm1 3.212370 1_555
Al77 Cr7 2.644249 1_555
Al77 Cr10 2.687513 1_555
Al77 Sm2 3.077329 1_555
Al77 Sm0 3.212370 1_555
Cr0 Sm8 3.239219 1_555
Cr0 Sm2 3.239220 1_655
Cr0 Sm0 3.239229 1_555
Cr1 Sm9 3.239219 1_555
Cr1 Sm5 3.239220 1_455
Cr1 Sm1 3.239229 1_555
Cr2 Sm10 3.239219 1_555
Cr2 Sm7 3.239220 1_455
Cr2 Sm3 3.239229 1_555
Cr3 Sm4 3.239219 1_555
Cr3 Sm11 3.239220 1_565
Cr3 Sm6 3.239229 1_555
Cr4 Sm11 3.239219 1_555
Cr4 Sm4 3.239220 1_655
Cr4 Sm6 3.239229 1_555
Cr5 Sm7 3.239219 1_555
Cr5 Sm10 3.239220 1_545
Cr5 Sm3 3.239229 1_555
Cr6 Sm5 3.239219 1_555
Cr6 Sm9 3.239220 1_545
Cr6 Sm1 3.239229 1_555
Cr7 Sm2 3.239219 1_555
Cr7 Sm8 3.239220 1_565
Cr7 Sm0 3.239229 1_555
Cr10 Sm6 3.518849 1_555
Cr10 Sm0 3.518849 1_555
Cr11 Sm3 3.518849 1_555
Cr11 Sm1 3.518849 1_555
Cr12 Sm2 3.518849 1_555
Cr12 Sm4 3.518849 1_555
Cr13 Sm5 3.518849 1_555
Cr13 Sm7 3.518849 1_555
Cr14 Sm11 3.518849 1_555
Cr14 Sm8 3.518849 1_555
Cr15 Sm9 3.518849 1_555
Cr15 Sm10 3.518849 1_555
