# generated using pymatgen
data_La2ZnIn
_symmetry_space_group_name_H-M   'P 1'
_cell_length_a   11.89598290
_cell_length_b   11.89598290
_cell_length_c   11.89598290
_cell_angle_alpha   123.05575667
_cell_angle_beta   120.19946250
_cell_angle_gamma   87.22197101
_symmetry_Int_Tables_number   1
_chemical_formula_structural   La2ZnIn
_chemical_formula_sum   'La2 Zn1 In1'
_cell_volume   1158.65683334
_cell_formula_units_Z   1
loop_
 _symmetry_equiv_pos_site_id
 _symmetry_equiv_pos_as_xyz
  1  'x, y, z'
loop_
 _atom_site_type_symbol
 _atom_site_label
 _atom_site_symmetry_multiplicity
 _atom_site_fract_x
 _atom_site_fract_y
 _atom_site_fract_z
 _atom_site_occupancy
  La  La0  1  0.00000000  0.24190100  0.24190100  1
  La  La1  1  0.00000000  0.75809900  0.75809900  1
  Zn  Zn0  1  0.00000000  0.00000000  0.00000000  1
  In  In0  1  0.00000000  0.50000000  0.50000000  1
loop_
_geom_bond_atom_site_label_1
_geom_bond_atom_site_label_2
_geom_bond_distance
_geom_bond_site_symmetry_2
La0 Zn0 2.743731 1_555
La1 Zn0 2.743731 1_566
In0 La1 2.927454 1_555
In0 La0 2.927454 1_555
