# generated using pymatgen
data_Sr2Sn(HO)8
_symmetry_space_group_name_H-M   'P 1'
_cell_length_a   6.13662341
_cell_length_b   6.19042031
_cell_length_c   11.30040500
_cell_angle_alpha   90.00000000
_cell_angle_beta   90.00000000
_cell_angle_gamma   113.75634727
_symmetry_Int_Tables_number   1
_chemical_formula_structural   Sr2Sn(HO)8
_chemical_formula_sum   'Sr4 Sn2 H16 O16'
_cell_volume   392.90843730
_cell_formula_units_Z   2
loop_
 _symmetry_equiv_pos_site_id
 _symmetry_equiv_pos_as_xyz
  1  'x, y, z'
loop_
 _atom_site_type_symbol
 _atom_site_label
 _atom_site_symmetry_multiplicity
 _atom_site_fract_x
 _atom_site_fract_y
 _atom_site_fract_z
 _atom_site_occupancy
  Sr  Sr0  1  0.72638800  0.39005500  0.87034600  1
  Sr  Sr1  1  0.27361200  0.10994500  0.37034600  1
  Sr  Sr2  1  0.27361200  0.60994500  0.12965400  1
  Sr  Sr3  1  0.72638800  0.89005500  0.62965400  1
  Sn  Sn0  1  0.00000000  0.50000000  0.50000000  1
  Sn  Sn1  1  0.00000000  0.00000000  0.00000000  1
  H  H0  1  0.14105700  0.72620400  0.69693600  1
  H  H1  1  0.85894300  0.77379600  0.19693600  1
  H  H2  1  0.85894300  0.27379600  0.30306400  1
  H  H3  1  0.14105700  0.22620400  0.80306400  1
  H  H4  1  0.24547000  0.32778300  0.62097300  1
  H  H5  1  0.75453000  0.17221700  0.12097300  1
  H  H6  1  0.75453000  0.67221700  0.37902700  1
  H  H7  1  0.24547000  0.82778300  0.87902700  1
  H  H8  1  0.58468300  0.31385100  0.58446500  1
  H  H9  1  0.41531700  0.18614900  0.08446500  1
  H  H10  1  0.41531700  0.68614900  0.41553500  1
  H  H11  1  0.58468300  0.81385100  0.91553500  1
  H  H12  1  0.36704900  0.55334300  0.76191700  1
  H  H13  1  0.63295100  0.94665700  0.26191700  1
  H  H14  1  0.63295100  0.44665700  0.23808300  1
  H  H15  1  0.36704900  0.05334300  0.73808300  1
  O  O0  1  0.97941500  0.62414300  0.67115800  1
  O  O1  1  0.02058500  0.87585700  0.17115800  1
  O  O2  1  0.02058500  0.37585700  0.32884200  1
  O  O3  1  0.97941500  0.12414300  0.82884200  1
  O  O4  1  0.11999500  0.24588400  0.55969100  1
  O  O5  1  0.88000500  0.25411600  0.05969100  1
  O  O6  1  0.88000500  0.75411600  0.44030900  1
  O  O7  1  0.11999500  0.74588400  0.94030900  1
  O  O8  1  0.65049100  0.24947900  0.52168000  1
  O  O9  1  0.34950900  0.25052100  0.02168000  1
  O  O10  1  0.34950900  0.75052100  0.47832000  1
  O  O11  1  0.65049100  0.74947900  0.97832000  1
  O  O12  1  0.45565000  0.47170800  0.72441800  1
  O  O13  1  0.54435000  0.02829200  0.22441800  1
  O  O14  1  0.54435000  0.52829200  0.27558200  1
  O  O15  1  0.45565000  0.97170800  0.77558200  1
loop_
_geom_bond_atom_site_label_1
_geom_bond_atom_site_label_2
_geom_bond_distance
_geom_bond_site_symmetry_2
H0 O0 0.981342 1_455
H1 O1 0.981342 1_655
H2 O2 0.981342 1_655
H3 O3 0.981342 1_455
H4 O4 1.007459 1_555
H5 O5 1.007459 1_555
H6 O6 1.007459 1_555
H7 O7 1.007459 1_555
H8 O8 0.977201 1_555
H9 O9 0.977201 1_555
H10 O10 0.977201 1_555
H11 O11 0.977201 1_555
H12 O12 0.975680 1_555
H13 O13 0.975680 1_565
H14 O14 0.975680 1_555
H15 O15 0.975680 1_545
O0 Sn0 2.103739 1_655
O0 Sr3 2.720284 1_555
O0 Sr0 2.786499 1_555
O1 Sn1 2.103739 1_565
O1 Sr2 2.720284 1_555
O1 Sr1 2.786499 1_565
O2 Sn0 2.103739 1_555
O2 Sr1 2.720284 1_555
O2 Sr2 2.786499 1_555
O3 Sn1 2.103739 1_656
O3 Sr0 2.720284 1_555
O3 Sr3 2.786499 1_545
O4 Sn0 2.098836 1_555
O4 Sr1 2.610399 1_555
O4 Sr3 2.650399 1_445
O5 Sn1 2.098836 1_655
O5 Sr0 2.610399 1_554
O5 Sr2 2.650399 1_655
O6 Sn0 2.098836 1_655
O6 Sr3 2.610399 1_555
O6 Sr1 2.650399 1_665
O7 Sn1 2.098836 1_566
O7 Sr2 2.610399 1_556
O7 Sr0 2.650399 1_455
O8 Sn0 2.094124 1_655
O8 Sr1 2.722132 1_555
O8 Sr3 2.737003 1_545
O9 Sn1 2.094124 1_555
O9 Sr0 2.722132 1_554
O9 Sr2 2.737003 1_555
O10 Sn0 2.094124 1_555
O10 Sr3 2.722132 1_555
O10 Sr1 2.737003 1_565
O11 Sn1 2.094124 1_666
O11 Sr2 2.722132 1_556
O11 Sr0 2.737003 1_555
O12 Sr0 2.532147 1_555
O12 Sr3 2.673429 1_555
O13 Sr1 2.532147 1_555
O13 Sr2 2.673429 1_545
O14 Sr2 2.532147 1_555
O14 Sr1 2.673429 1_555
O15 Sr3 2.532147 1_555
O15 Sr0 2.673429 1_565
