# generated using pymatgen
data_MgCr2O4
_symmetry_space_group_name_H-M   'P 1'
_cell_length_a   5.96025113
_cell_length_b   5.96025113
_cell_length_c   14.78281323
_cell_angle_alpha   87.42352625
_cell_angle_beta   87.42352625
_cell_angle_gamma   60.51276638
_symmetry_Int_Tables_number   1
_chemical_formula_structural   MgCr2O4
_chemical_formula_sum   'Mg6 Cr12 O24'
_cell_volume   456.50843331
_cell_formula_units_Z   6
loop_
 _symmetry_equiv_pos_site_id
 _symmetry_equiv_pos_as_xyz
  1  'x, y, z'
loop_
 _atom_site_type_symbol
 _atom_site_label
 _atom_site_symmetry_multiplicity
 _atom_site_fract_x
 _atom_site_fract_y
 _atom_site_fract_z
 _atom_site_occupancy
  Mg  Mg0  1  0.66236700  0.66236700  0.04160200  1
  Mg  Mg1  1  0.33292000  0.33292000  0.33183900  1
  Mg  Mg2  1  0.16333600  0.16333600  0.16571100  1
  Mg  Mg3  1  0.66695900  0.66695900  0.66760400  1
  Mg  Mg4  1  0.50014500  0.50014500  0.49946100  1
  Mg  Mg5  1  0.83478300  0.83478300  0.83357400  1
  Cr  Cr0  1  0.16399100  0.66645800  0.16573200  1
  Cr  Cr1  1  0.99865400  0.99865400  0.37523100  1
  Cr  Cr2  1  0.00097700  0.00097700  0.00288800  1
  Cr  Cr3  1  0.66645800  0.16399100  0.16573200  1
  Cr  Cr4  1  0.49994700  0.99974000  0.49964100  1
  Cr  Cr5  1  0.33448000  0.33448000  0.70751200  1
  Cr  Cr6  1  0.99974000  0.49994700  0.49964100  1
  Cr  Cr7  1  0.83511100  0.33775400  0.83451400  1
  Cr  Cr8  1  0.66702900  0.66702900  0.28982600  1
  Cr  Cr9  1  0.33775400  0.83511100  0.83451400  1
  Cr  Cr10  1  0.00083000  0.00083000  0.62536400  1
  Cr  Cr11  1  0.33824300  0.33824300  0.95997300  1
  O  O0  1  0.29957700  0.84874600  0.08385600  1
  O  O1  1  0.98443700  0.98443700  0.24284900  1
  O  O2  1  0.84874600  0.29957700  0.08385600  1
  O  O3  1  0.84443200  0.84443200  0.08890300  1
  O  O4  1  0.64757500  0.17803300  0.41736700  1
  O  O5  1  0.49268200  0.49268200  0.23777800  1
  O  O6  1  0.32179100  0.32179100  0.57507400  1
  O  O7  1  0.48553900  0.01515500  0.24680600  1
  O  O8  1  0.17803300  0.64757500  0.41736700  1
  O  O9  1  0.34244600  0.34244600  0.09111400  1
  O  O10  1  0.17299000  0.17299000  0.42678700  1
  O  O11  1  0.01515500  0.48553900  0.24680600  1
  O  O12  1  0.98642200  0.51108600  0.75172500  1
  O  O13  1  0.82733300  0.82733300  0.57290800  1
  O  O14  1  0.82133300  0.35103500  0.58225800  1
  O  O15  1  0.51108600  0.98642200  0.75172500  1
  O  O16  1  0.66182800  0.66182800  0.90592100  1
  O  O17  1  0.67801200  0.67801200  0.42394600  1
  O  O18  1  0.50783900  0.50783900  0.76223800  1
  O  O19  1  0.35103500  0.82133300  0.58225800  1
  O  O20  1  0.15651400  0.15651400  0.91066800  1
  O  O21  1  0.15655600  0.69283000  0.91847200  1
  O  O22  1  0.01201800  0.01201800  0.75972300  1
  O  O23  1  0.69283000  0.15655600  0.91847200  1
loop_
_geom_bond_atom_site_label_1
_geom_bond_atom_site_label_2
_geom_bond_distance
_geom_bond_site_symmetry_2
Mg0 O0 1.968769 1_555
Mg0 O2 1.968769 1_555
Mg0 O16 2.006043 1_554
Mg0 O3 2.034637 1_555
Mg1 O8 2.090894 1_555
Mg1 O4 2.090894 1_555
Mg1 O5 2.097966 1_555
Mg1 O7 2.099961 1_555
Mg1 O11 2.099961 1_555
Mg1 O10 2.107438 1_555
Mg2 O0 2.063028 1_545
Mg2 O2 2.063028 1_455
Mg2 O7 2.084997 1_555
Mg2 O11 2.084997 1_555
Mg2 O9 2.098953 1_555
Mg2 O1 2.115396 1_445
Mg3 O14 2.094660 1_555
Mg3 O19 2.094660 1_555
Mg3 O12 2.098231 1_555
Mg3 O15 2.098231 1_555
Mg3 O18 2.098308 1_555
Mg3 O13 2.108530 1_555
Mg4 O4 2.093707 1_555
Mg4 O8 2.093707 1_555
Mg4 O17 2.094649 1_555
Mg4 O19 2.095395 1_555
Mg4 O14 2.095395 1_555
Mg4 O6 2.099601 1_555
Mg5 O16 2.029051 1_555
Mg5 O22 2.077228 1_665
Mg5 O15 2.097153 1_555
Mg5 O12 2.097153 1_555
Mg5 O23 2.119574 1_565
Mg5 O21 2.119574 1_655
Cr0 O0 1.989141 1_555
Cr0 O11 2.028810 1_555
Cr0 O1 2.030925 1_455
Cr0 O5 2.033696 1_555
Cr0 O3 2.034706 1_455
Cr0 O9 2.035055 1_555
Cr1 O8 1.910484 1_655
Cr1 O4 1.910484 1_565
Cr1 O1 1.970028 1_555
Cr1 O10 1.986349 1_665
Cr2 O2 1.981796 1_455
Cr2 O0 1.981796 1_545
Cr2 O3 2.000424 1_445
Cr2 O20 2.048442 1_554
Cr2 O21 2.053231 1_544
Cr2 O23 2.053231 1_454
Cr3 O2 1.989141 1_555
Cr3 O7 2.028810 1_555
Cr3 O1 2.030925 1_545
Cr3 O5 2.033696 1_555
Cr3 O3 2.034706 1_545
Cr3 O9 2.035055 1_555
Cr4 O4 2.022581 1_565
Cr4 O19 2.031001 1_555
Cr4 O10 2.032604 1_565
Cr4 O6 2.033453 1_565
Cr4 O17 2.034267 1_555
Cr4 O13 2.037789 1_555
Cr5 O15 1.904996 1_545
Cr5 O12 1.904996 1_455
Cr5 O6 1.968934 1_555
Cr5 O18 1.997774 1_555
Cr6 O8 2.022581 1_655
Cr6 O14 2.031001 1_555
Cr6 O10 2.032604 1_655
Cr6 O6 2.033453 1_655
Cr6 O17 2.034267 1_555
Cr6 O13 2.037789 1_555
Cr7 O16 2.008301 1_555
Cr7 O12 2.020588 1_555
Cr7 O23 2.027913 1_555
Cr7 O18 2.029155 1_555
Cr7 O20 2.037479 1_655
Cr7 O22 2.043615 1_655
Cr8 O11 1.900910 1_655
Cr8 O7 1.900910 1_565
Cr8 O5 1.989597 1_555
Cr8 O17 1.991761 1_555
Cr9 O16 2.008301 1_555
Cr9 O15 2.020588 1_555
Cr9 O21 2.027913 1_555
Cr9 O18 2.029155 1_555
Cr9 O20 2.037479 1_565
Cr9 O22 2.043615 1_565
Cr10 O19 1.910708 1_545
Cr10 O14 1.910708 1_455
Cr10 O13 1.984159 1_445
Cr10 O22 1.995518 1_555
Cr11 O23 1.925027 1_555
Cr11 O21 1.925027 1_555
Cr11 O9 1.941366 1_556
Cr11 O20 2.043187 1_555
