# generated using pymatgen
data_Yb2Ni17
_symmetry_space_group_name_H-M   'P 1'
_cell_length_a   8.21841734
_cell_length_b   8.21841734
_cell_length_c   7.96488100
_cell_angle_alpha   90.00000000
_cell_angle_beta   90.00000000
_cell_angle_gamma   119.99999465
_symmetry_Int_Tables_number   1
_chemical_formula_structural   Yb2Ni17
_chemical_formula_sum   'Yb4 Ni34'
_cell_volume   465.89315427
_cell_formula_units_Z   2
loop_
 _symmetry_equiv_pos_site_id
 _symmetry_equiv_pos_as_xyz
  1  'x, y, z'
loop_
 _atom_site_type_symbol
 _atom_site_label
 _atom_site_symmetry_multiplicity
 _atom_site_fract_x
 _atom_site_fract_y
 _atom_site_fract_z
 _atom_site_occupancy
  Yb  Yb0  1  0.00000000  0.00000000  0.25000000  1
  Yb  Yb1  1  0.00000000  0.00000000  0.75000000  1
  Yb  Yb2  1  0.33333300  0.66666700  0.75000000  1
  Yb  Yb3  1  0.66666700  0.33333300  0.25000000  1
  Ni  Ni0  1  0.33333300  0.66666700  0.39825900  1
  Ni  Ni1  1  0.66666700  0.33333300  0.60174100  1
  Ni  Ni2  1  0.66666700  0.33333300  0.89825900  1
  Ni  Ni3  1  0.33333300  0.66666700  0.10174100  1
  Ni  Ni4  1  0.50000000  0.50000000  0.50000000  1
  Ni  Ni5  1  0.50000000  0.00000000  0.50000000  1
  Ni  Ni6  1  0.00000000  0.50000000  0.50000000  1
  Ni  Ni7  1  0.50000000  0.50000000  0.00000000  1
  Ni  Ni8  1  0.50000000  0.00000000  0.00000000  1
  Ni  Ni9  1  0.00000000  0.50000000  0.00000000  1
  Ni  Ni10  1  0.32671100  0.36864400  0.25000000  1
  Ni  Ni11  1  0.63135600  0.95806700  0.25000000  1
  Ni  Ni12  1  0.04193300  0.67328900  0.25000000  1
  Ni  Ni13  1  0.63135600  0.67328900  0.25000000  1
  Ni  Ni14  1  0.04193300  0.36864400  0.25000000  1
  Ni  Ni15  1  0.32671100  0.95806700  0.25000000  1
  Ni  Ni16  1  0.67328900  0.63135600  0.75000000  1
  Ni  Ni17  1  0.36864400  0.04193300  0.75000000  1
  Ni  Ni18  1  0.95806700  0.32671100  0.75000000  1
  Ni  Ni19  1  0.36864400  0.32671100  0.75000000  1
  Ni  Ni20  1  0.95806700  0.63135600  0.75000000  1
  Ni  Ni21  1  0.67328900  0.04193300  0.75000000  1
  Ni  Ni22  1  0.16576400  0.83423600  0.52037800  1
  Ni  Ni23  1  0.16576400  0.33152700  0.52037800  1
  Ni  Ni24  1  0.66847300  0.83423600  0.52037800  1
  Ni  Ni25  1  0.83423600  0.16576400  0.47962200  1
  Ni  Ni26  1  0.83423600  0.66847300  0.47962200  1
  Ni  Ni27  1  0.33152700  0.16576400  0.47962200  1
  Ni  Ni28  1  0.83423600  0.16576400  0.02037800  1
  Ni  Ni29  1  0.83423600  0.66847300  0.02037800  1
  Ni  Ni30  1  0.33152700  0.16576400  0.02037800  1
  Ni  Ni31  1  0.16576400  0.83423600  0.97962200  1
  Ni  Ni32  1  0.16576400  0.33152700  0.97962200  1
  Ni  Ni33  1  0.66847300  0.83423600  0.97962200  1
loop_
_geom_bond_atom_site_label_1
_geom_bond_atom_site_label_2
_geom_bond_distance
_geom_bond_site_symmetry_2
Ni0 Ni3 2.361731 1_555
Ni0 Ni6 2.507029 1_555
Ni0 Ni5 2.507029 1_565
Ni0 Ni4 2.507036 1_555
Ni0 Ni22 2.575988 1_555
Ni0 Ni24 2.576002 1_555
Ni0 Ni23 2.576002 1_555
Ni0 Ni15 2.695001 1_555
Ni0 Ni12 2.695001 1_555
Ni0 Ni14 2.695005 1_555
Ni0 Ni11 2.695005 1_555
Ni0 Ni10 2.695008 1_555
Ni0 Ni13 2.695008 1_555
Ni0 Yb2 2.801575 1_555
Ni1 Ni2 2.361731 1_555
Ni1 Ni6 2.507029 1_655
Ni1 Ni5 2.507029 1_555
Ni1 Ni4 2.507036 1_555
Ni1 Ni25 2.575988 1_555
Ni1 Ni26 2.576002 1_555
Ni1 Ni27 2.576002 1_555
Ni1 Ni18 2.695001 1_555
Ni1 Ni21 2.695001 1_555
Ni1 Ni20 2.695005 1_555
Ni1 Ni17 2.695005 1_555
Ni1 Ni19 2.695008 1_555
Ni1 Ni16 2.695008 1_555
Ni1 Yb3 2.801575 1_555
Ni2 Ni8 2.507029 1_556
Ni2 Ni9 2.507029 1_656
Ni2 Ni7 2.507036 1_556
Ni2 Ni28 2.575988 1_556
Ni2 Ni30 2.576002 1_556
Ni2 Ni29 2.576002 1_556
Ni2 Ni21 2.695001 1_555
Ni2 Ni20 2.695005 1_555
Ni2 Yb3 2.801575 1_556
Ni3 Ni8 2.507029 1_565
Ni3 Ni9 2.507029 1_555
Ni3 Ni7 2.507036 1_555
Ni3 Ni31 2.575988 1_554
Ni3 Ni33 2.576002 1_554
Ni3 Ni32 2.576002 1_554
Ni3 Yb2 2.801575 1_554
Ni4 Yb2 3.097340 1_555
Ni4 Yb3 3.097340 1_555
Ni5 Yb2 3.097334 1_545
Ni5 Yb3 3.097334 1_555
Ni6 Yb3 3.097334 1_455
Ni6 Yb2 3.097334 1_555
Ni7 Yb3 3.097340 1_555
Ni7 Yb2 3.097340 1_554
Ni8 Yb3 3.097334 1_555
Ni8 Yb2 3.097334 1_544
Ni9 Yb2 3.097334 1_554
Ni9 Yb3 3.097334 1_455
Ni10 Ni14 2.340424 1_555
Ni10 Ni4 2.370899 1_555
Ni10 Ni7 2.370899 1_555
Ni10 Ni23 2.465129 1_555
Ni10 Ni32 2.465129 1_554
Ni10 Ni30 2.488482 1_555
Ni10 Ni27 2.488482 1_555
Ni10 Ni13 2.503700 1_555
Ni10 Ni3 2.695008 1_555
Ni10 Yb0 2.872903 1_555
Ni10 Yb3 2.949726 1_555
Ni11 Ni13 2.340424 1_555
Ni11 Ni5 2.370899 1_565
Ni11 Ni8 2.370899 1_565
Ni11 Ni24 2.465133 1_555
Ni11 Ni33 2.465133 1_554
Ni11 Ni28 2.488485 1_565
Ni11 Ni25 2.488485 1_565
Ni11 Ni15 2.503700 1_555
Ni11 Ni3 2.695005 1_555
Ni11 Yb0 2.872903 1_665
Ni11 Yb3 2.949718 1_565
Ni12 Ni15 2.340425 1_555
Ni12 Ni9 2.370899 1_555
Ni12 Ni6 2.370899 1_555
Ni12 Ni31 2.465130 1_554
Ni12 Ni22 2.465130 1_555
Ni12 Ni26 2.488488 1_455
Ni12 Ni29 2.488488 1_455
Ni12 Ni14 2.503700 1_555
Ni12 Ni3 2.695001 1_555
Ni12 Yb0 2.872903 1_565
Ni12 Yb3 2.949722 1_455
Ni13 Ni7 2.370899 1_555
Ni13 Ni4 2.370899 1_555
Ni13 Ni33 2.465129 1_554
Ni13 Ni24 2.465129 1_555
Ni13 Ni29 2.488482 1_555
Ni13 Ni26 2.488482 1_555
Ni13 Ni3 2.695008 1_555
Ni13 Yb0 2.872903 1_665
Ni13 Yb3 2.949726 1_555
Ni14 Ni9 2.370899 1_555
Ni14 Ni6 2.370899 1_555
Ni14 Ni23 2.465133 1_555
Ni14 Ni32 2.465133 1_554
Ni14 Ni25 2.488485 1_455
Ni14 Ni28 2.488485 1_455
Ni14 Ni3 2.695005 1_555
Ni14 Yb0 2.872903 1_555
Ni14 Yb3 2.949718 1_455
Ni15 Ni5 2.370899 1_565
Ni15 Ni8 2.370899 1_565
Ni15 Ni31 2.465130 1_554
Ni15 Ni22 2.465130 1_555
Ni15 Ni27 2.488488 1_565
Ni15 Ni30 2.488488 1_565
Ni15 Ni3 2.695001 1_555
Ni15 Yb0 2.872903 1_565
Ni15 Yb3 2.949722 1_565
Ni16 Ni20 2.340424 1_555
Ni16 Ni7 2.370899 1_556
Ni16 Ni4 2.370899 1_555
Ni16 Ni29 2.465129 1_556
Ni16 Ni26 2.465129 1_555
Ni16 Ni33 2.488482 1_555
Ni16 Ni24 2.488482 1_555
Ni16 Ni19 2.503700 1_555
Ni16 Ni2 2.695008 1_555
Ni16 Yb1 2.872903 1_665
Ni16 Yb2 2.949726 1_555
Ni17 Ni19 2.340424 1_555
Ni17 Ni5 2.370899 1_555
Ni17 Ni8 2.370899 1_556
Ni17 Ni27 2.465133 1_555
Ni17 Ni30 2.465133 1_556
Ni17 Ni31 2.488485 1_545
Ni17 Ni22 2.488485 1_545
Ni17 Ni21 2.503700 1_555
Ni17 Ni2 2.695005 1_555
Ni17 Yb1 2.872903 1_555
Ni17 Yb2 2.949718 1_545
Ni18 Ni21 2.340425 1_555
Ni18 Ni9 2.370899 1_656
Ni18 Ni6 2.370899 1_655
Ni18 Ni28 2.465130 1_556
Ni18 Ni25 2.465130 1_555
Ni18 Ni32 2.488488 1_655
Ni18 Ni23 2.488488 1_655
Ni18 Ni20 2.503700 1_555
Ni18 Ni2 2.695001 1_555
Ni18 Yb1 2.872903 1_655
Ni18 Yb2 2.949722 1_655
Ni19 Ni4 2.370899 1_555
Ni19 Ni7 2.370899 1_556
Ni19 Ni27 2.465129 1_555
Ni19 Ni30 2.465129 1_556
Ni19 Ni23 2.488482 1_555
Ni19 Ni32 2.488482 1_555
Ni19 Ni2 2.695008 1_555
Ni19 Yb1 2.872903 1_555
Ni19 Yb2 2.949726 1_555
Ni20 Ni6 2.370899 1_655
Ni20 Ni9 2.370899 1_656
Ni20 Ni26 2.465133 1_555
Ni20 Ni29 2.465133 1_556
Ni20 Ni22 2.488485 1_655
Ni20 Ni31 2.488485 1_655
Ni20 Yb1 2.872903 1_665
Ni20 Yb2 2.949718 1_655
Ni21 Ni8 2.370899 1_556
Ni21 Ni5 2.370899 1_555
Ni21 Ni25 2.465130 1_555
Ni21 Ni28 2.465130 1_556
Ni21 Ni24 2.488488 1_545
Ni21 Ni33 2.488488 1_545
Ni21 Yb1 2.872903 1_655
Ni21 Yb2 2.949722 1_545
Ni22 Ni27 2.381828 1_565
Ni22 Ni26 2.381828 1_455
Ni22 Ni6 2.384434 1_555
Ni22 Ni5 2.384434 1_565
Ni22 Yb1 2.985406 1_565
Ni22 Yb2 3.005755 1_555
Ni22 Yb0 3.194591 1_565
Ni23 Ni27 2.381814 1_555
Ni23 Ni25 2.381828 1_455
Ni23 Ni4 2.384434 1_555
Ni23 Ni6 2.384441 1_555
Ni23 Yb1 2.985400 1_555
Ni23 Yb2 3.005766 1_555
Ni23 Yb0 3.194586 1_555
Ni24 Ni26 2.381814 1_555
Ni24 Ni25 2.381828 1_565
Ni24 Ni4 2.384434 1_555
Ni24 Ni5 2.384441 1_565
Ni24 Yb1 2.985400 1_665
Ni24 Yb2 3.005766 1_555
Ni24 Yb0 3.194586 1_665
Ni25 Ni5 2.384434 1_555
Ni25 Ni6 2.384434 1_655
Ni25 Yb0 2.985406 1_655
Ni25 Yb3 3.005755 1_555
Ni25 Yb1 3.194591 1_655
Ni26 Ni4 2.384434 1_555
Ni26 Ni6 2.384441 1_655
Ni26 Yb0 2.985400 1_665
Ni26 Yb3 3.005766 1_555
Ni26 Yb1 3.194586 1_665
Ni27 Ni4 2.384434 1_555
Ni27 Ni5 2.384441 1_555
Ni27 Yb0 2.985400 1_555
Ni27 Yb3 3.005766 1_555
Ni27 Yb1 3.194586 1_555
Ni28 Ni33 2.381828 1_544
Ni28 Ni32 2.381828 1_654
Ni28 Ni8 2.384434 1_555
Ni28 Ni9 2.384434 1_655
Ni28 Yb0 2.985406 1_655
Ni28 Yb3 3.005755 1_555
Ni28 Yb1 3.194591 1_654
Ni29 Ni33 2.381814 1_554
Ni29 Ni31 2.381828 1_654
Ni29 Ni7 2.384434 1_555
Ni29 Ni9 2.384441 1_655
Ni29 Yb0 2.985400 1_665
Ni29 Yb3 3.005766 1_555
Ni29 Yb1 3.194586 1_664
Ni30 Ni32 2.381814 1_554
Ni30 Ni31 2.381828 1_544
Ni30 Ni7 2.384434 1_555
Ni30 Ni8 2.384441 1_555
Ni30 Yb0 2.985400 1_555
Ni30 Yb3 3.005766 1_555
Ni30 Yb1 3.194586 1_554
Ni31 Ni8 2.384434 1_566
Ni31 Ni9 2.384434 1_556
Ni31 Yb1 2.985406 1_565
Ni31 Yb2 3.005755 1_555
Ni31 Yb0 3.194591 1_566
Ni32 Ni7 2.384434 1_556
Ni32 Ni9 2.384441 1_556
Ni32 Yb1 2.985400 1_555
Ni32 Yb2 3.005766 1_555
Ni32 Yb0 3.194586 1_556
Ni33 Ni7 2.384434 1_556
Ni33 Ni8 2.384441 1_566
Ni33 Yb1 2.985400 1_665
Ni33 Yb2 3.005766 1_555
Ni33 Yb0 3.194586 1_666
