# generated using pymatgen
data_TbGaPd2
_symmetry_space_group_name_H-M   'P 1'
_cell_length_a   5.58879530
_cell_length_b   7.08158648
_cell_length_c   7.37340168
_cell_angle_alpha   90.00000000
_cell_angle_beta   90.00000000
_cell_angle_gamma   90.00000000
_symmetry_Int_Tables_number   1
_chemical_formula_structural   TbGaPd2
_chemical_formula_sum   'Tb4 Ga4 Pd8'
_cell_volume   291.82107955
_cell_formula_units_Z   4
loop_
 _symmetry_equiv_pos_site_id
 _symmetry_equiv_pos_as_xyz
  1  'x, y, z'
loop_
 _atom_site_type_symbol
 _atom_site_label
 _atom_site_symmetry_multiplicity
 _atom_site_fract_x
 _atom_site_fract_y
 _atom_site_fract_z
 _atom_site_occupancy
  Tb  Tb0  1  0.35456782  0.75000000  0.03093782  1
  Tb  Tb1  1  0.14543218  0.75000000  0.53093782  1
  Tb  Tb2  1  0.64543218  0.25000000  0.96906218  1
  Tb  Tb3  1  0.85456782  0.25000000  0.46906218  1
  Ga  Ga0  1  0.64467729  0.75000000  0.38362067  1
  Ga  Ga1  1  0.85532271  0.75000000  0.88362067  1
  Ga  Ga2  1  0.35532271  0.25000000  0.61637933  1
  Ga  Ga3  1  0.14467729  0.25000000  0.11637933  1
  Pd  Pd0  1  0.91159556  0.55163313  0.18232149  1
  Pd  Pd1  1  0.58840444  0.94836687  0.68232149  1
  Pd  Pd2  1  0.08840444  0.05163313  0.81767851  1
  Pd  Pd3  1  0.41159556  0.44836687  0.31767851  1
  Pd  Pd4  1  0.08840444  0.44836687  0.81767851  1
  Pd  Pd5  1  0.41159556  0.05163313  0.31767851  1
  Pd  Pd6  1  0.91159556  0.94836687  0.18232149  1
  Pd  Pd7  1  0.58840444  0.55163313  0.68232149  1
loop_
_geom_bond_atom_site_label_1
_geom_bond_atom_site_label_2
_geom_bond_distance
_geom_bond_site_symmetry_2
Ga0 Pd0 2.530154 1_555
Ga0 Pd6 2.530154 1_555
Ga0 Pd5 2.548719 1_565
Ga0 Pd3 2.548719 1_555
Ga0 Pd1 2.631156 1_555
Ga0 Pd7 2.631156 1_555
Ga0 Tb1 2.994159 1_555
Ga0 Tb1 3.002024 1_655
Ga0 Tb0 3.064518 1_555
Ga1 Pd1 2.530154 1_555
Ga1 Pd7 2.530154 1_555
Ga1 Pd2 2.548719 1_665
Ga1 Pd4 2.548719 1_655
Ga1 Pd6 2.631156 1_556
Ga1 Pd0 2.631156 1_556
Ga1 Tb0 2.994159 1_656
Ga1 Tb0 3.002024 1_556
Ga1 Tb1 3.064518 1_655
Ga2 Pd4 2.530154 1_555
Ga2 Pd2 2.530154 1_555
Ga2 Pd1 2.548719 1_545
Ga2 Pd7 2.548719 1_555
Ga2 Pd5 2.631156 1_555
Ga2 Pd3 2.631156 1_555
Ga2 Tb3 2.994159 1_555
Ga2 Tb3 3.002024 1_455
Ga2 Tb2 3.064518 1_555
Ga3 Pd5 2.530154 1_555
Ga3 Pd3 2.530154 1_555
Ga3 Pd6 2.548719 1_445
Ga3 Pd0 2.548719 1_455
Ga3 Pd4 2.631156 1_554
Ga3 Pd2 2.631156 1_554
Ga3 Tb2 2.994159 1_454
Ga3 Tb2 3.002024 1_554
Ga3 Tb3 3.064518 1_455
Pd0 Tb3 3.022304 1_555
Pd0 Tb2 3.041055 1_554
Pd0 Tb0 3.057492 1_655
Pd0 Tb1 3.207590 1_655
Pd1 Tb2 3.022304 1_565
Pd1 Tb3 3.041055 1_565
Pd1 Tb1 3.057492 1_555
Pd1 Tb0 3.207590 1_556
Pd2 Tb1 3.022304 1_545
Pd2 Tb0 3.041055 1_546
Pd2 Tb2 3.057492 1_455
Pd2 Tb3 3.207590 1_455
Pd3 Tb0 3.022304 1_555
Pd3 Tb1 3.041055 1_555
Pd3 Tb3 3.057492 1_555
Pd3 Tb2 3.207590 1_554
Pd4 Tb1 3.022304 1_555
Pd4 Tb0 3.041055 1_556
Pd4 Tb2 3.057492 1_455
Pd4 Tb3 3.207590 1_455
Pd5 Tb0 3.022304 1_545
Pd5 Tb1 3.041055 1_545
Pd5 Tb3 3.057492 1_555
Pd5 Tb2 3.207590 1_554
Pd6 Tb3 3.022304 1_565
Pd6 Tb2 3.041055 1_564
Pd6 Tb0 3.057492 1_655
Pd6 Tb1 3.207590 1_655
Pd7 Tb2 3.022304 1_555
Pd7 Tb3 3.041055 1_555
Pd7 Tb1 3.057492 1_555
Pd7 Tb0 3.207590 1_556
