# generated using pymatgen
data_Be12Pd
_symmetry_space_group_name_H-M   'P 1'
_cell_length_a   5.55176553
_cell_length_b   5.55176553
_cell_length_c   5.55176553
_cell_angle_alpha   98.15604054
_cell_angle_beta   98.15604054
_cell_angle_gamma   135.74663848
_symmetry_Int_Tables_number   1
_chemical_formula_structural   Be12Pd
_chemical_formula_sum   'Be12 Pd1'
_cell_volume   110.61682768
_cell_formula_units_Z   1
loop_
 _symmetry_equiv_pos_site_id
 _symmetry_equiv_pos_as_xyz
  1  'x, y, z'
loop_
 _atom_site_type_symbol
 _atom_site_label
 _atom_site_symmetry_multiplicity
 _atom_site_fract_x
 _atom_site_fract_y
 _atom_site_fract_z
 _atom_site_occupancy
  Be  Be0  1  0.00000000  0.00000000  0.50000000  1
  Be  Be1  1  0.50000000  0.00000000  0.00000000  1
  Be  Be2  1  0.00000000  0.50000000  0.00000000  1
  Be  Be3  1  0.50000000  0.50000000  0.50000000  1
  Be  Be4  1  0.65176300  0.00000000  0.65176300  1
  Be  Be5  1  0.00000000  0.65176300  0.65176300  1
  Be  Be6  1  0.00000000  0.34823700  0.34823700  1
  Be  Be7  1  0.34823700  0.00000000  0.34823700  1
  Be  Be8  1  0.72552400  0.50000000  0.22552400  1
  Be  Be9  1  0.50000000  0.72552400  0.22552400  1
  Be  Be10  1  0.50000000  0.27447600  0.77447600  1
  Be  Be11  1  0.27447600  0.50000000  0.77447600  1
  Pd  Pd0  1  0.00000000  0.00000000  0.00000000  1
loop_
_geom_bond_atom_site_label_1
_geom_bond_atom_site_label_2
_geom_bond_distance
_geom_bond_site_symmetry_2
Be0 Be3 2.091104 1_555
Be0 Be3 2.091104 1_445
Be0 Be11 2.105004 1_555
Be0 Be10 2.105004 1_555
Be0 Be8 2.105004 1_445
Be0 Be9 2.105004 1_445
Be0 Be7 2.215819 1_555
Be0 Be6 2.215819 1_555
Be0 Be5 2.215819 1_545
Be0 Be4 2.215819 1_455
Be0 Pd0 2.775883 1_555
Be0 Pd0 2.775883 1_556
Be1 Be2 2.091104 1_655
Be1 Be2 2.091104 1_545
Be1 Be8 2.105004 1_555
Be1 Be9 2.105004 1_545
Be1 Be11 2.105004 1_544
Be1 Be10 2.105004 1_554
Be1 Be6 2.215819 1_655
Be1 Be7 2.215819 1_555
Be1 Be4 2.215819 1_554
Be1 Be5 2.215819 1_544
Be1 Pd0 2.775883 1_555
Be1 Pd0 2.775883 1_655
Be2 Be9 2.105004 1_555
Be2 Be8 2.105004 1_455
Be2 Be6 2.215819 1_555
Be2 Be7 2.215819 1_565
Be2 Be5 2.215819 1_554
Be2 Be4 2.215819 1_454
Be2 Pd0 2.775883 1_555
Be2 Pd0 2.775883 1_565
Be3 Be8 2.105004 1_555
Be3 Be9 2.105004 1_555
Be3 Be7 2.215819 1_555
Be3 Be6 2.215819 1_555
Be3 Be5 2.215819 1_655
Be3 Be4 2.215819 1_565
Be3 Pd0 2.775883 1_555
Be3 Pd0 2.775883 1_666
Be4 Be7 2.207591 1_555
Be4 Be9 2.281141 1_545
Be4 Pd0 2.532781 1_656
Be5 Be6 2.207591 1_555
Be5 Be8 2.281141 1_455
Be5 Pd0 2.532781 1_566
Be6 Be9 2.273607 1_445
Be6 Be9 2.273607 1_555
Be6 Be8 2.281141 1_455
Be6 Pd0 2.532781 1_555
Be7 Be8 2.273607 1_555
Be7 Be8 2.273607 1_445
Be7 Be9 2.281141 1_545
Be7 Pd0 2.532781 1_555
Be8 Be9 2.319693 1_555
Be8 Pd0 2.657669 1_555
Be8 Pd0 2.657669 1_665
Be9 Pd0 2.657669 1_665
Be9 Pd0 2.657669 1_555
Be10 Be3 2.105004 1_555
Be10 Be2 2.105004 1_656
Be10 Be5 2.273607 1_655
Be10 Be5 2.273607 1_545
Be10 Be4 2.281141 1_555
Be10 Be7 2.281141 1_555
Be10 Be11 2.319693 1_555
Be10 Be8 2.319693 1_556
Be10 Pd0 2.657669 1_666
Be10 Pd0 2.657669 1_556
Be11 Be3 2.105004 1_555
Be11 Be2 2.105004 1_556
Be11 Be4 2.273607 1_565
Be11 Be4 2.273607 1_455
Be11 Be6 2.281141 1_555
Be11 Be5 2.281141 1_555
Be11 Be9 2.319693 1_556
Be11 Pd0 2.657669 1_666
Be11 Pd0 2.657669 1_556
