# generated using pymatgen
data_TmCo4B
_symmetry_space_group_name_H-M   'P 1'
_cell_length_a   4.95873297
_cell_length_b   4.95873347
_cell_length_c   6.82728900
_cell_angle_alpha   90.00000000
_cell_angle_beta   90.00000000
_cell_angle_gamma   120.00000290
_symmetry_Int_Tables_number   1
_chemical_formula_structural   TmCo4B
_chemical_formula_sum   'Tm2 Co8 B2'
_cell_volume   145.38526530
_cell_formula_units_Z   2
loop_
 _symmetry_equiv_pos_site_id
 _symmetry_equiv_pos_as_xyz
  1  'x, y, z'
loop_
 _atom_site_type_symbol
 _atom_site_label
 _atom_site_symmetry_multiplicity
 _atom_site_fract_x
 _atom_site_fract_y
 _atom_site_fract_z
 _atom_site_occupancy
  Tm  Tm0  1  0.00000000  0.00000000  0.00000000  1
  Tm  Tm1  1  0.00000000  0.00000000  0.50000000  1
  Co  Co0  1  0.33333300  0.66666600  0.00000000  1
  Co  Co1  1  0.66666700  0.33333400  0.00000000  1
  Co  Co2  1  0.50000000  0.00000000  0.28830500  1
  Co  Co3  1  0.50000000  0.50000000  0.28830500  1
  Co  Co4  1  0.00000000  0.50000000  0.28830500  1
  Co  Co5  1  0.50000000  0.00000000  0.71169500  1
  Co  Co6  1  0.50000000  0.50000000  0.71169500  1
  Co  Co7  1  0.00000000  0.50000000  0.71169500  1
  B  B0  1  0.33333300  0.66666600  0.50000000  1
  B  B1  1  0.66666700  0.33333400  0.50000000  1
loop_
_geom_bond_atom_site_label_1
_geom_bond_atom_site_label_2
_geom_bond_distance
_geom_bond_site_symmetry_2
Co0 Co4 2.433814 1_555
Co0 Co7 2.433814 1_554
Co0 Co3 2.433814 1_555
Co0 Co6 2.433814 1_554
Co0 Co2 2.433817 1_565
Co0 Co5 2.433817 1_564
Co0 Tm0 2.862923 1_555
Co0 Tm0 2.862927 1_665
Co0 Tm0 2.862927 1_565
Co1 Co4 2.433814 1_655
Co1 Co7 2.433814 1_654
Co1 Co3 2.433814 1_555
Co1 Co6 2.433814 1_554
Co1 Co2 2.433817 1_555
Co1 Co5 2.433817 1_554
Co1 Tm0 2.862923 1_665
Co1 Tm0 2.862927 1_555
Co1 Tm0 2.862927 1_655
Co2 Tm1 2.869871 1_555
Co2 Tm1 2.869871 1_655
Co3 Tm1 2.869871 1_665
Co3 Tm1 2.869871 1_555
Co4 Tm1 2.869871 1_555
Co4 Tm1 2.869871 1_565
Co5 Tm1 2.869871 1_655
Co5 Tm1 2.869871 1_555
Co6 Tm1 2.869871 1_665
Co6 Tm1 2.869871 1_555
Co7 Tm1 2.869871 1_565
Co7 Tm1 2.869871 1_555
B0 Co7 2.034203 1_555
B0 Co4 2.034203 1_555
B0 Co6 2.034203 1_555
B0 Co3 2.034203 1_555
B0 Co2 2.034206 1_565
B0 Co5 2.034206 1_565
B0 Tm1 2.862923 1_555
B0 Tm1 2.862927 1_665
B0 Tm1 2.862927 1_565
B1 Co7 2.034203 1_655
B1 Co4 2.034203 1_655
B1 Co6 2.034203 1_555
B1 Co3 2.034203 1_555
B1 Co5 2.034206 1_555
B1 Co2 2.034206 1_555
B1 Tm1 2.862923 1_665
B1 Tm1 2.862927 1_555
B1 Tm1 2.862927 1_655
