# generated using pymatgen
data_Te4MoW3Se4
_symmetry_space_group_name_H-M   'P 1'
_cell_length_a   3.43915870
_cell_length_b   3.43915870
_cell_length_c   39.20834300
_cell_angle_alpha   90.00000000
_cell_angle_beta   90.00000000
_cell_angle_gamma   120.00001340
_symmetry_Int_Tables_number   1
_chemical_formula_structural   Te4MoW3Se4
_chemical_formula_sum   'Te4 Mo1 W3 Se4'
_cell_volume   401.61830101
_cell_formula_units_Z   1
loop_
 _symmetry_equiv_pos_site_id
 _symmetry_equiv_pos_as_xyz
  1  'x, y, z'
loop_
 _atom_site_type_symbol
 _atom_site_label
 _atom_site_symmetry_multiplicity
 _atom_site_fract_x
 _atom_site_fract_y
 _atom_site_fract_z
 _atom_site_occupancy
  Te  Te0  1  0.00000000  0.00000000  0.32932700  1
  Te  Te1  1  0.33333300  0.66666700  0.42212000  1
  Te  Te2  1  0.33333300  0.66666700  0.51726200  1
  Te  Te3  1  0.00000000  0.00000000  0.23418900  1
  Mo  Mo0  1  0.00000000  0.00000000  0.09391500  1
  W  W0  1  0.00000000  0.00000000  0.46971800  1
  W  W1  1  0.33333300  0.66666700  0.28175100  1
  W  W2  1  0.33333300  0.66666700  0.65755400  1
  Se  Se0  1  0.00000000  0.00000000  0.69939000  1
  Se  Se1  1  0.33333300  0.66666700  0.05218400  1
  Se  Se2  1  0.33333300  0.66666700  0.13565600  1
  Se  Se3  1  0.00000000  0.00000000  0.61568200  1
loop_
_geom_bond_atom_site_label_1
_geom_bond_atom_site_label_2
_geom_bond_distance
_geom_bond_site_symmetry_2
Te0 W1 2.724376 1_545
Te0 W1 2.724378 1_555
Te0 W1 2.724378 1_445
Te1 W0 2.724967 1_565
Te1 W0 2.724969 1_555
Te1 W0 2.724969 1_665
Te2 W0 2.723517 1_565
Te2 W0 2.723519 1_555
Te2 W0 2.723519 1_665
Te3 W1 2.724000 1_545
Te3 W1 2.724002 1_555
Te3 W1 2.724002 1_445
Mo0 Se1 2.572889 1_545
Mo0 Se1 2.572891 1_445
Mo0 Se1 2.572891 1_555
Mo0 Se2 2.573138 1_545
Mo0 Se2 2.573140 1_445
Mo0 Se2 2.573140 1_555
Se0 W2 2.575509 1_545
Se0 W2 2.575511 1_445
Se0 W2 2.575511 1_555
Se3 W2 2.576408 1_545
Se3 W2 2.576410 1_555
Se3 W2 2.576410 1_445
