# generated using pymatgen
data_Ba51(Pd12O5)2
_symmetry_space_group_name_H-M   'P 1'
_cell_length_a   11.26043710
_cell_length_b   11.23115165
_cell_length_c   27.69006972
_cell_angle_alpha   89.78484932
_cell_angle_beta   90.14255707
_cell_angle_gamma   120.26129958
_symmetry_Int_Tables_number   1
_chemical_formula_structural   Ba51(Pd12O5)2
_chemical_formula_sum   'Ba51 Pd24 O10'
_cell_volume   3024.69448432
_cell_formula_units_Z   1
loop_
 _symmetry_equiv_pos_site_id
 _symmetry_equiv_pos_as_xyz
  1  'x, y, z'
loop_
 _atom_site_type_symbol
 _atom_site_label
 _atom_site_symmetry_multiplicity
 _atom_site_fract_x
 _atom_site_fract_y
 _atom_site_fract_z
 _atom_site_occupancy
  Ba  Ba0  1  0.33335220  0.66684533  0.91623449  1
  Ba  Ba1  1  0.99929986  -0.00002873  0.25030680  1
  Ba  Ba2  1  0.66674542  0.33353377  0.58342486  1
  Ba  Ba3  1  0.13096655  0.86813269  0.96729083  1
  Ba  Ba4  1  0.79842530  0.20152377  0.30065296  1
  Ba  Ba5  1  0.46462785  0.53517623  0.63410048  1
  Ba  Ba6  1  0.13134064  0.26234797  0.96703808  1
  Ba  Ba7  1  0.79726705  0.59603210  0.30061161  1
  Ba  Ba8  1  0.46510041  0.92989259  0.63374560  1
  Ba  Ba9  1  0.33310861  0.66633210  0.76538706  1
  Ba  Ba10  1  0.00029081  0.99974154  0.09930707  1
  Ba  Ba11  1  0.66654722  0.33306341  0.43210054  1
  Ba  Ba12  1  0.73643451  0.86780640  0.96726728  1
  Ba  Ba13  1  0.40326131  0.20181383  0.30048113  1
  Ba  Ba14  1  0.07046716  0.53509037  0.63392960  1
  Ba  Ba15  1  0.78887576  0.57635774  0.88691647  1
  Ba  Ba16  1  0.45662634  0.91178292  0.21910330  1
  Ba  Ba17  1  0.12177959  0.24321783  0.55367623  1
  Ba  Ba18  1  0.56347771  0.46371365  0.77493899  1
  Ba  Ba19  1  0.21849940  0.78200532  0.10925756  1
  Ba  Ba20  1  0.89699094  0.13059697  0.44166060  1
  Ba  Ba21  1  0.43207998  0.21463376  0.89182459  1
  Ba  Ba22  1  0.08774395  0.54245735  0.21911674  1
  Ba  Ba23  1  0.76649913  0.88204607  0.55836142  1
  Ba  Ba24  1  0.54994653  0.09953006  0.77555079  1
  Ba  Ba25  1  0.19828397  0.43211428  0.10899704  1
  Ba  Ba26  1  0.88352751  0.76599904  0.44213379  1
  Ba  Ba27  1  0.78317331  0.21635765  0.89250262  1
  Ba  Ba28  1  0.44840549  0.55017326  0.22425653  1
  Ba  Ba29  1  0.11589097  0.88183372  0.55848583  1
  Ba  Ba30  1  0.90031833  0.46397207  0.77486737  1
  Ba  Ba31  1  0.56734981  0.80107616  0.10906379  1
  Ba  Ba32  1  0.23412852  0.13122301  0.44172646  1
  Ba  Ba33  1  0.87618458  0.75266688  0.69606997  1
  Ba  Ba34  1  0.54209021  0.08480990  0.03073279  1
  Ba  Ba35  1  0.20905838  0.41970484  0.36256654  1
  Ba  Ba36  1  0.10447195  0.86636535  0.80941095  1
  Ba  Ba37  1  0.78304685  0.21649851  0.14170275  1
  Ba  Ba38  1  0.43788301  0.53347856  0.47609650  1
  Ba  Ba39  1  0.23836940  0.11925059  0.69068403  1
  Ba  Ba40  1  0.91506322  0.45844527  0.03072569  1
  Ba  Ba41  1  0.57311564  0.78722110  0.35717403  1
  Ba  Ba42  1  0.11974528  0.23925383  0.80946795  1
  Ba  Ba43  1  0.80397312  0.57106152  0.14230522  1
  Ba  Ba44  1  0.45292386  0.90560303  0.47613928  1
  Ba  Ba45  1  0.88106144  0.11919146  0.69050647  1
  Ba  Ba46  1  0.54962800  0.45187946  0.02504435  1
  Ba  Ba47  1  0.21409383  0.78479550  0.35733347  1
  Ba  Ba48  1  0.76238119  0.86633495  0.80930421  1
  Ba  Ba49  1  0.42839509  0.19611621  0.14223328  1
  Ba  Ba50  1  0.09559773  0.53273738  0.47615397  1
  Pd  Pd0  1  0.47765774  0.51709370  0.88014330  1
  Pd  Pd1  1  0.14826483  0.85562624  0.21399560  1
  Pd  Pd2  1  0.81110829  0.18427003  0.54687885  1
  Pd  Pd3  1  0.47967476  0.95982378  0.87924667  1
  Pd  Pd4  1  0.14865713  0.29231009  0.21357987  1
  Pd  Pd5  1  0.81264536  0.62607230  0.54627402  1
  Pd  Pd6  1  0.66455772  0.33026803  0.69324113  1
  Pd  Pd7  1  0.33653707  0.66558337  0.02613324  1
  Pd  Pd8  1  0.99726338  0.99620041  0.35997124  1
  Pd  Pd9  1  0.04035540  0.51818666  0.87919763  1
  Pd  Pd10  1  0.70685005  0.85166091  0.21437597  1
  Pd  Pd11  1  0.37259773  0.18433401  0.54721618  1
  Pd  Pd12  1  0.19483247  0.80792151  0.70135200  1
  Pd  Pd13  1  0.86082294  0.13975635  0.03412778  1
  Pd  Pd14  1  0.52705026  0.47388892  0.36804378  1
  Pd  Pd15  1  0.19319561  0.38619407  0.70163166  1
  Pd  Pd16  1  0.86056848  0.72191401  0.03465373  1
  Pd  Pd17  1  0.52667040  0.05288462  0.36844332  1
  Pd  Pd18  1  0.00041759  0.00121525  0.89500828  1
  Pd  Pd19  1  0.66623166  0.33419565  0.22866123  1
  Pd  Pd20  1  0.33406662  0.66824046  0.56165839  1
  Pd  Pd21  1  0.61274068  0.80759233  0.70140036  1
  Pd  Pd22  1  0.27961912  0.14038738  0.03400042  1
  Pd  Pd23  1  0.94547212  0.47342460  0.36864027  1
  O  O0  1  0.66336539  0.32703386  0.83426481  1
  O  O1  1  0.33612621  0.66374885  0.16826685  1
  O  O2  1  0.99663568  0.99392280  0.50105263  1
  O  O3  1  0.00123611  0.00256399  0.74896782  1
  O  O4  1  0.66604731  0.33545614  0.08186236  1
  O  O5  1  0.33430367  0.66958531  0.41559789  1
  O  O6  1  0.50114579  0.00071357  0.12506617  1
  O  O7  1  0.16686797  0.33354433  0.45796583  1
  O  O8  1  0.83378766  0.66702656  0.79130306  1
  O  O9  1  0.99937888  0.49888432  0.12514072  1
loop_
_geom_bond_atom_site_label_1
_geom_bond_atom_site_label_2
_geom_bond_distance
_geom_bond_site_symmetry_2
Ba0 Pd3 3.018240 1_555
Ba0 Pd9 3.027973 1_555
Ba0 Pd0 3.040253 1_555
Ba0 Pd7 3.043290 1_556
Ba1 Pd4 3.010111 1_655
Ba1 Pd10 3.012733 1_545
Ba1 Pd1 3.035500 1_645
Ba1 Pd8 3.036735 1_545
Ba2 Pd5 3.015757 1_555
Ba2 Pd11 3.030858 1_555
Ba2 Pd2 3.040477 1_555
Ba2 Pd6 3.040915 1_555
Ba3 Pd16 3.226849 1_456
Ba3 Pd22 3.229878 1_566
Ba3 Pd18 3.252466 1_565
Ba4 Pd17 3.245121 1_555
Ba4 Pd23 3.246932 1_555
Ba4 Pd19 3.257055 1_555
Ba5 Pd15 3.238628 1_555
Ba5 Pd21 3.240301 1_555
Ba5 Pd20 3.255127 1_555
Ba6 Pd22 3.220670 1_556
Ba6 Pd13 3.226085 1_456
Ba6 Pd18 3.228684 1_555
Ba7 Pd14 3.229351 1_555
Ba7 Pd19 3.232703 1_555
Ba7 Pd23 3.242024 1_555
Ba8 Pd21 3.229061 1_555
Ba8 Pd12 3.232668 1_555
Ba8 Pd20 3.233638 1_555
Ba9 Pd15 3.244943 1_555
Ba9 Pd21 3.246962 1_555
Ba9 Pd12 3.249284 1_555
Ba10 Pd16 3.239863 1_455
Ba10 Pd13 3.263473 1_465
Ba10 Pd22 3.264626 1_565
Ba11 Pd23 3.233265 1_555
Ba11 Pd17 3.243793 1_555
Ba11 Pd14 3.253336 1_555
Ba12 Pd16 3.223796 1_556
Ba12 Pd13 3.230481 1_566
Ba12 Pd18 3.256167 1_665
Ba13 Pd19 3.240938 1_555
Ba13 Pd14 3.243038 1_555
Ba13 Pd17 3.252133 1_555
Ba14 Pd15 3.242470 1_555
Ba14 Pd12 3.246676 1_555
Ba14 Pd20 3.253434 1_555
Ba15 O8 2.787394 1_555
Ba15 O0 2.827673 1_555
Ba15 Pd9 3.218723 1_655
Ba15 Pd0 3.225844 1_555
Ba16 O6 2.740707 1_565
Ba16 O1 2.791607 1_555
Ba16 Pd1 3.203985 1_555
Ba16 Pd10 3.214373 1_555
Ba17 O7 2.788909 1_555
Ba17 O2 2.827035 1_445
Ba17 Pd11 3.214360 1_555
Ba17 Pd2 3.221047 1_455
Ba18 O8 2.771265 1_555
Ba18 O0 2.834124 1_555
Ba18 Pd0 3.223443 1_555
Ba18 Pd6 3.227539 1_555
Ba19 O1 2.816777 1_555
Ba19 O6 2.911456 1_565
Ba19 O9 2.911988 1_455
Ba19 Pd1 3.226275 1_555
Ba19 Pd7 3.250190 1_555
Ba20 O7 2.766557 1_655
Ba20 O2 2.833308 1_545
Ba20 Pd2 3.225194 1_555
Ba20 Pd8 3.228923 1_545
Ba21 O0 2.758365 1_555
Ba21 Pd0 3.184786 1_555
Ba21 Pd3 3.186338 1_545
Ba22 O9 2.739877 1_455
Ba22 O1 2.797494 1_555
Ba22 Pd4 3.214486 1_555
Ba22 Pd1 3.230545 1_555
Ba23 O2 2.745215 1_555
Ba23 Pd2 3.185758 1_565
Ba23 Pd5 3.187588 1_555
Ba24 O0 2.744968 1_555
Ba24 Pd3 3.171564 1_545
Ba24 Pd6 3.189861 1_555
Ba25 O9 2.734786 1_455
Ba25 O1 2.796456 1_555
Ba25 Pd4 3.202109 1_555
Ba25 Pd7 3.228340 1_555
Ba26 O2 2.751661 1_555
Ba26 Pd8 3.183346 1_555
Ba26 Pd5 3.183617 1_555
Ba27 O0 2.762236 1_555
Ba27 Pd9 3.180442 1_655
Ba27 Pd3 3.192634 1_545
Ba28 O1 2.688879 1_555
Ba28 Pd4 3.164899 1_555
Ba28 Pd10 3.174059 1_555
Ba29 O2 2.755982 1_455
Ba29 Pd11 3.177103 1_565
Ba29 Pd5 3.184513 1_455
Ba30 O8 2.775009 1_555
Ba30 O0 2.838411 1_555
Ba30 Pd9 3.197800 1_655
Ba30 Pd6 3.223207 1_555
Ba31 O6 2.733707 1_565
Ba31 O1 2.792883 1_555
Ba31 Pd7 3.217804 1_555
Ba31 Pd10 3.222439 1_555
Ba32 O7 2.771847 1_555
Ba32 O2 2.841603 1_445
Ba32 Pd11 3.220612 1_555
Ba32 Pd8 3.233818 1_445
Ba33 O8 2.762478 1_555
Ba33 O3 2.835987 1_665
Ba33 Pd12 3.321880 1_655
Ba33 Pd21 3.324103 1_555
Ba34 O6 2.734277 1_555
Ba34 O4 2.817275 1_555
Ba34 Pd22 3.315747 1_555
Ba34 Pd13 3.322275 1_555
Ba35 O7 2.768379 1_555
Ba35 O5 2.837762 1_555
Ba35 Pd23 3.318136 1_455
Ba35 Pd14 3.319141 1_555
Ba36 O8 2.770770 1_455
Ba36 O3 2.873284 1_565
Ba36 Pd18 3.333738 1_565
Ba36 Pd12 3.334999 1_555
Ba37 O4 2.830701 1_555
Ba37 O6 2.899895 1_555
Ba37 O9 2.900138 1_555
Ba37 Pd19 3.326813 1_555
Ba37 Pd13 3.343046 1_555
Ba38 O7 2.775167 1_555
Ba38 O5 2.876014 1_555
Ba38 Pd20 3.330852 1_555
Ba38 Pd14 3.333963 1_555
Ba39 O3 2.816159 1_555
Ba39 Pd12 3.289218 1_545
Ba39 Pd15 3.299064 1_555
Ba40 O9 2.739438 1_555
Ba40 O4 2.806575 1_555
Ba40 Pd16 3.313194 1_555
Ba40 Pd13 3.314712 1_555
Ba41 O5 2.831752 1_555
Ba41 Pd17 3.294538 1_565
Ba41 Pd14 3.301001 1_555
Ba42 O3 2.846182 1_555
Ba42 Pd18 3.303155 1_555
Ba42 Pd15 3.305044 1_555
Ba43 O9 2.744163 1_555
Ba43 O4 2.844899 1_555
Ba43 Pd19 3.318521 1_555
Ba43 Pd16 3.323480 1_555
Ba44 O5 2.841578 1_555
Ba44 Pd20 3.298166 1_555
Ba44 Pd17 3.302963 1_565
Ba45 O3 2.815517 1_655
Ba45 Pd21 3.287346 1_545
Ba45 Pd15 3.289297 1_655
Ba46 O4 2.757803 1_555
Ba46 Pd22 3.289564 1_555
Ba46 Pd16 3.290409 1_555
Ba47 O5 2.801468 1_555
Ba47 Pd23 3.288157 1_455
Ba47 Pd17 3.296857 1_565
Ba48 O8 2.780314 1_555
Ba48 O3 2.867369 1_665
Ba48 Pd18 3.318743 1_665
Ba48 Pd21 3.327339 1_555
Ba49 O6 2.745013 1_555
Ba49 O4 2.861218 1_555
Ba49 Pd22 3.333535 1_555
Ba49 Pd19 3.333882 1_555
Ba50 O7 2.778968 1_555
Ba50 O5 2.870215 1_555
Ba50 Pd20 3.317971 1_555
Ba50 Pd23 3.319522 1_455
