# generated using pymatgen
data_SrCa3V4O12
_symmetry_space_group_name_H-M   'P 1'
_cell_length_a   5.38977883
_cell_length_b   5.41854789
_cell_length_c   7.84715900
_cell_angle_alpha   90.00164927
_cell_angle_beta   89.99934477
_cell_angle_gamma   90.06471298
_symmetry_Int_Tables_number   1
_chemical_formula_structural   SrCa3V4O12
_chemical_formula_sum   'Sr1 Ca3 V4 O12'
_cell_volume   229.17436462
_cell_formula_units_Z   1
loop_
 _symmetry_equiv_pos_site_id
 _symmetry_equiv_pos_as_xyz
  1  'x, y, z'
loop_
 _atom_site_type_symbol
 _atom_site_label
 _atom_site_symmetry_multiplicity
 _atom_site_fract_x
 _atom_site_fract_y
 _atom_site_fract_z
 _atom_site_occupancy
  Sr  Sr0  1  0.51935500  0.50334400  0.75001500  1
  Ca  Ca0  1  0.02920500  0.00153900  0.74997400  1
  Ca  Ca1  1  0.46982200  0.49844800  0.24997800  1
  Ca  Ca2  1  0.97228800  0.99685600  0.25001800  1
  V  V0  1  0.99904400  0.49976700  0.49700300  1
  V  V1  1  0.50020000  0.99813800  0.49745900  1
  V  V2  1  0.99909300  0.49975200  0.00301800  1
  V  V3  1  0.50014900  0.99813800  0.00250900  1
  O  O0  1  0.00453200  0.43580500  0.74999800  1
  O  O1  1  0.47218500  0.04305500  0.75001700  1
  O  O2  1  0.00122000  0.56432700  0.25000900  1
  O  O3  1  0.52644900  0.93559600  0.24999200  1
  O  O4  1  0.27808600  0.70626600  0.98398600  1
  O  O5  1  0.27807400  0.70627000  0.51611800  1
  O  O6  1  0.78411600  0.80239400  0.53391900  1
  O  O7  1  0.78410400  0.80236100  0.96599600  1
  O  O8  1  0.71906200  0.29926900  0.47036900  1
  O  O9  1  0.71901200  0.29925200  0.02949300  1
  O  O10  1  0.22200100  0.20471100  0.03743000  1
  O  O11  1  0.22200500  0.20471100  0.46270000  1
loop_
_geom_bond_atom_site_label_1
_geom_bond_atom_site_label_2
_geom_bond_distance
_geom_bond_site_symmetry_2
Ca0 O0 2.356996 1_555
Ca0 O1 2.397886 1_555
Ca0 O7 2.404233 1_445
Ca0 O6 2.404278 1_445
Ca0 O11 2.714979 1_555
Ca0 O10 2.716124 1_556
Ca1 O3 2.387947 1_555
Ca1 O8 2.442089 1_555
Ca1 O9 2.442438 1_555
Ca1 O2 2.551162 1_555
Ca1 O4 2.587574 1_554
Ca1 O5 2.588475 1_555
Ca1 O10 2.663523 1_555
Ca1 O11 2.664406 1_555
Ca1 O2 2.885877 1_655
Ca2 O2 2.349037 1_655
Ca2 O10 2.420639 1_665
Ca2 O11 2.421136 1_665
Ca2 O3 2.425421 1_555
Ca2 O6 2.664533 1_555
Ca2 O7 2.665391 1_554
Ca2 O8 2.746385 1_565
Ca2 O9 2.747403 1_565
O0 V0 2.015550 1_455
O0 V2 2.015705 1_456
O0 Sr0 2.640890 1_455
O0 Sr0 2.798402 1_555
O1 V3 2.001948 1_546
O1 V1 2.002465 1_545
O1 Sr0 2.506737 1_555
O1 Sr0 2.935766 1_545
O2 V2 1.969530 1_455
O2 V0 1.969560 1_455
O3 V1 1.976348 1_555
O3 V3 1.976513 1_555
O4 V2 1.879316 1_456
O4 V3 1.987600 1_556
O4 Sr0 2.504792 1_555
O5 V0 1.879489 1_455
O5 V1 1.987870 1_555
O5 Sr0 2.504478 1_555
O6 V1 1.884721 1_555
O6 V0 2.029541 1_555
O6 Sr0 2.744540 1_555
O7 V3 1.885041 1_556
O7 V2 2.029787 1_556
O7 Sr0 2.743806 1_555
O8 V0 1.870150 1_555
O8 V1 2.023555 1_545
O8 Sr0 2.683163 1_555
O9 V2 1.870450 1_555
O9 V3 2.023390 1_545
O9 Sr0 2.682086 1_554
O10 V3 1.891882 1_545
O10 V2 2.019043 1_455
O11 V1 1.891913 1_545
O11 V0 2.019147 1_455
