# generated using pymatgen
data_Sb(Cl3O)2
_symmetry_space_group_name_H-M   'P 1'
_cell_length_a   7.23551791
_cell_length_b   7.23551791
_cell_length_c   7.23551791
_cell_angle_alpha   123.04799868
_cell_angle_beta   110.43431231
_cell_angle_gamma   96.05743127
_symmetry_Int_Tables_number   1
_chemical_formula_structural   Sb(Cl3O)2
_chemical_formula_sum   'Sb1 Cl6 O2'
_cell_volume   275.61104802
_cell_formula_units_Z   1
loop_
 _symmetry_equiv_pos_site_id
 _symmetry_equiv_pos_as_xyz
  1  'x, y, z'
loop_
 _atom_site_type_symbol
 _atom_site_label
 _atom_site_symmetry_multiplicity
 _atom_site_fract_x
 _atom_site_fract_y
 _atom_site_fract_z
 _atom_site_occupancy
  Sb  Sb0  1  0.00000000  0.00000000  0.00000000  1
  Cl  Cl0  1  0.70792800  0.00000000  0.70792800  1
  Cl  Cl1  1  0.29207200  0.00000000  0.29207200  1
  Cl  Cl2  1  0.17798300  0.93483800  0.75685500  1
  Cl  Cl3  1  0.82201700  0.57887200  0.75685500  1
  Cl  Cl4  1  0.17798300  0.42112800  0.24314500  1
  Cl  Cl5  1  0.82201700  0.06516200  0.24314500  1
  O  O0  1  0.57369200  0.50000000  0.07369200  1
  O  O1  1  0.42630800  0.50000000  0.92630800  1
loop_
_geom_bond_atom_site_label_1
_geom_bond_atom_site_label_2
_geom_bond_distance
_geom_bond_site_symmetry_2
Cl0 Sb0 2.411130 1_656
Cl1 Sb0 2.411130 1_555
Cl2 Sb0 2.404421 1_566
Cl3 Sb0 2.404421 1_666
Cl4 Sb0 2.404421 1_555
Cl5 Sb0 2.404421 1_655
O0 O1 1.216693 1_554
