# generated using pymatgen
data_Li9Mn2Co5O16
_symmetry_space_group_name_H-M   'P 1'
_cell_length_a   2.97465700
_cell_length_b   8.08020735
_cell_length_c   11.93095500
_cell_angle_alpha   90.65619024
_cell_angle_beta   94.18312944
_cell_angle_gamma   91.02038900
_symmetry_Int_Tables_number   1
_chemical_formula_structural   Li9Mn2Co5O16
_chemical_formula_sum   'Li9 Mn2 Co5 O16'
_cell_volume   285.93789624
_cell_formula_units_Z   1
loop_
 _symmetry_equiv_pos_site_id
 _symmetry_equiv_pos_as_xyz
  1  'x, y, z'
loop_
 _atom_site_type_symbol
 _atom_site_label
 _atom_site_symmetry_multiplicity
 _atom_site_fract_x
 _atom_site_fract_y
 _atom_site_fract_z
 _atom_site_occupancy
  Li  Li0  1  0.99261900  0.00915000  0.24991100  1
  Li  Li1  1  0.49926400  0.74921700  0.62562600  1
  Li  Li2  1  0.99939800  0.49023300  0.00277900  1
  Li  Li3  1  0.50411400  0.25272100  0.37502000  1
  Li  Li4  1  0.00423600  0.00130400  0.74652300  1
  Li  Li5  1  0.50434200  0.74585600  0.12408200  1
  Li  Li6  1  0.00198100  0.49673500  0.50088100  1
  Li  Li7  1  0.49358300  0.25424200  0.88061300  1
  Li  Li8  1  0.50730800  0.25460800  0.11896100  1
  Mn  Mn0  1  0.99772900  0.00722800  0.00269800  1
  Mn  Mn1  1  0.50314200  0.74927900  0.37469100  1
  Co  Co0  1  0.99817400  0.49972100  0.75016400  1
  Co  Co1  1  0.99784800  0.00152100  0.50113200  1
  Co  Co2  1  0.48894600  0.74747400  0.87627700  1
  Co  Co3  1  0.00754600  0.48811900  0.24435800  1
  Co  Co4  1  0.49947900  0.25063400  0.62565900  1
  O  O0  1  0.52256900  0.99923200  0.10967700  1
  O  O1  1  0.97413200  0.76315600  0.49812400  1
  O  O2  1  0.47571300  0.51105900  0.86719300  1
  O  O3  1  0.99476700  0.27386300  0.25292300  1
  O  O4  1  0.47527700  0.01181500  0.62012500  1
  O  O5  1  0.96900400  0.75938600  0.99135400  1
  O  O6  1  0.47701700  0.50887200  0.37015500  1
  O  O7  1  0.97339900  0.26132600  0.74267600  1
  O  O8  1  0.52687200  0.99270600  0.37891200  1
  O  O9  1  0.02535100  0.73979000  0.75676800  1
  O  O10  1  0.52657900  0.50028000  0.13505400  1
  O  O11  1  0.02642400  0.23759200  0.50737800  1
  O  O12  1  0.47328400  0.98918100  0.88899700  1
  O  O13  1  0.02657100  0.73223500  0.25332500  1
  O  O14  1  0.52688800  0.48900800  0.63086800  1
  O  O15  1  0.00644700  0.23245500  0.99709200  1
loop_
_geom_bond_atom_site_label_1
_geom_bond_atom_site_label_2
_geom_bond_distance
_geom_bond_site_symmetry_2
Li0 O0 2.100591 1_545
Li0 O8 2.137167 1_645
Li0 O3 2.138714 1_555
Li0 O8 2.148290 1_545
Li0 O13 2.242307 1_645
Li0 O0 2.382664 1_645
Li1 O1 2.104859 1_455
Li1 O14 2.107075 1_555
Li1 O4 2.125918 1_565
Li1 O9 2.133703 1_655
Li1 O1 2.152649 1_555
Li1 O9 2.182192 1_555
Li2 O15 2.083756 1_654
Li2 O10 2.141933 1_655
Li2 O2 2.172510 1_554
Li2 O5 2.183703 1_554
Li2 O10 2.190965 1_555
Li2 O2 2.232674 1_654
Li3 O3 2.034651 1_455
Li3 O6 2.074067 1_555
Li3 O8 2.104205 1_545
Li3 O11 2.139132 1_655
Li3 O3 2.142071 1_555
Li3 O11 2.203048 1_555
Li4 O4 2.102083 1_455
Li4 O7 2.105544 1_455
Li4 O9 2.119799 1_545
Li4 O12 2.123324 1_545
Li4 O4 2.133474 1_555
Li4 O12 2.404906 1_445
Li5 O10 1.992069 1_555
Li5 O0 2.056576 1_555
Li5 O13 2.112719 1_655
Li5 O5 2.167443 1_454
Li5 O13 2.174329 1_555
Li5 O5 2.179006 1_554
Li6 O11 2.098607 1_555
Li6 O14 2.121210 1_555
Li6 O6 2.129419 1_455
Li6 O1 2.156339 1_455
Li6 O14 2.173744 1_455
Li6 O6 2.181537 1_555
Li7 O15 1.998894 1_655
Li7 O2 2.084453 1_555
Li7 O15 2.086231 1_555
Li7 O12 2.145208 1_545
Li7 O7 2.177113 1_455
Li7 O7 2.256269 1_555
Li8 O10 1.991559 1_555
Li8 O15 2.008598 1_554
Li8 O0 2.066679 1_545
Li8 O3 2.080741 1_555
Li8 O15 2.160831 1_654
Li8 O3 2.293800 1_455
Mn0 O15 1.821668 1_654
Mn0 O0 1.945623 1_645
Mn0 O0 1.973046 1_545
Mn0 O12 1.993460 1_544
Mn0 O5 2.005516 1_544
Mn0 O12 2.036033 1_644
Mn1 O6 1.942685 1_555
Mn1 O13 1.953049 1_555
Mn1 O1 1.958022 1_555
Mn1 O8 1.966886 1_555
Mn1 O13 2.207263 1_655
Mn1 O1 2.235670 1_455
Co0 O2 1.918044 1_655
Co0 O14 1.923652 1_555
Co0 O7 1.927177 1_555
Co0 O9 1.940510 1_655
Co0 O2 2.166111 1_555
Co0 O14 2.198963 1_655
Co1 O11 1.908243 1_655
Co1 O1 1.925902 1_545
Co1 O4 1.933479 1_655
Co1 O8 1.946851 1_545
Co1 O4 2.182362 1_555
Co1 O8 2.223563 1_645
Co2 O5 1.907770 1_555
Co2 O9 1.909639 1_555
Co2 O2 1.911657 1_555
Co2 O12 1.958842 1_555
Co2 O5 2.144419 1_455
Co2 O9 2.217283 1_655
Co3 O3 1.735318 1_455
Co3 O10 1.868961 1_455
Co3 O13 1.973764 1_555
Co3 O6 1.977655 1_555
Co3 O10 2.094129 1_555
Co3 O6 2.262852 1_455
Co4 O7 1.910441 1_555
Co4 O11 1.919467 1_555
Co4 O14 1.926484 1_555
Co4 O4 1.929962 1_555
Co4 O7 2.174018 1_455
Co4 O11 2.187416 1_655
