# generated using pymatgen
data_TbInPt2
_symmetry_space_group_name_H-M   'P 1'
_cell_length_a   4.55232924
_cell_length_b   4.55232924
_cell_length_c   9.03571170
_cell_angle_alpha   90.00000000
_cell_angle_beta   90.00000000
_cell_angle_gamma   120.00001254
_symmetry_Int_Tables_number   1
_chemical_formula_structural   TbInPt2
_chemical_formula_sum   'Tb2 In2 Pt4'
_cell_volume   162.16617431
_cell_formula_units_Z   2
loop_
 _symmetry_equiv_pos_site_id
 _symmetry_equiv_pos_as_xyz
  1  'x, y, z'
loop_
 _atom_site_type_symbol
 _atom_site_label
 _atom_site_symmetry_multiplicity
 _atom_site_fract_x
 _atom_site_fract_y
 _atom_site_fract_z
 _atom_site_occupancy
  Tb  Tb0  1  0.33333300  0.66666700  0.25000000  1
  Tb  Tb1  1  0.66666700  0.33333300  0.75000000  1
  In  In0  1  0.00000000  -0.00000000  0.50000000  1
  In  In1  1  0.00000000  -0.00000000  -0.00000000  1
  Pt  Pt0  1  0.33333300  0.66666700  0.90867598  1
  Pt  Pt1  1  0.66666700  0.33333300  0.09132402  1
  Pt  Pt2  1  0.66666700  0.33333300  0.40867598  1
  Pt  Pt3  1  0.33333300  0.66666700  0.59132402  1
loop_
_geom_bond_atom_site_label_1
_geom_bond_atom_site_label_2
_geom_bond_distance
_geom_bond_site_symmetry_2
In0 Pt3 2.754779 1_545
In0 Pt2 2.754779 1_455
In0 Pt3 2.754782 1_445
In0 Pt2 2.754782 1_555
In0 Pt2 2.754782 1_445
In0 Pt3 2.754782 1_555
In1 Pt1 2.754779 1_455
In1 Pt0 2.754779 1_544
In1 Pt0 2.754782 1_444
In1 Pt1 2.754782 1_555
In1 Pt1 2.754782 1_445
In1 Pt0 2.754782 1_554
Pt0 Tb1 2.993915 1_455
Pt0 Tb1 2.993915 1_565
Pt0 Tb1 2.993922 1_555
Pt0 Tb0 3.084105 1_556
Pt1 Tb0 2.993915 1_545
Pt1 Tb0 2.993915 1_655
Pt1 Tb0 2.993922 1_555
Pt1 Tb1 3.084105 1_554
Pt2 Tb0 2.993915 1_545
Pt2 Tb0 2.993915 1_655
Pt2 Tb0 2.993922 1_555
Pt2 Tb1 3.084105 1_555
Pt3 Tb1 2.993915 1_455
Pt3 Tb1 2.993915 1_565
Pt3 Tb1 2.993922 1_555
Pt3 Tb0 3.084105 1_555
