# generated using pymatgen
data_AcPm3
_symmetry_space_group_name_H-M   'P 1'
_cell_length_a   6.44785111
_cell_length_b   6.44785111
_cell_length_c   6.44785111
_cell_angle_alpha   131.16782787
_cell_angle_beta   131.16782787
_cell_angle_gamma   71.54657110
_symmetry_Int_Tables_number   1
_chemical_formula_structural   AcPm3
_chemical_formula_sum   'Ac1 Pm3'
_cell_volume   148.64937309
_cell_formula_units_Z   1
loop_
 _symmetry_equiv_pos_site_id
 _symmetry_equiv_pos_as_xyz
  1  'x, y, z'
loop_
 _atom_site_type_symbol
 _atom_site_label
 _atom_site_symmetry_multiplicity
 _atom_site_fract_x
 _atom_site_fract_y
 _atom_site_fract_z
 _atom_site_occupancy
  Ac  Ac0  1  -0.00000000  -0.00000000  -0.00000000  1
  Pm  Pm0  1  0.75000000  0.25000000  0.50000000  1
  Pm  Pm1  1  0.25000000  0.75000000  0.50000000  1
  Pm  Pm2  1  0.50000000  0.50000000  -0.00000000  1
loop_
_geom_bond_atom_site_label_1
_geom_bond_atom_site_label_2
_geom_bond_distance
_geom_bond_site_symmetry_2
Ac0 Pm0 3.734376 1_555
Ac0 Pm1 3.734376 1_444
Ac0 Pm1 3.734376 1_544
Ac0 Pm1 3.734376 1_545
Ac0 Pm0 3.734376 1_455
Ac0 Pm0 3.734376 1_454
Ac0 Pm1 3.734376 1_555
Ac0 Pm0 3.734376 1_444
Ac0 Pm2 3.769281 1_556
Ac0 Pm2 3.769281 1_444
Ac0 Pm2 3.769281 1_545
Ac0 Pm2 3.769281 1_455
Pm0 Pm2 3.734376 1_656
Pm0 Pm2 3.734376 1_556
Pm0 Pm2 3.734376 1_555
Pm0 Pm2 3.734376 1_545
Pm0 Pm1 3.769281 1_544
Pm0 Pm1 3.769281 1_555
Pm0 Pm1 3.769281 1_656
Pm0 Pm1 3.769281 1_645
Pm1 Pm2 3.734376 1_455
Pm1 Pm2 3.734376 1_556
Pm1 Pm2 3.734376 1_555
Pm1 Pm2 3.734376 1_566
