# generated using pymatgen
data_Mg3FeO4
_symmetry_space_group_name_H-M   'P 1'
_cell_length_a   2.97918231
_cell_length_b   9.97672281
_cell_length_c   5.15260326
_cell_angle_alpha   94.03972245
_cell_angle_beta   89.46773261
_cell_angle_gamma   98.51215664
_symmetry_Int_Tables_number   1
_chemical_formula_structural   Mg3FeO4
_chemical_formula_sum   'Mg6 Fe2 O8'
_cell_volume   151.08470769
_cell_formula_units_Z   2
loop_
 _symmetry_equiv_pos_site_id
 _symmetry_equiv_pos_as_xyz
  1  'x, y, z'
loop_
 _atom_site_type_symbol
 _atom_site_label
 _atom_site_symmetry_multiplicity
 _atom_site_fract_x
 _atom_site_fract_y
 _atom_site_fract_z
 _atom_site_occupancy
  Mg  Mg0  1  0.25000158  0.50000340  0.75000464  1
  Mg  Mg1  1  0.74999610  0.49999739  0.24999938  1
  Mg  Mg2  1  0.12520743  0.25340219  0.38438816  1
  Mg  Mg3  1  0.62522181  0.25340064  0.88438822  1
  Mg  Mg4  1  0.37478158  0.74659965  0.11561052  1
  Mg  Mg5  1  0.87479588  0.74659782  0.61561045  1
  Fe  Fe0  1  0.49998977  0.99999926  0.50000690  1
  Fe  Fe1  1  0.99998489  0.99999885  0.00000668  1
  O  O0  1  0.43207094  0.86653218  0.79762346  1
  O  O1  1  0.93202492  0.86654083  0.29762580  1
  O  O2  1  0.06798779  0.13345921  0.70236446  1
  O  O3  1  0.56794262  0.13346759  0.20236634  1
  O  O4  1  0.31218563  0.62321074  0.43268354  1
  O  O5  1  0.81219120  0.62321168  0.93269033  1
  O  O6  1  0.18780691  0.37678933  0.06731173  1
  O  O7  1  0.68781294  0.37679023  0.56731840  1
loop_
_geom_bond_atom_site_label_1
_geom_bond_atom_site_label_2
_geom_bond_distance
_geom_bond_site_symmetry_2
Mg0 O5 2.094533 1_455
Mg0 O7 2.094568 1_555
Mg0 O6 2.104435 1_556
Mg0 O4 2.104452 1_555
Mg0 O5 2.111633 1_555
Mg0 O7 2.111653 1_455
Mg1 O6 2.094536 1_655
Mg1 O4 2.094562 1_555
Mg1 O7 2.104442 1_555
Mg1 O5 2.104445 1_554
Mg1 O6 2.111635 1_555
Mg1 O4 2.111651 1_655
Mg2 O3 2.082600 1_555
Mg2 O3 2.085747 1_455
Mg2 O2 2.087112 1_555
Mg2 O7 2.095328 1_455
Mg2 O6 2.104539 1_555
Mg2 O7 2.113810 1_555
Mg3 O2 2.082713 1_655
Mg3 O2 2.085715 1_555
Mg3 O3 2.087056 1_556
Mg3 O6 2.095361 1_556
Mg3 O7 2.104526 1_555
Mg3 O6 2.113755 1_656
Mg4 O1 2.082674 1_455
Mg4 O1 2.085716 1_555
Mg4 O0 2.087091 1_554
Mg4 O5 2.095338 1_554
Mg4 O4 2.104535 1_555
Mg4 O5 2.113757 1_454
Mg5 O0 2.082558 1_555
Mg5 O0 2.085749 1_655
Mg5 O1 2.087147 1_555
Mg5 O4 2.095305 1_655
Mg5 O5 2.104547 1_555
Mg5 O4 2.113809 1_555
Fe0 O0 2.089929 1_555
Fe0 O3 2.090033 1_565
Fe0 O2 2.191620 1_565
Fe0 O1 2.191728 1_555
Fe0 O1 2.212135 1_455
Fe0 O2 2.212156 1_665
Fe1 O1 2.089878 1_555
Fe1 O2 2.089986 1_664
Fe1 O3 2.191763 1_565
Fe1 O0 2.191889 1_654
Fe1 O0 2.212074 1_554
Fe1 O3 2.212119 1_665
