# generated using pymatgen
data_TmCuAs2
_symmetry_space_group_name_H-M   'P 1'
_cell_length_a   3.84286585
_cell_length_b   3.84286585
_cell_length_c   9.80397012
_cell_angle_alpha   90.00000000
_cell_angle_beta   90.00000000
_cell_angle_gamma   90.00000000
_symmetry_Int_Tables_number   1
_chemical_formula_structural   TmCuAs2
_chemical_formula_sum   'Tm2 Cu2 As4'
_cell_volume   144.78128504
_cell_formula_units_Z   2
loop_
 _symmetry_equiv_pos_site_id
 _symmetry_equiv_pos_as_xyz
  1  'x, y, z'
loop_
 _atom_site_type_symbol
 _atom_site_label
 _atom_site_symmetry_multiplicity
 _atom_site_fract_x
 _atom_site_fract_y
 _atom_site_fract_z
 _atom_site_occupancy
  Tm  Tm0  1  0.75000000  0.75000000  0.76385820  1
  Tm  Tm1  1  0.25000000  0.25000000  0.23614180  1
  Cu  Cu0  1  0.25000000  0.75000000  0.50000000  1
  Cu  Cu1  1  0.75000000  0.25000000  0.50000000  1
  As  As0  1  0.75000000  0.25000000  0.00000000  1
  As  As1  1  0.25000000  0.75000000  -0.00000000  1
  As  As2  1  0.75000000  0.75000000  0.33841715  1
  As  As3  1  0.25000000  0.25000000  0.66158285  1
loop_
_geom_bond_atom_site_label_1
_geom_bond_atom_site_label_2
_geom_bond_distance
_geom_bond_site_symmetry_2
As0 As1 2.717317 1_655
As0 As1 2.717317 1_645
As0 As1 2.717317 1_545
As0 As1 2.717317 1_555
As0 Tm1 3.008607 1_655
As0 Tm1 3.008607 1_555
As0 Tm0 3.008607 1_554
As0 Tm0 3.008607 1_544
As1 Tm1 3.008607 1_555
As1 Tm1 3.008607 1_565
As1 Tm0 3.008607 1_554
As1 Tm0 3.008607 1_454
As2 Cu0 2.490270 1_655
As2 Cu1 2.490270 1_565
As2 Cu0 2.490270 1_555
As2 Cu1 2.490270 1_555
As2 Tm1 2.896416 1_665
As2 Tm1 2.896416 1_565
As2 Tm1 2.896416 1_655
As2 Tm1 2.896416 1_555
As3 Cu1 2.490270 1_555
As3 Cu0 2.490270 1_545
As3 Cu0 2.490270 1_555
As3 Cu1 2.490270 1_455
As3 Tm0 2.896416 1_445
As3 Tm0 2.896416 1_455
As3 Tm0 2.896416 1_555
As3 Tm0 2.896416 1_545
