# generated using pymatgen
data_Gd(Mg4Al3)4
_symmetry_space_group_name_H-M   'P 1'
_cell_length_a   9.24734851
_cell_length_b   9.24734851
_cell_length_c   9.24734821
_cell_angle_alpha   110.40955825
_cell_angle_beta   110.40955825
_cell_angle_gamma   110.40955612
_symmetry_Int_Tables_number   1
_chemical_formula_structural   Gd(Mg4Al3)4
_chemical_formula_sum   'Gd1 Mg16 Al12'
_cell_volume   586.63756949
_cell_formula_units_Z   1
loop_
 _symmetry_equiv_pos_site_id
 _symmetry_equiv_pos_as_xyz
  1  'x, y, z'
loop_
 _atom_site_type_symbol
 _atom_site_label
 _atom_site_symmetry_multiplicity
 _atom_site_fract_x
 _atom_site_fract_y
 _atom_site_fract_z
 _atom_site_occupancy
  Gd  Gd0  1  0.37524300  0.37524300  0.37524300  1
  Mg  Mg0  1  0.65505700  0.99480700  0.99480700  1
  Mg  Mg1  1  0.99700600  0.99700600  0.99700600  1
  Mg  Mg2  1  0.71525500  0.31513300  0.31513300  1
  Mg  Mg3  1  0.28084800  0.61135800  0.61135800  1
  Mg  Mg4  1  0.00163600  0.68884400  0.39397700  1
  Mg  Mg5  1  0.39397700  0.00163600  0.68884400  1
  Mg  Mg6  1  0.61135800  0.61135800  0.28084800  1
  Mg  Mg7  1  0.99480700  0.99480700  0.65505700  1
  Mg  Mg8  1  0.68884400  0.39397700  0.00163600  1
  Mg  Mg9  1  0.31513300  0.71525500  0.31513300  1
  Mg  Mg10  1  0.31513300  0.31513300  0.71525500  1
  Mg  Mg11  1  0.68884400  0.00163600  0.39397700  1
  Mg  Mg12  1  0.99480700  0.65505700  0.99480700  1
  Mg  Mg13  1  0.61135800  0.28084800  0.61135800  1
  Mg  Mg14  1  0.39397700  0.68884400  0.00163600  1
  Mg  Mg15  1  0.00163600  0.39397700  0.68884400  1
  Al  Al0  1  0.81016800  0.62983800  0.62983800  1
  Al  Al1  1  0.17351600  0.81102600  0.81102600  1
  Al  Al2  1  0.00254300  0.36317600  0.18411600  1
  Al  Al3  1  0.62983800  0.81016800  0.62983800  1
  Al  Al4  1  0.36317600  0.18411600  0.00254300  1
  Al  Al5  1  0.81102600  0.17351600  0.81102600  1
  Al  Al6  1  0.18411600  0.36317600  0.00254300  1
  Al  Al7  1  0.18411600  0.00254300  0.36317600  1
  Al  Al8  1  0.81102600  0.81102600  0.17351600  1
  Al  Al9  1  0.36317600  0.00254300  0.18411600  1
  Al  Al10  1  0.62983800  0.62983800  0.81016800  1
  Al  Al11  1  0.00254300  0.18411600  0.36317600  1
loop_
_geom_bond_atom_site_label_1
_geom_bond_atom_site_label_2
_geom_bond_distance
_geom_bond_site_symmetry_2
Gd0 Mg13 3.103275 1_555
Gd0 Mg3 3.103275 1_555
Gd0 Mg6 3.103275 1_555
Gd0 Mg1 3.332235 1_444
Gd0 Mg10 3.567415 1_555
Gd0 Mg2 3.567415 1_555
Gd0 Mg9 3.567415 1_555
Mg0 Mg5 3.050365 1_565
Mg0 Mg14 3.050366 1_556
Mg0 Mg2 3.072264 1_566
Mg0 Mg1 3.147992 1_555
Mg0 Mg3 3.351997 1_555
Mg1 Mg7 3.147992 1_555
Mg1 Mg12 3.147992 1_555
Mg2 Mg4 3.162367 1_655
Mg2 Mg8 3.178064 1_555
Mg2 Mg6 3.279666 1_555
Mg3 Mg5 3.110184 1_565
Mg3 Mg4 3.145770 1_555
Mg3 Mg9 3.279666 1_555
Mg4 Mg8 3.040517 1_455
Mg4 Mg5 3.040517 1_565
Mg4 Mg7 3.050365 1_455
Mg4 Mg6 3.110184 1_455
Mg4 Mg9 3.178064 1_555
Mg5 Mg8 3.040517 1_556
Mg5 Mg9 3.162367 1_545
Mg6 Mg8 3.145770 1_555
Mg6 Mg9 3.279666 1_555
Mg6 Mg7 3.351997 1_555
Mg10 Mg7 3.072264 1_445
Mg10 Mg14 3.162367 1_556
Mg10 Mg8 3.162367 1_556
Mg10 Mg5 3.178064 1_555
Mg10 Mg15 3.178064 1_555
Mg10 Mg3 3.279666 1_555
Mg10 Mg13 3.279666 1_555
Mg11 Mg14 3.040517 1_545
Mg11 Mg15 3.040517 1_655
Mg11 Mg7 3.050365 1_545
Mg11 Mg6 3.110184 1_545
Mg11 Mg13 3.145770 1_555
Mg11 Mg9 3.162367 1_545
Mg11 Mg2 3.178064 1_555
Mg12 Mg15 3.050365 1_655
Mg12 Mg8 3.050366 1_556
Mg12 Mg9 3.072264 1_656
Mg12 Mg13 3.351997 1_555
Mg13 Mg8 3.110183 1_556
Mg13 Mg15 3.110184 1_655
Mg13 Mg5 3.145770 1_555
Mg13 Mg2 3.279666 1_555
Mg14 Mg15 3.040517 1_554
Mg14 Mg3 3.110183 1_554
Mg14 Mg6 3.145770 1_555
Mg14 Mg9 3.178064 1_555
Mg15 Mg3 3.145770 1_555
Mg15 Mg2 3.162367 1_455
Al0 Al1 2.663332 1_655
Al0 Al10 2.738813 1_555
Al0 Al3 2.738813 1_555
Al0 Mg2 2.870343 1_555
Al0 Mg6 3.013684 1_555
Al0 Mg13 3.013684 1_555
Al0 Mg12 3.084554 1_555
Al0 Mg7 3.084554 1_555
Al0 Mg1 3.133404 1_555
Al0 Gd0 3.191747 1_555
Al0 Mg4 3.322567 1_655
Al0 Mg15 3.322567 1_655
Al1 Al9 2.732656 1_566
Al1 Al4 2.732656 1_566
Al1 Mg3 2.825260 1_555
Al1 Mg14 3.004822 1_556
Al1 Mg5 3.004822 1_565
Al1 Mg7 3.115372 1_455
Al1 Mg12 3.115372 1_455
Al1 Mg4 3.179516 1_555
Al1 Mg15 3.179516 1_555
Al1 Mg1 3.229962 1_455
Al2 Al5 2.732656 1_454
Al2 Al6 2.757692 1_555
Al2 Mg9 2.943817 1_555
Al2 Mg4 2.964539 1_555
Al2 Mg8 2.973403 1_455
Al2 Mg0 3.045815 1_444
Al2 Mg3 3.156667 1_555
Al2 Mg1 3.192666 1_444
Al2 Gd0 3.218731 1_555
Al2 Mg2 3.243482 1_455
Al3 Al5 2.663332 1_565
Al3 Mg9 2.870343 1_555
Al3 Mg6 3.013684 1_555
Al3 Mg3 3.013684 1_555
Al3 Mg0 3.084554 1_555
Al3 Mg7 3.084554 1_555
Al3 Mg1 3.133404 1_555
Al3 Gd0 3.191747 1_555
Al3 Mg11 3.322567 1_565
Al3 Mg5 3.322567 1_565
Al4 Al6 2.719525 1_555
Al4 Al9 2.757692 1_555
Al4 Mg2 2.943817 1_555
Al4 Mg8 2.964539 1_555
Al4 Mg5 2.973403 1_554
Al4 Mg7 3.045815 1_444
Al4 Mg6 3.156667 1_555
Al4 Mg1 3.192667 1_444
Al4 Gd0 3.218731 1_555
Al4 Mg10 3.243482 1_554
Al5 Al6 2.732656 1_656
Al5 Mg13 2.825260 1_555
Al5 Mg8 3.004822 1_556
Al5 Mg15 3.004822 1_655
Al5 Mg7 3.115372 1_545
Al5 Mg0 3.115372 1_545
Al5 Mg11 3.179516 1_555
Al5 Mg5 3.179516 1_555
Al5 Mg1 3.229962 1_545
Al6 Mg9 2.943817 1_555
Al6 Mg14 2.964539 1_555
Al6 Mg15 2.973403 1_554
Al6 Mg7 3.045815 1_444
Al6 Mg6 3.156667 1_555
Al6 Mg1 3.192667 1_444
Al6 Gd0 3.218731 1_555
Al6 Mg10 3.243482 1_554
Al7 Al9 2.719525 1_555
Al7 Al8 2.732656 1_445
Al7 Mg10 2.943816 1_555
Al7 Mg5 2.964539 1_555
Al7 Mg4 2.973404 1_545
Al7 Mg12 3.045815 1_444
Al7 Mg13 3.156667 1_555
Al7 Mg1 3.192666 1_444
Al7 Gd0 3.218731 1_555
Al7 Mg9 3.243482 1_545
Al8 Mg6 2.825260 1_555
Al8 Mg11 3.004822 1_565
Al8 Mg4 3.004822 1_655
Al8 Mg0 3.115372 1_554
Al8 Mg12 3.115372 1_554
Al8 Mg8 3.179516 1_555
Al8 Mg14 3.179516 1_555
Al8 Mg1 3.229962 1_554
Al9 Mg2 2.943817 1_555
Al9 Mg11 2.964539 1_555
Al9 Mg14 2.973403 1_545
Al9 Mg12 3.045815 1_444
Al9 Mg13 3.156667 1_555
Al9 Mg1 3.192666 1_444
Al9 Gd0 3.218731 1_555
Al9 Mg9 3.243482 1_545
Al10 Al8 2.663331 1_556
Al10 Al3 2.738813 1_555
Al10 Mg10 2.870343 1_555
Al10 Mg3 3.013684 1_555
Al10 Mg13 3.013684 1_555
Al10 Mg0 3.084554 1_555
Al10 Mg12 3.084554 1_555
Al10 Mg1 3.133405 1_555
Al10 Gd0 3.191747 1_555
Al10 Mg14 3.322567 1_556
Al10 Mg8 3.322567 1_556
Al11 Al2 2.719525 1_555
Al11 Al8 2.732656 1_445
Al11 Al7 2.757692 1_555
Al11 Mg10 2.943816 1_555
Al11 Mg15 2.964539 1_555
Al11 Mg11 2.973404 1_455
Al11 Mg0 3.045815 1_444
Al11 Mg3 3.156667 1_555
Al11 Mg1 3.192666 1_444
Al11 Gd0 3.218731 1_555
Al11 Mg2 3.243482 1_455
