# generated using pymatgen
data_Mg(GaS2)2
_symmetry_space_group_name_H-M   'P 1'
_cell_length_a   7.28356994
_cell_length_b   7.28347706
_cell_length_c   7.28364042
_cell_angle_alpha   60.00094804
_cell_angle_beta   59.99916936
_cell_angle_gamma   60.00105442
_symmetry_Int_Tables_number   1
_chemical_formula_structural   Mg(GaS2)2
_chemical_formula_sum   'Mg2 Ga4 S8'
_cell_volume   273.22497645
_cell_formula_units_Z   2
loop_
 _symmetry_equiv_pos_site_id
 _symmetry_equiv_pos_as_xyz
  1  'x, y, z'
loop_
 _atom_site_type_symbol
 _atom_site_label
 _atom_site_symmetry_multiplicity
 _atom_site_fract_x
 _atom_site_fract_y
 _atom_site_fract_z
 _atom_site_occupancy
  Mg  Mg0  1  0.87500039  0.87500194  0.87500713  1
  Mg  Mg1  1  0.12500229  0.12499649  0.12499873  1
  Ga  Ga0  1  0.50001247  0.50004331  0.49993309  1
  Ga  Ga1  1  0.50000453  0.49997515  0.99999307  1
  Ga  Ga2  1  0.99999458  0.49998024  0.50004081  1
  Ga  Ga3  1  0.49997984  0.00000138  0.50002554  1
  S  S0  1  0.73897349  0.73897700  0.73898073  1
  S  S1  1  0.26102434  0.26102853  0.71693552  1
  S  S2  1  0.26102377  0.71693032  0.26102107  1
  S  S3  1  0.71693629  0.26102325  0.26101674  1
  S  S4  1  0.73897027  0.28306729  0.73896489  1
  S  S5  1  0.28306767  0.73897079  0.73897809  1
  S  S6  1  0.26102313  0.26101682  0.26103645  1
  S  S7  1  0.73899094  0.73898048  0.28307113  1
loop_
_geom_bond_atom_site_label_1
_geom_bond_atom_site_label_2
_geom_bond_distance
_geom_bond_site_symmetry_2
Mg0 S5 2.426778 1_655
Mg0 S4 2.426780 1_565
Mg0 S7 2.426780 1_556
Mg0 S0 2.426836 1_555
Mg1 S3 2.426771 1_455
Mg1 S1 2.426775 1_554
Mg1 S2 2.426784 1_545
Mg1 S6 2.426840 1_555
Ga0 S7 2.466611 1_555
Ga0 S2 2.466617 1_555
Ga0 S3 2.466711 1_555
Ga0 S5 2.466895 1_555
Ga0 S1 2.467014 1_555
Ga0 S4 2.467053 1_555
Ga1 S4 2.466718 1_555
Ga1 S6 2.466729 1_556
Ga1 S0 2.466866 1_555
Ga1 S5 2.466871 1_555
Ga1 S3 2.466893 1_556
Ga1 S2 2.466949 1_556
Ga2 S4 2.466705 1_555
Ga2 S0 2.466717 1_555
Ga2 S1 2.466741 1_655
Ga2 S6 2.466873 1_655
Ga2 S2 2.466913 1_655
Ga2 S7 2.466968 1_555
Ga3 S1 2.466721 1_555
Ga3 S5 2.466736 1_545
Ga3 S6 2.466842 1_555
Ga3 S0 2.466861 1_545
Ga3 S7 2.466906 1_545
Ga3 S3 2.466906 1_555
