# generated using pymatgen
data_RbBaMnO4
_symmetry_space_group_name_H-M   'P 1'
_cell_length_a   5.98627100
_cell_length_b   8.01923300
_cell_length_c   10.50710700
_cell_angle_alpha   90.00000000
_cell_angle_beta   90.00000000
_cell_angle_gamma   90.00000000
_symmetry_Int_Tables_number   1
_chemical_formula_structural   RbBaMnO4
_chemical_formula_sum   'Rb4 Ba4 Mn4 O16'
_cell_volume   504.39684416
_cell_formula_units_Z   4
loop_
 _symmetry_equiv_pos_site_id
 _symmetry_equiv_pos_as_xyz
  1  'x, y, z'
loop_
 _atom_site_type_symbol
 _atom_site_label
 _atom_site_symmetry_multiplicity
 _atom_site_fract_x
 _atom_site_fract_y
 _atom_site_fract_z
 _atom_site_occupancy
  Rb  Rb0  1  0.25000000  0.65542000  0.58209100  1
  Rb  Rb1  1  0.74999900  0.34458000  0.41790900  1
  Rb  Rb2  1  0.74999900  0.84458100  0.08209200  1
  Rb  Rb3  1  0.25000000  0.15542000  0.91790900  1
  Ba  Ba0  1  0.74999900  0.00218200  0.69182200  1
  Ba  Ba1  1  0.25000000  0.99781800  0.30817700  1
  Ba  Ba2  1  0.74999900  0.50218100  0.80817800  1
  Ba  Ba3  1  0.25000000  0.49781800  0.19182200  1
  Mn  Mn0  1  0.74999900  0.77149300  0.41515100  1
  Mn  Mn1  1  0.25000000  0.22850600  0.58484900  1
  Mn  Mn2  1  0.74999900  0.27149400  0.08484900  1
  Mn  Mn3  1  0.25000000  0.72850700  0.91515200  1
  O  O0  1  0.51204200  0.70866800  0.33668600  1
  O  O1  1  0.01204300  0.29133100  0.66331300  1
  O  O2  1  0.98795800  0.20866900  0.16331300  1
  O  O3  1  0.48795800  0.79133100  0.83668600  1
  O  O4  1  0.48795800  0.29133100  0.66331300  1
  O  O5  1  0.98795800  0.70866800  0.33668600  1
  O  O6  1  0.01204300  0.79133100  0.83668600  1
  O  O7  1  0.51204200  0.20866900  0.16331300  1
  O  O8  1  0.25000000  0.51492200  0.92341000  1
  O  O9  1  0.74999900  0.48507800  0.07659000  1
  O  O10  1  0.25000000  0.01492200  0.57659000  1
  O  O11  1  0.74999900  0.98507900  0.42341100  1
  O  O12  1  0.74999900  0.19493900  0.93107700  1
  O  O13  1  0.25000000  0.80506100  0.06892300  1
  O  O14  1  0.25000000  0.30506100  0.43107800  1
  O  O15  1  0.74999900  0.69493800  0.56892300  1
loop_
_geom_bond_atom_site_label_1
_geom_bond_atom_site_label_2
_geom_bond_distance
_geom_bond_site_symmetry_2
Ba0 O3 2.763416 1_545
Ba0 O6 2.763427 1_645
Ba0 O15 2.781744 1_545
Ba0 O4 2.815493 1_555
Ba0 O1 2.815503 1_655
Ba0 O11 2.823556 1_545
Ba0 O12 2.951096 1_555
Ba0 O10 3.230354 1_555
Ba0 O10 3.230365 1_655
Ba1 O2 2.763420 1_465
Ba1 O7 2.763420 1_565
Ba1 O14 2.781747 1_565
Ba1 O0 2.815503 1_555
Ba1 O5 2.815503 1_455
Ba1 O10 2.823578 1_565
Ba1 O13 2.951087 1_555
Ba1 O11 3.230362 1_555
Ba1 O11 3.230373 1_455
Ba2 O4 2.763417 1_555
Ba2 O1 2.763427 1_655
Ba2 O12 2.781730 1_555
Ba2 O3 2.815499 1_555
Ba2 O6 2.815509 1_655
Ba2 O9 2.823567 1_556
Ba2 O15 2.951096 1_555
Ba2 O8 3.230355 1_555
Ba2 O8 3.230366 1_655
Ba3 O5 2.763415 1_455
Ba3 O0 2.763415 1_555
Ba3 O13 2.781737 1_555
Ba3 O7 2.815497 1_555
Ba3 O2 2.815497 1_455
Ba3 O8 2.823567 1_554
Ba3 O14 2.951105 1_555
Ba3 O9 3.230354 1_555
Ba3 O9 3.230365 1_455
Mn0 O11 1.714993 1_555
Mn0 O0 1.721236 1_555
Mn0 O5 1.721246 1_555
Mn0 O15 1.728401 1_555
Mn1 O10 1.714977 1_555
Mn1 O1 1.721231 1_555
Mn1 O4 1.721236 1_555
Mn1 O14 1.728392 1_555
Mn2 O9 1.714977 1_555
Mn2 O7 1.721231 1_555
Mn2 O2 1.721241 1_555
Mn2 O12 1.728401 1_554
Mn3 O8 1.714984 1_555
Mn3 O6 1.721239 1_555
Mn3 O3 1.721244 1_555
Mn3 O13 1.728389 1_556
O0 Rb0 3.048222 1_555
O0 Rb2 3.220702 1_555
O0 Rb1 3.358890 1_555
O1 Rb1 3.048220 1_455
O1 Rb3 3.220714 1_555
O1 Rb0 3.358894 1_555
O2 Rb3 3.048214 1_654
O2 Rb1 3.220720 1_555
O2 Rb2 3.358889 1_545
O3 Rb2 3.048230 1_556
O3 Rb0 3.220708 1_555
O3 Rb3 3.358899 1_565
O4 Rb1 3.048211 1_555
O4 Rb3 3.220717 1_555
O4 Rb0 3.358896 1_555
O5 Rb0 3.048222 1_655
O5 Rb2 3.220708 1_555
O5 Rb1 3.358895 1_555
O6 Rb2 3.048239 1_456
O6 Rb0 3.220706 1_555
O6 Rb3 3.358897 1_565
O7 Rb3 3.048214 1_554
O7 Rb1 3.220714 1_555
O7 Rb2 3.358884 1_545
O8 Rb3 2.883510 1_555
O9 Rb2 2.883518 1_555
O10 Rb0 2.883510 1_545
O11 Rb1 2.883502 1_565
O12 Rb3 3.013038 1_555
O12 Rb3 3.013050 1_655
O12 Rb2 3.226698 1_546
O13 Rb2 3.013040 1_555
O13 Rb2 3.013052 1_455
O13 Rb3 3.226700 1_564
O14 Rb1 3.013039 1_555
O14 Rb1 3.013051 1_455
O14 Rb0 3.226695 1_555
O15 Rb0 3.013038 1_555
O15 Rb0 3.013049 1_655
O15 Rb1 3.226693 1_555
