# generated using pymatgen
data_Ca3Cr2(Si2O7)2
_symmetry_space_group_name_H-M   'P 1'
_cell_length_a   9.42133073
_cell_length_b   9.42133073
_cell_length_c   10.18188076
_cell_angle_alpha   58.76903629
_cell_angle_beta   58.76903629
_cell_angle_gamma   48.18917663
_symmetry_Int_Tables_number   1
_chemical_formula_structural   Ca3Cr2(Si2O7)2
_chemical_formula_sum   'Ca6 Cr4 Si8 O28'
_cell_volume   554.41719991
_cell_formula_units_Z   2
loop_
 _symmetry_equiv_pos_site_id
 _symmetry_equiv_pos_as_xyz
  1  'x, y, z'
loop_
 _atom_site_type_symbol
 _atom_site_label
 _atom_site_symmetry_multiplicity
 _atom_site_fract_x
 _atom_site_fract_y
 _atom_site_fract_z
 _atom_site_occupancy
  Ca  Ca0  1  0.23174700  0.16520200  0.53931900  1
  Ca  Ca1  1  0.83479800  0.76825300  0.96068100  1
  Ca  Ca2  1  0.16520200  0.23174700  0.03931900  1
  Ca  Ca3  1  0.65571900  0.34428100  0.25000000  1
  Ca  Ca4  1  0.76825300  0.83479800  0.46068100  1
  Ca  Ca5  1  0.34428100  0.65571900  0.75000000  1
  Cr  Cr0  1  0.20910400  0.79089600  0.25000000  1
  Cr  Cr1  1  0.79089600  0.20910400  0.75000000  1
  Cr  Cr2  1  0.00000000  0.00000000  0.00000000  1
  Cr  Cr3  1  0.00000000  0.00000000  0.50000000  1
  Si  Si0  1  0.11804700  0.53498200  0.65170200  1
  Si  Si1  1  0.53498200  0.11804700  0.15170200  1
  Si  Si2  1  0.21245200  0.53539100  0.14903100  1
  Si  Si3  1  0.53539100  0.21245200  0.64903100  1
  Si  Si4  1  0.46501800  0.88195300  0.84829800  1
  Si  Si5  1  0.78754800  0.46460900  0.85096900  1
  Si  Si6  1  0.46460900  0.78754800  0.35096900  1
  Si  Si7  1  0.88195300  0.46501800  0.34829800  1
  O  O0  1  0.28423100  0.88147100  0.49987000  1
  O  O1  1  0.89443000  0.96162600  0.72747000  1
  O  O2  1  0.64691500  0.46317000  0.80744400  1
  O  O3  1  0.96162600  0.89443000  0.22747000  1
  O  O4  1  0.92530400  0.26400200  0.49744400  1
  O  O5  1  0.49859700  0.05018500  0.82119300  1
  O  O6  1  0.46317000  0.64691500  0.30744400  1
  O  O7  1  0.73599800  0.07469600  0.00255600  1
  O  O8  1  0.50140300  0.94981500  0.17880700  1
  O  O9  1  0.66778200  0.65895800  0.41129500  1
  O  O10  1  0.10557000  0.03837400  0.27253000  1
  O  O11  1  0.07469600  0.73599800  0.50255600  1
  O  O12  1  0.94981500  0.50140300  0.67880700  1
  O  O13  1  0.88147100  0.28423100  0.99987000  1
  O  O14  1  0.65895800  0.66778200  0.91129500  1
  O  O15  1  0.26400200  0.92530400  0.99744400  1
  O  O16  1  0.46825000  0.89427200  0.68321600  1
  O  O17  1  0.33221800  0.34104200  0.58870500  1
  O  O18  1  0.10572800  0.53175000  0.81678400  1
  O  O19  1  0.34104200  0.33221800  0.08870500  1
  O  O20  1  0.05018500  0.49859700  0.32119300  1
  O  O21  1  0.03837400  0.10557000  0.77253000  1
  O  O22  1  0.89427200  0.46825000  0.18321600  1
  O  O23  1  0.35308500  0.53683000  0.19255600  1
  O  O24  1  0.53175000  0.10572800  0.31678400  1
  O  O25  1  0.53683000  0.35308500  0.69255600  1
  O  O26  1  0.11852900  0.71576900  0.00013000  1
  O  O27  1  0.71576900  0.11852900  0.50013000  1
loop_
_geom_bond_atom_site_label_1
_geom_bond_atom_site_label_2
_geom_bond_distance
_geom_bond_site_symmetry_2
Ca0 O21 2.183683 1_555
Ca0 O16 2.355975 1_545
Ca0 O24 2.449595 1_555
Ca0 O4 2.581721 1_455
Ca0 O0 2.587757 1_545
Ca0 O20 2.695587 1_555
Ca0 O17 2.709539 1_555
Ca0 O12 2.939440 1_455
Ca1 O1 2.183683 1_555
Ca1 O18 2.355975 1_655
Ca1 O22 2.449595 1_556
Ca1 O7 2.581721 1_566
Ca1 O26 2.587757 1_656
Ca1 O8 2.695587 1_556
Ca1 O14 2.709539 1_555
Ca1 O5 2.939440 1_565
Ca2 O10 2.183683 1_555
Ca2 O22 2.355975 1_455
Ca2 O18 2.449595 1_554
Ca2 O15 2.581721 1_544
Ca2 O13 2.587757 1_454
Ca2 O5 2.695587 1_554
Ca2 O19 2.709539 1_555
Ca2 O8 2.939440 1_545
Ca3 O6 2.344130 1_555
Ca3 O23 2.344130 1_555
Ca3 O27 2.366974 1_555
Ca3 O13 2.366974 1_554
Ca3 O22 2.823002 1_555
Ca3 O24 2.823002 1_555
Ca4 O3 2.183683 1_555
Ca4 O24 2.355975 1_565
Ca4 O16 2.449595 1_555
Ca4 O11 2.581721 1_655
Ca4 O27 2.587757 1_565
Ca4 O12 2.695587 1_555
Ca4 O9 2.709539 1_555
Ca4 O20 2.939440 1_655
Ca5 O2 2.344130 1_555
Ca5 O25 2.344130 1_555
Ca5 O26 2.366974 1_556
Ca5 O0 2.366974 1_555
Ca5 O16 2.823002 1_555
Ca5 O18 2.823002 1_555
Cr0 O10 1.931452 1_565
Cr0 O3 1.931452 1_455
Cr0 O6 2.052172 1_555
Cr0 O23 2.052172 1_555
Cr0 O15 2.144993 1_554
Cr0 O11 2.144993 1_555
Cr1 O21 1.931452 1_655
Cr1 O1 1.931452 1_545
Cr1 O2 2.052172 1_555
Cr1 O25 2.052172 1_555
Cr1 O4 2.144993 1_555
Cr1 O7 2.144993 1_556
Cr2 O21 1.925234 1_554
Cr2 O3 1.925234 1_445
Cr2 O7 2.073730 1_455
Cr2 O15 2.073730 1_544
Cr2 O26 2.104404 1_545
Cr2 O13 2.104404 1_454
Cr3 O1 1.925234 1_445
Cr3 O10 1.925234 1_555
Cr3 O11 2.073730 1_545
Cr3 O4 2.073730 1_455
Cr3 O27 2.104404 1_455
Cr3 O0 2.104404 1_545
O0 Si6 1.638267 1_555
O2 Si5 1.609702 1_555
O4 Si7 1.639837 1_555
O5 Si4 1.677143 1_545
O5 Si3 1.681556 1_555
O6 Si6 1.609702 1_555
O7 Si1 1.639837 1_555
O8 Si1 1.677143 1_565
O8 Si6 1.681556 1_555
O9 Si7 1.666978 1_555
O9 Si6 1.692498 1_555
O11 Si0 1.639837 1_555
O12 Si0 1.677143 1_655
O12 Si5 1.681556 1_555
O13 Si5 1.638267 1_555
O14 Si4 1.666978 1_555
O14 Si5 1.692498 1_555
O15 Si4 1.639837 1_555
O16 Si4 1.609031 1_555
O17 Si0 1.666978 1_555
O17 Si3 1.692498 1_555
O18 Si0 1.609031 1_555
O19 Si1 1.666978 1_555
O19 Si2 1.692498 1_555
O20 Si7 1.677143 1_455
O20 Si2 1.681556 1_555
O22 Si7 1.609031 1_555
O23 Si2 1.609702 1_555
O24 Si1 1.609031 1_555
O25 Si3 1.609702 1_555
O26 Si2 1.638267 1_555
O27 Si3 1.638267 1_555
