# generated using pymatgen
data_CuB5
_symmetry_space_group_name_H-M   'P 1'
_cell_length_a   5.55613200
_cell_length_b   11.69600900
_cell_length_c   13.39952400
_cell_angle_alpha   90.00000000
_cell_angle_beta   90.00000000
_cell_angle_gamma   90.00000000
_symmetry_Int_Tables_number   1
_chemical_formula_structural   CuB5
_chemical_formula_sum   'Cu16 B80'
_cell_volume   870.76230370
_cell_formula_units_Z   16
loop_
 _symmetry_equiv_pos_site_id
 _symmetry_equiv_pos_as_xyz
  1  'x, y, z'
loop_
 _atom_site_type_symbol
 _atom_site_label
 _atom_site_symmetry_multiplicity
 _atom_site_fract_x
 _atom_site_fract_y
 _atom_site_fract_z
 _atom_site_occupancy
  Cu  Cu0  1  0.76171700  0.80186100  0.26504700  1
  Cu  Cu1  1  0.26171700  0.19813900  0.23495300  1
  Cu  Cu2  1  0.23828300  0.69813900  0.76504700  1
  Cu  Cu3  1  0.73828300  0.30186100  0.73495300  1
  Cu  Cu4  1  0.23828300  0.19813900  0.73495300  1
  Cu  Cu5  1  0.73828300  0.80186100  0.76504700  1
  Cu  Cu6  1  0.76171700  0.30186100  0.23495300  1
  Cu  Cu7  1  0.26171700  0.69813900  0.26504700  1
  Cu  Cu8  1  0.75055600  0.81286100  0.95468200  1
  Cu  Cu9  1  0.25055600  0.18713900  0.54531800  1
  Cu  Cu10  1  0.24944400  0.68713900  0.45468200  1
  Cu  Cu11  1  0.74944400  0.31286100  0.04531800  1
  Cu  Cu12  1  0.24944400  0.18713900  0.04531800  1
  Cu  Cu13  1  0.74944400  0.81286100  0.45468200  1
  Cu  Cu14  1  0.75055600  0.31286100  0.54531800  1
  Cu  Cu15  1  0.25055600  0.68713900  0.95468200  1
  B  B0  1  0.55491600  0.94526400  0.07602500  1
  B  B1  1  0.05491600  0.05473600  0.42397500  1
  B  B2  1  0.44508400  0.55473600  0.57602500  1
  B  B3  1  0.94508400  0.44526400  0.92397500  1
  B  B4  1  0.44508400  0.05473600  0.92397500  1
  B  B5  1  0.94508400  0.94526400  0.57602500  1
  B  B6  1  0.55491600  0.44526400  0.42397500  1
  B  B7  1  0.05491600  0.55473600  0.07602500  1
  B  B8  1  0.85310500  0.95984800  0.02233000  1
  B  B9  1  0.35310500  0.04015200  0.47767000  1
  B  B10  1  0.14689500  0.54015200  0.52233000  1
  B  B11  1  0.64689500  0.45984800  0.97767000  1
  B  B12  1  0.14689500  0.04015200  0.97767000  1
  B  B13  1  0.64689500  0.95984800  0.52233000  1
  B  B14  1  0.85310500  0.45984800  0.47767000  1
  B  B15  1  0.35310500  0.54015200  0.02233000  1
  B  B16  1  0.48274900  0.08329800  0.13079600  1
  B  B17  1  0.98274900  0.91670200  0.36920400  1
  B  B18  1  0.51725100  0.41670200  0.63079600  1
  B  B19  1  0.01725100  0.58329800  0.86920400  1
  B  B20  1  0.51725100  0.91670200  0.86920400  1
  B  B21  1  0.01725100  0.08329800  0.63079600  1
  B  B22  1  0.48274900  0.58329800  0.36920400  1
  B  B23  1  0.98274900  0.41670200  0.13079600  1
  B  B24  1  0.59796100  0.96958500  0.20539300  1
  B  B25  1  0.09796100  0.03041500  0.29460700  1
  B  B26  1  0.40203900  0.53041500  0.70539300  1
  B  B27  1  0.90203900  0.46958500  0.79460700  1
  B  B28  1  0.40203900  0.03041500  0.79460700  1
  B  B29  1  0.90203900  0.96958500  0.70539300  1
  B  B30  1  0.59796100  0.46958500  0.29460700  1
  B  B31  1  0.09796100  0.53041500  0.20539300  1
  B  B32  1  0.86849500  0.92583900  0.14905000  1
  B  B33  1  0.36849500  0.07416100  0.35095000  1
  B  B34  1  0.13150500  0.57416100  0.64905000  1
  B  B35  1  0.63150500  0.42583900  0.85095000  1
  B  B36  1  0.13150500  0.07416100  0.85095000  1
  B  B37  1  0.63150500  0.92583900  0.64905000  1
  B  B38  1  0.86849500  0.42583900  0.35095000  1
  B  B39  1  0.36849500  0.57416100  0.14905000  1
  B  B40  1  0.74725000  0.16894600  0.12929000  1
  B  B41  1  0.24725000  0.83105400  0.37071000  1
  B  B42  1  0.25275000  0.33105400  0.62929000  1
  B  B43  1  0.75275000  0.66894600  0.87071000  1
  B  B44  1  0.25275000  0.83105400  0.87071000  1
  B  B45  1  0.75275000  0.16894600  0.62929000  1
  B  B46  1  0.74725000  0.66894600  0.37071000  1
  B  B47  1  0.24725000  0.33105400  0.12929000  1
  B  B48  1  0.59844100  0.11793600  0.24409800  1
  B  B49  1  0.09844100  0.88206400  0.25590200  1
  B  B50  1  0.40155900  0.38206400  0.74409800  1
  B  B51  1  0.90155900  0.61793600  0.75590200  1
  B  B52  1  0.40155900  0.88206400  0.75590200  1
  B  B53  1  0.90155900  0.11793600  0.74409800  1
  B  B54  1  0.59844100  0.61793600  0.25590200  1
  B  B55  1  0.09844100  0.38206400  0.24409800  1
  B  B56  1  0.88267600  0.06585700  0.21112300  1
  B  B57  1  0.38267600  0.93414300  0.28887700  1
  B  B58  1  0.11732400  0.43414300  0.71112300  1
  B  B59  1  0.61732400  0.56585700  0.78887700  1
  B  B60  1  0.11732400  0.93414300  0.78887700  1
  B  B61  1  0.61732400  0.06585700  0.71112300  1
  B  B62  1  0.88267600  0.56585700  0.28887700  1
  B  B63  1  0.38267600  0.43414300  0.21112300  1
  B  B64  1  0.95970700  0.07459100  0.08240000  1
  B  B65  1  0.45970700  0.92540900  0.41760000  1
  B  B66  1  0.04029300  0.42540900  0.58240000  1
  B  B67  1  0.54029300  0.57459100  0.91760000  1
  B  B68  1  0.04029300  0.92540900  0.91760000  1
  B  B69  1  0.54029300  0.07459100  0.58240000  1
  B  B70  1  0.95970700  0.57459100  0.41760000  1
  B  B71  1  0.45970700  0.42540900  0.08240000  1
  B  B72  1  0.64771400  0.08578700  0.02256700  1
  B  B73  1  0.14771400  0.91421300  0.47743300  1
  B  B74  1  0.35228600  0.41421300  0.52256700  1
  B  B75  1  0.85228600  0.58578700  0.97743300  1
  B  B76  1  0.35228600  0.91421300  0.97743300  1
  B  B77  1  0.85228600  0.08578700  0.52256700  1
  B  B78  1  0.64771400  0.58578700  0.47743300  1
  B  B79  1  0.14771400  0.41421300  0.02256700  1
loop_
_geom_bond_atom_site_label_1
_geom_bond_atom_site_label_2
_geom_bond_distance
_geom_bond_site_symmetry_2
B0 B24 1.772860 1_555
B0 B76 1.773323 1_554
B0 B8 1.814296 1_555
B0 B16 1.818195 1_565
B0 B72 1.865537 1_565
B0 B32 2.011130 1_555
B0 Cu8 2.494668 1_554
B1 B25 1.772860 1_555
B1 B77 1.773323 1_455
B1 B9 1.814296 1_555
B1 B17 1.818195 1_445
B1 B73 1.865537 1_545
B1 B33 2.011130 1_555
B1 Cu9 2.494668 1_555
B2 B26 1.772860 1_555
B2 B78 1.773323 1_555
B2 B74 1.865537 1_555
B2 B34 2.011130 1_555
B2 Cu10 2.494668 1_555
B3 B79 1.773323 1_656
B3 B75 1.865537 1_555
B3 B35 2.011130 1_555
B3 Cu11 2.494668 1_556
B4 B72 1.773323 1_556
B4 B76 1.865537 1_545
B4 Cu12 2.494668 1_556
B5 B73 1.773323 1_655
B5 B77 1.865537 1_565
B5 Cu13 2.494668 1_555
B6 B74 1.773323 1_555
B6 B78 1.865537 1_555
B6 Cu14 2.494668 1_555
B7 B75 1.773323 1_454
B7 B79 1.865537 1_555
B7 Cu15 2.494668 1_554
B8 Cu8 2.025293 1_554
B9 Cu9 2.025293 1_555
B10 B66 1.673246 1_555
B10 B34 1.746051 1_555
B10 B70 1.792561 1_455
B10 B2 1.814296 1_555
B10 B74 1.863325 1_555
B10 B14 1.976056 1_455
B10 Cu10 2.025293 1_555
B11 B67 1.673246 1_555
B11 B35 1.746051 1_555
B11 B71 1.792561 1_556
B11 B3 1.814296 1_555
B11 B75 1.863325 1_555
B11 B15 1.976056 1_556
B11 Cu11 2.025293 1_556
B12 B68 1.673246 1_545
B12 B36 1.746051 1_555
B12 B64 1.792561 1_456
B12 B4 1.814296 1_555
B12 B76 1.863325 1_545
B12 B8 1.976056 1_446
B12 Cu12 2.025293 1_556
B13 B69 1.673246 1_565
B13 B37 1.746051 1_555
B13 B65 1.792561 1_555
B13 B5 1.814296 1_555
B13 B77 1.863325 1_565
B13 B9 1.976056 1_565
B13 Cu13 2.025293 1_555
B14 B70 1.673246 1_555
B14 B38 1.746051 1_555
B14 B66 1.792561 1_655
B14 B6 1.814296 1_555
B14 B78 1.863325 1_555
B14 Cu14 2.025293 1_555
B15 B71 1.673246 1_555
B15 B39 1.746051 1_555
B15 B67 1.792561 1_554
B15 B7 1.814296 1_555
B15 B79 1.863325 1_555
B15 Cu15 2.025293 1_554
B16 B48 1.697713 1_555
B16 B72 1.715830 1_555
B16 B40 1.778657 1_555
B16 B24 1.782630 1_545
B16 Cu12 2.113588 1_555
B16 Cu1 2.293507 1_555
B17 B49 1.697713 1_655
B17 B73 1.715830 1_655
B17 B41 1.778657 1_655
B17 B25 1.782630 1_665
B17 Cu13 2.113588 1_555
B17 Cu0 2.293507 1_555
B18 B50 1.697713 1_555
B18 B74 1.715830 1_555
B18 B42 1.778657 1_555
B18 B26 1.782630 1_555
B18 B2 1.818195 1_555
B18 Cu14 2.113588 1_555
B18 Cu3 2.293507 1_555
B19 B51 1.697713 1_455
B19 B75 1.715830 1_455
B19 B43 1.778657 1_455
B19 B27 1.782630 1_455
B19 B3 1.818195 1_455
B19 Cu15 2.113588 1_555
B19 Cu2 2.293507 1_555
B20 B52 1.697713 1_555
B20 B76 1.715830 1_555
B20 B44 1.778657 1_555
B20 B28 1.782630 1_565
B20 B4 1.818195 1_565
B20 Cu8 2.113588 1_555
B20 Cu5 2.293507 1_555
B21 B53 1.697713 1_455
B21 B77 1.715830 1_455
B21 B45 1.778657 1_455
B21 B29 1.782630 1_445
B21 B5 1.818195 1_445
B21 Cu9 2.113588 1_555
B21 Cu4 2.293507 1_555
B22 B54 1.697713 1_555
B22 B78 1.715830 1_555
B22 B46 1.778657 1_555
B22 B30 1.782630 1_555
B22 B6 1.818195 1_555
B22 Cu10 2.113588 1_555
B22 Cu7 2.293507 1_555
B23 B55 1.697713 1_655
B23 B79 1.715830 1_655
B23 B47 1.778657 1_655
B23 B31 1.782630 1_655
B23 B7 1.818195 1_655
B23 Cu11 2.113588 1_555
B23 Cu6 2.293507 1_555
B24 B57 1.689374 1_555
B24 B32 1.758165 1_555
B24 B48 1.810968 1_565
B24 B56 1.943250 1_565
B24 Cu0 2.305436 1_555
B25 B56 1.689374 1_455
B25 B33 1.758165 1_555
B25 B49 1.810968 1_545
B25 B57 1.943250 1_545
B25 Cu1 2.305436 1_555
B26 B59 1.689374 1_555
B26 B34 1.758165 1_555
B26 B50 1.810968 1_555
B26 B58 1.943250 1_555
B26 Cu2 2.305436 1_555
B27 B58 1.689374 1_655
B27 B35 1.758165 1_555
B27 B3 1.772860 1_555
B27 B51 1.810968 1_555
B27 B59 1.943250 1_555
B27 Cu3 2.305436 1_555
B28 B61 1.689374 1_555
B28 B36 1.758165 1_555
B28 B4 1.772860 1_555
B28 B52 1.810968 1_545
B28 B60 1.943250 1_545
B28 Cu4 2.305436 1_555
B29 B60 1.689374 1_655
B29 B37 1.758165 1_555
B29 B5 1.772860 1_555
B29 B53 1.810968 1_565
B29 B61 1.943250 1_565
B29 Cu5 2.305436 1_555
B30 B63 1.689374 1_555
B30 B38 1.758165 1_555
B30 B6 1.772860 1_555
B30 B54 1.810968 1_555
B30 B62 1.943250 1_555
B30 Cu6 2.305436 1_555
B31 B62 1.689374 1_455
B31 B39 1.758165 1_555
B31 B7 1.772860 1_555
B31 B55 1.810968 1_555
B31 B63 1.943250 1_555
B31 Cu7 2.305436 1_555
B32 B8 1.746051 1_555
B32 B56 1.838455 1_565
B32 B49 1.986046 1_655
B32 B64 2.020233 1_565
B32 Cu0 2.206915 1_555
B33 B9 1.746051 1_555
B33 B57 1.838455 1_545
B33 B48 1.986046 1_555
B33 B65 2.020233 1_545
B33 Cu1 2.206915 1_555
B34 B58 1.838455 1_555
B34 B51 1.986046 1_455
B34 B66 2.020233 1_555
B34 Cu2 2.206915 1_555
B35 B59 1.838455 1_555
B35 B50 1.986046 1_555
B35 B67 2.020233 1_555
B35 Cu3 2.206915 1_555
B36 B60 1.838455 1_545
B36 B53 1.986046 1_455
B36 B4 2.011130 1_555
B36 B68 2.020233 1_545
B36 Cu4 2.206915 1_555
B37 B61 1.838455 1_565
B37 B52 1.986046 1_555
B37 B5 2.011130 1_555
B37 B69 2.020233 1_565
B37 Cu5 2.206915 1_555
B38 B62 1.838455 1_555
B38 B55 1.986046 1_655
B38 B6 2.011130 1_555
B38 B70 2.020233 1_555
B38 Cu6 2.206915 1_555
B39 B63 1.838455 1_555
B39 B54 1.986046 1_555
B39 B7 2.011130 1_555
B39 B71 2.020233 1_555
B39 Cu7 2.206915 1_555
B40 B64 1.733806 1_555
B40 B56 1.795082 1_555
B40 B72 1.815726 1_555
B40 B48 1.845573 1_555
B40 Cu11 2.024711 1_555
B40 Cu6 2.104222 1_555
B41 B65 1.733806 1_555
B41 B57 1.795082 1_555
B41 B73 1.815726 1_555
B41 B49 1.845573 1_555
B41 Cu10 2.024711 1_555
B41 Cu7 2.104222 1_555
B42 B66 1.733806 1_555
B42 B58 1.795082 1_555
B42 B74 1.815726 1_555
B42 B50 1.845573 1_555
B42 Cu9 2.024711 1_555
B42 Cu4 2.104222 1_555
B43 B67 1.733806 1_555
B43 B59 1.795082 1_555
B43 B75 1.815726 1_555
B43 B51 1.845573 1_555
B43 Cu8 2.024711 1_555
B43 Cu5 2.104222 1_555
B44 B68 1.733806 1_555
B44 B60 1.795082 1_555
B44 B76 1.815726 1_555
B44 B52 1.845573 1_555
B44 Cu15 2.024711 1_555
B44 Cu2 2.104222 1_555
B45 B69 1.733806 1_555
B45 B61 1.795082 1_555
B45 B77 1.815726 1_555
B45 B53 1.845573 1_555
B45 Cu14 2.024711 1_555
B45 Cu3 2.104222 1_555
B46 B70 1.733806 1_555
B46 B62 1.795082 1_555
B46 B78 1.815726 1_555
B46 B54 1.845573 1_555
B46 Cu13 2.024711 1_555
B46 Cu0 2.104222 1_555
B47 B71 1.733806 1_555
B47 B63 1.795082 1_555
B47 B79 1.815726 1_555
B47 B55 1.845573 1_555
B47 Cu12 2.024711 1_555
B47 Cu1 2.104222 1_555
B48 B56 1.749364 1_555
B48 Cu1 2.096465 1_555
B48 Cu6 2.337864 1_555
B49 B57 1.749364 1_555
B49 Cu0 2.096465 1_455
B49 Cu7 2.337864 1_555
B50 B58 1.749364 1_555
B50 Cu3 2.096465 1_555
B50 Cu4 2.337864 1_555
B51 B59 1.749364 1_555
B51 Cu2 2.096465 1_655
B51 Cu5 2.337864 1_555
B52 B60 1.749364 1_555
B52 Cu5 2.096465 1_555
B52 Cu2 2.337864 1_555
B53 B61 1.749364 1_555
B53 Cu4 2.096465 1_655
B53 Cu3 2.337864 1_555
B54 B62 1.749364 1_555
B54 Cu7 2.096465 1_555
B54 Cu0 2.337864 1_555
B55 B63 1.749364 1_555
B55 Cu6 2.096465 1_455
B55 Cu1 2.337864 1_555
B56 B64 1.780068 1_555
B56 Cu1 2.632668 1_655
B57 B65 1.780068 1_555
B57 Cu0 2.632668 1_555
B58 B66 1.780068 1_555
B58 Cu3 2.632668 1_455
B59 B67 1.780068 1_555
B59 Cu2 2.632668 1_555
B60 B68 1.780068 1_555
B60 Cu5 2.632668 1_455
B61 B69 1.780068 1_555
B61 Cu4 2.632668 1_555
B62 B70 1.780068 1_555
B62 Cu7 2.632668 1_655
B63 B71 1.780068 1_555
B63 Cu6 2.632668 1_555
B64 B8 1.673246 1_545
B64 B72 1.914382 1_555
B64 Cu12 2.138039 1_655
B65 B9 1.673246 1_565
B65 B73 1.914382 1_555
B65 Cu13 2.138039 1_555
B66 B74 1.914382 1_555
B66 Cu14 2.138039 1_455
B67 B75 1.914382 1_555
B67 Cu15 2.138039 1_555
B68 B8 1.792561 1_456
B68 B76 1.914382 1_555
B68 Cu8 2.138039 1_455
B69 B9 1.792561 1_555
B69 B77 1.914382 1_555
B69 Cu9 2.138039 1_555
B70 B78 1.914382 1_555
B70 Cu10 2.138039 1_655
B71 B79 1.914382 1_555
B71 Cu11 2.138039 1_555
B72 B8 1.863325 1_545
B72 Cu12 2.528795 1_555
B72 Cu11 2.732399 1_555
B73 B9 1.863325 1_565
B73 Cu13 2.528795 1_455
B73 Cu10 2.732399 1_555
B74 Cu14 2.528795 1_555
B74 Cu9 2.732399 1_555
B75 Cu15 2.528795 1_655
B75 Cu8 2.732399 1_555
B76 Cu8 2.528795 1_555
B76 Cu15 2.732399 1_555
B77 Cu9 2.528795 1_655
B77 Cu14 2.732399 1_555
B78 Cu10 2.528795 1_555
B78 Cu13 2.732399 1_555
B79 Cu11 2.528795 1_455
B79 Cu12 2.732399 1_555
