# generated using pymatgen
data_NaVO3
_symmetry_space_group_name_H-M   'P 1'
_cell_length_a   5.89125797
_cell_length_b   7.09337866
_cell_length_c   7.09337897
_cell_angle_alpha   82.96980115
_cell_angle_beta   75.21124827
_cell_angle_gamma   75.21123400
_symmetry_Int_Tables_number   1
_chemical_formula_structural   NaVO3
_chemical_formula_sum   'Na4 V4 O12'
_cell_volume   276.59104605
_cell_formula_units_Z   4
loop_
 _symmetry_equiv_pos_site_id
 _symmetry_equiv_pos_as_xyz
  1  'x, y, z'
loop_
 _atom_site_type_symbol
 _atom_site_label
 _atom_site_symmetry_multiplicity
 _atom_site_fract_x
 _atom_site_fract_y
 _atom_site_fract_z
 _atom_site_occupancy
  Na  Na0  1  0.74929424  0.91310296  0.08702955  1
  Na  Na1  1  0.24929424  0.08702955  0.91310296  1
  Na  Na2  1  0.74894110  0.28291872  0.71768630  1
  Na  Na3  1  0.24894110  0.71768630  0.28291872  1
  V  V0  1  0.73065182  0.38298817  0.20282250  1
  V  V1  1  0.23065182  0.20282250  0.38298817  1
  V  V2  1  0.76749920  0.79774354  0.61756997  1
  V  V3  1  0.26749920  0.61756997  0.79774354  1
  O  O0  1  0.55275326  0.64851658  0.64545216  1
  O  O1  1  0.05275326  0.64545216  0.64851658  1
  O  O2  1  0.82497366  0.89393814  0.39192614  1
  O  O3  1  0.32497366  0.39192614  0.89393814  1
  O  O4  1  0.66434036  0.97411838  0.77312804  1
  O  O5  1  0.16434036  0.77312804  0.97411838  1
  O  O6  1  0.83368844  0.22731991  0.02651986  1
  O  O7  1  0.33368844  0.02651986  0.22731991  1
  O  O8  1  0.67247884  0.60862734  0.10663856  1
  O  O9  1  0.17247884  0.10663856  0.60862734  1
  O  O10  1  0.94567708  0.35560836  0.35174481  1
  O  O11  1  0.44567708  0.35174481  0.35560836  1
loop_
_geom_bond_atom_site_label_1
_geom_bond_atom_site_label_2
_geom_bond_distance
_geom_bond_site_symmetry_2
Na0 O8 2.298260 1_555
Na0 O2 2.298714 1_555
Na0 O5 2.358289 1_654
Na0 O7 2.361966 1_565
Na0 O4 2.370249 1_554
Na0 O6 2.371044 1_565
Na1 O9 2.298260 1_555
Na1 O3 2.298714 1_555
Na1 O4 2.358289 1_545
Na1 O6 2.361966 1_456
Na1 O5 2.370249 1_545
Na1 O7 2.371044 1_556
Na2 O4 2.333987 1_545
Na2 O6 2.334569 1_556
Na2 O9 2.458951 1_655
Na2 O3 2.460888 1_555
Na2 O0 2.602039 1_555
Na2 O10 2.605520 1_555
Na3 O5 2.333987 1_554
Na3 O7 2.334570 1_565
Na3 O8 2.458951 1_555
Na3 O2 2.460888 1_455
Na3 O1 2.602040 1_555
Na3 O11 2.605520 1_555
O0 V3 1.800765 1_555
O0 V2 1.806876 1_555
O1 V2 1.800764 1_455
O1 V3 1.806876 1_555
O2 V2 1.648037 1_555
O3 V3 1.648037 1_555
O4 V2 1.661192 1_555
O5 V3 1.661192 1_555
O6 V0 1.661328 1_555
O7 V1 1.661328 1_555
O8 V0 1.648247 1_555
O9 V1 1.648247 1_555
O10 V1 1.801254 1_655
O10 V0 1.807113 1_555
O11 V0 1.801255 1_555
O11 V1 1.807113 1_555
