# generated using pymatgen
data_Dy2Mn(GeO3)4
_symmetry_space_group_name_H-M   'P 1'
_cell_length_a   10.03003747
_cell_length_b   10.03003747
_cell_length_c   5.03363600
_cell_angle_alpha   90.00000000
_cell_angle_beta   90.00000000
_cell_angle_gamma   90.65823831
_symmetry_Int_Tables_number   1
_chemical_formula_structural   Dy2Mn(GeO3)4
_chemical_formula_sum   'Dy4 Mn2 Ge8 O24'
_cell_volume   506.35867766
_cell_formula_units_Z   2
loop_
 _symmetry_equiv_pos_site_id
 _symmetry_equiv_pos_as_xyz
  1  'x, y, z'
loop_
 _atom_site_type_symbol
 _atom_site_label
 _atom_site_symmetry_multiplicity
 _atom_site_fract_x
 _atom_site_fract_y
 _atom_site_fract_z
 _atom_site_occupancy
  Dy  Dy0  1  0.00000000  0.50000000  0.50000000  1
  Dy  Dy1  1  0.50000000  0.00000000  0.50000000  1
  Dy  Dy2  1  0.75000000  0.75000000  0.50000000  1
  Dy  Dy3  1  0.25000000  0.25000000  0.50000000  1
  Mn  Mn0  1  0.50000000  0.50000000  0.50000000  1
  Mn  Mn1  1  0.00000000  0.00000000  0.50000000  1
  Ge  Ge0  1  0.74664700  0.47856100  0.99561300  1
  Ge  Ge1  1  0.25335300  0.52143900  0.00438700  1
  Ge  Ge2  1  0.24664700  0.97856100  0.00438700  1
  Ge  Ge3  1  0.75335300  0.02143900  0.99561300  1
  Ge  Ge4  1  0.47856100  0.74664700  0.00438700  1
  Ge  Ge5  1  0.52143900  0.25335300  0.99561300  1
  Ge  Ge6  1  0.97856100  0.24664700  0.99561300  1
  Ge  Ge7  1  0.02143900  0.75335300  0.00438700  1
  O  O0  1  0.36939800  0.63060200  0.83324300  1
  O  O1  1  0.87299900  0.37299900  0.83202600  1
  O  O2  1  0.62700100  0.12700100  0.83202600  1
  O  O3  1  0.13060200  0.86939800  0.83324300  1
  O  O4  1  0.63060200  0.36939800  0.16675700  1
  O  O5  1  0.12700100  0.62700100  0.16797400  1
  O  O6  1  0.37299900  0.87299900  0.16797400  1
  O  O7  1  0.86939800  0.13060200  0.16675700  1
  O  O8  1  0.56345200  0.66849400  0.26113500  1
  O  O9  1  0.06306900  0.32937500  0.25188800  1
  O  O10  1  0.43693100  0.17062500  0.25188800  1
  O  O11  1  0.93654800  0.83150600  0.26113500  1
  O  O12  1  0.43654800  0.33150600  0.73886500  1
  O  O13  1  0.93693100  0.67062500  0.74811200  1
  O  O14  1  0.56306900  0.82937500  0.74811200  1
  O  O15  1  0.06345200  0.16849400  0.73886500  1
  O  O16  1  0.66849400  0.56345200  0.73886500  1
  O  O17  1  0.32937500  0.06306900  0.74811200  1
  O  O18  1  0.17062500  0.43693100  0.74811200  1
  O  O19  1  0.83150600  0.93654800  0.73886500  1
  O  O20  1  0.33150600  0.43654800  0.26113500  1
  O  O21  1  0.67062500  0.93693100  0.25188800  1
  O  O22  1  0.82937500  0.56306900  0.25188800  1
  O  O23  1  0.16849400  0.06345200  0.26113500  1
loop_
_geom_bond_atom_site_label_1
_geom_bond_atom_site_label_2
_geom_bond_distance
_geom_bond_site_symmetry_2
Dy0 O13 2.216666 1_455
Dy0 O22 2.216666 1_455
Dy0 O9 2.216666 1_555
Dy0 O18 2.216666 1_555
Dy0 O5 2.449738 1_555
Dy0 O1 2.449738 1_455
Dy1 O21 2.216666 1_545
Dy1 O14 2.216666 1_545
Dy1 O17 2.216666 1_555
Dy1 O10 2.216666 1_555
Dy1 O2 2.449738 1_555
Dy1 O6 2.449738 1_545
Dy2 O11 2.362159 1_555
Dy2 O19 2.362159 1_555
Dy2 O16 2.362159 1_555
Dy2 O8 2.362159 1_555
Dy2 O13 2.396505 1_555
Dy2 O21 2.396505 1_555
Dy2 O14 2.396505 1_555
Dy2 O22 2.396505 1_555
Dy3 O20 2.362159 1_555
Dy3 O12 2.362159 1_555
Dy3 O23 2.362159 1_555
Dy3 O15 2.362159 1_555
Dy3 O10 2.396505 1_555
Dy3 O18 2.396505 1_555
Dy3 O17 2.396505 1_555
Dy3 O9 2.396505 1_555
Mn0 O16 2.163816 1_555
Mn0 O8 2.163816 1_555
Mn0 O12 2.163816 1_555
Mn0 O20 2.163816 1_555
Mn0 O4 2.507006 1_555
Mn0 O0 2.507006 1_555
Mn1 O23 2.163816 1_555
Mn1 O15 2.163816 1_555
Mn1 O19 2.163816 1_445
Mn1 O11 2.163816 1_445
Mn1 O7 2.507006 1_455
Mn1 O3 2.507006 1_545
Ge0 O16 1.739258 1_555
Ge0 O22 1.747826 1_556
Ge0 O4 1.807328 1_556
Ge0 O1 1.853647 1_555
Ge1 O20 1.739258 1_555
Ge1 O18 1.747826 1_554
Ge1 O0 1.807328 1_554
Ge1 O5 1.853647 1_555
Ge2 O23 1.739258 1_565
Ge2 O17 1.747826 1_564
Ge2 O3 1.807328 1_554
Ge2 O6 1.853647 1_555
Ge3 O19 1.739258 1_545
Ge3 O21 1.747826 1_546
Ge3 O7 1.807328 1_556
Ge3 O2 1.853647 1_555
Ge4 O8 1.739258 1_555
Ge4 O14 1.747826 1_554
Ge4 O0 1.807328 1_554
Ge4 O6 1.853647 1_555
Ge5 O12 1.739258 1_555
Ge5 O10 1.747826 1_556
Ge5 O4 1.807328 1_556
Ge5 O2 1.853647 1_555
Ge6 O15 1.739258 1_655
Ge6 O9 1.747826 1_656
Ge6 O7 1.807328 1_556
Ge6 O1 1.853647 1_555
Ge7 O11 1.739258 1_455
Ge7 O13 1.747826 1_454
Ge7 O3 1.807328 1_554
Ge7 O5 1.853647 1_555
