# generated using pymatgen
data_HfMg14Zn
_symmetry_space_group_name_H-M   'P 1'
_cell_length_a   6.40093860
_cell_length_b   6.24902878
_cell_length_c   10.12543884
_cell_angle_alpha   90.00000000
_cell_angle_beta   90.00000000
_cell_angle_gamma   119.21799969
_symmetry_Int_Tables_number   1
_chemical_formula_structural   HfMg14Zn
_chemical_formula_sum   'Hf1 Mg14 Zn1'
_cell_volume   353.48357539
_cell_formula_units_Z   1
loop_
 _symmetry_equiv_pos_site_id
 _symmetry_equiv_pos_as_xyz
  1  'x, y, z'
loop_
 _atom_site_type_symbol
 _atom_site_label
 _atom_site_symmetry_multiplicity
 _atom_site_fract_x
 _atom_site_fract_y
 _atom_site_fract_z
 _atom_site_occupancy
  Hf  Hf0  1  0.15703343  0.82851621  0.12500000  1
  Mg  Mg0  1  0.16548198  0.33274049  0.62500000  1
  Mg  Mg1  1  0.16712492  0.83356196  0.62500000  1
  Mg  Mg2  1  0.65807944  0.33362815  0.12500000  1
  Mg  Mg3  1  0.66574977  0.33078696  0.62500000  1
  Mg  Mg4  1  0.65807944  0.82445029  0.12500000  1
  Mg  Mg5  1  0.66574977  0.83496181  0.62500000  1
  Mg  Mg6  1  0.33097573  0.16435001  0.36969050  1
  Mg  Mg7  1  0.33097573  0.16435001  0.88030950  1
  Mg  Mg8  1  0.33097573  0.66662673  0.36969050  1
  Mg  Mg9  1  0.33097573  0.66662673  0.88030950  1
  Mg  Mg10  1  0.84058970  0.17029535  0.36627224  1
  Mg  Mg11  1  0.84058970  0.17029535  0.88372776  1
  Mg  Mg12  1  0.83922599  0.66961349  0.37476601  1
  Mg  Mg13  1  0.83922599  0.66961349  0.87523399  1
  Zn  Zn0  1  0.17916693  0.33958297  0.12500000  1
loop_
_geom_bond_atom_site_label_1
_geom_bond_atom_site_label_2
_geom_bond_distance
_geom_bond_site_symmetry_2
Hf0 Mg8 3.082404 1_555
Hf0 Mg9 3.082404 1_554
Hf0 Mg6 3.082411 1_565
Hf0 Mg7 3.082411 1_564
Hf0 Mg13 3.089983 1_454
Hf0 Mg12 3.089983 1_455
Hf0 Zn0 3.126960 1_555
Hf0 Zn0 3.126960 1_565
Hf0 Mg2 3.181448 1_455
Hf0 Mg4 3.181449 1_455
Hf0 Mg2 3.219643 1_565
Hf0 Mg4 3.219644 1_555
Mg0 Mg1 3.124528 1_555
Mg0 Mg1 3.124528 1_545
Mg0 Mg7 3.162360 1_555
Mg0 Mg6 3.162360 1_555
Mg0 Mg9 3.162367 1_555
Mg0 Mg8 3.162367 1_555
Mg0 Mg10 3.187053 1_455
Mg0 Mg11 3.187053 1_455
Mg0 Mg5 3.192814 1_445
Mg0 Mg3 3.192814 1_455
Mg0 Mg5 3.208160 1_555
Mg0 Mg3 3.208160 1_555
Mg1 Mg13 3.126555 1_455
Mg1 Mg12 3.126555 1_455
Mg1 Mg9 3.152647 1_555
Mg1 Mg8 3.152647 1_555
Mg1 Mg7 3.152653 1_565
Mg1 Mg6 3.152653 1_565
Mg1 Mg3 3.187406 1_565
Mg1 Mg5 3.187406 1_555
Mg1 Mg3 3.213550 1_455
Mg1 Mg5 3.213551 1_455
Mg2 Mg4 3.067162 1_555
Mg2 Mg6 3.078812 1_555
Mg2 Mg7 3.078812 1_554
Mg2 Zn0 3.083825 1_555
Mg2 Mg4 3.181867 1_545
Mg2 Zn0 3.317444 1_655
Mg3 Mg5 3.098426 1_545
Mg3 Mg5 3.150603 1_555
Mg3 Mg7 3.190711 1_555
Mg3 Mg6 3.190711 1_555
Mg4 Mg8 3.078812 1_555
Mg4 Mg9 3.078812 1_554
Mg4 Zn0 3.083825 1_555
Mg4 Zn0 3.317443 1_665
Mg5 Mg9 3.190711 1_555
Mg5 Mg8 3.190711 1_555
Mg6 Zn0 3.052974 1_555
Mg6 Mg8 3.110287 1_545
Mg6 Mg8 3.138742 1_555
Mg7 Zn0 3.052974 1_556
Mg7 Mg9 3.110287 1_545
Mg7 Mg9 3.138742 1_555
Mg8 Zn0 3.052980 1_555
Mg9 Zn0 3.052980 1_556
Mg10 Mg2 3.088498 1_555
Mg10 Mg4 3.088505 1_545
Mg10 Zn0 3.089638 1_655
Mg10 Mg12 3.125707 1_555
Mg10 Mg12 3.125707 1_545
Mg10 Mg8 3.157422 1_655
Mg10 Mg6 3.157423 1_655
Mg10 Mg3 3.196416 1_555
Mg10 Mg5 3.196422 1_545
Mg10 Mg8 3.244219 1_545
Mg10 Mg6 3.244219 1_555
Mg11 Mg2 3.088498 1_556
Mg11 Mg4 3.088505 1_546
Mg11 Zn0 3.089638 1_656
Mg11 Mg13 3.125707 1_555
Mg11 Mg13 3.125707 1_545
Mg11 Mg9 3.157422 1_655
Mg11 Mg7 3.157423 1_655
Mg11 Mg3 3.196416 1_555
Mg11 Mg5 3.196422 1_545
Mg11 Mg9 3.244219 1_545
Mg11 Mg7 3.244219 1_555
Mg12 Mg4 3.125980 1_555
Mg12 Mg2 3.125986 1_555
Mg12 Mg5 3.136966 1_555
Mg12 Mg3 3.136972 1_555
Mg12 Mg6 3.157231 1_665
Mg12 Mg8 3.157231 1_655
Mg12 Mg6 3.244616 1_555
Mg12 Mg8 3.244616 1_555
Mg13 Mg4 3.125980 1_556
Mg13 Mg2 3.125986 1_556
Mg13 Mg5 3.136966 1_555
Mg13 Mg3 3.136972 1_555
Mg13 Mg7 3.157231 1_665
Mg13 Mg9 3.157231 1_655
Mg13 Mg7 3.244616 1_555
Mg13 Mg9 3.244616 1_555
