# generated using pymatgen
data_Ba3PrRu2O9
_symmetry_space_group_name_H-M   'P 1'
_cell_length_a   6.01601404
_cell_length_b   6.01601404
_cell_length_c   15.02181400
_cell_angle_alpha   90.00000000
_cell_angle_beta   90.00000000
_cell_angle_gamma   120.00000044
_symmetry_Int_Tables_number   1
_chemical_formula_structural   Ba3PrRu2O9
_chemical_formula_sum   'Ba6 Pr2 Ru4 O18'
_cell_volume   470.83711755
_cell_formula_units_Z   2
loop_
 _symmetry_equiv_pos_site_id
 _symmetry_equiv_pos_as_xyz
  1  'x, y, z'
loop_
 _atom_site_type_symbol
 _atom_site_label
 _atom_site_symmetry_multiplicity
 _atom_site_fract_x
 _atom_site_fract_y
 _atom_site_fract_z
 _atom_site_occupancy
  Ba  Ba0  1  0.33333300  0.66666700  0.60553200  1
  Ba  Ba1  1  0.00000000  0.00000000  0.25000000  1
  Ba  Ba2  1  0.66666700  0.33333300  0.39446800  1
  Ba  Ba3  1  0.66666700  0.33333300  0.10553200  1
  Ba  Ba4  1  0.33333300  0.66666700  0.89446800  1
  Ba  Ba5  1  0.00000000  0.00000000  0.75000000  1
  Pr  Pr0  1  0.00000000  0.00000000  0.50000000  1
  Pr  Pr1  1  0.00000000  0.00000000  0.00000000  1
  Ru  Ru0  1  0.33333300  0.66666700  0.33309300  1
  Ru  Ru1  1  0.66666700  0.33333300  0.83309300  1
  Ru  Ru2  1  0.66666700  0.33333300  0.66690700  1
  Ru  Ru3  1  0.33333300  0.66666700  0.16690700  1
  O  O0  1  0.17830300  0.82169700  0.09396800  1
  O  O1  1  0.17830300  0.35660600  0.09396800  1
  O  O2  1  0.64339400  0.82169700  0.09396800  1
  O  O3  1  0.35660600  0.17830300  0.59396800  1
  O  O4  1  0.82169700  0.64339400  0.90603200  1
  O  O5  1  0.82169700  0.17830300  0.59396800  1
  O  O6  1  0.82169700  0.64339400  0.59396800  1
  O  O7  1  0.17830300  0.82169700  0.40603200  1
  O  O8  1  0.64339400  0.82169700  0.40603200  1
  O  O9  1  0.35660600  0.17830300  0.90603200  1
  O  O10  1  0.82169700  0.17830300  0.90603200  1
  O  O11  1  0.17830300  0.35660600  0.40603200  1
  O  O12  1  0.49122500  0.98245000  0.25000000  1
  O  O13  1  0.50877500  0.49122500  0.75000000  1
  O  O14  1  0.98245000  0.49122500  0.75000000  1
  O  O15  1  0.01755000  0.50877500  0.25000000  1
  O  O16  1  0.49122500  0.50877500  0.25000000  1
  O  O17  1  0.50877500  0.01755000  0.75000000  1
loop_
_geom_bond_atom_site_label_1
_geom_bond_atom_site_label_2
_geom_bond_distance
_geom_bond_site_symmetry_2
Ba0 O17 2.837538 1_565
Ba0 O14 2.837538 1_455
Ba0 O13 2.837541 1_555
Ba0 O6 3.015455 1_455
Ba0 O3 3.015455 1_565
Ba0 O5 3.015457 1_455
Ba0 O5 3.015457 1_565
Ba0 O6 3.015461 1_555
Ba0 O3 3.015461 1_555
Ba0 O7 3.404512 1_555
Ba0 O11 3.404514 1_555
Ba0 O8 3.404514 1_555
Ba1 O11 2.990932 1_555
Ba1 O1 2.990932 1_555
Ba1 O8 2.990932 1_445
Ba1 O2 2.990932 1_445
Ba1 O0 2.990932 1_545
Ba1 O7 2.990932 1_545
Ba1 O16 3.009396 1_555
Ba1 O16 3.009396 1_445
Ba1 O15 3.009396 1_555
Ba1 O12 3.009396 1_445
Ba1 O12 3.009396 1_545
Ba1 O15 3.009396 1_545
Ba2 O12 2.837538 1_545
Ba2 O15 2.837538 1_655
Ba2 O16 2.837541 1_555
Ba2 O8 3.015455 1_545
Ba2 O11 3.015455 1_655
Ba2 O7 3.015457 1_545
Ba2 O7 3.015457 1_655
Ba2 O11 3.015461 1_555
Ba2 O8 3.015461 1_555
Ba2 O5 3.404512 1_555
Ba2 O6 3.404514 1_555
Ba2 O3 3.404514 1_555
Ba3 O12 2.837538 1_545
Ba3 O15 2.837538 1_655
Ba3 O16 2.837541 1_555
Ba3 O2 3.015455 1_545
Ba3 O1 3.015455 1_655
Ba3 O0 3.015457 1_545
Ba3 O0 3.015457 1_655
Ba3 O1 3.015461 1_555
Ba3 O2 3.015461 1_555
Ba3 O10 3.404512 1_554
Ba3 O4 3.404514 1_554
Ba3 O9 3.404514 1_554
Ba4 O17 2.837538 1_565
Ba4 O14 2.837538 1_455
Ba4 O13 2.837541 1_555
Ba4 O4 3.015455 1_455
Ba4 O9 3.015455 1_565
Ba4 O10 3.015457 1_455
Ba4 O10 3.015457 1_565
Ba4 O4 3.015461 1_555
Ba4 O9 3.015461 1_555
Ba4 O0 3.404512 1_556
Ba4 O2 3.404514 1_556
Ba4 O1 3.404514 1_556
Ba5 O9 2.990932 1_555
Ba5 O4 2.990932 1_445
Ba5 O3 2.990932 1_555
Ba5 O6 2.990932 1_445
Ba5 O10 2.990932 1_455
Ba5 O5 2.990932 1_455
Ba5 O13 3.009396 1_555
Ba5 O13 3.009396 1_445
Ba5 O17 3.009396 1_555
Ba5 O14 3.009396 1_445
Ba5 O14 3.009396 1_455
Ba5 O17 3.009396 1_455
O0 Ru3 1.951944 1_555
O0 Pr1 2.333327 1_565
O1 Ru3 1.951948 1_555
O1 Pr1 2.333327 1_555
O2 Ru3 1.951948 1_555
O2 Pr1 2.333327 1_665
O3 Ru2 1.951948 1_555
O3 Pr0 2.333327 1_555
O4 Ru1 1.951948 1_555
O4 Pr1 2.333327 1_666
O5 Ru2 1.951944 1_555
O5 Pr0 2.333327 1_655
O6 Ru2 1.951948 1_555
O6 Pr0 2.333327 1_665
O7 Ru0 1.951944 1_555
O7 Pr0 2.333327 1_565
O8 Ru0 1.951948 1_555
O8 Pr0 2.333327 1_665
O9 Ru1 1.951948 1_555
O9 Pr1 2.333327 1_556
O10 Ru1 1.951944 1_555
O10 Pr1 2.333327 1_656
O11 Ru0 1.951948 1_555
O11 Pr0 2.333327 1_555
O12 Ru0 2.065145 1_555
O12 Ru3 2.065145 1_555
O13 Ru1 2.065149 1_555
O13 Ru2 2.065149 1_555
O14 Ru1 2.065145 1_555
O14 Ru2 2.065145 1_555
O15 Ru3 2.065145 1_555
O15 Ru0 2.065145 1_555
O16 Ru0 2.065149 1_555
O16 Ru3 2.065149 1_555
O17 Ru1 2.065145 1_555
O17 Ru2 2.065145 1_555
