# generated using pymatgen
data_Mg5Pb
_symmetry_space_group_name_H-M   'P 1'
_cell_length_a   12.42634712
_cell_length_b   12.42634712
_cell_length_c   14.94204302
_cell_angle_alpha   75.69708517
_cell_angle_beta   75.69708517
_cell_angle_gamma   30.43861755
_symmetry_Int_Tables_number   1
_chemical_formula_structural   Mg5Pb
_chemical_formula_sum   'Mg40 Pb8'
_cell_volume   1129.93372212
_cell_formula_units_Z   8
loop_
 _symmetry_equiv_pos_site_id
 _symmetry_equiv_pos_as_xyz
  1  'x, y, z'
loop_
 _atom_site_type_symbol
 _atom_site_label
 _atom_site_symmetry_multiplicity
 _atom_site_fract_x
 _atom_site_fract_y
 _atom_site_fract_z
 _atom_site_occupancy
  Mg  Mg0_0  1  0.49863131  0.49863131  0.49755171  1
  Mg  Mg0_1  1  0.49863130  0.49863130  0.99755171  1
  Mg  Mg0_2  1  0.49863130  0.99863130  0.49755171  1
  Mg  Mg0_3  1  0.49863130  0.99863130  0.99755171  1
  Mg  Mg0_4  1  0.99863130  0.49863130  0.49755171  1
  Mg  Mg0_5  1  0.99863130  0.49863131  0.99755171  1
  Mg  Mg0_6  1  0.99863130  0.99863130  0.49755171  1
  Mg  Mg0_7  1  0.99863130  0.99863130  0.99755171  1
  Mg  Mg1_0  1  0.14057797  0.14057797  0.47014000  1
  Mg  Mg1_1  1  0.14057797  0.14057797  0.97014000  1
  Mg  Mg1_2  1  0.14057797  0.64057797  0.47014000  1
  Mg  Mg1_3  1  0.14057797  0.64057797  0.97014000  1
  Mg  Mg1_4  1  0.64057797  0.14057797  0.47014000  1
  Mg  Mg1_5  1  0.64057797  0.14057797  0.97014000  1
  Mg  Mg1_6  1  0.64057797  0.64057797  0.47014000  1
  Mg  Mg1_7  1  0.64057797  0.64057797  0.97014000  1
  Mg  Mg2_0  1  0.33386634  0.33386634  0.33579236  1
  Mg  Mg2_1  1  0.33386634  0.33386634  0.83579236  1
  Mg  Mg2_2  1  0.33386634  0.83386634  0.33579236  1
  Mg  Mg2_3  1  0.33386634  0.83386634  0.83579236  1
  Mg  Mg2_4  1  0.83386635  0.33386634  0.33579236  1
  Mg  Mg2_5  1  0.83386635  0.33386634  0.83579236  1
  Mg  Mg2_6  1  0.83386634  0.83386634  0.33579236  1
  Mg  Mg2_7  1  0.83386634  0.83386634  0.83579236  1
  Mg  Mg3_0  1  0.47149503  0.47149503  0.30653048  1
  Mg  Mg3_1  1  0.47149502  0.47149502  0.80653048  1
  Mg  Mg3_2  1  0.47149502  0.97149502  0.30653048  1
  Mg  Mg3_3  1  0.47149503  0.97149502  0.80653048  1
  Mg  Mg3_4  1  0.97149503  0.47149502  0.30653048  1
  Mg  Mg3_5  1  0.97149503  0.47149503  0.80653048  1
  Mg  Mg3_6  1  0.97149502  0.97149502  0.30653048  1
  Mg  Mg3_7  1  0.97149502  0.97149502  0.80653048  1
  Mg  Mg4_0  1  0.16670377  0.16670377  0.16757733  1
  Mg  Mg4_1  1  0.16670377  0.16670377  0.66757733  1
  Mg  Mg4_2  1  0.16670377  0.66670377  0.16757733  1
  Mg  Mg4_3  1  0.16670377  0.66670377  0.66757733  1
  Mg  Mg4_4  1  0.66670377  0.16670377  0.16757733  1
  Mg  Mg4_5  1  0.66670377  0.16670377  0.66757733  1
  Mg  Mg4_6  1  0.66670377  0.66670377  0.16757733  1
  Mg  Mg4_7  1  0.66670377  0.66670377  0.66757733  1
  Pb  Pb0_0  1  0.30539358  0.30539358  0.13907564  1
  Pb  Pb0_1  1  0.30539358  0.30539358  0.63907563  1
  Pb  Pb0_2  1  0.30539358  0.80539358  0.13907564  1
  Pb  Pb0_3  1  0.30539358  0.80539358  0.63907563  1
  Pb  Pb0_4  1  0.80539359  0.30539359  0.13907564  1
  Pb  Pb0_5  1  0.80539359  0.30539358  0.63907563  1
  Pb  Pb0_6  1  0.80539359  0.80539359  0.13907564  1
  Pb  Pb0_7  1  0.80539358  0.80539358  0.63907563  1
loop_
_geom_bond_atom_site_label_1
_geom_bond_atom_site_label_2
_geom_bond_distance
_geom_bond_site_symmetry_2
Mg0_0 Mg3_0 3.085663 1_555
Mg0_0 Mg1_4 3.175851 1_555
Mg0_0 Mg1_2 3.175851 1_555
Mg0_0 Mg2_2 3.185992 1_555
Mg0_0 Mg2_4 3.185992 1_555
Mg0_0 Mg4_5 3.227819 1_555
Mg0_0 Mg4_3 3.227819 1_555
Mg0_0 Pb0_3 3.234032 1_555
Mg0_0 Pb0_5 3.234032 1_555
Mg0_0 Mg0_6 3.262095 1_545
Mg0_0 Mg0_6 3.262095 1_455
Mg0_0 Mg1_6 3.322840 1_555
Mg0_1 Mg3_1 3.085663 1_555
Mg0_1 Mg1_5 3.175851 1_555
Mg0_1 Mg1_3 3.175851 1_555
Mg0_1 Mg2_3 3.185992 1_555
Mg0_1 Mg2_5 3.185992 1_555
Mg0_1 Mg4_4 3.227819 1_556
Mg0_1 Mg4_2 3.227819 1_556
Mg0_1 Pb0_2 3.234032 1_556
Mg0_1 Pb0_4 3.234032 1_556
Mg0_1 Mg0_7 3.262095 1_545
Mg0_1 Mg0_7 3.262095 1_455
Mg0_1 Mg1_7 3.322840 1_555
Mg0_2 Mg3_2 3.085663 1_555
Mg0_2 Mg1_0 3.175851 1_565
Mg0_2 Mg1_6 3.175851 1_555
Mg0_2 Mg2_6 3.185992 1_555
Mg0_2 Mg2_0 3.185992 1_565
Mg0_2 Mg4_1 3.227819 1_565
Mg0_2 Mg4_7 3.227819 1_555
Mg0_2 Pb0_7 3.234032 1_555
Mg0_2 Pb0_1 3.234032 1_565
Mg0_2 Mg0_4 3.262095 1_555
Mg0_2 Mg0_4 3.262095 1_465
Mg0_2 Mg1_4 3.322840 1_565
Mg0_3 Mg3_3 3.085663 1_555
Mg0_3 Mg1_1 3.175851 1_565
Mg0_3 Mg1_7 3.175851 1_555
Mg0_3 Mg2_1 3.185992 1_565
Mg0_3 Mg2_7 3.185992 1_555
Mg0_3 Mg4_0 3.227819 1_566
Mg0_3 Mg4_6 3.227819 1_556
Mg0_3 Pb0_0 3.234032 1_566
Mg0_3 Pb0_6 3.234032 1_556
Mg0_3 Mg0_5 3.262095 1_465
Mg0_3 Mg0_5 3.262095 1_555
Mg0_3 Mg1_5 3.322840 1_565
Mg0_4 Mg3_4 3.085663 1_555
Mg0_4 Mg1_0 3.175851 1_655
Mg0_4 Mg1_6 3.175851 1_555
Mg0_4 Mg2_6 3.185992 1_555
Mg0_4 Mg2_0 3.185992 1_655
Mg0_4 Mg4_1 3.227819 1_655
Mg0_4 Mg4_7 3.227819 1_555
Mg0_4 Pb0_7 3.234032 1_555
Mg0_4 Pb0_1 3.234032 1_655
Mg0_4 Mg1_2 3.322840 1_655
Mg0_5 Mg3_5 3.085663 1_555
Mg0_5 Mg1_1 3.175851 1_655
Mg0_5 Mg1_7 3.175851 1_555
Mg0_5 Mg2_7 3.185992 1_555
Mg0_5 Mg2_1 3.185992 1_655
Mg0_5 Mg4_0 3.227819 1_656
Mg0_5 Mg4_6 3.227819 1_556
Mg0_5 Pb0_6 3.234032 1_556
Mg0_5 Pb0_0 3.234032 1_656
Mg0_5 Mg1_3 3.322840 1_655
Mg0_6 Mg3_6 3.085663 1_555
Mg0_6 Mg1_4 3.175851 1_565
Mg0_6 Mg1_2 3.175851 1_655
Mg0_6 Mg2_2 3.185992 1_655
Mg0_6 Mg2_4 3.185992 1_565
Mg0_6 Mg4_5 3.227819 1_565
Mg0_6 Mg4_3 3.227819 1_655
Mg0_6 Pb0_3 3.234032 1_655
Mg0_6 Pb0_5 3.234032 1_565
Mg0_6 Mg1_0 3.322840 1_665
Mg0_7 Mg3_7 3.085663 1_555
Mg0_7 Mg1_5 3.175851 1_565
Mg0_7 Mg1_3 3.175851 1_655
Mg0_7 Mg2_3 3.185992 1_655
Mg0_7 Mg2_5 3.185992 1_565
Mg0_7 Mg4_4 3.227819 1_566
Mg0_7 Mg4_2 3.227819 1_656
Mg0_7 Pb0_2 3.234032 1_656
Mg0_7 Pb0_4 3.234032 1_566
Mg0_7 Mg1_1 3.322840 1_665
Mg1_0 Mg2_4 3.152406 1_455
Mg1_0 Mg2_2 3.152406 1_545
Mg1_0 Mg3_2 3.158012 1_545
Mg1_0 Mg3_4 3.158012 1_455
Mg1_0 Mg4_1 3.168938 1_555
Mg1_0 Pb0_5 3.250348 1_455
Mg1_0 Pb0_3 3.250348 1_545
Mg1_0 Mg1_6 3.262095 1_455
Mg1_0 Mg1_6 3.262095 1_545
Mg1_1 Mg2_5 3.152406 1_455
Mg1_1 Mg2_3 3.152406 1_545
Mg1_1 Mg3_3 3.158012 1_545
Mg1_1 Mg3_5 3.158012 1_455
Mg1_1 Mg4_0 3.168938 1_556
Mg1_1 Pb0_4 3.250348 1_456
Mg1_1 Pb0_2 3.250348 1_546
Mg1_1 Mg1_7 3.262095 1_545
Mg1_1 Mg1_7 3.262095 1_455
Mg1_2 Mg2_0 3.152406 1_555
Mg1_2 Mg2_6 3.152406 1_455
Mg1_2 Mg3_6 3.158012 1_455
Mg1_2 Mg3_0 3.158012 1_555
Mg1_2 Mg4_3 3.168938 1_555
Mg1_2 Pb0_1 3.250348 1_555
Mg1_2 Pb0_7 3.250348 1_455
Mg1_2 Mg1_4 3.262095 1_465
Mg1_2 Mg1_4 3.262095 1_555
Mg1_3 Mg2_7 3.152406 1_455
Mg1_3 Mg2_1 3.152406 1_555
Mg1_3 Mg3_1 3.158012 1_555
Mg1_3 Mg3_7 3.158012 1_455
Mg1_3 Mg4_2 3.168938 1_556
Mg1_3 Pb0_6 3.250348 1_456
Mg1_3 Pb0_0 3.250348 1_556
Mg1_3 Mg1_5 3.262095 1_555
Mg1_3 Mg1_5 3.262095 1_465
Mg1_4 Mg2_0 3.152406 1_555
Mg1_4 Mg2_6 3.152406 1_545
Mg1_4 Mg3_6 3.158012 1_545
Mg1_4 Mg3_0 3.158012 1_555
Mg1_4 Mg4_5 3.168938 1_555
Mg1_4 Pb0_1 3.250348 1_555
Mg1_4 Pb0_7 3.250348 1_545
Mg1_5 Mg2_1 3.152406 1_555
Mg1_5 Mg2_7 3.152406 1_545
Mg1_5 Mg3_1 3.158012 1_555
Mg1_5 Mg3_7 3.158012 1_545
Mg1_5 Mg4_4 3.168938 1_556
Mg1_5 Pb0_6 3.250348 1_546
Mg1_5 Pb0_0 3.250348 1_556
Mg1_6 Mg2_4 3.152406 1_555
Mg1_6 Mg2_2 3.152406 1_555
Mg1_6 Mg3_2 3.158012 1_555
Mg1_6 Mg3_4 3.158012 1_555
Mg1_6 Mg4_7 3.168938 1_555
Mg1_6 Pb0_5 3.250348 1_555
Mg1_6 Pb0_3 3.250348 1_555
Mg1_7 Mg2_5 3.152406 1_555
Mg1_7 Mg2_3 3.152406 1_555
Mg1_7 Mg3_3 3.158012 1_555
Mg1_7 Mg3_5 3.158012 1_555
Mg1_7 Mg4_6 3.168938 1_556
Mg1_7 Pb0_4 3.250348 1_556
Mg1_7 Pb0_2 3.250348 1_556
Mg2_0 Pb0_0 3.183348 1_555
Mg2_0 Mg3_0 3.216429 1_555
Mg2_0 Mg4_2 3.219850 1_555
Mg2_0 Mg4_4 3.219850 1_555
Mg2_0 Mg2_6 3.262095 1_545
Mg2_0 Mg2_6 3.262095 1_455
Mg2_0 Mg3_4 3.273633 1_455
Mg2_0 Mg3_2 3.273633 1_545
Mg2_1 Pb0_1 3.183348 1_555
Mg2_1 Mg3_1 3.216429 1_555
Mg2_1 Mg4_3 3.219850 1_555
Mg2_1 Mg4_5 3.219850 1_555
Mg2_1 Mg2_7 3.262095 1_545
Mg2_1 Mg2_7 3.262095 1_455
Mg2_1 Mg3_5 3.273633 1_455
Mg2_1 Mg3_3 3.273633 1_545
Mg2_2 Pb0_2 3.183348 1_555
Mg2_2 Mg3_2 3.216429 1_555
Mg2_2 Mg4_6 3.219850 1_555
Mg2_2 Mg4_0 3.219850 1_565
Mg2_2 Mg2_4 3.262095 1_465
Mg2_2 Mg2_4 3.262095 1_555
Mg2_2 Mg3_0 3.273633 1_555
Mg2_2 Mg3_6 3.273633 1_455
Mg2_3 Pb0_3 3.183348 1_555
Mg2_3 Mg3_3 3.216429 1_555
Mg2_3 Mg4_7 3.219850 1_555
Mg2_3 Mg4_1 3.219850 1_565
Mg2_3 Mg2_5 3.262095 1_465
Mg2_3 Mg2_5 3.262095 1_555
Mg2_3 Mg3_7 3.273633 1_455
Mg2_3 Mg3_1 3.273633 1_555
Mg2_4 Pb0_4 3.183348 1_555
Mg2_4 Mg3_4 3.216429 1_555
Mg2_4 Mg4_6 3.219850 1_555
Mg2_4 Mg4_0 3.219850 1_655
Mg2_4 Mg3_0 3.273633 1_555
Mg2_4 Mg3_6 3.273633 1_545
Mg2_5 Pb0_5 3.183348 1_555
Mg2_5 Mg3_5 3.216429 1_555
Mg2_5 Mg4_7 3.219850 1_555
Mg2_5 Mg4_1 3.219850 1_655
Mg2_5 Mg3_7 3.273633 1_545
Mg2_5 Mg3_1 3.273633 1_555
Mg2_6 Pb0_6 3.183348 1_555
Mg2_6 Mg3_6 3.216429 1_555
Mg2_6 Mg4_2 3.219850 1_655
Mg2_6 Mg4_4 3.219850 1_565
Mg2_6 Mg3_4 3.273633 1_555
Mg2_6 Mg3_2 3.273633 1_555
Mg2_7 Pb0_7 3.183348 1_555
Mg2_7 Mg3_7 3.216429 1_555
Mg2_7 Mg4_3 3.219850 1_655
Mg2_7 Mg4_5 3.219850 1_565
Mg2_7 Mg3_5 3.273633 1_555
Mg2_7 Mg3_3 3.273633 1_555
Mg3_0 Mg4_4 3.177185 1_555
Mg3_0 Mg4_2 3.177185 1_555
Mg3_0 Pb0_2 3.223533 1_555
Mg3_0 Pb0_4 3.223533 1_555
Mg3_0 Mg3_6 3.262095 1_455
Mg3_0 Mg3_6 3.262095 1_545
Mg3_1 Mg4_5 3.177185 1_555
Mg3_1 Mg4_3 3.177185 1_555
Mg3_1 Pb0_3 3.223533 1_555
Mg3_1 Pb0_5 3.223533 1_555
Mg3_1 Mg3_7 3.262095 1_455
Mg3_1 Mg3_7 3.262095 1_545
Mg3_2 Mg4_0 3.177185 1_565
Mg3_2 Mg4_6 3.177185 1_555
Mg3_2 Pb0_0 3.223533 1_565
Mg3_2 Pb0_6 3.223533 1_555
Mg3_2 Mg3_4 3.262095 1_465
Mg3_2 Mg3_4 3.262095 1_555
Mg3_3 Mg4_7 3.177185 1_555
Mg3_3 Mg4_1 3.177185 1_565
Mg3_3 Pb0_7 3.223533 1_555
Mg3_3 Pb0_1 3.223533 1_565
Mg3_3 Mg3_5 3.262095 1_555
Mg3_3 Mg3_5 3.262095 1_465
Mg3_4 Mg4_0 3.177185 1_655
Mg3_4 Mg4_6 3.177185 1_555
Mg3_4 Pb0_0 3.223533 1_655
Mg3_4 Pb0_6 3.223533 1_555
Mg3_5 Mg4_7 3.177185 1_555
Mg3_5 Mg4_1 3.177185 1_655
Mg3_5 Pb0_7 3.223533 1_555
Mg3_5 Pb0_1 3.223533 1_655
Mg3_6 Mg4_4 3.177185 1_565
Mg3_6 Mg4_2 3.177185 1_655
Mg3_6 Pb0_2 3.223533 1_655
Mg3_6 Pb0_4 3.223533 1_565
Mg3_7 Mg4_5 3.177185 1_565
Mg3_7 Mg4_3 3.177185 1_655
Mg3_7 Pb0_3 3.223533 1_655
Mg3_7 Pb0_5 3.223533 1_565
Mg4_0 Pb0_0 3.243129 1_555
Mg4_0 Pb0_4 3.247945 1_455
Mg4_0 Pb0_2 3.247945 1_545
Mg4_0 Mg4_6 3.262095 1_545
Mg4_0 Mg4_6 3.262095 1_455
Mg4_1 Pb0_1 3.243129 1_555
Mg4_1 Pb0_5 3.247945 1_455
Mg4_1 Pb0_3 3.247945 1_545
Mg4_1 Mg4_7 3.262095 1_455
Mg4_1 Mg4_7 3.262095 1_545
Mg4_2 Pb0_2 3.243129 1_555
Mg4_2 Pb0_6 3.247945 1_455
Mg4_2 Pb0_0 3.247945 1_555
Mg4_2 Mg4_4 3.262095 1_555
Mg4_2 Mg4_4 3.262095 1_465
Mg4_3 Pb0_3 3.243129 1_555
Mg4_3 Pb0_1 3.247945 1_555
Mg4_3 Pb0_7 3.247945 1_455
Mg4_3 Mg4_5 3.262095 1_555
Mg4_3 Mg4_5 3.262095 1_465
Mg4_4 Pb0_4 3.243129 1_555
Mg4_4 Pb0_6 3.247945 1_545
Mg4_4 Pb0_0 3.247945 1_555
Mg4_5 Pb0_5 3.243129 1_555
Mg4_5 Pb0_1 3.247945 1_555
Mg4_5 Pb0_7 3.247945 1_545
Mg4_6 Pb0_6 3.243129 1_555
Mg4_6 Pb0_4 3.247945 1_555
Mg4_6 Pb0_2 3.247945 1_555
Mg4_7 Pb0_7 3.243129 1_555
Mg4_7 Pb0_5 3.247945 1_555
Mg4_7 Pb0_3 3.247945 1_555
Pb0_0 Pb0_6 3.262095 1_455
Pb0_0 Pb0_6 3.262095 1_545
Pb0_1 Pb0_7 3.262095 1_545
Pb0_1 Pb0_7 3.262095 1_455
Pb0_2 Pb0_4 3.262095 1_465
Pb0_2 Pb0_4 3.262095 1_555
Pb0_3 Pb0_5 3.262095 1_465
Pb0_3 Pb0_5 3.262095 1_555
