# generated using pymatgen
data_Sr2YMn2O7
_symmetry_space_group_name_H-M   'P 1'
_cell_length_a   13.31716463
_cell_length_b   13.31716463
_cell_length_c   13.31716463
_cell_angle_alpha   157.19653569
_cell_angle_beta   156.99479810
_cell_angle_gamma   32.61523640
_symmetry_Int_Tables_number   1
_chemical_formula_structural   Sr2YMn2O7
_chemical_formula_sum   'Sr4 Y2 Mn4 O14'
_cell_volume   357.43066106
_cell_formula_units_Z   2
loop_
 _symmetry_equiv_pos_site_id
 _symmetry_equiv_pos_as_xyz
  1  'x, y, z'
loop_
 _atom_site_type_symbol
 _atom_site_label
 _atom_site_symmetry_multiplicity
 _atom_site_fract_x
 _atom_site_fract_y
 _atom_site_fract_z
 _atom_site_occupancy
  Sr  Sr0  1  0.82126900  0.77782000  0.95655100  1
  Sr  Sr1  1  0.17873100  0.22218000  0.04344900  1
  Sr  Sr2  1  0.67873100  0.63528200  0.95655100  1
  Sr  Sr3  1  0.32126900  0.36471800  0.04344900  1
  Y  Y0  1  0.50000000  0.50000000  0.00000000  1
  Y  Y1  1  0.00000000  0.00000000  0.00000000  1
  Mn  Mn0  1  0.42129100  0.92613800  0.50484700  1
  Mn  Mn1  1  0.57870900  0.07386200  0.49515300  1
  Mn  Mn2  1  0.07870900  0.58355600  0.50484700  1
  Mn  Mn3  1  0.92129100  0.41644400  0.49515300  1
  O  O0  1  0.00000000  0.50000000  0.00000000  1
  O  O1  1  0.50000000  0.50000000  0.50000000  1
  O  O2  1  0.19619100  0.19619100  0.50000000  1
  O  O3  1  0.30380900  0.80380900  0.00000000  1
  O  O4  1  0.80380900  0.80380900  0.50000000  1
  O  O5  1  0.69619100  0.19619100  0.00000000  1
  O  O6  1  0.69239800  0.69239800  0.50000000  1
  O  O7  1  0.80760200  0.30760200  0.00000000  1
  O  O8  1  0.30760200  0.30760200  0.50000000  1
  O  O9  1  0.19239800  0.69239800  0.00000000  1
  O  O10  1  0.84736800  0.33249100  0.48512400  1
  O  O11  1  0.15263200  0.66750900  0.51487600  1
  O  O12  1  0.65263200  0.13775600  0.48512400  1
  O  O13  1  0.34736800  0.86224400  0.51487600  1
loop_
_geom_bond_atom_site_label_1
_geom_bond_atom_site_label_2
_geom_bond_distance
_geom_bond_site_symmetry_2
Mn0 O13 1.890415 1_555
Mn0 O5 1.958153 1_566
Mn0 O2 1.958153 1_565
Mn0 O6 1.963340 1_555
Mn0 O9 1.963340 1_555
Mn1 O12 1.890415 1_555
Mn1 O4 1.958153 1_545
Mn1 O3 1.958153 1_545
Mn1 O7 1.963340 1_556
Mn1 O8 1.963340 1_555
Mn2 O11 1.890428 1_555
Mn2 O3 1.958153 1_556
Mn2 O4 1.958153 1_455
Mn2 O8 1.963340 1_555
Mn2 O7 1.963340 1_455
Mn3 O10 1.890428 1_555
Mn3 O5 1.958153 1_555
Mn3 O2 1.958153 1_655
Mn3 O6 1.963340 1_555
Mn3 O9 1.963340 1_656
O0 Sr0 2.502977 1_454
O0 Sr3 2.502977 1_555
O0 Sr1 2.502977 1_555
O0 Sr2 2.502977 1_454
O1 Sr0 2.502977 1_555
O1 Sr3 2.502977 1_555
O1 Sr2 2.502977 1_555
O1 Sr1 2.502977 1_555
O2 Y0 2.321157 1_556
O2 Y1 2.321157 1_555
O3 Y1 2.321157 1_565
O3 Y0 2.321157 1_555
O4 Y1 2.321157 1_666
O4 Y0 2.321157 1_555
O5 Y1 2.321157 1_655
O5 Y0 2.321157 1_555
O6 Y0 2.379897 1_555
O6 Y1 2.379897 1_666
O7 Y1 2.379897 1_655
O7 Y0 2.379897 1_555
O8 Y0 2.379897 1_556
O8 Y1 2.379897 1_555
O9 Y0 2.379897 1_555
O9 Y1 2.379897 1_565
O10 Sr0 2.570282 1_555
O10 Sr3 2.755293 1_656
O10 Sr3 2.755298 1_555
O10 Sr0 2.861918 1_544
O11 Sr1 2.570282 1_555
O11 Sr2 2.755293 1_454
O11 Sr2 2.755298 1_555
O11 Sr1 2.861918 1_566
O12 Sr2 2.570283 1_555
O12 Sr1 2.755298 1_555
O12 Sr1 2.755298 1_656
O12 Sr2 2.861924 1_544
O13 Sr3 2.570283 1_555
O13 Sr0 2.755298 1_555
O13 Sr0 2.755298 1_454
O13 Sr3 2.861924 1_566
