# generated using pymatgen
data_Te4Mo3WS4
_symmetry_space_group_name_H-M   'P 1'
_cell_length_a   3.36338401
_cell_length_b   3.36338401
_cell_length_c   38.31731600
_cell_angle_alpha   90.00000000
_cell_angle_beta   90.00000000
_cell_angle_gamma   120.00000023
_symmetry_Int_Tables_number   1
_chemical_formula_structural   Te4Mo3WS4
_chemical_formula_sum   'Te4 Mo3 W1 S4'
_cell_volume   375.38647574
_cell_formula_units_Z   1
loop_
 _symmetry_equiv_pos_site_id
 _symmetry_equiv_pos_as_xyz
  1  'x, y, z'
loop_
 _atom_site_type_symbol
 _atom_site_label
 _atom_site_symmetry_multiplicity
 _atom_site_fract_x
 _atom_site_fract_y
 _atom_site_fract_z
 _atom_site_occupancy
  Te  Te0  1  0.33333300  0.66666700  0.33139500  1
  Te  Te1  1  0.33333300  0.66666700  0.70679200  1
  Te  Te2  1  0.33333300  0.66666700  0.23217900  1
  Te  Te3  1  0.33333300  0.66666700  0.60826000  1
  Mo  Mo0  1  0.33333300  0.66666700  0.09392400  1
  Mo  Mo1  1  0.33333300  0.66666700  0.46966500  1
  Mo  Mo2  1  0.66666700  0.33333300  0.65753800  1
  W  W0  1  0.66666700  0.33333300  0.28179900  1
  S  S0  1  0.66666700  0.33333300  0.05443900  1
  S  S1  1  0.66666700  0.33333300  0.43022900  1
  S  S2  1  0.66666700  0.33333300  0.13342800  1
  S  S3  1  0.66666700  0.33333300  0.50910000  1
loop_
_geom_bond_atom_site_label_1
_geom_bond_atom_site_label_2
_geom_bond_distance
_geom_bond_site_symmetry_2
Te0 W0 2.717028 1_455
Te0 W0 2.717028 1_565
Te0 W0 2.717032 1_555
Te2 W0 2.717671 1_455
Te2 W0 2.717671 1_565
Te2 W0 2.717676 1_555
Mo0 S0 2.461671 1_565
Mo0 S0 2.461671 1_455
Mo0 S0 2.461675 1_555
Mo0 S2 2.462118 1_455
Mo0 S2 2.462118 1_565
Mo0 S2 2.462123 1_555
Mo1 S3 2.460494 1_455
Mo1 S3 2.460494 1_565
Mo1 S3 2.460498 1_555
Mo1 S1 2.460517 1_565
Mo1 S1 2.460517 1_455
Mo1 S1 2.460522 1_555
Mo2 Te1 2.707879 1_545
Mo2 Te1 2.707879 1_655
Mo2 Te1 2.707883 1_555
Mo2 Te3 2.708520 1_545
Mo2 Te3 2.708520 1_655
Mo2 Te3 2.708524 1_555
