# generated using pymatgen
data_Sr2MgV2(Si2O7)2
_symmetry_space_group_name_H-M   'P 1'
_cell_length_a   5.52375694
_cell_length_b   7.42198128
_cell_length_c   8.13272921
_cell_angle_alpha   75.91593170
_cell_angle_beta   110.25517862
_cell_angle_gamma   93.15184078
_symmetry_Int_Tables_number   1
_chemical_formula_structural   Sr2MgV2(Si2O7)2
_chemical_formula_sum   'Sr2 Mg1 V2 Si4 O14'
_cell_volume   303.24084565
_cell_formula_units_Z   1
loop_
 _symmetry_equiv_pos_site_id
 _symmetry_equiv_pos_as_xyz
  1  'x, y, z'
loop_
 _atom_site_type_symbol
 _atom_site_label
 _atom_site_symmetry_multiplicity
 _atom_site_fract_x
 _atom_site_fract_y
 _atom_site_fract_z
 _atom_site_occupancy
  Sr  Sr0  1  0.19186000  0.68668300  0.36462300  1
  Sr  Sr1  1  0.84855700  0.32859400  0.70140200  1
  Mg  Mg0  1  0.72941300  0.07247100  0.45238400  1
  V  V0  1  0.95040100  0.75156500  0.81661100  1
  V  V1  1  0.11575700  0.19850100  0.23959500  1
  Si  Si0  1  0.41494900  0.50396700  0.80332300  1
  Si  Si1  1  0.59423600  0.46502300  0.23106500  1
  Si  Si2  1  0.60705700  0.90847700  0.17437800  1
  Si  Si3  1  0.36582100  0.07131100  0.74788800  1
  O  O0  1  0.64817400  0.67908800  0.26269900  1
  O  O1  1  0.36248300  0.29627500  0.75150900  1
  O  O2  1  0.50645300  0.47637900  0.01844600  1
  O  O3  1  0.51207000  0.95280600  0.95637900  1
  O  O4  1  0.61808500  0.60944200  0.70938200  1
  O  O5  1  0.85609700  0.33286600  0.34860900  1
  O  O6  1  0.42125000  0.99040700  0.26123200  1
  O  O7  1  0.06089200  0.00992800  0.68295100  1
  O  O8  1  0.97884700  0.28013600  0.00349000  1
  O  O9  1  0.03365300  0.73804300  0.04431200  1
  O  O10  1  0.89402500  0.97584200  0.28769800  1
  O  O11  1  0.52793600  0.05526500  0.62094200  1
  O  O12  1  0.13173100  0.60969800  0.70051400  1
  O  O13  1  0.38025300  0.38686400  0.32473300  1
loop_
_geom_bond_atom_site_label_1
_geom_bond_atom_site_label_2
_geom_bond_distance
_geom_bond_site_symmetry_2
Mg0 O11 2.022272 1_555
Mg0 O6 2.049344 1_545
Mg0 O7 2.092070 1_655
Mg0 O5 2.098443 1_555
Mg0 O10 2.125421 1_545
O0 Si1 1.665235 1_555
O0 Si2 1.673466 1_555
O0 Sr0 2.826638 1_655
O0 Sr0 2.920374 1_555
O1 Si3 1.678310 1_555
O1 Si0 1.679343 1_555
O1 Sr1 2.740203 1_455
O1 Sr1 2.841086 1_555
O2 Si0 1.607179 1_554
O2 Si1 1.607878 1_555
O3 Si2 1.617965 1_556
O3 Si3 1.644729 1_565
O4 Si0 1.631400 1_555
O4 V0 2.090240 1_555
O4 Sr1 2.526797 1_555
O4 Sr0 2.920368 1_555
O5 Si1 1.646338 1_555
O5 V1 2.303438 1_655
O5 Sr1 2.876317 1_555
O5 Sr0 3.133114 1_655
O6 Si2 1.643703 1_555
O6 V1 2.283117 1_565
O6 Sr0 2.625879 1_555
O7 Si3 1.655388 1_555
O7 V0 2.132455 1_445
O7 Sr1 2.755299 1_455
O8 V1 1.762045 1_655
O8 Sr1 2.248851 1_554
O9 V0 1.725052 1_454
O9 Sr0 2.381623 1_555
O10 Si2 1.654570 1_555
O10 V1 2.044187 1_665
O10 Sr0 2.593456 1_655
O11 Si3 1.610486 1_555
O11 Sr1 2.669962 1_555
O12 Si0 1.634718 1_555
O12 V0 2.063504 1_455
O12 Sr1 2.537952 1_455
O12 Sr0 2.783296 1_555
O13 Si1 1.626928 1_555
O13 V1 2.028429 1_555
O13 Sr0 2.641903 1_555
