# generated using pymatgen
data_Na2S2O5
_symmetry_space_group_name_H-M   'P 1'
_cell_length_a   5.65948075
_cell_length_b   6.18863660
_cell_length_c   26.83259726
_cell_angle_alpha   103.01549119
_cell_angle_beta   92.81215262
_cell_angle_gamma   90.78134207
_symmetry_Int_Tables_number   1
_chemical_formula_structural   Na2S2O5
_chemical_formula_sum   'Na12 S12 O30'
_cell_volume   914.25636903
_cell_formula_units_Z   6
loop_
 _symmetry_equiv_pos_site_id
 _symmetry_equiv_pos_as_xyz
  1  'x, y, z'
loop_
 _atom_site_type_symbol
 _atom_site_label
 _atom_site_symmetry_multiplicity
 _atom_site_fract_x
 _atom_site_fract_y
 _atom_site_fract_z
 _atom_site_occupancy
  Na  Na0  1  0.25338000  0.88560800  0.43938800  1
  Na  Na1  1  0.27664600  0.88401000  0.78702700  1
  Na  Na2  1  0.27151800  0.88682000  0.10931100  1
  Na  Na3  1  0.24582800  0.35126500  0.01329400  1
  Na  Na4  1  0.22574500  0.33952500  0.34414200  1
  Na  Na5  1  0.20692800  0.36757500  0.68560700  1
  Na  Na6  1  0.70094600  0.15476100  0.56312500  1
  Na  Na7  1  0.71660600  0.10952200  0.22926200  1
  Na  Na8  1  0.74064000  0.12206800  0.88806900  1
  Na  Na9  1  0.75037700  0.68923000  0.31038800  1
  Na  Na10  1  0.79070500  0.66582900  0.97845900  1
  Na  Na11  1  0.76535400  0.71295100  0.66044400  1
  S  S0  1  0.23239800  0.42523500  0.23610600  1
  S  S1  1  0.26440200  0.44313200  0.90776800  1
  S  S2  1  0.21623200  0.44353500  0.57454200  1
  S  S3  1  0.22957500  0.80676700  0.24257300  1
  S  S4  1  0.23399200  0.84037600  0.92310900  1
  S  S5  1  0.17025900  0.84538200  0.57352500  1
  S  S6  1  0.74374900  0.56031700  0.42408300  1
  S  S7  1  0.76341400  0.55482900  0.09378600  1
  S  S8  1  0.74868600  0.55505700  0.77086700  1
  S  S9  1  0.76142600  0.15637000  0.40456700  1
  S  S10  1  0.78105200  0.15020100  0.07058800  1
  S  S11  1  0.81593800  0.18769500  0.77448900  1
  O  O0  1  0.01508300  0.40101600  0.26557000  1
  O  O1  1  0.04547500  0.39241100  0.93516100  1
  O  O2  1  0.00370100  0.41926200  0.60584100  1
  O  O3  1  0.22579300  0.84125000  0.19000300  1
  O  O4  1  0.15855600  0.84642600  0.51797300  1
  O  O5  1  0.33717500  0.89188300  0.87613400  1
  O  O6  1  0.45190100  0.41031900  0.26973800  1
  O  O7  1  0.48379000  0.42420700  0.94285100  1
  O  O8  1  0.44202400  0.43632800  0.60728300  1
  O  O9  1  0.32483900  0.03004400  0.70232500  1
  O  O10  1  0.52949000  0.58906700  0.06695800  1
  O  O11  1  0.51319700  0.58824000  0.39485200  1
  O  O12  1  0.51305000  0.55026200  0.74180100  1
  O  O13  1  0.44959000  0.90046000  0.27338900  1
  O  O14  1  0.42793000  0.94402000  0.66136500  1
  O  O15  1  0.55837700  0.14201300  0.48008800  1
  O  O16  1  0.58493500  0.14271400  0.14700600  1
  O  O17  1  0.61852300  0.10639500  0.80079300  1
  O  O18  1  0.82499400  0.09523800  0.12697800  1
  O  O19  1  0.03823700  0.20429400  0.80674600  1
  O  O20  1  0.80233400  0.10605700  0.46140000  1
  O  O21  1  0.99844800  0.11327000  0.38138200  1
  O  O22  1  0.01652900  0.10775600  0.04653800  1
  O  O23  1  0.84211200  0.06122400  0.72151600  1
  O  O24  1  0.94951900  0.60021500  0.39262500  1
  O  O25  1  0.96497800  0.60063200  0.06173700  1
  O  O26  1  0.94587100  0.58553600  0.73634700  1
  O  O27  1  0.01171200  0.88794000  0.26889400  1
  O  O28  1  0.96617200  0.85965500  0.92251100  1
  O  O29  1  0.93227200  0.88710600  0.59660800  1
loop_
_geom_bond_atom_site_label_1
_geom_bond_atom_site_label_2
_geom_bond_distance
_geom_bond_site_symmetry_2
Na0 O4 2.265161 1_555
Na0 O15 2.376943 1_565
Na0 O11 2.496514 1_555
Na0 O24 2.521597 1_455
Na0 O21 2.704081 1_465
Na0 O20 2.933647 1_465
Na1 O17 2.324313 1_565
Na1 O19 2.387445 1_565
Na1 O5 2.388132 1_555
Na1 O12 2.575743 1_555
Na1 O9 2.652538 1_565
Na1 O26 2.700023 1_455
Na2 O3 2.272117 1_555
Na2 O16 2.388114 1_565
Na2 O10 2.472141 1_555
Na2 O25 2.540992 1_455
Na2 O22 2.764375 1_565
Na2 O18 2.864543 1_465
Na3 O22 2.327343 1_555
Na3 O10 2.360237 1_555
Na3 O1 2.400207 1_554
Na3 O25 2.442065 1_455
Na3 O7 2.491535 1_554
Na4 O21 2.306748 1_455
Na4 O11 2.374515 1_555
Na4 O24 2.462126 1_455
Na4 O0 2.477549 1_555
Na4 O6 2.538780 1_555
Na5 O26 2.297934 1_455
Na5 O9 2.332504 1_555
Na5 O12 2.340020 1_555
Na5 O2 2.466384 1_555
Na5 O8 2.651400 1_555
Na6 O15 2.316110 1_555
Na6 O2 2.411380 1_655
Na6 O29 2.424650 1_545
Na6 O8 2.428498 1_555
Na7 O16 2.348612 1_555
Na7 O0 2.453701 1_655
Na7 O13 2.484312 1_545
Na7 O6 2.492822 1_555
Na7 O27 2.519076 1_645
Na8 O17 2.389210 1_555
Na8 O28 2.395283 1_545
Na8 O1 2.475333 1_655
Na8 O7 2.610714 1_555
Na8 O5 2.641935 1_545
Na9 O27 2.380780 1_655
Na9 O6 2.431911 1_555
Na9 O13 2.464080 1_555
Na9 O0 2.481009 1_655
Na9 O24 2.600646 1_555
Na9 O11 2.870991 1_555
Na10 O7 2.299725 1_555
Na10 O28 2.367192 1_555
Na10 O1 2.374307 1_655
Na10 O25 2.515861 1_556
Na11 O14 2.399052 1_555
Na11 O23 2.415220 1_565
Na11 O29 2.439373 1_555
Na11 O2 2.516144 1_655
Na11 O26 2.520858 1_555
Na11 O8 2.621524 1_555
O0 S0 1.517858 1_555
O1 S1 1.535129 1_555
O2 S2 1.525014 1_555
O3 S3 1.472587 1_555
O4 S5 1.490299 1_555
O5 S4 1.509803 1_555
O6 S0 1.515519 1_555
O7 S1 1.542872 1_555
O8 S2 1.521770 1_555
O10 S7 1.516121 1_555
O11 S6 1.521299 1_555
O12 S8 1.507985 1_555
O13 S3 1.494556 1_555
O14 O9 1.280470 1_565
O15 O20 1.494412 1_555
O16 O18 1.494107 1_555
O17 S11 1.490500 1_555
O18 S10 1.632236 1_555
O19 S11 1.480573 1_455
O20 S9 1.630125 1_555
O21 S9 1.508139 1_555
O22 S10 1.509653 1_455
O23 S11 1.475683 1_555
O24 S6 1.520573 1_555
O25 S7 1.522635 1_555
O26 S8 1.520953 1_555
O27 S3 1.487938 1_555
O28 S4 1.521616 1_655
O29 S5 1.511192 1_655
