# generated using pymatgen
data_K2Fe2P2O7F2
_symmetry_space_group_name_H-M   'P 1'
_cell_length_a   6.94419900
_cell_length_b   10.57902200
_cell_length_c   11.41415900
_cell_angle_alpha   90.00000000
_cell_angle_beta   90.00000000
_cell_angle_gamma   90.00000000
_symmetry_Int_Tables_number   1
_chemical_formula_structural   K2Fe2P2O7F2
_chemical_formula_sum   'K8 Fe8 P8 O28 F8'
_cell_volume   838.51646779
_cell_formula_units_Z   4
loop_
 _symmetry_equiv_pos_site_id
 _symmetry_equiv_pos_as_xyz
  1  'x, y, z'
loop_
 _atom_site_type_symbol
 _atom_site_label
 _atom_site_symmetry_multiplicity
 _atom_site_fract_x
 _atom_site_fract_y
 _atom_site_fract_z
 _atom_site_occupancy
  K  K0  1  0.50092700  0.06568100  0.82664300  1
  K  K1  1  0.99907300  0.56568100  0.67335700  1
  K  K2  1  0.00092700  0.93431900  0.67335700  1
  K  K3  1  0.49907300  0.43431900  0.82664300  1
  K  K4  1  0.49907300  0.93431900  0.17335700  1
  K  K5  1  0.00092700  0.43431900  0.32664300  1
  K  K6  1  0.99907300  0.06568100  0.32664300  1
  K  K7  1  0.50092700  0.56568100  0.17335700  1
  Fe  Fe0  1  0.00000000  0.25000000  0.83560300  1
  Fe  Fe1  1  0.50000000  0.75000000  0.66439700  1
  Fe  Fe2  1  0.00000000  0.75000000  0.16439700  1
  Fe  Fe3  1  0.50000000  0.25000000  0.33560300  1
  Fe  Fe4  1  0.00000000  0.00000000  0.00000000  1
  Fe  Fe5  1  0.50000000  0.50000000  0.50000000  1
  Fe  Fe6  1  0.50000000  0.00000000  0.50000000  1
  Fe  Fe7  1  0.00000000  0.50000000  0.00000000  1
  P  P0  1  0.21830700  0.24858300  0.57931200  1
  P  P1  1  0.28169300  0.74858300  0.92068800  1
  P  P2  1  0.71830700  0.75141700  0.92068800  1
  P  P3  1  0.78169300  0.25141700  0.57931200  1
  P  P4  1  0.78169300  0.75141700  0.42068800  1
  P  P5  1  0.71830700  0.25141700  0.07931200  1
  P  P6  1  0.28169300  0.24858300  0.07931200  1
  P  P7  1  0.21830700  0.74858300  0.42068800  1
  O  O0  1  0.00000000  0.25000000  0.52198500  1
  O  O1  1  0.50000000  0.75000000  0.97801500  1
  O  O2  1  0.00000000  0.75000000  0.47801500  1
  O  O3  1  0.50000000  0.25000000  0.02198500  1
  O  O4  1  0.17414500  0.32886900  0.98724400  1
  O  O5  1  0.32585500  0.82886900  0.51275600  1
  O  O6  1  0.67414500  0.67113100  0.51275600  1
  O  O7  1  0.82585500  0.17113100  0.98724400  1
  O  O8  1  0.82585500  0.67113100  0.01275600  1
  O  O9  1  0.67414500  0.17113100  0.48724400  1
  O  O10  1  0.32585500  0.32886900  0.48724400  1
  O  O11  1  0.17414500  0.82886900  0.01275600  1
  O  O12  1  0.28040900  0.10962200  0.58323100  1
  O  O13  1  0.21959100  0.60962200  0.91676900  1
  O  O14  1  0.78040900  0.89037800  0.91676900  1
  O  O15  1  0.71959100  0.39037800  0.58323100  1
  O  O16  1  0.71959100  0.89037800  0.41676900  1
  O  O17  1  0.78040900  0.39037800  0.08323100  1
  O  O18  1  0.21959100  0.10962200  0.08323100  1
  O  O19  1  0.28040900  0.60962200  0.41676900  1
  O  O20  1  0.20630600  0.30936000  0.70084800  1
  O  O21  1  0.29369400  0.80936000  0.79915200  1
  O  O22  1  0.70630600  0.69064000  0.79915200  1
  O  O23  1  0.79369400  0.19064000  0.70084800  1
  O  O24  1  0.79369400  0.69064000  0.29915200  1
  O  O25  1  0.70630600  0.19064000  0.20084800  1
  O  O26  1  0.29369400  0.30936000  0.20084800  1
  O  O27  1  0.20630600  0.80936000  0.29915200  1
  F  F0  1  0.11576900  0.07585300  0.84433400  1
  F  F1  1  0.38423100  0.57585300  0.65566600  1
  F  F2  1  0.61576900  0.92414700  0.65566600  1
  F  F3  1  0.88423100  0.42414700  0.84433400  1
  F  F4  1  0.88423100  0.92414700  0.15566600  1
  F  F5  1  0.61576900  0.42414700  0.34433400  1
  F  F6  1  0.38423100  0.07585300  0.34433400  1
  F  F7  1  0.11576900  0.57585300  0.15566600  1
loop_
_geom_bond_atom_site_label_1
_geom_bond_atom_site_label_2
_geom_bond_distance
_geom_bond_site_symmetry_2
K0 O23 2.818227 1_555
K0 O14 2.874747 1_545
K0 O3 2.962029 1_556
K0 O21 3.085821 1_545
K0 O7 3.113840 1_555
K0 O12 3.206279 1_555
K1 O22 2.818227 1_555
K1 O15 2.874747 1_555
K1 O2 2.962029 1_655
K1 O20 3.085821 1_655
K1 O6 3.113840 1_555
K1 O13 3.206279 1_655
K2 O21 2.818227 1_555
K2 O12 2.874747 1_565
K2 O2 2.962029 1_555
K2 O23 3.085821 1_465
K2 O5 3.113840 1_555
K2 O14 3.206279 1_455
K3 O20 2.818227 1_555
K3 O13 2.874747 1_555
K3 O3 2.962029 1_556
K3 O22 3.085821 1_555
K3 O4 3.113840 1_555
K3 O15 3.206279 1_555
K4 O27 2.818227 1_555
K4 O18 2.874747 1_565
K4 O1 2.962029 1_554
K4 O25 3.085821 1_565
K4 O11 3.113840 1_555
K4 O16 3.206279 1_555
K5 O26 2.818227 1_555
K5 O19 2.874747 1_555
K5 O0 2.962029 1_555
K5 O24 3.085821 1_455
K5 O10 3.113840 1_555
K5 O17 3.206279 1_455
K6 O25 2.818227 1_555
K6 O16 2.874747 1_545
K6 O0 2.962029 1_655
K6 O27 3.085821 1_645
K6 O9 3.113840 1_555
K6 O18 3.206279 1_655
K7 O24 2.818227 1_555
K7 O17 2.874747 1_555
K7 O1 2.962029 1_554
K7 O26 3.085821 1_555
K7 O8 3.113840 1_555
K7 O19 3.206279 1_555
Fe0 O20 2.193758 1_555
Fe0 O23 2.193758 1_455
Fe0 O4 2.270332 1_555
Fe0 O7 2.270332 1_455
Fe1 O22 2.193758 1_555
Fe1 O21 2.193758 1_555
Fe1 O5 2.270332 1_555
Fe1 O6 2.270332 1_555
Fe2 O24 2.193758 1_455
Fe2 O27 2.193758 1_555
Fe2 O11 2.270332 1_555
Fe2 O8 2.270332 1_455
Fe3 O25 2.193758 1_555
Fe3 O26 2.193758 1_555
Fe3 O10 2.270332 1_555
Fe3 O9 2.270332 1_555
Fe4 O18 2.138383 1_555
Fe4 O14 2.138383 1_444
Fe4 O7 2.182004 1_454
Fe4 O11 2.182004 1_545
Fe5 O15 2.138383 1_555
Fe5 O19 2.138383 1_555
Fe5 O6 2.182004 1_555
Fe5 O10 2.182004 1_555
Fe6 O16 2.138383 1_545
Fe6 O12 2.138383 1_555
Fe6 O5 2.182004 1_545
Fe6 O9 2.182004 1_555
Fe7 O13 2.138383 1_554
Fe7 O17 2.138383 1_455
Fe7 O8 2.182004 1_455
Fe7 O4 2.182004 1_554
O0 P0 1.651224 1_555
O0 P3 1.651224 1_455
O1 P2 1.651224 1_555
O1 P1 1.651224 1_555
O2 P7 1.651224 1_555
O2 P4 1.651224 1_455
O3 P5 1.651224 1_555
O3 P6 1.651224 1_555
O4 P6 1.543859 1_556
O5 P7 1.543859 1_555
O6 P4 1.543859 1_555
O7 P5 1.543859 1_556
O8 P2 1.543859 1_554
O9 P3 1.543859 1_555
O10 P0 1.543859 1_555
O11 P1 1.543859 1_554
O12 P0 1.532673 1_555
O13 P1 1.532673 1_555
O14 P2 1.532673 1_555
O15 P3 1.532673 1_555
O16 P4 1.532673 1_555
O17 P5 1.532673 1_555
O18 P6 1.532673 1_555
O19 P7 1.532673 1_555
O20 P0 1.531259 1_555
O21 P1 1.531259 1_555
O22 P2 1.531259 1_555
O23 P3 1.531259 1_555
O24 P4 1.531259 1_555
O25 P5 1.531259 1_555
O26 P6 1.531259 1_555
O27 P7 1.531259 1_555
F0 Fe0 2.012538 1_555
F0 Fe4 2.108844 1_556
F0 K2 2.585816 1_545
F0 K0 2.684383 1_555
F1 Fe1 2.012538 1_555
F1 Fe5 2.108844 1_555
F1 K3 2.585816 1_555
F1 K1 2.684383 1_455
F2 Fe1 2.012538 1_555
F2 Fe6 2.108844 1_565
F2 K0 2.585816 1_565
F2 K2 2.684383 1_655
F3 Fe0 2.012538 1_655
F3 Fe7 2.108844 1_656
F3 K1 2.585816 1_555
F3 K3 2.684383 1_555
F4 Fe2 2.012538 1_655
F4 Fe4 2.108844 1_665
F4 K6 2.585816 1_565
F4 K4 2.684383 1_555
F5 Fe3 2.012538 1_555
F5 Fe5 2.108844 1_555
F5 K7 2.585816 1_555
F5 K5 2.684383 1_655
F6 Fe3 2.012538 1_555
F6 Fe6 2.108844 1_555
F6 K4 2.585816 1_545
F6 K6 2.684383 1_455
F7 Fe2 2.012538 1_555
F7 Fe7 2.108844 1_555
F7 K5 2.585816 1_555
F7 K7 2.684383 1_555
