# generated using pymatgen
data_H4Pt
_symmetry_space_group_name_H-M   'P 1'
_cell_length_a   5.80782790
_cell_length_b   5.80782790
_cell_length_c   5.80782790
_cell_angle_alpha   109.47122063
_cell_angle_beta   109.47122063
_cell_angle_gamma   109.47122063
_symmetry_Int_Tables_number   1
_chemical_formula_structural   H4Pt
_chemical_formula_sum   'H12 Pt3'
_cell_volume   150.80624443
_cell_formula_units_Z   3
loop_
 _symmetry_equiv_pos_site_id
 _symmetry_equiv_pos_as_xyz
  1  'x, y, z'
loop_
 _atom_site_type_symbol
 _atom_site_label
 _atom_site_symmetry_multiplicity
 _atom_site_fract_x
 _atom_site_fract_y
 _atom_site_fract_z
 _atom_site_occupancy
  H  H0  1  0.74951900  0.74951900  0.00000000  1
  H  H1  1  0.25048100  0.00000000  0.25048100  1
  H  H2  1  0.00000000  0.25048100  0.25048100  1
  H  H3  1  0.25048100  0.25048100  0.00000000  1
  H  H4  1  0.74951900  0.00000000  0.74951900  1
  H  H5  1  0.00000000  0.74951900  0.74951900  1
  H  H6  1  0.75000000  0.25000000  0.50000000  1
  H  H7  1  0.75000000  0.50000000  0.25000000  1
  H  H8  1  0.50000000  0.25000000  0.75000000  1
  H  H9  1  0.25000000  0.50000000  0.75000000  1
  H  H10  1  0.25000000  0.75000000  0.50000000  1
  H  H11  1  0.50000000  0.75000000  0.25000000  1
  Pt  Pt0  1  0.00000000  0.50000000  0.50000000  1
  Pt  Pt1  1  0.50000000  0.50000000  0.00000000  1
  Pt  Pt2  1  0.50000000  0.00000000  0.50000000  1
loop_
_geom_bond_atom_site_label_1
_geom_bond_atom_site_label_2
_geom_bond_distance
_geom_bond_site_symmetry_2
H0 Pt1 1.673350 1_555
H1 Pt2 1.673350 1_555
H2 Pt0 1.673350 1_555
H3 Pt1 1.673350 1_555
H4 Pt2 1.673350 1_555
H5 Pt0 1.673350 1_555
H6 Pt2 1.676575 1_555
H6 Pt0 1.676575 1_655
H7 Pt0 1.676575 1_655
H7 Pt1 1.676575 1_555
H8 Pt1 1.676575 1_556
H8 Pt2 1.676575 1_555
H9 Pt0 1.676575 1_555
H9 Pt1 1.676575 1_556
H10 Pt0 1.676575 1_555
H10 Pt2 1.676575 1_565
H11 Pt2 1.676575 1_565
H11 Pt1 1.676575 1_555
