# generated using pymatgen
data_MgPO7
_symmetry_space_group_name_H-M   'P 1'
_cell_length_a   10.73112693
_cell_length_b   10.03166966
_cell_length_c   10.55212928
_cell_angle_alpha   90.00000000
_cell_angle_beta   90.00000000
_cell_angle_gamma   90.00000000
_symmetry_Int_Tables_number   1
_chemical_formula_structural   MgPO7
_chemical_formula_sum   'Mg8 P8 O56'
_cell_volume   1135.94854003
_cell_formula_units_Z   8
loop_
 _symmetry_equiv_pos_site_id
 _symmetry_equiv_pos_as_xyz
  1  'x, y, z'
loop_
 _atom_site_type_symbol
 _atom_site_label
 _atom_site_symmetry_multiplicity
 _atom_site_fract_x
 _atom_site_fract_y
 _atom_site_fract_z
 _atom_site_occupancy
  Mg  Mg0  1  0.39957993  0.81819226  0.22172039  1
  Mg  Mg1  1  0.60042007  0.31819226  0.27827961  1
  Mg  Mg2  1  0.10042007  0.18180774  0.72172039  1
  Mg  Mg3  1  0.89957993  0.68180774  0.77827961  1
  Mg  Mg4  1  0.60042007  0.18180774  0.77827961  1
  Mg  Mg5  1  0.39957993  0.68180774  0.72172039  1
  Mg  Mg6  1  0.89957993  0.81819226  0.27827961  1
  Mg  Mg7  1  0.10042007  0.31819226  0.22172039  1
  P  P0  1  0.36230807  0.49075859  0.13082041  1
  P  P1  1  0.63769193  0.99075859  0.36917959  1
  P  P2  1  0.13769193  0.50924141  0.63082041  1
  P  P3  1  0.86230807  0.00924141  0.86917959  1
  P  P4  1  0.63769193  0.50924141  0.86917959  1
  P  P5  1  0.36230807  0.00924141  0.63082041  1
  P  P6  1  0.86230807  0.49075859  0.36917959  1
  P  P7  1  0.13769193  0.99075859  0.13082041  1
  O  O0  1  0.23889818  0.43495092  0.18254518  1
  O  O1  1  0.76110182  0.93495092  0.31745482  1
  O  O2  1  0.26110182  0.56504908  0.68254518  1
  O  O3  1  0.73889818  0.06504908  0.81745482  1
  O  O4  1  0.76110182  0.56504908  0.81745482  1
  O  O5  1  0.23889818  0.06504908  0.68254518  1
  O  O6  1  0.73889818  0.43495092  0.31745482  1
  O  O7  1  0.26110182  0.93495092  0.18254518  1
  O  O8  1  0.47334409  0.41188749  0.18256711  1
  O  O9  1  0.52665591  0.91188749  0.31743289  1
  O  O10  1  0.02665591  0.58811251  0.68256711  1
  O  O11  1  0.97334409  0.08811251  0.81743289  1
  O  O12  1  0.52665591  0.58811251  0.81743289  1
  O  O13  1  0.47334409  0.08811251  0.68256711  1
  O  O14  1  0.97334409  0.41188749  0.31743289  1
  O  O15  1  0.02665591  0.91188749  0.18256711  1
  O  O16  1  0.37721517  0.63950200  0.15909257  1
  O  O17  1  0.62278483  0.13950200  0.34090743  1
  O  O18  1  0.12278483  0.36049800  0.65909257  1
  O  O19  1  0.87721517  0.86049800  0.84090743  1
  O  O20  1  0.62278483  0.36049800  0.84090743  1
  O  O21  1  0.37721517  0.86049800  0.65909257  1
  O  O22  1  0.87721517  0.63950200  0.34090743  1
  O  O23  1  0.12278483  0.13950200  0.15909257  1
  O  O24  1  0.34200594  0.46718840  0.98598724  1
  O  O25  1  0.65799406  0.96718840  0.51401276  1
  O  O26  1  0.15799406  0.53281160  0.48598724  1
  O  O27  1  0.84200594  0.03281160  0.01401276  1
  O  O28  1  0.65799406  0.53281160  0.01401276  1
  O  O29  1  0.34200594  0.03281160  0.48598724  1
  O  O30  1  0.84200594  0.46718840  0.51401276  1
  O  O31  1  0.15799406  0.96718840  0.98598724  1
  O  O32  1  0.50172747  0.68171279  0.44576792  1
  O  O33  1  0.49827253  0.18171279  0.05423208  1
  O  O34  1  0.99827253  0.31828721  0.94576792  1
  O  O35  1  0.00172747  0.81828721  0.55423208  1
  O  O36  1  0.49827253  0.31828721  0.55423208  1
  O  O37  1  0.50172747  0.81828721  0.94576792  1
  O  O38  1  0.00172747  0.68171279  0.05423208  1
  O  O39  1  0.99827253  0.18171279  0.44576792  1
  O  O40  1  0.38482987  0.70664628  0.42512267  1
  O  O41  1  0.61517013  0.20664628  0.07487733  1
  O  O42  1  0.11517013  0.29335372  0.92512267  1
  O  O43  1  0.88482987  0.79335372  0.57487733  1
  O  O44  1  0.61517013  0.29335372  0.57487733  1
  O  O45  1  0.38482987  0.79335372  0.92512267  1
  O  O46  1  0.88482987  0.70664628  0.07487733  1
  O  O47  1  0.11517013  0.20664628  0.42512267  1
  O  O48  1  0.53227138  0.84807051  0.06154333  1
  O  O49  1  0.46772862  0.34807051  0.43845667  1
  O  O50  1  0.96772862  0.15192949  0.56154333  1
  O  O51  1  0.03227138  0.65192949  0.93845667  1
  O  O52  1  0.46772862  0.15192949  0.93845667  1
  O  O53  1  0.53227138  0.65192949  0.56154333  1
  O  O54  1  0.03227138  0.84807051  0.43845667  1
  O  O55  1  0.96772862  0.34807051  0.06154333  1
loop_
_geom_bond_atom_site_label_1
_geom_bond_atom_site_label_2
_geom_bond_distance
_geom_bond_site_symmetry_2
Mg0 O16 1.925515 1_555
Mg0 O7 1.936767 1_555
Mg0 O9 1.939866 1_555
Mg0 O48 2.230295 1_555
Mg0 O40 2.425679 1_555
Mg1 O17 1.925515 1_555
Mg1 O6 1.936767 1_555
Mg1 O8 1.939866 1_555
Mg1 O49 2.230295 1_555
Mg1 O41 2.425679 1_555
Mg2 O18 1.925515 1_555
Mg2 O5 1.936767 1_555
Mg2 O11 1.939866 1_455
Mg2 O50 2.230295 1_455
Mg2 O42 2.425679 1_555
Mg3 O19 1.925515 1_555
Mg3 O4 1.936767 1_555
Mg3 O10 1.939866 1_655
Mg3 O51 2.230295 1_655
Mg3 O43 2.425679 1_555
Mg4 O20 1.925515 1_555
Mg4 O3 1.936767 1_555
Mg4 O13 1.939866 1_555
Mg4 O52 2.230295 1_555
Mg4 O44 2.425679 1_555
Mg5 O21 1.925515 1_555
Mg5 O2 1.936767 1_555
Mg5 O12 1.939866 1_555
Mg5 O53 2.230295 1_555
Mg5 O45 2.425679 1_555
Mg6 O22 1.925515 1_555
Mg6 O1 1.936767 1_555
Mg6 O15 1.939866 1_655
Mg6 O54 2.230295 1_655
Mg6 O46 2.425679 1_555
Mg7 O23 1.925515 1_555
Mg7 O0 1.936767 1_555
Mg7 O14 1.939866 1_455
Mg7 O55 2.230295 1_455
Mg7 O47 2.425679 1_555
O0 P0 1.537912 1_555
O1 P1 1.537912 1_555
O2 P2 1.537912 1_555
O3 P3 1.537912 1_555
O4 P4 1.537912 1_555
O5 P5 1.537912 1_555
O6 P6 1.537912 1_555
O7 P7 1.537912 1_555
O8 P0 1.530993 1_555
O9 P1 1.530993 1_555
O10 P2 1.530993 1_555
O11 P3 1.530993 1_555
O12 P4 1.530993 1_555
O13 P5 1.530993 1_555
O14 P6 1.530993 1_555
O15 P7 1.530993 1_555
O16 P0 1.530061 1_555
O17 P1 1.530061 1_545
O18 P2 1.530061 1_555
O19 P3 1.530061 1_565
O20 P4 1.530061 1_555
O21 P5 1.530061 1_565
O22 P6 1.530061 1_555
O23 P7 1.530061 1_545
O24 P0 1.561752 1_556
O25 P1 1.561752 1_555
O26 P2 1.561752 1_555
O27 P3 1.561752 1_554
O28 P4 1.561752 1_554
O29 P5 1.561752 1_555
O30 P6 1.561752 1_555
O31 P7 1.561752 1_556
O32 O40 1.297555 1_555
O32 O53 1.299691 1_555
O33 O41 1.297555 1_555
O33 O52 1.299691 1_554
O34 O42 1.297555 1_655
O34 O55 1.299691 1_556
O35 O43 1.297555 1_455
O35 O54 1.299691 1_555
O36 O44 1.297555 1_555
O36 O49 1.299691 1_555
O37 O45 1.297555 1_555
O37 O48 1.299691 1_556
O38 O46 1.297555 1_455
O38 O51 1.299691 1_554
O39 O47 1.297555 1_655
O39 O50 1.299691 1_555
