# generated using pymatgen
data_CaSn2(PO4)2
_symmetry_space_group_name_H-M   'P 1'
_cell_length_a   9.44528297
_cell_length_b   9.44528297
_cell_length_c   19.30844189
_cell_angle_alpha   63.97422643
_cell_angle_beta   63.97422643
_cell_angle_gamma   32.45277561
_symmetry_Int_Tables_number   1
_chemical_formula_structural   CaSn2(PO4)2
_chemical_formula_sum   'Ca4 Sn8 P8 O32'
_cell_volume   822.17873112
_cell_formula_units_Z   4
loop_
 _symmetry_equiv_pos_site_id
 _symmetry_equiv_pos_as_xyz
  1  'x, y, z'
loop_
 _atom_site_type_symbol
 _atom_site_label
 _atom_site_symmetry_multiplicity
 _atom_site_fract_x
 _atom_site_fract_y
 _atom_site_fract_z
 _atom_site_occupancy
  Ca  Ca0  1  0.46824100  0.86409300  0.83744000  1
  Ca  Ca1  1  0.13590700  0.53175900  0.66256000  1
  Ca  Ca2  1  0.86409300  0.46824100  0.33744000  1
  Ca  Ca3  1  0.53175900  0.13590700  0.16256000  1
  Sn  Sn0  1  0.18224800  0.63084200  0.97835900  1
  Sn  Sn1  1  0.36915800  0.81775200  0.52164100  1
  Sn  Sn2  1  0.81775200  0.36915800  0.02164100  1
  Sn  Sn3  1  0.50000000  0.00000000  0.00000000  1
  Sn  Sn4  1  0.63084200  0.18224800  0.47835900  1
  Sn  Sn5  1  0.67714200  0.32285800  0.25000000  1
  Sn  Sn6  1  0.32285800  0.67714200  0.75000000  1
  Sn  Sn7  1  0.00000000  0.50000000  0.50000000  1
  P  P0  1  0.05017400  0.49419100  0.86514000  1
  P  P1  1  0.72132200  0.23397000  0.61646700  1
  P  P2  1  0.94982600  0.50580900  0.13486000  1
  P  P3  1  0.23397000  0.72132200  0.11646700  1
  P  P4  1  0.49419100  0.05017400  0.36514000  1
  P  P5  1  0.50580900  0.94982600  0.63486000  1
  P  P6  1  0.27867800  0.76603000  0.38353300  1
  P  P7  1  0.76603000  0.27867800  0.88353300  1
  O  O0  1  0.74658100  0.80846700  0.10594300  1
  O  O1  1  0.67322300  0.47291600  0.91964900  1
  O  O2  1  0.80846700  0.74658100  0.60594300  1
  O  O3  1  0.76680400  0.37632700  0.55786600  1
  O  O4  1  0.20418200  0.35163400  0.06905500  1
  O  O5  1  0.56350200  0.34155400  0.69597900  1
  O  O6  1  0.62367300  0.23319600  0.94213400  1
  O  O7  1  0.92819700  0.98272400  0.12542400  1
  O  O8  1  0.23319600  0.62367300  0.44213400  1
  O  O9  1  0.52708400  0.32677700  0.58035100  1
  O  O10  1  0.82946500  0.45310900  0.14068800  1
  O  O11  1  0.59126400  0.94911000  0.29062300  1
  O  O12  1  0.32677700  0.52708400  0.08035100  1
  O  O13  1  0.98272400  0.92819700  0.62542400  1
  O  O14  1  0.25341900  0.19153300  0.89405700  1
  O  O15  1  0.17053500  0.54689100  0.85931200  1
  O  O16  1  0.94911000  0.59126400  0.79062300  1
  O  O17  1  0.37632700  0.76680400  0.05786600  1
  O  O18  1  0.45310900  0.82946500  0.64068800  1
  O  O19  1  0.40873600  0.05089000  0.70937700  1
  O  O20  1  0.01727600  0.07180300  0.37457600  1
  O  O21  1  0.35163400  0.20418200  0.56905500  1
  O  O22  1  0.07180300  0.01727600  0.87457600  1
  O  O23  1  0.34155400  0.56350200  0.19597900  1
  O  O24  1  0.47291600  0.67322300  0.41964900  1
  O  O25  1  0.19153300  0.25341900  0.39405700  1
  O  O26  1  0.05089000  0.40873600  0.20937700  1
  O  O27  1  0.64836600  0.79581800  0.43094500  1
  O  O28  1  0.79581800  0.64836600  0.93094500  1
  O  O29  1  0.65844600  0.43649800  0.80402100  1
  O  O30  1  0.43649800  0.65844600  0.30402100  1
  O  O31  1  0.54689100  0.17053500  0.35931200  1
loop_
_geom_bond_atom_site_label_1
_geom_bond_atom_site_label_2
_geom_bond_distance
_geom_bond_site_symmetry_2
Ca0 O19 2.293597 1_565
Ca0 O14 2.303688 1_565
Ca0 O1 2.323150 1_555
Ca0 O22 2.457549 1_565
Ca0 O16 2.602926 1_555
Ca0 O28 2.831711 1_555
Ca0 O29 2.996629 1_555
Ca1 O16 2.293597 1_455
Ca1 O2 2.303688 1_455
Ca1 O9 2.323150 1_555
Ca1 O13 2.457549 1_455
Ca1 O19 2.602926 1_555
Ca1 O21 2.831711 1_555
Ca1 O5 2.996629 1_555
Ca2 O26 2.293597 1_655
Ca2 O25 2.303688 1_655
Ca2 O24 2.323150 1_555
Ca2 O20 2.457549 1_655
Ca2 O11 2.602926 1_555
Ca2 O27 2.831711 1_555
Ca2 O30 2.996629 1_555
Ca3 O11 2.293597 1_545
Ca3 O0 2.303688 1_545
Ca3 O12 2.323150 1_555
Ca3 O7 2.457549 1_545
Ca3 O26 2.602926 1_555
Ca3 O4 2.831711 1_555
Ca3 O23 2.996629 1_555
O0 P2 1.564413 1_555
O0 Sn3 2.589235 1_565
O1 P7 1.578833 1_555
O1 Sn2 2.260492 1_556
O2 P5 1.564413 1_555
O2 Sn7 2.589235 1_655
O3 P1 1.576691 1_555
O3 Sn1 2.301615 1_555
O4 P2 1.596061 1_455
O4 Sn0 2.325508 1_554
O4 Sn3 2.360303 1_555
O5 P1 1.554343 1_555
O5 Sn6 2.227839 1_555
O6 P7 1.576691 1_555
O6 Sn0 2.301615 1_555
O7 P3 1.539195 1_655
O8 P6 1.576691 1_555
O8 Sn4 2.301615 1_555
O9 P1 1.578833 1_555
O9 Sn4 2.260492 1_555
O10 P2 1.531813 1_555
O10 Sn5 2.466172 1_555
O11 P4 1.546786 1_565
O12 P3 1.578833 1_555
O12 Sn0 2.260492 1_554
O13 P1 1.539195 1_565
O14 P0 1.564413 1_555
O14 Sn3 2.589235 1_556
O15 P0 1.531813 1_555
O15 Sn6 2.466172 1_555
O16 P0 1.546786 1_655
O17 P3 1.576691 1_555
O17 Sn2 2.301615 1_555
O18 P5 1.531813 1_555
O18 Sn6 2.466172 1_555
O19 P5 1.546786 1_545
O20 P6 1.539195 1_545
O21 P5 1.596061 1_545
O21 Sn4 2.325508 1_555
O21 Sn7 2.360303 1_555
O22 P7 1.539195 1_455
O23 P3 1.554343 1_555
O23 Sn5 2.227839 1_555
O24 P6 1.578833 1_555
O24 Sn1 2.260492 1_555
O25 P4 1.564413 1_555
O25 Sn7 2.589235 1_555
O26 P2 1.546786 1_455
O27 P4 1.596061 1_565
O27 Sn1 2.325508 1_555
O27 Sn7 2.360303 1_655
O28 P0 1.596061 1_655
O28 Sn2 2.325508 1_556
O28 Sn3 2.360303 1_566
O29 P7 1.554343 1_555
O29 Sn6 2.227839 1_555
O30 P6 1.554343 1_555
O30 Sn5 2.227839 1_555
O31 P4 1.531813 1_555
O31 Sn5 2.466172 1_555
