# generated using pymatgen
data_BaYMn2O5
_symmetry_space_group_name_H-M   'P 1'
_cell_length_a   5.61621500
_cell_length_b   5.61621500
_cell_length_c   7.80145700
_cell_angle_alpha   90.00000000
_cell_angle_beta   90.00020484
_cell_angle_gamma   90.00063251
_symmetry_Int_Tables_number   1
_chemical_formula_structural   BaYMn2O5
_chemical_formula_sum   'Ba2 Y2 Mn4 O10'
_cell_volume   246.07254972
_cell_formula_units_Z   2
loop_
 _symmetry_equiv_pos_site_id
 _symmetry_equiv_pos_as_xyz
  1  'x, y, z'
loop_
 _atom_site_type_symbol
 _atom_site_label
 _atom_site_symmetry_multiplicity
 _atom_site_fract_x
 _atom_site_fract_y
 _atom_site_fract_z
 _atom_site_occupancy
  Ba  Ba0  1  0.25000200  0.25000000  0.00001200  1
  Ba  Ba1  1  0.74999800  0.74999900  0.00001200  1
  Y  Y0  1  0.25000200  0.25000000  0.50000100  1
  Y  Y1  1  0.74999800  0.75000000  0.50000100  1
  Mn  Mn0  1  0.74999900  0.25000000  0.72300000  1
  Mn  Mn1  1  0.25000300  0.75000100  0.27699300  1
  Mn  Mn2  1  0.25000100  0.75000000  0.74657200  1
  Mn  Mn3  1  0.75000000  0.25000000  0.25340500  1
  O  O0  1  0.24999700  0.75000000  0.00794200  1
  O  O1  1  0.75000400  0.25000000  0.99204400  1
  O  O2  1  0.00935500  0.99064100  0.31930500  1
  O  O3  1  0.49063600  0.50936100  0.31930300  1
  O  O4  1  0.49063900  0.99064200  0.31930300  1
  O  O5  1  0.00935400  0.50935600  0.31930500  1
  O  O6  1  0.50936600  0.49063700  0.68070200  1
  O  O7  1  0.99063900  0.00936300  0.68070000  1
  O  O8  1  0.50936400  0.00936100  0.68070100  1
  O  O9  1  0.99064300  0.49063900  0.68069900  1
loop_
_geom_bond_atom_site_label_1
_geom_bond_atom_site_label_2
_geom_bond_distance
_geom_bond_site_symmetry_2
Ba0 O1 2.808784 1_454
Ba0 O0 2.808789 1_545
Ba0 O0 2.808789 1_555
Ba0 O1 2.808807 1_554
Ba0 O3 3.186358 1_555
Ba0 O4 3.186371 1_545
Ba0 O2 3.186403 1_545
Ba0 O5 3.186412 1_555
Ba0 O6 3.186496 1_554
Ba0 O7 3.186498 1_454
Ba0 O9 3.186512 1_454
Ba0 O8 3.186516 1_554
Ba1 O0 2.808783 1_655
Ba1 O1 2.808790 1_554
Ba1 O0 2.808795 1_555
Ba1 O1 2.808801 1_564
Ba1 O3 3.186378 1_555
Ba1 O2 3.186378 1_655
Ba1 O5 3.186392 1_655
Ba1 O4 3.186396 1_555
Ba1 O6 3.186471 1_554
Ba1 O8 3.186496 1_564
Ba1 O7 3.186518 1_564
Ba1 O9 3.186537 1_554
Mn0 O8 1.939533 1_555
Mn0 O6 1.939537 1_555
Mn0 O7 1.939569 1_555
Mn0 O9 1.939573 1_555
Mn0 O1 2.098935 1_555
Mn1 O4 1.939560 1_555
Mn1 O3 1.939565 1_555
Mn1 O2 1.939628 1_555
Mn1 O5 1.939631 1_555
Mn1 O0 2.098990 1_555
Mn2 O0 2.039067 1_556
Mn2 O9 2.123093 1_455
Mn2 O8 2.123111 1_565
Mn2 O7 2.123136 1_465
Mn2 O6 2.123146 1_555
Mn3 O1 2.038997 1_554
Mn3 O5 2.123109 1_655
Mn3 O4 2.123142 1_545
Mn3 O2 2.123147 1_645
Mn3 O3 2.123188 1_555
O2 Y1 2.436274 1_455
O2 Y0 2.436293 1_565
O3 Y0 2.436274 1_555
O3 Y1 2.436287 1_555
O4 Y0 2.436291 1_565
O4 Y1 2.436304 1_555
O5 Y1 2.436298 1_455
O5 Y0 2.436304 1_555
O6 Y1 2.436288 1_555
O6 Y0 2.436301 1_555
O7 Y0 2.436295 1_655
O7 Y1 2.436302 1_545
O8 Y1 2.436301 1_545
O8 Y0 2.436314 1_555
O9 Y0 2.436301 1_655
O9 Y1 2.436321 1_555
