# generated using pymatgen
data_RuRh4
_symmetry_space_group_name_H-M   'P 1'
_cell_length_a   22.31756402
_cell_length_b   22.31756402
_cell_length_c   22.31756249
_cell_angle_alpha   14.01407843
_cell_angle_beta   14.01407843
_cell_angle_gamma   14.01407690
_symmetry_Int_Tables_number   1
_chemical_formula_structural   RuRh4
_chemical_formula_sum   'Ru8 Rh32'
_cell_volume   567.33094180
_cell_formula_units_Z   8
loop_
 _symmetry_equiv_pos_site_id
 _symmetry_equiv_pos_as_xyz
  1  'x, y, z'
loop_
 _atom_site_type_symbol
 _atom_site_label
 _atom_site_symmetry_multiplicity
 _atom_site_fract_x
 _atom_site_fract_y
 _atom_site_fract_z
 _atom_site_occupancy
  Ru  Ru0_0  1  0.00000000  0.00000000  0.00000000  1
  Ru  Ru0_1  1  0.00000000  0.00000000  0.50000000  1
  Ru  Ru0_2  1  0.00000000  0.50000000  0.00000000  1
  Ru  Ru0_3  1  0.00000000  0.50000000  0.50000000  1
  Ru  Ru0_4  1  0.50000000  0.00000000  0.00000000  1
  Ru  Ru0_5  1  0.50000000  0.00000000  0.50000000  1
  Ru  Ru0_6  1  0.50000000  0.50000000  0.00000000  1
  Ru  Ru0_7  1  0.50000000  0.50000000  0.50000000  1
  Rh  Rh0_0  1  0.30053350  0.30053350  0.30053350  1
  Rh  Rh0_1  1  0.30053350  0.30053350  0.80053350  1
  Rh  Rh0_2  1  0.30053350  0.80053350  0.30053350  1
  Rh  Rh0_3  1  0.30053350  0.80053350  0.80053350  1
  Rh  Rh0_4  1  0.80053350  0.30053350  0.30053350  1
  Rh  Rh0_5  1  0.80053350  0.30053350  0.80053350  1
  Rh  Rh0_6  1  0.80053350  0.80053350  0.30053350  1
  Rh  Rh0_7  1  0.80053350  0.80053350  0.80053350  1
  Rh  Rh1_0  1  0.09990450  0.09990450  0.09990450  1
  Rh  Rh1_1  1  0.09990450  0.09990450  0.59990450  1
  Rh  Rh1_2  1  0.09990450  0.59990450  0.09990450  1
  Rh  Rh1_3  1  0.09990450  0.59990450  0.59990450  1
  Rh  Rh1_4  1  0.59990450  0.09990450  0.09990450  1
  Rh  Rh1_5  1  0.59990450  0.09990450  0.59990450  1
  Rh  Rh1_6  1  0.59990450  0.59990450  0.09990450  1
  Rh  Rh1_7  1  0.59990450  0.59990450  0.59990450  1
  Rh  Rh2_0  1  0.40009550  0.40009550  0.40009550  1
  Rh  Rh2_1  1  0.40009550  0.40009550  0.90009550  1
  Rh  Rh2_2  1  0.40009550  0.90009550  0.40009550  1
  Rh  Rh2_3  1  0.40009550  0.90009550  0.90009550  1
  Rh  Rh2_4  1  0.90009550  0.40009550  0.40009550  1
  Rh  Rh2_5  1  0.90009550  0.40009550  0.90009550  1
  Rh  Rh2_6  1  0.90009550  0.90009550  0.40009550  1
  Rh  Rh2_7  1  0.90009550  0.90009550  0.90009550  1
  Rh  Rh3_0  1  0.19946650  0.19946650  0.19946650  1
  Rh  Rh3_1  1  0.19946650  0.19946650  0.69946650  1
  Rh  Rh3_2  1  0.19946650  0.69946650  0.19946650  1
  Rh  Rh3_3  1  0.19946650  0.69946650  0.69946650  1
  Rh  Rh3_4  1  0.69946650  0.19946650  0.19946650  1
  Rh  Rh3_5  1  0.69946650  0.19946650  0.69946650  1
  Rh  Rh3_6  1  0.69946650  0.69946650  0.19946650  1
  Rh  Rh3_7  1  0.69946650  0.69946650  0.69946650  1
loop_
_geom_bond_atom_site_label_1
_geom_bond_atom_site_label_2
_geom_bond_distance
_geom_bond_site_symmetry_2
Ru0_0 Ru0_6 2.722548 1_545
Ru0_0 Ru0_6 2.722548 1_455
Ru0_0 Ru0_5 2.722548 1_554
Ru0_0 Ru0_5 2.722548 1_455
Ru0_0 Ru0_3 2.722548 1_545
Ru0_0 Ru0_3 2.722548 1_554
Ru0_1 Ru0_7 2.722548 1_455
Ru0_1 Ru0_7 2.722548 1_545
Ru0_1 Ru0_4 2.722548 1_456
Ru0_1 Ru0_2 2.722548 1_555
Ru0_1 Ru0_2 2.722548 1_546
Ru0_1 Ru0_4 2.722548 1_555
Ru0_2 Ru0_4 2.722548 1_465
Ru0_2 Ru0_4 2.722548 1_555
Ru0_2 Ru0_7 2.722548 1_455
Ru0_2 Ru0_7 2.722548 1_554
Ru0_3 Ru0_5 2.722548 1_555
Ru0_3 Ru0_5 2.722548 1_465
Ru0_3 Ru0_6 2.722548 1_555
Ru0_3 Ru0_6 2.722548 1_456
Ru0_4 Ru0_7 2.722548 1_545
Ru0_4 Ru0_7 2.722548 1_554
Ru0_5 Ru0_6 2.722548 1_555
Ru0_5 Ru0_6 2.722548 1_546
Rh0_0 Ru0_5 2.682842 1_555
Rh0_0 Ru0_3 2.682842 1_555
Rh0_0 Ru0_6 2.682843 1_555
Rh0_0 Rh0_6 2.722548 1_455
Rh0_0 Rh0_6 2.722548 1_545
Rh0_0 Rh0_3 2.722548 1_554
Rh0_0 Rh0_5 2.722548 1_455
Rh0_0 Rh0_3 2.722548 1_545
Rh0_0 Rh0_5 2.722548 1_554
Rh0_0 Rh1_4 2.745659 1_555
Rh0_0 Rh1_2 2.745659 1_555
Rh0_0 Rh1_1 2.745660 1_555
Rh0_1 Ru0_2 2.682842 1_556
Rh0_1 Ru0_4 2.682842 1_556
Rh0_1 Ru0_7 2.682843 1_555
Rh0_1 Rh0_7 2.722548 1_545
Rh0_1 Rh0_7 2.722548 1_455
Rh0_1 Rh0_4 2.722548 1_555
Rh0_1 Rh0_2 2.722548 1_555
Rh0_1 Rh0_4 2.722548 1_456
Rh0_1 Rh0_2 2.722548 1_546
Rh0_1 Rh1_3 2.745659 1_555
Rh0_1 Rh1_5 2.745659 1_555
Rh0_1 Rh1_0 2.745660 1_556
Rh0_2 Ru0_7 2.682842 1_555
Rh0_2 Ru0_1 2.682842 1_565
Rh0_2 Ru0_4 2.682843 1_565
Rh0_2 Rh0_4 2.722548 1_465
Rh0_2 Rh0_4 2.722548 1_555
Rh0_2 Rh0_7 2.722548 1_455
Rh0_2 Rh0_7 2.722548 1_554
Rh0_2 Rh1_0 2.745659 1_565
Rh0_2 Rh1_6 2.745659 1_555
Rh0_2 Rh1_3 2.745660 1_555
Rh0_3 Ru0_0 2.682842 1_566
Rh0_3 Ru0_6 2.682842 1_556
Rh0_3 Ru0_5 2.682843 1_565
Rh0_3 Rh0_5 2.722548 1_555
Rh0_3 Rh0_5 2.722548 1_465
Rh0_3 Rh0_6 2.722548 1_456
Rh0_3 Rh0_6 2.722548 1_555
Rh0_3 Rh1_7 2.745659 1_555
Rh0_3 Rh1_1 2.745659 1_565
Rh0_3 Rh1_2 2.745660 1_556
Rh0_4 Ru0_7 2.682842 1_555
Rh0_4 Ru0_1 2.682842 1_655
Rh0_4 Ru0_2 2.682843 1_655
Rh0_4 Rh0_7 2.722548 1_554
Rh0_4 Rh0_7 2.722548 1_545
Rh0_4 Rh1_0 2.745659 1_655
Rh0_4 Rh1_6 2.745659 1_555
Rh0_4 Rh1_5 2.745660 1_555
Rh0_5 Ru0_0 2.682842 1_656
Rh0_5 Ru0_6 2.682842 1_556
Rh0_5 Ru0_3 2.682843 1_655
Rh0_5 Rh0_6 2.722548 1_546
Rh0_5 Rh0_6 2.722548 1_555
Rh0_5 Rh1_7 2.745659 1_555
Rh0_5 Rh1_1 2.745659 1_655
Rh0_5 Rh1_4 2.745660 1_556
Rh0_6 Ru0_3 2.682842 1_655
Rh0_6 Ru0_5 2.682842 1_565
Rh0_6 Ru0_0 2.682843 1_665
Rh0_6 Rh1_4 2.745659 1_565
Rh0_6 Rh1_2 2.745659 1_655
Rh0_6 Rh1_7 2.745660 1_555
Rh0_7 Ru0_2 2.682842 1_656
Rh0_7 Ru0_4 2.682842 1_566
Rh0_7 Ru0_1 2.682843 1_665
Rh0_7 Rh1_3 2.745659 1_655
Rh0_7 Rh1_5 2.745659 1_565
Rh0_7 Rh1_6 2.745660 1_556
Rh1_0 Rh2_3 2.701273 1_544
Rh1_0 Rh2_5 2.701273 1_454
Rh1_0 Rh2_6 2.701273 1_445
Rh1_0 Rh1_6 2.722548 1_455
Rh1_0 Rh1_6 2.722548 1_545
Rh1_0 Rh1_5 2.722548 1_455
Rh1_0 Rh1_3 2.722548 1_545
Rh1_0 Rh1_5 2.722548 1_554
Rh1_0 Rh1_3 2.722548 1_554
Rh1_1 Rh2_4 2.701273 1_455
Rh1_1 Rh2_2 2.701273 1_545
Rh1_1 Rh2_7 2.701273 1_445
Rh1_1 Rh1_7 2.722548 1_545
Rh1_1 Rh1_7 2.722548 1_455
Rh1_1 Rh1_4 2.722548 1_555
Rh1_1 Rh1_2 2.722548 1_555
Rh1_1 Rh1_4 2.722548 1_456
Rh1_1 Rh1_2 2.722548 1_546
Rh1_2 Rh2_1 2.701273 1_554
Rh1_2 Rh2_7 2.701273 1_454
Rh1_2 Rh2_4 2.701273 1_455
Rh1_2 Rh1_4 2.722548 1_555
Rh1_2 Rh1_4 2.722548 1_465
Rh1_2 Rh1_7 2.722548 1_455
Rh1_2 Rh1_7 2.722548 1_554
Rh1_3 Rh2_6 2.701273 1_455
Rh1_3 Rh2_0 2.701273 1_555
Rh1_3 Rh2_5 2.701273 1_455
Rh1_3 Rh1_5 2.722548 1_465
Rh1_3 Rh1_5 2.722548 1_555
Rh1_3 Rh1_6 2.722548 1_555
Rh1_3 Rh1_6 2.722548 1_456
Rh1_4 Rh2_1 2.701273 1_554
Rh1_4 Rh2_7 2.701273 1_544
Rh1_4 Rh2_2 2.701273 1_545
Rh1_4 Rh1_7 2.722548 1_545
Rh1_4 Rh1_7 2.722548 1_554
Rh1_5 Rh2_6 2.701273 1_545
Rh1_5 Rh2_0 2.701273 1_555
Rh1_5 Rh2_3 2.701273 1_545
Rh1_5 Rh1_6 2.722548 1_555
Rh1_5 Rh1_6 2.722548 1_546
Rh1_6 Rh2_5 2.701273 1_554
Rh1_6 Rh2_3 2.701273 1_554
Rh1_6 Rh2_0 2.701273 1_555
Rh1_7 Rh2_2 2.701273 1_555
Rh1_7 Rh2_4 2.701273 1_555
Rh1_7 Rh2_1 2.701273 1_555
Rh2_0 Rh2_6 2.722548 1_545
Rh2_0 Rh2_6 2.722548 1_455
Rh2_0 Rh2_3 2.722548 1_545
Rh2_0 Rh2_5 2.722548 1_455
Rh2_0 Rh2_5 2.722548 1_554
Rh2_0 Rh2_3 2.722548 1_554
Rh2_0 Rh3_4 2.745659 1_555
Rh2_0 Rh3_2 2.745659 1_555
Rh2_0 Rh3_1 2.745660 1_555
Rh2_1 Rh2_7 2.722548 1_545
Rh2_1 Rh2_7 2.722548 1_455
Rh2_1 Rh2_2 2.722548 1_555
Rh2_1 Rh2_4 2.722548 1_555
Rh2_1 Rh2_2 2.722548 1_546
Rh2_1 Rh2_4 2.722548 1_456
Rh2_1 Rh3_3 2.745659 1_555
Rh2_1 Rh3_5 2.745659 1_555
Rh2_1 Rh3_0 2.745660 1_556
Rh2_2 Rh2_4 2.722548 1_555
Rh2_2 Rh2_4 2.722548 1_465
Rh2_2 Rh2_7 2.722548 1_455
Rh2_2 Rh2_7 2.722548 1_554
Rh2_2 Rh3_6 2.745659 1_555
Rh2_2 Rh3_0 2.745659 1_565
Rh2_2 Rh3_3 2.745660 1_555
Rh2_3 Rh2_5 2.722548 1_465
Rh2_3 Rh2_5 2.722548 1_555
Rh2_3 Rh2_6 2.722548 1_555
Rh2_3 Rh2_6 2.722548 1_456
Rh2_3 Rh3_1 2.745659 1_565
Rh2_3 Rh3_7 2.745659 1_555
Rh2_3 Rh3_2 2.745660 1_556
Rh2_4 Rh2_7 2.722548 1_545
Rh2_4 Rh2_7 2.722548 1_554
Rh2_4 Rh3_6 2.745659 1_555
Rh2_4 Rh3_0 2.745659 1_655
Rh2_4 Rh3_5 2.745660 1_555
Rh2_5 Rh2_6 2.722548 1_555
Rh2_5 Rh2_6 2.722548 1_546
Rh2_5 Rh3_1 2.745659 1_655
Rh2_5 Rh3_7 2.745659 1_555
Rh2_5 Rh3_4 2.745660 1_556
Rh2_6 Rh3_4 2.745659 1_565
Rh2_6 Rh3_2 2.745659 1_655
Rh2_6 Rh3_7 2.745660 1_555
Rh2_7 Rh3_3 2.745659 1_655
Rh2_7 Rh3_5 2.745659 1_565
Rh2_7 Rh3_6 2.745660 1_556
Rh3_0 Ru0_2 2.682842 1_555
Rh3_0 Ru0_4 2.682842 1_555
Rh3_0 Ru0_1 2.682843 1_555
Rh3_0 Rh3_6 2.722548 1_545
Rh3_0 Rh3_6 2.722548 1_455
Rh3_0 Rh3_3 2.722548 1_545
Rh3_0 Rh3_5 2.722548 1_554
Rh3_0 Rh3_5 2.722548 1_455
Rh3_0 Rh3_3 2.722548 1_554
Rh3_1 Ru0_3 2.682842 1_555
Rh3_1 Ru0_5 2.682842 1_555
Rh3_1 Ru0_0 2.682843 1_556
Rh3_1 Rh3_7 2.722548 1_455
Rh3_1 Rh3_7 2.722548 1_545
Rh3_1 Rh3_2 2.722548 1_555
Rh3_1 Rh3_4 2.722548 1_555
Rh3_1 Rh3_4 2.722548 1_456
Rh3_1 Rh3_2 2.722548 1_546
Rh3_2 Ru0_6 2.682842 1_555
Rh3_2 Ru0_0 2.682842 1_565
Rh3_2 Ru0_3 2.682843 1_555
Rh3_2 Rh3_4 2.722548 1_555
Rh3_2 Rh3_4 2.722548 1_465
Rh3_2 Rh3_7 2.722548 1_554
Rh3_2 Rh3_7 2.722548 1_455
Rh3_3 Ru0_1 2.682842 1_565
Rh3_3 Ru0_7 2.682842 1_555
Rh3_3 Ru0_2 2.682843 1_556
Rh3_3 Rh3_5 2.722548 1_555
Rh3_3 Rh3_5 2.722548 1_465
Rh3_3 Rh3_6 2.722548 1_456
Rh3_3 Rh3_6 2.722548 1_555
Rh3_4 Ru0_0 2.682842 1_655
Rh3_4 Ru0_6 2.682842 1_555
Rh3_4 Ru0_5 2.682843 1_555
Rh3_4 Rh3_7 2.722548 1_554
Rh3_4 Rh3_7 2.722548 1_545
Rh3_5 Ru0_1 2.682842 1_655
Rh3_5 Ru0_7 2.682842 1_555
Rh3_5 Ru0_4 2.682843 1_556
Rh3_5 Rh3_6 2.722548 1_546
Rh3_5 Rh3_6 2.722548 1_555
Rh3_6 Ru0_2 2.682842 1_655
Rh3_6 Ru0_4 2.682842 1_565
Rh3_6 Ru0_7 2.682843 1_555
Rh3_7 Ru0_3 2.682842 1_655
Rh3_7 Ru0_5 2.682842 1_565
Rh3_7 Ru0_6 2.682843 1_556
