# generated using pymatgen
data_KCaPO5
_symmetry_space_group_name_H-M   'P 1'
_cell_length_a   5.70536775
_cell_length_b   5.70536775
_cell_length_c   7.98236443
_cell_angle_alpha   80.53613112
_cell_angle_beta   80.53613112
_cell_angle_gamma   95.09320309
_symmetry_Int_Tables_number   1
_chemical_formula_structural   KCaPO5
_chemical_formula_sum   'K2 Ca2 P2 O10'
_cell_volume   251.01352990
_cell_formula_units_Z   2
loop_
 _symmetry_equiv_pos_site_id
 _symmetry_equiv_pos_as_xyz
  1  'x, y, z'
loop_
 _atom_site_type_symbol
 _atom_site_label
 _atom_site_symmetry_multiplicity
 _atom_site_fract_x
 _atom_site_fract_y
 _atom_site_fract_z
 _atom_site_occupancy
  K  K0  1  0.77789400  0.22210600  0.50000000  1
  K  K1  1  0.22210600  0.77789400  0.50000000  1
  Ca  Ca0  1  0.25324300  0.74675700  0.00000000  1
  Ca  Ca1  1  0.74675700  0.25324300  0.00000000  1
  P  P0  1  0.23347700  0.23347700  0.75841700  1
  P  P1  1  0.76652300  0.76652300  0.24158300  1
  O  O0  1  0.14620100  0.45678400  0.82581600  1
  O  O1  1  0.45678400  0.14620100  0.82581600  1
  O  O2  1  0.85379900  0.54321600  0.17418400  1
  O  O3  1  0.54321600  0.85379900  0.17418400  1
  O  O4  1  0.26727000  0.26727000  0.55954700  1
  O  O5  1  0.73273000  0.73273000  0.44045300  1
  O  O6  1  0.02154400  0.02154400  0.82769200  1
  O  O7  1  0.97845600  0.97845600  0.17230800  1
  O  O8  1  0.60040700  0.60040700  0.87172700  1
  O  O9  1  0.39959300  0.39959300  0.12827300  1
loop_
_geom_bond_atom_site_label_1
_geom_bond_atom_site_label_2
_geom_bond_distance
_geom_bond_site_symmetry_2
K0 O2 2.868774 1_555
K0 O1 2.868774 1_555
K0 O4 2.904644 1_655
K0 O5 2.904644 1_545
K0 O4 2.915102 1_555
K0 O5 2.915102 1_555
K0 O7 3.252363 1_545
K0 O6 3.252363 1_655
K1 O3 2.868774 1_555
K1 O0 2.868774 1_555
K1 O5 2.904644 1_455
K1 O4 2.904644 1_565
K1 O4 2.915102 1_555
K1 O5 2.915102 1_555
K1 O7 3.252363 1_455
K1 O6 3.252363 1_565
Ca0 O9 2.361490 1_555
Ca0 O8 2.361490 1_554
Ca0 O3 2.428895 1_555
Ca0 O0 2.428895 1_554
Ca0 O6 2.520702 1_564
Ca0 O7 2.520702 1_455
Ca0 O1 2.536258 1_564
Ca0 O2 2.536258 1_455
Ca1 O9 2.361490 1_555
Ca1 O8 2.361490 1_554
Ca1 O2 2.428895 1_555
Ca1 O1 2.428895 1_554
Ca1 O6 2.520702 1_654
Ca1 O7 2.520702 1_545
Ca1 O0 2.536258 1_654
Ca1 O3 2.536258 1_545
O0 P0 1.552593 1_555
O1 P0 1.552593 1_555
O2 P1 1.552593 1_555
O3 P1 1.552593 1_555
O4 P0 1.544815 1_555
O5 P1 1.544815 1_555
O6 P0 1.590768 1_555
O7 P1 1.590768 1_555
