# generated using pymatgen
data_SmEr3Mn8
_symmetry_space_group_name_H-M   'P 1'
_cell_length_a   5.03230532
_cell_length_b   5.03230532
_cell_length_c   8.63807882
_cell_angle_alpha   90.33702169
_cell_angle_beta   89.66297831
_cell_angle_gamma   119.67544258
_symmetry_Int_Tables_number   1
_chemical_formula_structural   SmEr3Mn8
_chemical_formula_sum   'Sm1 Er3 Mn8'
_cell_volume   190.05652301
_cell_formula_units_Z   1
loop_
 _symmetry_equiv_pos_site_id
 _symmetry_equiv_pos_as_xyz
  1  'x, y, z'
loop_
 _atom_site_type_symbol
 _atom_site_label
 _atom_site_symmetry_multiplicity
 _atom_site_fract_x
 _atom_site_fract_y
 _atom_site_fract_z
 _atom_site_occupancy
  Sm  Sm0  1  0.66656200  0.33343800  0.56491600  1
  Er  Er0  1  0.33341300  0.66658700  0.43199100  1
  Er  Er1  1  0.33320100  0.66679900  0.06632500  1
  Er  Er2  1  0.66706200  0.33293800  0.93592200  1
  Mn  Mn0  1  0.99993800  0.00006200  0.49848200  1
  Mn  Mn1  1  0.99987300  0.00012700  0.00140800  1
  Mn  Mn2  1  0.16873900  0.33795800  0.75382400  1
  Mn  Mn3  1  0.16865200  0.83134800  0.75444300  1
  Mn  Mn4  1  0.66204200  0.83126100  0.75382400  1
  Mn  Mn5  1  0.83166800  0.66253100  0.24660400  1
  Mn  Mn6  1  0.83138100  0.16861900  0.24565600  1
  Mn  Mn7  1  0.33746900  0.16833200  0.24660400  1
loop_
_geom_bond_atom_site_label_1
_geom_bond_atom_site_label_2
_geom_bond_distance
_geom_bond_site_symmetry_2
Er0 Mn0 2.954331 1_465
Er0 Mn0 2.972256 1_455
Er0 Mn0 2.972256 1_565
Er0 Mn7 2.975706 1_555
Er0 Mn5 2.975706 1_555
Er0 Mn5 2.989365 1_455
Er0 Mn7 2.989365 1_565
Er0 Mn6 2.997445 1_455
Er0 Mn6 2.997445 1_565
Er0 Mn3 3.124024 1_555
Er0 Sm0 3.125397 1_555
Er0 Sm0 3.130023 1_455
Er0 Sm0 3.130023 1_565
Er0 Mn2 3.133713 1_555
Er0 Mn4 3.133713 1_555
Er0 Er1 3.158665 1_555
Er1 Mn5 2.948885 1_455
Er1 Mn7 2.948885 1_565
Er1 Mn1 2.958044 1_465
Er1 Mn6 2.965264 1_455
Er1 Mn6 2.965264 1_565
Er1 Mn1 2.966511 1_455
Er1 Mn1 2.966511 1_565
Er1 Mn7 2.969426 1_555
Er1 Mn5 2.969426 1_555
Er1 Mn2 3.054151 1_554
Er1 Mn4 3.054151 1_554
Er1 Mn3 3.059538 1_554
Er1 Er2 3.108809 1_554
Er1 Er2 3.126400 1_454
Er1 Er2 3.126400 1_564
Er2 Mn1 2.954597 1_556
Er2 Mn2 2.956190 1_655
Er2 Mn4 2.956190 1_545
Er2 Mn1 2.969623 1_566
Er2 Mn1 2.969623 1_456
Er2 Mn3 2.974996 1_545
Er2 Mn3 2.974996 1_655
Er2 Mn4 2.978779 1_555
Er2 Mn2 2.978779 1_555
Er2 Mn5 3.041835 1_556
Er2 Mn7 3.041835 1_556
Er2 Mn6 3.042200 1_556
Er2 Sm0 3.204812 1_555
Mn0 Mn7 2.624885 1_655
Mn0 Mn5 2.624885 1_545
Mn0 Mn6 2.639044 1_555
Mn0 Mn2 2.650581 1_655
Mn0 Mn4 2.650581 1_545
Mn0 Mn3 2.662360 1_645
Mn0 Sm0 2.953394 1_555
Mn0 Sm0 2.972580 1_655
Mn0 Sm0 2.972580 1_545
Mn1 Mn6 2.561066 1_555
Mn1 Mn3 2.581750 1_644
Mn1 Mn7 2.585742 1_655
Mn1 Mn5 2.585742 1_545
Mn1 Mn4 2.603284 1_544
Mn1 Mn2 2.603284 1_654
Mn2 Mn3 2.483080 1_555
Mn2 Mn4 2.494619 1_555
Mn2 Mn3 2.549237 1_545
Mn2 Mn4 2.562353 1_445
Mn2 Sm0 2.991188 1_555
Mn2 Sm0 3.006781 1_455
Mn3 Mn4 2.483080 1_555
Mn3 Mn4 2.549237 1_455
Mn3 Sm0 3.012347 1_455
Mn3 Sm0 3.012347 1_565
Mn4 Sm0 2.991188 1_555
Mn4 Sm0 3.006781 1_565
Mn5 Mn6 2.484767 1_555
Mn5 Mn7 2.499151 1_555
Mn5 Mn6 2.547566 1_565
Mn5 Mn7 2.557821 1_665
Mn5 Sm0 3.107658 1_555
Mn6 Mn7 2.484767 1_555
Mn6 Mn7 2.547566 1_655
Mn6 Sm0 3.099783 1_555
Mn7 Sm0 3.107658 1_555
