# generated using pymatgen
data_SrAg2(IO2)4
_symmetry_space_group_name_H-M   'P 1'
_cell_length_a   7.57456815
_cell_length_b   7.57456815
_cell_length_c   7.57456815
_cell_angle_alpha   118.71473547
_cell_angle_beta   118.71473547
_cell_angle_gamma   92.24094305
_symmetry_Int_Tables_number   1
_chemical_formula_structural   SrAg2(IO2)4
_chemical_formula_sum   'Sr1 Ag2 I4 O8'
_cell_volume   313.00799744
_cell_formula_units_Z   1
loop_
 _symmetry_equiv_pos_site_id
 _symmetry_equiv_pos_as_xyz
  1  'x, y, z'
loop_
 _atom_site_type_symbol
 _atom_site_label
 _atom_site_symmetry_multiplicity
 _atom_site_fract_x
 _atom_site_fract_y
 _atom_site_fract_z
 _atom_site_occupancy
  Sr  Sr0  1  0.00000000  0.00000000  0.00000000  1
  Ag  Ag0  1  0.50000000  0.00000000  0.50000000  1
  Ag  Ag1  1  0.00000000  0.50000000  0.50000000  1
  I  I0  1  0.49250800  0.50749200  0.50000000  1
  I  I1  1  0.00749200  0.99250800  0.50000000  1
  I  I2  1  0.50749200  0.00749200  0.01498400  1
  I  I3  1  0.99250800  0.49250800  0.98501600  1
  O  O0  1  0.18713400  0.87753500  0.76462900  1
  O  O1  1  0.11290600  0.42250400  0.23537100  1
  O  O2  1  0.81286600  0.57749600  0.69040200  1
  O  O3  1  0.88709400  0.12246500  0.30959800  1
  O  O4  1  0.57749600  0.88709400  0.76462900  1
  O  O5  1  0.12246500  0.81286600  0.23537100  1
  O  O6  1  0.87753500  0.11290600  0.69040200  1
  O  O7  1  0.42250400  0.18713400  0.30959800  1
loop_
_geom_bond_atom_site_label_1
_geom_bond_atom_site_label_2
_geom_bond_distance
_geom_bond_site_symmetry_2
Ag0 O6 2.376897 1_555
Ag0 O4 2.376897 1_545
Ag0 O5 2.376899 1_545
Ag0 O7 2.376904 1_555
Ag1 O1 2.376897 1_555
Ag1 O3 2.376897 1_455
Ag1 O0 2.376899 1_555
Ag1 O2 2.376904 1_455
I0 O7 2.012748 1_555
I0 O2 2.012748 1_555
I0 O4 2.403533 1_555
I0 O1 2.403533 1_555
I1 O6 2.012754 1_465
I1 O3 2.012754 1_465
I1 O5 2.403534 1_555
I1 O0 2.403534 1_555
I2 O0 2.012749 1_544
I2 O4 2.012754 1_544
I2 O3 2.403533 1_555
I2 O7 2.403534 1_555
I3 O5 2.012749 1_656
I3 O1 2.012754 1_656
I3 O6 2.403533 1_555
I3 O2 2.403534 1_555
O0 Sr0 2.643889 1_566
O1 Sr0 2.643882 1_555
O2 Sr0 2.643882 1_666
O3 Sr0 2.643882 1_655
O4 Sr0 2.643882 1_666
O5 Sr0 2.643889 1_565
O6 Sr0 2.643882 1_656
O7 Sr0 2.643882 1_555
