# generated using pymatgen
data_Sr3LaMn4O12
_symmetry_space_group_name_H-M   'P 1'
_cell_length_a   6.74585812
_cell_length_b   6.74585812
_cell_length_c   6.74585812
_cell_angle_alpha   109.47122063
_cell_angle_beta   109.47122063
_cell_angle_gamma   109.47122063
_symmetry_Int_Tables_number   1
_chemical_formula_structural   Sr3LaMn4O12
_chemical_formula_sum   'Sr3 La1 Mn4 O12'
_cell_volume   236.31414460
_cell_formula_units_Z   1
loop_
 _symmetry_equiv_pos_site_id
 _symmetry_equiv_pos_as_xyz
  1  'x, y, z'
loop_
 _atom_site_type_symbol
 _atom_site_label
 _atom_site_symmetry_multiplicity
 _atom_site_fract_x
 _atom_site_fract_y
 _atom_site_fract_z
 _atom_site_occupancy
  Sr  Sr0  1  0.50000000  0.50000000  0.00000000  1
  Sr  Sr1  1  0.50000000  0.00000000  0.50000000  1
  Sr  Sr2  1  0.00000000  0.50000000  0.50000000  1
  La  La0  1  0.00000000  0.00000000  0.00000000  1
  Mn  Mn0  1  0.00000000  0.50000000  0.00000000  1
  Mn  Mn1  1  0.50000000  0.50000000  0.50000000  1
  Mn  Mn2  1  0.00000000  0.00000000  0.50000000  1
  Mn  Mn3  1  0.50000000  0.00000000  0.00000000  1
  O  O0  1  0.00000000  0.24553700  0.75446300  1
  O  O1  1  0.49107400  0.24553700  0.24553700  1
  O  O2  1  0.00000000  0.75446300  0.24553700  1
  O  O3  1  0.50892600  0.75446300  0.75446300  1
  O  O4  1  0.75446300  0.24553700  0.00000000  1
  O  O5  1  0.24553700  0.24553700  0.49107400  1
  O  O6  1  0.75446300  0.75446300  0.50892600  1
  O  O7  1  0.24553700  0.75446300  0.00000000  1
  O  O8  1  0.75446300  0.50892600  0.75446300  1
  O  O9  1  0.24553700  0.49107400  0.24553700  1
  O  O10  1  0.75446300  0.00000000  0.24553700  1
  O  O11  1  0.24553700  0.00000000  0.75446300  1
loop_
_geom_bond_atom_site_label_1
_geom_bond_atom_site_label_2
_geom_bond_distance
_geom_bond_site_symmetry_2
La0 O5 2.704821 1_555
La0 O0 2.704821 1_554
La0 O7 2.704821 1_545
La0 O3 2.704821 1_444
La0 O2 2.704821 1_545
La0 O6 2.704821 1_444
La0 O4 2.704821 1_455
La0 O11 2.704821 1_554
La0 O1 2.704821 1_555
La0 O10 2.704821 1_455
La0 O8 2.704821 1_444
La0 O9 2.704821 1_555
Mn0 O0 1.947982 1_554
Mn0 O4 1.947982 1_455
Mn0 O7 1.947982 1_555
Mn0 O2 1.947982 1_555
Mn0 O8 1.947982 1_454
Mn0 O9 1.947982 1_555
Mn1 O9 1.947982 1_555
Mn1 O1 1.947982 1_555
Mn1 O8 1.947982 1_555
Mn1 O5 1.947982 1_555
Mn1 O3 1.947982 1_555
Mn1 O6 1.947982 1_555
Mn2 O0 1.947982 1_555
Mn2 O2 1.947982 1_545
Mn2 O6 1.947982 1_445
Mn2 O10 1.947982 1_455
Mn2 O11 1.947982 1_555
Mn2 O5 1.947982 1_555
Mn3 O4 1.947982 1_555
Mn3 O11 1.947982 1_554
Mn3 O1 1.947982 1_555
Mn3 O3 1.947982 1_544
Mn3 O10 1.947982 1_555
Mn3 O7 1.947982 1_545
O0 Sr0 2.754424 1_556
O0 Sr1 2.754424 1_455
O0 Sr2 2.803149 1_555
O1 Sr0 2.754424 1_555
O1 Sr1 2.754424 1_555
O1 Sr2 2.803149 1_655
O2 Sr0 2.754424 1_455
O2 Sr1 2.754424 1_565
O2 Sr2 2.803149 1_555
O3 Sr0 2.754424 1_556
O3 Sr1 2.754424 1_565
O3 Sr2 2.803149 1_555
O4 Sr2 2.754424 1_655
O4 Sr1 2.754424 1_554
O4 Sr0 2.803149 1_555
O5 Sr1 2.754424 1_555
O5 Sr2 2.754424 1_555
O5 Sr0 2.803149 1_556
O6 Sr2 2.754424 1_655
O6 Sr1 2.754424 1_565
O6 Sr0 2.803149 1_555
O7 Sr1 2.754424 1_565
O7 Sr2 2.754424 1_554
O7 Sr0 2.803149 1_555
O8 Sr2 2.754424 1_655
O8 Sr0 2.754424 1_556
O8 Sr1 2.803149 1_555
O9 Sr2 2.754424 1_555
O9 Sr0 2.754424 1_555
O9 Sr1 2.803149 1_565
O10 Sr2 2.754424 1_655
O10 Sr0 2.754424 1_545
O10 Sr1 2.803149 1_555
O11 Sr0 2.754424 1_556
O11 Sr2 2.754424 1_545
O11 Sr1 2.803149 1_555
