# generated using pymatgen
data_Ce5Sn3
_symmetry_space_group_name_H-M   'P 1'
_cell_length_a   6.81172500
_cell_length_b   9.38127000
_cell_length_c   9.39842326
_cell_angle_alpha   119.93964382
_cell_angle_beta   90.00000000
_cell_angle_gamma   90.00000000
_symmetry_Int_Tables_number   1
_chemical_formula_structural   Ce5Sn3
_chemical_formula_sum   'Ce10 Sn6'
_cell_volume   520.43702472
_cell_formula_units_Z   2
loop_
 _symmetry_equiv_pos_site_id
 _symmetry_equiv_pos_as_xyz
  1  'x, y, z'
loop_
 _atom_site_type_symbol
 _atom_site_label
 _atom_site_symmetry_multiplicity
 _atom_site_fract_x
 _atom_site_fract_y
 _atom_site_fract_z
 _atom_site_occupancy
  Ce  Ce0  1  0.50000000  0.33337500  0.66674900  1
  Ce  Ce1  1  0.50000000  0.66662500  0.33325100  1
  Ce  Ce2  1  0.00000000  0.66662500  0.33325100  1
  Ce  Ce3  1  0.00000000  0.33337500  0.66674900  1
  Ce  Ce4  1  0.75000000  0.25068900  0.00000000  1
  Ce  Ce5  1  0.75000000  0.74925300  0.74923400  1
  Ce  Ce6  1  0.75000000  0.00001900  0.25076600  1
  Ce  Ce7  1  0.25000000  0.74931100  0.00000000  1
  Ce  Ce8  1  0.25000000  0.25074700  0.25076600  1
  Ce  Ce9  1  0.25000000  0.99998100  0.74923400  1
  Sn  Sn0  1  0.75000000  0.61024800  0.00000000  1
  Sn  Sn1  1  0.75000000  0.38994100  0.39007400  1
  Sn  Sn2  1  0.75000000  0.99986700  0.60992600  1
  Sn  Sn3  1  0.25000000  0.38975200  0.00000000  1
  Sn  Sn4  1  0.25000000  0.61005900  0.60992600  1
  Sn  Sn5  1  0.25000000  0.00013300  0.39007400  1
loop_
_geom_bond_atom_site_label_1
_geom_bond_atom_site_label_2
_geom_bond_distance
_geom_bond_site_symmetry_2
Ce0 Sn4 3.362474 1_555
Ce0 Sn2 3.362482 1_545
Ce0 Sn1 3.364602 1_555
Ce0 Sn5 3.364607 1_555
Ce0 Sn0 3.366874 1_556
Ce0 Sn3 3.366877 1_556
Ce0 Ce3 3.405863 1_655
Ce0 Ce3 3.405863 1_555
Ce0 Ce5 3.962747 1_555
Ce0 Ce9 3.962756 1_545
Ce0 Ce7 3.966908 1_556
Ce0 Ce4 3.966914 1_556
Ce0 Ce8 3.969973 1_555
Ce0 Ce6 3.969976 1_555
Ce1 Sn1 3.362474 1_555
Ce1 Sn5 3.362482 1_565
Ce1 Sn4 3.364602 1_555
Ce1 Sn2 3.364607 1_555
Ce1 Sn3 3.366874 1_555
Ce1 Sn0 3.366877 1_555
Ce1 Ce2 3.405863 1_555
Ce1 Ce2 3.405863 1_655
Ce1 Ce8 3.962747 1_555
Ce1 Ce6 3.962756 1_565
Ce1 Ce4 3.966908 1_555
Ce1 Ce7 3.966914 1_555
Ce1 Ce5 3.969973 1_555
Ce1 Ce9 3.969976 1_555
Ce2 Sn1 3.362474 1_455
Ce2 Sn5 3.362482 1_565
Ce2 Sn4 3.364602 1_555
Ce2 Sn2 3.364607 1_455
Ce2 Sn3 3.366874 1_555
Ce2 Sn0 3.366877 1_455
Ce2 Ce8 3.962747 1_555
Ce2 Ce6 3.962756 1_465
Ce2 Ce4 3.966908 1_455
Ce2 Ce7 3.966914 1_555
Ce2 Ce5 3.969973 1_455
Ce2 Ce9 3.969976 1_555
Ce3 Sn4 3.362474 1_555
Ce3 Sn2 3.362482 1_445
Ce3 Sn1 3.364602 1_455
Ce3 Sn5 3.364607 1_555
Ce3 Sn0 3.366874 1_456
Ce3 Sn3 3.366877 1_556
Ce3 Ce5 3.962747 1_455
Ce3 Ce9 3.962756 1_545
Ce3 Ce7 3.966908 1_556
Ce3 Ce4 3.966914 1_456
Ce3 Ce8 3.969973 1_555
Ce3 Ce6 3.969976 1_455
Ce4 Sn1 3.219665 1_555
Ce4 Sn2 3.219665 1_544
Ce4 Sn0 3.373120 1_555
Ce4 Sn3 3.647170 1_555
Ce4 Sn3 3.647170 1_655
Ce4 Ce5 4.076361 1_544
Ce4 Ce6 4.076361 1_555
Ce4 Ce9 4.141636 1_544
Ce4 Ce9 4.141636 1_644
Ce4 Ce8 4.141636 1_555
Ce4 Ce8 4.141636 1_655
Ce5 Sn2 3.211598 1_555
Ce5 Sn0 3.212915 1_556
Ce5 Sn1 3.376250 1_555
Ce5 Sn4 3.648658 1_555
Ce5 Sn4 3.648658 1_655
Ce5 Ce6 4.084586 1_566
Ce5 Ce9 4.139142 1_655
Ce5 Ce9 4.139142 1_555
Ce5 Ce7 4.141636 1_656
Ce5 Ce7 4.141636 1_556
Ce6 Sn1 3.211598 1_555
Ce6 Sn0 3.212915 1_545
Ce6 Sn2 3.376250 1_545
Ce6 Sn5 3.648658 1_655
Ce6 Sn5 3.648658 1_555
Ce6 Ce8 4.139142 1_655
Ce6 Ce8 4.139142 1_555
Ce6 Ce7 4.141636 1_645
Ce6 Ce7 4.141636 1_545
Ce7 Sn5 3.219665 1_565
Ce7 Sn4 3.219665 1_554
Ce7 Sn3 3.373120 1_555
Ce7 Sn0 3.647170 1_555
Ce7 Sn0 3.647170 1_455
Ce7 Ce9 4.076361 1_554
Ce7 Ce8 4.076361 1_565
Ce8 Sn5 3.211598 1_555
Ce8 Sn3 3.212915 1_555
Ce8 Sn4 3.376250 1_555
Ce8 Sn1 3.648658 1_455
Ce8 Sn1 3.648658 1_555
Ce8 Ce9 4.084586 1_544
Ce9 Sn4 3.211598 1_555
Ce9 Sn3 3.212915 1_566
Ce9 Sn5 3.376250 1_565
Ce9 Sn2 3.648658 1_555
Ce9 Sn2 3.648658 1_455
