# generated using pymatgen
data_Al3Si3Pb2O13
_symmetry_space_group_name_H-M   'P 1'
_cell_length_a   5.89223200
_cell_length_b   10.95014300
_cell_length_c   15.90428300
_cell_angle_alpha   90.00000000
_cell_angle_beta   90.00000000
_cell_angle_gamma   90.00000000
_symmetry_Int_Tables_number   1
_chemical_formula_structural   Al3Si3Pb2O13
_chemical_formula_sum   'Al12 Si12 Pb8 O52'
_cell_volume   1026.15679204
_cell_formula_units_Z   4
loop_
 _symmetry_equiv_pos_site_id
 _symmetry_equiv_pos_as_xyz
  1  'x, y, z'
loop_
 _atom_site_type_symbol
 _atom_site_label
 _atom_site_symmetry_multiplicity
 _atom_site_fract_x
 _atom_site_fract_y
 _atom_site_fract_z
 _atom_site_occupancy
  Al  Al0  1  0.75000000  0.84033100  0.88524800  1
  Al  Al1  1  0.75000000  0.65966900  0.38524800  1
  Al  Al2  1  0.25000000  0.15966900  0.11475200  1
  Al  Al3  1  0.25000000  0.34033100  0.61475200  1
  Al  Al4  1  0.99617900  0.68489500  0.74206200  1
  Al  Al5  1  0.50382100  0.81510500  0.24206200  1
  Al  Al6  1  0.49617900  0.31510500  0.25793800  1
  Al  Al7  1  0.00382100  0.18489500  0.75793800  1
  Al  Al8  1  0.00382100  0.31510500  0.25793800  1
  Al  Al9  1  0.49617900  0.18489500  0.75793800  1
  Al  Al10  1  0.50382100  0.68489500  0.74206200  1
  Al  Al11  1  0.99617900  0.81510500  0.24206200  1
  Si  Si0  1  0.25000000  0.91336900  0.40640500  1
  Si  Si1  1  0.25000000  0.58663100  0.90640500  1
  Si  Si2  1  0.75000000  0.08663100  0.59359500  1
  Si  Si3  1  0.75000000  0.41336900  0.09359500  1
  Si  Si4  1  0.75000000  0.79212400  0.57610700  1
  Si  Si5  1  0.75000000  0.70787600  0.07610700  1
  Si  Si6  1  0.25000000  0.20787600  0.42389300  1
  Si  Si7  1  0.25000000  0.29212400  0.92389300  1
  Si  Si8  1  0.25000000  0.93105000  0.83680300  1
  Si  Si9  1  0.25000000  0.56895000  0.33680300  1
  Si  Si10  1  0.75000000  0.06895000  0.16319700  1
  Si  Si11  1  0.75000000  0.43105000  0.66319700  1
  Pb  Pb0  1  0.25000000  0.94666200  0.63061500  1
  Pb  Pb1  1  0.25000000  0.55333800  0.13061500  1
  Pb  Pb2  1  0.75000000  0.05333800  0.36938500  1
  Pb  Pb3  1  0.75000000  0.44666200  0.86938500  1
  Pb  Pb4  1  0.25000000  0.63775200  0.54734900  1
  Pb  Pb5  1  0.25000000  0.86224800  0.04734900  1
  Pb  Pb6  1  0.75000000  0.36224800  0.45265100  1
  Pb  Pb7  1  0.75000000  0.13775200  0.95265100  1
  O  O0  1  0.47449100  0.88764400  0.34945000  1
  O  O1  1  0.02550900  0.61235600  0.84945000  1
  O  O2  1  0.97449100  0.11235600  0.65055000  1
  O  O3  1  0.52550900  0.38764400  0.15055000  1
  O  O4  1  0.52550900  0.11235600  0.65055000  1
  O  O5  1  0.97449100  0.38764400  0.15055000  1
  O  O6  1  0.02550900  0.88764400  0.34945000  1
  O  O7  1  0.47449100  0.61235600  0.84945000  1
  O  O8  1  0.48004400  0.92021200  0.89496000  1
  O  O9  1  0.01995600  0.57978800  0.39496000  1
  O  O10  1  0.98004400  0.07978800  0.10504000  1
  O  O11  1  0.51995600  0.42021200  0.60504000  1
  O  O12  1  0.51995600  0.07978800  0.10504000  1
  O  O13  1  0.98004400  0.42021200  0.60504000  1
  O  O14  1  0.01995600  0.92021200  0.89496000  1
  O  O15  1  0.48004400  0.57978800  0.39496000  1
  O  O16  1  0.97495100  0.75449500  0.63163500  1
  O  O17  1  0.52504900  0.74550500  0.13163500  1
  O  O18  1  0.47495100  0.24550500  0.36836500  1
  O  O19  1  0.02504900  0.25449500  0.86836500  1
  O  O20  1  0.02504900  0.24550500  0.36836500  1
  O  O21  1  0.47495100  0.25449500  0.86836500  1
  O  O22  1  0.52504900  0.75449500  0.63163500  1
  O  O23  1  0.97495100  0.74550500  0.13163500  1
  O  O24  1  0.75000000  0.77561300  0.78301900  1
  O  O25  1  0.75000000  0.72438700  0.28301900  1
  O  O26  1  0.25000000  0.22438700  0.21698100  1
  O  O27  1  0.25000000  0.27561300  0.71698100  1
  O  O28  1  0.25000000  0.81541100  0.76827900  1
  O  O29  1  0.25000000  0.68458900  0.26827900  1
  O  O30  1  0.75000000  0.18458900  0.23172100  1
  O  O31  1  0.75000000  0.31541100  0.73172100  1
  O  O32  1  0.25000000  0.06342600  0.78566100  1
  O  O33  1  0.25000000  0.43657400  0.28566100  1
  O  O34  1  0.75000000  0.93657400  0.21433900  1
  O  O35  1  0.75000000  0.56342600  0.71433900  1
  O  O36  1  0.25000000  0.83876800  0.49479800  1
  O  O37  1  0.25000000  0.66123200  0.99479800  1
  O  O38  1  0.75000000  0.16123200  0.50520200  1
  O  O39  1  0.75000000  0.33876800  0.00520200  1
  O  O40  1  0.75000000  0.72599800  0.48654200  1
  O  O41  1  0.75000000  0.77400200  0.98654200  1
  O  O42  1  0.25000000  0.27400200  0.51345800  1
  O  O43  1  0.25000000  0.22599800  0.01345800  1
  O  O44  1  0.75000000  0.94178600  0.56345000  1
  O  O45  1  0.75000000  0.55821400  0.06345000  1
  O  O46  1  0.25000000  0.05821400  0.43655000  1
  O  O47  1  0.25000000  0.44178600  0.93655000  1
  O  O48  1  0.25000000  0.59995200  0.70403500  1
  O  O49  1  0.25000000  0.90004800  0.20403500  1
  O  O50  1  0.75000000  0.40004800  0.29596500  1
  O  O51  1  0.75000000  0.09995200  0.79596500  1
loop_
_geom_bond_atom_site_label_1
_geom_bond_atom_site_label_2
_geom_bond_distance
_geom_bond_site_symmetry_2
Al0 O41 1.767166 1_555
Al0 O24 1.773611 1_555
Al0 O8 1.821845 1_555
Al0 O14 1.821845 1_655
Al1 O40 1.767166 1_555
Al1 O25 1.773611 1_555
Al1 O15 1.821845 1_555
Al1 O9 1.821845 1_655
Al2 O43 1.767166 1_555
Al2 O26 1.773611 1_555
Al2 O10 1.821845 1_455
Al2 O12 1.821845 1_555
Al3 O42 1.767166 1_555
Al3 O27 1.773611 1_555
Al3 O11 1.821845 1_555
Al3 O13 1.821845 1_455
Al4 O48 1.862167 1_655
Al4 O24 1.874882 1_555
Al4 O1 1.891513 1_655
Al4 O16 1.918579 1_555
Al4 O35 2.016843 1_555
Al4 O28 2.110241 1_655
Al5 O49 1.862167 1_555
Al5 O25 1.874882 1_555
Al5 O0 1.891513 1_555
Al5 O17 1.918579 1_555
Al5 O34 2.016843 1_555
Al5 O29 2.110241 1_555
Al6 O50 1.862167 1_555
Al6 O26 1.874882 1_555
Al6 O3 1.891513 1_555
Al6 O18 1.918579 1_555
Al6 O33 2.016843 1_555
Al6 O30 2.110241 1_555
Al7 O51 1.862167 1_455
Al7 O27 1.874882 1_555
Al7 O2 1.891513 1_455
Al7 O19 1.918579 1_555
Al7 O32 2.016843 1_555
Al7 O31 2.110241 1_455
Al8 O50 1.862167 1_455
Al8 O26 1.874882 1_555
Al8 O5 1.891513 1_455
Al8 O20 1.918579 1_555
Al8 O33 2.016843 1_555
Al8 O30 2.110241 1_455
Al9 O51 1.862167 1_555
Al9 O27 1.874882 1_555
Al9 O4 1.891513 1_555
Al9 O21 1.918579 1_555
Al9 O32 2.016843 1_555
Al9 O31 2.110241 1_555
Al10 O48 1.862167 1_555
Al10 O24 1.874882 1_555
Al10 O7 1.891513 1_555
Al10 O22 1.918579 1_555
Al10 O35 2.016843 1_555
Al10 O28 2.110241 1_555
Al11 O49 1.862167 1_655
Al11 O25 1.874882 1_555
Al11 O6 1.891513 1_655
Al11 O23 1.918579 1_555
Al11 O34 2.016843 1_555
Al11 O29 2.110241 1_655
O0 Si0 1.627744 1_555
O0 Pb2 2.455153 1_565
O1 Si1 1.627744 1_555
O1 Pb3 2.455153 1_455
O2 Si2 1.627744 1_555
O2 Pb0 2.455153 1_645
O3 Si3 1.627744 1_555
O3 Pb1 2.455153 1_555
O4 Si2 1.627744 1_555
O4 Pb0 2.455153 1_545
O5 Si3 1.627744 1_555
O5 Pb1 2.455153 1_655
O6 Si0 1.627744 1_555
O6 Pb2 2.455153 1_465
O7 Si1 1.627744 1_555
O7 Pb3 2.455153 1_555
O8 Si8 1.645270 1_555
O9 Si9 1.645270 1_555
O10 Si10 1.645270 1_555
O11 Si11 1.645270 1_555
O12 Si10 1.645270 1_555
O13 Si11 1.645270 1_555
O14 Si8 1.645270 1_555
O15 Si9 1.645270 1_555
O16 Si4 1.645162 1_555
O16 Pb4 2.461232 1_655
O16 Pb0 2.656063 1_655
O17 Si5 1.645162 1_555
O17 Pb5 2.461232 1_555
O17 Pb1 2.656063 1_555
O18 Si6 1.645162 1_555
O18 Pb6 2.461232 1_555
O18 Pb2 2.656063 1_555
O19 Si7 1.645162 1_555
O19 Pb7 2.461232 1_455
O19 Pb3 2.656063 1_455
O20 Si6 1.645162 1_555
O20 Pb6 2.461232 1_455
O20 Pb2 2.656063 1_455
O21 Si7 1.645162 1_555
O21 Pb7 2.461232 1_555
O21 Pb3 2.656063 1_555
O22 Si4 1.645162 1_555
O22 Pb4 2.461232 1_555
O22 Pb0 2.656063 1_555
O23 Si5 1.645162 1_555
O23 Pb5 2.461232 1_655
O23 Pb1 2.656063 1_655
O28 Si8 1.670671 1_555
O28 Pb0 2.619021 1_555
O29 Si9 1.670671 1_555
O29 Pb1 2.619021 1_555
O30 Si10 1.670671 1_555
O30 Pb2 2.619021 1_555
O31 Si11 1.670671 1_555
O31 Pb3 2.619021 1_555
O32 Si8 1.662148 1_545
O32 Pb0 2.777663 1_545
O33 Si9 1.662148 1_555
O33 Pb1 2.777663 1_555
O34 Si10 1.662148 1_565
O34 Pb2 2.777663 1_565
O35 Si11 1.662148 1_555
O35 Pb3 2.777663 1_555
O36 Si0 1.625934 1_555
O36 Pb4 2.354489 1_555
O36 Pb0 2.462061 1_555
O37 Si1 1.625934 1_555
O37 Pb5 2.354489 1_556
O37 Pb1 2.462061 1_556
O38 Si2 1.625934 1_555
O38 Pb6 2.354489 1_555
O38 Pb2 2.462061 1_555
O39 Si3 1.625934 1_555
O39 Pb7 2.354489 1_554
O39 Pb3 2.462061 1_554
O40 Si4 1.597940 1_555
O41 Si5 1.597940 1_556
O42 Si6 1.597940 1_555
O43 Si7 1.597940 1_554
O44 Si4 1.651137 1_555
O44 Si2 1.656951 1_565
O45 Si5 1.651137 1_555
O45 Si3 1.656951 1_555
O46 Si6 1.651137 1_555
O46 Si0 1.656951 1_545
O47 Si7 1.651137 1_555
O47 Si1 1.656951 1_555
O48 Pb4 2.526120 1_555
O49 Pb5 2.526120 1_555
O50 Pb6 2.526120 1_555
O51 Pb7 2.526120 1_555
