# generated using pymatgen
data_Na2V(PO4)2
_symmetry_space_group_name_H-M   'P 1'
_cell_length_a   13.62592300
_cell_length_b   6.37217900
_cell_length_c   7.82323490
_cell_angle_alpha   80.26495072
_cell_angle_beta   90.00000000
_cell_angle_gamma   90.00000000
_symmetry_Int_Tables_number   1
_chemical_formula_structural   Na2V(PO4)2
_chemical_formula_sum   'Na8 V4 P8 O32'
_cell_volume   669.48531846
_cell_formula_units_Z   4
loop_
 _symmetry_equiv_pos_site_id
 _symmetry_equiv_pos_as_xyz
  1  'x, y, z'
loop_
 _atom_site_type_symbol
 _atom_site_label
 _atom_site_symmetry_multiplicity
 _atom_site_fract_x
 _atom_site_fract_y
 _atom_site_fract_z
 _atom_site_occupancy
  Na  Na0  1  0.86787500  0.56191400  0.52929500  1
  Na  Na1  1  0.36787500  0.93808600  0.47070500  1
  Na  Na2  1  0.13212500  0.43808600  0.47070500  1
  Na  Na3  1  0.63212500  0.06191400  0.52929500  1
  Na  Na4  1  0.21181900  0.34058900  0.06425700  1
  Na  Na5  1  0.71181900  0.15941100  0.93574300  1
  Na  Na6  1  0.78818100  0.65941100  0.93574300  1
  Na  Na7  1  0.28818100  0.84058900  0.06425700  1
  V  V0  1  0.92603400  0.23081200  0.22787200  1
  V  V1  1  0.42603400  0.26918800  0.77212800  1
  V  V2  1  0.07396600  0.76918800  0.77212800  1
  V  V3  1  0.57396600  0.73081200  0.22787200  1
  P  P0  1  0.98155000  0.75000900  0.17325100  1
  P  P1  1  0.48155000  0.74999100  0.82674900  1
  P  P2  1  0.01845000  0.24999100  0.82674900  1
  P  P3  1  0.51845000  0.25000900  0.17325100  1
  P  P4  1  0.13307000  0.95881100  0.35888700  1
  P  P5  1  0.63307000  0.54118900  0.64111300  1
  P  P6  1  0.86693000  0.04118900  0.64111300  1
  P  P7  1  0.36693000  0.45881100  0.35888700  1
  O  O0  1  0.23373900  0.02481100  0.28686800  1
  O  O1  1  0.73373900  0.47518900  0.71313200  1
  O  O2  1  0.76626100  0.97518900  0.71313200  1
  O  O3  1  0.26626100  0.52481100  0.28686800  1
  O  O4  1  0.09154800  0.81493100  0.21830300  1
  O  O5  1  0.59154800  0.68506900  0.78169700  1
  O  O6  1  0.90845200  0.18506900  0.78169700  1
  O  O7  1  0.40845200  0.31493100  0.21830300  1
  O  O8  1  0.96482200  0.52808600  0.28337100  1
  O  O9  1  0.46482200  0.97191400  0.71662900  1
  O  O10  1  0.03517800  0.47191400  0.71662900  1
  O  O11  1  0.53517800  0.02808600  0.28337100  1
  O  O12  1  0.02329700  0.25517600  0.02085500  1
  O  O13  1  0.52329700  0.24482400  0.97914500  1
  O  O14  1  0.97670300  0.74482400  0.97914500  1
  O  O15  1  0.47670300  0.75517600  0.02085500  1
  O  O16  1  0.91066400  0.91142600  0.23117200  1
  O  O17  1  0.41066400  0.58857400  0.76882800  1
  O  O18  1  0.08933600  0.08857400  0.76882800  1
  O  O19  1  0.58933600  0.41142600  0.23117200  1
  O  O20  1  0.43715900  0.64594600  0.36007200  1
  O  O21  1  0.93715900  0.85405400  0.63992800  1
  O  O22  1  0.56284100  0.35405400  0.63992800  1
  O  O23  1  0.06284100  0.14594600  0.36007200  1
  O  O24  1  0.63735700  0.69540300  0.46680800  1
  O  O25  1  0.13735700  0.80459700  0.53319200  1
  O  O26  1  0.36264300  0.30459700  0.53319200  1
  O  O27  1  0.86264300  0.19540300  0.46680800  1
  O  O28  1  0.67211900  0.81421100  0.10884500  1
  O  O29  1  0.17211900  0.68578900  0.89115500  1
  O  O30  1  0.32788100  0.18578900  0.89115500  1
  O  O31  1  0.82788100  0.31421100  0.10884500  1
loop_
_geom_bond_atom_site_label_1
_geom_bond_atom_site_label_2
_geom_bond_distance
_geom_bond_site_symmetry_2
Na0 O1 2.333584 1_555
Na0 O8 2.373438 1_555
Na0 O21 2.377114 1_555
Na0 O27 2.466698 1_555
Na0 O10 2.718337 1_655
Na0 O6 2.892671 1_555
Na0 O16 2.997174 1_555
Na1 O0 2.333584 1_565
Na1 O9 2.373438 1_555
Na1 O20 2.377114 1_555
Na1 O26 2.466698 1_565
Na1 O11 2.718337 1_565
Na1 O7 2.892671 1_565
Na1 O17 2.997174 1_555
Na2 O3 2.333584 1_555
Na2 O10 2.373438 1_555
Na2 O23 2.377114 1_555
Na2 O25 2.466698 1_555
Na2 O8 2.718337 1_455
Na2 O4 2.892671 1_555
Na2 O18 2.997174 1_555
Na3 O2 2.333584 1_545
Na3 O11 2.373438 1_555
Na3 O22 2.377114 1_555
Na3 O24 2.466698 1_545
Na3 O9 2.718337 1_545
Na3 O5 2.892671 1_545
Na3 O19 2.997174 1_555
Na4 O3 2.377534 1_555
Na4 O30 2.399929 1_554
Na4 O29 2.440842 1_554
Na4 O0 2.446627 1_555
Na4 O12 2.659450 1_555
Na5 O2 2.377534 1_545
Na5 O31 2.399929 1_556
Na5 O28 2.440842 1_546
Na5 O1 2.446627 1_555
Na5 O13 2.659450 1_555
Na6 O1 2.377534 1_555
Na6 O28 2.399929 1_556
Na6 O31 2.440842 1_556
Na6 O2 2.446627 1_555
Na6 O14 2.659450 1_555
Na7 O0 2.377534 1_565
Na7 O29 2.399929 1_554
Na7 O30 2.440842 1_564
Na7 O3 2.446627 1_555
Na7 O15 2.659450 1_555
O0 P4 1.515179 1_545
O1 P5 1.515179 1_555
O2 P6 1.515179 1_565
O3 P7 1.515179 1_555
O4 P0 1.609705 1_455
O4 P4 1.646601 1_555
O5 P1 1.609705 1_555
O5 P5 1.646601 1_555
O6 P2 1.609705 1_655
O6 P6 1.646601 1_555
O7 P3 1.609705 1_555
O7 P7 1.646601 1_555
O8 P0 1.543341 1_555
O8 V0 2.081899 1_555
O9 P1 1.543341 1_555
O9 V1 2.081899 1_565
O10 P2 1.543341 1_555
O10 V2 2.081899 1_555
O11 P3 1.543341 1_555
O11 V3 2.081899 1_545
O12 P2 1.525901 1_554
O12 V0 2.078077 1_455
O13 P3 1.525901 1_556
O13 V1 2.078077 1_555
O14 P0 1.525901 1_556
O14 V2 2.078077 1_655
O15 P1 1.525901 1_554
O15 V3 2.078077 1_555
O16 P0 1.534229 1_555
O16 V0 2.041748 1_565
O17 P1 1.534229 1_555
O17 V1 2.041748 1_555
O18 P2 1.534229 1_555
O18 V2 2.041748 1_545
O19 P3 1.534229 1_555
O19 V3 2.041748 1_555
O20 P7 1.530197 1_555
O20 V3 2.155895 1_555
O21 P6 1.530197 1_565
O21 V2 2.155895 1_655
O22 P5 1.530197 1_555
O22 V1 2.155895 1_555
O23 P4 1.530197 1_545
O23 V0 2.155895 1_455
O24 P5 1.541228 1_555
O24 V3 2.036778 1_555
O25 P4 1.541228 1_555
O25 V2 2.036778 1_555
O26 P7 1.541228 1_555
O26 V1 2.036778 1_555
O27 P6 1.541228 1_555
O27 V0 2.036778 1_555
O28 V3 1.664591 1_555
O29 V2 1.664591 1_555
O30 V1 1.664591 1_555
O31 V0 1.664591 1_555
