# generated using pymatgen
data_H4Pd(NO4)2
_symmetry_space_group_name_H-M   'P 1'
_cell_length_a   4.99071400
_cell_length_b   10.89703100
_cell_length_c   12.13460600
_cell_angle_alpha   90.00000000
_cell_angle_beta   90.00000000
_cell_angle_gamma   90.00000000
_symmetry_Int_Tables_number   1
_chemical_formula_structural   H4Pd(NO4)2
_chemical_formula_sum   'H16 Pd4 N8 O32'
_cell_volume   659.92799006
_cell_formula_units_Z   4
loop_
 _symmetry_equiv_pos_site_id
 _symmetry_equiv_pos_as_xyz
  1  'x, y, z'
loop_
 _atom_site_type_symbol
 _atom_site_label
 _atom_site_symmetry_multiplicity
 _atom_site_fract_x
 _atom_site_fract_y
 _atom_site_fract_z
 _atom_site_occupancy
  H  H0  1  0.87781000  0.02630400  0.35983600  1
  H  H1  1  0.37781000  0.47369600  0.64016400  1
  H  H2  1  0.12219000  0.52630400  0.14016400  1
  H  H3  1  0.62219000  0.97369600  0.85983600  1
  H  H4  1  0.12219000  0.97369600  0.64016400  1
  H  H5  1  0.62219000  0.52630400  0.35983600  1
  H  H6  1  0.87781000  0.47369600  0.85983600  1
  H  H7  1  0.37781000  0.02630400  0.14016400  1
  H  H8  1  0.68326600  0.14562300  0.34789800  1
  H  H9  1  0.18326600  0.35437700  0.65210200  1
  H  H10  1  0.31673400  0.64562300  0.15210200  1
  H  H11  1  0.81673400  0.85437700  0.84789800  1
  H  H12  1  0.31673400  0.85437700  0.65210200  1
  H  H13  1  0.81673400  0.64562300  0.34789800  1
  H  H14  1  0.68326600  0.35437700  0.84789800  1
  H  H15  1  0.18326600  0.14562300  0.15210200  1
  Pd  Pd0  1  0.50000000  0.00000000  0.50000000  1
  Pd  Pd1  1  0.00000000  0.50000000  0.50000000  1
  Pd  Pd2  1  0.50000000  0.50000000  0.00000000  1
  Pd  Pd3  1  0.00000000  0.00000000  0.00000000  1
  N  N0  1  0.84627800  0.17400200  0.61456900  1
  N  N1  1  0.34627800  0.32599800  0.38543100  1
  N  N2  1  0.15372200  0.67400200  0.88543100  1
  N  N3  1  0.65372200  0.82599800  0.11456900  1
  N  N4  1  0.15372200  0.82599800  0.38543100  1
  N  N5  1  0.65372200  0.67400200  0.61456900  1
  N  N6  1  0.84627800  0.32599800  0.11456900  1
  N  N7  1  0.34627800  0.17400200  0.88543100  1
  O  O0  1  0.68952500  0.05483900  0.35666200  1
  O  O1  1  0.18952500  0.44516100  0.64333800  1
  O  O2  1  0.31047500  0.55483900  0.14333800  1
  O  O3  1  0.81047500  0.94516100  0.85666200  1
  O  O4  1  0.31047500  0.94516100  0.64333800  1
  O  O5  1  0.81047500  0.55483900  0.35666200  1
  O  O6  1  0.68952500  0.44516100  0.85666200  1
  O  O7  1  0.18952500  0.05483900  0.14333800  1
  O  O8  1  0.81392500  0.05356800  0.59480800  1
  O  O9  1  0.31392500  0.44643200  0.40519200  1
  O  O10  1  0.18607500  0.55356800  0.90519200  1
  O  O11  1  0.68607500  0.94643200  0.09480800  1
  O  O12  1  0.18607500  0.94643200  0.40519200  1
  O  O13  1  0.68607500  0.55356800  0.59480800  1
  O  O14  1  0.81392500  0.44643200  0.09480800  1
  O  O15  1  0.31392500  0.05356800  0.90519200  1
  O  O16  1  0.67924200  0.24765600  0.58085300  1
  O  O17  1  0.17924200  0.25234400  0.41914700  1
  O  O18  1  0.32075800  0.74765600  0.91914700  1
  O  O19  1  0.82075800  0.75234400  0.08085300  1
  O  O20  1  0.32075800  0.75234400  0.41914700  1
  O  O21  1  0.82075800  0.74765600  0.58085300  1
  O  O22  1  0.67924200  0.25234400  0.08085300  1
  O  O23  1  0.17924200  0.24765600  0.91914700  1
  O  O24  1  0.05396600  0.19997300  0.66697300  1
  O  O25  1  0.55396600  0.30002700  0.33302700  1
  O  O26  1  0.94603400  0.69997300  0.83302700  1
  O  O27  1  0.44603400  0.80002700  0.16697300  1
  O  O28  1  0.94603400  0.80002700  0.33302700  1
  O  O29  1  0.44603400  0.69997300  0.66697300  1
  O  O30  1  0.05396600  0.30002700  0.16697300  1
  O  O31  1  0.55396600  0.19997300  0.83302700  1
loop_
_geom_bond_atom_site_label_1
_geom_bond_atom_site_label_2
_geom_bond_distance
_geom_bond_site_symmetry_2
H0 O0 0.990537 1_555
H1 O1 0.990537 1_555
H2 O2 0.990537 1_555
H3 O3 0.990537 1_555
H4 O4 0.990537 1_555
H5 O5 0.990537 1_555
H6 O6 0.990537 1_555
H7 O7 0.990537 1_555
H8 O0 0.995466 1_555
H9 O1 0.995466 1_555
H10 O2 0.995466 1_555
H11 O3 0.995466 1_555
H12 O4 0.995466 1_555
H13 O5 0.995466 1_555
H14 O6 0.995466 1_555
H15 O7 0.995466 1_555
N0 O16 1.227399 1_555
N0 O24 1.248527 1_655
N0 O8 1.343836 1_555
N1 O17 1.227399 1_555
N1 O25 1.248527 1_555
N1 O9 1.343836 1_555
N2 O18 1.227399 1_555
N2 O26 1.248527 1_455
N2 O10 1.343836 1_555
N3 O19 1.227399 1_555
N3 O27 1.248527 1_555
N3 O11 1.343836 1_555
N4 O20 1.227399 1_555
N4 O28 1.248527 1_455
N4 O12 1.343836 1_555
N5 O21 1.227399 1_555
N5 O29 1.248527 1_555
N5 O13 1.343836 1_555
N6 O22 1.227399 1_555
N6 O30 1.248527 1_655
N6 O14 1.343836 1_555
N7 O23 1.227399 1_555
N7 O31 1.248527 1_555
N7 O15 1.343836 1_555
O0 Pd0 2.068116 1_555
O1 Pd1 2.068116 1_555
O2 Pd2 2.068116 1_555
O3 Pd3 2.068116 1_666
O4 Pd0 2.068116 1_565
O5 Pd1 2.068116 1_655
O6 Pd2 2.068116 1_556
O7 Pd3 2.068116 1_555
O8 Pd0 2.029501 1_555
O9 Pd1 2.029501 1_555
O10 Pd2 2.029501 1_556
O11 Pd3 2.029501 1_665
O12 Pd0 2.029501 1_565
O13 Pd1 2.029501 1_655
O14 Pd2 2.029501 1_555
O15 Pd3 2.029501 1_556
