# generated using pymatgen
data_Pr6Fe13Hg
_symmetry_space_group_name_H-M   'P 1'
_cell_length_a   8.07079800
_cell_length_b   8.07079800
_cell_length_c   12.97117973
_cell_angle_alpha   108.12583615
_cell_angle_beta   108.12583615
_cell_angle_gamma   90.00000000
_symmetry_Int_Tables_number   1
_chemical_formula_structural   Pr6Fe13Hg
_chemical_formula_sum   'Pr12 Fe26 Hg2'
_cell_volume   758.74362528
_cell_formula_units_Z   2
loop_
 _symmetry_equiv_pos_site_id
 _symmetry_equiv_pos_as_xyz
  1  'x, y, z'
loop_
 _atom_site_type_symbol
 _atom_site_label
 _atom_site_symmetry_multiplicity
 _atom_site_fract_x
 _atom_site_fract_y
 _atom_site_fract_z
 _atom_site_occupancy
  Pr  Pr0  1  0.97673700  0.47673700  0.62815600  1
  Pr  Pr1  1  0.65141900  0.15141900  0.62815600  1
  Pr  Pr2  1  0.15141900  0.97673700  0.62815600  1
  Pr  Pr3  1  0.47673700  0.65141900  0.62815600  1
  Pr  Pr4  1  0.02326300  0.52326300  0.37184400  1
  Pr  Pr5  1  0.34858100  0.84858100  0.37184400  1
  Pr  Pr6  1  0.84858100  0.02326300  0.37184400  1
  Pr  Pr7  1  0.52326300  0.34858100  0.37184400  1
  Pr  Pr8  1  0.60548000  0.60548000  0.21096100  1
  Pr  Pr9  1  0.10548000  0.10548000  0.21096100  1
  Pr  Pr10  1  0.39452000  0.39452000  0.78903900  1
  Pr  Pr11  1  0.89452000  0.89452000  0.78903900  1
  Fe  Fe0  1  0.11973300  0.61973300  0.88272900  1
  Fe  Fe1  1  0.76299600  0.26299600  0.88272900  1
  Fe  Fe2  1  0.26299600  0.11973300  0.88272900  1
  Fe  Fe3  1  0.61973300  0.76299600  0.88272900  1
  Fe  Fe4  1  0.88026700  0.38026700  0.11727100  1
  Fe  Fe5  1  0.23700400  0.73700400  0.11727100  1
  Fe  Fe6  1  0.73700400  0.88026700  0.11727100  1
  Fe  Fe7  1  0.38026700  0.23700400  0.11727100  1
  Fe  Fe8  1  0.71087900  0.56655700  0.00000000  1
  Fe  Fe9  1  0.28912100  0.43344300  0.00000000  1
  Fe  Fe10  1  0.78912100  0.06655700  0.00000000  1
  Fe  Fe11  1  0.21087900  0.93344300  0.00000000  1
  Fe  Fe12  1  0.56655700  0.28912100  0.00000000  1
  Fe  Fe13  1  0.43344300  0.71087900  0.00000000  1
  Fe  Fe14  1  0.06655700  0.21087900  0.00000000  1
  Fe  Fe15  1  0.93344300  0.78912100  0.00000000  1
  Fe  Fe16  1  0.29277700  0.79277700  0.81198500  1
  Fe  Fe17  1  0.51920700  0.01920700  0.81198500  1
  Fe  Fe18  1  0.01920700  0.29277700  0.81198500  1
  Fe  Fe19  1  0.79277700  0.51920700  0.81198500  1
  Fe  Fe20  1  0.70722300  0.20722300  0.18801500  1
  Fe  Fe21  1  0.48079300  0.98079300  0.18801500  1
  Fe  Fe22  1  0.98079300  0.70722300  0.18801500  1
  Fe  Fe23  1  0.20722300  0.48079300  0.18801500  1
  Fe  Fe24  1  0.00000000  0.50000000  0.00000000  1
  Fe  Fe25  1  0.50000000  0.00000000  0.00000000  1
  Hg  Hg0  1  0.25000000  0.25000000  0.50000000  1
  Hg  Hg1  1  0.75000000  0.75000000  0.50000000  1
loop_
_geom_bond_atom_site_label_1
_geom_bond_atom_site_label_2
_geom_bond_distance
_geom_bond_site_symmetry_2
Fe0 Fe24 2.451679 1_556
Fe0 Fe11 2.484528 1_556
Fe0 Fe13 2.484528 1_556
Fe0 Fe16 2.517511 1_555
Fe0 Fe19 2.548266 1_455
Fe0 Fe18 2.548266 1_555
Fe0 Fe15 2.563685 1_456
Fe0 Fe9 2.563685 1_556
Fe0 Fe5 2.732013 1_556
Fe0 Pr0 2.970756 1_455
Fe0 Pr11 3.162544 1_455
Fe0 Pr10 3.162544 1_555
Fe1 Fe24 2.451679 1_656
Fe1 Fe12 2.484528 1_556
Fe1 Fe10 2.484528 1_556
Fe1 Fe17 2.517522 1_555
Fe1 Fe18 2.548257 1_655
Fe1 Fe19 2.548257 1_555
Fe1 Fe14 2.563685 1_656
Fe1 Fe8 2.563685 1_556
Fe1 Fe4 2.732013 1_556
Fe1 Pr1 2.970756 1_555
Fe1 Pr11 3.162541 1_545
Fe1 Pr10 3.162541 1_555
Fe2 Fe25 2.451679 1_556
Fe2 Fe9 2.484528 1_556
Fe2 Fe7 2.732013 1_556
Fe2 Pr2 2.970756 1_545
Fe2 Pr11 3.162537 1_445
Fe2 Pr10 3.162547 1_555
Fe3 Fe8 2.484528 1_556
Fe3 Fe6 2.732013 1_556
Fe3 Pr3 2.970756 1_555
Fe3 Pr10 3.162537 1_555
Fe3 Pr11 3.162547 1_555
Fe4 Fe8 2.563685 1_555
Fe4 Pr4 2.970756 1_655
Fe4 Pr8 3.162544 1_555
Fe4 Pr9 3.162544 1_655
Fe5 Fe9 2.563685 1_555
Fe5 Pr5 2.970756 1_555
Fe5 Pr9 3.162541 1_565
Fe5 Pr8 3.162541 1_555
Fe6 Fe8 2.484528 1_555
Fe6 Pr6 2.970756 1_565
Fe6 Pr9 3.162537 1_665
Fe6 Pr8 3.162547 1_555
Fe7 Fe9 2.484528 1_555
Fe7 Pr7 2.970756 1_555
Fe7 Pr8 3.162537 1_555
Fe7 Pr9 3.162547 1_555
Fe8 Pr10 3.037054 1_554
Fe8 Pr8 3.037060 1_555
Fe9 Pr8 3.037054 1_555
Fe9 Pr10 3.037060 1_554
Fe10 Fe25 2.394468 1_555
Fe10 Fe4 2.484528 1_555
Fe10 Fe15 2.523974 1_545
Fe10 Fe14 2.523974 1_655
Fe10 Fe12 2.540308 1_555
Fe10 Fe3 2.563685 1_544
Fe10 Fe6 2.563685 1_545
Fe10 Fe20 2.636983 1_555
Fe10 Fe17 2.636986 1_554
Fe10 Pr9 3.037056 1_655
Fe10 Pr11 3.037059 1_544
Fe11 Fe25 2.394468 1_565
Fe11 Fe5 2.484528 1_555
Fe11 Fe15 2.523974 1_455
Fe11 Fe14 2.523974 1_565
Fe11 Fe13 2.540308 1_555
Fe11 Fe2 2.563685 1_564
Fe11 Fe7 2.563685 1_565
Fe11 Fe16 2.636983 1_554
Fe11 Fe21 2.636986 1_555
Fe11 Pr11 3.037056 1_454
Fe11 Pr9 3.037059 1_565
Fe12 Fe25 2.394468 1_555
Fe12 Fe4 2.484528 1_555
Fe12 Fe8 2.523974 1_555
Fe12 Fe9 2.523974 1_555
Fe12 Fe2 2.563685 1_554
Fe12 Fe7 2.563685 1_555
Fe12 Fe20 2.636983 1_555
Fe12 Fe17 2.636986 1_554
Fe12 Pr8 3.037056 1_555
Fe12 Pr10 3.037059 1_554
Fe13 Fe25 2.394468 1_565
Fe13 Fe5 2.484528 1_555
Fe13 Fe8 2.523974 1_555
Fe13 Fe9 2.523974 1_555
Fe13 Fe6 2.563685 1_555
Fe13 Fe3 2.563685 1_554
Fe13 Fe16 2.636983 1_554
Fe13 Fe21 2.636986 1_555
Fe13 Pr10 3.037056 1_554
Fe13 Pr8 3.037059 1_555
Fe14 Fe24 2.394468 1_555
Fe14 Fe7 2.484528 1_555
Fe14 Fe2 2.484528 1_554
Fe14 Fe9 2.540308 1_555
Fe14 Fe4 2.563685 1_455
Fe14 Fe18 2.636982 1_554
Fe14 Fe23 2.636987 1_555
Fe14 Pr11 3.037054 1_444
Fe14 Pr9 3.037060 1_555
Fe15 Fe24 2.394468 1_655
Fe15 Fe6 2.484528 1_555
Fe15 Fe3 2.484528 1_554
Fe15 Fe8 2.540308 1_555
Fe15 Fe5 2.563685 1_655
Fe15 Fe22 2.636982 1_555
Fe15 Fe19 2.636987 1_554
Fe15 Pr9 3.037054 1_665
Fe15 Pr11 3.037060 1_554
Fe16 Fe25 2.542867 1_566
Fe16 Fe2 2.548264 1_565
Fe16 Fe3 2.548264 1_555
Fe16 Fe17 2.584434 1_565
Fe16 Pr3 3.114771 1_555
Fe16 Pr2 3.114771 1_555
Fe16 Pr10 3.263602 1_555
Fe16 Pr11 3.263602 1_455
Fe16 Pr0 3.336041 1_455
Fe17 Fe25 2.542861 1_556
Fe17 Fe2 2.548259 1_555
Fe17 Fe3 2.548259 1_545
Fe17 Pr3 3.114767 1_545
Fe17 Pr2 3.114767 1_545
Fe17 Pr11 3.263613 1_545
Fe17 Pr10 3.263613 1_555
Fe17 Pr1 3.336050 1_555
Fe18 Fe2 2.517516 1_555
Fe18 Fe24 2.542864 1_556
Fe18 Fe19 2.584434 1_455
Fe18 Fe9 2.636987 1_556
Fe18 Pr1 3.114766 1_455
Fe18 Pr0 3.114772 1_455
Fe18 Pr11 3.263598 1_445
Fe18 Pr10 3.263618 1_555
Fe18 Pr2 3.336045 1_545
Fe19 Fe3 2.517516 1_555
Fe19 Fe24 2.542864 1_656
Fe19 Fe8 2.636982 1_556
Fe19 Pr1 3.114766 1_555
Fe19 Pr0 3.114772 1_555
Fe19 Pr10 3.263598 1_555
Fe19 Pr11 3.263618 1_555
Fe19 Pr3 3.336045 1_555
Fe20 Fe4 2.517511 1_555
Fe20 Fe25 2.542867 1_555
Fe20 Fe7 2.548264 1_555
Fe20 Fe6 2.548264 1_545
Fe20 Fe21 2.584434 1_545
Fe20 Pr7 3.114771 1_555
Fe20 Pr6 3.114771 1_555
Fe20 Pr8 3.263602 1_555
Fe20 Pr9 3.263602 1_655
Fe20 Pr4 3.336041 1_655
Fe21 Fe5 2.517522 1_555
Fe21 Fe25 2.542861 1_565
Fe21 Fe6 2.548259 1_555
Fe21 Fe7 2.548259 1_565
Fe21 Pr6 3.114767 1_565
Fe21 Pr7 3.114767 1_565
Fe21 Pr8 3.263613 1_555
Fe21 Pr9 3.263613 1_565
Fe21 Pr5 3.336050 1_555
Fe22 Fe6 2.517516 1_555
Fe22 Fe24 2.542864 1_655
Fe22 Fe5 2.548257 1_655
Fe22 Fe4 2.548266 1_555
Fe22 Fe23 2.584434 1_655
Fe22 Fe8 2.636987 1_555
Fe22 Pr5 3.114766 1_655
Fe22 Pr4 3.114772 1_655
Fe22 Pr9 3.263598 1_665
Fe22 Pr8 3.263618 1_555
Fe22 Pr6 3.336045 1_565
Fe23 Fe7 2.517516 1_555
Fe23 Fe24 2.542864 1_555
Fe23 Fe5 2.548257 1_555
Fe23 Fe4 2.548266 1_455
Fe23 Fe9 2.636982 1_555
Fe23 Pr5 3.114766 1_555
Fe23 Pr4 3.114772 1_555
Fe23 Pr8 3.263598 1_555
Fe23 Pr9 3.263618 1_555
Fe23 Pr7 3.336045 1_555
Fe24 Fe9 2.394468 1_555
Fe24 Fe8 2.394468 1_455
Fe24 Fe5 2.451679 1_555
Fe24 Fe4 2.451679 1_455
Fe25 Fe3 2.451679 1_544
Fe25 Fe7 2.451679 1_555
Fe25 Fe6 2.451679 1_545
Hg0 Pr10 3.366810 1_555
Hg0 Pr9 3.366810 1_555
Hg0 Pr2 3.371123 1_545
Hg0 Pr0 3.371123 1_455
Hg0 Pr4 3.371123 1_555
Hg0 Pr7 3.371123 1_555
Hg0 Pr3 3.371123 1_555
Hg0 Pr1 3.371123 1_555
Hg0 Pr5 3.371123 1_545
Hg0 Pr6 3.371123 1_455
Hg1 Pr11 3.366810 1_555
Hg1 Pr8 3.366810 1_555
Hg1 Pr1 3.371123 1_565
Hg1 Pr3 3.371123 1_555
Hg1 Pr6 3.371123 1_565
Hg1 Pr5 3.371123 1_555
Hg1 Pr2 3.371123 1_655
Hg1 Pr0 3.371123 1_555
Hg1 Pr7 3.371123 1_555
Hg1 Pr4 3.371123 1_655
