# generated using pymatgen
data_Lu4MgGe4
_symmetry_space_group_name_H-M   'P 1'
_cell_length_a   7.01998354
_cell_length_b   7.53837533
_cell_length_c   14.27446388
_cell_angle_alpha   90.00000000
_cell_angle_beta   90.00000000
_cell_angle_gamma   90.00000000
_symmetry_Int_Tables_number   1
_chemical_formula_structural   Lu4MgGe4
_chemical_formula_sum   'Lu16 Mg4 Ge16'
_cell_volume   755.39421866
_cell_formula_units_Z   4
loop_
 _symmetry_equiv_pos_site_id
 _symmetry_equiv_pos_as_xyz
  1  'x, y, z'
loop_
 _atom_site_type_symbol
 _atom_site_label
 _atom_site_symmetry_multiplicity
 _atom_site_fract_x
 _atom_site_fract_y
 _atom_site_fract_z
 _atom_site_occupancy
  Lu  Lu0  1  0.33393151  0.17638554  0.62579217  1
  Lu  Lu1  1  0.66606849  0.82361446  0.37420783  1
  Lu  Lu2  1  0.16606849  0.67638554  0.37420783  1
  Lu  Lu3  1  0.66606849  0.82361446  0.12579217  1
  Lu  Lu4  1  0.83393151  0.32361446  0.62579217  1
  Lu  Lu5  1  0.33393151  0.17638554  0.87420783  1
  Lu  Lu6  1  0.83393151  0.32361446  0.87420783  1
  Lu  Lu7  1  0.16606849  0.67638554  0.12579217  1
  Lu  Lu8  1  0.00750770  0.18147262  0.09300922  1
  Lu  Lu9  1  0.99249230  0.81852738  0.90699078  1
  Lu  Lu10  1  0.49249230  0.68147262  0.90699078  1
  Lu  Lu11  1  0.99249230  0.81852738  0.59300922  1
  Lu  Lu12  1  0.50750770  0.31852738  0.09300922  1
  Lu  Lu13  1  0.00750770  0.18147262  0.40699078  1
  Lu  Lu14  1  0.50750770  0.31852738  0.40699078  1
  Lu  Lu15  1  0.49249230  0.68147262  0.59300922  1
  Mg  Mg0  1  0.16374223  0.51667075  0.75000000  1
  Mg  Mg1  1  0.83625777  0.48332925  0.25000000  1
  Mg  Mg2  1  0.33625777  0.01667075  0.25000000  1
  Mg  Mg3  1  0.66374223  0.98332925  0.75000000  1
  Ge  Ge0  1  0.02824899  0.09350871  0.75000000  1
  Ge  Ge1  1  0.97175101  0.90649129  0.25000000  1
  Ge  Ge2  1  0.47175101  0.59350871  0.25000000  1
  Ge  Ge3  1  0.52824899  0.40649129  0.75000000  1
  Ge  Ge4  1  0.17658926  0.46516781  0.53613710  1
  Ge  Ge5  1  0.82341074  0.53483219  0.46386290  1
  Ge  Ge6  1  0.32341074  0.96516781  0.46386290  1
  Ge  Ge7  1  0.82341074  0.53483219  0.03613710  1
  Ge  Ge8  1  0.67658926  0.03483219  0.53613710  1
  Ge  Ge9  1  0.17658926  0.46516781  0.96386290  1
  Ge  Ge10  1  0.67658926  0.03483219  0.96386290  1
  Ge  Ge11  1  0.32341074  0.96516781  0.03613710  1
  Ge  Ge12  1  0.29178139  0.86045155  0.75000000  1
  Ge  Ge13  1  0.70821861  0.13954845  0.25000000  1
  Ge  Ge14  1  0.20821861  0.36045155  0.25000000  1
  Ge  Ge15  1  0.79178139  0.63954845  0.75000000  1
loop_
_geom_bond_atom_site_label_1
_geom_bond_atom_site_label_2
_geom_bond_distance
_geom_bond_site_symmetry_2
Ge0 Ge12 2.551289 1_545
Ge0 Mg3 2.690255 1_445
Ge0 Lu4 2.830765 1_455
Ge0 Lu6 2.830765 1_455
Ge0 Lu5 2.852837 1_555
Ge0 Lu0 2.852837 1_555
Ge0 Lu9 3.062984 1_445
Ge0 Lu11 3.062984 1_445
Ge1 Ge13 2.551289 1_565
Ge1 Mg2 2.690255 1_665
Ge1 Lu2 2.830765 1_655
Ge1 Lu7 2.830765 1_655
Ge1 Lu3 2.852837 1_555
Ge1 Lu1 2.852837 1_555
Ge1 Lu8 3.062984 1_665
Ge1 Lu13 3.062984 1_665
Ge2 Mg1 2.690255 1_555
Ge2 Lu3 2.830765 1_555
Ge2 Lu1 2.830765 1_555
Ge2 Lu7 2.852837 1_555
Ge2 Lu2 2.852837 1_555
Ge2 Lu12 3.062984 1_555
Ge2 Lu14 3.062984 1_555
Ge3 Mg0 2.690255 1_555
Ge3 Lu0 2.830765 1_555
Ge3 Lu5 2.830765 1_555
Ge3 Lu6 2.852837 1_555
Ge3 Lu4 2.852837 1_555
Ge3 Lu15 3.062984 1_555
Ge3 Lu10 3.062984 1_555
Ge4 Ge5 2.736258 1_455
Ge4 Lu0 2.756256 1_555
Ge4 Lu2 2.807756 1_555
Ge4 Lu15 2.869802 1_555
Ge4 Lu4 2.926208 1_455
Ge4 Lu13 3.062831 1_555
Ge4 Lu11 3.069990 1_455
Ge4 Mg0 3.078689 1_555
Ge4 Lu14 3.164960 1_555
Ge5 Lu1 2.756256 1_555
Ge5 Lu4 2.807756 1_555
Ge5 Lu14 2.869802 1_555
Ge5 Lu2 2.926208 1_655
Ge5 Lu11 3.062831 1_555
Ge5 Lu13 3.069990 1_655
Ge5 Mg1 3.078689 1_555
Ge5 Lu15 3.164960 1_555
Ge6 Ge8 2.736258 1_565
Ge6 Lu2 2.756256 1_555
Ge6 Lu0 2.807756 1_565
Ge6 Lu13 2.869802 1_565
Ge6 Lu1 2.926208 1_555
Ge6 Lu15 3.062831 1_555
Ge6 Lu14 3.069990 1_565
Ge6 Mg2 3.078689 1_565
Ge6 Lu11 3.164960 1_455
Ge7 Ge9 2.736258 1_654
Ge7 Lu3 2.756256 1_555
Ge7 Lu6 2.807756 1_554
Ge7 Lu12 2.869802 1_555
Ge7 Lu7 2.926208 1_655
Ge7 Lu9 3.062831 1_554
Ge7 Lu8 3.069990 1_655
Ge7 Mg1 3.078689 1_555
Ge7 Lu10 3.164960 1_554
Ge8 Lu4 2.756256 1_555
Ge8 Lu1 2.807756 1_545
Ge8 Lu11 2.869802 1_545
Ge8 Lu0 2.926208 1_555
Ge8 Lu14 3.062831 1_555
Ge8 Lu15 3.069990 1_545
Ge8 Mg3 3.078689 1_545
Ge8 Lu13 3.164960 1_655
Ge9 Lu5 2.756256 1_555
Ge9 Lu7 2.807756 1_556
Ge9 Lu10 2.869802 1_555
Ge9 Lu6 2.926208 1_455
Ge9 Lu8 3.062831 1_556
Ge9 Lu9 3.069990 1_455
Ge9 Mg0 3.078689 1_555
Ge9 Lu12 3.164960 1_556
Ge10 Ge11 2.736258 1_546
Ge10 Lu6 2.756256 1_555
Ge10 Lu3 2.807756 1_546
Ge10 Lu9 2.869802 1_545
Ge10 Lu5 2.926208 1_555
Ge10 Lu12 3.062831 1_556
Ge10 Lu10 3.069990 1_545
Ge10 Mg3 3.078689 1_545
Ge10 Lu8 3.164960 1_656
Ge11 Lu7 2.756256 1_555
Ge11 Lu5 2.807756 1_564
Ge11 Lu8 2.869802 1_565
Ge11 Lu3 2.926208 1_555
Ge11 Lu10 3.062831 1_554
Ge11 Lu12 3.069990 1_565
Ge11 Mg2 3.078689 1_565
Ge11 Lu9 3.164960 1_454
Ge12 Mg0 2.742996 1_555
Ge12 Mg3 2.770592 1_555
Ge12 Lu15 2.971113 1_555
Ge12 Lu10 2.971113 1_555
Ge12 Lu0 2.983830 1_565
Ge12 Lu5 2.983830 1_565
Ge12 Lu11 3.088041 1_455
Ge12 Lu9 3.088041 1_455
Ge13 Mg1 2.742996 1_555
Ge13 Mg2 2.770592 1_555
Ge13 Lu12 2.971113 1_555
Ge13 Lu14 2.971113 1_555
Ge13 Lu3 2.983830 1_545
Ge13 Lu1 2.983830 1_545
Ge13 Lu8 3.088041 1_655
Ge13 Lu13 3.088041 1_655
Ge14 Ge2 2.551289 1_555
Ge14 Mg2 2.742996 1_555
Ge14 Mg1 2.770592 1_455
Ge14 Lu13 2.971113 1_555
Ge14 Lu8 2.971113 1_555
Ge14 Lu7 2.983830 1_555
Ge14 Lu2 2.983830 1_555
Ge14 Lu14 3.088041 1_555
Ge14 Lu12 3.088041 1_555
Ge15 Ge3 2.551289 1_555
Ge15 Mg3 2.742996 1_555
Ge15 Mg0 2.770592 1_655
Ge15 Lu11 2.971113 1_555
Ge15 Lu9 2.971113 1_555
Ge15 Lu4 2.983830 1_555
Ge15 Lu6 2.983830 1_555
Ge15 Lu10 3.088041 1_555
Ge15 Lu15 3.088041 1_555
