# generated using pymatgen
data_MnAsRh
_symmetry_space_group_name_H-M   'P 1'
_cell_length_a   6.36109700
_cell_length_b   6.36109710
_cell_length_c   3.72029500
_cell_angle_alpha   90.00000000
_cell_angle_beta   90.00000000
_cell_angle_gamma   119.99999429
_symmetry_Int_Tables_number   1
_chemical_formula_structural   MnAsRh
_chemical_formula_sum   'Mn3 As3 Rh3'
_cell_volume   130.36832278
_cell_formula_units_Z   3
loop_
 _symmetry_equiv_pos_site_id
 _symmetry_equiv_pos_as_xyz
  1  'x, y, z'
loop_
 _atom_site_type_symbol
 _atom_site_label
 _atom_site_symmetry_multiplicity
 _atom_site_fract_x
 _atom_site_fract_y
 _atom_site_fract_z
 _atom_site_occupancy
  Mn  Mn0  1  0.26007400  0.26007400  0.00000000  1
  Mn  Mn1  1  0.00000000  0.73992600  0.00000000  1
  Mn  Mn2  1  0.73992600  0.00000000  0.00000000  1
  As  As0  1  0.00000000  0.00000000  0.50000000  1
  As  As1  1  0.33333300  0.66666700  0.00000000  1
  As  As2  1  0.66666700  0.33333300  0.00000000  1
  Rh  Rh0  1  0.38599500  0.00000000  0.50000000  1
  Rh  Rh1  1  0.61400500  0.61400500  0.50000000  1
  Rh  Rh2  1  0.00000000  0.38599500  0.50000000  1
loop_
_geom_bond_atom_site_label_1
_geom_bond_atom_site_label_2
_geom_bond_distance
_geom_bond_site_symmetry_2
Mn0 Rh2 2.857231 1_554
Mn0 Rh2 2.857231 1_555
Mn0 Rh0 2.857231 1_554
Mn0 Rh0 2.857231 1_555
Mn0 Rh1 2.920429 1_555
Mn0 Rh1 2.920429 1_554
Mn1 Rh1 2.857231 1_454
Mn1 Rh1 2.857231 1_455
Mn1 Rh0 2.857231 1_565
Mn1 Rh0 2.857231 1_564
Mn1 Rh2 2.920429 1_554
Mn1 Rh2 2.920429 1_555
Mn2 Rh1 2.857231 1_544
Mn2 Rh1 2.857231 1_545
Mn2 Rh2 2.857231 1_654
Mn2 Rh2 2.857231 1_655
Mn2 Rh0 2.920429 1_554
Mn2 Rh0 2.920429 1_555
As0 Rh0 2.455352 1_555
As0 Rh2 2.455352 1_555
As0 Rh1 2.455352 1_445
As0 Mn2 2.489386 1_455
As0 Mn2 2.489386 1_456
As0 Mn1 2.489386 1_546
As0 Mn1 2.489386 1_545
As0 Mn0 2.489386 1_555
As0 Mn0 2.489386 1_556
As1 Mn1 2.387721 1_555
As1 Mn2 2.387725 1_565
As1 Mn0 2.387727 1_555
As1 Rh0 2.712565 1_564
As1 Rh0 2.712565 1_565
As1 Rh2 2.712567 1_554
As1 Rh2 2.712567 1_555
As1 Rh1 2.712570 1_555
As1 Rh1 2.712570 1_554
As2 Mn2 2.387721 1_555
As2 Mn1 2.387725 1_655
As2 Mn0 2.387727 1_555
As2 Rh2 2.712565 1_654
As2 Rh2 2.712565 1_655
As2 Rh0 2.712567 1_554
As2 Rh0 2.712567 1_555
As2 Rh1 2.712570 1_555
As2 Rh1 2.712570 1_554
