# generated using pymatgen
data_Nb3P
_symmetry_space_group_name_H-M   'P 1'
_cell_length_a   5.10481600
_cell_length_b   7.66544588
_cell_length_c   7.66544588
_cell_angle_alpha   83.63436397
_cell_angle_beta   70.55050550
_cell_angle_gamma   70.55050550
_symmetry_Int_Tables_number   1
_chemical_formula_structural   Nb3P
_chemical_formula_sum   'Nb12 P4'
_cell_volume   266.69740587
_cell_formula_units_Z   4
loop_
 _symmetry_equiv_pos_site_id
 _symmetry_equiv_pos_as_xyz
  1  'x, y, z'
loop_
 _atom_site_type_symbol
 _atom_site_label
 _atom_site_symmetry_multiplicity
 _atom_site_fract_x
 _atom_site_fract_y
 _atom_site_fract_z
 _atom_site_occupancy
  Nb  Nb0  1  0.85646300  0.81634300  0.98395400  1
  Nb  Nb1  1  0.65676000  0.18365700  0.01604600  1
  Nb  Nb2  1  0.32719400  0.01604600  0.81634300  1
  Nb  Nb3  1  0.15958300  0.98395400  0.18365700  1
  Nb  Nb4  1  0.03702900  0.62271100  0.33829000  1
  Nb  Nb5  1  0.99803000  0.37728900  0.66171000  1
  Nb  Nb6  1  0.34026000  0.66171000  0.62271100  1
  Nb  Nb7  1  0.62468100  0.33829000  0.37728900  1
  Nb  Nb8  1  0.47329200  0.59681900  0.96868000  1
  Nb  Nb9  1  0.03879000  0.40318100  0.03132000  1
  Nb  Nb10  1  0.92988900  0.03132000  0.59681900  1
  Nb  Nb11  1  0.55802900  0.96868000  0.40318100  1
  P  P0  1  0.55071800  0.67413700  0.26055100  1
  P  P1  1  0.48540600  0.32586300  0.73944900  1
  P  P2  1  0.77514500  0.73944900  0.67413700  1
  P  P3  1  0.18873100  0.26055100  0.32586300  1
loop_
_geom_bond_atom_site_label_1
_geom_bond_atom_site_label_2
_geom_bond_distance
_geom_bond_site_symmetry_2
Nb0 P0 2.556643 1_556
Nb0 P2 2.699944 1_555
Nb1 P1 2.556643 1_554
Nb1 P3 2.699944 1_555
Nb2 P2 2.556643 1_545
Nb2 P1 2.699944 1_555
Nb3 P3 2.556643 1_565
Nb3 P0 2.699944 1_555
Nb4 P2 2.576389 1_455
Nb4 P3 2.625534 1_555
Nb4 P0 2.637198 1_455
Nb4 P0 2.642455 1_555
Nb5 P3 2.576389 1_655
Nb5 P2 2.625534 1_555
Nb5 P1 2.637198 1_555
Nb5 P1 2.642455 1_655
Nb6 P1 2.576389 1_555
Nb6 P0 2.625534 1_555
Nb6 P2 2.637198 1_555
Nb6 P2 2.642455 1_455
Nb7 P0 2.576389 1_555
Nb7 P1 2.625534 1_555
Nb7 P3 2.637198 1_655
Nb7 P3 2.642455 1_555
Nb8 P0 2.559692 1_556
Nb8 P2 2.631555 1_555
Nb8 P1 2.838439 1_555
Nb9 P1 2.559695 1_554
Nb9 P3 2.631557 1_555
Nb9 P0 2.838437 1_455
Nb10 P2 2.559692 1_545
Nb10 P1 2.631555 1_555
Nb10 P3 2.838439 1_655
Nb11 P3 2.559695 1_565
Nb11 P0 2.631557 1_555
Nb11 P2 2.838437 1_555
