# generated using pymatgen
data_TlCu2H(SeO5)2
_symmetry_space_group_name_H-M   'P 1'
_cell_length_a   5.46080432
_cell_length_b   5.46080432
_cell_length_c   8.90569717
_cell_angle_alpha   68.87622750
_cell_angle_beta   68.87622750
_cell_angle_gamma   69.61397621
_symmetry_Int_Tables_number   1
_chemical_formula_structural   TlCu2H(SeO5)2
_chemical_formula_sum   'Tl1 Cu2 H1 Se2 O10'
_cell_volume   223.67775095
_cell_formula_units_Z   1
loop_
 _symmetry_equiv_pos_site_id
 _symmetry_equiv_pos_as_xyz
  1  'x, y, z'
loop_
 _atom_site_type_symbol
 _atom_site_label
 _atom_site_symmetry_multiplicity
 _atom_site_fract_x
 _atom_site_fract_y
 _atom_site_fract_z
 _atom_site_occupancy
  Tl  Tl0  1  0.00000000  0.00000000  0.00000000  1
  Cu  Cu0  1  0.50000000  0.00000000  0.50000000  1
  Cu  Cu1  1  0.00000000  0.50000000  0.50000000  1
  H  H0  1  0.00000000  0.00000000  0.50000000  1
  Se  Se0  1  0.55585100  0.55585100  0.23401600  1
  Se  Se1  1  0.44414900  0.44414900  0.76598400  1
  O  O0  1  0.65754300  0.20690200  0.28518300  1
  O  O1  1  0.34245700  0.79309800  0.71481700  1
  O  O2  1  0.79309800  0.34245700  0.71481700  1
  O  O3  1  0.20690200  0.65754300  0.28518300  1
  O  O4  1  0.84874400  0.84874400  0.53951100  1
  O  O5  1  0.15125600  0.15125600  0.46048900  1
  O  O6  1  0.33454700  0.33454700  0.97039100  1
  O  O7  1  0.66545300  0.66545300  0.02960900  1
  O  O8  1  0.66902100  0.66902100  0.33944500  1
  O  O9  1  0.33097900  0.33097900  0.66055500  1
loop_
_geom_bond_atom_site_label_1
_geom_bond_atom_site_label_2
_geom_bond_distance
_geom_bond_site_symmetry_2
Cu0 O0 1.899895 1_555
Cu0 O1 1.899895 1_545
Cu0 O5 1.900131 1_555
Cu0 O4 1.900131 1_545
Cu0 O9 2.431539 1_555
Cu0 O8 2.431539 1_545
Cu1 O3 1.899895 1_555
Cu1 O2 1.899895 1_455
Cu1 O4 1.900131 1_455
Cu1 O5 1.900131 1_555
Cu1 O9 2.431539 1_555
Cu1 O8 2.431539 1_455
H0 O4 1.242835 1_445
H0 O5 1.242835 1_555
O0 Se0 1.722331 1_555
O1 Se1 1.722331 1_555
O2 Se1 1.722331 1_555
O3 Se0 1.722331 1_555
O6 Se1 1.645971 1_555
O7 Se0 1.645971 1_555
O8 Se0 1.657693 1_555
O9 Se1 1.657693 1_555
