# generated using pymatgen
data_Lu6H40N8O49
_symmetry_space_group_name_H-M   'P 1'
_cell_length_a   10.04134300
_cell_length_b   10.16065497
_cell_length_c   11.25925224
_cell_angle_alpha   95.66313785
_cell_angle_beta   108.47181882
_cell_angle_gamma   111.09390538
_symmetry_Int_Tables_number   1
_chemical_formula_structural   Lu6H40N8O49
_chemical_formula_sum   'Lu6 H40 N8 O49'
_cell_volume   986.74652725
_cell_formula_units_Z   1
loop_
 _symmetry_equiv_pos_site_id
 _symmetry_equiv_pos_as_xyz
  1  'x, y, z'
loop_
 _atom_site_type_symbol
 _atom_site_label
 _atom_site_symmetry_multiplicity
 _atom_site_fract_x
 _atom_site_fract_y
 _atom_site_fract_z
 _atom_site_occupancy
  Lu  Lu0  1  0.73414600  0.47683300  0.61381400  1
  Lu  Lu1  1  0.26585400  0.52316700  0.38618600  1
  Lu  Lu2  1  0.64928900  0.75547900  0.52165600  1
  Lu  Lu3  1  0.35071100  0.24452100  0.47834400  1
  Lu  Lu4  1  0.48103700  0.56503200  0.70555000  1
  Lu  Lu5  1  0.51896300  0.43496800  0.29445000  1
  H  H0  1  0.80695200  0.73946400  0.78725000  1
  H  H1  1  0.19304800  0.26053600  0.21275000  1
  H  H2  1  0.84406300  0.64653600  0.44560100  1
  H  H3  1  0.15593700  0.35346400  0.55439900  1
  H  H4  1  0.40754300  0.78672900  0.59303700  1
  H  H5  1  0.59245700  0.21327100  0.40696300  1
  H  H6  1  0.55453600  0.32295200  0.75344600  1
  H  H7  1  0.44546400  0.67704800  0.24655400  1
  H  H8  1  0.96469900  0.54107300  0.86446200  1
  H  H9  1  0.03530100  0.45892700  0.13553800  1
  H  H10  1  0.83300000  0.39710600  0.86892500  1
  H  H11  1  0.16700000  0.60289400  0.13107500  1
  H  H12  1  0.00538400  0.75668600  0.69861900  1
  H  H13  1  0.99461600  0.24331400  0.30138100  1
  H  H14  1  0.08457300  0.64465700  0.70114000  1
  H  H15  1  0.91542700  0.35534300  0.29886000  1
  H  H16  1  0.95061300  0.98185300  0.68749000  1
  H  H17  1  0.04938700  0.01814700  0.31251000  1
  H  H18  1  0.01009500  0.93204300  0.58702400  1
  H  H19  1  0.98990500  0.06795700  0.41297600  1
  H  H20  1  0.73041900  0.05594000  0.68398100  1
  H  H21  1  0.26958100  0.94406000  0.31601900  1
  H  H22  1  0.67749900  0.93163500  0.75834500  1
  H  H23  1  0.32250100  0.06836500  0.24165500  1
  H  H24  1  0.48455700  0.83544100  0.85961500  1
  H  H25  1  0.51544300  0.16455900  0.14038500  1
  H  H26  1  0.64434000  0.83357500  0.93312600  1
  H  H27  1  0.35566000  0.16642500  0.06687400  1
  H  H28  1  0.64008700  0.57683600  0.99238500  1
  H  H29  1  0.35991300  0.42316400  0.00761500  1
  H  H30  1  0.74652000  0.57524300  0.91507300  1
  H  H31  1  0.25348000  0.42475700  0.08492700  1
  H  H32  1  0.72944900  0.98895700  0.11345900  1
  H  H33  1  0.27055100  0.01104300  0.88654100  1
  H  H34  1  0.74553600  0.85126600  0.15210300  1
  H  H35  1  0.25446400  0.14873400  0.84789700  1
  H  H36  1  0.02968400  0.80208000  0.98221800  1
  H  H37  1  0.97031600  0.19792000  0.01778200  1
  H  H38  1  0.03651200  0.93167500  0.92002500  1
  H  H39  1  0.96348800  0.06832500  0.07997500  1
  N  N0  1  0.88586400  0.27748700  0.59999600  1
  N  N1  1  0.11413600  0.72251300  0.40000400  1
  N  N2  1  0.67605900  0.97298500  0.37258400  1
  N  N3  1  0.32394100  0.02701500  0.62741600  1
  N  N4  1  0.24397800  0.50215900  0.81400200  1
  N  N5  1  0.75602200  0.49784100  0.18599800  1
  N  N6  1  0.67797900  0.21520500  0.95921600  1
  N  N7  1  0.32202100  0.78479500  0.04078400  1
  O  O0  1  0.50000000  0.50000000  0.50000000  1
  O  O1  1  0.71897900  0.67774700  0.70491600  1
  O  O2  1  0.28102100  0.32225300  0.29508400  1
  O  O3  1  0.74554900  0.60453300  0.45631400  1
  O  O4  1  0.25445100  0.39546700  0.54368600  1
  O  O5  1  0.43172400  0.70640000  0.56656200  1
  O  O6  1  0.56827600  0.29360000  0.43343800  1
  O  O7  1  0.53634600  0.36706800  0.67896400  1
  O  O8  1  0.46365400  0.63293200  0.32103600  1
  O  O9  1  0.85315700  0.49099700  0.84093600  1
  O  O10  1  0.14684300  0.50900300  0.15906400  1
  O  O11  1  0.99219900  0.65677100  0.70253900  1
  O  O12  1  0.00780100  0.34322900  0.29746100  1
  O  O13  1  0.93765400  0.89571000  0.62964300  1
  O  O14  1  0.06234600  0.10429000  0.37035700  1
  O  O15  1  0.72738800  0.96013400  0.69643900  1
  O  O16  1  0.27261200  0.03986600  0.30356100  1
  O  O17  1  0.56544800  0.81190200  0.84426500  1
  O  O18  1  0.43455200  0.18809800  0.15573500  1
  O  O19  1  0.65580800  0.59330100  0.91248800  1
  O  O20  1  0.34419200  0.40669900  0.08751200  1
  O  O21  1  0.76855400  0.91644500  0.09610400  1
  O  O22  1  0.23144600  0.08355500  0.90389600  1
  O  O23  1  0.96308500  0.84302900  0.92997300  1
  O  O24  1  0.03691500  0.15697100  0.07002700  1
  O  O25  1  0.90665800  0.39141100  0.55629000  1
  O  O26  1  0.09334200  0.60858900  0.44371000  1
  O  O27  1  0.78210600  0.24016000  0.64788100  1
  O  O28  1  0.21789400  0.75984000  0.35211900  1
  O  O29  1  0.96495900  0.20715000  0.59621300  1
  O  O30  1  0.03504100  0.79285000  0.40378700  1
  O  O31  1  0.58378500  0.94280700  0.43169700  1
  O  O32  1  0.41621500  0.05719300  0.56830300  1
  O  O33  1  0.75564900  0.89678900  0.37782500  1
  O  O34  1  0.24435100  0.10321100  0.62217500  1
  O  O35  1  0.69025300  0.07182500  0.31408300  1
  O  O36  1  0.30974700  0.92817500  0.68591700  1
  O  O37  1  0.34500600  0.44766000  0.83823200  1
  O  O38  1  0.65499400  0.55234000  0.16176800  1
  O  O39  1  0.25527300  0.58999400  0.74012100  1
  O  O40  1  0.74472700  0.41000600  0.25987900  1
  O  O41  1  0.14340500  0.47025000  0.86033100  1
  O  O42  1  0.85659500  0.52975000  0.13966900  1
  O  O43  1  0.57357400  0.25472900  0.90235300  1
  O  O44  1  0.42642600  0.74527000  0.09764700  1
  O  O45  1  0.66582300  0.14531100  0.04436300  1
  O  O46  1  0.33417700  0.85468900  0.95563700  1
  O  O47  1  0.79812100  0.24803300  0.92996800  1
  O  O48  1  0.20187900  0.75196700  0.07003200  1
loop_
_geom_bond_atom_site_label_1
_geom_bond_atom_site_label_2
_geom_bond_distance
_geom_bond_site_symmetry_2
Lu0 O1 2.269854 1_555
Lu0 O7 2.284092 1_555
Lu0 O6 2.289787 1_555
Lu0 O3 2.305906 1_555
Lu0 O11 2.375740 1_555
Lu0 O0 2.402937 1_555
Lu0 O9 2.419770 1_555
Lu0 O25 2.419860 1_555
Lu0 O27 2.657152 1_555
Lu1 O2 2.269854 1_555
Lu1 O8 2.284092 1_555
Lu1 O5 2.289787 1_555
Lu1 O4 2.305906 1_555
Lu1 O12 2.375740 1_555
Lu1 O0 2.402937 1_555
Lu1 O10 2.419770 1_555
Lu1 O26 2.419860 1_555
Lu1 O28 2.657152 1_555
Lu2 O3 2.263358 1_555
Lu2 O1 2.274967 1_555
Lu2 O8 2.287680 1_555
Lu2 O5 2.289657 1_555
Lu2 O15 2.419173 1_555
Lu2 O0 2.426419 1_555
Lu2 O31 2.437383 1_555
Lu2 O33 2.505156 1_555
Lu2 O13 2.519982 1_555
Lu3 O4 2.263358 1_555
Lu3 O2 2.274967 1_555
Lu3 O7 2.287680 1_555
Lu3 O6 2.289657 1_555
Lu3 O16 2.419173 1_555
Lu3 O0 2.426419 1_555
Lu3 O32 2.437383 1_555
Lu3 O34 2.505156 1_555
Lu3 O14 2.519982 1_555
Lu4 O1 2.250122 1_555
Lu4 O5 2.285144 1_555
Lu4 O7 2.287916 1_555
Lu4 O4 2.323269 1_555
Lu4 O19 2.346289 1_555
Lu4 O0 2.428383 1_555
Lu4 O37 2.447834 1_555
Lu4 O17 2.511417 1_555
Lu4 O39 2.511682 1_555
Lu5 O2 2.250122 1_555
Lu5 O6 2.285144 1_555
Lu5 O8 2.287916 1_555
Lu5 O3 2.323269 1_555
Lu5 O20 2.346289 1_555
Lu5 O0 2.428383 1_555
Lu5 O38 2.447834 1_555
Lu5 O18 2.511417 1_555
Lu5 O40 2.511682 1_555
H0 O1 1.000282 1_555
H1 O2 1.000282 1_555
H2 O3 0.978326 1_555
H3 O4 0.978326 1_555
H4 O5 0.976977 1_555
H5 O6 0.976977 1_555
H6 O7 0.986719 1_555
H7 O8 0.986719 1_555
H8 O9 0.979145 1_555
H9 O10 0.979145 1_555
H10 O9 1.005558 1_555
H10 O47 1.692762 1_555
H11 O10 1.005558 1_555
H11 O48 1.692762 1_555
H12 O11 0.982808 1_455
H13 O12 0.982808 1_655
H14 O11 0.983269 1_455
H15 O12 0.983269 1_655
H16 O13 0.979307 1_555
H17 O14 0.979307 1_555
H18 O13 0.979042 1_455
H19 O14 0.979042 1_655
H20 O15 0.988199 1_545
H21 O16 0.988199 1_565
H22 O15 0.988593 1_555
H23 O16 0.988593 1_555
H24 O17 0.983596 1_555
H25 O18 0.983596 1_555
H26 O17 1.002881 1_555
H27 O18 1.002881 1_555
H28 O19 0.981240 1_555
H29 O20 0.981240 1_555
H30 O19 0.984251 1_555
H31 O20 0.984251 1_555
H32 O21 0.981655 1_555
H33 O22 0.981655 1_555
H34 O21 0.976794 1_555
H35 O22 0.976794 1_555
H36 O23 0.982681 1_455
H37 O24 0.982681 1_655
H38 O23 0.980642 1_455
H39 O24 0.980642 1_655
N0 O29 1.251935 1_555
N0 O25 1.276409 1_555
N0 O27 1.277458 1_555
N1 O30 1.251935 1_555
N1 O26 1.276409 1_555
N1 O28 1.277458 1_555
N2 O35 1.244893 1_565
N2 O31 1.273602 1_555
N2 O33 1.290763 1_555
N3 O36 1.244893 1_545
N3 O32 1.273602 1_555
N3 O34 1.290763 1_555
N4 O41 1.236366 1_555
N4 O39 1.278577 1_555
N4 O37 1.291886 1_555
N5 O42 1.236366 1_555
N5 O40 1.278577 1_555
N5 O38 1.291886 1_555
N6 O45 1.258751 1_556
N6 O43 1.264401 1_555
N6 O47 1.287965 1_555
N7 O46 1.258751 1_554
N7 O44 1.264408 1_555
N7 O48 1.287965 1_555
