# generated using pymatgen
data_Ca3Sn2O7
_symmetry_space_group_name_H-M   'P 1'
_cell_length_a   10.35661366
_cell_length_b   10.35661366
_cell_length_c   5.78485100
_cell_angle_alpha   90.00000000
_cell_angle_beta   90.00000000
_cell_angle_gamma   148.35362548
_symmetry_Int_Tables_number   1
_chemical_formula_structural   Ca3Sn2O7
_chemical_formula_sum   'Ca6 Sn4 O14'
_cell_volume   325.55036941
_cell_formula_units_Z   2
loop_
 _symmetry_equiv_pos_site_id
 _symmetry_equiv_pos_as_xyz
  1  'x, y, z'
loop_
 _atom_site_type_symbol
 _atom_site_label
 _atom_site_symmetry_multiplicity
 _atom_site_fract_x
 _atom_site_fract_y
 _atom_site_fract_z
 _atom_site_occupancy
  Ca  Ca0  1  0.24049300  0.24049300  0.30186100  1
  Ca  Ca1  1  0.75950700  0.75950700  0.80186100  1
  Ca  Ca2  1  0.04394800  0.42710500  0.19521400  1
  Ca  Ca3  1  0.95605200  0.57289500  0.69521400  1
  Ca  Ca4  1  0.42710500  0.04394800  0.19521400  1
  Ca  Ca5  1  0.57289500  0.95605200  0.69521400  1
  Sn  Sn0  1  0.84869600  0.64793700  0.24971000  1
  Sn  Sn1  1  0.15130400  0.35206300  0.74971000  1
  Sn  Sn2  1  0.35206300  0.15130400  0.74971000  1
  Sn  Sn3  1  0.64793700  0.84869600  0.24971000  1
  O  O0  1  0.63567100  0.03712100  0.28863000  1
  O  O1  1  0.36432900  0.96287900  0.78863000  1
  O  O2  1  0.96287900  0.36432900  0.78863000  1
  O  O3  1  0.03712100  0.63567100  0.28863000  1
  O  O4  1  0.43674300  0.67749800  0.94688400  1
  O  O5  1  0.56325700  0.32250200  0.44688400  1
  O  O6  1  0.32250200  0.56325700  0.44688400  1
  O  O7  1  0.67749800  0.43674300  0.94688400  1
  O  O8  1  0.97786800  0.13604200  0.05463400  1
  O  O9  1  0.02213200  0.86395800  0.55463400  1
  O  O10  1  0.64788800  0.64788800  0.20799300  1
  O  O11  1  0.35211200  0.35211200  0.70799300  1
  O  O12  1  0.13604200  0.97786800  0.05463400  1
  O  O13  1  0.86395800  0.02213200  0.55463400  1
loop_
_geom_bond_atom_site_label_1
_geom_bond_atom_site_label_2
_geom_bond_distance
_geom_bond_site_symmetry_2
Ca0 O10 2.364120 1_555
Ca0 O8 2.367263 1_455
Ca0 O12 2.367263 1_545
Ca0 O11 2.432521 1_555
Ca0 O13 2.728446 1_455
Ca0 O9 2.728446 1_545
Ca0 O5 2.786616 1_555
Ca0 O6 2.786616 1_555
Ca1 O11 2.364120 1_555
Ca1 O13 2.367263 1_565
Ca1 O9 2.367263 1_655
Ca1 O10 2.432521 1_556
Ca1 O8 2.728446 1_566
Ca1 O12 2.728446 1_656
Ca1 O7 2.786616 1_555
Ca1 O4 2.786616 1_555
Ca2 O3 2.285349 1_555
Ca2 O0 2.325260 1_455
Ca2 O6 2.346141 1_555
Ca2 O2 2.393797 1_454
Ca2 O8 2.589219 1_455
Ca2 O4 2.715885 1_554
Ca3 O2 2.285349 1_555
Ca3 O1 2.325260 1_655
Ca3 O7 2.346141 1_555
Ca3 O3 2.393797 1_655
Ca3 O9 2.589219 1_655
Ca3 O5 2.715885 1_555
Ca4 O0 2.285349 1_555
Ca4 O3 2.325260 1_545
Ca4 O5 2.346141 1_555
Ca4 O1 2.393797 1_544
Ca4 O12 2.589219 1_545
Ca4 O7 2.715885 1_554
Ca5 O1 2.285349 1_555
Ca5 O2 2.325260 1_565
Ca5 O4 2.346141 1_555
Ca5 O0 2.393797 1_565
Ca5 O13 2.589219 1_565
Ca5 O6 2.715885 1_555
O0 Sn3 2.072931 1_545
O1 Sn2 2.072931 1_565
O2 Sn1 2.072931 1_655
O3 Sn0 2.072931 1_455
O4 Sn3 2.096119 1_556
O4 Sn1 2.106111 1_555
O5 Sn2 2.096119 1_555
O5 Sn0 2.106111 1_555
O6 Sn1 2.096119 1_555
O6 Sn3 2.106111 1_555
O7 Sn0 2.096119 1_556
O7 Sn2 2.106111 1_555
O8 Sn3 2.119458 1_545
O8 Sn1 2.121579 1_654
O9 Sn2 2.119458 1_565
O9 Sn0 2.121579 1_455
O10 Sn3 2.093217 1_555
O10 Sn0 2.093217 1_555
O11 Sn1 2.093217 1_555
O11 Sn2 2.093217 1_555
O12 Sn0 2.119458 1_455
O12 Sn2 2.121579 1_564
O13 Sn1 2.119458 1_655
O13 Sn3 2.121579 1_545
