# generated using pymatgen
data_Er2MgSe4
_symmetry_space_group_name_H-M   'P 1'
_cell_length_a   14.05849100
_cell_length_b   8.17207300
_cell_length_c   6.80738300
_cell_angle_alpha   90.00000000
_cell_angle_beta   90.00000000
_cell_angle_gamma   90.00000000
_symmetry_Int_Tables_number   1
_chemical_formula_structural   Er2MgSe4
_chemical_formula_sum   'Er8 Mg4 Se16'
_cell_volume   782.07991094
_cell_formula_units_Z   4
loop_
 _symmetry_equiv_pos_site_id
 _symmetry_equiv_pos_as_xyz
  1  'x, y, z'
loop_
 _atom_site_type_symbol
 _atom_site_label
 _atom_site_symmetry_multiplicity
 _atom_site_fract_x
 _atom_site_fract_y
 _atom_site_fract_z
 _atom_site_occupancy
  Er  Er0  1  0.00000000  0.00000000  0.50000000  1
  Er  Er1  1  0.50000000  0.00000000  0.00000000  1
  Er  Er2  1  0.50000000  0.50000000  0.00000000  1
  Er  Er3  1  0.00000000  0.50000000  0.50000000  1
  Er  Er4  1  0.23578000  0.75000000  0.00517300  1
  Er  Er5  1  0.76422000  0.25000000  0.99482700  1
  Er  Er6  1  0.26422000  0.25000000  0.50517300  1
  Er  Er7  1  0.73578000  0.75000000  0.49482700  1
  Mg  Mg0  1  0.09201200  0.25000000  0.91708600  1
  Mg  Mg1  1  0.90798800  0.75000000  0.08291400  1
  Mg  Mg2  1  0.40798800  0.75000000  0.41708600  1
  Mg  Mg3  1  0.59201200  0.25000000  0.58291400  1
  Se  Se0  1  0.16944600  0.00360500  0.73820700  1
  Se  Se1  1  0.83055400  0.99639500  0.26179300  1
  Se  Se2  1  0.33055400  0.99639500  0.23820700  1
  Se  Se3  1  0.66944600  0.00360500  0.76179300  1
  Se  Se4  1  0.66944600  0.49639500  0.76179300  1
  Se  Se5  1  0.33055400  0.50360500  0.23820700  1
  Se  Se6  1  0.83055400  0.50360500  0.26179300  1
  Se  Se7  1  0.16944600  0.49639500  0.73820700  1
  Se  Se8  1  0.07430800  0.75000000  0.25208900  1
  Se  Se9  1  0.92569200  0.25000000  0.74791100  1
  Se  Se10  1  0.42569200  0.25000000  0.75208900  1
  Se  Se11  1  0.57430800  0.75000000  0.24791100  1
  Se  Se12  1  0.09162900  0.25000000  0.28867400  1
  Se  Se13  1  0.90837100  0.75000000  0.71132600  1
  Se  Se14  1  0.40837100  0.75000000  0.78867400  1
  Se  Se15  1  0.59162900  0.25000000  0.21132600  1
loop_
_geom_bond_atom_site_label_1
_geom_bond_atom_site_label_2
_geom_bond_distance
_geom_bond_site_symmetry_2
Er0 Se13 2.811192 1_445
Er0 Se12 2.811192 1_555
Er0 Se8 2.848388 1_545
Er0 Se9 2.848388 1_455
Er0 Se0 2.881841 1_555
Er0 Se1 2.881841 1_445
Er1 Se15 2.811192 1_555
Er1 Se14 2.811192 1_544
Er1 Se10 2.848388 1_554
Er1 Se11 2.848388 1_545
Er1 Se3 2.881841 1_554
Er1 Se2 2.881841 1_545
Er2 Se15 2.811192 1_555
Er2 Se14 2.811192 1_554
Er2 Se10 2.848388 1_554
Er2 Se11 2.848388 1_555
Er2 Se4 2.881841 1_554
Er2 Se5 2.881841 1_555
Er3 Se13 2.811192 1_455
Er3 Se12 2.811192 1_555
Er3 Se8 2.848388 1_555
Er3 Se9 2.848388 1_455
Er3 Se6 2.881841 1_455
Er3 Se7 2.881841 1_555
Er4 Se8 2.824606 1_555
Er4 Se14 2.838896 1_554
Er4 Se2 2.888973 1_555
Er4 Se5 2.888973 1_555
Er4 Se7 2.909906 1_554
Er4 Se0 2.909906 1_564
Er5 Se9 2.824606 1_555
Er5 Se15 2.838896 1_556
Er5 Se4 2.888973 1_555
Er5 Se3 2.888973 1_555
Er5 Se1 2.909906 1_546
Er5 Se6 2.909906 1_556
Er6 Se10 2.824606 1_555
Er6 Se12 2.838896 1_555
Er6 Se7 2.888973 1_555
Er6 Se0 2.888973 1_555
Er6 Se5 2.909906 1_555
Er6 Se2 2.909906 1_545
Er7 Se11 2.824606 1_555
Er7 Se13 2.838896 1_555
Er7 Se1 2.888973 1_555
Er7 Se6 2.888973 1_555
Er7 Se4 2.909906 1_555
Er7 Se3 2.909906 1_565
Mg0 Se12 2.529548 1_556
Mg0 Se0 2.592733 1_555
Mg0 Se7 2.592733 1_555
Mg0 Se9 2.606432 1_455
Mg1 Se13 2.529548 1_554
Mg1 Se6 2.592733 1_555
Mg1 Se1 2.592733 1_555
Mg1 Se8 2.606432 1_655
Mg2 Se14 2.529548 1_555
Mg2 Se2 2.592733 1_555
Mg2 Se5 2.592733 1_555
Mg2 Se11 2.606432 1_555
Mg3 Se15 2.529548 1_555
Mg3 Se4 2.592733 1_555
Mg3 Se3 2.592733 1_555
Mg3 Se10 2.606432 1_555
