# generated using pymatgen
data_KLi(WO3)4
_symmetry_space_group_name_H-M   'P 1'
_cell_length_a   5.54038725
_cell_length_b   5.54038725
_cell_length_c   7.83684217
_cell_angle_alpha   90.00000000
_cell_angle_beta   90.00000000
_cell_angle_gamma   90.00000000
_symmetry_Int_Tables_number   1
_chemical_formula_structural   KLi(WO3)4
_chemical_formula_sum   'K1 Li1 W4 O12'
_cell_volume   240.55885209
_cell_formula_units_Z   1
loop_
 _symmetry_equiv_pos_site_id
 _symmetry_equiv_pos_as_xyz
  1  'x, y, z'
loop_
 _atom_site_type_symbol
 _atom_site_label
 _atom_site_symmetry_multiplicity
 _atom_site_fract_x
 _atom_site_fract_y
 _atom_site_fract_z
 _atom_site_occupancy
  K  K0  1  0.00000000  -0.00000000  0.00000000  1
  Li  Li0  1  0.50000000  0.50000000  0.50000000  1
  W  W0  1  -0.00000000  0.50000000  0.74863180  1
  W  W1  1  0.00000000  0.50000000  0.25136820  1
  W  W2  1  0.50000000  0.00000000  0.25136820  1
  W  W3  1  0.50000000  0.00000000  0.74863180  1
  O  O0  1  0.25252124  0.25252124  0.25353441  1
  O  O1  1  0.25252124  0.25252124  0.74646559  1
  O  O2  1  0.74747876  0.74747876  0.74646559  1
  O  O3  1  0.74747876  0.74747876  0.25353441  1
  O  O4  1  0.74747876  0.25252124  0.74646559  1
  O  O5  1  0.74747876  0.25252124  0.25353441  1
  O  O6  1  0.25252124  0.74747876  0.74646559  1
  O  O7  1  0.25252124  0.74747876  0.25353441  1
  O  O8  1  -0.00000000  0.50000000  0.50000000  1
  O  O9  1  -0.00000000  0.50000000  -0.00000000  1
  O  O10  1  0.50000000  0.00000000  0.50000000  1
  O  O11  1  0.50000000  0.00000000  -0.00000000  1
loop_
_geom_bond_atom_site_label_1
_geom_bond_atom_site_label_2
_geom_bond_distance
_geom_bond_site_symmetry_2
K0 O11 2.770194 1_455
K0 O9 2.770194 1_545
K0 O11 2.770194 1_555
K0 O9 2.770194 1_555
K0 O7 2.804029 1_545
K0 O2 2.804029 1_444
K0 O1 2.804029 1_554
K0 O4 2.804029 1_454
K0 O3 2.804029 1_445
K0 O5 2.804029 1_455
K0 O6 2.804029 1_544
K0 O0 2.804029 1_555
O0 W2 1.958996 1_555
O0 W1 1.958996 1_555
O1 W0 1.958996 1_555
O1 W3 1.958996 1_555
O2 W3 1.958996 1_565
O2 W0 1.958996 1_655
O3 W2 1.958996 1_565
O3 W1 1.958996 1_655
O4 W3 1.958996 1_555
O4 W0 1.958996 1_655
O5 W2 1.958996 1_555
O5 W1 1.958996 1_655
O6 W0 1.958996 1_555
O6 W3 1.958996 1_565
O7 W2 1.958996 1_565
O7 W1 1.958996 1_555
O8 W0 1.948488 1_555
O8 W1 1.948488 1_555
O9 W1 1.969933 1_555
O9 W0 1.969933 1_554
O10 W3 1.948488 1_555
O10 W2 1.948488 1_555
O11 W2 1.969933 1_555
O11 W3 1.969933 1_554
