# generated using pymatgen
data_Dy3B7W
_symmetry_space_group_name_H-M   'P 1'
_cell_length_a   8.19270653
_cell_length_b   8.19270653
_cell_length_c   9.49288600
_cell_angle_alpha   90.00000000
_cell_angle_beta   90.00000000
_cell_angle_gamma   155.52376464
_symmetry_Int_Tables_number   1
_chemical_formula_structural   Dy3B7W
_chemical_formula_sum   'Dy6 B14 W2'
_cell_volume   263.98821441
_cell_formula_units_Z   2
loop_
 _symmetry_equiv_pos_site_id
 _symmetry_equiv_pos_as_xyz
  1  'x, y, z'
loop_
 _atom_site_type_symbol
 _atom_site_label
 _atom_site_symmetry_multiplicity
 _atom_site_fract_x
 _atom_site_fract_y
 _atom_site_fract_z
 _atom_site_occupancy
  Dy  Dy0  1  0.89302800  0.10697200  0.43962400  1
  Dy  Dy1  1  0.10697200  0.89302800  0.56037600  1
  Dy  Dy2  1  0.89302800  0.10697200  0.06037600  1
  Dy  Dy3  1  0.10697200  0.89302800  0.93962400  1
  Dy  Dy4  1  0.24340700  0.75659300  0.25000000  1
  Dy  Dy5  1  0.75659300  0.24340700  0.75000000  1
  B  B0  1  0.72728000  0.27272000  0.46739000  1
  B  B1  1  0.27272000  0.72728000  0.53261000  1
  B  B2  1  0.72728000  0.27272000  0.03261000  1
  B  B3  1  0.27272000  0.72728000  0.96739000  1
  B  B4  1  0.63452900  0.36547100  0.14688400  1
  B  B5  1  0.36547100  0.63452900  0.85311600  1
  B  B6  1  0.63452900  0.36547100  0.35311600  1
  B  B7  1  0.36547100  0.63452900  0.64688400  1
  B  B8  1  0.51964300  0.48035700  0.09178300  1
  B  B9  1  0.48035700  0.51964300  0.90821700  1
  B  B10  1  0.51964300  0.48035700  0.40821700  1
  B  B11  1  0.48035700  0.51964300  0.59178300  1
  B  B12  1  0.45585300  0.54414700  0.25000000  1
  B  B13  1  0.54414700  0.45585300  0.75000000  1
  W  W0  1  0.05318700  0.94681300  0.25000000  1
  W  W1  1  0.94681300  0.05318700  0.75000000  1
loop_
_geom_bond_atom_site_label_1
_geom_bond_atom_site_label_2
_geom_bond_distance
_geom_bond_site_symmetry_2
B0 B6 1.839203 1_555
B0 B1 1.982099 1_545
B0 B1 1.982099 1_655
B0 Dy0 2.667188 1_555
B0 Dy4 2.709488 1_655
B0 Dy4 2.709488 1_545
B0 Dy5 2.723538 1_555
B0 Dy1 2.739802 1_545
B0 Dy1 2.739802 1_655
B1 B7 1.839203 1_555
B1 Dy1 2.667188 1_555
B1 Dy5 2.709488 1_565
B1 Dy5 2.709488 1_455
B1 Dy4 2.723538 1_555
B1 Dy0 2.739802 1_565
B1 Dy0 2.739802 1_455
B2 B4 1.839203 1_555
B2 B3 1.982099 1_544
B2 B3 1.982099 1_654
B2 Dy2 2.667188 1_555
B2 Dy4 2.709488 1_655
B2 Dy4 2.709488 1_545
B2 Dy5 2.723538 1_554
B2 Dy3 2.739802 1_654
B2 Dy3 2.739802 1_544
B3 B5 1.839203 1_555
B3 Dy3 2.667188 1_555
B3 Dy5 2.709488 1_565
B3 Dy5 2.709488 1_455
B3 Dy4 2.723538 1_556
B3 Dy2 2.739802 1_566
B3 Dy2 2.739802 1_456
B4 B8 1.912592 1_555
B4 B6 1.957737 1_555
B4 W0 2.381329 1_655
B4 W0 2.381329 1_545
B4 Dy4 2.648362 1_655
B4 Dy4 2.648362 1_545
B4 Dy3 2.661148 1_544
B4 Dy3 2.661148 1_654
B5 B9 1.912592 1_555
B5 B7 1.957737 1_555
B5 W1 2.381329 1_565
B5 W1 2.381329 1_455
B5 Dy5 2.648362 1_565
B5 Dy5 2.648362 1_455
B5 Dy2 2.661148 1_456
B5 Dy2 2.661148 1_566
B6 W0 2.381329 1_655
B6 W0 2.381329 1_545
B6 Dy4 2.648362 1_655
B6 Dy4 2.648362 1_545
B6 Dy1 2.661148 1_655
B6 Dy1 2.661148 1_545
B7 W1 2.381329 1_565
B7 W1 2.381329 1_455
B7 Dy5 2.648362 1_565
B7 Dy5 2.648362 1_455
B7 Dy0 2.661148 1_455
B7 Dy0 2.661148 1_565
B8 B9 1.852649 1_554
B8 W0 2.358025 1_655
B8 W0 2.358025 1_545
B8 Dy3 2.656663 1_544
B8 Dy3 2.656663 1_654
B8 Dy2 2.686181 1_455
B8 Dy2 2.686181 1_565
B9 W1 2.358025 1_455
B9 W1 2.358025 1_565
B9 Dy2 2.656663 1_456
B9 Dy2 2.656663 1_566
B9 Dy3 2.686181 1_545
B9 Dy3 2.686181 1_655
B10 B12 1.816375 1_555
B10 B11 1.852649 1_555
B10 B6 1.912592 1_555
B10 W0 2.358025 1_655
B10 W0 2.358025 1_545
B10 Dy1 2.656663 1_545
B10 Dy1 2.656663 1_655
B10 Dy0 2.686181 1_455
B10 Dy0 2.686181 1_565
B11 B13 1.816375 1_555
B11 B7 1.912592 1_555
B11 W1 2.358025 1_455
B11 W1 2.358025 1_565
B11 Dy0 2.656663 1_455
B11 Dy0 2.656663 1_565
B11 Dy1 2.686181 1_545
B11 Dy1 2.686181 1_655
B12 B8 1.816375 1_555
B12 W0 2.333502 1_655
B12 W0 2.333502 1_545
B12 Dy2 2.695981 1_455
B12 Dy0 2.695981 1_455
B12 Dy2 2.695981 1_565
B12 Dy0 2.695981 1_565
B13 B9 1.816375 1_555
B13 W1 2.333502 1_565
B13 W1 2.333502 1_455
B13 Dy1 2.695981 1_545
B13 Dy3 2.695981 1_545
B13 Dy1 2.695981 1_655
B13 Dy3 2.695981 1_655
