# generated using pymatgen
data_Gd4BClO7
_symmetry_space_group_name_H-M   'P 1'
_cell_length_a   8.19083476
_cell_length_b   8.80598554
_cell_length_c   10.99018062
_cell_angle_alpha   102.14717660
_cell_angle_beta   90.00000000
_cell_angle_gamma   90.00000000
_symmetry_Int_Tables_number   1
_chemical_formula_structural   Gd4BClO7
_chemical_formula_sum   'Gd16 B4 Cl4 O28'
_cell_volume   774.95544626
_cell_formula_units_Z   4
loop_
 _symmetry_equiv_pos_site_id
 _symmetry_equiv_pos_as_xyz
  1  'x, y, z'
loop_
 _atom_site_type_symbol
 _atom_site_label
 _atom_site_symmetry_multiplicity
 _atom_site_fract_x
 _atom_site_fract_y
 _atom_site_fract_z
 _atom_site_occupancy
  Gd  Gd0  1  0.37217155  0.97999510  0.78027722  1
  Gd  Gd1  1  0.12782845  0.47999510  0.28027722  1
  Gd  Gd2  1  0.62782845  0.02000490  0.21972278  1
  Gd  Gd3  1  0.87217155  0.52000490  0.71972278  1
  Gd  Gd4  1  0.38220900  0.66868593  0.08700891  1
  Gd  Gd5  1  0.11779100  0.16868593  0.58700891  1
  Gd  Gd6  1  0.61779100  0.33131407  0.91299109  1
  Gd  Gd7  1  0.88220900  0.83131407  0.41299109  1
  Gd  Gd8  1  0.36430989  0.84559460  0.42027140  1
  Gd  Gd9  1  0.13569011  0.34559460  0.92027140  1
  Gd  Gd10  1  0.63569011  0.15440540  0.57972860  1
  Gd  Gd11  1  0.86430989  0.65440540  0.07972860  1
  Gd  Gd12  1  0.38430645  0.53711406  0.72018942  1
  Gd  Gd13  1  0.11569355  0.03711406  0.22018942  1
  Gd  Gd14  1  0.61569355  0.46288594  0.27981058  1
  Gd  Gd15  1  0.88430645  0.96288594  0.77981058  1
  B  B0  1  0.12785799  0.71729686  0.58597999  1
  B  B1  1  0.37214201  0.21729686  0.08597999  1
  B  B2  1  0.87214201  0.28270314  0.41402001  1
  B  B3  1  0.62785799  0.78270314  0.91402001  1
  Cl  Cl0  1  0.13855260  0.84938740  0.96731027  1
  Cl  Cl1  1  0.36144740  0.34938740  0.46731027  1
  Cl  Cl2  1  0.86144740  0.15061260  0.03268973  1
  Cl  Cl3  1  0.63855260  0.65061260  0.53268973  1
  O  O0  1  0.37734497  0.05503491  0.59587245  1
  O  O1  1  0.12265503  0.55503491  0.09587245  1
  O  O2  1  0.62265503  0.94496509  0.40412755  1
  O  O3  1  0.87734497  0.44496509  0.90412755  1
  O  O4  1  0.36440100  0.91705944  0.22417933  1
  O  O5  1  0.13559900  0.41705944  0.72417933  1
  O  O6  1  0.63559900  0.08294056  0.77582067  1
  O  O7  1  0.86440100  0.58294056  0.27582067  1
  O  O8  1  0.38352349  0.60340688  0.27973430  1
  O  O9  1  0.11647651  0.10340688  0.77973430  1
  O  O10  1  0.61647651  0.39659312  0.72026570  1
  O  O11  1  0.88352349  0.89659312  0.22026570  1
  O  O12  1  0.37592492  0.47379784  0.90760761  1
  O  O13  1  0.12407508  0.97379784  0.40760761  1
  O  O14  1  0.62407508  0.52620216  0.09239239  1
  O  O15  1  0.87592492  0.02620216  0.59239239  1
  O  O16  1  0.11212606  0.67747628  0.45775708  1
  O  O17  1  0.38787394  0.17747628  0.95775708  1
  O  O18  1  0.88787394  0.32252372  0.54224292  1
  O  O19  1  0.61212606  0.82252372  0.04224292  1
  O  O20  1  0.99081634  0.73352979  0.66027107  1
  O  O21  1  0.50918366  0.23352979  0.16027107  1
  O  O22  1  0.00918366  0.26647021  0.33972893  1
  O  O23  1  0.49081634  0.76647021  0.83972893  1
  O  O24  1  0.28229320  0.74797187  0.63536442  1
  O  O25  1  0.21770680  0.24797187  0.13536442  1
  O  O26  1  0.71770680  0.25202813  0.36463558  1
  O  O27  1  0.78229320  0.75202813  0.86463558  1
loop_
_geom_bond_atom_site_label_1
_geom_bond_atom_site_label_2
_geom_bond_distance
_geom_bond_site_symmetry_2
Gd0 O0 2.260382 1_565
Gd0 O17 2.327615 1_565
Gd0 O23 2.328918 1_555
Gd0 O6 2.344893 1_565
Gd0 O9 2.360115 1_565
Gd0 O24 2.425610 1_555
Gd1 O1 2.260382 1_555
Gd1 O16 2.327615 1_555
Gd1 O22 2.328918 1_555
Gd1 O7 2.344893 1_455
Gd1 O8 2.360115 1_555
Gd1 O25 2.425610 1_555
Gd2 O2 2.260382 1_545
Gd2 O19 2.327615 1_545
Gd2 O21 2.328918 1_555
Gd2 O4 2.344893 1_545
Gd2 O11 2.360115 1_545
Gd2 O26 2.425610 1_555
Gd3 O3 2.260382 1_555
Gd3 O18 2.327615 1_555
Gd3 O20 2.328918 1_555
Gd3 O5 2.344893 1_655
Gd3 O10 2.360115 1_555
Gd3 O27 2.425610 1_555
Gd4 O8 2.308521 1_555
Gd4 O12 2.326224 1_554
Gd4 O14 2.352390 1_555
Gd4 O1 2.360478 1_555
Gd4 O4 2.385375 1_555
Gd4 O19 2.429861 1_555
Gd5 O9 2.308521 1_555
Gd5 O13 2.326224 1_545
Gd5 O15 2.352390 1_455
Gd5 O0 2.360478 1_555
Gd5 O5 2.385375 1_555
Gd5 O18 2.429861 1_455
Gd6 O10 2.308521 1_555
Gd6 O14 2.326224 1_556
Gd6 O12 2.352390 1_555
Gd6 O3 2.360478 1_555
Gd6 O6 2.385375 1_555
Gd6 O17 2.429861 1_555
Gd7 O11 2.308521 1_555
Gd7 O15 2.326224 1_565
Gd7 O13 2.352390 1_655
Gd7 O2 2.360478 1_555
Gd7 O7 2.385375 1_555
Gd7 O16 2.429861 1_655
Gd8 O13 2.287351 1_555
Gd8 O2 2.310900 1_555
Gd8 O8 2.360608 1_555
Gd8 O4 2.368800 1_555
Gd8 O0 2.374757 1_565
Gd8 O16 2.623893 1_555
Gd8 O24 2.762902 1_555
Gd9 O12 2.287351 1_555
Gd9 O3 2.310900 1_455
Gd9 O9 2.360608 1_555
Gd9 O5 2.368800 1_555
Gd9 O1 2.374757 1_556
Gd9 O17 2.623893 1_555
Gd9 O25 2.762902 1_556
Gd10 O15 2.287351 1_555
Gd10 O0 2.310900 1_555
Gd10 O10 2.360608 1_555
Gd10 O6 2.368800 1_555
Gd10 O2 2.374757 1_545
Gd10 O18 2.623893 1_555
Gd10 O26 2.762902 1_555
Gd11 O14 2.287351 1_555
Gd11 O1 2.310900 1_655
Gd11 O11 2.360608 1_555
Gd11 O7 2.368800 1_555
Gd11 O3 2.374757 1_554
Gd11 O19 2.623893 1_555
Gd11 O27 2.762902 1_554
Gd12 O12 2.245332 1_555
Gd12 O10 2.268919 1_555
Gd12 O5 2.299775 1_555
Gd12 O23 2.334436 1_555
Gd12 O24 2.396558 1_555
Gd13 O13 2.245332 1_545
Gd13 O11 2.268919 1_445
Gd13 O4 2.299775 1_545
Gd13 O22 2.334436 1_555
Gd13 O25 2.396558 1_555
Gd14 O14 2.245332 1_555
Gd14 O8 2.268919 1_555
Gd14 O7 2.299775 1_555
Gd14 O21 2.334436 1_555
Gd14 O26 2.396558 1_555
Gd15 O15 2.245332 1_565
Gd15 O9 2.268919 1_665
Gd15 O6 2.299775 1_565
Gd15 O20 2.334436 1_555
Gd15 O27 2.396558 1_555
B0 O20 1.377649 1_455
B0 O24 1.380560 1_555
B0 O16 1.384713 1_555
B1 O21 1.377649 1_555
B1 O25 1.380560 1_555
B1 O17 1.384713 1_554
B2 O22 1.377649 1_655
B2 O26 1.380560 1_555
B2 O18 1.384713 1_555
B3 O23 1.377649 1_555
B3 O27 1.380560 1_555
B3 O19 1.384713 1_556
Cl0 Gd13 2.925445 1_566
Cl0 Gd4 3.021032 1_556
Cl0 Gd0 3.194454 1_555
Cl0 Gd11 3.226934 1_456
Cl0 Gd15 3.232453 1_455
Cl1 Gd12 2.925445 1_555
Cl1 Gd5 3.021032 1_555
Cl1 Gd1 3.194454 1_555
Cl1 Gd10 3.226934 1_555
Cl1 Gd14 3.232453 1_555
Cl2 Gd15 2.925445 1_544
Cl2 Gd6 3.021032 1_554
Cl2 Gd2 3.194454 1_555
Cl2 Gd9 3.226934 1_654
Cl2 Gd13 3.232453 1_655
Cl3 Gd14 2.925445 1_555
Cl3 Gd7 3.021032 1_555
Cl3 Gd3 3.194454 1_555
Cl3 Gd8 3.226934 1_555
Cl3 Gd12 3.232453 1_555
