# generated using pymatgen
data_BaYVCuO5
_symmetry_space_group_name_H-M   'P 1'
_cell_length_a   3.91886900
_cell_length_b   3.91886900
_cell_length_c   8.00863200
_cell_angle_alpha   90.00000000
_cell_angle_beta   90.00000000
_cell_angle_gamma   90.00000000
_symmetry_Int_Tables_number   1
_chemical_formula_structural   BaYVCuO5
_chemical_formula_sum   'Ba1 Y1 V1 Cu1 O5'
_cell_volume   122.99284015
_cell_formula_units_Z   1
loop_
 _symmetry_equiv_pos_site_id
 _symmetry_equiv_pos_as_xyz
  1  'x, y, z'
loop_
 _atom_site_type_symbol
 _atom_site_label
 _atom_site_symmetry_multiplicity
 _atom_site_fract_x
 _atom_site_fract_y
 _atom_site_fract_z
 _atom_site_occupancy
  Ba  Ba0  1  0.00000000  0.00000000  0.00865800  1
  Y  Y0  1  0.00000000  0.00000000  0.45974500  1
  V  V0  1  0.50000000  0.50000000  0.70136400  1
  Cu  Cu0  1  0.50000000  0.50000000  0.26857000  1
  O  O0  1  0.00000000  0.50000000  0.63197600  1
  O  O1  1  0.50000000  0.00000000  0.63197600  1
  O  O2  1  0.00000000  0.50000000  0.27546900  1
  O  O3  1  0.50000000  0.00000000  0.27546900  1
  O  O4  1  0.50000000  0.50000000  0.92961100  1
loop_
_geom_bond_atom_site_label_1
_geom_bond_atom_site_label_2
_geom_bond_distance
_geom_bond_site_symmetry_2
Ba0 O4 2.842451 1_544
Ba0 O4 2.842451 1_444
Ba0 O4 2.842451 1_554
Ba0 O4 2.842451 1_454
Ba0 O3 2.899183 1_555
Ba0 O2 2.899183 1_555
Ba0 O2 2.899183 1_545
Ba0 O3 2.899183 1_455
Cu0 O3 1.960213 1_555
Cu0 O2 1.960213 1_555
Cu0 O2 1.960213 1_655
Cu0 O3 1.960213 1_565
O0 V0 2.036710 1_555
O0 V0 2.036710 1_455
O0 Y0 2.396236 1_555
O0 Y0 2.396236 1_565
O1 V0 2.036710 1_555
O1 V0 2.036710 1_545
O1 Y0 2.396236 1_555
O1 Y0 2.396236 1_655
O2 Y0 2.453032 1_555
O2 Y0 2.453032 1_565
O3 Y0 2.453032 1_555
O3 Y0 2.453032 1_655
O4 V0 1.827946 1_555
