# generated using pymatgen
data_LaMg6Sn
_symmetry_space_group_name_H-M   'P 1'
_cell_length_a   5.25372900
_cell_length_b   6.52994600
_cell_length_c   11.95184800
_cell_angle_alpha   90.00000000
_cell_angle_beta   90.00000000
_cell_angle_gamma   90.00000000
_symmetry_Int_Tables_number   1
_chemical_formula_structural   LaMg6Sn
_chemical_formula_sum   'La2 Mg12 Sn2'
_cell_volume   410.02687023
_cell_formula_units_Z   2
loop_
 _symmetry_equiv_pos_site_id
 _symmetry_equiv_pos_as_xyz
  1  'x, y, z'
loop_
 _atom_site_type_symbol
 _atom_site_label
 _atom_site_symmetry_multiplicity
 _atom_site_fract_x
 _atom_site_fract_y
 _atom_site_fract_z
 _atom_site_occupancy
  La  La0  1  0.50000000  0.50000000  0.17038800  1
  La  La1  1  0.50000000  0.00000000  0.67038800  1
  Mg  Mg0  1  0.50000000  0.25214000  0.41811300  1
  Mg  Mg1  1  0.50000000  0.74786000  0.41811300  1
  Mg  Mg2  1  0.00000000  0.75430700  0.07750700  1
  Mg  Mg3  1  0.00000000  0.24569300  0.07750700  1
  Mg  Mg4  1  0.00000000  0.00000000  0.33462900  1
  Mg  Mg5  1  0.00000000  0.50000000  0.33857600  1
  Mg  Mg6  1  0.50000000  0.75214000  0.91811300  1
  Mg  Mg7  1  0.50000000  0.24786000  0.91811300  1
  Mg  Mg8  1  0.00000000  0.25430700  0.57750700  1
  Mg  Mg9  1  0.00000000  0.74569300  0.57750700  1
  Mg  Mg10  1  0.00000000  0.50000000  0.83462900  1
  Mg  Mg11  1  0.00000000  0.00000000  0.83857600  1
  Sn  Sn0  1  0.50000000  0.00000000  0.16516400  1
  Sn  Sn1  1  0.50000000  0.50000000  0.66516400  1
loop_
_geom_bond_atom_site_label_1
_geom_bond_atom_site_label_2
_geom_bond_distance
_geom_bond_site_symmetry_2
La0 Sn0 3.265570 1_555
La0 Sn0 3.265570 1_565
La0 Mg2 3.300056 1_555
La0 Mg2 3.300056 1_655
La0 Mg3 3.300056 1_555
La0 Mg3 3.300056 1_655
La0 Mg5 3.307741 1_655
La0 Mg5 3.307741 1_555
La0 Mg0 3.374278 1_555
La0 Mg1 3.374278 1_555
La0 Mg6 3.435401 1_554
La0 Mg7 3.435401 1_554
La1 Sn1 3.265570 1_555
La1 Sn1 3.265570 1_545
La1 Mg8 3.300056 1_555
La1 Mg8 3.300056 1_655
La1 Mg9 3.300056 1_645
La1 Mg9 3.300056 1_545
La1 Mg11 3.307741 1_655
La1 Mg11 3.307741 1_555
La1 Mg6 3.374278 1_545
La1 Mg7 3.374278 1_555
La1 Mg1 3.435401 1_545
La1 Mg0 3.435401 1_555
Mg0 Mg5 3.228570 1_555
Mg0 Mg5 3.228570 1_655
Mg0 Mg1 3.237025 1_555
Mg0 Mg8 3.244972 1_555
Mg0 Mg8 3.244972 1_655
Mg0 Mg4 3.256813 1_555
Mg0 Mg4 3.256813 1_655
Mg0 Mg1 3.292921 1_545
Mg0 Sn1 3.367212 1_555
Mg0 Sn0 3.442473 1_555
Mg1 Mg5 3.228570 1_655
Mg1 Mg5 3.228570 1_555
Mg1 Mg9 3.244972 1_555
Mg1 Mg9 3.244972 1_655
Mg1 Mg4 3.256813 1_665
Mg1 Mg4 3.256813 1_565
Mg1 Sn1 3.367212 1_555
Mg1 Sn0 3.442473 1_565
Mg2 Mg6 3.244972 1_454
Mg2 Mg6 3.244972 1_554
Mg2 Sn0 3.251460 1_565
Mg2 Sn0 3.251460 1_465
Mg3 Mg7 3.244972 1_554
Mg3 Mg7 3.244972 1_454
Mg3 Sn0 3.251460 1_455
Mg3 Sn0 3.251460 1_555
Mg4 Mg5 3.265314 1_555
Mg4 Mg5 3.265314 1_545
Mg4 Sn0 3.317038 1_555
Mg4 Sn0 3.317038 1_455
Mg5 Mg9 3.275486 1_555
Mg5 Mg8 3.275486 1_555
Mg6 Mg7 3.237025 1_565
Mg6 Mg7 3.292921 1_555
Mg6 Sn0 3.367212 1_566
Mg6 Sn1 3.442473 1_555
Mg7 Sn0 3.367212 1_556
Mg7 Sn1 3.442473 1_555
Mg8 Sn1 3.251460 1_555
Mg8 Sn1 3.251460 1_455
Mg9 Sn1 3.251460 1_555
Mg9 Sn1 3.251460 1_455
Mg10 Mg7 3.256813 1_455
Mg10 Mg7 3.256813 1_555
Mg10 Mg6 3.256813 1_455
Mg10 Mg6 3.256813 1_555
Mg10 Mg11 3.265314 1_565
Mg10 Mg11 3.265314 1_555
Mg10 Sn1 3.317038 1_455
Mg10 Sn1 3.317038 1_555
Mg11 Mg6 3.228570 1_545
Mg11 Mg7 3.228570 1_455
Mg11 Mg7 3.228570 1_555
Mg11 Mg6 3.228570 1_445
Mg11 Mg2 3.275486 1_546
Mg11 Mg3 3.275486 1_556
