# generated using pymatgen
data_Li
_symmetry_space_group_name_H-M   'P 1'
_cell_length_a   5.95706419
_cell_length_b   5.95706326
_cell_length_c   5.95706400
_cell_angle_alpha   109.47122316
_cell_angle_beta   109.47121999
_cell_angle_gamma   109.47121482
_symmetry_Int_Tables_number   1
_chemical_formula_structural   Li
_chemical_formula_sum   Li8
_cell_volume   162.73272166
_cell_formula_units_Z   8
loop_
 _symmetry_equiv_pos_site_id
 _symmetry_equiv_pos_as_xyz
  1  'x, y, z'
loop_
 _atom_site_type_symbol
 _atom_site_label
 _atom_site_symmetry_multiplicity
 _atom_site_fract_x
 _atom_site_fract_y
 _atom_site_fract_z
 _atom_site_occupancy
  Li  Li0_0  1  0.00000000  0.00000000  0.00000000  1
  Li  Li0_1  1  0.00000000  0.00000000  0.50000000  1
  Li  Li0_2  1  0.00000000  0.50000000  0.00000000  1
  Li  Li0_3  1  0.00000000  0.50000000  0.50000000  1
  Li  Li0_4  1  0.50000000  0.00000000  0.00000000  1
  Li  Li0_5  1  0.50000000  0.00000000  0.50000000  1
  Li  Li0_6  1  0.50000000  0.50000000  0.00000000  1
  Li  Li0_7  1  0.50000000  0.50000000  0.50000000  1
loop_
_geom_bond_atom_site_label_1
_geom_bond_atom_site_label_2
_geom_bond_distance
_geom_bond_site_symmetry_2
Li0_0 Li0_2 2.978532 1_555
Li0_0 Li0_2 2.978532 1_545
Li0_0 Li0_1 2.978532 1_555
Li0_0 Li0_1 2.978532 1_554
Li0_0 Li0_4 2.978532 1_555
Li0_0 Li0_4 2.978532 1_455
Li0_0 Li0_7 2.978532 1_555
Li0_0 Li0_7 2.978532 1_444
Li0_1 Li0_3 2.978532 1_555
Li0_1 Li0_3 2.978532 1_545
Li0_1 Li0_5 2.978532 1_555
Li0_1 Li0_5 2.978532 1_455
Li0_1 Li0_6 2.978532 1_556
Li0_1 Li0_6 2.978532 1_445
Li0_2 Li0_3 2.978532 1_554
Li0_2 Li0_3 2.978532 1_555
Li0_2 Li0_6 2.978532 1_455
Li0_2 Li0_6 2.978532 1_555
Li0_2 Li0_5 2.978532 1_565
Li0_2 Li0_5 2.978532 1_454
Li0_3 Li0_7 2.978532 1_555
Li0_3 Li0_7 2.978532 1_455
Li0_3 Li0_4 2.978532 1_566
Li0_3 Li0_4 2.978532 1_455
Li0_4 Li0_6 2.978532 1_545
Li0_4 Li0_6 2.978532 1_555
Li0_4 Li0_5 2.978532 1_555
Li0_4 Li0_5 2.978532 1_554
Li0_5 Li0_7 2.978532 1_555
Li0_5 Li0_7 2.978532 1_545
Li0_6 Li0_7 2.978532 1_554
Li0_6 Li0_7 2.978532 1_555
