# generated using pymatgen
data_InHg7S6Cl5
_symmetry_space_group_name_H-M   'P 1'
_cell_length_a   7.58902000
_cell_length_b   10.77700345
_cell_length_c   14.08766597
_cell_angle_alpha   109.69574184
_cell_angle_beta   105.45770990
_cell_angle_gamma   92.85477258
_symmetry_Int_Tables_number   1
_chemical_formula_structural   InHg7S6Cl5
_chemical_formula_sum   'In2 Hg14 S12 Cl10'
_cell_volume   1033.08745290
_cell_formula_units_Z   2
loop_
 _symmetry_equiv_pos_site_id
 _symmetry_equiv_pos_as_xyz
  1  'x, y, z'
loop_
 _atom_site_type_symbol
 _atom_site_label
 _atom_site_symmetry_multiplicity
 _atom_site_fract_x
 _atom_site_fract_y
 _atom_site_fract_z
 _atom_site_occupancy
  In  In0  1  0.88610000  0.13937800  0.32340600  1
  In  In1  1  0.11390000  0.86062200  0.67659400  1
  Hg  Hg0  1  0.00000000  0.00000000  0.00000000  1
  Hg  Hg1  1  0.37345700  0.95736700  0.22732900  1
  Hg  Hg2  1  0.62654300  0.04263300  0.77267100  1
  Hg  Hg3  1  0.62357600  0.54371500  0.77266900  1
  Hg  Hg4  1  0.37642400  0.45628500  0.22733100  1
  Hg  Hg5  1  0.71944800  0.88141400  0.43475100  1
  Hg  Hg6  1  0.28055200  0.11858600  0.56524900  1
  Hg  Hg7  1  0.30762300  0.70285600  0.93839500  1
  Hg  Hg8  1  0.69237700  0.29714400  0.06160500  1
  Hg  Hg9  1  0.21604800  0.36191900  0.93993000  1
  Hg  Hg10  1  0.78395200  0.63808100  0.06007000  1
  Hg  Hg11  1  0.01671600  0.38599400  0.66001100  1
  Hg  Hg12  1  0.98328400  0.61400600  0.33998900  1
  Hg  Hg13  1  0.50000000  0.50000000  0.50000000  1
  S  S0  1  0.04541800  0.49525100  0.85033100  1
  S  S1  1  0.95458200  0.50474900  0.14966900  1
  S  S2  1  0.63733700  0.38125800  0.61014600  1
  S  S3  1  0.36266300  0.61874200  0.38985400  1
  S  S4  1  0.62753400  0.72928500  0.92900800  1
  S  S5  1  0.37246600  0.27071500  0.07099200  1
  S  S6  1  0.13480100  0.83455900  0.06330400  1
  S  S7  1  0.86519900  0.16544100  0.93669600  1
  S  S8  1  0.87153400  0.71570700  0.49047000  1
  S  S9  1  0.12846600  0.28429300  0.50953000  1
  S  S10  1  0.60598800  0.06858600  0.39498000  1
  S  S11  1  0.39401200  0.93141400  0.60502000  1
  Cl  Cl0  1  0.48857500  0.32266900  0.83210400  1
  Cl  Cl1  1  0.51142500  0.67733100  0.16789600  1
  Cl  Cl2  1  0.68088400  0.03010200  0.13655900  1
  Cl  Cl3  1  0.31911600  0.96989800  0.86344100  1
  Cl  Cl4  1  0.13840500  0.20535400  0.25273000  1
  Cl  Cl5  1  0.86159500  0.79464600  0.74727000  1
  Cl  Cl6  1  0.02421500  0.92741500  0.32703500  1
  Cl  Cl7  1  0.97578500  0.07258500  0.67296500  1
  Cl  Cl8  1  0.75144300  0.35650100  0.33554500  1
  Cl  Cl9  1  0.24855700  0.64349900  0.66445500  1
loop_
_geom_bond_atom_site_label_1
_geom_bond_atom_site_label_2
_geom_bond_distance
_geom_bond_site_symmetry_2
In0 S9 2.660855 1_655
In0 S10 2.759930 1_555
In1 S8 2.660855 1_455
In1 S11 2.759930 1_555
Hg0 S6 2.405815 1_545
Hg0 S7 2.405815 1_454
Hg1 S10 2.405905 1_565
Hg1 S6 2.416685 1_555
Hg2 S11 2.405905 1_545
Hg2 S7 2.416685 1_555
Hg3 S2 2.400421 1_555
Hg3 S4 2.416824 1_555
Hg4 S3 2.400421 1_555
Hg4 S5 2.416824 1_555
Hg5 S10 2.408707 1_565
Hg5 S8 2.409296 1_555
Hg6 S11 2.408707 1_545
Hg6 S9 2.409296 1_555
Hg7 S4 2.473970 1_555
Hg7 S6 2.561905 1_556
Hg7 S0 2.621861 1_555
Hg8 S5 2.473970 1_555
Hg8 S7 2.561905 1_554
Hg8 S1 2.621861 1_555
Hg9 S0 2.423100 1_555
Hg9 S5 2.440373 1_556
Hg10 S1 2.423100 1_555
Hg10 S4 2.440373 1_554
Hg11 S9 2.428864 1_555
Hg11 S0 2.481470 1_555
Hg11 S2 2.769200 1_455
Hg12 S8 2.428864 1_555
Hg12 S1 2.481470 1_555
Hg12 S3 2.769200 1_655
Hg13 S2 2.396011 1_555
Hg13 S3 2.396011 1_555
Cl0 Hg9 2.844741 1_555
Cl0 Hg3 2.997384 1_555
Cl1 Hg10 2.844741 1_555
Cl1 Hg4 2.997384 1_555
Cl2 In0 2.506720 1_555
Cl3 In1 2.506720 1_555
Cl4 In0 2.553617 1_455
Cl5 In1 2.553617 1_655
Cl6 In0 2.570612 1_465
Cl7 In1 2.570612 1_645
Cl8 In0 2.571083 1_555
Cl9 In1 2.571083 1_555
