# generated using pymatgen
data_CsMoN2
_symmetry_space_group_name_H-M   'P 1'
_cell_length_a   6.20008900
_cell_length_b   8.77016400
_cell_length_c   12.39550400
_cell_angle_alpha   90.00000000
_cell_angle_beta   90.00000000
_cell_angle_gamma   90.00000000
_symmetry_Int_Tables_number   1
_chemical_formula_structural   CsMoN2
_chemical_formula_sum   'Cs8 Mo8 N16'
_cell_volume   674.01541349
_cell_formula_units_Z   8
loop_
 _symmetry_equiv_pos_site_id
 _symmetry_equiv_pos_as_xyz
  1  'x, y, z'
loop_
 _atom_site_type_symbol
 _atom_site_label
 _atom_site_symmetry_multiplicity
 _atom_site_fract_x
 _atom_site_fract_y
 _atom_site_fract_z
 _atom_site_occupancy
  Cs  Cs0  1  0.75000000  0.12603000  0.00000000  1
  Cs  Cs1  1  0.25000000  0.87397000  0.50000000  1
  Cs  Cs2  1  0.25000000  0.87397000  0.00000000  1
  Cs  Cs3  1  0.75000000  0.12603000  0.50000000  1
  Cs  Cs4  1  0.71368300  0.37547600  0.25000000  1
  Cs  Cs5  1  0.21368300  0.62452400  0.25000000  1
  Cs  Cs6  1  0.28631700  0.62452400  0.75000000  1
  Cs  Cs7  1  0.78631700  0.37547600  0.75000000  1
  Mo  Mo0  1  0.25000000  0.37449400  0.00000000  1
  Mo  Mo1  1  0.75000000  0.62550600  0.50000000  1
  Mo  Mo2  1  0.75000000  0.62550600  0.00000000  1
  Mo  Mo3  1  0.25000000  0.37449400  0.50000000  1
  Mo  Mo4  1  0.22773700  0.12423200  0.25000000  1
  Mo  Mo5  1  0.72773700  0.87576800  0.25000000  1
  Mo  Mo6  1  0.77226300  0.87576800  0.75000000  1
  Mo  Mo7  1  0.27226300  0.12423200  0.75000000  1
  N  N0  1  0.96156100  0.01626800  0.25000000  1
  N  N1  1  0.46156100  0.98373200  0.25000000  1
  N  N2  1  0.03843900  0.98373200  0.75000000  1
  N  N3  1  0.53843900  0.01626800  0.75000000  1
  N  N4  1  0.24719000  0.24896300  0.37501200  1
  N  N5  1  0.74719000  0.75103700  0.12498800  1
  N  N6  1  0.75281000  0.75103700  0.87501200  1
  N  N7  1  0.25281000  0.24896300  0.62498800  1
  N  N8  1  0.75281000  0.75103700  0.62498800  1
  N  N9  1  0.25281000  0.24896300  0.87501200  1
  N  N10  1  0.24719000  0.24896300  0.12498800  1
  N  N11  1  0.74719000  0.75103700  0.37501200  1
  N  N12  1  0.50000000  0.50000000  0.50000000  1
  N  N13  1  0.00000000  0.50000000  0.00000000  1
  N  N14  1  0.50000000  0.50000000  0.00000000  1
  N  N15  1  0.00000000  0.50000000  0.50000000  1
loop_
_geom_bond_atom_site_label_1
_geom_bond_atom_site_label_2
_geom_bond_distance
_geom_bond_site_symmetry_2
Cs0 N3 3.500034 1_554
Cs0 N0 3.500034 1_555
Cs0 N10 3.614588 1_655
Cs0 N9 3.614588 1_554
Cs0 N14 3.627604 1_555
Cs0 N13 3.627604 1_655
Cs0 N5 3.635447 1_545
Cs0 N6 3.635447 1_544
Cs0 N10 3.644350 1_555
Cs0 N9 3.644350 1_654
Cs0 N2 3.789283 1_644
Cs0 N1 3.789283 1_545
Cs1 N2 3.500034 1_555
Cs1 N1 3.500034 1_555
Cs1 N11 3.614588 1_555
Cs1 N8 3.614588 1_455
Cs1 N15 3.627604 1_555
Cs1 N12 3.627604 1_555
Cs1 N7 3.635447 1_565
Cs1 N4 3.635447 1_565
Cs1 N8 3.644350 1_555
Cs1 N11 3.644350 1_455
Cs1 N3 3.789283 1_565
Cs1 N0 3.789283 1_465
Cs2 N2 3.500034 1_554
Cs2 N1 3.500034 1_555
Cs2 N5 3.614588 1_555
Cs2 N6 3.614588 1_454
Cs2 N14 3.627604 1_555
Cs2 N13 3.627604 1_555
Cs2 N9 3.635447 1_564
Cs2 N10 3.635447 1_565
Cs2 N6 3.644350 1_554
Cs2 N5 3.644350 1_455
Cs2 N0 3.789283 1_465
Cs2 N3 3.789283 1_564
Cs3 N3 3.500034 1_555
Cs3 N0 3.500034 1_555
Cs3 N7 3.614588 1_555
Cs3 N4 3.614588 1_655
Cs3 N15 3.627604 1_655
Cs3 N12 3.627604 1_555
Cs3 N11 3.635447 1_545
Cs3 N8 3.635447 1_545
Cs3 N7 3.644350 1_655
Cs3 N4 3.644350 1_555
Cs3 N2 3.789283 1_645
Cs3 N1 3.789283 1_545
Cs4 N4 3.463768 1_555
Cs4 N10 3.463768 1_555
Cs4 N0 3.505200 1_555
Cs4 N14 3.542731 1_555
Cs4 N12 3.542731 1_555
Cs4 N5 3.645963 1_555
Cs4 N11 3.645963 1_555
Cs4 N13 3.734569 1_655
Cs4 N15 3.734569 1_655
Cs4 N1 3.774557 1_545
Cs4 N10 3.817562 1_655
Cs4 N4 3.817562 1_655
Cs5 N5 3.463768 1_455
Cs5 N11 3.463768 1_455
Cs5 N1 3.505200 1_555
Cs5 N15 3.542731 1_555
Cs5 N13 3.542731 1_555
Cs5 N10 3.645963 1_555
Cs5 N4 3.645963 1_555
Cs5 N14 3.734569 1_555
Cs5 N12 3.734569 1_555
Cs5 N0 3.774557 1_465
Cs5 N5 3.817562 1_555
Cs5 N11 3.817562 1_555
Cs6 N6 3.463768 1_555
Cs6 N8 3.463768 1_555
Cs6 N2 3.505200 1_555
Cs6 N14 3.542731 1_556
Cs6 N12 3.542731 1_555
Cs6 N9 3.645963 1_555
Cs6 N7 3.645963 1_555
Cs6 N13 3.734569 1_556
Cs6 N15 3.734569 1_555
Cs6 N3 3.774557 1_565
Cs6 N8 3.817562 1_455
Cs6 N6 3.817562 1_455
Cs7 N7 3.463768 1_655
Cs7 N9 3.463768 1_655
Cs7 N3 3.505200 1_555
Cs7 N15 3.542731 1_655
Cs7 N13 3.542731 1_656
Cs7 N6 3.645963 1_555
Cs7 N8 3.645963 1_555
Cs7 N12 3.734569 1_555
Cs7 N14 3.734569 1_556
Cs7 N2 3.774557 1_645
Cs7 N9 3.817562 1_555
Cs7 N7 3.817562 1_555
Mo0 N9 1.900695 1_554
Mo0 N10 1.900695 1_555
Mo0 N13 1.901086 1_555
Mo0 N14 1.901086 1_555
Mo1 N8 1.900695 1_555
Mo1 N11 1.900695 1_555
Mo1 N12 1.901086 1_555
Mo1 N15 1.901086 1_655
Mo2 N6 1.900695 1_554
Mo2 N5 1.900695 1_555
Mo2 N13 1.901086 1_655
Mo2 N14 1.901086 1_555
Mo3 N4 1.900695 1_555
Mo3 N7 1.900695 1_555
Mo3 N12 1.901086 1_555
Mo3 N15 1.901086 1_555
Mo4 N10 1.900634 1_555
Mo4 N4 1.900634 1_555
Mo4 N1 1.902644 1_545
Mo4 N0 1.902653 1_455
Mo5 N11 1.900634 1_555
Mo5 N5 1.900634 1_555
Mo5 N0 1.902644 1_565
Mo5 N1 1.902653 1_555
Mo6 N6 1.900634 1_555
Mo6 N8 1.900634 1_555
Mo6 N3 1.902644 1_565
Mo6 N2 1.902653 1_655
Mo7 N7 1.900634 1_555
Mo7 N9 1.900634 1_555
Mo7 N2 1.902644 1_545
Mo7 N3 1.902653 1_555
