# generated using pymatgen
data_Th4AlGe
_symmetry_space_group_name_H-M   'P 1'
_cell_length_a   6.09890398
_cell_length_b   6.09890398
_cell_length_c   6.09890398
_cell_angle_alpha   103.82086610
_cell_angle_beta   103.82086610
_cell_angle_gamma   121.48167099
_symmetry_Int_Tables_number   1
_chemical_formula_structural   Th4AlGe
_chemical_formula_sum   'Th4 Al1 Ge1'
_cell_volume   168.78382334
_cell_formula_units_Z   1
loop_
 _symmetry_equiv_pos_site_id
 _symmetry_equiv_pos_as_xyz
  1  'x, y, z'
loop_
 _atom_site_type_symbol
 _atom_site_label
 _atom_site_symmetry_multiplicity
 _atom_site_fract_x
 _atom_site_fract_y
 _atom_site_fract_z
 _atom_site_occupancy
  Th  Th0  1  0.40996028  0.90996028  0.81992155  1
  Th  Th1  1  0.09003972  0.59003972  0.18007845  1
  Th  Th2  1  0.59003972  0.40996028  0.50000000  1
  Th  Th3  1  0.90996028  0.09003972  0.50000000  1
  Al  Al0  1  0.50000000  0.50000000  -0.00000000  1
  Ge  Ge0  1  -0.00000000  -0.00000000  -0.00000000  1
loop_
_geom_bond_atom_site_label_1
_geom_bond_atom_site_label_2
_geom_bond_distance
_geom_bond_site_symmetry_2
Al0 Ge0 2.980905 1_665
Al0 Ge0 2.980905 1_555
Al0 Th0 3.196439 1_554
Al0 Th1 3.196439 1_555
Al0 Th0 3.196441 1_544
Al0 Th1 3.196441 1_655
Al0 Th3 3.196442 1_565
Al0 Th2 3.196442 1_555
Al0 Th2 3.196442 1_554
Al0 Th3 3.196442 1_454
Ge0 Th1 3.196439 1_545
Ge0 Th0 3.196439 1_544
Ge0 Th0 3.196441 1_444
Ge0 Th1 3.196441 1_555
Ge0 Th3 3.196442 1_454
Ge0 Th2 3.196442 1_444
Ge0 Th3 3.196442 1_455
Ge0 Th2 3.196442 1_555
