# generated using pymatgen
data_Y11Ge10
_symmetry_space_group_name_H-M   'P 1'
_cell_length_a   11.32390592
_cell_length_b   11.32390592
_cell_length_c   11.32390592
_cell_angle_alpha   122.08353696
_cell_angle_beta   122.08353696
_cell_angle_gamma   86.42756849
_symmetry_Int_Tables_number   1
_chemical_formula_structural   Y11Ge10
_chemical_formula_sum   'Y22 Ge20'
_cell_volume   992.33566801
_cell_formula_units_Z   2
loop_
 _symmetry_equiv_pos_site_id
 _symmetry_equiv_pos_as_xyz
  1  'x, y, z'
loop_
 _atom_site_type_symbol
 _atom_site_label
 _atom_site_symmetry_multiplicity
 _atom_site_fract_x
 _atom_site_fract_y
 _atom_site_fract_z
 _atom_site_occupancy
  Y  Y0  1  0.15974700  0.15974700  0.00000000  1
  Y  Y1  1  0.84025300  0.84025300  0.00000000  1
  Y  Y2  1  0.32274400  0.32274400  0.64548900  1
  Y  Y3  1  0.67725600  0.67725600  0.35451100  1
  Y  Y4  1  0.32274400  0.67725600  0.00000000  1
  Y  Y5  1  0.67725600  0.32274400  0.00000000  1
  Y  Y6  1  0.42678600  0.10269600  0.32409000  1
  Y  Y7  1  0.57321400  0.89730400  0.67591000  1
  Y  Y8  1  0.77860600  0.10269600  0.67591000  1
  Y  Y9  1  0.10269600  0.77860600  0.67591000  1
  Y  Y10  1  0.22139400  0.89730400  0.32409000  1
  Y  Y11  1  0.89730400  0.22139400  0.32409000  1
  Y  Y12  1  0.10269600  0.42678600  0.32409000  1
  Y  Y13  1  0.89730400  0.57321400  0.67591000  1
  Y  Y14  1  0.56213100  0.31002900  0.25210200  1
  Y  Y15  1  0.43786900  0.68997100  0.74789800  1
  Y  Y16  1  0.05792700  0.31002900  0.74789800  1
  Y  Y17  1  0.31002900  0.05792700  0.74789800  1
  Y  Y18  1  0.94207300  0.68997100  0.25210200  1
  Y  Y19  1  0.68997100  0.94207300  0.25210200  1
  Y  Y20  1  0.31002900  0.56213100  0.25210200  1
  Y  Y21  1  0.68997100  0.43786900  0.74789800  1
  Ge  Ge0  1  0.39137500  0.39137500  0.41935500  1
  Ge  Ge1  1  0.60862500  0.60862500  0.58064500  1
  Ge  Ge2  1  0.97202100  0.97202100  0.58064500  1
  Ge  Ge3  1  0.39137500  0.97202100  0.00000000  1
  Ge  Ge4  1  0.02797900  0.60862500  0.00000000  1
  Ge  Ge5  1  0.02797900  0.02797900  0.41935500  1
  Ge  Ge6  1  0.60862500  0.02797900  0.00000000  1
  Ge  Ge7  1  0.97202100  0.39137500  0.00000000  1
  Ge  Ge8  1  0.38719000  0.38719000  0.00000000  1
  Ge  Ge9  1  0.61281000  0.61281000  0.00000000  1
  Ge  Ge10  1  0.11954500  0.11954500  0.23909000  1
  Ge  Ge11  1  0.88045500  0.88045500  0.76091000  1
  Ge  Ge12  1  0.11954500  0.88045500  0.00000000  1
  Ge  Ge13  1  0.88045500  0.11954500  0.00000000  1
  Ge  Ge14  1  0.75000000  0.25000000  0.50000000  1
  Ge  Ge15  1  0.25000000  0.75000000  0.50000000  1
  Ge  Ge16  1  0.50000000  0.13935300  0.63935300  1
  Ge  Ge17  1  0.50000000  0.86064700  0.36064700  1
  Ge  Ge18  1  0.13935300  0.50000000  0.63935300  1
  Ge  Ge19  1  0.86064700  0.50000000  0.36064700  1
loop_
_geom_bond_atom_site_label_1
_geom_bond_atom_site_label_2
_geom_bond_distance
_geom_bond_site_symmetry_2
Ge0 Ge1 2.578375 1_555
Ge0 Y6 2.925867 1_555
Ge0 Y12 2.925867 1_555
Ge0 Y20 3.160632 1_555
Ge0 Y14 3.160632 1_555
Ge0 Y21 3.213884 1_555
Ge0 Y15 3.213884 1_555
Ge0 Y0 3.271690 1_555
Ge0 Y2 3.474017 1_555
Ge1 Y7 2.925867 1_555
Ge1 Y13 2.925867 1_555
Ge1 Y15 3.160632 1_555
Ge1 Y21 3.160632 1_555
Ge1 Y14 3.213884 1_555
Ge1 Y20 3.213884 1_555
Ge1 Y1 3.271690 1_556
Ge1 Y3 3.474017 1_555
Ge2 Ge5 2.578346 1_665
Ge2 Y9 2.925874 1_655
Ge2 Y8 2.925874 1_565
Ge2 Y17 3.160621 1_665
Ge2 Y16 3.160621 1_665
Ge2 Y18 3.213883 1_555
Ge2 Y19 3.213883 1_555
Ge2 Y0 3.271692 1_666
Ge2 Y3 3.474017 1_555
Ge3 Ge6 2.578368 1_565
Ge3 Y6 2.925868 1_565
Ge3 Y9 2.925868 1_554
Ge3 Y14 3.160623 1_565
Ge3 Y17 3.160623 1_564
Ge3 Y15 3.213889 1_554
Ge3 Y19 3.213889 1_555
Ge3 Y0 3.271683 1_565
Ge3 Y4 3.474017 1_555
Ge4 Ge7 2.578368 1_455
Ge4 Y10 2.925868 1_555
Ge4 Y13 2.925868 1_454
Ge4 Y21 3.160623 1_454
Ge4 Y18 3.160623 1_455
Ge4 Y16 3.213889 1_554
Ge4 Y20 3.213889 1_555
Ge4 Y1 3.271683 1_455
Ge4 Y4 3.474017 1_555
Ge5 Y11 2.925874 1_455
Ge5 Y10 2.925874 1_545
Ge5 Y18 3.160621 1_445
Ge5 Y19 3.160621 1_445
Ge5 Y16 3.213883 1_555
Ge5 Y17 3.213883 1_555
Ge5 Y1 3.271692 1_445
Ge5 Y2 3.474017 1_555
Ge6 Y11 2.925868 1_555
Ge6 Y7 2.925868 1_544
Ge6 Y15 3.160623 1_544
Ge6 Y19 3.160623 1_545
Ge6 Y17 3.213889 1_554
Ge6 Y14 3.213889 1_555
Ge6 Y1 3.271683 1_545
Ge6 Y5 3.474017 1_555
Ge7 Y12 2.925868 1_655
Ge7 Y8 2.925868 1_554
Ge7 Y20 3.160623 1_655
Ge7 Y16 3.160623 1_654
Ge7 Y21 3.213889 1_554
Ge7 Y18 3.213889 1_555
Ge7 Y0 3.271683 1_655
Ge7 Y5 3.474017 1_555
Ge8 Y20 3.043685 1_555
Ge8 Y14 3.043685 1_555
Ge8 Y16 3.043685 1_554
Ge8 Y17 3.043685 1_554
Ge8 Y2 3.320076 1_554
Ge8 Y3 3.320085 1_555
Ge8 Y5 3.320087 1_555
Ge8 Y4 3.320087 1_555
Ge9 Y18 3.043685 1_555
Ge9 Y19 3.043685 1_555
Ge9 Y15 3.043685 1_554
Ge9 Y21 3.043685 1_554
Ge9 Y3 3.320076 1_555
Ge9 Y2 3.320085 1_554
Ge9 Y5 3.320087 1_555
Ge9 Y4 3.320087 1_555
Ge10 Ge13 2.621726 1_455
Ge10 Ge12 2.621726 1_545
Ge10 Y11 3.101995 1_455
Ge10 Y10 3.101995 1_545
Ge10 Y6 3.101995 1_555
Ge10 Y12 3.101995 1_555
Ge10 Y2 3.151109 1_555
Ge10 Y0 3.223228 1_555
Ge10 Y1 3.223228 1_445
Ge11 Ge13 2.621726 1_566
Ge11 Ge12 2.621726 1_656
Ge11 Y13 3.101995 1_555
Ge11 Y7 3.101995 1_555
Ge11 Y8 3.101995 1_565
Ge11 Y9 3.101995 1_655
Ge11 Y3 3.151109 1_555
Ge11 Y0 3.223228 1_666
Ge11 Y1 3.223228 1_556
Ge12 Y9 3.101995 1_554
Ge12 Y6 3.101995 1_565
Ge12 Y13 3.101995 1_454
Ge12 Y10 3.101995 1_555
Ge12 Y4 3.151101 1_555
Ge12 Y0 3.223228 1_565
Ge12 Y1 3.223228 1_455
Ge13 Y8 3.101995 1_554
Ge13 Y12 3.101995 1_655
Ge13 Y7 3.101995 1_544
Ge13 Y11 3.101995 1_555
Ge13 Y5 3.151101 1_555
Ge13 Y0 3.223228 1_655
Ge13 Y1 3.223228 1_545
Ge14 Y21 2.893258 1_555
Ge14 Y16 2.893258 1_655
Ge14 Y14 2.893258 1_555
Ge14 Y19 2.893258 1_545
Ge14 Y11 3.103601 1_555
Ge14 Y13 3.103601 1_555
Ge14 Y6 3.103601 1_555
Ge14 Y8 3.103601 1_555
Ge15 Y15 2.893258 1_555
Ge15 Y17 2.893258 1_565
Ge15 Y20 2.893258 1_555
Ge15 Y18 2.893258 1_455
Ge15 Y10 3.103601 1_555
Ge15 Y7 3.103601 1_555
Ge15 Y12 3.103601 1_555
Ge15 Y9 3.103601 1_555
Ge16 Y5 2.796765 1_556
Ge16 Y2 2.796765 1_555
Ge16 Y8 2.988152 1_555
Ge16 Y6 2.988152 1_555
Ge16 Y7 2.988152 1_545
Ge16 Y10 2.988152 1_545
Ge16 Y21 3.353927 1_555
Ge16 Y17 3.353927 1_555
Ge17 Y4 2.796765 1_555
Ge17 Y3 2.796765 1_555
Ge17 Y7 2.988152 1_555
Ge17 Y8 2.988152 1_565
Ge17 Y6 2.988152 1_565
Ge17 Y10 2.988152 1_555
Ge17 Y20 3.353927 1_555
Ge17 Y19 3.353927 1_555
Ge18 Y4 2.796765 1_556
Ge18 Y2 2.796765 1_555
Ge18 Y9 2.988152 1_555
Ge18 Y12 2.988152 1_555
Ge18 Y13 2.988152 1_455
Ge18 Y11 2.988152 1_455
Ge18 Y15 3.353927 1_555
Ge18 Y16 3.353927 1_555
Ge19 Y5 2.796765 1_555
Ge19 Y3 2.796765 1_555
Ge19 Y13 2.988152 1_555
Ge19 Y9 2.988152 1_655
Ge19 Y12 2.988152 1_655
Ge19 Y11 2.988152 1_555
Ge19 Y14 3.353927 1_555
Ge19 Y18 3.353927 1_555
