# generated using pymatgen
data_KRbMg14O15
_symmetry_space_group_name_H-M   'P 1'
_cell_length_a   4.16908700
_cell_length_b   8.57593800
_cell_length_c   10.42442100
_cell_angle_alpha   90.00000000
_cell_angle_beta   90.00000000
_cell_angle_gamma   90.00000000
_symmetry_Int_Tables_number   1
_chemical_formula_structural   KRbMg14O15
_chemical_formula_sum   'K1 Rb1 Mg14 O15'
_cell_volume   372.71299326
_cell_formula_units_Z   1
loop_
 _symmetry_equiv_pos_site_id
 _symmetry_equiv_pos_as_xyz
  1  'x, y, z'
loop_
 _atom_site_type_symbol
 _atom_site_label
 _atom_site_symmetry_multiplicity
 _atom_site_fract_x
 _atom_site_fract_y
 _atom_site_fract_z
 _atom_site_occupancy
  K  K0  1  0.00000000  0.00000000  0.91282900  1
  Rb  Rb0  1  0.00000000  0.50000000  0.44459400  1
  Mg  Mg0  1  0.00000000  0.50000000  0.98923300  1
  Mg  Mg1  1  0.00000000  0.00000000  0.47637300  1
  Mg  Mg2  1  0.50000000  0.76579200  0.99743100  1
  Mg  Mg3  1  0.50000000  0.23420800  0.99743100  1
  Mg  Mg4  1  0.50000000  0.73940400  0.57150300  1
  Mg  Mg5  1  0.50000000  0.26059600  0.57150300  1
  Mg  Mg6  1  0.50000000  0.00000000  0.70095600  1
  Mg  Mg7  1  0.50000000  0.50000000  0.78201600  1
  Mg  Mg8  1  0.50000000  0.00000000  0.22402500  1
  Mg  Mg9  1  0.50000000  0.50000000  0.17873700  1
  Mg  Mg10  1  0.00000000  0.72367600  0.77195100  1
  Mg  Mg11  1  0.00000000  0.27632400  0.77195100  1
  Mg  Mg12  1  0.00000000  0.75622600  0.18768100  1
  Mg  Mg13  1  0.00000000  0.24377400  0.18768100  1
  O  O0  1  0.00000000  0.50000000  0.79094000  1
  O  O1  1  0.00000000  0.00000000  0.27492200  1
  O  O2  1  0.00000000  0.50000000  0.18989100  1
  O  O3  1  0.50000000  0.78598300  0.77691500  1
  O  O4  1  0.50000000  0.21401700  0.77691500  1
  O  O5  1  0.50000000  0.74211500  0.20659100  1
  O  O6  1  0.50000000  0.25788500  0.20659100  1
  O  O7  1  0.50000000  0.00000000  0.03207200  1
  O  O8  1  0.50000000  0.50000000  0.98096900  1
  O  O9  1  0.50000000  0.00000000  0.51396300  1
  O  O10  1  0.50000000  0.50000000  0.58919900  1
  O  O11  1  0.00000000  0.73609500  0.98611500  1
  O  O12  1  0.00000000  0.26390500  0.98611500  1
  O  O13  1  0.00000000  0.79390500  0.58645000  1
  O  O14  1  0.00000000  0.20609500  0.58645000  1
loop_
_geom_bond_atom_site_label_1
_geom_bond_atom_site_label_2
_geom_bond_distance
_geom_bond_site_symmetry_2
K0 O12 2.388695 1_555
K0 O11 2.388695 1_545
K0 O7 2.427029 1_456
K0 O7 2.427029 1_556
Mg0 O11 2.024997 1_555
Mg0 O12 2.024997 1_555
Mg0 O0 2.067090 1_555
Mg0 O8 2.086323 1_455
Mg0 O8 2.086323 1_555
Mg0 O2 2.091743 1_556
Mg1 O1 2.100010 1_555
Mg1 O13 2.107282 1_545
Mg1 O14 2.107282 1_555
Mg1 O9 2.121054 1_555
Mg1 O9 2.121054 1_455
Mg2 O7 2.040757 1_566
Mg2 O11 2.103354 1_555
Mg2 O11 2.103354 1_655
Mg2 O5 2.189806 1_556
Mg2 O8 2.285866 1_555
Mg2 O3 2.305264 1_555
Mg3 O7 2.040757 1_556
Mg3 O12 2.103354 1_655
Mg3 O12 2.103354 1_555
Mg3 O6 2.189806 1_556
Mg3 O8 2.285866 1_555
Mg3 O4 2.305264 1_555
Mg4 O10 2.061384 1_555
Mg4 O13 2.141976 1_655
Mg4 O13 2.141976 1_555
Mg4 O3 2.178242 1_555
Mg4 O9 2.313950 1_565
Mg5 O10 2.061384 1_555
Mg5 O14 2.141976 1_555
Mg5 O14 2.141976 1_655
Mg5 O4 2.178242 1_555
Mg5 O9 2.313950 1_555
Mg6 O9 1.949294 1_555
Mg6 O4 1.998918 1_555
Mg6 O3 1.998918 1_545
Mg7 O10 2.010006 1_555
Mg7 O8 2.073970 1_555
Mg7 O0 2.086618 1_655
Mg7 O0 2.086618 1_555
Mg7 O3 2.453149 1_555
Mg7 O4 2.453149 1_555
Mg8 O7 2.000999 1_555
Mg8 O1 2.151006 1_555
Mg8 O1 2.151006 1_655
Mg8 O6 2.219060 1_555
Mg8 O5 2.219060 1_545
Mg9 O8 2.061617 1_554
Mg9 O2 2.087784 1_655
Mg9 O2 2.087784 1_555
Mg9 O5 2.096567 1_555
Mg9 O6 2.096567 1_555
Mg10 O0 1.928418 1_555
Mg10 O13 2.025362 1_555
Mg10 O3 2.152561 1_455
Mg10 O3 2.152561 1_555
Mg10 O11 2.235075 1_555
Mg11 O0 1.928418 1_555
Mg11 O14 2.025362 1_555
Mg11 O4 2.152561 1_455
Mg11 O4 2.152561 1_555
Mg11 O12 2.235075 1_555
Mg12 O5 2.097338 1_555
Mg12 O5 2.097338 1_455
Mg12 O11 2.108289 1_554
Mg12 O2 2.197499 1_555
Mg12 O1 2.279834 1_565
Mg13 O6 2.097338 1_555
Mg13 O6 2.097338 1_455
Mg13 O12 2.108289 1_554
Mg13 O2 2.197499 1_555
Mg13 O1 2.279834 1_555
O2 Rb0 2.655131 1_555
O10 Rb0 2.572479 1_555
O10 Rb0 2.572479 1_655
O13 Rb0 2.922281 1_555
O14 Rb0 2.922281 1_555
