# generated using pymatgen
data_Sb2XeF15
_symmetry_space_group_name_H-M   'P 1'
_cell_length_a   8.27768784
_cell_length_b   8.27768784
_cell_length_c   10.64490381
_cell_angle_alpha   73.45647879
_cell_angle_beta   73.45647879
_cell_angle_gamma   64.84891621
_symmetry_Int_Tables_number   1
_chemical_formula_structural   Sb2XeF15
_chemical_formula_sum   'Sb4 Xe2 F30'
_cell_volume   621.53691711
_cell_formula_units_Z   2
loop_
 _symmetry_equiv_pos_site_id
 _symmetry_equiv_pos_as_xyz
  1  'x, y, z'
loop_
 _atom_site_type_symbol
 _atom_site_label
 _atom_site_symmetry_multiplicity
 _atom_site_fract_x
 _atom_site_fract_y
 _atom_site_fract_z
 _atom_site_occupancy
  Sb  Sb0  1  0.75485200  0.63010400  0.61793400  1
  Sb  Sb1  1  0.36989600  0.24514800  0.88206600  1
  Sb  Sb2  1  0.24514800  0.36989600  0.38206600  1
  Sb  Sb3  1  0.63010400  0.75485200  0.11793400  1
  Xe  Xe0  1  0.10184900  0.89815100  0.75000000  1
  Xe  Xe1  1  0.89815100  0.10184900  0.25000000  1
  F  F0  1  0.96099800  0.09022800  0.61611300  1
  F  F1  1  0.90977200  0.03900200  0.88388700  1
  F  F2  1  0.03900200  0.90977200  0.38388700  1
  F  F3  1  0.09022800  0.96099800  0.11611300  1
  F  F4  1  0.87839000  0.75957700  0.65221400  1
  F  F5  1  0.24042300  0.12161000  0.84778600  1
  F  F6  1  0.12161000  0.24042300  0.34778600  1
  F  F7  1  0.75957700  0.87839000  0.15221400  1
  F  F8  1  0.70585300  0.81127700  0.46143800  1
  F  F9  1  0.18872300  0.29414700  0.03856200  1
  F  F10  1  0.29414700  0.18872300  0.53856200  1
  F  F11  1  0.81127700  0.70585300  0.96143800  1
  F  F12  1  0.66141000  0.49145200  0.56643800  1
  F  F13  1  0.50854800  0.33859000  0.93356200  1
  F  F14  1  0.33859000  0.50854800  0.43356200  1
  F  F15  1  0.49145200  0.66141000  0.06643800  1
  F  F16  1  0.84373800  0.43736000  0.75844600  1
  F  F17  1  0.56264000  0.15626200  0.74155400  1
  F  F18  1  0.15626200  0.56264000  0.24155400  1
  F  F19  1  0.43736000  0.84373800  0.25844600  1
  F  F20  1  0.27294500  0.78506600  0.59339700  1
  F  F21  1  0.21493400  0.72705500  0.90660300  1
  F  F22  1  0.72705500  0.21493400  0.40660300  1
  F  F23  1  0.78506600  0.27294500  0.09339700  1
  F  F24  1  0.00000000  0.50000000  0.50000000  1
  F  F25  1  0.50000000  0.00000000  0.00000000  1
  F  F26  1  0.53226300  0.75241500  0.72649800  1
  F  F27  1  0.24758500  0.46773700  0.77350200  1
  F  F28  1  0.46773700  0.24758500  0.27350200  1
  F  F29  1  0.75241500  0.53226300  0.22649800  1
loop_
_geom_bond_atom_site_label_1
_geom_bond_atom_site_label_2
_geom_bond_distance
_geom_bond_site_symmetry_2
F0 Xe0 1.999669 1_645
F1 Xe0 1.999669 1_645
F2 Xe1 1.999669 1_465
F3 Xe1 1.999669 1_465
F4 Sb0 1.922061 1_555
F5 Sb1 1.922061 1_555
F6 Sb2 1.922061 1_555
F7 Sb3 1.922061 1_555
F8 Sb0 1.906241 1_555
F9 Sb1 1.906241 1_554
F10 Sb2 1.906241 1_555
F11 Sb3 1.906241 1_556
F12 Sb0 1.889542 1_555
F13 Sb1 1.889542 1_555
F14 Sb2 1.889542 1_555
F15 Sb3 1.889542 1_555
F16 Sb0 1.895783 1_555
F17 Sb1 1.895783 1_555
F18 Sb2 1.895783 1_555
F19 Sb3 1.895783 1_555
F20 Xe0 2.019476 1_555
F21 Xe0 2.019476 1_555
F22 Xe1 2.019476 1_555
F23 Xe1 2.019476 1_555
F24 Sb0 2.077325 1_455
F24 Sb2 2.077325 1_555
F25 Sb3 2.077325 1_545
F25 Sb1 2.077325 1_554
F26 Sb0 1.903554 1_555
F27 Sb1 1.903554 1_555
F28 Sb2 1.903554 1_555
F29 Sb3 1.903554 1_555
