# generated using pymatgen
data_Ba3SnS5
_symmetry_space_group_name_H-M   'P 1'
_cell_length_a   9.46515065
_cell_length_b   9.46515065
_cell_length_c   9.46515065
_cell_angle_alpha   126.18719355
_cell_angle_beta   126.18719355
_cell_angle_gamma   79.58069295
_symmetry_Int_Tables_number   1
_chemical_formula_structural   Ba3SnS5
_chemical_formula_sum   'Ba6 Sn2 S10'
_cell_volume   533.73809254
_cell_formula_units_Z   2
loop_
 _symmetry_equiv_pos_site_id
 _symmetry_equiv_pos_as_xyz
  1  'x, y, z'
loop_
 _atom_site_type_symbol
 _atom_site_label
 _atom_site_symmetry_multiplicity
 _atom_site_fract_x
 _atom_site_fract_y
 _atom_site_fract_z
 _atom_site_occupancy
  Ba  Ba0  1  0.25000000  0.25000000  0.00000000  1
  Ba  Ba1  1  0.75000000  0.75000000  0.00000000  1
  Ba  Ba2  1  0.83614000  0.66386000  0.50000000  1
  Ba  Ba3  1  0.16386000  0.33614000  0.50000000  1
  Ba  Ba4  1  0.33614000  0.83614000  0.17228000  1
  Ba  Ba5  1  0.66386000  0.16386000  0.82772000  1
  Sn  Sn0  1  0.25000000  0.75000000  0.50000000  1
  Sn  Sn1  1  0.75000000  0.25000000  0.50000000  1
  S  S0  1  0.50000000  0.50000000  0.00000000  1
  S  S1  1  0.00000000  0.00000000  0.00000000  1
  S  S2  1  0.50563500  0.70113900  0.50000000  1
  S  S3  1  0.20113900  0.00563500  0.50000000  1
  S  S4  1  0.00563500  0.50563500  0.80449600  1
  S  S5  1  0.70113900  0.20113900  0.19550400  1
  S  S6  1  0.49436500  0.29886100  0.50000000  1
  S  S7  1  0.79886100  0.99436500  0.50000000  1
  S  S8  1  0.99436500  0.49436500  0.19550400  1
  S  S9  1  0.29886100  0.79886100  0.80449600  1
loop_
_geom_bond_atom_site_label_1
_geom_bond_atom_site_label_2
_geom_bond_distance
_geom_bond_site_symmetry_2
Ba0 S9 3.582935 1_544
Ba0 S8 3.582935 1_455
Ba0 S5 3.582935 1_555
Ba0 S7 3.582935 1_444
Ba0 S2 3.582935 1_555
Ba0 S6 3.582935 1_555
Ba0 S3 3.582935 1_554
Ba0 S4 3.582935 1_554
Ba0 S1 3.636470 1_555
Ba0 S0 3.636470 1_555
Ba1 S7 3.582935 1_555
Ba1 S3 3.582935 1_665
Ba1 S2 3.582935 1_554
Ba1 S5 3.582935 1_565
Ba1 S6 3.582935 1_554
Ba1 S4 3.582935 1_654
Ba1 S9 3.582935 1_554
Ba1 S8 3.582935 1_555
Ba1 S1 3.636470 1_665
Ba1 S0 3.636470 1_555
Ba2 S7 3.084053 1_555
Ba2 S2 3.084053 1_555
Ba2 S0 3.203503 1_555
Ba2 S1 3.203503 1_666
Ba2 S5 3.448343 1_555
Ba2 S4 3.448343 1_655
Ba2 S9 3.448343 1_655
Ba2 S8 3.448343 1_555
Ba3 S6 3.084053 1_555
Ba3 S3 3.084053 1_555
Ba3 S0 3.203503 1_556
Ba3 S1 3.203503 1_555
Ba3 S4 3.448343 1_555
Ba3 S8 3.448343 1_455
Ba3 S9 3.448343 1_555
Ba3 S5 3.448343 1_455
Ba4 S9 3.084053 1_554
Ba4 S4 3.084053 1_554
Ba4 S0 3.203503 1_555
Ba4 S1 3.203503 1_565
Ba4 S3 3.448343 1_565
Ba4 S2 3.448343 1_555
Ba4 S6 3.448343 1_565
Ba4 S7 3.448343 1_555
Ba5 S8 3.084053 1_556
Ba5 S5 3.084053 1_556
Ba5 S0 3.203503 1_556
Ba5 S1 3.203503 1_656
Ba5 S6 3.448343 1_555
Ba5 S7 3.448343 1_545
Ba5 S3 3.448343 1_555
Ba5 S2 3.448343 1_545
S2 Sn0 2.379856 1_555
S3 Sn0 2.379856 1_545
S4 Sn1 2.379856 1_455
S5 Sn1 2.379856 1_555
S6 Sn1 2.379856 1_555
S7 Sn1 2.379856 1_565
S8 Sn0 2.379856 1_655
S9 Sn0 2.379856 1_555
