# generated using pymatgen
data_ScB4Ir3
_symmetry_space_group_name_H-M   'P 1'
_cell_length_a   7.60258757
_cell_length_b   7.60258749
_cell_length_c   3.45779155
_cell_angle_alpha   90.00000000
_cell_angle_beta   90.00000000
_cell_angle_gamma   120.00000525
_symmetry_Int_Tables_number   1
_chemical_formula_structural   ScB4Ir3
_chemical_formula_sum   'Sc2 B8 Ir6'
_cell_volume   173.08214767
_cell_formula_units_Z   2
loop_
 _symmetry_equiv_pos_site_id
 _symmetry_equiv_pos_as_xyz
  1  'x, y, z'
loop_
 _atom_site_type_symbol
 _atom_site_label
 _atom_site_symmetry_multiplicity
 _atom_site_fract_x
 _atom_site_fract_y
 _atom_site_fract_z
 _atom_site_occupancy
  Sc  Sc0  1  0.33333300  0.66666700  0.75000000  1
  Sc  Sc1  1  0.66666700  0.33333300  0.25000000  1
  B  B0  1  0.59866227  0.54846978  0.75000000  1
  B  B1  1  0.05019250  0.59866227  0.25000000  1
  B  B2  1  0.54846978  0.94980750  0.25000000  1
  B  B3  1  0.45153022  0.05019250  0.75000000  1
  B  B4  1  0.00000000  -0.00000000  -0.00000000  1
  B  B5  1  0.40133773  0.45153022  0.25000000  1
  B  B6  1  0.00000000  -0.00000000  0.50000000  1
  B  B7  1  0.94980750  0.40133773  0.75000000  1
  Ir  Ir0  1  0.74688617  0.07647980  0.75000000  1
  Ir  Ir1  1  0.32959362  0.25311383  0.75000000  1
  Ir  Ir2  1  0.67040638  0.74688617  0.25000000  1
  Ir  Ir3  1  0.07647980  0.32959362  0.25000000  1
  Ir  Ir4  1  0.25311383  0.92352020  0.25000000  1
  Ir  Ir5  1  0.92352020  0.67040638  0.75000000  1
loop_
_geom_bond_atom_site_label_1
_geom_bond_atom_site_label_2
_geom_bond_distance
_geom_bond_site_symmetry_2
B0 Ir1 2.152513 1_555
B0 Ir5 2.160916 1_555
B0 B5 2.162672 1_555
B0 B5 2.162672 1_556
B0 Ir2 2.176995 1_555
B0 Ir2 2.176995 1_556
B0 Sc0 2.586348 1_555
B0 Sc1 2.603302 1_555
B0 Sc1 2.603302 1_556
B1 Ir3 2.152513 1_555
B1 Ir4 2.160916 1_555
B1 B7 2.162672 1_455
B1 B7 2.162672 1_454
B1 Ir5 2.176995 1_455
B1 Ir5 2.176995 1_454
B1 Sc1 2.586343 1_455
B1 Sc0 2.603296 1_555
B1 Sc0 2.603296 1_554
B2 Ir4 2.152513 1_555
B2 Ir2 2.160916 1_555
B2 B3 2.162672 1_565
B2 B3 2.162672 1_564
B2 Ir0 2.176995 1_564
B2 Ir0 2.176995 1_565
B2 Sc1 2.586341 1_565
B2 Sc0 2.603298 1_555
B2 Sc0 2.603298 1_554
B3 Ir0 2.152513 1_555
B3 Ir1 2.160916 1_555
B3 Ir4 2.176995 1_546
B3 Ir4 2.176995 1_545
B3 Sc0 2.586341 1_545
B3 Sc1 2.603298 1_555
B3 Sc1 2.603298 1_556
B4 B6 1.728896 1_554
B4 B6 1.728896 1_555
B4 Ir1 2.430481 1_554
B4 Ir2 2.430481 1_445
B4 Ir3 2.430481 1_555
B4 Ir5 2.430481 1_444
B4 Ir4 2.430482 1_545
B4 Ir0 2.430482 1_454
B5 Ir2 2.152513 1_555
B5 Ir3 2.160916 1_555
B5 Ir1 2.176995 1_554
B5 Ir1 2.176995 1_555
B5 Sc1 2.586348 1_555
B5 Sc0 2.603302 1_555
B5 Sc0 2.603302 1_554
B6 Ir1 2.430481 1_555
B6 Ir2 2.430481 1_445
B6 Ir3 2.430481 1_555
B6 Ir5 2.430481 1_445
B6 Ir4 2.430482 1_545
B6 Ir0 2.430482 1_455
B7 Ir5 2.152513 1_555
B7 Ir0 2.160916 1_555
B7 Ir3 2.176995 1_656
B7 Ir3 2.176995 1_655
B7 Sc0 2.586343 1_655
B7 Sc1 2.603296 1_555
B7 Sc1 2.603296 1_556
