# generated using pymatgen
data_NaLiMg14O15
_symmetry_space_group_name_H-M   'P 1'
_cell_length_a   8.54653180
_cell_length_b   8.63101927
_cell_length_c   4.27002754
_cell_angle_alpha   90.00000000
_cell_angle_beta   90.00000000
_cell_angle_gamma   90.00000000
_symmetry_Int_Tables_number   1
_chemical_formula_structural   NaLiMg14O15
_chemical_formula_sum   'Na1 Li1 Mg14 O15'
_cell_volume   314.97977990
_cell_formula_units_Z   1
loop_
 _symmetry_equiv_pos_site_id
 _symmetry_equiv_pos_as_xyz
  1  'x, y, z'
loop_
 _atom_site_type_symbol
 _atom_site_label
 _atom_site_symmetry_multiplicity
 _atom_site_fract_x
 _atom_site_fract_y
 _atom_site_fract_z
 _atom_site_occupancy
  Na  Na0  1  0.99463808  0.50000000  -0.00000000  1
  Li  Li0  1  0.99507733  -0.00000000  -0.00000000  1
  Mg  Mg0  1  0.50288855  -0.00000000  -0.00000000  1
  Mg  Mg1  1  0.51820166  0.50000000  -0.00000000  1
  Mg  Mg2  1  0.00107704  0.24381596  0.50000000  1
  Mg  Mg3  1  0.00107704  0.75618404  0.50000000  1
  Mg  Mg4  1  0.49916445  0.25006404  0.50000000  1
  Mg  Mg5  1  0.49916445  0.74993596  0.50000000  1
  Mg  Mg6  1  0.24268452  -0.00000000  0.50000000  1
  Mg  Mg7  1  0.24398574  0.50000000  0.50000000  1
  Mg  Mg8  1  0.75916465  -0.00000000  0.50000000  1
  Mg  Mg9  1  0.76403899  0.50000000  0.50000000  1
  Mg  Mg10  1  0.24082201  0.22288693  -0.00000000  1
  Mg  Mg11  1  0.24082201  0.77711307  0.00000000  1
  Mg  Mg12  1  0.76187971  0.24632188  -0.00000000  1
  Mg  Mg13  1  0.76187971  0.75367812  -0.00000000  1
  O  O0  1  0.26373248  -0.00000000  -0.00000000  1
  O  O1  1  0.73870158  -0.00000000  -0.00000000  1
  O  O2  1  0.74199472  0.50000000  -0.00000000  1
  O  O3  1  0.25039925  0.25864155  0.50000000  1
  O  O4  1  0.25039925  0.74135845  0.50000000  1
  O  O5  1  0.74843254  0.25317315  0.50000000  1
  O  O6  1  0.74843254  0.74682685  0.50000000  1
  O  O7  1  0.00280725  -0.00000000  0.50000000  1
  O  O8  1  0.01361176  0.50000000  0.50000000  1
  O  O9  1  0.49692704  -0.00000000  0.50000000  1
  O  O10  1  0.48212322  0.50000000  0.50000000  1
  O  O11  1  0.00662687  0.24325910  -0.00000000  1
  O  O12  1  0.00662687  0.75674090  -0.00000000  1
  O  O13  1  0.48630934  0.26124173  -0.00000000  1
  O  O14  1  0.48630934  0.73875827  -0.00000000  1
loop_
_geom_bond_atom_site_label_1
_geom_bond_atom_site_label_2
_geom_bond_distance
_geom_bond_site_symmetry_2
Na0 O8 2.141163 1_654
Na0 O8 2.141163 1_655
Na0 O2 2.159225 1_555
Na0 O12 2.218303 1_655
Na0 O11 2.218303 1_655
Li0 O11 2.101893 1_655
Li0 O12 2.101893 1_645
Li0 O7 2.136036 1_654
Li0 O7 2.136036 1_655
Li0 O1 2.191124 1_555
Li0 O0 2.296070 1_655
Mg0 O1 2.015384 1_555
Mg0 O0 2.043955 1_555
Mg0 O9 2.135622 1_555
Mg0 O9 2.135622 1_554
Mg0 O14 2.259230 1_545
Mg0 O13 2.259230 1_555
Mg1 O2 1.912655 1_555
Mg1 O13 2.078675 1_555
Mg1 O14 2.078675 1_555
Mg1 O10 2.157165 1_555
Mg1 O10 2.157165 1_554
Mg2 O7 2.104432 1_555
Mg2 O3 2.134679 1_555
Mg2 O11 2.135546 1_556
Mg2 O11 2.135546 1_555
Mg2 O5 2.160744 1_455
Mg2 O8 2.213723 1_555
Mg3 O7 2.104432 1_565
Mg3 O4 2.134679 1_555
Mg3 O12 2.135546 1_556
Mg3 O12 2.135546 1_555
Mg3 O6 2.160744 1_455
Mg3 O8 2.213723 1_555
Mg4 O3 2.127368 1_555
Mg4 O5 2.130547 1_555
Mg4 O13 2.140014 1_555
Mg4 O13 2.140014 1_556
Mg4 O9 2.158392 1_555
Mg4 O10 2.162113 1_555
Mg5 O4 2.127368 1_555
Mg5 O6 2.130547 1_555
Mg5 O14 2.140014 1_555
Mg5 O14 2.140014 1_556
Mg5 O9 2.158392 1_565
Mg5 O10 2.162113 1_555
Mg6 O7 2.050119 1_555
Mg6 O0 2.142579 1_555
Mg6 O0 2.142579 1_556
Mg6 O9 2.172892 1_555
Mg6 O4 2.233314 1_545
Mg6 O3 2.233314 1_555
Mg7 O8 1.968899 1_555
Mg7 O10 2.035250 1_555
Mg7 O4 2.083890 1_555
Mg7 O3 2.083890 1_555
Mg8 O7 2.082299 1_655
Mg8 O1 2.142165 1_556
Mg8 O1 2.142165 1_555
Mg8 O6 2.187067 1_545
Mg8 O5 2.187067 1_555
Mg8 O9 2.241222 1_555
Mg9 O8 2.132982 1_655
Mg9 O5 2.134539 1_555
Mg9 O6 2.134539 1_555
Mg9 O2 2.143310 1_556
Mg9 O2 2.143310 1_555
Mg9 O10 2.409402 1_555
Mg10 O0 1.933681 1_555
Mg10 O11 2.009265 1_555
Mg10 O13 2.124021 1_555
Mg10 O3 2.158754 1_555
Mg10 O3 2.158754 1_554
Mg11 O0 1.933681 1_565
Mg11 O12 2.009265 1_555
Mg11 O14 2.124021 1_555
Mg11 O4 2.158754 1_554
Mg11 O4 2.158754 1_555
Mg12 O11 2.091906 1_655
Mg12 O1 2.135218 1_555
Mg12 O5 2.138922 1_554
Mg12 O5 2.138922 1_555
Mg12 O2 2.196086 1_555
Mg12 O13 2.358689 1_555
Mg13 O12 2.091906 1_655
Mg13 O1 2.135218 1_565
Mg13 O6 2.138922 1_555
Mg13 O6 2.138922 1_554
Mg13 O2 2.196086 1_555
Mg13 O14 2.358689 1_555
