# generated using pymatgen
data_Sr2CeMn3O9
_symmetry_space_group_name_H-M   'P 1'
_cell_length_a   5.53581417
_cell_length_b   5.53581417
_cell_length_c   13.54969800
_cell_angle_alpha   89.21024971
_cell_angle_beta   89.21024971
_cell_angle_gamma   59.92957020
_symmetry_Int_Tables_number   1
_chemical_formula_structural   Sr2CeMn3O9
_chemical_formula_sum   'Sr4 Ce2 Mn6 O18'
_cell_volume   359.30199290
_cell_formula_units_Z   2
loop_
 _symmetry_equiv_pos_site_id
 _symmetry_equiv_pos_as_xyz
  1  'x, y, z'
loop_
 _atom_site_type_symbol
 _atom_site_label
 _atom_site_symmetry_multiplicity
 _atom_site_fract_x
 _atom_site_fract_y
 _atom_site_fract_z
 _atom_site_occupancy
  Sr  Sr0  1  0.83655600  0.83655600  0.08100000  1
  Sr  Sr1  1  0.16844200  0.16844200  0.41485600  1
  Sr  Sr2  1  0.16344400  0.16344400  0.91900000  1
  Sr  Sr3  1  0.83155800  0.83155800  0.58514400  1
  Ce  Ce0  1  0.48334200  0.48334200  0.74801300  1
  Ce  Ce1  1  0.51665800  0.51665800  0.25198700  1
  Mn  Mn0  1  0.83320000  0.83320000  0.83484900  1
  Mn  Mn1  1  0.16680000  0.16680000  0.16515100  1
  Mn  Mn2  1  0.50000000  0.50000000  0.50000000  1
  Mn  Mn3  1  0.50000000  0.50000000  0.00000000  1
  Mn  Mn4  1  0.83364900  0.83364900  0.33265800  1
  Mn  Mn5  1  0.16635100  0.16635100  0.66734200  1
  O  O0  1  0.64033400  0.14534800  0.92401800  1
  O  O1  1  0.95229700  0.47549100  0.26054600  1
  O  O2  1  0.32248400  0.79923800  0.60626800  1
  O  O3  1  0.85465200  0.35966600  0.07598200  1
  O  O4  1  0.20076200  0.67751600  0.39373200  1
  O  O5  1  0.52450900  0.04770300  0.73945400  1
  O  O6  1  0.14534800  0.64033400  0.92401800  1
  O  O7  1  0.47549100  0.95229700  0.26054600  1
  O  O8  1  0.79923800  0.32248400  0.60626800  1
  O  O9  1  0.35966600  0.85465200  0.07598200  1
  O  O10  1  0.67751600  0.20076200  0.39373200  1
  O  O11  1  0.04770300  0.52450900  0.73945400  1
  O  O12  1  0.63517800  0.63517800  0.87918400  1
  O  O13  1  0.97863600  0.97863600  0.22872500  1
  O  O14  1  0.31426000  0.31426000  0.56543900  1
  O  O15  1  0.36482200  0.36482200  0.12081600  1
  O  O16  1  0.68574000  0.68574000  0.43456100  1
  O  O17  1  0.02136400  0.02136400  0.77127500  1
loop_
_geom_bond_atom_site_label_1
_geom_bond_atom_site_label_2
_geom_bond_distance
_geom_bond_site_symmetry_2
Ce0 O5 2.310303 1_555
Ce0 O11 2.310303 1_555
Ce0 O12 2.315656 1_555
Ce0 O8 2.435937 1_555
Ce0 O2 2.435937 1_555
Ce1 O7 2.310303 1_555
Ce1 O1 2.310303 1_555
Ce1 O15 2.315656 1_555
Ce1 O4 2.435937 1_555
Ce1 O10 2.435937 1_555
Mn0 O6 1.938762 1_655
Mn0 O0 1.938762 1_565
Mn0 O12 1.982970 1_555
Mn0 O17 1.987438 1_665
Mn0 O5 1.996510 1_565
Mn0 O11 1.996510 1_655
Mn1 O3 1.938762 1_455
Mn1 O9 1.938762 1_545
Mn1 O15 1.982970 1_555
Mn1 O13 1.987438 1_445
Mn1 O7 1.996510 1_545
Mn1 O1 1.996510 1_455
Mn2 O14 1.977348 1_555
Mn2 O16 1.977348 1_555
Mn2 O2 2.044138 1_555
Mn2 O8 2.044138 1_555
Mn2 O10 2.044138 1_555
Mn2 O4 2.044138 1_555
Mn3 O3 2.005785 1_555
Mn3 O0 2.005785 1_554
Mn3 O9 2.005785 1_555
Mn3 O6 2.005785 1_554
Mn3 O15 2.072061 1_555
Mn3 O12 2.072061 1_554
Mn4 O10 1.956618 1_565
Mn4 O4 1.956618 1_655
Mn4 O13 1.963378 1_555
Mn4 O16 1.963890 1_555
Mn4 O7 2.011935 1_555
Mn4 O1 2.011935 1_555
Mn5 O2 1.956618 1_545
Mn5 O8 1.956618 1_455
Mn5 O17 1.963378 1_555
Mn5 O14 1.963890 1_555
Mn5 O5 2.011935 1_555
Mn5 O11 2.011935 1_555
O0 Sr2 2.593040 1_555
O0 Sr0 2.594046 1_546
O0 Sr2 2.947141 1_655
O1 Sr1 2.573987 1_655
O1 Sr0 2.991605 1_555
O2 Sr3 2.651877 1_455
O2 Sr3 2.921897 1_555
O2 Sr1 3.130393 1_565
O3 Sr0 2.593040 1_555
O3 Sr2 2.594046 1_654
O3 Sr0 2.947141 1_545
O4 Sr1 2.651877 1_565
O4 Sr1 2.921897 1_555
O4 Sr3 3.130393 1_455
O5 Sr3 2.573987 1_545
O5 Sr2 2.991605 1_555
O6 Sr2 2.593040 1_555
O6 Sr0 2.594046 1_456
O6 Sr2 2.947141 1_565
O7 Sr1 2.573987 1_565
O7 Sr0 2.991605 1_555
O8 Sr3 2.651877 1_545
O8 Sr3 2.921897 1_555
O8 Sr1 3.130393 1_655
O9 Sr0 2.593040 1_555
O9 Sr2 2.594046 1_564
O9 Sr0 2.947141 1_455
O10 Sr1 2.651877 1_655
O10 Sr1 2.921897 1_555
O10 Sr3 3.130393 1_545
O11 Sr3 2.573987 1_455
O11 Sr2 2.991605 1_555
O12 Sr2 2.830939 1_565
O12 Sr2 2.830939 1_655
O13 Sr0 2.439368 1_555
O13 Sr1 3.133869 1_665
O14 Sr1 2.491998 1_555
O14 Sr3 2.783025 1_455
O14 Sr3 2.783025 1_545
O15 Sr0 2.830939 1_545
O15 Sr0 2.830939 1_455
O16 Sr3 2.491998 1_555
O16 Sr1 2.783025 1_655
O16 Sr1 2.783025 1_565
O17 Sr2 2.439368 1_555
O17 Sr3 3.133869 1_445
