# generated using pymatgen
data_CeAl4Si2Rh
_symmetry_space_group_name_H-M   'P 1'
_cell_length_a   4.24537600
_cell_length_b   4.24537600
_cell_length_c   7.90682000
_cell_angle_alpha   90.00000000
_cell_angle_beta   90.00000000
_cell_angle_gamma   90.00000000
_symmetry_Int_Tables_number   1
_chemical_formula_structural   CeAl4Si2Rh
_chemical_formula_sum   'Ce1 Al4 Si2 Rh1'
_cell_volume   142.50633566
_cell_formula_units_Z   1
loop_
 _symmetry_equiv_pos_site_id
 _symmetry_equiv_pos_as_xyz
  1  'x, y, z'
loop_
 _atom_site_type_symbol
 _atom_site_label
 _atom_site_symmetry_multiplicity
 _atom_site_fract_x
 _atom_site_fract_y
 _atom_site_fract_z
 _atom_site_occupancy
  Ce  Ce0  1  0.00000000  0.00000000  0.50000000  1
  Al  Al0  1  0.00000000  0.50000000  0.82927100  1
  Al  Al1  1  0.50000000  0.00000000  0.82927100  1
  Al  Al2  1  0.00000000  0.50000000  0.17072900  1
  Al  Al3  1  0.50000000  0.00000000  0.17072900  1
  Si  Si0  1  0.50000000  0.50000000  0.64407000  1
  Si  Si1  1  0.50000000  0.50000000  0.35593000  1
  Rh  Rh0  1  0.00000000  0.00000000  0.00000000  1
loop_
_geom_bond_atom_site_label_1
_geom_bond_atom_site_label_2
_geom_bond_distance
_geom_bond_site_symmetry_2
Ce0 Si1 3.210800 1_445
Ce0 Si1 3.210800 1_555
Ce0 Si1 3.210800 1_545
Ce0 Si1 3.210800 1_455
Ce0 Si0 3.210800 1_445
Ce0 Si0 3.210800 1_545
Ce0 Si0 3.210800 1_555
Ce0 Si0 3.210800 1_455
Al0 Rh0 2.515571 1_566
Al0 Rh0 2.515571 1_556
Al0 Si0 2.578784 1_455
Al0 Si0 2.578784 1_555
Al0 Ce0 3.359159 1_565
Al0 Ce0 3.359159 1_555
Al1 Rh0 2.515571 1_556
Al1 Rh0 2.515571 1_656
Al1 Si0 2.578784 1_545
Al1 Si0 2.578784 1_555
Al1 Ce0 3.359159 1_555
Al1 Ce0 3.359159 1_655
Al2 Rh0 2.515571 1_565
Al2 Rh0 2.515571 1_555
Al2 Si1 2.578784 1_555
Al2 Si1 2.578784 1_455
Al2 Ce0 3.359159 1_565
Al2 Ce0 3.359159 1_555
Al3 Rh0 2.515571 1_655
Al3 Rh0 2.515571 1_555
Al3 Si1 2.578784 1_555
Al3 Si1 2.578784 1_545
Al3 Ce0 3.359159 1_555
Al3 Ce0 3.359159 1_655
Si0 Si1 2.278271 1_555
