# generated using pymatgen
data_Sr2LiReN4
_symmetry_space_group_name_H-M   'P 1'
_cell_length_a   5.91009100
_cell_length_b   6.20549300
_cell_length_c   6.94102099
_cell_angle_alpha   73.64337155
_cell_angle_beta   90.00000000
_cell_angle_gamma   90.00000000
_symmetry_Int_Tables_number   1
_chemical_formula_structural   Sr2LiReN4
_chemical_formula_sum   'Sr4 Li2 Re2 N8'
_cell_volume   244.25935618
_cell_formula_units_Z   2
loop_
 _symmetry_equiv_pos_site_id
 _symmetry_equiv_pos_as_xyz
  1  'x, y, z'
loop_
 _atom_site_type_symbol
 _atom_site_label
 _atom_site_symmetry_multiplicity
 _atom_site_fract_x
 _atom_site_fract_y
 _atom_site_fract_z
 _atom_site_occupancy
  Sr  Sr0  1  0.25000000  0.26179000  0.05566200  1
  Sr  Sr1  1  0.75000000  0.73821000  0.94433800  1
  Sr  Sr2  1  0.75000000  0.78048100  0.43143700  1
  Sr  Sr3  1  0.25000000  0.21951900  0.56856300  1
  Li  Li0  1  0.75000000  0.30650200  0.30931200  1
  Li  Li1  1  0.25000000  0.69349800  0.69068800  1
  Re  Re0  1  0.25000000  0.71806200  0.20176900  1
  Re  Re1  1  0.75000000  0.28193800  0.79823100  1
  N  N0  1  0.50479000  0.46975400  0.74837300  1
  N  N1  1  0.00479000  0.53024600  0.25162700  1
  N  N2  1  0.49521000  0.53024600  0.25162700  1
  N  N3  1  0.99521000  0.46975400  0.74837300  1
  N  N4  1  0.75000000  0.09761700  0.62831900  1
  N  N5  1  0.25000000  0.90238300  0.37168100  1
  N  N6  1  0.75000000  0.11710100  0.06368700  1
  N  N7  1  0.25000000  0.88289900  0.93631300  1
loop_
_geom_bond_atom_site_label_1
_geom_bond_atom_site_label_2
_geom_bond_distance
_geom_bond_site_symmetry_2
Li0 N2 2.010598 1_555
Li0 N1 2.010598 1_655
Li0 N4 2.228563 1_555
Li0 N6 2.327367 1_555
Li1 N0 2.010598 1_555
Li1 N3 2.010598 1_455
Li1 N5 2.228563 1_555
Li1 N7 2.327367 1_555
N0 Re1 1.830622 1_555
N0 Sr0 2.632852 1_556
N0 Sr3 2.707036 1_555
N0 Sr1 2.828752 1_555
N0 Sr2 2.875500 1_555
N1 Re0 1.830622 1_555
N1 Sr1 2.632852 1_454
N1 Sr2 2.707036 1_455
N1 Sr0 2.828752 1_555
N1 Sr3 2.875500 1_555
N2 Re0 1.830622 1_555
N2 Sr1 2.632852 1_554
N2 Sr2 2.707036 1_555
N2 Sr0 2.828752 1_555
N2 Sr3 2.875500 1_555
N3 Re1 1.830622 1_555
N3 Sr0 2.632852 1_656
N3 Sr3 2.707036 1_655
N3 Sr1 2.828752 1_555
N3 Sr2 2.875500 1_555
N4 Re1 1.859827 1_555
N4 Sr1 2.651460 1_545
N4 Sr2 2.693547 1_545
N4 Sr3 3.049565 1_555
N4 Sr3 3.049565 1_655
N5 Re0 1.859827 1_555
N5 Sr0 2.651460 1_565
N5 Sr3 2.693547 1_565
N5 Sr2 3.049565 1_455
N5 Sr2 3.049565 1_555
N6 Re1 1.838401 1_554
N6 Sr1 2.703969 1_544
N6 Sr2 2.806400 1_545
N6 Sr0 3.084379 1_555
N6 Sr0 3.084379 1_655
N7 Re0 1.838401 1_556
N7 Sr0 2.703969 1_566
N7 Sr3 2.806400 1_565
N7 Sr1 3.084379 1_555
N7 Sr1 3.084379 1_455
