# generated using pymatgen
data_La3(GeRh)4
_symmetry_space_group_name_H-M   'P 1'
_cell_length_a   4.19121562
_cell_length_b   4.24861570
_cell_length_c   13.01724455
_cell_angle_alpha   99.39222603
_cell_angle_beta   99.26419824
_cell_angle_gamma   89.99999068
_symmetry_Int_Tables_number   1
_chemical_formula_structural   La3(GeRh)4
_chemical_formula_sum   'La3 Ge4 Rh4'
_cell_volume   225.62385096
_cell_formula_units_Z   1
loop_
 _symmetry_equiv_pos_site_id
 _symmetry_equiv_pos_as_xyz
  1  'x, y, z'
loop_
 _atom_site_type_symbol
 _atom_site_label
 _atom_site_symmetry_multiplicity
 _atom_site_fract_x
 _atom_site_fract_y
 _atom_site_fract_z
 _atom_site_occupancy
  La  La0  1  0.85594901  0.35594801  0.71189703  1
  La  La1  1  0.14405099  0.64405099  0.28810297  1
  La  La2  1  -0.00000000  -0.00000000  0.00000000  1
  Ge  Ge0  1  0.45048904  0.45048904  0.90097807  1
  Ge  Ge1  1  0.54951096  0.54951096  0.09902193  1
  Ge  Ge2  1  0.30094401  0.80094401  0.60188801  1
  Ge  Ge3  1  0.69905599  0.19905599  0.39811199  1
  Rh  Rh0  1  0.39908714  0.89908714  0.79817527  1
  Rh  Rh1  1  0.24986324  0.24986324  0.49972448  1
  Rh  Rh2  1  0.75013676  0.75013676  0.50027552  1
  Rh  Rh3  1  0.60091286  0.10091286  0.20182473  1
loop_
_geom_bond_atom_site_label_1
_geom_bond_atom_site_label_2
_geom_bond_distance
_geom_bond_site_symmetry_2
La0 Rh0 3.177943 1_645
La0 Rh0 3.177943 1_655
La0 Rh0 3.177948 1_555
La0 Rh0 3.177949 1_545
La0 Rh1 3.408639 1_555
La0 Rh1 3.408642 1_655
La0 Rh2 3.420883 1_555
La0 Rh2 3.420885 1_545
La1 Rh3 3.177940 1_455
La1 Rh3 3.177945 1_555
La1 Rh3 3.177946 1_465
La1 Rh3 3.177952 1_565
La1 Rh2 3.408639 1_555
La1 Rh2 3.408642 1_455
La1 Rh1 3.420881 1_555
La1 Rh1 3.420888 1_565
La2 Rh0 3.306214 1_544
La2 Rh3 3.306214 1_455
La2 Rh0 3.306217 1_444
La2 Rh3 3.306217 1_555
Ge0 Rh0 2.491862 1_555
Ge0 Rh0 2.491865 1_545
Ge0 Ge1 2.509337 1_556
Ge0 La0 3.182968 1_455
Ge0 La0 3.182971 1_555
Ge0 La2 3.237043 1_566
Ge0 La2 3.237043 1_666
Ge0 La2 3.237043 1_656
Ge0 La2 3.237044 1_556
Ge1 Rh3 2.491862 1_555
Ge1 Rh3 2.491865 1_565
Ge1 La1 3.182968 1_655
Ge1 La1 3.182971 1_555
Ge1 La2 3.237043 1_655
Ge1 La2 3.237043 1_555
Ge1 La2 3.237043 1_565
Ge1 La2 3.237044 1_665
Ge2 Rh2 2.459510 1_555
Ge2 Rh2 2.459517 1_455
Ge2 Rh0 2.487079 1_555
Ge2 Rh1 2.487635 1_555
Ge2 Rh1 2.487643 1_565
Ge2 La0 3.293500 1_465
Ge2 La0 3.293503 1_565
Ge2 La0 3.293504 1_455
Ge2 La0 3.293506 1_555
Ge3 Rh1 2.459510 1_555
Ge3 Rh1 2.459517 1_655
Ge3 Rh3 2.487079 1_555
Ge3 Rh2 2.487635 1_555
Ge3 Rh2 2.487643 1_545
Ge3 La1 3.293501 1_655
Ge3 La1 3.293503 1_645
Ge3 La1 3.293503 1_555
Ge3 La1 3.293506 1_545
