# generated using pymatgen
data_NbNiAs
_symmetry_space_group_name_H-M   'P 1'
_cell_length_a   3.71031809
_cell_length_b   6.33157439
_cell_length_c   7.27103915
_cell_angle_alpha   90.00000000
_cell_angle_beta   90.00000000
_cell_angle_gamma   90.00000000
_symmetry_Int_Tables_number   1
_chemical_formula_structural   NbNiAs
_chemical_formula_sum   'Nb4 Ni4 As4'
_cell_volume   170.81237870
_cell_formula_units_Z   4
loop_
 _symmetry_equiv_pos_site_id
 _symmetry_equiv_pos_as_xyz
  1  'x, y, z'
loop_
 _atom_site_type_symbol
 _atom_site_label
 _atom_site_symmetry_multiplicity
 _atom_site_fract_x
 _atom_site_fract_y
 _atom_site_fract_z
 _atom_site_occupancy
  Nb  Nb0  1  0.25000000  0.01705345  0.83653804  1
  Nb  Nb1  1  0.25000000  0.51705345  0.66346196  1
  Nb  Nb2  1  0.75000000  0.98294655  0.16346196  1
  Nb  Nb3  1  0.75000000  0.48294655  0.33653804  1
  Ni  Ni0  1  0.25000000  0.16024194  0.42572770  1
  Ni  Ni1  1  0.25000000  0.66024194  0.07427230  1
  Ni  Ni2  1  0.75000000  0.83975806  0.57427230  1
  Ni  Ni3  1  0.75000000  0.33975806  0.92572770  1
  As  As0  1  0.25000000  0.79004620  0.38112095  1
  As  As1  1  0.25000000  0.29004620  0.11887905  1
  As  As2  1  0.75000000  0.20995380  0.61887905  1
  As  As3  1  0.75000000  0.70995380  0.88112095  1
loop_
_geom_bond_atom_site_label_1
_geom_bond_atom_site_label_2
_geom_bond_distance
_geom_bond_site_symmetry_2
Nb0 Ni3 2.834952 1_455
Nb0 Ni3 2.834952 1_555
Nb0 Ni1 2.844619 1_546
Nb0 Ni2 2.887593 1_545
Nb0 Ni2 2.887593 1_445
Nb1 Ni2 2.834952 1_455
Nb1 Ni2 2.834952 1_555
Nb1 Ni0 2.844619 1_555
Nb1 Ni3 2.887593 1_455
Nb1 Ni3 2.887593 1_555
Nb2 Ni1 2.834952 1_555
Nb2 Ni1 2.834952 1_655
Nb2 Ni3 2.844619 1_564
Nb2 Ni0 2.887593 1_565
Nb2 Ni0 2.887593 1_665
Nb3 Ni0 2.834952 1_555
Nb3 Ni0 2.834952 1_655
Nb3 Ni2 2.844619 1_555
Nb3 Ni1 2.887593 1_555
Nb3 Ni1 2.887593 1_655
As0 Ni2 2.347990 1_455
As0 Ni2 2.347990 1_555
As0 Ni0 2.366255 1_565
As0 Ni1 2.377669 1_555
As0 Nb1 2.683668 1_555
As0 Nb3 2.706932 1_455
As0 Nb3 2.706932 1_555
As0 Nb2 2.727267 1_555
As0 Nb2 2.727267 1_455
As1 Ni3 2.347990 1_454
As1 Ni3 2.347990 1_554
As1 Ni1 2.366255 1_555
As1 Ni0 2.377669 1_555
As1 Nb0 2.683668 1_554
As1 Nb2 2.706932 1_545
As1 Nb2 2.706932 1_445
As1 Nb3 2.727267 1_455
As1 Nb3 2.727267 1_555
As2 Ni0 2.347990 1_555
As2 Ni0 2.347990 1_655
As2 Ni2 2.366255 1_545
As2 Ni3 2.377669 1_555
As2 Nb3 2.683668 1_555
As2 Nb1 2.706932 1_655
As2 Nb1 2.706932 1_555
As2 Nb0 2.727267 1_655
As2 Nb0 2.727267 1_555
As3 Ni1 2.347990 1_656
As3 Ni1 2.347990 1_556
As3 Ni3 2.366255 1_555
As3 Ni2 2.377669 1_555
As3 Nb2 2.683668 1_556
As3 Nb0 2.706932 1_665
As3 Nb0 2.706932 1_565
As3 Nb1 2.727267 1_655
As3 Nb1 2.727267 1_555
