# generated using pymatgen
data_Li8(CoO2)5
_symmetry_space_group_name_H-M   'P 1'
_cell_length_a   6.64178359
_cell_length_b   10.10298239
_cell_length_c   8.06191655
_cell_angle_alpha   83.14606582
_cell_angle_beta   100.12490450
_cell_angle_gamma   76.75463892
_symmetry_Int_Tables_number   1
_chemical_formula_structural   Li8(CoO2)5
_chemical_formula_sum   'Li16 Co10 O20'
_cell_volume   511.13563716
_cell_formula_units_Z   2
loop_
 _symmetry_equiv_pos_site_id
 _symmetry_equiv_pos_as_xyz
  1  'x, y, z'
loop_
 _atom_site_type_symbol
 _atom_site_label
 _atom_site_symmetry_multiplicity
 _atom_site_fract_x
 _atom_site_fract_y
 _atom_site_fract_z
 _atom_site_occupancy
  Li  Li0  1  0.62285600  0.72332400  0.06756000  1
  Li  Li1  1  0.12135700  0.21846000  0.06155700  1
  Li  Li2  1  0.27699400  0.77670400  0.13249800  1
  Li  Li3  1  0.77873400  0.28134200  0.13838600  1
  Li  Li4  1  0.43816600  0.72612600  0.44091200  1
  Li  Li5  1  0.93424500  0.22629500  0.44171900  1
  Li  Li6  1  0.46190800  0.77370700  0.75924700  1
  Li  Li7  1  0.96612100  0.27372500  0.75834500  1
  Li  Li8  1  0.48646300  0.22495800  0.26918800  1
  Li  Li9  1  0.98222300  0.72145700  0.26791900  1
  Li  Li10  1  0.41309600  0.27523900  0.93087700  1
  Li  Li11  1  0.91694800  0.77880400  0.93183700  1
  Li  Li12  1  0.59893300  0.28041600  0.54979500  1
  Li  Li13  1  0.09740800  0.78035900  0.55146700  1
  Li  Li14  1  0.30137300  0.21966300  0.65023300  1
  Li  Li15  1  0.80285500  0.71953700  0.64837400  1
  Co  Co0  1  0.20176500  0.49986500  0.60025100  1
  Co  Co1  1  0.40028400  0.49929100  0.19748700  1
  Co  Co2  1  0.00131600  0.50034500  0.00252400  1
  Co  Co3  1  0.79107500  0.50535800  0.40579700  1
  Co  Co4  1  0.60633100  0.49543400  0.79304500  1
  Co  Co5  1  0.69836300  0.00015900  0.59987800  1
  Co  Co6  1  0.89846900  0.99973700  0.19736700  1
  Co  Co7  1  0.49948100  0.00086500  0.00218300  1
  Co  Co8  1  0.29385300  0.00441500  0.40717800  1
  Co  Co9  1  0.10924500  0.99447200  0.79431000  1
  O  O0  1  0.54329800  0.64125600  0.26386400  1
  O  O1  1  0.03635000  0.13274100  0.25992500  1
  O  O2  1  0.35672400  0.85863100  0.93632800  1
  O  O3  1  0.86394700  0.36712200  0.94004200  1
  O  O4  1  0.78098900  0.87057200  0.10126900  1
  O  O5  1  0.25740600  0.36868300  0.09054000  1
  O  O6  1  0.64230100  0.13149200  0.10948400  1
  O  O7  1  0.11866000  0.62952200  0.09851400  1
  O  O8  1  0.54298800  0.86901600  0.56061300  1
  O  O9  1  0.04558600  0.37093400  0.55913400  1
  O  O10  1  0.85460000  0.12904700  0.64093500  1
  O  O11  1  0.35716800  0.63090400  0.63958200  1
  O  O12  1  0.14340600  0.86433600  0.32074500  1
  O  O13  1  0.65923700  0.35745900  0.32896000  1
  O  O14  1  0.24079300  0.14255200  0.87086600  1
  O  O15  1  0.75643400  0.63570600  0.87922200  1
  O  O16  1  0.45557600  0.13515900  0.48785200  1
  O  O17  1  0.96005000  0.63407600  0.49047300  1
  O  O18  1  0.44450500  0.36487300  0.71232400  1
  O  O19  1  0.94012000  0.86586300  0.70939100  1
loop_
_geom_bond_atom_site_label_1
_geom_bond_atom_site_label_2
_geom_bond_distance
_geom_bond_site_symmetry_2
Li0 O0 1.911243 1_555
Li0 O2 2.000615 1_554
Li0 O4 2.025379 1_555
Li0 O15 2.076216 1_554
Li1 O5 1.952783 1_555
Li1 O1 1.958887 1_555
Li1 O14 2.003046 1_554
Li1 O3 2.005423 1_454
Li2 O2 1.910380 1_554
Li2 O0 2.002249 1_555
Li2 O7 2.025975 1_555
Li2 O12 2.075676 1_555
Li3 O6 1.950900 1_555
Li3 O3 1.959713 1_554
Li3 O13 2.003205 1_555
Li3 O1 2.005981 1_655
Li4 O0 1.904799 1_555
Li4 O11 1.988107 1_555
Li4 O8 2.014159 1_555
Li4 O12 2.116275 1_555
Li5 O1 1.971704 1_655
Li5 O13 1.984490 1_555
Li5 O10 1.996197 1_555
Li5 O9 2.038988 1_655
Li6 O2 1.905415 1_555
Li6 O8 1.988556 1_555
Li6 O11 2.013031 1_555
Li6 O15 2.114033 1_555
Li7 O3 1.970422 1_555
Li7 O14 1.982579 1_655
Li7 O9 1.995365 1_655
Li7 O10 2.039838 1_555
Li8 O16 1.950262 1_555
Li8 O6 1.982812 1_555
Li8 O13 2.001124 1_555
Li8 O5 2.053154 1_555
Li9 O17 1.947989 1_555
Li9 O4 1.955470 1_555
Li9 O7 1.975168 1_655
Li9 O12 2.026255 1_655
Li10 O18 1.950138 1_555
Li10 O5 1.981933 1_556
Li10 O14 2.000968 1_555
Li10 O6 2.053542 1_556
Li11 O19 1.948325 1_555
Li11 O7 1.957698 1_656
Li11 O4 1.973094 1_556
Li11 O15 2.024906 1_555
Li12 O18 1.958385 1_555
Li12 O10 1.966014 1_555
Li12 O16 1.989384 1_555
Li12 O13 1.999687 1_555
Li13 O19 1.942969 1_455
Li13 O11 1.969885 1_555
Li13 O17 1.972773 1_455
Li13 O12 2.053020 1_555
Li14 O16 1.956794 1_555
Li14 O9 1.965935 1_555
Li14 O18 1.988371 1_555
Li14 O14 1.999301 1_555
Li15 O17 1.942307 1_555
Li15 O8 1.970138 1_555
Li15 O19 1.972841 1_555
Li15 O15 2.054550 1_555
Co0 O17 1.848159 1_455
Co0 O18 1.860590 1_555
Co0 O9 1.866536 1_555
Co0 O11 1.878788 1_555
Co1 O0 1.968378 1_555
Co1 O5 1.985638 1_555
Co1 O7 1.990838 1_555
Co1 O13 2.000506 1_555
Co2 O7 1.845155 1_555
Co2 O3 1.860298 1_454
Co2 O5 1.865349 1_555
Co2 O15 1.895132 1_454
Co3 O0 1.957093 1_555
Co3 O13 2.003232 1_555
Co3 O17 2.006989 1_555
Co3 O9 2.010629 1_655
Co4 O3 1.979018 1_555
Co4 O18 1.981731 1_555
Co4 O11 1.995149 1_555
Co4 O15 2.030727 1_555
Co5 O19 1.848233 1_545
Co5 O16 1.860727 1_555
Co5 O10 1.866353 1_555
Co5 O8 1.879472 1_545
Co6 O4 1.845887 1_555
Co6 O1 1.860616 1_665
Co6 O6 1.865989 1_565
Co6 O12 1.895715 1_655
Co7 O2 1.968572 1_544
Co7 O6 1.986811 1_555
Co7 O4 1.990678 1_545
Co7 O14 1.998409 1_554
Co8 O1 1.979377 1_555
Co8 O16 1.982710 1_555
Co8 O8 1.994653 1_545
Co8 O12 2.031119 1_545
Co9 O2 1.955940 1_555
Co9 O14 2.003054 1_565
Co9 O19 2.007361 1_455
Co9 O10 2.011887 1_465
