# generated using pymatgen
data_Ce4SnO10
_symmetry_space_group_name_H-M   'P 1'
_cell_length_a   15.78057664
_cell_length_b   15.78057664
_cell_length_c   15.78057690
_cell_angle_alpha   13.93847150
_cell_angle_beta   13.93847150
_cell_angle_gamma   13.93846995
_symmetry_Int_Tables_number   1
_chemical_formula_structural   Ce4SnO10
_chemical_formula_sum   'Ce4 Sn1 O10'
_cell_volume   198.44325833
_cell_formula_units_Z   1
loop_
 _symmetry_equiv_pos_site_id
 _symmetry_equiv_pos_as_xyz
  1  'x, y, z'
loop_
 _atom_site_type_symbol
 _atom_site_label
 _atom_site_symmetry_multiplicity
 _atom_site_fract_x
 _atom_site_fract_y
 _atom_site_fract_z
 _atom_site_occupancy
  Ce  Ce0  1  0.60254400  0.60254400  0.60254400  1
  Ce  Ce1  1  0.20072700  0.20072700  0.20072700  1
  Ce  Ce2  1  0.79927300  0.79927300  0.79927300  1
  Ce  Ce3  1  0.39745600  0.39745600  0.39745600  1
  Sn  Sn0  1  0.00000000  0.00000000  0.00000000  1
  O  O0  1  0.04615300  0.04615300  0.04615300  1
  O  O1  1  0.85021300  0.85021300  0.85021300  1
  O  O2  1  0.44887100  0.44887100  0.44887100  1
  O  O3  1  0.65283400  0.65283400  0.65283400  1
  O  O4  1  0.25226200  0.25226200  0.25226200  1
  O  O5  1  0.34716600  0.34716600  0.34716600  1
  O  O6  1  0.14978700  0.14978700  0.14978700  1
  O  O7  1  0.74773800  0.74773800  0.74773800  1
  O  O8  1  0.95384700  0.95384700  0.95384700  1
  O  O9  1  0.55112900  0.55112900  0.55112900  1
loop_
_geom_bond_atom_site_label_1
_geom_bond_atom_site_label_2
_geom_bond_distance
_geom_bond_site_symmetry_2
Ce0 O4 2.349377 1_655
Ce0 O4 2.349377 1_565
Ce0 O4 2.349377 1_556
Ce0 O3 2.357332 1_555
Ce0 O8 2.365990 1_545
Ce0 O8 2.365990 1_455
Ce0 O8 2.365990 1_554
Ce0 O9 2.410066 1_555
Ce1 O9 2.351285 1_545
Ce1 O9 2.351285 1_455
Ce1 O9 2.351285 1_554
Ce1 O1 2.353077 1_454
Ce1 O1 2.353077 1_544
Ce1 O1 2.353077 1_445
Ce1 O6 2.387801 1_555
Ce1 O4 2.415691 1_555
Ce2 O2 2.351285 1_565
Ce2 O2 2.351285 1_655
Ce2 O2 2.351285 1_556
Ce2 O6 2.353077 1_566
Ce2 O6 2.353077 1_656
Ce2 O6 2.353077 1_665
Ce2 O1 2.387801 1_555
Ce2 O7 2.415691 1_555
Ce3 O7 2.349377 1_545
Ce3 O7 2.349377 1_455
Ce3 O7 2.349377 1_554
Ce3 O5 2.357332 1_555
Ce3 O0 2.365990 1_655
Ce3 O0 2.365990 1_565
Ce3 O0 2.365990 1_556
Ce3 O2 2.410066 1_555
O0 Sn0 2.163411 1_555
O3 Sn0 2.304089 1_656
O3 Sn0 2.304089 1_566
O3 Sn0 2.304089 1_665
O5 Sn0 2.304089 1_565
O5 Sn0 2.304089 1_655
O5 Sn0 2.304089 1_556
O8 Sn0 2.163411 1_666
