# generated using pymatgen
data_RbMg14AlO16
_symmetry_space_group_name_H-M   'P 1'
_cell_length_a   8.62231200
_cell_length_b   8.62231200
_cell_length_c   4.45815300
_cell_angle_alpha   90.00000000
_cell_angle_beta   90.00000000
_cell_angle_gamma   90.00000000
_symmetry_Int_Tables_number   1
_chemical_formula_structural   RbMg14AlO16
_chemical_formula_sum   'Rb1 Mg14 Al1 O16'
_cell_volume   331.43810459
_cell_formula_units_Z   1
loop_
 _symmetry_equiv_pos_site_id
 _symmetry_equiv_pos_as_xyz
  1  'x, y, z'
loop_
 _atom_site_type_symbol
 _atom_site_label
 _atom_site_symmetry_multiplicity
 _atom_site_fract_x
 _atom_site_fract_y
 _atom_site_fract_z
 _atom_site_occupancy
  Rb  Rb0  1  0.50000000  0.50000000  0.00000000  1
  Mg  Mg0  1  0.50000000  0.00000000  0.00000000  1
  Mg  Mg1  1  0.00000000  0.50000000  0.00000000  1
  Mg  Mg2  1  0.25062100  0.00000000  0.50000000  1
  Mg  Mg3  1  0.74937800  0.00000000  0.50000000  1
  Mg  Mg4  1  0.24817800  0.50000000  0.50000000  1
  Mg  Mg5  1  0.75182200  0.50000000  0.50000000  1
  Mg  Mg6  1  0.00000000  0.25062100  0.50000000  1
  Mg  Mg7  1  0.50000000  0.24817800  0.50000000  1
  Mg  Mg8  1  0.00000000  0.74937800  0.50000000  1
  Mg  Mg9  1  0.50000000  0.75182200  0.50000000  1
  Mg  Mg10  1  0.24996500  0.24996500  0.00000000  1
  Mg  Mg11  1  0.75003500  0.24996500  0.00000000  1
  Mg  Mg12  1  0.24996500  0.75003500  0.00000000  1
  Mg  Mg13  1  0.75003500  0.75003500  0.00000000  1
  Al  Al0  1  0.00000000  0.00000000  0.00000000  1
  O  O0  1  0.00000000  0.22414900  0.00000000  1
  O  O1  1  0.50000000  0.21802700  0.00000000  1
  O  O2  1  0.00000000  0.77585100  0.00000000  1
  O  O3  1  0.50000000  0.78197300  0.00000000  1
  O  O4  1  0.24853800  0.24853800  0.50000000  1
  O  O5  1  0.75146200  0.24853800  0.50000000  1
  O  O6  1  0.24853800  0.75146200  0.50000000  1
  O  O7  1  0.75146200  0.75146200  0.50000000  1
  O  O8  1  0.00000000  0.00000000  0.50000000  1
  O  O9  1  0.50000000  0.00000000  0.50000000  1
  O  O10  1  0.00000000  0.50000000  0.50000000  1
  O  O11  1  0.50000000  0.50000000  0.50000000  1
  O  O12  1  0.22414900  0.00000000  0.00000000  1
  O  O13  1  0.77585100  0.00000000  0.00000000  1
  O  O14  1  0.21802700  0.50000000  0.00000000  1
  O  O15  1  0.78197300  0.50000000  0.00000000  1
loop_
_geom_bond_atom_site_label_1
_geom_bond_atom_site_label_2
_geom_bond_distance
_geom_bond_site_symmetry_2
Mg0 O1 1.879897 1_555
Mg0 O3 1.879897 1_545
Mg0 O9 2.229077 1_554
Mg0 O9 2.229077 1_555
Mg0 O13 2.378473 1_555
Mg0 O12 2.378473 1_555
Mg1 O14 1.879897 1_555
Mg1 O15 1.879897 1_455
Mg1 O10 2.229077 1_555
Mg1 O10 2.229077 1_554
Mg1 O2 2.378473 1_555
Mg1 O0 2.378473 1_555
Mg2 O4 2.143047 1_555
Mg2 O6 2.143047 1_545
Mg2 O9 2.150224 1_555
Mg2 O8 2.160932 1_555
Mg2 O12 2.240732 1_556
Mg2 O12 2.240732 1_555
Mg3 O5 2.143048 1_555
Mg3 O7 2.143048 1_545
Mg3 O9 2.150215 1_555
Mg3 O8 2.160941 1_655
Mg3 O13 2.240733 1_555
Mg3 O13 2.240733 1_556
Mg4 O10 2.139868 1_555
Mg4 O6 2.168186 1_555
Mg4 O4 2.168186 1_555
Mg4 O11 2.171288 1_555
Mg4 O14 2.244185 1_556
Mg4 O14 2.244185 1_555
Mg5 O10 2.139868 1_655
Mg5 O7 2.168186 1_555
Mg5 O5 2.168186 1_555
Mg5 O11 2.171288 1_555
Mg5 O15 2.244185 1_556
Mg5 O15 2.244185 1_555
Mg6 O4 2.143047 1_555
Mg6 O5 2.143047 1_455
Mg6 O10 2.150224 1_555
Mg6 O8 2.160932 1_555
Mg6 O0 2.240732 1_555
Mg6 O0 2.240732 1_556
Mg7 O9 2.139868 1_555
Mg7 O5 2.168186 1_555
Mg7 O4 2.168186 1_555
Mg7 O11 2.171288 1_555
Mg7 O1 2.244185 1_556
Mg7 O1 2.244185 1_555
Mg8 O6 2.143048 1_555
Mg8 O7 2.143048 1_455
Mg8 O10 2.150215 1_555
Mg8 O8 2.160941 1_565
Mg8 O2 2.240733 1_555
Mg8 O2 2.240733 1_556
Mg9 O9 2.139868 1_565
Mg9 O7 2.168186 1_555
Mg9 O6 2.168186 1_555
Mg9 O11 2.171288 1_555
Mg9 O3 2.244185 1_556
Mg9 O3 2.244185 1_555
Mg10 O12 2.166740 1_555
Mg10 O0 2.166740 1_555
Mg10 O1 2.173396 1_555
Mg10 O14 2.173396 1_555
Mg10 O4 2.229144 1_554
Mg10 O4 2.229144 1_555
Mg11 O13 2.166740 1_555
Mg11 O0 2.166740 1_655
Mg11 O15 2.173396 1_555
Mg11 O1 2.173396 1_555
Mg11 O5 2.229144 1_555
Mg11 O5 2.229144 1_554
Mg12 O2 2.166740 1_555
Mg12 O12 2.166740 1_565
Mg12 O3 2.173396 1_555
Mg12 O14 2.173396 1_555
Mg12 O6 2.229144 1_555
Mg12 O6 2.229144 1_554
Mg13 O2 2.166740 1_655
Mg13 O13 2.166740 1_565
Mg13 O15 2.173396 1_555
Mg13 O3 2.173396 1_555
Mg13 O7 2.229144 1_555
Mg13 O7 2.229144 1_554
Al0 O0 1.932683 1_555
Al0 O12 1.932683 1_555
Al0 O2 1.932683 1_545
Al0 O13 1.932683 1_455
Al0 O8 2.229077 1_554
Al0 O8 2.229077 1_555
O1 Rb0 2.431259 1_555
O3 Rb0 2.431259 1_555
O11 Rb0 2.229077 1_555
O11 Rb0 2.229077 1_556
O14 Rb0 2.431259 1_555
O15 Rb0 2.431259 1_555
