# generated using pymatgen
data_Sm2Fe12P7
_symmetry_space_group_name_H-M   'P 1'
_cell_length_a   9.02490835
_cell_length_b   9.02490835
_cell_length_c   3.65907600
_cell_angle_alpha   90.00000000
_cell_angle_beta   90.00000000
_cell_angle_gamma   120.00000257
_symmetry_Int_Tables_number   1
_chemical_formula_structural   Sm2Fe12P7
_chemical_formula_sum   'Sm2 Fe12 P7'
_cell_volume   258.09978989
_cell_formula_units_Z   1
loop_
 _symmetry_equiv_pos_site_id
 _symmetry_equiv_pos_as_xyz
  1  'x, y, z'
loop_
 _atom_site_type_symbol
 _atom_site_label
 _atom_site_symmetry_multiplicity
 _atom_site_fract_x
 _atom_site_fract_y
 _atom_site_fract_z
 _atom_site_occupancy
  Sm  Sm0  1  0.33333300  0.66666700  0.00000000  1
  Sm  Sm1  1  0.66666700  0.33333300  0.50000000  1
  Fe  Fe0  1  0.42664700  0.37192300  0.00000000  1
  Fe  Fe1  1  0.62807700  0.05472500  0.00000000  1
  Fe  Fe2  1  0.94527500  0.57335300  0.00000000  1
  Fe  Fe3  1  0.15289100  0.87928100  0.00000000  1
  Fe  Fe4  1  0.12071900  0.27361000  0.00000000  1
  Fe  Fe5  1  0.72639000  0.84710900  0.00000000  1
  Fe  Fe6  1  0.38236400  0.95156300  0.50000000  1
  Fe  Fe7  1  0.04843700  0.43080100  0.50000000  1
  Fe  Fe8  1  0.56919900  0.61763600  0.50000000  1
  Fe  Fe9  1  0.21734300  0.11948900  0.50000000  1
  Fe  Fe10  1  0.88051100  0.09785500  0.50000000  1
  Fe  Fe11  1  0.90214500  0.78265700  0.50000000  1
  P  P0  1  0.40632400  0.10990800  0.00000000  1
  P  P1  1  0.89009200  0.29641600  0.00000000  1
  P  P2  1  0.70358400  0.59367600  0.00000000  1
  P  P3  1  0.10837700  0.71088900  0.50000000  1
  P  P4  1  0.28911100  0.39748700  0.50000000  1
  P  P5  1  0.60251300  0.89162300  0.50000000  1
  P  P6  1  0.00000000  0.00000000  0.00000000  1
loop_
_geom_bond_atom_site_label_1
_geom_bond_atom_site_label_2
_geom_bond_distance
_geom_bond_site_symmetry_2
Fe0 P0 2.278498 1_555
Fe0 P4 2.286375 1_554
Fe0 P4 2.286375 1_555
Fe0 P2 2.291276 1_555
Fe0 Sm1 2.985826 1_554
Fe0 Sm1 2.985826 1_555
Fe0 Sm0 3.166255 1_555
Fe1 P1 2.278494 1_555
Fe1 P5 2.286386 1_544
Fe1 P5 2.286386 1_545
Fe1 P0 2.291270 1_555
Fe1 Sm1 2.985812 1_554
Fe1 Sm1 2.985812 1_555
Fe1 Sm0 3.166255 1_545
Fe2 P2 2.278489 1_555
Fe2 P3 2.286382 1_655
Fe2 P3 2.286382 1_654
Fe2 P1 2.291279 1_555
Fe2 Sm1 2.985817 1_555
Fe2 Sm1 2.985817 1_554
Fe2 Sm0 3.166255 1_655
Fe3 P6 2.143403 1_565
Fe3 P0 2.191559 1_565
Fe3 P3 2.282023 1_555
Fe3 P3 2.282023 1_554
Fe3 Sm0 3.075475 1_555
Fe4 P6 2.143403 1_555
Fe4 P1 2.191559 1_455
Fe4 P4 2.282022 1_554
Fe4 P4 2.282022 1_555
Fe4 Sm0 3.075483 1_555
Fe5 P6 2.143403 1_665
Fe5 P2 2.191559 1_555
Fe5 P5 2.282018 1_554
Fe5 P5 2.282018 1_555
Fe5 Sm0 3.075483 1_555
Fe6 P0 2.264318 1_565
Fe6 P0 2.264318 1_566
Fe6 P5 2.305403 1_555
Fe6 P3 2.336934 1_555
Fe6 Sm0 3.002689 1_556
Fe6 Sm0 3.002689 1_555
Fe6 Sm1 3.100659 1_565
Fe7 P1 2.264318 1_456
Fe7 P1 2.264318 1_455
Fe7 P3 2.305394 1_555
Fe7 P4 2.336939 1_555
Fe7 Sm0 3.002692 1_556
Fe7 Sm0 3.002692 1_555
Fe7 Sm1 3.100657 1_455
Fe8 P2 2.264318 1_556
Fe8 P2 2.264318 1_555
Fe8 P4 2.305396 1_555
Fe8 P5 2.336930 1_555
Fe8 Sm0 3.002696 1_556
Fe8 Sm0 3.002696 1_555
Fe8 Sm1 3.100666 1_555
Fe9 P4 2.255905 1_555
Fe9 P6 2.498470 1_555
Fe9 P6 2.498470 1_556
Fe9 P0 2.531998 1_555
Fe9 P0 2.531998 1_556
Fe10 P5 2.255910 1_545
Fe10 P6 2.498475 1_656
Fe10 P6 2.498475 1_655
Fe10 P1 2.531992 1_555
Fe10 P1 2.531992 1_556
Fe11 P3 2.255923 1_655
Fe11 P6 2.498470 1_666
Fe11 P6 2.498470 1_665
Fe11 P2 2.531995 1_555
Fe11 P2 2.531995 1_556
P0 Sm1 2.862843 1_555
P0 Sm1 2.862843 1_554
P1 Sm1 2.862839 1_555
P1 Sm1 2.862839 1_554
P2 Sm1 2.862846 1_554
P2 Sm1 2.862846 1_555
P3 Sm0 2.904907 1_556
P3 Sm0 2.904907 1_555
P4 Sm0 2.904921 1_556
P4 Sm0 2.904921 1_555
P5 Sm0 2.904916 1_556
P5 Sm0 2.904916 1_555
