# generated using pymatgen
data_Nd2Al
_symmetry_space_group_name_H-M   'P 1'
_cell_length_a   5.25959768
_cell_length_b   6.74524681
_cell_length_c   9.85632347
_cell_angle_alpha   90.00169186
_cell_angle_beta   90.00000000
_cell_angle_gamma   90.00000000
_symmetry_Int_Tables_number   1
_chemical_formula_structural   Nd2Al
_chemical_formula_sum   'Nd8 Al4'
_cell_volume   349.67559153
_cell_formula_units_Z   4
loop_
 _symmetry_equiv_pos_site_id
 _symmetry_equiv_pos_as_xyz
  1  'x, y, z'
loop_
 _atom_site_type_symbol
 _atom_site_label
 _atom_site_symmetry_multiplicity
 _atom_site_fract_x
 _atom_site_fract_y
 _atom_site_fract_z
 _atom_site_occupancy
  Nd  Nd0  1  0.25000000  0.80545760  0.92195115  1
  Nd  Nd1  1  0.25000000  0.30544450  0.57810585  1
  Nd  Nd2  1  0.75000000  0.19458646  0.07788206  1
  Nd  Nd3  1  0.75000000  0.69457047  0.42206069  1
  Nd  Nd4  1  0.25000000  0.97677178  0.29773027  1
  Nd  Nd5  1  0.25000000  0.47666685  0.20234857  1
  Nd  Nd6  1  0.75000000  0.02320222  0.70230628  1
  Nd  Nd7  1  0.75000000  0.52332280  0.79760512  1
  Al  Al0  1  0.25000000  0.28679458  0.89807280  1
  Al  Al1  1  0.25000000  0.78665119  0.60199527  1
  Al  Al2  1  0.75000000  0.71321652  0.10188356  1
  Al  Al3  1  0.75000000  0.21331605  0.39805738  1
loop_
_geom_bond_atom_site_label_1
_geom_bond_atom_site_label_2
_geom_bond_distance
_geom_bond_site_symmetry_2
Nd0 Nd7 3.469792 1_455
Nd0 Nd7 3.469792 1_555
Nd0 Nd5 3.543565 1_556
Nd0 Nd6 3.709445 1_465
Nd0 Nd6 3.709445 1_565
Nd0 Nd4 3.879845 1_556
Nd0 Nd2 4.020833 1_466
Nd0 Nd2 4.020833 1_566
Nd1 Nd6 3.469723 1_455
Nd1 Nd6 3.469723 1_555
Nd1 Nd4 3.542797 1_545
Nd1 Nd7 3.708914 1_455
Nd1 Nd7 3.708914 1_555
Nd1 Nd5 3.879520 1_555
Nd1 Nd3 4.021310 1_555
Nd1 Nd3 4.021310 1_455
Nd2 Nd5 3.470011 1_555
Nd2 Nd5 3.470011 1_655
Nd2 Nd7 3.542410 1_554
Nd2 Nd4 3.710802 1_545
Nd2 Nd4 3.710802 1_645
Nd2 Nd6 3.878073 1_554
Nd3 Nd4 3.470024 1_655
Nd3 Nd4 3.470024 1_555
Nd3 Nd6 3.541625 1_565
Nd3 Nd5 3.710206 1_555
Nd3 Nd5 3.710206 1_655
Nd3 Nd7 3.877568 1_555
Nd4 Nd5 3.500545 1_565
Nd4 Nd5 3.501855 1_555
Nd6 Nd7 3.500224 1_545
Nd6 Nd7 3.501738 1_555
Al0 Nd1 3.156209 1_555
Al0 Nd7 3.231400 1_455
Al0 Nd7 3.231400 1_555
Al0 Nd2 3.231663 1_556
Al0 Nd2 3.231663 1_456
Al0 Nd0 3.255263 1_545
Al0 Nd5 3.261027 1_556
Al0 Nd0 3.506411 1_555
Al0 Nd6 3.714838 1_555
Al0 Nd6 3.714838 1_455
Al1 Nd0 3.156135 1_555
Al1 Nd6 3.230974 1_565
Al1 Nd6 3.230974 1_465
Al1 Nd3 3.232156 1_455
Al1 Nd3 3.232156 1_555
Al1 Nd1 3.254380 1_555
Al1 Nd4 3.261658 1_555
Al1 Nd1 3.507309 1_565
Al1 Nd7 3.713239 1_455
Al1 Nd7 3.713239 1_555
Al2 Nd3 3.158278 1_555
Al2 Nd5 3.231464 1_555
Al2 Nd5 3.231464 1_655
Al2 Nd0 3.232372 1_554
Al2 Nd0 3.232372 1_654
Al2 Nd2 3.255572 1_565
Al2 Nd7 3.261108 1_554
Al2 Nd2 3.506270 1_555
Al2 Nd4 3.715129 1_555
Al2 Nd4 3.715129 1_655
Al3 Nd2 3.158276 1_555
Al3 Nd4 3.231000 1_545
Al3 Nd4 3.231000 1_645
Al3 Nd1 3.232834 1_555
Al3 Nd1 3.232834 1_655
Al3 Nd3 3.254783 1_555
Al3 Nd6 3.261494 1_555
Al3 Nd3 3.507063 1_545
Al3 Nd5 3.713818 1_655
Al3 Nd5 3.713818 1_555
