# generated using pymatgen
data_SrFe3(P2O7)2
_symmetry_space_group_name_H-M   'P 1'
_cell_length_a   7.65758956
_cell_length_b   7.87450300
_cell_length_c   9.71010616
_cell_angle_alpha   90.00000000
_cell_angle_beta   112.25252024
_cell_angle_gamma   90.00000000
_symmetry_Int_Tables_number   1
_chemical_formula_structural   SrFe3(P2O7)2
_chemical_formula_sum   'Sr2 Fe6 P8 O28'
_cell_volume   541.90958100
_cell_formula_units_Z   2
loop_
 _symmetry_equiv_pos_site_id
 _symmetry_equiv_pos_as_xyz
  1  'x, y, z'
loop_
 _atom_site_type_symbol
 _atom_site_label
 _atom_site_symmetry_multiplicity
 _atom_site_fract_x
 _atom_site_fract_y
 _atom_site_fract_z
 _atom_site_occupancy
  Sr  Sr0  1  0.50000000  0.50000000  0.50000000  1
  Sr  Sr1  1  0.50000000  0.00000000  0.00000000  1
  Fe  Fe0  1  0.18872700  0.62434700  0.02651800  1
  Fe  Fe1  1  0.00000000  0.00000000  0.00000000  1
  Fe  Fe2  1  0.18872700  0.87565300  0.52651800  1
  Fe  Fe3  1  0.81127300  0.37565300  0.97348200  1
  Fe  Fe4  1  0.81127300  0.12434700  0.47348200  1
  Fe  Fe5  1  0.00000000  0.50000000  0.50000000  1
  P  P0  1  0.60384000  0.05463500  0.70356500  1
  P  P1  1  0.39616000  0.55463500  0.79643500  1
  P  P2  1  0.39616000  0.94536500  0.29643500  1
  P  P3  1  0.60384000  0.44536500  0.20356500  1
  P  P4  1  0.88749000  0.79673300  0.69218600  1
  P  P5  1  0.11251000  0.29673300  0.80781400  1
  P  P6  1  0.88749000  0.70326700  0.19218600  1
  P  P7  1  0.11251000  0.20326700  0.30781400  1
  O  O0  1  0.84054700  0.62676600  0.61021000  1
  O  O1  1  0.15945300  0.12676600  0.88979000  1
  O  O2  1  0.15945300  0.37323400  0.38979000  1
  O  O3  1  0.84054700  0.87323400  0.11021000  1
  O  O4  1  0.27527200  0.60982900  0.63390200  1
  O  O5  1  0.72472800  0.10982900  0.86609800  1
  O  O6  1  0.72472800  0.39017100  0.36609800  1
  O  O7  1  0.27527200  0.89017000  0.13390200  1
  O  O8  1  0.62009100  0.17998000  0.58982800  1
  O  O9  1  0.37990900  0.67998000  0.91017200  1
  O  O10  1  0.37991000  0.82002000  0.41017200  1
  O  O11  1  0.62009100  0.32002000  0.08982800  1
  O  O12  1  0.68469800  0.87214300  0.67758500  1
  O  O13  1  0.31530200  0.37214300  0.82241400  1
  O  O14  1  0.31530200  0.12785700  0.32241500  1
  O  O15  1  0.68469800  0.62785700  0.17758500  1
  O  O16  1  0.40460300  0.48955000  0.19419800  1
  O  O17  1  0.59539700  0.98955000  0.30580200  1
  O  O18  1  0.59539700  0.51045000  0.80580200  1
  O  O19  1  0.40460300  0.01045000  0.69419800  1
  O  O20  1  0.00055900  0.21357100  0.13923200  1
  O  O21  1  0.99944100  0.71357100  0.36076800  1
  O  O22  1  0.97205600  0.92149100  0.61310500  1
  O  O23  1  0.00055900  0.28642900  0.63923200  1
  O  O24  1  0.97205600  0.57850700  0.11310500  1
  O  O25  1  0.02794400  0.07850900  0.38689500  1
  O  O26  1  0.02794400  0.42149100  0.88689500  1
  O  O27  1  0.99944100  0.78642900  0.86076800  1
loop_
_geom_bond_atom_site_label_1
_geom_bond_atom_site_label_2
_geom_bond_distance
_geom_bond_site_symmetry_2
Fe0 O16 2.114684 1_555
Fe0 O27 2.133877 1_454
Fe0 O26 2.154385 1_554
Fe0 O24 2.155595 1_455
Fe0 O9 2.205477 1_554
Fe0 O7 2.320488 1_555
Fe1 O3 2.149935 1_445
Fe1 O1 2.149935 1_554
Fe1 O27 2.156794 1_444
Fe1 O20 2.156794 1_555
Fe1 O5 2.192271 1_454
Fe1 O7 2.192274 1_545
Fe2 O19 2.114684 1_565
Fe2 O21 2.133877 1_455
Fe2 O25 2.154385 1_565
Fe2 O22 2.155593 1_455
Fe2 O10 2.205484 1_555
Fe2 O4 2.320495 1_555
Fe3 O18 2.114684 1_555
Fe3 O20 2.133877 1_656
Fe3 O24 2.154373 1_556
Fe3 O26 2.155593 1_655
Fe3 O11 2.205477 1_556
Fe3 O5 2.320495 1_555
Fe4 O17 2.114684 1_545
Fe4 O23 2.133877 1_655
Fe4 O22 2.154385 1_545
Fe4 O25 2.155593 1_655
Fe4 O8 2.205477 1_555
Fe4 O6 2.320495 1_555
Fe5 O2 2.149935 1_555
Fe5 O0 2.149935 1_455
Fe5 O21 2.156794 1_455
Fe5 O23 2.156794 1_555
Fe5 O4 2.192271 1_555
Fe5 O6 2.192271 1_455
O0 P4 1.528870 1_555
O0 Sr0 2.613140 1_555
O1 P5 1.528870 1_555
O1 Sr1 2.613140 1_556
O2 P7 1.528870 1_555
O2 Sr0 2.613140 1_555
O3 P6 1.528870 1_555
O3 Sr1 2.613140 1_565
O4 P1 1.558874 1_555
O4 Sr0 2.663555 1_555
O5 P0 1.558874 1_555
O5 Sr1 2.663555 1_556
O6 P3 1.558874 1_555
O6 Sr0 2.663555 1_555
O7 P2 1.558876 1_555
O7 Sr1 2.663557 1_565
O8 P0 1.521019 1_555
O8 Sr0 2.710971 1_555
O9 P1 1.521019 1_555
O9 Sr1 2.710971 1_566
O10 P2 1.521017 1_555
O10 Sr0 2.710970 1_555
O11 P3 1.521019 1_555
O11 Sr1 2.710971 1_555
O12 P4 1.617857 1_555
O12 P0 1.621847 1_565
O13 P5 1.617860 1_555
O13 P1 1.621844 1_555
O14 P7 1.617857 1_555
O14 P2 1.621847 1_545
O15 P6 1.617857 1_555
O15 P3 1.621847 1_555
O16 P3 1.533596 1_555
O16 Sr0 2.777535 1_555
O17 P2 1.533596 1_555
O17 Sr1 2.777535 1_565
O18 P1 1.533596 1_555
O18 Sr0 2.777535 1_555
O19 P0 1.533596 1_555
O19 Sr1 2.777535 1_556
O20 P7 1.535664 1_555
O21 P6 1.535664 1_555
O22 P4 1.533211 1_555
O23 P5 1.535664 1_555
O24 P6 1.533221 1_555
O25 P7 1.533211 1_555
O26 P5 1.533211 1_555
O27 P4 1.535664 1_555
