# generated using pymatgen
data_BaZn(SeO3)4
_symmetry_space_group_name_H-M   'P 1'
_cell_length_a   5.39601620
_cell_length_b   5.39601620
_cell_length_c   7.49528478
_cell_angle_alpha   90.00000000
_cell_angle_beta   90.00000000
_cell_angle_gamma   90.00000000
_symmetry_Int_Tables_number   1
_chemical_formula_structural   BaZn(SeO3)4
_chemical_formula_sum   'Ba1 Zn1 Se4 O12'
_cell_volume   218.24013821
_cell_formula_units_Z   1
loop_
 _symmetry_equiv_pos_site_id
 _symmetry_equiv_pos_as_xyz
  1  'x, y, z'
loop_
 _atom_site_type_symbol
 _atom_site_label
 _atom_site_symmetry_multiplicity
 _atom_site_fract_x
 _atom_site_fract_y
 _atom_site_fract_z
 _atom_site_occupancy
  Ba  Ba0  1  0.50000000  0.50000000  -0.00000000  1
  Zn  Zn0  1  0.00000000  0.00000000  0.50000000  1
  Se  Se0  1  -0.00000000  0.50000000  0.73966032  1
  Se  Se1  1  0.00000000  0.50000000  0.26033968  1
  Se  Se2  1  0.50000000  0.00000000  0.73966032  1
  Se  Se3  1  0.50000000  0.00000000  0.26033968  1
  O  O0  1  0.23913809  0.23913809  0.72456264  1
  O  O1  1  0.23913809  0.23913809  0.27543736  1
  O  O2  1  0.76086191  0.76086191  0.27543736  1
  O  O3  1  0.76086191  0.76086191  0.72456264  1
  O  O4  1  0.76086191  0.23913809  0.27543736  1
  O  O5  1  0.76086191  0.23913809  0.72456264  1
  O  O6  1  0.23913809  0.76086191  0.27543736  1
  O  O7  1  0.23913809  0.76086191  0.72456264  1
  O  O8  1  -0.00000000  0.50000000  0.50000000  1
  O  O9  1  0.00000000  0.50000000  -0.00000000  1
  O  O10  1  0.50000000  0.00000000  0.50000000  1
  O  O11  1  0.50000000  0.00000000  -0.00000000  1
loop_
_geom_bond_atom_site_label_1
_geom_bond_atom_site_label_2
_geom_bond_distance
_geom_bond_site_symmetry_2
Ba0 O11 2.698008 1_555
Ba0 O11 2.698008 1_565
Ba0 O9 2.698008 1_555
Ba0 O9 2.698008 1_655
Ba0 O7 2.867899 1_554
Ba0 O5 2.867899 1_554
Ba0 O3 2.867899 1_554
Ba0 O0 2.867899 1_554
Ba0 O1 2.867899 1_555
Ba0 O4 2.867899 1_555
Ba0 O2 2.867899 1_555
Ba0 O6 2.867899 1_555
O0 Se2 1.912930 1_555
O0 Se0 1.912930 1_555
O0 Zn0 2.482591 1_555
O1 Se3 1.912930 1_555
O1 Se1 1.912930 1_555
O1 Zn0 2.482591 1_555
O2 Se3 1.912930 1_565
O2 Se1 1.912930 1_655
O2 Zn0 2.482591 1_665
O3 Se0 1.912930 1_655
O3 Se2 1.912930 1_565
O3 Zn0 2.482591 1_665
O4 Se1 1.912930 1_655
O4 Se3 1.912930 1_555
O4 Zn0 2.482591 1_655
O5 Se0 1.912930 1_655
O5 Se2 1.912930 1_555
O5 Zn0 2.482591 1_655
O6 Se3 1.912930 1_565
O6 Se1 1.912930 1_555
O6 Zn0 2.482591 1_565
O7 Se2 1.912930 1_565
O7 Se0 1.912930 1_555
O7 Zn0 2.482591 1_565
O8 Se1 1.796322 1_555
O8 Se0 1.796322 1_555
O9 Se0 1.951320 1_554
O9 Se1 1.951320 1_555
O10 Se3 1.796322 1_555
O10 Se2 1.796322 1_555
O11 Se2 1.951320 1_554
O11 Se3 1.951320 1_555
