# generated using pymatgen
data_Na3SO4F
_symmetry_space_group_name_H-M   'P 1'
_cell_length_a   4.94078000
_cell_length_b   4.94078000
_cell_length_c   4.94078000
_cell_angle_alpha   90.00000000
_cell_angle_beta   90.00000000
_cell_angle_gamma   90.00000000
_symmetry_Int_Tables_number   1
_chemical_formula_structural   Na3SO4F
_chemical_formula_sum   'Na3 S1 O4 F1'
_cell_volume   120.61089744
_cell_formula_units_Z   1
loop_
 _symmetry_equiv_pos_site_id
 _symmetry_equiv_pos_as_xyz
  1  'x, y, z'
loop_
 _atom_site_type_symbol
 _atom_site_label
 _atom_site_symmetry_multiplicity
 _atom_site_fract_x
 _atom_site_fract_y
 _atom_site_fract_z
 _atom_site_occupancy
  Na  Na0  1  0.00000000  0.50000000  0.00000000  1
  Na  Na1  1  0.50000000  0.00000000  0.00000000  1
  Na  Na2  1  0.00000000  0.00000000  0.50000000  1
  S  S0  1  0.50000000  0.50000000  0.50000000  1
  O  O0  1  0.32452800  0.32452800  0.32452800  1
  O  O1  1  0.67547200  0.67547200  0.32452800  1
  O  O2  1  0.32452800  0.67547200  0.67547200  1
  O  O3  1  0.67547200  0.32452800  0.67547200  1
  F  F0  1  0.00000000  0.00000000  0.00000000  1
loop_
_geom_bond_atom_site_label_1
_geom_bond_atom_site_label_2
_geom_bond_distance
_geom_bond_site_symmetry_2
Na0 O1 2.427665 1_455
Na0 O2 2.427665 1_554
Na0 O0 2.427665 1_555
Na0 O3 2.427665 1_454
Na1 O3 2.427665 1_554
Na1 O1 2.427665 1_545
Na1 O0 2.427665 1_555
Na1 O2 2.427665 1_544
Na2 O3 2.427665 1_455
Na2 O0 2.427665 1_555
Na2 O1 2.427665 1_445
Na2 O2 2.427665 1_545
O0 S0 1.501634 1_555
O1 S0 1.501634 1_555
O2 S0 1.501634 1_555
O3 S0 1.501634 1_555
F0 Na1 2.470390 1_455
F0 Na0 2.470390 1_555
F0 Na2 2.470390 1_554
F0 Na0 2.470390 1_545
F0 Na1 2.470390 1_555
F0 Na2 2.470390 1_555
