# generated using pymatgen
data_CaCrO2
_symmetry_space_group_name_H-M   'P 1'
_cell_length_a   3.12589500
_cell_length_b   8.84661311
_cell_length_c   9.00537531
_cell_angle_alpha   85.19749254
_cell_angle_beta   80.15505519
_cell_angle_gamma   80.45899753
_symmetry_Int_Tables_number   1
_chemical_formula_structural   CaCrO2
_chemical_formula_sum   'Ca4 Cr4 O8'
_cell_volume   241.57627838
_cell_formula_units_Z   4
loop_
 _symmetry_equiv_pos_site_id
 _symmetry_equiv_pos_as_xyz
  1  'x, y, z'
loop_
 _atom_site_type_symbol
 _atom_site_label
 _atom_site_symmetry_multiplicity
 _atom_site_fract_x
 _atom_site_fract_y
 _atom_site_fract_z
 _atom_site_occupancy
  Ca  Ca0  1  0.89433400  0.26273900  0.92771800  1
  Ca  Ca1  1  0.10566600  0.73726100  0.07228200  1
  Ca  Ca2  1  0.29192700  0.09124500  0.30961300  1
  Ca  Ca3  1  0.70807300  0.90875500  0.69038700  1
  Cr  Cr0  1  0.32357700  0.58026600  0.77330700  1
  Cr  Cr1  1  0.07838700  0.22443900  0.61088500  1
  Cr  Cr2  1  0.92161300  0.77556100  0.38911500  1
  Cr  Cr3  1  0.67642300  0.41973400  0.22669300  1
  O  O0  1  0.09364800  0.55579600  0.26436000  1
  O  O1  1  0.33224200  0.79897800  0.54663000  1
  O  O2  1  0.66775800  0.20102200  0.45337000  1
  O  O3  1  0.90635200  0.44420400  0.73564000  1
  O  O4  1  0.71043800  0.71829600  0.87498100  1
  O  O5  1  0.52681300  0.14875500  0.77124600  1
  O  O6  1  0.28956200  0.28170400  0.12501900  1
  O  O7  1  0.47318700  0.85124500  0.22875400  1
loop_
_geom_bond_atom_site_label_1
_geom_bond_atom_site_label_2
_geom_bond_distance
_geom_bond_site_symmetry_2
Ca0 O3 2.259060 1_555
Ca0 O5 2.344715 1_555
Ca0 O5 2.352760 1_655
Ca0 O6 2.356909 1_556
Ca0 O6 2.362339 1_656
Ca1 O0 2.259060 1_555
Ca1 O7 2.344715 1_555
Ca1 O7 2.352760 1_455
Ca1 O4 2.356909 1_554
Ca1 O4 2.362339 1_454
Ca2 O7 2.253479 1_545
Ca2 O2 2.260110 1_555
Ca2 O6 2.265712 1_555
Ca2 O2 2.268139 1_455
Ca3 O5 2.253479 1_565
Ca3 O1 2.260110 1_555
Ca3 O4 2.265712 1_555
Ca3 O1 2.268139 1_655
Cr0 O3 2.001233 1_455
Cr0 O3 2.003157 1_555
Cr0 O4 2.194099 1_455
Cr0 O4 2.201629 1_555
Cr0 O1 2.692303 1_555
Cr1 O2 2.112481 1_455
Cr1 O2 2.116164 1_555
Cr1 O5 2.172050 1_555
Cr1 O5 2.208128 1_455
Cr1 O3 2.267978 1_455
Cr2 O1 2.112481 1_655
Cr2 O1 2.116164 1_555
Cr2 O7 2.172050 1_555
Cr2 O7 2.208128 1_655
Cr2 O0 2.267978 1_655
Cr3 O0 2.001233 1_655
Cr3 O0 2.003157 1_555
Cr3 O6 2.194099 1_655
Cr3 O6 2.201629 1_555
Cr3 O2 2.692303 1_555
