# generated using pymatgen
data_Pr3Pd4
_symmetry_space_group_name_H-M   'P 1'
_cell_length_a   5.82894820
_cell_length_b   8.20314239
_cell_length_c   8.20408501
_cell_angle_alpha   114.57703457
_cell_angle_beta   103.69873029
_cell_angle_gamma   103.71946743
_symmetry_Int_Tables_number   1
_chemical_formula_structural   Pr3Pd4
_chemical_formula_sum   'Pr6 Pd8'
_cell_volume   320.60969587
_cell_formula_units_Z   2
loop_
 _symmetry_equiv_pos_site_id
 _symmetry_equiv_pos_as_xyz
  1  'x, y, z'
loop_
 _atom_site_type_symbol
 _atom_site_label
 _atom_site_symmetry_multiplicity
 _atom_site_fract_x
 _atom_site_fract_y
 _atom_site_fract_z
 _atom_site_occupancy
  Pr  Pr0  1  0.40542280  0.12385649  0.37603995  1
  Pr  Pr1  1  0.02936845  0.62397364  0.74786063  1
  Pr  Pr2  1  0.28142652  0.25215889  0.87610600  1
  Pr  Pr3  1  0.59457720  0.87614351  0.62396005  1
  Pr  Pr4  1  0.97063155  0.37602636  0.25213937  1
  Pr  Pr5  1  0.71857348  0.74784111  0.12389400  1
  Pd  Pd0  1  0.00000000  -0.00000000  -0.00000000  1
  Pd  Pd1  1  0.50000000  -0.00000000  -0.00000000  1
  Pd  Pd2  1  0.22061545  0.66453999  0.16414853  1
  Pd  Pd3  1  0.05646387  0.83584381  0.50037735  1
  Pd  Pd4  1  0.55611344  0.49965878  0.33550099  1
  Pd  Pd5  1  0.77938455  0.33546001  0.83585147  1
  Pd  Pd6  1  0.94353613  0.16415619  0.49962265  1
  Pd  Pd7  1  0.44388656  0.50034122  0.66449901  1
loop_
_geom_bond_atom_site_label_1
_geom_bond_atom_site_label_2
_geom_bond_distance
_geom_bond_site_symmetry_2
Pd0 Pr2 2.988633 1_554
Pd0 Pr5 2.988633 1_445
Pd0 Pr4 2.988904 1_455
Pd0 Pr1 2.988904 1_544
Pd0 Pr0 2.989189 1_555
Pd0 Pr3 2.989189 1_444
Pd1 Pr1 3.051253 1_544
Pd1 Pr4 3.051253 1_555
Pd1 Pr0 3.052488 1_555
Pd1 Pr3 3.052488 1_544
Pd1 Pr2 3.052975 1_554
Pd1 Pr5 3.052975 1_545
Pd2 Pr4 2.920499 1_455
Pd2 Pd5 2.921310 1_454
Pd2 Pr5 2.949891 1_555
Pd2 Pd3 3.026998 1_555
Pd2 Pd4 3.027239 1_555
Pd2 Pr5 3.133400 1_455
Pd2 Pr1 3.176930 1_554
Pd2 Pr0 3.180936 1_565
Pd2 Pr3 3.295265 1_555
Pd2 Pr2 3.386635 1_554
Pd3 Pr5 2.920595 1_455
Pd3 Pd6 2.922236 1_465
Pd3 Pr3 2.949377 1_555
Pd3 Pd4 3.025628 1_455
Pd3 Pr3 3.134013 1_455
Pd3 Pr2 3.176292 1_565
Pd3 Pr1 3.181989 1_555
Pd3 Pr4 3.295114 1_455
Pd3 Pr0 3.386423 1_565
Pd4 Pr3 2.920507 1_555
Pd4 Pd7 2.922106 1_555
Pd4 Pr4 2.949976 1_555
Pd4 Pr4 3.133520 1_455
Pd4 Pr0 3.176849 1_555
Pd4 Pr2 3.182002 1_554
Pd4 Pr5 3.295382 1_555
Pd4 Pr1 3.386793 1_655
Pd5 Pr1 2.920499 1_655
Pd5 Pr2 2.949891 1_555
Pd5 Pd6 3.026998 1_555
Pd5 Pd7 3.027239 1_555
Pd5 Pr2 3.133400 1_655
Pd5 Pr4 3.176930 1_556
Pd5 Pr3 3.180936 1_545
Pd5 Pr0 3.295265 1_555
Pd5 Pr5 3.386635 1_556
Pd6 Pr2 2.920595 1_655
Pd6 Pr0 2.949377 1_555
Pd6 Pd7 3.025628 1_655
Pd6 Pr0 3.134013 1_655
Pd6 Pr5 3.176292 1_545
Pd6 Pr4 3.181989 1_555
Pd6 Pr1 3.295114 1_655
Pd6 Pr3 3.386423 1_545
Pd7 Pr0 2.920507 1_555
Pd7 Pr1 2.949976 1_555
Pd7 Pr1 3.133520 1_655
Pd7 Pr3 3.176849 1_555
Pd7 Pr5 3.182002 1_556
Pd7 Pr2 3.295382 1_555
Pd7 Pr4 3.386793 1_455
