# generated using pymatgen
data_Ta6Br12ClO15
_symmetry_space_group_name_H-M   'P 1'
_cell_length_a   9.66011100
_cell_length_b   9.88497800
_cell_length_c   20.50357333
_cell_angle_alpha   80.96775499
_cell_angle_beta   79.93090468
_cell_angle_gamma   78.34243737
_symmetry_Int_Tables_number   1
_chemical_formula_structural   Ta6Br12ClO15
_chemical_formula_sum   'Ta12 Br24 Cl2 O30'
_cell_volume   1872.87899913
_cell_formula_units_Z   2
loop_
 _symmetry_equiv_pos_site_id
 _symmetry_equiv_pos_as_xyz
  1  'x, y, z'
loop_
 _atom_site_type_symbol
 _atom_site_label
 _atom_site_symmetry_multiplicity
 _atom_site_fract_x
 _atom_site_fract_y
 _atom_site_fract_z
 _atom_site_occupancy
  Ta  Ta0  1  0.27437000  0.87815900  0.59865700  1
  Ta  Ta1  1  0.72563000  0.12184100  0.40134300  1
  Ta  Ta2  1  0.33059300  0.77230200  0.99767500  1
  Ta  Ta3  1  0.66940700  0.22769800  0.00232500  1
  Ta  Ta4  1  0.68918500  0.92228700  0.87296200  1
  Ta  Ta5  1  0.31081500  0.07771300  0.12703800  1
  Ta  Ta6  1  0.67825800  0.71161000  0.48757300  1
  Ta  Ta7  1  0.32174200  0.28839000  0.51242700  1
  Ta  Ta8  1  0.65482500  0.01920200  0.61203400  1
  Ta  Ta9  1  0.34517500  0.98079800  0.38796600  1
  Ta  Ta10  1  0.29783400  0.19944700  0.91936000  1
  Ta  Ta11  1  0.70216600  0.80055300  0.08064000  1
  Br  Br0  1  0.45419300  0.64987500  0.57217100  1
  Br  Br1  1  0.54580700  0.35012500  0.42782900  1
  Br  Br2  1  0.78584600  0.77210900  0.58559400  1
  Br  Br3  1  0.21415400  0.22789100  0.41440600  1
  Br  Br4  1  0.44380800  0.90330400  0.68205200  1
  Br  Br5  1  0.55619200  0.09669600  0.31794800  1
  Br  Br6  1  0.52604600  0.74025300  0.38830300  1
  Br  Br7  1  0.47395400  0.25974700  0.61169700  1
  Br  Br8  1  0.84340500  0.86068700  0.40280000  1
  Br  Br9  1  0.15659500  0.13931300  0.59720000  1
  Br  Br10  1  0.82007400  0.13415800  0.51246900  1
  Br  Br11  1  0.17992600  0.86584200  0.48753100  1
  Br  Br12  1  0.51325800  0.74399500  0.88673800  1
  Br  Br13  1  0.48674200  0.25600500  0.11326200  1
  Br  Br14  1  0.49064200  0.11181800  0.82028500  1
  Br  Br15  1  0.50935800  0.88818200  0.17971500  1
  Br  Br16  1  0.18060900  0.97852400  0.92805900  1
  Br  Br17  1  0.81939100  0.02147600  0.07194100  1
  Br  Br18  1  0.19858400  0.86723200  0.10914500  1
  Br  Br19  1  0.80141600  0.13276800  0.89085500  1
  Br  Br20  1  0.53186100  0.63047500  0.06722400  1
  Br  Br21  1  0.46813900  0.36952500  0.93277600  1
  Br  Br22  1  0.16665300  0.23766600  0.03899700  1
  Br  Br23  1  0.83334700  0.76233400  0.96100300  1
  Cl  Cl0  1  0.09061600  0.45796900  0.67258800  1
  Cl  Cl1  1  0.90938400  0.54203100  0.32741200  1
  O  O0  1  0.14257500  0.81013000  0.65320300  1
  O  O1  1  0.85742500  0.18987000  0.34679700  1
  O  O2  1  0.76613500  0.54307700  0.48584700  1
  O  O3  1  0.23386500  0.45692300  0.51415300  1
  O  O4  1  0.74203800  0.04005500  0.67494000  1
  O  O5  1  0.25796200  0.95994500  0.32506000  1
  O  O6  1  0.23289600  0.64666400  0.99408700  1
  O  O7  1  0.76710400  0.35333600  0.00591300  1
  O  O8  1  0.79542800  0.87015700  0.80192200  1
  O  O9  1  0.20457200  0.12984300  0.19807800  1
  O  O10  1  0.17971300  0.31072600  0.87347700  1
  O  O11  1  0.82028700  0.68927400  0.12652300  1
  O  O12  1  0.86382300  0.53633000  0.81105000  1
  O  O13  1  0.13617700  0.46367000  0.18895000  1
  O  O14  1  0.80269000  0.35919600  0.17309000  1
  O  O15  1  0.19731000  0.64080400  0.82691000  1
  O  O16  1  0.69859500  0.44760800  0.71855000  1
  O  O17  1  0.30140500  0.55239200  0.28145000  1
  O  O18  1  0.08575700  0.98194700  0.77563800  1
  O  O19  1  0.91424300  0.01805300  0.22436200  1
  O  O20  1  0.28733100  0.56832500  0.79051200  1
  O  O21  1  0.71266900  0.43167500  0.20948800  1
  O  O22  1  0.20581100  0.64363800  0.31428700  1
  O  O23  1  0.79418900  0.35636200  0.68571300  1
  O  O24  1  0.92223900  0.88941700  0.23292500  1
  O  O25  1  0.07776100  0.11058300  0.76707500  1
  O  O26  1  0.87948700  0.40716200  0.63510100  1
  O  O27  1  0.12051300  0.59283800  0.36489900  1
  O  O28  1  0.10128700  0.50146100  0.13286400  1
  O  O29  1  0.89871300  0.49853900  0.86713600  1
loop_
_geom_bond_atom_site_label_1
_geom_bond_atom_site_label_2
_geom_bond_distance
_geom_bond_site_symmetry_2
Br0 Ta0 2.622097 1_555
Br0 Ta6 2.637188 1_555
Br1 Ta1 2.622097 1_555
Br1 Ta7 2.637188 1_555
Br2 Ta8 2.605414 1_565
Br2 Ta6 2.614570 1_555
Br3 Ta9 2.605414 1_545
Br3 Ta7 2.614570 1_555
Br4 Ta8 2.633031 1_565
Br4 Ta0 2.634597 1_555
Br5 Ta9 2.633031 1_545
Br5 Ta1 2.634597 1_555
Br6 Ta9 2.650818 1_555
Br6 Ta6 2.661263 1_555
Br7 Ta8 2.650818 1_555
Br7 Ta7 2.661263 1_555
Br8 Ta1 2.600038 1_565
Br8 Ta6 2.629460 1_555
Br9 Ta0 2.600038 1_545
Br9 Ta7 2.629460 1_555
Br10 Ta8 2.621484 1_555
Br10 Ta1 2.626315 1_555
Br11 Ta9 2.621484 1_555
Br11 Ta0 2.626315 1_555
Br12 Ta4 2.638250 1_555
Br12 Ta2 2.638682 1_555
Br13 Ta5 2.638250 1_555
Br13 Ta3 2.638682 1_555
Br14 Ta10 2.631243 1_555
Br14 Ta4 2.644234 1_545
Br15 Ta11 2.631243 1_555
Br15 Ta5 2.644234 1_565
Br16 Ta10 2.624821 1_565
Br16 Ta2 2.628319 1_555
Br17 Ta11 2.624821 1_545
Br17 Ta3 2.628319 1_555
Br18 Ta2 2.626990 1_554
Br18 Ta5 2.632344 1_565
Br19 Ta3 2.626990 1_556
Br19 Ta4 2.632344 1_545
Br20 Ta2 2.649410 1_554
Br20 Ta11 2.651402 1_555
Br21 Ta3 2.649410 1_556
Br21 Ta10 2.651402 1_555
Br22 Ta10 2.603128 1_554
Br22 Ta5 2.605952 1_555
Br23 Ta11 2.603128 1_556
Br23 Ta4 2.605952 1_555
O0 Ta0 1.713443 1_555
O1 Ta1 1.713443 1_555
O2 Ta6 1.712818 1_555
O3 Ta7 1.712818 1_555
O4 Ta8 1.717405 1_555
O5 Ta9 1.717405 1_555
O6 Ta2 1.721953 1_555
O7 Ta3 1.721953 1_555
O8 Ta4 1.714552 1_555
O9 Ta5 1.714552 1_555
O10 Ta10 1.714715 1_555
O11 Ta11 1.714715 1_555
O12 O29 1.235041 1_555
O13 O28 1.235041 1_555
O14 O21 1.231115 1_555
O15 O20 1.231115 1_555
O16 O23 1.325241 1_555
O17 O22 1.325241 1_555
O18 O25 1.244436 1_565
O19 O24 1.244436 1_545
O22 O27 1.308663 1_555
O23 O26 1.308663 1_555
