# generated using pymatgen
data_YbGdZn2
_symmetry_space_group_name_H-M   'P 1'
_cell_length_a   4.96654159
_cell_length_b   4.99960790
_cell_length_c   4.89626137
_cell_angle_alpha   61.11891611
_cell_angle_beta   59.98364924
_cell_angle_gamma   59.04984117
_symmetry_Int_Tables_number   1
_chemical_formula_structural   YbGdZn2
_chemical_formula_sum   'Yb1 Gd1 Zn2'
_cell_volume   86.01120445
_cell_formula_units_Z   1
loop_
 _symmetry_equiv_pos_site_id
 _symmetry_equiv_pos_as_xyz
  1  'x, y, z'
loop_
 _atom_site_type_symbol
 _atom_site_label
 _atom_site_symmetry_multiplicity
 _atom_site_fract_x
 _atom_site_fract_y
 _atom_site_fract_z
 _atom_site_occupancy
  Yb  Yb0  1  0.75001200  0.74999900  0.74999400  1
  Gd  Gd0  1  0.24997400  0.25000900  0.25000700  1
  Zn  Zn0  1  0.99980300  0.00010700  0.00030000  1
  Zn  Zn1  1  0.50021200  0.49988700  0.49970100  1
loop_
_geom_bond_atom_site_label_1
_geom_bond_atom_site_label_2
_geom_bond_distance
_geom_bond_site_symmetry_2
Yb0 Zn1 3.011234 1_655
Yb0 Zn0 3.011270 1_466
Yb0 Zn0 3.030242 1_565
Yb0 Zn1 3.030295 1_556
Yb0 Zn0 3.033461 1_566
Yb0 Zn1 3.033463 1_555
Yb0 Zn1 3.065239 1_565
Yb0 Zn0 3.065257 1_556
Gd0 Zn1 3.009513 1_455
Gd0 Zn0 3.009782 1_555
Gd0 Zn0 3.031804 1_455
Gd0 Zn1 3.031929 1_555
Gd0 Zn0 3.032600 1_456
Gd0 Zn1 3.032652 1_554
Gd0 Zn0 3.066025 1_465
Gd0 Zn1 3.066115 1_545
