# generated using pymatgen
data_Li6V3P8O29
_symmetry_space_group_name_H-M   'P 1'
_cell_length_a   9.84008600
_cell_length_b   9.84540825
_cell_length_c   13.93896730
_cell_angle_alpha   90.03261291
_cell_angle_beta   90.09501779
_cell_angle_gamma   119.96105195
_symmetry_Int_Tables_number   1
_chemical_formula_structural   Li6V3P8O29
_chemical_formula_sum   'Li12 V6 P16 O58'
_cell_volume   1169.93842346
_cell_formula_units_Z   2
loop_
 _symmetry_equiv_pos_site_id
 _symmetry_equiv_pos_as_xyz
  1  'x, y, z'
loop_
 _atom_site_type_symbol
 _atom_site_label
 _atom_site_symmetry_multiplicity
 _atom_site_fract_x
 _atom_site_fract_y
 _atom_site_fract_z
 _atom_site_occupancy
  Li  Li0  1  0.77339000  0.09348500  0.06559000  1
  Li  Li1  1  0.91340800  0.22859400  0.55698900  1
  Li  Li2  1  0.31983600  0.09358800  0.55510800  1
  Li  Li3  1  0.66641300  0.33291700  0.88474700  1
  Li  Li4  1  0.31943800  0.22644200  0.06635400  1
  Li  Li5  1  0.90574600  0.67972500  0.06548500  1
  Li  Li6  1  0.77156400  0.67813800  0.55728900  1
  Li  Li7  1  0.09383700  0.31893200  0.94333800  1
  Li  Li8  1  0.67775900  0.77293100  0.94244200  1
  Li  Li9  1  0.67813500  0.90588500  0.43650600  1
  Li  Li10  1  0.09685500  0.77352200  0.43707800  1
  Li  Li11  1  0.22590900  0.90561400  0.94221300  1
  V  V0  1  0.43053000  0.43557400  0.25448700  1
  V  V1  1  0.56395400  0.56617000  0.74672900  1
  V  V2  1  0.00277100  0.43587800  0.74940100  1
  V  V3  1  0.00003000  0.56579000  0.25144200  1
  V  V4  1  0.56635300  0.99998800  0.25082600  1
  V  V5  1  0.43323200  0.99926100  0.74987600  1
  P  P0  1  0.77119500  0.08960900  0.84275900  1
  P  P1  1  0.91223400  0.23120200  0.34208700  1
  P  P2  1  0.31911000  0.08905500  0.34086200  1
  P  P3  1  0.66516500  0.33399200  0.12614700  1
  P  P4  1  0.66811000  0.33330900  0.62735100  1
  P  P5  1  0.31952300  0.23049800  0.84350800  1
  P  P6  1  0.22900000  0.31320900  0.65682500  1
  P  P7  1  0.90921100  0.68043500  0.84123800  1
  P  P8  1  0.08781500  0.31936500  0.15813600  1
  P  P9  1  0.76885900  0.68033500  0.34116800  1
  P  P10  1  0.67922700  0.76726300  0.15868600  1
  P  P11  1  0.33498000  0.66887200  0.37298300  1
  P  P12  1  0.33374200  0.66813500  0.87324100  1
  P  P13  1  0.68069600  0.91315700  0.65806600  1
  P  P14  1  0.08773200  0.76881300  0.65722400  1
  P  P15  1  0.23117700  0.90997400  0.15839600  1
  O  O0  1  0.75877200  0.00197900  0.56856600  1
  O  O1  1  0.74622500  0.08347600  0.33881400  1
  O  O2  1  0.99739100  0.23855400  0.06820200  1
  O  O3  1  0.92022500  0.25240200  0.84348800  1
  O  O4  1  0.62713400  0.11230400  0.82575700  1
  O  O5  1  0.67276300  0.18743900  0.16333300  1
  O  O6  1  0.47812000  0.09432200  0.32270500  1
  O  O7  1  0.23723800  0.99759800  0.06828500  1
  O  O8  1  0.33344500  0.08061300  0.84244900  1
  O  O9  1  0.81748800  0.33190200  0.67117000  1
  O  O10  1  0.90141700  0.38165800  0.32182100  1
  O  O11  1  0.51710100  0.18425300  0.66933000  1
  O  O12  1  0.66379300  0.33331900  0.01729900  1
  O  O13  1  0.67018500  0.33096100  0.52091200  1
  O  O14  1  0.51275000  0.32925700  0.16504200  1
  O  O15  1  0.88772600  0.51440700  0.82635600  1
  O  O16  1  0.81242400  0.48755800  0.16337800  1
  O  O17  1  0.34194500  0.25276700  0.33922400  1
  O  O18  1  0.20976500  0.21397200  0.75420500  1
  O  O19  1  0.24136200  0.23004500  0.57213100  1
  O  O20  1  0.24377200  0.24345900  0.93377100  1
  O  O21  1  0.48549900  0.37294800  0.82540100  1
  O  O22  1  0.67242700  0.48579600  0.66691400  1
  O  O23  1  0.25028700  0.33294800  0.15878100  1
  O  O24  1  0.62295400  0.51955100  0.32458500  1
  O  O25  1  0.91896900  0.66683600  0.34135200  1
  O  O26  1  0.99837400  0.21000300  0.24982100  1
  O  O27  1  0.99410400  0.24073600  0.43318200  1
  O  O28  1  0.99726300  0.75717400  0.56785100  1
  O  O29  1  0.08555600  0.33595500  0.65820700  1
  O  O30  1  0.38251000  0.47429400  0.67639100  1
  O  O31  1  0.74351400  0.66413200  0.84008200  1
  O  O32  1  0.33305100  0.51998600  0.32714100  1
  O  O33  1  0.52178500  0.61833500  0.17261000  1
  O  O34  1  0.76126300  0.76220400  0.06845800  1
  O  O35  1  0.75797300  0.75932000  0.43113900  1
  O  O36  1  0.79100900  0.79110100  0.24989800  1
  O  O37  1  0.66566600  0.74885400  0.65947000  1
  O  O38  1  0.18232000  0.51693100  0.83065700  1
  O  O39  1  0.09854700  0.47807700  0.17465900  1
  O  O40  1  0.48322500  0.67100800  0.83273700  1
  O  O41  1  0.32816700  0.66555200  0.97975900  1
  O  O42  1  0.33752900  0.67073100  0.47969800  1
  O  O43  1  0.48928800  0.81522500  0.33287700  1
  O  O44  1  0.09975200  0.62077900  0.67425000  1
  O  O45  1  0.18637300  0.67335000  0.33352600  1
  O  O46  1  0.66230700  0.91599900  0.16023700  1
  O  O47  1  0.78943600  0.00086300  0.75064300  1
  O  O48  1  0.75502700  0.99745400  0.93198200  1
  O  O49  1  0.52111200  0.90225200  0.67531100  1
  O  O50  1  0.32995700  0.81755300  0.83221500  1
  O  O51  1  0.37823100  0.89832700  0.17433700  1
  O  O52  1  0.08189400  0.74503100  0.16030100  1
  O  O53  1  0.99852600  0.75771000  0.93123200  1
  O  O54  1  0.99769800  0.78756400  0.75005000  1
  O  O55  1  0.25017800  0.91806600  0.65938700  1
  O  O56  1  0.24316100  0.99711900  0.43030800  1
  O  O57  1  0.20912500  0.99812700  0.24948100  1
loop_
_geom_bond_atom_site_label_1
_geom_bond_atom_site_label_2
_geom_bond_distance
_geom_bond_site_symmetry_2
Li0 O2 1.937764 1_555
Li0 O46 2.021977 1_545
Li0 O48 2.054549 1_544
Li0 O5 2.147145 1_555
Li1 O27 1.879619 1_555
Li1 O0 1.982315 1_555
Li1 O29 2.044326 1_655
Li1 O9 2.328193 1_555
Li2 O19 1.869211 1_555
Li2 O56 1.943063 1_545
Li2 O55 2.095698 1_545
Li2 O11 2.314532 1_555
Li3 O12 1.847890 1_556
Li3 O4 2.168314 1_555
Li3 O21 2.169113 1_555
Li3 O15 2.172244 1_555
Li4 O7 1.977662 1_545
Li4 O23 1.984043 1_555
Li4 O20 2.029332 1_554
Li4 O14 2.145189 1_555
Li5 O34 1.958500 1_555
Li5 O52 2.010668 1_655
Li5 O53 2.057210 1_554
Li5 O16 2.134592 1_555
Li6 O28 1.957604 1_555
Li6 O35 1.963741 1_555
Li6 O37 2.080302 1_555
Li6 O22 2.244044 1_555
Li7 O2 1.952709 1_456
Li7 O20 1.960152 1_555
Li7 O3 2.039129 1_455
Li7 O38 2.310382 1_555
Li8 O48 1.951347 1_555
Li8 O34 1.963118 1_556
Li8 O31 2.072532 1_555
Li8 O40 2.253784 1_555
Li9 O35 1.958923 1_555
Li9 O0 2.038753 1_565
Li9 O1 2.048400 1_565
Li9 O43 2.160861 1_555
Li10 O56 1.939808 1_555
Li10 O25 2.025310 1_455
Li10 O28 2.039057 1_455
Li10 O45 2.168483 1_555
Li11 O7 1.953823 1_556
Li11 O53 1.973434 1_455
Li11 O8 2.051491 1_565
Li11 O50 2.245246 1_555
O0 P13 1.498229 1_545
O1 P1 1.553223 1_555
O1 V4 1.962422 1_545
O2 P8 1.511380 1_655
O3 P0 1.540059 1_555
O3 V2 2.045360 1_655
O4 P0 1.559141 1_555
O4 V5 1.966939 1_545
O5 P3 1.569910 1_555
O5 V4 2.016519 1_545
O6 P2 1.560522 1_555
O6 V4 1.851345 1_545
O7 P15 1.508496 1_555
O8 P5 1.548714 1_555
O8 V5 2.014765 1_545
O9 P4 1.597251 1_555
O9 V2 1.920688 1_655
O10 P1 1.563087 1_555
O10 V3 1.854334 1_655
O11 P4 1.590537 1_555
O11 V5 1.939817 1_545
O12 P3 1.517248 1_555
O13 P4 1.484150 1_555
O14 P3 1.574271 1_555
O14 V0 2.037739 1_555
O15 P7 1.553700 1_555
O15 V2 1.976672 1_655
O16 P3 1.569491 1_555
O16 V3 2.019701 1_655
O17 P2 1.512369 1_555
O17 V0 1.957823 1_555
O18 P5 1.600697 1_555
O18 P6 1.628046 1_555
O19 P6 1.475721 1_555
O20 P5 1.500944 1_555
O21 P5 1.553050 1_555
O21 V1 1.988909 1_555
O22 P4 1.579586 1_555
O22 V1 1.962093 1_555
O23 P8 1.536337 1_555
O23 V0 2.036402 1_555
O24 P9 1.532643 1_555
O24 V0 1.911231 1_555
O25 P9 1.547756 1_555
O25 V3 1.997769 1_655
O26 P1 1.611234 1_555
O26 P8 1.620481 1_655
O27 P1 1.480227 1_555
O28 P14 1.500610 1_655
O29 P6 1.535795 1_555
O29 V2 2.012389 1_555
O30 P6 1.573748 1_555
O30 V1 1.829561 1_555
O31 P7 1.556591 1_555
O31 V1 2.008524 1_555
O32 P11 1.590116 1_555
O32 V0 1.853332 1_555
O33 P10 1.523201 1_555
O33 V0 1.933501 1_555
O34 P10 1.509751 1_555
O35 P9 1.507153 1_555
O36 P10 1.618207 1_555
O36 P9 1.618759 1_555
O37 P13 1.549216 1_555
O37 V1 1.981052 1_555
O38 P12 1.602850 1_555
O38 V2 1.904009 1_555
O39 P8 1.529887 1_555
O39 V3 1.915613 1_555
O40 P12 1.563455 1_555
O40 V1 1.988571 1_555
O41 P12 1.485618 1_555
O42 P11 1.487615 1_555
O43 P11 1.585154 1_555
O43 V4 1.954367 1_555
O44 P14 1.538496 1_555
O44 V2 1.895324 1_555
O45 P11 1.582569 1_555
O45 V3 1.960848 1_555
O46 P10 1.554366 1_555
O46 V4 1.988049 1_555
O47 P0 1.612586 1_555
O47 P13 1.620816 1_545
O48 P0 1.501002 1_565
O49 P13 1.538863 1_555
O49 V5 1.888663 1_555
O50 P12 1.596278 1_555
O50 V5 1.934113 1_555
O51 P15 1.523515 1_555
O51 V4 1.925321 1_555
O52 P15 1.553446 1_555
O52 V3 1.990751 1_555
O53 P7 1.500736 1_555
O54 P7 1.604407 1_555
O54 P14 1.630963 1_655
O55 P14 1.539160 1_555
O55 V5 2.006893 1_555
O56 P2 1.503663 1_565
O57 P15 1.612473 1_555
O57 P2 1.619128 1_565
