# generated using pymatgen
data_CsZn4As3
_symmetry_space_group_name_H-M   'P 1'
_cell_length_a   4.17486765
_cell_length_b   4.17486765
_cell_length_c   10.67217238
_cell_angle_alpha   90.00000000
_cell_angle_beta   90.00000000
_cell_angle_gamma   90.00000000
_symmetry_Int_Tables_number   1
_chemical_formula_structural   CsZn4As3
_chemical_formula_sum   'Cs1 Zn4 As3'
_cell_volume   186.01084082
_cell_formula_units_Z   1
loop_
 _symmetry_equiv_pos_site_id
 _symmetry_equiv_pos_as_xyz
  1  'x, y, z'
loop_
 _atom_site_type_symbol
 _atom_site_label
 _atom_site_symmetry_multiplicity
 _atom_site_fract_x
 _atom_site_fract_y
 _atom_site_fract_z
 _atom_site_occupancy
  Cs  Cs0  1  0.00000000  -0.00000000  0.50000000  1
  Zn  Zn0  1  0.50000000  0.00000000  0.84622462  1
  Zn  Zn1  1  0.00000000  0.50000000  0.84622462  1
  Zn  Zn2  1  0.50000000  0.00000000  0.15377538  1
  Zn  Zn3  1  -0.00000000  0.50000000  0.15377538  1
  As  As0  1  0.50000000  0.50000000  0.71892504  1
  As  As1  1  0.50000000  0.50000000  0.28107496  1
  As  As2  1  0.00000000  -0.00000000  0.00000000  1
loop_
_geom_bond_atom_site_label_1
_geom_bond_atom_site_label_2
_geom_bond_distance
_geom_bond_site_symmetry_2
As0 Zn1 2.490597 1_655
As0 Zn0 2.490597 1_555
As0 Zn1 2.490597 1_555
As0 Zn0 2.490597 1_565
As0 Cs0 3.764778 1_565
As0 Cs0 3.764778 1_555
As0 Cs0 3.764778 1_655
As0 Cs0 3.764778 1_665
As1 Zn3 2.490597 1_555
As1 Zn2 2.490597 1_565
As1 Zn3 2.490597 1_655
As1 Zn2 2.490597 1_555
As1 Cs0 3.764778 1_565
As1 Cs0 3.764778 1_555
As1 Cs0 3.764778 1_655
As1 Cs0 3.764778 1_665
As2 Zn3 2.655305 1_545
As2 Zn1 2.655305 1_544
As2 Zn2 2.655305 1_455
As2 Zn1 2.655305 1_554
As2 Zn0 2.655305 1_554
As2 Zn2 2.655305 1_555
As2 Zn0 2.655305 1_454
As2 Zn3 2.655305 1_555
