# generated using pymatgen
data_PuPt3
_symmetry_space_group_name_H-M   'P 1'
_cell_length_a   5.45700700
_cell_length_b   7.84770676
_cell_length_c   7.84770676
_cell_angle_alpha   83.05696465
_cell_angle_beta   69.65442509
_cell_angle_gamma   69.65442509
_symmetry_Int_Tables_number   1
_chemical_formula_structural   PuPt3
_chemical_formula_sum   'Pu4 Pt12'
_cell_volume   295.45203333
_cell_formula_units_Z   4
loop_
 _symmetry_equiv_pos_site_id
 _symmetry_equiv_pos_as_xyz
  1  'x, y, z'
loop_
 _atom_site_type_symbol
 _atom_site_label
 _atom_site_symmetry_multiplicity
 _atom_site_fract_x
 _atom_site_fract_y
 _atom_site_fract_z
 _atom_site_occupancy
  Pu  Pu0  1  0.62104700  0.25253900  0.74550800  1
  Pu  Pu1  1  0.61909400  0.74746100  0.25449200  1
  Pu  Pu2  1  0.12641400  0.25449200  0.25253900  1
  Pu  Pu3  1  0.63344600  0.74550800  0.74746100  1
  Pt  Pt0  1  0.67049000  0.15009300  0.10093900  1
  Pt  Pt1  1  0.92152300  0.84990700  0.89906100  1
  Pt  Pt2  1  0.17941600  0.89906100  0.15009300  1
  Pt  Pt3  1  0.22857100  0.10093900  0.84990700  1
  Pt  Pt4  1  0.06960000  0.36081900  0.61706400  1
  Pt  Pt5  1  0.04748400  0.63918100  0.38293600  1
  Pt  Pt6  1  0.56958000  0.38293600  0.36081900  1
  Pt  Pt7  1  0.31333500  0.61706400  0.63918100  1
  Pt  Pt8  1  0.84321800  0.45895500  0.99348700  1
  Pt  Pt9  1  0.29566000  0.54104500  0.00651300  1
  Pt  Pt10  1  0.69782700  0.00651300  0.45895500  1
  Pt  Pt11  1  0.16329500  0.99348700  0.54104500  1
loop_
_geom_bond_atom_site_label_1
_geom_bond_atom_site_label_2
_geom_bond_distance
_geom_bond_site_symmetry_2
Pt0 Pu2 2.643810 1_555
Pt0 Pt6 2.687370 1_555
Pt0 Pu0 2.886136 1_554
Pt0 Pu1 3.312914 1_545
Pt0 Pu2 3.462374 1_655
Pt1 Pu3 2.643810 1_555
Pt1 Pt7 2.687368 1_655
Pt1 Pu1 2.886137 1_556
Pt1 Pu0 3.312916 1_565
Pt1 Pu3 3.462375 1_655
Pt2 Pu1 2.643815 1_555
Pt2 Pt5 2.687368 1_555
Pt2 Pu2 2.886137 1_565
Pt2 Pu3 3.312917 1_554
Pt2 Pu1 3.462369 1_455
Pt3 Pu0 2.643810 1_555
Pt3 Pt4 2.687371 1_555
Pt3 Pu3 2.886137 1_545
Pt3 Pu2 3.312914 1_556
Pt3 Pu0 3.462374 1_455
Pt4 Pt5 2.676383 1_555
Pt4 Pu0 2.693179 1_455
Pt4 Pt7 2.819191 1_555
Pt4 Pt6 2.819191 1_555
Pt4 Pt8 2.862960 1_455
Pt4 Pu2 2.959119 1_555
Pt4 Pu3 3.143692 1_455
Pt4 Pu0 3.304202 1_555
Pt5 Pu1 2.693184 1_455
Pt5 Pt7 2.819187 1_555
Pt5 Pt6 2.819187 1_555
Pt5 Pt9 2.862959 1_555
Pt5 Pu3 2.959119 1_455
Pt5 Pu2 3.143696 1_555
Pt5 Pu1 3.304197 1_555
Pt6 Pt7 2.676383 1_555
Pt6 Pu2 2.693184 1_655
Pt6 Pt8 2.847128 1_554
Pt6 Pu1 2.959121 1_555
Pt6 Pu0 3.143696 1_555
Pt6 Pu2 3.304196 1_555
Pt7 Pu3 2.693189 1_555
Pt7 Pt9 2.847128 1_556
Pt7 Pu0 2.959121 1_555
Pt7 Pu1 3.143696 1_555
Pt7 Pu3 3.304192 1_455
Pt8 Pu1 2.875970 1_556
Pt8 Pu2 2.961007 1_656
Pt8 Pu3 2.965185 1_555
Pt8 Pu0 3.413142 1_555
Pt9 Pu0 2.875970 1_554
Pt9 Pu3 2.961010 1_554
Pt9 Pu2 2.965187 1_555
Pt9 Pu1 3.413142 1_455
Pt10 Pt5 2.847128 1_645
Pt10 Pt6 2.862959 1_555
Pt10 Pu3 2.875969 1_545
Pt10 Pu1 2.961007 1_545
Pt10 Pu0 2.965187 1_555
Pt10 Pu2 3.413142 1_655
Pt11 Pt4 2.847126 1_565
Pt11 Pt7 2.862959 1_555
Pt11 Pu2 2.875970 1_565
Pt11 Pu0 2.961007 1_465
Pt11 Pu1 2.965187 1_555
Pt11 Pu3 3.413146 1_555
