# generated using pymatgen
data_Y2(InSn)3
_symmetry_space_group_name_H-M   'P 1'
_cell_length_a   4.69256700
_cell_length_b   4.69948300
_cell_length_c   9.37640300
_cell_angle_alpha   90.00000000
_cell_angle_beta   90.00000000
_cell_angle_gamma   90.00000000
_symmetry_Int_Tables_number   1
_chemical_formula_structural   Y2(InSn)3
_chemical_formula_sum   'Y2 In3 Sn3'
_cell_volume   206.77442900
_cell_formula_units_Z   1
loop_
 _symmetry_equiv_pos_site_id
 _symmetry_equiv_pos_as_xyz
  1  'x, y, z'
loop_
 _atom_site_type_symbol
 _atom_site_label
 _atom_site_symmetry_multiplicity
 _atom_site_fract_x
 _atom_site_fract_y
 _atom_site_fract_z
 _atom_site_occupancy
  Y  Y0  1  0.00000000  0.00000000  0.24797100  1
  Y  Y1  1  0.00000000  0.00000000  0.75202900  1
  In  In0  1  0.50000000  0.50000000  0.25095800  1
  In  In1  1  0.50000000  0.50000000  0.74904200  1
  In  In2  1  0.00000000  0.50000000  0.50000000  1
  Sn  Sn0  1  0.00000000  0.50000000  0.00000000  1
  Sn  Sn1  1  0.50000000  0.00000000  0.50000000  1
  Sn  Sn2  1  0.50000000  0.00000000  0.00000000  1
loop_
_geom_bond_atom_site_label_1
_geom_bond_atom_site_label_2
_geom_bond_distance
_geom_bond_site_symmetry_2
In0 In2 3.310260 1_655
In0 In2 3.310260 1_555
In0 Sn1 3.312712 1_555
In0 Sn1 3.312712 1_565
In0 Y0 3.320710 1_665
In0 Y0 3.320710 1_655
In0 Y0 3.320710 1_555
In0 Y0 3.320710 1_565
In0 Sn0 3.322958 1_555
In0 Sn0 3.322958 1_655
In0 Sn2 3.325400 1_565
In0 Sn2 3.325400 1_555
In1 In2 3.310260 1_655
In1 In2 3.310260 1_555
In1 Sn1 3.312712 1_565
In1 Sn1 3.312712 1_555
In1 Y1 3.320710 1_565
In1 Y1 3.320710 1_665
In1 Y1 3.320710 1_555
In1 Y1 3.320710 1_655
In1 Sn0 3.322958 1_556
In1 Sn0 3.322958 1_656
In1 Sn2 3.325400 1_566
In1 Sn2 3.325400 1_556
In2 Sn1 3.320592 1_465
In2 Sn1 3.320592 1_555
In2 Sn1 3.320592 1_565
In2 Sn1 3.320592 1_455
In2 Y1 3.332514 1_555
In2 Y0 3.332514 1_555
In2 Y0 3.332514 1_565
In2 Y1 3.332514 1_565
Sn0 Y1 3.305641 1_554
Sn0 Y1 3.305641 1_564
Sn0 Y0 3.305641 1_555
Sn0 Y0 3.305641 1_565
Sn0 Sn2 3.320592 1_455
Sn0 Sn2 3.320592 1_565
Sn0 Sn2 3.320592 1_555
Sn0 Sn2 3.320592 1_465
Sn1 Y1 3.330076 1_555
Sn1 Y1 3.330076 1_655
Sn1 Y0 3.330076 1_555
Sn1 Y0 3.330076 1_655
Sn2 Y0 3.303184 1_555
Sn2 Y0 3.303184 1_655
Sn2 Y1 3.303184 1_654
Sn2 Y1 3.303184 1_554
