# generated using pymatgen
data_CrXeF10
_symmetry_space_group_name_H-M   'P 1'
_cell_length_a   8.66961870
_cell_length_b   19.05261321
_cell_length_c   18.99853929
_cell_angle_alpha   90.00000000
_cell_angle_beta   90.00000000
_cell_angle_gamma   90.00000000
_symmetry_Int_Tables_number   1
_chemical_formula_structural   CrXeF10
_chemical_formula_sum   'Cr16 Xe16 F160'
_cell_volume   3138.15766516
_cell_formula_units_Z   16
loop_
 _symmetry_equiv_pos_site_id
 _symmetry_equiv_pos_as_xyz
  1  'x, y, z'
loop_
 _atom_site_type_symbol
 _atom_site_label
 _atom_site_symmetry_multiplicity
 _atom_site_fract_x
 _atom_site_fract_y
 _atom_site_fract_z
 _atom_site_occupancy
  Cr  Cr0  1  0.05020546  0.16509317  0.16716768  1
  Cr  Cr1  1  0.44979454  0.66509317  0.83283232  1
  Cr  Cr2  1  0.55020546  0.83490683  0.33283232  1
  Cr  Cr3  1  0.94979454  0.33490683  0.66716768  1
  Cr  Cr4  1  0.94979454  0.83490683  0.83283232  1
  Cr  Cr5  1  0.55020546  0.33490683  0.16716768  1
  Cr  Cr6  1  0.44979454  0.16509317  0.66716768  1
  Cr  Cr7  1  0.05020546  0.66509317  0.33283232  1
  Cr  Cr8  1  0.17797405  0.32827374  0.06990026  1
  Cr  Cr9  1  0.32202595  0.82827374  0.93009974  1
  Cr  Cr10  1  0.67797405  0.67172626  0.43009974  1
  Cr  Cr11  1  0.82202595  0.17172626  0.56990026  1
  Cr  Cr12  1  0.82202595  0.67172626  0.93009974  1
  Cr  Cr13  1  0.67797405  0.17172626  0.06990026  1
  Cr  Cr14  1  0.32202595  0.32827374  0.56990026  1
  Cr  Cr15  1  0.17797405  0.82827374  0.43009974  1
  Xe  Xe0  1  0.73194467  0.10043091  0.27401488  1
  Xe  Xe1  1  0.76805533  0.60043091  0.72598512  1
  Xe  Xe2  1  0.23194467  0.89956909  0.22598512  1
  Xe  Xe3  1  0.26805533  0.39956909  0.77401488  1
  Xe  Xe4  1  0.26805533  0.89956909  0.72598512  1
  Xe  Xe5  1  0.23194467  0.39956909  0.27401488  1
  Xe  Xe6  1  0.76805533  0.10043091  0.77401488  1
  Xe  Xe7  1  0.73194467  0.60043091  0.22598512  1
  Xe  Xe8  1  0.74938807  0.37669351  0.96742661  1
  Xe  Xe9  1  0.75061193  0.87669351  0.03257339  1
  Xe  Xe10  1  0.24938807  0.62330649  0.53257339  1
  Xe  Xe11  1  0.25061193  0.12330649  0.46742661  1
  Xe  Xe12  1  0.25061193  0.62330649  0.03257339  1
  Xe  Xe13  1  0.24938807  0.12330649  0.96742661  1
  Xe  Xe14  1  0.75061193  0.37669351  0.46742661  1
  Xe  Xe15  1  0.74938807  0.87669351  0.53257339  1
  F  F0  1  0.65016653  0.05753115  0.36138628  1
  F  F1  1  0.84983347  0.55753115  0.63861372  1
  F  F2  1  0.15016653  0.94246885  0.13861372  1
  F  F3  1  0.34983347  0.44246885  0.86138628  1
  F  F4  1  0.34983347  0.94246885  0.63861372  1
  F  F5  1  0.15016653  0.44246885  0.36138628  1
  F  F6  1  0.84983347  0.05753115  0.86138628  1
  F  F7  1  0.65016653  0.55753115  0.13861372  1
  F  F8  1  0.70131671  0.18752871  0.33059123  1
  F  F9  1  0.79868329  0.68752871  0.66940877  1
  F  F10  1  0.20131671  0.81247129  0.16940877  1
  F  F11  1  0.29868329  0.31247129  0.83059123  1
  F  F12  1  0.29868329  0.81247129  0.66940877  1
  F  F13  1  0.20131671  0.31247129  0.33059123  1
  F  F14  1  0.79868329  0.18752871  0.83059123  1
  F  F15  1  0.70131671  0.68752871  0.16940877  1
  F  F16  1  0.50545132  0.10695552  0.25697615  1
  F  F17  1  0.99454868  0.60695552  0.74302385  1
  F  F18  1  0.00545132  0.89304448  0.24302385  1
  F  F19  1  0.49454868  0.39304448  0.75697615  1
  F  F20  1  0.49454868  0.89304448  0.74302385  1
  F  F21  1  0.00545132  0.39304448  0.25697615  1
  F  F22  1  0.99454868  0.10695552  0.75697615  1
  F  F23  1  0.50545132  0.60695552  0.24302385  1
  F  F24  1  0.72611363  0.00039610  0.24539472  1
  F  F25  1  0.77388637  0.50039610  0.75460528  1
  F  F26  1  0.22611363  0.99960390  0.25460528  1
  F  F27  1  0.27388637  0.49960390  0.74539472  1
  F  F28  1  0.27388637  0.99960390  0.75460528  1
  F  F29  1  0.22611363  0.49960390  0.24539472  1
  F  F30  1  0.77388637  0.00039610  0.74539472  1
  F  F31  1  0.72611363  0.50039610  0.25460528  1
  F  F32  1  0.92358425  0.08502820  0.32887221  1
  F  F33  1  0.57641575  0.58502820  0.67112779  1
  F  F34  1  0.42358425  0.91497180  0.17112779  1
  F  F35  1  0.07641575  0.41497180  0.82887221  1
  F  F36  1  0.07641575  0.91497180  0.67112779  1
  F  F37  1  0.42358425  0.41497180  0.32887221  1
  F  F38  1  0.57641575  0.08502820  0.82887221  1
  F  F39  1  0.92358425  0.58502820  0.17112779  1
  F  F40  1  0.73845796  0.42786496  0.87726987  1
  F  F41  1  0.76154204  0.92786496  0.12273013  1
  F  F42  1  0.23845796  0.57213504  0.62273013  1
  F  F43  1  0.26154204  0.07213504  0.37726987  1
  F  F44  1  0.26154204  0.57213504  0.12273013  1
  F  F45  1  0.23845796  0.07213504  0.87726987  1
  F  F46  1  0.76154204  0.42786496  0.37726987  1
  F  F47  1  0.73845796  0.92786496  0.62273013  1
  F  F48  1  0.59203060  0.44864691  0.99020885  1
  F  F49  1  0.90796940  0.94864691  0.00979115  1
  F  F50  1  0.09203060  0.55135309  0.50979115  1
  F  F51  1  0.40796940  0.05135309  0.49020885  1
  F  F52  1  0.40796940  0.55135309  0.00979115  1
  F  F53  1  0.09203060  0.05135309  0.99020885  1
  F  F54  1  0.90796940  0.44864691  0.49020885  1
  F  F55  1  0.59203060  0.94864691  0.50979115  1
  F  F56  1  0.90210511  0.45236316  0.98314677  1
  F  F57  1  0.59789489  0.95236316  0.01685323  1
  F  F58  1  0.40210511  0.54763684  0.51685323  1
  F  F59  1  0.09789489  0.04763684  0.48314677  1
  F  F60  1  0.09789489  0.54763684  0.01685323  1
  F  F61  1  0.40210511  0.04763684  0.98314677  1
  F  F62  1  0.59789489  0.45236316  0.48314677  1
  F  F63  1  0.90210511  0.95236316  0.51685323  1
  F  F64  1  0.89190165  0.31957217  0.90924461  1
  F  F65  1  0.60809835  0.81957217  0.09075539  1
  F  F66  1  0.39190165  0.68042783  0.59075539  1
  F  F67  1  0.10809835  0.18042783  0.40924461  1
  F  F68  1  0.10809835  0.68042783  0.09075539  1
  F  F69  1  0.39190165  0.18042783  0.90924461  1
  F  F70  1  0.60809835  0.31957217  0.40924461  1
  F  F71  1  0.89190165  0.81957217  0.59075539  1
  F  F72  1  0.57622815  0.32652489  0.92109351  1
  F  F73  1  0.92377185  0.82652489  0.07890649  1
  F  F74  1  0.07622815  0.67347511  0.57890649  1
  F  F75  1  0.42377185  0.17347511  0.42109351  1
  F  F76  1  0.42377185  0.67347511  0.07890649  1
  F  F77  1  0.07622815  0.17347511  0.92109351  1
  F  F78  1  0.92377185  0.32652489  0.42109351  1
  F  F79  1  0.57622815  0.82652489  0.57890649  1
  F  F80  1  0.19247374  0.15603206  0.23226484  1
  F  F81  1  0.30752626  0.65603206  0.76773516  1
  F  F82  1  0.69247374  0.84396794  0.26773516  1
  F  F83  1  0.80752626  0.34396794  0.73226484  1
  F  F84  1  0.80752626  0.84396794  0.76773516  1
  F  F85  1  0.69247374  0.34396794  0.23226484  1
  F  F86  1  0.30752626  0.15603206  0.73226484  1
  F  F87  1  0.19247374  0.65603206  0.26773516  1
  F  F88  1  0.95591123  0.07921174  0.19020302  1
  F  F89  1  0.54408877  0.57921174  0.80979698  1
  F  F90  1  0.45591123  0.92078826  0.30979698  1
  F  F91  1  0.04408877  0.42078826  0.69020302  1
  F  F92  1  0.04408877  0.92078826  0.80979698  1
  F  F93  1  0.45591123  0.42078826  0.19020302  1
  F  F94  1  0.54408877  0.07921174  0.69020302  1
  F  F95  1  0.95591123  0.57921174  0.30979698  1
  F  F96  1  0.90716414  0.20227745  0.22830913  1
  F  F97  1  0.59283586  0.70227745  0.77169087  1
  F  F98  1  0.40716414  0.79772255  0.27169087  1
  F  F99  1  0.09283586  0.29772255  0.72830913  1
  F  F100  1  0.09283586  0.79772255  0.77169087  1
  F  F101  1  0.40716414  0.29772255  0.22830913  1
  F  F102  1  0.59283586  0.20227745  0.72830913  1
  F  F103  1  0.90716414  0.70227745  0.27169087  1
  F  F104  1  0.13100433  0.25890946  0.14455210  1
  F  F105  1  0.36899567  0.75890946  0.85544790  1
  F  F106  1  0.63100433  0.74109054  0.35544790  1
  F  F107  1  0.86899567  0.24109054  0.64455210  1
  F  F108  1  0.86899567  0.74109054  0.85544790  1
  F  F109  1  0.63100433  0.24109054  0.14455210  1
  F  F110  1  0.36899567  0.25890946  0.64455210  1
  F  F111  1  0.13100433  0.75890946  0.35544790  1
  F  F112  1  0.17061509  0.12498368  0.09748556  1
  F  F113  1  0.32938491  0.62498368  0.90251444  1
  F  F114  1  0.67061509  0.87501632  0.40251444  1
  F  F115  1  0.82938491  0.37501632  0.59748556  1
  F  F116  1  0.82938491  0.87501632  0.90251444  1
  F  F117  1  0.67061509  0.37501632  0.09748556  1
  F  F118  1  0.32938491  0.12498368  0.59748556  1
  F  F119  1  0.17061509  0.62498368  0.40251444  1
  F  F120  1  0.22715604  0.39116569  0.00599329  1
  F  F121  1  0.27284396  0.89116569  0.99400671  1
  F  F122  1  0.72715604  0.60883431  0.49400671  1
  F  F123  1  0.77284396  0.10883431  0.50599329  1
  F  F124  1  0.77284396  0.60883431  0.99400671  1
  F  F125  1  0.72715604  0.10883431  0.00599329  1
  F  F126  1  0.27284396  0.39116569  0.50599329  1
  F  F127  1  0.22715604  0.89116569  0.49400671  1
  F  F128  1  0.96731260  0.33447382  0.04848831  1
  F  F129  1  0.53268740  0.83447382  0.95151169  1
  F  F130  1  0.46731260  0.66552618  0.45151169  1
  F  F131  1  0.03268740  0.16552618  0.54848831  1
  F  F132  1  0.03268740  0.66552618  0.95151169  1
  F  F133  1  0.46731260  0.16552618  0.04848831  1
  F  F134  1  0.53268740  0.33447382  0.54848831  1
  F  F135  1  0.96731260  0.83447382  0.45151169  1
  F  F136  1  0.20463282  0.25206910  0.01300718  1
  F  F137  1  0.29536718  0.75206910  0.98699282  1
  F  F138  1  0.70463282  0.74793090  0.48699282  1
  F  F139  1  0.79536718  0.24793090  0.51300718  1
  F  F140  1  0.79536718  0.74793090  0.98699282  1
  F  F141  1  0.70463282  0.24793090  0.01300718  1
  F  F142  1  0.29536718  0.25206910  0.51300718  1
  F  F143  1  0.20463282  0.75206910  0.48699282  1
  F  F144  1  0.39847430  0.32006451  0.09407375  1
  F  F145  1  0.10152570  0.82006451  0.90592625  1
  F  F146  1  0.89847430  0.67993549  0.40592625  1
  F  F147  1  0.60152570  0.17993549  0.59407375  1
  F  F148  1  0.60152570  0.67993549  0.90592625  1
  F  F149  1  0.89847430  0.17993549  0.09407375  1
  F  F150  1  0.10152570  0.32006451  0.59407375  1
  F  F151  1  0.39847430  0.82006451  0.40592625  1
  F  F152  1  0.15972725  0.39215821  0.14232137  1
  F  F153  1  0.34027275  0.89215821  0.85767863  1
  F  F154  1  0.65972725  0.60784179  0.35767863  1
  F  F155  1  0.84027275  0.10784179  0.64232137  1
  F  F156  1  0.84027275  0.60784179  0.85767863  1
  F  F157  1  0.65972725  0.10784179  0.14232137  1
  F  F158  1  0.34027275  0.39215821  0.64232137  1
  F  F159  1  0.15972725  0.89215821  0.35767863  1
loop_
_geom_bond_atom_site_label_1
_geom_bond_atom_site_label_2
_geom_bond_distance
_geom_bond_site_symmetry_2
Cr0 F80 1.755181 1_555
Cr0 F96 1.840952 1_455
Cr0 F112 1.851034 1_555
Cr0 F88 1.880742 1_455
Cr0 F149 1.933599 1_455
Cr0 F104 1.967299 1_555
Cr1 F81 1.755181 1_555
Cr1 F97 1.840952 1_555
Cr1 F113 1.851034 1_555
Cr1 F89 1.880742 1_555
Cr1 F148 1.933599 1_555
Cr1 F105 1.967299 1_555
Cr2 F82 1.755181 1_555
Cr2 F98 1.840952 1_555
Cr2 F114 1.851034 1_555
Cr2 F90 1.880742 1_555
Cr2 F151 1.933599 1_555
Cr2 F106 1.967299 1_555
Cr3 F83 1.755181 1_555
Cr3 F99 1.840952 1_655
Cr3 F115 1.851034 1_555
Cr3 F91 1.880742 1_655
Cr3 F150 1.933599 1_655
Cr3 F107 1.967299 1_555
Cr4 F84 1.755181 1_555
Cr4 F100 1.840952 1_655
Cr4 F116 1.851034 1_555
Cr4 F92 1.880742 1_655
Cr4 F145 1.933599 1_655
Cr4 F108 1.967299 1_555
Cr5 F85 1.755181 1_555
Cr5 F101 1.840952 1_555
Cr5 F117 1.851034 1_555
Cr5 F93 1.880742 1_555
Cr5 F144 1.933599 1_555
Cr5 F109 1.967299 1_555
Cr6 F86 1.755181 1_555
Cr6 F102 1.840952 1_555
Cr6 F118 1.851034 1_555
Cr6 F94 1.880742 1_555
Cr6 F147 1.933599 1_555
Cr6 F110 1.967299 1_555
Cr7 F87 1.755181 1_555
Cr7 F103 1.840952 1_455
Cr7 F119 1.851034 1_555
Cr7 F95 1.880742 1_455
Cr7 F146 1.933599 1_455
Cr7 F111 1.967299 1_555
Cr8 F120 1.758340 1_555
Cr8 F136 1.824757 1_555
Cr8 F152 1.843802 1_555
Cr8 F128 1.874835 1_455
Cr8 F144 1.972258 1_555
Cr8 F104 1.980877 1_555
Cr9 F121 1.758340 1_555
Cr9 F137 1.824757 1_555
Cr9 F153 1.843802 1_555
Cr9 F129 1.874835 1_555
Cr9 F145 1.972258 1_555
Cr9 F105 1.980877 1_555
Cr10 F122 1.758340 1_555
Cr10 F138 1.824757 1_555
Cr10 F154 1.843802 1_555
Cr10 F130 1.874835 1_555
Cr10 F146 1.972258 1_555
Cr10 F106 1.980877 1_555
Cr11 F123 1.758340 1_555
Cr11 F139 1.824757 1_555
Cr11 F155 1.843802 1_555
Cr11 F131 1.874835 1_655
Cr11 F147 1.972258 1_555
Cr11 F107 1.980877 1_555
Cr12 F124 1.758340 1_555
Cr12 F140 1.824757 1_555
Cr12 F156 1.843802 1_555
Cr12 F132 1.874835 1_655
Cr12 F148 1.972258 1_555
Cr12 F108 1.980877 1_555
Cr13 F125 1.758340 1_555
Cr13 F141 1.824757 1_555
Cr13 F157 1.843802 1_555
Cr13 F133 1.874835 1_555
Cr13 F149 1.972258 1_555
Cr13 F109 1.980877 1_555
Cr14 F126 1.758340 1_555
Cr14 F142 1.824757 1_555
Cr14 F158 1.843802 1_555
Cr14 F134 1.874835 1_555
Cr14 F150 1.972258 1_555
Cr14 F110 1.980877 1_555
Cr15 F127 1.758340 1_555
Cr15 F143 1.824757 1_555
Cr15 F159 1.843802 1_555
Cr15 F135 1.874835 1_455
Cr15 F151 1.972258 1_555
Cr15 F111 1.980877 1_555
F0 Xe0 1.981436 1_555
F1 Xe1 1.981436 1_555
F2 Xe2 1.981436 1_555
F3 Xe3 1.981436 1_555
F4 Xe4 1.981436 1_555
F5 Xe5 1.981436 1_555
F6 Xe6 1.981436 1_555
F7 Xe7 1.981436 1_555
F8 Xe0 1.994892 1_555
F9 Xe1 1.994892 1_555
F10 Xe2 1.994892 1_555
F11 Xe3 1.994892 1_555
F12 Xe4 1.994892 1_555
F13 Xe5 1.994892 1_555
F14 Xe6 1.994892 1_555
F15 Xe7 1.994892 1_555
F16 Xe0 1.993994 1_555
F17 Xe1 1.993994 1_555
F18 Xe2 1.993994 1_555
F19 Xe3 1.993994 1_555
F20 Xe4 1.993994 1_555
F21 Xe5 1.993994 1_555
F22 Xe6 1.993994 1_555
F23 Xe7 1.993994 1_555
F24 Xe0 1.982614 1_555
F25 Xe1 1.982614 1_555
F26 Xe2 1.982614 1_555
F27 Xe3 1.982614 1_555
F28 Xe4 1.982614 1_555
F29 Xe5 1.982614 1_555
F30 Xe6 1.982614 1_555
F31 Xe7 1.982614 1_555
F32 Xe0 1.983106 1_555
F33 Xe1 1.983106 1_555
F34 Xe2 1.983106 1_555
F35 Xe3 1.983106 1_555
F36 Xe4 1.983106 1_555
F37 Xe5 1.983106 1_555
F38 Xe6 1.983106 1_555
F39 Xe7 1.983106 1_555
F40 Xe8 1.973157 1_555
F41 Xe9 1.973157 1_555
F42 Xe10 1.973157 1_555
F43 Xe11 1.973157 1_555
F44 Xe12 1.973157 1_555
F45 Xe13 1.973157 1_555
F46 Xe14 1.973157 1_555
F47 Xe15 1.973157 1_555
F48 Xe8 1.981875 1_555
F49 Xe9 1.981875 1_555
F50 Xe10 1.981875 1_555
F51 Xe11 1.981875 1_555
F52 Xe12 1.981875 1_555
F53 Xe13 1.981875 1_555
F54 Xe14 1.981875 1_555
F55 Xe15 1.981875 1_555
F56 Xe8 1.980071 1_555
F57 Xe9 1.980071 1_555
F58 Xe10 1.980071 1_555
F59 Xe11 1.980071 1_555
F60 Xe12 1.980071 1_555
F61 Xe13 1.980071 1_555
F62 Xe14 1.980071 1_555
F63 Xe15 1.980071 1_555
F64 Xe8 1.983135 1_555
F65 Xe9 1.983135 1_555
F66 Xe10 1.983135 1_555
F67 Xe11 1.983135 1_555
F68 Xe12 1.983135 1_555
F69 Xe13 1.983135 1_555
F70 Xe14 1.983135 1_555
F71 Xe15 1.983135 1_555
F72 Xe8 1.985495 1_555
F73 Xe9 1.985495 1_555
F74 Xe10 1.985495 1_555
F75 Xe11 1.985495 1_555
F76 Xe12 1.985495 1_555
F77 Xe13 1.985495 1_555
F78 Xe14 1.985495 1_555
F79 Xe15 1.985495 1_555
