# generated using pymatgen
data_Zn(NiO2)2
_symmetry_space_group_name_H-M   'P 1'
_cell_length_a   5.88516352
_cell_length_b   5.88187845
_cell_length_c   17.57691382
_cell_angle_alpha   59.90601108
_cell_angle_beta   60.52383363
_cell_angle_gamma   60.00482207
_symmetry_Int_Tables_number   1
_chemical_formula_structural   Zn(NiO2)2
_chemical_formula_sum   'Zn6 Ni12 O24'
_cell_volume   431.61457410
_cell_formula_units_Z   6
loop_
 _symmetry_equiv_pos_site_id
 _symmetry_equiv_pos_as_xyz
  1  'x, y, z'
loop_
 _atom_site_type_symbol
 _atom_site_label
 _atom_site_symmetry_multiplicity
 _atom_site_fract_x
 _atom_site_fract_y
 _atom_site_fract_z
 _atom_site_occupancy
  Zn  Zn0  1  0.13957000  0.11829600  0.04129000  1
  Zn  Zn1  1  0.50049800  0.50202600  0.33185100  1
  Zn  Zn2  1  0.99973800  0.50016400  0.16654800  1
  Zn  Zn3  1  0.49938900  0.49809100  0.66807700  1
  Zn  Zn4  1  0.99986200  0.50017700  0.49993600  1
  Zn  Zn5  1  0.99919200  0.49994300  0.83367400  1
  Ni  Ni0  1  0.50269600  0.00414700  0.16492600  1
  Ni  Ni1  1  0.12913400  0.11926400  0.37743600  1
  Ni  Ni2  1  0.49918100  0.49959400  0.00058000  1
  Ni  Ni3  1  0.50276600  0.49828800  0.16489800  1
  Ni  Ni4  1  0.49987100  0.99987000  0.50006700  1
  Ni  Ni5  1  0.13101900  0.12042100  0.70926400  1
  Ni  Ni6  1  0.49989200  0.50004800  0.50005900  1
  Ni  Ni7  1  0.49788600  0.99609500  0.83481100  1
  Ni  Ni8  1  0.86994600  0.88045400  0.28971200  1
  Ni  Ni9  1  0.49781600  0.50175500  0.83484700  1
  Ni  Ni10  1  0.86992300  0.87978900  0.62350900  1
  Ni  Ni11  1  0.86231200  0.88143900  0.95815300  1
  O  O0  1  0.28193300  0.25665400  0.08497900  1
  O  O1  1  0.28189600  0.24739000  0.24106000  1
  O  O2  1  0.28215400  0.70603400  0.08478700  1
  O  O3  1  0.73003100  0.25432400  0.08713400  1
  O  O4  1  0.26779000  0.24653900  0.42313300  1
  O  O5  1  0.26362200  0.75847600  0.23964200  1
  O  O6  1  0.27083100  0.24502600  0.57971800  1
  O  O7  1  0.73081400  0.27990100  0.24325100  1
  O  O8  1  0.26764300  0.71632200  0.42307100  1
  O  O9  1  0.71799200  0.75062700  0.09363500  1
  O  O10  1  0.72382600  0.24771200  0.42689000  1
  O  O11  1  0.73093400  0.75961500  0.24316900  1
  O  O12  1  0.26814300  0.24096300  0.75531400  1
  O  O13  1  0.27616500  0.75245900  0.57295700  1
  O  O14  1  0.73216100  0.28316000  0.57704000  1
  O  O15  1  0.26808100  0.72487500  0.75523200  1
  O  O16  1  0.28059900  0.25376700  0.90397400  1
  O  O17  1  0.72742000  0.75491400  0.42091300  1
  O  O18  1  0.74673600  0.24164400  0.75662900  1
  O  O19  1  0.73202900  0.75373600  0.57700600  1
  O  O20  1  0.26967400  0.74214400  0.91577900  1
  O  O21  1  0.71556400  0.28891100  0.91726500  1
  O  O22  1  0.71798200  0.75009900  0.76069700  1
  O  O23  1  0.71528700  0.74484300  0.91709000  1
loop_
_geom_bond_atom_site_label_1
_geom_bond_atom_site_label_2
_geom_bond_distance
_geom_bond_site_symmetry_2
Ni0 O0 1.908634 1_555
Ni0 O11 1.914924 1_545
Ni0 O9 1.954854 1_545
Ni0 O1 1.968797 1_555
Ni0 O3 1.993817 1_555
Ni0 O5 2.025749 1_545
Ni1 O4 1.931392 1_555
Ni1 O8 1.931414 1_545
Ni1 O10 1.957624 1_455
Ni1 O1 1.966503 1_555
Ni2 O2 1.920332 1_555
Ni2 O21 1.925780 1_554
Ni2 O0 1.926537 1_555
Ni2 O23 1.930451 1_554
Ni2 O20 2.000871 1_554
Ni2 O3 2.028522 1_555
Ni3 O2 1.910230 1_555
Ni3 O7 1.915500 1_555
Ni3 O9 1.957090 1_555
Ni3 O1 1.970757 1_555
Ni3 O3 1.991268 1_555
Ni3 O5 2.022859 1_555
Ni4 O4 1.915175 1_565
Ni4 O19 1.915399 1_555
Ni4 O13 1.969361 1_555
Ni4 O10 1.972063 1_565
Ni4 O17 2.013065 1_555
Ni4 O6 2.019958 1_565
Ni5 O18 1.856409 1_455
Ni5 O6 1.866695 1_555
Ni5 O15 1.896361 1_545
Ni5 O12 1.897243 1_555
Ni6 O14 1.916356 1_555
Ni6 O8 1.916525 1_555
Ni6 O13 1.967869 1_555
Ni6 O10 1.970843 1_555
Ni6 O17 2.014457 1_555
Ni6 O6 2.021337 1_555
Ni7 O23 1.923433 1_555
Ni7 O12 1.936221 1_565
Ni7 O16 1.946829 1_565
Ni7 O22 1.955537 1_555
Ni7 O20 2.013295 1_555
Ni7 O18 2.064737 1_565
Ni8 O17 1.890745 1_555
Ni8 O5 1.903062 1_655
Ni8 O11 1.914915 1_555
Ni8 O7 1.915175 1_565
Ni9 O21 1.926712 1_555
Ni9 O15 1.937709 1_555
Ni9 O16 1.948485 1_555
Ni9 O22 1.957686 1_555
Ni9 O20 2.016144 1_555
Ni9 O18 2.064776 1_555
Ni10 O19 1.933533 1_555
Ni10 O14 1.933546 1_565
Ni10 O13 1.962854 1_655
Ni10 O22 1.977736 1_555
Ni11 O23 1.950992 1_555
Ni11 O9 1.951848 1_556
Ni11 O21 1.954594 1_565
Ni11 O20 1.965780 1_655
O0 Zn0 1.973713 1_555
O0 Zn2 2.050100 1_455
O1 Zn2 2.098150 1_455
O2 Zn0 1.976455 1_565
O2 Zn2 2.051961 1_455
O3 Zn0 1.976279 1_655
O4 Zn4 2.026619 1_455
O4 Zn1 2.045842 1_555
O5 Zn1 2.124820 1_555
O6 Zn4 2.111678 1_455
O7 Zn1 2.040067 1_555
O7 Zn2 2.049285 1_555
O8 Zn4 2.027457 1_455
O8 Zn1 2.043237 1_555
O9 Zn2 2.077895 1_555
O10 Zn1 2.108226 1_555
O11 Zn1 2.042083 1_555
O11 Zn2 2.048361 1_555
O12 Zn3 2.041888 1_555
O12 Zn5 2.066542 1_455
O13 Zn3 2.108881 1_555
O14 Zn4 2.030468 1_555
O14 Zn3 2.043315 1_555
O15 Zn3 2.039756 1_555
O15 Zn5 2.066968 1_455
O16 Zn0 1.977467 1_556
O16 Zn5 2.046506 1_455
O17 Zn4 2.108944 1_555
O18 Zn3 2.120553 1_555
O19 Zn4 2.029322 1_555
O19 Zn3 2.045893 1_555
O21 Zn5 2.077217 1_555
O22 Zn5 2.076274 1_555
O23 Zn5 2.077756 1_555
