# generated using pymatgen
data_Li2AlCoO4
_symmetry_space_group_name_H-M   'P 1'
_cell_length_a   5.09026227
_cell_length_b   5.09026227
_cell_length_c   5.01467819
_cell_angle_alpha   80.76281713
_cell_angle_beta   80.76281713
_cell_angle_gamma   32.79774569
_symmetry_Int_Tables_number   1
_chemical_formula_structural   Li2AlCoO4
_chemical_formula_sum   'Li2 Al1 Co1 O4'
_cell_volume   69.38980430
_cell_formula_units_Z   1
loop_
 _symmetry_equiv_pos_site_id
 _symmetry_equiv_pos_as_xyz
  1  'x, y, z'
loop_
 _atom_site_type_symbol
 _atom_site_label
 _atom_site_symmetry_multiplicity
 _atom_site_fract_x
 _atom_site_fract_y
 _atom_site_fract_z
 _atom_site_occupancy
  Li  Li0  1  0.74726700  0.74726700  0.25014000  1
  Li  Li1  1  0.25273300  0.25273300  0.74986000  1
  Al  Al0  1  0.50000000  0.50000000  0.00000000  1
  Co  Co0  1  0.00000000  0.00000000  0.50000000  1
  O  O0  1  0.61190800  0.61190800  0.63915200  1
  O  O1  1  0.10962000  0.10962000  0.11738700  1
  O  O2  1  0.38809200  0.38809200  0.36084800  1
  O  O3  1  0.89038000  0.89038000  0.88261300  1
loop_
_geom_bond_atom_site_label_1
_geom_bond_atom_site_label_2
_geom_bond_distance
_geom_bond_site_symmetry_2
Li0 O3 2.118545 1_554
Li0 O2 2.126162 1_655
Li0 O2 2.126162 1_565
Li0 O1 2.148276 1_565
Li0 O1 2.148276 1_655
Li0 O0 2.165656 1_555
Li1 O1 2.118545 1_556
Li1 O0 2.126162 1_455
Li1 O0 2.126162 1_545
Li1 O3 2.148276 1_545
Li1 O3 2.148276 1_455
Li1 O2 2.165656 1_555
Al0 O1 1.941348 1_565
Al0 O1 1.941348 1_655
Al0 O3 1.941348 1_454
Al0 O3 1.941348 1_544
Al0 O2 1.951173 1_555
Al0 O0 1.951173 1_554
Co0 O0 2.000477 1_545
Co0 O0 2.000477 1_455
Co0 O2 2.000477 1_545
Co0 O2 2.000477 1_455
Co0 O3 2.034717 1_445
Co0 O1 2.034717 1_555
