# generated using pymatgen
data_TbNiGe3
_symmetry_space_group_name_H-M   'P 1'
_cell_length_a   10.94590200
_cell_length_b   10.94590200
_cell_length_c   4.08739182
_cell_angle_alpha   90.00000000
_cell_angle_beta   90.00000000
_cell_angle_gamma   158.58098947
_symmetry_Int_Tables_number   1
_chemical_formula_structural   TbNiGe3
_chemical_formula_sum   'Tb2 Ni2 Ge6'
_cell_volume   178.83936850
_cell_formula_units_Z   2
loop_
 _symmetry_equiv_pos_site_id
 _symmetry_equiv_pos_as_xyz
  1  'x, y, z'
loop_
 _atom_site_type_symbol
 _atom_site_label
 _atom_site_symmetry_multiplicity
 _atom_site_fract_x
 _atom_site_fract_y
 _atom_site_fract_z
 _atom_site_occupancy
  Tb  Tb0  1  0.16854961  0.83145039  0.50000000  1
  Tb  Tb1  1  0.83145039  0.16854961  0.50000000  1
  Ni  Ni0  1  0.38982572  0.61017428  0.00000000  1
  Ni  Ni1  1  0.61017428  0.38982572  0.00000000  1
  Ge  Ge0  1  0.28373891  0.71626109  0.00000000  1
  Ge  Ge1  1  0.71626109  0.28373891  0.00000000  1
  Ge  Ge2  1  0.44269397  0.55730603  0.50000000  1
  Ge  Ge3  1  0.55730603  0.44269397  0.50000000  1
  Ge  Ge4  1  0.05738561  0.94261439  -0.00000000  1
  Ge  Ge5  1  0.94261439  0.05738561  -0.00000000  1
loop_
_geom_bond_atom_site_label_1
_geom_bond_atom_site_label_2
_geom_bond_distance
_geom_bond_site_symmetry_2
Ni0 Tb1 3.144977 1_565
Ni0 Tb1 3.144977 1_564
Ni0 Tb1 3.144977 1_455
Ni0 Tb1 3.144977 1_454
Ni1 Tb0 3.144977 1_655
Ni1 Tb0 3.144977 1_654
Ni1 Tb0 3.144977 1_545
Ni1 Tb0 3.144977 1_544
Ge0 Ni0 2.281979 1_555
Ge0 Ge1 2.498850 1_455
Ge0 Ge1 2.498850 1_565
Ge0 Tb1 3.060626 1_455
Ge0 Tb1 3.060626 1_454
Ge0 Tb1 3.060626 1_565
Ge0 Tb1 3.060626 1_564
Ge0 Tb0 3.211865 1_555
Ge0 Tb0 3.211865 1_554
Ge1 Ni1 2.281979 1_555
Ge1 Tb0 3.060626 1_545
Ge1 Tb0 3.060626 1_544
Ge1 Tb0 3.060626 1_655
Ge1 Tb0 3.060626 1_654
Ge1 Tb1 3.211865 1_555
Ge1 Tb1 3.211865 1_554
Ge2 Ni0 2.338796 1_555
Ge2 Ni0 2.338796 1_556
Ge2 Ge3 2.465362 1_555
Ge2 Ge5 2.883427 1_565
Ge2 Ge5 2.883427 1_455
Ge2 Ge5 2.883427 1_566
Ge2 Ge5 2.883427 1_456
Ge2 Tb1 3.140612 1_565
Ge2 Tb1 3.140612 1_455
Ge3 Ni1 2.338796 1_556
Ge3 Ni1 2.338796 1_555
Ge3 Ge4 2.883427 1_545
Ge3 Ge4 2.883427 1_546
Ge3 Ge4 2.883427 1_655
Ge3 Ge4 2.883427 1_656
Ge3 Tb0 3.140612 1_655
Ge3 Tb0 3.140612 1_545
Ge4 Ni1 2.329557 1_455
Ge4 Ni1 2.329557 1_565
Ge4 Ge5 2.468785 1_465
Ge4 Tb0 3.145551 1_555
Ge4 Tb0 3.145551 1_554
Ge5 Ni0 2.329557 1_545
Ge5 Ni0 2.329557 1_655
Ge5 Tb1 3.145551 1_554
Ge5 Tb1 3.145551 1_555
