# generated using pymatgen
data_Pr2ZnAs4
_symmetry_space_group_name_H-M   'P 1'
_cell_length_a   3.99058300
_cell_length_b   3.99058300
_cell_length_c   10.36544400
_cell_angle_alpha   90.00000000
_cell_angle_beta   90.00000000
_cell_angle_gamma   90.00000000
_symmetry_Int_Tables_number   1
_chemical_formula_structural   Pr2ZnAs4
_chemical_formula_sum   'Pr2 Zn1 As4'
_cell_volume   165.06713212
_cell_formula_units_Z   1
loop_
 _symmetry_equiv_pos_site_id
 _symmetry_equiv_pos_as_xyz
  1  'x, y, z'
loop_
 _atom_site_type_symbol
 _atom_site_label
 _atom_site_symmetry_multiplicity
 _atom_site_fract_x
 _atom_site_fract_y
 _atom_site_fract_z
 _atom_site_occupancy
  Pr  Pr0  1  0.50000000  0.00000000  0.74109200  1
  Pr  Pr1  1  0.00000000  0.50000000  0.25890800  1
  Zn  Zn0  1  0.50000000  0.50000000  0.00000000  1
  As  As0  1  0.50000000  0.00000000  0.14999400  1
  As  As1  1  0.00000000  0.50000000  0.85000600  1
  As  As2  1  0.50000000  0.50000000  0.50000000  1
  As  As3  1  0.00000000  0.00000000  0.50000000  1
loop_
_geom_bond_atom_site_label_1
_geom_bond_atom_site_label_2
_geom_bond_distance
_geom_bond_site_symmetry_2
Pr0 Zn0 3.344161 1_546
Pr0 Zn0 3.344161 1_556
Pr1 Zn0 3.344161 1_455
Pr1 Zn0 3.344161 1_555
As0 Zn0 2.529516 1_555
As0 Zn0 2.529516 1_545
As0 Pr1 3.039225 1_645
As0 Pr1 3.039225 1_655
As0 Pr1 3.039225 1_545
As0 Pr1 3.039225 1_555
As1 Zn0 2.529516 1_556
As1 Zn0 2.529516 1_456
As1 Pr0 3.039225 1_565
As1 Pr0 3.039225 1_555
As1 Pr0 3.039225 1_465
As1 Pr0 3.039225 1_455
As2 As3 2.821768 1_555
As2 As3 2.821768 1_565
As2 As3 2.821768 1_655
As2 As3 2.821768 1_665
As2 Pr0 3.197861 1_555
As2 Pr0 3.197861 1_565
As2 Pr1 3.197861 1_555
As2 Pr1 3.197861 1_655
As3 Pr0 3.197861 1_555
As3 Pr0 3.197861 1_455
As3 Pr1 3.197861 1_545
As3 Pr1 3.197861 1_555
