# generated using pymatgen
data_B20Ir4W5
_symmetry_space_group_name_H-M   'P 1'
_cell_length_a   2.95840758
_cell_length_b   2.95840758
_cell_length_c   37.49781200
_cell_angle_alpha   90.00000000
_cell_angle_beta   90.00000000
_cell_angle_gamma   119.99999065
_symmetry_Int_Tables_number   1
_chemical_formula_structural   B20Ir4W5
_chemical_formula_sum   'B20 Ir4 W5'
_cell_volume   284.21867708
_cell_formula_units_Z   1
loop_
 _symmetry_equiv_pos_site_id
 _symmetry_equiv_pos_as_xyz
  1  'x, y, z'
loop_
 _atom_site_type_symbol
 _atom_site_label
 _atom_site_symmetry_multiplicity
 _atom_site_fract_x
 _atom_site_fract_y
 _atom_site_fract_z
 _atom_site_occupancy
  B  B0  1  0.33333300  0.66666700  0.14136500  1
  B  B1  1  0.33333300  0.66666700  0.94465900  1
  B  B2  1  0.33333300  0.66666700  0.74098200  1
  B  B3  1  0.33333300  0.66666700  0.54117100  1
  B  B4  1  0.33333300  0.66666700  0.34111900  1
  B  B5  1  0.00000000  0.00000000  0.95666500  1
  B  B6  1  0.00000000  0.00000000  0.75951500  1
  B  B7  1  0.00000000  0.00000000  0.55910600  1
  B  B8  1  0.00000000  0.00000000  0.35945200  1
  B  B9  1  0.00000000  0.00000000  0.15861200  1
  B  B10  1  0.00000000  0.00000000  0.04333500  1
  B  B11  1  0.00000000  0.00000000  0.84138800  1
  B  B12  1  0.00000000  0.00000000  0.64054800  1
  B  B13  1  0.00000000  0.00000000  0.44089400  1
  B  B14  1  0.00000000  0.00000000  0.24048500  1
  B  B15  1  0.33333300  0.66666700  0.05534100  1
  B  B16  1  0.33333300  0.66666700  0.85863500  1
  B  B17  1  0.33333300  0.66666700  0.65888100  1
  B  B18  1  0.33333300  0.66666700  0.45882900  1
  B  B19  1  0.33333300  0.66666700  0.25901800  1
  Ir  Ir0  1  0.33333300  0.66666700  0.79961500  1
  Ir  Ir1  1  0.33333300  0.66666700  0.60012200  1
  Ir  Ir2  1  0.33333300  0.66666700  0.39987800  1
  Ir  Ir3  1  0.33333300  0.66666700  0.20038500  1
  W  W0  1  0.00000000  0.00000000  0.10010100  1
  W  W1  1  0.00000000  0.00000000  0.89989900  1
  W  W2  1  0.00000000  0.00000000  0.70002800  1
  W  W3  1  0.00000000  0.00000000  0.50000000  1
  W  W4  1  0.00000000  0.00000000  0.29997200  1
loop_
_geom_bond_atom_site_label_1
_geom_bond_atom_site_label_2
_geom_bond_distance
_geom_bond_site_symmetry_2
B0 B9 1.826373 1_565
B0 B9 1.826376 1_555
B0 B9 1.826376 1_665
B0 Ir3 2.213121 1_555
B0 W0 2.304681 1_565
B0 W0 2.304683 1_555
B0 W0 2.304683 1_665
B1 B5 1.766370 1_565
B1 B5 1.766373 1_555
B1 B5 1.766373 1_665
B1 W1 2.394665 1_565
B1 W1 2.394667 1_665
B1 W1 2.394667 1_555
B2 B6 1.844000 1_565
B2 B6 1.844003 1_665
B2 B6 1.844003 1_555
B2 Ir0 2.198609 1_555
B2 W2 2.296893 1_565
B2 W2 2.296895 1_665
B2 W2 2.296895 1_555
B3 B7 1.835667 1_565
B3 B7 1.835670 1_555
B3 B7 1.835670 1_665
B3 Ir1 2.210534 1_555
B3 W3 2.302341 1_565
B3 W3 2.302343 1_665
B3 W3 2.302343 1_555
B4 B8 1.841187 1_565
B4 B8 1.841190 1_665
B4 B8 1.841190 1_555
B4 Ir2 2.203334 1_555
B4 W4 2.301737 1_565
B4 W4 2.301740 1_555
B4 W4 2.301740 1_665
B5 W1 2.128601 1_555
B6 W2 2.230632 1_555
B6 Ir0 2.275607 1_545
B6 Ir0 2.275609 1_555
B6 Ir0 2.275609 1_445
B7 W3 2.216346 1_555
B7 Ir1 2.298448 1_545
B7 Ir1 2.298450 1_555
B7 Ir1 2.298450 1_445
B8 W4 2.230370 1_555
B8 Ir2 2.283703 1_545
B8 Ir2 2.283705 1_445
B8 Ir2 2.283705 1_555
B9 W0 2.194034 1_555
B9 Ir3 2.317538 1_545
B9 Ir3 2.317540 1_555
B9 Ir3 2.317540 1_445
B10 B15 1.766370 1_545
B10 B15 1.766373 1_555
B10 B15 1.766373 1_445
B10 W0 2.128601 1_555
B11 B16 1.826373 1_545
B11 B16 1.826376 1_555
B11 B16 1.826376 1_445
B11 W1 2.194034 1_555
B11 Ir0 2.317538 1_545
B11 Ir0 2.317540 1_555
B11 Ir0 2.317540 1_445
B12 B17 1.841187 1_545
B12 B17 1.841190 1_555
B12 B17 1.841190 1_445
B12 W2 2.230370 1_555
B12 Ir1 2.283703 1_545
B12 Ir1 2.283705 1_555
B12 Ir1 2.283705 1_445
B13 B18 1.835667 1_545
B13 B18 1.835670 1_445
B13 B18 1.835670 1_555
B13 W3 2.216346 1_555
B13 Ir2 2.298448 1_545
B13 Ir2 2.298450 1_555
B13 Ir2 2.298450 1_445
B14 B19 1.844000 1_545
B14 B19 1.844003 1_445
B14 B19 1.844003 1_555
B14 W4 2.230632 1_555
B14 Ir3 2.275607 1_545
B14 Ir3 2.275609 1_555
B14 Ir3 2.275609 1_445
B15 W0 2.394665 1_565
B15 W0 2.394667 1_665
B15 W0 2.394667 1_555
B16 Ir0 2.213121 1_555
B16 W1 2.304681 1_565
B16 W1 2.304683 1_665
B16 W1 2.304683 1_555
B17 Ir1 2.203334 1_555
B17 W2 2.301737 1_565
B17 W2 2.301740 1_665
B17 W2 2.301740 1_555
B18 Ir2 2.210534 1_555
B18 W3 2.302341 1_565
B18 W3 2.302343 1_555
B18 W3 2.302343 1_665
B19 Ir3 2.198609 1_555
B19 W4 2.296893 1_565
B19 W4 2.296895 1_555
B19 W4 2.296895 1_665
