# generated using pymatgen
data_HgH9C3SI3
_symmetry_space_group_name_H-M   'P 1'
_cell_length_a   16.59109700
_cell_length_b   9.05067200
_cell_length_c   12.54143342
_cell_angle_alpha   51.78171285
_cell_angle_beta   90.00000000
_cell_angle_gamma   90.00000000
_symmetry_Int_Tables_number   1
_chemical_formula_structural   HgH9C3SI3
_chemical_formula_sum   'Hg4 H36 C12 S4 I12'
_cell_volume   1479.57661337
_cell_formula_units_Z   4
loop_
 _symmetry_equiv_pos_site_id
 _symmetry_equiv_pos_as_xyz
  1  'x, y, z'
loop_
 _atom_site_type_symbol
 _atom_site_label
 _atom_site_symmetry_multiplicity
 _atom_site_fract_x
 _atom_site_fract_y
 _atom_site_fract_z
 _atom_site_occupancy
  Hg  Hg0  1  0.52163300  0.68600000  0.56787400  1
  Hg  Hg1  1  0.97836700  0.68600000  0.06787400  1
  Hg  Hg2  1  0.47836700  0.31400000  0.43212600  1
  Hg  Hg3  1  0.02163300  0.31400000  0.93212600  1
  H  H0  1  0.26823800  0.17498100  0.78707100  1
  H  H1  1  0.23176200  0.17498100  0.28707100  1
  H  H2  1  0.73176200  0.82501900  0.21292900  1
  H  H3  1  0.76823800  0.82501900  0.71292900  1
  H  H4  1  0.30596900  0.95042700  0.92877700  1
  H  H5  1  0.19403100  0.95042700  0.42877700  1
  H  H6  1  0.69403100  0.04957300  0.07122300  1
  H  H7  1  0.80596900  0.04957300  0.57122300  1
  H  H8  1  0.22937100  0.06615600  0.95633200  1
  H  H9  1  0.27062900  0.06615600  0.45633200  1
  H  H10  1  0.77062900  0.93384400  0.04366800  1
  H  H11  1  0.72937100  0.93384400  0.54366800  1
  H  H12  1  0.41581500  0.92168200  0.11358100  1
  H  H13  1  0.08418500  0.92168200  0.61358100  1
  H  H14  1  0.58418500  0.07831800  0.88641900  1
  H  H15  1  0.91581500  0.07831800  0.38641900  1
  H  H16  1  0.42231800  0.11853600  0.11508300  1
  H  H17  1  0.07768200  0.11853600  0.61508300  1
  H  H18  1  0.57768200  0.88146400  0.88491700  1
  H  H19  1  0.92231800  0.88146400  0.38491700  1
  H  H20  1  0.32749200  0.99657300  0.15178700  1
  H  H21  1  0.17250800  0.99657300  0.65178700  1
  H  H22  1  0.67250800  0.00342700  0.84821300  1
  H  H23  1  0.82749200  0.00342700  0.34821300  1
  H  H24  1  0.30296400  0.50061800  0.78510300  1
  H  H25  1  0.19703600  0.50061800  0.28510300  1
  H  H26  1  0.69703600  0.49938200  0.21489700  1
  H  H27  1  0.80296400  0.49938200  0.71489700  1
  H  H28  1  0.25853800  0.34767600  0.95349200  1
  H  H29  1  0.24146200  0.34767600  0.45349200  1
  H  H30  1  0.74146200  0.65232400  0.04650800  1
  H  H31  1  0.75853800  0.65232400  0.54650800  1
  H  H32  1  0.35809800  0.44695300  0.92831100  1
  H  H33  1  0.14190200  0.44695300  0.42831100  1
  H  H34  1  0.64190200  0.55304700  0.07168900  1
  H  H35  1  0.85809800  0.55304700  0.57168900  1
  C  C0  1  0.28219800  0.08564700  0.89595300  1
  C  C1  1  0.21780200  0.08564700  0.39595300  1
  C  C2  1  0.71780200  0.91435300  0.10404700  1
  C  C3  1  0.78219800  0.91435300  0.60404700  1
  C  C4  1  0.38326400  0.04271400  0.09282400  1
  C  C5  1  0.11673600  0.04271400  0.59282400  1
  C  C6  1  0.61673600  0.95728600  0.90717600  1
  C  C7  1  0.88326400  0.95728600  0.40717600  1
  C  C8  1  0.31443700  0.39332000  0.89425400  1
  C  C9  1  0.18556300  0.39332000  0.39425400  1
  C  C10  1  0.68556300  0.60668000  0.10574600  1
  C  C11  1  0.81443700  0.60668000  0.60574600  1
  S  S0  1  0.36298800  0.20079600  0.91380900  1
  S  S1  1  0.13701200  0.20079600  0.41380900  1
  S  S2  1  0.63701200  0.79920400  0.08619100  1
  S  S3  1  0.86298800  0.79920400  0.58619100  1
  I  I0  1  0.37547600  0.60232900  0.50589600  1
  I  I1  1  0.12452400  0.60232900  0.00589600  1
  I  I2  1  0.62452400  0.39767100  0.49410400  1
  I  I3  1  0.87547600  0.39767100  0.99410400  1
  I  I4  1  0.59103800  0.01488200  0.34488300  1
  I  I5  1  0.90896200  0.01488200  0.84488300  1
  I  I6  1  0.40896200  0.98511800  0.65511700  1
  I  I7  1  0.09103800  0.98511800  0.15511700  1
  I  I8  1  0.58187500  0.48958600  0.82759300  1
  I  I9  1  0.91812500  0.48958600  0.32759300  1
  I  I10  1  0.41812500  0.51041400  0.17240700  1
  I  I11  1  0.08187500  0.51041400  0.67240700  1
loop_
_geom_bond_atom_site_label_1
_geom_bond_atom_site_label_2
_geom_bond_distance
_geom_bond_site_symmetry_2
Hg0 I8 2.757585 1_555
Hg0 I4 2.776195 1_565
Hg0 I0 2.790365 1_555
Hg1 I9 2.757585 1_555
Hg1 I5 2.776195 1_564
Hg1 I1 2.790365 1_655
Hg2 I10 2.757585 1_555
Hg2 I6 2.776195 1_545
Hg2 I2 2.790365 1_555
Hg3 I11 2.757585 1_555
Hg3 I7 2.776195 1_546
Hg3 I3 2.790365 1_455
C0 H4 1.095174 1_545
C0 H0 1.098162 1_555
C0 H8 1.098829 1_555
C0 S0 1.794912 1_555
C1 H5 1.095174 1_545
C1 H1 1.098162 1_555
C1 H9 1.098829 1_555
C1 S1 1.794912 1_555
C2 H6 1.095174 1_565
C2 H2 1.098162 1_555
C2 H10 1.098829 1_555
C2 S2 1.794912 1_555
C3 H7 1.095174 1_565
C3 H3 1.098162 1_555
C3 H11 1.098829 1_555
C3 S3 1.794912 1_555
C4 H20 1.093317 1_545
C4 H16 1.098056 1_555
C4 H12 1.098426 1_545
C4 S0 1.796166 1_554
C5 H21 1.093317 1_545
C5 H17 1.098056 1_555
C5 H13 1.098426 1_545
C5 S1 1.796166 1_555
C6 H22 1.093317 1_565
C6 H18 1.098056 1_555
C6 H14 1.098426 1_565
C6 S2 1.796166 1_556
C7 H23 1.093317 1_565
C7 H19 1.098056 1_555
C7 H15 1.098426 1_565
C7 S3 1.796166 1_555
C8 H32 1.095139 1_555
C8 H28 1.096802 1_555
C8 H24 1.099254 1_555
C8 S0 1.793448 1_555
C9 H33 1.095139 1_555
C9 H29 1.096802 1_555
C9 H25 1.099254 1_555
C9 S1 1.793448 1_555
C10 H34 1.095139 1_555
C10 H30 1.096802 1_555
C10 H26 1.099254 1_555
C10 S2 1.793448 1_555
C11 H35 1.095139 1_555
C11 H31 1.096802 1_555
C11 H27 1.099254 1_555
C11 S3 1.793448 1_555
