# generated using pymatgen
data_V2Se2O9
_symmetry_space_group_name_H-M   'P 1'
_cell_length_a   7.08569520
_cell_length_b   7.11052479
_cell_length_c   14.13472980
_cell_angle_alpha   78.20971660
_cell_angle_beta   90.00000000
_cell_angle_gamma   90.00000000
_symmetry_Int_Tables_number   1
_chemical_formula_structural   V2Se2O9
_chemical_formula_sum   'V8 Se8 O36'
_cell_volume   697.12534488
_cell_formula_units_Z   4
loop_
 _symmetry_equiv_pos_site_id
 _symmetry_equiv_pos_as_xyz
  1  'x, y, z'
loop_
 _atom_site_type_symbol
 _atom_site_label
 _atom_site_symmetry_multiplicity
 _atom_site_fract_x
 _atom_site_fract_y
 _atom_site_fract_z
 _atom_site_occupancy
  V  V0  1  0.66819645  0.03790943  0.07354710  1
  V  V1  1  0.16819645  0.96209057  0.42645290  1
  V  V2  1  0.33180355  0.96209057  0.92645290  1
  V  V3  1  0.83180355  0.03790943  0.57354710  1
  V  V4  1  0.37133585  0.61408757  0.13177932  1
  V  V5  1  0.87133585  0.38591243  0.36822068  1
  V  V6  1  0.62866415  0.38591243  0.86822068  1
  V  V7  1  0.12866415  0.61408757  0.63177932  1
  Se  Se0  1  0.81927991  0.59950828  0.12774580  1
  Se  Se1  1  0.31927991  0.40049172  0.37225420  1
  Se  Se2  1  0.18072009  0.40049172  0.87225420  1
  Se  Se3  1  0.68072009  0.59950828  0.62774580  1
  Se  Se4  1  0.22315797  0.04436494  0.13988242  1
  Se  Se5  1  0.72315797  0.95563506  0.36011758  1
  Se  Se6  1  0.77684203  0.95563506  0.86011758  1
  Se  Se7  1  0.27684203  0.04436494  0.63988242  1
  O  O0  1  0.19875436  0.09190488  0.01658246  1
  O  O1  1  0.69875436  0.90809512  0.48341754  1
  O  O2  1  0.80124564  0.90809512  0.98341754  1
  O  O3  1  0.30124564  0.09190488  0.51658246  1
  O  O4  1  0.60186213  0.49562911  0.11564588  1
  O  O5  1  0.10186213  0.50437089  0.38435412  1
  O  O6  1  0.39813787  0.50437089  0.88435412  1
  O  O7  1  0.89813787  0.49562911  0.61564588  1
  O  O8  1  0.43900595  0.81517630  0.03177168  1
  O  O9  1  0.93900595  0.18482370  0.46822832  1
  O  O10  1  0.56099405  0.18482370  0.96822832  1
  O  O11  1  0.06099405  0.81517630  0.53177168  1
  O  O12  1  0.82803007  0.17313004  0.10393647  1
  O  O13  1  0.32803007  0.82686996  0.39606353  1
  O  O14  1  0.17196993  0.82686996  0.89606353  1
  O  O15  1  0.67196993  0.17313004  0.60393647  1
  O  O16  1  0.73692878  0.80020310  0.16446433  1
  O  O17  1  0.23692878  0.19979690  0.33553567  1
  O  O18  1  0.26307122  0.19979690  0.83553567  1
  O  O19  1  0.76307122  0.80020310  0.66446433  1
  O  O20  1  0.46419506  0.06582463  0.15599437  1
  O  O21  1  0.96419506  0.93417537  0.34400563  1
  O  O22  1  0.53580494  0.93417537  0.84400563  1
  O  O23  1  0.03580494  0.06582463  0.65599437  1
  O  O24  1  0.89922855  0.46929116  0.23458509  1
  O  O25  1  0.39922855  0.53070884  0.26541491  1
  O  O26  1  0.10077145  0.53070884  0.76541491  1
  O  O27  1  0.60077145  0.46929116  0.73458509  1
  O  O28  1  0.19621836  0.79936640  0.16527368  1
  O  O29  1  0.69621836  0.20063360  0.33472632  1
  O  O30  1  0.80378164  0.20063360  0.83472632  1
  O  O31  1  0.30378164  0.79936640  0.66527368  1
  O  O32  1  0.22809810  0.47464238  0.09251542  1
  O  O33  1  0.72809810  0.52535762  0.40748458  1
  O  O34  1  0.77190190  0.52535762  0.90748458  1
  O  O35  1  0.27190190  0.47464238  0.59251542  1
loop_
_geom_bond_atom_site_label_1
_geom_bond_atom_site_label_2
_geom_bond_distance
_geom_bond_site_symmetry_2
O0 Se4 1.714878 1_555
O0 V2 1.960690 1_544
O1 Se5 1.714878 1_555
O1 V3 1.960690 1_565
O2 Se6 1.714878 1_555
O2 V0 1.960690 1_566
O3 Se7 1.714878 1_555
O3 V1 1.960690 1_545
O4 Se0 1.731985 1_555
O4 V4 1.872991 1_555
O5 Se1 1.731985 1_555
O5 V5 1.872991 1_455
O6 Se2 1.731985 1_555
O6 V6 1.872991 1_555
O7 Se3 1.731985 1_555
O7 V7 1.872991 1_655
O8 V2 1.802455 1_554
O8 V4 1.856501 1_555
O8 V0 2.424128 1_565
O9 V3 1.802455 1_555
O9 V5 1.856501 1_555
O9 V1 2.424128 1_645
O10 V0 1.802455 1_556
O10 V6 1.856501 1_555
O10 V2 2.424128 1_545
O11 V1 1.802455 1_555
O11 V7 1.856501 1_555
O11 V3 2.424128 1_465
O12 V0 1.600118 1_555
O13 V1 1.600118 1_555
O14 V2 1.600118 1_555
O15 V3 1.600118 1_555
O16 Se0 1.717262 1_555
O16 V0 1.964136 1_565
O17 Se1 1.717262 1_555
O17 V1 1.964136 1_545
O18 Se2 1.717262 1_555
O18 V2 1.964136 1_545
O19 Se3 1.717262 1_555
O19 V3 1.964136 1_565
O20 Se4 1.733875 1_555
O20 V0 1.892475 1_555
O21 Se5 1.733875 1_555
O21 V1 1.892475 1_655
O22 Se6 1.733875 1_555
O22 V2 1.892475 1_555
O23 Se7 1.733875 1_555
O23 V3 1.892475 1_455
O24 Se0 1.699220 1_555
O24 V5 1.871059 1_555
O25 Se1 1.699220 1_555
O25 V4 1.871059 1_555
O26 Se2 1.699220 1_555
O26 V7 1.871059 1_555
O27 Se3 1.699220 1_555
O27 V6 1.871059 1_555
O28 Se4 1.715967 1_565
O28 V4 1.937603 1_555
O29 Se5 1.715967 1_545
O29 V5 1.937603 1_555
O30 Se6 1.715967 1_545
O30 V6 1.937603 1_555
O31 Se7 1.715967 1_565
O31 V7 1.937603 1_555
O32 V4 1.595656 1_555
O33 V5 1.595656 1_555
O34 V6 1.595656 1_555
O35 V7 1.595656 1_555
