# generated using pymatgen
data_KMnH3(CO2)3
_symmetry_space_group_name_H-M   'P 1'
_cell_length_a   7.27916855
_cell_length_b   7.27916855
_cell_length_c   7.24645147
_cell_angle_alpha   85.00532138
_cell_angle_beta   85.00532138
_cell_angle_gamma   78.58852433
_symmetry_Int_Tables_number   1
_chemical_formula_structural   KMnH3(CO2)3
_chemical_formula_sum   'K2 Mn2 H6 C6 O12'
_cell_volume   373.98301107
_cell_formula_units_Z   2
loop_
 _symmetry_equiv_pos_site_id
 _symmetry_equiv_pos_as_xyz
  1  'x, y, z'
loop_
 _atom_site_type_symbol
 _atom_site_label
 _atom_site_symmetry_multiplicity
 _atom_site_fract_x
 _atom_site_fract_y
 _atom_site_fract_z
 _atom_site_occupancy
  K  K0  1  0.60076900  0.39923100  0.75000000  1
  K  K1  1  0.39923100  0.60076900  0.25000000  1
  Mn  Mn0  1  0.50000000  0.00000000  0.50000000  1
  Mn  Mn1  1  0.00000000  0.50000000  0.00000000  1
  H  H0  1  0.06312100  0.21121300  0.51554200  1
  H  H1  1  0.78878700  0.93687900  0.98445800  1
  H  H2  1  0.93687900  0.78878700  0.48445800  1
  H  H3  1  0.21121300  0.06312100  0.01554200  1
  H  H4  1  0.12725500  0.87274500  0.75000000  1
  H  H5  1  0.87274500  0.12725500  0.25000000  1
  C  C0  1  0.24803700  0.75196300  0.75000000  1
  C  C1  1  0.75196300  0.24803700  0.25000000  1
  C  C2  1  0.12134200  0.25611000  0.63704400  1
  C  C3  1  0.74389000  0.87865800  0.86295600  1
  C  C4  1  0.87865800  0.74389000  0.36295600  1
  C  C5  1  0.25611000  0.12134200  0.13704400  1
  O  O0  1  0.37771200  0.75362300  0.62124400  1
  O  O1  1  0.24637700  0.62228800  0.87875600  1
  O  O2  1  0.62228800  0.24637700  0.37875600  1
  O  O3  1  0.75362300  0.37771200  0.12124400  1
  O  O4  1  0.29789600  0.21227300  0.64747400  1
  O  O5  1  0.78772700  0.70210400  0.85252600  1
  O  O6  1  0.70210400  0.78772700  0.35252600  1
  O  O7  1  0.21227300  0.29789600  0.14747400  1
  O  O8  1  0.65391500  0.99594700  0.74837100  1
  O  O9  1  0.00405300  0.34608500  0.75162900  1
  O  O10  1  0.34608500  0.00405300  0.25162900  1
  O  O11  1  0.99594700  0.65391500  0.24837100  1
loop_
_geom_bond_atom_site_label_1
_geom_bond_atom_site_label_2
_geom_bond_distance
_geom_bond_site_symmetry_2
K0 O9 2.885002 1_655
K0 O8 2.885002 1_545
K0 O0 2.889433 1_555
K0 O1 2.889433 1_555
K0 O3 2.979694 1_556
K0 O2 2.979694 1_555
K0 O5 2.985478 1_555
K0 O4 2.985478 1_555
K1 O10 2.885002 1_565
K1 O11 2.885002 1_455
K1 O3 2.889433 1_555
K1 O2 2.889433 1_555
K1 O0 2.979694 1_555
K1 O1 2.979694 1_554
K1 O6 2.985478 1_555
K1 O7 2.985478 1_555
Mn0 O4 2.192746 1_555
Mn0 O6 2.192746 1_545
Mn0 O8 2.196408 1_545
Mn0 O10 2.196408 1_555
Mn0 O2 2.236474 1_555
Mn0 O0 2.236474 1_545
Mn1 O7 2.192746 1_555
Mn1 O5 2.192746 1_454
Mn1 O11 2.196408 1_455
Mn1 O9 2.196408 1_554
Mn1 O1 2.236474 1_554
Mn1 O3 2.236474 1_455
C0 H4 1.113591 1_555
C0 O1 1.269202 1_555
C0 O0 1.269202 1_555
C1 H5 1.113591 1_555
C1 O2 1.269202 1_555
C1 O3 1.269202 1_555
C2 H0 1.109732 1_555
C2 O9 1.263847 1_555
C2 O4 1.268710 1_555
C3 H1 1.109732 1_555
C3 O8 1.263847 1_555
C3 O5 1.268710 1_555
C4 H2 1.109732 1_555
C4 O11 1.263847 1_555
C4 O6 1.268710 1_555
C5 H3 1.109732 1_555
C5 O10 1.263847 1_555
C5 O7 1.268710 1_555
