# generated using pymatgen
data_NaEuNbInO6
_symmetry_space_group_name_H-M   'P 1'
_cell_length_a   5.83410657
_cell_length_b   5.83410657
_cell_length_c   5.83410657
_cell_angle_alpha   60.00000000
_cell_angle_beta   60.00000000
_cell_angle_gamma   60.00000000
_symmetry_Int_Tables_number   1
_chemical_formula_structural   NaEuNbInO6
_chemical_formula_sum   'Na1 Eu1 Nb1 In1 O6'
_cell_volume   140.41324522
_cell_formula_units_Z   1
loop_
 _symmetry_equiv_pos_site_id
 _symmetry_equiv_pos_as_xyz
  1  'x, y, z'
loop_
 _atom_site_type_symbol
 _atom_site_label
 _atom_site_symmetry_multiplicity
 _atom_site_fract_x
 _atom_site_fract_y
 _atom_site_fract_z
 _atom_site_occupancy
  Na  Na0  1  0.75000000  0.75000000  0.75000000  1
  Eu  Eu0  1  0.25000000  0.25000000  0.25000000  1
  Nb  Nb0  1  0.50000000  0.50000000  0.50000000  1
  In  In0  1  -0.00000000  -0.00000000  -0.00000000  1
  O  O0  1  0.74237562  0.25762438  0.25762438  1
  O  O1  1  0.25762438  0.74237562  0.74237562  1
  O  O2  1  0.74237562  0.25762438  0.74237562  1
  O  O3  1  0.25762438  0.74237562  0.25762438  1
  O  O4  1  0.74237562  0.74237562  0.25762438  1
  O  O5  1  0.25762438  0.25762438  0.74237562  1
loop_
_geom_bond_atom_site_label_1
_geom_bond_atom_site_label_2
_geom_bond_distance
_geom_bond_site_symmetry_2
Na0 O1 2.917731 1_555
Na0 O0 2.917731 1_565
Na0 O3 2.917731 1_655
Na0 O1 2.917731 1_655
Na0 O0 2.917731 1_556
Na0 O2 2.917731 1_555
Na0 O2 2.917731 1_565
Na0 O3 2.917731 1_556
Na0 O4 2.917731 1_555
Na0 O4 2.917731 1_556
Na0 O5 2.917731 1_565
Na0 O5 2.917731 1_655
Eu0 O1 2.917731 1_554
Eu0 O3 2.917731 1_545
Eu0 O2 2.917731 1_455
Eu0 O2 2.917731 1_554
Eu0 O1 2.917731 1_545
Eu0 O0 2.917731 1_555
Eu0 O0 2.917731 1_455
Eu0 O3 2.917731 1_555
Eu0 O4 2.917731 1_455
Eu0 O5 2.917731 1_555
Eu0 O5 2.917731 1_554
Eu0 O4 2.917731 1_545
Nb0 O4 1.999762 1_555
Nb0 O1 1.999762 1_555
Nb0 O5 1.999762 1_555
Nb0 O3 1.999762 1_555
Nb0 O0 1.999762 1_555
Nb0 O2 1.999762 1_555
In0 O1 2.125574 1_544
In0 O0 2.125574 1_455
In0 O4 2.125574 1_445
In0 O3 2.125574 1_545
In0 O5 2.125574 1_554
In0 O2 2.125574 1_454
