# generated using pymatgen
data_NaMg3Si4HO12
_symmetry_space_group_name_H-M   'P 1'
_cell_length_a   10.74423250
_cell_length_b   9.85108180
_cell_length_c   10.31874867
_cell_angle_alpha   61.52615326
_cell_angle_beta   84.52752122
_cell_angle_gamma   78.48183852
_symmetry_Int_Tables_number   1
_chemical_formula_structural   NaMg3Si4HO12
_chemical_formula_sum   'Na4 Mg12 Si16 H4 O48'
_cell_volume   940.71291542
_cell_formula_units_Z   4
loop_
 _symmetry_equiv_pos_site_id
 _symmetry_equiv_pos_as_xyz
  1  'x, y, z'
loop_
 _atom_site_type_symbol
 _atom_site_label
 _atom_site_symmetry_multiplicity
 _atom_site_fract_x
 _atom_site_fract_y
 _atom_site_fract_z
 _atom_site_occupancy
  Na  Na0  1  0.00000000  0.50000000  0.00000000  1
  Na  Na1  1  0.24991800  0.72900900  0.54179200  1
  Na  Na2  1  0.50000000  0.50000000  0.00000000  1
  Na  Na3  1  0.75008200  0.27099100  0.45820800  1
  Mg  Mg0  1  0.00000000  0.00000000  0.00000000  1
  Mg  Mg1  1  0.00436400  0.82017900  0.36005100  1
  Mg  Mg2  1  0.24998000  0.08777900  0.82442600  1
  Mg  Mg3  1  0.24994700  0.25482000  0.48987800  1
  Mg  Mg4  1  0.25005800  0.90984600  0.18033600  1
  Mg  Mg5  1  0.50000000  0.00000000  0.00000000  1
  Mg  Mg6  1  0.50411900  0.18079200  0.63978900  1
  Mg  Mg7  1  0.49588100  0.81920800  0.36021100  1
  Mg  Mg8  1  0.74994200  0.09015400  0.81966400  1
  Mg  Mg9  1  0.75005300  0.74518000  0.51012200  1
  Mg  Mg10  1  0.75002000  0.91222100  0.17557400  1
  Mg  Mg11  1  0.99563600  0.17982100  0.63994900  1
  Si  Si0  1  0.11299800  0.12297000  0.33989600  1
  Si  Si1  1  0.11230500  0.45866200  0.65448100  1
  Si  Si2  1  0.13394600  0.63645100  0.17051200  1
  Si  Si3  1  0.13483200  0.80697200  0.82796200  1
  Si  Si4  1  0.36611000  0.19264500  0.17122800  1
  Si  Si5  1  0.36492500  0.36491700  0.82859400  1
  Si  Si6  1  0.38708900  0.53724400  0.33908100  1
  Si  Si7  1  0.38758200  0.88709600  0.65407300  1
  Si  Si8  1  0.61241800  0.11290400  0.34592700  1
  Si  Si9  1  0.61291100  0.46275600  0.66091900  1
  Si  Si10  1  0.63507500  0.63508300  0.17140600  1
  Si  Si11  1  0.63389000  0.80735500  0.82877200  1
  Si  Si12  1  0.86516800  0.19302800  0.17203800  1
  Si  Si13  1  0.86605400  0.36354900  0.82948800  1
  Si  Si14  1  0.88769500  0.54133800  0.34551900  1
  Si  Si15  1  0.88700200  0.87703000  0.66010400  1
  H  H0  1  0.12504000  0.20732400  0.99812700  1
  H  H1  1  0.37477600  0.79482900  0.99797000  1
  H  H2  1  0.62522400  0.20517100  0.00203000  1
  H  H3  1  0.87496000  0.79267600  0.00187300  1
  O  O0  1  0.01706700  0.53805100  0.24120700  1
  O  O1  1  0.11222500  0.13452100  0.49095200  1
  O  O2  1  0.02155100  0.77217900  0.75615800  1
  O  O3  1  0.14793700  0.10704000  0.99861900  1
  O  O4  1  0.10542200  0.80254900  0.17294500  1
  O  O5  1  0.10274300  0.61131700  0.49894200  1
  O  O6  1  0.14510400  0.28905600  0.65292800  1
  O  O7  1  0.14078200  0.66087800  0.99930500  1
  O  O8  1  0.10287900  0.97555200  0.82581500  1
  O  O9  1  0.22991500  0.22527100  0.24754000  1
  O  O10  1  0.13828600  0.95509700  0.34032700  1
  O  O11  1  0.22681200  0.46476000  0.75273800  1
  O  O12  1  0.27041600  0.52804700  0.24597500  1
  O  O13  1  0.35874600  0.33950100  0.00008300  1
  O  O14  1  0.35488400  0.05808800  0.65283100  1
  O  O15  1  0.27304700  0.78284700  0.75226800  1
  O  O16  1  0.39465600  0.02443800  0.17301600  1
  O  O17  1  0.35209600  0.89420000  0.99865100  1
  O  O18  1  0.36190100  0.70430700  0.34029400  1
  O  O19  1  0.38760600  0.37456400  0.48986500  1
  O  O20  1  0.39701700  0.19881400  0.82579800  1
  O  O21  1  0.48311100  0.22044700  0.24167600  1
  O  O22  1  0.39710700  0.88999700  0.49844000  1
  O  O23  1  0.47824600  0.47148100  0.75701500  1
  O  O24  1  0.52175400  0.52851900  0.24298500  1
  O  O25  1  0.60289300  0.11000300  0.50156000  1
  O  O26  1  0.51688900  0.77955300  0.75832400  1
  O  O27  1  0.64790400  0.10580000  0.00134900  1
  O  O28  1  0.60298300  0.80118600  0.17420200  1
  O  O29  1  0.61239400  0.62543600  0.51013500  1
  O  O30  1  0.63809900  0.29569300  0.65970600  1
  O  O31  1  0.64125400  0.66049900  0.99991700  1
  O  O32  1  0.60534400  0.97556200  0.82698400  1
  O  O33  1  0.72695300  0.21715300  0.24773200  1
  O  O34  1  0.64511600  0.94191200  0.34716900  1
  O  O35  1  0.72958400  0.47195300  0.75402500  1
  O  O36  1  0.77318800  0.53524000  0.24726200  1
  O  O37  1  0.85921800  0.33912200  0.00069500  1
  O  O38  1  0.86171400  0.04490300  0.65967300  1
  O  O39  1  0.77008500  0.77472900  0.75246000  1
  O  O40  1  0.89712100  0.02444800  0.17418500  1
  O  O41  1  0.85206300  0.89296000  0.00138100  1
  O  O42  1  0.85489600  0.71094400  0.34707200  1
  O  O43  1  0.89725700  0.38868300  0.50105800  1
  O  O44  1  0.89457800  0.19745100  0.82705500  1
  O  O45  1  0.97844900  0.22782100  0.24384200  1
  O  O46  1  0.88777500  0.86547900  0.50904800  1
  O  O47  1  0.98293300  0.46194900  0.75879300  1
loop_
_geom_bond_atom_site_label_1
_geom_bond_atom_site_label_2
_geom_bond_distance
_geom_bond_site_symmetry_2
Na0 O7 2.396682 1_554
Na0 O37 2.396682 1_455
Na0 O2 2.697727 1_554
Na0 O45 2.697727 1_455
Na0 O47 2.715351 1_454
Na0 O0 2.715351 1_555
Na1 O5 2.322599 1_555
Na1 O22 2.325153 1_555
Na1 O10 2.390531 1_555
Na1 O18 2.391297 1_555
Na1 O15 2.512741 1_555
Na1 O11 2.515579 1_555
Na2 O31 2.399978 1_554
Na2 O13 2.399978 1_555
Na2 O24 2.688826 1_555
Na2 O23 2.688826 1_554
Na2 O21 2.720430 1_555
Na2 O26 2.720430 1_554
Na3 O43 2.322599 1_555
Na3 O25 2.325153 1_555
Na3 O38 2.390531 1_555
Na3 O30 2.391297 1_555
Na3 O33 2.512741 1_555
Na3 O36 2.515579 1_555
Mg0 O3 2.071036 1_554
Mg0 O41 2.071036 1_445
Mg0 O40 2.106623 1_455
Mg0 O8 2.106623 1_544
Mg0 O44 2.108783 1_454
Mg0 O4 2.108783 1_545
Mg1 O5 2.003333 1_555
Mg1 O46 2.048344 1_455
Mg1 O10 2.080444 1_555
Mg1 O42 2.150218 1_455
Mg1 O4 2.186614 1_555
Mg1 O40 2.207002 1_465
Mg2 O3 2.082095 1_555
Mg2 O17 2.084230 1_545
Mg2 O8 2.097326 1_545
Mg2 O20 2.097981 1_555
Mg2 O14 2.114859 1_555
Mg2 O6 2.115460 1_555
Mg3 O14 2.058201 1_555
Mg3 O6 2.059420 1_555
Mg3 O19 2.067752 1_555
Mg3 O1 2.068512 1_555
Mg4 O16 2.071322 1_565
Mg4 O4 2.072055 1_555
Mg4 O10 2.115694 1_555
Mg4 O18 2.118504 1_555
Mg4 O17 2.134578 1_554
Mg4 O3 2.135760 1_564
Mg5 O17 2.071531 1_544
Mg5 O27 2.071531 1_555
Mg5 O32 2.107589 1_544
Mg5 O16 2.107589 1_555
Mg5 O20 2.109108 1_554
Mg5 O28 2.109108 1_545
Mg6 O25 2.002793 1_555
Mg6 O19 2.050233 1_555
Mg6 O30 2.079561 1_555
Mg6 O14 2.151260 1_555
Mg6 O32 2.190960 1_545
Mg6 O20 2.204943 1_555
Mg7 O22 2.002793 1_555
Mg7 O29 2.050233 1_555
Mg7 O18 2.079561 1_555
Mg7 O34 2.151260 1_555
Mg7 O16 2.190960 1_565
Mg7 O28 2.204943 1_555
Mg8 O32 2.071322 1_545
Mg8 O44 2.072055 1_555
Mg8 O38 2.115694 1_555
Mg8 O30 2.118504 1_555
Mg8 O27 2.134578 1_556
Mg8 O41 2.135760 1_546
Mg9 O34 2.058201 1_555
Mg9 O42 2.059420 1_555
Mg9 O29 2.067752 1_555
Mg9 O46 2.068512 1_555
Mg10 O41 2.082095 1_555
Mg10 O27 2.084230 1_565
Mg10 O40 2.097326 1_565
Mg10 O28 2.097981 1_555
Mg10 O34 2.114859 1_555
Mg10 O42 2.115460 1_555
Mg11 O43 2.003333 1_555
Mg11 O1 2.048344 1_655
Mg11 O38 2.080444 1_555
Mg11 O6 2.150218 1_655
Mg11 O44 2.186614 1_555
Mg11 O8 2.207002 1_645
H0 O3 0.966904 1_555
H1 O17 0.963674 1_555
H2 O27 0.963674 1_555
H3 O41 0.966904 1_555
O0 Si2 1.638872 1_555
O0 Si14 1.679767 1_455
O1 Si0 1.615198 1_555
O2 Si3 1.651840 1_555
O2 Si15 1.685203 1_455
O4 Si2 1.615330 1_555
O5 Si1 1.586288 1_555
O6 Si1 1.644791 1_555
O7 Si3 1.661288 1_555
O7 Si2 1.661710 1_556
O8 Si3 1.617079 1_555
O9 Si4 1.642670 1_555
O9 Si0 1.692123 1_555
O10 Si0 1.619396 1_565
O11 Si5 1.639108 1_555
O11 Si1 1.694315 1_555
O12 Si2 1.642023 1_555
O12 Si6 1.691362 1_555
O13 Si5 1.661380 1_554
O13 Si4 1.662161 1_555
O14 Si7 1.644665 1_545
O15 Si3 1.639096 1_555
O15 Si7 1.694212 1_555
O16 Si4 1.615269 1_555
O18 Si6 1.619574 1_555
O19 Si6 1.615444 1_555
O20 Si5 1.617090 1_555
O21 Si4 1.638701 1_555
O21 Si8 1.679384 1_555
O22 Si7 1.586312 1_555
O23 Si5 1.652139 1_555
O23 Si9 1.685833 1_555
O24 Si10 1.652139 1_555
O24 Si6 1.685833 1_555
O25 Si8 1.586312 1_555
O26 Si11 1.638701 1_555
O26 Si7 1.679384 1_555
O28 Si10 1.617090 1_555
O29 Si9 1.615444 1_555
O30 Si9 1.619574 1_555
O31 Si10 1.661380 1_556
O31 Si11 1.662161 1_555
O32 Si11 1.615269 1_555
O33 Si12 1.639096 1_555
O33 Si8 1.694212 1_555
O34 Si8 1.644665 1_565
O35 Si13 1.642023 1_555
O35 Si9 1.691362 1_555
O36 Si10 1.639108 1_555
O36 Si14 1.694315 1_555
O37 Si12 1.661288 1_555
O37 Si13 1.661710 1_554
O38 Si15 1.619396 1_545
O39 Si11 1.642670 1_555
O39 Si15 1.692123 1_555
O40 Si12 1.617079 1_555
O42 Si14 1.644791 1_555
O43 Si14 1.586288 1_555
O44 Si13 1.615330 1_555
O45 Si12 1.651840 1_555
O45 Si0 1.685203 1_655
O46 Si15 1.615198 1_555
O47 Si13 1.638872 1_555
O47 Si1 1.679767 1_655
