# generated using pymatgen
data_BaTbCuBO5
_symmetry_space_group_name_H-M   'P 1'
_cell_length_a   5.48898400
_cell_length_b   5.48898400
_cell_length_c   7.53901700
_cell_angle_alpha   90.00000000
_cell_angle_beta   90.00000000
_cell_angle_gamma   90.00000000
_symmetry_Int_Tables_number   1
_chemical_formula_structural   BaTbCuBO5
_chemical_formula_sum   'Ba2 Tb2 Cu2 B2 O10'
_cell_volume   227.14263120
_cell_formula_units_Z   2
loop_
 _symmetry_equiv_pos_site_id
 _symmetry_equiv_pos_as_xyz
  1  'x, y, z'
loop_
 _atom_site_type_symbol
 _atom_site_label
 _atom_site_symmetry_multiplicity
 _atom_site_fract_x
 _atom_site_fract_y
 _atom_site_fract_z
 _atom_site_occupancy
  Ba  Ba0  1  0.00000000  0.00000000  0.00743300  1
  Ba  Ba1  1  0.50000000  0.50000000  0.00743300  1
  Tb  Tb0  1  0.00000000  0.00000000  0.51377000  1
  Tb  Tb1  1  0.50000000  0.50000000  0.51377000  1
  Cu  Cu0  1  0.50000000  0.00000000  0.72847700  1
  Cu  Cu1  1  0.00000000  0.50000000  0.72847700  1
  B  B0  1  0.50000000  0.00000000  0.25598600  1
  B  B1  1  0.00000000  0.50000000  0.25598600  1
  O  O0  1  0.15774000  0.65774000  0.34380300  1
  O  O1  1  0.84226000  0.34226000  0.34380300  1
  O  O2  1  0.34226000  0.15774000  0.34380300  1
  O  O3  1  0.65774000  0.84226000  0.34380300  1
  O  O4  1  0.50000000  0.00000000  0.07028700  1
  O  O5  1  0.00000000  0.50000000  0.07028700  1
  O  O6  1  0.25250900  0.75250900  0.70972100  1
  O  O7  1  0.74749100  0.24749100  0.70972100  1
  O  O8  1  0.24749100  0.25250900  0.70972100  1
  O  O9  1  0.75250900  0.74749100  0.70972100  1
loop_
_geom_bond_atom_site_label_1
_geom_bond_atom_site_label_2
_geom_bond_distance
_geom_bond_site_symmetry_2
Ba0 O5 2.785099 1_555
Ba0 O5 2.785099 1_545
Ba0 O4 2.785099 1_455
Ba0 O4 2.785099 1_555
Ba0 O7 2.967167 1_454
Ba0 O6 2.967167 1_544
Ba0 O9 2.967167 1_444
Ba0 O8 2.967167 1_554
Ba0 O0 3.272585 1_545
Ba0 O1 3.272585 1_455
Ba0 O3 3.272585 1_445
Ba0 O2 3.272585 1_555
Ba1 O5 2.785099 1_655
Ba1 O5 2.785099 1_555
Ba1 O4 2.785099 1_555
Ba1 O4 2.785099 1_565
Ba1 O6 2.967167 1_554
Ba1 O7 2.967167 1_554
Ba1 O8 2.967167 1_554
Ba1 O9 2.967167 1_554
Ba1 O3 3.272585 1_555
Ba1 O0 3.272585 1_555
Ba1 O2 3.272585 1_555
Ba1 O1 3.272585 1_555
Cu0 O7 1.926369 1_555
Cu0 O6 1.926369 1_545
Cu0 O9 1.965219 1_545
Cu0 O8 1.965219 1_555
Cu0 O4 2.576911 1_556
Cu1 O9 1.926369 1_455
Cu1 O8 1.926369 1_555
Cu1 O6 1.965219 1_555
Cu1 O7 1.965219 1_455
Cu1 O5 2.576911 1_556
B0 O3 1.391994 1_545
B0 O2 1.391994 1_555
B0 O4 1.399988 1_555
B1 O1 1.391994 1_455
B1 O0 1.391994 1_555
B1 O5 1.399988 1_555
O0 Tb1 2.433305 1_555
O0 Tb0 2.433305 1_565
O1 Tb0 2.433305 1_655
O1 Tb1 2.433305 1_555
O2 Tb1 2.433305 1_555
O2 Tb0 2.433305 1_555
O3 Tb0 2.433305 1_665
O3 Tb1 2.433305 1_555
O6 Tb1 2.439026 1_555
O6 Tb0 2.439026 1_565
O7 Tb0 2.439026 1_655
O7 Tb1 2.439026 1_555
O8 Tb1 2.439026 1_555
O8 Tb0 2.439026 1_555
O9 Tb0 2.439026 1_665
O9 Tb1 2.439026 1_555
