# generated using pymatgen
data_PrS2NO8
_symmetry_space_group_name_H-M   'P 1'
_cell_length_a   5.52781600
_cell_length_b   7.10304500
_cell_length_c   9.32344097
_cell_angle_alpha   80.76854659
_cell_angle_beta   90.00000000
_cell_angle_gamma   90.00000000
_symmetry_Int_Tables_number   1
_chemical_formula_structural   PrS2NO8
_chemical_formula_sum   'Pr2 S4 N2 O16'
_cell_volume   361.33730060
_cell_formula_units_Z   2
loop_
 _symmetry_equiv_pos_site_id
 _symmetry_equiv_pos_as_xyz
  1  'x, y, z'
loop_
 _atom_site_type_symbol
 _atom_site_label
 _atom_site_symmetry_multiplicity
 _atom_site_fract_x
 _atom_site_fract_y
 _atom_site_fract_z
 _atom_site_occupancy
  Pr  Pr0  1  0.25000000  0.19810000  0.22393200  1
  Pr  Pr1  1  0.75000000  0.80190000  0.77606800  1
  S  S0  1  0.25000000  0.72392100  0.06497700  1
  S  S1  1  0.75000000  0.27607900  0.93502300  1
  S  S2  1  0.25000000  0.81008200  0.57354900  1
  S  S3  1  0.75000000  0.18991800  0.42645100  1
  N  N0  1  0.25000000  0.31197100  0.68985700  1
  N  N1  1  0.75000000  0.68802900  0.31014300  1
  O  O0  1  0.25000000  0.92506600  0.69683500  1
  O  O1  1  0.75000000  0.07493400  0.30316500  1
  O  O2  1  0.96998500  0.27712900  0.02590600  1
  O  O3  1  0.03001500  0.72287100  0.97409400  1
  O  O4  1  0.46998500  0.72287100  0.97409400  1
  O  O5  1  0.53001500  0.27712900  0.02590600  1
  O  O6  1  0.25000000  0.89849500  0.13326000  1
  O  O7  1  0.75000000  0.10150500  0.86674000  1
  O  O8  1  0.25000000  0.55437800  0.17973000  1
  O  O9  1  0.75000000  0.44562200  0.82027000  1
  O  O10  1  0.25000000  0.93712900  0.43237100  1
  O  O11  1  0.75000000  0.06287100  0.56762900  1
  O  O12  1  0.47260000  0.69152400  0.58925100  1
  O  O13  1  0.52740000  0.30847600  0.41074900  1
  O  O14  1  0.97260000  0.30847600  0.41074900  1
  O  O15  1  0.02740000  0.69152400  0.58925100  1
loop_
_geom_bond_atom_site_label_1
_geom_bond_atom_site_label_2
_geom_bond_distance
_geom_bond_site_symmetry_2
O0 S2 1.513110 1_555
O0 Pr1 2.956842 1_555
O0 Pr1 2.956842 1_455
O1 S3 1.513110 1_555
O1 Pr0 2.956842 1_555
O1 Pr0 2.956842 1_655
O2 S1 1.482841 1_554
O2 Pr0 2.405671 1_655
O3 S0 1.482841 1_556
O3 Pr1 2.405671 1_455
O4 S0 1.482841 1_556
O4 Pr1 2.405671 1_555
O5 S1 1.482841 1_554
O5 Pr0 2.405671 1_555
O6 S0 1.481959 1_555
O6 Pr0 2.412617 1_565
O7 S1 1.481959 1_555
O7 Pr1 2.412617 1_545
O8 S0 1.477007 1_555
O8 Pr0 2.497890 1_555
O9 S1 1.477007 1_555
O9 Pr1 2.497890 1_555
O10 S2 1.471668 1_555
O10 Pr0 2.461103 1_565
O11 S3 1.471668 1_555
O11 Pr1 2.461103 1_545
O12 S2 1.484977 1_555
O12 Pr1 2.537312 1_555
O13 S3 1.484977 1_555
O13 Pr0 2.537312 1_555
O14 S3 1.484977 1_555
O14 Pr0 2.537312 1_655
O15 S2 1.484977 1_555
O15 Pr1 2.537312 1_455
