# generated using pymatgen
data_Ca10V3P3(O12F)2
_symmetry_space_group_name_H-M   'P 1'
_cell_length_a   9.69160600
_cell_length_b   9.69160600
_cell_length_c   6.98894600
_cell_angle_alpha   90.00000000
_cell_angle_beta   90.00000000
_cell_angle_gamma   120.00000000
_symmetry_Int_Tables_number   1
_chemical_formula_structural   Ca10V3P3(O12F)2
_chemical_formula_sum   'Ca10 V3 P3 O24 F2'
_cell_volume   568.50438245
_cell_formula_units_Z   1
loop_
 _symmetry_equiv_pos_site_id
 _symmetry_equiv_pos_as_xyz
  1  'x, y, z'
loop_
 _atom_site_type_symbol
 _atom_site_label
 _atom_site_symmetry_multiplicity
 _atom_site_fract_x
 _atom_site_fract_y
 _atom_site_fract_z
 _atom_site_occupancy
  Ca  Ca0  1  0.66666700  0.33333300  0.25588900  1
  Ca  Ca1  1  0.33333300  0.66666700  0.74773400  1
  Ca  Ca2  1  0.33333300  0.66666700  0.25226600  1
  Ca  Ca3  1  0.66666700  0.33333300  0.74411100  1
  Ca  Ca4  1  0.75527600  0.76186300  0.50000000  1
  Ca  Ca5  1  0.23813700  0.99341300  0.50000000  1
  Ca  Ca6  1  0.00658700  0.24472400  0.50000000  1
  Ca  Ca7  1  0.24368700  0.24549900  0.00000000  1
  Ca  Ca8  1  0.75450100  0.99818800  0.00000000  1
  Ca  Ca9  1  0.00181200  0.75631300  0.00000000  1
  V  V0  1  0.97077400  0.36911700  0.00000000  1
  V  V1  1  0.63088300  0.60165700  0.00000000  1
  V  V2  1  0.39834300  0.02922600  0.00000000  1
  P  P0  1  0.02899600  0.62953000  0.50000000  1
  P  P1  1  0.37047000  0.39946600  0.50000000  1
  P  P2  1  0.60053400  0.97100400  0.50000000  1
  O  O0  1  0.12120400  0.53529600  0.50000000  1
  O  O1  1  0.46470400  0.58590700  0.50000000  1
  O  O2  1  0.41409300  0.87879600  0.50000000  1
  O  O3  1  0.86563500  0.47322700  0.00000000  1
  O  O4  1  0.52677300  0.39240800  0.00000000  1
  O  O5  1  0.60759200  0.13436500  0.00000000  1
  O  O6  1  0.84628300  0.51296100  0.50000000  1
  O  O7  1  0.48703900  0.33332200  0.50000000  1
  O  O8  1  0.66667800  0.15371700  0.50000000  1
  O  O9  1  0.17570300  0.48971400  0.00000000  1
  O  O10  1  0.51028600  0.68598800  0.00000000  1
  O  O11  1  0.31401200  0.82429800  0.00000000  1
  O  O12  1  0.08355000  0.74060700  0.32155000  1
  O  O13  1  0.25939300  0.34294300  0.32155000  1
  O  O14  1  0.65705700  0.91645000  0.32155000  1
  O  O15  1  0.91024400  0.24381700  0.80492700  1
  O  O16  1  0.75618300  0.66642700  0.80492700  1
  O  O17  1  0.33357300  0.08975600  0.80492700  1
  O  O18  1  0.91024400  0.24381700  0.19507300  1
  O  O19  1  0.75618300  0.66642700  0.19507300  1
  O  O20  1  0.33357300  0.08975600  0.19507300  1
  O  O21  1  0.08355000  0.74060700  0.67845000  1
  O  O22  1  0.25939300  0.34294300  0.67845000  1
  O  O23  1  0.65705700  0.91645000  0.67845000  1
  F  F0  1  0.00000000  0.00000000  0.50000000  1
  F  F1  1  0.00000000  0.00000000  0.00000000  1
loop_
_geom_bond_atom_site_label_1
_geom_bond_atom_site_label_2
_geom_bond_distance
_geom_bond_site_symmetry_2
Ca0 O8 2.437450 1_555
Ca0 O6 2.437453 1_555
Ca0 O7 2.437457 1_555
Ca0 O5 2.478011 1_555
Ca0 O3 2.478013 1_555
Ca0 O4 2.478018 1_555
Ca0 O18 2.924719 1_555
Ca0 O20 2.924726 1_555
Ca0 O19 2.924728 1_555
Ca1 O11 2.400711 1_556
Ca1 O9 2.400712 1_556
Ca1 O10 2.400718 1_556
Ca1 O2 2.495564 1_555
Ca1 O0 2.495566 1_555
Ca1 O1 2.495577 1_555
Ca1 O21 2.888423 1_555
Ca1 O23 2.888429 1_555
Ca1 O22 2.888432 1_555
Ca2 O11 2.400711 1_555
Ca2 O9 2.400712 1_555
Ca2 O10 2.400718 1_555
Ca2 O2 2.495564 1_555
Ca2 O0 2.495566 1_555
Ca2 O1 2.495577 1_555
Ca2 O12 2.888423 1_555
Ca2 O14 2.888429 1_555
Ca2 O13 2.888432 1_555
Ca3 O8 2.437450 1_555
Ca3 O6 2.437453 1_555
Ca3 O7 2.437457 1_555
Ca3 O5 2.478011 1_556
Ca3 O3 2.478013 1_556
Ca3 O4 2.478018 1_556
Ca3 O15 2.924719 1_555
Ca3 O17 2.924726 1_555
Ca3 O16 2.924728 1_555
Ca4 O19 2.324944 1_555
Ca4 O16 2.324944 1_555
Ca4 F0 2.340502 1_665
Ca4 O1 2.456869 1_555
Ca4 O14 2.476346 1_555
Ca4 O23 2.476346 1_555
Ca4 O6 2.953735 1_555
Ca5 O17 2.324944 1_565
Ca5 O20 2.324944 1_565
Ca5 F0 2.340502 1_565
Ca5 O2 2.456877 1_555
Ca5 O12 2.476346 1_555
Ca5 O21 2.476346 1_555
Ca5 O7 2.953735 1_565
Ca6 O15 2.324944 1_455
Ca6 O18 2.324944 1_455
Ca6 F0 2.340502 1_555
Ca6 O0 2.456868 1_555
Ca6 O13 2.476346 1_555
Ca6 O22 2.476346 1_555
Ca6 O8 2.953735 1_455
Ca7 F1 2.370548 1_555
Ca7 O4 2.376560 1_555
Ca7 O22 2.412805 1_554
Ca7 O13 2.412805 1_555
Ca7 O20 2.492149 1_555
Ca7 O17 2.492149 1_554
Ca7 O9 2.755988 1_555
Ca8 F1 2.370548 1_665
Ca8 O5 2.376560 1_565
Ca8 O23 2.412805 1_554
Ca8 O14 2.412805 1_555
Ca8 O18 2.492149 1_565
Ca8 O15 2.492149 1_564
Ca8 O10 2.755995 1_555
Ca9 F1 2.370548 1_565
Ca9 O3 2.376560 1_455
Ca9 O21 2.412805 1_554
Ca9 O12 2.412805 1_555
Ca9 O19 2.492149 1_455
Ca9 O16 2.492149 1_454
Ca9 O11 2.755995 1_555
O0 P0 1.564872 1_555
O1 P1 1.564863 1_555
O2 P2 1.564863 1_555
O3 V0 1.756271 1_555
O4 V1 1.756271 1_555
O5 V2 1.756271 1_555
O6 P0 1.552887 1_655
O7 P1 1.552887 1_555
O8 P2 1.552887 1_545
O9 V0 1.728959 1_455
O10 V1 1.728952 1_555
O11 V2 1.728952 1_565
O12 P0 1.557146 1_555
O13 P1 1.557146 1_555
O14 P2 1.557146 1_555
O15 V0 1.721963 1_556
O16 V1 1.721963 1_556
O17 V2 1.721963 1_556
O18 V0 1.721963 1_555
O19 V1 1.721963 1_555
O20 V2 1.721963 1_555
O21 P0 1.557146 1_555
O22 P1 1.557146 1_555
O23 P2 1.557146 1_555
