# generated using pymatgen
data_LaMg14W
_symmetry_space_group_name_H-M   'P 1'
_cell_length_a   6.46809840
_cell_length_b   6.46809786
_cell_length_c   10.20480643
_cell_angle_alpha   90.00000000
_cell_angle_beta   90.00000000
_cell_angle_gamma   120.00000274
_symmetry_Int_Tables_number   1
_chemical_formula_structural   LaMg14W
_chemical_formula_sum   'La1 Mg14 W1'
_cell_volume   369.73332080
_cell_formula_units_Z   1
loop_
 _symmetry_equiv_pos_site_id
 _symmetry_equiv_pos_as_xyz
  1  'x, y, z'
loop_
 _atom_site_type_symbol
 _atom_site_label
 _atom_site_symmetry_multiplicity
 _atom_site_fract_x
 _atom_site_fract_y
 _atom_site_fract_z
 _atom_site_occupancy
  La  La0  1  0.16666700  0.33333300  0.12500000  1
  Mg  Mg0  1  0.17951462  0.83975681  0.12500000  1
  Mg  Mg1  1  0.16203723  0.83101811  0.62500000  1
  Mg  Mg2  1  0.66024319  0.32048538  0.12500000  1
  Mg  Mg3  1  0.66898189  0.33796277  0.62500000  1
  Mg  Mg4  1  0.66024319  0.83975681  0.12500000  1
  Mg  Mg5  1  0.66898189  0.83101811  0.62500000  1
  Mg  Mg6  1  0.33016939  0.16983061  0.39416567  1
  Mg  Mg7  1  0.33016939  0.16983061  0.85583433  1
  Mg  Mg8  1  0.33016939  0.66033977  0.39416567  1
  Mg  Mg9  1  0.33016939  0.66033977  0.85583433  1
  Mg  Mg10  1  0.83966023  0.16983061  0.39416567  1
  Mg  Mg11  1  0.83966023  0.16983061  0.85583433  1
  Mg  Mg12  1  0.83333300  0.66666700  0.36636054  1
  Mg  Mg13  1  0.83333300  0.66666700  0.88363946  1
  W  W0  1  0.16666700  0.33333300  0.62500000  1
loop_
_geom_bond_atom_site_label_1
_geom_bond_atom_site_label_2
_geom_bond_distance
_geom_bond_site_symmetry_2
La0 Mg0 3.234850 1_555
La0 Mg4 3.234850 1_555
La0 Mg4 3.234850 1_445
La0 Mg0 3.234850 1_545
La0 Mg2 3.234850 1_455
La0 Mg2 3.234850 1_555
La0 Mg7 3.301523 1_554
La0 Mg6 3.301523 1_555
La0 Mg8 3.301529 1_555
La0 Mg9 3.301529 1_554
La0 Mg11 3.301529 1_454
La0 Mg10 3.301529 1_455
Mg0 Mg2 3.109399 1_565
Mg0 Mg4 3.109400 1_555
Mg0 Mg13 3.134781 1_454
Mg0 Mg12 3.134781 1_455
Mg0 Mg9 3.312392 1_554
Mg0 Mg8 3.312392 1_555
Mg0 Mg6 3.312398 1_565
Mg0 Mg7 3.312398 1_564
Mg0 Mg2 3.358698 1_455
Mg0 Mg4 3.358699 1_455
Mg1 Mg8 3.025043 1_555
Mg1 Mg9 3.025043 1_555
Mg1 Mg6 3.025050 1_565
Mg1 Mg7 3.025050 1_565
Mg1 Mg3 3.189130 1_455
Mg1 Mg5 3.189130 1_455
Mg1 Mg12 3.218144 1_455
Mg1 Mg13 3.218144 1_455
Mg1 W0 3.234153 1_555
Mg1 W0 3.234153 1_565
Mg1 Mg3 3.278968 1_565
Mg1 Mg5 3.278968 1_555
Mg2 Mg4 3.109399 1_545
Mg2 Mg6 3.312398 1_555
Mg2 Mg7 3.312398 1_554
Mg2 Mg4 3.358698 1_555
Mg3 Mg7 3.025050 1_555
Mg3 Mg6 3.025050 1_555
Mg3 Mg5 3.189130 1_555
Mg3 W0 3.234153 1_655
Mg3 W0 3.234153 1_555
Mg3 Mg5 3.278968 1_545
Mg4 Mg9 3.312398 1_554
Mg4 Mg8 3.312398 1_555
Mg5 Mg8 3.025050 1_555
Mg5 Mg9 3.025050 1_555
Mg5 W0 3.234153 1_665
Mg5 W0 3.234153 1_555
Mg6 W0 2.983987 1_555
Mg7 W0 2.983987 1_555
Mg8 W0 2.983993 1_555
Mg9 W0 2.983993 1_555
Mg10 W0 2.983994 1_655
Mg10 Mg3 3.025043 1_555
Mg10 Mg5 3.025050 1_545
Mg10 Mg12 3.246666 1_545
Mg10 Mg12 3.246666 1_555
Mg10 Mg2 3.312392 1_555
Mg10 Mg4 3.312398 1_545
Mg11 W0 2.983994 1_655
Mg11 Mg3 3.025043 1_555
Mg11 Mg5 3.025050 1_545
Mg11 Mg13 3.246666 1_545
Mg11 Mg13 3.246666 1_555
Mg11 Mg2 3.312392 1_556
Mg11 Mg4 3.312398 1_546
Mg12 Mg4 3.134774 1_555
Mg12 Mg2 3.134781 1_555
Mg12 Mg5 3.218137 1_555
Mg12 Mg3 3.218144 1_555
Mg12 Mg6 3.246666 1_665
Mg12 Mg6 3.246666 1_555
Mg12 Mg8 3.246666 1_555
Mg12 Mg8 3.246666 1_655
Mg13 Mg4 3.134774 1_556
Mg13 Mg2 3.134781 1_556
Mg13 Mg5 3.218137 1_555
Mg13 Mg3 3.218144 1_555
Mg13 Mg7 3.246666 1_665
Mg13 Mg7 3.246666 1_555
Mg13 Mg9 3.246666 1_555
Mg13 Mg9 3.246666 1_655
