# generated using pymatgen
data_LiCo6(OF5)2
_symmetry_space_group_name_H-M   'P 1'
_cell_length_a   4.86342970
_cell_length_b   4.82591686
_cell_length_c   9.41395210
_cell_angle_alpha   89.15122782
_cell_angle_beta   88.96598212
_cell_angle_gamma   92.33642042
_symmetry_Int_Tables_number   1
_chemical_formula_structural   LiCo6(OF5)2
_chemical_formula_sum   'Li1 Co6 O2 F10'
_cell_volume   220.70386421
_cell_formula_units_Z   1
loop_
 _symmetry_equiv_pos_site_id
 _symmetry_equiv_pos_as_xyz
  1  'x, y, z'
loop_
 _atom_site_type_symbol
 _atom_site_label
 _atom_site_symmetry_multiplicity
 _atom_site_fract_x
 _atom_site_fract_y
 _atom_site_fract_z
 _atom_site_occupancy
  Li  Li0  1  0.48947500  0.99019300  0.74019600  1
  Co  Co0  1  0.96564100  0.96291900  0.01062700  1
  Co  Co1  1  0.03481300  0.03580000  0.32550800  1
  Co  Co2  1  0.99708000  0.99970400  0.65736600  1
  Co  Co3  1  0.50072300  0.50061400  0.16822600  1
  Co  Co4  1  0.50378900  0.49628300  0.85404700  1
  Co  Co5  1  0.49705100  0.49821200  0.48363200  1
  O  O0  1  0.32572800  0.32528700  0.32142200  1
  O  O1  1  0.67381700  0.67809700  0.01115300  1
  F  F0  1  0.20616900  0.79427400  0.16715900  1
  F  F1  1  0.19034400  0.80376100  0.82577200  1
  F  F2  1  0.21672800  0.82180000  0.50377600  1
  F  F3  1  0.27625900  0.27495000  0.00302900  1
  F  F4  1  0.31487800  0.29672600  0.67399800  1
  F  F5  1  0.68121900  0.70008900  0.66672600  1
  F  F6  1  0.72225900  0.72152200  0.32747200  1
  F  F7  1  0.79535300  0.20740300  0.16631400  1
  F  F8  1  0.78160300  0.16953200  0.82641400  1
  F  F9  1  0.81318300  0.20894300  0.50287500  1
loop_
_geom_bond_atom_site_label_1
_geom_bond_atom_site_label_2
_geom_bond_distance
_geom_bond_site_symmetry_2
Co0 O1 1.934981 1_555
Co0 F0 2.075223 1_655
Co0 F7 2.076805 1_565
Co0 F3 2.088591 1_665
Co0 F1 2.202720 1_654
Co0 F8 2.209127 1_564
Co1 O0 1.946862 1_555
Co1 F0 2.088325 1_545
Co1 F7 2.095924 1_455
Co1 F6 2.102735 1_445
Co1 F9 2.167442 1_455
Co1 F2 2.177712 1_545
Co2 F9 2.002948 1_565
Co2 F2 2.006154 1_655
Co2 F5 2.066033 1_555
Co2 F4 2.074308 1_665
Co2 F8 2.085901 1_565
Co2 F1 2.091136 1_655
Co3 O0 1.838738 1_555
Co3 O1 1.867498 1_555
Co3 F7 2.054498 1_555
Co3 F0 2.055797 1_555
Co3 F6 2.134661 1_555
Co3 F3 2.193345 1_555
Co4 O1 1.914287 1_556
Co4 F3 2.033639 1_556
Co4 F8 2.133759 1_555
Co4 F5 2.155501 1_555
Co4 F4 2.162620 1_555
Co4 F1 2.187219 1_555
Co5 O0 1.936363 1_555
Co5 F6 2.078673 1_555
Co5 F2 2.122801 1_555
Co5 F9 2.126739 1_555
Co5 F5 2.180976 1_555
Co5 F4 2.182403 1_555
F1 Li0 1.845110 1_555
F4 Li0 1.841722 1_545
F5 Li0 1.849296 1_555
F8 Li0 1.840792 1_545
