# generated using pymatgen
data_PrAgSb2
_symmetry_space_group_name_H-M   'P 1'
_cell_length_a   4.37189425
_cell_length_b   4.37189425
_cell_length_c   10.97440341
_cell_angle_alpha   90.00000000
_cell_angle_beta   90.00000000
_cell_angle_gamma   90.00000000
_symmetry_Int_Tables_number   1
_chemical_formula_structural   PrAgSb2
_chemical_formula_sum   'Pr2 Ag2 Sb4'
_cell_volume   209.75881328
_cell_formula_units_Z   2
loop_
 _symmetry_equiv_pos_site_id
 _symmetry_equiv_pos_as_xyz
  1  'x, y, z'
loop_
 _atom_site_type_symbol
 _atom_site_label
 _atom_site_symmetry_multiplicity
 _atom_site_fract_x
 _atom_site_fract_y
 _atom_site_fract_z
 _atom_site_occupancy
  Pr  Pr0  1  0.00000000  0.50000000  0.76451118  1
  Pr  Pr1  1  0.50000000  0.00000000  0.23548882  1
  Ag  Ag0  1  -0.00000000  0.00000000  0.50000000  1
  Ag  Ag1  1  0.50000000  0.50000000  0.50000000  1
  Sb  Sb0  1  0.00000000  -0.00000000  0.00000000  1
  Sb  Sb1  1  0.50000000  0.50000000  0.00000000  1
  Sb  Sb2  1  0.00000000  0.50000000  0.33061791  1
  Sb  Sb3  1  0.50000000  0.00000000  0.66938209  1
loop_
_geom_bond_atom_site_label_1
_geom_bond_atom_site_label_2
_geom_bond_distance
_geom_bond_site_symmetry_2
Pr0 Sb3 3.262918 1_465
Pr0 Sb3 3.262918 1_555
Pr0 Sb3 3.262918 1_565
Pr0 Sb3 3.262918 1_455
Pr0 Sb1 3.384852 1_456
Pr0 Sb0 3.384852 1_556
Pr0 Sb1 3.384852 1_556
Pr0 Sb0 3.384852 1_566
Pr1 Sb2 3.262918 1_655
Pr1 Sb2 3.262918 1_645
Pr1 Sb2 3.262918 1_545
Pr1 Sb2 3.262918 1_555
Pr1 Sb0 3.384852 1_655
Pr1 Sb1 3.384852 1_555
Pr1 Sb1 3.384852 1_545
Pr1 Sb0 3.384852 1_555
Ag0 Sb2 2.869452 1_555
Ag0 Sb2 2.869452 1_545
Ag0 Sb3 2.869452 1_455
Ag0 Sb3 2.869452 1_555
Ag0 Ag1 3.091396 1_445
Ag0 Ag1 3.091396 1_455
Ag0 Ag1 3.091396 1_545
Ag0 Ag1 3.091396 1_555
Ag0 Pr0 3.633857 1_555
Ag0 Pr1 3.633857 1_455
Ag0 Pr0 3.633857 1_545
Ag0 Pr1 3.633857 1_555
Ag1 Sb2 2.869452 1_555
Ag1 Sb2 2.869452 1_655
Ag1 Sb3 2.869452 1_565
Ag1 Sb3 2.869452 1_555
Ag1 Pr0 3.633857 1_555
Ag1 Pr0 3.633857 1_655
Ag1 Pr1 3.633857 1_565
Ag1 Pr1 3.633857 1_555
Sb0 Sb1 3.091396 1_545
Sb0 Sb1 3.091396 1_445
Sb0 Sb1 3.091396 1_455
Sb0 Sb1 3.091396 1_555
