# generated using pymatgen
data_KPu
_symmetry_space_group_name_H-M   'P 1'
_cell_length_a   8.74480590
_cell_length_b   8.74480590
_cell_length_c   8.74480604
_cell_angle_alpha   107.85320191
_cell_angle_beta   107.85320191
_cell_angle_gamma   107.85320030
_symmetry_Int_Tables_number   1
_chemical_formula_structural   KPu
_chemical_formula_sum   'K6 Pu6'
_cell_volume   543.44150708
_cell_formula_units_Z   6
loop_
 _symmetry_equiv_pos_site_id
 _symmetry_equiv_pos_as_xyz
  1  'x, y, z'
loop_
 _atom_site_type_symbol
 _atom_site_label
 _atom_site_symmetry_multiplicity
 _atom_site_fract_x
 _atom_site_fract_y
 _atom_site_fract_z
 _atom_site_occupancy
  K  K0  1  0.60098800  0.54877300  0.84880500  1
  K  K1  1  0.84880500  0.60098800  0.54877300  1
  K  K2  1  0.54877300  0.84880500  0.60098800  1
  K  K3  1  0.39901200  0.45122700  0.15119500  1
  K  K4  1  0.15119500  0.39901200  0.45122700  1
  K  K5  1  0.45122700  0.15119500  0.39901200  1
  Pu  Pu0  1  0.31820300  0.80994400  0.95913700  1
  Pu  Pu1  1  0.95913700  0.31820300  0.80994400  1
  Pu  Pu2  1  0.80994400  0.95913700  0.31820300  1
  Pu  Pu3  1  0.68179700  0.19005600  0.04086300  1
  Pu  Pu4  1  0.04086300  0.68179700  0.19005600  1
  Pu  Pu5  1  0.19005600  0.04086300  0.68179700  1
loop_
_geom_bond_atom_site_label_1
_geom_bond_atom_site_label_2
_geom_bond_distance
_geom_bond_site_symmetry_2
K0 Pu4 3.625515 1_656
K0 K3 3.763357 1_556
K0 K4 3.865054 1_555
K0 K5 3.865054 1_555
K0 K2 3.924663 1_555
K0 K1 3.924663 1_555
K0 Pu2 3.926104 1_556
K0 Pu0 3.979588 1_555
K0 Pu3 4.125799 1_556
K0 Pu5 4.218057 1_555
K0 Pu1 4.253762 1_555
K1 Pu5 3.625515 1_665
K1 K4 3.763357 1_655
K1 K3 3.865054 1_555
K1 K5 3.865054 1_555
K1 K2 3.924662 1_555
K1 Pu0 3.926104 1_655
K1 Pu1 3.979588 1_555
K1 Pu4 4.125799 1_655
K1 Pu3 4.218057 1_555
K1 Pu2 4.253762 1_555
K2 Pu3 3.625515 1_566
K2 K5 3.763357 1_565
K2 K3 3.865054 1_555
K2 K4 3.865054 1_555
K2 Pu1 3.926104 1_565
K2 Pu2 3.979588 1_555
K2 Pu5 4.125799 1_565
K2 Pu4 4.218057 1_555
K2 Pu0 4.253762 1_555
K3 Pu1 3.625515 1_454
K3 K5 3.924663 1_555
K3 K4 3.924663 1_555
K3 Pu5 3.926104 1_554
K3 Pu3 3.979588 1_555
K3 Pu0 4.125799 1_554
K3 Pu2 4.218057 1_555
K3 Pu4 4.253762 1_555
K4 Pu2 3.625515 1_445
K4 K5 3.924662 1_555
K4 Pu3 3.926104 1_455
K4 Pu4 3.979588 1_555
K4 Pu1 4.125799 1_455
K4 Pu0 4.218057 1_555
K4 Pu5 4.253762 1_555
K5 Pu0 3.625515 1_544
K5 Pu4 3.926104 1_545
K5 Pu5 3.979588 1_555
K5 Pu2 4.125799 1_545
K5 Pu1 4.218057 1_555
K5 Pu3 4.253762 1_555
Pu0 Pu3 3.512698 1_566
Pu0 Pu5 3.733569 1_565
Pu0 Pu4 3.733569 1_556
Pu0 Pu2 3.977698 1_556
Pu0 Pu1 3.977698 1_455
Pu1 Pu4 3.512698 1_656
Pu1 Pu5 3.733569 1_655
Pu1 Pu3 3.733569 1_556
Pu1 Pu2 3.977698 1_545
Pu2 Pu5 3.512698 1_665
Pu2 Pu4 3.733569 1_655
Pu2 Pu3 3.733569 1_565
Pu3 Pu5 3.977698 1_554
Pu3 Pu4 3.977698 1_655
Pu4 Pu5 3.977698 1_565
