# generated using pymatgen
data_Ba8CuSi16
_symmetry_space_group_name_H-M   'P 1'
_cell_length_a   7.20924031
_cell_length_b   8.43367808
_cell_length_c   12.16464218
_cell_angle_alpha   88.74892399
_cell_angle_beta   91.69090248
_cell_angle_gamma   95.47395331
_symmetry_Int_Tables_number   1
_chemical_formula_structural   Ba8CuSi16
_chemical_formula_sum   'Ba8 Cu1 Si16'
_cell_volume   735.78732390
_cell_formula_units_Z   1
loop_
 _symmetry_equiv_pos_site_id
 _symmetry_equiv_pos_as_xyz
  1  'x, y, z'
loop_
 _atom_site_type_symbol
 _atom_site_label
 _atom_site_symmetry_multiplicity
 _atom_site_fract_x
 _atom_site_fract_y
 _atom_site_fract_z
 _atom_site_occupancy
  Ba  Ba0  1  0.76878600  0.01613800  0.29933100  1
  Ba  Ba1  1  0.26409400  0.51086300  0.78859700  1
  Ba  Ba2  1  0.27102500  0.00261200  0.70670300  1
  Ba  Ba3  1  0.67601000  0.51872500  0.23124300  1
  Ba  Ba4  1  0.74227600  0.19633000  0.90643300  1
  Ba  Ba5  1  0.22360400  0.33656100  0.42706500  1
  Ba  Ba6  1  0.29371000  0.77179800  0.09464700  1
  Ba  Ba7  1  0.71171900  0.70567700  0.57953300  1
  Cu  Cu0  1  0.03024400  0.96887800  0.97655500  1
  Si  Si0  1  0.71797400  0.56870600  0.91362400  1
  Si  Si1  1  0.23106500  0.94541700  0.42879300  1
  Si  Si2  1  0.27216400  0.38386600  0.07492600  1
  Si  Si3  1  0.69249700  0.09961400  0.57839500  1
  Si  Si4  1  0.75749800  0.80871200  0.02696700  1
  Si  Si5  1  0.21838100  0.69204700  0.53294600  1
  Si  Si6  1  0.28424600  0.16443000  0.94870800  1
  Si  Si7  1  0.72939400  0.33626300  0.47523500  1
  Si  Si8  1  0.91630800  0.79023500  0.84014700  1
  Si  Si9  1  0.05671900  0.70072900  0.36032600  1
  Si  Si10  1  0.46111700  0.17084600  0.12604700  1
  Si  Si11  1  0.57486100  0.32576600  0.64600100  1
  Si  Si12  1  0.13398600  0.11105800  0.13576900  1
  Si  Si13  1  0.99276600  0.33382000  0.17936400  1
  Si  Si14  1  0.58680300  0.81358600  0.85503500  1
  Si  Si15  1  0.39275200  0.72732400  0.36761100  1
loop_
_geom_bond_atom_site_label_1
_geom_bond_atom_site_label_2
_geom_bond_distance
_geom_bond_site_symmetry_2
Ba0 Si13 3.325397 1_555
Ba0 Si10 3.349880 1_555
Ba0 Si12 3.371771 1_655
Ba0 Si7 3.518939 1_555
Ba0 Si3 3.551142 1_555
Ba0 Si15 3.571649 1_545
Ba0 Si9 3.579341 1_645
Ba0 Si1 3.737801 1_645
Ba0 Si4 3.775485 1_545
Ba1 Si14 3.380799 1_555
Ba1 Si11 3.388217 1_555
Ba1 Si5 3.455881 1_555
Ba1 Si6 3.488089 1_555
Ba1 Si0 3.562603 1_555
Ba1 Si2 3.622082 1_556
Ba1 Si8 3.676329 1_455
Ba2 Si6 3.266831 1_555
Ba2 Si14 3.362174 1_545
Ba2 Si5 3.387731 1_545
Ba2 Si8 3.409815 1_445
Ba2 Si11 3.411677 1_555
Ba2 Si1 3.425180 1_545
Ba2 Si3 3.476743 1_555
Ba3 Si13 2.975267 1_555
Ba3 Si15 3.321093 1_555
Ba3 Si7 3.342410 1_555
Ba3 Si9 3.376669 1_655
Ba3 Si10 3.438775 1_555
Ba3 Si4 3.471018 1_555
Ba3 Si2 3.538614 1_555
Ba4 Cu0 3.049763 1_645
Ba4 Si0 3.165273 1_555
Ba4 Si6 3.341415 1_555
Ba4 Si14 3.379839 1_545
Ba4 Si10 3.391625 1_556
Ba4 Si11 3.543959 1_555
Ba4 Si4 3.563459 1_546
Ba4 Si13 3.878597 1_556
Ba5 Si5 3.292678 1_555
Ba5 Si1 3.303946 1_545
Ba5 Si13 3.398396 1_455
Ba5 Si15 3.471614 1_555
Ba5 Si9 3.475310 1_555
Ba5 Si11 3.626189 1_555
Ba5 Si7 3.627521 1_455
Ba5 Si7 3.676263 1_555
Ba6 Cu0 2.961583 1_554
Ba6 Si12 3.238479 1_565
Ba6 Si2 3.274260 1_555
Ba6 Si15 3.396039 1_555
Ba6 Si4 3.450624 1_555
Ba6 Si10 3.490368 1_565
Ba6 Si14 3.641626 1_554
Ba6 Si9 3.710704 1_555
Ba7 Si3 3.338119 1_565
Ba7 Si11 3.350221 1_555
Ba7 Si7 3.404454 1_555
Ba7 Si15 3.417108 1_555
Ba7 Si8 3.515215 1_555
Ba7 Si5 3.576258 1_555
Ba7 Si14 3.652211 1_555
Ba7 Si9 3.703313 1_655
Ba7 Si5 3.725766 1_655
Cu0 Si8 2.343218 1_455
Cu0 Si12 2.364984 1_566
Cu0 Si4 2.365428 1_456
Cu0 Si6 2.371471 1_565
Si0 Si8 2.413867 1_555
Si0 Si14 2.436384 1_555
Si0 Si4 2.463327 1_556
Si1 Si15 2.411592 1_555
Si1 Si5 2.455817 1_555
Si1 Si9 2.459762 1_555
Si2 Si6 2.439810 1_554
Si3 Si7 2.331928 1_555
Si4 Si8 2.588983 1_554
Si5 Si9 2.374492 1_555
Si10 Si12 2.370044 1_555
Si10 Si2 2.416200 1_555
Si10 Si6 2.472289 1_554
Si11 Si3 2.334863 1_555
Si11 Si7 2.381998 1_555
Si12 Si13 2.299467 1_455
Si12 Si2 2.523009 1_555
Si12 Si6 2.561605 1_554
Si13 Si2 2.411387 1_655
Si14 Si4 2.396740 1_556
Si14 Si8 2.414682 1_555
Si15 Si5 2.401163 1_555
Si15 Si9 2.410686 1_555
