# generated using pymatgen
data_K2ThO3
_symmetry_space_group_name_H-M   'P 1'
_cell_length_a   6.41860493
_cell_length_b   6.41860493
_cell_length_c   12.70946751
_cell_angle_alpha   85.06562274
_cell_angle_beta   85.06562274
_cell_angle_gamma   120.10510110
_symmetry_Int_Tables_number   1
_chemical_formula_structural   K2ThO3
_chemical_formula_sum   'K8 Th4 O12'
_cell_volume   446.20452263
_cell_formula_units_Z   4
loop_
 _symmetry_equiv_pos_site_id
 _symmetry_equiv_pos_as_xyz
  1  'x, y, z'
loop_
 _atom_site_type_symbol
 _atom_site_label
 _atom_site_symmetry_multiplicity
 _atom_site_fract_x
 _atom_site_fract_y
 _atom_site_fract_z
 _atom_site_occupancy
  K  K0  1  0.65684553  0.81329377  0.00046874  1
  K  K1  1  0.34315447  0.18670623  0.99953126  1
  K  K2  1  0.18670623  0.34315447  0.49953126  1
  K  K3  1  0.81329377  0.65684553  0.50046874  1
  K  K4  1  0.58452827  0.41547173  0.25000000  1
  K  K5  1  0.41547173  0.58452827  0.75000000  1
  K  K6  1  0.50000000  -0.00000000  0.50000000  1
  K  K7  1  -0.00000000  0.50000000  0.00000000  1
  Th  Th0  1  0.25028143  0.74971857  0.25000000  1
  Th  Th1  1  0.74971857  0.25028143  0.75000000  1
  Th  Th2  1  0.91766979  0.08233021  0.25000000  1
  Th  Th3  1  0.08233021  0.91766979  0.75000000  1
  O  O0  1  0.83321459  0.00133390  0.65121724  1
  O  O1  1  0.16678541  0.99866610  0.34878276  1
  O  O2  1  0.99866610  0.16678541  0.84878276  1
  O  O3  1  0.00133390  0.83321459  0.15121724  1
  O  O4  1  0.55000873  0.76372166  0.34889158  1
  O  O5  1  0.44999127  0.23627834  0.65110842  1
  O  O6  1  0.23627834  0.44999127  0.15110842  1
  O  O7  1  0.76372166  0.55000873  0.84889158  1
  O  O8  1  0.61806283  0.06580404  0.15140083  1
  O  O9  1  0.38193717  0.93419596  0.84859917  1
  O  O10  1  0.93419596  0.38193717  0.34859917  1
  O  O11  1  0.06580404  0.61806283  0.65140083  1
loop_
_geom_bond_atom_site_label_1
_geom_bond_atom_site_label_2
_geom_bond_distance
_geom_bond_site_symmetry_2
K0 O2 2.684088 1_564
K0 O8 2.688128 1_565
K0 O6 2.901437 1_555
K0 O7 2.921193 1_554
K0 O3 3.010576 1_655
K0 O9 3.023783 1_554
K1 O3 2.684088 1_546
K1 O9 2.688128 1_545
K1 O7 2.901437 1_555
K1 O6 2.921193 1_556
K1 O2 3.010576 1_455
K1 O8 3.023783 1_556
K2 O0 2.684088 1_455
K2 O10 2.688128 1_455
K2 O4 2.901437 1_555
K2 O5 2.921193 1_555
K2 O1 3.010576 1_545
K2 O11 3.023783 1_555
K3 O1 2.684088 1_655
K3 O11 2.688128 1_655
K3 O5 2.901437 1_555
K3 O4 2.921193 1_555
K3 O0 3.010576 1_565
K3 O10 3.023783 1_555
K4 O6 2.749090 1_555
K4 O4 2.749090 1_555
K4 O3 2.751352 1_655
K4 O1 2.751352 1_545
K4 O8 2.752453 1_555
K4 O10 2.752453 1_555
K5 O7 2.749090 1_555
K5 O5 2.749090 1_555
K5 O0 2.751352 1_565
K5 O2 2.751352 1_455
K5 O11 2.752453 1_555
K5 O9 2.752453 1_555
K6 O5 2.640973 1_555
K6 O4 2.640973 1_545
K6 O10 2.981876 1_555
K6 O11 2.981876 1_545
K6 O1 2.993271 1_545
K6 O0 2.993271 1_555
K7 O7 2.640973 1_454
K7 O6 2.640973 1_555
K7 O9 2.981876 1_554
K7 O8 2.981876 1_455
K7 O2 2.993271 1_454
K7 O3 2.993271 1_555
O0 Th1 2.346306 1_555
O0 Th3 2.347779 1_645
O1 Th0 2.346306 1_555
O1 Th2 2.347779 1_465
O2 Th1 2.346306 1_555
O2 Th3 2.347779 1_645
O3 Th0 2.346306 1_555
O3 Th2 2.347779 1_465
O4 Th2 2.353100 1_565
O4 Th0 2.356021 1_555
O5 Th3 2.353100 1_545
O5 Th1 2.356021 1_555
O6 Th2 2.353100 1_455
O6 Th0 2.356021 1_555
O7 Th3 2.353100 1_655
O7 Th1 2.356021 1_555
O8 Th0 2.346983 1_545
O8 Th2 2.347887 1_555
O9 Th1 2.346983 1_565
O9 Th3 2.347887 1_555
O10 Th0 2.346983 1_655
O10 Th2 2.347887 1_555
O11 Th1 2.346983 1_455
O11 Th3 2.347887 1_555
