# generated using pymatgen
data_Mg2CrNi3S8
_symmetry_space_group_name_H-M   'P 1'
_cell_length_a   7.07262347
_cell_length_b   7.06677349
_cell_length_c   7.08126420
_cell_angle_alpha   59.77519366
_cell_angle_beta   60.02853336
_cell_angle_gamma   59.94906144
_symmetry_Int_Tables_number   1
_chemical_formula_structural   Mg2CrNi3S8
_chemical_formula_sum   'Mg2 Cr1 Ni3 S8'
_cell_volume   249.79312900
_cell_formula_units_Z   1
loop_
 _symmetry_equiv_pos_site_id
 _symmetry_equiv_pos_as_xyz
  1  'x, y, z'
loop_
 _atom_site_type_symbol
 _atom_site_label
 _atom_site_symmetry_multiplicity
 _atom_site_fract_x
 _atom_site_fract_y
 _atom_site_fract_z
 _atom_site_occupancy
  Mg  Mg0  1  0.87413200  0.87623800  0.87484000  1
  Mg  Mg1  1  0.12584100  0.12389900  0.12513200  1
  Cr  Cr0  1  0.50009600  0.99977600  0.50017500  1
  Ni  Ni0  1  0.49993100  0.50015900  0.49987800  1
  Ni  Ni1  1  0.49995000  0.50001200  0.99999000  1
  Ni  Ni2  1  0.99998000  0.50006400  0.49991800  1
  S  S0  1  0.73714300  0.72998200  0.73718500  1
  S  S1  1  0.26367700  0.26938700  0.70345800  1
  S  S2  1  0.26783600  0.69816700  0.26630000  1
  S  S3  1  0.70430500  0.26952400  0.26358100  1
  S  S4  1  0.73208900  0.30199400  0.73356800  1
  S  S5  1  0.29561900  0.73040300  0.73647200  1
  S  S6  1  0.26305400  0.26975900  0.26303600  1
  S  S7  1  0.73634900  0.73063200  0.29646600  1
loop_
_geom_bond_atom_site_label_1
_geom_bond_atom_site_label_2
_geom_bond_distance
_geom_bond_site_symmetry_2
Mg0 S0 2.432693 1_555
Mg0 S7 2.434499 1_556
Mg0 S5 2.435160 1_655
Mg0 S4 2.451324 1_565
Mg1 S6 2.433103 1_555
Mg1 S1 2.434771 1_554
Mg1 S3 2.435425 1_455
Mg1 S2 2.451190 1_545
Cr0 S5 2.376457 1_555
Cr0 S0 2.377189 1_555
Cr0 S3 2.377196 1_565
Cr0 S6 2.377889 1_565
Cr0 S7 2.379374 1_555
Cr0 S1 2.379875 1_565
Ni0 S2 2.338914 1_555
Ni0 S4 2.339730 1_555
Ni0 S7 2.341482 1_555
Ni0 S1 2.342068 1_555
Ni0 S5 2.348025 1_555
Ni0 S3 2.348456 1_555
Ni1 S4 2.339905 1_555
Ni1 S2 2.339937 1_556
Ni1 S0 2.342004 1_555
Ni1 S6 2.342059 1_556
Ni1 S5 2.345310 1_555
Ni1 S3 2.345803 1_556
Ni2 S2 2.340676 1_655
Ni2 S4 2.340712 1_555
Ni2 S7 2.341986 1_555
Ni2 S1 2.342742 1_655
Ni2 S0 2.349735 1_555
Ni2 S6 2.349855 1_655
