# generated using pymatgen
data_Ho(Al5Fe)2
_symmetry_space_group_name_H-M   'P 1'
_cell_length_a   6.69813395
_cell_length_b   6.69813395
_cell_length_c   8.86935064
_cell_angle_alpha   90.00000000
_cell_angle_beta   90.00000000
_cell_angle_gamma   97.39722350
_symmetry_Int_Tables_number   1
_chemical_formula_structural   Ho(Al5Fe)2
_chemical_formula_sum   'Ho2 Al20 Fe4'
_cell_volume   394.61164560
_cell_formula_units_Z   2
loop_
 _symmetry_equiv_pos_site_id
 _symmetry_equiv_pos_as_xyz
  1  'x, y, z'
loop_
 _atom_site_type_symbol
 _atom_site_label
 _atom_site_symmetry_multiplicity
 _atom_site_fract_x
 _atom_site_fract_y
 _atom_site_fract_z
 _atom_site_occupancy
  Ho  Ho0  1  0.87433957  0.12566043  0.75000000  1
  Ho  Ho1  1  0.12566043  0.87433957  0.25000000  1
  Al  Al0  1  0.62550084  0.37449916  0.54936858  1
  Al  Al1  1  0.37449916  0.62550084  0.45063142  1
  Al  Al2  1  0.37449916  0.62550084  0.04936858  1
  Al  Al3  1  0.62550084  0.37449916  0.95063142  1
  Al  Al4  1  0.22789972  0.22789972  0.50000000  1
  Al  Al5  1  0.77210028  0.77210028  0.50000000  1
  Al  Al6  1  0.77210028  0.77210028  -0.00000000  1
  Al  Al7  1  0.22789972  0.22789972  -0.00000000  1
  Al  Al8  1  0.84127931  0.15872069  0.09698639  1
  Al  Al9  1  0.15872069  0.84127931  0.90301361  1
  Al  Al10  1  0.15872069  0.84127931  0.59698639  1
  Al  Al11  1  0.84127931  0.15872069  0.40301361  1
  Al  Al12  1  0.86616211  0.58632970  0.75000000  1
  Al  Al13  1  0.13383789  0.41367030  0.25000000  1
  Al  Al14  1  0.41367030  0.13383789  0.75000000  1
  Al  Al15  1  0.58632970  0.86616211  0.25000000  1
  Al  Al16  1  0.21893753  0.47893891  0.75000000  1
  Al  Al17  1  0.78106247  0.52106109  0.25000000  1
  Al  Al18  1  0.52106109  0.78106247  0.75000000  1
  Al  Al19  1  0.47893891  0.21893753  0.25000000  1
  Fe  Fe0  1  0.00000000  0.50000000  0.50000000  1
  Fe  Fe1  1  0.00000000  0.50000000  -0.00000000  1
  Fe  Fe2  1  0.50000000  -0.00000000  -0.00000000  1
  Fe  Fe3  1  0.50000000  -0.00000000  0.50000000  1
loop_
_geom_bond_atom_site_label_1
_geom_bond_atom_site_label_2
_geom_bond_distance
_geom_bond_site_symmetry_2
Al0 Al11 2.529969 1_555
Al0 Fe0 2.578314 1_655
Al0 Fe3 2.578314 1_555
Al0 Al1 2.673555 1_555
Al0 Al12 2.681277 1_555
Al0 Al14 2.681277 1_555
Al0 Al5 2.752294 1_555
Al0 Al4 2.752294 1_555
Al0 Al19 2.972566 1_555
Al0 Al17 2.972566 1_555
Al0 Ho0 3.072133 1_555
Al1 Al10 2.529969 1_555
Al1 Fe3 2.578314 1_565
Al1 Fe0 2.578314 1_555
Al1 Al15 2.681277 1_555
Al1 Al13 2.681277 1_555
Al1 Al5 2.752294 1_555
Al1 Al4 2.752294 1_555
Al1 Al16 2.972566 1_555
Al1 Al18 2.972566 1_555
Al1 Ho1 3.072133 1_555
Al2 Al9 2.529969 1_554
Al2 Fe2 2.578314 1_565
Al2 Fe1 2.578314 1_555
Al2 Al3 2.673555 1_554
Al2 Al6 2.752294 1_555
Al2 Al7 2.752294 1_555
Al2 Ho1 3.072133 1_555
Al3 Al8 2.529969 1_556
Al3 Fe1 2.578314 1_656
Al3 Fe2 2.578314 1_556
Al3 Al6 2.752294 1_556
Al3 Al7 2.752294 1_556
Al3 Ho0 3.072133 1_555
Al4 Fe0 2.523557 1_555
Al4 Fe3 2.523557 1_555
Al4 Ho1 3.252122 1_545
Al4 Ho0 3.252122 1_455
Al5 Fe3 2.523557 1_565
Al5 Fe0 2.523557 1_655
Al5 Ho0 3.252122 1_565
Al5 Ho1 3.252122 1_655
Al6 Fe1 2.523557 1_655
Al6 Fe2 2.523557 1_565
Al6 Al9 2.711438 1_654
Al6 Al8 2.711438 1_565
Al6 Ho1 3.252122 1_655
Al6 Ho0 3.252122 1_564
Al7 Fe2 2.523557 1_555
Al7 Fe1 2.523557 1_555
Al7 Al9 2.711438 1_544
Al7 Al8 2.711438 1_455
Al7 Ho1 3.252122 1_545
Al7 Ho0 3.252122 1_454
Al8 Fe1 2.543605 1_655
Al8 Fe2 2.543605 1_555
Al8 Ho0 3.095477 1_554
Al8 Ho1 3.167458 1_645
Al9 Fe2 2.543605 1_566
Al9 Fe1 2.543605 1_556
Al9 Ho1 3.095477 1_556
Al9 Ho0 3.167458 1_465
Al10 Fe0 2.543605 1_555
Al10 Fe3 2.543605 1_565
Al10 Al4 2.711438 1_565
Al10 Al5 2.711438 1_455
Al10 Al9 2.714263 1_555
Al10 Al12 2.781428 1_455
Al10 Al14 2.781428 1_565
Al10 Al18 2.854278 1_555
Al10 Al16 2.854278 1_555
Al10 Ho1 3.095477 1_555
Al10 Ho0 3.167458 1_465
Al11 Fe0 2.543605 1_655
Al11 Fe3 2.543605 1_555
Al11 Al4 2.711438 1_655
Al11 Al5 2.711438 1_545
Al11 Al8 2.714263 1_555
Al11 Al15 2.781428 1_545
Al11 Al13 2.781428 1_655
Al11 Al17 2.854278 1_555
Al11 Al19 2.854278 1_555
Al11 Ho0 3.095477 1_555
Al11 Ho1 3.167458 1_645
Al12 Fe1 2.487586 1_656
Al12 Fe0 2.487586 1_655
Al12 Al16 2.557060 1_655
Al12 Al6 2.657767 1_556
Al12 Al5 2.657767 1_555
Al12 Al3 2.681277 1_555
Al12 Al9 2.781428 1_655
Al12 Al18 2.796580 1_555
Al12 Ho0 3.093153 1_555
Al13 Fe0 2.487586 1_555
Al13 Fe1 2.487586 1_555
Al13 Al17 2.557060 1_455
Al13 Al4 2.657767 1_555
Al13 Al7 2.657767 1_555
Al13 Al2 2.681277 1_555
Al13 Al8 2.781428 1_455
Al13 Al19 2.796580 1_555
Al13 Ho1 3.093153 1_555
Al14 Fe2 2.487586 1_556
Al14 Fe3 2.487586 1_555
Al14 Al18 2.557060 1_545
Al14 Al4 2.657767 1_555
Al14 Al7 2.657767 1_556
Al14 Al3 2.681277 1_555
Al14 Al9 2.781428 1_545
Al14 Al16 2.796580 1_555
Al14 Ho0 3.093153 1_555
Al15 Fe2 2.487586 1_565
Al15 Fe3 2.487586 1_565
Al15 Al19 2.557060 1_565
Al15 Al6 2.657767 1_555
Al15 Al5 2.657767 1_555
Al15 Al2 2.681277 1_555
Al15 Al8 2.781428 1_565
Al15 Al17 2.796580 1_555
Al15 Ho1 3.093153 1_555
Al16 Al18 2.671317 1_555
Al16 Fe0 2.672134 1_555
Al16 Fe1 2.672134 1_556
Al16 Al7 2.788118 1_556
Al16 Al4 2.788118 1_555
Al16 Al9 2.854278 1_555
Al16 Al2 2.972566 1_556
Al16 Ho0 3.085552 1_455
Al17 Al19 2.671317 1_555
Al17 Fe0 2.672134 1_655
Al17 Fe1 2.672134 1_655
Al17 Al5 2.788118 1_555
Al17 Al6 2.788118 1_555
Al17 Al8 2.854278 1_555
Al17 Al3 2.972566 1_554
Al17 Ho1 3.085552 1_655
Al18 Fe3 2.672134 1_565
Al18 Fe2 2.672134 1_566
Al18 Al5 2.788118 1_555
Al18 Al6 2.788118 1_556
Al18 Al9 2.854278 1_555
Al18 Al2 2.972566 1_556
Al18 Ho0 3.085552 1_565
Al19 Fe3 2.672134 1_555
Al19 Fe2 2.672134 1_555
Al19 Al4 2.788118 1_555
Al19 Al7 2.788118 1_555
Al19 Al8 2.854278 1_555
Al19 Al3 2.972566 1_554
Al19 Ho1 3.085552 1_545
