# generated using pymatgen
data_Ho3Ga8Ag3
_symmetry_space_group_name_H-M   'P 1'
_cell_length_a   4.37201900
_cell_length_b   8.29646981
_cell_length_c   8.29646981
_cell_angle_alpha   70.19161461
_cell_angle_beta   74.72294444
_cell_angle_gamma   74.72294444
_symmetry_Int_Tables_number   1
_chemical_formula_structural   Ho3Ga8Ag3
_chemical_formula_sum   'Ho3 Ga8 Ag3'
_cell_volume   268.04361184
_cell_formula_units_Z   1
loop_
 _symmetry_equiv_pos_site_id
 _symmetry_equiv_pos_as_xyz
  1  'x, y, z'
loop_
 _atom_site_type_symbol
 _atom_site_label
 _atom_site_symmetry_multiplicity
 _atom_site_fract_x
 _atom_site_fract_y
 _atom_site_fract_z
 _atom_site_occupancy
  Ho  Ho0  1  0.50000000  0.50000000  0.50000000  1
  Ho  Ho1  1  0.20419800  0.79580200  0.79580200  1
  Ho  Ho2  1  0.79580200  0.20419800  0.20419800  1
  Ga  Ga0  1  0.35769300  0.36154900  0.92306400  1
  Ga  Ga1  1  0.64230700  0.63845100  0.07693600  1
  Ga  Ga2  1  0.35769300  0.92306400  0.36154900  1
  Ga  Ga3  1  0.64230700  0.07693600  0.63845100  1
  Ga  Ga4  1  0.15740600  0.47349500  0.21169200  1
  Ga  Ga5  1  0.84259400  0.52650500  0.78830800  1
  Ga  Ga6  1  0.15740600  0.21169200  0.47349500  1
  Ga  Ga7  1  0.84259400  0.78830800  0.52650500  1
  Ag  Ag0  1  0.50000000  0.00000000  0.00000000  1
  Ag  Ag1  1  0.00000000  0.81130000  0.18870000  1
  Ag  Ag2  1  0.00000000  0.18870000  0.81130000  1
loop_
_geom_bond_atom_site_label_1
_geom_bond_atom_site_label_2
_geom_bond_distance
_geom_bond_site_symmetry_2
Ho0 Ho2 3.801934 1_555
Ho0 Ho1 3.801934 1_555
Ga0 Ga5 2.619185 1_455
Ga0 Ga5 2.619193 1_555
Ga0 Ga4 2.708727 1_556
Ga0 Ho2 3.128281 1_456
Ga0 Ho2 3.128284 1_556
Ga0 Ho0 3.243376 1_555
Ga0 Ho1 3.326597 1_555
Ga1 Ga4 2.619185 1_655
Ga1 Ga4 2.619193 1_555
Ga1 Ga5 2.708727 1_554
Ga1 Ho1 3.128281 1_654
Ga1 Ho1 3.128284 1_554
Ga1 Ho0 3.243376 1_555
Ga1 Ho2 3.326597 1_555
Ga2 Ga7 2.619185 1_455
Ga2 Ga7 2.619193 1_555
Ga2 Ga6 2.708727 1_565
Ga2 Ho2 3.128281 1_465
Ga2 Ho2 3.128284 1_565
Ga2 Ho0 3.243376 1_555
Ga2 Ho1 3.326597 1_555
Ga3 Ga6 2.619185 1_655
Ga3 Ga6 2.619193 1_555
Ga3 Ga7 2.708727 1_545
Ga3 Ho1 3.128281 1_645
Ga3 Ho1 3.128284 1_545
Ga3 Ho0 3.243376 1_555
Ga3 Ho2 3.326597 1_555
Ga4 Ga6 2.497610 1_555
Ga4 Ho2 3.082572 1_455
Ga4 Ho2 3.082574 1_555
Ga4 Ho0 3.229743 1_455
Ga4 Ho0 3.229746 1_555
Ga4 Ho1 3.572202 1_554
Ga5 Ga7 2.497610 1_555
Ga5 Ho1 3.082572 1_655
Ga5 Ho1 3.082574 1_555
Ga5 Ho0 3.229743 1_655
Ga5 Ho0 3.229746 1_555
Ga5 Ho2 3.572202 1_556
Ga6 Ho2 3.082572 1_455
Ga6 Ho2 3.082574 1_555
Ga6 Ho0 3.229743 1_455
Ga6 Ho0 3.229746 1_555
Ga6 Ho1 3.572202 1_545
Ga7 Ho1 3.082572 1_655
Ga7 Ho1 3.082574 1_555
Ga7 Ho0 3.229743 1_655
Ga7 Ho0 3.229746 1_555
Ga7 Ho2 3.572202 1_565
Ag0 Ga0 2.778520 1_554
Ag0 Ga2 2.778520 1_545
Ag0 Ga1 2.778520 1_545
Ag0 Ga3 2.778520 1_554
Ag0 Ag1 2.831850 1_545
Ag0 Ag2 2.831850 1_654
Ag0 Ag1 2.831850 1_645
Ag0 Ag2 2.831850 1_554
Ag0 Ho1 3.415685 1_644
Ag0 Ho2 3.415685 1_455
Ag0 Ho1 3.415685 1_544
Ag0 Ho2 3.415685 1_555
Ag1 Ga7 2.656119 1_455
Ag1 Ga4 2.656119 1_555
Ag1 Ga2 2.865134 1_555
Ag1 Ga1 2.865134 1_455
Ag1 Ga2 2.865137 1_455
Ag1 Ga1 2.865137 1_555
Ag1 Ho2 3.182609 1_465
Ag1 Ho1 3.182609 1_554
Ag2 Ga5 2.656119 1_455
Ag2 Ga6 2.656119 1_555
Ag2 Ga0 2.865134 1_555
Ag2 Ga3 2.865134 1_455
Ag2 Ga0 2.865137 1_455
Ag2 Ga3 2.865137 1_555
Ag2 Ho2 3.182609 1_456
Ag2 Ho1 3.182609 1_545
