# generated using pymatgen
data_ErAgS2
_symmetry_space_group_name_H-M   'P 1'
_cell_length_a   7.66185600
_cell_length_b   7.66076000
_cell_length_c   12.20019277
_cell_angle_alpha   89.90786323
_cell_angle_beta   90.00000000
_cell_angle_gamma   90.00000000
_symmetry_Int_Tables_number   1
_chemical_formula_structural   ErAgS2
_chemical_formula_sum   'Er8 Ag8 S16'
_cell_volume   716.09719677
_cell_formula_units_Z   8
loop_
 _symmetry_equiv_pos_site_id
 _symmetry_equiv_pos_as_xyz
  1  'x, y, z'
loop_
 _atom_site_type_symbol
 _atom_site_label
 _atom_site_symmetry_multiplicity
 _atom_site_fract_x
 _atom_site_fract_y
 _atom_site_fract_z
 _atom_site_occupancy
  Er  Er0  1  0.50175200  0.74713000  0.00164300  1
  Er  Er1  1  0.00175200  0.25287000  0.99835700  1
  Er  Er2  1  0.25382200  0.00060400  0.75457000  1
  Er  Er3  1  0.75382200  0.99939600  0.24543000  1
  Er  Er4  1  0.74822400  0.49782000  0.74629800  1
  Er  Er5  1  0.24822400  0.50218000  0.25370200  1
  Er  Er6  1  0.00179600  0.75300300  0.50318900  1
  Er  Er7  1  0.50179600  0.24699700  0.49681100  1
  Ag  Ag0  1  0.25036900  0.50256800  0.78028200  1
  Ag  Ag1  1  0.75036900  0.49743200  0.21971800  1
  Ag  Ag2  1  0.75428000  0.99736900  0.70423200  1
  Ag  Ag3  1  0.25428000  0.00263100  0.29576800  1
  Ag  Ag4  1  0.00365600  0.75185700  0.01856900  1
  Ag  Ag5  1  0.50365600  0.24814300  0.98143100  1
  Ag  Ag6  1  0.50135700  0.74471800  0.51543900  1
  Ag  Ag7  1  0.00135700  0.25528200  0.48456100  1
  S  S0  1  0.77014300  0.01750000  0.46875000  1
  S  S1  1  0.27014300  0.98250000  0.53125000  1
  S  S2  1  0.24001900  0.48694500  0.47925500  1
  S  S3  1  0.74001900  0.51305500  0.52074500  1
  S  S4  1  0.52347700  0.72883800  0.22782700  1
  S  S5  1  0.02347700  0.27116200  0.77217300  1
  S  S6  1  0.48154500  0.72873400  0.77760300  1
  S  S7  1  0.98154500  0.27126600  0.22239700  1
  S  S8  1  0.98185100  0.76882300  0.72955200  1
  S  S9  1  0.48185100  0.23117700  0.27044800  1
  S  S10  1  0.52620400  0.22552500  0.71979100  1
  S  S11  1  0.02620400  0.77447500  0.28020900  1
  S  S12  1  0.27363200  0.02103100  0.97873200  1
  S  S13  1  0.77363200  0.97896900  0.02126800  1
  S  S14  1  0.73087200  0.47839700  0.96973500  1
  S  S15  1  0.23087200  0.52160300  0.03026500  1
loop_
_geom_bond_atom_site_label_1
_geom_bond_atom_site_label_2
_geom_bond_distance
_geom_bond_site_symmetry_2
Er0 S15 2.722579 1_555
Er0 S14 2.733878 1_554
Er0 S6 2.741563 1_554
Er0 S12 2.744804 1_564
Er0 S13 2.748167 1_555
Er0 S4 2.767829 1_555
Er1 S14 2.722579 1_455
Er1 S15 2.733878 1_556
Er1 S7 2.741563 1_456
Er1 S13 2.744804 1_446
Er1 S12 2.748167 1_555
Er1 S5 2.767829 1_555
Er2 S5 2.730993 1_555
Er2 S6 2.731137 1_545
Er2 S1 2.731162 1_545
Er2 S10 2.738980 1_555
Er2 S12 2.743746 1_555
Er2 S8 2.754988 1_445
Er3 S4 2.730993 1_555
Er3 S7 2.731137 1_565
Er3 S0 2.731162 1_565
Er3 S11 2.738980 1_655
Er3 S13 2.743746 1_555
Er3 S9 2.754988 1_565
Er4 S10 2.711417 1_555
Er4 S6 2.729875 1_555
Er4 S14 2.733029 1_555
Er4 S8 2.748578 1_555
Er4 S5 2.749645 1_655
Er4 S3 2.754794 1_555
Er5 S11 2.711417 1_555
Er5 S7 2.729875 1_455
Er5 S15 2.733029 1_555
Er5 S9 2.748578 1_555
Er5 S4 2.749645 1_555
Er5 S2 2.754794 1_555
Er6 S0 2.725751 1_465
Er6 S1 2.727162 1_555
Er6 S3 2.728801 1_455
Er6 S11 2.731513 1_555
Er6 S2 2.751896 1_555
Er6 S8 2.768745 1_455
Er7 S1 2.725751 1_545
Er7 S0 2.727162 1_555
Er7 S2 2.728801 1_555
Er7 S10 2.731513 1_555
Er7 S3 2.751896 1_555
Er7 S9 2.768745 1_555
Ag0 S6 2.477919 1_555
Ag0 S5 2.484967 1_555
Ag0 S8 2.961775 1_455
Ag0 S15 3.057211 1_556
Ag0 S10 3.085545 1_555
Ag1 S7 2.477919 1_555
Ag1 S4 2.484967 1_555
Ag1 S9 2.961775 1_555
Ag1 S14 3.057211 1_554
Ag1 S11 3.085545 1_655
Ag2 S10 2.479068 1_565
Ag2 S8 2.489841 1_555
Ag2 S0 2.879381 1_565
Ag2 S5 3.057141 1_665
Ag2 S6 3.065480 1_555
Ag3 S11 2.479068 1_545
Ag3 S9 2.489841 1_555
Ag3 S1 2.879381 1_545
Ag3 S4 3.057141 1_545
Ag3 S7 3.065480 1_455
Ag4 S13 2.476780 1_455
Ag4 S15 2.482275 1_555
Ag4 S12 2.960392 1_564
Ag4 S14 3.019248 1_454
Ag4 S11 3.201700 1_555
Ag5 S12 2.476780 1_555
Ag5 S14 2.482275 1_555
Ag5 S13 2.960392 1_546
Ag5 S15 3.019248 1_556
Ag5 S10 3.201700 1_555
Ag6 S1 2.548499 1_555
Ag6 S3 2.548958 1_555
Ag6 S2 2.847211 1_555
Ag6 S0 2.988089 1_565
Ag6 S6 3.204195 1_555
Ag7 S0 2.548499 1_455
Ag7 S2 2.548958 1_555
Ag7 S3 2.847211 1_455
Ag7 S1 2.988089 1_545
Ag7 S7 3.204195 1_455
