# generated using pymatgen
data_U2BiSb2
_symmetry_space_group_name_H-M   'P 1'
_cell_length_a   5.84355600
_cell_length_b   5.84355600
_cell_length_c   35.17028400
_cell_angle_alpha   90.00000000
_cell_angle_beta   90.00000000
_cell_angle_gamma   90.00000000
_symmetry_Int_Tables_number   1
_chemical_formula_structural   U2BiSb2
_chemical_formula_sum   'U16 Bi8 Sb16'
_cell_volume   1200.96484811
_cell_formula_units_Z   8
loop_
 _symmetry_equiv_pos_site_id
 _symmetry_equiv_pos_as_xyz
  1  'x, y, z'
loop_
 _atom_site_type_symbol
 _atom_site_label
 _atom_site_symmetry_multiplicity
 _atom_site_fract_x
 _atom_site_fract_y
 _atom_site_fract_z
 _atom_site_occupancy
  U  U0_0  1  0.25000000  0.25000000  0.09342100  1
  U  U0_1  1  0.25000000  0.25000000  0.59342100  1
  U  U0_2  1  0.25000000  0.75000000  0.09342100  1
  U  U0_3  1  0.25000000  0.75000000  0.59342100  1
  U  U0_4  1  0.75000000  0.25000000  0.09342100  1
  U  U0_5  1  0.75000000  0.25000000  0.59342100  1
  U  U0_6  1  0.75000000  0.75000000  0.09342100  1
  U  U0_7  1  0.75000000  0.75000000  0.59342100  1
  U  U1_0  1  0.25000000  0.25000000  0.40657900  1
  U  U1_1  1  0.25000000  0.25000000  0.90657900  1
  U  U1_2  1  0.25000000  0.75000000  0.40657900  1
  U  U1_3  1  0.25000000  0.75000000  0.90657900  1
  U  U1_4  1  0.75000000  0.25000000  0.40657900  1
  U  U1_5  1  0.75000000  0.25000000  0.90657900  1
  U  U1_6  1  0.75000000  0.75000000  0.40657900  1
  U  U1_7  1  0.75000000  0.75000000  0.90657900  1
  Bi  Bi0_0  1  0.25000000  0.25000000  0.00000000  1
  Bi  Bi0_1  1  0.25000000  0.25000000  0.50000000  1
  Bi  Bi0_2  1  0.25000000  0.75000000  0.00000000  1
  Bi  Bi0_3  1  0.25000000  0.75000000  0.50000000  1
  Bi  Bi0_4  1  0.75000000  0.25000000  0.00000000  1
  Bi  Bi0_5  1  0.75000000  0.25000000  0.50000000  1
  Bi  Bi0_6  1  0.75000000  0.75000000  0.00000000  1
  Bi  Bi0_7  1  0.75000000  0.75000000  0.50000000  1
  Sb  Sb0_0  1  0.25000000  0.25000000  0.31563000  1
  Sb  Sb0_1  1  0.25000000  0.25000000  0.81563000  1
  Sb  Sb0_2  1  0.25000000  0.75000000  0.31563000  1
  Sb  Sb0_3  1  0.25000000  0.75000000  0.81563000  1
  Sb  Sb0_4  1  0.75000000  0.25000000  0.31563000  1
  Sb  Sb0_5  1  0.75000000  0.25000000  0.81563000  1
  Sb  Sb0_6  1  0.75000000  0.75000000  0.31563000  1
  Sb  Sb0_7  1  0.75000000  0.75000000  0.81563000  1
  Sb  Sb1_0  1  0.25000000  0.25000000  0.18437000  1
  Sb  Sb1_1  1  0.25000000  0.25000000  0.68437000  1
  Sb  Sb1_2  1  0.25000000  0.75000000  0.18437000  1
  Sb  Sb1_3  1  0.25000000  0.75000000  0.68437000  1
  Sb  Sb1_4  1  0.75000000  0.25000000  0.18437000  1
  Sb  Sb1_5  1  0.75000000  0.25000000  0.68437000  1
  Sb  Sb1_6  1  0.75000000  0.75000000  0.18437000  1
  Sb  Sb1_7  1  0.75000000  0.75000000  0.68437000  1
loop_
_geom_bond_atom_site_label_1
_geom_bond_atom_site_label_2
_geom_bond_distance
_geom_bond_site_symmetry_2
U0_0 U0_2 2.921778 1_545
U0_0 U0_4 2.921778 1_555
U0_0 U0_2 2.921778 1_555
U0_0 U0_4 2.921778 1_455
U0_1 U0_5 2.921778 1_455
U0_1 U0_3 2.921778 1_545
U0_1 U0_5 2.921778 1_555
U0_1 U0_3 2.921778 1_555
U0_2 U0_6 2.921778 1_455
U0_2 U0_6 2.921778 1_555
U0_3 U0_7 2.921778 1_555
U0_3 U0_7 2.921778 1_455
U0_4 U0_6 2.921778 1_545
U0_4 U0_6 2.921778 1_555
U0_5 U0_7 2.921778 1_545
U0_5 U0_7 2.921778 1_555
U1_0 U1_2 2.921778 1_545
U1_0 U1_4 2.921778 1_455
U1_0 U1_4 2.921778 1_555
U1_0 U1_2 2.921778 1_555
U1_1 U1_3 2.921778 1_545
U1_1 U1_3 2.921778 1_555
U1_1 U1_5 2.921778 1_455
U1_1 U1_5 2.921778 1_555
U1_2 U1_6 2.921778 1_555
U1_2 U1_6 2.921778 1_455
U1_3 U1_7 2.921778 1_455
U1_3 U1_7 2.921778 1_555
U1_4 U1_6 2.921778 1_545
U1_4 U1_6 2.921778 1_555
U1_5 U1_7 2.921778 1_555
U1_5 U1_7 2.921778 1_545
Bi0_0 Bi0_2 2.921778 1_555
Bi0_0 Bi0_4 2.921778 1_455
Bi0_0 Bi0_2 2.921778 1_545
Bi0_0 Bi0_4 2.921778 1_555
Bi0_0 U0_0 3.285643 1_555
Bi0_0 U1_1 3.285643 1_554
Bi0_1 Bi0_3 2.921778 1_545
Bi0_1 Bi0_5 2.921778 1_555
Bi0_1 Bi0_3 2.921778 1_555
Bi0_1 Bi0_5 2.921778 1_455
Bi0_1 U0_1 3.285643 1_555
Bi0_1 U1_0 3.285643 1_555
Bi0_2 Bi0_6 2.921778 1_555
Bi0_2 Bi0_6 2.921778 1_455
Bi0_2 U0_2 3.285643 1_555
Bi0_2 U1_3 3.285643 1_554
Bi0_3 Bi0_7 2.921778 1_455
Bi0_3 Bi0_7 2.921778 1_555
Bi0_3 U0_3 3.285643 1_555
Bi0_3 U1_2 3.285643 1_555
Bi0_4 Bi0_6 2.921778 1_545
Bi0_4 Bi0_6 2.921778 1_555
Bi0_4 U0_4 3.285643 1_555
Bi0_4 U1_5 3.285643 1_554
Bi0_5 Bi0_7 2.921778 1_545
Bi0_5 Bi0_7 2.921778 1_555
Bi0_5 U0_5 3.285643 1_555
Bi0_5 U1_4 3.285643 1_555
Bi0_6 U0_6 3.285643 1_555
Bi0_6 U1_7 3.285643 1_554
Bi0_7 U0_7 3.285643 1_555
Bi0_7 U1_6 3.285643 1_555
Sb0_0 Sb0_4 2.921778 1_455
Sb0_0 Sb0_4 2.921778 1_555
Sb0_0 Sb0_2 2.921778 1_555
Sb0_0 Sb0_2 2.921778 1_545
Sb0_0 U1_0 3.198702 1_555
Sb0_1 Sb0_3 2.921778 1_545
Sb0_1 Sb0_3 2.921778 1_555
Sb0_1 Sb0_5 2.921778 1_455
Sb0_1 Sb0_5 2.921778 1_555
Sb0_1 U1_1 3.198702 1_555
Sb0_2 Sb0_6 2.921778 1_455
Sb0_2 Sb0_6 2.921778 1_555
Sb0_2 U1_2 3.198702 1_555
Sb0_3 Sb0_7 2.921778 1_455
Sb0_3 Sb0_7 2.921778 1_555
Sb0_3 U1_3 3.198702 1_555
Sb0_4 Sb0_6 2.921778 1_545
Sb0_4 Sb0_6 2.921778 1_555
Sb0_4 U1_4 3.198702 1_555
Sb0_5 Sb0_7 2.921778 1_545
Sb0_5 Sb0_7 2.921778 1_555
Sb0_5 U1_5 3.198702 1_555
Sb0_6 U1_6 3.198702 1_555
Sb0_7 U1_7 3.198702 1_555
Sb1_0 Sb1_2 2.921778 1_555
Sb1_0 Sb1_2 2.921778 1_545
Sb1_0 Sb1_4 2.921778 1_455
Sb1_0 Sb1_4 2.921778 1_555
Sb1_0 U0_0 3.198702 1_555
Sb1_1 Sb1_5 2.921778 1_555
Sb1_1 Sb1_3 2.921778 1_545
Sb1_1 Sb1_5 2.921778 1_455
Sb1_1 Sb1_3 2.921778 1_555
Sb1_1 U0_1 3.198702 1_555
Sb1_2 Sb1_6 2.921778 1_555
Sb1_2 Sb1_6 2.921778 1_455
Sb1_2 U0_2 3.198702 1_555
Sb1_3 Sb1_7 2.921778 1_455
Sb1_3 Sb1_7 2.921778 1_555
Sb1_3 U0_3 3.198702 1_555
Sb1_4 Sb1_6 2.921778 1_545
Sb1_4 Sb1_6 2.921778 1_555
Sb1_4 U0_4 3.198702 1_555
Sb1_5 Sb1_7 2.921778 1_545
Sb1_5 Sb1_7 2.921778 1_555
Sb1_5 U0_5 3.198702 1_555
Sb1_6 U0_6 3.198702 1_555
Sb1_7 U0_7 3.198702 1_555
