# generated using pymatgen
data_Mn2PO4F
_symmetry_space_group_name_H-M   'P 1'
_cell_length_a   7.56973985
_cell_length_b   7.56973985
_cell_length_c   10.24181264
_cell_angle_alpha   63.13126003
_cell_angle_beta   63.13126003
_cell_angle_gamma   51.70285447
_symmetry_Int_Tables_number   1
_chemical_formula_structural   Mn2PO4F
_chemical_formula_sum   'Mn8 P4 O16 F4'
_cell_volume   398.28288990
_cell_formula_units_Z   4
loop_
 _symmetry_equiv_pos_site_id
 _symmetry_equiv_pos_as_xyz
  1  'x, y, z'
loop_
 _atom_site_type_symbol
 _atom_site_label
 _atom_site_symmetry_multiplicity
 _atom_site_fract_x
 _atom_site_fract_y
 _atom_site_fract_z
 _atom_site_occupancy
  Mn  Mn0  1  0.21115900  0.67698800  0.99503500  1
  Mn  Mn1  1  0.32301200  0.78884100  0.50496500  1
  Mn  Mn2  1  0.78884100  0.32301200  0.00496500  1
  Mn  Mn3  1  0.67698800  0.21115900  0.49503500  1
  Mn  Mn4  1  0.05123400  0.26012300  0.64888200  1
  Mn  Mn5  1  0.73987700  0.94876600  0.85111800  1
  Mn  Mn6  1  0.94876600  0.73987700  0.35111800  1
  Mn  Mn7  1  0.26012300  0.05123400  0.14888200  1
  P  P0  1  0.22975500  0.41825300  0.80624500  1
  P  P1  1  0.58174700  0.77024500  0.69375500  1
  P  P2  1  0.77024500  0.58174700  0.19375500  1
  P  P3  1  0.41825300  0.22975500  0.30624500  1
  O  O0  1  0.77459600  0.61233800  0.58287600  1
  O  O1  1  0.38766200  0.22540400  0.91712400  1
  O  O2  1  0.22540400  0.38766200  0.41712400  1
  O  O3  1  0.61233800  0.77459600  0.08287600  1
  O  O4  1  0.93443000  0.64457500  0.18777500  1
  O  O5  1  0.35542500  0.06557000  0.31222500  1
  O  O6  1  0.06557000  0.35542500  0.81222500  1
  O  O7  1  0.64457500  0.93443000  0.68777500  1
  O  O8  1  0.62149300  0.54837500  0.35759800  1
  O  O9  1  0.45162500  0.37850700  0.14240200  1
  O  O10  1  0.37850700  0.45162500  0.64240200  1
  O  O11  1  0.54837500  0.62149300  0.85759800  1
  O  O12  1  0.91403700  0.35076100  0.14516500  1
  O  O13  1  0.64923900  0.08596300  0.35483500  1
  O  O14  1  0.08596300  0.64923900  0.85483500  1
  O  O15  1  0.35076100  0.91403700  0.64516500  1
  F  F0  1  0.08260800  0.88928300  0.39198200  1
  F  F1  1  0.11071700  0.91739200  0.10801800  1
  F  F2  1  0.91739200  0.11071700  0.60801800  1
  F  F3  1  0.88928300  0.08260800  0.89198200  1
loop_
_geom_bond_atom_site_label_1
_geom_bond_atom_site_label_2
_geom_bond_distance
_geom_bond_site_symmetry_2
Mn0 O11 2.152057 1_555
Mn0 O14 2.180246 1_555
Mn0 O4 2.192379 1_456
Mn0 O9 2.235971 1_556
Mn1 O10 2.152057 1_555
Mn1 O15 2.180246 1_555
Mn1 O5 2.192379 1_565
Mn1 O8 2.235971 1_555
Mn2 O9 2.152057 1_555
Mn2 O12 2.180246 1_555
Mn2 O6 2.192379 1_654
Mn2 O11 2.235971 1_554
Mn3 O8 2.152057 1_555
Mn3 O13 2.180246 1_555
Mn3 O7 2.192379 1_545
Mn3 O10 2.235971 1_555
Mn4 O15 2.157599 1_545
Mn4 O0 2.163525 1_455
Mn4 O6 2.164005 1_555
Mn4 O2 2.232045 1_555
Mn5 O14 2.157599 1_655
Mn5 O1 2.163525 1_565
Mn5 O7 2.164005 1_555
Mn5 O3 2.232045 1_556
Mn6 O13 2.157599 1_565
Mn6 O2 2.163525 1_655
Mn6 O4 2.164005 1_555
Mn6 O0 2.232045 1_555
Mn7 O12 2.157599 1_455
Mn7 O3 2.163525 1_545
Mn7 O5 2.164005 1_555
Mn7 O1 2.232045 1_554
O0 P1 1.554063 1_555
O1 P0 1.554063 1_555
O2 P3 1.554063 1_555
O3 P2 1.554063 1_555
O4 P2 1.553090 1_555
O5 P3 1.553090 1_555
O6 P0 1.553090 1_555
O7 P1 1.553090 1_555
O8 P2 1.552115 1_555
O9 P3 1.552115 1_555
O10 P0 1.552115 1_555
O11 P1 1.552115 1_555
O12 P2 1.558081 1_555
O13 P3 1.558081 1_555
O14 P0 1.558081 1_555
O15 P1 1.558081 1_555
F0 Mn1 2.149864 1_555
F0 Mn6 2.170730 1_455
F0 Mn7 2.401321 1_565
F0 Mn3 2.569172 1_465
F1 Mn0 2.149864 1_554
F1 Mn7 2.170730 1_565
F1 Mn6 2.401321 1_455
F1 Mn2 2.569172 1_465
F2 Mn3 2.149864 1_555
F2 Mn4 2.170730 1_655
F2 Mn5 2.401321 1_545
F2 Mn1 2.569172 1_645
F3 Mn2 2.149864 1_556
F3 Mn5 2.170730 1_545
F3 Mn4 2.401321 1_655
F3 Mn0 2.569172 1_645
