# generated using pymatgen
data_CsTb(MoO4)2
_symmetry_space_group_name_H-M   'P 1'
_cell_length_a   5.11651200
_cell_length_b   8.41468600
_cell_length_c   9.72434000
_cell_angle_alpha   90.00000000
_cell_angle_beta   90.00000000
_cell_angle_gamma   90.00000000
_symmetry_Int_Tables_number   1
_chemical_formula_structural   CsTb(MoO4)2
_chemical_formula_sum   'Cs2 Tb2 Mo4 O16'
_cell_volume   418.67019690
_cell_formula_units_Z   2
loop_
 _symmetry_equiv_pos_site_id
 _symmetry_equiv_pos_as_xyz
  1  'x, y, z'
loop_
 _atom_site_type_symbol
 _atom_site_label
 _atom_site_symmetry_multiplicity
 _atom_site_fract_x
 _atom_site_fract_y
 _atom_site_fract_z
 _atom_site_occupancy
  Cs  Cs0  1  0.00000000  0.25000000  0.50000000  1
  Cs  Cs1  1  0.00000000  0.75000000  0.50000000  1
  Tb  Tb0  1  0.00000000  0.25000000  0.00000000  1
  Tb  Tb1  1  0.00000000  0.75000000  0.00000000  1
  Mo  Mo0  1  0.52518500  0.00000000  0.19147800  1
  Mo  Mo1  1  0.47481500  0.00000000  0.80852200  1
  Mo  Mo2  1  0.47481500  0.50000000  0.19147800  1
  Mo  Mo3  1  0.52518500  0.50000000  0.80852200  1
  O  O0  1  0.24883500  0.00000000  0.06819700  1
  O  O1  1  0.75116500  0.00000000  0.93180300  1
  O  O2  1  0.75116500  0.50000000  0.06819700  1
  O  O3  1  0.24883500  0.50000000  0.93180300  1
  O  O4  1  0.26036900  0.32925900  0.17948900  1
  O  O5  1  0.73963100  0.67074100  0.82051100  1
  O  O6  1  0.73963100  0.32925900  0.82051100  1
  O  O7  1  0.73963100  0.17074100  0.17948900  1
  O  O8  1  0.26036900  0.67074100  0.17948900  1
  O  O9  1  0.26036900  0.82925900  0.82051100  1
  O  O10  1  0.26036900  0.17074100  0.82051100  1
  O  O11  1  0.73963100  0.82925900  0.17948900  1
  O  O12  1  0.38892700  0.00000000  0.35728600  1
  O  O13  1  0.61107300  0.00000000  0.64271400  1
  O  O14  1  0.61107300  0.50000000  0.35728600  1
  O  O15  1  0.38892700  0.50000000  0.64271400  1
loop_
_geom_bond_atom_site_label_1
_geom_bond_atom_site_label_2
_geom_bond_distance
_geom_bond_site_symmetry_2
Cs0 O12 3.211125 1_555
Cs0 O15 3.211125 1_555
Cs0 O13 3.211125 1_455
Cs0 O14 3.211125 1_455
Cs0 O10 3.454518 1_555
Cs0 O6 3.454518 1_455
Cs0 O4 3.454518 1_555
Cs0 O7 3.454518 1_455
Cs1 O12 3.211125 1_565
Cs1 O15 3.211125 1_555
Cs1 O14 3.211125 1_455
Cs1 O13 3.211125 1_465
Cs1 O9 3.454518 1_555
Cs1 O5 3.454518 1_455
Cs1 O8 3.454518 1_555
Cs1 O11 3.454518 1_455
Mo0 O12 1.756641 1_555
Mo0 O7 1.811539 1_555
Mo0 O11 1.811539 1_545
Mo0 O0 1.853762 1_555
Mo1 O13 1.756641 1_555
Mo1 O10 1.811539 1_555
Mo1 O9 1.811539 1_545
Mo1 O1 1.853762 1_555
Mo2 O14 1.756641 1_555
Mo2 O8 1.811539 1_555
Mo2 O4 1.811539 1_555
Mo2 O2 1.853762 1_555
Mo3 O15 1.756641 1_555
Mo3 O5 1.811539 1_555
Mo3 O6 1.811539 1_555
Mo3 O3 1.853762 1_555
O0 Tb0 2.546799 1_555
O0 Tb1 2.546799 1_545
O1 Tb0 2.546799 1_656
O1 Tb1 2.546799 1_646
O2 Tb1 2.546799 1_655
O2 Tb0 2.546799 1_655
O3 Tb1 2.546799 1_556
O3 Tb0 2.546799 1_556
O4 Tb0 2.294772 1_555
O5 Tb1 2.294772 1_656
O6 Tb0 2.294772 1_656
O7 Tb0 2.294772 1_655
O8 Tb1 2.294772 1_555
O9 Tb1 2.294772 1_556
O10 Tb0 2.294772 1_556
O11 Tb1 2.294772 1_655
