# generated using pymatgen
data_ThUP4H4(CO8)2
_symmetry_space_group_name_H-M   'P 1'
_cell_length_a   20.34968600
_cell_length_b   5.74896300
_cell_length_c   7.37535876
_cell_angle_alpha   76.37313074
_cell_angle_beta   90.00000000
_cell_angle_gamma   90.00000000
_symmetry_Int_Tables_number   1
_chemical_formula_structural   ThUP4H4(CO8)2
_chemical_formula_sum   'Th2 U2 P8 H8 C4 O32'
_cell_volume   838.55179620
_cell_formula_units_Z   2
loop_
 _symmetry_equiv_pos_site_id
 _symmetry_equiv_pos_as_xyz
  1  'x, y, z'
loop_
 _atom_site_type_symbol
 _atom_site_label
 _atom_site_symmetry_multiplicity
 _atom_site_fract_x
 _atom_site_fract_y
 _atom_site_fract_z
 _atom_site_occupancy
  Th  Th0  1  0.25000000  0.68492400  0.39720000  1
  Th  Th1  1  0.75000000  0.31507600  0.60280000  1
  U  U0  1  0.50000000  0.50000000  0.00000000  1
  U  U1  1  0.00000000  0.50000000  0.00000000  1
  P  P0  1  0.36428300  0.19361000  0.27967900  1
  P  P1  1  0.86428300  0.80639000  0.72032100  1
  P  P2  1  0.63571700  0.80639000  0.72032100  1
  P  P3  1  0.13571700  0.19361000  0.27967900  1
  P  P4  1  0.37484700  0.90339900  0.68830500  1
  P  P5  1  0.87484700  0.09660100  0.31169500  1
  P  P6  1  0.62515300  0.09660100  0.31169500  1
  P  P7  1  0.12515300  0.90339900  0.68830500  1
  H  H0  1  0.44956800  0.95195900  0.43359200  1
  H  H1  1  0.94956800  0.04804100  0.56640800  1
  H  H2  1  0.55043200  0.04804100  0.56640800  1
  H  H3  1  0.05043200  0.95195900  0.43359200  1
  H  H4  1  0.44427900  0.22130300  0.51540700  1
  H  H5  1  0.94427900  0.77869700  0.48459300  1
  H  H6  1  0.55572100  0.77869700  0.48459300  1
  H  H7  1  0.05572100  0.22130300  0.51540700  1
  C  C0  1  0.41567700  0.07537300  0.48046200  1
  C  C1  1  0.91567700  0.92462700  0.51953800  1
  C  C2  1  0.58432300  0.92462700  0.51953800  1
  C  C3  1  0.08432300  0.07537300  0.48046200  1
  O  O0  1  0.32491600  0.40507900  0.32462700  1
  O  O1  1  0.82491600  0.59492100  0.67537300  1
  O  O2  1  0.67508400  0.59492100  0.67537300  1
  O  O3  1  0.17508400  0.40507900  0.32462700  1
  O  O4  1  0.41022400  0.28254500  0.11245900  1
  O  O5  1  0.91022400  0.71745500  0.88754100  1
  O  O6  1  0.58977600  0.71745500  0.88754100  1
  O  O7  1  0.08977600  0.28254500  0.11245900  1
  O  O8  1  0.31970700  0.99148500  0.25150600  1
  O  O9  1  0.81970700  0.00851500  0.74849400  1
  O  O10  1  0.68029300  0.00851500  0.74849400  1
  O  O11  1  0.18029300  0.99148500  0.25150600  1
  O  O12  1  0.43005000  0.77940700  0.81778500  1
  O  O13  1  0.93005000  0.22059300  0.18221500  1
  O  O14  1  0.56995000  0.22059300  0.18221500  1
  O  O15  1  0.06995000  0.77940700  0.81778500  1
  O  O16  1  0.33507900  0.06827800  0.78825800  1
  O  O17  1  0.83507900  0.93172200  0.21174200  1
  O  O18  1  0.66492100  0.93172200  0.21174200  1
  O  O19  1  0.16492100  0.06827800  0.78825800  1
  O  O20  1  0.32691300  0.72810100  0.62979300  1
  O  O21  1  0.82691300  0.27189900  0.37020700  1
  O  O22  1  0.67308700  0.27189900  0.37020700  1
  O  O23  1  0.17308700  0.72810100  0.62979300  1
  O  O24  1  0.49416300  0.64533600  0.19312200  1
  O  O25  1  0.99416300  0.35466400  0.80687800  1
  O  O26  1  0.50583700  0.35466400  0.80687800  1
  O  O27  1  0.00583700  0.64533600  0.19312200  1
  O  O28  1  0.25000000  0.26448200  0.63690400  1
  O  O29  1  0.75000000  0.73551800  0.36309600  1
  O  O30  1  0.25000000  0.58661100  0.08635400  1
  O  O31  1  0.75000000  0.41338900  0.91364600  1
loop_
_geom_bond_atom_site_label_1
_geom_bond_atom_site_label_2
_geom_bond_distance
_geom_bond_site_symmetry_2
C0 H4 1.100415 1_555
C0 H0 1.101864 1_545
C0 P0 1.809546 1_555
C0 P4 1.817565 1_545
C1 H5 1.100415 1_555
C1 H1 1.101864 1_565
C1 P1 1.809546 1_555
C1 P5 1.817565 1_565
C2 H6 1.100415 1_555
C2 H2 1.101864 1_565
C2 P2 1.809546 1_555
C2 P6 1.817565 1_565
C3 H7 1.100415 1_555
C3 H3 1.101864 1_545
C3 P3 1.809546 1_555
C3 P7 1.817565 1_545
O0 P0 1.555495 1_555
O0 Th0 2.367425 1_555
O1 P1 1.555495 1_555
O1 Th1 2.367425 1_555
O2 P2 1.555495 1_555
O2 Th1 2.367425 1_555
O3 P3 1.555495 1_555
O3 Th0 2.367425 1_555
O4 P0 1.536016 1_555
O4 U0 2.258280 1_555
O5 P1 1.536016 1_555
O5 U1 2.258280 1_656
O6 P2 1.536016 1_555
O6 U0 2.258280 1_556
O7 P3 1.536016 1_555
O7 U1 2.258280 1_555
O8 P0 1.526452 1_565
O8 Th0 2.319606 1_555
O9 P1 1.526452 1_545
O9 Th1 2.319606 1_555
O10 P2 1.526452 1_545
O10 Th1 2.319606 1_555
O11 P3 1.526452 1_565
O11 Th0 2.319606 1_555
O12 P4 1.536641 1_555
O12 U0 2.322786 1_556
O13 P5 1.536641 1_555
O13 U1 2.322786 1_655
O14 P6 1.536641 1_555
O14 U0 2.322786 1_555
O15 P7 1.536641 1_555
O15 U1 2.322786 1_556
O16 P4 1.557594 1_545
O17 P5 1.557594 1_565
O18 P6 1.557594 1_565
O19 P7 1.557594 1_545
O20 P4 1.535666 1_555
O20 Th0 2.377974 1_555
O21 P5 1.535666 1_555
O21 Th1 2.377974 1_555
O22 P6 1.535666 1_555
O22 Th1 2.377974 1_555
O23 P7 1.535666 1_555
O23 Th0 2.377974 1_555
O24 U0 1.817069 1_555
O25 U1 1.817069 1_656
O26 U0 1.817069 1_556
O27 U1 1.817069 1_555
O28 Th0 2.637113 1_555
O29 Th1 2.637113 1_555
O30 Th0 2.487173 1_555
O31 Th1 2.487173 1_555
