# generated using pymatgen
data_Sr4MgMn2(GaO5)2
_symmetry_space_group_name_H-M   'P 1'
_cell_length_a   5.84650200
_cell_length_b   5.85167997
_cell_length_c   9.18927285
_cell_angle_alpha   71.71832879
_cell_angle_beta   71.73696738
_cell_angle_gamma   90.84584316
_symmetry_Int_Tables_number   1
_chemical_formula_structural   Sr4MgMn2(GaO5)2
_chemical_formula_sum   'Sr4 Mg1 Mn2 Ga2 O10'
_cell_volume   281.23973456
_cell_formula_units_Z   1
loop_
 _symmetry_equiv_pos_site_id
 _symmetry_equiv_pos_as_xyz
  1  'x, y, z'
loop_
 _atom_site_type_symbol
 _atom_site_label
 _atom_site_symmetry_multiplicity
 _atom_site_fract_x
 _atom_site_fract_y
 _atom_site_fract_z
 _atom_site_occupancy
  Sr  Sr0  1  0.08596700  0.61030600  0.80380100  1
  Sr  Sr1  1  0.91403300  0.38969400  0.19619900  1
  Sr  Sr2  1  0.61021500  0.08589800  0.80380200  1
  Sr  Sr3  1  0.38978500  0.91410200  0.19619800  1
  Mg  Mg0  1  0.00000000  0.00000000  0.50000000  1
  Mn  Mn0  1  0.50000000  0.50000000  0.00000000  1
  Mn  Mn1  1  0.00000000  0.00000000  0.00000000  1
  Ga  Ga0  1  0.66916200  0.67046300  0.49997400  1
  Ga  Ga1  1  0.33083800  0.32953700  0.50002600  1
  O  O0  1  0.26735800  0.26734800  0.96535500  1
  O  O1  1  0.24962900  0.74964400  0.00073200  1
  O  O2  1  0.75037100  0.25035600  0.99926800  1
  O  O3  1  0.73264200  0.73265200  0.03464500  1
  O  O4  1  0.73079900  0.73268400  0.67208900  1
  O  O5  1  0.26920100  0.26731600  0.32791100  1
  O  O6  1  0.09712300  0.09517900  0.67210700  1
  O  O7  1  0.90287700  0.90482100  0.32789300  1
  O  O8  1  0.33622900  0.66220000  0.50002000  1
  O  O9  1  0.66377100  0.33780000  0.49998000  1
loop_
_geom_bond_atom_site_label_1
_geom_bond_atom_site_label_2
_geom_bond_distance
_geom_bond_site_symmetry_2
Mg0 O6 2.059136 1_555
Mg0 O7 2.059136 1_445
Mg0 O5 2.059169 1_555
Mg0 O4 2.059169 1_445
Mn0 O3 2.072055 1_555
Mn0 O0 2.072055 1_554
Mn0 O1 2.083245 1_555
Mn0 O2 2.083245 1_554
Mn0 O5 2.752782 1_555
Mn0 O4 2.752782 1_554
Mn1 O0 2.072572 1_554
Mn1 O3 2.072572 1_445
Mn1 O2 2.083120 1_454
Mn1 O1 2.083120 1_545
Mn1 O7 2.752612 1_445
Mn1 O6 2.752612 1_554
Ga0 O7 1.864998 1_555
Ga0 O4 1.865088 1_555
Ga0 O8 1.946244 1_555
Ga0 O9 1.946410 1_555
Ga1 O6 1.864998 1_555
Ga1 O5 1.865088 1_555
Ga1 O9 1.946244 1_555
Ga1 O8 1.946410 1_555
O0 Sr2 2.556563 1_555
O0 Sr0 2.556676 1_555
O0 Sr3 2.743965 1_546
O0 Sr1 2.744014 1_456
O1 Sr3 2.609129 1_555
O1 Sr1 2.609234 1_455
O1 Sr0 2.615945 1_554
O1 Sr2 2.615973 1_564
O2 Sr2 2.609129 1_555
O2 Sr0 2.609234 1_655
O2 Sr1 2.615945 1_556
O2 Sr3 2.615973 1_546
O3 Sr3 2.556563 1_555
O3 Sr1 2.556676 1_555
O3 Sr2 2.743965 1_564
O3 Sr0 2.744014 1_654
O4 Sr2 2.704018 1_565
O4 Sr0 2.713833 1_655
O5 Sr3 2.704018 1_545
O5 Sr1 2.713833 1_455
O6 Sr0 2.703708 1_545
O6 Sr2 2.714080 1_455
O7 Sr1 2.703708 1_565
O7 Sr3 2.714080 1_655
O8 Sr0 2.630733 1_555
O8 Sr3 2.630997 1_555
O9 Sr1 2.630733 1_555
O9 Sr2 2.630997 1_555
