# generated using pymatgen
data_VPO5
_symmetry_space_group_name_H-M   'P 1'
_cell_length_a   6.18940510
_cell_length_b   6.18940510
_cell_length_c   4.21995740
_cell_angle_alpha   90.00000000
_cell_angle_beta   90.00000000
_cell_angle_gamma   90.00000000
_symmetry_Int_Tables_number   1
_chemical_formula_structural   VPO5
_chemical_formula_sum   'V2 P2 O10'
_cell_volume   161.66123182
_cell_formula_units_Z   2
loop_
 _symmetry_equiv_pos_site_id
 _symmetry_equiv_pos_as_xyz
  1  'x, y, z'
loop_
 _atom_site_type_symbol
 _atom_site_label
 _atom_site_symmetry_multiplicity
 _atom_site_fract_x
 _atom_site_fract_y
 _atom_site_fract_z
 _atom_site_occupancy
  V  V0  1  0.50000000  0.00000000  0.37780675  1
  V  V1  1  0.00000000  0.50000000  0.62219325  1
  P  P0  1  0.00000000  0.00000000  0.50000000  1
  P  P1  1  0.50000000  0.50000000  0.50000000  1
  O  O0  1  0.70107904  0.50000000  0.71185950  1
  O  O1  1  0.00000000  0.79892096  0.71185950  1
  O  O2  1  0.00000000  0.50000000  0.24506523  1
  O  O3  1  0.50000000  0.00000000  0.75493477  1
  O  O4  1  0.00000000  0.20107904  0.71185950  1
  O  O5  1  0.29892096  0.50000000  0.71185950  1
  O  O6  1  0.20107904  0.00000000  0.28814050  1
  O  O7  1  0.50000000  0.29892096  0.28814050  1
  O  O8  1  0.50000000  0.70107904  0.28814050  1
  O  O9  1  0.79892096  0.00000000  0.28814050  1
loop_
_geom_bond_atom_site_label_1
_geom_bond_atom_site_label_2
_geom_bond_distance
_geom_bond_site_symmetry_2
O0 P1 1.532394 1_555
O0 V1 1.888440 1_655
O1 P0 1.532394 1_565
O1 V1 1.888440 1_555
O2 V1 1.591464 1_555
O3 V0 1.591464 1_555
O4 P0 1.532394 1_555
O4 V1 1.888440 1_555
O5 P1 1.532394 1_555
O5 V1 1.888440 1_555
O6 P0 1.532394 1_555
O6 V0 1.888440 1_555
O7 P1 1.532394 1_555
O7 V0 1.888440 1_555
O8 P1 1.532394 1_555
O8 V0 1.888440 1_565
O9 P0 1.532394 1_655
O9 V0 1.888440 1_555
