# generated using pymatgen
data_VZnPbO5
_symmetry_space_group_name_H-M   'P 1'
_cell_length_a   6.10352200
_cell_length_b   7.75329200
_cell_length_c   9.40490200
_cell_angle_alpha   90.00000000
_cell_angle_beta   90.00000000
_cell_angle_gamma   90.00000000
_symmetry_Int_Tables_number   1
_chemical_formula_structural   VZnPbO5
_chemical_formula_sum   'V4 Zn4 Pb4 O20'
_cell_volume   445.06242432
_cell_formula_units_Z   4
loop_
 _symmetry_equiv_pos_site_id
 _symmetry_equiv_pos_as_xyz
  1  'x, y, z'
loop_
 _atom_site_type_symbol
 _atom_site_label
 _atom_site_symmetry_multiplicity
 _atom_site_fract_x
 _atom_site_fract_y
 _atom_site_fract_z
 _atom_site_occupancy
  V  V0  1  0.25000000  0.63713900  0.68732500  1
  V  V1  1  0.25000000  0.13713900  0.81267500  1
  V  V2  1  0.75000000  0.36286100  0.31267500  1
  V  V3  1  0.75000000  0.86286100  0.18732500  1
  Zn  Zn0  1  0.00000000  0.00000000  0.50000000  1
  Zn  Zn1  1  0.50000000  0.50000000  0.00000000  1
  Zn  Zn2  1  0.50000000  0.00000000  0.50000000  1
  Zn  Zn3  1  0.00000000  0.50000000  0.00000000  1
  Pb  Pb0  1  0.75000000  0.37157500  0.68073800  1
  Pb  Pb1  1  0.75000000  0.87157500  0.81926200  1
  Pb  Pb2  1  0.25000000  0.62842500  0.31926200  1
  Pb  Pb3  1  0.25000000  0.12842500  0.18073800  1
  O  O0  1  0.49511500  0.62775900  0.79120100  1
  O  O1  1  0.00488500  0.12775900  0.70879900  1
  O  O2  1  0.99511500  0.37224100  0.20879900  1
  O  O3  1  0.50488500  0.87224100  0.29120100  1
  O  O4  1  0.50488500  0.37224100  0.20879900  1
  O  O5  1  0.99511500  0.87224100  0.29120100  1
  O  O6  1  0.00488500  0.62775900  0.79120100  1
  O  O7  1  0.49511500  0.12775900  0.70879900  1
  O  O8  1  0.25000000  0.45826900  0.58468000  1
  O  O9  1  0.25000000  0.95826900  0.91532000  1
  O  O10  1  0.75000000  0.54173100  0.41532000  1
  O  O11  1  0.75000000  0.04173100  0.08468000  1
  O  O12  1  0.25000000  0.81416200  0.56892500  1
  O  O13  1  0.25000000  0.31416200  0.93107500  1
  O  O14  1  0.75000000  0.18583800  0.43107500  1
  O  O15  1  0.75000000  0.68583800  0.06892500  1
  O  O16  1  0.75000000  0.86713800  0.57226700  1
  O  O17  1  0.75000000  0.36713800  0.92773300  1
  O  O18  1  0.25000000  0.13286200  0.42773300  1
  O  O19  1  0.25000000  0.63286200  0.07226700  1
loop_
_geom_bond_atom_site_label_1
_geom_bond_atom_site_label_2
_geom_bond_distance
_geom_bond_site_symmetry_2
O0 V0 1.788272 1_555
O0 Zn1 2.199622 1_556
O0 Pb1 2.462390 1_555
O0 Pb0 2.728508 1_555
O1 V1 1.788272 1_555
O1 Zn0 2.199622 1_555
O1 Pb0 2.462390 1_455
O1 Pb1 2.728508 1_445
O2 V2 1.788272 1_555
O2 Zn3 2.199622 1_655
O2 Pb3 2.462390 1_655
O2 Pb2 2.728508 1_655
O3 V3 1.788272 1_555
O3 Zn2 2.199622 1_565
O3 Pb2 2.462390 1_555
O3 Pb3 2.728508 1_565
O4 V2 1.788272 1_555
O4 Zn1 2.199622 1_555
O4 Pb3 2.462390 1_555
O4 Pb2 2.728508 1_555
O5 V3 1.788272 1_555
O5 Zn0 2.199622 1_665
O5 Pb2 2.462390 1_655
O5 Pb3 2.728508 1_665
O6 V0 1.788272 1_555
O6 Zn3 2.199622 1_556
O6 Pb1 2.462390 1_455
O6 Pb0 2.728508 1_455
O7 V1 1.788272 1_555
O7 Zn2 2.199622 1_555
O7 Pb0 2.462390 1_555
O7 Pb1 2.728508 1_545
O8 V0 1.689743 1_555
O8 Pb2 2.823409 1_555
O9 V1 1.689743 1_565
O9 Pb3 2.823409 1_566
O10 V2 1.689743 1_555
O10 Pb0 2.823409 1_555
O11 V3 1.689743 1_545
O11 Pb1 2.823409 1_544
O12 V0 1.767416 1_555
O12 Zn0 2.196494 1_565
O12 Zn2 2.196494 1_565
O12 Pb2 2.754483 1_555
O13 V1 1.767416 1_555
O13 Zn3 2.196494 1_556
O13 Zn1 2.196494 1_556
O13 Pb3 2.754483 1_556
O14 V2 1.767416 1_555
O14 Zn0 2.196494 1_655
O14 Zn2 2.196494 1_555
O14 Pb0 2.754483 1_555
O15 V3 1.767416 1_555
O15 Zn3 2.196494 1_655
O15 Zn1 2.196494 1_555
O15 Pb1 2.754483 1_554
O16 Zn0 1.962498 1_665
O16 Zn2 1.962498 1_565
O16 Pb1 2.323218 1_555
O17 Zn3 1.962498 1_656
O17 Zn1 1.962498 1_556
O17 Pb0 2.323218 1_555
O18 Zn0 1.962498 1_555
O18 Zn2 1.962498 1_555
O18 Pb3 2.323218 1_555
O19 Zn1 1.962498 1_555
O19 Zn3 1.962498 1_555
O19 Pb2 2.323218 1_555
