# generated using pymatgen
data_MnCrSb2
_symmetry_space_group_name_H-M   'P 1'
_cell_length_a   4.04971159
_cell_length_b   4.04971159
_cell_length_c   5.67857400
_cell_angle_alpha   90.00000000
_cell_angle_beta   90.00000000
_cell_angle_gamma   119.99999335
_symmetry_Int_Tables_number   1
_chemical_formula_structural   MnCrSb2
_chemical_formula_sum   'Mn1 Cr1 Sb2'
_cell_volume   80.65255705
_cell_formula_units_Z   1
loop_
 _symmetry_equiv_pos_site_id
 _symmetry_equiv_pos_as_xyz
  1  'x, y, z'
loop_
 _atom_site_type_symbol
 _atom_site_label
 _atom_site_symmetry_multiplicity
 _atom_site_fract_x
 _atom_site_fract_y
 _atom_site_fract_z
 _atom_site_occupancy
  Mn  Mn0  1  0.00000000  0.00000000  0.00000000  1
  Cr  Cr0  1  0.00000000  0.00000000  0.50000000  1
  Sb  Sb0  1  0.33333300  0.66666700  0.24931900  1
  Sb  Sb1  1  0.66666700  0.33333300  0.75068100  1
loop_
_geom_bond_atom_site_label_1
_geom_bond_atom_site_label_2
_geom_bond_distance
_geom_bond_site_symmetry_2
Mn0 Sb0 2.733337 1_545
Mn0 Sb1 2.733337 1_454
Mn0 Sb0 2.733341 1_445
Mn0 Sb0 2.733341 1_555
Mn0 Sb1 2.733341 1_554
Mn0 Sb1 2.733341 1_444
Cr0 Sb1 2.737351 1_455
Cr0 Sb0 2.737351 1_545
Cr0 Sb1 2.737355 1_445
Cr0 Sb1 2.737355 1_555
Cr0 Sb0 2.737355 1_445
Cr0 Sb0 2.737355 1_555
Cr0 Mn0 2.839287 1_555
Cr0 Mn0 2.839287 1_556
