# generated using pymatgen
data_Pr3AlCoS7
_symmetry_space_group_name_H-M   'P 1'
_cell_length_a   10.04801950
_cell_length_b   10.04801950
_cell_length_c   6.02906500
_cell_angle_alpha   90.00000000
_cell_angle_beta   90.00000000
_cell_angle_gamma   119.99999671
_symmetry_Int_Tables_number   1
_chemical_formula_structural   Pr3AlCoS7
_chemical_formula_sum   'Pr6 Al2 Co2 S14'
_cell_volume   527.15890911
_cell_formula_units_Z   2
loop_
 _symmetry_equiv_pos_site_id
 _symmetry_equiv_pos_as_xyz
  1  'x, y, z'
loop_
 _atom_site_type_symbol
 _atom_site_label
 _atom_site_symmetry_multiplicity
 _atom_site_fract_x
 _atom_site_fract_y
 _atom_site_fract_z
 _atom_site_occupancy
  Pr  Pr0  1  0.62876600  0.85828600  0.25903500  1
  Pr  Pr1  1  0.14171400  0.77047900  0.25903500  1
  Pr  Pr2  1  0.22952100  0.37123400  0.25903500  1
  Pr  Pr3  1  0.37123400  0.14171400  0.75903500  1
  Pr  Pr4  1  0.85828600  0.22952100  0.75903500  1
  Pr  Pr5  1  0.77047900  0.62876600  0.75903500  1
  Al  Al0  1  0.33333300  0.66666700  0.83532400  1
  Al  Al1  1  0.66666700  0.33333300  0.33532400  1
  Co  Co0  1  0.00000000  0.00000000  0.47446000  1
  Co  Co1  1  0.00000000  0.00000000  0.97446000  1
  S  S0  1  0.78212300  0.91612500  0.71347200  1
  S  S1  1  0.08387500  0.86599800  0.71347200  1
  S  S2  1  0.13400200  0.21787700  0.71347200  1
  S  S3  1  0.21787700  0.08387500  0.21347200  1
  S  S4  1  0.91612500  0.13400200  0.21347200  1
  S  S5  1  0.86599800  0.78212300  0.21347200  1
  S  S6  1  0.48262100  0.57954500  0.98037700  1
  S  S7  1  0.42045500  0.90307700  0.98037700  1
  S  S8  1  0.09692300  0.51737900  0.98037700  1
  S  S9  1  0.51737900  0.42045500  0.48037700  1
  S  S10  1  0.57954500  0.09692300  0.48037700  1
  S  S11  1  0.90307700  0.48262100  0.48037700  1
  S  S12  1  0.33333300  0.66666700  0.46756700  1
  S  S13  1  0.66666700  0.33333300  0.96756700  1
loop_
_geom_bond_atom_site_label_1
_geom_bond_atom_site_label_2
_geom_bond_distance
_geom_bond_site_symmetry_2
Pr0 S4 2.844006 1_565
Pr0 S5 2.857872 1_555
Pr0 S7 2.889336 1_554
Pr0 S12 2.895575 1_555
Pr0 S6 2.951361 1_554
Pr0 S10 2.993483 1_565
Pr0 S0 3.053418 1_555
Pr0 S0 3.554681 1_554
Pr1 S5 2.844011 1_455
Pr1 S3 2.857882 1_565
Pr1 S8 2.889320 1_554
Pr1 S12 2.895560 1_555
Pr1 S7 2.951361 1_554
Pr1 S11 2.993483 1_455
Pr1 S1 3.053422 1_555
Pr1 S1 3.554685 1_554
Pr2 S3 2.844001 1_555
Pr2 S4 2.857879 1_455
Pr2 S6 2.889326 1_554
Pr2 S12 2.895578 1_555
Pr2 S8 2.951375 1_554
Pr2 S9 2.993483 1_555
Pr2 S2 3.053419 1_555
Pr2 S2 3.554682 1_554
Pr3 S1 2.844006 1_545
Pr3 S2 2.857872 1_555
Pr3 S10 2.889336 1_555
Pr3 S13 2.895575 1_555
Pr3 S9 2.951361 1_555
Pr3 S7 2.993483 1_545
Pr3 S3 3.053418 1_556
Pr3 S3 3.554681 1_555
Pr4 S2 2.844011 1_655
Pr4 S0 2.857882 1_545
Pr4 S11 2.889320 1_555
Pr4 S13 2.895560 1_555
Pr4 S10 2.951361 1_555
Pr4 S8 2.993483 1_655
Pr4 S4 3.053422 1_556
Pr4 S4 3.554685 1_555
Pr5 S0 2.844001 1_555
Pr5 S1 2.857879 1_655
Pr5 S9 2.889326 1_555
Pr5 S13 2.895578 1_555
Pr5 S11 2.951375 1_555
Pr5 S6 2.993483 1_555
Pr5 S5 3.053419 1_556
Pr5 S5 3.554682 1_555
Al0 S12 2.217231 1_555
Al0 S6 2.257086 1_555
Al0 S7 2.257086 1_555
Al0 S8 2.257086 1_555
Al1 S13 2.217231 1_554
Al1 S9 2.257086 1_555
Al1 S10 2.257086 1_555
Al1 S11 2.257086 1_555
Co0 S1 2.394684 1_545
Co0 S0 2.394684 1_445
Co0 S2 2.394684 1_555
Co0 S4 2.476675 1_455
Co0 S3 2.476676 1_555
Co0 S5 2.476676 1_445
Co1 S4 2.394684 1_456
Co1 S3 2.394684 1_556
Co1 S5 2.394684 1_446
Co1 S1 2.476675 1_545
Co1 S0 2.476676 1_445
Co1 S2 2.476676 1_555
