# generated using pymatgen
data_Sr2SnH18(SeO3)4
_symmetry_space_group_name_H-M   'P 1'
_cell_length_a   5.92822618
_cell_length_b   8.43767108
_cell_length_c   9.37467861
_cell_angle_alpha   96.95687537
_cell_angle_beta   104.17466562
_cell_angle_gamma   110.19255747
_symmetry_Int_Tables_number   1
_chemical_formula_structural   Sr2SnH18(SeO3)4
_chemical_formula_sum   'Sr2 Sn1 H18 Se4 O12'
_cell_volume   415.66502438
_cell_formula_units_Z   1
loop_
 _symmetry_equiv_pos_site_id
 _symmetry_equiv_pos_as_xyz
  1  'x, y, z'
loop_
 _atom_site_type_symbol
 _atom_site_label
 _atom_site_symmetry_multiplicity
 _atom_site_fract_x
 _atom_site_fract_y
 _atom_site_fract_z
 _atom_site_occupancy
  Sr  Sr0  1  0.66376829  0.79691012  0.03807937  1
  Sr  Sr1  1  0.33623171  0.20308988  0.96192063  1
  Sn  Sn0  1  0.00000000  0.50000000  -0.00000000  1
  H  H0  1  0.78747255  0.51660254  0.21407042  1
  H  H1  1  0.21252745  0.48339746  0.78592958  1
  H  H2  1  0.30926426  0.73024751  0.24999709  1
  H  H3  1  0.69073574  0.26975249  0.75000291  1
  H  H4  1  0.79093232  0.59537171  0.76671501  1
  H  H5  1  0.20906768  0.40462829  0.23328499  1
  H  H6  1  0.21987601  0.89765247  0.13796639  1
  H  H7  1  0.78012399  0.10234753  0.86203361  1
  H  H8  1  0.23377830  0.06150185  0.24223623  1
  H  H9  1  0.76622170  0.93849815  0.75776377  1
  H  H10  1  0.13649266  0.79988948  0.85515442  1
  H  H11  1  0.86350734  0.20011052  0.14484558  1
  H  H12  1  0.31342692  0.86823579  0.75473198  1
  H  H13  1  0.68657308  0.13176421  0.24526802  1
  H  H14  1  0.00431222  0.85085609  0.39370568  1
  H  H15  1  0.99568778  0.14914391  0.60629432  1
  H  H16  1  0.73914878  0.83931015  0.40062240  1
  H  H17  1  0.26085122  0.16068985  0.59937760  1
  Se  Se0  1  0.78425453  0.48739982  0.48285433  1
  Se  Se1  1  0.21574547  0.51260018  0.51714567  1
  Se  Se2  1  0.59729897  0.19188911  0.47707433  1
  Se  Se3  1  0.40270103  0.80811089  0.52292567  1
  O  O0  1  0.73852865  0.50957857  0.10594329  1
  O  O1  1  0.26147135  0.49042143  0.89405671  1
  O  O2  1  0.28402061  0.72504218  0.14212434  1
  O  O3  1  0.71597939  0.27495782  0.85787566  1
  O  O4  1  0.87747162  0.65583289  0.87185069  1
  O  O5  1  0.12252838  0.34416711  0.12814931  1
  O  O6  1  0.15795863  0.99396298  0.13823301  1
  O  O7  1  0.84204137  0.00603702  0.86176699  1
  O  O8  1  0.30641295  0.88274899  0.85864227  1
  O  O9  1  0.69358705  0.11725101  0.14135773  1
  O  O10  1  0.84755221  0.85664475  0.33573423  1
  O  O11  1  0.15244779  0.14335525  0.66426577  1
loop_
_geom_bond_atom_site_label_1
_geom_bond_atom_site_label_2
_geom_bond_distance
_geom_bond_site_symmetry_2
H0 O0 0.971973 1_555
H1 O1 0.971973 1_555
H2 O2 0.978560 1_555
H3 O3 0.978560 1_555
H4 O4 0.971986 1_555
H5 O5 0.971986 1_555
H6 O6 1.000499 1_555
H7 O7 1.000499 1_555
H8 O6 0.975369 1_545
H9 O7 0.975369 1_565
H10 O8 0.998356 1_555
H11 O9 0.998356 1_555
H12 O8 0.979847 1_555
H13 O9 0.979847 1_555
H14 O10 0.975586 1_455
H15 O11 0.975586 1_655
H16 O10 0.975979 1_555
H17 O11 0.975979 1_555
Se0 Se2 2.340625 1_555
Se0 Se1 2.428377 1_655
Se1 Se3 2.340625 1_555
O0 Sn0 2.053450 1_655
O0 Sr0 2.730615 1_555
O0 Sr1 2.741860 1_554
O1 Sn0 2.053450 1_556
O1 Sr1 2.730615 1_555
O1 Sr0 2.741860 1_556
O2 Sn0 2.072927 1_555
O2 Sr0 2.581358 1_555
O3 Sn0 2.072927 1_656
O3 Sr1 2.581358 1_555
O4 Sn0 2.077109 1_656
O4 Sr0 2.647451 1_556
O5 Sn0 2.077109 1_555
O5 Sr1 2.647451 1_554
O6 Sr0 2.672245 1_455
O6 Sr1 2.690197 1_564
O7 Sr1 2.672245 1_655
O7 Sr0 2.690197 1_546
O8 Sr1 2.688285 1_565
O8 Sr0 2.729710 1_556
O9 Sr0 2.688285 1_545
O9 Sr1 2.729710 1_554
O10 Sr0 2.649293 1_555
O11 Sr1 2.649293 1_555
