# generated using pymatgen
data_Tm4CuGe8
_symmetry_space_group_name_H-M   'P 1'
_cell_length_a   3.94789800
_cell_length_b   4.03420200
_cell_length_c   16.29403900
_cell_angle_alpha   90.00000000
_cell_angle_beta   90.00000000
_cell_angle_gamma   90.00000000
_symmetry_Int_Tables_number   1
_chemical_formula_structural   Tm4CuGe8
_chemical_formula_sum   'Tm4 Cu1 Ge8'
_cell_volume   259.50893495
_cell_formula_units_Z   1
loop_
 _symmetry_equiv_pos_site_id
 _symmetry_equiv_pos_as_xyz
  1  'x, y, z'
loop_
 _atom_site_type_symbol
 _atom_site_label
 _atom_site_symmetry_multiplicity
 _atom_site_fract_x
 _atom_site_fract_y
 _atom_site_fract_z
 _atom_site_occupancy
  Tm  Tm0  1  0.25000000  0.00000000  0.09857900  1
  Tm  Tm1  1  0.25000000  0.50000000  0.60874900  1
  Tm  Tm2  1  0.75000000  0.50000000  0.39844200  1
  Tm  Tm3  1  0.75000000  0.00000000  0.89312800  1
  Cu  Cu0  1  0.25000000  0.00000000  0.32307700  1
  Ge  Ge0  1  0.25000000  0.00000000  0.46583100  1
  Ge  Ge1  1  0.25000000  0.50000000  0.94472100  1
  Ge  Ge2  1  0.75000000  0.50000000  0.04675900  1
  Ge  Ge3  1  0.75000000  0.00000000  0.56396600  1
  Ge  Ge4  1  0.25000000  0.50000000  0.23662200  1
  Ge  Ge5  1  0.25000000  0.00000000  0.74723600  1
  Ge  Ge6  1  0.75000000  0.00000000  0.23617200  1
  Ge  Ge7  1  0.75000000  0.50000000  0.75471900  1
loop_
_geom_bond_atom_site_label_1
_geom_bond_atom_site_label_2
_geom_bond_distance
_geom_bond_site_symmetry_2
Cu0 Ge0 2.326039 1_555
Cu0 Ge6 2.429326 1_455
Cu0 Ge6 2.429326 1_555
Cu0 Ge4 2.460312 1_545
Cu0 Ge4 2.460312 1_555
Cu0 Tm2 3.077849 1_455
Cu0 Tm2 3.077849 1_445
Cu0 Tm2 3.077849 1_555
Cu0 Tm2 3.077849 1_545
Ge0 Ge3 2.540340 1_555
Ge0 Ge3 2.540340 1_455
Ge0 Tm2 3.028343 1_545
Ge0 Tm2 3.028343 1_555
Ge0 Tm2 3.028343 1_455
Ge0 Tm2 3.028343 1_445
Ge0 Tm1 3.080843 1_555
Ge0 Tm1 3.080843 1_545
Ge1 Ge2 2.580843 1_456
Ge1 Ge2 2.580843 1_556
Ge1 Tm3 2.944805 1_465
Ge1 Tm3 2.944805 1_555
Ge1 Tm3 2.944805 1_455
Ge1 Tm3 2.944805 1_565
Ge1 Tm0 3.217699 1_566
Ge1 Tm0 3.217699 1_556
Ge2 Tm0 2.945863 1_665
Ge2 Tm0 2.945863 1_555
Ge2 Tm0 2.945863 1_565
Ge2 Tm0 2.945863 1_655
Ge2 Tm3 3.214818 1_554
Ge2 Tm3 3.214818 1_564
Ge3 Tm1 2.915069 1_655
Ge3 Tm1 2.915069 1_555
Ge3 Tm1 2.915069 1_545
Ge3 Tm1 2.915069 1_645
Ge3 Tm2 3.367907 1_555
Ge3 Tm2 3.367907 1_545
Ge4 Ge6 2.822273 1_455
Ge4 Ge6 2.822273 1_565
Ge4 Ge6 2.822273 1_555
Ge4 Ge6 2.822273 1_465
Ge4 Tm0 3.021249 1_555
Ge4 Tm0 3.021249 1_565
Ge4 Tm2 3.293732 1_455
Ge4 Tm2 3.293732 1_555
Ge5 Ge7 2.824896 1_445
Ge5 Ge7 2.824896 1_545
Ge5 Ge7 2.824896 1_455
Ge5 Ge7 2.824896 1_555
Ge5 Tm1 3.026639 1_555
Ge5 Tm1 3.026639 1_545
Ge5 Tm3 3.089889 1_455
Ge5 Tm3 3.089889 1_555
Ge6 Tm0 2.987105 1_555
Ge6 Tm0 2.987105 1_655
Ge6 Tm2 3.325599 1_545
Ge6 Tm2 3.325599 1_555
Ge7 Tm3 3.025692 1_565
Ge7 Tm3 3.025692 1_555
Ge7 Tm1 3.090866 1_655
Ge7 Tm1 3.090866 1_555
