# generated using pymatgen
data_BaTi2(P2O7)2
_symmetry_space_group_name_H-M   'P 1'
_cell_length_a   7.61639937
_cell_length_b   7.61639937
_cell_length_c   10.02521683
_cell_angle_alpha   81.02926644
_cell_angle_beta   81.02926644
_cell_angle_gamma   90.08940751
_symmetry_Int_Tables_number   1
_chemical_formula_structural   BaTi2(P2O7)2
_chemical_formula_sum   'Ba2 Ti4 P8 O28'
_cell_volume   567.21855689
_cell_formula_units_Z   2
loop_
 _symmetry_equiv_pos_site_id
 _symmetry_equiv_pos_as_xyz
  1  'x, y, z'
loop_
 _atom_site_type_symbol
 _atom_site_label
 _atom_site_symmetry_multiplicity
 _atom_site_fract_x
 _atom_site_fract_y
 _atom_site_fract_z
 _atom_site_occupancy
  Ba  Ba0  1  0.00000000  0.50000000  0.00000000  1
  Ba  Ba1  1  0.50000000  0.00000000  0.50000000  1
  Ti  Ti0  1  0.00000000  0.00000000  0.50000000  1
  Ti  Ti1  1  0.00000000  0.00000000  0.00000000  1
  Ti  Ti2  1  0.54847000  0.45153000  0.75000000  1
  Ti  Ti3  1  0.45153000  0.54847000  0.25000000  1
  P  P0  1  0.17745700  0.26294000  0.70330200  1
  P  P1  1  0.73706000  0.82254300  0.79669800  1
  P  P2  1  0.82254300  0.73706000  0.29669800  1
  P  P3  1  0.26294000  0.17745700  0.20330200  1
  P  P4  1  0.25320800  0.62499000  0.55629600  1
  P  P5  1  0.37501000  0.74679200  0.94370400  1
  P  P6  1  0.74679200  0.37501000  0.44370400  1
  P  P7  1  0.62499000  0.25320800  0.05629600  1
  O  O0  1  0.06194000  0.21944200  0.84381500  1
  O  O1  1  0.78055800  0.93806000  0.65618500  1
  O  O2  1  0.93806000  0.78055800  0.15618500  1
  O  O3  1  0.21944200  0.06194000  0.34381500  1
  O  O4  1  0.37855800  0.25777600  0.70249900  1
  O  O5  1  0.74222400  0.62144200  0.79750100  1
  O  O6  1  0.62144200  0.74222400  0.29750100  1
  O  O7  1  0.25777600  0.37855800  0.20249900  1
  O  O8  1  0.12753200  0.15200500  0.59976400  1
  O  O9  1  0.84799500  0.87246800  0.90023600  1
  O  O10  1  0.87246800  0.84799500  0.40023600  1
  O  O11  1  0.15200500  0.12753200  0.09976400  1
  O  O12  1  0.12921300  0.46913800  0.65556000  1
  O  O13  1  0.53086200  0.87078700  0.84444000  1
  O  O14  1  0.58599900  0.27408200  0.90984500  1
  O  O15  1  0.72591800  0.41400100  0.59015500  1
  O  O16  1  0.41400100  0.72591800  0.09015500  1
  O  O17  1  0.27408200  0.58599900  0.40984500  1
  O  O18  1  0.63470100  0.43203600  0.10897000  1
  O  O19  1  0.56796400  0.36529900  0.39103000  1
  O  O20  1  0.36529900  0.56796400  0.89103000  1
  O  O21  1  0.43203600  0.63470100  0.60897000  1
  O  O22  1  0.79556600  0.15384500  0.07325500  1
  O  O23  1  0.84615500  0.20443400  0.42674500  1
  O  O24  1  0.20443400  0.84615500  0.92674500  1
  O  O25  1  0.15384500  0.79556600  0.57325500  1
  O  O26  1  0.46913800  0.12921300  0.15556000  1
  O  O27  1  0.87078700  0.53086200  0.34444000  1
loop_
_geom_bond_atom_site_label_1
_geom_bond_atom_site_label_2
_geom_bond_distance
_geom_bond_site_symmetry_2
Ba0 O2 2.838408 1_455
Ba0 O0 2.838408 1_554
Ba0 O20 2.841415 1_554
Ba0 O18 2.841415 1_455
Ba0 O24 2.990216 1_554
Ba0 O22 2.990216 1_455
Ba0 O7 3.081321 1_555
Ba0 O5 3.081321 1_454
Ba0 O11 3.142446 1_555
Ba0 O9 3.142446 1_454
Ba1 O3 2.838408 1_555
Ba1 O1 2.838408 1_545
Ba1 O19 2.841415 1_555
Ba1 O21 2.841415 1_545
Ba1 O23 2.990216 1_555
Ba1 O25 2.990216 1_545
Ba1 O4 3.081321 1_555
Ba1 O6 3.081321 1_545
Ba1 O10 3.142446 1_545
Ba1 O8 3.142446 1_555
O0 P0 1.528150 1_555
O0 Ti1 2.102077 1_556
O1 P1 1.528150 1_555
O1 Ti0 2.102077 1_665
O2 P2 1.528150 1_555
O2 Ti1 2.102077 1_665
O3 P3 1.528150 1_555
O3 Ti0 2.102077 1_555
O4 P0 1.531030 1_555
O4 Ti2 2.117691 1_555
O5 P1 1.531030 1_555
O5 Ti2 2.117691 1_555
O6 P2 1.531030 1_555
O6 Ti3 2.117691 1_555
O7 P3 1.531030 1_555
O7 Ti3 2.117691 1_555
O8 P0 1.526928 1_555
O8 Ti0 1.986129 1_555
O9 P1 1.526928 1_555
O9 Ti1 1.986129 1_666
O10 P2 1.526928 1_555
O10 Ti0 1.986129 1_665
O11 P3 1.526928 1_555
O11 Ti1 1.986129 1_555
O12 P4 1.620574 1_555
O12 P0 1.628728 1_555
O13 P5 1.620574 1_555
O13 P1 1.628728 1_555
O14 P7 1.527225 1_556
O14 Ti2 1.986170 1_555
O15 P6 1.527225 1_555
O15 Ti2 1.986170 1_555
O16 P5 1.527225 1_554
O16 Ti3 1.986170 1_555
O17 P4 1.527225 1_555
O17 Ti3 1.986170 1_555
O18 P7 1.541301 1_555
O18 Ti3 2.124023 1_555
O19 P6 1.541301 1_555
O19 Ti3 2.124023 1_555
O20 P5 1.541301 1_555
O20 Ti2 2.124023 1_555
O21 P4 1.541301 1_555
O21 Ti2 2.124023 1_555
O22 P7 1.523587 1_555
O22 Ti1 2.062567 1_655
O23 P6 1.523587 1_555
O23 Ti0 2.062567 1_655
O24 P5 1.523587 1_555
O24 Ti1 2.062567 1_566
O25 P4 1.523587 1_555
O25 Ti0 2.062567 1_565
O26 P7 1.620574 1_555
O26 P3 1.628728 1_555
O27 P6 1.620574 1_555
O27 P2 1.628728 1_555
