# generated using pymatgen
data_Sm9Al(SiS7)3
_symmetry_space_group_name_H-M   'P 1'
_cell_length_a   11.56149320
_cell_length_b   11.56138079
_cell_length_c   11.56134797
_cell_angle_alpha   97.73114896
_cell_angle_beta   82.26765039
_cell_angle_gamma   82.26739027
_symmetry_Int_Tables_number   1
_chemical_formula_structural   Sm9Al(SiS7)3
_chemical_formula_sum   'Sm18 Al2 Si6 S42'
_cell_volume   1498.94875767
_cell_formula_units_Z   2
loop_
 _symmetry_equiv_pos_site_id
 _symmetry_equiv_pos_as_xyz
  1  'x, y, z'
loop_
 _atom_site_type_symbol
 _atom_site_label
 _atom_site_symmetry_multiplicity
 _atom_site_fract_x
 _atom_site_fract_y
 _atom_site_fract_z
 _atom_site_occupancy
  Sm  Sm0  1  0.34148070  0.02233973  0.88948748  1
  Sm  Sm1  1  0.01740353  0.34534943  0.21829883  1
  Sm  Sm2  1  0.66589848  0.67616387  0.55611750  1
  Sm  Sm3  1  0.44387948  0.33410919  0.67615895  1
  Sm  Sm4  1  0.11051013  0.65852056  0.02233577  1
  Sm  Sm5  1  0.78170229  0.98260303  0.34534207  1
  Sm  Sm6  1  0.65465023  0.21829595  0.98259960  1
  Sm  Sm7  1  0.32383550  0.55611607  0.33410497  1
  Sm  Sm8  1  0.97765941  0.88948607  0.65851873  1
  Sm  Sm9  1  0.44464232  0.19175845  0.32083430  1
  Sm  Sm10  1  0.11809376  0.51848035  0.64782642  1
  Sm  Sm11  1  0.79048993  0.86788626  0.98919838  1
  Sm  Sm12  1  0.35217532  0.88190147  0.51848567  1
  Sm  Sm13  1  0.01080345  0.20950171  0.86789216  1
  Sm  Sm14  1  0.67916729  0.55535220  0.19176379  1
  Sm  Sm15  1  0.13211538  0.98919906  0.20950802  1
  Sm  Sm16  1  0.80824289  0.32083500  0.55535287  1
  Sm  Sm17  1  0.48152035  0.64782799  0.88190263  1
  Al  Al0  1  0.23619838  0.76380124  0.76380173  1
  Al  Al1  1  0.73627437  0.26372794  0.26372630  1
  Si  Si0  1  0.95122910  0.71367084  0.38392522  1
  Si  Si1  1  0.61607352  0.04876718  0.71367879  1
  Si  Si2  1  0.28632151  0.38392239  0.04878072  1
  Si  Si3  1  0.44927389  0.88158343  0.21385527  1
  Si  Si4  1  0.11842374  0.21386469  0.55072231  1
  Si  Si5  1  0.78613884  0.55073443  0.88157584  1
  S  S0  1  0.51034518  0.66047009  0.39526618  1
  S  S1  1  0.18178970  0.96682165  0.73181379  1
  S  S2  1  0.83988859  0.31677359  0.07852793  1
  S  S3  1  0.26819167  0.81820556  0.96681971  1
  S  S4  1  0.92147455  0.16011616  0.31677642  1
  S  S5  1  0.60473633  0.48965612  0.66047438  1
  S  S6  1  0.68322260  0.07852406  0.16011356  1
  S  S7  1  0.33952161  0.39526468  0.48965141  1
  S  S8  1  0.03317448  0.73180678  0.81820428  1
  S  S9  1  0.95940896  0.86993123  0.13433390  1
  S  S10  1  0.63978957  0.21051570  0.44507676  1
  S  S11  1  0.29076950  0.55410098  0.79355394  1
  S  S12  1  0.20644423  0.70923058  0.55410508  1
  S  S13  1  0.86566172  0.04058932  0.86992873  1
  S  S14  1  0.55492694  0.36020542  0.21051594  1
  S  S15  1  0.78948653  0.44508044  0.36021225  1
  S  S16  1  0.44589694  0.79355779  0.70923212  1
  S  S17  1  0.13006995  0.13433841  0.04059321  1
  S  S18  1  0.73480131  0.92161608  0.59162448  1
  S  S19  1  0.40837792  0.26519353  0.92161671  1
  S  S20  1  0.07838358  0.59162172  0.26520350  1
  S  S21  1  0.57686357  0.76481498  0.09048026  1
  S  S22  1  0.23518566  0.09048055  0.42313641  1
  S  S23  1  0.90951861  0.42313324  0.76480993  1
  S  S24  1  0.91939678  0.66014734  0.55440104  1
  S  S25  1  0.58831031  0.99639012  0.88571617  1
  S  S26  1  0.26417317  0.33325368  0.22090204  1
  S  S27  1  0.77909086  0.73583238  0.33324175  1
  S  S28  1  0.44558997  0.08060222  0.66014070  1
  S  S29  1  0.11427396  0.41169173  0.99638377  1
  S  S30  1  0.00361553  0.88572745  0.41168548  1
  S  S31  1  0.66675408  0.22091661  0.73582649  1
  S  S32  1  0.33985527  0.55441142  0.08059932  1
  S  S33  1  0.37678526  0.03070225  0.14066598  1
  S  S34  1  0.04496027  0.36158525  0.47439736  1
  S  S35  1  0.72007315  0.70361486  0.80957694  1
  S  S36  1  0.52560793  0.95504481  0.36159702  1
  S  S37  1  0.19042767  0.27993293  0.70362488  1
  S  S38  1  0.85933871  0.62321672  0.03070918  1
  S  S39  1  0.29637765  0.80957211  0.27993404  1
  S  S40  1  0.96929007  0.14065953  0.62322314  1
  S  S41  1  0.63840587  0.47439141  0.95504952  1
loop_
_geom_bond_atom_site_label_1
_geom_bond_atom_site_label_2
_geom_bond_distance
_geom_bond_site_symmetry_2
Al0 S1 2.437339 1_555
Al0 S3 2.437342 1_555
Al0 S8 2.437421 1_555
Al0 S12 2.503054 1_555
Al0 S11 2.503071 1_555
Al0 S16 2.503096 1_555
Al1 S14 2.433290 1_555
Al1 S10 2.433343 1_555
Al1 S15 2.433402 1_555
Al1 S2 2.501288 1_555
Al1 S4 2.501332 1_555
Al1 S6 2.501399 1_555
S0 Sm7 2.736091 1_555
S0 Sm2 2.760903 1_555
S0 Sm14 2.859855 1_555
S0 Sm12 2.997556 1_555
S1 Sm8 2.826566 1_455
S1 Sm0 2.837864 1_565
S1 Sm12 2.906558 1_555
S1 Sm13 3.276896 1_565
S2 Sm1 2.804239 1_655
S2 Sm6 2.840500 1_554
S2 Sm13 2.933636 1_654
S2 Sm14 3.125624 1_555
S3 Sm0 2.826527 1_565
S3 Sm4 2.837857 1_556
S3 Sm17 2.906513 1_555
S3 Sm15 3.276995 1_556
S4 Sm5 2.804208 1_545
S4 Sm1 2.840412 1_655
S4 Sm15 2.933683 1_645
S4 Sm16 3.125587 1_555
S5 Sm2 2.736047 1_555
S5 Sm3 2.760894 1_555
S5 Sm16 2.859893 1_555
S5 Sm17 2.997531 1_555
S6 Sm6 2.804183 1_554
S6 Sm5 2.840327 1_545
S6 Sm11 2.933649 1_544
S6 Sm9 3.125637 1_555
S7 Sm3 2.736031 1_555
S7 Sm7 2.760797 1_555
S7 Sm9 2.859869 1_555
S7 Sm10 2.997543 1_555
S8 Sm4 2.826494 1_556
S8 Sm8 2.837804 1_455
S8 Sm10 2.906506 1_555
S8 Sm11 3.276978 1_455
S9 Sm11 2.741116 1_554
S9 Sm15 2.743935 1_655
S9 Sm4 2.844883 1_655
S9 Sm5 2.990900 1_555
S10 Sm16 2.818577 1_555
S10 Sm9 2.849674 1_555
S10 Sm5 2.911141 1_545
S10 Sm3 3.283786 1_555
S11 Sm10 2.816630 1_555
S11 Sm17 2.834189 1_555
S11 Sm3 2.942402 1_555
S11 Sm4 3.126885 1_556
S12 Sm12 2.816601 1_555
S12 Sm10 2.834121 1_555
S12 Sm7 2.942485 1_555
S12 Sm8 3.126878 1_455
S13 Sm13 2.741108 1_655
S13 Sm11 2.743858 1_545
S13 Sm8 2.844890 1_545
S13 Sm6 2.990925 1_555
S14 Sm9 2.818520 1_555
S14 Sm14 2.849639 1_555
S14 Sm6 2.911137 1_554
S14 Sm7 3.283850 1_555
S15 Sm14 2.818457 1_555
S15 Sm16 2.849578 1_555
S15 Sm1 2.911181 1_655
S15 Sm2 3.283758 1_555
S16 Sm17 2.816555 1_555
S16 Sm12 2.834044 1_555
S16 Sm2 2.942507 1_555
S16 Sm0 3.126864 1_565
S17 Sm15 2.741067 1_545
S17 Sm13 2.743789 1_554
S17 Sm0 2.844912 1_554
S17 Sm1 2.990907 1_555
S18 Si1 2.100983 1_565
S18 Sm8 3.000138 1_555
S18 Sm5 3.020961 1_555
S18 Sm2 3.039564 1_555
S19 Si2 2.101078 1_556
S19 Sm0 3.000096 1_555
S19 Sm6 3.020869 1_555
S19 Sm3 3.039645 1_555
S20 Si0 2.100941 1_455
S20 Sm4 3.000221 1_555
S20 Sm1 3.020859 1_555
S20 Sm7 3.039560 1_555
S21 Si3 2.100691 1_555
S21 Sm14 2.999924 1_555
S21 Sm17 3.016361 1_554
S21 Sm11 3.046386 1_554
S22 Si4 2.100686 1_555
S22 Sm9 2.999859 1_555
S22 Sm12 3.016379 1_545
S22 Sm15 3.046406 1_545
S23 Si5 2.100774 1_555
S23 Sm16 2.999843 1_555
S23 Sm10 3.016333 1_655
S23 Sm13 3.046480 1_655
S24 Si0 2.144101 1_555
S24 Sm2 2.908900 1_555
S24 Sm8 2.961947 1_555
S24 Sm10 3.042650 1_655
S25 Si1 2.151823 1_565
S25 Sm0 2.822805 1_565
S25 Sm6 2.900418 1_565
S25 Sm11 3.065736 1_555
S26 Si2 2.141386 1_555
S26 Sm1 2.842022 1_555
S26 Sm9 2.933100 1_555
S26 Sm7 2.939638 1_555
S27 Si0 2.141679 1_555
S27 Sm5 2.842020 1_555
S27 Sm14 2.933067 1_555
S27 Sm2 2.939714 1_555
S28 Si1 2.144290 1_555
S28 Sm3 2.908984 1_555
S28 Sm0 2.961956 1_555
S28 Sm12 3.042585 1_545
S29 Si2 2.152067 1_556
S29 Sm4 2.822786 1_556
S29 Sm1 2.900435 1_556
S29 Sm13 3.065724 1_555
S30 Si0 2.152104 1_455
S30 Sm8 2.822831 1_455
S30 Sm5 2.900467 1_455
S30 Sm15 3.065616 1_555
S31 Si1 2.141777 1_555
S31 Sm6 2.842049 1_555
S31 Sm16 2.933003 1_555
S31 Sm3 2.939720 1_555
S32 Si2 2.144310 1_555
S32 Sm7 2.908965 1_555
S32 Sm4 2.961969 1_555
S32 Sm17 3.042574 1_554
S33 Si3 2.141289 1_545
S33 Sm9 2.865450 1_555
S33 Sm15 2.954268 1_545
S33 Sm0 2.977077 1_554
S34 Si4 2.152585 1_555
S34 Sm10 2.813530 1_555
S34 Sm16 2.892129 1_455
S34 Sm1 3.003954 1_555
S35 Si5 2.145703 1_555
S35 Sm11 2.896929 1_555
S35 Sm17 2.953830 1_555
S35 Sm2 3.062195 1_555
S36 Si3 2.152864 1_555
S36 Sm12 2.813540 1_555
S36 Sm9 2.892128 1_565
S36 Sm5 3.003931 1_555
S37 Si4 2.145986 1_555
S37 Sm13 2.896972 1_555
S37 Sm10 2.953803 1_555
S37 Sm3 3.062145 1_555
S38 Si5 2.141500 1_554
S38 Sm14 2.865475 1_555
S38 Sm11 2.954269 1_554
S38 Sm4 2.977018 1_655
S39 Si3 2.146004 1_555
S39 Sm15 2.896920 1_555
S39 Sm12 2.953862 1_555
S39 Sm7 3.062127 1_555
S40 Si4 2.141602 1_655
S40 Sm16 2.865476 1_555
S40 Sm13 2.954283 1_655
S40 Sm8 2.976981 1_545
S41 Si5 2.152883 1_555
S41 Sm17 2.813559 1_555
S41 Sm14 2.892143 1_556
S41 Sm6 3.003890 1_555
