# generated using pymatgen
data_Tm(AlFe)6
_symmetry_space_group_name_H-M   'P 1'
_cell_length_a   6.53202783
_cell_length_b   6.54817092
_cell_length_c   6.54832923
_cell_angle_alpha   135.55593064
_cell_angle_beta   98.47043344
_cell_angle_gamma   97.98815935
_symmetry_Int_Tables_number   1
_chemical_formula_structural   Tm(AlFe)6
_chemical_formula_sum   'Tm1 Al6 Fe6'
_cell_volume   181.53246634
_cell_formula_units_Z   1
loop_
 _symmetry_equiv_pos_site_id
 _symmetry_equiv_pos_as_xyz
  1  'x, y, z'
loop_
 _atom_site_type_symbol
 _atom_site_label
 _atom_site_symmetry_multiplicity
 _atom_site_fract_x
 _atom_site_fract_y
 _atom_site_fract_z
 _atom_site_occupancy
  Tm  Tm0  1  -0.00000000  -0.00000000  -0.00000000  1
  Al  Al0  1  0.65366259  0.65381135  0.00017222  1
  Al  Al1  1  0.34633741  0.34618865  0.99982778  1
  Al  Al2  1  0.33720180  0.00013780  0.33700202  1
  Al  Al3  1  0.66279820  0.99986220  0.66299798  1
  Al  Al4  1  0.19288113  0.69292439  0.49992036  1
  Al  Al5  1  0.80711887  0.30707561  0.50007964  1
  Fe  Fe0  1  0.50000000  0.50000000  0.50000000  1
  Fe  Fe1  1  0.50000000  -0.00000000  -0.00000000  1
  Fe  Fe2  1  -0.00000000  0.50000000  -0.00000000  1
  Fe  Fe3  1  -0.00000000  -0.00000000  0.50000000  1
  Fe  Fe4  1  0.76076954  0.49995389  0.26078560  1
  Fe  Fe5  1  0.23923046  0.50004611  0.73921440  1
loop_
_geom_bond_atom_site_label_1
_geom_bond_atom_site_label_2
_geom_bond_distance
_geom_bond_site_symmetry_2
Al0 Fe5 2.585550 1_554
Al0 Fe4 2.591545 1_555
Al0 Fe2 2.600918 1_655
Al0 Fe3 2.601640 1_665
Al0 Fe1 2.604235 1_565
Al0 Fe0 2.605701 1_554
Al0 Al1 2.637390 1_554
Al0 Al5 2.804693 1_565
Al0 Al5 2.804804 1_554
Al0 Tm0 2.972511 1_665
Al1 Fe4 2.585550 1_556
Al1 Fe5 2.591545 1_555
Al1 Fe2 2.600918 1_556
Al1 Fe3 2.601640 1_555
Al1 Fe1 2.604235 1_556
Al1 Fe0 2.605701 1_556
Al1 Al4 2.804693 1_545
Al1 Al4 2.804804 1_556
Al1 Tm0 2.972511 1_556
Al2 Fe3 2.585379 1_555
Al2 Fe1 2.586417 1_555
Al2 Fe2 2.586618 1_545
Al2 Fe0 2.587181 1_555
Al2 Fe5 2.613482 1_555
Al2 Fe5 2.613904 1_544
Al2 Al3 2.783777 1_545
Al2 Tm0 2.878560 1_555
Al2 Al5 2.976052 1_555
Al2 Al4 2.984518 1_545
Al3 Fe3 2.585379 1_665
Al3 Fe1 2.586417 1_566
Al3 Fe2 2.586618 1_666
Al3 Fe0 2.587181 1_555
Al3 Fe4 2.613482 1_555
Al3 Fe4 2.613904 1_566
Al3 Tm0 2.878560 1_666
Al3 Al4 2.976052 1_555
Al3 Al5 2.984518 1_565
Al4 Fe0 2.515039 1_555
Al4 Fe1 2.516495 1_566
Al4 Fe3 2.516631 1_565
Al4 Fe2 2.517439 1_555
Al4 Fe4 2.626207 1_455
Al4 Fe5 2.633371 1_555
Al4 Tm0 2.978538 1_566
Al4 Tm0 2.979730 1_555
Al5 Fe0 2.515039 1_555
Al5 Fe1 2.516495 1_555
Al5 Fe3 2.516631 1_655
Al5 Fe2 2.517439 1_656
Al5 Fe5 2.626207 1_655
Al5 Fe4 2.633371 1_555
Al5 Tm0 2.978538 1_655
Al5 Tm0 2.979730 1_666
Fe0 Fe1 2.476527 1_566
Fe0 Fe1 2.476527 1_555
Fe0 Fe5 2.478047 1_555
Fe0 Fe4 2.478047 1_555
Fe0 Tm0 3.267679 1_666
Fe0 Tm0 3.267679 1_555
Fe1 Fe5 2.479067 1_544
Fe1 Fe4 2.479067 1_555
Fe1 Tm0 3.266014 1_555
Fe1 Tm0 3.266014 1_655
Fe2 Fe3 2.476527 1_554
Fe2 Fe3 2.476527 1_565
Fe2 Fe4 2.478899 1_455
Fe2 Fe5 2.478899 1_554
Fe2 Tm0 3.274085 1_565
Fe2 Tm0 3.274085 1_555
Fe3 Fe4 2.479968 1_445
Fe3 Fe5 2.479968 1_555
Fe3 Tm0 3.274165 1_555
Fe3 Tm0 3.274165 1_556
Fe4 Tm0 3.209536 1_655
Fe4 Tm0 3.211349 1_666
Fe5 Tm0 3.209536 1_566
Fe5 Tm0 3.211349 1_555
