# generated using pymatgen
data_Ho2Fe12P7
_symmetry_space_group_name_H-M   'P 1'
_cell_length_a   8.96771698
_cell_length_b   8.96771698
_cell_length_c   3.63557700
_cell_angle_alpha   90.00000000
_cell_angle_beta   90.00000000
_cell_angle_gamma   120.00000722
_symmetry_Int_Tables_number   1
_chemical_formula_structural   Ho2Fe12P7
_chemical_formula_sum   'Ho2 Fe12 P7'
_cell_volume   253.20235127
_cell_formula_units_Z   1
loop_
 _symmetry_equiv_pos_site_id
 _symmetry_equiv_pos_as_xyz
  1  'x, y, z'
loop_
 _atom_site_type_symbol
 _atom_site_label
 _atom_site_symmetry_multiplicity
 _atom_site_fract_x
 _atom_site_fract_y
 _atom_site_fract_z
 _atom_site_occupancy
  Ho  Ho0  1  0.00000000  0.00000000  0.00000000  1
  Ho  Ho1  1  0.33333300  0.66666700  0.50000000  1
  Fe  Fe0  1  0.29395900  0.90512800  0.00000000  1
  Fe  Fe1  1  0.61116900  0.70604100  0.00000000  1
  Fe  Fe2  1  0.09487200  0.38883100  0.00000000  1
  Fe  Fe3  1  0.78630600  0.17825300  0.00000000  1
  Fe  Fe4  1  0.39194700  0.21369400  0.00000000  1
  Fe  Fe5  1  0.82174700  0.60805300  0.00000000  1
  Fe  Fe6  1  0.71530800  0.94948400  0.50000000  1
  Fe  Fe7  1  0.23417700  0.28469200  0.50000000  1
  Fe  Fe8  1  0.05051600  0.76582300  0.50000000  1
  Fe  Fe9  1  0.54573800  0.11527000  0.50000000  1
  Fe  Fe10  1  0.56953200  0.45426200  0.50000000  1
  Fe  Fe11  1  0.88473000  0.43046800  0.50000000  1
  P  P0  1  0.55240800  0.92307300  0.00000000  1
  P  P1  1  0.37066500  0.44759200  0.00000000  1
  P  P2  1  0.07692700  0.62933500  0.00000000  1
  P  P3  1  0.95605300  0.22070800  0.50000000  1
  P  P4  1  0.26465500  0.04394700  0.50000000  1
  P  P5  1  0.77929200  0.73534500  0.50000000  1
  P  P6  1  0.66666700  0.33333300  0.00000000  1
loop_
_geom_bond_atom_site_label_1
_geom_bond_atom_site_label_2
_geom_bond_distance
_geom_bond_site_symmetry_2
Ho0 P5 2.856067 1_445
Ho0 P5 2.856067 1_444
Ho0 P4 2.856067 1_554
Ho0 P4 2.856067 1_555
Ho0 P3 2.856067 1_454
Ho0 P3 2.856067 1_455
Ho1 P2 2.816696 1_556
Ho1 P2 2.816696 1_555
Ho1 P0 2.816698 1_555
Ho1 P0 2.816698 1_556
Ho1 P1 2.816703 1_556
Ho1 P1 2.816703 1_555
Fe0 P0 2.241571 1_555
Fe0 P2 2.256388 1_555
Fe0 P4 2.291355 1_565
Fe0 P4 2.291355 1_564
Fe0 Ho1 2.959236 1_555
Fe0 Ho1 2.959236 1_554
Fe0 Ho0 3.148947 1_565
Fe1 P1 2.241571 1_555
Fe1 P0 2.256388 1_555
Fe1 P5 2.291355 1_555
Fe1 P5 2.291355 1_554
Fe1 Ho1 2.959243 1_554
Fe1 Ho1 2.959243 1_555
Fe1 Ho0 3.148946 1_665
Fe2 P2 2.241571 1_555
Fe2 P1 2.256388 1_555
Fe2 P3 2.291355 1_454
Fe2 P3 2.291355 1_455
Fe2 Ho1 2.959240 1_555
Fe2 Ho1 2.959240 1_554
Fe2 Ho0 3.148947 1_555
Fe3 P6 2.139452 1_555
Fe3 P0 2.199176 1_545
Fe3 P3 2.277493 1_555
Fe3 P3 2.277493 1_554
Fe3 Ho0 3.048112 1_655
Fe4 P6 2.139460 1_555
Fe4 P1 2.199176 1_555
Fe4 P4 2.277493 1_555
Fe4 P4 2.277493 1_554
Fe4 Ho0 3.048112 1_555
Fe5 P6 2.139459 1_555
Fe5 P2 2.199176 1_655
Fe5 P5 2.277493 1_555
Fe5 P5 2.277493 1_554
Fe5 Ho0 3.048112 1_665
Fe6 P5 2.262478 1_555
Fe6 P0 2.269033 1_556
Fe6 P0 2.269033 1_555
Fe6 P3 2.307768 1_565
Fe6 Ho0 2.978425 1_666
Fe6 Ho0 2.978425 1_665
Fe6 Ho1 3.078701 1_555
Fe7 P3 2.262486 1_455
Fe7 P1 2.269031 1_555
Fe7 P1 2.269031 1_556
Fe7 P4 2.307763 1_555
Fe7 Ho0 2.978427 1_556
Fe7 Ho0 2.978427 1_555
Fe7 Ho1 3.078706 1_555
Fe8 P4 2.262483 1_565
Fe8 P2 2.269028 1_555
Fe8 P2 2.269028 1_556
Fe8 P5 2.307772 1_455
Fe8 Ho0 2.978432 1_565
Fe8 Ho0 2.978432 1_566
Fe8 Ho1 3.078689 1_555
Fe9 P4 2.269505 1_555
Fe9 P6 2.486725 1_555
Fe9 P6 2.486725 1_556
Fe9 P0 2.526206 1_546
Fe9 P0 2.526206 1_545
Fe10 P5 2.269504 1_555
Fe10 P6 2.486731 1_555
Fe10 P6 2.486731 1_556
Fe10 P1 2.526206 1_556
Fe10 P1 2.526206 1_555
Fe11 P3 2.269505 1_555
Fe11 P6 2.486725 1_555
Fe11 P6 2.486725 1_556
Fe11 P2 2.526206 1_655
Fe11 P2 2.526206 1_656
