# generated using pymatgen
data_SrCaLaSbO6
_symmetry_space_group_name_H-M   'P 1'
_cell_length_a   5.86343495
_cell_length_b   6.03415779
_cell_length_c   8.44969212
_cell_angle_alpha   90.14852144
_cell_angle_beta   90.62515770
_cell_angle_gamma   89.98835425
_symmetry_Int_Tables_number   1
_chemical_formula_structural   SrCaLaSbO6
_chemical_formula_sum   'Sr2 Ca2 La2 Sb2 O12'
_cell_volume   298.93883742
_cell_formula_units_Z   2
loop_
 _symmetry_equiv_pos_site_id
 _symmetry_equiv_pos_as_xyz
  1  'x, y, z'
loop_
 _atom_site_type_symbol
 _atom_site_label
 _atom_site_symmetry_multiplicity
 _atom_site_fract_x
 _atom_site_fract_y
 _atom_site_fract_z
 _atom_site_occupancy
  Sr  Sr0  1  0.51206929  0.55071829  0.25043190  1
  Sr  Sr1  1  0.48793071  0.44928171  0.74956810  1
  Ca  Ca0  1  0.98586998  0.04772880  0.25304363  1
  Ca  Ca1  1  0.01413002  0.95227120  0.74695637  1
  La  La0  1  -0.00000000  0.50000000  -0.00000000  1
  La  La1  1  0.50000000  -0.00000000  0.50000000  1
  Sb  Sb0  1  0.50000000  -0.00000000  -0.00000000  1
  Sb  Sb1  1  -0.00000000  0.50000000  0.50000000  1
  O  O0  1  0.22186807  0.17802384  0.93609139  1
  O  O1  1  0.27914216  0.68245027  0.54732394  1
  O  O2  1  0.77813193  0.82197616  0.06390861  1
  O  O3  1  0.72085784  0.31754973  0.45267606  1
  O  O4  1  0.32540252  0.72181416  0.94275775  1
  O  O5  1  0.16927323  0.21719729  0.56380553  1
  O  O6  1  0.67459748  0.27818584  0.05724225  1
  O  O7  1  0.83072677  0.78280271  0.43619447  1
  O  O8  1  0.37894181  0.96775026  0.22533286  1
  O  O9  1  0.09613315  0.44253801  0.27360829  1
  O  O10  1  0.62105819  0.03224974  0.77466714  1
  O  O11  1  0.90386685  0.55746199  0.72639171  1
loop_
_geom_bond_atom_site_label_1
_geom_bond_atom_site_label_2
_geom_bond_distance
_geom_bond_site_symmetry_2
Ca0 O8 2.368617 1_645
Ca0 O7 2.412913 1_545
Ca0 O2 2.416664 1_545
Ca0 O9 2.473815 1_655
Ca0 O6 2.819067 1_555
Ca0 O3 2.820058 1_555
Ca0 O5 3.003680 1_655
Ca1 O10 2.368617 1_465
Ca1 O5 2.412913 1_565
Ca1 O0 2.416664 1_565
Ca1 O11 2.473815 1_455
Ca1 O4 2.819067 1_555
Ca1 O1 2.820058 1_555
Ca1 O7 3.003680 1_455
La0 O4 2.385442 1_554
La0 O6 2.385442 1_455
La0 O11 2.399687 1_454
La0 O9 2.399687 1_555
La0 O0 2.401566 1_554
La0 O2 2.401566 1_455
La1 O1 2.350485 1_545
La1 O3 2.350485 1_555
La1 O5 2.405607 1_555
La1 O7 2.405607 1_545
La1 O10 2.426898 1_555
La1 O8 2.426898 1_545
O0 Sb0 2.021925 1_556
O0 Sr1 2.768561 1_555
O1 Sb1 2.008734 1_555
O1 Sr1 2.522845 1_555
O1 Sr0 2.975639 1_555
O2 Sb0 2.021925 1_565
O2 Sr0 2.768561 1_555
O3 Sb1 2.008734 1_655
O3 Sr0 2.522845 1_555
O3 Sr1 2.975639 1_555
O4 Sb0 2.021245 1_566
O4 Sr1 2.509313 1_555
O4 Sr0 2.995649 1_556
O5 Sb1 2.044562 1_555
O5 Sr1 2.800297 1_555
O6 Sb0 2.021245 1_555
O6 Sr0 2.509313 1_555
O6 Sr1 2.995649 1_554
O7 Sb1 2.044562 1_655
O7 Sr0 2.800297 1_555
O8 Sb0 2.048992 1_565
O8 Sr0 2.642934 1_555
O9 Sb1 2.029113 1_555
O9 Sr0 2.534564 1_555
O10 Sb0 2.048992 1_556
O10 Sr1 2.642934 1_555
O11 Sb1 2.029113 1_655
O11 Sr1 2.534564 1_555
