# generated using pymatgen
data_Nb3Al(PO4)6
_symmetry_space_group_name_H-M   'P 1'
_cell_length_a   8.95661100
_cell_length_b   8.95661100
_cell_length_c   8.95661134
_cell_angle_alpha   58.16568983
_cell_angle_beta   58.16568983
_cell_angle_gamma   58.16568385
_symmetry_Int_Tables_number   1
_chemical_formula_structural   Nb3Al(PO4)6
_chemical_formula_sum   'Nb3 Al1 P6 O24'
_cell_volume   486.70284748
_cell_formula_units_Z   1
loop_
 _symmetry_equiv_pos_site_id
 _symmetry_equiv_pos_as_xyz
  1  'x, y, z'
loop_
 _atom_site_type_symbol
 _atom_site_label
 _atom_site_symmetry_multiplicity
 _atom_site_fract_x
 _atom_site_fract_y
 _atom_site_fract_z
 _atom_site_occupancy
  Nb  Nb0  1  0.35864100  0.35864100  0.35864100  1
  Nb  Nb1  1  0.14080200  0.14080200  0.14080200  1
  Nb  Nb2  1  0.63974100  0.63974100  0.63974100  1
  Al  Al0  1  0.85768200  0.85768200  0.85768200  1
  P  P0  1  0.54257500  0.96636900  0.23732700  1
  P  P1  1  0.96636900  0.23732700  0.54257500  1
  P  P2  1  0.23732700  0.54257500  0.96636900  1
  P  P3  1  0.75139800  0.47797100  0.02845300  1
  P  P4  1  0.47797100  0.02845300  0.75139800  1
  P  P5  1  0.02845300  0.75139800  0.47797100  1
  O  O0  1  0.50522700  0.13660100  0.27411100  1
  O  O1  1  0.13660100  0.27411100  0.50522700  1
  O  O2  1  0.27411100  0.50522700  0.13660100  1
  O  O3  1  0.77709600  0.64428900  0.00099500  1
  O  O4  1  0.64428900  0.00099500  0.77709600  1
  O  O5  1  0.00099500  0.77709600  0.64428900  1
  O  O6  1  0.49644300  0.86192900  0.72426200  1
  O  O7  1  0.86192900  0.72426200  0.49644300  1
  O  O8  1  0.72426200  0.49644300  0.86192900  1
  O  O9  1  0.22432100  0.36236000  0.99576200  1
  O  O10  1  0.36236000  0.99576200  0.22432100  1
  O  O11  1  0.99576200  0.22432100  0.36236000  1
  O  O12  1  0.71390500  0.93667900  0.06938100  1
  O  O13  1  0.93667900  0.06938100  0.71390500  1
  O  O14  1  0.06938100  0.71390500  0.93667900  1
  O  O15  1  0.57842700  0.44040300  0.20678900  1
  O  O16  1  0.44040300  0.20678900  0.57842700  1
  O  O17  1  0.20678900  0.57842700  0.44040300  1
  O  O18  1  0.29376800  0.06057300  0.92109200  1
  O  O19  1  0.06057300  0.92109200  0.29376800  1
  O  O20  1  0.92109200  0.29376800  0.06057300  1
  O  O21  1  0.41973900  0.56174100  0.79308000  1
  O  O22  1  0.56174100  0.79308000  0.41973900  1
  O  O23  1  0.79308000  0.41973900  0.56174100  1
loop_
_geom_bond_atom_site_label_1
_geom_bond_atom_site_label_2
_geom_bond_distance
_geom_bond_site_symmetry_2
Nb0 O17 1.976577 1_555
Nb0 O16 1.976577 1_555
Nb0 O15 1.976577 1_555
Nb0 O0 2.009302 1_555
Nb0 O2 2.009302 1_555
Nb0 O1 2.009302 1_555
Nb1 O20 1.968468 1_455
Nb1 O18 1.968468 1_554
Nb1 O19 1.968468 1_545
Nb1 O10 2.001593 1_545
Nb1 O11 2.001593 1_455
Nb1 O9 2.001593 1_554
Nb2 O23 1.960150 1_555
Nb2 O22 1.960151 1_555
Nb2 O21 1.960151 1_555
Nb2 O6 2.012584 1_555
Nb2 O8 2.012584 1_555
Nb2 O7 2.012584 1_555
Al0 O14 1.905882 1_655
Al0 O12 1.905882 1_556
Al0 O13 1.905882 1_565
Al0 O4 1.926507 1_565
Al0 O5 1.926507 1_655
Al0 O3 1.926507 1_556
O0 P0 1.555883 1_545
O1 P1 1.555883 1_455
O2 P2 1.555883 1_554
O3 P3 1.499339 1_555
O4 P4 1.499339 1_555
O5 P5 1.499339 1_555
O6 P4 1.546178 1_565
O7 P5 1.546178 1_655
O8 P3 1.546178 1_556
O9 P2 1.551120 1_555
O10 P0 1.551120 1_555
O11 P1 1.551120 1_555
O12 P0 1.498208 1_555
O13 P1 1.498208 1_555
O14 P2 1.498208 1_555
O15 P3 1.561127 1_555
O16 P4 1.561127 1_555
O17 P5 1.561126 1_555
O18 P4 1.558855 1_555
O19 P5 1.558855 1_555
O20 P3 1.558855 1_555
O21 P2 1.564428 1_555
O22 P0 1.564428 1_555
O23 P1 1.564428 1_555
