# generated using pymatgen
data_Nd2Ga5Au3
_symmetry_space_group_name_H-M   'P 1'
_cell_length_a   4.39365900
_cell_length_b   4.39365900
_cell_length_c   10.96830800
_cell_angle_alpha   90.00000000
_cell_angle_beta   90.00000000
_cell_angle_gamma   90.00000000
_symmetry_Int_Tables_number   1
_chemical_formula_structural   Nd2Ga5Au3
_chemical_formula_sum   'Nd2 Ga5 Au3'
_cell_volume   211.73484354
_cell_formula_units_Z   1
loop_
 _symmetry_equiv_pos_site_id
 _symmetry_equiv_pos_as_xyz
  1  'x, y, z'
loop_
 _atom_site_type_symbol
 _atom_site_label
 _atom_site_symmetry_multiplicity
 _atom_site_fract_x
 _atom_site_fract_y
 _atom_site_fract_z
 _atom_site_occupancy
  Nd  Nd0  1  0.50000000  0.00000000  0.25540400  1
  Nd  Nd1  1  0.00000000  0.50000000  0.74459600  1
  Ga  Ga0  1  0.50000000  0.50000000  0.00000000  1
  Ga  Ga1  1  0.00000000  0.00000000  0.00000000  1
  Ga  Ga2  1  0.50000000  0.00000000  0.87115300  1
  Ga  Ga3  1  0.00000000  0.50000000  0.12884700  1
  Ga  Ga4  1  0.50000000  0.50000000  0.50000000  1
  Au  Au0  1  0.50000000  0.00000000  0.64638300  1
  Au  Au1  1  0.00000000  0.50000000  0.35361700  1
  Au  Au2  1  0.00000000  0.00000000  0.50000000  1
loop_
_geom_bond_atom_site_label_1
_geom_bond_atom_site_label_2
_geom_bond_distance
_geom_bond_site_symmetry_2
Ga0 Ga3 2.612143 1_655
Ga0 Ga3 2.612143 1_555
Ga0 Ga2 2.612143 1_554
Ga0 Ga2 2.612143 1_564
Ga0 Nd0 3.560003 1_565
Ga0 Nd1 3.560003 1_654
Ga0 Nd1 3.560003 1_554
Ga0 Nd0 3.560003 1_555
Ga1 Ga3 2.612143 1_545
Ga1 Ga3 2.612143 1_555
Ga1 Ga2 2.612143 1_454
Ga1 Ga2 2.612143 1_554
Ga1 Nd1 3.560003 1_544
Ga1 Nd0 3.560003 1_455
Ga1 Nd1 3.560003 1_554
Ga1 Nd0 3.560003 1_555
Ga2 Nd1 3.402791 1_655
Ga2 Nd1 3.402791 1_645
Ga2 Nd1 3.402791 1_555
Ga2 Nd1 3.402791 1_545
Ga3 Nd0 3.402791 1_455
Ga3 Nd0 3.402791 1_555
Ga3 Nd0 3.402791 1_465
Ga3 Nd0 3.402791 1_565
Ga4 Nd0 3.467492 1_565
Ga4 Nd0 3.467492 1_555
Ga4 Nd1 3.467492 1_655
Ga4 Nd1 3.467492 1_555
Au0 Ga2 2.465347 1_555
Au0 Au2 2.721016 1_555
Au0 Ga4 2.721016 1_555
Au0 Ga4 2.721016 1_545
Au0 Au2 2.721016 1_655
Au0 Nd1 3.288243 1_645
Au0 Nd1 3.288243 1_555
Au0 Nd1 3.288243 1_545
Au0 Nd1 3.288243 1_655
Au1 Ga3 2.465347 1_555
Au1 Au2 2.721016 1_565
Au1 Ga4 2.721016 1_455
Au1 Au2 2.721016 1_555
Au1 Ga4 2.721016 1_555
Au1 Nd0 3.288243 1_465
Au1 Nd0 3.288243 1_565
Au1 Nd0 3.288243 1_455
Au1 Nd0 3.288243 1_555
Au2 Ga4 3.106786 1_555
Au2 Ga4 3.106786 1_545
Au2 Ga4 3.106786 1_445
Au2 Ga4 3.106786 1_455
Au2 Nd0 3.467492 1_455
Au2 Nd0 3.467492 1_555
Au2 Nd1 3.467492 1_555
Au2 Nd1 3.467492 1_545
