# generated using pymatgen
data_V3Co(PO4)6
_symmetry_space_group_name_H-M   'P 1'
_cell_length_a   8.54933879
_cell_length_b   8.54933879
_cell_length_c   8.54933876
_cell_angle_alpha   57.51843195
_cell_angle_beta   57.51843191
_cell_angle_gamma   57.51843785
_symmetry_Int_Tables_number   1
_chemical_formula_structural   V3Co(PO4)6
_chemical_formula_sum   'V3 Co1 P6 O24'
_cell_volume   416.64135522
_cell_formula_units_Z   1
loop_
 _symmetry_equiv_pos_site_id
 _symmetry_equiv_pos_as_xyz
  1  'x, y, z'
loop_
 _atom_site_type_symbol
 _atom_site_label
 _atom_site_symmetry_multiplicity
 _atom_site_fract_x
 _atom_site_fract_y
 _atom_site_fract_z
 _atom_site_occupancy
  V  V0  1  0.85748875  0.85748875  0.85748875  1
  V  V1  1  0.63956222  0.63956222  0.63956222  1
  V  V2  1  0.36311127  0.36311127  0.36311127  1
  Co  Co0  1  0.14483317  0.14483317  0.14483317  1
  P  P0  1  0.25364518  0.52234636  0.96912333  1
  P  P1  1  0.96912333  0.25364518  0.52234636  1
  P  P2  1  0.52234736  0.96912333  0.25364518  1
  P  P3  1  0.46488458  0.03142288  0.75719771  1
  P  P4  1  0.03142288  0.75719771  0.46488458  1
  P  P5  1  0.75719771  0.46488458  0.03142288  1
  O  O0  1  0.69082313  0.50594246  0.87448214  1
  O  O1  1  0.50594246  0.87448214  0.69082313  1
  O  O2  1  0.05040287  0.68969678  0.97194074  1
  O  O3  1  0.87448214  0.69082313  0.50594246  1
  O  O4  1  0.40422403  0.59901093  0.76780843  1
  O  O5  1  0.27191133  0.33247497  0.97921216  1
  O  O6  1  0.97194074  0.05040287  0.68969678  1
  O  O7  1  0.76780843  0.40422403  0.59901093  1
  O  O8  1  0.59901093  0.76780843  0.40422403  1
  O  O9  1  0.66119539  0.01266736  0.74261535  1
  O  O10  1  0.30715368  0.01266661  0.95747113  1
  O  O11  1  0.01266736  0.74261535  0.66119539  1
  O  O12  1  0.97921216  0.27191133  0.33247497  1
  O  O13  1  0.68969678  0.97194074  0.05040287  1
  O  O14  1  0.33247497  0.97921216  0.27191133  1
  O  O15  1  0.40438985  0.23316285  0.59688951  1
  O  O16  1  0.23316285  0.59688951  0.40438985  1
  O  O17  1  0.01266661  0.95747113  0.30715368  1
  O  O18  1  0.74261535  0.66119539  0.01266736  1
  O  O19  1  0.59688951  0.40438985  0.23316285  1
  O  O20  1  0.13095163  0.29974794  0.49954125  1
  O  O21  1  0.95747113  0.30715368  0.01266661  1
  O  O22  1  0.49954125  0.13095163  0.29974794  1
  O  O23  1  0.29974794  0.49954125  0.13095163  1
loop_
_geom_bond_atom_site_label_1
_geom_bond_atom_site_label_2
_geom_bond_distance
_geom_bond_site_symmetry_2
Co0 O5 1.881152 1_554
Co0 O12 1.881152 1_455
Co0 O14 1.881152 1_545
Co0 O17 1.908060 1_545
Co0 O10 1.908060 1_554
Co0 O21 1.908060 1_455
O0 P5 1.530837 1_556
O0 V1 1.863913 1_555
O1 P3 1.530837 1_565
O1 V1 1.863913 1_555
O2 P0 1.545549 1_555
O2 V0 1.849324 1_455
O3 P4 1.530837 1_655
O3 V1 1.863913 1_555
O4 P0 1.537520 1_555
O4 V1 1.828110 1_555
O5 P0 1.502885 1_555
O6 P1 1.545549 1_555
O6 V0 1.849324 1_545
O7 P1 1.537520 1_555
O7 V1 1.828111 1_555
O8 P2 1.537518 1_555
O8 V1 1.828110 1_555
O9 P3 1.538093 1_555
O9 V0 1.876260 1_545
O10 P3 1.494412 1_555
O11 P4 1.538093 1_555
O11 V0 1.876260 1_455
O12 P1 1.502885 1_555
O13 P2 1.545546 1_555
O13 V0 1.849324 1_554
O14 P2 1.502894 1_555
O15 P3 1.544327 1_555
O15 V2 1.817961 1_555
O16 P4 1.544327 1_555
O16 V2 1.817961 1_555
O17 P4 1.494412 1_555
O18 P5 1.538093 1_555
O18 V0 1.876260 1_554
O19 P5 1.544327 1_555
O19 V2 1.817961 1_555
O20 P1 1.523465 1_455
O20 V2 1.892900 1_555
O21 P5 1.494412 1_555
O22 P2 1.523461 1_545
O22 V2 1.892901 1_555
O23 P0 1.523465 1_554
O23 V2 1.892900 1_555
