# generated using pymatgen
data_Cs3K5Mo8(P2O11)4
_symmetry_space_group_name_H-M   'P 1'
_cell_length_a   10.02900800
_cell_length_b   10.29508661
_cell_length_c   10.36214144
_cell_angle_alpha   90.02056818
_cell_angle_beta   90.08144164
_cell_angle_gamma   100.08550257
_symmetry_Int_Tables_number   1
_chemical_formula_structural   Cs3K5Mo8(P2O11)4
_chemical_formula_sum   'Cs3 K5 Mo8 P8 O44'
_cell_volume   1053.35232917
_cell_formula_units_Z   1
loop_
 _symmetry_equiv_pos_site_id
 _symmetry_equiv_pos_as_xyz
  1  'x, y, z'
loop_
 _atom_site_type_symbol
 _atom_site_label
 _atom_site_symmetry_multiplicity
 _atom_site_fract_x
 _atom_site_fract_y
 _atom_site_fract_z
 _atom_site_occupancy
  Cs  Cs0  1  0.26285500  0.75330800  0.80800700  1
  Cs  Cs1  1  0.75793600  0.75315000  0.69437100  1
  Cs  Cs2  1  0.74216200  0.24692900  0.19458300  1
  K  K0  1  0.49974500  0.00012100  0.49977200  1
  K  K1  1  0.00026300  0.00025600  0.00009000  1
  K  K2  1  0.23678200  0.24423200  0.31390400  1
  K  K3  1  0.99881000  0.49729700  0.53869300  1
  K  K4  1  0.50123200  0.50244700  0.03899600  1
  Mo  Mo0  1  0.35710100  0.91632500  0.18170000  1
  Mo  Mo1  1  0.14273400  0.08479700  0.68113100  1
  Mo  Mo2  1  0.64255800  0.08503800  0.81897800  1
  Mo  Mo3  1  0.85804500  0.91574800  0.31894700  1
  Mo  Mo4  1  0.36357300  0.65481900  0.42507100  1
  Mo  Mo5  1  0.13658400  0.34474700  0.92617700  1
  Mo  Mo6  1  0.63416700  0.34438400  0.57397800  1
  Mo  Mo7  1  0.86547600  0.65544900  0.07454800  1
  P  P0  1  0.17700900  0.59815700  0.13860900  1
  P  P1  1  0.32265500  0.40034800  0.63689300  1
  P  P2  1  0.82320600  0.40145900  0.86156700  1
  P  P3  1  0.67689300  0.59870800  0.36147100  1
  P  P4  1  0.15104800  0.87547300  0.43596600  1
  P  P5  1  0.34919600  0.12519700  0.93634300  1
  P  P6  1  0.84872000  0.12465800  0.56417000  1
  P  P7  1  0.65118700  0.87557900  0.06435800  1
  O  O0  1  0.41665300  0.79673900  0.30479800  1
  O  O1  1  0.08335900  0.20381000  0.80493100  1
  O  O2  1  0.58262700  0.20373800  0.69498400  1
  O  O3  1  0.91742400  0.79652200  0.19518600  1
  O  O4  1  0.27425100  0.01922500  0.03140900  1
  O  O5  1  0.22584300  0.98063400  0.53204300  1
  O  O6  1  0.72560000  0.98051100  0.96813400  1
  O  O7  1  0.77427700  0.01955600  0.46784500  1
  O  O8  1  0.44725300  0.72089000  0.56348100  1
  O  O9  1  0.05532000  0.27850400  0.06569600  1
  O  O10  1  0.55141400  0.27854200  0.43484600  1
  O  O11  1  0.94706100  0.72165300  0.93533400  1
  O  O12  1  0.23738400  0.55451600  0.26598000  1
  O  O13  1  0.26243800  0.44131000  0.76510000  1
  O  O14  1  0.76590800  0.44313000  0.73193600  1
  O  O15  1  0.73415800  0.55684800  0.23187000  1
  O  O16  1  0.44747300  0.06520500  0.24007500  1
  O  O17  1  0.04989600  0.93716700  0.73882100  1
  O  O18  1  0.54964000  0.93749600  0.76066500  1
  O  O19  1  0.95232800  0.06326000  0.26187700  1
  O  O20  1  0.27292600  0.48105200  0.52336300  1
  O  O21  1  0.22686600  0.51869100  0.02426900  1
  O  O22  1  0.72607900  0.51798000  0.47502800  1
  O  O23  1  0.77384200  0.48189000  0.97511600  1
  O  O24  1  0.19226300  0.92615000  0.29803000  1
  O  O25  1  0.30766100  0.07639100  0.79776900  1
  O  O26  1  0.80744300  0.07502700  0.70232600  1
  O  O27  1  0.69295300  0.92556200  0.20252300  1
  O  O28  1  0.51870500  0.56561500  0.35150000  1
  O  O29  1  0.98141300  0.43414200  0.85233000  1
  O  O30  1  0.48042600  0.43378600  0.64609200  1
  O  O31  1  0.01917500  0.56541000  0.14670000  1
  O  O32  1  0.18751200  0.73772700  0.46727400  1
  O  O33  1  0.31312000  0.26263800  0.96898700  1
  O  O34  1  0.81154100  0.26194200  0.53292100  1
  O  O35  1  0.68790100  0.73814500  0.03313400  1
  O  O36  1  0.49559000  0.86280600  0.05010700  1
  O  O37  1  0.00425200  0.13804000  0.54926000  1
  O  O38  1  0.50459100  0.13716900  0.95103500  1
  O  O39  1  0.99568700  0.86282800  0.45094100  1
  O  O40  1  0.22627900  0.74518400  0.10643200  1
  O  O41  1  0.27322300  0.25386700  0.60136500  1
  O  O42  1  0.77392600  0.25474100  0.89464700  1
  O  O43  1  0.72638200  0.74533600  0.39451500  1
loop_
_geom_bond_atom_site_label_1
_geom_bond_atom_site_label_2
_geom_bond_distance
_geom_bond_site_symmetry_2
Cs0 O40 3.113948 1_556
Cs0 O17 3.173458 1_555
Cs0 O8 3.190689 1_555
Cs0 O18 3.194250 1_555
Cs0 O13 3.241790 1_555
Cs0 O21 3.269112 1_556
Cs0 O25 3.279250 1_565
Cs0 O11 3.395320 1_455
Cs0 O36 3.474484 1_556
Cs0 O4 3.570954 1_566
Cs0 O32 3.607250 1_555
Cs0 O5 3.754758 1_555
Cs1 O43 3.122356 1_555
Cs1 O18 3.135186 1_555
Cs1 O11 3.184298 1_555
Cs1 O17 3.229163 1_655
Cs1 O14 3.230314 1_555
Cs1 O26 3.264615 1_565
Cs1 O22 3.294352 1_555
Cs1 O8 3.359101 1_555
Cs1 O39 3.521269 1_555
Cs1 O35 3.578949 1_556
Cs1 O7 3.592659 1_565
Cs1 O6 3.727603 1_555
Cs2 O42 3.124341 1_554
Cs2 O19 3.145946 1_555
Cs2 O10 3.192940 1_555
Cs2 O15 3.228751 1_555
Cs2 O16 3.244230 1_555
Cs2 O27 3.259594 1_545
Cs2 O23 3.295575 1_554
Cs2 O9 3.377542 1_655
Cs2 O38 3.515755 1_554
Cs2 O34 3.571333 1_555
Cs2 O6 3.590443 1_544
Cs2 O7 3.723877 1_555
K0 O5 2.739988 1_545
K0 O7 2.745861 1_555
K0 O18 2.843396 1_545
K0 O16 2.843531 1_555
K0 O10 2.901616 1_555
K0 O8 2.906753 1_545
K0 O0 2.922577 1_545
K0 O2 2.925560 1_555
K1 O4 2.739251 1_555
K1 O6 2.745910 1_444
K1 O17 2.848674 1_544
K1 O19 2.849928 1_455
K1 O9 2.901113 1_555
K1 O11 2.902303 1_444
K1 O1 2.927764 1_554
K1 O3 2.928137 1_445
K2 O41 3.000021 1_555
K2 O16 3.132845 1_555
K2 O19 3.167595 1_455
K2 O9 3.203704 1_555
K2 O24 3.230677 1_545
K2 O12 3.231908 1_555
K2 O20 3.235878 1_555
K2 O10 3.354138 1_555
K2 O37 3.421476 1_555
K3 O20 2.788022 1_655
K3 O34 2.794211 1_555
K3 O22 2.856736 1_555
K3 O32 2.936107 1_655
K3 O14 3.055221 1_555
K3 O29 3.313422 1_555
K4 O21 2.789740 1_555
K4 O35 2.793909 1_555
K4 O23 2.857523 1_554
K4 O33 2.923050 1_554
K4 O15 3.048393 1_555
K4 O28 3.300999 1_555
Mo0 O16 1.745810 1_565
Mo0 O0 1.938033 1_555
Mo0 O24 2.064067 1_555
Mo0 O36 2.089229 1_555
Mo0 O4 2.131606 1_565
Mo0 O40 2.149535 1_555
Mo1 O17 1.743804 1_545
Mo1 O1 1.938571 1_555
Mo1 O25 2.061230 1_555
Mo1 O37 2.087660 1_555
Mo1 O5 2.132332 1_545
Mo1 O41 2.152158 1_555
Mo2 O18 1.744342 1_545
Mo2 O2 1.939487 1_555
Mo2 O26 2.066765 1_555
Mo2 O38 2.083274 1_555
Mo2 O6 2.133507 1_545
Mo2 O42 2.143100 1_555
Mo3 O19 1.746255 1_565
Mo3 O3 1.939825 1_555
Mo3 O27 2.063973 1_555
Mo3 O39 2.081261 1_555
Mo3 O7 2.132002 1_565
Mo3 O43 2.151106 1_555
Mo4 O8 1.737794 1_555
Mo4 O0 1.924097 1_555
Mo4 O28 2.085291 1_555
Mo4 O20 2.120968 1_555
Mo4 O32 2.137127 1_555
Mo4 O12 2.218268 1_555
Mo5 O9 1.740345 1_556
Mo5 O1 1.922030 1_555
Mo5 O29 2.086405 1_455
Mo5 O21 2.118495 1_556
Mo5 O33 2.137325 1_555
Mo5 O13 2.221492 1_555
Mo6 O10 1.739438 1_555
Mo6 O2 1.917553 1_555
Mo6 O30 2.069470 1_555
Mo6 O22 2.126513 1_555
Mo6 O34 2.143942 1_555
Mo6 O14 2.231685 1_555
Mo7 O11 1.738888 1_554
Mo7 O3 1.917102 1_555
Mo7 O31 2.071703 1_655
Mo7 O23 2.125954 1_554
Mo7 O35 2.147021 1_555
Mo7 O15 2.227442 1_555
O4 P5 1.562458 1_554
O5 P4 1.561606 1_555
O6 P7 1.561624 1_556
O7 P6 1.561614 1_555
O12 P0 1.550449 1_555
O13 P1 1.548721 1_555
O14 P2 1.550211 1_555
O15 P3 1.551616 1_555
O20 P1 1.570721 1_555
O21 P0 1.570779 1_555
O22 P3 1.568856 1_555
O23 P2 1.568343 1_555
O24 P4 1.553277 1_555
O25 P5 1.553170 1_555
O26 P6 1.552427 1_555
O27 P7 1.553140 1_555
O28 P3 1.566473 1_555
O29 P2 1.566314 1_555
O30 P1 1.562049 1_555
O31 P0 1.561990 1_555
O32 P4 1.559370 1_555
O33 P5 1.557807 1_555
O34 P6 1.557562 1_555
O35 P7 1.557131 1_555
O36 P7 1.549732 1_555
O37 P6 1.549633 1_455
O38 P5 1.548934 1_555
O39 P4 1.548682 1_655
O40 P0 1.544462 1_555
O41 P1 1.546840 1_555
O42 P2 1.543596 1_555
O43 P3 1.542419 1_555
