# generated using pymatgen
data_Cd3As2
_symmetry_space_group_name_H-M   'P 1'
_cell_length_a   13.01766287
_cell_length_b   13.01766287
_cell_length_c   25.78859515
_cell_angle_alpha   90.00000000
_cell_angle_beta   90.00000000
_cell_angle_gamma   90.00000000
_symmetry_Int_Tables_number   1
_chemical_formula_structural   Cd3As2
_chemical_formula_sum   'Cd96 As64'
_cell_volume   4370.12364149
_cell_formula_units_Z   32
loop_
 _symmetry_equiv_pos_site_id
 _symmetry_equiv_pos_as_xyz
  1  'x, y, z'
loop_
 _atom_site_type_symbol
 _atom_site_label
 _atom_site_symmetry_multiplicity
 _atom_site_fract_x
 _atom_site_fract_y
 _atom_site_fract_z
 _atom_site_occupancy
  Cd  Cd0  1  0.36063701  0.13926809  0.44581166  1
  Cd  Cd1  1  0.63936299  0.63926809  0.44581166  1
  Cd  Cd2  1  0.86063701  0.86073191  0.44581166  1
  Cd  Cd3  1  0.13936299  0.36073191  0.44581166  1
  Cd  Cd4  1  0.63926809  0.86063701  0.94581166  1
  Cd  Cd5  1  0.36073191  0.36063701  0.94581166  1
  Cd  Cd6  1  0.13926809  0.13936299  0.94581166  1
  Cd  Cd7  1  0.86073191  0.63936299  0.94581166  1
  Cd  Cd8  1  0.63936299  0.86073191  0.55418834  1
  Cd  Cd9  1  0.36063701  0.36073191  0.55418834  1
  Cd  Cd10  1  0.13936299  0.13926809  0.55418834  1
  Cd  Cd11  1  0.86063701  0.63926809  0.55418834  1
  Cd  Cd12  1  0.36073191  0.13936299  0.05418834  1
  Cd  Cd13  1  0.63926809  0.63936299  0.05418834  1
  Cd  Cd14  1  0.86073191  0.86063701  0.05418834  1
  Cd  Cd15  1  0.13926809  0.36063701  0.05418834  1
  Cd  Cd16  1  0.62681362  0.10378578  0.43760194  1
  Cd  Cd17  1  0.37318638  0.60378578  0.43760194  1
  Cd  Cd18  1  0.12681362  0.89621422  0.43760194  1
  Cd  Cd19  1  0.87318638  0.39621422  0.43760194  1
  Cd  Cd20  1  0.60378578  0.12681362  0.93760194  1
  Cd  Cd21  1  0.39621422  0.62681362  0.93760194  1
  Cd  Cd22  1  0.10378578  0.87318638  0.93760194  1
  Cd  Cd23  1  0.89621422  0.37318638  0.93760194  1
  Cd  Cd24  1  0.37318638  0.89621422  0.56239806  1
  Cd  Cd25  1  0.62681362  0.39621422  0.56239806  1
  Cd  Cd26  1  0.87318638  0.10378578  0.56239806  1
  Cd  Cd27  1  0.12681362  0.60378578  0.56239806  1
  Cd  Cd28  1  0.39621422  0.87318638  0.06239806  1
  Cd  Cd29  1  0.60378578  0.37318638  0.06239806  1
  Cd  Cd30  1  0.89621422  0.12681362  0.06239806  1
  Cd  Cd31  1  0.10378578  0.62681362  0.06239806  1
  Cd  Cd32  1  0.60718905  0.36337665  0.42854830  1
  Cd  Cd33  1  0.39281095  0.86337665  0.42854830  1
  Cd  Cd34  1  0.10718905  0.63662335  0.42854830  1
  Cd  Cd35  1  0.89281095  0.13662335  0.42854830  1
  Cd  Cd36  1  0.86337665  0.10718905  0.92854830  1
  Cd  Cd37  1  0.13662335  0.60718905  0.92854830  1
  Cd  Cd38  1  0.36337665  0.89281095  0.92854830  1
  Cd  Cd39  1  0.63662335  0.39281095  0.92854830  1
  Cd  Cd40  1  0.39281095  0.63662335  0.57145170  1
  Cd  Cd41  1  0.60718905  0.13662335  0.57145170  1
  Cd  Cd42  1  0.89281095  0.36337665  0.57145170  1
  Cd  Cd43  1  0.10718905  0.86337665  0.57145170  1
  Cd  Cd44  1  0.13662335  0.89281095  0.07145170  1
  Cd  Cd45  1  0.86337665  0.39281095  0.07145170  1
  Cd  Cd46  1  0.63662335  0.10718905  0.07145170  1
  Cd  Cd47  1  0.36337665  0.60718905  0.07145170  1
  Cd  Cd48  1  0.11221826  0.13178283  0.32056393  1
  Cd  Cd49  1  0.88778174  0.63178283  0.32056393  1
  Cd  Cd50  1  0.61221826  0.86821717  0.32056393  1
  Cd  Cd51  1  0.38778174  0.36821717  0.32056393  1
  Cd  Cd52  1  0.63178283  0.61221826  0.82056393  1
  Cd  Cd53  1  0.36821717  0.11221826  0.82056393  1
  Cd  Cd54  1  0.13178283  0.38778174  0.82056393  1
  Cd  Cd55  1  0.86821717  0.88778174  0.82056393  1
  Cd  Cd56  1  0.88778174  0.86821717  0.67943607  1
  Cd  Cd57  1  0.11221826  0.36821717  0.67943607  1
  Cd  Cd58  1  0.38778174  0.13178283  0.67943607  1
  Cd  Cd59  1  0.61221826  0.63178283  0.67943607  1
  Cd  Cd60  1  0.36821717  0.38778174  0.17943607  1
  Cd  Cd61  1  0.63178283  0.88778174  0.17943607  1
  Cd  Cd62  1  0.86821717  0.61221826  0.17943607  1
  Cd  Cd63  1  0.13178283  0.11221826  0.17943607  1
  Cd  Cd64  1  0.64186293  0.14140885  0.30361324  1
  Cd  Cd65  1  0.35813707  0.64140885  0.30361324  1
  Cd  Cd66  1  0.14186293  0.85859115  0.30361324  1
  Cd  Cd67  1  0.85813707  0.35859115  0.30361324  1
  Cd  Cd68  1  0.64140885  0.14186293  0.80361324  1
  Cd  Cd69  1  0.35859115  0.64186293  0.80361324  1
  Cd  Cd70  1  0.14140885  0.85813707  0.80361324  1
  Cd  Cd71  1  0.85859115  0.35813707  0.80361324  1
  Cd  Cd72  1  0.35813707  0.85859115  0.69638676  1
  Cd  Cd73  1  0.64186293  0.35859115  0.69638676  1
  Cd  Cd74  1  0.85813707  0.14140885  0.69638676  1
  Cd  Cd75  1  0.14186293  0.64140885  0.69638676  1
  Cd  Cd76  1  0.35859115  0.85813707  0.19638676  1
  Cd  Cd77  1  0.64140885  0.35813707  0.19638676  1
  Cd  Cd78  1  0.85859115  0.14186293  0.19638676  1
  Cd  Cd79  1  0.14140885  0.64186293  0.19638676  1
  Cd  Cd80  1  0.12982170  0.39727446  0.31244934  1
  Cd  Cd81  1  0.87017830  0.89727446  0.31244934  1
  Cd  Cd82  1  0.62982170  0.60272554  0.31244934  1
  Cd  Cd83  1  0.37017830  0.10272554  0.31244934  1
  Cd  Cd84  1  0.89727446  0.62982170  0.81244934  1
  Cd  Cd85  1  0.10272554  0.12982170  0.81244934  1
  Cd  Cd86  1  0.39727446  0.37017830  0.81244934  1
  Cd  Cd87  1  0.60272554  0.87017830  0.81244934  1
  Cd  Cd88  1  0.87017830  0.60272554  0.68755066  1
  Cd  Cd89  1  0.12982170  0.10272554  0.68755066  1
  Cd  Cd90  1  0.37017830  0.39727446  0.68755066  1
  Cd  Cd91  1  0.62982170  0.89727446  0.68755066  1
  Cd  Cd92  1  0.10272554  0.37017830  0.18755066  1
  Cd  Cd93  1  0.89727446  0.87017830  0.18755066  1
  Cd  Cd94  1  0.60272554  0.62982170  0.18755066  1
  Cd  Cd95  1  0.39727446  0.12982170  0.18755066  1
  As  As0  1  0.25000000  0.75000000  0.37643303  1
  As  As1  1  0.75000000  0.25000000  0.37643303  1
  As  As2  1  0.25000000  0.75000000  0.87643303  1
  As  As3  1  0.75000000  0.25000000  0.87643303  1
  As  As4  1  0.75000000  0.25000000  0.62356697  1
  As  As5  1  0.25000000  0.75000000  0.62356697  1
  As  As6  1  0.75000000  0.25000000  0.12356697  1
  As  As7  1  0.25000000  0.75000000  0.12356697  1
  As  As8  1  0.25000000  0.25000000  0.37386351  1
  As  As9  1  0.75000000  0.75000000  0.37386351  1
  As  As10  1  0.75000000  0.75000000  0.87386351  1
  As  As11  1  0.25000000  0.25000000  0.87386351  1
  As  As12  1  0.75000000  0.75000000  0.62613649  1
  As  As13  1  0.25000000  0.25000000  0.62613649  1
  As  As14  1  0.25000000  0.25000000  0.12613649  1
  As  As15  1  0.75000000  0.75000000  0.12613649  1
  As  As16  1  0.25000000  0.99624508  0.00000000  1
  As  As17  1  0.75000000  0.49624508  0.00000000  1
  As  As18  1  0.75000000  0.00375492  0.00000000  1
  As  As19  1  0.25000000  0.50375492  0.00000000  1
  As  As20  1  0.49624508  0.75000000  0.50000000  1
  As  As21  1  0.50375492  0.25000000  0.50000000  1
  As  As22  1  0.99624508  0.25000000  0.50000000  1
  As  As23  1  0.00375492  0.75000000  0.50000000  1
  As  As24  1  0.25000000  0.00041015  0.50000000  1
  As  As25  1  0.75000000  0.50041015  0.50000000  1
  As  As26  1  0.75000000  0.99958985  0.50000000  1
  As  As27  1  0.25000000  0.49958985  0.50000000  1
  As  As28  1  0.50041015  0.75000000  0.00000000  1
  As  As29  1  0.49958985  0.25000000  0.00000000  1
  As  As30  1  0.00041015  0.25000000  0.00000000  1
  As  As31  1  0.99958985  0.75000000  0.00000000  1
  As  As32  1  0.00216391  0.24525893  0.25278810  1
  As  As33  1  0.99783609  0.74525893  0.25278810  1
  As  As34  1  0.50216391  0.75474107  0.25278810  1
  As  As35  1  0.49783609  0.25474107  0.25278810  1
  As  As36  1  0.74525893  0.50216391  0.75278810  1
  As  As37  1  0.25474107  0.00216391  0.75278810  1
  As  As38  1  0.24525893  0.49783609  0.75278810  1
  As  As39  1  0.75474107  0.99783609  0.75278810  1
  As  As40  1  0.99783609  0.75474107  0.74721190  1
  As  As41  1  0.00216391  0.25474107  0.74721190  1
  As  As42  1  0.49783609  0.24525893  0.74721190  1
  As  As43  1  0.50216391  0.74525893  0.74721190  1
  As  As44  1  0.25474107  0.49783609  0.24721190  1
  As  As45  1  0.74525893  0.99783609  0.24721190  1
  As  As46  1  0.75474107  0.50216391  0.24721190  1
  As  As47  1  0.24525893  0.00216391  0.24721190  1
  As  As48  1  0.99891168  0.99460753  0.37465605  1
  As  As49  1  0.00108832  0.49460753  0.37465605  1
  As  As50  1  0.49891168  0.00539247  0.37465605  1
  As  As51  1  0.50108832  0.50539247  0.37465605  1
  As  As52  1  0.49460753  0.49891168  0.87465605  1
  As  As53  1  0.50539247  0.99891168  0.87465605  1
  As  As54  1  0.99460753  0.50108832  0.87465605  1
  As  As55  1  0.00539247  0.00108832  0.87465605  1
  As  As56  1  0.00108832  0.00539247  0.62534395  1
  As  As57  1  0.99891168  0.50539247  0.62534395  1
  As  As58  1  0.50108832  0.99460753  0.62534395  1
  As  As59  1  0.49891168  0.49460753  0.62534395  1
  As  As60  1  0.50539247  0.50108832  0.12534395  1
  As  As61  1  0.49460753  0.00108832  0.12534395  1
  As  As62  1  0.00539247  0.49891168  0.12534395  1
  As  As63  1  0.99460753  0.99891168  0.12534395  1
loop_
_geom_bond_atom_site_label_1
_geom_bond_atom_site_label_2
_geom_bond_distance
_geom_bond_site_symmetry_2
As0 Cd33 2.727761 1_555
As0 Cd34 2.727761 1_555
As0 Cd65 2.739791 1_555
As0 Cd66 2.739791 1_555
As0 Cd17 2.946645 1_555
As0 Cd18 2.946645 1_555
As1 Cd35 2.727761 1_555
As1 Cd32 2.727761 1_555
As1 Cd67 2.739791 1_555
As1 Cd64 2.739791 1_555
As1 Cd19 2.946645 1_555
As1 Cd16 2.946645 1_555
As2 Cd37 2.727761 1_555
As2 Cd38 2.727761 1_555
As2 Cd70 2.739791 1_555
As2 Cd69 2.739791 1_555
As2 Cd21 2.946645 1_555
As2 Cd22 2.946645 1_555
As3 Cd39 2.727761 1_555
As3 Cd36 2.727761 1_555
As3 Cd71 2.739791 1_555
As3 Cd68 2.739791 1_555
As3 Cd23 2.946645 1_555
As3 Cd20 2.946645 1_555
As4 Cd41 2.727761 1_555
As4 Cd42 2.727761 1_555
As4 Cd74 2.739791 1_555
As4 Cd73 2.739791 1_555
As4 Cd26 2.946645 1_555
As4 Cd25 2.946645 1_555
As5 Cd40 2.727761 1_555
As5 Cd43 2.727761 1_555
As5 Cd75 2.739791 1_555
As5 Cd72 2.739791 1_555
As5 Cd24 2.946645 1_555
As5 Cd27 2.946645 1_555
As6 Cd45 2.727761 1_555
As6 Cd46 2.727761 1_555
As6 Cd78 2.739791 1_555
As6 Cd77 2.739791 1_555
As6 Cd29 2.946645 1_555
As6 Cd30 2.946645 1_555
As7 Cd47 2.727761 1_555
As7 Cd44 2.727761 1_555
As7 Cd76 2.739791 1_555
As7 Cd79 2.739791 1_555
As7 Cd28 2.946645 1_555
As7 Cd31 2.946645 1_555
As8 Cd51 2.733961 1_555
As8 Cd48 2.733961 1_555
As8 Cd0 2.755863 1_555
As8 Cd3 2.755863 1_555
As8 Cd80 2.937922 1_555
As8 Cd83 2.937922 1_555
As9 Cd49 2.733961 1_555
As9 Cd50 2.733961 1_555
As9 Cd1 2.755863 1_555
As9 Cd2 2.755863 1_555
As9 Cd82 2.937922 1_555
As9 Cd81 2.937922 1_555
As10 Cd55 2.733961 1_555
As10 Cd52 2.733961 1_555
As10 Cd7 2.755863 1_555
As10 Cd4 2.755863 1_555
As10 Cd84 2.937922 1_555
As10 Cd87 2.937922 1_555
As11 Cd53 2.733961 1_555
As11 Cd54 2.733961 1_555
As11 Cd5 2.755863 1_555
As11 Cd6 2.755863 1_555
As11 Cd86 2.937922 1_555
As11 Cd85 2.937922 1_555
As12 Cd59 2.733961 1_555
As12 Cd56 2.733961 1_555
As12 Cd8 2.755863 1_555
As12 Cd11 2.755863 1_555
As12 Cd88 2.937922 1_555
As12 Cd91 2.937922 1_555
As13 Cd57 2.733961 1_555
As13 Cd58 2.733961 1_555
As13 Cd9 2.755863 1_555
As13 Cd10 2.755863 1_555
As13 Cd89 2.937922 1_555
As13 Cd90 2.937922 1_555
As14 Cd60 2.733961 1_555
As14 Cd63 2.733961 1_555
As14 Cd15 2.755863 1_555
As14 Cd12 2.755863 1_555
As14 Cd92 2.937922 1_555
As14 Cd95 2.937922 1_555
As15 Cd62 2.733961 1_555
As15 Cd61 2.733961 1_555
As15 Cd13 2.755863 1_555
As15 Cd14 2.755863 1_555
As15 Cd93 2.937922 1_555
As15 Cd94 2.937922 1_555
As16 Cd44 2.717826 1_555
As16 Cd38 2.717826 1_554
As16 Cd6 2.738919 1_564
As16 Cd12 2.738919 1_565
As16 Cd22 2.962836 1_554
As16 Cd28 2.962836 1_555
As17 Cd39 2.717826 1_554
As17 Cd45 2.717826 1_555
As17 Cd7 2.738919 1_554
As17 Cd13 2.738919 1_555
As17 Cd29 2.962836 1_555
As17 Cd23 2.962836 1_554
As18 Cd36 2.717826 1_554
As18 Cd46 2.717826 1_555
As18 Cd4 2.738919 1_544
As18 Cd14 2.738919 1_545
As18 Cd30 2.962836 1_555
As18 Cd20 2.962836 1_554
As19 Cd37 2.717826 1_554
As19 Cd47 2.717826 1_555
As19 Cd5 2.738919 1_554
As19 Cd15 2.738919 1_555
As19 Cd21 2.962836 1_554
As19 Cd31 2.962836 1_555
As20 Cd33 2.717826 1_555
As20 Cd40 2.717826 1_555
As20 Cd8 2.738919 1_555
As20 Cd1 2.738919 1_555
As20 Cd17 2.962836 1_555
As20 Cd24 2.962836 1_555
As21 Cd41 2.717826 1_555
As21 Cd32 2.717826 1_555
As21 Cd9 2.738919 1_555
As21 Cd0 2.738919 1_555
As21 Cd16 2.962836 1_555
As21 Cd25 2.962836 1_555
As22 Cd35 2.717826 1_555
As22 Cd42 2.717826 1_555
As22 Cd10 2.738919 1_655
As22 Cd3 2.738919 1_655
As22 Cd19 2.962836 1_555
As22 Cd26 2.962836 1_555
As23 Cd34 2.717826 1_555
As23 Cd43 2.717826 1_555
As23 Cd11 2.738919 1_455
As23 Cd2 2.738919 1_455
As23 Cd18 2.962836 1_555
As23 Cd27 2.962836 1_555
As24 Cd18 2.645885 1_545
As24 Cd24 2.645885 1_545
As24 Cd10 2.700844 1_555
As24 Cd0 2.700844 1_555
As24 Cd33 3.167583 1_545
As24 Cd43 3.167583 1_545
As25 Cd19 2.645885 1_555
As25 Cd25 2.645885 1_555
As25 Cd11 2.700844 1_555
As25 Cd1 2.700844 1_555
As25 Cd42 3.167583 1_555
As25 Cd32 3.167583 1_555
As26 Cd16 2.645885 1_565
As26 Cd26 2.645885 1_565
As26 Cd8 2.700844 1_555
As26 Cd2 2.700844 1_555
As26 Cd35 3.167583 1_565
As26 Cd41 3.167583 1_565
As27 Cd17 2.645885 1_555
As27 Cd27 2.645885 1_555
As27 Cd9 2.700844 1_555
As27 Cd3 2.700844 1_555
As27 Cd40 3.167583 1_555
As27 Cd34 3.167583 1_555
As28 Cd28 2.645885 1_555
As28 Cd21 2.645885 1_554
As28 Cd4 2.700844 1_554
As28 Cd13 2.700844 1_555
As28 Cd38 3.167583 1_554
As28 Cd47 3.167583 1_555
As29 Cd29 2.645885 1_555
As29 Cd20 2.645885 1_554
As29 Cd5 2.700844 1_554
As29 Cd12 2.700844 1_555
As29 Cd46 3.167583 1_555
As29 Cd39 3.167583 1_554
As30 Cd30 2.645885 1_455
As30 Cd23 2.645885 1_454
As30 Cd6 2.700844 1_554
As30 Cd15 2.700844 1_555
As30 Cd45 3.167583 1_455
As30 Cd36 3.167583 1_454
As31 Cd31 2.645885 1_655
As31 Cd22 2.645885 1_654
As31 Cd7 2.700844 1_554
As31 Cd14 2.700844 1_555
As31 Cd37 3.167583 1_654
As31 Cd44 3.167583 1_655
As32 Cd92 2.681135 1_555
As32 Cd48 2.699916 1_555
As32 Cd67 2.722086 1_455
As32 Cd78 2.724031 1_455
As32 Cd80 3.007461 1_555
As32 Cd63 3.069988 1_555
As33 Cd93 2.681135 1_555
As33 Cd49 2.699916 1_555
As33 Cd66 2.722086 1_655
As33 Cd79 2.724031 1_655
As33 Cd81 3.007461 1_555
As33 Cd62 3.069988 1_555
As34 Cd94 2.681135 1_555
As34 Cd50 2.699916 1_555
As34 Cd65 2.722086 1_555
As34 Cd76 2.724031 1_555
As34 Cd82 3.007461 1_555
As34 Cd61 3.069988 1_555
As35 Cd95 2.681135 1_555
As35 Cd51 2.699916 1_555
As35 Cd64 2.722086 1_555
As35 Cd77 2.724031 1_555
As35 Cd83 3.007461 1_555
As35 Cd60 3.069988 1_555
As36 Cd88 2.681135 1_555
As36 Cd52 2.699916 1_555
As36 Cd71 2.722086 1_555
As36 Cd73 2.724031 1_555
As36 Cd84 3.007461 1_555
As36 Cd59 3.069988 1_555
As37 Cd89 2.681135 1_555
As37 Cd53 2.699916 1_555
As37 Cd70 2.722086 1_545
As37 Cd72 2.724031 1_545
As37 Cd85 3.007461 1_555
As37 Cd58 3.069988 1_555
As38 Cd90 2.681135 1_555
As38 Cd54 2.699916 1_555
As38 Cd69 2.722086 1_555
As38 Cd75 2.724031 1_555
As38 Cd86 3.007461 1_555
As38 Cd57 3.069988 1_555
As39 Cd91 2.681135 1_555
As39 Cd55 2.699916 1_555
As39 Cd68 2.722086 1_565
As39 Cd74 2.724031 1_565
As39 Cd87 3.007461 1_555
As39 Cd56 3.069988 1_555
As40 Cd84 2.681135 1_555
As40 Cd56 2.699916 1_555
As40 Cd75 2.722086 1_655
As40 Cd70 2.724031 1_655
As40 Cd88 3.007461 1_555
As40 Cd55 3.069988 1_555
As41 Cd85 2.681135 1_555
As41 Cd57 2.699916 1_555
As41 Cd74 2.722086 1_455
As41 Cd71 2.724031 1_455
As41 Cd89 3.007461 1_555
As41 Cd54 3.069988 1_555
As42 Cd86 2.681135 1_555
As42 Cd58 2.699916 1_555
As42 Cd73 2.722086 1_555
As42 Cd68 2.724031 1_555
As42 Cd90 3.007461 1_555
As42 Cd53 3.069988 1_555
As43 Cd87 2.681135 1_555
As43 Cd59 2.699916 1_555
As43 Cd72 2.722086 1_555
As43 Cd69 2.724031 1_555
As43 Cd91 3.007461 1_555
As43 Cd52 3.069988 1_555
As44 Cd80 2.681135 1_555
As44 Cd60 2.699916 1_555
As44 Cd79 2.722086 1_555
As44 Cd65 2.724031 1_555
As44 Cd92 3.007461 1_555
As44 Cd51 3.069988 1_555
As45 Cd81 2.681135 1_555
As45 Cd61 2.699916 1_555
As45 Cd78 2.722086 1_565
As45 Cd64 2.724031 1_565
As45 Cd93 3.007461 1_555
As45 Cd50 3.069988 1_555
As46 Cd82 2.681135 1_555
As46 Cd62 2.699916 1_555
As46 Cd77 2.722086 1_555
As46 Cd67 2.724031 1_555
As46 Cd94 3.007461 1_555
As46 Cd49 3.069988 1_555
As47 Cd83 2.681135 1_555
As47 Cd63 2.699916 1_555
As47 Cd76 2.722086 1_545
As47 Cd66 2.724031 1_545
As47 Cd95 3.007461 1_555
As47 Cd48 3.069988 1_555
As48 Cd81 2.643346 1_555
As48 Cd18 2.654771 1_655
As48 Cd35 2.693877 1_565
As48 Cd48 2.703744 1_665
As48 Cd2 3.105552 1_555
As48 Cd66 3.155085 1_655
As49 Cd80 2.643346 1_555
As49 Cd19 2.654771 1_455
As49 Cd34 2.693877 1_555
As49 Cd49 2.703744 1_455
As49 Cd3 3.105552 1_555
As49 Cd67 3.155085 1_455
As50 Cd83 2.643346 1_555
As50 Cd16 2.654771 1_555
As50 Cd33 2.693877 1_545
As50 Cd50 2.703744 1_545
As50 Cd0 3.105552 1_555
As50 Cd64 3.155085 1_555
As51 Cd82 2.643346 1_555
As51 Cd17 2.654771 1_555
As51 Cd32 2.693877 1_555
As51 Cd51 2.703744 1_555
As51 Cd1 3.105552 1_555
As51 Cd65 3.155085 1_555
As52 Cd86 2.643346 1_555
As52 Cd21 2.654771 1_555
As52 Cd39 2.693877 1_555
As52 Cd52 2.703744 1_555
As52 Cd5 3.105552 1_555
As52 Cd69 3.155085 1_555
As53 Cd87 2.643346 1_555
As53 Cd20 2.654771 1_565
As53 Cd38 2.693877 1_555
As53 Cd53 2.703744 1_565
As53 Cd4 3.105552 1_555
As53 Cd68 3.155085 1_565
As54 Cd84 2.643346 1_555
As54 Cd23 2.654771 1_555
As54 Cd37 2.693877 1_655
As54 Cd54 2.703744 1_655
As54 Cd7 3.105552 1_555
As54 Cd71 3.155085 1_555
As55 Cd85 2.643346 1_555
As55 Cd22 2.654771 1_545
As55 Cd36 2.693877 1_455
As55 Cd55 2.703744 1_445
As55 Cd6 3.105552 1_555
As55 Cd70 3.155085 1_545
As56 Cd89 2.643346 1_555
As56 Cd26 2.654771 1_455
As56 Cd43 2.693877 1_545
As56 Cd56 2.703744 1_445
As56 Cd10 3.105552 1_555
As56 Cd74 3.155085 1_455
As57 Cd88 2.643346 1_555
As57 Cd27 2.654771 1_655
As57 Cd42 2.693877 1_555
As57 Cd57 2.703744 1_655
As57 Cd11 3.105552 1_555
As57 Cd75 3.155085 1_655
As58 Cd91 2.643346 1_555
As58 Cd24 2.654771 1_555
As58 Cd41 2.693877 1_565
As58 Cd58 2.703744 1_565
As58 Cd8 3.105552 1_555
As58 Cd72 3.155085 1_555
As59 Cd90 2.643346 1_555
As59 Cd25 2.654771 1_555
As59 Cd40 2.693877 1_555
As59 Cd59 2.703744 1_555
As59 Cd9 3.105552 1_555
As59 Cd73 3.155085 1_555
As60 Cd94 2.643346 1_555
As60 Cd29 2.654771 1_555
As60 Cd47 2.693877 1_555
As60 Cd60 2.703744 1_555
As60 Cd13 3.105552 1_555
As60 Cd77 3.155085 1_555
As61 Cd95 2.643346 1_555
As61 Cd28 2.654771 1_545
As61 Cd46 2.693877 1_555
As61 Cd61 2.703744 1_545
As61 Cd12 3.105552 1_555
As61 Cd76 3.155085 1_545
As62 Cd92 2.643346 1_555
As62 Cd31 2.654771 1_555
As62 Cd45 2.693877 1_455
As62 Cd62 2.703744 1_455
As62 Cd15 3.105552 1_555
As62 Cd79 3.155085 1_555
As63 Cd93 2.643346 1_555
As63 Cd30 2.654771 1_565
As63 Cd44 2.693877 1_655
As63 Cd63 2.703744 1_665
As63 Cd14 3.105552 1_555
As63 Cd78 3.155085 1_565
