# generated using pymatgen
data_Sr2CuSbO6
_symmetry_space_group_name_H-M   'P 1'
_cell_length_a   5.65957313
_cell_length_b   5.65957313
_cell_length_c   5.65957313
_cell_angle_alpha   60.00000000
_cell_angle_beta   60.00000000
_cell_angle_gamma   60.00000000
_symmetry_Int_Tables_number   1
_chemical_formula_structural   Sr2CuSbO6
_chemical_formula_sum   'Sr2 Cu1 Sb1 O6'
_cell_volume   128.18465256
_cell_formula_units_Z   1
loop_
 _symmetry_equiv_pos_site_id
 _symmetry_equiv_pos_as_xyz
  1  'x, y, z'
loop_
 _atom_site_type_symbol
 _atom_site_label
 _atom_site_symmetry_multiplicity
 _atom_site_fract_x
 _atom_site_fract_y
 _atom_site_fract_z
 _atom_site_occupancy
  Sr  Sr0  1  0.25000000  0.25000000  0.25000000  1
  Sr  Sr1  1  0.75000000  0.75000000  0.75000000  1
  Cu  Cu0  1  -0.00000000  0.00000000  0.00000000  1
  Sb  Sb0  1  0.50000000  0.50000000  0.50000000  1
  O  O0  1  0.75049102  0.24950898  0.24950898  1
  O  O1  1  0.24950898  0.75049102  0.75049102  1
  O  O2  1  0.75049102  0.24950898  0.75049102  1
  O  O3  1  0.24950898  0.75049102  0.24950898  1
  O  O4  1  0.75049102  0.75049102  0.24950898  1
  O  O5  1  0.24950898  0.24950898  0.75049102  1
loop_
_geom_bond_atom_site_label_1
_geom_bond_atom_site_label_2
_geom_bond_distance
_geom_bond_site_symmetry_2
Cu0 O4 1.997031 1_445
Cu0 O1 1.997031 1_544
Cu0 O2 1.997031 1_454
Cu0 O3 1.997031 1_545
Cu0 O5 1.997031 1_554
Cu0 O0 1.997031 1_455
O0 Sb0 2.004891 1_555
O0 Sr0 2.829789 1_655
O0 Sr1 2.829789 1_545
O0 Sr0 2.829789 1_555
O0 Sr1 2.829789 1_554
O1 Sb0 2.004891 1_555
O1 Sr0 2.829789 1_565
O1 Sr1 2.829789 1_455
O1 Sr0 2.829789 1_556
O1 Sr1 2.829789 1_555
O2 Sb0 2.004891 1_555
O2 Sr0 2.829789 1_655
O2 Sr1 2.829789 1_545
O2 Sr0 2.829789 1_556
O2 Sr1 2.829789 1_555
O3 Sb0 2.004891 1_555
O3 Sr0 2.829789 1_565
O3 Sr0 2.829789 1_555
O3 Sr1 2.829789 1_455
O3 Sr1 2.829789 1_554
O4 Sb0 2.004891 1_555
O4 Sr0 2.829789 1_565
O4 Sr0 2.829789 1_655
O4 Sr1 2.829789 1_554
O4 Sr1 2.829789 1_555
O5 Sb0 2.004891 1_555
O5 Sr1 2.829789 1_545
O5 Sr0 2.829789 1_555
O5 Sr1 2.829789 1_455
O5 Sr0 2.829789 1_556
