# generated using pymatgen
data_LiMnP2O7
_symmetry_space_group_name_H-M   'P 1'
_cell_length_a   9.73686900
_cell_length_b   9.90475911
_cell_length_c   11.14920437
_cell_angle_alpha   79.10176496
_cell_angle_beta   89.70365301
_cell_angle_gamma   89.18822143
_symmetry_Int_Tables_number   1
_chemical_formula_structural   LiMnP2O7
_chemical_formula_sum   'Li8 Mn8 P16 O56'
_cell_volume   1055.74232607
_cell_formula_units_Z   8
loop_
 _symmetry_equiv_pos_site_id
 _symmetry_equiv_pos_as_xyz
  1  'x, y, z'
loop_
 _atom_site_type_symbol
 _atom_site_label
 _atom_site_symmetry_multiplicity
 _atom_site_fract_x
 _atom_site_fract_y
 _atom_site_fract_z
 _atom_site_occupancy
  Li  Li0  1  0.11392300  0.91923000  0.02161000  1
  Li  Li1  1  0.58438200  0.58941700  0.97971900  1
  Li  Li2  1  0.96674500  0.60261100  0.49973300  1
  Li  Li3  1  0.78749700  0.37573100  0.45287200  1
  Li  Li4  1  0.15066200  0.35489000  0.03523500  1
  Li  Li5  1  0.89096000  0.09446000  0.97855500  1
  Li  Li6  1  0.56264200  0.08684600  0.51062600  1
  Li  Li7  1  0.27255800  0.10436800  0.55094800  1
  Mn  Mn0  1  0.92901300  0.79759300  0.67037800  1
  Mn  Mn1  1  0.22728100  0.72445300  0.83913100  1
  Mn  Mn2  1  0.71679900  0.78957500  0.15906200  1
  Mn  Mn3  1  0.41761700  0.68462300  0.34369200  1
  Mn  Mn4  1  0.57048500  0.30207900  0.66940500  1
  Mn  Mn5  1  0.28675400  0.24327000  0.82558200  1
  Mn  Mn6  1  0.77406900  0.29278200  0.15732400  1
  Mn  Mn7  1  0.07711000  0.18645600  0.33900800  1
  P  P0  1  0.44313300  0.98171200  0.75639500  1
  P  P1  1  0.71335000  0.87812000  0.87794600  1
  P  P2  1  0.93446700  0.93908800  0.24396100  1
  P  P3  1  0.14828300  0.85989200  0.43562500  1
  P  P4  1  0.64565700  0.62194200  0.56557600  1
  P  P5  1  0.42054700  0.57385400  0.75114900  1
  P  P6  1  0.05052300  0.47851400  0.75048800  1
  P  P7  1  0.20977500  0.62525600  0.12296100  1
  P  P8  1  0.77853500  0.38444400  0.87417800  1
  P  P9  1  0.93248900  0.53909700  0.23452700  1
  P  P10  1  0.56702600  0.43677800  0.24433500  1
  P  P11  1  0.35304200  0.36094300  0.43060800  1
  P  P12  1  0.86037500  0.11923800  0.57217600  1
  P  P13  1  0.07368000  0.06386400  0.76206400  1
  P  P14  1  0.28961800  0.12054100  0.12015800  1
  P  P15  1  0.56773700  0.04105400  0.23480800  1
  O  O0  1  0.42372200  0.99287800  0.62103900  1
  O  O1  1  0.85435600  0.96765300  0.56565100  1
  O  O2  1  0.08352400  0.91559800  0.73994800  1
  O  O3  1  0.34110500  0.89805600  0.84222700  1
  O  O4  1  0.59088500  0.91036500  0.77959600  1
  O  O5  1  0.81793200  0.79786900  0.81232800  1
  O  O6  1  0.65444000  0.77756800  0.99124800  1
  O  O7  1  0.25611000  0.97996900  0.10360800  1
  O  O8  1  0.06849500  0.86418100  0.30772600  1
  O  O9  1  0.94397000  0.94009900  0.10835400  1
  O  O10  1  0.56015200  0.89956400  0.19164400  1
  O  O11  1  0.28690700  0.79591200  0.41726400  1
  O  O12  1  0.81139900  0.84826000  0.29468500  1
  O  O13  1  0.05726800  0.77237100  0.53387300  1
  O  O14  1  0.56263000  0.70619000  0.46113200  1
  O  O15  1  0.30049800  0.66849100  0.69212100  1
  O  O16  1  0.78834400  0.67496400  0.58232000  1
  O  O17  1  0.04369300  0.62483500  0.78777700  1
  O  O18  1  0.56070600  0.63185000  0.68977200  1
  O  O19  1  0.41586000  0.59744600  0.88286000  1
  O  O20  1  0.72654100  0.51755300  0.89818600  1
  O  O21  1  0.16418800  0.73176400  0.00645300  1
  O  O22  1  0.31751400  0.69028900  0.19320100  1
  O  O23  1  0.07896800  0.60987600  0.21537100  1
  O  O24  1  0.56638500  0.58440000  0.27091500  1
  O  O25  1  0.83229700  0.63234900  0.14917900  1
  O  O26  1  0.07413600  0.47831000  0.61902900  1
  O  O27  1  0.33220700  0.50725400  0.44490900  1
  O  O28  1  0.65351500  0.46612400  0.56016700  1
  O  O29  1  0.90297900  0.52332300  0.36917100  1
  O  O30  1  0.14918000  0.38764600  0.84454100  1
  O  O31  1  0.41274300  0.42203300  0.73680200  1
  O  O32  1  0.90351900  0.40773300  0.77935900  1
  O  O33  1  0.67878000  0.29790900  0.81223600  1
  O  O34  1  0.84036700  0.28717700  0.99045300  1
  O  O35  1  0.24315400  0.48882600  0.09259300  1
  O  O36  1  0.58042800  0.42953200  0.11083700  1
  O  O37  1  0.43195600  0.36172900  0.30179500  1
  O  O38  1  0.94147100  0.39707800  0.19088500  1
  O  O39  1  0.22331400  0.27778600  0.42053400  1
  O  O40  1  0.68975700  0.34537500  0.30606100  1
  O  O41  1  0.44467000  0.27267700  0.53165700  1
  O  O42  1  0.93875100  0.21118500  0.46665800  1
  O  O43  1  0.19229800  0.15668200  0.69992000  1
  O  O44  1  0.71782300  0.18499000  0.57965200  1
  O  O45  1  0.45240300  0.13331800  0.78896300  1
  O  O46  1  0.06634200  0.07954600  0.89413300  1
  O  O47  1  0.93637600  0.13331800  0.69672300  1
  O  O48  1  0.75843900  0.01007800  0.90775900  1
  O  O49  1  0.31781800  0.22828600  0.00186600  1
  O  O50  1  0.17650600  0.19598900  0.18598200  1
  O  O51  1  0.41993100  0.11545500  0.20642200  1
  O  O52  1  0.67027400  0.13056600  0.14822700  1
  O  O53  1  0.92928300  0.08651800  0.27392200  1
  O  O54  1  0.15951800  0.00854400  0.45227800  1
  O  O55  1  0.58991800  0.03317000  0.36716700  1
loop_
_geom_bond_atom_site_label_1
_geom_bond_atom_site_label_2
_geom_bond_distance
_geom_bond_site_symmetry_2
Li0 O7 1.832783 1_555
Li0 O9 1.940567 1_455
Li0 O21 1.951375 1_555
Li0 O46 1.971961 1_564
Li1 O20 1.858139 1_555
Li1 O36 1.942200 1_556
Li1 O19 1.961414 1_555
Li1 O6 2.020475 1_555
Li2 O29 1.891196 1_555
Li2 O26 1.933114 1_655
Li2 O13 2.009092 1_655
Li2 O16 2.139277 1_555
Li3 O29 1.947339 1_555
Li3 O40 1.971196 1_555
Li3 O28 2.071295 1_555
Li3 O42 2.165273 1_555
Li3 O44 2.245901 1_555
Li4 O35 1.827699 1_555
Li4 O50 2.087607 1_555
Li4 O30 2.089274 1_554
Li4 O49 2.114758 1_555
Li5 O48 1.810271 1_555
Li5 O9 1.961367 1_546
Li5 O46 1.962828 1_655
Li5 O34 1.993056 1_555
Li6 O55 1.795712 1_555
Li6 O0 1.948466 1_545
Li6 O44 2.038825 1_555
Li6 O41 2.205174 1_555
Li7 O0 1.906839 1_545
Li7 O54 1.938917 1_555
Li7 O43 1.984535 1_555
Li7 O39 2.081806 1_555
Li7 O41 2.360851 1_555
Mn0 O5 1.912691 1_555
Mn0 O1 1.989818 1_555
Mn0 O13 2.013313 1_655
Mn0 O2 2.153100 1_655
Mn0 O16 2.197075 1_555
Mn0 O17 2.236541 1_655
Mn1 O15 1.955041 1_555
Mn1 O21 1.975025 1_556
Mn1 O3 2.064704 1_555
Mn1 O17 2.184258 1_555
Mn1 O19 2.214409 1_555
Mn1 O2 2.432232 1_555
Mn2 O25 1.927682 1_555
Mn2 O10 1.934426 1_555
Mn2 O12 1.958224 1_555
Mn2 O6 1.995335 1_554
Mn2 O24 2.633846 1_555
Mn2 O9 2.682696 1_555
Mn3 O22 1.936008 1_555
Mn3 O11 1.949106 1_555
Mn3 O14 1.971589 1_555
Mn3 O24 1.998430 1_555
Mn3 O27 2.081697 1_555
Mn4 O33 1.908074 1_555
Mn4 O28 2.013884 1_555
Mn4 O41 2.035400 1_555
Mn4 O31 2.146910 1_555
Mn4 O44 2.186615 1_555
Mn4 O45 2.255852 1_555
Mn5 O49 1.967484 1_556
Mn5 O30 1.985212 1_555
Mn5 O43 2.008560 1_555
Mn5 O45 2.016361 1_555
Mn5 O31 2.237401 1_555
Mn6 O52 1.929219 1_555
Mn6 O34 1.976562 1_554
Mn6 O40 1.998923 1_555
Mn6 O38 2.015972 1_555
Mn6 O36 2.308782 1_555
Mn6 O53 2.660144 1_555
Mn7 O50 1.944478 1_555
Mn7 O53 1.975091 1_455
Mn7 O42 2.000753 1_455
Mn7 O39 2.007942 1_555
Mn7 O54 2.114916 1_555
O0 P0 1.504865 1_555
O1 P12 1.518818 1_565
O2 P13 1.535996 1_565
O3 P0 1.517532 1_555
O4 P0 1.594338 1_555
O4 P1 1.611384 1_555
O5 P1 1.547003 1_555
O6 P1 1.565128 1_555
O7 P14 1.479771 1_565
O8 P2 1.594258 1_455
O8 P3 1.620608 1_555
O9 P2 1.512412 1_555
O10 P15 1.568236 1_565
O11 P3 1.512386 1_555
O12 P2 1.547976 1_555
O13 P3 1.545757 1_555
O14 P4 1.526121 1_555
O15 P5 1.556191 1_555
O16 P4 1.517006 1_555
O17 P6 1.581922 1_555
O18 P5 1.588898 1_555
O18 P4 1.627394 1_555
O19 P5 1.530312 1_555
O20 P8 1.476240 1_555
O21 P7 1.572188 1_555
O22 P7 1.532013 1_555
O23 P9 1.593684 1_455
O23 P7 1.624648 1_555
O24 P10 1.545749 1_555
O25 P9 1.536887 1_555
O26 P6 1.482786 1_555
O27 P11 1.498464 1_555
O28 P4 1.556659 1_555
O29 P9 1.506193 1_555
O30 P6 1.568905 1_555
O31 P5 1.544974 1_555
O32 P8 1.598186 1_555
O32 P6 1.606933 1_655
O33 P8 1.552207 1_555
O34 P8 1.578157 1_555
O35 P7 1.485165 1_555
O36 P10 1.508516 1_555
O37 P10 1.591078 1_555
O37 P11 1.624054 1_555
O38 P9 1.574163 1_555
O39 P11 1.533779 1_555
O40 P10 1.569570 1_555
O41 P11 1.563780 1_555
O42 P12 1.549538 1_555
O43 P13 1.562094 1_555
O44 P12 1.533418 1_555
O45 P0 1.614068 1_545
O46 P13 1.510782 1_555
O47 P12 1.606878 1_555
O47 P13 1.608042 1_655
O48 P1 1.481064 1_545
O49 P14 1.557572 1_555
O50 P14 1.576616 1_555
O51 P14 1.590597 1_555
O51 P15 1.612728 1_555
O52 P15 1.551176 1_555
O53 P2 1.558419 1_545
O54 P3 1.523953 1_545
O55 P15 1.479754 1_555
