# generated using pymatgen
data_Pr4(HoS2)11
_symmetry_space_group_name_H-M   'P 1'
_cell_length_a   19.71588477
_cell_length_b   19.71588477
_cell_length_c   11.37973767
_cell_angle_alpha   88.45600120
_cell_angle_beta   88.45600120
_cell_angle_gamma   11.51453221
_symmetry_Int_Tables_number   1
_chemical_formula_structural   Pr4(HoS2)11
_chemical_formula_sum   'Pr4 Ho11 S22'
_cell_volume   882.67708972
_cell_formula_units_Z   1
loop_
 _symmetry_equiv_pos_site_id
 _symmetry_equiv_pos_as_xyz
  1  'x, y, z'
loop_
 _atom_site_type_symbol
 _atom_site_label
 _atom_site_symmetry_multiplicity
 _atom_site_fract_x
 _atom_site_fract_y
 _atom_site_fract_z
 _atom_site_occupancy
  Pr  Pr0  1  0.10431000  0.10431000  0.98765100  1
  Pr  Pr1  1  0.89569000  0.89569000  0.01234900  1
  Pr  Pr2  1  0.36722400  0.36722400  0.65238100  1
  Pr  Pr3  1  0.63277600  0.63277600  0.34761900  1
  Ho  Ho0  1  0.79797000  0.79797000  0.94247900  1
  Ho  Ho1  1  0.20203000  0.20203000  0.05752100  1
  Ho  Ho2  1  0.46179400  0.46179400  0.72851700  1
  Ho  Ho3  1  0.53820600  0.53820600  0.27148300  1
  Ho  Ho4  1  0.65766300  0.65766300  0.69812300  1
  Ho  Ho5  1  0.34233700  0.34233700  0.30187700  1
  Ho  Ho6  1  0.26413400  0.26413400  0.64809500  1
  Ho  Ho7  1  0.73586600  0.73586600  0.35190500  1
  Ho  Ho8  1  0.06938400  0.06938400  0.64023500  1
  Ho  Ho9  1  0.93061600  0.93061600  0.35976500  1
  Ho  Ho10  1  0.00000000  0.00000000  0.00000000  1
  S  S0  1  0.08741400  0.08741400  0.24742300  1
  S  S1  1  0.91258600  0.91258600  0.75257700  1
  S  S2  1  0.18870100  0.18870100  0.30796800  1
  S  S3  1  0.81129900  0.81129900  0.69203200  1
  S  S4  1  0.27993100  0.27993100  0.40975900  1
  S  S5  1  0.72006900  0.72006900  0.59024100  1
  S  S6  1  0.44562500  0.44562500  0.50458800  1
  S  S7  1  0.55437500  0.55437500  0.49541200  1
  S  S8  1  0.13449800  0.13449800  0.54631000  1
  S  S9  1  0.86550200  0.86550200  0.45369000  1
  S  S10  1  0.59284100  0.59284100  0.78792100  1
  S  S11  1  0.40715900  0.40715900  0.21207900  1
  S  S12  1  0.45313400  0.45313400  0.96881600  1
  S  S13  1  0.54686600  0.54686600  0.03118400  1
  S  S14  1  0.35057100  0.35057100  0.90815700  1
  S  S15  1  0.64942900  0.64942900  0.09184300  1
  S  S16  1  0.16834200  0.16834200  0.84853600  1
  S  S17  1  0.83165800  0.83165800  0.15146400  1
  S  S18  1  0.00770900  0.00770900  0.76140800  1
  S  S19  1  0.99229100  0.99229100  0.23859200  1
  S  S20  1  0.25528400  0.25528400  0.88096700  1
  S  S21  1  0.74471600  0.74471600  0.11903300  1
loop_
_geom_bond_atom_site_label_1
_geom_bond_atom_site_label_2
_geom_bond_distance
_geom_bond_site_symmetry_2
Pr0 S15 2.926527 1_456
Pr0 S15 2.926527 1_546
Pr0 S16 2.932869 1_555
Pr0 S0 3.011980 1_556
Pr0 S13 3.029143 1_546
Pr0 S13 3.029143 1_456
Pr0 S10 3.055397 1_455
Pr0 S10 3.055397 1_545
Pr1 S14 2.926527 1_564
Pr1 S14 2.926527 1_654
Pr1 S17 2.932869 1_555
Pr1 S1 3.011980 1_554
Pr1 S12 3.029143 1_654
Pr1 S12 3.029143 1_564
Pr1 S11 3.055397 1_655
Pr1 S11 3.055397 1_565
Pr2 S1 2.913566 1_545
Pr2 S1 2.913566 1_455
Pr2 S14 2.965776 1_555
Pr2 S3 2.979207 1_545
Pr2 S3 2.979207 1_455
Pr2 S9 3.006131 1_455
Pr2 S9 3.006131 1_545
Pr2 S6 3.465480 1_555
Pr3 S0 2.913566 1_565
Pr3 S0 2.913566 1_655
Pr3 S15 2.965776 1_555
Pr3 S2 2.979207 1_565
Pr3 S2 2.979207 1_655
Pr3 S8 3.006131 1_565
Pr3 S8 3.006131 1_655
Pr3 S7 3.465480 1_555
Ho0 S20 2.696240 1_565
Ho0 S20 2.696240 1_655
Ho0 S17 2.751887 1_556
Ho0 S21 2.859105 1_556
Ho0 S14 2.877383 1_565
Ho0 S14 2.877383 1_655
Ho0 S3 2.883636 1_555
Ho1 S21 2.696240 1_545
Ho1 S21 2.696240 1_455
Ho1 S16 2.751887 1_554
Ho1 S20 2.859105 1_554
Ho1 S15 2.877383 1_455
Ho1 S15 2.877383 1_545
Ho1 S2 2.883636 1_555
Ho2 S6 2.642642 1_555
Ho2 S18 2.707988 1_565
Ho2 S18 2.707988 1_655
Ho2 S12 2.746420 1_555
Ho2 S1 2.772196 1_455
Ho2 S1 2.772196 1_545
Ho3 S7 2.642642 1_555
Ho3 S19 2.707988 1_545
Ho3 S19 2.707988 1_455
Ho3 S13 2.746420 1_555
Ho3 S0 2.772196 1_565
Ho3 S0 2.772196 1_655
Ho4 S16 2.656273 1_655
Ho4 S16 2.656273 1_565
Ho4 S5 2.709035 1_555
Ho4 S10 2.714978 1_555
Ho4 S8 2.794139 1_565
Ho4 S8 2.794139 1_655
Ho5 S17 2.656273 1_455
Ho5 S17 2.656273 1_545
Ho5 S4 2.709035 1_555
Ho5 S11 2.714978 1_555
Ho5 S9 2.794139 1_455
Ho5 S9 2.794139 1_545
Ho6 S20 2.663332 1_555
Ho6 S5 2.719459 1_455
Ho6 S5 2.719459 1_545
Ho6 S3 2.763291 1_545
Ho6 S3 2.763291 1_455
Ho6 S4 2.765700 1_555
Ho7 S21 2.663332 1_555
Ho7 S4 2.719459 1_655
Ho7 S4 2.719459 1_565
Ho7 S2 2.763291 1_565
Ho7 S2 2.763291 1_655
Ho7 S5 2.765700 1_555
Ho8 S7 2.650847 1_455
Ho8 S7 2.650847 1_545
Ho8 S8 2.742364 1_555
Ho8 S18 2.752378 1_555
Ho8 S10 2.768905 1_455
Ho8 S10 2.768905 1_545
Ho9 S6 2.650847 1_655
Ho9 S6 2.650847 1_565
Ho9 S9 2.742364 1_555
Ho9 S19 2.752378 1_555
Ho9 S11 2.768905 1_565
Ho9 S11 2.768905 1_655
Ho10 S19 2.723755 1_445
Ho10 S18 2.723755 1_554
Ho10 S13 2.730141 1_455
Ho10 S13 2.730141 1_545
Ho10 S12 2.730141 1_544
Ho10 S12 2.730141 1_454
