# generated using pymatgen
data_Ho(Fe5Si)2
_symmetry_space_group_name_H-M   'P 1'
_cell_length_a   4.75725000
_cell_length_b   6.35246572
_cell_length_c   6.35246572
_cell_angle_alpha   98.73547874
_cell_angle_beta   111.98978090
_cell_angle_gamma   68.01021910
_symmetry_Int_Tables_number   1
_chemical_formula_structural   Ho(Fe5Si)2
_chemical_formula_sum   'Ho1 Fe10 Si2'
_cell_volume   165.04217798
_cell_formula_units_Z   1
loop_
 _symmetry_equiv_pos_site_id
 _symmetry_equiv_pos_as_xyz
  1  'x, y, z'
loop_
 _atom_site_type_symbol
 _atom_site_label
 _atom_site_symmetry_multiplicity
 _atom_site_fract_x
 _atom_site_fract_y
 _atom_site_fract_z
 _atom_site_occupancy
  Ho  Ho0  1  0.00000000  0.00000000  0.00000000  1
  Fe  Fe0  1  0.63906900  0.36093100  0.63906900  1
  Fe  Fe1  1  0.36093100  0.63906900  0.36093100  1
  Fe  Fe2  1  0.00000000  0.35435800  0.35435800  1
  Fe  Fe3  1  0.00000000  0.64564200  0.64564200  1
  Fe  Fe4  1  0.50000000  0.79240500  0.79240500  1
  Fe  Fe5  1  0.50000000  0.20759500  0.20759500  1
  Fe  Fe6  1  0.50000000  0.00000000  0.50000000  1
  Fe  Fe7  1  0.00000000  0.00000000  0.50000000  1
  Fe  Fe8  1  0.50000000  0.50000000  0.00000000  1
  Fe  Fe9  1  0.00000000  0.50000000  0.00000000  1
  Si  Si0  1  0.73479800  0.76520200  0.23479800  1
  Si  Si1  1  0.26520200  0.23479800  0.76520200  1
loop_
_geom_bond_atom_site_label_1
_geom_bond_atom_site_label_2
_geom_bond_distance
_geom_bond_site_symmetry_2
Ho0 Si1 3.087936 1_554
Ho0 Si0 3.087936 1_545
Ho0 Si0 3.087936 1_445
Ho0 Si1 3.087936 1_454
Fe0 Fe1 2.332607 1_555
Fe0 Fe9 2.560881 1_656
Fe0 Fe7 2.560881 1_655
Fe0 Fe8 2.560881 1_556
Fe0 Fe6 2.560881 1_555
Fe0 Si1 2.603235 1_655
Fe0 Si1 2.603235 1_555
Fe0 Fe4 2.685668 1_555
Fe0 Fe5 2.685668 1_555
Fe0 Fe2 2.910337 1_555
Fe0 Fe2 2.910337 1_655
Fe0 Fe3 2.910337 1_655
Fe0 Fe3 2.910337 1_555
Fe0 Ho0 3.026951 1_656
Fe1 Fe6 2.560881 1_565
Fe1 Fe7 2.560881 1_565
Fe1 Fe8 2.560881 1_555
Fe1 Fe9 2.560881 1_555
Fe1 Si0 2.603235 1_555
Fe1 Si0 2.603235 1_455
Fe1 Fe5 2.685668 1_555
Fe1 Fe4 2.685668 1_555
Fe1 Fe2 2.910337 1_655
Fe1 Fe2 2.910337 1_555
Fe1 Fe3 2.910337 1_655
Fe1 Fe3 2.910337 1_555
Fe1 Ho0 3.026951 1_565
Fe2 Fe3 2.409930 1_555
Fe2 Si1 2.529554 1_555
Fe2 Si0 2.529554 1_455
Fe2 Fe9 2.560425 1_555
Fe2 Fe6 2.560425 1_555
Fe2 Fe7 2.560425 1_555
Fe2 Fe8 2.560425 1_455
Fe2 Fe5 2.670624 1_455
Fe2 Fe5 2.670624 1_555
Fe2 Ho0 2.931771 1_555
Fe3 Si0 2.529554 1_455
Fe3 Si1 2.529554 1_555
Fe3 Fe6 2.560425 1_465
Fe3 Fe7 2.560425 1_565
Fe3 Fe8 2.560425 1_556
Fe3 Fe9 2.560425 1_556
Fe3 Fe4 2.670624 1_455
Fe3 Fe4 2.670624 1_555
Fe3 Ho0 2.931771 1_566
Fe4 Fe6 2.435856 1_565
Fe4 Fe9 2.435856 1_656
Fe4 Fe7 2.435856 1_565
Fe4 Fe8 2.435856 1_556
Fe4 Si1 2.612931 1_565
Fe4 Si0 2.612931 1_556
Fe4 Ho0 2.933900 1_566
Fe4 Ho0 2.933900 1_666
Fe5 Fe6 2.435856 1_555
Fe5 Fe7 2.435856 1_655
Fe5 Fe8 2.435856 1_555
Fe5 Fe9 2.435856 1_555
Fe5 Si0 2.612931 1_545
Fe5 Si1 2.612931 1_554
Fe5 Ho0 2.933900 1_655
Fe5 Ho0 2.933900 1_555
Fe6 Fe7 2.378625 1_655
Fe6 Fe7 2.378625 1_555
Fe6 Si0 2.389323 1_545
Fe6 Si1 2.389323 1_555
Fe6 Ho0 3.176233 1_555
Fe6 Ho0 3.176233 1_656
Fe7 Si0 2.389323 1_445
Fe7 Si1 2.389323 1_555
Fe7 Ho0 3.176233 1_555
Fe7 Ho0 3.176233 1_556
Fe8 Fe9 2.378625 1_655
Fe8 Fe9 2.378625 1_555
Fe8 Si1 2.389323 1_554
Fe8 Si0 2.389323 1_555
Fe8 Ho0 3.176233 1_565
Fe8 Ho0 3.176233 1_655
Fe9 Si1 2.389323 1_554
Fe9 Si0 2.389323 1_455
Fe9 Ho0 3.176233 1_555
Fe9 Ho0 3.176233 1_565
