# generated using pymatgen
data_CrN2
_symmetry_space_group_name_H-M   'P 1'
_cell_length_a   9.16380428
_cell_length_b   13.52375021
_cell_length_c   17.12647744
_cell_angle_alpha   104.99337798
_cell_angle_beta   105.51753480
_cell_angle_gamma   90.00000000
_symmetry_Int_Tables_number   1
_chemical_formula_structural   CrN2
_chemical_formula_sum   'Cr28 N56'
_cell_volume   1970.00683273
_cell_formula_units_Z   28
loop_
 _symmetry_equiv_pos_site_id
 _symmetry_equiv_pos_as_xyz
  1  'x, y, z'
loop_
 _atom_site_type_symbol
 _atom_site_label
 _atom_site_symmetry_multiplicity
 _atom_site_fract_x
 _atom_site_fract_y
 _atom_site_fract_z
 _atom_site_occupancy
  Cr  Cr0  1  0.86371566  0.92776750  0.10309875  1
  Cr  Cr1  1  0.23938310  0.92776750  0.10309875  1
  Cr  Cr2  1  0.13628434  0.07223250  0.89690125  1
  Cr  Cr3  1  0.76061690  0.07223250  0.89690125  1
  Cr  Cr4  1  0.00806402  0.12641684  0.38282673  1
  Cr  Cr5  1  0.37476270  0.12641684  0.38282673  1
  Cr  Cr6  1  0.99193598  0.87358316  0.61717327  1
  Cr  Cr7  1  0.62523730  0.87358316  0.61717327  1
  Cr  Cr8  1  0.82644555  0.89237424  0.28190551  1
  Cr  Cr9  1  0.45545996  0.89237424  0.28190551  1
  Cr  Cr10  1  0.17355445  0.10762576  0.71809449  1
  Cr  Cr11  1  0.54454004  0.10762576  0.71809449  1
  Cr  Cr12  1  0.73471848  0.15983508  0.09327382  1
  Cr  Cr13  1  0.35855534  0.15983508  0.09327382  1
  Cr  Cr14  1  0.26528152  0.84016492  0.90672618  1
  Cr  Cr15  1  0.64144466  0.84016492  0.90672618  1
  Cr  Cr16  1  0.95230891  0.31008771  0.27528864  1
  Cr  Cr17  1  0.32297973  0.31008771  0.27528864  1
  Cr  Cr18  1  0.04769109  0.68991229  0.72471136  1
  Cr  Cr19  1  0.67702027  0.68991229  0.72471136  1
  Cr  Cr20  1  0.60396523  0.23671013  0.58034706  1
  Cr  Cr21  1  0.97638183  0.23671013  0.58034706  1
  Cr  Cr22  1  0.39603477  0.76328987  0.41965294  1
  Cr  Cr23  1  0.02361817  0.76328987  0.41965294  1
  Cr  Cr24  1  0.89092401  0.52581912  0.40911155  1
  Cr  Cr25  1  0.51818754  0.52581912  0.40911155  1
  Cr  Cr26  1  0.10907599  0.47418088  0.59088845  1
  Cr  Cr27  1  0.48181246  0.47418088  0.59088845  1
  N  N0  1  0.05146239  0.94481633  0.10292477  1
  N  N1  1  0.94853761  0.05518367  0.89707523  1
  N  N2  1  0.18755577  0.09555142  0.37511154  1
  N  N3  1  0.81244423  0.90444858  0.62488846  1
  N  N4  1  0.63537291  0.86901772  0.27074583  1
  N  N5  1  0.36462709  0.13098228  0.72925417  1
  N  N6  1  0.54508513  0.17338170  0.09017026  1
  N  N7  1  0.45491487  0.82661830  0.90982974  1
  N  N8  1  0.13855611  0.33434554  0.27711221  1
  N  N9  1  0.86144389  0.66565446  0.72288779  1
  N  N10  1  0.78271153  0.22072042  0.56542305  1
  N  N11  1  0.21728847  0.77927958  0.43457695  1
  N  N12  1  0.70886408  0.54748638  0.41772817  1
  N  N13  1  0.29113592  0.45251362  0.58227183  1
  N  N14  1  0.95213237  0.21944126  0.33014810  1
  N  N15  1  0.37801573  0.21944126  0.33014810  1
  N  N16  1  0.04786763  0.78055874  0.66985190  1
  N  N17  1  0.62198427  0.78055874  0.66985190  1
  N  N18  1  0.01762575  0.17273557  0.48804834  1
  N  N19  1  0.47042259  0.17273557  0.48804834  1
  N  N20  1  0.98237425  0.82726443  0.51195166  1
  N  N21  1  0.52957741  0.82726443  0.51195166  1
  N  N22  1  0.85814018  0.87445662  0.18331023  1
  N  N23  1  0.32517005  0.87445662  0.18331023  1
  N  N24  1  0.14185982  0.12554338  0.81668977  1
  N  N25  1  0.67482995  0.12554338  0.81668977  1
  N  N26  1  0.84608733  0.26032435  0.17201183  1
  N  N27  1  0.32592450  0.26032435  0.17201183  1
  N  N28  1  0.15391267  0.73967565  0.82798817  1
  N  N29  1  0.67407550  0.73967565  0.82798817  1
  N  N30  1  0.76432959  0.84983247  0.00571398  1
  N  N31  1  0.24138439  0.84983247  0.00571398  1
  N  N32  1  0.23567041  0.15016753  0.99428602  1
  N  N33  1  0.75861561  0.15016753  0.99428602  1
  N  N34  1  0.92836105  0.81444686  0.33916559  1
  N  N35  1  0.41080454  0.81444686  0.33916559  1
  N  N36  1  0.07163895  0.18555314  0.66083441  1
  N  N37  1  0.58919546  0.18555314  0.66083441  1
  N  N38  1  0.00000000  0.50000000  0.50000000  1
  N  N39  1  0.50000000  0.50000000  0.50000000  1
  N  N40  1  0.78581741  0.04657762  0.11717813  1
  N  N41  1  0.33136071  0.04657762  0.11717813  1
  N  N42  1  0.21418259  0.95342238  0.88282187  1
  N  N43  1  0.66863929  0.95342238  0.88282187  1
  N  N44  1  0.88333087  0.42215078  0.32447696  1
  N  N45  1  0.44114609  0.42215078  0.32447696  1
  N  N46  1  0.11666913  0.57784922  0.67552304  1
  N  N47  1  0.55885391  0.57784922  0.67552304  1
  N  N48  1  0.88340124  0.01704723  0.34005884  1
  N  N49  1  0.45665760  0.01704723  0.34005884  1
  N  N50  1  0.11659876  0.98295277  0.65994116  1
  N  N51  1  0.54334240  0.98295277  0.65994116  1
  N  N52  1  0.57451609  0.36583820  0.60538149  1
  N  N53  1  0.03086540  0.36583820  0.60538149  1
  N  N54  1  0.42548391  0.63416180  0.39461851  1
  N  N55  1  0.96913460  0.63416180  0.39461851  1
loop_
_geom_bond_atom_site_label_1
_geom_bond_atom_site_label_2
_geom_bond_distance
_geom_bond_site_symmetry_2
Cr0 N22 1.720340 1_555
Cr0 N30 1.731982 1_555
Cr0 N0 1.736750 1_655
Cr0 N40 1.743853 1_565
Cr1 N23 1.720340 1_555
Cr1 N31 1.731982 1_555
Cr1 N0 1.736750 1_555
Cr1 N41 1.743853 1_565
Cr2 N24 1.720340 1_555
Cr2 N32 1.731982 1_555
Cr2 N1 1.736750 1_455
Cr2 N42 1.743853 1_545
Cr3 N25 1.720340 1_555
Cr3 N33 1.731982 1_555
Cr3 N1 1.736750 1_555
Cr3 N43 1.743853 1_545
Cr4 N18 1.725971 1_555
Cr4 N2 1.727688 1_555
Cr4 N14 1.731812 1_455
Cr4 N48 1.738094 1_455
Cr5 N19 1.725971 1_555
Cr5 N2 1.727688 1_555
Cr5 N15 1.731812 1_555
Cr5 N49 1.738094 1_555
Cr6 N20 1.725971 1_555
Cr6 N3 1.727688 1_555
Cr6 N16 1.731812 1_655
Cr6 N50 1.738094 1_655
Cr7 N21 1.725971 1_555
Cr7 N3 1.727688 1_555
Cr7 N17 1.731812 1_555
Cr7 N51 1.738094 1_555
Cr8 N48 1.720495 1_565
Cr8 N34 1.728949 1_555
Cr8 N4 1.729693 1_555
Cr8 N22 1.745026 1_555
Cr9 N49 1.720495 1_565
Cr9 N35 1.728949 1_555
Cr9 N4 1.729693 1_555
Cr9 N23 1.745026 1_555
Cr10 N50 1.720495 1_545
Cr10 N36 1.728949 1_555
Cr10 N5 1.729693 1_555
Cr10 N24 1.745026 1_555
Cr11 N51 1.720495 1_545
Cr11 N37 1.728949 1_555
Cr11 N5 1.729693 1_555
Cr11 N25 1.745026 1_555
Cr12 N40 1.718938 1_555
Cr12 N6 1.735461 1_555
Cr12 N26 1.738470 1_555
Cr12 N33 1.738705 1_554
Cr13 N41 1.718938 1_555
Cr13 N6 1.735461 1_555
Cr13 N27 1.738470 1_555
Cr13 N32 1.738705 1_554
Cr14 N42 1.718938 1_555
Cr14 N7 1.735461 1_555
Cr14 N28 1.738470 1_555
Cr14 N31 1.738705 1_556
Cr15 N43 1.718938 1_555
Cr15 N7 1.735461 1_555
Cr15 N29 1.738470 1_555
Cr15 N30 1.738705 1_556
Cr16 N14 1.726932 1_555
Cr16 N8 1.728500 1_655
Cr16 N26 1.729685 1_555
Cr16 N44 1.740788 1_555
Cr17 N15 1.726932 1_555
Cr17 N8 1.728500 1_555
Cr17 N27 1.729685 1_555
Cr17 N45 1.740788 1_555
Cr18 N16 1.726932 1_555
Cr18 N9 1.728500 1_455
Cr18 N28 1.729685 1_555
Cr18 N46 1.740788 1_555
Cr19 N17 1.726932 1_555
Cr19 N9 1.728500 1_555
Cr19 N29 1.729685 1_555
Cr19 N47 1.740788 1_555
Cr20 N52 1.726474 1_555
Cr20 N37 1.729274 1_555
Cr20 N10 1.729317 1_555
Cr20 N19 1.732685 1_555
Cr21 N53 1.726474 1_655
Cr21 N36 1.729274 1_655
Cr21 N10 1.729317 1_555
Cr21 N18 1.732685 1_655
Cr22 N54 1.726474 1_555
Cr22 N35 1.729274 1_555
Cr22 N11 1.729317 1_555
Cr22 N21 1.732685 1_555
Cr23 N55 1.726474 1_455
Cr23 N34 1.729274 1_455
Cr23 N11 1.729317 1_555
Cr23 N20 1.732685 1_455
Cr24 N44 1.722206 1_555
Cr24 N38 1.729953 1_655
Cr24 N12 1.732175 1_555
Cr24 N55 1.733623 1_555
Cr25 N45 1.722206 1_555
Cr25 N39 1.729953 1_555
Cr25 N12 1.732175 1_555
Cr25 N54 1.733623 1_555
Cr26 N46 1.722206 1_555
Cr26 N38 1.729953 1_555
Cr26 N13 1.732175 1_555
Cr26 N53 1.733623 1_555
Cr27 N47 1.722206 1_555
Cr27 N39 1.729953 1_555
Cr27 N13 1.732175 1_555
Cr27 N52 1.733623 1_555
