# generated using pymatgen
data_K2TmF5
_symmetry_space_group_name_H-M   'P 1'
_cell_length_a   6.51835391
_cell_length_b   7.11068889
_cell_length_c   10.68898500
_cell_angle_alpha   90.00000000
_cell_angle_beta   90.00000000
_cell_angle_gamma   90.00000000
_symmetry_Int_Tables_number   1
_chemical_formula_structural   K2TmF5
_chemical_formula_sum   'K8 Tm4 F20'
_cell_volume   495.43431290
_cell_formula_units_Z   4
loop_
 _symmetry_equiv_pos_site_id
 _symmetry_equiv_pos_as_xyz
  1  'x, y, z'
loop_
 _atom_site_type_symbol
 _atom_site_label
 _atom_site_symmetry_multiplicity
 _atom_site_fract_x
 _atom_site_fract_y
 _atom_site_fract_z
 _atom_site_occupancy
  K  K0  1  0.53694437  0.49640606  0.82894507  1
  K  K1  1  0.46305563  0.50359394  0.17105493  1
  K  K2  1  0.03694437  0.50359394  0.67105493  1
  K  K3  1  0.46305563  0.99640606  0.17105493  1
  K  K4  1  0.96305563  0.49640606  0.32894507  1
  K  K5  1  0.53694437  0.00359394  0.82894507  1
  K  K6  1  0.96305563  0.00359394  0.32894507  1
  K  K7  1  0.03694437  0.99640606  0.67105493  1
  Tm  Tm0  1  0.56412381  0.75000000  0.50262829  1
  Tm  Tm1  1  0.43587619  0.25000000  0.49737171  1
  Tm  Tm2  1  0.06412381  0.25000000  0.99737171  1
  Tm  Tm3  1  0.93587619  0.75000000  0.00262829  1
  F  F0  1  0.84147381  0.75000000  0.80948719  1
  F  F1  1  0.15852619  0.25000000  0.19051281  1
  F  F2  1  0.34147381  0.25000000  0.69051281  1
  F  F3  1  0.65852619  0.75000000  0.30948719  1
  F  F4  1  0.37220767  0.75000000  0.66530257  1
  F  F5  1  0.62779233  0.25000000  0.33469743  1
  F  F6  1  0.87220767  0.25000000  0.83469743  1
  F  F7  1  0.12779233  0.75000000  0.16530257  1
  F  F8  1  0.89217569  0.75000000  0.51318247  1
  F  F9  1  0.10782431  0.25000000  0.48681753  1
  F  F10  1  0.39217569  0.25000000  0.98681753  1
  F  F11  1  0.60782431  0.75000000  0.01318247  1
  F  F12  1  0.64718632  0.03559033  0.57468560  1
  F  F13  1  0.35281368  0.96440967  0.42531440  1
  F  F14  1  0.14718632  0.96440967  0.92531440  1
  F  F15  1  0.35281368  0.53559033  0.42531440  1
  F  F16  1  0.85281368  0.03559033  0.07468560  1
  F  F17  1  0.64718632  0.46440967  0.57468560  1
  F  F18  1  0.85281368  0.46440967  0.07468560  1
  F  F19  1  0.14718632  0.53559033  0.92531440  1
loop_
_geom_bond_atom_site_label_1
_geom_bond_atom_site_label_2
_geom_bond_distance
_geom_bond_site_symmetry_2
F0 Tm3 2.154238 1_556
F0 K7 2.623523 1_655
F0 K2 2.623523 1_655
F0 K0 2.689839 1_555
F0 K5 2.689839 1_565
F1 Tm2 2.154238 1_554
F1 K6 2.623523 1_455
F1 K4 2.623523 1_455
F1 K1 2.689839 1_555
F1 K3 2.689839 1_545
F2 Tm1 2.154238 1_555
F2 K5 2.623523 1_555
F2 K0 2.623523 1_555
F2 K7 2.689839 1_545
F2 K2 2.689839 1_555
F3 Tm0 2.154238 1_555
F3 K3 2.623523 1_555
F3 K1 2.623523 1_555
F3 K4 2.689839 1_555
F3 K6 2.689839 1_565
F4 Tm0 2.142067 1_555
F4 K5 2.732088 1_565
F4 K0 2.732088 1_555
F4 K2 2.801698 1_555
F4 K7 2.801698 1_555
F5 Tm1 2.142067 1_555
F5 K1 2.732088 1_555
F5 K3 2.732088 1_545
F5 K6 2.801698 1_555
F5 K4 2.801698 1_555
F6 Tm2 2.142067 1_655
F6 K7 2.732088 1_645
F6 K2 2.732088 1_655
F6 K5 2.801698 1_555
F6 K0 2.801698 1_555
F7 Tm3 2.142067 1_455
F7 K4 2.732088 1_455
F7 K6 2.732088 1_465
F7 K1 2.801698 1_555
F7 K3 2.801698 1_555
F8 Tm0 2.141332 1_555
F8 K7 2.609222 1_655
F8 K2 2.609222 1_655
F8 K4 2.709848 1_555
F8 K6 2.709848 1_565
F9 Tm1 2.141332 1_555
F9 K6 2.609222 1_455
F9 K4 2.609222 1_455
F9 K7 2.709848 1_545
F9 K2 2.709848 1_555
F10 Tm2 2.141332 1_555
F10 K5 2.609222 1_555
F10 K0 2.609222 1_555
F10 K1 2.709848 1_556
F10 K3 2.709848 1_546
F11 Tm3 2.141332 1_555
F11 K3 2.609222 1_555
F11 K1 2.609222 1_555
F11 K0 2.709848 1_554
F11 K5 2.709848 1_564
F12 Tm1 2.214626 1_555
F12 Tm0 2.238371 1_545
F12 K7 2.755589 1_645
F12 K5 2.820363 1_555
F13 Tm0 2.214626 1_555
F13 Tm1 2.238371 1_565
F13 K6 2.755589 1_465
F13 K3 2.820363 1_555
F14 Tm3 2.214626 1_456
F14 Tm2 2.238371 1_565
F14 K5 2.755589 1_565
F14 K7 2.820363 1_555
F15 Tm0 2.214626 1_555
F15 Tm1 2.238371 1_555
F15 K4 2.755589 1_455
F15 K1 2.820363 1_555
F16 Tm2 2.214626 1_654
F16 Tm3 2.238371 1_545
F16 K3 2.755589 1_545
F16 K6 2.820363 1_555
F17 Tm1 2.214626 1_555
F17 Tm0 2.238371 1_555
F17 K2 2.755589 1_655
F17 K0 2.820363 1_555
F18 Tm2 2.214626 1_654
F18 Tm3 2.238371 1_555
F18 K1 2.755589 1_555
F18 K4 2.820363 1_555
F19 Tm3 2.214626 1_456
F19 Tm2 2.238371 1_555
F19 K0 2.755589 1_555
F19 K2 2.820363 1_555
