# generated using pymatgen
data_MnPbN2
_symmetry_space_group_name_H-M   'P 1'
_cell_length_a   5.84342700
_cell_length_b   7.69255000
_cell_length_c   5.28393600
_cell_angle_alpha   90.00000000
_cell_angle_beta   90.00000000
_cell_angle_gamma   90.00000000
_symmetry_Int_Tables_number   1
_chemical_formula_structural   MnPbN2
_chemical_formula_sum   'Mn4 Pb4 N8'
_cell_volume   237.51743763
_cell_formula_units_Z   4
loop_
 _symmetry_equiv_pos_site_id
 _symmetry_equiv_pos_as_xyz
  1  'x, y, z'
loop_
 _atom_site_type_symbol
 _atom_site_label
 _atom_site_symmetry_multiplicity
 _atom_site_fract_x
 _atom_site_fract_y
 _atom_site_fract_z
 _atom_site_occupancy
  Mn  Mn0  1  0.51030900  0.87288200  0.98837600  1
  Mn  Mn1  1  0.48969100  0.12711800  0.48837600  1
  Mn  Mn2  1  0.98969100  0.37288200  0.48837600  1
  Mn  Mn3  1  0.01030900  0.62711800  0.98837600  1
  Pb  Pb0  1  0.58581300  0.36918400  0.00503900  1
  Pb  Pb1  1  0.41418700  0.63081600  0.50503900  1
  Pb  Pb2  1  0.91418700  0.86918400  0.50503900  1
  Pb  Pb3  1  0.08581300  0.13081600  0.00503900  1
  N  N0  1  0.50265500  0.92351000  0.31923300  1
  N  N1  1  0.49734500  0.07649000  0.81923300  1
  N  N2  1  0.99734500  0.42351000  0.81923300  1
  N  N3  1  0.00265500  0.57649000  0.31923300  1
  N  N4  1  0.73801700  0.25221000  0.40935200  1
  N  N5  1  0.26198300  0.74779000  0.90935200  1
  N  N6  1  0.76198300  0.75221000  0.90935200  1
  N  N7  1  0.23801700  0.24779000  0.40935200  1
loop_
_geom_bond_atom_site_label_1
_geom_bond_atom_site_label_2
_geom_bond_distance
_geom_bond_site_symmetry_2
Mn0 N6 1.788527 1_555
Mn0 N5 1.790516 1_555
Mn0 N0 1.791641 1_556
Mn0 N1 1.804909 1_565
Mn1 N7 1.788527 1_555
Mn1 N4 1.790516 1_555
Mn1 N1 1.791641 1_555
Mn1 N0 1.804909 1_545
Mn2 N4 1.788527 1_555
Mn2 N7 1.790516 1_655
Mn2 N2 1.791641 1_555
Mn2 N3 1.804909 1_655
Mn3 N5 1.788527 1_555
Mn3 N6 1.790516 1_455
Mn3 N3 1.791641 1_556
Mn3 N2 1.804909 1_455
N0 Pb1 2.510117 1_555
N0 Pb2 2.630857 1_555
N1 Pb0 2.510117 1_556
N1 Pb3 2.630857 1_556
N2 Pb3 2.510117 1_656
N2 Pb0 2.630857 1_556
N3 Pb2 2.510117 1_455
N3 Pb1 2.630857 1_555
N4 Pb0 2.482894 1_555
N5 Pb1 2.482894 1_555
N6 Pb2 2.482894 1_555
N7 Pb3 2.482894 1_555
