# generated using pymatgen
data_MgCr2O5
_symmetry_space_group_name_H-M   'P 1'
_cell_length_a   3.44770500
_cell_length_b   4.82368600
_cell_length_c   11.56042300
_cell_angle_alpha   90.00000000
_cell_angle_beta   90.00000000
_cell_angle_gamma   90.00000000
_symmetry_Int_Tables_number   1
_chemical_formula_structural   MgCr2O5
_chemical_formula_sum   'Mg2 Cr4 O10'
_cell_volume   192.25730646
_cell_formula_units_Z   2
loop_
 _symmetry_equiv_pos_site_id
 _symmetry_equiv_pos_as_xyz
  1  'x, y, z'
loop_
 _atom_site_type_symbol
 _atom_site_label
 _atom_site_symmetry_multiplicity
 _atom_site_fract_x
 _atom_site_fract_y
 _atom_site_fract_z
 _atom_site_occupancy
  Mg  Mg0  1  0.75000000  0.85074400  0.25000000  1
  Mg  Mg1  1  0.24999900  0.14925500  0.75000000  1
  Cr  Cr0  1  0.24999900  0.41329500  0.09976900  1
  Cr  Cr1  1  0.75000000  0.58670400  0.90023100  1
  Cr  Cr2  1  0.75000000  0.58670400  0.59976900  1
  Cr  Cr3  1  0.24999900  0.41329500  0.40023100  1
  O  O0  1  0.75000000  0.41804500  0.75000000  1
  O  O1  1  0.24999900  0.58195400  0.25000000  1
  O  O2  1  0.75000000  0.56839900  0.07493400  1
  O  O3  1  0.24999900  0.43160200  0.92506500  1
  O  O4  1  0.75000000  0.56839900  0.42506500  1
  O  O5  1  0.24999900  0.43160200  0.57493500  1
  O  O6  1  0.24999900  0.06900000  0.35749900  1
  O  O7  1  0.75000000  0.93100100  0.64250100  1
  O  O8  1  0.75000000  0.93100100  0.85749800  1
  O  O9  1  0.24999900  0.06900000  0.14250200  1
loop_
_geom_bond_atom_site_label_1
_geom_bond_atom_site_label_2
_geom_bond_distance
_geom_bond_site_symmetry_2
Mg0 O1 2.157016 1_655
Mg0 O1 2.157022 1_555
Mg0 O9 2.371582 1_665
Mg0 O9 2.371587 1_565
Mg0 O6 2.371588 1_665
Mg0 O6 2.371593 1_565
Mg0 O4 2.439418 1_555
Mg0 O2 2.439428 1_555
Mg1 O0 2.157016 1_455
Mg1 O0 2.157022 1_555
Mg1 O8 2.371577 1_445
Mg1 O8 2.371582 1_545
Mg1 O7 2.371583 1_445
Mg1 O7 2.371588 1_545
Mg1 O5 2.439423 1_555
Mg1 O3 2.439423 1_555
Cr0 O9 1.732688 1_555
Cr0 O2 1.901012 1_455
Cr0 O2 1.901018 1_555
Cr0 O1 1.917843 1_555
Cr0 O3 2.021582 1_554
Cr1 O8 1.732697 1_555
Cr1 O3 1.901006 1_655
Cr1 O3 1.901013 1_555
Cr1 O0 1.917843 1_555
Cr1 O2 2.021570 1_556
Cr2 O7 1.732694 1_555
Cr2 O5 1.901006 1_655
Cr2 O5 1.901013 1_555
Cr2 O0 1.917843 1_555
Cr2 O4 2.021581 1_555
Cr3 O6 1.732685 1_555
Cr3 O4 1.901010 1_455
Cr3 O4 1.901016 1_555
Cr3 O1 1.917843 1_555
Cr3 O5 2.021582 1_555
