# generated using pymatgen
data_Pr3Si6N11
_symmetry_space_group_name_H-M   'P 1'
_cell_length_a   10.12684513
_cell_length_b   10.12684513
_cell_length_c   4.85940257
_cell_angle_alpha   90.00000000
_cell_angle_beta   90.00000000
_cell_angle_gamma   90.00000000
_symmetry_Int_Tables_number   1
_chemical_formula_structural   Pr3Si6N11
_chemical_formula_sum   'Pr6 Si12 N22'
_cell_volume   498.34627428
_cell_formula_units_Z   2
loop_
 _symmetry_equiv_pos_site_id
 _symmetry_equiv_pos_as_xyz
  1  'x, y, z'
loop_
 _atom_site_type_symbol
 _atom_site_label
 _atom_site_symmetry_multiplicity
 _atom_site_fract_x
 _atom_site_fract_y
 _atom_site_fract_z
 _atom_site_occupancy
  Pr  Pr0  1  0.50000000  0.50000000  0.35444653  1
  Pr  Pr1  1  -0.00000000  0.00000000  0.35444653  1
  Pr  Pr2  1  0.68176250  0.18176250  0.37082972  1
  Pr  Pr3  1  0.18176250  0.31823750  0.37082972  1
  Pr  Pr4  1  0.81823750  0.68176250  0.37082972  1
  Pr  Pr5  1  0.31823750  0.81823750  0.37082972  1
  Si  Si0  1  0.11707756  0.61707756  0.40479644  1
  Si  Si1  1  0.61707756  0.88292244  0.40479644  1
  Si  Si2  1  0.38292244  0.11707756  0.40479644  1
  Si  Si3  1  0.88292244  0.38292244  0.40479644  1
  Si  Si4  1  0.57886580  0.70914212  0.89487264  1
  Si  Si5  1  0.42113420  0.29085788  0.89487264  1
  Si  Si6  1  0.29085788  0.57886580  0.89487264  1
  Si  Si7  1  0.70914212  0.42113420  0.89487264  1
  Si  Si8  1  0.79085788  0.92113420  0.89487264  1
  Si  Si9  1  0.92113420  0.20914212  0.89487264  1
  Si  Si10  1  0.07886580  0.79085788  0.89487264  1
  Si  Si11  1  0.20914212  0.07886580  0.89487264  1
  N  N0  1  0.50000000  0.00000000  0.43181503  1
  N  N1  1  -0.00000000  0.50000000  0.43181503  1
  N  N2  1  0.42040260  0.67896945  0.00365286  1
  N  N3  1  0.57959740  0.32103055  0.00365286  1
  N  N4  1  0.32103055  0.42040260  0.00365286  1
  N  N5  1  0.67896945  0.57959740  0.00365286  1
  N  N6  1  0.82103055  0.07959740  0.00365286  1
  N  N7  1  0.07959740  0.17896945  0.00365286  1
  N  N8  1  0.92040260  0.82103055  0.00365286  1
  N  N9  1  0.17896945  0.92040260  0.00365286  1
  N  N10  1  0.84624978  0.34624978  0.05909709  1
  N  N11  1  0.34624978  0.15375022  0.05909709  1
  N  N12  1  0.65375022  0.84624978  0.05909709  1
  N  N13  1  0.15375022  0.65375022  0.05909709  1
  N  N14  1  0.23099724  0.07555480  0.54239299  1
  N  N15  1  0.07555480  0.76900276  0.54239299  1
  N  N16  1  0.92444520  0.23099724  0.54239299  1
  N  N17  1  0.76900276  0.92444520  0.54239299  1
  N  N18  1  0.73099724  0.42444520  0.54239299  1
  N  N19  1  0.26900276  0.57555480  0.54239299  1
  N  N20  1  0.42444520  0.26900276  0.54239299  1
  N  N21  1  0.57555480  0.73099724  0.54239299  1
loop_
_geom_bond_atom_site_label_1
_geom_bond_atom_site_label_2
_geom_bond_distance
_geom_bond_site_symmetry_2
N0 Si2 1.681861 1_555
N0 Si1 1.681861 1_545
N0 Pr2 2.619930 1_555
N0 Pr5 2.619930 1_545
N1 Si0 1.681861 1_555
N1 Si3 1.681861 1_455
N1 Pr3 2.619930 1_555
N1 Pr4 2.619930 1_455
N2 Si4 1.716961 1_554
N2 Si6 1.740146 1_554
N2 Pr5 2.498615 1_555
N2 Pr0 2.615407 1_555
N3 Si5 1.716961 1_554
N3 Si7 1.740146 1_554
N3 Pr2 2.498615 1_555
N3 Pr0 2.615407 1_555
N4 Si6 1.716961 1_554
N4 Si5 1.740146 1_554
N4 Pr3 2.498615 1_555
N4 Pr0 2.615407 1_555
N5 Si7 1.716961 1_554
N5 Si4 1.740146 1_554
N5 Pr4 2.498615 1_555
N5 Pr0 2.615407 1_555
N6 Si8 1.716961 1_544
N6 Si9 1.740146 1_554
N6 Pr2 2.498615 1_555
N6 Pr1 2.615407 1_655
N7 Si9 1.716961 1_454
N7 Si11 1.740146 1_554
N7 Pr3 2.498615 1_555
N7 Pr1 2.615407 1_555
N8 Si10 1.716961 1_654
N8 Si8 1.740146 1_554
N8 Pr4 2.498615 1_555
N8 Pr1 2.615407 1_665
N9 Si11 1.716961 1_564
N9 Si10 1.740146 1_554
N9 Pr5 2.498615 1_555
N9 Pr1 2.615407 1_565
N10 Si3 1.760080 1_555
N10 Si7 1.771943 1_554
N10 Si9 1.771943 1_554
N10 Pr2 2.800729 1_555
N11 Si2 1.760080 1_555
N11 Si11 1.771943 1_554
N11 Si5 1.771943 1_554
N11 Pr3 2.800729 1_555
N12 Si1 1.760080 1_555
N12 Si4 1.771943 1_554
N12 Si8 1.771943 1_554
N12 Pr4 2.800729 1_555
N13 Si0 1.760080 1_555
N13 Si10 1.771943 1_554
N13 Si6 1.771943 1_554
N13 Pr5 2.800729 1_555
N14 Si11 1.727406 1_555
N14 Si2 1.729435 1_555
N14 Pr1 2.625216 1_555
N14 Pr3 2.642629 1_555
N14 Pr5 2.875034 1_545
N15 Si10 1.727406 1_555
N15 Si0 1.729435 1_555
N15 Pr1 2.625216 1_565
N15 Pr5 2.642629 1_555
N15 Pr4 2.875034 1_455
N16 Si9 1.727406 1_555
N16 Si3 1.729435 1_555
N16 Pr1 2.625216 1_655
N16 Pr2 2.642629 1_555
N16 Pr3 2.875034 1_655
N17 Si8 1.727406 1_555
N17 Si1 1.729435 1_555
N17 Pr1 2.625216 1_665
N17 Pr4 2.642629 1_555
N17 Pr2 2.875034 1_565
N18 Si7 1.727406 1_555
N18 Si3 1.729435 1_555
N18 Pr0 2.625216 1_555
N18 Pr2 2.642629 1_555
N18 Pr4 2.875034 1_555
N19 Si6 1.727406 1_555
N19 Si0 1.729435 1_555
N19 Pr0 2.625216 1_555
N19 Pr5 2.642629 1_555
N19 Pr3 2.875034 1_555
N20 Si5 1.727406 1_555
N20 Si2 1.729435 1_555
N20 Pr0 2.625216 1_555
N20 Pr3 2.642629 1_555
N20 Pr2 2.875034 1_555
N21 Si4 1.727406 1_555
N21 Si1 1.729435 1_555
N21 Pr0 2.625216 1_555
N21 Pr4 2.642629 1_555
N21 Pr5 2.875034 1_555
