# generated using pymatgen
data_CsU(PO4)2
_symmetry_space_group_name_H-M   'P 1'
_cell_length_a   5.64429600
_cell_length_b   8.38472500
_cell_length_c   9.13958299
_cell_angle_alpha   67.16859152
_cell_angle_beta   90.00000000
_cell_angle_gamma   90.00000000
_symmetry_Int_Tables_number   1
_chemical_formula_structural   CsU(PO4)2
_chemical_formula_sum   'Cs2 U2 P4 O16'
_cell_volume   398.64955873
_cell_formula_units_Z   2
loop_
 _symmetry_equiv_pos_site_id
 _symmetry_equiv_pos_as_xyz
  1  'x, y, z'
loop_
 _atom_site_type_symbol
 _atom_site_label
 _atom_site_symmetry_multiplicity
 _atom_site_fract_x
 _atom_site_fract_y
 _atom_site_fract_z
 _atom_site_occupancy
  Cs  Cs0  1  0.25000000  0.99717700  0.74899800  1
  Cs  Cs1  1  0.75000000  0.00282300  0.25100200  1
  U  U0  1  0.25000000  0.48285400  0.27758500  1
  U  U1  1  0.75000000  0.51714600  0.72241500  1
  P  P0  1  0.25000000  0.65726900  0.51619600  1
  P  P1  1  0.75000000  0.34273100  0.48380400  1
  P  P2  1  0.75000000  0.71410800  0.01723600  1
  P  P3  1  0.25000000  0.28589200  0.98276400  1
  O  O0  1  0.25000000  0.46073500  0.55532900  1
  O  O1  1  0.75000000  0.53926500  0.44467100  1
  O  O2  1  0.25000000  0.74102000  0.33298000  1
  O  O3  1  0.75000000  0.25898000  0.66702000  1
  O  O4  1  0.75000000  0.90455200  0.97384700  1
  O  O5  1  0.25000000  0.09544800  0.02615300  1
  O  O6  1  0.47116800  0.71095900  0.59034000  1
  O  O7  1  0.97116800  0.28904100  0.40966000  1
  O  O8  1  0.52883200  0.28904100  0.40966000  1
  O  O9  1  0.02883200  0.71095900  0.59034000  1
  O  O10  1  0.52585100  0.62089800  0.11671600  1
  O  O11  1  0.02585100  0.37910200  0.88328400  1
  O  O12  1  0.47414900  0.37910200  0.88328400  1
  O  O13  1  0.97414900  0.62089800  0.11671600  1
  O  O14  1  0.75000000  0.67013100  0.86464900  1
  O  O15  1  0.25000000  0.32986900  0.13535100  1
loop_
_geom_bond_atom_site_label_1
_geom_bond_atom_site_label_2
_geom_bond_distance
_geom_bond_site_symmetry_2
Cs0 O5 2.952150 1_566
Cs1 O4 2.952150 1_544
O0 P0 1.544686 1_555
O0 U0 2.472417 1_555
O1 P1 1.544686 1_555
O1 U1 2.472417 1_555
O2 P0 1.544212 1_555
O2 U0 2.406768 1_555
O3 P1 1.544212 1_555
O3 U1 2.406768 1_555
O4 P2 1.488516 1_556
O5 P3 1.488516 1_554
O6 P0 1.567465 1_555
O6 U1 2.247783 1_555
O7 P1 1.567465 1_555
O7 U0 2.247783 1_655
O8 P1 1.567465 1_555
O8 U0 2.247783 1_555
O9 P0 1.567465 1_555
O9 U1 2.247783 1_455
O10 P2 1.576914 1_555
O10 U0 2.145919 1_555
O11 P3 1.576914 1_555
O11 U1 2.145919 1_455
O12 P3 1.576914 1_555
O12 U1 2.145919 1_555
O13 P2 1.576914 1_555
O13 U0 2.145919 1_655
O14 P2 1.574766 1_556
O14 U1 2.151596 1_555
O15 P3 1.574766 1_554
O15 U0 2.151596 1_555
