# generated using pymatgen
data_Ce2Mg
_symmetry_space_group_name_H-M   'P 1'
_cell_length_a   13.10858541
_cell_length_b   13.10858541
_cell_length_c   16.12287013
_cell_angle_alpha   73.06853327
_cell_angle_beta   73.06853327
_cell_angle_gamma   28.32789652
_symmetry_Int_Tables_number   1
_chemical_formula_structural   Ce2Mg
_chemical_formula_sum   'Ce32 Mg16'
_cell_volume   1253.93478945
_cell_formula_units_Z   16
loop_
 _symmetry_equiv_pos_site_id
 _symmetry_equiv_pos_as_xyz
  1  'x, y, z'
loop_
 _atom_site_type_symbol
 _atom_site_label
 _atom_site_symmetry_multiplicity
 _atom_site_fract_x
 _atom_site_fract_y
 _atom_site_fract_z
 _atom_site_occupancy
  Ce  Ce0_0  1  0.48989700  0.48989700  0.01078600  1
  Ce  Ce0_1  1  0.48989700  0.48989700  0.51078600  1
  Ce  Ce0_2  1  0.48989700  0.98989700  0.01078600  1
  Ce  Ce0_3  1  0.48989700  0.98989700  0.51078600  1
  Ce  Ce0_4  1  0.98989700  0.48989700  0.01078600  1
  Ce  Ce0_5  1  0.98989700  0.48989700  0.51078600  1
  Ce  Ce0_6  1  0.98989700  0.98989700  0.01078600  1
  Ce  Ce0_7  1  0.98989700  0.98989700  0.51078600  1
  Ce  Ce1_0  1  0.15881900  0.15881900  0.17409150  1
  Ce  Ce1_1  1  0.15881900  0.15881900  0.67409150  1
  Ce  Ce1_2  1  0.15881900  0.65881900  0.17409150  1
  Ce  Ce1_3  1  0.15881900  0.65881900  0.67409150  1
  Ce  Ce1_4  1  0.65881900  0.15881900  0.17409150  1
  Ce  Ce1_5  1  0.65881900  0.15881900  0.67409150  1
  Ce  Ce1_6  1  0.65881900  0.65881900  0.17409150  1
  Ce  Ce1_7  1  0.65881900  0.65881900  0.67409150  1
  Ce  Ce2_0  1  0.34229450  0.34229450  0.33610600  1
  Ce  Ce2_1  1  0.34229450  0.34229450  0.83610600  1
  Ce  Ce2_2  1  0.34229450  0.84229450  0.33610600  1
  Ce  Ce2_3  1  0.34229450  0.84229450  0.83610600  1
  Ce  Ce2_4  1  0.84229450  0.34229450  0.33610600  1
  Ce  Ce2_5  1  0.84229450  0.34229450  0.83610600  1
  Ce  Ce2_6  1  0.84229450  0.84229450  0.33610600  1
  Ce  Ce2_7  1  0.84229450  0.84229450  0.83610600  1
  Ce  Ce3_0  1  0.14213600  0.14213600  0.46042350  1
  Ce  Ce3_1  1  0.14213600  0.14213600  0.96042350  1
  Ce  Ce3_2  1  0.14213600  0.64213600  0.46042350  1
  Ce  Ce3_3  1  0.14213600  0.64213600  0.96042350  1
  Ce  Ce3_4  1  0.64213600  0.14213600  0.46042350  1
  Ce  Ce3_5  1  0.64213600  0.14213600  0.96042350  1
  Ce  Ce3_6  1  0.64213600  0.64213600  0.46042350  1
  Ce  Ce3_7  1  0.64213600  0.64213600  0.96042350  1
  Mg  Mg0_0  1  0.30150050  0.30150050  0.13911450  1
  Mg  Mg0_1  1  0.30150050  0.30150050  0.63911450  1
  Mg  Mg0_2  1  0.30150050  0.80150050  0.13911450  1
  Mg  Mg0_3  1  0.30150050  0.80150050  0.63911450  1
  Mg  Mg0_4  1  0.80150050  0.30150050  0.13911450  1
  Mg  Mg0_5  1  0.80150050  0.30150050  0.63911450  1
  Mg  Mg0_6  1  0.80150050  0.80150050  0.13911450  1
  Mg  Mg0_7  1  0.80150050  0.80150050  0.63911450  1
  Mg  Mg1_0  1  0.48201900  0.48201900  0.29614500  1
  Mg  Mg1_1  1  0.48201900  0.48201900  0.79614500  1
  Mg  Mg1_2  1  0.48201900  0.98201900  0.29614500  1
  Mg  Mg1_3  1  0.48201900  0.98201900  0.79614500  1
  Mg  Mg1_4  1  0.98201900  0.48201900  0.29614500  1
  Mg  Mg1_5  1  0.98201900  0.48201900  0.79614500  1
  Mg  Mg1_6  1  0.98201900  0.98201900  0.29614500  1
  Mg  Mg1_7  1  0.98201900  0.98201900  0.79614500  1
loop_
_geom_bond_atom_site_label_1
_geom_bond_atom_site_label_2
_geom_bond_distance
_geom_bond_site_symmetry_2
Ce0_0 Ce0_6 3.207636 1_545
Ce0_0 Ce0_6 3.207636 1_455
Ce0_0 Ce1_4 3.239233 1_555
Ce0_0 Ce1_2 3.239233 1_555
Ce0_0 Ce3_5 3.258750 1_554
Ce0_0 Ce3_3 3.258750 1_554
Ce0_0 Mg0_2 3.354355 1_555
Ce0_0 Mg0_4 3.354355 1_555
Ce0_0 Mg1_1 3.525957 1_554
Ce0_0 Ce2_3 3.588268 1_554
Ce0_0 Ce2_5 3.588268 1_554
Ce0_0 Ce3_7 3.707842 1_554
Ce0_1 Ce0_7 3.207636 1_545
Ce0_1 Ce0_7 3.207636 1_455
Ce0_1 Ce1_5 3.239233 1_555
Ce0_1 Ce1_3 3.239233 1_555
Ce0_1 Ce3_4 3.258750 1_555
Ce0_1 Ce3_2 3.258750 1_555
Ce0_1 Mg0_3 3.354355 1_555
Ce0_1 Mg0_5 3.354355 1_555
Ce0_1 Mg1_0 3.525957 1_555
Ce0_1 Ce2_2 3.588268 1_555
Ce0_1 Ce2_4 3.588268 1_555
Ce0_1 Ce3_6 3.707842 1_555
Ce0_2 Ce0_4 3.207636 1_465
Ce0_2 Ce0_4 3.207636 1_555
Ce0_2 Ce1_0 3.239233 1_565
Ce0_2 Ce1_6 3.239233 1_555
Ce0_2 Ce3_1 3.258750 1_564
Ce0_2 Ce3_7 3.258750 1_554
Ce0_2 Mg0_6 3.354355 1_555
Ce0_2 Mg0_0 3.354355 1_565
Ce0_2 Mg1_3 3.525957 1_554
Ce0_2 Ce2_7 3.588268 1_554
Ce0_2 Ce2_1 3.588268 1_564
Ce0_2 Ce3_5 3.707842 1_564
Ce0_3 Ce0_5 3.207636 1_555
Ce0_3 Ce0_5 3.207636 1_465
Ce0_3 Ce1_7 3.239233 1_555
Ce0_3 Ce1_1 3.239233 1_565
Ce0_3 Ce3_0 3.258750 1_565
Ce0_3 Ce3_6 3.258750 1_555
Ce0_3 Mg0_7 3.354355 1_555
Ce0_3 Mg0_1 3.354355 1_565
Ce0_3 Mg1_2 3.525957 1_555
Ce0_3 Ce2_6 3.588268 1_555
Ce0_3 Ce2_0 3.588268 1_565
Ce0_3 Ce3_4 3.707842 1_565
Ce0_4 Ce1_0 3.239233 1_655
Ce0_4 Ce1_6 3.239233 1_555
Ce0_4 Ce3_1 3.258750 1_654
Ce0_4 Ce3_7 3.258750 1_554
Ce0_4 Mg0_6 3.354355 1_555
Ce0_4 Mg0_0 3.354355 1_655
Ce0_4 Mg1_5 3.525957 1_554
Ce0_4 Ce2_7 3.588268 1_554
Ce0_4 Ce2_1 3.588268 1_654
Ce0_4 Ce3_3 3.707842 1_654
Ce0_5 Ce1_1 3.239233 1_655
Ce0_5 Ce1_7 3.239233 1_555
Ce0_5 Ce3_0 3.258750 1_655
Ce0_5 Ce3_6 3.258750 1_555
Ce0_5 Mg0_7 3.354355 1_555
Ce0_5 Mg0_1 3.354355 1_655
Ce0_5 Mg1_4 3.525957 1_555
Ce0_5 Ce2_6 3.588268 1_555
Ce0_5 Ce2_0 3.588268 1_655
Ce0_5 Ce3_2 3.707842 1_655
Ce0_6 Ce1_4 3.239233 1_565
Ce0_6 Ce1_2 3.239233 1_655
Ce0_6 Ce3_5 3.258750 1_564
Ce0_6 Ce3_3 3.258750 1_654
Ce0_6 Mg0_2 3.354355 1_655
Ce0_6 Mg0_4 3.354355 1_565
Ce0_6 Mg1_7 3.525957 1_554
Ce0_6 Ce2_3 3.588268 1_654
Ce0_6 Ce2_5 3.588268 1_564
Ce0_6 Ce3_1 3.707842 1_664
Ce0_7 Ce1_5 3.239233 1_565
Ce0_7 Ce1_3 3.239233 1_655
Ce0_7 Ce3_4 3.258750 1_565
Ce0_7 Ce3_2 3.258750 1_655
Ce0_7 Mg0_5 3.354355 1_565
Ce0_7 Mg0_3 3.354355 1_655
Ce0_7 Mg1_6 3.525957 1_555
Ce0_7 Ce2_4 3.588268 1_565
Ce0_7 Ce2_2 3.588268 1_655
Ce0_7 Ce3_0 3.707842 1_665
Ce1_0 Ce2_2 3.098653 1_545
Ce1_0 Ce2_4 3.098653 1_455
Ce1_0 Ce1_6 3.207636 1_455
Ce1_0 Ce1_6 3.207636 1_545
Ce1_0 Mg0_4 3.355098 1_455
Ce1_0 Mg0_2 3.355098 1_545
Ce1_0 Mg1_2 3.479473 1_545
Ce1_0 Mg1_4 3.479473 1_455
Ce1_0 Mg0_0 3.499194 1_555
Ce1_0 Ce3_1 3.595147 1_554
Ce1_1 Ce2_5 3.098653 1_455
Ce1_1 Ce2_3 3.098653 1_545
Ce1_1 Ce1_7 3.207636 1_455
Ce1_1 Ce1_7 3.207636 1_545
Ce1_1 Mg0_5 3.355098 1_455
Ce1_1 Mg0_3 3.355098 1_545
Ce1_1 Mg1_3 3.479473 1_545
Ce1_1 Mg1_5 3.479473 1_455
Ce1_1 Mg0_1 3.499194 1_555
Ce1_1 Ce3_0 3.595147 1_555
Ce1_2 Ce2_0 3.098653 1_555
Ce1_2 Ce2_6 3.098653 1_455
Ce1_2 Ce1_4 3.207636 1_465
Ce1_2 Ce1_4 3.207636 1_555
Ce1_2 Mg0_0 3.355098 1_555
Ce1_2 Mg0_6 3.355098 1_455
Ce1_2 Mg1_6 3.479473 1_455
Ce1_2 Mg1_0 3.479473 1_555
Ce1_2 Mg0_2 3.499194 1_555
Ce1_2 Ce3_3 3.595147 1_554
Ce1_3 Ce2_7 3.098653 1_455
Ce1_3 Ce2_1 3.098653 1_555
Ce1_3 Ce1_5 3.207636 1_465
Ce1_3 Ce1_5 3.207636 1_555
Ce1_3 Mg0_1 3.355098 1_555
Ce1_3 Mg0_7 3.355098 1_455
Ce1_3 Mg1_1 3.479473 1_555
Ce1_3 Mg1_7 3.479473 1_455
Ce1_3 Mg0_3 3.499194 1_555
Ce1_3 Ce3_2 3.595147 1_555
Ce1_4 Ce2_0 3.098653 1_555
Ce1_4 Ce2_6 3.098653 1_545
Ce1_4 Mg0_0 3.355098 1_555
Ce1_4 Mg0_6 3.355098 1_545
Ce1_4 Mg1_6 3.479473 1_545
Ce1_4 Mg1_0 3.479473 1_555
Ce1_4 Mg0_4 3.499194 1_555
Ce1_4 Ce3_5 3.595147 1_554
Ce1_5 Ce2_7 3.098653 1_545
Ce1_5 Ce2_1 3.098653 1_555
Ce1_5 Mg0_1 3.355098 1_555
Ce1_5 Mg0_7 3.355098 1_545
Ce1_5 Mg1_1 3.479473 1_555
Ce1_5 Mg1_7 3.479473 1_545
Ce1_5 Mg0_5 3.499194 1_555
Ce1_5 Ce3_4 3.595147 1_555
Ce1_6 Ce2_4 3.098653 1_555
Ce1_6 Ce2_2 3.098653 1_555
Ce1_6 Mg0_4 3.355098 1_555
Ce1_6 Mg0_2 3.355098 1_555
Ce1_6 Mg1_2 3.479473 1_555
Ce1_6 Mg1_4 3.479473 1_555
Ce1_6 Mg0_6 3.499194 1_555
Ce1_6 Ce3_7 3.595147 1_554
Ce1_7 Ce2_5 3.098653 1_555
Ce1_7 Ce2_3 3.098653 1_555
Ce1_7 Mg0_5 3.355098 1_555
Ce1_7 Mg0_3 3.355098 1_555
Ce1_7 Mg1_5 3.479473 1_555
Ce1_7 Mg1_3 3.479473 1_555
Ce1_7 Mg0_7 3.499194 1_555
Ce1_7 Ce3_6 3.595147 1_555
Ce2_0 Ce3_2 3.117758 1_555
Ce2_0 Ce3_4 3.117758 1_555
Ce2_0 Ce2_6 3.207636 1_545
Ce2_0 Ce2_6 3.207636 1_455
Ce2_0 Mg1_0 3.414066 1_555
Ce2_0 Mg1_4 3.454030 1_455
Ce2_0 Mg1_2 3.454030 1_545
Ce2_0 Mg0_0 3.625086 1_555
Ce2_1 Ce3_3 3.117758 1_555
Ce2_1 Ce3_5 3.117758 1_555
Ce2_1 Ce2_7 3.207636 1_455
Ce2_1 Ce2_7 3.207636 1_545
Ce2_1 Mg1_1 3.414066 1_555
Ce2_1 Mg1_5 3.454030 1_455
Ce2_1 Mg1_3 3.454030 1_545
Ce2_1 Mg0_1 3.625086 1_555
Ce2_2 Ce3_6 3.117758 1_555
Ce2_2 Ce3_0 3.117758 1_565
Ce2_2 Ce2_4 3.207636 1_555
Ce2_2 Ce2_4 3.207636 1_465
Ce2_2 Mg1_2 3.414066 1_555
Ce2_2 Mg1_0 3.454030 1_555
Ce2_2 Mg1_6 3.454030 1_455
Ce2_2 Mg0_2 3.625086 1_555
Ce2_3 Ce3_7 3.117758 1_555
Ce2_3 Ce3_1 3.117758 1_565
Ce2_3 Ce2_5 3.207636 1_465
Ce2_3 Ce2_5 3.207636 1_555
Ce2_3 Mg1_3 3.414066 1_555
Ce2_3 Mg1_7 3.454030 1_455
Ce2_3 Mg1_1 3.454030 1_555
Ce2_3 Mg0_3 3.625086 1_555
Ce2_4 Ce3_6 3.117758 1_555
Ce2_4 Ce3_0 3.117758 1_655
Ce2_4 Mg1_4 3.414066 1_555
Ce2_4 Mg1_0 3.454030 1_555
Ce2_4 Mg1_6 3.454030 1_545
Ce2_4 Mg0_4 3.625086 1_555
Ce2_5 Ce3_1 3.117758 1_655
Ce2_5 Ce3_7 3.117758 1_555
Ce2_5 Mg1_5 3.414066 1_555
Ce2_5 Mg1_7 3.454030 1_545
Ce2_5 Mg1_1 3.454030 1_555
Ce2_5 Mg0_5 3.625086 1_555
Ce2_6 Ce3_2 3.117758 1_655
Ce2_6 Ce3_4 3.117758 1_565
Ce2_6 Mg1_6 3.414066 1_555
Ce2_6 Mg1_4 3.454030 1_555
Ce2_6 Mg1_2 3.454030 1_555
Ce2_6 Mg0_6 3.625086 1_555
Ce2_7 Ce3_3 3.117758 1_655
Ce2_7 Ce3_5 3.117758 1_565
Ce2_7 Mg1_7 3.414066 1_555
Ce2_7 Mg1_5 3.454030 1_555
Ce2_7 Mg1_3 3.454030 1_555
Ce2_7 Mg0_7 3.625086 1_555
Ce3_0 Ce3_6 3.207636 1_545
Ce3_0 Ce3_6 3.207636 1_455
Ce3_0 Mg1_2 3.342552 1_545
Ce3_0 Mg1_4 3.342552 1_455
Ce3_0 Mg0_5 3.491893 1_455
Ce3_0 Mg0_3 3.491893 1_545
Ce3_1 Ce3_7 3.207636 1_545
Ce3_1 Ce3_7 3.207636 1_455
Ce3_1 Mg1_3 3.342552 1_545
Ce3_1 Mg1_5 3.342552 1_455
Ce3_1 Mg0_2 3.491893 1_546
Ce3_1 Mg0_4 3.491893 1_456
Ce3_2 Ce3_4 3.207636 1_555
Ce3_2 Ce3_4 3.207636 1_465
Ce3_2 Mg1_6 3.342552 1_455
Ce3_2 Mg1_0 3.342552 1_555
Ce3_2 Mg0_1 3.491893 1_555
Ce3_2 Mg0_7 3.491893 1_455
Ce3_3 Ce3_5 3.207636 1_465
Ce3_3 Ce3_5 3.207636 1_555
Ce3_3 Mg1_1 3.342552 1_555
Ce3_3 Mg1_7 3.342552 1_455
Ce3_3 Mg0_0 3.491893 1_556
Ce3_3 Mg0_6 3.491893 1_456
Ce3_4 Mg1_6 3.342552 1_545
Ce3_4 Mg1_0 3.342552 1_555
Ce3_4 Mg0_1 3.491893 1_555
Ce3_4 Mg0_7 3.491893 1_545
Ce3_5 Mg1_1 3.342552 1_555
Ce3_5 Mg1_7 3.342552 1_545
Ce3_5 Mg0_0 3.491893 1_556
Ce3_5 Mg0_6 3.491893 1_546
Ce3_6 Mg1_2 3.342552 1_555
Ce3_6 Mg1_4 3.342552 1_555
Ce3_6 Mg0_5 3.491893 1_555
Ce3_6 Mg0_3 3.491893 1_555
Ce3_7 Mg1_5 3.342552 1_555
Ce3_7 Mg1_3 3.342552 1_555
Ce3_7 Mg0_4 3.491893 1_556
Ce3_7 Mg0_2 3.491893 1_556
Mg0_0 Mg1_4 3.068467 1_455
Mg0_0 Mg1_2 3.068467 1_545
Mg0_0 Mg0_6 3.207636 1_545
Mg0_0 Mg0_6 3.207636 1_455
Mg0_1 Mg1_3 3.068467 1_545
Mg0_1 Mg1_5 3.068467 1_455
Mg0_1 Mg0_7 3.207636 1_545
Mg0_1 Mg0_7 3.207636 1_455
Mg0_2 Mg1_0 3.068467 1_555
Mg0_2 Mg1_6 3.068467 1_455
Mg0_2 Mg0_4 3.207636 1_465
Mg0_2 Mg0_4 3.207636 1_555
Mg0_3 Mg1_1 3.068467 1_555
Mg0_3 Mg1_7 3.068467 1_455
Mg0_3 Mg0_5 3.207636 1_555
Mg0_3 Mg0_5 3.207636 1_465
Mg0_4 Mg1_0 3.068467 1_555
Mg0_4 Mg1_6 3.068467 1_545
Mg0_5 Mg1_7 3.068467 1_545
Mg0_5 Mg1_1 3.068467 1_555
Mg0_6 Mg1_4 3.068467 1_555
Mg0_6 Mg1_2 3.068467 1_555
Mg0_7 Mg1_5 3.068467 1_555
Mg0_7 Mg1_3 3.068467 1_555
Mg1_0 Mg1_6 3.207636 1_545
Mg1_0 Mg1_6 3.207636 1_455
Mg1_1 Mg1_7 3.207636 1_545
Mg1_1 Mg1_7 3.207636 1_455
Mg1_2 Mg1_4 3.207636 1_555
Mg1_2 Mg1_4 3.207636 1_465
Mg1_3 Mg1_5 3.207636 1_555
Mg1_3 Mg1_5 3.207636 1_465
