# generated using pymatgen
data_MgAg14(PbO3)6
_symmetry_space_group_name_H-M   'P 1'
_cell_length_a   9.11760860
_cell_length_b   9.02792589
_cell_length_c   9.01330508
_cell_angle_alpha   70.57858174
_cell_angle_beta   109.02823521
_cell_angle_gamma   109.06973319
_symmetry_Int_Tables_number   1
_chemical_formula_structural   MgAg14(PbO3)6
_chemical_formula_sum   'Mg1 Ag14 Pb6 O18'
_cell_volume   641.32835279
_cell_formula_units_Z   1
loop_
 _symmetry_equiv_pos_site_id
 _symmetry_equiv_pos_as_xyz
  1  'x, y, z'
loop_
 _atom_site_type_symbol
 _atom_site_label
 _atom_site_symmetry_multiplicity
 _atom_site_fract_x
 _atom_site_fract_y
 _atom_site_fract_z
 _atom_site_occupancy
  Mg  Mg0  1  0.73791898  0.58336917  0.92401757  1
  Ag  Ag0  1  0.83232412  0.16074414  0.64726186  1
  Ag  Ag1  1  0.17534835  0.30668607  0.84321429  1
  Ag  Ag2  1  0.65216673  0.86475648  0.82861310  1
  Ag  Ag3  1  0.49534394  0.01264821  0.48865048  1
  Ag  Ag4  1  0.06862453  0.91203668  0.92235688  1
  Ag  Ag5  1  0.25029895  0.74956309  0.73185545  1
  Ag  Ag6  1  0.42338667  0.59805730  0.59556777  1
  Ag  Ag7  1  0.58868918  0.40711684  0.41521328  1
  Ag  Ag8  1  0.73460257  0.25648587  0.24619078  1
  Ag  Ag9  1  0.93226117  0.08149452  0.08815443  1
  Ag  Ag10  1  0.02364894  0.50388632  0.49546951  1
  Ag  Ag11  1  0.83770489  0.67827028  0.19896853  1
  Ag  Ag12  1  0.17053134  0.84657349  0.32958712  1
  Ag  Ag13  1  0.46737478  0.47548663  0.03060865  1
  Pb  Pb0  1  0.49546046  0.16769011  0.83803084  1
  Pb  Pb1  1  0.88163423  0.45323578  0.79584460  1
  Pb  Pb2  1  0.16952733  0.16854146  0.49334636  1
  Pb  Pb3  1  0.82973151  0.83744776  0.50298649  1
  Pb  Pb4  1  0.16317151  0.50347055  0.17130954  1
  Pb  Pb5  1  0.49400478  0.84127052  0.16871063  1
  O  O0  1  0.75741105  0.18313575  0.83922987  1
  O  O1  1  0.53985019  0.43426696  0.83965494  1
  O  O2  1  0.90297594  0.11132981  0.47156878  1
  O  O3  1  0.22553076  0.13374496  0.76711043  1
  O  O4  1  0.82693766  0.78486371  0.77579716  1
  O  O5  1  0.46295195  0.89467942  0.89726171  1
  O  O6  1  0.15096590  0.50579664  0.90576078  1
  O  O7  1  0.43634846  0.18753516  0.56198013  1
  O  O8  1  0.83050054  0.56813881  0.52341694  1
  O  O9  1  0.52324718  0.10617227  0.10238009  1
  O  O10  1  0.20270390  0.43992717  0.44620466  1
  O  O11  1  0.89581696  0.50303993  0.12154764  1
  O  O12  1  0.55758435  0.82605311  0.43795539  1
  O  O13  1  0.13644929  0.23927903  0.22789920  1
  O  O14  1  0.76021894  0.86175913  0.22964552  1
  O  O15  1  0.43237328  0.56825185  0.20295098  1
  O  O16  1  0.10410869  0.90067398  0.51142663  1
  O  O17  1  0.22540698  0.77595505  0.15109600  1
loop_
_geom_bond_atom_site_label_1
_geom_bond_atom_site_label_2
_geom_bond_distance
_geom_bond_site_symmetry_2
Mg0 O1 1.961702 1_555
Mg0 O4 1.969445 1_555
Mg0 O11 1.980039 1_556
Mg0 Pb1 2.706931 1_555
Ag0 O2 2.108186 1_555
Ag0 O0 2.143519 1_555
Ag1 O3 2.121602 1_555
Ag1 O6 2.148303 1_555
Ag2 O5 2.131630 1_555
Ag2 O4 2.181757 1_555
Ag2 O0 2.740867 1_565
Ag3 O12 2.161995 1_545
Ag3 O7 2.167890 1_555
Ag4 O17 2.311856 1_556
Ag4 O4 2.318692 1_455
Ag4 O3 2.362744 1_565
Ag5 O16 2.289968 1_555
Ag5 O6 2.334431 1_555
Ag5 O5 2.335063 1_555
Ag6 O12 2.301110 1_555
Ag6 O1 2.343814 1_555
Ag6 O10 2.352399 1_555
Ag7 O7 2.294328 1_555
Ag7 O8 2.317701 1_555
Ag7 O15 2.352370 1_555
Ag8 O9 2.251094 1_555
Ag8 O11 2.377624 1_555
Ag8 O2 2.389840 1_555
Ag9 O13 2.238932 1_655
Ag9 O14 2.368731 1_545
Ag9 O0 2.381560 1_554
Ag10 O10 2.110685 1_555
Ag10 O8 2.134285 1_455
Ag11 O14 2.125171 1_555
Ag11 O11 2.189347 1_555
Ag11 O8 2.773747 1_555
Ag12 O17 2.158800 1_555
Ag12 O16 2.159729 1_555
Ag13 O15 2.139911 1_555
Ag13 O1 2.205819 1_554
O0 Pb1 2.287299 1_555
O0 Pb0 2.343158 1_555
O1 Pb0 2.310630 1_555
O2 Pb2 2.268885 1_655
O2 Pb3 2.284415 1_545
O3 Pb0 2.274028 1_555
O3 Pb2 2.283814 1_555
O4 Pb3 2.351377 1_555
O5 Pb5 2.269742 1_556
O5 Pb0 2.280015 1_565
O6 Pb1 2.280740 1_455
O6 Pb4 2.352860 1_556
O7 Pb2 2.268720 1_555
O7 Pb0 2.324991 1_555
O8 Pb1 2.279998 1_555
O8 Pb3 2.378600 1_555
O9 Pb0 2.206357 1_554
O9 Pb5 2.210046 1_545
O10 Pb2 2.276403 1_555
O10 Pb4 2.281576 1_555
O11 Pb4 2.329225 1_655
O12 Pb5 2.270947 1_555
O12 Pb3 2.331540 1_555
O13 Pb2 2.205071 1_555
O13 Pb4 2.213709 1_555
O14 Pb5 2.265449 1_555
O14 Pb3 2.287534 1_555
O15 Pb4 2.272511 1_555
O15 Pb5 2.277802 1_555
O16 Pb2 2.255928 1_565
O16 Pb3 2.358310 1_455
O17 Pb5 2.288117 1_555
O17 Pb4 2.294312 1_555
