# generated using pymatgen
data_CeY(GaPd2)2
_symmetry_space_group_name_H-M   'P 1'
_cell_length_a   5.70078700
_cell_length_b   7.13209100
_cell_length_c   7.45542700
_cell_angle_alpha   90.00000000
_cell_angle_beta   90.00000000
_cell_angle_gamma   90.00000000
_symmetry_Int_Tables_number   1
_chemical_formula_structural   CeY(GaPd2)2
_chemical_formula_sum   'Ce2 Y2 Ga4 Pd8'
_cell_volume   303.12671469
_cell_formula_units_Z   2
loop_
 _symmetry_equiv_pos_site_id
 _symmetry_equiv_pos_as_xyz
  1  'x, y, z'
loop_
 _atom_site_type_symbol
 _atom_site_label
 _atom_site_symmetry_multiplicity
 _atom_site_fract_x
 _atom_site_fract_y
 _atom_site_fract_z
 _atom_site_occupancy
  Ce  Ce0  1  0.89919900  0.50000000  0.53396600  1
  Ce  Ce1  1  0.10080100  0.50000000  0.03396600  1
  Y  Y0  1  0.59895800  0.00000000  0.46641200  1
  Y  Y1  1  0.40104200  0.00000000  0.96641200  1
  Ga  Ga0  1  0.59894300  0.50000000  0.88462700  1
  Ga  Ga1  1  0.40105700  0.50000000  0.38462700  1
  Ga  Ga2  1  0.89893900  0.00000000  0.11777900  1
  Ga  Ga3  1  0.10106100  0.00000000  0.61777900  1
  Pd  Pd0  1  0.33733100  0.69793700  0.68092100  1
  Pd  Pd1  1  0.66266900  0.30206300  0.18092100  1
  Pd  Pd2  1  0.16405500  0.19816800  0.31768700  1
  Pd  Pd3  1  0.83594500  0.80183200  0.81768700  1
  Pd  Pd4  1  0.16405500  0.80183200  0.31768700  1
  Pd  Pd5  1  0.83594500  0.19816800  0.81768700  1
  Pd  Pd6  1  0.33733100  0.30206300  0.68092100  1
  Pd  Pd7  1  0.66266900  0.69793700  0.18092100  1
loop_
_geom_bond_atom_site_label_1
_geom_bond_atom_site_label_2
_geom_bond_distance
_geom_bond_site_symmetry_2
Ce0 Pd3 3.039482 1_555
Ce0 Pd5 3.039482 1_555
Ce0 Ga1 3.050262 1_555
Ce0 Ga1 3.069995 1_655
Ce0 Pd0 3.071118 1_655
Ce0 Pd6 3.071118 1_655
Ce0 Pd4 3.084453 1_655
Ce0 Pd2 3.084453 1_655
Ce0 Ga0 3.124838 1_555
Ce0 Pd7 3.277052 1_555
Ce0 Pd1 3.277052 1_555
Ce1 Pd4 3.039482 1_555
Ce1 Pd2 3.039482 1_555
Ce1 Ga0 3.050262 1_554
Ce1 Ga0 3.069995 1_454
Ce1 Pd7 3.071118 1_455
Ce1 Pd1 3.071118 1_455
Ce1 Pd3 3.084453 1_454
Ce1 Pd5 3.084453 1_454
Ce1 Ga1 3.124838 1_555
Ce1 Pd0 3.277052 1_554
Ce1 Pd6 3.277052 1_554
Ga0 Pd0 2.554146 1_555
Ga0 Pd6 2.554146 1_555
Ga0 Pd3 2.590101 1_555
Ga0 Pd5 2.590101 1_555
Ga0 Pd7 2.646613 1_556
Ga0 Pd1 2.646613 1_556
Ga1 Pd7 2.554146 1_555
Ga1 Pd1 2.554146 1_555
Ga1 Pd4 2.590101 1_555
Ga1 Pd2 2.590101 1_555
Ga1 Pd0 2.646613 1_555
Ga1 Pd6 2.646613 1_555
Ga2 Pd2 2.550116 1_655
Ga2 Pd4 2.550116 1_645
Ga2 Pd1 2.583989 1_555
Ga2 Pd7 2.583989 1_545
Ga2 Pd5 2.670600 1_554
Ga2 Pd3 2.670600 1_544
Ga2 Y1 3.054516 1_554
Ga2 Y1 3.076810 1_654
Ga2 Y0 3.111337 1_555
Ga3 Pd5 2.550116 1_455
Ga3 Pd3 2.550116 1_445
Ga3 Pd6 2.583989 1_555
Ga3 Pd0 2.583989 1_545
Ga3 Pd2 2.670600 1_555
Ga3 Pd4 2.670600 1_545
Ga3 Y0 3.054516 1_555
Ga3 Y0 3.076810 1_455
Ga3 Y1 3.111337 1_555
Pd0 Y1 3.050153 1_565
Pd0 Y0 3.069742 1_565
Pd1 Y0 3.050153 1_555
Pd1 Y1 3.069742 1_554
Pd2 Y0 3.061682 1_555
Pd2 Y1 3.268251 1_554
Pd3 Y1 3.061682 1_565
Pd3 Y0 3.268251 1_565
Pd4 Y0 3.061682 1_565
Pd4 Y1 3.268251 1_564
Pd5 Y1 3.061682 1_555
Pd5 Y0 3.268251 1_555
Pd6 Y1 3.050153 1_555
Pd6 Y0 3.069742 1_555
Pd7 Y0 3.050153 1_565
Pd7 Y1 3.069742 1_564
