# generated using pymatgen
data_CaCu3(SbO3)4
_symmetry_space_group_name_H-M   'P 1'
_cell_length_a   6.77920529
_cell_length_b   6.77920529
_cell_length_c   6.77920529
_cell_angle_alpha   109.47122063
_cell_angle_beta   109.47122063
_cell_angle_gamma   109.47122063
_symmetry_Int_Tables_number   1
_chemical_formula_structural   CaCu3(SbO3)4
_chemical_formula_sum   'Ca1 Cu3 Sb4 O12'
_cell_volume   239.83605182
_cell_formula_units_Z   1
loop_
 _symmetry_equiv_pos_site_id
 _symmetry_equiv_pos_as_xyz
  1  'x, y, z'
loop_
 _atom_site_type_symbol
 _atom_site_label
 _atom_site_symmetry_multiplicity
 _atom_site_fract_x
 _atom_site_fract_y
 _atom_site_fract_z
 _atom_site_occupancy
  Ca  Ca0  1  0.00000000  0.00000000  0.00000000  1
  Cu  Cu0  1  0.50000000  0.50000000  0.00000000  1
  Cu  Cu1  1  0.50000000  0.00000000  0.50000000  1
  Cu  Cu2  1  0.00000000  0.50000000  0.50000000  1
  Sb  Sb0  1  0.50000000  0.50000000  0.50000000  1
  Sb  Sb1  1  0.00000000  0.50000000  0.00000000  1
  Sb  Sb2  1  0.00000000  0.00000000  0.50000000  1
  Sb  Sb3  1  0.50000000  0.00000000  0.00000000  1
  O  O0  1  0.30081900  0.82518100  0.12600000  1
  O  O1  1  0.69918100  0.17481900  0.87400000  1
  O  O2  1  0.69918100  0.82518100  0.52436200  1
  O  O3  1  0.87400000  0.69918100  0.17481900  1
  O  O4  1  0.82518100  0.12600000  0.30081900  1
  O  O5  1  0.17481900  0.47563800  0.30081900  1
  O  O6  1  0.47563800  0.30081900  0.17481900  1
  O  O7  1  0.17481900  0.87400000  0.69918100  1
  O  O8  1  0.30081900  0.17481900  0.47563800  1
  O  O9  1  0.12600000  0.30081900  0.82518100  1
  O  O10  1  0.82518100  0.52436200  0.69918100  1
  O  O11  1  0.52436200  0.69918100  0.82518100  1
loop_
_geom_bond_atom_site_label_1
_geom_bond_atom_site_label_2
_geom_bond_distance
_geom_bond_site_symmetry_2
Ca0 O8 2.723562 1_555
Ca0 O11 2.723562 1_444
Ca0 O5 2.723562 1_555
Ca0 O2 2.723562 1_444
Ca0 O6 2.723562 1_555
Ca0 O10 2.723562 1_444
Ca0 O4 2.723562 1_455
Ca0 O3 2.723562 1_445
Ca0 O9 2.723562 1_554
Ca0 O1 2.723562 1_454
Ca0 O0 2.723562 1_545
Ca0 O7 2.723562 1_544
Cu0 O3 2.074551 1_555
Cu0 O11 2.074551 1_554
Cu0 O6 2.074551 1_555
Cu0 O9 2.074551 1_554
Cu1 O0 2.074551 1_545
Cu1 O1 2.074551 1_555
Cu1 O2 2.074551 1_545
Cu1 O8 2.074551 1_555
Cu2 O4 2.074551 1_455
Cu2 O7 2.074551 1_555
Cu2 O10 2.074551 1_455
Cu2 O5 2.074551 1_555
O0 Sb1 2.081923 1_555
O0 Sb3 2.081923 1_565
O1 Sb3 2.081923 1_556
O1 Sb1 2.081923 1_656
O2 Sb0 2.081923 1_555
O2 Sb2 2.081923 1_665
O3 Sb1 2.081923 1_655
O3 Sb2 2.081923 1_665
O4 Sb3 2.081923 1_555
O4 Sb2 2.081923 1_655
O5 Sb1 2.081923 1_555
O5 Sb0 2.081923 1_555
O6 Sb3 2.081923 1_555
O6 Sb0 2.081923 1_555
O7 Sb2 2.081923 1_565
O7 Sb3 2.081923 1_566
O8 Sb2 2.081923 1_555
O8 Sb0 2.081923 1_555
O9 Sb2 2.081923 1_555
O9 Sb1 2.081923 1_556
O10 Sb0 2.081923 1_555
O10 Sb1 2.081923 1_656
O11 Sb0 2.081923 1_555
O11 Sb3 2.081923 1_566
