# generated using pymatgen
data_Ca2Bi2O5
_symmetry_space_group_name_H-M   'P 1'
_cell_length_a   4.43424600
_cell_length_b   6.53111000
_cell_length_c   10.27154000
_cell_angle_alpha   90.00000000
_cell_angle_beta   90.00000000
_cell_angle_gamma   90.00000000
_symmetry_Int_Tables_number   1
_chemical_formula_structural   Ca2Bi2O5
_chemical_formula_sum   'Ca4 Bi4 O10'
_cell_volume   297.46943124
_cell_formula_units_Z   2
loop_
 _symmetry_equiv_pos_site_id
 _symmetry_equiv_pos_as_xyz
  1  'x, y, z'
loop_
 _atom_site_type_symbol
 _atom_site_label
 _atom_site_symmetry_multiplicity
 _atom_site_fract_x
 _atom_site_fract_y
 _atom_site_fract_z
 _atom_site_occupancy
  Ca  Ca0  1  0.00000000  0.14830600  0.37103300  1
  Ca  Ca1  1  0.00000000  0.85169400  0.62896700  1
  Ca  Ca2  1  0.00000000  0.64830600  0.12896700  1
  Ca  Ca3  1  0.00000000  0.35169400  0.87103300  1
  Bi  Bi0  1  0.50000000  0.20598300  0.11128400  1
  Bi  Bi1  1  0.50000000  0.79401700  0.88871600  1
  Bi  Bi2  1  0.50000000  0.29401700  0.61128400  1
  Bi  Bi3  1  0.50000000  0.70598300  0.38871600  1
  O  O0  1  0.50000000  0.50000000  0.00000000  1
  O  O1  1  0.50000000  0.17586700  0.80526000  1
  O  O2  1  0.50000000  0.67586700  0.69474000  1
  O  O3  1  0.50000000  0.32413300  0.30526000  1
  O  O4  1  0.00000000  0.21223100  0.61067700  1
  O  O5  1  0.00000000  0.78776900  0.38932300  1
  O  O6  1  0.50000000  0.82413300  0.19474000  1
  O  O7  1  0.00000000  0.28776900  0.11067700  1
  O  O8  1  0.50000000  0.00000000  0.50000000  1
  O  O9  1  0.00000000  0.71223100  0.88932300  1
loop_
_geom_bond_atom_site_label_1
_geom_bond_atom_site_label_2
_geom_bond_distance
_geom_bond_site_symmetry_2
Ca0 O5 2.362189 1_545
Ca0 O4 2.496668 1_555
Ca0 O3 2.586649 1_455
Ca0 O3 2.586649 1_555
Ca0 O8 2.758374 1_455
Ca0 O8 2.758374 1_555
Ca0 O7 2.825119 1_555
Ca1 O4 2.362189 1_565
Ca1 O5 2.496668 1_555
Ca1 O2 2.586649 1_455
Ca1 O2 2.586649 1_555
Ca1 O8 2.758374 1_465
Ca1 O8 2.758374 1_565
Ca1 O9 2.825119 1_555
Ca2 O7 2.362189 1_555
Ca2 O9 2.496668 1_554
Ca2 O6 2.586649 1_455
Ca2 O6 2.586649 1_555
Ca2 O0 2.758374 1_455
Ca2 O0 2.758374 1_555
Ca2 O5 2.825119 1_555
Ca3 O9 2.362189 1_555
Ca3 O7 2.496668 1_556
Ca3 O1 2.586649 1_455
Ca3 O1 2.586649 1_555
Ca3 O0 2.758374 1_556
Ca3 O0 2.758374 1_456
Ca3 O4 2.825119 1_555
Bi0 O3 2.136640 1_555
Bi0 O0 2.234719 1_555
Bi0 O7 2.280569 1_655
Bi0 O7 2.280569 1_555
Bi0 O6 2.637117 1_545
Bi1 O2 2.136640 1_555
Bi1 O0 2.234719 1_556
Bi1 O9 2.280569 1_655
Bi1 O9 2.280569 1_555
Bi1 O1 2.637117 1_565
Bi2 O1 2.136640 1_555
Bi2 O8 2.234719 1_555
Bi2 O4 2.280569 1_655
Bi2 O4 2.280569 1_555
Bi2 O2 2.637117 1_555
Bi3 O6 2.136640 1_555
Bi3 O8 2.234719 1_565
Bi3 O5 2.280569 1_555
Bi3 O5 2.280569 1_655
Bi3 O3 2.637117 1_555
