# generated using pymatgen
data_MgSi2
_symmetry_space_group_name_H-M   'P 1'
_cell_length_a   3.49131500
_cell_length_b   5.38000800
_cell_length_c   11.03801600
_cell_angle_alpha   90.00000000
_cell_angle_beta   90.00000000
_cell_angle_gamma   90.00000000
_symmetry_Int_Tables_number   1
_chemical_formula_structural   MgSi2
_chemical_formula_sum   'Mg4 Si8'
_cell_volume   207.33039497
_cell_formula_units_Z   4
loop_
 _symmetry_equiv_pos_site_id
 _symmetry_equiv_pos_as_xyz
  1  'x, y, z'
loop_
 _atom_site_type_symbol
 _atom_site_label
 _atom_site_symmetry_multiplicity
 _atom_site_fract_x
 _atom_site_fract_y
 _atom_site_fract_z
 _atom_site_occupancy
  Mg  Mg0  1  0.75000000  0.77290400  0.06817700  1
  Mg  Mg1  1  0.25000000  0.22709600  0.93182300  1
  Mg  Mg2  1  0.25000000  0.72709600  0.56817700  1
  Mg  Mg3  1  0.75000000  0.27290400  0.43182300  1
  Si  Si0  1  0.25000000  0.72317000  0.86741900  1
  Si  Si1  1  0.75000000  0.27683000  0.13258100  1
  Si  Si2  1  0.75000000  0.77683000  0.36741900  1
  Si  Si3  1  0.75000000  0.95002600  0.75043000  1
  Si  Si4  1  0.25000000  0.04997400  0.24957000  1
  Si  Si5  1  0.75000000  0.45002600  0.74957000  1
  Si  Si6  1  0.25000000  0.22317000  0.63258100  1
  Si  Si7  1  0.25000000  0.54997400  0.25043000  1
loop_
_geom_bond_atom_site_label_1
_geom_bond_atom_site_label_2
_geom_bond_distance
_geom_bond_site_symmetry_2
Mg0 Si1 2.761938 1_555
Mg0 Si1 2.802779 1_565
Mg0 Si0 2.833626 1_554
Mg0 Si0 2.833626 1_654
Mg0 Si7 2.921092 1_555
Mg0 Si7 2.921092 1_655
Mg0 Si4 3.046015 1_565
Mg0 Si4 3.046015 1_665
Mg1 Si0 2.761938 1_555
Mg1 Si0 2.802779 1_545
Mg1 Si1 2.833626 1_556
Mg1 Si1 2.833626 1_456
Mg1 Si5 2.921092 1_555
Mg1 Si5 2.921092 1_455
Mg1 Si3 3.046015 1_545
Mg1 Si3 3.046015 1_445
Mg2 Si6 2.761938 1_565
Mg2 Si6 2.802779 1_555
Mg2 Si2 2.833626 1_455
Mg2 Si2 2.833626 1_555
Mg2 Si3 2.921092 1_455
Mg2 Si3 2.921092 1_555
Mg2 Si5 3.046015 1_555
Mg2 Si5 3.046015 1_455
Mg3 Si2 2.761938 1_545
Mg3 Si2 2.802779 1_555
Mg3 Si6 2.833626 1_555
Mg3 Si6 2.833626 1_655
Mg3 Si4 2.921092 1_655
Mg3 Si4 2.921092 1_555
Mg3 Si7 3.046015 1_655
Mg3 Si7 3.046015 1_555
Si0 Si3 2.490870 1_555
Si0 Si3 2.490870 1_455
Si0 Si5 2.626582 1_555
Si0 Si5 2.626582 1_455
Si1 Si4 2.490870 1_555
Si1 Si4 2.490870 1_655
Si1 Si7 2.626582 1_655
Si1 Si7 2.626582 1_555
Si2 Si7 2.490870 1_655
Si2 Si7 2.490870 1_555
Si2 Si4 2.626582 1_565
Si2 Si4 2.626582 1_665
Si3 Si6 2.626582 1_665
Si3 Si6 2.626582 1_565
Si3 Si5 2.690021 1_555
Si3 Si5 2.690021 1_565
Si4 Si7 2.690021 1_555
Si4 Si7 2.690021 1_545
Si5 Si6 2.490870 1_555
Si5 Si6 2.490870 1_655
