# generated using pymatgen
data_FeCoB2
_symmetry_space_group_name_H-M   'P 1'
_cell_length_a   3.00972800
_cell_length_b   3.95937000
_cell_length_c   5.28006500
_cell_angle_alpha   90.00000000
_cell_angle_beta   90.00000000
_cell_angle_gamma   90.00000000
_symmetry_Int_Tables_number   1
_chemical_formula_structural   FeCoB2
_chemical_formula_sum   'Fe2 Co2 B4'
_cell_volume   62.92056383
_cell_formula_units_Z   2
loop_
 _symmetry_equiv_pos_site_id
 _symmetry_equiv_pos_as_xyz
  1  'x, y, z'
loop_
 _atom_site_type_symbol
 _atom_site_label
 _atom_site_symmetry_multiplicity
 _atom_site_fract_x
 _atom_site_fract_y
 _atom_site_fract_z
 _atom_site_occupancy
  Fe  Fe0  1  0.50000000  0.37764200  0.32234800  1
  Fe  Fe1  1  0.50000000  0.62235800  0.82234800  1
  Co  Co0  1  0.00000000  0.12834900  0.67801500  1
  Co  Co1  1  0.00000000  0.87165100  0.17801500  1
  B  B0  1  0.00000000  0.63462100  0.53451000  1
  B  B1  1  0.00000000  0.36537900  0.03451000  1
  B  B2  1  0.50000000  0.87638500  0.46512700  1
  B  B3  1  0.50000000  0.12361500  0.96512700  1
loop_
_geom_bond_atom_site_label_1
_geom_bond_atom_site_label_2
_geom_bond_distance
_geom_bond_site_symmetry_2
B0 B2 1.820747 1_455
B0 B2 1.820747 1_555
B0 Co0 2.096564 1_565
B0 Co1 2.103302 1_555
B0 Fe0 2.134194 1_555
B0 Fe0 2.134194 1_455
B0 Fe1 2.139340 1_455
B0 Fe1 2.139340 1_555
B0 Co0 2.142948 1_555
B1 B3 1.820747 1_454
B1 B3 1.820747 1_554
B1 Co1 2.096564 1_545
B1 Co0 2.103302 1_554
B1 Fe1 2.134194 1_454
B1 Fe1 2.134194 1_554
B1 Fe0 2.139340 1_555
B1 Fe0 2.139340 1_455
B1 Co1 2.142948 1_555
B2 Fe0 2.113720 1_555
B2 Fe0 2.123022 1_565
B2 Co0 2.126823 1_565
B2 Co0 2.126823 1_665
B2 Co1 2.136149 1_555
B2 Co1 2.136149 1_655
B2 Fe1 2.137562 1_555
B3 Fe1 2.113720 1_555
B3 Fe1 2.123022 1_545
B3 Co1 2.126823 1_646
B3 Co1 2.126823 1_546
B3 Co0 2.136149 1_555
B3 Co0 2.136149 1_655
B3 Fe0 2.137562 1_556
