# generated using pymatgen
data_Hf3ScSi4
_symmetry_space_group_name_H-M   'P 1'
_cell_length_a   3.72422672
_cell_length_b   5.26087766
_cell_length_c   6.98938064
_cell_angle_alpha   89.65440005
_cell_angle_beta   90.00000000
_cell_angle_gamma   90.00000000
_symmetry_Int_Tables_number   1
_chemical_formula_structural   Hf3ScSi4
_chemical_formula_sum   'Hf3 Sc1 Si4'
_cell_volume   136.93835504
_cell_formula_units_Z   1
loop_
 _symmetry_equiv_pos_site_id
 _symmetry_equiv_pos_as_xyz
  1  'x, y, z'
loop_
 _atom_site_type_symbol
 _atom_site_label
 _atom_site_symmetry_multiplicity
 _atom_site_fract_x
 _atom_site_fract_y
 _atom_site_fract_z
 _atom_site_occupancy
  Hf  Hf0  1  0.00000000  0.87902752  0.82299297  1
  Hf  Hf1  1  0.50000000  0.37414221  0.67975852  1
  Hf  Hf2  1  0.50000000  0.12341889  0.17429203  1
  Sc  Sc0  1  -0.00000000  0.62461228  0.32393255  1
  Si  Si0  1  -0.00000000  0.13931796  0.45865551  1
  Si  Si1  1  0.00000000  0.36134427  0.95752943  1
  Si  Si2  1  0.50000000  0.86020709  0.54184345  1
  Si  Si3  1  0.50000000  0.63792878  0.04099654  1
loop_
_geom_bond_atom_site_label_1
_geom_bond_atom_site_label_2
_geom_bond_distance
_geom_bond_site_symmetry_2
Hf0 Si2 2.709443 1_555
Hf0 Si2 2.709443 1_455
Hf0 Si1 2.711355 1_565
Hf0 Si3 2.715632 1_556
Hf0 Si3 2.715632 1_456
Hf0 Si1 2.875865 1_555
Hf0 Si0 2.884042 1_565
Hf1 Si1 2.690657 1_655
Hf1 Si1 2.690657 1_555
Hf1 Si0 2.721184 1_555
Hf1 Si0 2.721184 1_655
Hf1 Si2 2.727334 1_555
Hf1 Si2 2.875915 1_545
Hf1 Si3 2.888405 1_556
Hf2 Si1 2.703085 1_654
Hf2 Si1 2.703085 1_554
Hf2 Si3 2.723992 1_545
Hf2 Si0 2.725201 1_655
Hf2 Si0 2.725201 1_555
Hf2 Si3 2.857303 1_555
Hf2 Si2 2.911029 1_545
Sc0 Si2 2.710380 1_455
Sc0 Si2 2.710380 1_555
Sc0 Si0 2.715852 1_555
Sc0 Si3 2.716873 1_455
Sc0 Si3 2.716873 1_555
Sc0 Si0 2.872216 1_565
Sc0 Si1 2.918808 1_554
Si0 Si2 2.439536 1_445
Si0 Si2 2.439536 1_545
Si1 Si3 2.436246 1_456
Si1 Si3 2.436246 1_556
