# generated using pymatgen
data_Ho(AsO)2
_symmetry_space_group_name_H-M   'P 1'
_cell_length_a   10.23448701
_cell_length_b   10.23448701
_cell_length_c   10.23448701
_cell_angle_alpha   115.82456734
_cell_angle_beta   115.82456734
_cell_angle_gamma   97.39827858
_symmetry_Int_Tables_number   1
_chemical_formula_structural   Ho(AsO)2
_chemical_formula_sum   'Ho4 As8 O8'
_cell_volume   798.64640295
_cell_formula_units_Z   4
loop_
 _symmetry_equiv_pos_site_id
 _symmetry_equiv_pos_as_xyz
  1  'x, y, z'
loop_
 _atom_site_type_symbol
 _atom_site_label
 _atom_site_symmetry_multiplicity
 _atom_site_fract_x
 _atom_site_fract_y
 _atom_site_fract_z
 _atom_site_occupancy
  Ho  Ho0  1  0.87500000  0.12500000  0.75000000  1
  Ho  Ho1  1  0.37500000  0.12500000  0.25000000  1
  Ho  Ho2  1  0.87500000  0.62500000  0.75000000  1
  Ho  Ho3  1  0.87500000  0.12500000  0.25000000  1
  As  As0  1  0.77128900  0.38945500  0.38183400  1
  As  As1  1  0.00762000  0.38945500  0.61816600  1
  As  As2  1  0.13945500  0.25762000  0.11816600  1
  As  As3  1  0.74238000  0.86054500  0.88183400  1
  As  As4  1  0.97871100  0.86054500  0.11816600  1
  As  As5  1  0.13945500  0.02128900  0.88183400  1
  As  As6  1  0.61054500  0.99238000  0.38183400  1
  As  As7  1  0.61054500  0.22871100  0.61816600  1
  O  O0  1  0.57468200  0.27627200  0.29841000  1
  O  O1  1  0.97786200  0.27627200  0.70159000  1
  O  O2  1  0.02627200  0.22786200  0.20159000  1
  O  O3  1  0.77213800  0.97372800  0.79841000  1
  O  O4  1  0.17531800  0.97372800  0.20159000  1
  O  O5  1  0.02627200  0.82468200  0.79841000  1
  O  O6  1  0.72372800  0.02213800  0.29841000  1
  O  O7  1  0.72372800  0.42531800  0.70159000  1
loop_
_geom_bond_atom_site_label_1
_geom_bond_atom_site_label_2
_geom_bond_distance
_geom_bond_site_symmetry_2
Ho0 O3 2.110355 1_545
Ho0 O1 2.110355 1_555
Ho1 O4 2.110355 1_545
Ho1 O0 2.110355 1_555
Ho2 O7 2.110355 1_555
Ho2 O5 2.110355 1_655
Ho3 O6 2.110355 1_555
Ho3 O2 2.110355 1_655
As0 O0 1.777899 1_555
As1 O1 1.777896 1_455
As2 O2 1.777896 1_555
As3 O3 1.777896 1_555
As4 O4 1.777899 1_655
As5 O5 1.777899 1_545
As6 O6 1.777896 1_565
As7 O7 1.777899 1_555
