# generated using pymatgen
data_LiHoS2
_symmetry_space_group_name_H-M   'P 1'
_cell_length_a   3.90020600
_cell_length_b   3.90020600
_cell_length_c   5.30369500
_cell_angle_alpha   90.00000000
_cell_angle_beta   90.00000000
_cell_angle_gamma   90.00000000
_symmetry_Int_Tables_number   1
_chemical_formula_structural   LiHoS2
_chemical_formula_sum   'Li1 Ho1 S2'
_cell_volume   80.67772315
_cell_formula_units_Z   1
loop_
 _symmetry_equiv_pos_site_id
 _symmetry_equiv_pos_as_xyz
  1  'x, y, z'
loop_
 _atom_site_type_symbol
 _atom_site_label
 _atom_site_symmetry_multiplicity
 _atom_site_fract_x
 _atom_site_fract_y
 _atom_site_fract_z
 _atom_site_occupancy
  Li  Li0  1  0.00000000  0.00000000  0.00000000  1
  Ho  Ho0  1  0.50000000  0.50000000  0.50000000  1
  S  S0  1  0.00000000  0.00000000  0.50000000  1
  S  S1  1  0.50000000  0.50000000  0.00000000  1
loop_
_geom_bond_atom_site_label_1
_geom_bond_atom_site_label_2
_geom_bond_distance
_geom_bond_site_symmetry_2
Li0 S0 2.651848 1_555
Li0 S0 2.651848 1_554
Li0 S1 2.757862 1_555
Li0 S1 2.757862 1_545
Li0 S1 2.757862 1_445
Li0 S1 2.757862 1_455
Ho0 S1 2.651848 1_556
Ho0 S1 2.651848 1_555
Ho0 S0 2.757862 1_555
Ho0 S0 2.757862 1_655
Ho0 S0 2.757862 1_565
Ho0 S0 2.757862 1_665
