# generated using pymatgen
data_LaMg2Cr3S8
_symmetry_space_group_name_H-M   'P 1'
_cell_length_a   7.56802705
_cell_length_b   7.56523434
_cell_length_c   7.56810566
_cell_angle_alpha   58.28657954
_cell_angle_beta   58.34694051
_cell_angle_gamma   58.28700373
_symmetry_Int_Tables_number   1
_chemical_formula_structural   LaMg2Cr3S8
_chemical_formula_sum   'La1 Mg2 Cr3 S8'
_cell_volume   294.51156686
_cell_formula_units_Z   1
loop_
 _symmetry_equiv_pos_site_id
 _symmetry_equiv_pos_as_xyz
  1  'x, y, z'
loop_
 _atom_site_type_symbol
 _atom_site_label
 _atom_site_symmetry_multiplicity
 _atom_site_fract_x
 _atom_site_fract_y
 _atom_site_fract_z
 _atom_site_occupancy
  La  La0  1  0.50001000  0.50004200  0.49996000  1
  Mg  Mg0  1  0.87607900  0.87571800  0.87609400  1
  Mg  Mg1  1  0.12388800  0.12429200  0.12389200  1
  Cr  Cr0  1  0.50000100  0.49997900  0.00000000  1
  Cr  Cr1  1  0.00000700  0.49997900  0.49999700  1
  Cr  Cr2  1  0.50000300  0.99998000  0.50001200  1
  S  S0  1  0.73682600  0.73678900  0.73683800  1
  S  S1  1  0.23783000  0.23777600  0.72231800  1
  S  S2  1  0.23779300  0.72203700  0.23778300  1
  S  S3  1  0.72232000  0.23776200  0.23782800  1
  S  S4  1  0.76219400  0.27798700  0.76220000  1
  S  S5  1  0.27768600  0.76221300  0.76219300  1
  S  S6  1  0.26317400  0.26319500  0.26319000  1
  S  S7  1  0.76219400  0.76224600  0.27769600  1
loop_
_geom_bond_atom_site_label_1
_geom_bond_atom_site_label_2
_geom_bond_distance
_geom_bond_site_symmetry_2
La0 S2 2.796602 1_555
La0 S4 2.796710 1_555
La0 S7 2.797918 1_555
La0 S5 2.797980 1_555
La0 S3 2.798041 1_555
La0 S1 2.798152 1_555
Mg0 S5 2.450054 1_655
Mg0 S7 2.450084 1_556
Mg0 S4 2.451846 1_565
Mg0 S0 2.611665 1_555
Mg1 S3 2.449798 1_455
Mg1 S1 2.449840 1_554
Mg1 S2 2.451739 1_545
Mg1 S6 2.611972 1_555
Cr0 S5 2.433256 1_554
Cr0 S3 2.433375 1_555
Cr0 S4 2.433684 1_554
Cr0 S2 2.433929 1_555
Cr0 S6 2.503191 1_555
Cr0 S0 2.503304 1_554
Cr1 S7 2.433233 1_455
Cr1 S1 2.433352 1_555
Cr1 S4 2.433727 1_455
Cr1 S2 2.433919 1_555
Cr1 S6 2.503110 1_555
Cr1 S0 2.503421 1_455
Cr2 S7 2.434811 1_555
Cr2 S5 2.434952 1_555
Cr2 S3 2.435030 1_565
Cr2 S1 2.435069 1_565
Cr2 S0 2.501399 1_555
Cr2 S6 2.501417 1_565
