# generated using pymatgen
data_Fe4Co(BiO3)5
_symmetry_space_group_name_H-M   'P 1'
_cell_length_a   5.60431200
_cell_length_b   9.85545295
_cell_length_c   12.52785114
_cell_angle_alpha   98.16978014
_cell_angle_beta   102.74796207
_cell_angle_gamma   106.23672260
_symmetry_Int_Tables_number   1
_chemical_formula_structural   Fe4Co(BiO3)5
_chemical_formula_sum   'Fe8 Co2 Bi10 O30'
_cell_volume   632.44422671
_cell_formula_units_Z   2
loop_
 _symmetry_equiv_pos_site_id
 _symmetry_equiv_pos_as_xyz
  1  'x, y, z'
loop_
 _atom_site_type_symbol
 _atom_site_label
 _atom_site_symmetry_multiplicity
 _atom_site_fract_x
 _atom_site_fract_y
 _atom_site_fract_z
 _atom_site_occupancy
  Fe  Fe0  1  0.36740200  0.18917300  0.54371400  1
  Fe  Fe1  1  0.76332300  0.78760700  0.74400800  1
  Fe  Fe2  1  0.16513500  0.38860900  0.94544400  1
  Fe  Fe3  1  0.66281100  0.88623800  0.44251400  1
  Fe  Fe4  1  0.06361500  0.48914500  0.64261100  1
  Fe  Fe5  1  0.46595400  0.08785600  0.84526500  1
  Fe  Fe6  1  0.86623000  0.68847600  0.04642800  1
  Fe  Fe7  1  0.27099500  0.29041000  0.24484900  1
  Co  Co0  1  0.56805600  0.99579000  0.14486800  1
  Co  Co1  1  0.97148100  0.59934200  0.34265300  1
  Bi  Bi0  1  0.09486600  0.90012000  0.29688500  1
  Bi  Bi1  1  0.49955800  0.50246900  0.49681000  1
  Bi  Bi2  1  0.90073700  0.09917200  0.69995900  1
  Bi  Bi3  1  0.29913400  0.70183100  0.90304900  1
  Bi  Bi4  1  0.70869900  0.30291800  0.10404000  1
  Bi  Bi5  1  0.00155000  0.00056700  0.00406400  1
  Bi  Bi6  1  0.40132000  0.60098700  0.20315900  1
  Bi  Bi7  1  0.80127400  0.19955200  0.39942900  1
  Bi  Bi8  1  0.19734300  0.79757000  0.59607100  1
  Bi  Bi9  1  0.59944200  0.39999300  0.79939700  1
  O  O0  1  0.39223000  0.67637400  0.71584500  1
  O  O1  1  0.79453000  0.27757100  0.91993000  1
  O  O2  1  0.18775900  0.87444400  0.11767400  1
  O  O3  1  0.60961100  0.47739500  0.31835800  1
  O  O4  1  0.99692900  0.07213700  0.51523300  1
  O  O5  1  0.90259500  0.76468200  0.89871100  1
  O  O6  1  0.30827500  0.36576700  0.10042400  1
  O  O7  1  0.70410300  0.96235300  0.29421500  1
  O  O8  1  0.10585100  0.56755000  0.49278200  1
  O  O9  1  0.50970700  0.16689200  0.69825700  1
  O  O10  1  0.67369500  0.84731500  0.06201800  1
  O  O11  1  0.08052900  0.45099400  0.26093600  1
  O  O12  1  0.47805100  0.04432900  0.45490400  1
  O  O13  1  0.87400800  0.64548400  0.65485700  1
  O  O14  1  0.27704500  0.24564300  0.85769400  1
  O  O15  1  0.05487200  0.46758700  0.79817200  1
  O  O16  1  0.46142400  0.06460100  0.00085700  1
  O  O17  1  0.86106600  0.66156500  0.20130500  1
  O  O18  1  0.26053100  0.26642700  0.39737200  1
  O  O19  1  0.65598000  0.86567900  0.59678700  1
  O  O20  1  0.09797400  0.57627200  0.01932600  1
  O  O21  1  0.49802900  0.17010900  0.21744500  1
  O  O22  1  0.89068400  0.76817100  0.41442000  1
  O  O23  1  0.29644900  0.37642600  0.61638700  1
  O  O24  1  0.69910000  0.97716900  0.81766400  1
  O  O25  1  0.52601600  0.54660600  0.95861400  1
  O  O26  1  0.93464200  0.14928300  0.15849200  1
  O  O27  1  0.31730600  0.74096400  0.35880200  1
  O  O28  1  0.72659500  0.34483100  0.55548300  1
  O  O29  1  0.12749000  0.94555400  0.75781600  1
loop_
_geom_bond_atom_site_label_1
_geom_bond_atom_site_label_2
_geom_bond_distance
_geom_bond_site_symmetry_2
Fe0 O9 1.992495 1_555
Fe0 O4 1.996349 1_455
Fe0 O12 2.002071 1_555
Fe0 O18 2.113462 1_555
Fe0 O23 2.117867 1_555
Fe0 O28 2.122551 1_555
Fe1 O13 1.985227 1_555
Fe1 O0 1.985644 1_555
Fe1 O5 1.992974 1_555
Fe1 O24 2.122240 1_555
Fe1 O19 2.127938 1_555
Fe1 O29 2.146954 1_655
Fe2 O14 1.986289 1_555
Fe2 O1 1.987500 1_455
Fe2 O6 2.000430 1_556
Fe2 O20 2.115547 1_556
Fe2 O25 2.135636 1_555
Fe2 O15 2.136752 1_555
Fe3 O19 1.979267 1_555
Fe3 O22 2.005423 1_555
Fe3 O27 2.006439 1_555
Fe3 O12 2.104323 1_565
Fe3 O4 2.132412 1_565
Fe3 O7 2.134646 1_555
Fe4 O28 1.982024 1_455
Fe4 O23 1.985147 1_555
Fe4 O15 1.999885 1_555
Fe4 O13 2.108809 1_455
Fe4 O0 2.123938 1_555
Fe4 O8 2.163887 1_555
Fe5 O24 1.976384 1_545
Fe5 O29 1.980838 1_545
Fe5 O16 1.999560 1_556
Fe5 O14 2.118470 1_555
Fe5 O9 2.135162 1_555
Fe5 O1 2.139893 1_555
Fe6 O20 1.978878 1_655
Fe6 O25 1.986682 1_554
Fe6 O17 2.000649 1_555
Fe6 O2 2.093138 1_655
Fe6 O5 2.122759 1_554
Fe6 O10 2.145627 1_555
Fe7 O26 1.965818 1_455
Fe7 O18 1.969891 1_555
Fe7 O21 2.015733 1_555
Fe7 O6 2.081078 1_555
Fe7 O11 2.152610 1_555
Fe7 O3 2.153166 1_555
Co0 O7 1.968940 1_555
Co0 O10 1.973070 1_555
Co0 O21 2.005688 1_565
Co0 O16 2.042188 1_565
Co0 O2 2.056001 1_555
Co0 O26 2.138280 1_565
Co1 O8 1.969013 1_655
Co1 O11 1.977236 1_655
Co1 O3 1.977521 1_555
Co1 O17 1.982903 1_555
Co1 O22 1.989405 1_555
Co1 O27 1.994814 1_655
Bi0 O17 2.337292 1_455
Bi0 O22 2.371566 1_455
Bi0 O27 2.372478 1_555
Bi0 O2 2.409085 1_555
Bi0 O7 2.428546 1_455
Bi0 O12 2.483546 1_565
Bi1 O18 2.335649 1_555
Bi1 O23 2.360854 1_555
Bi1 O28 2.364351 1_555
Bi1 O3 2.444630 1_555
Bi1 O13 2.455577 1_555
Bi1 O8 2.456394 1_555
Bi2 O24 2.318759 1_545
Bi2 O29 2.326733 1_645
Bi2 O19 2.335516 1_545
Bi2 O9 2.459612 1_555
Bi2 O14 2.466573 1_655
Bi2 O4 2.484529 1_555
Bi3 O20 2.319727 1_556
Bi3 O25 2.332695 1_555
Bi3 O15 2.346629 1_555
Bi3 O5 2.459968 1_455
Bi3 O10 2.467556 1_556
Bi3 O0 2.506272 1_555
Bi4 O26 2.312121 1_555
Bi4 O21 2.351641 1_555
Bi4 O16 2.373663 1_555
Bi4 O1 2.450882 1_554
Bi4 O11 2.451959 1_655
Bi4 O6 2.482363 1_555
Bi5 O2 2.287476 1_545
Bi5 O10 2.352210 1_445
Bi5 O5 2.353290 1_444
Bi5 O26 2.419347 1_455
Bi5 O16 2.487086 1_555
Bi5 O24 2.502183 1_444
Bi6 O11 2.309436 1_555
Bi6 O3 2.341021 1_555
Bi6 O6 2.341428 1_555
Bi6 O27 2.435304 1_555
Bi6 O20 2.476800 1_555
Bi6 O17 2.483097 1_555
Bi7 O12 2.326521 1_555
Bi7 O4 2.338732 1_555
Bi7 O7 2.365241 1_545
Bi7 O28 2.438839 1_555
Bi7 O21 2.448771 1_555
Bi7 O18 2.478926 1_655
Bi8 O8 2.302138 1_555
Bi8 O0 2.320946 1_555
Bi8 O13 2.335902 1_455
Bi8 O22 2.454480 1_455
Bi8 O19 2.465889 1_555
Bi8 O29 2.493136 1_555
Bi9 O9 2.319792 1_555
Bi9 O1 2.336260 1_555
Bi9 O14 2.339466 1_555
Bi9 O15 2.455193 1_655
Bi9 O23 2.470604 1_555
Bi9 O25 2.472124 1_555
