# generated using pymatgen
data_Hf5Ir3
_symmetry_space_group_name_H-M   'P 1'
_cell_length_a   7.91528023
_cell_length_b   7.91524671
_cell_length_c   5.51179974
_cell_angle_alpha   90.00000000
_cell_angle_beta   90.00000000
_cell_angle_gamma   119.99985748
_symmetry_Int_Tables_number   1
_chemical_formula_structural   Hf5Ir3
_chemical_formula_sum   'Hf10 Ir6'
_cell_volume   299.05800808
_cell_formula_units_Z   2
loop_
 _symmetry_equiv_pos_site_id
 _symmetry_equiv_pos_as_xyz
  1  'x, y, z'
loop_
 _atom_site_type_symbol
 _atom_site_label
 _atom_site_symmetry_multiplicity
 _atom_site_fract_x
 _atom_site_fract_y
 _atom_site_fract_z
 _atom_site_occupancy
  Hf  Hf0  1  0.66664778  0.33332746  -0.00000001  1
  Hf  Hf1  1  0.33335222  0.66667254  0.00000001  1
  Hf  Hf2  1  0.33335222  0.66667254  0.49999999  1
  Hf  Hf3  1  0.66664778  0.33332746  0.50000001  1
  Hf  Hf4  1  0.75912976  0.75914073  0.75000000  1
  Hf  Hf5  1  0.24086682  0.00001418  0.75000000  1
  Hf  Hf6  1  0.00000321  0.24084690  0.75000000  1
  Hf  Hf7  1  0.24087024  0.24085927  0.25000000  1
  Hf  Hf8  1  0.75913318  -0.00001418  0.25000000  1
  Hf  Hf9  1  -0.00000321  0.75915310  0.25000000  1
  Ir  Ir0  1  0.39974657  0.39974184  0.75000000  1
  Ir  Ir1  1  0.60025383  -0.00000614  0.75000000  1
  Ir  Ir2  1  -0.00000142  0.60026296  0.75000000  1
  Ir  Ir3  1  0.60025343  0.60025816  0.25000000  1
  Ir  Ir4  1  0.39974617  0.00000614  0.25000000  1
  Ir  Ir5  1  0.00000142  0.39973704  0.25000000  1
loop_
_geom_bond_atom_site_label_1
_geom_bond_atom_site_label_2
_geom_bond_distance
_geom_bond_site_symmetry_2
Hf0 Ir0 2.783652 1_554
Hf0 Ir4 2.783679 1_555
Hf0 Ir3 2.783755 1_555
Hf0 Ir1 2.783814 1_554
Hf0 Ir2 2.783892 1_654
Hf0 Ir5 2.783924 1_655
Hf1 Ir3 2.783652 1_555
Hf1 Ir1 2.783679 1_564
Hf1 Ir0 2.783755 1_554
Hf1 Ir4 2.783814 1_565
Hf1 Ir5 2.783892 1_555
Hf1 Ir2 2.783924 1_554
Hf2 Ir3 2.783652 1_555
Hf2 Ir1 2.783679 1_565
Hf2 Ir0 2.783755 1_555
Hf2 Ir4 2.783814 1_565
Hf2 Ir5 2.783892 1_555
Hf2 Ir2 2.783924 1_555
Hf3 Ir0 2.783652 1_555
Hf3 Ir4 2.783679 1_555
Hf3 Ir3 2.783755 1_555
Hf3 Ir1 2.783814 1_555
Hf3 Ir2 2.783892 1_655
Hf3 Ir5 2.783924 1_655
Hf4 Ir1 2.759207 1_565
Hf4 Ir2 2.759336 1_655
Hf4 Ir0 2.844681 1_555
Hf4 Ir3 3.029271 1_556
Hf4 Ir3 3.029271 1_555
Hf5 Ir0 2.759194 1_555
Hf5 Ir2 2.759365 1_545
Hf5 Ir1 2.844729 1_555
Hf5 Ir4 3.029283 1_555
Hf5 Ir4 3.029283 1_556
Hf6 Ir0 2.759307 1_555
Hf6 Ir1 2.759349 1_455
Hf6 Ir2 2.844885 1_555
Hf6 Ir5 3.029306 1_556
Hf6 Ir5 3.029306 1_555
Hf7 Ir4 2.759207 1_555
Hf7 Ir5 2.759336 1_555
Hf7 Ir3 2.844681 1_555
Hf7 Ir0 3.029271 1_554
Hf7 Ir0 3.029271 1_555
Hf8 Ir3 2.759194 1_545
Hf8 Ir5 2.759365 1_655
Hf8 Ir4 2.844729 1_555
Hf8 Ir1 3.029283 1_555
Hf8 Ir1 3.029283 1_554
Hf9 Ir3 2.759307 1_455
Hf9 Ir4 2.759349 1_565
Hf9 Ir5 2.844885 1_555
Hf9 Ir2 3.029306 1_555
Hf9 Ir2 3.029306 1_554
