# generated using pymatgen
data_SrMg14CoO16
_symmetry_space_group_name_H-M   'P 1'
_cell_length_a   8.66134842
_cell_length_b   8.66134842
_cell_length_c   4.37757826
_cell_angle_alpha   90.00000000
_cell_angle_beta   90.00000000
_cell_angle_gamma   90.00000000
_symmetry_Int_Tables_number   1
_chemical_formula_structural   SrMg14CoO16
_chemical_formula_sum   'Sr1 Mg14 Co1 O16'
_cell_volume   328.40135285
_cell_formula_units_Z   1
loop_
 _symmetry_equiv_pos_site_id
 _symmetry_equiv_pos_as_xyz
  1  'x, y, z'
loop_
 _atom_site_type_symbol
 _atom_site_label
 _atom_site_symmetry_multiplicity
 _atom_site_fract_x
 _atom_site_fract_y
 _atom_site_fract_z
 _atom_site_occupancy
  Sr  Sr0  1  0.50000000  0.50000000  0.00000000  1
  Mg  Mg0  1  0.00000000  0.50000000  0.00000000  1
  Mg  Mg1  1  0.50000000  0.00000000  0.00000000  1
  Mg  Mg2  1  0.00000000  0.24882023  0.50000000  1
  Mg  Mg3  1  0.00000000  0.75117977  0.50000000  1
  Mg  Mg4  1  0.50000000  0.24021769  0.50000000  1
  Mg  Mg5  1  0.50000000  0.75978231  0.50000000  1
  Mg  Mg6  1  0.24882023  0.00000000  0.50000000  1
  Mg  Mg7  1  0.24021769  0.50000000  0.50000000  1
  Mg  Mg8  1  0.75117977  0.00000000  0.50000000  1
  Mg  Mg9  1  0.75978231  0.50000000  0.50000000  1
  Mg  Mg10  1  0.24358880  0.24358880  0.00000000  1
  Mg  Mg11  1  0.24358880  0.75641120  0.00000000  1
  Mg  Mg12  1  0.75641120  0.24358880  0.00000000  1
  Mg  Mg13  1  0.75641120  0.75641120  0.00000000  1
  Co  Co0  1  0.00000000  0.00000000  0.00000000  1
  O  O0  1  0.24848494  0.00000000  0.00000000  1
  O  O1  1  0.22851048  0.50000000  0.00000000  1
  O  O2  1  0.75151506  0.00000000  0.00000000  1
  O  O3  1  0.77148952  0.50000000  0.00000000  1
  O  O4  1  0.24921065  0.24921065  0.50000000  1
  O  O5  1  0.24921065  0.75078935  0.50000000  1
  O  O6  1  0.75078935  0.24921065  0.50000000  1
  O  O7  1  0.75078935  0.75078935  0.50000000  1
  O  O8  1  0.00000000  0.00000000  0.50000000  1
  O  O9  1  0.00000000  0.50000000  0.50000000  1
  O  O10  1  0.50000000  0.00000000  0.50000000  1
  O  O11  1  0.50000000  0.50000000  0.50000000  1
  O  O12  1  0.00000000  0.24848494  0.00000000  1
  O  O13  1  0.00000000  0.75151506  0.00000000  1
  O  O14  1  0.50000000  0.22851048  0.00000000  1
  O  O15  1  0.50000000  0.77148952  0.00000000  1
loop_
_geom_bond_atom_site_label_1
_geom_bond_atom_site_label_2
_geom_bond_distance
_geom_bond_site_symmetry_2
Mg0 O3 1.979209 1_455
Mg0 O1 1.979209 1_555
Mg0 O12 2.178460 1_555
Mg0 O13 2.178460 1_555
Mg0 O9 2.188789 1_555
Mg0 O9 2.188789 1_554
Mg1 O15 1.979209 1_545
Mg1 O14 1.979209 1_555
Mg1 O0 2.178460 1_555
Mg1 O2 2.178460 1_555
Mg1 O10 2.188789 1_555
Mg1 O10 2.188789 1_554
Mg2 O8 2.155119 1_555
Mg2 O6 2.158503 1_455
Mg2 O4 2.158503 1_555
Mg2 O9 2.175556 1_555
Mg2 O12 2.188791 1_556
Mg2 O12 2.188791 1_555
Mg3 O8 2.155119 1_565
Mg3 O5 2.158503 1_555
Mg3 O7 2.158503 1_455
Mg3 O9 2.175556 1_555
Mg3 O13 2.188791 1_555
Mg3 O13 2.188791 1_556
Mg4 O10 2.080609 1_555
Mg4 O6 2.173570 1_555
Mg4 O4 2.173570 1_555
Mg4 O14 2.191137 1_556
Mg4 O14 2.191137 1_555
Mg4 O11 2.250065 1_555
Mg5 O10 2.080609 1_565
Mg5 O7 2.173570 1_555
Mg5 O5 2.173570 1_555
Mg5 O15 2.191137 1_556
Mg5 O15 2.191137 1_555
Mg5 O11 2.250065 1_555
Mg6 O8 2.155119 1_555
Mg6 O5 2.158503 1_545
Mg6 O4 2.158503 1_555
Mg6 O10 2.175556 1_555
Mg6 O0 2.188791 1_555
Mg6 O0 2.188791 1_556
Mg7 O9 2.080609 1_555
Mg7 O5 2.173570 1_555
Mg7 O4 2.173570 1_555
Mg7 O1 2.191137 1_556
Mg7 O1 2.191137 1_555
Mg7 O11 2.250065 1_555
Mg8 O8 2.155119 1_655
Mg8 O6 2.158503 1_555
Mg8 O7 2.158503 1_545
Mg8 O10 2.175556 1_555
Mg8 O2 2.188791 1_556
Mg8 O2 2.188791 1_555
Mg9 O9 2.080609 1_655
Mg9 O7 2.173570 1_555
Mg9 O6 2.173570 1_555
Mg9 O3 2.191137 1_556
Mg9 O3 2.191137 1_555
Mg9 O11 2.250065 1_555
Mg10 O12 2.110234 1_555
Mg10 O0 2.110234 1_555
Mg10 O4 2.189872 1_554
Mg10 O4 2.189872 1_555
Mg10 O1 2.224703 1_555
Mg10 O14 2.224703 1_555
Mg11 O13 2.110234 1_555
Mg11 O0 2.110234 1_565
Mg11 O5 2.189872 1_554
Mg11 O5 2.189872 1_555
Mg11 O1 2.224703 1_555
Mg11 O15 2.224703 1_555
Mg12 O2 2.110234 1_555
Mg12 O12 2.110234 1_655
Mg12 O6 2.189872 1_554
Mg12 O6 2.189872 1_555
Mg12 O14 2.224703 1_555
Mg12 O3 2.224703 1_555
Mg13 O2 2.110234 1_565
Mg13 O13 2.110234 1_655
Mg13 O7 2.189872 1_554
Mg13 O7 2.189872 1_555
Mg13 O15 2.224703 1_555
Mg13 O3 2.224703 1_555
Co0 O2 2.152215 1_455
Co0 O13 2.152215 1_545
Co0 O12 2.152215 1_555
Co0 O0 2.152215 1_555
Co0 O8 2.188789 1_554
Co0 O8 2.188789 1_555
O1 Sr0 2.351465 1_555
O3 Sr0 2.351465 1_555
O11 Sr0 2.188789 1_555
O11 Sr0 2.188789 1_556
O14 Sr0 2.351465 1_555
O15 Sr0 2.351465 1_555
