# generated using pymatgen
data_NaMg14WO16
_symmetry_space_group_name_H-M   'P 1'
_cell_length_a   8.59428156
_cell_length_b   8.66945825
_cell_length_c   4.31104611
_cell_angle_alpha   90.00000000
_cell_angle_beta   90.00000000
_cell_angle_gamma   90.00000000
_symmetry_Int_Tables_number   1
_chemical_formula_structural   NaMg14WO16
_chemical_formula_sum   'Na1 Mg14 W1 O16'
_cell_volume   321.20641121
_cell_formula_units_Z   1
loop_
 _symmetry_equiv_pos_site_id
 _symmetry_equiv_pos_as_xyz
  1  'x, y, z'
loop_
 _atom_site_type_symbol
 _atom_site_label
 _atom_site_symmetry_multiplicity
 _atom_site_fract_x
 _atom_site_fract_y
 _atom_site_fract_z
 _atom_site_occupancy
  Na  Na0  1  0.00000000  0.00000000  -0.00000000  1
  Mg  Mg0  1  0.50000000  0.00000000  -0.00000000  1
  Mg  Mg1  1  0.50000000  0.50000000  -0.00000000  1
  Mg  Mg2  1  -0.00000000  0.23548919  0.50000000  1
  Mg  Mg3  1  0.00000000  0.76451081  0.50000000  1
  Mg  Mg4  1  0.50000000  0.24724349  0.50000000  1
  Mg  Mg5  1  0.50000000  0.75275651  0.50000000  1
  Mg  Mg6  1  0.24774905  -0.00000000  0.50000000  1
  Mg  Mg7  1  0.25731545  0.50000000  0.50000000  1
  Mg  Mg8  1  0.75225095  0.00000000  0.50000000  1
  Mg  Mg9  1  0.74268455  0.50000000  0.50000000  1
  Mg  Mg10  1  0.25237584  0.24147840  0.00000000  1
  Mg  Mg11  1  0.25237584  0.75852160  -0.00000000  1
  Mg  Mg12  1  0.74762416  0.24147840  -0.00000000  1
  Mg  Mg13  1  0.74762416  0.75852160  -0.00000000  1
  W  W0  1  0.00000000  0.50000000  -0.00000000  1
  O  O0  1  0.26528886  0.00000000  0.00000000  1
  O  O1  1  0.25426402  0.50000000  0.00000000  1
  O  O2  1  0.73471114  -0.00000000  -0.00000000  1
  O  O3  1  0.74573598  0.50000000  -0.00000000  1
  O  O4  1  0.24900732  0.25238176  0.50000000  1
  O  O5  1  0.24900732  0.74761824  0.50000000  1
  O  O6  1  0.75099268  0.25238176  0.50000000  1
  O  O7  1  0.75099268  0.74761824  0.50000000  1
  O  O8  1  0.00000000  0.00000000  0.50000000  1
  O  O9  1  0.00000000  0.50000000  0.50000000  1
  O  O10  1  0.50000000  0.00000000  0.50000000  1
  O  O11  1  0.50000000  0.50000000  0.50000000  1
  O  O12  1  -0.00000000  0.25516959  -0.00000000  1
  O  O13  1  0.00000000  0.74483041  0.00000000  1
  O  O14  1  0.50000000  0.25451544  -0.00000000  1
  O  O15  1  0.50000000  0.74548456  -0.00000000  1
loop_
_geom_bond_atom_site_label_1
_geom_bond_atom_site_label_2
_geom_bond_distance
_geom_bond_site_symmetry_2
Na0 O8 2.155523 1_555
Na0 O8 2.155523 1_554
Na0 O13 2.212182 1_545
Na0 O12 2.212182 1_555
Na0 O2 2.279967 1_455
Na0 O0 2.279967 1_555
Mg0 O0 2.017174 1_555
Mg0 O2 2.017174 1_555
Mg0 O10 2.155523 1_555
Mg0 O10 2.155523 1_554
Mg0 O14 2.206511 1_555
Mg0 O15 2.206511 1_545
Mg1 O3 2.111924 1_555
Mg1 O1 2.111924 1_555
Mg1 O15 2.128218 1_555
Mg1 O14 2.128218 1_555
Mg1 O11 2.155523 1_555
Mg1 O11 2.155523 1_554
Mg2 O8 2.041564 1_555
Mg2 O4 2.145044 1_555
Mg2 O6 2.145044 1_455
Mg2 O12 2.162265 1_556
Mg2 O12 2.162265 1_555
Mg2 O9 2.293165 1_555
Mg3 O8 2.041564 1_565
Mg3 O5 2.145044 1_555
Mg3 O7 2.145044 1_455
Mg3 O13 2.162265 1_556
Mg3 O13 2.162265 1_555
Mg3 O9 2.293165 1_555
Mg4 O10 2.143467 1_555
Mg4 O14 2.156445 1_556
Mg4 O14 2.156445 1_555
Mg4 O6 2.157562 1_555
Mg4 O4 2.157562 1_555
Mg4 O11 2.191262 1_555
Mg5 O10 2.143467 1_565
Mg5 O15 2.156445 1_556
Mg5 O15 2.156445 1_555
Mg5 O5 2.157562 1_555
Mg5 O7 2.157562 1_555
Mg5 O11 2.191262 1_555
Mg6 O8 2.129225 1_555
Mg6 O0 2.160788 1_555
Mg6 O0 2.160788 1_556
Mg6 O10 2.167916 1_555
Mg6 O4 2.188040 1_555
Mg6 O5 2.188040 1_545
Mg7 O11 2.085699 1_555
Mg7 O4 2.147903 1_555
Mg7 O5 2.147903 1_555
Mg7 O1 2.155683 1_556
Mg7 O1 2.155683 1_555
Mg7 O9 2.211441 1_555
Mg8 O8 2.129225 1_655
Mg8 O2 2.160788 1_556
Mg8 O2 2.160788 1_555
Mg8 O10 2.167916 1_555
Mg8 O6 2.188040 1_555
Mg8 O7 2.188040 1_545
Mg9 O11 2.085699 1_555
Mg9 O6 2.147903 1_555
Mg9 O7 2.147903 1_555
Mg9 O3 2.155683 1_556
Mg9 O3 2.155683 1_555
Mg9 O9 2.211441 1_655
Mg10 O0 2.096426 1_555
Mg10 O14 2.131151 1_555
Mg10 O4 2.157789 1_554
Mg10 O4 2.157789 1_555
Mg10 O12 2.172234 1_555
Mg10 O1 2.241301 1_555
Mg11 O0 2.096426 1_565
Mg11 O15 2.131151 1_555
Mg11 O5 2.157789 1_555
Mg11 O5 2.157789 1_554
Mg11 O13 2.172234 1_555
Mg11 O1 2.241301 1_555
Mg12 O2 2.096426 1_555
Mg12 O14 2.131151 1_555
Mg12 O6 2.157789 1_555
Mg12 O6 2.157789 1_554
Mg12 O12 2.172234 1_655
Mg12 O3 2.241301 1_555
Mg13 O2 2.096426 1_565
Mg13 O15 2.131151 1_555
Mg13 O7 2.157789 1_555
Mg13 O7 2.157789 1_554
Mg13 O13 2.172234 1_655
Mg13 O3 2.241301 1_555
O1 W0 2.185217 1_555
O3 W0 2.185217 1_655
O9 W0 2.155523 1_556
O9 W0 2.155523 1_555
O12 W0 2.122547 1_555
O13 W0 2.122547 1_555
