# generated using pymatgen
data_ErAlNi
_symmetry_space_group_name_H-M   'P 1'
_cell_length_a   5.31931795
_cell_length_b   5.31931795
_cell_length_c   8.46371200
_cell_angle_alpha   90.00000000
_cell_angle_beta   90.00000000
_cell_angle_gamma   119.38260463
_symmetry_Int_Tables_number   1
_chemical_formula_structural   ErAlNi
_chemical_formula_sum   'Er4 Al4 Ni4'
_cell_volume   208.67566164
_cell_formula_units_Z   4
loop_
 _symmetry_equiv_pos_site_id
 _symmetry_equiv_pos_as_xyz
  1  'x, y, z'
loop_
 _atom_site_type_symbol
 _atom_site_label
 _atom_site_symmetry_multiplicity
 _atom_site_fract_x
 _atom_site_fract_y
 _atom_site_fract_z
 _atom_site_occupancy
  Er  Er0  1  0.66726900  0.33273100  0.29584100  1
  Er  Er1  1  0.33013500  0.66986500  0.17596900  1
  Er  Er2  1  0.33013500  0.66986500  0.82403100  1
  Er  Er3  1  0.66726900  0.33273100  0.70415900  1
  Al  Al0  1  0.00437400  0.99562600  0.23760300  1
  Al  Al1  1  0.00437400  0.99562600  0.76239700  1
  Al  Al2  1  0.65878000  0.83154500  0.50000000  1
  Al  Al3  1  0.16845500  0.34122000  0.50000000  1
  Ni  Ni0  1  0.16780000  0.83220000  0.50000000  1
  Ni  Ni1  1  0.33678300  0.16856500  0.00000000  1
  Ni  Ni2  1  0.83143500  0.66321700  0.00000000  1
  Ni  Ni3  1  0.83308700  0.16691300  0.00000000  1
loop_
_geom_bond_atom_site_label_1
_geom_bond_atom_site_label_2
_geom_bond_distance
_geom_bond_site_symmetry_2
Er0 Ni3 2.930698 1_555
Er0 Ni1 2.935332 1_555
Er0 Ni2 2.935332 1_555
Er0 Ni0 3.192496 1_655
Er0 Ni0 3.192496 1_545
Er0 Er1 3.236220 1_655
Er0 Er1 3.236220 1_545
Er0 Er1 3.258397 1_555
Er0 Er3 3.455886 1_555
Er1 Er2 2.978702 1_554
Er1 Ni1 3.027278 1_565
Er1 Ni2 3.027278 1_455
Er1 Ni2 3.069620 1_555
Er1 Ni1 3.069620 1_555
Er1 Ni3 3.070036 1_565
Er1 Ni3 3.070036 1_455
Er1 Ni0 3.121591 1_555
Er2 Ni1 3.027278 1_566
Er2 Ni2 3.027278 1_456
Er2 Ni2 3.069620 1_556
Er2 Ni1 3.069620 1_556
Er2 Ni3 3.070036 1_456
Er2 Ni3 3.070036 1_566
Er2 Ni0 3.121591 1_555
Er2 Er3 3.236220 1_455
Er2 Er3 3.236220 1_565
Er2 Er3 3.258397 1_555
Er3 Ni3 2.930698 1_556
Er3 Ni2 2.935332 1_556
Er3 Ni1 2.935332 1_556
Er3 Ni0 3.192496 1_545
Er3 Ni0 3.192496 1_655
Al0 Ni2 2.533918 1_455
Al0 Ni1 2.533918 1_565
Al0 Ni3 2.553246 1_465
Al0 Ni0 2.680516 1_555
Al0 Al2 2.738421 1_455
Al0 Al3 2.738421 1_565
Al0 Er1 3.037099 1_555
Al0 Er0 3.112481 1_455
Al0 Er0 3.112481 1_565
Al0 Er0 3.135143 1_465
Al0 Er1 3.168488 1_455
Al0 Er1 3.168488 1_565
Al1 Ni2 2.533918 1_456
Al1 Ni1 2.533918 1_566
Al1 Ni3 2.553246 1_466
Al1 Ni0 2.680516 1_555
Al1 Al2 2.738421 1_455
Al1 Al3 2.738421 1_565
Al1 Er2 3.037099 1_555
Al1 Er3 3.112481 1_455
Al1 Er3 3.112481 1_565
Al1 Er3 3.135143 1_465
Al1 Er2 3.168488 1_455
Al1 Er2 3.168488 1_565
Al2 Ni0 2.613390 1_555
Al2 Al3 2.632496 1_555
Al2 Ni0 2.705931 1_655
Al2 Al3 2.736384 1_665
Al2 Er2 3.137156 1_555
Al2 Er1 3.137156 1_555
Al2 Er3 3.158652 1_565
Al2 Er0 3.158652 1_565
Al2 Er3 3.185226 1_555
Al2 Er0 3.185226 1_555
Al3 Ni0 2.613390 1_555
Al3 Ni0 2.705931 1_545
Al3 Er2 3.137156 1_555
Al3 Er1 3.137156 1_555
Al3 Er3 3.158652 1_455
Al3 Er0 3.158652 1_455
Al3 Er3 3.185226 1_555
Al3 Er0 3.185226 1_555
Ni1 Ni3 2.644321 1_555
Ni1 Ni2 2.655727 1_555
Ni1 Ni3 2.675019 1_455
Ni1 Ni2 2.713153 1_445
Ni2 Ni3 2.644321 1_555
Ni2 Ni3 2.675019 1_565
