# generated using pymatgen
data_Mg6AlNi
_symmetry_space_group_name_H-M   'P 1'
_cell_length_a   4.72817000
_cell_length_b   6.17962000
_cell_length_c   10.52866100
_cell_angle_alpha   90.00000000
_cell_angle_beta   90.00000000
_cell_angle_gamma   90.00000000
_symmetry_Int_Tables_number   1
_chemical_formula_structural   Mg6AlNi
_chemical_formula_sum   'Mg12 Al2 Ni2'
_cell_volume   307.62951142
_cell_formula_units_Z   2
loop_
 _symmetry_equiv_pos_site_id
 _symmetry_equiv_pos_as_xyz
  1  'x, y, z'
loop_
 _atom_site_type_symbol
 _atom_site_label
 _atom_site_symmetry_multiplicity
 _atom_site_fract_x
 _atom_site_fract_y
 _atom_site_fract_z
 _atom_site_occupancy
  Mg  Mg0  1  0.00000000  0.26308300  0.08911200  1
  Mg  Mg1  1  0.00000000  0.73691700  0.08911200  1
  Mg  Mg2  1  0.00000000  0.50000000  0.83332300  1
  Mg  Mg3  1  0.50000000  0.24351100  0.90956000  1
  Mg  Mg4  1  0.50000000  0.75648900  0.90956000  1
  Mg  Mg5  1  0.50000000  0.50000000  0.66437500  1
  Mg  Mg6  1  0.00000000  0.76308300  0.58911200  1
  Mg  Mg7  1  0.00000000  0.23691700  0.58911200  1
  Mg  Mg8  1  0.00000000  0.00000000  0.33332300  1
  Mg  Mg9  1  0.50000000  0.74351100  0.40956000  1
  Mg  Mg10  1  0.50000000  0.25648900  0.40956000  1
  Mg  Mg11  1  0.50000000  0.00000000  0.16437500  1
  Al  Al0  1  0.00000000  0.50000000  0.32238200  1
  Al  Al1  1  0.00000000  0.00000000  0.82238200  1
  Ni  Ni0  1  0.50000000  0.50000000  0.18257500  1
  Ni  Ni1  1  0.50000000  0.00000000  0.68257500  1
loop_
_geom_bond_atom_site_label_1
_geom_bond_atom_site_label_2
_geom_bond_distance
_geom_bond_site_symmetry_2
Mg0 Mg1 2.928114 1_555
Mg0 Ni0 2.949694 1_555
Mg0 Ni0 2.949694 1_455
Mg0 Mg11 2.976558 1_555
Mg0 Mg11 2.976558 1_455
Mg0 Mg3 3.029405 1_554
Mg0 Mg3 3.029405 1_454
Mg0 Mg8 3.042075 1_555
Mg0 Mg2 3.065344 1_554
Mg0 Mg1 3.251506 1_545
Mg1 Ni0 2.949694 1_555
Mg1 Ni0 2.949694 1_455
Mg1 Mg11 2.976558 1_465
Mg1 Mg11 2.976558 1_565
Mg1 Mg4 3.029405 1_454
Mg1 Mg4 3.029405 1_554
Mg1 Mg8 3.042075 1_565
Mg1 Mg2 3.065344 1_554
Mg2 Mg4 2.957266 1_455
Mg2 Mg4 2.957266 1_555
Mg2 Mg3 2.957266 1_455
Mg2 Mg3 2.957266 1_555
Mg2 Mg5 2.958549 1_455
Mg2 Mg5 2.958549 1_555
Mg2 Mg6 3.042075 1_555
Mg2 Mg7 3.042075 1_555
Mg3 Ni1 2.824148 1_555
Mg3 Mg4 3.009611 1_545
Mg3 Mg5 3.029229 1_555
Mg3 Mg4 3.170009 1_555
Mg3 Ni0 3.282513 1_556
Mg4 Ni1 2.824148 1_565
Mg4 Mg5 3.029229 1_555
Mg4 Ni0 3.282513 1_556
Mg5 Mg7 2.976558 1_655
Mg5 Mg6 2.976558 1_555
Mg5 Mg7 2.976558 1_555
Mg5 Mg6 2.976558 1_655
Mg5 Mg9 3.076066 1_555
Mg5 Ni1 3.095746 1_565
Mg5 Ni1 3.095746 1_555
Mg6 Mg7 2.928114 1_565
Mg6 Ni1 2.949694 1_565
Mg6 Ni1 2.949694 1_465
Mg6 Mg9 3.029405 1_455
Mg6 Mg9 3.029405 1_555
Mg6 Mg8 3.065344 1_565
Mg6 Mg7 3.251506 1_555
Mg7 Ni1 2.949694 1_455
Mg7 Ni1 2.949694 1_555
Mg7 Mg8 3.065344 1_555
Mg8 Mg9 2.957266 1_445
Mg8 Mg9 2.957266 1_545
Mg9 Ni0 2.824148 1_555
Mg9 Ni1 3.282513 1_565
Mg10 Ni0 2.824148 1_555
Mg10 Mg8 2.957266 1_655
Mg10 Mg8 2.957266 1_555
Mg10 Mg9 3.009611 1_555
Mg10 Mg11 3.029229 1_555
Mg10 Mg7 3.029405 1_655
Mg10 Mg7 3.029405 1_555
Mg10 Mg5 3.076066 1_555
Mg10 Mg9 3.170009 1_545
Mg10 Ni1 3.282513 1_555
Mg11 Mg8 2.958549 1_655
Mg11 Mg8 2.958549 1_555
Mg11 Mg9 3.029229 1_545
Mg11 Mg3 3.076066 1_554
Mg11 Mg4 3.076066 1_544
Mg11 Ni0 3.095746 1_545
Mg11 Ni0 3.095746 1_555
Al0 Ni0 2.784892 1_555
Al0 Ni0 2.784892 1_455
Al0 Mg1 2.859283 1_555
Al0 Mg0 2.859283 1_555
Al0 Mg9 2.948867 1_455
Al0 Mg9 2.948867 1_555
Al0 Mg10 2.948867 1_455
Al0 Mg10 2.948867 1_555
Al0 Mg8 3.091957 1_565
Al0 Mg8 3.091957 1_555
Al0 Mg6 3.244946 1_555
Al0 Mg7 3.244946 1_555
Al1 Ni1 2.784892 1_555
Al1 Ni1 2.784892 1_455
Al1 Mg6 2.859283 1_545
Al1 Mg7 2.859283 1_555
Al1 Mg3 2.948867 1_455
Al1 Mg3 2.948867 1_555
Al1 Mg4 2.948867 1_445
Al1 Mg4 2.948867 1_545
Al1 Mg2 3.091957 1_555
Al1 Mg2 3.091957 1_545
Al1 Mg0 3.244946 1_556
Al1 Mg1 3.244946 1_546
