# generated using pymatgen
data_La7SmV7CrO24
_symmetry_space_group_name_H-M   'P 1'
_cell_length_a   7.91721646
_cell_length_b   7.91721646
_cell_length_c   7.91721681
_cell_angle_alpha   90.18048158
_cell_angle_beta   90.18048158
_cell_angle_gamma   90.18048485
_symmetry_Int_Tables_number   1
_chemical_formula_structural   La7SmV7CrO24
_chemical_formula_sum   'La7 Sm1 V7 Cr1 O24'
_cell_volume   496.26208697
_cell_formula_units_Z   1
loop_
 _symmetry_equiv_pos_site_id
 _symmetry_equiv_pos_as_xyz
  1  'x, y, z'
loop_
 _atom_site_type_symbol
 _atom_site_label
 _atom_site_symmetry_multiplicity
 _atom_site_fract_x
 _atom_site_fract_y
 _atom_site_fract_z
 _atom_site_occupancy
  La  La0  1  0.25321300  0.25321300  0.74623300  1
  La  La1  1  0.74676900  0.25369000  0.74676900  1
  La  La2  1  0.25369000  0.74676900  0.74676900  1
  La  La3  1  0.74693800  0.74693800  0.74693800  1
  La  La4  1  0.74623300  0.25321300  0.25321300  1
  La  La5  1  0.25321300  0.74623300  0.25321300  1
  La  La6  1  0.74676900  0.74676900  0.25369000  1
  Sm  Sm0  1  0.25338300  0.25338300  0.25338300  1
  V  V0  1  0.49990200  0.00007600  0.00007600  1
  V  V1  1  0.00040400  0.00040400  0.00040400  1
  V  V2  1  0.49973400  0.49973400  0.00025100  1
  V  V3  1  0.00007600  0.49990200  0.00007600  1
  V  V4  1  0.49973400  0.00025100  0.49973400  1
  V  V5  1  0.00007600  0.00007600  0.49990200  1
  V  V6  1  0.00025100  0.49973400  0.49973400  1
  Cr  Cr0  1  0.49984400  0.49984400  0.49984400  1
  O  O0  1  0.49987400  0.00066000  0.74817000  1
  O  O1  1  0.99925000  0.99925000  0.74870000  1
  O  O2  1  0.50028600  0.50028600  0.74647100  1
  O  O3  1  0.00066000  0.49987400  0.74817000  1
  O  O4  1  0.49850600  0.00099500  0.25162000  1
  O  O5  1  0.00234000  0.00234000  0.25161600  1
  O  O6  1  0.49802000  0.49802000  0.25354400  1
  O  O7  1  0.00099500  0.49850600  0.25162000  1
  O  O8  1  0.49850600  0.25162000  0.00099500  1
  O  O9  1  0.00234000  0.25161600  0.00234000  1
  O  O10  1  0.49987400  0.74817000  0.00066000  1
  O  O11  1  0.99925000  0.74870000  0.99925000  1
  O  O12  1  0.49802000  0.25354400  0.49802000  1
  O  O13  1  0.00099500  0.25162000  0.49850600  1
  O  O14  1  0.50028600  0.74647100  0.50028600  1
  O  O15  1  0.00066000  0.74817000  0.49987400  1
  O  O16  1  0.25161600  0.00234000  0.00234000  1
  O  O17  1  0.74870000  0.99925000  0.99925000  1
  O  O18  1  0.25162000  0.49850600  0.00099500  1
  O  O19  1  0.74817000  0.49987400  0.00066000  1
  O  O20  1  0.25162000  0.00099500  0.49850600  1
  O  O21  1  0.74817000  0.00066000  0.49987400  1
  O  O22  1  0.25354400  0.49802000  0.49802000  1
  O  O23  1  0.74647100  0.50028600  0.50028600  1
loop_
_geom_bond_atom_site_label_1
_geom_bond_atom_site_label_2
_geom_bond_distance
_geom_bond_site_symmetry_2
La0 O2 2.762018 1_555
La0 O12 2.764493 1_555
La0 O22 2.764493 1_555
La0 O20 2.794525 1_555
La0 O13 2.794525 1_555
La0 O18 2.795643 1_556
La0 O8 2.795643 1_556
La0 O0 2.799393 1_555
La0 O3 2.799393 1_555
La0 O1 2.839203 1_445
La0 O16 2.842881 1_556
La0 O9 2.842881 1_556
La1 O23 2.764758 1_555
La1 O2 2.764758 1_555
La1 O12 2.780757 1_555
La1 O0 2.794611 1_555
La1 O21 2.794611 1_555
La1 O3 2.795472 1_655
La1 O19 2.795472 1_556
La1 O13 2.817766 1_655
La1 O8 2.817766 1_556
La1 O17 2.842433 1_545
La1 O1 2.842433 1_545
La1 O9 2.857145 1_656
La2 O14 2.764758 1_555
La2 O2 2.764758 1_555
La2 O22 2.780757 1_555
La2 O3 2.794611 1_555
La2 O15 2.794611 1_555
La2 O0 2.795472 1_565
La2 O10 2.795472 1_556
La2 O20 2.817766 1_565
La2 O18 2.817766 1_556
La2 O11 2.842433 1_455
La2 O1 2.842433 1_455
La2 O16 2.857145 1_566
La3 O2 2.757305 1_555
La3 O23 2.757305 1_555
La3 O14 2.757305 1_555
La3 O15 2.808234 1_655
La3 O21 2.808234 1_565
La3 O10 2.808234 1_556
La3 O19 2.808234 1_556
La3 O0 2.808234 1_565
La3 O3 2.808234 1_655
La3 O1 2.820565 1_555
La3 O17 2.820565 1_555
La3 O11 2.820565 1_555
La4 O23 2.762018 1_555
La4 O12 2.764493 1_555
La4 O6 2.764493 1_555
La4 O4 2.794525 1_555
La4 O8 2.794525 1_555
La4 O7 2.795643 1_655
La4 O13 2.795643 1_655
La4 O21 2.799393 1_555
La4 O19 2.799393 1_555
La4 O17 2.839203 1_544
La4 O9 2.842881 1_655
La4 O5 2.842881 1_655
La5 O14 2.762018 1_555
La5 O22 2.764493 1_555
La5 O6 2.764493 1_555
La5 O7 2.794525 1_555
La5 O18 2.794525 1_555
La5 O4 2.795643 1_565
La5 O20 2.795643 1_565
La5 O15 2.799393 1_555
La5 O10 2.799393 1_555
La5 O11 2.839203 1_454
La5 O16 2.842881 1_565
La5 O5 2.842881 1_565
La6 O23 2.764758 1_555
La6 O14 2.764758 1_555
La6 O6 2.780757 1_555
La6 O10 2.794611 1_555
La6 O19 2.794611 1_555
La6 O15 2.795472 1_655
La6 O21 2.795472 1_565
La6 O4 2.817766 1_565
La6 O7 2.817766 1_655
La6 O11 2.842433 1_554
La6 O17 2.842433 1_554
La6 O5 2.857145 1_665
Cr0 O22 1.950026 1_555
Cr0 O12 1.950026 1_555
Cr0 O6 1.950026 1_555
Cr0 O14 1.952584 1_555
Cr0 O23 1.952584 1_555
Cr0 O2 1.952584 1_555
O0 V4 1.966911 1_555
O0 V0 1.994414 1_556
O1 V5 1.969851 1_665
O1 V1 1.992779 1_666
O2 V2 2.009268 1_556
O3 V6 1.966911 1_555
O3 V3 1.994414 1_556
O4 V4 1.964393 1_555
O4 V0 1.991584 1_555
O4 Sm0 2.789937 1_555
O5 V5 1.966010 1_555
O5 V1 1.988921 1_555
O5 Sm0 2.806379 1_555
O6 V2 2.005553 1_555
O6 Sm0 2.734788 1_555
O7 V6 1.964393 1_555
O7 V3 1.991584 1_555
O7 Sm0 2.789937 1_555
O8 V2 1.964393 1_555
O8 V0 1.991584 1_555
O8 Sm0 2.789937 1_555
O9 V3 1.966010 1_555
O9 V1 1.988921 1_555
O9 Sm0 2.806379 1_555
O10 V2 1.966911 1_555
O10 V0 1.994414 1_565
O11 V3 1.969850 1_656
O11 V1 1.992779 1_666
O12 V4 2.005553 1_555
O12 Sm0 2.734788 1_555
O13 V6 1.964393 1_555
O13 V5 1.991584 1_555
O13 Sm0 2.789937 1_555
O14 V4 2.009268 1_565
O15 V6 1.966911 1_555
O15 V5 1.994414 1_565
O16 V0 1.966010 1_555
O16 V1 1.988921 1_555
O16 Sm0 2.806379 1_555
O17 V0 1.969850 1_566
O17 V1 1.992779 1_666
O18 V2 1.964393 1_555
O18 V3 1.991584 1_555
O18 Sm0 2.789937 1_555
O19 V2 1.966911 1_555
O19 V3 1.994414 1_655
O20 V4 1.964393 1_555
O20 V5 1.991584 1_555
O20 Sm0 2.789937 1_555
O21 V4 1.966911 1_555
O21 V5 1.994414 1_655
O22 V6 2.005553 1_555
O22 Sm0 2.734788 1_555
O23 V6 2.009268 1_655
