# generated using pymatgen
data_Ca2MgN2
_symmetry_space_group_name_H-M   'P 1'
_cell_length_a   3.58884260
_cell_length_b   3.59747274
_cell_length_c   8.23097514
_cell_angle_alpha   90.00000037
_cell_angle_beta   89.92828484
_cell_angle_gamma   120.07957480
_symmetry_Int_Tables_number   1
_chemical_formula_structural   Ca2MgN2
_chemical_formula_sum   'Ca2 Mg1 N2'
_cell_volume   91.95695763
_cell_formula_units_Z   1
loop_
 _symmetry_equiv_pos_site_id
 _symmetry_equiv_pos_as_xyz
  1  'x, y, z'
loop_
 _atom_site_type_symbol
 _atom_site_label
 _atom_site_symmetry_multiplicity
 _atom_site_fract_x
 _atom_site_fract_y
 _atom_site_fract_z
 _atom_site_occupancy
  Ca  Ca0  1  0.66744500  0.33372200  0.27556300  1
  Ca  Ca1  1  0.33255500  0.66627800  0.72443700  1
  Mg  Mg0  1  0.00000000  0.00000000  0.00000000  1
  N  N0  1  0.66442800  0.33221400  0.84164700  1
  N  N1  1  0.33557200  0.66778600  0.15835300  1
loop_
_geom_bond_atom_site_label_1
_geom_bond_atom_site_label_2
_geom_bond_distance
_geom_bond_site_symmetry_2
Ca0 N1 2.286948 1_655
Ca0 N1 2.287202 1_545
Ca0 N1 2.287205 1_555
Ca1 N0 2.286948 1_455
Ca1 N0 2.287202 1_565
Ca1 N0 2.287205 1_555
Mg0 N1 2.438997 1_445
Mg0 N0 2.438997 1_554
Mg0 N1 2.454438 1_545
Mg0 N0 2.454438 1_454
Mg0 N1 2.454438 1_555
Mg0 N0 2.454438 1_444
