# generated using pymatgen
data_Rb2Ti(AgS2)2
_symmetry_space_group_name_H-M   'P 1'
_cell_length_a   6.03400700
_cell_length_b   6.03400700
_cell_length_c   13.53368700
_cell_angle_alpha   90.00000000
_cell_angle_beta   90.00000000
_cell_angle_gamma   90.00000000
_symmetry_Int_Tables_number   1
_chemical_formula_structural   Rb2Ti(AgS2)2
_chemical_formula_sum   'Rb4 Ti2 Ag4 S8'
_cell_volume   492.75126451
_cell_formula_units_Z   2
loop_
 _symmetry_equiv_pos_site_id
 _symmetry_equiv_pos_as_xyz
  1  'x, y, z'
loop_
 _atom_site_type_symbol
 _atom_site_label
 _atom_site_symmetry_multiplicity
 _atom_site_fract_x
 _atom_site_fract_y
 _atom_site_fract_z
 _atom_site_occupancy
  Rb  Rb0  1  0.26082400  0.26082400  0.00000000  1
  Rb  Rb1  1  0.73917600  0.73917600  0.00000000  1
  Rb  Rb2  1  0.73917600  0.26082400  0.50000000  1
  Rb  Rb3  1  0.26082400  0.73917600  0.50000000  1
  Ti  Ti0  1  0.00000000  0.00000000  0.25000000  1
  Ti  Ti1  1  0.00000000  0.00000000  0.75000000  1
  Ag  Ag0  1  0.00000000  0.50000000  0.25000000  1
  Ag  Ag1  1  0.00000000  0.50000000  0.75000000  1
  Ag  Ag2  1  0.50000000  0.00000000  0.75000000  1
  Ag  Ag3  1  0.50000000  0.00000000  0.25000000  1
  S  S0  1  0.21542100  0.21542100  0.35358800  1
  S  S1  1  0.78457900  0.78457900  0.64641200  1
  S  S2  1  0.78457900  0.78457900  0.35358800  1
  S  S3  1  0.78457900  0.21542100  0.85358800  1
  S  S4  1  0.78457900  0.21542100  0.14641200  1
  S  S5  1  0.21542100  0.21542100  0.64641200  1
  S  S6  1  0.21542100  0.78457900  0.14641200  1
  S  S7  1  0.21542100  0.78457900  0.85358800  1
loop_
_geom_bond_atom_site_label_1
_geom_bond_atom_site_label_2
_geom_bond_distance
_geom_bond_site_symmetry_2
Rb0 S3 3.501332 1_454
Rb0 S6 3.501332 1_545
Rb0 S4 3.501332 1_455
Rb0 S7 3.501332 1_544
Rb0 S3 3.740205 1_554
Rb0 S6 3.740205 1_555
Rb0 S7 3.740205 1_554
Rb0 S4 3.740205 1_555
Rb1 S3 3.501332 1_564
Rb1 S4 3.501332 1_565
Rb1 S7 3.501332 1_654
Rb1 S6 3.501332 1_655
Rb1 S6 3.740205 1_555
Rb1 S3 3.740205 1_554
Rb1 S7 3.740205 1_554
Rb1 S4 3.740205 1_555
Rb2 S2 3.501332 1_545
Rb2 S1 3.501332 1_545
Rb2 S0 3.501332 1_655
Rb2 S5 3.501332 1_655
Rb2 S1 3.740205 1_555
Rb2 S2 3.740205 1_555
Rb2 S5 3.740205 1_555
Rb2 S0 3.740205 1_555
Rb3 S1 3.501332 1_455
Rb3 S2 3.501332 1_455
Rb3 S0 3.501332 1_565
Rb3 S5 3.501332 1_565
Rb3 S2 3.740205 1_555
Rb3 S1 3.740205 1_555
Rb3 S5 3.740205 1_555
Rb3 S0 3.740205 1_555
Ag0 S0 2.569752 1_555
Ag0 S6 2.569752 1_555
Ag0 S2 2.569752 1_455
Ag0 S4 2.569752 1_455
Ag1 S5 2.569752 1_555
Ag1 S1 2.569752 1_455
Ag1 S7 2.569752 1_555
Ag1 S3 2.569752 1_455
Ag2 S3 2.569752 1_555
Ag2 S7 2.569752 1_545
Ag2 S1 2.569752 1_545
Ag2 S5 2.569752 1_555
Ag3 S0 2.569752 1_555
Ag3 S2 2.569752 1_545
Ag3 S6 2.569752 1_545
Ag3 S4 2.569752 1_555
S0 Ti0 2.311846 1_555
S1 Ti1 2.311846 1_665
S2 Ti0 2.311846 1_665
S3 Ti1 2.311846 1_655
S4 Ti0 2.311846 1_655
S5 Ti1 2.311846 1_555
S6 Ti0 2.311846 1_565
S7 Ti1 2.311846 1_565
