# generated using pymatgen
data_RbB2SbO6
_symmetry_space_group_name_H-M   'P 1'
_cell_length_a   3.89225500
_cell_length_b   7.47695600
_cell_length_c   9.76536400
_cell_angle_alpha   90.00000000
_cell_angle_beta   90.00000000
_cell_angle_gamma   90.00000000
_symmetry_Int_Tables_number   1
_chemical_formula_structural   RbB2SbO6
_chemical_formula_sum   'Rb2 B4 Sb2 O12'
_cell_volume   284.19376541
_cell_formula_units_Z   2
loop_
 _symmetry_equiv_pos_site_id
 _symmetry_equiv_pos_as_xyz
  1  'x, y, z'
loop_
 _atom_site_type_symbol
 _atom_site_label
 _atom_site_symmetry_multiplicity
 _atom_site_fract_x
 _atom_site_fract_y
 _atom_site_fract_z
 _atom_site_occupancy
  Rb  Rb0  1  0.55557200  0.00000000  0.61227000  1
  Rb  Rb1  1  0.44442800  0.50000000  0.11227000  1
  B  B0  1  0.99084600  0.66872200  0.79009200  1
  B  B1  1  0.00915400  0.83127800  0.29009200  1
  B  B2  1  0.00915400  0.16872200  0.29009200  1
  B  B3  1  0.99084600  0.33127800  0.79009200  1
  Sb  Sb0  1  0.93397100  0.00000000  0.00909400  1
  Sb  Sb1  1  0.06602900  0.50000000  0.50909400  1
  O  O0  1  0.93273100  0.80709100  0.15317000  1
  O  O1  1  0.06726900  0.69290900  0.65317000  1
  O  O2  1  0.06726900  0.30709100  0.65317000  1
  O  O3  1  0.93273100  0.19290900  0.15317000  1
  O  O4  1  0.02639500  0.00000000  0.35340400  1
  O  O5  1  0.97360500  0.50000000  0.85340400  1
  O  O6  1  0.43335500  0.00000000  0.00604800  1
  O  O7  1  0.56664500  0.50000000  0.50604800  1
  O  O8  1  0.91597900  0.81770200  0.86263900  1
  O  O9  1  0.08402100  0.68229800  0.36263900  1
  O  O10  1  0.08402100  0.31770200  0.36263900  1
  O  O11  1  0.91597900  0.18229800  0.86263900  1
loop_
_geom_bond_atom_site_label_1
_geom_bond_atom_site_label_2
_geom_bond_distance
_geom_bond_site_symmetry_2
B0 O8 1.351896 1_555
B0 O1 1.381667 1_655
B0 O5 1.406487 1_555
B1 O9 1.351896 1_555
B1 O0 1.381667 1_455
B1 O4 1.406487 1_565
B2 O10 1.351896 1_555
B2 O3 1.381667 1_455
B2 O4 1.406487 1_555
B3 O11 1.351896 1_555
B3 O2 1.381667 1_655
B3 O5 1.406487 1_555
O0 Sb0 2.014940 1_565
O0 Rb1 3.007309 1_555
O0 Rb1 3.065667 1_655
O1 Sb1 2.014940 1_555
O1 Rb0 3.007309 1_565
O1 Rb0 3.065667 1_465
O2 Sb1 2.014940 1_555
O2 Rb0 3.007309 1_555
O2 Rb0 3.065667 1_455
O3 Sb0 2.014940 1_555
O3 Rb1 3.007309 1_555
O3 Rb1 3.065667 1_655
O4 Rb0 3.122286 1_455
O4 Rb0 3.260784 1_555
O5 Rb1 3.122286 1_656
O5 Rb1 3.260784 1_556
O6 Sb0 1.943957 1_455
O6 Sb0 1.948752 1_555
O7 Sb1 1.943957 1_655
O7 Sb1 1.948752 1_555
O8 Sb0 1.976917 1_566
O8 Rb0 3.131046 1_565
O9 Sb1 1.976917 1_555
O9 Rb1 3.131046 1_555
O10 Sb1 1.976917 1_555
O10 Rb1 3.131046 1_555
O11 Sb0 1.976917 1_556
O11 Rb0 3.131046 1_555
