# generated using pymatgen
data_Rb4Li(Se2O7)2
_symmetry_space_group_name_H-M   'P 1'
_cell_length_a   7.97277912
_cell_length_b   8.51802215
_cell_length_c   7.92029222
_cell_angle_alpha   89.82812577
_cell_angle_beta   88.48918700
_cell_angle_gamma   57.53601647
_symmetry_Int_Tables_number   1
_chemical_formula_structural   Rb4Li(Se2O7)2
_chemical_formula_sum   'Rb4 Li1 Se4 O14'
_cell_volume   453.63204289
_cell_formula_units_Z   1
loop_
 _symmetry_equiv_pos_site_id
 _symmetry_equiv_pos_as_xyz
  1  'x, y, z'
loop_
 _atom_site_type_symbol
 _atom_site_label
 _atom_site_symmetry_multiplicity
 _atom_site_fract_x
 _atom_site_fract_y
 _atom_site_fract_z
 _atom_site_occupancy
  Rb  Rb0  1  0.20538800  0.45691400  0.31640800  1
  Rb  Rb1  1  0.46836900  0.80436200  0.13213900  1
  Rb  Rb2  1  0.80213100  0.49914600  0.65714000  1
  Rb  Rb3  1  0.52751800  0.20496200  0.83619400  1
  Li  Li0  1  0.06709000  0.80243400  0.57850200  1
  Se  Se0  1  0.73881300  0.07741200  0.33725500  1
  Se  Se1  1  0.90621400  0.29922700  0.12962000  1
  Se  Se2  1  0.27633700  0.97618800  0.65424900  1
  Se  Se3  1  0.06426700  0.69408800  0.88542100  1
  O  O0  1  0.65075800  0.24141600  0.48463800  1
  O  O1  1  0.73815100  0.37064200  0.98334000  1
  O  O2  1  0.29378500  0.82331400  0.50611900  1
  O  O3  1  0.26164500  0.61197100  0.00685400  1
  O  O4  1  0.57019500  0.10825100  0.20247600  1
  O  O5  1  0.83438700  0.44991200  0.28754700  1
  O  O6  1  0.48819400  0.87565600  0.76285300  1
  O  O7  1  0.13244000  0.56968900  0.70121500  1
  O  O8  1  0.86959300  0.86265800  0.41052600  1
  O  O9  1  0.13772200  0.20964100  0.06275000  1
  O  O10  1  0.23536000  0.17214600  0.56303300  1
  O  O11  1  0.88254800  0.68570700  0.98314400  1
  O  O12  1  0.93499700  0.08383200  0.21948500  1
  O  O13  1  0.98492700  0.91209700  0.81575700  1
loop_
_geom_bond_atom_site_label_1
_geom_bond_atom_site_label_2
_geom_bond_distance
_geom_bond_site_symmetry_2
Li0 O8 1.936945 1_455
Li0 O2 1.979091 1_555
Li0 O7 2.013145 1_555
Li0 O13 2.030153 1_455
O0 Se0 1.649476 1_555
O0 Rb3 2.998828 1_555
O0 Rb0 3.315240 1_555
O0 Rb2 3.330471 1_555
O1 Se1 1.646316 1_556
O1 Rb2 2.940457 1_555
O1 Rb3 2.971096 1_555
O1 Rb1 3.320527 1_556
O2 Se2 1.702235 1_555
O2 Rb1 3.206457 1_555
O3 Se3 1.668763 1_554
O3 Rb0 2.918099 1_555
O3 Rb1 3.063062 1_555
O3 Rb3 3.213636 1_554
O4 Se0 1.646421 1_555
O4 Rb0 2.949336 1_555
O4 Rb3 2.991213 1_554
O4 Rb1 3.155699 1_545
O5 Se1 1.650078 1_555
O5 Rb2 2.943280 1_555
O5 Rb0 3.005023 1_655
O5 Rb1 3.139278 1_555
O6 Se2 1.686901 1_555
O6 Rb2 2.922232 1_555
O6 Rb1 3.002758 1_556
O6 Rb3 3.044246 1_565
O7 Se3 1.701761 1_555
O7 Rb2 3.027652 1_455
O7 Rb0 3.142348 1_555
O7 Rb3 3.220038 1_555
O8 Se0 1.657753 1_565
O8 Rb0 3.105642 1_655
O9 Se1 1.645742 1_455
O9 Rb1 3.076395 1_545
O9 Rb0 3.172715 1_555
O9 Rb3 3.528878 1_554
O10 Se2 1.683630 1_545
O10 Rb0 3.021655 1_555
O10 Rb2 3.129328 1_455
O10 Rb3 3.339607 1_555
O11 Se3 1.659751 1_655
O11 Rb1 3.088219 1_556
O11 Rb2 3.287716 1_555
O12 Se0 1.825965 1_555
O12 Se1 1.863949 1_555
O13 Se3 1.704185 1_655
O13 Rb3 3.123058 1_565
