# generated using pymatgen
data_Li2MnV(PO4)3
_symmetry_space_group_name_H-M   'P 1'
_cell_length_a   9.21778540
_cell_length_b   8.28696873
_cell_length_c   8.39638923
_cell_angle_alpha   61.23632459
_cell_angle_beta   61.58241343
_cell_angle_gamma   92.54891732
_symmetry_Int_Tables_number   1
_chemical_formula_structural   Li2MnV(PO4)3
_chemical_formula_sum   'Li4 Mn2 V2 P6 O24'
_cell_volume   462.33925416
_cell_formula_units_Z   2
loop_
 _symmetry_equiv_pos_site_id
 _symmetry_equiv_pos_as_xyz
  1  'x, y, z'
loop_
 _atom_site_type_symbol
 _atom_site_label
 _atom_site_symmetry_multiplicity
 _atom_site_fract_x
 _atom_site_fract_y
 _atom_site_fract_z
 _atom_site_occupancy
  Li  Li0  1  0.13850600  0.07891900  0.58257800  1
  Li  Li1  1  0.61273900  0.78298700  0.66835300  1
  Li  Li2  1  0.96109000  0.98927400  0.19317700  1
  Li  Li3  1  0.85472700  0.24112000  0.83333600  1
  Mn  Mn0  1  0.55426100  0.85767800  0.29313200  1
  Mn  Mn1  1  0.42618900  0.14736600  0.72223500  1
  V  V0  1  0.04843600  0.36586300  0.29420800  1
  V  V1  1  0.95124900  0.64582100  0.70632200  1
  P  P0  1  0.24515700  0.04493600  0.21143700  1
  P  P1  1  0.24078700  0.46042600  0.49937500  1
  P  P2  1  0.24937500  0.75769800  0.78275200  1
  P  P3  1  0.75061100  0.25137900  0.22676900  1
  P  P4  1  0.75217900  0.53049700  0.51767600  1
  P  P5  1  0.74458500  0.95167100  0.79937200  1
  O  O0  1  0.08586500  0.83655300  0.39705500  1
  O  O1  1  0.24143700  0.11090000  0.00697100  1
  O  O2  1  0.18700500  0.18239700  0.28749200  1
  O  O3  1  0.19321900  0.48718200  0.33158600  1
  O  O4  1  0.08488300  0.46838500  0.68145600  1
  O  O5  1  0.12135600  0.79954300  0.70788700  1
  O  O6  1  0.41591500  0.02797200  0.18592300  1
  O  O7  1  0.24967300  0.25553400  0.60923400  1
  O  O8  1  0.41501400  0.62191300  0.37215800  1
  O  O9  1  0.18428000  0.54320200  0.97762100  1
  O  O10  1  0.26428900  0.89749800  0.84869000  1
  O  O11  1  0.43314300  0.79630400  0.59176200  1
  O  O12  1  0.57580400  0.21562700  0.41663600  1
  O  O13  1  0.73754300  0.10782000  0.15894400  1
  O  O14  1  0.82427900  0.46286000  0.01836000  1
  O  O15  1  0.56804200  0.38047200  0.64778800  1
  O  O16  1  0.74860000  0.74123400  0.41736200  1
  O  O17  1  0.58466200  0.96623500  0.79066400  1
  O  O18  1  0.89078500  0.20951800  0.28304400  1
  O  O19  1  0.89366700  0.51452700  0.33208500  1
  O  O20  1  0.80035000  0.48518800  0.68782400  1
  O  O21  1  0.79300700  0.79502300  0.75015700  1
  O  O22  1  0.72468500  0.89902500  0.01383500  1
  O  O23  1  0.90682800  0.15207100  0.62679500  1
loop_
_geom_bond_atom_site_label_1
_geom_bond_atom_site_label_2
_geom_bond_distance
_geom_bond_site_symmetry_2
Li0 O7 1.908511 1_555
Li0 O2 1.985169 1_555
Li0 O5 1.989194 1_545
Li0 O23 2.154774 1_455
Li1 O11 2.031646 1_555
Li1 O16 2.087492 1_555
Li1 O21 2.092934 1_555
Li1 O17 2.170385 1_555
Li2 O16 2.003453 1_555
Li2 O1 2.131797 1_665
Li2 O18 2.299067 1_565
Li2 O13 2.401217 1_565
Li2 O0 2.402781 1_655
Li3 O13 2.009492 1_556
Li3 O20 2.032152 1_555
Li3 O23 2.062303 1_555
Li3 O4 2.105297 1_655
Li3 O22 2.367349 1_546
Mn0 O8 1.903603 1_555
Mn0 O22 1.938328 1_555
Mn0 O11 1.962140 1_555
Mn0 O13 2.012398 1_565
Mn0 O6 2.111442 1_565
Mn0 O16 2.488320 1_555
Mn1 O15 1.915046 1_555
Mn1 O10 1.934736 1_545
Mn1 O12 1.992872 1_555
Mn1 O1 2.022623 1_556
Mn1 O17 2.209278 1_545
Mn1 O7 2.265327 1_555
O0 P0 1.604136 1_565
O0 V1 1.894648 1_455
O1 P0 1.549787 1_555
O2 P0 1.556068 1_555
O2 V0 2.032954 1_555
O3 P1 1.588133 1_555
O3 V0 1.863687 1_555
O4 P1 1.556026 1_555
O4 V1 1.983636 1_455
O5 P2 1.562220 1_555
O5 V1 1.984862 1_455
O6 P0 1.506948 1_555
O7 P1 1.522339 1_555
O8 P1 1.520340 1_555
O9 P2 1.538977 1_555
O9 V0 1.924145 1_556
O10 P2 1.530733 1_555
O11 P2 1.554335 1_555
O12 P3 1.511185 1_555
O13 P3 1.568025 1_555
O14 P3 1.551241 1_555
O14 V1 1.906192 1_554
O15 P4 1.536356 1_555
O16 P4 1.541521 1_555
O17 P5 1.517533 1_555
O18 P3 1.573632 1_555
O18 V0 1.969333 1_655
O19 P4 1.557633 1_555
O19 V0 1.937971 1_655
O20 P4 1.575272 1_555
O20 V1 1.992681 1_555
O21 P5 1.564411 1_555
O21 V1 1.969584 1_555
O22 P5 1.545635 1_554
O23 P5 1.579499 1_545
O23 V0 2.050467 1_655
