# generated using pymatgen
data_Mg2Si
_symmetry_space_group_name_H-M   'P 1'
_cell_length_a   4.18131603
_cell_length_b   6.99495107
_cell_length_c   7.99003278
_cell_angle_alpha   90.00000000
_cell_angle_beta   90.00000000
_cell_angle_gamma   90.00000000
_symmetry_Int_Tables_number   1
_chemical_formula_structural   Mg2Si
_chemical_formula_sum   'Mg8 Si4'
_cell_volume   233.69328605
_cell_formula_units_Z   4
loop_
 _symmetry_equiv_pos_site_id
 _symmetry_equiv_pos_as_xyz
  1  'x, y, z'
loop_
 _atom_site_type_symbol
 _atom_site_label
 _atom_site_symmetry_multiplicity
 _atom_site_fract_x
 _atom_site_fract_y
 _atom_site_fract_z
 _atom_site_occupancy
  Mg  Mg0  1  0.75000000  0.46772891  0.66451166  1
  Mg  Mg1  1  0.75000000  0.96772891  0.83548834  1
  Mg  Mg2  1  0.25000000  0.53227109  0.33548834  1
  Mg  Mg3  1  0.25000000  0.03227109  0.16451166  1
  Mg  Mg4  1  0.75000000  0.36053379  0.05987502  1
  Mg  Mg5  1  0.75000000  0.86053379  0.44012498  1
  Mg  Mg6  1  0.25000000  0.63946621  0.94012498  1
  Mg  Mg7  1  0.25000000  0.13946621  0.55987502  1
  Si  Si0  1  0.75000000  0.24683734  0.37478403  1
  Si  Si1  1  0.75000000  0.74683734  0.12521597  1
  Si  Si2  1  0.25000000  0.75316266  0.62521597  1
  Si  Si3  1  0.25000000  0.25316266  0.87478403  1
loop_
_geom_bond_atom_site_label_1
_geom_bond_atom_site_label_2
_geom_bond_distance
_geom_bond_site_symmetry_2
Mg0 Si0 2.783223 1_555
Mg0 Si2 2.907890 1_555
Mg0 Si2 2.907890 1_655
Mg0 Si3 3.073463 1_655
Mg0 Si3 3.073463 1_555
Mg1 Si1 2.783223 1_556
Mg1 Si3 2.907890 1_565
Mg1 Si3 2.907890 1_665
Mg1 Si2 3.073463 1_555
Mg1 Si2 3.073463 1_655
Mg2 Si2 2.783223 1_555
Mg2 Si0 2.907890 1_555
Mg2 Si0 2.907890 1_455
Mg2 Si1 3.073463 1_555
Mg2 Si1 3.073463 1_455
Mg3 Si3 2.783223 1_554
Mg3 Si1 2.907890 1_545
Mg3 Si1 2.907890 1_445
Mg3 Si0 3.073463 1_555
Mg3 Si0 3.073463 1_455
Mg4 Si0 2.638831 1_555
Mg4 Si3 2.668713 1_554
Mg4 Si3 2.668713 1_654
Mg4 Si1 2.752146 1_555
Mg5 Si1 2.638831 1_555
Mg5 Si2 2.668713 1_655
Mg5 Si2 2.668713 1_555
Mg5 Si0 2.752146 1_565
Mg6 Si2 2.638831 1_555
Mg6 Si1 2.668713 1_456
Mg6 Si1 2.668713 1_556
Mg6 Si3 2.752146 1_555
Mg7 Si3 2.638831 1_555
Mg7 Si0 2.668713 1_555
Mg7 Si0 2.668713 1_455
Mg7 Si2 2.752146 1_545
