# generated using pymatgen
data_Dy2Nb2S7O30
_symmetry_space_group_name_H-M   'P 1'
_cell_length_a   12.83008900
_cell_length_b   12.83008900
_cell_length_c   7.13502800
_cell_angle_alpha   90.00000000
_cell_angle_beta   90.00000000
_cell_angle_gamma   90.00000000
_symmetry_Int_Tables_number   1
_chemical_formula_structural   Dy2Nb2S7O30
_chemical_formula_sum   'Dy4 Nb4 S14 O60'
_cell_volume   1174.50540515
_cell_formula_units_Z   2
loop_
 _symmetry_equiv_pos_site_id
 _symmetry_equiv_pos_as_xyz
  1  'x, y, z'
loop_
 _atom_site_type_symbol
 _atom_site_label
 _atom_site_symmetry_multiplicity
 _atom_site_fract_x
 _atom_site_fract_y
 _atom_site_fract_z
 _atom_site_occupancy
  Dy  Dy0  1  0.19865000  0.30135000  0.40756600  1
  Dy  Dy1  1  0.30135000  0.80135000  0.59243400  1
  Dy  Dy2  1  0.80135000  0.69865000  0.40756600  1
  Dy  Dy3  1  0.69865000  0.19865000  0.59243400  1
  Nb  Nb0  1  0.36097800  0.13902200  0.01960400  1
  Nb  Nb1  1  0.13902200  0.63902200  0.98039600  1
  Nb  Nb2  1  0.63902200  0.86097800  0.01960400  1
  Nb  Nb3  1  0.86097800  0.36097800  0.98039600  1
  S  S0  1  0.50000000  0.00000000  0.65336200  1
  S  S1  1  0.00000000  0.50000000  0.34663800  1
  S  S2  1  0.62388200  0.12388200  0.10633300  1
  S  S3  1  0.87611800  0.62388200  0.89366700  1
  S  S4  1  0.37611800  0.87611800  0.10633300  1
  S  S5  1  0.12388200  0.37611800  0.89366700  1
  S  S6  1  0.43558100  0.32318600  0.69931700  1
  S  S7  1  0.06441900  0.82318600  0.30068300  1
  S  S8  1  0.56441900  0.67681400  0.69931700  1
  S  S9  1  0.93558100  0.17681400  0.30068300  1
  S  S10  1  0.32318600  0.56441900  0.30068300  1
  S  S11  1  0.17681400  0.06441900  0.69931700  1
  S  S12  1  0.67681400  0.43558100  0.30068300  1
  S  S13  1  0.82318600  0.93558100  0.69931700  1
  O  O0  1  0.29753700  0.20246300  0.20961600  1
  O  O1  1  0.20246300  0.70246300  0.79038400  1
  O  O2  1  0.70246300  0.79753700  0.20961600  1
  O  O3  1  0.79753700  0.29753700  0.79038400  1
  O  O4  1  0.43232800  0.93232800  0.53925200  1
  O  O5  1  0.06767200  0.43232800  0.46074800  1
  O  O6  1  0.56767200  0.06767200  0.53925200  1
  O  O7  1  0.93232800  0.56767200  0.46074800  1
  O  O8  1  0.43349300  0.06650700  0.77556100  1
  O  O9  1  0.06650700  0.56650700  0.22443900  1
  O  O10  1  0.56650700  0.93349300  0.77556100  1
  O  O11  1  0.93349300  0.43349300  0.22443900  1
  O  O12  1  0.65655100  0.15655100  0.92067800  1
  O  O13  1  0.84344900  0.65655100  0.07932200  1
  O  O14  1  0.34344900  0.84344900  0.92067800  1
  O  O15  1  0.15655100  0.34344900  0.07932200  1
  O  O16  1  0.67684800  0.17684800  0.26017800  1
  O  O17  1  0.82315200  0.67684800  0.73982200  1
  O  O18  1  0.32315200  0.82315200  0.26017800  1
  O  O19  1  0.17684800  0.32315200  0.73982200  1
  O  O20  1  0.50861200  0.14247600  0.13087900  1
  O  O21  1  0.99138800  0.64247600  0.86912100  1
  O  O22  1  0.49138800  0.85752400  0.13087900  1
  O  O23  1  0.00861200  0.35752400  0.86912100  1
  O  O24  1  0.14247600  0.49138800  0.86912100  1
  O  O25  1  0.35752400  0.99138800  0.13087900  1
  O  O26  1  0.85752400  0.50861200  0.86912100  1
  O  O27  1  0.64247600  0.00861200  0.13087900  1
  O  O28  1  0.36820300  0.28835900  0.54438400  1
  O  O29  1  0.13179700  0.78835900  0.45561600  1
  O  O30  1  0.63179700  0.71164100  0.54438400  1
  O  O31  1  0.86820300  0.21164100  0.45561600  1
  O  O32  1  0.28835900  0.63179700  0.45561600  1
  O  O33  1  0.21164100  0.13179700  0.54438400  1
  O  O34  1  0.71164100  0.36820300  0.45561600  1
  O  O35  1  0.78835900  0.86820300  0.54438400  1
  O  O36  1  0.54384700  0.28983300  0.67217300  1
  O  O37  1  0.95615300  0.78983300  0.32782700  1
  O  O38  1  0.45615300  0.71016700  0.67217300  1
  O  O39  1  0.04384700  0.21016700  0.32782700  1
  O  O40  1  0.28983300  0.45615300  0.32782700  1
  O  O41  1  0.21016700  0.95615300  0.67217300  1
  O  O42  1  0.71016700  0.54384700  0.32782700  1
  O  O43  1  0.78983300  0.04384700  0.67217300  1
  O  O44  1  0.42499100  0.43571000  0.72734000  1
  O  O45  1  0.07500900  0.93571000  0.27266000  1
  O  O46  1  0.57500900  0.56429000  0.72734000  1
  O  O47  1  0.92499100  0.06429000  0.27266000  1
  O  O48  1  0.43571000  0.57500900  0.27266000  1
  O  O49  1  0.06429000  0.07500900  0.72734000  1
  O  O50  1  0.56429000  0.42499100  0.27266000  1
  O  O51  1  0.93571000  0.92499100  0.72734000  1
  O  O52  1  0.39467000  0.27035400  0.87923100  1
  O  O53  1  0.10533000  0.77035400  0.12076900  1
  O  O54  1  0.60533000  0.72964600  0.87923100  1
  O  O55  1  0.89467000  0.22964600  0.12076900  1
  O  O56  1  0.27035400  0.60533000  0.12076900  1
  O  O57  1  0.22964600  0.10533000  0.87923100  1
  O  O58  1  0.72964600  0.39467000  0.12076900  1
  O  O59  1  0.77035400  0.89467000  0.87923100  1
loop_
_geom_bond_atom_site_label_1
_geom_bond_atom_site_label_2
_geom_bond_distance
_geom_bond_site_symmetry_2
Dy0 O0 2.283454 1_555
Dy0 O40 2.374250 1_555
Dy0 O39 2.374250 1_555
Dy0 O33 2.390194 1_555
Dy0 O28 2.390194 1_555
Dy0 O19 2.403435 1_555
Dy0 O5 2.406631 1_555
Dy0 O15 2.463452 1_555
Dy1 O1 2.283454 1_555
Dy1 O38 2.374250 1_555
Dy1 O41 2.374250 1_555
Dy1 O32 2.390194 1_555
Dy1 O29 2.390194 1_555
Dy1 O18 2.403435 1_555
Dy1 O4 2.406631 1_555
Dy1 O14 2.463452 1_555
Dy2 O2 2.283454 1_555
Dy2 O42 2.374250 1_555
Dy2 O37 2.374250 1_555
Dy2 O30 2.390194 1_555
Dy2 O35 2.390194 1_555
Dy2 O17 2.403435 1_555
Dy2 O7 2.406631 1_555
Dy2 O13 2.463452 1_555
Dy3 O3 2.283454 1_555
Dy3 O43 2.374250 1_555
Dy3 O36 2.374250 1_555
Dy3 O31 2.390194 1_555
Dy3 O34 2.390194 1_555
Dy3 O16 2.403435 1_555
Dy3 O6 2.406631 1_555
Dy3 O12 2.463452 1_555
Nb0 O0 1.778503 1_555
Nb0 O52 2.007292 1_554
Nb0 O57 2.007292 1_554
Nb0 O25 2.054301 1_545
Nb0 O20 2.054301 1_555
Nb0 O8 2.182465 1_554
Nb1 O1 1.778503 1_555
Nb1 O56 2.007292 1_556
Nb1 O53 2.007292 1_556
Nb1 O21 2.054301 1_455
Nb1 O24 2.054301 1_555
Nb1 O9 2.182465 1_556
Nb2 O2 1.778503 1_555
Nb2 O59 2.007292 1_554
Nb2 O54 2.007292 1_554
Nb2 O22 2.054301 1_555
Nb2 O27 2.054301 1_565
Nb2 O10 2.182465 1_554
Nb3 O3 1.778503 1_555
Nb3 O58 2.007292 1_556
Nb3 O55 2.007292 1_556
Nb3 O26 2.054301 1_555
Nb3 O23 2.054301 1_655
Nb3 O11 2.182465 1_556
O4 S0 1.473282 1_565
O5 S1 1.473282 1_555
O6 S0 1.473282 1_555
O7 S1 1.473282 1_655
O8 S0 1.488761 1_555
O9 S1 1.488761 1_555
O10 S0 1.488761 1_565
O11 S1 1.488761 1_655
O12 S2 1.451232 1_556
O13 S3 1.451232 1_554
O14 S4 1.451232 1_556
O15 S5 1.451232 1_554
O16 S2 1.458945 1_555
O17 S3 1.458945 1_555
O18 S4 1.458945 1_555
O19 S5 1.458945 1_555
O20 S2 1.508245 1_555
O21 S3 1.508245 1_555
O22 S4 1.508245 1_555
O23 S5 1.508245 1_555
O24 S5 1.508245 1_555
O25 S4 1.508245 1_555
O26 S3 1.508245 1_555
O27 S2 1.508245 1_555
O28 S6 1.472747 1_555
O29 S7 1.472747 1_555
O30 S8 1.472747 1_555
O31 S9 1.472747 1_555
O32 S10 1.472747 1_555
O33 S11 1.472747 1_555
O34 S12 1.472747 1_555
O35 S13 1.472747 1_555
O36 S6 1.466329 1_555
O37 S7 1.466329 1_655
O38 S8 1.466329 1_555
O39 S9 1.466329 1_455
O40 S10 1.466329 1_555
O41 S11 1.466329 1_565
O42 S12 1.466329 1_555
O43 S13 1.466329 1_545
O44 S6 1.463792 1_555
O45 S7 1.463792 1_555
O46 S8 1.463792 1_555
O47 S9 1.463792 1_555
O48 S10 1.463792 1_555
O49 S11 1.463792 1_555
O50 S12 1.463792 1_555
O51 S13 1.463792 1_555
O52 S6 1.543645 1_555
O53 S7 1.543645 1_555
O54 S8 1.543645 1_555
O55 S9 1.543645 1_555
O56 S10 1.543645 1_555
O57 S11 1.543645 1_555
O58 S12 1.543645 1_555
O59 S13 1.543645 1_555
