# generated using pymatgen
data_Fe4P3H4NO12
_symmetry_space_group_name_H-M   'P 1'
_cell_length_a   6.33183400
_cell_length_b   9.94523100
_cell_length_c   16.96144900
_cell_angle_alpha   90.00000000
_cell_angle_beta   90.00000000
_cell_angle_gamma   90.00000000
_symmetry_Int_Tables_number   1
_chemical_formula_structural   Fe4P3H4NO12
_chemical_formula_sum   'Fe16 P12 H16 N4 O48'
_cell_volume   1068.08876403
_cell_formula_units_Z   4
loop_
 _symmetry_equiv_pos_site_id
 _symmetry_equiv_pos_as_xyz
  1  'x, y, z'
loop_
 _atom_site_type_symbol
 _atom_site_label
 _atom_site_symmetry_multiplicity
 _atom_site_fract_x
 _atom_site_fract_y
 _atom_site_fract_z
 _atom_site_occupancy
  Fe  Fe0  1  0.50000000  0.03458700  0.40574400  1
  Fe  Fe1  1  0.50000000  0.96541300  0.59425600  1
  Fe  Fe2  1  0.00000000  0.53458700  0.09425600  1
  Fe  Fe3  1  0.00000000  0.46541300  0.90574400  1
  Fe  Fe4  1  0.50000000  0.48624300  0.36205200  1
  Fe  Fe5  1  0.50000000  0.51375700  0.63794800  1
  Fe  Fe6  1  0.00000000  0.98624300  0.13794800  1
  Fe  Fe7  1  0.00000000  0.01375700  0.86205200  1
  Fe  Fe8  1  0.74903300  0.74799000  0.29594300  1
  Fe  Fe9  1  0.74903300  0.25201000  0.70405700  1
  Fe  Fe10  1  0.75096700  0.24799000  0.20405700  1
  Fe  Fe11  1  0.75096700  0.75201000  0.79594300  1
  Fe  Fe12  1  0.25096700  0.25201000  0.70405700  1
  Fe  Fe13  1  0.25096700  0.74799000  0.29594300  1
  Fe  Fe14  1  0.24903300  0.75201000  0.79594300  1
  Fe  Fe15  1  0.24903300  0.24799000  0.20405700  1
  P  P0  1  0.50000000  0.53899800  0.16759700  1
  P  P1  1  0.50000000  0.46100200  0.83240300  1
  P  P2  1  0.00000000  0.03899800  0.33240300  1
  P  P3  1  0.00000000  0.96100200  0.66759700  1
  P  P4  1  0.50000000  0.95916200  0.21516900  1
  P  P5  1  0.50000000  0.04083800  0.78483100  1
  P  P6  1  0.00000000  0.45916200  0.28483100  1
  P  P7  1  0.00000000  0.54083800  0.71516900  1
  P  P8  1  0.50000000  0.71170800  0.46220100  1
  P  P9  1  0.50000000  0.28829200  0.53779900  1
  P  P10  1  0.00000000  0.21170800  0.03779900  1
  P  P11  1  0.00000000  0.78829200  0.96220100  1
  H  H0  1  0.50000000  0.69281000  0.03499000  1
  H  H1  1  0.50000000  0.30719000  0.96501000  1
  H  H2  1  0.00000000  0.19281000  0.46501000  1
  H  H3  1  0.00000000  0.80719000  0.53499000  1
  H  H4  1  0.50000000  0.82738200  0.97415200  1
  H  H5  1  0.50000000  0.17261800  0.02584800  1
  H  H6  1  0.00000000  0.32738200  0.52584800  1
  H  H7  1  0.00000000  0.67261800  0.47415200  1
  H  H8  1  0.63300200  0.82997300  0.06132300  1
  H  H9  1  0.63300200  0.17002700  0.93867700  1
  H  H10  1  0.86699800  0.32997300  0.43867700  1
  H  H11  1  0.86699800  0.67002700  0.56132300  1
  H  H12  1  0.36699800  0.17002700  0.93867700  1
  H  H13  1  0.36699800  0.82997300  0.06132300  1
  H  H14  1  0.13300200  0.67002700  0.56132300  1
  H  H15  1  0.13300200  0.32997300  0.43867700  1
  N  N0  1  0.50000000  0.79631200  0.03202300  1
  N  N1  1  0.50000000  0.20368800  0.96797700  1
  N  N2  1  0.00000000  0.29631200  0.46797700  1
  N  N3  1  0.00000000  0.70368800  0.53202300  1
  O  O0  1  0.50000000  0.61570100  0.81588400  1
  O  O1  1  0.50000000  0.38429900  0.18411600  1
  O  O2  1  0.00000000  0.11570100  0.68411600  1
  O  O3  1  0.00000000  0.88429900  0.31588400  1
  O  O4  1  0.50000000  0.11482200  0.22386000  1
  O  O5  1  0.50000000  0.88517800  0.77614000  1
  O  O6  1  0.00000000  0.61482200  0.27614000  1
  O  O7  1  0.00000000  0.38517800  0.72386000  1
  O  O8  1  0.69903300  0.58062800  0.12252700  1
  O  O9  1  0.69903300  0.41937200  0.87747300  1
  O  O10  1  0.80096700  0.08062800  0.37747300  1
  O  O11  1  0.80096700  0.91937200  0.62252700  1
  O  O12  1  0.30096700  0.41937200  0.87747300  1
  O  O13  1  0.30096700  0.58062800  0.12252700  1
  O  O14  1  0.19903300  0.91937200  0.62252700  1
  O  O15  1  0.19903300  0.08062800  0.37747300  1
  O  O16  1  0.50000000  0.89493000  0.30067900  1
  O  O17  1  0.50000000  0.10507000  0.69932100  1
  O  O18  1  0.00000000  0.39493000  0.19932100  1
  O  O19  1  0.00000000  0.60507000  0.80067900  1
  O  O20  1  0.50000000  0.61472800  0.25105200  1
  O  O21  1  0.50000000  0.38527200  0.74894800  1
  O  O22  1  0.00000000  0.11472800  0.24894800  1
  O  O23  1  0.00000000  0.88527200  0.75105200  1
  O  O24  1  0.50000000  0.36051000  0.45832800  1
  O  O25  1  0.50000000  0.63949000  0.54167200  1
  O  O26  1  0.00000000  0.86051000  0.04167200  1
  O  O27  1  0.00000000  0.13949000  0.95832800  1
  O  O28  1  0.69524400  0.66900200  0.40993900  1
  O  O29  1  0.69524400  0.33099800  0.59006100  1
  O  O30  1  0.80475600  0.16900200  0.09006100  1
  O  O31  1  0.80475600  0.83099800  0.90993900  1
  O  O32  1  0.30475600  0.33099800  0.59006100  1
  O  O33  1  0.30475600  0.66900200  0.40993900  1
  O  O34  1  0.19524400  0.83099800  0.90993900  1
  O  O35  1  0.19524400  0.16900200  0.09006100  1
  O  O36  1  0.70376800  0.90681300  0.17562200  1
  O  O37  1  0.70376800  0.09318700  0.82437800  1
  O  O38  1  0.79623200  0.40681300  0.32437800  1
  O  O39  1  0.79623200  0.59318700  0.67562200  1
  O  O40  1  0.29623200  0.09318700  0.82437800  1
  O  O41  1  0.29623200  0.90681300  0.17562200  1
  O  O42  1  0.20376800  0.59318700  0.67562200  1
  O  O43  1  0.20376800  0.40681300  0.32437800  1
  O  O44  1  0.50000000  0.86574300  0.47888400  1
  O  O45  1  0.50000000  0.13425700  0.52111600  1
  O  O46  1  0.00000000  0.36574300  0.02111600  1
  O  O47  1  0.00000000  0.63425700  0.97888400  1
loop_
_geom_bond_atom_site_label_1
_geom_bond_atom_site_label_2
_geom_bond_distance
_geom_bond_site_symmetry_2
Fe0 O15 2.017719 1_555
Fe0 O10 2.017719 1_555
Fe0 O44 2.087745 1_545
Fe0 O45 2.193610 1_555
Fe0 O16 2.259385 1_545
Fe1 O14 2.017719 1_555
Fe1 O11 2.017719 1_555
Fe1 O45 2.087745 1_565
Fe1 O44 2.193610 1_555
Fe1 O17 2.259385 1_565
Fe2 O13 2.017719 1_555
Fe2 O8 2.017719 1_455
Fe2 O46 2.087745 1_555
Fe2 O47 2.193610 1_554
Fe2 O18 2.259385 1_555
Fe3 O9 2.017719 1_455
Fe3 O12 2.017719 1_555
Fe3 O47 2.087745 1_555
Fe3 O46 2.193610 1_556
Fe3 O19 2.259385 1_555
Fe4 O24 2.056753 1_555
Fe4 O43 2.133206 1_555
Fe4 O38 2.133206 1_555
Fe4 O20 2.275400 1_555
Fe4 O28 2.343425 1_555
Fe4 O33 2.343425 1_555
Fe5 O25 2.056753 1_555
Fe5 O42 2.133206 1_555
Fe5 O39 2.133206 1_555
Fe5 O21 2.275400 1_555
Fe5 O29 2.343425 1_555
Fe5 O32 2.343425 1_555
Fe6 O26 2.056753 1_555
Fe6 O36 2.133206 1_455
Fe6 O41 2.133206 1_555
Fe6 O22 2.275400 1_565
Fe6 O30 2.343425 1_465
Fe6 O35 2.343425 1_565
Fe7 O27 2.056753 1_555
Fe7 O40 2.133206 1_555
Fe7 O37 2.133206 1_455
Fe7 O23 2.275400 1_545
Fe7 O31 2.343425 1_445
Fe7 O34 2.343425 1_545
Fe8 O6 2.095710 1_655
Fe8 O28 2.114630 1_555
Fe8 O3 2.115962 1_655
Fe8 O16 2.151375 1_555
Fe8 O20 2.196052 1_555
Fe8 O36 2.596537 1_555
Fe9 O7 2.095710 1_655
Fe9 O29 2.114630 1_555
Fe9 O2 2.115962 1_655
Fe9 O17 2.151375 1_555
Fe9 O21 2.196052 1_555
Fe9 O37 2.596537 1_555
Fe10 O4 2.095710 1_555
Fe10 O30 2.114630 1_555
Fe10 O1 2.115962 1_555
Fe10 O18 2.151375 1_655
Fe10 O22 2.196052 1_655
Fe10 O38 2.596537 1_555
Fe11 O5 2.095710 1_555
Fe11 O31 2.114630 1_555
Fe11 O0 2.115962 1_555
Fe11 O19 2.151375 1_655
Fe11 O23 2.196052 1_655
Fe11 O39 2.596537 1_555
Fe12 O7 2.095710 1_555
Fe12 O32 2.114630 1_555
Fe12 O2 2.115962 1_555
Fe12 O17 2.151375 1_555
Fe12 O21 2.196052 1_555
Fe12 O40 2.596537 1_555
Fe13 O6 2.095710 1_555
Fe13 O33 2.114630 1_555
Fe13 O3 2.115962 1_555
Fe13 O16 2.151375 1_555
Fe13 O20 2.196052 1_555
Fe13 O41 2.596537 1_555
Fe14 O5 2.095710 1_555
Fe14 O34 2.114630 1_555
Fe14 O0 2.115962 1_555
Fe14 O19 2.151375 1_555
Fe14 O23 2.196052 1_555
Fe14 O42 2.596537 1_555
Fe15 O4 2.095710 1_555
Fe15 O35 2.114630 1_555
Fe15 O1 2.115962 1_555
Fe15 O18 2.151375 1_555
Fe15 O22 2.196052 1_555
Fe15 O43 2.596537 1_555
H0 N0 1.030581 1_555
H1 N1 1.030581 1_555
H2 N2 1.030581 1_555
H3 N3 1.030581 1_555
H4 N0 1.029063 1_556
H5 N1 1.029063 1_554
H6 N2 1.029063 1_555
H7 N3 1.029063 1_555
H8 N0 1.033566 1_555
H9 N1 1.033566 1_555
H10 N2 1.033566 1_655
H11 N3 1.033566 1_655
H12 N1 1.033566 1_555
H13 N0 1.033566 1_555
H14 N3 1.033566 1_555
H15 N2 1.033566 1_555
O0 P1 1.563822 1_555
O1 P0 1.563822 1_555
O2 P3 1.563822 1_545
O3 P2 1.563822 1_565
O4 P4 1.555077 1_545
O5 P5 1.555077 1_565
O6 P6 1.555077 1_555
O7 P7 1.555077 1_555
O8 P0 1.531018 1_555
O9 P1 1.531018 1_555
O10 P2 1.531018 1_655
O11 P3 1.531018 1_655
O12 P1 1.531018 1_555
O13 P0 1.531018 1_555
O14 P3 1.531018 1_555
O15 P2 1.531018 1_555
O16 P4 1.584819 1_555
O17 P5 1.584819 1_555
O18 P6 1.584819 1_555
O19 P7 1.584819 1_555
O20 P0 1.603412 1_555
O21 P1 1.603412 1_555
O22 P2 1.603412 1_555
O23 P3 1.603412 1_555
O24 P9 1.527350 1_555
O25 P8 1.527350 1_555
O26 P11 1.527350 1_554
O27 P10 1.527350 1_556
O28 P8 1.579393 1_555
O29 P9 1.579393 1_555
O30 P10 1.579393 1_655
O31 P11 1.579393 1_655
O32 P9 1.579393 1_555
O33 P8 1.579393 1_555
O34 P11 1.579393 1_555
O35 P10 1.579393 1_555
O36 P4 1.544561 1_555
O37 P5 1.544561 1_555
O38 P6 1.544561 1_655
O39 P7 1.544561 1_655
O40 P5 1.544561 1_555
O41 P4 1.544561 1_555
O42 P7 1.544561 1_555
O43 P6 1.544561 1_555
O44 P8 1.557829 1_555
O45 P9 1.557829 1_555
O46 P10 1.557829 1_555
O47 P11 1.557829 1_555
