# generated using pymatgen
data_PtS2(NO2)4
_symmetry_space_group_name_H-M   'P 1'
_cell_length_a   6.64606569
_cell_length_b   6.64606569
_cell_length_c   6.07846144
_cell_angle_alpha   73.20714777
_cell_angle_beta   73.20714777
_cell_angle_gamma   71.38946466
_symmetry_Int_Tables_number   1
_chemical_formula_structural   PtS2(NO2)4
_chemical_formula_sum   'Pt1 S2 N4 O8'
_cell_volume   237.80253207
_cell_formula_units_Z   1
loop_
 _symmetry_equiv_pos_site_id
 _symmetry_equiv_pos_as_xyz
  1  'x, y, z'
loop_
 _atom_site_type_symbol
 _atom_site_label
 _atom_site_symmetry_multiplicity
 _atom_site_fract_x
 _atom_site_fract_y
 _atom_site_fract_z
 _atom_site_occupancy
  Pt  Pt0  1  0.00000000  0.00000000  0.00000000  1
  S  S0  1  0.70390300  0.70390300  0.36377300  1
  S  S1  1  0.29609700  0.29609700  0.63622700  1
  N  N0  1  0.73842500  0.26157500  0.00000000  1
  N  N1  1  0.26157500  0.73842500  0.00000000  1
  N  N2  1  0.86782100  0.86782100  0.82551000  1
  N  N3  1  0.13217900  0.13217900  0.17449000  1
  O  O0  1  0.52117200  0.83269000  0.25068200  1
  O  O1  1  0.47882800  0.16731000  0.74931800  1
  O  O2  1  0.16731000  0.47882800  0.74931800  1
  O  O3  1  0.83269000  0.52117200  0.25068200  1
  O  O4  1  0.85756800  0.85756800  0.32371700  1
  O  O5  1  0.14243200  0.14243200  0.67628300  1
  O  O6  1  0.64003400  0.64003400  0.61906300  1
  O  O7  1  0.35996600  0.35996600  0.38093700  1
loop_
_geom_bond_atom_site_label_1
_geom_bond_atom_site_label_2
_geom_bond_distance
_geom_bond_site_symmetry_2
N0 Pt0 2.028649 1_655
N1 Pt0 2.028649 1_565
N2 Pt0 2.058560 1_666
N3 Pt0 2.058560 1_555
O0 S0 1.469343 1_555
O1 S1 1.469343 1_555
O2 S1 1.469343 1_555
O3 S0 1.469343 1_555
O4 S0 1.588585 1_555
O4 Pt0 2.020733 1_665
O5 S1 1.588585 1_555
O5 Pt0 2.020733 1_556
O6 S0 1.456757 1_555
O7 S1 1.456757 1_555
