# generated using pymatgen
data_Tm(CuS)2
_symmetry_space_group_name_H-M   'P 1'
_cell_length_a   3.93783822
_cell_length_b   3.93783822
_cell_length_c   6.23856500
_cell_angle_alpha   90.00000000
_cell_angle_beta   90.00000000
_cell_angle_gamma   120.00000372
_symmetry_Int_Tables_number   1
_chemical_formula_structural   Tm(CuS)2
_chemical_formula_sum   'Tm1 Cu2 S2'
_cell_volume   83.77820669
_cell_formula_units_Z   1
loop_
 _symmetry_equiv_pos_site_id
 _symmetry_equiv_pos_as_xyz
  1  'x, y, z'
loop_
 _atom_site_type_symbol
 _atom_site_label
 _atom_site_symmetry_multiplicity
 _atom_site_fract_x
 _atom_site_fract_y
 _atom_site_fract_z
 _atom_site_occupancy
  Tm  Tm0  1  0.00000000  0.00000000  0.00000000  1
  Cu  Cu0  1  0.66666700  0.33333300  0.66329300  1
  Cu  Cu1  1  0.33333300  0.66666700  0.33670700  1
  S  S0  1  0.66666700  0.33333300  0.26153900  1
  S  S1  1  0.33333300  0.66666700  0.73846100  1
loop_
_geom_bond_atom_site_label_1
_geom_bond_atom_site_label_2
_geom_bond_distance
_geom_bond_site_symmetry_2
Cu0 S1 2.321368 1_545
Cu0 S1 2.321368 1_655
Cu0 S1 2.321375 1_555
Cu0 S0 2.506368 1_555
Cu1 S0 2.321368 1_455
Cu1 S0 2.321368 1_565
Cu1 S0 2.321375 1_555
Cu1 S1 2.506368 1_555
S0 Tm0 2.798403 1_655
S0 Tm0 2.798405 1_665
S0 Tm0 2.798405 1_555
S1 Tm0 2.798403 1_566
S1 Tm0 2.798405 1_666
S1 Tm0 2.798405 1_556
