# generated using pymatgen
data_La12Ga23WO56
_symmetry_space_group_name_H-M   'P 1'
_cell_length_a   9.77615000
_cell_length_b   9.78199626
_cell_length_c   13.25586098
_cell_angle_alpha   98.40495372
_cell_angle_beta   98.36616961
_cell_angle_gamma   94.66262200
_symmetry_Int_Tables_number   1
_chemical_formula_structural   La12Ga23WO56
_chemical_formula_sum   'La12 Ga23 W1 O56'
_cell_volume   1233.87128138
_cell_formula_units_Z   1
loop_
 _symmetry_equiv_pos_site_id
 _symmetry_equiv_pos_as_xyz
  1  'x, y, z'
loop_
 _atom_site_type_symbol
 _atom_site_label
 _atom_site_symmetry_multiplicity
 _atom_site_fract_x
 _atom_site_fract_y
 _atom_site_fract_z
 _atom_site_occupancy
  La  La0  1  0.60477500  0.18576900  0.39607700  1
  La  La1  1  0.35559800  0.93556000  0.64749100  1
  La  La2  1  0.85901000  0.42388400  0.13998100  1
  La  La3  1  0.10416400  0.68396400  0.89293900  1
  La  La4  1  0.96891300  0.96889300  0.46942100  1
  La  La5  1  0.70985500  0.71028700  0.70964000  1
  La  La6  1  0.20971600  0.20946700  0.20989100  1
  La  La7  1  0.45896700  0.45898100  0.95822100  1
  La  La8  1  0.68347700  0.10390400  0.89314000  1
  La  La9  1  0.42381700  0.85902200  0.13948500  1
  La  La10  1  0.93564000  0.35584400  0.64700100  1
  La  La11  1  0.18553500  0.60494400  0.39634900  1
  Ga  Ga0  1  0.30242000  0.96708100  0.36913900  1
  Ga  Ga1  1  0.04922100  0.71553400  0.61637000  1
  Ga  Ga2  1  0.54670000  0.21834000  0.11673700  1
  Ga  Ga3  1  0.79952300  0.46352900  0.86654800  1
  Ga  Ga4  1  0.70224700  0.03574300  0.63405100  1
  Ga  Ga5  1  0.45136500  0.78317100  0.88326600  1
  Ga  Ga6  1  0.95073000  0.28070600  0.38133200  1
  Ga  Ga7  1  0.19775900  0.53558200  0.13219400  1
  Ga  Ga8  1  0.56132600  0.80371000  0.44019300  1
  Ga  Ga9  1  0.31571500  0.55358200  0.68435800  1
  Ga  Ga10  1  0.81736700  0.05958200  0.18189400  1
  Ga  Ga11  1  0.06543100  0.30241500  0.93304800  1
  Ga  Ga12  1  0.25852800  0.25682900  0.50624700  1
  Ga  Ga13  1  0.00605600  0.00622500  0.75737400  1
  Ga  Ga14  1  0.49884500  0.50048500  0.25709800  1
  Ga  Ga15  1  0.75703800  0.75687500  0.99938400  1
  Ga  Ga16  1  0.55303600  0.31604700  0.68431300  1
  Ga  Ga17  1  0.30274400  0.06703800  0.93421000  1
  Ga  Ga18  1  0.80401700  0.55957100  0.43933600  1
  Ga  Ga19  1  0.05989200  0.81774800  0.18231200  1
  Ga  Ga20  1  0.00042100  0.99990900  0.99957800  1
  Ga  Ga21  1  0.25035200  0.25002200  0.74998100  1
  Ga  Ga22  1  0.49991600  0.49998400  0.50049600  1
  W  W0  1  0.74996100  0.74989100  0.25017700  1
  O  O0  1  0.53376200  0.31352800  0.54263100  1
  O  O1  1  0.28388900  0.06319200  0.79319800  1
  O  O2  1  0.78937700  0.57295700  0.29383300  1
  O  O3  1  0.02891500  0.81064400  0.04191600  1
  O  O4  1  0.73953200  0.82274500  0.39368200  1
  O  O5  1  0.49283800  0.57033500  0.65025800  1
  O  O6  1  0.99537900  0.06569500  0.15300100  1
  O  O7  1  0.24298800  0.32004800  0.90093900  1
  O  O8  1  0.04397600  0.18738500  0.73473700  1
  O  O9  1  0.79300300  0.94144300  0.99048300  1
  O  O10  1  0.29400100  0.43788900  0.48471300  1
  O  O11  1  0.55221200  0.68539400  0.23128200  1
  O  O12  1  0.93523800  0.85254100  0.28104500  1
  O  O13  1  0.68731400  0.61793300  0.52944400  1
  O  O14  1  0.18965400  0.11127700  0.03259000  1
  O  O15  1  0.43937700  0.36172000  0.78115500  1
  O  O16  1  0.43312200  0.65051300  0.41872800  1
  O  O17  1  0.18258600  0.40350900  0.67407200  1
  O  O18  1  0.68541000  0.90190300  0.18111000  1
  O  O19  1  0.93188800  0.15353200  0.92457900  1
  O  O20  1  0.30562000  0.16245500  0.61559200  1
  O  O21  1  0.05713800  0.91309200  0.86633400  1
  O  O22  1  0.56312800  0.41562400  0.36665200  1
  O  O23  1  0.79834100  0.66536100  0.11878700  1
  O  O24  1  0.20851700  0.87882900  0.45395300  1
  O  O25  1  0.96126300  0.62772300  0.70457000  1
  O  O26  1  0.46214900  0.12532100  0.20408500  1
  O  O27  1  0.71424000  0.38017700  0.95841800  1
  O  O28  1  0.79034800  0.11849600  0.54325100  1
  O  O29  1  0.53944400  0.87165800  0.79544600  1
  O  O30  1  0.03439700  0.37160900  0.29258700  1
  O  O31  1  0.29040100  0.62578700  0.04776500  1
  O  O32  1  0.84575500  0.38456800  0.46486700  1
  O  O33  1  0.09244800  0.64010100  0.21528500  1
  O  O34  1  0.34698400  0.88960600  0.96649800  1
  O  O35  1  0.59569900  0.13887900  0.71565600  1
  O  O36  1  0.82073900  0.12876700  0.32343300  1
  O  O37  1  0.06956500  0.38234300  0.07443000  1
  O  O38  1  0.32146500  0.63206200  0.82563100  1
  O  O39  1  0.57171700  0.88381600  0.57696900  1
  O  O40  1  0.06189800  0.20539200  0.48133200  1
  O  O41  1  0.30700000  0.45729800  0.23165500  1
  O  O42  1  0.56267300  0.70839100  0.98456700  1
  O  O43  1  0.81088700  0.95585200  0.73219700  1
  O  O44  1  0.48117500  0.16988700  0.97638500  1
  O  O45  1  0.73101500  0.41858200  0.72632000  1
  O  O46  1  0.97764800  0.66979800  0.47526100  1
  O  O47  1  0.23288800  0.92013200  0.22746600  1
  O  O48  1  0.73557900  0.19628200  0.11733300  1
  O  O49  1  0.98765300  0.44455000  0.86742200  1
  O  O50  1  0.23679100  0.69463900  0.61633100  1
  O  O51  1  0.48884200  0.94104000  0.36639500  1
  O  O52  1  0.55650700  0.41188500  0.13577300  1
  O  O53  1  0.80603400  0.65707800  0.88243700  1
  O  O54  1  0.05393400  0.90936800  0.63334500  1
  O  O55  1  0.30558000  0.15925800  0.38290400  1
loop_
_geom_bond_atom_site_label_1
_geom_bond_atom_site_label_2
_geom_bond_distance
_geom_bond_site_symmetry_2
La0 O0 2.375216 1_555
La0 O22 2.394242 1_555
La0 O36 2.514324 1_555
La0 O51 2.514769 1_545
La0 O28 2.658924 1_555
La0 O26 2.676625 1_555
La0 O32 2.876612 1_555
La0 O55 2.892756 1_555
La1 O1 2.368996 1_565
La1 O20 2.394616 1_565
La1 O39 2.490857 1_555
La1 O50 2.490869 1_555
La1 O29 2.642519 1_555
La1 O24 2.708863 1_555
La1 O35 2.894853 1_565
La1 O54 2.915520 1_555
La2 O37 2.389666 1_655
La2 O48 2.401142 1_555
La2 O23 2.526586 1_555
La2 O2 2.538731 1_555
La2 O27 2.566709 1_554
La2 O30 2.594071 1_655
La2 O33 2.934803 1_655
La2 O52 2.942150 1_555
La3 O21 2.389709 1_555
La3 O3 2.414998 1_556
La3 O49 2.473690 1_455
La3 O38 2.482187 1_555
La3 O25 2.635842 1_455
La3 O31 2.696927 1_556
La3 O53 2.886146 1_455
La3 O34 2.934127 1_555
La4 O54 2.382145 1_655
La4 O40 2.390146 1_665
La4 O4 2.546466 1_555
La4 O12 2.551124 1_555
La4 O28 2.576934 1_565
La4 O24 2.593749 1_655
La4 O46 2.945876 1_555
La4 O36 2.954045 1_565
La5 O5 2.392018 1_555
La5 O13 2.398747 1_555
La5 O43 2.480622 1_555
La5 O53 2.490600 1_555
La5 O29 2.648588 1_555
La5 O25 2.655656 1_555
La5 O39 2.890032 1_555
La5 O45 2.915647 1_555
La6 O14 2.379102 1_555
La6 O6 2.385013 1_455
La6 O55 2.481541 1_555
La6 O41 2.491133 1_555
La6 O30 2.671202 1_555
La6 O26 2.672187 1_555
La6 O47 2.897875 1_545
La6 O37 2.917160 1_555
La7 O15 2.374399 1_555
La7 O7 2.376344 1_555
La7 O42 2.519497 1_555
La7 O52 2.529088 1_556
La7 O27 2.670887 1_555
La7 O31 2.688343 1_556
La7 O38 2.883581 1_555
La7 O44 2.895838 1_555
La8 O19 2.400345 1_555
La8 O9 2.410629 1_545
La8 O35 2.466614 1_555
La8 O44 2.485981 1_555
La8 O29 2.628728 1_545
La8 O27 2.692811 1_555
La8 O43 2.892015 1_545
La8 O48 2.933877 1_556
La9 O34 2.376518 1_554
La9 O47 2.410930 1_555
La9 O18 2.523464 1_555
La9 O11 2.539140 1_555
La9 O31 2.574590 1_555
La9 O26 2.599081 1_565
La9 O42 2.912531 1_554
La9 O51 2.958102 1_555
La10 O8 2.382297 1_655
La10 O17 2.385462 1_655
La10 O45 2.471227 1_555
La10 O32 2.510230 1_555
La10 O25 2.638353 1_555
La10 O28 2.694694 1_555
La10 O49 2.881591 1_555
La10 O40 2.941357 1_655
La11 O10 2.376273 1_555
La11 O16 2.392124 1_555
La11 O46 2.502262 1_455
La11 O33 2.522652 1_555
La11 O24 2.658103 1_555
La11 O30 2.688362 1_555
La11 O50 2.877434 1_555
La11 O41 2.893721 1_555
Ga0 O24 1.818581 1_555
Ga0 O55 1.859252 1_565
Ga0 O51 1.865405 1_555
Ga0 O47 1.877628 1_555
Ga1 O25 1.819409 1_455
Ga1 O50 1.861574 1_555
Ga1 O54 1.872416 1_555
Ga1 O46 1.874086 1_455
Ga2 O26 1.821009 1_555
Ga2 O44 1.855383 1_554
Ga2 O52 1.865764 1_555
Ga2 O48 1.875432 1_555
Ga3 O27 1.821595 1_555
Ga3 O45 1.856904 1_555
Ga3 O49 1.862029 1_555
Ga3 O53 1.868933 1_555
Ga4 O28 1.821805 1_555
Ga4 O35 1.858141 1_555
Ga4 O43 1.860497 1_545
Ga4 O39 1.868565 1_545
Ga5 O29 1.819607 1_555
Ga5 O38 1.861094 1_555
Ga5 O34 1.872734 1_555
Ga5 O42 1.874497 1_555
Ga6 O30 1.819666 1_655
Ga6 O40 1.864805 1_655
Ga6 O32 1.866251 1_555
Ga6 O36 1.867791 1_555
Ga7 O31 1.818009 1_555
Ga7 O41 1.866441 1_555
Ga7 O37 1.866462 1_555
Ga7 O33 1.868245 1_555
Ga8 O16 1.834056 1_555
Ga8 O39 1.851958 1_555
Ga8 O51 1.897618 1_555
Ga8 O4 1.934770 1_555
Ga9 O5 1.852794 1_555
Ga9 O17 1.856544 1_555
Ga9 O38 1.908290 1_555
Ga9 O50 1.909647 1_555
Ga10 O6 1.833725 1_555
Ga10 O48 1.862546 1_555
Ga10 O36 1.893801 1_555
Ga10 O18 1.926462 1_545
Ga11 O7 1.847101 1_555
Ga11 O19 1.854316 1_455
Ga11 O49 1.897637 1_455
Ga11 O37 1.915670 1_556
Ga12 O10 1.848077 1_555
Ga12 O20 1.852353 1_555
Ga12 O55 1.905219 1_555
Ga12 O40 1.914902 1_555
Ga13 O21 1.847774 1_545
Ga13 O8 1.857109 1_555
Ga13 O43 1.899586 1_445
Ga13 O54 1.913246 1_545
Ga14 O22 1.834298 1_555
Ga14 O41 1.858818 1_555
Ga14 O52 1.895048 1_555
Ga14 O11 1.934031 1_555
Ga15 O9 1.835297 1_555
Ga15 O53 1.853467 1_555
Ga15 O42 1.895178 1_555
Ga15 O23 1.938202 1_556
Ga16 O15 1.846707 1_555
Ga16 O0 1.856387 1_555
Ga16 O45 1.901200 1_555
Ga16 O35 1.904639 1_555
Ga17 O1 1.845937 1_555
Ga17 O14 1.855440 1_556
Ga17 O44 1.906311 1_555
Ga17 O34 1.915209 1_545
Ga18 O13 1.832329 1_555
Ga18 O32 1.858576 1_555
Ga18 O46 1.894150 1_555
Ga18 O2 1.937607 1_555
Ga19 O3 1.831634 1_555
Ga19 O47 1.864508 1_555
Ga19 O33 1.893031 1_555
Ga19 O12 1.927480 1_455
Ga20 O21 2.017767 1_555
Ga20 O14 2.024374 1_566
Ga20 O19 2.025365 1_465
Ga20 O3 2.040176 1_556
Ga20 O9 2.042927 1_455
Ga20 O6 2.050471 1_466
Ga21 O15 2.024105 1_555
Ga21 O20 2.026930 1_555
Ga21 O17 2.028551 1_555
Ga21 O1 2.030893 1_555
Ga21 O7 2.031733 1_555
Ga21 O8 2.032487 1_555
Ga22 O5 2.016883 1_555
Ga22 O0 2.022436 1_555
Ga22 O10 2.026479 1_555
Ga22 O13 2.038906 1_555
Ga22 O22 2.045643 1_555
Ga22 O16 2.046059 1_555
O2 W0 1.953272 1_555
O4 W0 1.951638 1_555
O11 W0 1.952624 1_555
O12 W0 1.955763 1_555
O18 W0 1.957034 1_555
O23 W0 1.955295 1_555
