# generated using pymatgen
data_TeC2S2(IN2)2
_symmetry_space_group_name_H-M   'P 1'
_cell_length_a   8.26188000
_cell_length_b   8.89727089
_cell_length_c   11.42324540
_cell_angle_alpha   112.43740396
_cell_angle_beta   90.00000000
_cell_angle_gamma   117.66447150
_symmetry_Int_Tables_number   1
_chemical_formula_structural   TeC2S2(IN2)2
_chemical_formula_sum   'Te2 C4 S4 I4 N8'
_cell_volume   671.10903497
_cell_formula_units_Z   2
loop_
 _symmetry_equiv_pos_site_id
 _symmetry_equiv_pos_as_xyz
  1  'x, y, z'
loop_
 _atom_site_type_symbol
 _atom_site_label
 _atom_site_symmetry_multiplicity
 _atom_site_fract_x
 _atom_site_fract_y
 _atom_site_fract_z
 _atom_site_occupancy
  Te  Te0  1  0.09788300  0.00000000  0.75000000  1
  Te  Te1  1  0.90211700  0.00000000  0.25000000  1
  C  C0  1  0.23991500  0.73498200  0.46652700  1
  C  C1  1  0.50493400  0.26501800  0.03347300  1
  C  C2  1  0.76008500  0.26501800  0.53347300  1
  C  C3  1  0.49506600  0.73498200  0.96652700  1
  S  S0  1  0.26545900  0.76302200  0.61378700  1
  S  S1  1  0.50243700  0.23697800  0.88621300  1
  S  S2  1  0.73454100  0.23697800  0.38621300  1
  S  S3  1  0.49756300  0.76302200  0.11378700  1
  I  I0  1  0.76404800  0.74442500  0.55930900  1
  I  I1  1  0.01962300  0.25557500  0.94069100  1
  I  I2  1  0.23595200  0.25557500  0.44069100  1
  I  I3  1  0.98037700  0.74442500  0.05930900  1
  N  N0  1  0.22778100  0.63575200  0.33602000  1
  N  N1  1  0.59202900  0.36424800  0.16398000  1
  N  N2  1  0.77221900  0.36424800  0.66398000  1
  N  N3  1  0.40797100  0.63575200  0.83602000  1
  N  N4  1  0.21699700  0.78980200  0.37212100  1
  N  N5  1  0.42719500  0.21019800  0.12787900  1
  N  N6  1  0.78300300  0.21019800  0.62787900  1
  N  N7  1  0.57280500  0.78980200  0.87212100  1
loop_
_geom_bond_atom_site_label_1
_geom_bond_atom_site_label_2
_geom_bond_distance
_geom_bond_site_symmetry_2
C0 N4 1.387092 1_555
C0 N0 1.387493 1_555
C0 S0 1.602275 1_555
C1 N5 1.387094 1_555
C1 N1 1.387491 1_555
C1 S1 1.602275 1_554
C2 N6 1.387092 1_555
C2 N2 1.387493 1_555
C2 S2 1.602275 1_555
C3 N7 1.387094 1_555
C3 N3 1.387491 1_555
C3 S3 1.602275 1_556
S0 Te0 2.998309 1_565
S1 Te0 2.998309 1_555
S2 Te1 2.998309 1_555
S3 Te1 2.998309 1_565
I0 Te0 2.813890 1_665
I1 Te0 2.813890 1_555
I2 Te1 2.813890 1_455
I3 Te1 2.813890 1_565
N0 N4 1.318538 1_555
N1 N5 1.318538 1_555
N2 N6 1.318538 1_555
N3 N7 1.318538 1_555
