# generated using pymatgen
data_Li4MnCo2O7
_symmetry_space_group_name_H-M   'P 1'
_cell_length_a   3.02850800
_cell_length_b   8.03693422
_cell_length_c   10.69749927
_cell_angle_alpha   78.55604412
_cell_angle_beta   86.88218685
_cell_angle_gamma   89.11708098
_symmetry_Int_Tables_number   1
_chemical_formula_structural   Li4MnCo2O7
_chemical_formula_sum   'Li8 Mn2 Co4 O14'
_cell_volume   254.81921474
_cell_formula_units_Z   2
loop_
 _symmetry_equiv_pos_site_id
 _symmetry_equiv_pos_as_xyz
  1  'x, y, z'
loop_
 _atom_site_type_symbol
 _atom_site_label
 _atom_site_symmetry_multiplicity
 _atom_site_fract_x
 _atom_site_fract_y
 _atom_site_fract_z
 _atom_site_occupancy
  Li  Li0  1  0.14450500  0.06726300  0.70960800  1
  Li  Li1  1  0.85460000  0.92935200  0.28721400  1
  Li  Li2  1  0.57338800  0.78297000  0.85563700  1
  Li  Li3  1  0.71518800  0.35724600  0.57041000  1
  Li  Li4  1  0.42658000  0.21541300  0.14478800  1
  Li  Li5  1  0.28568500  0.64557300  0.43114100  1
  Li  Li6  1  0.00072800  0.50187600  0.00110400  1
  Li  Li7  1  0.71400600  0.85803100  0.57076000  1
  Mn  Mn0  1  0.99917100  0.99689500  0.00183600  1
  Mn  Mn1  1  0.57424900  0.28988700  0.85461500  1
  Co  Co0  1  0.42756600  0.71132500  0.14543900  1
  Co  Co1  1  0.14948200  0.58478600  0.70639600  1
  Co  Co2  1  0.85765300  0.42654900  0.28631200  1
  Co  Co3  1  0.28213000  0.13233300  0.43401900  1
  O  O0  1  0.59436900  0.04328900  0.85943600  1
  O  O1  1  0.29145200  0.91781400  0.42536400  1
  O  O2  1  0.02109100  0.75338700  0.00916900  1
  O  O3  1  0.15910900  0.34097100  0.71779800  1
  O  O4  1  0.87605800  0.18862800  0.29480400  1
  O  O5  1  0.72763200  0.60463200  0.58136900  1
  O  O6  1  0.44851600  0.47309700  0.15141100  1
  O  O7  1  0.69720000  0.11126600  0.56022400  1
  O  O8  1  0.41118600  0.95246500  0.13976900  1
  O  O9  1  0.13468000  0.79796200  0.71692500  1
  O  O10  1  0.26665200  0.37551400  0.41956400  1
  O  O11  1  0.97784100  0.24276500  0.99659100  1
  O  O12  1  0.83779400  0.66734700  0.27994700  1
  O  O13  1  0.55149000  0.53136500  0.84835100  1
loop_
_geom_bond_atom_site_label_1
_geom_bond_atom_site_label_2
_geom_bond_distance
_geom_bond_site_symmetry_2
Li0 O7 2.123762 1_455
Li0 O0 2.137551 1_555
Li0 O9 2.150802 1_545
Li0 O3 2.220030 1_555
Li0 O0 2.231316 1_455
Li0 O7 2.232386 1_555
Li1 O1 2.024240 1_655
Li1 O4 2.103534 1_565
Li1 O8 2.105266 1_555
Li1 O12 2.123998 1_555
Li1 O1 2.185797 1_555
Li1 O8 2.228870 1_655
Li2 O9 2.029835 1_555
Li2 O13 2.041257 1_555
Li2 O0 2.102610 1_565
Li2 O2 2.160965 1_656
Li2 O9 2.183336 1_655
Li2 O2 2.260578 1_556
Li3 O7 2.003127 1_555
Li3 O5 2.015809 1_555
Li3 O3 2.110408 1_655
Li3 O10 2.146863 1_555
Li3 O3 2.230541 1_555
Li3 O10 2.243917 1_655
Li4 O6 2.088398 1_555
Li4 O11 2.120233 1_454
Li4 O8 2.125890 1_545
Li4 O4 2.136871 1_555
Li4 O11 2.221251 1_554
Li4 O4 2.232576 1_455
Li5 O5 2.119650 1_555
Li5 O12 2.146055 1_455
Li5 O1 2.176878 1_555
Li5 O10 2.200181 1_555
Li5 O12 2.246092 1_555
Li5 O5 2.249246 1_455
Li6 O2 2.042263 1_555
Li6 O11 2.094868 1_454
Li6 O6 2.134926 1_555
Li6 O13 2.157686 1_454
Li6 O6 2.237756 1_455
Li6 O13 2.251792 1_554
Li7 O7 2.015905 1_565
Li7 O5 2.017009 1_555
Li7 O1 2.046634 1_555
Li7 O9 2.049200 1_655
Li7 O1 2.267555 1_655
Li7 O9 2.276907 1_555
Mn0 O2 1.943265 1_655
Mn0 O8 1.959380 1_655
Mn0 O11 1.965839 1_564
Mn0 O0 1.981453 1_564
Mn0 O8 2.236152 1_555
Mn0 O0 2.281535 1_664
Mn1 O13 1.928859 1_555
Mn1 O3 1.958873 1_555
Mn1 O0 1.972392 1_555
Mn1 O11 1.975738 1_555
Mn1 O3 2.224857 1_655
Mn1 O11 2.281890 1_455
Co0 O6 1.903168 1_555
Co0 O8 1.926864 1_555
Co0 O12 1.928205 1_555
Co0 O2 1.934303 1_555
Co0 O12 2.218939 1_455
Co0 O2 2.237955 1_655
Co1 O9 1.738876 1_555
Co1 O5 1.881867 1_455
Co1 O3 1.938878 1_555
Co1 O13 1.974569 1_555
Co1 O5 2.132899 1_555
Co1 O13 2.288288 1_455
Co2 O4 1.896321 1_555
Co2 O10 1.918033 1_655
Co2 O12 1.923050 1_555
Co2 O6 1.929715 1_555
Co2 O10 2.217392 1_555
Co2 O6 2.224875 1_655
Co3 O1 1.744524 1_545
Co3 O7 1.875867 1_555
Co3 O10 1.929752 1_555
Co3 O4 1.962056 1_455
Co3 O7 2.155886 1_455
Co3 O4 2.263685 1_555
