# generated using pymatgen
data_BaYCuWO5
_symmetry_space_group_name_H-M   'P 1'
_cell_length_a   4.03677400
_cell_length_b   4.03677400
_cell_length_c   8.00269400
_cell_angle_alpha   90.00000000
_cell_angle_beta   90.00000000
_cell_angle_gamma   90.00000000
_symmetry_Int_Tables_number   1
_chemical_formula_structural   BaYCuWO5
_chemical_formula_sum   'Ba1 Y1 Cu1 W1 O5'
_cell_volume   130.40825481
_cell_formula_units_Z   1
loop_
 _symmetry_equiv_pos_site_id
 _symmetry_equiv_pos_as_xyz
  1  'x, y, z'
loop_
 _atom_site_type_symbol
 _atom_site_label
 _atom_site_symmetry_multiplicity
 _atom_site_fract_x
 _atom_site_fract_y
 _atom_site_fract_z
 _atom_site_occupancy
  Ba  Ba0  1  0.00000000  0.00000000  0.99712600  1
  Y  Y0  1  0.00000000  0.00000000  0.43355500  1
  Cu  Cu0  1  0.50000000  0.50000000  0.28878600  1
  W  W0  1  0.50000000  0.50000000  0.67740600  1
  O  O0  1  0.00000000  0.50000000  0.64479900  1
  O  O1  1  0.50000000  0.00000000  0.64479900  1
  O  O2  1  0.00000000  0.50000000  0.28376800  1
  O  O3  1  0.50000000  0.00000000  0.28376800  1
  O  O4  1  0.50000000  0.50000000  0.93390900  1
loop_
_geom_bond_atom_site_label_1
_geom_bond_atom_site_label_2
_geom_bond_distance
_geom_bond_site_symmetry_2
Ba0 O4 2.898916 1_455
Ba0 O4 2.898916 1_445
Ba0 O4 2.898916 1_545
Ba0 O4 2.898916 1_555
Ba0 O2 3.055471 1_546
Ba0 O3 3.055471 1_556
Ba0 O2 3.055471 1_556
Ba0 O3 3.055471 1_456
Cu0 O2 2.018786 1_555
Cu0 O2 2.018786 1_655
Cu0 O3 2.018786 1_565
Cu0 O3 2.018786 1_555
O0 W0 2.035185 1_555
O0 W0 2.035185 1_455
O0 Y0 2.632821 1_555
O0 Y0 2.632821 1_565
O1 W0 2.035185 1_545
O1 W0 2.035185 1_555
O1 Y0 2.632821 1_555
O1 Y0 2.632821 1_655
O2 Y0 2.347502 1_565
O2 Y0 2.347502 1_555
O3 Y0 2.347502 1_655
O3 Y0 2.347502 1_555
O4 W0 2.052715 1_555
