# generated using pymatgen
data_KTaP4O13
_symmetry_space_group_name_H-M   'P 1'
_cell_length_a   7.18496900
_cell_length_b   8.54390800
_cell_length_c   18.52335000
_cell_angle_alpha   90.00000000
_cell_angle_beta   90.00000000
_cell_angle_gamma   90.00000000
_symmetry_Int_Tables_number   1
_chemical_formula_structural   KTaP4O13
_chemical_formula_sum   'K4 Ta4 P16 O52'
_cell_volume   1137.10611432
_cell_formula_units_Z   4
loop_
 _symmetry_equiv_pos_site_id
 _symmetry_equiv_pos_as_xyz
  1  'x, y, z'
loop_
 _atom_site_type_symbol
 _atom_site_label
 _atom_site_symmetry_multiplicity
 _atom_site_fract_x
 _atom_site_fract_y
 _atom_site_fract_z
 _atom_site_occupancy
  K  K0  1  0.23892600  0.79288200  0.97946700  1
  K  K1  1  0.73892600  0.70711800  0.02053300  1
  K  K2  1  0.76107400  0.29288200  0.52053300  1
  K  K3  1  0.26107400  0.20711800  0.47946700  1
  Ta  Ta0  1  0.26531700  0.78124800  0.70691200  1
  Ta  Ta1  1  0.76531700  0.71875200  0.29308800  1
  Ta  Ta2  1  0.73468300  0.28124800  0.79308800  1
  Ta  Ta3  1  0.23468300  0.21875200  0.20691200  1
  P  P0  1  0.09536200  0.16006800  0.67907900  1
  P  P1  1  0.59536200  0.33993200  0.32092100  1
  P  P2  1  0.90463800  0.66006800  0.82092100  1
  P  P3  1  0.40463800  0.83993200  0.17907900  1
  P  P4  1  0.40223100  0.39830900  0.66964000  1
  P  P5  1  0.90223100  0.10169100  0.33036000  1
  P  P6  1  0.59776900  0.89830900  0.83036000  1
  P  P7  1  0.09776900  0.60169100  0.16964000  1
  P  P8  1  0.43162700  0.79283100  0.42618000  1
  P  P9  1  0.93162700  0.70716900  0.57382000  1
  P  P10  1  0.56837300  0.29283100  0.07382000  1
  P  P11  1  0.06837300  0.20716900  0.92618000  1
  P  P12  1  0.57190200  0.88747400  0.56985500  1
  P  P13  1  0.07190200  0.61252600  0.43014500  1
  P  P14  1  0.42809800  0.38747400  0.93014500  1
  P  P15  1  0.92809800  0.11252600  0.06985500  1
  O  O0  1  0.05015200  0.16487900  0.60135800  1
  O  O1  1  0.55015200  0.33512100  0.39864200  1
  O  O2  1  0.94984800  0.66487900  0.89864200  1
  O  O3  1  0.44984800  0.83512100  0.10135800  1
  O  O4  1  0.17522100  0.00153800  0.70704700  1
  O  O5  1  0.67522100  0.49846200  0.29295300  1
  O  O6  1  0.82477900  0.50153800  0.79295300  1
  O  O7  1  0.32477900  0.99846200  0.20704700  1
  O  O8  1  0.07013600  0.70357900  0.76986600  1
  O  O9  1  0.57013600  0.79642100  0.23013400  1
  O  O10  1  0.92986400  0.20357900  0.73013400  1
  O  O11  1  0.42986400  0.29642100  0.26986600  1
  O  O12  1  0.41538700  0.38973400  0.59036700  1
  O  O13  1  0.91538700  0.11026600  0.40963300  1
  O  O14  1  0.58461300  0.88973400  0.90963300  1
  O  O15  1  0.08461300  0.61026600  0.09036700  1
  O  O16  1  0.42265000  0.83771500  0.78836100  1
  O  O17  1  0.92265000  0.66228500  0.21163900  1
  O  O18  1  0.24362800  0.28888800  0.70512700  1
  O  O19  1  0.57735000  0.33771500  0.71163900  1
  O  O20  1  0.35559900  0.56256700  0.70152700  1
  O  O21  1  0.85559900  0.93743300  0.29847300  1
  O  O22  1  0.64440100  0.06256700  0.79847300  1
  O  O23  1  0.14440100  0.43743300  0.20152700  1
  O  O24  1  0.02446900  0.17075700  0.13887700  1
  O  O25  1  0.52446900  0.32924300  0.86112300  1
  O  O26  1  0.97553100  0.67075700  0.36112300  1
  O  O27  1  0.47553100  0.82924300  0.63887700  1
  O  O28  1  0.70954100  0.14686700  0.07992500  1
  O  O29  1  0.20954100  0.35313300  0.92007500  1
  O  O30  1  0.29045900  0.64686700  0.42007500  1
  O  O31  1  0.79045900  0.85313300  0.57992500  1
  O  O32  1  0.99371700  0.23331300  0.00803700  1
  O  O33  1  0.49371700  0.26668700  0.99196300  1
  O  O34  1  0.00628300  0.73331300  0.49196300  1
  O  O35  1  0.50628300  0.76668700  0.50803700  1
  O  O36  1  0.95680900  0.94693400  0.05144800  1
  O  O37  1  0.45680900  0.55306600  0.94855200  1
  O  O38  1  0.04319100  0.44693400  0.44855200  1
  O  O39  1  0.54319100  0.05306600  0.55144800  1
  O  O40  1  0.40059900  0.24553900  0.12043000  1
  O  O41  1  0.90059900  0.25446100  0.87957000  1
  O  O42  1  0.59940100  0.74553900  0.37957000  1
  O  O43  1  0.09940100  0.75446100  0.62043000  1
  O  O44  1  0.15663700  0.05550900  0.91155300  1
  O  O45  1  0.65663700  0.44449100  0.08844700  1
  O  O46  1  0.84336300  0.55550900  0.58844700  1
  O  O47  1  0.34336300  0.94449100  0.41155300  1
  O  O48  1  0.25637200  0.71111200  0.20512700  1
  O  O49  1  0.75637200  0.78888800  0.79487300  1
  O  O50  1  0.74362800  0.21111200  0.29487300  1
  O  O51  1  0.07735000  0.16228500  0.28836100  1
loop_
_geom_bond_atom_site_label_1
_geom_bond_atom_site_label_2
_geom_bond_distance
_geom_bond_site_symmetry_2
K0 O44 2.639514 1_565
K0 O37 2.641387 1_555
K0 O3 2.743114 1_556
K0 O36 2.760236 1_456
K0 O2 2.784154 1_455
K0 O15 2.807772 1_556
K0 O14 2.920113 1_555
K1 O45 2.639514 1_555
K1 O36 2.641387 1_555
K1 O2 2.743114 1_554
K1 O37 2.760236 1_554
K1 O3 2.784154 1_555
K1 O14 2.807772 1_554
K1 O15 2.920113 1_655
K2 O46 2.639514 1_555
K2 O39 2.641387 1_555
K2 O1 2.743114 1_555
K2 O38 2.760236 1_655
K2 O0 2.784154 1_655
K2 O13 2.807772 1_555
K2 O12 2.920113 1_555
K3 O47 2.639514 1_545
K3 O38 2.641387 1_555
K3 O0 2.743114 1_555
K3 O39 2.760236 1_555
K3 O1 2.784154 1_555
K3 O12 2.807772 1_555
K3 O13 2.920113 1_455
O0 P0 1.476417 1_555
O1 P1 1.476417 1_555
O2 P2 1.476417 1_555
O3 P3 1.476417 1_555
O4 P0 1.559549 1_555
O4 Ta0 1.990350 1_545
O5 P1 1.559549 1_555
O5 Ta1 1.990350 1_555
O6 P2 1.559549 1_555
O6 Ta2 1.990350 1_555
O7 P3 1.559549 1_555
O7 Ta3 1.990350 1_565
O8 P2 1.564136 1_455
O8 Ta0 1.940833 1_555
O9 P3 1.564136 1_555
O9 Ta1 1.940833 1_555
O10 P0 1.564136 1_655
O10 Ta2 1.940833 1_555
O11 P1 1.564136 1_555
O11 Ta3 1.940833 1_555
O12 P4 1.473264 1_555
O13 P5 1.473264 1_555
O14 P6 1.473264 1_555
O15 P7 1.473264 1_555
O16 P6 1.567283 1_555
O16 Ta0 1.945979 1_555
O17 P7 1.567283 1_655
O17 Ta1 1.945979 1_555
O18 P0 1.605932 1_555
O18 P4 1.613906 1_555
O19 P4 1.567283 1_555
O19 Ta2 1.945979 1_555
O20 P4 1.559063 1_555
O20 Ta0 1.980305 1_555
O21 P5 1.559063 1_565
O21 Ta1 1.980305 1_555
O22 P6 1.559063 1_545
O22 Ta2 1.980305 1_555
O23 P7 1.559063 1_555
O23 Ta3 1.980305 1_555
O24 P15 1.536745 1_455
O24 Ta3 2.009378 1_555
O25 P14 1.536745 1_555
O25 Ta2 2.009378 1_555
O26 P13 1.536745 1_655
O26 Ta1 2.009378 1_555
O27 P12 1.536745 1_555
O27 Ta0 2.009378 1_555
O28 P15 1.608354 1_555
O28 P10 1.611469 1_555
O29 P14 1.608354 1_555
O29 P11 1.611469 1_555
O30 P13 1.608354 1_555
O30 P8 1.611469 1_555
O31 P12 1.608354 1_555
O31 P9 1.611469 1_555
O32 P15 1.611985 1_555
O32 P11 1.623787 1_654
O33 P14 1.611985 1_555
O33 P10 1.623787 1_556
O34 P13 1.611985 1_555
O34 P9 1.623787 1_455
O35 P12 1.611985 1_555
O35 P8 1.623787 1_555
O36 P15 1.469855 1_565
O37 P14 1.469855 1_555
O38 P13 1.469855 1_555
O39 P12 1.469855 1_545
O40 P10 1.536811 1_555
O40 Ta3 2.009897 1_555
O41 P11 1.536811 1_655
O41 Ta2 2.009897 1_555
O42 P8 1.536811 1_555
O42 Ta1 2.009897 1_555
O43 P9 1.536811 1_455
O43 Ta0 2.009897 1_555
O44 P11 1.467857 1_555
O45 P10 1.467857 1_555
O46 P9 1.467857 1_555
O47 P8 1.467857 1_555
O48 P3 1.605932 1_555
O48 P7 1.613906 1_555
O49 P2 1.605932 1_555
O49 P6 1.613906 1_555
O50 P1 1.605932 1_555
O50 P5 1.613906 1_555
O51 P5 1.567283 1_455
O51 Ta3 1.945979 1_555
