# generated using pymatgen
data_Ba2LiAl(CN2)4
_symmetry_space_group_name_H-M   'P 1'
_cell_length_a   6.97114687
_cell_length_b   11.93493208
_cell_length_c   12.10133971
_cell_angle_alpha   90.00000000
_cell_angle_beta   90.00000000
_cell_angle_gamma   90.00000000
_symmetry_Int_Tables_number   1
_chemical_formula_structural   Ba2LiAl(CN2)4
_chemical_formula_sum   'Ba8 Li4 Al4 C16 N32'
_cell_volume   1006.83345349
_cell_formula_units_Z   4
loop_
 _symmetry_equiv_pos_site_id
 _symmetry_equiv_pos_as_xyz
  1  'x, y, z'
loop_
 _atom_site_type_symbol
 _atom_site_label
 _atom_site_symmetry_multiplicity
 _atom_site_fract_x
 _atom_site_fract_y
 _atom_site_fract_z
 _atom_site_occupancy
  Ba  Ba0  1  0.71453250  0.62122289  0.90681569  1
  Ba  Ba1  1  0.78546750  0.37877711  0.40681569  1
  Ba  Ba2  1  0.21453250  0.87877711  0.09318431  1
  Ba  Ba3  1  0.28546750  0.12122289  0.59318431  1
  Ba  Ba4  1  0.70599258  0.12207383  0.08646325  1
  Ba  Ba5  1  0.79400742  0.87792617  0.58646325  1
  Ba  Ba6  1  0.20599258  0.37792617  0.91353675  1
  Ba  Ba7  1  0.29400742  0.62207383  0.41353675  1
  Li  Li0  1  0.46732865  0.37522017  0.16990163  1
  Li  Li1  1  0.03267135  0.62477983  0.66990163  1
  Li  Li2  1  0.96732865  0.12477983  0.83009837  1
  Li  Li3  1  0.53267135  0.87522017  0.33009837  1
  Al  Al0  1  0.97299496  0.62161653  0.16756340  1
  Al  Al1  1  0.52700504  0.37838347  0.66756340  1
  Al  Al2  1  0.47299496  0.87838347  0.83243660  1
  Al  Al3  1  0.02700504  0.12161653  0.33243660  1
  C  C0  1  0.78147422  0.67163939  0.35740849  1
  C  C1  1  0.71852578  0.32836061  0.85740849  1
  C  C2  1  0.28147422  0.82836061  0.64259151  1
  C  C3  1  0.21852578  0.17163939  0.14259151  1
  C  C4  1  0.84059360  0.41814485  0.12340889  1
  C  C5  1  0.65940640  0.58185515  0.62340889  1
  C  C6  1  0.34059360  0.08185515  0.87659111  1
  C  C7  1  0.15940640  0.91814485  0.37659111  1
  C  C8  1  0.34035405  0.57680377  0.11144924  1
  C  C9  1  0.15964595  0.42319623  0.61144924  1
  C  C10  1  0.84035405  0.92319623  0.88855076  1
  C  C11  1  0.65964595  0.07680377  0.38855076  1
  C  C12  1  0.73639743  0.81839714  0.13582184  1
  C  C13  1  0.76360257  0.18160286  0.63582184  1
  C  C14  1  0.23639743  0.68160286  0.86417816  1
  C  C15  1  0.26360257  0.31839714  0.36417816  1
  N  N0  1  0.85575198  0.74586522  0.10521369  1
  N  N1  1  0.64424802  0.25413478  0.60521369  1
  N  N2  1  0.35575198  0.75413478  0.89478631  1
  N  N3  1  0.14424802  0.24586522  0.39478631  1
  N  N4  1  0.23657579  0.64261993  0.16610804  1
  N  N5  1  0.26342421  0.35738007  0.66610804  1
  N  N6  1  0.73657579  0.85738007  0.83389196  1
  N  N7  1  0.76342421  0.14261993  0.33389196  1
  N  N8  1  0.92635547  0.49818401  0.07719212  1
  N  N9  1  0.57364453  0.50181599  0.57719212  1
  N  N10  1  0.42635547  0.00181599  0.92280788  1
  N  N11  1  0.07364453  0.99818401  0.42280788  1
  N  N12  1  0.89269286  0.60132667  0.31316200  1
  N  N13  1  0.60730714  0.39867333  0.81316200  1
  N  N14  1  0.39269286  0.89867333  0.68683800  1
  N  N15  1  0.10730714  0.10132667  0.18683800  1
  N  N16  1  0.67230479  0.73725378  0.40147052  1
  N  N17  1  0.82769521  0.26274622  0.90147052  1
  N  N18  1  0.17230479  0.76274622  0.59852948  1
  N  N19  1  0.32769521  0.23725378  0.09852948  1
  N  N20  1  0.44165741  0.51262891  0.05954708  1
  N  N21  1  0.05834259  0.48737109  0.55954708  1
  N  N22  1  0.94165741  0.98737109  0.94045292  1
  N  N23  1  0.55834259  0.01262891  0.44045292  1
  N  N24  1  0.75863648  0.34149831  0.16921958  1
  N  N25  1  0.74136352  0.65850169  0.66921958  1
  N  N26  1  0.25863648  0.15850169  0.83078042  1
  N  N27  1  0.24136352  0.84149831  0.33078042  1
  N  N28  1  0.62311582  0.89138892  0.16206436  1
  N  N29  1  0.87688418  0.10861108  0.66206436  1
  N  N30  1  0.12311582  0.60861108  0.83793564  1
  N  N31  1  0.37688418  0.39138892  0.33793564  1
loop_
_geom_bond_atom_site_label_1
_geom_bond_atom_site_label_2
_geom_bond_distance
_geom_bond_site_symmetry_2
Ba0 N25 2.915458 1_555
Ba0 N8 2.930498 1_556
Ba0 N20 2.952014 1_556
Ba0 N6 2.957436 1_555
Ba0 N2 2.965313 1_555
Ba0 N30 2.971570 1_655
Ba0 N13 2.982972 1_555
Ba0 N0 2.991044 1_556
Ba1 N24 2.915458 1_555
Ba1 N9 2.930498 1_555
Ba1 N21 2.952014 1_655
Ba1 N7 2.957436 1_555
Ba1 N3 2.965313 1_655
Ba1 N31 2.971570 1_555
Ba1 N12 2.982972 1_555
Ba1 N1 2.991044 1_555
Ba2 N27 2.915458 1_555
Ba2 N10 2.930498 1_564
Ba2 N22 2.952014 1_454
Ba2 N4 2.957436 1_555
Ba2 N0 2.965313 1_455
Ba2 N28 2.971570 1_555
Ba2 N15 2.982972 1_565
Ba2 N2 2.991044 1_554
Ba3 N26 2.915458 1_555
Ba3 N11 2.930498 1_545
Ba3 N23 2.952014 1_555
Ba3 N5 2.957436 1_555
Ba3 N1 2.965313 1_555
Ba3 N29 2.971570 1_455
Ba3 N14 2.982972 1_545
Ba3 N3 2.991044 1_555
Ba4 N24 2.827686 1_555
Ba4 N22 2.899237 1_544
Ba4 N17 2.924064 1_554
Ba4 N28 2.958200 1_545
Ba4 N19 2.977528 1_555
Ba4 N7 3.030803 1_555
Ba4 N15 3.059972 1_655
Ba4 N10 3.127667 1_554
Ba5 N25 2.827686 1_555
Ba5 N23 2.899237 1_565
Ba5 N16 2.924064 1_555
Ba5 N29 2.958200 1_565
Ba5 N18 2.977528 1_655
Ba5 N6 3.030803 1_555
Ba5 N14 3.059972 1_555
Ba5 N11 3.127667 1_655
Ba6 N26 2.827686 1_555
Ba6 N20 2.899237 1_556
Ba6 N19 2.924064 1_556
Ba6 N30 2.958200 1_555
Ba6 N17 2.977528 1_455
Ba6 N5 3.030803 1_555
Ba6 N13 3.059972 1_555
Ba6 N8 3.127667 1_456
Ba7 N27 2.827686 1_555
Ba7 N21 2.899237 1_555
Ba7 N18 2.924064 1_555
Ba7 N31 2.958200 1_555
Ba7 N16 2.977528 1_555
Ba7 N4 3.030803 1_555
Ba7 N12 3.059972 1_455
Ba7 N9 3.127667 1_555
Li0 N24 2.070264 1_555
Li0 N19 2.098773 1_555
Li0 N20 2.122475 1_555
Li0 N31 2.137671 1_555
Li1 N25 2.070264 1_455
Li1 N18 2.098773 1_555
Li1 N21 2.122475 1_555
Li1 N30 2.137671 1_555
Li2 N26 2.070264 1_655
Li2 N17 2.098773 1_555
Li2 N22 2.122475 1_545
Li2 N29 2.137671 1_555
Li3 N27 2.070264 1_555
Li3 N16 2.098773 1_555
Li3 N23 2.122475 1_565
Li3 N28 2.137671 1_555
Al0 N0 1.853724 1_555
Al0 N4 1.854564 1_655
Al0 N8 1.863303 1_555
Al0 N12 1.864521 1_555
Al1 N1 1.853724 1_555
Al1 N5 1.854564 1_555
Al1 N9 1.863303 1_555
Al1 N13 1.864521 1_555
Al2 N2 1.853724 1_555
Al2 N6 1.854564 1_555
Al2 N10 1.863303 1_565
Al2 N14 1.864521 1_555
Al3 N3 1.853724 1_555
Al3 N7 1.854564 1_455
Al3 N11 1.863303 1_545
Al3 N15 1.864521 1_555
C0 N16 1.215212 1_555
C0 N12 1.261761 1_555
C1 N17 1.215212 1_555
C1 N13 1.261761 1_555
C2 N18 1.215212 1_555
C2 N14 1.261761 1_555
C3 N19 1.215212 1_555
C3 N15 1.261761 1_555
C4 N24 1.212665 1_555
C4 N8 1.258078 1_555
C5 N25 1.212665 1_555
C5 N9 1.258078 1_555
C6 N26 1.212665 1_555
C6 N10 1.258078 1_555
C7 N27 1.212665 1_555
C7 N11 1.258078 1_555
C8 N20 1.216490 1_555
C8 N4 1.256154 1_555
C9 N21 1.216490 1_555
C9 N5 1.256154 1_555
C10 N22 1.216490 1_555
C10 N6 1.256154 1_555
C11 N23 1.216490 1_555
C11 N7 1.256154 1_555
C12 N28 1.217944 1_555
C12 N0 1.256526 1_555
C13 N29 1.217944 1_555
C13 N1 1.256526 1_555
C14 N30 1.217944 1_555
C14 N2 1.256526 1_555
C15 N31 1.217944 1_555
C15 N3 1.256526 1_555
