# generated using pymatgen
data_RbMg30TiO32
_symmetry_space_group_name_H-M   'P 1'
_cell_length_a   8.62398600
_cell_length_b   8.62398600
_cell_length_c   8.63835800
_cell_angle_alpha   90.00000000
_cell_angle_beta   90.00000000
_cell_angle_gamma   90.00000000
_symmetry_Int_Tables_number   1
_chemical_formula_structural   RbMg30TiO32
_chemical_formula_sum   'Rb1 Mg30 Ti1 O32'
_cell_volume   642.46176164
_cell_formula_units_Z   1
loop_
 _symmetry_equiv_pos_site_id
 _symmetry_equiv_pos_as_xyz
  1  'x, y, z'
loop_
 _atom_site_type_symbol
 _atom_site_label
 _atom_site_symmetry_multiplicity
 _atom_site_fract_x
 _atom_site_fract_y
 _atom_site_fract_z
 _atom_site_occupancy
  Rb  Rb0  1  0.50000000  0.50000000  0.00000000  1
  Mg  Mg0  1  0.00000000  0.50000000  0.00000000  1
  Mg  Mg1  1  0.50000000  0.00000000  0.00000000  1
  Mg  Mg2  1  0.00000000  0.00000000  0.50000000  1
  Mg  Mg3  1  0.00000000  0.50000000  0.50000000  1
  Mg  Mg4  1  0.50000000  0.00000000  0.50000000  1
  Mg  Mg5  1  0.50000000  0.50000000  0.50000000  1
  Mg  Mg6  1  0.25095200  0.25095200  0.00000000  1
  Mg  Mg7  1  0.25095200  0.74904800  0.00000000  1
  Mg  Mg8  1  0.74904800  0.25095200  0.00000000  1
  Mg  Mg9  1  0.74904800  0.74904800  0.00000000  1
  Mg  Mg10  1  0.25116500  0.25116500  0.50000000  1
  Mg  Mg11  1  0.25116500  0.74883500  0.50000000  1
  Mg  Mg12  1  0.74883500  0.25116500  0.50000000  1
  Mg  Mg13  1  0.74883500  0.74883500  0.50000000  1
  Mg  Mg14  1  0.00000000  0.25266200  0.25238300  1
  Mg  Mg15  1  0.00000000  0.74733800  0.25238300  1
  Mg  Mg16  1  0.50000000  0.24833400  0.25312000  1
  Mg  Mg17  1  0.50000000  0.75166600  0.25312000  1
  Mg  Mg18  1  0.00000000  0.25266200  0.74761700  1
  Mg  Mg19  1  0.00000000  0.74733800  0.74761700  1
  Mg  Mg20  1  0.50000000  0.24833400  0.74688000  1
  Mg  Mg21  1  0.50000000  0.75166600  0.74688000  1
  Mg  Mg22  1  0.25266200  0.00000000  0.25238300  1
  Mg  Mg23  1  0.24833400  0.50000000  0.25312000  1
  Mg  Mg24  1  0.74733800  0.00000000  0.25238300  1
  Mg  Mg25  1  0.75166600  0.50000000  0.25312000  1
  Mg  Mg26  1  0.25266200  0.00000000  0.74761700  1
  Mg  Mg27  1  0.24833400  0.50000000  0.74688000  1
  Mg  Mg28  1  0.74733800  0.00000000  0.74761700  1
  Mg  Mg29  1  0.75166600  0.50000000  0.74688000  1
  Ti  Ti0  1  0.00000000  0.00000000  0.00000000  1
  O  O0  1  0.00000000  0.00000000  0.24838700  1
  O  O1  1  0.00000000  0.50000000  0.25416600  1
  O  O2  1  0.50000000  0.00000000  0.25416600  1
  O  O3  1  0.50000000  0.50000000  0.27840700  1
  O  O4  1  0.00000000  0.00000000  0.75161300  1
  O  O5  1  0.00000000  0.50000000  0.74583400  1
  O  O6  1  0.50000000  0.00000000  0.74583400  1
  O  O7  1  0.50000000  0.50000000  0.72159300  1
  O  O8  1  0.24968000  0.24968000  0.24868200  1
  O  O9  1  0.24968000  0.75032000  0.24868200  1
  O  O10  1  0.75032000  0.24968000  0.24868200  1
  O  O11  1  0.75032000  0.75032000  0.24868200  1
  O  O12  1  0.24968000  0.24968000  0.75131800  1
  O  O13  1  0.24968000  0.75032000  0.75131800  1
  O  O14  1  0.75032000  0.24968000  0.75131800  1
  O  O15  1  0.75032000  0.75032000  0.75131800  1
  O  O16  1  0.00000000  0.23953700  0.00000000  1
  O  O17  1  0.00000000  0.76046300  0.00000000  1
  O  O18  1  0.50000000  0.22094900  0.00000000  1
  O  O19  1  0.50000000  0.77905100  0.00000000  1
  O  O20  1  0.00000000  0.24781700  0.50000000  1
  O  O21  1  0.00000000  0.75218300  0.50000000  1
  O  O22  1  0.50000000  0.24415300  0.50000000  1
  O  O23  1  0.50000000  0.75584700  0.50000000  1
  O  O24  1  0.23953700  0.00000000  0.00000000  1
  O  O25  1  0.22094900  0.50000000  0.00000000  1
  O  O26  1  0.76046300  0.00000000  0.00000000  1
  O  O27  1  0.77905100  0.50000000  0.00000000  1
  O  O28  1  0.24781700  0.00000000  0.50000000  1
  O  O29  1  0.24415300  0.50000000  0.50000000  1
  O  O30  1  0.75218300  0.00000000  0.50000000  1
  O  O31  1  0.75584700  0.50000000  0.50000000  1
loop_
_geom_bond_atom_site_label_1
_geom_bond_atom_site_label_2
_geom_bond_distance
_geom_bond_site_symmetry_2
Mg0 O25 1.905461 1_555
Mg0 O27 1.905461 1_455
Mg0 O5 2.195577 1_554
Mg0 O1 2.195577 1_555
Mg0 O16 2.246229 1_555
Mg0 O17 2.246229 1_555
Mg1 O18 1.905461 1_555
Mg1 O19 1.905461 1_545
Mg1 O2 2.195577 1_555
Mg1 O6 2.195577 1_554
Mg1 O24 2.246229 1_555
Mg1 O26 2.246229 1_555
Mg2 O28 2.137170 1_555
Mg2 O20 2.137170 1_555
Mg2 O30 2.137170 1_455
Mg2 O21 2.137170 1_545
Mg2 O0 2.173523 1_555
Mg2 O4 2.173523 1_555
Mg3 O29 2.105572 1_555
Mg3 O31 2.105572 1_455
Mg3 O1 2.123602 1_555
Mg3 O5 2.123602 1_555
Mg3 O21 2.174823 1_555
Mg3 O20 2.174823 1_555
Mg4 O22 2.105572 1_555
Mg4 O23 2.105572 1_545
Mg4 O6 2.123602 1_555
Mg4 O2 2.123602 1_555
Mg4 O30 2.174823 1_555
Mg4 O28 2.174823 1_555
Mg5 O7 1.914200 1_555
Mg5 O3 1.914200 1_555
Mg5 O31 2.206421 1_555
Mg5 O23 2.206421 1_555
Mg5 O22 2.206421 1_555
Mg5 O29 2.206421 1_555
Mg6 O8 2.148260 1_555
Mg6 O12 2.148260 1_554
Mg6 O25 2.163316 1_555
Mg6 O18 2.163316 1_555
Mg6 O24 2.166444 1_555
Mg6 O16 2.166444 1_555
Mg7 O9 2.148260 1_555
Mg7 O13 2.148260 1_554
Mg7 O25 2.163316 1_555
Mg7 O19 2.163316 1_555
Mg7 O17 2.166444 1_555
Mg7 O24 2.166444 1_565
Mg8 O10 2.148260 1_555
Mg8 O14 2.148260 1_554
Mg8 O18 2.163316 1_555
Mg8 O27 2.163316 1_555
Mg8 O26 2.166444 1_555
Mg8 O16 2.166444 1_655
Mg9 O11 2.148260 1_555
Mg9 O15 2.148260 1_554
Mg9 O19 2.163316 1_555
Mg9 O27 2.163316 1_555
Mg9 O26 2.166444 1_565
Mg9 O17 2.166444 1_655
Mg10 O22 2.146801 1_555
Mg10 O29 2.146801 1_555
Mg10 O20 2.166236 1_555
Mg10 O28 2.166236 1_555
Mg10 O12 2.171050 1_555
Mg10 O8 2.171050 1_555
Mg11 O29 2.146801 1_555
Mg11 O23 2.146801 1_555
Mg11 O21 2.166236 1_555
Mg11 O28 2.166236 1_565
Mg11 O13 2.171050 1_555
Mg11 O9 2.171050 1_555
Mg12 O22 2.146801 1_555
Mg12 O31 2.146801 1_555
Mg12 O30 2.166236 1_555
Mg12 O20 2.166236 1_655
Mg12 O14 2.171050 1_555
Mg12 O10 2.171050 1_555
Mg13 O23 2.146801 1_555
Mg13 O31 2.146801 1_555
Mg13 O21 2.166236 1_655
Mg13 O30 2.166236 1_565
Mg13 O15 2.171050 1_555
Mg13 O11 2.171050 1_555
Mg14 O1 2.133095 1_555
Mg14 O20 2.139412 1_555
Mg14 O10 2.153628 1_455
Mg14 O8 2.153628 1_555
Mg14 O0 2.179227 1_555
Mg14 O16 2.183111 1_555
Mg15 O1 2.133095 1_555
Mg15 O21 2.139412 1_555
Mg15 O11 2.153628 1_455
Mg15 O9 2.153628 1_555
Mg15 O0 2.179227 1_565
Mg15 O17 2.183111 1_555
Mg16 O22 2.132943 1_555
Mg16 O2 2.141648 1_555
Mg16 O8 2.159128 1_555
Mg16 O10 2.159128 1_555
Mg16 O3 2.181329 1_555
Mg16 O18 2.199258 1_555
Mg17 O23 2.132943 1_555
Mg17 O2 2.141648 1_565
Mg17 O9 2.159128 1_555
Mg17 O11 2.159128 1_555
Mg17 O3 2.181329 1_555
Mg17 O19 2.199258 1_555
Mg18 O5 2.133095 1_555
Mg18 O20 2.139412 1_555
Mg18 O14 2.153628 1_455
Mg18 O12 2.153628 1_555
Mg18 O4 2.179227 1_555
Mg18 O16 2.183111 1_556
Mg19 O5 2.133095 1_555
Mg19 O21 2.139412 1_555
Mg19 O15 2.153628 1_455
Mg19 O13 2.153628 1_555
Mg19 O4 2.179227 1_565
Mg19 O17 2.183111 1_556
Mg20 O22 2.132943 1_555
Mg20 O6 2.141648 1_555
Mg20 O12 2.159128 1_555
Mg20 O14 2.159128 1_555
Mg20 O7 2.181329 1_555
Mg20 O18 2.199258 1_556
Mg21 O23 2.132943 1_555
Mg21 O6 2.141648 1_565
Mg21 O13 2.159128 1_555
Mg21 O15 2.159128 1_555
Mg21 O7 2.181329 1_555
Mg21 O19 2.199258 1_556
Mg22 O2 2.133095 1_555
Mg22 O28 2.139412 1_555
Mg22 O9 2.153628 1_545
Mg22 O8 2.153628 1_555
Mg22 O0 2.179227 1_555
Mg22 O24 2.183111 1_555
Mg23 O29 2.132943 1_555
Mg23 O1 2.141648 1_555
Mg23 O8 2.159128 1_555
Mg23 O9 2.159128 1_555
Mg23 O3 2.181329 1_555
Mg23 O25 2.199258 1_555
Mg24 O2 2.133095 1_555
Mg24 O30 2.139412 1_555
Mg24 O11 2.153628 1_545
Mg24 O10 2.153628 1_555
Mg24 O0 2.179227 1_655
Mg24 O26 2.183111 1_555
Mg25 O31 2.132943 1_555
Mg25 O1 2.141648 1_655
Mg25 O10 2.159128 1_555
Mg25 O11 2.159128 1_555
Mg25 O3 2.181329 1_555
Mg25 O27 2.199258 1_555
Mg26 O6 2.133095 1_555
Mg26 O28 2.139412 1_555
Mg26 O13 2.153628 1_545
Mg26 O12 2.153628 1_555
Mg26 O4 2.179227 1_555
Mg26 O24 2.183111 1_556
Mg27 O29 2.132943 1_555
Mg27 O5 2.141648 1_555
Mg27 O12 2.159128 1_555
Mg27 O13 2.159128 1_555
Mg27 O7 2.181329 1_555
Mg27 O25 2.199258 1_556
Mg28 O6 2.133095 1_555
Mg28 O30 2.139412 1_555
Mg28 O15 2.153628 1_545
Mg28 O14 2.153628 1_555
Mg28 O4 2.179227 1_655
Mg28 O26 2.183111 1_556
Mg29 O31 2.132943 1_555
Mg29 O5 2.141648 1_655
Mg29 O14 2.159128 1_555
Mg29 O15 2.159128 1_555
Mg29 O7 2.181329 1_555
Mg29 O27 2.199258 1_556
O0 Ti0 2.145656 1_555
O3 Rb0 2.404979 1_555
O4 Ti0 2.145656 1_556
O7 Rb0 2.404979 1_556
O16 Ti0 2.065764 1_555
O17 Ti0 2.065764 1_565
O18 Rb0 2.406532 1_555
O19 Rb0 2.406532 1_555
O24 Ti0 2.065764 1_555
O25 Rb0 2.406532 1_555
O26 Ti0 2.065764 1_655
O27 Rb0 2.406532 1_555
