# generated using pymatgen
data_V2CoS4
_symmetry_space_group_name_H-M   'P 1'
_cell_length_a   6.33293784
_cell_length_b   6.33293784
_cell_length_c   5.81192672
_cell_angle_alpha   64.33384009
_cell_angle_beta   64.33384009
_cell_angle_gamma   29.85045965
_symmetry_Int_Tables_number   1
_chemical_formula_structural   V2CoS4
_chemical_formula_sum   'V2 Co1 S4'
_cell_volume   103.71090746
_cell_formula_units_Z   1
loop_
 _symmetry_equiv_pos_site_id
 _symmetry_equiv_pos_as_xyz
  1  'x, y, z'
loop_
 _atom_site_type_symbol
 _atom_site_label
 _atom_site_symmetry_multiplicity
 _atom_site_fract_x
 _atom_site_fract_y
 _atom_site_fract_z
 _atom_site_occupancy
  V  V0  1  0.25692406  0.25692406  0.68899794  1
  V  V1  1  0.74307594  0.74307594  0.31100206  1
  Co  Co0  1  -0.00000000  -0.00000000  0.00000000  1
  S  S0  1  0.36277521  0.36277521  0.97976841  1
  S  S1  1  0.63722479  0.63722479  0.02023159  1
  S  S2  1  0.10803149  0.10803149  0.55162818  1
  S  S3  1  0.89196851  0.89196851  0.44837182  1
loop_
_geom_bond_atom_site_label_1
_geom_bond_atom_site_label_2
_geom_bond_distance
_geom_bond_site_symmetry_2
Co0 S2 2.334528 1_554
Co0 S3 2.334528 1_445
Co0 S0 2.381565 1_544
Co0 S0 2.381565 1_454
Co0 S1 2.381565 1_545
Co0 S1 2.381565 1_455
S0 V1 2.446284 1_546
S0 V1 2.446284 1_456
S0 V0 2.548879 1_555
S1 V0 2.446284 1_564
S1 V0 2.446284 1_654
S1 V1 2.548879 1_555
S2 V0 2.293949 1_555
S2 V1 2.296897 1_545
S2 V1 2.296897 1_455
S3 V1 2.293949 1_555
S3 V0 2.296897 1_565
S3 V0 2.296897 1_655
