# generated using pymatgen
data_Mn3In2Sb3O14
_symmetry_space_group_name_H-M   'P 1'
_cell_length_a   7.13619467
_cell_length_b   12.86240506
_cell_length_c   7.13562764
_cell_angle_alpha   90.08238026
_cell_angle_beta   119.55352008
_cell_angle_gamma   73.53854053
_symmetry_Int_Tables_number   1
_chemical_formula_structural   Mn3In2Sb3O14
_chemical_formula_sum   'Mn6 In4 Sb6 O28'
_cell_volume   538.83689908
_cell_formula_units_Z   2
loop_
 _symmetry_equiv_pos_site_id
 _symmetry_equiv_pos_as_xyz
  1  'x, y, z'
loop_
 _atom_site_type_symbol
 _atom_site_label
 _atom_site_symmetry_multiplicity
 _atom_site_fract_x
 _atom_site_fract_y
 _atom_site_fract_z
 _atom_site_occupancy
  Mn  Mn0  1  0.50007100  0.50027900  0.50011400  1
  Mn  Mn1  1  0.50015900  0.99972700  0.00000400  1
  Mn  Mn2  1  0.49897800  0.25000300  0.74915100  1
  Mn  Mn3  1  0.49991300  0.74995900  0.24966500  1
  Mn  Mn4  1  0.00020100  0.25001900  0.25031600  1
  Mn  Mn5  1  0.00018700  0.74999100  0.75003600  1
  In  In0  1  0.50051600  0.49954100  0.00025700  1
  In  In1  1  0.49977800  0.00012500  0.49994300  1
  In  In2  1  0.00018000  0.49965900  0.50002600  1
  In  In3  1  0.99981800  0.00037500  0.99993800  1
  Sb  Sb0  1  0.00006800  0.49999800  0.99988100  1
  Sb  Sb1  1  0.99994200  0.00004500  0.50015800  1
  Sb  Sb2  1  0.00004300  0.74998400  0.25002200  1
  Sb  Sb3  1  0.99991500  0.25001800  0.75015900  1
  Sb  Sb4  1  0.49994100  0.74997200  0.74999600  1
  Sb  Sb5  1  0.50006000  0.25002800  0.25007300  1
  O  O0  1  0.37357400  0.44011400  0.68727800  1
  O  O1  1  0.37329900  0.94036400  0.18721800  1
  O  O2  1  0.62662600  0.55966400  0.31273000  1
  O  O3  1  0.62641500  0.05986800  0.81260900  1
  O  O4  1  0.09315900  0.57154600  0.83270400  1
  O  O5  1  0.09303600  0.07163400  0.33281600  1
  O  O6  1  0.90710000  0.42833200  0.16732000  1
  O  O7  1  0.90670300  0.92845800  0.66726700  1
  O  O8  1  0.66828000  0.28300500  0.54839500  1
  O  O9  1  0.66793300  0.78363800  0.04769600  1
  O  O10  1  0.33209700  0.71642700  0.45221200  1
  O  O11  1  0.33167400  0.21707700  0.95158000  1
  O  O12  1  0.07447400  0.79376600  0.03516800  1
  O  O13  1  0.07424600  0.29381100  0.53504600  1
  O  O14  1  0.67123100  0.79370400  0.63191800  1
  O  O15  1  0.67177000  0.29386900  0.13256600  1
  O  O16  1  0.92627200  0.20614500  0.96537900  1
  O  O17  1  0.92561300  0.70622400  0.46486500  1
  O  O18  1  0.32842800  0.20625800  0.36785300  1
  O  O19  1  0.32867400  0.70630500  0.86806100  1
  O  O20  1  0.66792300  0.58802700  0.82036200  1
  O  O21  1  0.66771800  0.08808900  0.32007900  1
  O  O22  1  0.09192400  0.58820700  0.24329800  1
  O  O23  1  0.09222100  0.08838700  0.74385800  1
  O  O24  1  0.33213900  0.41194700  0.17963100  1
  O  O25  1  0.33205400  0.91195600  0.67955900  1
  O  O26  1  0.90766900  0.41166600  0.75621900  1
  O  O27  1  0.90798100  0.91179200  0.25657400  1
loop_
_geom_bond_atom_site_label_1
_geom_bond_atom_site_label_2
_geom_bond_distance
_geom_bond_site_symmetry_2
Mn0 O2 2.184499 1_555
Mn0 O0 2.187594 1_555
Mn0 O26 2.445957 1_555
Mn0 O20 2.447286 1_555
Mn0 O22 2.448350 1_555
Mn0 O24 2.453038 1_555
Mn0 O10 2.644420 1_555
Mn0 O8 2.657696 1_555
Mn1 O1 2.185150 1_555
Mn1 O3 2.187392 1_564
Mn1 O27 2.446477 1_555
Mn1 O23 2.447754 1_564
Mn1 O25 2.448723 1_554
Mn1 O21 2.450834 1_565
Mn1 O9 2.643728 1_555
Mn1 O11 2.658683 1_564
Mn2 O0 2.312649 1_555
Mn2 O3 2.312898 1_555
Mn2 O11 2.383443 1_555
Mn2 O8 2.385729 1_555
Mn2 O13 2.510962 1_555
Mn2 O18 2.513504 1_555
Mn2 O16 2.526518 1_555
Mn2 O15 2.527038 1_556
Mn3 O2 2.314857 1_555
Mn3 O1 2.316190 1_555
Mn3 O9 2.388115 1_555
Mn3 O10 2.389777 1_555
Mn3 O19 2.514995 1_554
Mn3 O12 2.515257 1_555
Mn3 O17 2.517007 1_555
Mn3 O14 2.519327 1_555
Mn4 O18 1.955205 1_555
Mn4 O15 1.956219 1_455
Mn4 O13 1.957228 1_555
Mn4 O16 1.959080 1_454
Mn4 O6 2.191941 1_455
Mn4 O5 2.192642 1_555
Mn5 O19 1.956373 1_555
Mn5 O14 1.959277 1_455
Mn5 O17 1.959354 1_455
Mn5 O12 1.959467 1_556
Mn5 O7 2.193304 1_455
Mn5 O4 2.193405 1_555
In0 O0 2.187306 1_554
In0 O2 2.188485 1_555
In0 O6 2.400724 1_555
In0 O4 2.405519 1_554
In0 O15 2.533759 1_555
In0 O19 2.546418 1_554
In0 O24 2.576809 1_555
In0 O20 2.580294 1_554
In1 O3 2.187357 1_555
In1 O1 2.187798 1_545
In1 O5 2.401799 1_555
In1 O7 2.402861 1_545
In1 O18 2.538933 1_555
In1 O14 2.542190 1_545
In1 O25 2.578399 1_545
In1 O21 2.579465 1_555
In2 O0 2.192310 1_555
In2 O2 2.193286 1_455
In2 O6 2.388009 1_455
In2 O4 2.391245 1_555
In2 O13 2.535866 1_555
In2 O17 2.544463 1_455
In2 O26 2.584319 1_455
In2 O22 2.587174 1_555
In3 O3 2.192364 1_555
In3 O1 2.192861 1_646
In3 O5 2.388555 1_656
In3 O7 2.391282 1_545
In3 O16 2.535394 1_555
In3 O12 2.544933 1_646
In3 O23 2.583210 1_655
In3 O27 2.587341 1_546
O4 Sb0 1.960270 1_555
O5 Sb1 1.961499 1_455
O6 Sb0 1.961904 1_654
O7 Sb1 1.960993 1_565
O8 Sb5 1.979281 1_555
O8 Sb3 1.981204 1_555
O9 Sb4 1.979045 1_554
O9 Sb2 1.983345 1_655
O10 Sb4 1.978759 1_555
O10 Sb2 1.983050 1_555
O11 Sb5 1.980262 1_556
O11 Sb3 1.981629 1_455
O12 Sb2 1.981165 1_555
O13 Sb3 1.982370 1_455
O14 Sb4 1.981790 1_555
O15 Sb5 1.982184 1_555
O16 Sb3 1.979853 1_555
O17 Sb2 1.980986 1_655
O18 Sb5 1.982678 1_555
O19 Sb4 1.981190 1_555
O20 Sb4 2.005520 1_555
O20 Sb0 2.007245 1_655
O21 Sb5 2.005149 1_555
O21 Sb1 2.007917 1_555
O22 Sb2 2.004900 1_555
O22 Sb0 2.006629 1_554
O23 Sb3 2.002709 1_455
O23 Sb1 2.009355 1_455
O24 Sb5 2.005128 1_555
O24 Sb0 2.007031 1_554
O25 Sb4 2.005813 1_555
O25 Sb1 2.007209 1_465
O26 Sb3 2.002582 1_555
O26 Sb0 2.009133 1_655
O27 Sb2 2.005110 1_655
O27 Sb1 2.007884 1_565
