# generated using pymatgen
data_TaTiBe4
_symmetry_space_group_name_H-M   'P 1'
_cell_length_a   4.56785748
_cell_length_b   4.56785748
_cell_length_c   4.56785748
_cell_angle_alpha   60.00000000
_cell_angle_beta   60.00000000
_cell_angle_gamma   60.00000000
_symmetry_Int_Tables_number   1
_chemical_formula_structural   TaTiBe4
_chemical_formula_sum   'Ta1 Ti1 Be4'
_cell_volume   67.39421792
_cell_formula_units_Z   1
loop_
 _symmetry_equiv_pos_site_id
 _symmetry_equiv_pos_as_xyz
  1  'x, y, z'
loop_
 _atom_site_type_symbol
 _atom_site_label
 _atom_site_symmetry_multiplicity
 _atom_site_fract_x
 _atom_site_fract_y
 _atom_site_fract_z
 _atom_site_occupancy
  Ta  Ta0  1  0.25000000  0.25000000  0.25000000  1
  Ti  Ti0  1  0.00000000  0.00000000  0.00000000  1
  Be  Be0  1  0.62485600  0.62485600  0.12543300  1
  Be  Be1  1  0.62485600  0.12543300  0.62485600  1
  Be  Be2  1  0.12543300  0.62485600  0.62485600  1
  Be  Be3  1  0.62485600  0.62485600  0.62485600  1
loop_
_geom_bond_atom_site_label_1
_geom_bond_atom_site_label_2
_geom_bond_distance
_geom_bond_site_symmetry_2
Ta0 Ti0 2.797230 1_555
Ta0 Ti0 2.797230 1_556
Ta0 Ti0 2.797230 1_565
Ta0 Ti0 2.797230 1_655
Be0 Be3 2.281293 1_555
Be0 Be1 2.281293 1_555
Be0 Be2 2.281293 1_555
Be0 Be1 2.286564 1_564
Be0 Be2 2.286564 1_654
Be0 Be3 2.286564 1_554
Be0 Ta0 2.677862 1_655
Be0 Ta0 2.677862 1_565
Be0 Ta0 2.677866 1_555
Be0 Ti0 2.678423 1_665
Be0 Ti0 2.678427 1_655
Be0 Ti0 2.678427 1_565
Be1 Be3 2.281293 1_555
Be1 Be2 2.281293 1_555
Be1 Be2 2.286564 1_645
Be1 Be3 2.286564 1_545
Be1 Ta0 2.677862 1_655
Be1 Ta0 2.677862 1_556
Be1 Ta0 2.677866 1_555
Be1 Ti0 2.678423 1_656
Be1 Ti0 2.678427 1_655
Be1 Ti0 2.678427 1_556
Be2 Be3 2.281293 1_555
Be2 Be3 2.286564 1_455
Be2 Ta0 2.677862 1_565
Be2 Ta0 2.677862 1_556
Be2 Ta0 2.677866 1_555
Be2 Ti0 2.678423 1_566
Be2 Ti0 2.678427 1_556
Be2 Ti0 2.678427 1_565
Be3 Ta0 2.677864 1_565
Be3 Ta0 2.677864 1_556
Be3 Ta0 2.677864 1_655
Be3 Ti0 2.678425 1_665
Be3 Ti0 2.678425 1_656
Be3 Ti0 2.678425 1_566
