# generated using pymatgen
data_ReW3
_symmetry_space_group_name_H-M   'P 1'
_cell_length_a   5.02230312
_cell_length_b   5.02230312
_cell_length_c   5.02230312
_cell_angle_alpha   90.00000000
_cell_angle_beta   90.00000000
_cell_angle_gamma   90.00000000
_symmetry_Int_Tables_number   1
_chemical_formula_structural   ReW3
_chemical_formula_sum   'Re2 W6'
_cell_volume   126.68020653
_cell_formula_units_Z   2
loop_
 _symmetry_equiv_pos_site_id
 _symmetry_equiv_pos_as_xyz
  1  'x, y, z'
loop_
 _atom_site_type_symbol
 _atom_site_label
 _atom_site_symmetry_multiplicity
 _atom_site_fract_x
 _atom_site_fract_y
 _atom_site_fract_z
 _atom_site_occupancy
  Re  Re0  1  -0.00000000  -0.00000000  -0.00000000  1
  Re  Re1  1  0.50000000  0.50000000  0.50000000  1
  W  W0  1  0.25000000  -0.00000000  0.50000000  1
  W  W1  1  0.75000000  -0.00000000  0.50000000  1
  W  W2  1  0.50000000  0.25000000  -0.00000000  1
  W  W3  1  0.50000000  0.75000000  -0.00000000  1
  W  W4  1  -0.00000000  0.50000000  0.25000000  1
  W  W5  1  -0.00000000  0.50000000  0.75000000  1
loop_
_geom_bond_atom_site_label_1
_geom_bond_atom_site_label_2
_geom_bond_distance
_geom_bond_site_symmetry_2
Re0 W3 2.807553 1_545
Re0 W4 2.807553 1_555
Re0 W0 2.807553 1_554
Re0 W5 2.807553 1_544
Re0 W1 2.807553 1_454
Re0 W5 2.807553 1_554
Re0 W2 2.807553 1_555
Re0 W3 2.807553 1_445
Re0 W0 2.807553 1_555
Re0 W1 2.807553 1_455
Re0 W4 2.807553 1_545
Re0 W2 2.807553 1_455
Re1 W0 2.807553 1_565
Re1 W4 2.807553 1_555
Re1 W1 2.807553 1_555
Re1 W5 2.807553 1_555
Re1 W2 2.807553 1_556
Re1 W3 2.807553 1_556
Re1 W1 2.807553 1_565
Re1 W4 2.807553 1_655
Re1 W3 2.807553 1_555
Re1 W5 2.807553 1_655
Re1 W2 2.807553 1_555
Re1 W0 2.807553 1_555
W0 W1 2.511152 1_555
W0 W1 2.511152 1_455
W2 W3 2.511152 1_545
W2 W3 2.511152 1_555
W4 W5 2.511152 1_554
W4 W5 2.511152 1_555
