# generated using pymatgen
data_Ti2ZnP2O9
_symmetry_space_group_name_H-M   'P 1'
_cell_length_a   6.38149100
_cell_length_b   7.57135500
_cell_length_c   14.30021400
_cell_angle_alpha   90.00000000
_cell_angle_beta   90.00000000
_cell_angle_gamma   90.00000000
_symmetry_Int_Tables_number   1
_chemical_formula_structural   Ti2ZnP2O9
_chemical_formula_sum   'Ti8 Zn4 P8 O36'
_cell_volume   690.93677294
_cell_formula_units_Z   4
loop_
 _symmetry_equiv_pos_site_id
 _symmetry_equiv_pos_as_xyz
  1  'x, y, z'
loop_
 _atom_site_type_symbol
 _atom_site_label
 _atom_site_symmetry_multiplicity
 _atom_site_fract_x
 _atom_site_fract_y
 _atom_site_fract_z
 _atom_site_occupancy
  Ti  Ti0  1  0.75000000  0.14965500  0.88124800  1
  Ti  Ti1  1  0.25000000  0.85034500  0.11875200  1
  Ti  Ti2  1  0.25000000  0.64965500  0.61875200  1
  Ti  Ti3  1  0.75000000  0.35034500  0.38124800  1
  Ti  Ti4  1  0.00000000  0.50000000  0.00000000  1
  Ti  Ti5  1  0.00000000  0.00000000  0.50000000  1
  Ti  Ti6  1  0.50000000  0.00000000  0.50000000  1
  Ti  Ti7  1  0.50000000  0.50000000  0.00000000  1
  Zn  Zn0  1  0.75000000  0.55723700  0.77177900  1
  Zn  Zn1  1  0.75000000  0.94276300  0.27177900  1
  Zn  Zn2  1  0.25000000  0.05723700  0.72822100  1
  Zn  Zn3  1  0.25000000  0.44276300  0.22822100  1
  P  P0  1  0.25000000  0.13756300  0.92842800  1
  P  P1  1  0.75000000  0.86243700  0.07157200  1
  P  P2  1  0.75000000  0.63756300  0.57157200  1
  P  P3  1  0.25000000  0.36243700  0.42842800  1
  P  P4  1  0.75000000  0.12003500  0.69228600  1
  P  P5  1  0.75000000  0.37996500  0.19228600  1
  P  P6  1  0.25000000  0.62003500  0.80771400  1
  P  P7  1  0.25000000  0.87996500  0.30771400  1
  O  O0  1  0.45725000  0.89533500  0.36497600  1
  O  O1  1  0.95725000  0.10466500  0.63502400  1
  O  O2  1  0.54275000  0.39533500  0.13502400  1
  O  O3  1  0.04275000  0.60466500  0.86497600  1
  O  O4  1  0.54275000  0.10466500  0.63502400  1
  O  O5  1  0.04275000  0.89533500  0.36497600  1
  O  O6  1  0.45725000  0.60466500  0.86497600  1
  O  O7  1  0.95725000  0.39533500  0.13502400  1
  O  O8  1  0.25000000  0.17690100  0.47476200  1
  O  O9  1  0.75000000  0.82309900  0.52523800  1
  O  O10  1  0.75000000  0.67690100  0.02523800  1
  O  O11  1  0.25000000  0.32309900  0.97476200  1
  O  O12  1  0.75000000  0.37198200  0.93887100  1
  O  O13  1  0.25000000  0.62801800  0.06112900  1
  O  O14  1  0.25000000  0.87198200  0.56112900  1
  O  O15  1  0.75000000  0.12801800  0.43887100  1
  O  O16  1  0.75000000  0.29573900  0.74989400  1
  O  O17  1  0.25000000  0.70426100  0.25010600  1
  O  O18  1  0.25000000  0.79573900  0.75010600  1
  O  O19  1  0.75000000  0.20426100  0.24989400  1
  O  O20  1  0.06297700  0.37873100  0.35998400  1
  O  O21  1  0.56297700  0.62126900  0.64001600  1
  O  O22  1  0.93702300  0.87873100  0.14001600  1
  O  O23  1  0.43702300  0.12126900  0.85998400  1
  O  O24  1  0.93702300  0.62126900  0.64001600  1
  O  O25  1  0.43702300  0.37873100  0.35998400  1
  O  O26  1  0.06297700  0.12126900  0.85998400  1
  O  O27  1  0.56297700  0.87873100  0.14001600  1
  O  O28  1  0.75000000  0.00244100  0.99349300  1
  O  O29  1  0.25000000  0.47570200  0.73088300  1
  O  O30  1  0.25000000  0.02429800  0.23088300  1
  O  O31  1  0.75000000  0.97570200  0.76911700  1
  O  O32  1  0.75000000  0.49755900  0.49349300  1
  O  O33  1  0.25000000  0.50244100  0.50650700  1
  O  O34  1  0.25000000  0.99755900  0.00650700  1
  O  O35  1  0.75000000  0.52429800  0.26911700  1
loop_
_geom_bond_atom_site_label_1
_geom_bond_atom_site_label_2
_geom_bond_distance
_geom_bond_site_symmetry_2
O0 P7 1.559887 1_555
O0 Ti6 2.104918 1_565
O0 Zn1 2.322765 1_555
O1 P4 1.559887 1_555
O1 Ti5 2.104918 1_655
O1 Zn2 2.322765 1_655
O2 P5 1.559887 1_555
O2 Ti7 2.104918 1_555
O2 Zn3 2.322765 1_555
O3 P6 1.559887 1_555
O3 Ti4 2.104918 1_556
O3 Zn0 2.322765 1_455
O4 P4 1.559887 1_555
O4 Ti6 2.104918 1_555
O4 Zn2 2.322765 1_555
O5 P7 1.559887 1_555
O5 Ti5 2.104918 1_565
O5 Zn1 2.322765 1_455
O6 P6 1.559887 1_555
O6 Ti7 2.104918 1_556
O6 Zn0 2.322765 1_555
O7 P5 1.559887 1_555
O7 Ti4 2.104918 1_655
O7 Zn3 2.322765 1_655
O8 P3 1.553180 1_555
O8 Ti5 2.114098 1_555
O8 Ti6 2.114098 1_555
O9 P2 1.553180 1_555
O9 Ti5 2.114098 1_665
O9 Ti6 2.114098 1_565
O10 P1 1.553180 1_555
O10 Ti4 2.114098 1_655
O10 Ti7 2.114098 1_555
O11 P0 1.553180 1_555
O11 Ti7 2.114098 1_556
O11 Ti4 2.114098 1_556
O12 Ti0 1.874184 1_555
O12 Ti7 2.061274 1_556
O12 Ti4 2.061274 1_656
O13 Ti1 1.874184 1_555
O13 Ti4 2.061274 1_555
O13 Ti7 2.061274 1_555
O14 Ti2 1.874184 1_555
O14 Ti5 2.061274 1_565
O14 Ti6 2.061274 1_565
O15 Ti3 1.874184 1_555
O15 Ti5 2.061274 1_655
O15 Ti6 2.061274 1_555
O16 P4 1.564737 1_555
O16 Zn0 2.004476 1_555
O16 Ti0 2.179841 1_555
O17 P7 1.564737 1_555
O17 Zn3 2.004476 1_555
O17 Ti1 2.179841 1_555
O18 P6 1.564737 1_555
O18 Zn2 2.004476 1_565
O18 Ti2 2.179841 1_555
O19 P5 1.564737 1_555
O19 Zn1 2.004476 1_545
O19 Ti3 2.179841 1_555
O20 P3 1.548421 1_555
O20 Ti3 2.031675 1_455
O20 Zn3 2.282500 1_555
O21 P2 1.548421 1_555
O21 Ti2 2.031675 1_555
O21 Zn0 2.282500 1_555
O22 P1 1.548421 1_555
O22 Ti1 2.031675 1_655
O22 Zn1 2.282500 1_555
O23 P0 1.548421 1_555
O23 Ti0 2.031675 1_555
O23 Zn2 2.282500 1_555
O24 P2 1.548421 1_555
O24 Ti2 2.031675 1_655
O24 Zn0 2.282500 1_555
O25 P3 1.548421 1_555
O25 Ti3 2.031675 1_555
O25 Zn3 2.282500 1_555
O26 P0 1.548421 1_555
O26 Ti0 2.031675 1_455
O26 Zn2 2.282500 1_555
O27 P1 1.548421 1_555
O27 Ti1 2.031675 1_555
O27 Zn1 2.282500 1_555
O28 P1 1.539584 1_546
O28 Ti0 1.954172 1_555
O29 P6 1.549627 1_555
O29 Ti2 2.075054 1_555
O30 P7 1.549627 1_545
O30 Ti1 2.075054 1_545
O31 P4 1.549627 1_565
O31 Ti0 2.075054 1_565
O32 P2 1.539584 1_555
O32 Ti3 1.954172 1_555
O33 P3 1.539584 1_555
O33 Ti2 1.954172 1_555
O34 P0 1.539584 1_564
O34 Ti1 1.954172 1_555
O35 P5 1.549627 1_555
O35 Ti3 2.075054 1_555
