# generated using pymatgen
data_LiMnO2
_symmetry_space_group_name_H-M   'P 1'
_cell_length_a   2.80677545
_cell_length_b   4.60305063
_cell_length_c   5.70178977
_cell_angle_alpha   90.00000455
_cell_angle_beta   90.00000253
_cell_angle_gamma   90.00000000
_symmetry_Int_Tables_number   1
_chemical_formula_structural   LiMnO2
_chemical_formula_sum   'Li2 Mn2 O4'
_cell_volume   73.66558151
_cell_formula_units_Z   2
loop_
 _symmetry_equiv_pos_site_id
 _symmetry_equiv_pos_as_xyz
  1  'x, y, z'
loop_
 _atom_site_type_symbol
 _atom_site_label
 _atom_site_symmetry_multiplicity
 _atom_site_fract_x
 _atom_site_fract_y
 _atom_site_fract_z
 _atom_site_occupancy
  Li  Li0  1  0.74999854  0.74999993  0.88061496  1
  Li  Li1  1  0.24999911  0.24999886  0.11938439  1
  Mn  Mn0  1  0.74999651  0.74999962  0.36278582  1
  Mn  Mn1  1  0.24999638  0.24999927  0.63721405  1
  O  O0  1  0.75000008  0.24999926  0.86214293  1
  O  O1  1  0.24999965  0.74999965  0.59933929  1
  O  O2  1  0.74999939  0.24999950  0.40065961  1
  O  O3  1  0.25000033  0.74999991  0.13785795  1
loop_
_geom_bond_atom_site_label_1
_geom_bond_atom_site_label_2
_geom_bond_distance
_geom_bond_site_symmetry_2
Li0 O3 2.029982 1_556
Li0 O3 2.029988 1_656
Li0 O1 2.131099 1_555
Li0 O1 2.131103 1_655
Li0 O0 2.303931 1_565
Li0 O0 2.303937 1_555
Li1 O0 2.029977 1_454
Li1 O0 2.029981 1_554
Li1 O2 2.131098 1_455
Li1 O2 2.131099 1_555
Li1 O3 2.303930 1_545
Li1 O3 2.303939 1_555
Mn0 O3 1.901118 1_555
Mn0 O3 1.901134 1_655
Mn0 O1 1.946452 1_555
Mn0 O1 1.946465 1_655
Mn0 O2 2.311634 1_565
Mn0 O2 2.311635 1_555
Mn1 O0 1.901123 1_455
Mn1 O0 1.901138 1_555
Mn1 O2 1.946456 1_455
Mn1 O2 1.946468 1_555
Mn1 O1 2.311633 1_545
Mn1 O1 2.311636 1_555
