# generated using pymatgen
data_Ca4MgSi8(NiO8)3
_symmetry_space_group_name_H-M   'P 1'
_cell_length_a   6.67517104
_cell_length_b   6.67517104
_cell_length_c   10.59031140
_cell_angle_alpha   78.25893620
_cell_angle_beta   78.25893620
_cell_angle_gamma   84.62642408
_symmetry_Int_Tables_number   1
_chemical_formula_structural   Ca4MgSi8(NiO8)3
_chemical_formula_sum   'Ca4 Mg1 Si8 Ni3 O24'
_cell_volume   451.67029244
_cell_formula_units_Z   1
loop_
 _symmetry_equiv_pos_site_id
 _symmetry_equiv_pos_as_xyz
  1  'x, y, z'
loop_
 _atom_site_type_symbol
 _atom_site_label
 _atom_site_symmetry_multiplicity
 _atom_site_fract_x
 _atom_site_fract_y
 _atom_site_fract_z
 _atom_site_occupancy
  Ca  Ca0  1  0.29805700  0.70194300  0.50000000  1
  Ca  Ca1  1  0.29761800  0.70238200  0.00000000  1
  Ca  Ca2  1  0.70137200  0.29836300  0.24908000  1
  Ca  Ca3  1  0.70163700  0.29862800  0.75092000  1
  Mg  Mg0  1  0.90869800  0.09130200  0.50000000  1
  Si  Si0  1  0.80728700  0.62027600  0.49001500  1
  Si  Si1  1  0.80668800  0.62074300  0.98981200  1
  Si  Si2  1  0.37972400  0.19271300  0.50998500  1
  Si  Si3  1  0.37925700  0.19331200  0.01018800  1
  Si  Si4  1  0.19310500  0.37920200  0.25989300  1
  Si  Si5  1  0.19347300  0.37921400  0.76000100  1
  Si  Si6  1  0.62078600  0.80652700  0.23999900  1
  Si  Si7  1  0.62079800  0.80689500  0.74010700  1
  Ni  Ni0  1  0.90859000  0.09141000  0.00000000  1
  Ni  Ni1  1  0.09166100  0.90818700  0.24984300  1
  Ni  Ni2  1  0.09181300  0.90833900  0.75015700  1
  O  O0  1  0.97173400  0.79730400  0.44688200  1
  O  O1  1  0.97186900  0.79745200  0.94680400  1
  O  O2  1  0.20269600  0.02826600  0.55311800  1
  O  O3  1  0.20254800  0.02813100  0.05319600  1
  O  O4  1  0.02789800  0.20310200  0.30346100  1
  O  O5  1  0.02806900  0.20258800  0.80315800  1
  O  O6  1  0.79741200  0.97193100  0.19684200  1
  O  O7  1  0.79689800  0.97210200  0.69653900  1
  O  O8  1  0.88887800  0.38788200  0.53573100  1
  O  O9  1  0.88994100  0.38883100  0.03598700  1
  O  O10  1  0.61211800  0.11112200  0.46426900  1
  O  O11  1  0.61116900  0.11005900  0.96401300  1
  O  O12  1  0.11019300  0.61130000  0.21370700  1
  O  O13  1  0.11004800  0.61114500  0.71395800  1
  O  O14  1  0.38885500  0.88995200  0.28604200  1
  O  O15  1  0.38870000  0.88980700  0.78629300  1
  O  O16  1  0.66772100  0.63100800  0.37290700  1
  O  O17  1  0.66744400  0.63050900  0.87295700  1
  O  O18  1  0.36949100  0.33255600  0.12704300  1
  O  O19  1  0.36899200  0.33227900  0.62709300  1
  O  O20  1  0.33237600  0.36897800  0.37703500  1
  O  O21  1  0.33242400  0.36905800  0.87718700  1
  O  O22  1  0.63102200  0.66762400  0.62296500  1
  O  O23  1  0.63094200  0.66757600  0.12281300  1
loop_
_geom_bond_atom_site_label_1
_geom_bond_atom_site_label_2
_geom_bond_distance
_geom_bond_site_symmetry_2
Ca0 O13 2.345808 1_555
Ca0 O14 2.345808 1_555
Ca0 O0 2.357907 1_455
Ca0 O2 2.357907 1_565
Ca0 O19 2.610281 1_555
Ca0 O16 2.610281 1_555
Ca0 O20 2.765756 1_555
Ca0 O22 2.765756 1_555
Ca1 O12 2.342470 1_555
Ca1 O15 2.342470 1_554
Ca1 O1 2.354324 1_454
Ca1 O3 2.354324 1_565
Ca1 O17 2.612225 1_554
Ca1 O18 2.612225 1_555
Ca1 O23 2.766615 1_555
Ca1 O21 2.766615 1_554
Ca2 O9 2.339562 1_555
Ca2 O10 2.353355 1_555
Ca2 O6 2.355769 1_545
Ca2 O4 2.364103 1_655
Ca2 O23 2.603995 1_555
Ca2 O20 2.609496 1_555
Ca2 O18 2.753313 1_555
Ca2 O16 2.769900 1_555
Ca3 O11 2.339562 1_555
Ca3 O8 2.353355 1_555
Ca3 O5 2.355769 1_655
Ca3 O7 2.364103 1_545
Ca3 O21 2.603995 1_555
Ca3 O22 2.609496 1_555
Ca3 O17 2.753313 1_555
Ca3 O19 2.769900 1_555
Mg0 O8 2.077364 1_555
Mg0 O10 2.077364 1_555
Mg0 O4 2.080228 1_655
Mg0 O7 2.080228 1_545
Mg0 O0 2.131466 1_545
Mg0 O2 2.131466 1_655
Ni0 O6 2.082564 1_545
Ni0 O5 2.082564 1_654
Ni0 O9 2.084380 1_555
Ni0 O11 2.084380 1_554
Ni0 O3 2.131645 1_655
Ni0 O1 2.131645 1_544
Ni1 O3 2.081106 1_565
Ni1 O12 2.081501 1_555
Ni1 O14 2.083895 1_555
Ni1 O0 2.084606 1_455
Ni1 O6 2.132836 1_455
Ni1 O4 2.139778 1_565
Ni2 O1 2.081106 1_455
Ni2 O15 2.081501 1_555
Ni2 O13 2.083895 1_555
Ni2 O2 2.084606 1_565
Ni2 O5 2.132836 1_565
Ni2 O7 2.139778 1_455
O0 Si0 1.621490 1_555
O1 Si1 1.623310 1_555
O2 Si2 1.621490 1_555
O3 Si3 1.623310 1_555
O4 Si4 1.620433 1_555
O5 Si5 1.623924 1_555
O6 Si6 1.623924 1_555
O7 Si7 1.620433 1_555
O8 Si0 1.606510 1_555
O9 Si1 1.608045 1_554
O10 Si2 1.606510 1_555
O11 Si3 1.608045 1_556
O12 Si4 1.608424 1_555
O13 Si5 1.608271 1_555
O14 Si6 1.608271 1_555
O15 Si7 1.608424 1_555
O16 Si0 1.683078 1_555
O16 Si6 1.700465 1_555
O17 Si1 1.680360 1_555
O17 Si7 1.702388 1_555
O18 Si3 1.680360 1_555
O18 Si4 1.702388 1_555
O19 Si2 1.683078 1_555
O19 Si5 1.700465 1_555
O20 Si4 1.682547 1_555
O20 Si2 1.704093 1_555
O21 Si5 1.681521 1_555
O21 Si3 1.701746 1_556
O22 Si7 1.682547 1_555
O22 Si0 1.704093 1_555
O23 Si6 1.681521 1_555
O23 Si1 1.701746 1_554
