# generated using pymatgen
data_Gd3Ni7B2
_symmetry_space_group_name_H-M   'P 1'
_cell_length_a   5.10883900
_cell_length_b   5.12263311
_cell_length_c   14.33848500
_cell_angle_alpha   90.00000000
_cell_angle_beta   90.00000000
_cell_angle_gamma   119.91096997
_symmetry_Int_Tables_number   1
_chemical_formula_structural   Gd3Ni7B2
_chemical_formula_sum   'Gd6 Ni14 B4'
_cell_volume   325.26571265
_cell_formula_units_Z   2
loop_
 _symmetry_equiv_pos_site_id
 _symmetry_equiv_pos_as_xyz
  1  'x, y, z'
loop_
 _atom_site_type_symbol
 _atom_site_label
 _atom_site_symmetry_multiplicity
 _atom_site_fract_x
 _atom_site_fract_y
 _atom_site_fract_z
 _atom_site_occupancy
  Gd  Gd0  1  0.33347100  0.66694100  0.96894300  1
  Gd  Gd1  1  0.66652900  0.33305900  0.03105700  1
  Gd  Gd2  1  0.66652900  0.33305900  0.46894300  1
  Gd  Gd3  1  0.33347100  0.66694100  0.53105700  1
  Gd  Gd4  1  0.33327300  0.66654700  0.75000000  1
  Gd  Gd5  1  0.66672700  0.33345300  0.25000000  1
  Ni  Ni0  1  0.16545500  0.83451900  0.35006900  1
  Ni  Ni1  1  0.16545000  0.33090100  0.35001000  1
  Ni  Ni2  1  0.66906400  0.83451900  0.35006900  1
  Ni  Ni3  1  0.83454500  0.16548100  0.64993100  1
  Ni  Ni4  1  0.83455000  0.66909900  0.64999000  1
  Ni  Ni5  1  0.33093600  0.16548100  0.64993100  1
  Ni  Ni6  1  0.83454500  0.16548100  0.85006900  1
  Ni  Ni7  1  0.83455000  0.66909900  0.85001000  1
  Ni  Ni8  1  0.33093600  0.16548100  0.85006900  1
  Ni  Ni9  1  0.16545500  0.83451900  0.14993100  1
  Ni  Ni10  1  0.16545000  0.33090100  0.14999000  1
  Ni  Ni11  1  0.66906400  0.83451900  0.14993100  1
  Ni  Ni12  1  0.00000000  0.00000000  0.50000000  1
  Ni  Ni13  1  0.00000000  0.00000000  0.00000000  1
  B  B0  1  0.33339000  0.66678000  0.25000000  1
  B  B1  1  0.66661000  0.33322000  0.75000000  1
  B  B2  1  0.00001900  0.00003700  0.25000000  1
  B  B3  1  0.99998100  0.99996300  0.75000000  1
loop_
_geom_bond_atom_site_label_1
_geom_bond_atom_site_label_2
_geom_bond_distance
_geom_bond_site_symmetry_2
Gd0 Ni13 2.985036 1_666
Gd0 Ni13 2.985041 1_566
Gd0 Ni11 2.990499 1_556
Gd0 Ni9 2.990501 1_556
Gd0 Ni10 2.994215 1_556
Gd0 Ni13 2.994715 1_556
Gd0 Ni7 3.071362 1_555
Gd0 Ni7 3.071362 1_455
Gd0 Ni6 3.075785 1_565
Gd0 Ni8 3.075787 1_565
Gd0 Ni8 3.077487 1_555
Gd0 Ni6 3.077489 1_455
Gd0 Gd4 3.139311 1_555
Gd1 Ni13 2.985036 1_555
Gd1 Ni13 2.985041 1_655
Gd1 Ni8 2.990499 1_554
Gd1 Ni6 2.990501 1_554
Gd1 Ni7 2.994215 1_554
Gd1 Ni13 2.994715 1_665
Gd1 Ni10 3.071362 1_555
Gd1 Ni10 3.071362 1_655
Gd1 Ni9 3.075785 1_545
Gd1 Ni11 3.075787 1_545
Gd1 Ni11 3.077487 1_555
Gd1 Ni9 3.077489 1_655
Gd1 Gd5 3.139311 1_555
Gd2 Ni12 2.985036 1_555
Gd2 Ni12 2.985041 1_655
Gd2 Ni5 2.990499 1_555
Gd2 Ni3 2.990501 1_555
Gd2 Ni4 2.994215 1_555
Gd2 Ni12 2.994715 1_665
Gd2 Ni1 3.071362 1_555
Gd2 Ni1 3.071362 1_655
Gd2 Ni0 3.075785 1_545
Gd2 Ni2 3.075787 1_545
Gd2 Ni2 3.077487 1_555
Gd2 Ni0 3.077489 1_655
Gd2 Gd5 3.139311 1_555
Gd3 Ni12 2.985036 1_665
Gd3 Ni12 2.985041 1_565
Gd3 Ni2 2.990499 1_555
Gd3 Ni0 2.990501 1_555
Gd3 Ni1 2.994215 1_555
Gd3 Ni12 2.994715 1_555
Gd3 Ni4 3.071362 1_555
Gd3 Ni4 3.071362 1_455
Gd3 Ni3 3.075785 1_565
Gd3 Ni5 3.075787 1_565
Gd3 Ni5 3.077487 1_555
Gd3 Ni3 3.077489 1_455
Gd3 Gd4 3.139311 1_555
Gd4 Ni4 2.929419 1_455
Gd4 Ni7 2.929419 1_455
Gd4 Ni4 2.929428 1_555
Gd4 Ni7 2.929428 1_555
Gd4 Ni6 2.935417 1_455
Gd4 Ni3 2.935417 1_455
Gd4 Ni5 2.935419 1_555
Gd4 Ni8 2.935419 1_555
Gd4 Ni8 2.936279 1_565
Gd4 Ni5 2.936279 1_565
Gd4 Ni3 2.936281 1_565
Gd4 Ni6 2.936281 1_565
Gd5 Ni10 2.929419 1_655
Gd5 Ni1 2.929419 1_655
Gd5 Ni1 2.929428 1_555
Gd5 Ni10 2.929428 1_555
Gd5 Ni0 2.935417 1_655
Gd5 Ni9 2.935417 1_655
Gd5 Ni11 2.935419 1_555
Gd5 Ni2 2.935419 1_555
Gd5 Ni11 2.936279 1_545
Gd5 Ni2 2.936279 1_545
Gd5 Ni9 2.936281 1_545
Gd5 Ni0 2.936281 1_545
Ni0 Ni12 2.601784 1_565
Ni1 Ni12 2.604622 1_555
Ni10 Ni13 2.604622 1_555
Ni11 Ni13 2.601784 1_665
Ni12 Ni2 2.601784 1_445
Ni12 Ni5 2.601784 1_555
Ni12 Ni3 2.601784 1_455
Ni12 Ni4 2.604622 1_445
Ni13 Ni8 2.601784 1_554
Ni13 Ni9 2.601784 1_545
Ni13 Ni6 2.601784 1_454
Ni13 Ni7 2.604622 1_444
B0 Ni11 2.066012 1_555
B0 Ni2 2.066012 1_555
B0 Ni9 2.066012 1_555
B0 Ni0 2.066012 1_555
B0 Ni1 2.068966 1_555
B0 Ni10 2.068966 1_555
B0 Gd5 2.952230 1_455
B0 Gd5 2.952235 1_555
B0 Gd5 2.960231 1_565
B1 Ni5 2.066012 1_555
B1 Ni8 2.066012 1_555
B1 Ni3 2.066012 1_555
B1 Ni6 2.066012 1_555
B1 Ni7 2.068966 1_555
B1 Ni4 2.068966 1_555
B1 Gd4 2.952230 1_655
B1 Gd4 2.952235 1_555
B1 Gd4 2.960231 1_545
B2 Ni9 2.051026 1_545
B2 Ni0 2.051026 1_545
B2 Ni11 2.051029 1_445
B2 Ni2 2.051029 1_445
B2 Ni1 2.052973 1_555
B2 Ni10 2.052973 1_555
B2 Gd5 2.952430 1_555
B2 Gd5 2.952431 1_455
B2 Gd5 2.959836 1_445
B3 Ni3 2.051026 1_565
B3 Ni6 2.051026 1_565
B3 Ni8 2.051029 1_665
B3 Ni5 2.051029 1_665
B3 Ni7 2.052973 1_555
B3 Ni4 2.052973 1_555
B3 Gd4 2.952430 1_555
B3 Gd4 2.952431 1_655
B3 Gd4 2.959836 1_665
