# generated using pymatgen
data_KGdHfTiO6
_symmetry_space_group_name_H-M   'P 1'
_cell_length_a   5.66892036
_cell_length_b   5.66892036
_cell_length_c   5.66892036
_cell_angle_alpha   60.00000000
_cell_angle_beta   60.00000000
_cell_angle_gamma   60.00000000
_symmetry_Int_Tables_number   1
_chemical_formula_structural   KGdHfTiO6
_chemical_formula_sum   'K1 Gd1 Hf1 Ti1 O6'
_cell_volume   128.82082322
_cell_formula_units_Z   1
loop_
 _symmetry_equiv_pos_site_id
 _symmetry_equiv_pos_as_xyz
  1  'x, y, z'
loop_
 _atom_site_type_symbol
 _atom_site_label
 _atom_site_symmetry_multiplicity
 _atom_site_fract_x
 _atom_site_fract_y
 _atom_site_fract_z
 _atom_site_occupancy
  K  K0  1  0.25000000  0.25000000  0.25000000  1
  Gd  Gd0  1  0.75000000  0.75000000  0.75000000  1
  Hf  Hf0  1  -0.00000000  -0.00000000  -0.00000000  1
  Ti  Ti0  1  0.50000000  0.50000000  0.50000000  1
  O  O0  1  0.74383620  0.25616380  0.25616380  1
  O  O1  1  0.25616380  0.74383620  0.74383620  1
  O  O2  1  0.74383620  0.25616380  0.74383620  1
  O  O3  1  0.25616380  0.74383620  0.25616380  1
  O  O4  1  0.74383620  0.74383620  0.25616380  1
  O  O5  1  0.25616380  0.25616380  0.74383620  1
loop_
_geom_bond_atom_site_label_1
_geom_bond_atom_site_label_2
_geom_bond_distance
_geom_bond_site_symmetry_2
K0 O5 2.834891 1_555
K0 O3 2.834891 1_555
K0 O0 2.834891 1_555
K0 O2 2.834891 1_554
K0 O4 2.834891 1_545
K0 O1 2.834891 1_545
K0 O4 2.834891 1_455
K0 O2 2.834891 1_455
K0 O1 2.834891 1_554
K0 O0 2.834891 1_455
K0 O5 2.834891 1_554
K0 O3 2.834891 1_545
Gd0 O4 2.834891 1_556
Gd0 O1 2.834891 1_655
Gd0 O2 2.834891 1_565
Gd0 O5 2.834891 1_565
Gd0 O5 2.834891 1_655
Gd0 O3 2.834891 1_556
Gd0 O0 2.834891 1_556
Gd0 O2 2.834891 1_555
Gd0 O4 2.834891 1_555
Gd0 O1 2.834891 1_555
Gd0 O0 2.834891 1_565
Gd0 O3 2.834891 1_655
Hf0 O5 2.053682 1_554
Hf0 O0 2.053682 1_455
Hf0 O3 2.053682 1_545
Hf0 O4 2.053682 1_445
Hf0 O2 2.053682 1_454
Hf0 O1 2.053682 1_544
O0 Ti0 1.954850 1_555
O1 Ti0 1.954850 1_555
O2 Ti0 1.954850 1_555
O3 Ti0 1.954850 1_555
O4 Ti0 1.954850 1_555
O5 Ti0 1.954850 1_555
