# generated using pymatgen
data_CeMg6Ti
_symmetry_space_group_name_H-M   'P 1'
_cell_length_a   5.20799700
_cell_length_b   6.02767500
_cell_length_c   11.89829100
_cell_angle_alpha   90.00000000
_cell_angle_beta   90.00000000
_cell_angle_gamma   90.00000000
_symmetry_Int_Tables_number   1
_chemical_formula_structural   CeMg6Ti
_chemical_formula_sum   'Ce2 Mg12 Ti2'
_cell_volume   373.51249935
_cell_formula_units_Z   2
loop_
 _symmetry_equiv_pos_site_id
 _symmetry_equiv_pos_as_xyz
  1  'x, y, z'
loop_
 _atom_site_type_symbol
 _atom_site_label
 _atom_site_symmetry_multiplicity
 _atom_site_fract_x
 _atom_site_fract_y
 _atom_site_fract_z
 _atom_site_occupancy
  Ce  Ce0  1  0.50000000  0.50000000  0.17802400  1
  Ce  Ce1  1  0.50000000  0.00000000  0.67802400  1
  Mg  Mg0  1  0.50000000  0.24868300  0.42497600  1
  Mg  Mg1  1  0.50000000  0.75131700  0.42497600  1
  Mg  Mg2  1  0.00000000  0.75656400  0.07812700  1
  Mg  Mg3  1  0.00000000  0.24343600  0.07812700  1
  Mg  Mg4  1  0.00000000  0.00000000  0.31211000  1
  Mg  Mg5  1  0.00000000  0.50000000  0.33746100  1
  Mg  Mg6  1  0.50000000  0.74868300  0.92497600  1
  Mg  Mg7  1  0.50000000  0.25131700  0.92497600  1
  Mg  Mg8  1  0.00000000  0.25656400  0.57812700  1
  Mg  Mg9  1  0.00000000  0.74343600  0.57812700  1
  Mg  Mg10  1  0.00000000  0.50000000  0.81211000  1
  Mg  Mg11  1  0.00000000  0.00000000  0.83746100  1
  Ti  Ti0  1  0.50000000  0.00000000  0.16619500  1
  Ti  Ti1  1  0.50000000  0.50000000  0.66619500  1
loop_
_geom_bond_atom_site_label_1
_geom_bond_atom_site_label_2
_geom_bond_distance
_geom_bond_site_symmetry_2
Ce0 Ti0 3.017122 1_555
Ce0 Ti0 3.017122 1_565
Ce0 Mg5 3.221727 1_555
Ce0 Mg5 3.221727 1_655
Ce0 Mg2 3.253491 1_655
Ce0 Mg2 3.253491 1_555
Ce0 Mg3 3.253491 1_655
Ce0 Mg3 3.253491 1_555
Ce0 Mg1 3.305819 1_555
Ce0 Mg0 3.305819 1_555
Ce0 Mg7 3.363345 1_554
Ce0 Mg6 3.363345 1_554
Ce1 Ti1 3.017122 1_555
Ce1 Ti1 3.017122 1_545
Ce1 Mg11 3.221727 1_555
Ce1 Mg11 3.221727 1_655
Ce1 Mg9 3.253491 1_545
Ce1 Mg9 3.253491 1_645
Ce1 Mg8 3.253491 1_555
Ce1 Mg8 3.253491 1_655
Ce1 Mg6 3.305819 1_545
Ce1 Mg7 3.305819 1_555
Ce1 Mg0 3.363345 1_555
Ce1 Mg1 3.363345 1_545
Mg0 Mg1 2.997961 1_545
Mg0 Mg1 3.029714 1_555
Mg0 Mg8 3.178617 1_655
Mg0 Mg8 3.178617 1_555
Mg0 Mg5 3.187454 1_555
Mg0 Mg5 3.187454 1_655
Mg0 Ti1 3.245340 1_555
Mg0 Mg4 3.291073 1_555
Mg0 Mg4 3.291073 1_655
Mg0 Ti0 3.424544 1_555
Mg1 Mg9 3.178617 1_555
Mg1 Mg9 3.178617 1_655
Mg1 Mg5 3.187454 1_555
Mg1 Mg5 3.187454 1_655
Mg1 Ti1 3.245340 1_555
Mg1 Mg4 3.291073 1_565
Mg1 Mg4 3.291073 1_665
Mg1 Ti0 3.424544 1_565
Mg2 Mg3 2.934706 1_565
Mg2 Mg3 3.092969 1_555
Mg2 Mg4 3.147025 1_565
Mg2 Ti0 3.167324 1_465
Mg2 Ti0 3.167324 1_565
Mg2 Mg6 3.178617 1_454
Mg2 Mg6 3.178617 1_554
Mg2 Mg5 3.451483 1_555
Mg3 Mg4 3.147025 1_555
Mg3 Ti0 3.167324 1_555
Mg3 Ti0 3.167324 1_455
Mg3 Mg7 3.178617 1_554
Mg3 Mg7 3.178617 1_454
Mg3 Mg5 3.451483 1_555
Mg4 Mg5 3.028894 1_555
Mg4 Mg5 3.028894 1_545
Mg4 Ti0 3.129694 1_555
Mg4 Ti0 3.129694 1_455
Mg4 Mg8 3.522751 1_555
Mg4 Mg9 3.522751 1_545
Mg5 Mg8 3.217583 1_555
Mg5 Mg9 3.217583 1_555
Mg6 Mg7 2.997961 1_555
Mg6 Mg7 3.029714 1_565
Mg6 Ti0 3.245340 1_566
Mg6 Ti1 3.424544 1_555
Mg7 Ti0 3.245340 1_556
Mg7 Ti1 3.424544 1_555
Mg8 Mg9 2.934706 1_555
Mg8 Mg9 3.092969 1_545
Mg8 Ti1 3.167324 1_455
Mg8 Ti1 3.167324 1_555
Mg9 Ti1 3.167324 1_455
Mg9 Ti1 3.167324 1_555
Mg10 Mg11 3.028894 1_555
Mg10 Mg11 3.028894 1_565
Mg10 Ti1 3.129694 1_555
Mg10 Ti1 3.129694 1_455
Mg10 Mg8 3.147025 1_555
Mg10 Mg9 3.147025 1_555
Mg10 Mg6 3.291073 1_455
Mg10 Mg6 3.291073 1_555
Mg10 Mg7 3.291073 1_555
Mg10 Mg7 3.291073 1_455
Mg10 Mg2 3.522751 1_556
Mg10 Mg3 3.522751 1_556
Mg11 Mg7 3.187454 1_555
Mg11 Mg6 3.187454 1_445
Mg11 Mg6 3.187454 1_545
Mg11 Mg7 3.187454 1_455
Mg11 Mg3 3.217583 1_556
Mg11 Mg2 3.217583 1_546
Mg11 Mg9 3.451483 1_545
Mg11 Mg8 3.451483 1_555
