# generated using pymatgen
data_Ho4US7
_symmetry_space_group_name_H-M   'P 1'
_cell_length_a   6.66022307
_cell_length_b   6.66022307
_cell_length_c   11.62660905
_cell_angle_alpha   75.81158657
_cell_angle_beta   75.81158657
_cell_angle_gamma   32.89985582
_symmetry_Int_Tables_number   1
_chemical_formula_structural   Ho4US7
_chemical_formula_sum   'Ho4 U1 S7'
_cell_volume   270.83223960
_cell_formula_units_Z   1
loop_
 _symmetry_equiv_pos_site_id
 _symmetry_equiv_pos_as_xyz
  1  'x, y, z'
loop_
 _atom_site_type_symbol
 _atom_site_label
 _atom_site_symmetry_multiplicity
 _atom_site_fract_x
 _atom_site_fract_y
 _atom_site_fract_z
 _atom_site_occupancy
  Ho  Ho0  1  0.69925300  0.69925300  0.18816800  1
  Ho  Ho1  1  0.30205200  0.30205200  0.81087200  1
  Ho  Ho2  1  0.99977400  0.99977400  0.99779000  1
  Ho  Ho3  1  0.11753200  0.11753200  0.57712000  1
  U  U0  1  0.88430600  0.88430600  0.42395600  1
  S  S0  1  0.73962700  0.73962700  0.65271300  1
  S  S1  1  0.25592300  0.25592300  0.34874300  1
  S  S2  1  0.34113900  0.34113900  0.05079500  1
  S  S3  1  0.65947500  0.65947500  0.94936400  1
  S  S4  1  0.04015700  0.04015700  0.21353800  1
  S  S5  1  0.95961500  0.95961500  0.78458300  1
  S  S6  1  0.50114500  0.50114500  0.50235800  1
loop_
_geom_bond_atom_site_label_1
_geom_bond_atom_site_label_2
_geom_bond_distance
_geom_bond_site_symmetry_2
Ho0 S4 2.732882 1_655
Ho0 S4 2.732882 1_565
Ho0 S2 2.813160 1_565
Ho0 S2 2.813160 1_655
Ho0 S1 2.873598 1_565
Ho0 S1 2.873598 1_655
Ho0 S3 2.947588 1_554
Ho1 S5 2.718050 1_455
Ho1 S5 2.718050 1_545
Ho1 S3 2.822828 1_545
Ho1 S3 2.822828 1_455
Ho1 S0 2.885141 1_545
Ho1 S0 2.885141 1_455
Ho1 S2 2.956787 1_556
Ho2 S5 2.656705 1_555
Ho2 S4 2.686966 1_666
Ho2 S2 2.721319 1_566
Ho2 S2 2.721319 1_656
Ho2 S3 2.729360 1_655
Ho2 S3 2.729360 1_565
Ho3 S6 2.680306 1_545
Ho3 S6 2.680306 1_455
Ho3 S5 2.720448 1_445
Ho3 S0 2.731885 1_545
Ho3 S0 2.731885 1_455
Ho3 S1 2.788648 1_555
S0 U0 2.824418 1_555
S1 U0 2.782963 1_455
S1 U0 2.782963 1_545
S4 U0 2.731216 1_445
S6 U0 2.703972 1_455
S6 U0 2.703972 1_545
