# generated using pymatgen
data_Ir2Pt(NCl)10
_symmetry_space_group_name_H-M   'P 1'
_cell_length_a   7.39523870
_cell_length_b   7.39523870
_cell_length_c   11.18647728
_cell_angle_alpha   77.21937283
_cell_angle_beta   77.21937283
_cell_angle_gamma   68.79147718
_symmetry_Int_Tables_number   1
_chemical_formula_structural   Ir2Pt(NCl)10
_chemical_formula_sum   'Ir2 Pt1 N10 Cl10'
_cell_volume   549.46862091
_cell_formula_units_Z   1
loop_
 _symmetry_equiv_pos_site_id
 _symmetry_equiv_pos_as_xyz
  1  'x, y, z'
loop_
 _atom_site_type_symbol
 _atom_site_label
 _atom_site_symmetry_multiplicity
 _atom_site_fract_x
 _atom_site_fract_y
 _atom_site_fract_z
 _atom_site_occupancy
  Ir  Ir0  1  0.17136400  0.17136400  0.23534400  1
  Ir  Ir1  1  0.82863600  0.82863600  0.76465600  1
  Pt  Pt0  1  0.50000000  0.50000000  0.50000000  1
  N  N0  1  0.99832000  0.30660400  0.07056600  1
  N  N1  1  0.30660400  0.99832000  0.07056600  1
  N  N2  1  0.00168000  0.69339600  0.92943400  1
  N  N3  1  0.69339600  0.00168000  0.92943400  1
  N  N4  1  0.03635500  0.37981700  0.31364000  1
  N  N5  1  0.37981700  0.03635500  0.31364000  1
  N  N6  1  0.96364500  0.62018300  0.68636000  1
  N  N7  1  0.62018300  0.96364500  0.68636000  1
  N  N8  1  0.01770900  0.01770900  0.28866900  1
  N  N9  1  0.98229100  0.98229100  0.71133100  1
  Cl  Cl0  1  0.57806500  0.57806500  0.28448700  1
  Cl  Cl1  1  0.42193500  0.42193500  0.71551300  1
  Cl  Cl2  1  0.68418600  0.68418600  0.52600900  1
  Cl  Cl3  1  0.31581400  0.31581400  0.47399100  1
  Cl  Cl4  1  0.77920700  0.22079300  0.50000000  1
  Cl  Cl5  1  0.22079300  0.77920700  0.50000000  1
  Cl  Cl6  1  0.85340600  0.85340600  0.00307600  1
  Cl  Cl7  1  0.14659400  0.14659400  0.99692400  1
  Cl  Cl8  1  0.36902600  0.36902600  0.11077900  1
  Cl  Cl9  1  0.63097400  0.63097400  0.88922100  1
loop_
_geom_bond_atom_site_label_1
_geom_bond_atom_site_label_2
_geom_bond_distance
_geom_bond_site_symmetry_2
Ir0 N5 1.799236 1_555
Ir0 N4 1.799236 1_555
Ir0 N8 1.809057 1_555
Ir0 N1 2.310321 1_545
Ir0 N0 2.310321 1_455
Ir1 N7 1.799236 1_555
Ir1 N6 1.799236 1_555
Ir1 N9 1.809057 1_555
Ir1 N2 2.310321 1_655
Ir1 N3 2.310321 1_565
Cl0 Pt0 2.342703 1_555
Cl1 Pt0 2.342703 1_555
Cl2 Pt0 2.342718 1_555
Cl3 Pt0 2.342718 1_555
Cl4 Pt0 2.332837 1_555
Cl5 Pt0 2.332837 1_555
Cl6 N3 1.540799 1_564
Cl6 N2 1.540799 1_654
Cl7 N0 1.540799 1_456
Cl7 N1 1.540799 1_546
Cl8 Ir0 2.441057 1_555
Cl9 Ir1 2.441057 1_555
