# generated using pymatgen
data_Cs4Ga3FeS8
_symmetry_space_group_name_H-M   'P 1'
_cell_length_a   5.87073700
_cell_length_b   7.33031906
_cell_length_c   12.44476741
_cell_angle_alpha   87.77220225
_cell_angle_beta   82.73997888
_cell_angle_gamma   78.70293927
_symmetry_Int_Tables_number   1
_chemical_formula_structural   Cs4Ga3FeS8
_chemical_formula_sum   'Cs4 Ga3 Fe1 S8'
_cell_volume   520.91102946
_cell_formula_units_Z   1
loop_
 _symmetry_equiv_pos_site_id
 _symmetry_equiv_pos_as_xyz
  1  'x, y, z'
loop_
 _atom_site_type_symbol
 _atom_site_label
 _atom_site_symmetry_multiplicity
 _atom_site_fract_x
 _atom_site_fract_y
 _atom_site_fract_z
 _atom_site_occupancy
  Cs  Cs0  1  0.07292400  0.03179200  0.67783200  1
  Cs  Cs1  1  0.57230500  0.53248500  0.17685200  1
  Cs  Cs2  1  0.42706700  0.46732000  0.82311700  1
  Cs  Cs3  1  0.92777100  0.96825400  0.32219700  1
  Ga  Ga0  1  0.25138100  0.49587100  0.49852500  1
  Ga  Ga1  1  0.74859300  0.50446700  0.50144700  1
  Ga  Ga2  1  0.24834600  0.00438200  0.00153900  1
  Fe  Fe0  1  0.75168500  0.99529500  0.99849000  1
  S  S0  1  0.95425100  0.55838200  0.63921700  1
  S  S1  1  0.45498200  0.05808900  0.13904400  1
  S  S2  1  0.94644500  0.23767300  0.95960100  1
  S  S3  1  0.44685500  0.73788500  0.45947400  1
  S  S4  1  0.54680500  0.94144900  0.86100000  1
  S  S5  1  0.04555400  0.44192000  0.36087700  1
  S  S6  1  0.55308900  0.26234500  0.54045500  1
  S  S7  1  0.05194600  0.76238800  0.04033200  1
loop_
_geom_bond_atom_site_label_1
_geom_bond_atom_site_label_2
_geom_bond_distance
_geom_bond_site_symmetry_2
Cs0 S0 3.731011 1_445
Cs0 S3 3.733563 1_545
Cs0 S4 3.752235 1_445
Cs0 S4 3.760042 1_545
Cs0 S6 3.761538 1_555
Cs0 S6 3.763763 1_455
Cs0 S2 3.799888 1_455
Cs0 S0 3.808312 1_455
Cs1 S2 3.727999 1_554
Cs1 S1 3.733115 1_555
Cs1 S7 3.752739 1_655
Cs1 S7 3.759129 1_555
Cs1 S5 3.760946 1_555
Cs1 S5 3.764556 1_655
Cs1 S1 3.800193 1_565
Cs1 S3 3.808201 1_555
Cs2 S7 3.730836 1_556
Cs2 S4 3.736838 1_555
Cs2 S2 3.753877 1_555
Cs2 S2 3.756003 1_455
Cs2 S0 3.761524 1_455
Cs2 S0 3.763300 1_555
Cs2 S4 3.802199 1_545
Cs2 S6 3.807431 1_555
Cs3 S5 3.730978 1_665
Cs3 S6 3.735074 1_565
Cs3 S1 3.754874 1_565
Cs3 S1 3.755983 1_665
Cs3 S3 3.759284 1_655
Cs3 S3 3.763773 1_555
Cs3 S7 3.800948 1_655
Cs3 S5 3.806576 1_655
Ga0 S3 2.299993 1_555
Ga0 S0 2.301231 1_455
Ga0 S5 2.305199 1_555
Ga0 S6 2.305678 1_555
Ga1 S5 2.299612 1_655
Ga1 S6 2.300722 1_555
Ga1 S3 2.305489 1_555
Ga1 S0 2.305712 1_555
Ga2 S7 2.302884 1_545
Ga2 S4 2.305069 1_544
Ga2 S2 2.305442 1_454
Ga2 S1 2.306305 1_555
Fe0 S7 2.297178 1_656
Fe0 S1 2.298682 1_566
Fe0 S2 2.299444 1_565
Fe0 S4 2.299741 1_555
