# generated using pymatgen
data_KSmHfZrO6
_symmetry_space_group_name_H-M   'P 1'
_cell_length_a   5.85809922
_cell_length_b   5.85809922
_cell_length_c   5.85809922
_cell_angle_alpha   60.00000000
_cell_angle_beta   60.00000000
_cell_angle_gamma   60.00000000
_symmetry_Int_Tables_number   1
_chemical_formula_structural   KSmHfZrO6
_chemical_formula_sum   'K1 Sm1 Hf1 Zr1 O6'
_cell_volume   142.15271887
_cell_formula_units_Z   1
loop_
 _symmetry_equiv_pos_site_id
 _symmetry_equiv_pos_as_xyz
  1  'x, y, z'
loop_
 _atom_site_type_symbol
 _atom_site_label
 _atom_site_symmetry_multiplicity
 _atom_site_fract_x
 _atom_site_fract_y
 _atom_site_fract_z
 _atom_site_occupancy
  K  K0  1  0.25000000  0.25000000  0.25000000  1
  Sm  Sm0  1  0.75000000  0.75000000  0.75000000  1
  Hf  Hf0  1  -0.00000000  0.00000000  0.00000000  1
  Zr  Zr0  1  0.50000000  0.50000000  0.50000000  1
  O  O0  1  0.75189664  0.24810336  0.24810336  1
  O  O1  1  0.24810336  0.75189664  0.75189664  1
  O  O2  1  0.75189664  0.24810336  0.75189664  1
  O  O3  1  0.24810336  0.75189664  0.24810336  1
  O  O4  1  0.75189664  0.75189664  0.24810336  1
  O  O5  1  0.24810336  0.24810336  0.75189664  1
loop_
_geom_bond_atom_site_label_1
_geom_bond_atom_site_label_2
_geom_bond_distance
_geom_bond_site_symmetry_2
K0 O2 2.929092 1_455
K0 O1 2.929092 1_554
K0 O3 2.929092 1_545
K0 O5 2.929092 1_554
K0 O5 2.929092 1_555
K0 O2 2.929092 1_554
K0 O4 2.929092 1_545
K0 O3 2.929092 1_555
K0 O1 2.929092 1_545
K0 O0 2.929092 1_455
K0 O0 2.929092 1_555
K0 O4 2.929092 1_455
Hf0 O3 2.055438 1_545
Hf0 O2 2.055438 1_454
Hf0 O4 2.055438 1_445
Hf0 O5 2.055438 1_554
Hf0 O1 2.055438 1_544
Hf0 O0 2.055438 1_455
O0 Zr0 2.086864 1_555
O0 Sm0 2.929092 1_545
O0 Sm0 2.929092 1_554
O1 Zr0 2.086864 1_555
O1 Sm0 2.929092 1_555
O1 Sm0 2.929092 1_455
O2 Zr0 2.086864 1_555
O2 Sm0 2.929092 1_555
O2 Sm0 2.929092 1_545
O3 Zr0 2.086864 1_555
O3 Sm0 2.929092 1_554
O3 Sm0 2.929092 1_455
O4 Zr0 2.086864 1_555
O4 Sm0 2.929092 1_555
O4 Sm0 2.929092 1_554
O5 Zr0 2.086864 1_555
O5 Sm0 2.929092 1_545
O5 Sm0 2.929092 1_455
