# generated using pymatgen
data_AlSi2HC6NCl3
_symmetry_space_group_name_H-M   'P 1'
_cell_length_a   16.48017115
_cell_length_b   9.10551766
_cell_length_c   17.60940617
_cell_angle_alpha   90.00000000
_cell_angle_beta   90.00000000
_cell_angle_gamma   90.00000000
_symmetry_Int_Tables_number   1
_chemical_formula_structural   AlSi2HC6NCl3
_chemical_formula_sum   'Al8 Si16 H8 C48 N8 Cl24'
_cell_volume   2642.47610873
_cell_formula_units_Z   8
loop_
 _symmetry_equiv_pos_site_id
 _symmetry_equiv_pos_as_xyz
  1  'x, y, z'
loop_
 _atom_site_type_symbol
 _atom_site_label
 _atom_site_symmetry_multiplicity
 _atom_site_fract_x
 _atom_site_fract_y
 _atom_site_fract_z
 _atom_site_occupancy
  Al  Al0  1  0.85044525  0.01748237  0.91328046  1
  Al  Al1  1  0.35044525  0.48251763  0.08671954  1
  Al  Al2  1  0.14955475  0.51748237  0.58671954  1
  Al  Al3  1  0.64955475  0.98251763  0.41328046  1
  Al  Al4  1  0.14955475  0.98251763  0.08671954  1
  Al  Al5  1  0.64955475  0.51748237  0.91328046  1
  Al  Al6  1  0.85044525  0.48251763  0.41328046  1
  Al  Al7  1  0.35044525  0.01748237  0.58671954  1
  Si  Si0  1  0.09084465  0.16178862  0.81548765  1
  Si  Si1  1  0.59084465  0.33821138  0.18451235  1
  Si  Si2  1  0.90915535  0.66178862  0.68451235  1
  Si  Si3  1  0.40915535  0.83821138  0.31548765  1
  Si  Si4  1  0.90915535  0.83821138  0.18451235  1
  Si  Si5  1  0.40915535  0.66178862  0.81548765  1
  Si  Si6  1  0.09084465  0.33821138  0.31548765  1
  Si  Si7  1  0.59084465  0.16178862  0.68451235  1
  Si  Si8  1  0.88905660  0.37997137  0.92939365  1
  Si  Si9  1  0.38905660  0.12002863  0.07060635  1
  Si  Si10  1  0.11094340  0.87997137  0.57060635  1
  Si  Si11  1  0.61094340  0.62002863  0.42939365  1
  Si  Si12  1  0.11094340  0.62002863  0.07060635  1
  Si  Si13  1  0.61094340  0.87997137  0.92939365  1
  Si  Si14  1  0.88905660  0.12002863  0.42939365  1
  Si  Si15  1  0.38905660  0.37997137  0.57060635  1
  H  H0  1  0.92100838  0.17806582  0.99235863  1
  H  H1  1  0.42100838  0.32193418  0.00764137  1
  H  H2  1  0.07899162  0.67806582  0.50764137  1
  H  H3  1  0.57899162  0.82193418  0.49235863  1
  H  H4  1  0.07899162  0.82193418  0.00764137  1
  H  H5  1  0.57899162  0.67806582  0.99235863  1
  H  H6  1  0.92100838  0.32193418  0.49235863  1
  H  H7  1  0.42100838  0.17806582  0.50764137  1
  C  C0  1  0.15988734  -0.00006674  0.78265703  1
  C  C1  1  0.65988734  0.50006674  0.21734297  1
  C  C2  1  0.84011266  0.49993326  0.71734297  1
  C  C3  1  0.34011266  1.00006674  0.28265703  1
  C  C4  1  0.84011266  1.00006674  0.21734297  1
  C  C5  1  0.34011266  0.49993326  0.78265703  1
  C  C6  1  0.15988734  0.50006674  0.28265703  1
  C  C7  1  0.65988734  -0.00006674  0.71734297  1
  C  C8  1  0.10090692  0.02536025  0.72809665  1
  C  C9  1  0.60090692  0.47463975  0.27190335  1
  C  C10  1  0.89909308  0.52536025  0.77190335  1
  C  C11  1  0.39909308  0.97463975  0.22809665  1
  C  C12  1  0.89909308  0.97463975  0.27190335  1
  C  C13  1  0.39909308  0.52536025  0.72809665  1
  C  C14  1  0.10090692  0.47463975  0.22809665  1
  C  C15  1  0.60090692  0.02536025  0.77190335  1
  C  C16  1  0.97750744  0.48681630  0.96664594  1
  C  C17  1  0.47750744  0.01318370  0.03335406  1
  C  C18  1  0.02249256  0.98681630  0.53335406  1
  C  C19  1  0.52249256  0.51318370  0.46664594  1
  C  C20  1  0.02249256  0.51318370  0.03335406  1
  C  C21  1  0.52249256  0.98681630  0.96664594  1
  C  C22  1  0.97750744  0.01318370  0.46664594  1
  C  C23  1  0.47750744  0.48681630  0.53335406  1
  C  C24  1  0.92128881  0.48549185  0.84248729  1
  C  C25  1  0.42128881  0.01450815  0.15751271  1
  C  C26  1  0.07871119  0.98549185  0.65751271  1
  C  C27  1  0.57871119  0.51450815  0.34248729  1
  C  C28  1  0.07871119  0.51450815  0.15751271  1
  C  C29  1  0.57871119  0.98549185  0.84248729  1
  C  C30  1  0.92128881  0.01450815  0.34248729  1
  C  C31  1  0.42128881  0.48549185  0.65751271  1
  C  C32  1  0.18565398  0.04959788  0.84832568  1
  C  C33  1  0.68565398  0.45040212  0.15167432  1
  C  C34  1  0.81434602  0.54959788  0.65167432  1
  C  C35  1  0.31434602  0.95040212  0.34832568  1
  C  C36  1  0.81434602  0.95040212  0.15167432  1
  C  C37  1  0.31434602  0.54959788  0.84832568  1
  C  C38  1  0.18565398  0.45040212  0.34832568  1
  C  C39  1  0.68565398  0.04959788  0.65167432  1
  C  C40  1  0.98290381  0.53602357  0.89332514  1
  C  C41  1  0.48290381  0.96397643  0.10667486  1
  C  C42  1  0.01709619  0.03602357  0.60667486  1
  C  C43  1  0.51709619  0.46397643  0.39332514  1
  C  C44  1  0.01709619  0.46397643  0.10667486  1
  C  C45  1  0.51709619  0.03602357  0.89332514  1
  C  C46  1  0.98290381  0.96397643  0.39332514  1
  C  C47  1  0.48290381  0.53602357  0.60667486  1
  N  N0  1  0.88498618  0.19765349  0.94558596  1
  N  N1  1  0.38498618  0.30234651  0.05441404  1
  N  N2  1  0.11501382  0.69765349  0.55441404  1
  N  N3  1  0.61501382  0.80234651  0.44558596  1
  N  N4  1  0.11501382  0.80234651  0.05441404  1
  N  N5  1  0.61501382  0.69765349  0.94558596  1
  N  N6  1  0.88498618  0.30234651  0.44558596  1
  N  N7  1  0.38498618  0.19765349  0.55441404  1
  Cl  Cl0  1  0.91929498  0.85277460  0.96952114  1
  Cl  Cl1  1  0.41929498  0.64722540  0.03047886  1
  Cl  Cl2  1  0.08070502  0.35277460  0.53047886  1
  Cl  Cl3  1  0.58070502  0.14722540  0.46952114  1
  Cl  Cl4  1  0.08070502  0.14722540  0.03047886  1
  Cl  Cl5  1  0.58070502  0.35277460  0.96952114  1
  Cl  Cl6  1  0.91929498  0.64722540  0.46952114  1
  Cl  Cl7  1  0.41929498  0.85277460  0.53047886  1
  Cl  Cl8  1  0.83862845  0.98146118  0.79497415  1
  Cl  Cl9  1  0.33862845  0.51853882  0.20502585  1
  Cl  Cl10  1  0.16137155  0.48146118  0.70502585  1
  Cl  Cl11  1  0.66137155  0.01853882  0.29497415  1
  Cl  Cl12  1  0.16137155  0.01853882  0.20502585  1
  Cl  Cl13  1  0.66137155  0.48146118  0.79497415  1
  Cl  Cl14  1  0.83862845  0.51853882  0.29497415  1
  Cl  Cl15  1  0.33862845  0.98146118  0.70502585  1
  Cl  Cl16  1  0.72140235  0.99728805  0.97073788  1
  Cl  Cl17  1  0.22140235  0.50271195  0.02926212  1
  Cl  Cl18  1  0.27859765  0.49728805  0.52926212  1
  Cl  Cl19  1  0.77859765  0.00271195  0.47073788  1
  Cl  Cl20  1  0.27859765  0.00271195  0.02926212  1
  Cl  Cl21  1  0.77859765  0.49728805  0.97073788  1
  Cl  Cl22  1  0.72140235  0.50271195  0.47073788  1
  Cl  Cl23  1  0.22140235  0.99728805  0.52926212  1
loop_
_geom_bond_atom_site_label_1
_geom_bond_atom_site_label_2
_geom_bond_distance
_geom_bond_site_symmetry_2
Al0 N0 1.827312 1_555
Al0 Cl8 2.117937 1_545
Al0 Cl0 2.125444 1_545
Al0 Cl16 2.362238 1_545
Al1 N1 1.827312 1_555
Al1 Cl9 2.117937 1_555
Al1 Cl1 2.125444 1_555
Al1 Cl17 2.362238 1_555
Al2 N2 1.827312 1_555
Al2 Cl10 2.117937 1_555
Al2 Cl2 2.125444 1_555
Al2 Cl18 2.362238 1_555
Al3 N3 1.827312 1_555
Al3 Cl11 2.117937 1_565
Al3 Cl3 2.125444 1_565
Al3 Cl19 2.362238 1_565
Al4 N4 1.827312 1_555
Al4 Cl12 2.117937 1_565
Al4 Cl4 2.125444 1_565
Al4 Cl20 2.362238 1_565
Al5 N5 1.827312 1_555
Al5 Cl13 2.117937 1_555
Al5 Cl5 2.125444 1_555
Al5 Cl21 2.362238 1_555
Al6 N6 1.827312 1_555
Al6 Cl14 2.117937 1_555
Al6 Cl6 2.125444 1_555
Al6 Cl22 2.362238 1_555
Al7 N7 1.827312 1_555
Al7 Cl15 2.117937 1_545
Al7 Cl7 2.125444 1_545
Al7 Cl23 2.362238 1_545
H0 N0 1.030832 1_555
H1 N1 1.030832 1_555
H2 N2 1.030832 1_555
H3 N3 1.030832 1_555
H4 N4 1.030832 1_555
H5 N5 1.030832 1_555
H6 N6 1.030832 1_555
H7 N7 1.030832 1_555
C0 C32 1.312269 1_555
C0 C8 1.386179 1_555
C0 Si0 1.949595 1_555
C1 C33 1.312269 1_555
C1 C9 1.386179 1_555
C1 Si1 1.949595 1_555
C2 C34 1.312269 1_555
C2 Si2 1.949595 1_555
C3 C35 1.312269 1_555
C3 Si3 1.949595 1_555
C4 Si4 1.949595 1_555
C5 Si5 1.949595 1_555
C6 Si6 1.949595 1_555
C7 Si7 1.949595 1_555
C8 Si0 1.984669 1_555
C9 Si1 1.984669 1_555
C10 C24 1.345545 1_555
C10 C2 1.386179 1_555
C10 Si2 1.984669 1_555
C11 C25 1.345545 1_565
C11 C3 1.386179 1_555
C11 Si3 1.984669 1_555
C12 C30 1.345545 1_565
C12 C4 1.386179 1_555
C12 Si4 1.984669 1_555
C13 C31 1.345545 1_555
C13 C5 1.386179 1_555
C13 Si5 1.984669 1_555
C14 C28 1.345545 1_555
C14 C6 1.386179 1_555
C14 Si6 1.984669 1_555
C15 C29 1.345545 1_545
C15 C7 1.386179 1_555
C15 Si7 1.984669 1_555
C16 C40 1.369561 1_555
C16 C20 1.409666 1_656
C16 Si8 1.871273 1_555
C17 C41 1.369561 1_545
C17 C21 1.409666 1_544
C17 Si9 1.871273 1_555
C18 C42 1.369561 1_565
C18 C22 1.409666 1_465
C18 Si10 1.871273 1_555
C19 C43 1.369561 1_555
C19 C23 1.409666 1_555
C19 Si11 1.871273 1_555
C20 C44 1.369561 1_555
C20 Si12 1.871273 1_555
C21 C45 1.369561 1_565
C21 Si13 1.871273 1_555
C22 C46 1.369561 1_545
C22 Si14 1.871273 1_555
C23 C47 1.369561 1_555
C23 Si15 1.871273 1_555
C24 C40 1.429764 1_555
C24 Si8 1.883446 1_555
C25 C41 1.429764 1_545
C25 Si9 1.883446 1_555
C26 C8 1.345545 1_565
C26 C42 1.429764 1_565
C26 Si10 1.883446 1_555
C27 C9 1.345545 1_555
C27 C43 1.429764 1_555
C27 Si11 1.883446 1_555
C28 C44 1.429764 1_555
C28 Si12 1.883446 1_555
C29 C45 1.429764 1_565
C29 Si13 1.883446 1_555
C30 C46 1.429764 1_545
C30 Si14 1.883446 1_555
C31 C47 1.429764 1_555
C31 Si15 1.883446 1_555
C32 Si0 1.954298 1_555
C33 Si1 1.954298 1_555
C34 Si2 1.954298 1_555
C35 Si3 1.954298 1_555
C36 C4 1.312269 1_555
C36 Si4 1.954298 1_555
C37 C5 1.312269 1_555
C37 Si5 1.954298 1_555
C38 C6 1.312269 1_555
C38 Si6 1.954298 1_555
C39 C7 1.312269 1_555
C39 Si7 1.954298 1_555
N0 Si8 1.685743 1_555
N1 Si9 1.685743 1_555
N2 Si10 1.685743 1_555
N3 Si11 1.685743 1_555
N4 Si12 1.685743 1_555
N5 Si13 1.685743 1_555
N6 Si14 1.685743 1_555
N7 Si15 1.685743 1_555
Cl16 Si13 2.232702 1_555
Cl17 Si12 2.232702 1_555
Cl18 Si15 2.232702 1_555
Cl19 Si14 2.232702 1_555
Cl20 Si9 2.232702 1_555
Cl21 Si8 2.232702 1_555
Cl22 Si11 2.232702 1_555
Cl23 Si10 2.232702 1_555
