# generated using pymatgen
data_K2CaNd4Nb2O12
_symmetry_space_group_name_H-M   'P 1'
_cell_length_a   5.89176907
_cell_length_b   6.93100108
_cell_length_c   9.17966361
_cell_angle_alpha   103.59783594
_cell_angle_beta   89.99994386
_cell_angle_gamma   115.16991811
_symmetry_Int_Tables_number   1
_chemical_formula_structural   K2CaNd4Nb2O12
_chemical_formula_sum   'K2 Ca1 Nd4 Nb2 O12'
_cell_volume   327.61985862
_cell_formula_units_Z   1
loop_
 _symmetry_equiv_pos_site_id
 _symmetry_equiv_pos_as_xyz
  1  'x, y, z'
loop_
 _atom_site_type_symbol
 _atom_site_label
 _atom_site_symmetry_multiplicity
 _atom_site_fract_x
 _atom_site_fract_y
 _atom_site_fract_z
 _atom_site_occupancy
  K  K0  1  0.11598500  0.23252200  0.48707400  1
  K  K1  1  0.85375900  0.70653900  0.45249000  1
  Ca  Ca0  1  0.92287500  0.84611600  0.78264600  1
  Nd  Nd0  1  0.16373300  0.32746200  0.95634900  1
  Nd  Nd1  1  0.57817200  0.15626500  0.18322700  1
  Nd  Nd2  1  0.40910300  0.81836800  0.81023200  1
  Nd  Nd3  1  0.87315400  0.74623600  0.09395100  1
  Nb  Nb0  1  0.64779400  0.29607800  0.70548300  1
  Nb  Nb1  1  0.34458400  0.68892900  0.29197700  1
  O  O0  1  0.99353800  0.53858200  0.82517100  1
  O  O1  1  0.22115100  0.91460800  0.28888100  1
  O  O2  1  0.23433500  0.00201200  0.99156500  1
  O  O3  1  0.78361900  0.08096600  0.71190400  1
  O  O4  1  0.69359100  0.91471000  0.28891700  1
  O  O5  1  0.76769500  0.00200000  0.99159700  1
  O  O6  1  0.29680800  0.08106700  0.71199300  1
  O  O7  1  0.99180500  0.46984900  0.18230200  1
  O  O8  1  0.66548000  0.33122000  0.51126000  1
  O  O9  1  0.32628800  0.65284200  0.48971100  1
  O  O10  1  0.47780100  0.46964400  0.18241800  1
  O  O11  1  0.54498000  0.53880200  0.82513700  1
loop_
_geom_bond_atom_site_label_1
_geom_bond_atom_site_label_2
_geom_bond_distance
_geom_bond_site_symmetry_2
K0 O9 2.630443 1_555
K0 O4 2.794159 1_445
K0 O1 2.797410 1_545
K0 O3 2.909860 1_455
K0 O6 2.910371 1_555
K0 O8 3.005905 1_455
K0 O8 3.007223 1_555
K1 O8 2.548306 1_555
K1 O1 2.717344 1_655
K1 O4 2.720990 1_555
K1 O7 2.953989 1_555
K1 O10 2.956522 1_555
K1 O9 2.991193 1_655
K1 O9 2.998208 1_555
K1 O6 3.248933 1_665
K1 O3 3.253107 1_565
Ca0 O6 2.317576 1_665
Ca0 O3 2.318932 1_565
Ca0 O5 2.355451 1_565
Ca0 O2 2.356256 1_665
Ca0 O11 2.450090 1_555
Ca0 O0 2.452586 1_555
Ca0 K1 2.928012 1_555
Nd0 O10 2.487787 1_556
Nd0 O7 2.487979 1_456
Nd0 O5 2.550254 1_455
Nd0 O2 2.550823 1_555
Nd0 O11 2.583174 1_555
Nd0 O0 2.583277 1_455
Nd0 O6 2.810767 1_555
Nd0 O3 2.812898 1_455
Nd1 O2 2.369734 1_554
Nd1 O5 2.369735 1_554
Nd1 O1 2.436730 1_545
Nd1 O4 2.436990 1_545
Nd1 O7 2.483200 1_555
Nd1 O10 2.483472 1_555
Nd1 O8 2.924897 1_555
Nd2 O2 2.360036 1_565
Nd2 O5 2.360451 1_565
Nd2 O11 2.420397 1_555
Nd2 O0 2.420828 1_455
Nd2 O3 2.520442 1_565
Nd2 O6 2.522485 1_565
Nd2 O9 2.854451 1_555
Nd3 O1 2.398010 1_655
Nd3 O4 2.398747 1_555
Nd3 O2 2.475689 1_664
Nd3 O5 2.476169 1_564
Nd3 O7 2.585686 1_555
Nd3 O10 2.587290 1_555
Nd3 O0 2.803693 1_554
Nd3 O11 2.803918 1_554
Nb0 O8 1.852438 1_555
Nb0 O6 1.980218 1_555
Nb0 O3 1.980653 1_555
Nb0 O0 2.097872 1_555
Nb0 O11 2.097987 1_555
Nb1 O9 1.886643 1_555
Nb1 O4 1.990342 1_555
Nb1 O1 1.991192 1_555
Nb1 O10 2.057536 1_555
Nb1 O7 2.058154 1_455
