# generated using pymatgen
data_Sr3LaMn2O8
_symmetry_space_group_name_H-M   'P 1'
_cell_length_a   5.54781980
_cell_length_b   5.55880682
_cell_length_c   12.40916100
_cell_angle_alpha   90.00000000
_cell_angle_beta   90.00000000
_cell_angle_gamma   90.00000000
_symmetry_Int_Tables_number   1
_chemical_formula_structural   Sr3LaMn2O8
_chemical_formula_sum   'Sr6 La2 Mn4 O16'
_cell_volume   382.68932443
_cell_formula_units_Z   2
loop_
 _symmetry_equiv_pos_site_id
 _symmetry_equiv_pos_as_xyz
  1  'x, y, z'
loop_
 _atom_site_type_symbol
 _atom_site_label
 _atom_site_symmetry_multiplicity
 _atom_site_fract_x
 _atom_site_fract_y
 _atom_site_fract_z
 _atom_site_occupancy
  Sr  Sr0  1  0.50000000  0.00000000  0.14313000  1
  Sr  Sr1  1  0.00000000  0.00000000  0.64313000  1
  Sr  Sr2  1  0.00000000  0.00000000  0.35874000  1
  Sr  Sr3  1  0.50000000  0.00000000  0.85874000  1
  Sr  Sr4  1  0.50000000  0.50000000  0.35654600  1
  Sr  Sr5  1  0.00000000  0.50000000  0.85654600  1
  La  La0  1  0.00000000  0.50000000  0.13923200  1
  La  La1  1  0.50000000  0.50000000  0.63923200  1
  Mn  Mn0  1  0.50000000  0.50000000  0.99927500  1
  Mn  Mn1  1  0.00000000  0.00000000  0.99829800  1
  Mn  Mn2  1  0.00000000  0.50000000  0.49927500  1
  Mn  Mn3  1  0.50000000  0.00000000  0.49829800  1
  O  O0  1  0.50000000  0.00000000  0.34174600  1
  O  O1  1  0.00000000  0.00000000  0.84174600  1
  O  O2  1  0.00000000  0.50000000  0.33235600  1
  O  O3  1  0.50000000  0.50000000  0.83235600  1
  O  O4  1  0.50000000  0.50000000  0.15943800  1
  O  O5  1  0.00000000  0.50000000  0.65943800  1
  O  O6  1  0.00000000  0.00000000  0.16001900  1
  O  O7  1  0.50000000  0.00000000  0.66001900  1
  O  O8  1  0.75132900  0.74268100  0.00280500  1
  O  O9  1  0.25132900  0.74268100  0.50280500  1
  O  O10  1  0.24867100  0.25731900  0.00280500  1
  O  O11  1  0.74867100  0.25731900  0.50280500  1
  O  O12  1  0.75132900  0.25731900  0.00280500  1
  O  O13  1  0.25132900  0.25731900  0.50280500  1
  O  O14  1  0.24867100  0.74268100  0.00280500  1
  O  O15  1  0.74867100  0.74268100  0.50280500  1
loop_
_geom_bond_atom_site_label_1
_geom_bond_atom_site_label_2
_geom_bond_distance
_geom_bond_site_symmetry_2
La0 O2 2.396507 1_555
La0 O12 2.566935 1_455
La0 O10 2.566935 1_555
La0 O8 2.566935 1_455
La0 O14 2.566935 1_555
La0 O4 2.785219 1_455
La0 O4 2.785219 1_555
La0 O6 2.791348 1_565
La0 O6 2.791348 1_555
La1 O3 2.396507 1_555
La1 O11 2.566935 1_555
La1 O13 2.566935 1_555
La1 O15 2.566935 1_555
La1 O9 2.566935 1_555
La1 O5 2.785219 1_555
La1 O5 2.785219 1_655
La1 O7 2.791348 1_555
La1 O7 2.791348 1_565
Mn0 O10 1.940597 1_556
Mn0 O8 1.940597 1_556
Mn0 O12 1.940597 1_556
Mn0 O14 1.940597 1_556
Mn0 O4 1.987488 1_556
Mn0 O3 2.071325 1_555
Mn1 O1 1.942679 1_555
Mn1 O8 1.988059 1_446
Mn1 O10 1.988059 1_556
Mn1 O14 1.988059 1_546
Mn1 O12 1.988059 1_456
Mn1 O6 2.006822 1_556
Mn2 O9 1.940597 1_555
Mn2 O13 1.940597 1_555
Mn2 O11 1.940597 1_455
Mn2 O15 1.940597 1_455
Mn2 O5 1.987488 1_555
Mn2 O2 2.071325 1_555
Mn3 O0 1.942679 1_555
Mn3 O15 1.988059 1_545
Mn3 O9 1.988059 1_545
Mn3 O11 1.988059 1_555
Mn3 O13 1.988059 1_555
Mn3 O7 2.006822 1_555
O0 Sr0 2.464658 1_555
O0 Sr2 2.781914 1_555
O0 Sr2 2.781914 1_655
O0 Sr4 2.785465 1_555
O0 Sr4 2.785465 1_545
O1 Sr1 2.464658 1_555
O1 Sr3 2.781914 1_455
O1 Sr3 2.781914 1_555
O1 Sr5 2.785465 1_555
O1 Sr5 2.785465 1_545
O2 Sr4 2.790104 1_455
O2 Sr4 2.790104 1_555
O2 Sr2 2.798620 1_565
O2 Sr2 2.798620 1_555
O3 Sr5 2.790104 1_655
O3 Sr5 2.790104 1_555
O3 Sr3 2.798620 1_555
O3 Sr3 2.798620 1_565
O4 Sr4 2.445945 1_555
O4 Sr0 2.786761 1_565
O4 Sr0 2.786761 1_555
O5 Sr5 2.445945 1_555
O5 Sr1 2.786761 1_565
O5 Sr1 2.786761 1_555
O6 Sr2 2.465961 1_555
O6 Sr0 2.781816 1_455
O6 Sr0 2.781816 1_555
O7 Sr3 2.465961 1_555
O7 Sr1 2.781816 1_655
O7 Sr1 2.781816 1_555
O8 Sr5 2.648989 1_654
O8 Sr0 2.649969 1_565
O8 Sr3 2.680694 1_564
O9 Sr4 2.648989 1_555
O9 Sr1 2.649969 1_565
O9 Sr2 2.680694 1_565
O10 Sr5 2.648989 1_554
O10 Sr0 2.649969 1_555
O10 Sr3 2.680694 1_554
O11 Sr4 2.648989 1_555
O11 Sr1 2.649969 1_655
O11 Sr2 2.680694 1_655
O12 Sr5 2.648989 1_654
O12 Sr0 2.649969 1_555
O12 Sr3 2.680694 1_554
O13 Sr4 2.648989 1_555
O13 Sr1 2.649969 1_555
O13 Sr2 2.680694 1_555
O14 Sr5 2.648989 1_554
O14 Sr0 2.649969 1_565
O14 Sr3 2.680694 1_564
O15 Sr4 2.648989 1_555
O15 Sr1 2.649969 1_665
O15 Sr2 2.680694 1_665
