# generated using pymatgen
data_Na4Cu4H18C8O23
_symmetry_space_group_name_H-M   'P 1'
_cell_length_a   8.68697110
_cell_length_b   8.68697110
_cell_length_c   17.36896979
_cell_angle_alpha   90.00000000
_cell_angle_beta   90.00000000
_cell_angle_gamma   90.00000000
_symmetry_Int_Tables_number   1
_chemical_formula_structural   Na4Cu4H18C8O23
_chemical_formula_sum   'Na8 Cu8 H36 C16 O46'
_cell_volume   1310.72267670
_cell_formula_units_Z   2
loop_
 _symmetry_equiv_pos_site_id
 _symmetry_equiv_pos_as_xyz
  1  'x, y, z'
loop_
 _atom_site_type_symbol
 _atom_site_label
 _atom_site_symmetry_multiplicity
 _atom_site_fract_x
 _atom_site_fract_y
 _atom_site_fract_z
 _atom_site_occupancy
  Na  Na0  1  0.50000000  -0.00000000  0.17235812  1
  Na  Na1  1  -0.00000000  0.50000000  0.32764188  1
  Na  Na2  1  -0.00000000  0.50000000  0.82764188  1
  Na  Na3  1  0.50000000  -0.00000000  0.67235812  1
  Na  Na4  1  -0.00000000  0.50000000  0.03650092  1
  Na  Na5  1  0.50000000  -0.00000000  0.46349908  1
  Na  Na6  1  0.50000000  -0.00000000  0.96349908  1
  Na  Na7  1  -0.00000000  0.50000000  0.53650092  1
  Cu  Cu0  1  0.58944600  0.34420170  0.06759119  1
  Cu  Cu1  1  0.41055400  0.65579830  0.06759119  1
  Cu  Cu2  1  0.08944600  0.84420170  0.43240881  1
  Cu  Cu3  1  0.91055400  0.15579830  0.43240881  1
  Cu  Cu4  1  0.34420170  0.41055400  0.93240881  1
  Cu  Cu5  1  0.65579830  0.58944600  0.93240881  1
  Cu  Cu6  1  0.84420170  0.91055400  0.56759119  1
  Cu  Cu7  1  0.15579830  0.08944600  0.56759119  1
  H  H0  1  0.87475282  0.14074905  0.20020845  1
  H  H1  1  0.12524718  0.85925095  0.20020845  1
  H  H2  1  0.37475282  0.64074905  0.29979155  1
  H  H3  1  0.62524718  0.35925095  0.29979155  1
  H  H4  1  0.14074905  0.12524718  0.79979155  1
  H  H5  1  0.85925095  0.87475282  0.79979155  1
  H  H6  1  0.64074905  0.62524718  0.70020845  1
  H  H7  1  0.35925095  0.37475282  0.70020845  1
  H  H8  1  0.14986061  0.14229711  0.08181052  1
  H  H9  1  0.85013939  0.85770289  0.08181052  1
  H  H10  1  0.64986061  0.64229711  0.41818948  1
  H  H11  1  0.35013939  0.35770289  0.41818948  1
  H  H12  1  0.14229711  0.85013939  0.91818948  1
  H  H13  1  0.85770289  0.14986061  0.91818948  1
  H  H14  1  0.64229711  0.35013939  0.58181052  1
  H  H15  1  0.35770289  0.64986061  0.58181052  1
  H  H16  1  0.50000000  0.50000000  0.19556268  1
  H  H17  1  -0.00000000  -0.00000000  0.30443732  1
  H  H18  1  0.50000000  0.50000000  0.80443732  1
  H  H19  1  -0.00000000  -0.00000000  0.69556268  1
  H  H20  1  0.64988272  0.81893640  0.29325341  1
  H  H21  1  0.35011728  0.18106360  0.29325341  1
  H  H22  1  0.14988272  0.31893640  0.20674659  1
  H  H23  1  0.85011728  0.68106360  0.20674659  1
  H  H24  1  0.81893640  0.35011728  0.70674659  1
  H  H25  1  0.18106360  0.64988272  0.70674659  1
  H  H26  1  0.31893640  0.85011728  0.79325341  1
  H  H27  1  0.68106360  0.14988272  0.79325341  1
  H  H28  1  0.76828041  0.94868094  0.29237006  1
  H  H29  1  0.23171959  0.05131906  0.29237006  1
  H  H30  1  0.26828041  0.44868094  0.20762994  1
  H  H31  1  0.73171959  0.55131906  0.20762994  1
  H  H32  1  0.94868094  0.23171959  0.70762994  1
  H  H33  1  0.05131906  0.76828041  0.70762994  1
  H  H34  1  0.44868094  0.73171959  0.79237006  1
  H  H35  1  0.55131906  0.26828041  0.79237006  1
  C  C0  1  0.82710017  0.22492241  0.15808274  1
  C  C1  1  0.17289983  0.77507759  0.15808274  1
  C  C2  1  0.32710017  0.72492241  0.34191726  1
  C  C3  1  0.67289983  0.27507759  0.34191726  1
  C  C4  1  0.22492241  0.17289983  0.84191726  1
  C  C5  1  0.77507759  0.82710017  0.84191726  1
  C  C6  1  0.72492241  0.67289983  0.65808274  1
  C  C7  1  0.27507759  0.32710017  0.65808274  1
  C  C8  1  0.24869714  0.20172304  0.05415974  1
  C  C9  1  0.75130286  0.79827696  0.05415974  1
  C  C10  1  0.74869714  0.70172304  0.44584026  1
  C  C11  1  0.25130286  0.29827696  0.44584026  1
  C  C12  1  0.20172304  0.75130286  0.94584026  1
  C  C13  1  0.79827696  0.24869714  0.94584026  1
  C  C14  1  0.70172304  0.25130286  0.55415974  1
  C  C15  1  0.29827696  0.74869714  0.55415974  1
  O  O0  1  0.67950366  0.21768341  0.15101414  1
  O  O1  1  0.32049634  0.78231659  0.15101414  1
  O  O2  1  0.17950366  0.71768341  0.34898586  1
  O  O3  1  0.82049634  0.28231659  0.34898586  1
  O  O4  1  0.21768341  0.32049634  0.84898586  1
  O  O5  1  0.78231659  0.67950366  0.84898586  1
  O  O6  1  0.71768341  0.82049634  0.65101414  1
  O  O7  1  0.28231659  0.17950366  0.65101414  1
  O  O8  1  0.91690546  0.31350189  0.12423795  1
  O  O9  1  0.08309454  0.68649811  0.12423795  1
  O  O10  1  0.41690546  0.81350189  0.37576205  1
  O  O11  1  0.58309454  0.18649811  0.37576205  1
  O  O12  1  0.31350189  0.08309454  0.87576205  1
  O  O13  1  0.68649811  0.91690546  0.87576205  1
  O  O14  1  0.81350189  0.58309454  0.62423795  1
  O  O15  1  0.18649811  0.41690546  0.62423795  1
  O  O16  1  0.38229741  0.15255789  0.06662559  1
  O  O17  1  0.61770259  0.84744211  0.06662559  1
  O  O18  1  0.88229741  0.65255789  0.43337441  1
  O  O19  1  0.11770259  0.34744211  0.43337441  1
  O  O20  1  0.15255789  0.61770259  0.93337441  1
  O  O21  1  0.84744211  0.38229741  0.93337441  1
  O  O22  1  0.65255789  0.11770259  0.56662559  1
  O  O23  1  0.34744211  0.88229741  0.56662559  1
  O  O24  1  0.20997857  0.31650149  0.01208482  1
  O  O25  1  0.79002143  0.68349851  0.01208482  1
  O  O26  1  0.70997857  0.81650149  0.48791518  1
  O  O27  1  0.29002143  0.18349851  0.48791518  1
  O  O28  1  0.31650149  0.79002143  0.98791518  1
  O  O29  1  0.68349851  0.20997857  0.98791518  1
  O  O30  1  0.81650149  0.29002143  0.51208482  1
  O  O31  1  0.18349851  0.70997857  0.51208482  1
  O  O32  1  0.50000000  0.50000000  0.13909339  1
  O  O33  1  -0.00000000  -0.00000000  0.36090661  1
  O  O34  1  0.50000000  0.50000000  0.86090661  1
  O  O35  1  -0.00000000  -0.00000000  0.63909339  1
  O  O36  1  0.50000000  0.50000000  -0.00000000  1
  O  O37  1  -0.00000000  -0.00000000  0.50000000  1
  O  O38  1  0.68981325  0.90063894  0.26016452  1
  O  O39  1  0.31018675  0.09936106  0.26016452  1
  O  O40  1  0.18981325  0.40063894  0.23983548  1
  O  O41  1  0.81018675  0.59936106  0.23983548  1
  O  O42  1  0.90063894  0.31018675  0.73983548  1
  O  O43  1  0.09936106  0.68981325  0.73983548  1
  O  O44  1  0.40063894  0.81018675  0.76016452  1
  O  O45  1  0.59936106  0.18981325  0.76016452  1
loop_
_geom_bond_atom_site_label_1
_geom_bond_atom_site_label_2
_geom_bond_distance
_geom_bond_site_symmetry_2
Na0 O39 2.406211 1_555
Na0 O38 2.406211 1_545
Na0 O1 2.478892 1_545
Na0 O0 2.478892 1_555
Na0 O17 2.484833 1_545
Na0 O16 2.484833 1_555
Na1 O41 2.406211 1_455
Na1 O40 2.406211 1_555
Na1 O3 2.478892 1_455
Na1 O2 2.478892 1_555
Na1 O19 2.484833 1_555
Na1 O18 2.484833 1_455
Na2 O42 2.406211 1_455
Na2 O43 2.406211 1_555
Na2 O4 2.478892 1_555
Na2 O5 2.478892 1_455
Na2 O20 2.484833 1_555
Na2 O21 2.484833 1_455
Na3 O44 2.406211 1_545
Na3 O45 2.406211 1_555
Na3 O6 2.478892 1_545
Na3 O7 2.478892 1_555
Na3 O22 2.484833 1_555
Na3 O23 2.484833 1_545
Na4 O8 2.338390 1_455
Na4 O9 2.338390 1_555
Na4 O21 2.451570 1_454
Na4 O20 2.451570 1_554
Na4 O24 2.459286 1_555
Na4 O25 2.459286 1_455
Na5 O10 2.338390 1_545
Na5 O11 2.338390 1_555
Na5 O23 2.451570 1_545
Na5 O22 2.451570 1_555
Na5 O26 2.459286 1_545
Na5 O27 2.459286 1_555
Na6 O12 2.338390 1_555
Na6 O13 2.338390 1_545
Na6 O16 2.451570 1_556
Na6 O17 2.451570 1_546
Na6 O28 2.459286 1_545
Na6 O29 2.459286 1_555
Na7 O14 2.338390 1_455
Na7 O15 2.338390 1_555
Na7 O18 2.451570 1_455
Na7 O19 2.451570 1_555
Na7 O30 2.459286 1_455
Na7 O31 2.459286 1_555
Cu0 O36 1.952879 1_555
Cu0 O0 1.979770 1_555
Cu0 O29 1.985505 1_554
Cu0 O32 1.994455 1_555
Cu0 O16 2.451537 1_555
Cu1 O36 1.952879 1_555
Cu1 O1 1.979770 1_555
Cu1 O28 1.985505 1_554
Cu1 O32 1.994455 1_555
Cu1 O17 2.451537 1_555
Cu2 O37 1.952879 1_565
Cu2 O2 1.979770 1_555
Cu2 O31 1.985505 1_555
Cu2 O33 1.994455 1_565
Cu2 O18 2.451537 1_455
Cu3 O37 1.952879 1_655
Cu3 O3 1.979770 1_555
Cu3 O30 1.985505 1_555
Cu3 O33 1.994455 1_655
Cu3 O19 2.451537 1_655
Cu4 O36 1.952879 1_556
Cu4 O4 1.979770 1_555
Cu4 O24 1.985505 1_556
Cu4 O34 1.994455 1_555
Cu4 O20 2.451537 1_555
Cu5 O36 1.952879 1_556
Cu5 O5 1.979770 1_555
Cu5 O25 1.985505 1_556
Cu5 O34 1.994455 1_555
Cu5 O21 2.451537 1_555
Cu6 O37 1.952879 1_665
Cu6 O6 1.979770 1_555
Cu6 O26 1.985505 1_555
Cu6 O35 1.994455 1_665
Cu6 O22 2.451537 1_565
Cu7 O37 1.952879 1_555
Cu7 O7 1.979770 1_555
Cu7 O27 1.985505 1_555
Cu7 O35 1.994455 1_555
Cu7 O23 2.451537 1_545
H16 O32 0.980813 1_555
H17 O33 0.980813 1_555
H18 O34 0.980813 1_555
H19 O35 0.980813 1_555
H20 O38 0.976917 1_555
H21 O39 0.976917 1_555
H22 O40 0.976917 1_555
H23 O41 0.976917 1_555
H24 O42 0.976917 1_555
H25 O43 0.976917 1_555
H26 O44 0.976917 1_555
H27 O45 0.976917 1_555
H28 O38 0.975557 1_555
H29 O39 0.975557 1_555
H30 O40 0.975557 1_555
H31 O41 0.975557 1_555
H32 O42 0.975557 1_555
H33 O43 0.975557 1_555
H34 O44 0.975557 1_555
H35 O45 0.975557 1_555
C0 H0 1.114175 1_555
C0 O8 1.243499 1_555
C0 O0 1.289566 1_555
C1 H1 1.114175 1_555
C1 O9 1.243499 1_555
C1 O1 1.289566 1_555
C2 H2 1.114175 1_555
C2 O10 1.243499 1_555
C2 O2 1.289566 1_555
C3 H3 1.114175 1_555
C3 O11 1.243499 1_555
C3 O3 1.289566 1_555
C4 H4 1.114175 1_555
C4 O12 1.243499 1_555
C4 O4 1.289566 1_555
C5 H5 1.114175 1_555
C5 O13 1.243499 1_555
C5 O5 1.289566 1_555
C6 H6 1.114175 1_555
C6 O14 1.243499 1_555
C6 O6 1.289566 1_555
C7 H7 1.114175 1_555
C7 O15 1.243499 1_555
C7 O7 1.289566 1_555
C8 H8 1.111003 1_555
C8 O16 1.255485 1_555
C8 O24 1.281155 1_555
C9 H9 1.111003 1_555
C9 O17 1.255485 1_555
C9 O25 1.281155 1_555
C10 H10 1.111003 1_555
C10 O18 1.255485 1_555
C10 O26 1.281155 1_555
C11 H11 1.111003 1_555
C11 O19 1.255485 1_555
C11 O27 1.281155 1_555
C12 H12 1.111003 1_555
C12 O20 1.255485 1_555
C12 O28 1.281155 1_555
C13 H13 1.111003 1_555
C13 O21 1.255485 1_555
C13 O29 1.281155 1_555
C14 H14 1.111003 1_555
C14 O22 1.255485 1_555
C14 O30 1.281155 1_555
C15 H15 1.111003 1_555
C15 O23 1.255485 1_555
C15 O31 1.281155 1_555
