# generated using pymatgen
data_AlVO3
_symmetry_space_group_name_H-M   'P 1'
_cell_length_a   4.88111520
_cell_length_b   9.44892760
_cell_length_c   4.88124037
_cell_angle_alpha   75.04115014
_cell_angle_beta   119.99756214
_cell_angle_gamma   104.95459902
_symmetry_Int_Tables_number   1
_chemical_formula_structural   AlVO3
_chemical_formula_sum   'Al4 V4 O12'
_cell_volume   186.11277526
_cell_formula_units_Z   4
loop_
 _symmetry_equiv_pos_site_id
 _symmetry_equiv_pos_as_xyz
  1  'x, y, z'
loop_
 _atom_site_type_symbol
 _atom_site_label
 _atom_site_symmetry_multiplicity
 _atom_site_fract_x
 _atom_site_fract_y
 _atom_site_fract_z
 _atom_site_occupancy
  Al  Al0  1  0.07509630  0.22529887  0.92493561  1
  Al  Al1  1  0.57510874  0.72528222  0.42495012  1
  Al  Al2  1  0.42488983  0.27469658  0.57505866  1
  Al  Al3  1  0.92491544  0.77472153  0.07505596  1
  V  V0  1  0.17582406  0.52730457  0.82428259  1
  V  V1  1  0.32418932  0.97268867  0.67573646  1
  V  V2  1  0.67583306  0.02736784  0.32424597  1
  V  V3  1  0.82416470  0.47263936  0.17574264  1
  O  O0  1  0.42184634  0.36844908  0.19042768  1
  O  O1  1  0.92183372  0.86840398  0.69044681  1
  O  O2  1  0.69045247  0.13152165  0.63703063  1
  O  O3  1  0.19048019  0.63157992  0.13701173  1
  O  O4  1  0.36300377  0.13153582  0.92181775  1
  O  O5  1  0.86304164  0.63159045  0.42180264  1
  O  O6  1  0.13697228  0.36845816  0.57817505  1
  O  O7  1  0.63697389  0.86840769  0.07820695  1
  O  O8  1  0.80953174  0.36848113  0.86297033  1
  O  O9  1  0.30953462  0.86843005  0.36298931  1
  O  O10  1  0.07813663  0.13153921  0.30956014  1
  O  O11  1  0.57817427  0.63160322  0.80955697  1
loop_
_geom_bond_atom_site_label_1
_geom_bond_atom_site_label_2
_geom_bond_distance
_geom_bond_site_symmetry_2
Al0 O10 1.852065 1_556
Al0 O4 1.852290 1_555
Al0 O2 1.852307 1_455
Al0 O0 1.975805 1_556
Al0 O8 1.975842 1_455
Al0 O6 1.975929 1_555
Al1 O11 1.851776 1_555
Al1 O5 1.852018 1_555
Al1 O3 1.852038 1_555
Al1 O1 1.975601 1_555
Al1 O9 1.975620 1_555
Al1 O7 1.975708 1_555
Al2 O0 1.852072 1_555
Al2 O6 1.852320 1_555
Al2 O8 1.852343 1_555
Al2 O2 1.975767 1_555
Al2 O10 1.975866 1_555
Al2 O4 1.975949 1_555
Al3 O1 1.851763 1_554
Al3 O7 1.852029 1_555
Al3 O9 1.852030 1_655
Al3 O3 1.975546 1_655
Al3 O11 1.975613 1_554
Al3 O5 1.975760 1_555
O0 V3 1.984250 1_555
O0 V0 2.070901 1_554
O1 V1 1.984666 1_655
O1 V2 2.071638 1_565
O2 V2 1.983731 1_555
O2 V1 2.071432 1_545
O3 V0 1.984195 1_554
O3 V3 2.072143 1_455
O4 V2 1.984272 1_556
O4 V1 2.070740 1_545
O5 V0 1.984790 1_655
O5 V3 2.071384 1_555
O6 V3 1.984294 1_455
O6 V0 2.070757 1_555
O7 V1 1.984752 1_554
O7 V2 2.071416 1_565
O8 V3 1.983675 1_556
O8 V0 2.071462 1_655
O9 V1 1.984167 1_555
O9 V2 2.072091 1_565
O10 V2 1.984147 1_455
O10 V1 2.070979 1_545
O11 V0 1.984704 1_555
O11 V3 2.071593 1_556
