# generated using pymatgen
data_BaNdV4O12
_symmetry_space_group_name_H-M   'P 1'
_cell_length_a   5.40666205
_cell_length_b   5.40666205
_cell_length_c   7.59842838
_cell_angle_alpha   90.00000000
_cell_angle_beta   90.00000000
_cell_angle_gamma   90.00000000
_symmetry_Int_Tables_number   1
_chemical_formula_structural   BaNdV4O12
_chemical_formula_sum   'Ba1 Nd1 V4 O12'
_cell_volume   222.11721679
_cell_formula_units_Z   1
loop_
 _symmetry_equiv_pos_site_id
 _symmetry_equiv_pos_as_xyz
  1  'x, y, z'
loop_
 _atom_site_type_symbol
 _atom_site_label
 _atom_site_symmetry_multiplicity
 _atom_site_fract_x
 _atom_site_fract_y
 _atom_site_fract_z
 _atom_site_occupancy
  Ba  Ba0  1  0.50000000  0.50000000  -0.00000000  1
  Nd  Nd0  1  -0.00000000  0.00000000  0.50000000  1
  V  V0  1  -0.00000000  0.50000000  0.74818165  1
  V  V1  1  -0.00000000  0.50000000  0.25181835  1
  V  V2  1  0.50000000  0.00000000  0.74818165  1
  V  V3  1  0.50000000  -0.00000000  0.25181835  1
  O  O0  1  0.24457046  0.24457046  0.26030710  1
  O  O1  1  0.24457046  0.24457046  0.73969290  1
  O  O2  1  0.75542954  0.75542954  0.73969290  1
  O  O3  1  0.75542954  0.75542954  0.26030710  1
  O  O4  1  0.75542954  0.24457046  0.73969290  1
  O  O5  1  0.75542954  0.24457046  0.26030710  1
  O  O6  1  0.24457046  0.75542954  0.73969290  1
  O  O7  1  0.24457046  0.75542954  0.26030710  1
  O  O8  1  -0.00000000  0.50000000  0.50000000  1
  O  O9  1  -0.00000000  0.50000000  0.00000000  1
  O  O10  1  0.50000000  -0.00000000  0.50000000  1
  O  O11  1  0.50000000  -0.00000000  0.00000000  1
loop_
_geom_bond_atom_site_label_1
_geom_bond_atom_site_label_2
_geom_bond_distance
_geom_bond_site_symmetry_2
Ba0 O9 2.703331 1_555
Ba0 O9 2.703331 1_655
Ba0 O11 2.703331 1_555
Ba0 O11 2.703331 1_565
Ba0 O6 2.779681 1_554
Ba0 O3 2.779681 1_555
Ba0 O4 2.779681 1_554
Ba0 O1 2.779681 1_554
Ba0 O7 2.779681 1_555
Ba0 O0 2.779681 1_555
Ba0 O5 2.779681 1_555
Ba0 O2 2.779681 1_554
Nd0 O4 2.610383 1_455
Nd0 O1 2.610383 1_555
Nd0 O5 2.610383 1_455
Nd0 O3 2.610383 1_445
Nd0 O0 2.610383 1_555
Nd0 O6 2.610383 1_545
Nd0 O7 2.610383 1_545
Nd0 O2 2.610383 1_445
Nd0 O8 2.703331 1_555
Nd0 O10 2.703331 1_455
Nd0 O8 2.703331 1_545
Nd0 O10 2.703331 1_555
O0 V1 1.913082 1_555
O0 V3 1.913082 1_555
O1 V2 1.913082 1_555
O1 V0 1.913082 1_555
O2 V0 1.913082 1_655
O2 V2 1.913082 1_565
O3 V3 1.913082 1_565
O3 V1 1.913082 1_655
O4 V2 1.913082 1_555
O4 V0 1.913082 1_655
O5 V3 1.913082 1_555
O5 V1 1.913082 1_655
O6 V0 1.913082 1_555
O6 V2 1.913082 1_565
O7 V1 1.913082 1_555
O7 V3 1.913082 1_565
O8 V1 1.885790 1_555
O8 V0 1.885790 1_555
O9 V0 1.913424 1_554
O9 V1 1.913424 1_555
O10 V3 1.885790 1_555
O10 V2 1.885790 1_555
O11 V2 1.913424 1_554
O11 V3 1.913424 1_555
