# generated using pymatgen
data_Cs2Hf(WO4)3
_symmetry_space_group_name_H-M   'P 1'
_cell_length_a   7.43840413
_cell_length_b   7.43842676
_cell_length_c   7.51180551
_cell_angle_alpha   90.00000000
_cell_angle_beta   60.32333580
_cell_angle_gamma   120.00010063
_symmetry_Int_Tables_number   1
_chemical_formula_structural   Cs2Hf(WO4)3
_chemical_formula_sum   'Cs2 Hf1 W3 O12'
_cell_volume   295.32134440
_cell_formula_units_Z   1
loop_
 _symmetry_equiv_pos_site_id
 _symmetry_equiv_pos_as_xyz
  1  'x, y, z'
loop_
 _atom_site_type_symbol
 _atom_site_label
 _atom_site_symmetry_multiplicity
 _atom_site_fract_x
 _atom_site_fract_y
 _atom_site_fract_z
 _atom_site_occupancy
  Cs  Cs0  1  0.25476500  0.13135100  0.11769300  1
  Cs  Cs1  1  0.74523500  0.87658600  0.88230700  1
  Hf  Hf0  1  0.00000000  0.50370000  0.00000000  1
  W  W0  1  0.50000800  0.00388800  0.50006700  1
  W  W1  1  0.49999200  0.50388000  0.49993300  1
  W  W2  1  0.00000000  0.50386700  0.50000000  1
  O  O0  1  0.61727100  0.81239300  0.44447800  1
  O  O1  1  0.87329400  0.44034900  0.80043000  1
  O  O2  1  0.26293200  0.82997500  0.80044100  1
  O  O3  1  0.24689400  0.44201100  0.44445000  1
  O  O4  1  0.26291900  0.44033600  0.80042700  1
  O  O5  1  0.24687500  0.81239300  0.44450700  1
  O  O6  1  0.38272900  0.19512200  0.55552200  1
  O  O7  1  0.12670600  0.56705500  0.19957000  1
  O  O8  1  0.73708100  0.17741600  0.19957300  1
  O  O9  1  0.75312500  0.56551800  0.55549300  1
  O  O10  1  0.73706800  0.56704300  0.19955900  1
  O  O11  1  0.75310600  0.19511600  0.55555000  1
loop_
_geom_bond_atom_site_label_1
_geom_bond_atom_site_label_2
_geom_bond_distance
_geom_bond_site_symmetry_2
Cs0 O4 3.268554 1_554
Cs0 O1 3.270806 1_554
Cs0 O2 3.271293 1_544
Cs0 O3 3.370617 1_555
Cs0 O0 3.371044 1_445
Cs0 O5 3.373033 1_545
Cs1 O8 3.268549 1_566
Cs1 O7 3.270806 1_556
Cs1 O10 3.271293 1_556
Cs1 O11 3.370612 1_565
Cs1 O6 3.371044 1_665
Cs1 O9 3.373033 1_555
Hf0 O10 2.076698 1_455
Hf0 O2 2.076698 1_554
Hf0 O7 2.076702 1_555
Hf0 O1 2.076702 1_454
Hf0 O4 2.076766 1_554
Hf0 O8 2.076771 1_455
O0 W1 1.959360 1_555
O0 W0 1.961111 1_565
O1 W2 1.911301 1_655
O2 W0 1.911307 1_565
O3 W1 1.959694 1_555
O3 W2 1.960794 1_555
O4 W1 1.911347 1_555
O5 W2 1.959695 1_555
O5 W0 1.960761 1_565
O6 W0 1.959360 1_555
O6 W1 1.961111 1_555
O7 W2 1.911301 1_555
O8 W0 1.911345 1_555
O9 W2 1.959695 1_655
O9 W1 1.960761 1_555
O10 W1 1.911307 1_555
O11 W0 1.959692 1_555
O11 W2 1.960799 1_655
