# generated using pymatgen
data_Na
_symmetry_space_group_name_H-M   'P 1'
_cell_length_a   6.69668800
_cell_length_b   6.69668800
_cell_length_c   6.69668800
_cell_angle_alpha   90.00000000
_cell_angle_beta   90.00000000
_cell_angle_gamma   90.00000000
_symmetry_Int_Tables_number   1
_chemical_formula_structural   Na
_chemical_formula_sum   Na8
_cell_volume   300.31719341
_cell_formula_units_Z   8
loop_
 _symmetry_equiv_pos_site_id
 _symmetry_equiv_pos_as_xyz
  1  'x, y, z'
loop_
 _atom_site_type_symbol
 _atom_site_label
 _atom_site_symmetry_multiplicity
 _atom_site_fract_x
 _atom_site_fract_y
 _atom_site_fract_z
 _atom_site_occupancy
  Na  Na0  1  0.00000000  0.00000000  0.00000000  1
  Na  Na1  1  0.50000000  0.25000000  0.00000000  1
  Na  Na2  1  0.50000000  0.75000000  0.00000000  1
  Na  Na3  1  0.00000000  0.50000000  0.25000000  1
  Na  Na4  1  0.25000000  0.00000000  0.50000000  1
  Na  Na5  1  0.75000000  0.00000000  0.50000000  1
  Na  Na6  1  0.50000000  0.50000000  0.50000000  1
  Na  Na7  1  0.00000000  0.50000000  0.75000000  1
loop_
_geom_bond_atom_site_label_1
_geom_bond_atom_site_label_2
_geom_bond_distance
_geom_bond_site_symmetry_2
Na0 Na1 3.743562 1_455
Na0 Na2 3.743562 1_445
Na0 Na2 3.743562 1_545
Na0 Na3 3.743562 1_545
Na0 Na3 3.743562 1_555
Na0 Na5 3.743562 1_455
Na0 Na5 3.743562 1_454
Na0 Na4 3.743562 1_555
Na0 Na7 3.743562 1_544
Na0 Na1 3.743562 1_555
Na0 Na4 3.743562 1_554
Na0 Na7 3.743562 1_554
Na1 Na2 3.348344 1_545
Na1 Na2 3.348344 1_555
Na1 Na6 3.743562 1_555
Na1 Na6 3.743562 1_554
Na2 Na6 3.743562 1_555
Na2 Na6 3.743562 1_554
Na3 Na7 3.348344 1_555
Na3 Na7 3.348344 1_554
Na3 Na6 3.743562 1_555
Na3 Na6 3.743562 1_455
Na4 Na5 3.348344 1_455
Na4 Na5 3.348344 1_555
Na4 Na6 3.743562 1_555
Na4 Na6 3.743562 1_545
Na5 Na6 3.743562 1_555
Na5 Na6 3.743562 1_545
Na6 Na7 3.743562 1_555
Na6 Na7 3.743562 1_655
