# generated using pymatgen
data_FePO6
_symmetry_space_group_name_H-M   'P 1'
_cell_length_a   9.60257300
_cell_length_b   9.60327600
_cell_length_c   10.62237700
_cell_angle_alpha   90.00000000
_cell_angle_beta   90.00000000
_cell_angle_gamma   90.00000000
_symmetry_Int_Tables_number   1
_chemical_formula_structural   FePO6
_chemical_formula_sum   'Fe8 P8 O48'
_cell_volume   979.55480458
_cell_formula_units_Z   8
loop_
 _symmetry_equiv_pos_site_id
 _symmetry_equiv_pos_as_xyz
  1  'x, y, z'
loop_
 _atom_site_type_symbol
 _atom_site_label
 _atom_site_symmetry_multiplicity
 _atom_site_fract_x
 _atom_site_fract_y
 _atom_site_fract_z
 _atom_site_occupancy
  Fe  Fe0  1  0.80112600  0.58463500  0.11426000  1
  Fe  Fe1  1  0.19887400  0.41536500  0.88574000  1
  Fe  Fe2  1  0.19887400  0.91536500  0.61426000  1
  Fe  Fe3  1  0.30112600  0.41536500  0.38574000  1
  Fe  Fe4  1  0.80112600  0.08463500  0.38574000  1
  Fe  Fe5  1  0.69887400  0.58463500  0.61426000  1
  Fe  Fe6  1  0.69887400  0.08463500  0.88574000  1
  Fe  Fe7  1  0.30112600  0.91536500  0.11426000  1
  P  P0  1  0.65849200  0.91051800  0.14605700  1
  P  P1  1  0.34150800  0.08948200  0.85394300  1
  P  P2  1  0.34150800  0.58948200  0.64605700  1
  P  P3  1  0.15849200  0.08948200  0.35394300  1
  P  P4  1  0.65849200  0.41051800  0.35394300  1
  P  P5  1  0.84150800  0.91051800  0.64605700  1
  P  P6  1  0.84150800  0.41051800  0.85394300  1
  P  P7  1  0.15849200  0.58948200  0.14605700  1
  O  O0  1  0.99807300  0.59027300  0.13479000  1
  O  O1  1  0.00192700  0.40972700  0.86521000  1
  O  O2  1  0.00192700  0.90972700  0.63479000  1
  O  O3  1  0.49807300  0.40972700  0.36521000  1
  O  O4  1  0.99807300  0.09027300  0.36521000  1
  O  O5  1  0.50192700  0.59027300  0.63479000  1
  O  O6  1  0.50192700  0.09027300  0.86521000  1
  O  O7  1  0.49807300  0.90972700  0.13479000  1
  O  O8  1  0.71548700  0.76273800  0.12010900  1
  O  O9  1  0.28451300  0.23726200  0.87989100  1
  O  O10  1  0.28451300  0.73726200  0.62010900  1
  O  O11  1  0.21548700  0.23726200  0.37989100  1
  O  O12  1  0.71548700  0.26273800  0.37989100  1
  O  O13  1  0.78451300  0.76273800  0.62010900  1
  O  O14  1  0.78451300  0.26273800  0.87989100  1
  O  O15  1  0.21548700  0.73726200  0.12010900  1
  O  O16  1  0.71984200  0.51556700  0.44970700  1
  O  O17  1  0.28015800  0.48443300  0.55029300  1
  O  O18  1  0.28015800  0.98443300  0.94970700  1
  O  O19  1  0.21984200  0.48443300  0.05029300  1
  O  O20  1  0.71984200  0.01556700  0.05029300  1
  O  O21  1  0.78015800  0.51556700  0.94970700  1
  O  O22  1  0.78015800  0.01556700  0.55029300  1
  O  O23  1  0.21984200  0.98443300  0.44970700  1
  O  O24  1  0.96997400  0.88965400  0.16586900  1
  O  O25  1  0.03002600  0.11034600  0.83413100  1
  O  O26  1  0.03002600  0.61034600  0.66586900  1
  O  O27  1  0.46997400  0.11034600  0.33413100  1
  O  O28  1  0.96997400  0.38965400  0.33413100  1
  O  O29  1  0.53002600  0.88965400  0.66586900  1
  O  O30  1  0.53002600  0.38965400  0.83413100  1
  O  O31  1  0.46997400  0.61034600  0.16586900  1
  O  O32  1  0.96438000  0.82990400  0.26835400  1
  O  O33  1  0.03562000  0.17009600  0.73164600  1
  O  O34  1  0.03562000  0.67009600  0.76835400  1
  O  O35  1  0.46438000  0.17009600  0.23164600  1
  O  O36  1  0.96438000  0.32990400  0.23164600  1
  O  O37  1  0.53562000  0.82990400  0.76835400  1
  O  O38  1  0.53562000  0.32990400  0.73164600  1
  O  O39  1  0.46438000  0.67009600  0.26835400  1
  O  O40  1  0.70337200  0.95808500  0.27942100  1
  O  O41  1  0.29662800  0.04191500  0.72057900  1
  O  O42  1  0.29662800  0.54191500  0.77942100  1
  O  O43  1  0.20337200  0.04191500  0.22057900  1
  O  O44  1  0.70337200  0.45808500  0.22057900  1
  O  O45  1  0.79662800  0.95808500  0.77942100  1
  O  O46  1  0.79662800  0.45808500  0.72057900  1
  O  O47  1  0.20337200  0.54191500  0.27942100  1
loop_
_geom_bond_atom_site_label_1
_geom_bond_atom_site_label_2
_geom_bond_distance
_geom_bond_site_symmetry_2
Fe0 O21 1.880369 1_554
Fe0 O8 1.898816 1_555
Fe0 O0 1.904500 1_555
Fe0 O44 1.906183 1_555
Fe1 O19 1.880369 1_556
Fe1 O9 1.898816 1_555
Fe1 O1 1.904500 1_555
Fe1 O42 1.906183 1_555
Fe2 O23 1.880369 1_555
Fe2 O10 1.898816 1_555
Fe2 O2 1.904500 1_555
Fe2 O41 1.906183 1_565
Fe3 O17 1.880369 1_555
Fe3 O11 1.898816 1_555
Fe3 O3 1.904500 1_555
Fe3 O47 1.906183 1_555
Fe4 O22 1.880369 1_555
Fe4 O12 1.898816 1_555
Fe4 O4 1.904500 1_555
Fe4 O40 1.906183 1_545
Fe5 O16 1.880369 1_555
Fe5 O13 1.898816 1_555
Fe5 O5 1.904500 1_555
Fe5 O46 1.906183 1_555
Fe6 O20 1.880369 1_556
Fe6 O14 1.898816 1_555
Fe6 O6 1.904500 1_555
Fe6 O45 1.906183 1_545
Fe7 O18 1.880369 1_554
Fe7 O15 1.898816 1_555
Fe7 O7 1.904500 1_555
Fe7 O43 1.906183 1_565
O0 P7 1.545096 1_655
O1 P6 1.545096 1_455
O2 P5 1.545096 1_455
O3 P4 1.545096 1_555
O4 P3 1.545096 1_655
O5 P2 1.545096 1_555
O6 P1 1.545096 1_555
O7 P0 1.545096 1_555
O8 P0 1.545819 1_555
O9 P1 1.545819 1_555
O10 P2 1.545819 1_555
O11 P3 1.545819 1_555
O12 P4 1.545819 1_555
O13 P5 1.545819 1_555
O14 P6 1.545819 1_555
O15 P7 1.545819 1_555
O16 P4 1.549047 1_555
O17 P2 1.549047 1_555
O18 P1 1.549047 1_565
O19 P7 1.549047 1_555
O20 P0 1.549047 1_545
O21 P6 1.549047 1_555
O22 P5 1.549047 1_545
O23 P3 1.549047 1_565
O24 O32 1.231768 1_555
O25 O33 1.231768 1_555
O26 O34 1.231768 1_555
O27 O35 1.231768 1_555
O28 O36 1.231768 1_555
O29 O37 1.231768 1_555
O30 O38 1.231768 1_555
O31 O39 1.231768 1_555
O40 P0 1.549604 1_555
O41 P1 1.549604 1_555
O42 P2 1.549604 1_555
O43 P3 1.549604 1_555
O44 P4 1.549604 1_555
O45 P5 1.549604 1_555
O46 P6 1.549604 1_555
O47 P7 1.549604 1_555
