# generated using pymatgen
data_La3Si6N11
_symmetry_space_group_name_H-M   'P 1'
_cell_length_a   10.19222250
_cell_length_b   10.19222250
_cell_length_c   4.84993614
_cell_angle_alpha   90.00000000
_cell_angle_beta   90.00000000
_cell_angle_gamma   90.00000000
_symmetry_Int_Tables_number   1
_chemical_formula_structural   La3Si6N11
_chemical_formula_sum   'La6 Si12 N22'
_cell_volume   503.81815366
_cell_formula_units_Z   2
loop_
 _symmetry_equiv_pos_site_id
 _symmetry_equiv_pos_as_xyz
  1  'x, y, z'
loop_
 _atom_site_type_symbol
 _atom_site_label
 _atom_site_symmetry_multiplicity
 _atom_site_fract_x
 _atom_site_fract_y
 _atom_site_fract_z
 _atom_site_occupancy
  La  La0  1  0.81897404  0.31897404  0.01218071  1
  La  La1  1  0.18102596  0.68102596  0.01218071  1
  La  La2  1  0.31897404  0.18102596  0.01218071  1
  La  La3  1  0.68102596  0.81897404  0.01218071  1
  La  La4  1  0.50000000  0.50000000  -0.00011292  1
  La  La5  1  -0.00000000  0.00000000  -0.00011292  1
  Si  Si0  1  0.29063052  0.42158531  0.53420576  1
  Si  Si1  1  0.70936948  0.57841469  0.53420576  1
  Si  Si2  1  0.79063052  0.07841469  0.53420576  1
  Si  Si3  1  0.20936948  0.92158531  0.53420576  1
  Si  Si4  1  0.57841469  0.29063052  0.53420576  1
  Si  Si5  1  0.42158531  0.70936948  0.53420576  1
  Si  Si6  1  0.92158531  0.79063052  0.53420576  1
  Si  Si7  1  0.07841469  0.20936948  0.53420576  1
  Si  Si8  1  0.38327426  0.88327426  0.04420985  1
  Si  Si9  1  0.61672574  0.11672574  0.04420985  1
  Si  Si10  1  0.88327426  0.61672574  0.04420985  1
  Si  Si11  1  0.11672574  0.38327426  0.04420985  1
  N  N0  1  0.42016487  0.32190120  0.64056162  1
  N  N1  1  0.57983513  0.67809880  0.64056162  1
  N  N2  1  0.92016487  0.17809880  0.64056162  1
  N  N3  1  0.07983513  0.82190120  0.64056162  1
  N  N4  1  0.67809880  0.42016487  0.64056162  1
  N  N5  1  0.32190120  0.57983513  0.64056162  1
  N  N6  1  0.82190120  0.92016487  0.64056162  1
  N  N7  1  0.17809880  0.07983513  0.64056162  1
  N  N8  1  0.26720251  0.42544506  0.18165419  1
  N  N9  1  0.73279749  0.57455494  0.18165419  1
  N  N10  1  0.76720251  0.07455494  0.18165419  1
  N  N11  1  0.23279749  0.92544506  0.18165419  1
  N  N12  1  0.57455494  0.26720251  0.18165419  1
  N  N13  1  0.42544506  0.73279749  0.18165419  1
  N  N14  1  0.92544506  0.76720251  0.18165419  1
  N  N15  1  0.07455494  0.23279749  0.18165419  1
  N  N16  1  0.34622542  0.84622542  0.69796031  1
  N  N17  1  0.65377458  0.15377458  0.69796031  1
  N  N18  1  0.84622542  0.65377458  0.69796031  1
  N  N19  1  0.15377458  0.34622542  0.69796031  1
  N  N20  1  -0.00000000  0.50000000  0.06964492  1
  N  N21  1  0.50000000  0.00000000  0.06964492  1
loop_
_geom_bond_atom_site_label_1
_geom_bond_atom_site_label_2
_geom_bond_distance
_geom_bond_site_symmetry_2
La0 N4 2.524620 1_554
La0 N2 2.524620 1_554
La0 N20 2.624146 1_655
La0 N10 2.675810 1_555
La0 N12 2.675810 1_555
La0 N17 2.827091 1_554
La0 N9 2.869275 1_555
La0 N15 2.869275 1_655
La1 N3 2.524620 1_554
La1 N5 2.524620 1_554
La1 N20 2.624146 1_555
La1 N13 2.675810 1_555
La1 N11 2.675810 1_555
La1 N16 2.827091 1_554
La1 N14 2.869275 1_455
La1 N8 2.869275 1_555
La2 N0 2.524620 1_554
La2 N7 2.524620 1_554
La2 N21 2.624146 1_555
La2 N8 2.675810 1_555
La2 N15 2.675810 1_555
La2 N19 2.827091 1_554
La2 N12 2.869275 1_555
La2 N11 2.869275 1_545
La3 N1 2.524620 1_554
La3 N6 2.524620 1_554
La3 N21 2.624146 1_565
La3 N14 2.675810 1_555
La3 N9 2.675810 1_555
La3 N18 2.827091 1_554
La3 N13 2.869275 1_555
La3 N10 2.869275 1_565
La4 N12 2.642798 1_555
La4 N9 2.642798 1_555
La4 N8 2.642798 1_555
La4 N13 2.642798 1_555
La4 N4 2.644647 1_554
La4 N1 2.644647 1_554
La4 N5 2.644647 1_554
La4 N0 2.644647 1_554
La5 N11 2.642798 1_545
La5 N14 2.642798 1_445
La5 N15 2.642798 1_555
La5 N10 2.642798 1_455
La5 N2 2.644647 1_454
La5 N3 2.644647 1_544
La5 N7 2.644647 1_554
La5 N6 2.644647 1_444
N0 Si4 1.723123 1_555
N0 Si0 1.743953 1_555
N1 Si5 1.723123 1_555
N1 Si1 1.743953 1_555
N2 Si7 1.723123 1_655
N2 Si2 1.743953 1_555
N3 Si6 1.723123 1_455
N3 Si3 1.743953 1_555
N4 Si1 1.723123 1_555
N4 Si4 1.743953 1_555
N5 Si0 1.723123 1_555
N5 Si5 1.743953 1_555
N6 Si2 1.723123 1_565
N6 Si6 1.743953 1_555
N7 Si3 1.723123 1_545
N7 Si7 1.743953 1_555
N8 Si11 1.726645 1_555
N8 Si0 1.726893 1_555
N9 Si10 1.726645 1_555
N9 Si1 1.726893 1_555
N10 Si9 1.726645 1_555
N10 Si2 1.726893 1_555
N11 Si8 1.726645 1_555
N11 Si3 1.726893 1_555
N12 Si9 1.726645 1_555
N12 Si4 1.726893 1_555
N13 Si8 1.726645 1_555
N13 Si5 1.726893 1_555
N14 Si10 1.726645 1_555
N14 Si6 1.726893 1_555
N15 Si11 1.726645 1_555
N15 Si7 1.726893 1_555
N16 Si8 1.762154 1_556
N16 Si5 1.779426 1_555
N16 Si3 1.779426 1_555
N17 Si9 1.762154 1_556
N17 Si2 1.779426 1_555
N17 Si4 1.779426 1_555
N18 Si10 1.762154 1_556
N18 Si6 1.779426 1_555
N18 Si1 1.779426 1_555
N19 Si11 1.762154 1_556
N19 Si0 1.779426 1_555
N19 Si7 1.779426 1_555
N20 Si11 1.686999 1_555
N20 Si10 1.686999 1_455
N21 Si9 1.686999 1_555
N21 Si8 1.686999 1_545
