# generated using pymatgen
data_Li12MnCo(Ni5O12)2
_symmetry_space_group_name_H-M   'P 1'
_cell_length_a   5.80370983
_cell_length_b   5.80370983
_cell_length_c   14.28257212
_cell_angle_alpha   89.73009826
_cell_angle_beta   89.73009826
_cell_angle_gamma   59.92177113
_symmetry_Int_Tables_number   1
_chemical_formula_structural   Li12MnCo(Ni5O12)2
_chemical_formula_sum   'Li12 Mn1 Co1 Ni10 O24'
_cell_volume   416.29302126
_cell_formula_units_Z   1
loop_
 _symmetry_equiv_pos_site_id
 _symmetry_equiv_pos_as_xyz
  1  'x, y, z'
loop_
 _atom_site_type_symbol
 _atom_site_label
 _atom_site_symmetry_multiplicity
 _atom_site_fract_x
 _atom_site_fract_y
 _atom_site_fract_z
 _atom_site_occupancy
  Li  Li0  1  0.16787500  0.16787500  0.33261300  1
  Li  Li1  1  0.66904000  0.66904000  0.33489200  1
  Li  Li2  1  0.16843900  0.66191500  0.33287600  1
  Li  Li3  1  0.66191500  0.16843900  0.33287600  1
  Li  Li4  1  0.33096000  0.33096000  0.66510800  1
  Li  Li5  1  0.83212500  0.83212500  0.66738700  1
  Li  Li6  1  0.33808500  0.83156100  0.66712400  1
  Li  Li7  1  0.83156100  0.33808500  0.66712400  1
  Li  Li8  1  0.50000000  0.00000000  0.00000000  1
  Li  Li9  1  0.00000000  0.50000000  0.00000000  1
  Li  Li10  1  0.50000000  0.50000000  0.00000000  1
  Li  Li11  1  0.00000000  0.00000000  0.00000000  1
  Mn  Mn0  1  0.50000000  0.50000000  0.50000000  1
  Co  Co0  1  0.00000000  0.00000000  0.50000000  1
  Ni  Ni0  1  0.16686400  0.16686400  0.83323100  1
  Ni  Ni1  1  0.66707000  0.66707000  0.83432200  1
  Ni  Ni2  1  0.16642500  0.66626400  0.83360000  1
  Ni  Ni3  1  0.66626400  0.16642500  0.83360000  1
  Ni  Ni4  1  0.33293000  0.33293000  0.16567800  1
  Ni  Ni5  1  0.83313600  0.83313600  0.16676900  1
  Ni  Ni6  1  0.33373600  0.83357500  0.16640000  1
  Ni  Ni7  1  0.83357500  0.33373600  0.16640000  1
  Ni  Ni8  1  0.50000000  0.00000000  0.50000000  1
  Ni  Ni9  1  0.00000000  0.50000000  0.50000000  1
  O  O0  1  0.17731700  0.17731700  0.09038800  1
  O  O1  1  0.65845600  0.65845600  0.09670200  1
  O  O2  1  0.17766000  0.64829000  0.09081200  1
  O  O3  1  0.64829000  0.17766000  0.09081200  1
  O  O4  1  0.15916400  0.15916400  0.57755600  1
  O  O5  1  0.65960300  0.65960300  0.57490800  1
  O  O6  1  0.18330300  0.66103800  0.57897900  1
  O  O7  1  0.66103800  0.18330300  0.57897900  1
  O  O8  1  0.34039700  0.34039700  0.42509200  1
  O  O9  1  0.84083600  0.84083600  0.42244400  1
  O  O10  1  0.33896200  0.81669700  0.42102100  1
  O  O11  1  0.81669700  0.33896200  0.42102100  1
  O  O12  1  0.34154400  0.34154400  0.90329800  1
  O  O13  1  0.82268300  0.82268300  0.90961200  1
  O  O14  1  0.35171000  0.82234000  0.90918800  1
  O  O15  1  0.82234000  0.35171000  0.90918800  1
  O  O16  1  0.51307900  0.97937300  0.75885900  1
  O  O17  1  0.97937300  0.51307900  0.75885900  1
  O  O18  1  0.51205400  0.51205400  0.75990500  1
  O  O19  1  0.99163100  0.99163100  0.76296900  1
  O  O20  1  0.48692100  0.02062700  0.24114100  1
  O  O21  1  0.02062700  0.48692100  0.24114100  1
  O  O22  1  0.48794600  0.48794600  0.24009500  1
  O  O23  1  0.00836900  0.00836900  0.23703100  1
loop_
_geom_bond_atom_site_label_1
_geom_bond_atom_site_label_2
_geom_bond_distance
_geom_bond_site_symmetry_2
Li0 O21 2.065755 1_555
Li0 O20 2.065755 1_555
Li0 O23 2.111966 1_555
Li0 O10 2.166416 1_545
Li0 O11 2.166416 1_455
Li0 O8 2.186210 1_555
Li1 O10 2.063890 1_555
Li1 O11 2.063890 1_555
Li1 O9 2.138192 1_555
Li1 O20 2.213489 1_565
Li1 O21 2.213489 1_655
Li1 O22 2.275193 1_555
Li2 O10 2.069986 1_555
Li2 O22 2.080085 1_555
Li2 O8 2.082118 1_555
Li2 O9 2.083359 1_455
Li2 O21 2.092961 1_555
Li2 O23 2.212155 1_565
Li3 O11 2.069986 1_555
Li3 O22 2.080085 1_555
Li3 O8 2.082118 1_555
Li3 O9 2.083359 1_545
Li3 O20 2.092961 1_555
Li3 O23 2.212155 1_655
Li4 O7 2.063890 1_555
Li4 O6 2.063890 1_555
Li4 O4 2.138192 1_555
Li4 O16 2.213489 1_545
Li4 O17 2.213489 1_455
Li4 O18 2.275193 1_555
Li5 O16 2.065755 1_555
Li5 O17 2.065755 1_555
Li5 O19 2.111966 1_555
Li5 O6 2.166416 1_655
Li5 O7 2.166416 1_565
Li5 O5 2.186210 1_555
Li6 O6 2.069986 1_555
Li6 O18 2.080085 1_555
Li6 O5 2.082118 1_555
Li6 O4 2.083359 1_565
Li6 O16 2.092961 1_555
Li6 O19 2.212155 1_455
Li7 O7 2.069986 1_555
Li7 O18 2.080085 1_555
Li7 O5 2.082118 1_555
Li7 O4 2.083359 1_655
Li7 O17 2.092961 1_555
Li7 O19 2.212155 1_545
Li8 O0 2.071427 1_555
Li8 O13 2.071427 1_544
Li8 O14 2.097311 1_544
Li8 O3 2.097311 1_555
Li8 O1 2.200332 1_545
Li8 O12 2.200332 1_554
Li9 O0 2.071427 1_555
Li9 O13 2.071427 1_454
Li9 O15 2.097311 1_454
Li9 O2 2.097311 1_555
Li9 O12 2.200332 1_554
Li9 O1 2.200332 1_455
Li10 O3 2.072812 1_555
Li10 O2 2.072812 1_555
Li10 O14 2.072812 1_554
Li10 O15 2.072812 1_554
Li10 O12 2.114400 1_554
Li10 O1 2.114400 1_555
Li11 O2 2.188611 1_545
Li11 O15 2.188611 1_454
Li11 O3 2.188611 1_455
Li11 O14 2.188611 1_544
Li11 O13 2.207095 1_444
Li11 O0 2.207095 1_555
Mn0 O8 1.933747 1_555
Mn0 O5 1.933747 1_555
Mn0 O7 1.947498 1_555
Mn0 O6 1.947498 1_555
Mn0 O10 1.947498 1_555
Mn0 O11 1.947498 1_555
Co0 O4 1.951459 1_555
Co0 O9 1.951459 1_445
Co0 O7 2.041284 1_455
Co0 O11 2.041284 1_455
Co0 O6 2.041284 1_545
Co0 O10 2.041284 1_545
Ni0 O12 2.026411 1_555
Ni0 O19 2.032636 1_445
Ni0 O16 2.036899 1_545
Ni0 O17 2.036899 1_455
Ni0 O14 2.041144 1_545
Ni0 O15 2.041144 1_455
Ni1 O18 1.891513 1_555
Ni1 O16 1.900677 1_555
Ni1 O17 1.900677 1_555
Ni1 O13 1.903554 1_555
Ni1 O15 1.908580 1_555
Ni1 O14 1.908580 1_555
Ni2 O12 1.909843 1_555
Ni2 O19 1.919408 1_455
Ni2 O17 2.023792 1_455
Ni2 O18 2.030292 1_555
Ni2 O14 2.034429 1_555
Ni2 O13 2.038682 1_455
Ni3 O12 1.909843 1_555
Ni3 O19 1.919408 1_545
Ni3 O16 2.023792 1_545
Ni3 O18 2.030292 1_555
Ni3 O15 2.034429 1_555
Ni3 O13 2.038682 1_545
Ni4 O22 1.891513 1_555
Ni4 O21 1.900677 1_555
Ni4 O20 1.900677 1_555
Ni4 O0 1.903554 1_555
Ni4 O3 1.908580 1_555
Ni4 O2 1.908580 1_555
Ni5 O1 2.026411 1_555
Ni5 O23 2.032636 1_665
Ni5 O21 2.036899 1_655
Ni5 O20 2.036899 1_565
Ni5 O3 2.041144 1_565
Ni5 O2 2.041144 1_655
Ni6 O1 1.909843 1_555
Ni6 O23 1.919408 1_565
Ni6 O20 2.023792 1_565
Ni6 O22 2.030292 1_555
Ni6 O2 2.034429 1_555
Ni6 O0 2.038682 1_565
Ni7 O1 1.909843 1_555
Ni7 O23 1.919408 1_655
Ni7 O21 2.023792 1_655
Ni7 O22 2.030292 1_555
Ni7 O3 2.034429 1_555
Ni7 O0 2.038682 1_655
Ni8 O5 2.015109 1_545
Ni8 O8 2.015109 1_555
Ni8 O4 2.037312 1_555
Ni8 O9 2.037312 1_545
Ni8 O10 2.072575 1_545
Ni8 O7 2.072575 1_555
Ni9 O8 2.015109 1_555
Ni9 O5 2.015109 1_455
Ni9 O4 2.037312 1_555
Ni9 O9 2.037312 1_455
Ni9 O6 2.072575 1_555
Ni9 O11 2.072575 1_455
