# generated using pymatgen
data_ZnCrSiO5
_symmetry_space_group_name_H-M   'P 1'
_cell_length_a   5.36315700
_cell_length_b   5.42224760
_cell_length_c   7.07333999
_cell_angle_alpha   107.44351183
_cell_angle_beta   107.30697752
_cell_angle_gamma   98.77378162
_symmetry_Int_Tables_number   1
_chemical_formula_structural   ZnCrSiO5
_chemical_formula_sum   'Zn2 Cr2 Si2 O10'
_cell_volume   180.63375683
_cell_formula_units_Z   2
loop_
 _symmetry_equiv_pos_site_id
 _symmetry_equiv_pos_as_xyz
  1  'x, y, z'
loop_
 _atom_site_type_symbol
 _atom_site_label
 _atom_site_symmetry_multiplicity
 _atom_site_fract_x
 _atom_site_fract_y
 _atom_site_fract_z
 _atom_site_occupancy
  Zn  Zn0  1  0.29223100  0.14834300  0.77082700  1
  Zn  Zn1  1  0.73453700  0.85599100  0.27742900  1
  Cr  Cr0  1  0.00000700  0.49587000  0.51036900  1
  Cr  Cr1  1  0.00750000  0.49368300  0.01052800  1
  Si  Si0  1  0.67428500  0.85137600  0.76795800  1
  Si  Si1  1  0.33008600  0.13371100  0.25857300  1
  O  O0  1  0.75643900  0.71757000  0.94803400  1
  O  O1  1  0.84353800  0.80222700  0.60763000  1
  O  O2  1  0.25569200  0.26458700  0.07535300  1
  O  O3  1  0.14536100  0.18201900  0.40698800  1
  O  O4  1  0.65895300  0.22890200  0.39990900  1
  O  O5  1  0.31356900  0.80943100  0.15625500  1
  O  O6  1  0.34242600  0.76817600  0.63812100  1
  O  O7  1  0.70214000  0.17779300  0.87747400  1
  O  O8  1  0.92418700  0.56873700  0.26307500  1
  O  O9  1  0.08703500  0.42033000  0.76434700  1
loop_
_geom_bond_atom_site_label_1
_geom_bond_atom_site_label_2
_geom_bond_distance
_geom_bond_site_symmetry_2
Cr0 O8 1.849674 1_455
Cr0 O9 1.900926 1_555
Cr0 O4 1.927557 1_455
Cr0 O6 1.937707 1_555
Cr0 O1 2.005117 1_455
Cr0 O3 2.009053 1_555
Cr1 O9 1.857637 1_554
Cr1 O8 1.910719 1_455
Cr1 O7 1.939676 1_454
Cr1 O5 1.940640 1_555
Cr1 O0 1.987054 1_454
Cr1 O2 2.001981 1_555
O0 Si0 1.631132 1_555
O0 Zn1 2.268696 1_556
O1 Si0 1.638953 1_555
O1 Zn1 2.351530 1_555
O1 Zn0 2.513188 1_665
O2 Si1 1.634760 1_555
O2 Zn0 2.133149 1_554
O3 Si1 1.638684 1_555
O3 Zn1 2.336380 1_445
O3 Zn0 2.529127 1_555
O4 Si1 1.655451 1_555
O4 Zn1 2.100522 1_545
O5 Si1 1.665757 1_565
O5 Zn1 2.107294 1_555
O6 Si0 1.657953 1_555
O6 Zn0 2.088627 1_565
O7 Si0 1.668377 1_545
O7 Zn0 2.064345 1_555
O8 Zn1 1.980095 1_555
O9 Zn0 1.973275 1_555
