# generated using pymatgen
data_Mo2P3O14
_symmetry_space_group_name_H-M   'P 1'
_cell_length_a   6.50808400
_cell_length_b   6.51447449
_cell_length_c   8.95034099
_cell_angle_alpha   106.60747662
_cell_angle_beta   106.69962813
_cell_angle_gamma   90.03880420
_symmetry_Int_Tables_number   1
_chemical_formula_structural   Mo2P3O14
_chemical_formula_sum   'Mo2 P3 O14'
_cell_volume   346.87916786
_cell_formula_units_Z   1
loop_
 _symmetry_equiv_pos_site_id
 _symmetry_equiv_pos_as_xyz
  1  'x, y, z'
loop_
 _atom_site_type_symbol
 _atom_site_label
 _atom_site_symmetry_multiplicity
 _atom_site_fract_x
 _atom_site_fract_y
 _atom_site_fract_z
 _atom_site_occupancy
  Mo  Mo0  1  0.87032300  0.56506600  0.41116800  1
  Mo  Mo1  1  0.43865800  0.12940200  0.58385100  1
  P  P0  1  0.90858400  0.09974800  0.50617300  1
  P  P1  1  0.40578200  0.59873500  0.50381100  1
  P  P2  1  0.68098400  0.22795100  0.01787600  1
  O  O0  1  0.86191700  0.85990400  0.39037500  1
  O  O1  1  0.14121500  0.13846100  0.61654000  1
  O  O2  1  0.16665200  0.55502300  0.38766300  1
  O  O3  1  0.44908400  0.82985500  0.61454400  1
  O  O4  1  0.75917000  0.44165200  0.14842500  1
  O  O5  1  0.55686000  0.24277300  0.85339500  1
  O  O6  1  0.55393000  0.55315000  0.38857800  1
  O  O7  1  0.44702600  0.45190800  0.61276700  1
  O  O8  1  0.95029600  0.63829800  0.61886500  1
  O  O9  1  0.36193300  0.04617200  0.37613100  1
  O  O10  1  0.86655900  0.24922400  0.39394000  1
  O  O11  1  0.76366900  0.14039000  0.61662100  1
  O  O12  1  0.60957800  0.03384800  0.07355600  1
  O  O13  1  0.83537900  0.03884000  0.03171800  1
loop_
_geom_bond_atom_site_label_1
_geom_bond_atom_site_label_2
_geom_bond_distance
_geom_bond_site_symmetry_2
Mo0 O8 1.700258 1_555
Mo0 O0 1.981261 1_555
Mo0 O2 1.998314 1_655
Mo0 O6 2.009575 1_555
Mo0 O10 2.018482 1_555
Mo0 O4 2.154222 1_555
Mo1 O9 1.699910 1_555
Mo1 O1 2.037676 1_555
Mo1 O7 2.040807 1_555
Mo1 O3 2.045458 1_545
Mo1 O11 2.048527 1_555
Mo1 O5 2.207166 1_555
O0 P0 1.581289 1_565
O1 P0 1.526143 1_455
O2 P1 1.576126 1_555
O3 P1 1.521353 1_555
O4 P2 1.513205 1_555
O5 P2 1.492327 1_556
O6 P1 1.574271 1_555
O7 P1 1.523501 1_555
O10 P0 1.560027 1_555
O11 P0 1.524249 1_555
O12 P2 1.598670 1_555
O13 P2 1.600033 1_555
