# generated using pymatgen
data_ZrCdN2
_symmetry_space_group_name_H-M   'P 1'
_cell_length_a   3.86900800
_cell_length_b   3.86900800
_cell_length_c   8.48653200
_cell_angle_alpha   90.00000000
_cell_angle_beta   90.00000000
_cell_angle_gamma   90.00000000
_symmetry_Int_Tables_number   1
_chemical_formula_structural   ZrCdN2
_chemical_formula_sum   'Zr2 Cd2 N4'
_cell_volume   127.03678919
_cell_formula_units_Z   2
loop_
 _symmetry_equiv_pos_site_id
 _symmetry_equiv_pos_as_xyz
  1  'x, y, z'
loop_
 _atom_site_type_symbol
 _atom_site_label
 _atom_site_symmetry_multiplicity
 _atom_site_fract_x
 _atom_site_fract_y
 _atom_site_fract_z
 _atom_site_occupancy
  Zr  Zr0  1  0.75000000  0.75000000  0.60755000  1
  Zr  Zr1  1  0.25000000  0.25000000  0.39245000  1
  Cd  Cd0  1  0.75000000  0.75000000  0.11563100  1
  Cd  Cd1  1  0.25000000  0.25000000  0.88436900  1
  N  N0  1  0.75000000  0.25000000  0.50000000  1
  N  N1  1  0.25000000  0.75000000  0.50000000  1
  N  N2  1  0.75000000  0.75000000  0.85366400  1
  N  N3  1  0.25000000  0.25000000  0.14633600  1
loop_
_geom_bond_atom_site_label_1
_geom_bond_atom_site_label_2
_geom_bond_distance
_geom_bond_site_symmetry_2
Cd0 N2 2.223191 1_554
Cd0 N3 2.748184 1_655
Cd0 N3 2.748184 1_555
Cd0 N3 2.748184 1_565
Cd0 N3 2.748184 1_665
Cd1 N3 2.223191 1_556
Cd1 N2 2.748184 1_455
Cd1 N2 2.748184 1_445
Cd1 N2 2.748184 1_545
Cd1 N2 2.748184 1_555
N0 Zr1 2.139013 1_555
N0 Zr1 2.139013 1_655
N0 Zr0 2.139013 1_555
N0 Zr0 2.139013 1_545
N1 Zr1 2.139013 1_555
N1 Zr0 2.139013 1_555
N1 Zr0 2.139013 1_455
N1 Zr1 2.139013 1_565
N2 Zr0 2.088654 1_555
N3 Zr1 2.088654 1_555
