# generated using pymatgen
data_Ca3SiCSO24
_symmetry_space_group_name_H-M   'P 1'
_cell_length_a   9.91763000
_cell_length_b   10.04497900
_cell_length_c   10.04758590
_cell_angle_alpha   60.01534723
_cell_angle_beta   90.00000000
_cell_angle_gamma   90.00000000
_symmetry_Int_Tables_number   1
_chemical_formula_structural   Ca3SiCSO24
_chemical_formula_sum   'Ca6 Si2 C2 S2 O48'
_cell_volume   866.99468910
_cell_formula_units_Z   2
loop_
 _symmetry_equiv_pos_site_id
 _symmetry_equiv_pos_as_xyz
  1  'x, y, z'
loop_
 _atom_site_type_symbol
 _atom_site_label
 _atom_site_symmetry_multiplicity
 _atom_site_fract_x
 _atom_site_fract_y
 _atom_site_fract_z
 _atom_site_occupancy
  Ca  Ca0  1  0.75810800  0.79276000  0.99531400  1
  Ca  Ca1  1  0.75744100  0.21186200  0.79258400  1
  Ca  Ca2  1  0.75730000  0.99596800  0.21168800  1
  Ca  Ca3  1  0.25810800  0.20724000  0.00468600  1
  Ca  Ca4  1  0.25744100  0.78813800  0.20741600  1
  Ca  Ca5  1  0.25730000  0.00403200  0.78831200  1
  Si  Si0  1  0.48595200  0.99971900  0.99989200  1
  Si  Si1  1  0.98595200  0.00028100  0.00010800  1
  C  C0  1  0.01961400  0.66720800  0.66645800  1
  C  C1  1  0.51961400  0.33279200  0.33354200  1
  S  S0  1  0.47397600  0.66756600  0.66588700  1
  S  S1  1  0.97397600  0.33243400  0.33411300  1
  O  O0  1  0.65195200  0.99983000  0.99985700  1
  O  O1  1  0.15195200  0.00017000  0.00014300  1
  O  O2  1  0.42055400  0.86663000  0.96878000  1
  O  O3  1  0.42094300  0.16426300  0.86703800  1
  O  O4  1  0.42092600  0.96859300  0.16428600  1
  O  O5  1  0.92055400  0.13337000  0.03122000  1
  O  O6  1  0.92094300  0.83573700  0.13296200  1
  O  O7  1  0.92092600  0.03140700  0.83571400  1
  O  O8  1  0.52886300  0.61442300  0.82574700  1
  O  O9  1  0.52788600  0.56065400  0.61308200  1
  O  O10  1  0.52742300  0.82692400  0.55943800  1
  O  O11  1  0.02886300  0.38557700  0.17425300  1
  O  O12  1  0.02788600  0.43934600  0.38691800  1
  O  O13  1  0.02742300  0.17307600  0.44056200  1
  O  O14  1  0.01871700  0.54840200  0.80200600  1
  O  O15  1  0.01876000  0.65029400  0.54792200  1
  O  O16  1  0.01941100  0.80258800  0.64973400  1
  O  O17  1  0.51871700  0.45159800  0.19799400  1
  O  O18  1  0.51876000  0.34970600  0.45207800  1
  O  O19  1  0.51941100  0.19741200  0.35026600  1
  O  O20  1  0.32802700  0.66549300  0.66828800  1
  O  O21  1  0.82802700  0.33450700  0.33171200  1
  O  O22  1  0.70725800  0.66045700  0.67304300  1
  O  O23  1  0.20725800  0.33954300  0.32695700  1
  O  O24  1  0.97426700  0.68381700  0.00269400  1
  O  O25  1  0.97360300  0.31097100  0.68550500  1
  O  O26  1  0.97363400  0.00311500  0.31208200  1
  O  O27  1  0.47426700  0.31618300  0.99730600  1
  O  O28  1  0.47360300  0.68902900  0.31449500  1
  O  O29  1  0.47363400  0.99688500  0.68791800  1
  O  O30  1  0.24984300  0.60237100  0.99807300  1
  O  O31  1  0.24908200  0.39915900  0.60364400  1
  O  O32  1  0.24983000  0.99757600  0.39976000  1
  O  O33  1  0.74984300  0.39762900  0.00192700  1
  O  O34  1  0.74908200  0.60084100  0.39635600  1
  O  O35  1  0.74983000  0.00242400  0.60024000  1
  O  O36  1  0.76570400  0.87088700  0.72514600  1
  O  O37  1  0.76665500  0.40436000  0.87015200  1
  O  O38  1  0.76470200  0.72586800  0.40257600  1
  O  O39  1  0.26570400  0.12911300  0.27485400  1
  O  O40  1  0.26665500  0.59564000  0.12984800  1
  O  O41  1  0.26470200  0.27413200  0.59742400  1
  O  O42  1  0.70034400  0.11315100  0.61492800  1
  O  O43  1  0.69902200  0.27236500  0.11152700  1
  O  O44  1  0.70020200  0.61481300  0.27122400  1
  O  O45  1  0.20034400  0.88684900  0.38507200  1
  O  O46  1  0.19902200  0.72763500  0.88847300  1
  O  O47  1  0.20020200  0.38518700  0.72877600  1
loop_
_geom_bond_atom_site_label_1
_geom_bond_atom_site_label_2
_geom_bond_distance
_geom_bond_site_symmetry_2
Ca0 O6 2.303029 1_556
Ca0 O0 2.351991 1_555
Ca0 O24 2.391184 1_556
Ca0 O36 2.420936 1_555
Ca0 O44 2.501428 1_556
Ca0 O7 2.661432 1_565
Ca1 O7 2.305923 1_555
Ca1 O0 2.352542 1_545
Ca1 O25 2.382013 1_555
Ca1 O37 2.420961 1_555
Ca1 O42 2.501842 1_555
Ca1 O5 2.664212 1_556
Ca2 O5 2.304960 1_565
Ca2 O0 2.353855 1_554
Ca2 O26 2.387113 1_565
Ca2 O38 2.417404 1_555
Ca2 O43 2.502489 1_565
Ca2 O6 2.668849 1_555
Ca3 O3 2.303029 1_554
Ca3 O1 2.351991 1_555
Ca3 O27 2.391184 1_554
Ca3 O39 2.420936 1_555
Ca3 O47 2.501428 1_554
Ca3 O4 2.661432 1_545
Ca4 O4 2.305923 1_555
Ca4 O1 2.352542 1_565
Ca4 O28 2.382013 1_555
Ca4 O40 2.420961 1_555
Ca4 O45 2.501842 1_555
Ca4 O2 2.664212 1_554
Ca5 O2 2.304960 1_545
Ca5 O1 2.353855 1_556
Ca5 O29 2.387113 1_545
Ca5 O41 2.417404 1_555
Ca5 O46 2.502489 1_545
Ca5 O3 2.668849 1_555
C0 O16 1.284186 1_555
C0 O15 1.284398 1_555
C0 O14 1.286300 1_555
C1 O19 1.284186 1_555
C1 O18 1.284398 1_555
C1 O17 1.286300 1_555
O0 Si0 1.646327 1_555
O1 Si1 1.646327 1_455
O2 Si0 1.650256 1_555
O3 Si0 1.650495 1_545
O4 Si0 1.650993 1_554
O5 Si1 1.650256 1_555
O6 Si1 1.650495 1_565
O7 Si1 1.650993 1_556
O8 S0 1.517944 1_555
O9 S0 1.513342 1_555
O10 S0 1.508648 1_555
O11 S1 1.517944 1_455
O12 S1 1.513342 1_455
O13 S1 1.508648 1_455
O20 S0 1.447646 1_555
O21 S1 1.447646 1_555
O22 S0 2.314714 1_555
O23 S1 2.314714 1_455
O30 O46 1.290342 1_555
O30 O40 1.302276 1_556
O31 O47 1.288048 1_555
O31 O41 1.297546 1_555
O32 O45 1.289891 1_555
O32 O39 1.299295 1_565
O33 O43 1.290342 1_555
O33 O37 1.302276 1_554
O34 O44 1.288048 1_555
O34 O38 1.297546 1_555
O35 O42 1.289891 1_555
O35 O36 1.299295 1_545
