# generated using pymatgen
data_Li3Al2
_symmetry_space_group_name_H-M   'P 1'
_cell_length_a   5.35751885
_cell_length_b   5.35751918
_cell_length_c   5.35751909
_cell_angle_alpha   48.88767311
_cell_angle_beta   48.88767207
_cell_angle_gamma   48.88767125
_symmetry_Int_Tables_number   1
_chemical_formula_structural   Li3Al2
_chemical_formula_sum   'Li3 Al2'
_cell_volume   80.12847303
_cell_formula_units_Z   1
loop_
 _symmetry_equiv_pos_site_id
 _symmetry_equiv_pos_as_xyz
  1  'x, y, z'
loop_
 _atom_site_type_symbol
 _atom_site_label
 _atom_site_symmetry_multiplicity
 _atom_site_fract_x
 _atom_site_fract_y
 _atom_site_fract_z
 _atom_site_occupancy
  Li  Li0  1  0.59778975  0.59778975  0.59778975  1
  Li  Li1  1  0.40221025  0.40221025  0.40221025  1
  Li  Li2  1  0.00000000  -0.00000000  -0.00000000  1
  Al  Al0  1  0.19635183  0.19635183  0.19635183  1
  Al  Al1  1  0.80364817  0.80364817  0.80364817  1
loop_
_geom_bond_atom_site_label_1
_geom_bond_atom_site_label_2
_geom_bond_distance
_geom_bond_site_symmetry_2
Li0 Li2 2.738404 1_566
Li0 Li2 2.738404 1_656
Li0 Li2 2.738404 1_665
Li0 Li1 2.761406 1_555
Li1 Li2 2.738404 1_655
Li1 Li2 2.738404 1_565
Li1 Li2 2.738404 1_556
Al0 Al1 2.693661 1_544
Al0 Al1 2.693661 1_454
Al0 Al1 2.693661 1_445
Al0 Li0 2.734550 1_455
Al0 Li0 2.734550 1_545
Al0 Li0 2.734550 1_554
Al0 Li2 2.772310 1_555
Al0 Li1 2.906535 1_555
Al1 Li1 2.734550 1_655
Al1 Li1 2.734550 1_565
Al1 Li1 2.734550 1_556
Al1 Li2 2.772310 1_666
Al1 Li0 2.906535 1_555
