# generated using pymatgen
data_DyTa7O19
_symmetry_space_group_name_H-M   'P 1'
_cell_length_a   6.26952755
_cell_length_b   6.26952755
_cell_length_c   20.07634200
_cell_angle_alpha   90.00000000
_cell_angle_beta   90.00000000
_cell_angle_gamma   119.99999527
_symmetry_Int_Tables_number   1
_chemical_formula_structural   DyTa7O19
_chemical_formula_sum   'Dy2 Ta14 O38'
_cell_volume   683.41556875
_cell_formula_units_Z   2
loop_
 _symmetry_equiv_pos_site_id
 _symmetry_equiv_pos_as_xyz
  1  'x, y, z'
loop_
 _atom_site_type_symbol
 _atom_site_label
 _atom_site_symmetry_multiplicity
 _atom_site_fract_x
 _atom_site_fract_y
 _atom_site_fract_z
 _atom_site_occupancy
  Dy  Dy0  1  0.00000000  0.00000000  0.50000000  1
  Dy  Dy1  1  0.00000000  0.00000000  0.00000000  1
  Ta  Ta0  1  0.30741400  0.97386100  0.65549400  1
  Ta  Ta1  1  0.02613900  0.69258600  0.34450600  1
  Ta  Ta2  1  0.02613900  0.33355200  0.65549400  1
  Ta  Ta3  1  0.66644800  0.69258600  0.65549400  1
  Ta  Ta4  1  0.02613900  0.33355200  0.84450600  1
  Ta  Ta5  1  0.66644800  0.69258600  0.84450600  1
  Ta  Ta6  1  0.30741400  0.97386100  0.84450600  1
  Ta  Ta7  1  0.66644800  0.97386100  0.15549400  1
  Ta  Ta8  1  0.30741400  0.33355200  0.15549400  1
  Ta  Ta9  1  0.30741400  0.33355200  0.34450600  1
  Ta  Ta10  1  0.66644800  0.97386100  0.34450600  1
  Ta  Ta11  1  0.02613900  0.69258600  0.15549400  1
  Ta  Ta12  1  0.33333300  0.66666700  0.50000000  1
  Ta  Ta13  1  0.33333300  0.66666700  0.00000000  1
  O  O0  1  0.00000000  0.00000000  0.63134400  1
  O  O1  1  0.00000000  0.00000000  0.86865600  1
  O  O2  1  0.00000000  0.00000000  0.36865600  1
  O  O3  1  0.00000000  0.00000000  0.13134400  1
  O  O4  1  0.33333300  0.66666700  0.66580400  1
  O  O5  1  0.33333300  0.66666700  0.83419600  1
  O  O6  1  0.33333300  0.66666700  0.33419600  1
  O  O7  1  0.33333300  0.66666700  0.16580400  1
  O  O8  1  0.42145000  0.33355400  0.65295900  1
  O  O9  1  0.66644600  0.57855000  0.34704100  1
  O  O10  1  0.66644600  0.08789600  0.65295900  1
  O  O11  1  0.91210400  0.57855000  0.65295900  1
  O  O12  1  0.66644600  0.08789600  0.84704100  1
  O  O13  1  0.91210400  0.57855000  0.84704100  1
  O  O14  1  0.42145000  0.33355400  0.84704100  1
  O  O15  1  0.91210400  0.33355400  0.15295900  1
  O  O16  1  0.04325000  0.75122800  0.25000000  1
  O  O17  1  0.70797800  0.95675000  0.25000000  1
  O  O18  1  0.24877200  0.29202200  0.25000000  1
  O  O19  1  0.24877200  0.95675000  0.75000000  1
  O  O20  1  0.70797800  0.75122800  0.75000000  1
  O  O21  1  0.04325000  0.29202200  0.75000000  1
  O  O22  1  0.09665200  0.71938900  0.05568700  1
  O  O23  1  0.62273700  0.90334800  0.44431300  1
  O  O24  1  0.28061100  0.37726300  0.44431300  1
  O  O25  1  0.28061100  0.37726300  0.05568700  1
  O  O26  1  0.62273700  0.90334800  0.05568700  1
  O  O27  1  0.28061100  0.90334800  0.94431300  1
  O  O28  1  0.62273700  0.71938900  0.94431300  1
  O  O29  1  0.09665200  0.37726300  0.94431300  1
  O  O30  1  0.62273700  0.71938900  0.55568700  1
  O  O31  1  0.09665200  0.37726300  0.55568700  1
  O  O32  1  0.09665200  0.71938900  0.44431300  1
  O  O33  1  0.28061100  0.90334800  0.55568700  1
  O  O34  1  0.66644600  0.57855000  0.15295900  1
  O  O35  1  0.91210400  0.33355400  0.34704100  1
  O  O36  1  0.42145000  0.08789600  0.34704100  1
  O  O37  1  0.42145000  0.08789600  0.15295900  1
loop_
_geom_bond_atom_site_label_1
_geom_bond_atom_site_label_2
_geom_bond_distance
_geom_bond_site_symmetry_2
Dy0 O33 2.403808 1_545
Dy0 O32 2.403808 1_545
Dy0 O31 2.403808 1_555
Dy0 O23 2.403808 1_445
Dy0 O30 2.403808 1_445
Dy0 O24 2.403808 1_555
Dy0 O0 2.636907 1_555
Dy0 O2 2.636907 1_555
Dy1 O22 2.403808 1_545
Dy1 O27 2.403808 1_544
Dy1 O29 2.403808 1_554
Dy1 O26 2.403808 1_445
Dy1 O25 2.403808 1_555
Dy1 O28 2.403808 1_444
Dy1 O3 2.636907 1_555
Dy1 O1 2.636907 1_554
O0 Ta2 2.071810 1_555
O0 Ta3 2.071813 1_445
O0 Ta0 2.071816 1_545
O1 Ta4 2.071810 1_555
O1 Ta5 2.071813 1_445
O1 Ta6 2.071816 1_545
O2 Ta10 2.071810 1_445
O2 Ta9 2.071813 1_555
O2 Ta1 2.071816 1_545
O3 Ta7 2.071810 1_445
O3 Ta8 2.071813 1_555
O3 Ta11 2.071816 1_545
O4 Ta0 2.022757 1_555
O4 Ta2 2.022764 1_555
O4 Ta3 2.022769 1_555
O5 Ta6 2.022757 1_555
O5 Ta4 2.022764 1_555
O5 Ta5 2.022769 1_555
O6 Ta1 2.022757 1_555
O6 Ta10 2.022764 1_555
O6 Ta9 2.022769 1_555
O7 Ta11 2.022757 1_555
O7 Ta7 2.022764 1_555
O7 Ta8 2.022769 1_555
O8 Ta3 1.992801 1_555
O8 Ta0 1.996736 1_545
O8 Ta2 2.478929 1_555
O9 Ta9 1.992801 1_555
O9 Ta1 1.996736 1_655
O9 Ta10 2.478929 1_555
O10 Ta0 1.992799 1_545
O10 Ta2 1.996735 1_655
O10 Ta3 2.478936 1_545
O11 Ta2 1.992805 1_655
O11 Ta3 1.996730 1_555
O11 Ta0 2.478933 1_655
O12 Ta6 1.992799 1_545
O12 Ta4 1.996735 1_655
O12 Ta5 2.478936 1_545
O13 Ta4 1.992805 1_655
O13 Ta5 1.996730 1_555
O13 Ta6 2.478933 1_655
O14 Ta5 1.992801 1_555
O14 Ta6 1.996736 1_545
O14 Ta4 2.478929 1_555
O15 Ta11 1.992799 1_655
O15 Ta7 1.996735 1_545
O15 Ta8 2.478936 1_655
O16 Ta1 1.925388 1_555
O16 Ta11 1.925388 1_555
O17 Ta10 1.925387 1_555
O17 Ta7 1.925387 1_555
O18 Ta9 1.925388 1_555
O18 Ta8 1.925388 1_555
O19 Ta0 1.925388 1_555
O19 Ta6 1.925388 1_555
O20 Ta3 1.925388 1_555
O20 Ta5 1.925388 1_555
O21 Ta4 1.925387 1_555
O21 Ta2 1.925387 1_555
O22 Ta13 2.012844 1_555
O22 Ta11 2.040696 1_555
O23 Ta12 2.012847 1_555
O23 Ta10 2.040696 1_555
O24 Ta12 2.012849 1_555
O24 Ta9 2.040697 1_555
O25 Ta13 2.012849 1_555
O25 Ta8 2.040697 1_555
O26 Ta13 2.012847 1_555
O26 Ta7 2.040696 1_555
O27 Ta13 2.012844 1_556
O27 Ta6 2.040696 1_555
O28 Ta13 2.012849 1_556
O28 Ta5 2.040697 1_555
O29 Ta13 2.012847 1_556
O29 Ta4 2.040696 1_555
O30 Ta12 2.012849 1_555
O30 Ta3 2.040697 1_555
O31 Ta12 2.012847 1_555
O31 Ta2 2.040696 1_555
O32 Ta12 2.012844 1_555
O32 Ta1 2.040696 1_555
O33 Ta12 2.012844 1_555
O33 Ta0 2.040696 1_555
O34 Ta8 1.992801 1_555
O34 Ta11 1.996736 1_655
O34 Ta7 2.478929 1_555
O35 Ta1 1.992799 1_655
O35 Ta10 1.996735 1_545
O35 Ta9 2.478936 1_655
O36 Ta10 1.992805 1_545
O36 Ta9 1.996730 1_555
O36 Ta1 2.478933 1_545
O37 Ta7 1.992805 1_545
O37 Ta8 1.996730 1_555
O37 Ta11 2.478933 1_545
