# generated using pymatgen
data_Sr2VMoO6
_symmetry_space_group_name_H-M   'P 1'
_cell_length_a   5.66592337
_cell_length_b   5.69810037
_cell_length_c   7.91486809
_cell_angle_alpha   89.98257071
_cell_angle_beta   90.00329325
_cell_angle_gamma   89.95216655
_symmetry_Int_Tables_number   1
_chemical_formula_structural   Sr2VMoO6
_chemical_formula_sum   'Sr4 V2 Mo2 O12'
_cell_volume   255.53141559
_cell_formula_units_Z   2
loop_
 _symmetry_equiv_pos_site_id
 _symmetry_equiv_pos_as_xyz
  1  'x, y, z'
loop_
 _atom_site_type_symbol
 _atom_site_label
 _atom_site_symmetry_multiplicity
 _atom_site_fract_x
 _atom_site_fract_y
 _atom_site_fract_z
 _atom_site_occupancy
  Sr  Sr0  1  0.50007700  0.99716700  0.23045000  1
  Sr  Sr1  1  0.99966800  0.50269300  0.23040700  1
  Sr  Sr2  1  0.50009000  0.00301700  0.76957400  1
  Sr  Sr3  1  0.00014600  0.49718500  0.76958900  1
  V  V0  1  0.49989900  0.50009500  0.99990200  1
  V  V1  1  0.99997500  0.00002300  0.00008200  1
  Mo  Mo0  1  0.00003400  0.99994100  0.50009500  1
  Mo  Mo1  1  0.49998000  0.49997400  0.49990900  1
  O  O0  1  0.99042800  0.04678100  0.23840800  1
  O  O1  1  0.50995600  0.45312000  0.23801300  1
  O  O2  1  0.00965900  0.95317000  0.76175700  1
  O  O3  1  0.49000400  0.54695000  0.76181800  1
  O  O4  1  0.24988600  0.24998600  0.98281300  1
  O  O5  1  0.75010700  0.75006900  0.01719500  1
  O  O6  1  0.25000100  0.75009200  0.02517000  1
  O  O7  1  0.75002700  0.24993900  0.97486900  1
  O  O8  1  0.25103400  0.24895000  0.52754200  1
  O  O9  1  0.74904400  0.75094100  0.47246500  1
  O  O10  1  0.24900800  0.74867500  0.45737200  1
  O  O11  1  0.75097700  0.25123400  0.54256800  1
loop_
_geom_bond_atom_site_label_1
_geom_bond_atom_site_label_2
_geom_bond_distance
_geom_bond_site_symmetry_2
Mo0 O8 2.021492 1_565
Mo0 O9 2.021573 1_455
Mo0 O10 2.037444 1_555
Mo0 O11 2.037550 1_465
Mo0 O2 2.088720 1_555
Mo0 O0 2.088963 1_465
Mo1 O8 2.021513 1_555
Mo1 O9 2.021589 1_555
Mo1 O10 2.034681 1_555
Mo1 O11 2.035095 1_555
Mo1 O1 2.090836 1_555
Mo1 O3 2.091028 1_555
O0 V1 1.905887 1_555
O0 Sr1 2.599156 1_555
O0 Sr0 2.793581 1_545
O0 Sr0 2.901892 1_645
O0 Sr1 3.101332 1_545
O1 V0 1.904293 1_554
O1 Sr0 2.599423 1_545
O1 Sr1 2.789898 1_555
O1 Sr1 2.905402 1_455
O1 Sr0 3.101053 1_555
O2 V1 1.905977 1_466
O2 Sr3 2.599573 1_555
O2 Sr2 2.794143 1_565
O2 Sr2 2.901546 1_465
O2 Sr3 3.100914 1_565
O3 V0 1.903958 1_555
O3 Sr2 2.600135 1_565
O3 Sr3 2.790861 1_555
O3 Sr3 2.904712 1_655
O3 Sr2 3.100453 1_555
O4 V1 2.013855 1_456
O4 V0 2.014802 1_555
O4 Sr3 2.613308 1_555
O4 Sr2 2.614761 1_555
O4 Sr0 2.814425 1_546
O4 Sr1 2.814662 1_456
O5 V1 2.013565 1_565
O5 V0 2.015145 1_554
O5 Sr1 2.613242 1_555
O5 Sr0 2.614705 1_555
O5 Sr2 2.814217 1_564
O5 Sr3 2.814734 1_654
O6 V0 2.017632 1_554
O6 V1 2.017633 1_465
O6 Sr0 2.575659 1_555
O6 Sr1 2.576819 1_455
O6 Sr3 2.859679 1_554
O6 Sr2 2.859967 1_564
O7 V1 2.017360 1_556
O7 V0 2.019001 1_555
O7 Sr2 2.574823 1_555
O7 Sr3 2.575889 1_655
O7 Sr1 2.858398 1_556
O7 Sr0 2.859053 1_546
O8 Sr2 2.760354 1_555
O8 Sr3 2.773120 1_555
O8 Sr0 3.094794 1_545
O8 Sr1 3.105462 1_455
O9 Sr0 2.760850 1_555
O9 Sr1 2.772452 1_555
O9 Sr2 3.095441 1_565
O9 Sr3 3.104745 1_655
O10 Sr1 2.681790 1_455
O10 Sr0 2.693773 1_555
O10 Sr3 3.185900 1_555
O10 Sr2 3.199287 1_565
O11 Sr3 2.681484 1_655
O11 Sr2 2.692847 1_555
O11 Sr1 3.185048 1_555
O11 Sr0 3.197604 1_545
