# generated using pymatgen
data_Ti2GaC
_symmetry_space_group_name_H-M   'P 1'
_cell_length_a   3.07045549
_cell_length_b   3.07045539
_cell_length_c   13.33673191
_cell_angle_alpha   90.00000000
_cell_angle_beta   90.00000000
_cell_angle_gamma   119.99999021
_symmetry_Int_Tables_number   1
_chemical_formula_structural   Ti2GaC
_chemical_formula_sum   'Ti4 Ga2 C2'
_cell_volume   108.88942230
_cell_formula_units_Z   2
loop_
 _symmetry_equiv_pos_site_id
 _symmetry_equiv_pos_as_xyz
  1  'x, y, z'
loop_
 _atom_site_type_symbol
 _atom_site_label
 _atom_site_symmetry_multiplicity
 _atom_site_fract_x
 _atom_site_fract_y
 _atom_site_fract_z
 _atom_site_occupancy
  Ti  Ti0  1  0.33333300  0.66666700  0.08595913  1
  Ti  Ti1  1  0.66666700  0.33333300  0.58595913  1
  Ti  Ti2  1  0.66666700  0.33333300  0.91404087  1
  Ti  Ti3  1  0.33333300  0.66666700  0.41404087  1
  Ga  Ga0  1  0.33333300  0.66666700  0.75000000  1
  Ga  Ga1  1  0.66666700  0.33333300  0.25000000  1
  C  C0  1  0.00000000  -0.00000000  0.50000000  1
  C  C1  1  0.00000000  -0.00000000  -0.00000000  1
loop_
_geom_bond_atom_site_label_1
_geom_bond_atom_site_label_2
_geom_bond_distance
_geom_bond_site_symmetry_2
Ga0 Ti1 2.815829 1_565
Ga0 Ti2 2.815829 1_565
Ga0 Ti1 2.815829 1_455
Ga0 Ti2 2.815829 1_455
Ga0 Ti1 2.815832 1_555
Ga0 Ti2 2.815832 1_555
Ga1 Ti3 2.815829 1_545
Ga1 Ti0 2.815829 1_545
Ga1 Ti3 2.815829 1_655
Ga1 Ti0 2.815829 1_655
Ga1 Ti0 2.815832 1_555
Ga1 Ti3 2.815832 1_555
C0 Ti3 2.111119 1_545
C0 Ti1 2.111119 1_455
C0 Ti3 2.111121 1_555
C0 Ti1 2.111121 1_445
C0 Ti3 2.111122 1_445
C0 Ti1 2.111122 1_555
C1 Ti0 2.111119 1_545
C1 Ti2 2.111119 1_454
C1 Ti2 2.111121 1_444
C1 Ti0 2.111121 1_555
C1 Ti0 2.111122 1_445
C1 Ti2 2.111122 1_554
