# generated using pymatgen
data_GdAl3Ni2
_symmetry_space_group_name_H-M   'P 1'
_cell_length_a   9.02203074
_cell_length_b   9.02204370
_cell_length_c   4.04229526
_cell_angle_alpha   90.00000000
_cell_angle_beta   90.00000000
_cell_angle_gamma   119.99788498
_symmetry_Int_Tables_number   1
_chemical_formula_structural   GdAl3Ni2
_chemical_formula_sum   'Gd3 Al9 Ni6'
_cell_volume   284.95556860
_cell_formula_units_Z   3
loop_
 _symmetry_equiv_pos_site_id
 _symmetry_equiv_pos_as_xyz
  1  'x, y, z'
loop_
 _atom_site_type_symbol
 _atom_site_label
 _atom_site_symmetry_multiplicity
 _atom_site_fract_x
 _atom_site_fract_y
 _atom_site_fract_z
 _atom_site_occupancy
  Gd  Gd0  1  0.33333039  0.66666024  0.50000000  1
  Gd  Gd1  1  0.66666330  0.33332667  0.50000000  1
  Gd  Gd2  1  0.00000249  0.00000561  0.00000000  1
  Al  Al0  1  0.50000202  0.00000366  0.00000000  1
  Al  Al1  1  0.00000159  0.50000061  0.00000000  1
  Al  Al2  1  0.49999765  0.50000241  0.00000000  1
  Al  Al3  1  0.29713966  -0.00000140  0.50000000  1
  Al  Al4  1  0.70286066  -0.00000171  0.50000000  1
  Al  Al5  1  -0.00000162  0.29713422  0.50000000  1
  Al  Al6  1  -0.00000042  0.70285959  0.50000000  1
  Al  Al7  1  0.70285993  0.70285887  0.50000000  1
  Al  Al8  1  0.29713746  0.29713608  0.50000000  1
  Ni  Ni0  1  0.18068767  0.36138119  -0.00000000  1
  Ni  Ni1  1  0.81929047  0.63858070  -0.00000000  1
  Ni  Ni2  1  0.63859411  0.81932134  0.00000000  1
  Ni  Ni3  1  0.36139381  0.18070733  0.00000000  1
  Ni  Ni4  1  0.18072860  0.81931591  0.00000000  1
  Ni  Ni5  1  0.81931224  0.18070870  0.00000000  1
loop_
_geom_bond_atom_site_label_1
_geom_bond_atom_site_label_2
_geom_bond_distance
_geom_bond_site_symmetry_2
Gd0 Ni4 3.126258 1_555
Gd0 Ni4 3.126258 1_556
Gd0 Ni2 3.126352 1_555
Gd0 Ni2 3.126352 1_556
Gd0 Ni0 3.126446 1_556
Gd0 Ni0 3.126446 1_555
Gd1 Ni1 3.126297 1_555
Gd1 Ni1 3.126297 1_556
Gd1 Ni5 3.126314 1_555
Gd1 Ni5 3.126314 1_556
Gd1 Ni3 3.126386 1_556
Gd1 Ni3 3.126386 1_555
Gd2 Ni0 2.823603 1_555
Gd2 Ni5 2.823649 1_455
Gd2 Ni3 2.823722 1_555
Gd2 Ni4 2.823825 1_545
Gd2 Ni2 2.823855 1_445
Gd2 Ni1 2.823988 1_445
Al0 Ni2 2.501781 1_545
Al0 Ni4 2.501861 1_545
Al0 Ni3 2.502074 1_555
Al0 Ni5 2.502147 1_555
Al0 Gd1 3.296667 1_555
Al0 Gd1 3.296667 1_554
Al0 Gd0 3.296793 1_544
Al0 Gd0 3.296793 1_545
Al1 Ni1 2.501925 1_455
Al1 Ni5 2.502003 1_455
Al1 Ni0 2.502014 1_555
Al1 Ni4 2.502203 1_555
Al1 Gd0 3.296700 1_555
Al1 Gd0 3.296700 1_554
Al1 Gd1 3.296758 1_454
Al1 Gd1 3.296758 1_455
Al2 Ni1 2.502010 1_555
Al2 Ni3 2.502014 1_555
Al2 Ni0 2.502120 1_555
Al2 Ni2 2.502213 1_555
Al2 Gd0 3.296613 1_555
Al2 Gd0 3.296613 1_554
Al2 Gd1 3.296713 1_555
Al2 Gd1 3.296713 1_554
Al3 Ni4 2.476581 1_545
Al3 Ni4 2.476581 1_546
Al3 Ni3 2.476713 1_555
Al3 Ni3 2.476713 1_556
Al3 Gd0 3.183225 1_545
Al3 Gd1 3.183265 1_555
Al4 Ni2 2.476547 1_545
Al4 Ni2 2.476547 1_546
Al4 Ni5 2.476727 1_556
Al4 Ni5 2.476727 1_555
Al4 Gd1 3.183169 1_555
Al4 Gd0 3.183338 1_545
Al5 Ni5 2.476606 1_456
Al5 Ni5 2.476606 1_455
Al5 Ni0 2.476623 1_556
Al5 Ni0 2.476623 1_555
Al5 Gd1 3.183200 1_455
Al5 Gd0 3.183293 1_555
Al6 Ni1 2.476693 1_456
Al6 Ni1 2.476693 1_455
Al6 Ni4 2.476805 1_555
Al6 Ni4 2.476805 1_556
Al6 Gd0 3.183197 1_555
Al6 Gd1 3.183345 1_455
Al7 Ni1 2.476672 1_555
Al7 Ni1 2.476672 1_556
Al7 Ni2 2.476778 1_556
Al7 Ni2 2.476778 1_555
Al7 Gd0 3.183215 1_555
Al7 Gd1 3.183251 1_555
Al8 Ni3 2.476575 1_556
Al8 Ni3 2.476575 1_555
Al8 Ni0 2.476633 1_556
Al8 Ni0 2.476633 1_555
Al8 Gd0 3.183193 1_555
Al8 Gd1 3.183212 1_555
