# generated using pymatgen
data_AsIrSe
_symmetry_space_group_name_H-M   'P 1'
_cell_length_a   5.97701709
_cell_length_b   5.97701709
_cell_length_c   5.97701709
_cell_angle_alpha   90.00000000
_cell_angle_beta   90.00000000
_cell_angle_gamma   90.00000000
_symmetry_Int_Tables_number   1
_chemical_formula_structural   AsIrSe
_chemical_formula_sum   'As4 Ir4 Se4'
_cell_volume   213.52734143
_cell_formula_units_Z   4
loop_
 _symmetry_equiv_pos_site_id
 _symmetry_equiv_pos_as_xyz
  1  'x, y, z'
loop_
 _atom_site_type_symbol
 _atom_site_label
 _atom_site_symmetry_multiplicity
 _atom_site_fract_x
 _atom_site_fract_y
 _atom_site_fract_z
 _atom_site_occupancy
  As  As0  1  0.11911844  0.88088156  0.38088156  1
  As  As1  1  0.88088156  0.38088156  0.11911844  1
  As  As2  1  0.38088156  0.11911844  0.88088156  1
  As  As3  1  0.61911844  0.61911844  0.61911844  1
  Ir  Ir0  1  0.50491612  0.49508388  0.99508388  1
  Ir  Ir1  1  0.49508388  0.99508388  0.50491612  1
  Ir  Ir2  1  0.99508388  0.50491612  0.49508388  1
  Ir  Ir3  1  0.00491612  0.00491612  0.00491612  1
  Se  Se0  1  0.88326882  0.11673118  0.61673118  1
  Se  Se1  1  0.11673118  0.61673118  0.88326882  1
  Se  Se2  1  0.61673118  0.88326882  0.11673118  1
  Se  Se3  1  0.38326882  0.38326882  0.38326882  1
loop_
_geom_bond_atom_site_label_1
_geom_bond_atom_site_label_2
_geom_bond_distance
_geom_bond_site_symmetry_2
As0 Se0 2.441633 1_465
As0 Ir2 2.462769 1_455
As0 Ir1 2.462769 1_555
As0 Ir3 2.462769 1_565
As1 Se1 2.441633 1_654
As1 Ir3 2.462769 1_655
As1 Ir2 2.462769 1_555
As1 Ir0 2.462769 1_554
As2 Se2 2.441633 1_546
As2 Ir0 2.462769 1_555
As2 Ir1 2.462769 1_545
As2 Ir3 2.462769 1_556
As3 Se3 2.441633 1_555
As3 Ir0 2.462769 1_555
As3 Ir1 2.462769 1_555
As3 Ir2 2.462769 1_555
Ir0 Se1 2.521623 1_555
Ir0 Se2 2.521623 1_556
Ir0 Se3 2.521623 1_556
Ir1 Se0 2.521623 1_565
Ir1 Se3 2.521623 1_565
Ir1 Se2 2.521623 1_555
Ir2 Se1 2.521623 1_655
Ir2 Se0 2.521623 1_555
Ir2 Se3 2.521623 1_655
Ir3 Se2 2.521623 1_445
Ir3 Se0 2.521623 1_454
Ir3 Se1 2.521623 1_544
