# generated using pymatgen
data_Li2TiFeO4
_symmetry_space_group_name_H-M   'P 1'
_cell_length_a   4.24496695
_cell_length_b   15.09584139
_cell_length_c   5.33776664
_cell_angle_alpha   80.29927253
_cell_angle_beta   66.59627618
_cell_angle_gamma   82.28368811
_symmetry_Int_Tables_number   1
_chemical_formula_structural   Li2TiFeO4
_chemical_formula_sum   'Li8 Ti4 Fe4 O16'
_cell_volume   308.56334397
_cell_formula_units_Z   4
loop_
 _symmetry_equiv_pos_site_id
 _symmetry_equiv_pos_as_xyz
  1  'x, y, z'
loop_
 _atom_site_type_symbol
 _atom_site_label
 _atom_site_symmetry_multiplicity
 _atom_site_fract_x
 _atom_site_fract_y
 _atom_site_fract_z
 _atom_site_occupancy
  Li  Li0  1  0.68522000  0.06345700  0.56197700  1
  Li  Li1  1  0.42832000  0.31357700  0.81719200  1
  Li  Li2  1  0.18418000  0.56325300  0.05630600  1
  Li  Li3  1  0.93723700  0.81347400  0.30868300  1
  Li  Li4  1  0.02517200  0.00210200  0.97041900  1
  Li  Li5  1  0.73467400  0.24119400  0.31561400  1
  Li  Li6  1  0.48808100  0.48940000  0.56265400  1
  Li  Li7  1  0.24625000  0.74163700  0.79164400  1
  Ti  Ti0  1  0.42227000  0.12102200  0.11719300  1
  Ti  Ti1  1  0.17754400  0.37168400  0.35768000  1
  Ti  Ti2  1  0.93236900  0.62037700  0.59943400  1
  Ti  Ti3  1  0.67909900  0.86729100  0.85809600  1
  Fe  Fe0  1  0.55480000  0.68486300  0.18938100  1
  Fe  Fe1  1  0.31912200  0.94006400  0.42588000  1
  Fe  Fe2  1  0.04587200  0.18994000  0.70234900  1
  Fe  Fe3  1  0.79925600  0.43800200  0.94702500  1
  O  O0  1  0.52355500  0.18352000  0.74739900  1
  O  O1  1  0.27923600  0.43258600  0.98537200  1
  O  O2  1  0.03247100  0.68167000  0.23110200  1
  O  O3  1  0.77708000  0.93176800  0.49077000  1
  O  O4  1  0.19341200  0.07599700  0.51185700  1
  O  O5  1  0.94818200  0.32556900  0.74689700  1
  O  O6  1  0.70494100  0.57337100  0.99006000  1
  O  O7  1  0.45409500  0.82103000  0.23896400  1
  O  O8  1  0.85211000  0.12545000  0.13053400  1
  O  O9  1  0.60646100  0.37540500  0.37390200  1
  O  O10  1  0.35949100  0.62495600  0.61842800  1
  O  O11  1  0.10905000  0.87522600  0.86328000  1
  O  O12  1  0.49578500  0.00443300  0.99948100  1
  O  O13  1  0.24742700  0.25357000  0.25296200  1
  O  O14  1  0.00180700  0.50268500  0.49539500  1
  O  O15  1  0.75543300  0.75143000  0.74207600  1
loop_
_geom_bond_atom_site_label_1
_geom_bond_atom_site_label_2
_geom_bond_distance
_geom_bond_site_symmetry_2
Li0 O3 2.043825 1_545
Li0 O4 2.096494 1_655
Li0 O0 2.113401 1_555
Li0 O4 2.187793 1_555
Li0 O8 2.199288 1_555
Li0 O12 2.212124 1_555
Li1 O0 2.017560 1_555
Li1 O1 2.054462 1_555
Li1 O5 2.114261 1_555
Li1 O5 2.193914 1_455
Li1 O13 2.208723 1_556
Li1 O9 2.250688 1_555
Li2 O1 2.028209 1_554
Li2 O2 2.063102 1_555
Li2 O6 2.118175 1_554
Li2 O6 2.181006 1_454
Li2 O14 2.225977 1_555
Li2 O10 2.225988 1_554
Li3 O2 2.054866 1_655
Li3 O3 2.080800 1_555
Li3 O7 2.090358 1_655
Li3 O15 2.206819 1_555
Li3 O7 2.210652 1_555
Li3 O11 2.260846 1_654
Li4 O11 2.036281 1_545
Li4 O12 2.069580 1_555
Li4 O8 2.099409 1_456
Li4 O12 2.186096 1_455
Li4 O4 2.377118 1_555
Li5 O8 2.057657 1_555
Li5 O9 2.068721 1_555
Li5 O13 2.096258 1_655
Li5 O0 2.183011 1_555
Li5 O13 2.202153 1_555
Li6 O9 2.044211 1_555
Li6 O10 2.085741 1_555
Li6 O14 2.096664 1_655
Li6 O1 2.139072 1_555
Li6 O14 2.209841 1_555
Li7 O10 2.038833 1_555
Li7 O11 2.078412 1_555
Li7 O15 2.093347 1_555
Li7 O15 2.185148 1_455
Li7 O2 2.226957 1_556
Fe0 O6 2.036561 1_554
Fe0 O7 2.082208 1_555
Fe0 O2 2.119514 1_655
Fe0 O2 2.144998 1_555
Fe0 O10 2.178307 1_555
Fe0 O15 2.289469 1_554
Fe1 O3 2.090400 1_555
Fe1 O7 2.103857 1_555
Fe1 O4 2.129539 1_565
Fe1 O12 2.186613 1_564
Fe1 O3 2.204464 1_455
Fe1 O11 2.239315 1_555
Fe2 O4 2.044256 1_555
Fe2 O5 2.068388 1_455
Fe2 O0 2.122667 1_555
Fe2 O0 2.146991 1_455
Fe2 O8 2.195403 1_456
Fe2 O13 2.285250 1_555
Fe3 O5 2.051319 1_555
Fe3 O6 2.062624 1_555
Fe3 O1 2.116819 1_655
Fe3 O1 2.146013 1_555
Fe3 O9 2.180652 1_556
Fe3 O14 2.299941 1_655
O0 Ti0 1.943784 1_556
O1 Ti1 1.946859 1_556
O2 Ti2 1.931568 1_455
O3 Ti3 1.944849 1_555
O4 Ti0 1.978028 1_555
O5 Ti1 1.958694 1_655
O6 Ti2 1.967053 1_555
O7 Ti3 1.921220 1_554
O8 Ti0 1.864535 1_555
O8 Ti0 2.385096 1_655
O9 Ti1 1.865500 1_555
O9 Ti1 2.384502 1_655
O10 Ti2 1.866683 1_455
O10 Ti2 2.385434 1_555
O11 Ti3 1.856381 1_455
O11 Ti3 2.396001 1_555
O12 Ti0 1.912908 1_556
O12 Ti3 2.255770 1_545
O13 Ti1 1.908335 1_555
O13 Ti0 2.177691 1_555
O14 Ti2 1.900956 1_455
O14 Ti1 2.160036 1_555
O15 Ti3 1.897630 1_555
O15 Ti2 2.170723 1_555
